
  -OEChem-04052323173D

 81 90  0     1  0  0  0  0  0999 V2000
  -28.2981  -37.5514   20.4436 C   0  0  0  0  0  0  0  0  0  0  0  0
  -28.2996  -36.4285   19.6222 C   0  0  0  0  0  0  0  0  0  0  0  0
  -24.5362   -9.3678   21.6046 C   0  0  0  0  0  0  0  0  0  0  0  0
  -24.2236  -10.8865   23.4575 C   0  0  0  0  0  0  0  0  0  0  0  0
  -28.2149  -37.4014   21.8272 C   0  0  0  0  0  0  0  0  0  0  0  0
  -28.2190  -35.1549   20.1842 C   0  0  0  0  0  0  0  0  0  0  0  0
  -25.5891  -28.6245   18.8599 C   0  0  0  0  0  0  0  0  0  0  0  0
  -24.1666   -8.2977   22.4194 C   0  0  0  0  0  0  0  0  0  0  0  0
  -23.8540   -9.8164   24.2723 C   0  0  0  0  0  0  0  0  0  0  0  0
  -25.9902  -27.2899   18.8183 C   0  0  0  0  0  0  0  0  0  0  0  0
  -21.3062   -6.9545   23.6222 C   0  0  0  0  0  0  0  0  0  0  0  0
  -20.4113   -6.0208   23.0997 C   0  0  0  0  0  0  0  0  0  0  0  0
  -25.7708  -27.1554   21.2168 C   0  0  0  0  0  0  0  0  0  0  0  0
  -22.0590   -4.2781   23.3916 C   0  0  0  0  0  0  0  0  0  0  0  0
  -28.3207  -22.6322   21.2252 C   0  0  0  0  0  0  0  0  0  0  0  0
  -24.5647  -10.6623   22.1237 C   0  0  0  0  0  0  0  0  0  0  0  0
  -24.1003  -12.5638   20.4878 C   0  0  0  0  0  0  0  0  0  0  0  0
  -28.1236  -36.1257   22.4059 C   0  0  0  0  0  0  0  0  0  0  0  0
  -25.2858  -29.2387   20.0835 C   0  0  0  0  0  0  0  0  0  0  0  0
  -28.1360  -34.9877   21.5770 C   0  0  0  0  0  0  0  0  0  0  0  0
  -25.3635  -28.4972   21.2710 C   0  0  0  0  0  0  0  0  0  0  0  0
  -23.8255   -8.5220   23.7532 C   0  0  0  0  0  0  0  0  0  0  0  0
  -26.0839  -26.5560   19.9971 C   0  0  0  0  0  0  0  0  0  0  0  0
  -22.5776   -6.5500   24.0293 C   0  0  0  0  0  0  0  0  0  0  0  0
  -20.7877   -4.6826   22.9845 C   0  0  0  0  0  0  0  0  0  0  0  0
  -22.9540   -5.2118   23.9141 C   0  0  0  0  0  0  0  0  0  0  0  0
  -24.9469  -11.7680   21.2827 C   0  0  0  0  0  0  0  0  0  0  0  0
  -28.2210  -21.3309   20.8226 C   0  0  0  0  0  0  0  0  0  0  0  0
  -27.0245  -23.1592   20.9584 C   0  0  0  0  0  0  0  0  0  0  0  0
  -24.9423  -13.4689   19.8891 C   0  0  0  0  0  0  0  0  0  0  0  0
  -22.6799  -12.4915   20.3070 C   0  0  0  0  0  0  0  0  0  0  0  0
  -26.4794  -31.6880   21.7206 C   0  0  0  0  0  0  0  0  0  0  0  0
  -23.9427  -31.1228   23.6618 C   0  0  0  0  0  0  0  0  0  0  0  0
  -21.6122  -28.9120   24.8141 C   0  0  0  0  0  0  0  0  0  0  0  0
  -29.2052  -17.0612   20.1497 C   0  0  0  0  0  0  0  0  0  0  0  0
  -28.0833  -36.0117   23.9093 C   0  0  0  0  0  0  0  0  0  0  0  0
  -24.8288  -30.6716   20.1087 C   0  0  0  0  0  0  0  0  0  0  0  0
  -25.0293  -29.1042   22.6083 C   0  0  0  0  0  0  0  0  0  0  0  0
  -28.9781  -20.0691   20.7074 C   0  0  0  0  0  0  0  0  0  0  0  0
  -27.6233  -34.6429   24.4042 C   0  0  0  0  0  0  0  0  0  0  0  0
  -29.9936  -13.6222   19.6717 C   0  0  0  0  0  0  0  0  0  0  0  0
  -28.3431  -33.5317   23.6466 C   0  0  0  0  0  0  0  0  0  0  0  0
  -28.6834  -12.8991   19.9886 C   0  0  0  0  0  0  0  0  0  0  0  0
  -26.6384  -19.8490   19.8848 C   0  0  0  0  0  0  0  0  0  0  0  0
  -30.2025  -14.8342   20.5769 C   0  0  0  0  0  0  0  0  0  0  0  0
  -27.7724  -15.0707   20.9122 C   0  0  0  0  0  0  0  0  0  0  0  0
  -28.0251  -33.5905   22.1476 C   0  0  1  0  0  0  0  0  0  0  0  0
  -25.0401  -31.3424   21.4625 C   0  0  1  0  0  0  0  0  0  0  0  0
  -27.4905  -13.8740   19.9878 C   0  0  2  0  0  0  0  0  0  0  0  0
  -28.0593  -19.2257   19.7484 C   0  0  1  0  0  0  0  0  0  0  0  0
  -28.5577  -19.3509   18.2991 C   0  0  0  0  0  0  0  0  0  0  0  0
  -19.6966  -28.7300   26.4248 C   0  0  0  0  0  0  0  0  0  0  0  0
  -25.9142  -30.9702   25.9855 C   0  0  0  0  0  0  0  0  0  0  0  0
  -24.1208  -29.8717   27.3438 C   0  0  0  0  0  0  0  0  0  0  0  0
  -23.7939  -32.1945   26.4951 C   0  0  0  0  0  0  0  0  0  0  0  0
  -19.6972  -28.2863   22.6460 C   0  0  0  0  0  0  0  0  0  0  0  0
  -26.5500  -24.5611   21.2051 C   0  0  0  0  0  0  0  0  0  1  0  0
  -23.6958  -30.2572   24.8736 C   0  0  1  0  0  0  0  0  0  0  0  0
  -20.1098  -29.0342   24.9932 C   0  0  2  0  0  0  0  0  0  0  0  0
  -24.3894  -30.8122   26.1497 C   0  0  0  0  0  0  0  0  0  0  0  0
  -26.2284  -12.1351   21.1986 N   0  0  0  0  0  0  0  0  0  0  0  0
  -26.1800  -22.2559   20.4299 N   0  0  0  0  0  0  0  0  0  0  0  0
  -26.9538  -21.1779   20.3717 N   0  0  0  0  0  0  0  0  0  0  0  0
  -26.1933  -13.1715   20.3437 N   0  0  0  0  0  0  0  0  0  0  0  0
  -24.5934  -30.5102   22.5815 N   0  0  0  0  0  0  0  0  0  0  0  0
  -29.0363  -15.7194   20.5293 N   0  0  0  0  0  0  0  0  0  0  0  0
  -24.7272  -14.4821   19.0233 N   0  0  0  0  0  0  0  0  0  0  0  0
  -21.9680  -11.5012   20.9976 N   0  0  0  0  0  0  0  0  0  0  0  0
  -26.7122  -33.0398   21.8875 N   0  0  0  0  0  0  0  0  0  0  0  0
  -22.2479  -30.1227   24.9911 N   0  0  0  0  0  0  0  0  0  0  0  0
  -28.0478  -17.8296   20.1247 N   0  0  0  0  0  0  0  0  0  0  0  0
  -19.4013  -28.0858   24.0880 N   0  3  0  0  0  0  0  0  0  0  0  0
  -22.0624  -13.2711   19.5425 O   0  0  0  0  0  0  0  0  0  0  0  0
  -27.3165  -30.7942   21.7666 O   0  0  0  0  0  0  0  0  0  0  0  0
  -23.5655  -32.2972   23.6705 O   0  0  0  0  0  0  0  0  0  0  0  0
  -22.1669  -27.8481   24.5477 O   0  0  0  0  0  0  0  0  0  0  0  0
  -30.3052  -17.5377   19.8498 O   0  0  0  0  0  0  0  0  0  0  0  0
  -23.4646   -7.4780   24.5485 O   0  0  0  0  0  0  0  0  0  0  0  0
  -26.4758  -25.2534   19.9594 O   0  0  0  0  0  0  0  0  0  1  0  0
  -19.9276   -3.7858   22.4842 F   0  0  0  0  0  0  0  0  0  0  0  0
  -24.1736   -4.8171   24.3046 F   0  0  0  0  0  0  0  0  0  0  0  0
  1  2  1  0  0  0  0
  1  5  2  0  0  0  0
  2  6  2  0  0  0  0
  3  8  2  0  0  0  0
  3 16  1  0  0  0  0
  4  9  1  0  0  0  0
  4 16  2  0  0  0  0
  5 18  1  0  0  0  0
  6 20  1  0  0  0  0
  7 10  2  0  0  0  0
  7 19  1  0  0  0  0
  8 22  1  0  0  0  0
  9 22  2  0  0  0  0
 10 23  1  0  0  0  0
 11 12  2  0  0  0  0
 11 24  1  0  0  0  0
 12 25  1  0  0  0  0
 13 21  1  0  0  0  0
 13 23  2  0  0  0  0
 14 25  2  0  0  0  0
 14 26  1  0  0  0  0
 15 28  2  0  0  0  0
 15 29  1  0  0  0  0
 16 27  1  0  0  0  0
 17 27  1  0  0  0  0
 17 30  2  0  0  0  0
 17 31  1  0  0  0  0
 18 20  2  0  0  0  0
 18 36  1  0  0  0  0
 19 21  2  0  0  0  0
 19 37  1  0  0  0  0
 20 47  1  0  0  0  0
 21 38  1  0  0  0  0
 22 78  1  0  0  0  0
 23 79  1  0  0  0  0
 24 26  2  0  0  0  0
 24 78  1  0  0  0  0
 25 80  1  0  0  0  0
 26 81  1  0  0  0  0
 27 61  2  0  0  0  0
 28 39  1  0  0  0  0
 28 63  1  0  0  0  0
 29 57  1  0  0  0  0
 29 62  2  0  0  0  0
 30 64  1  0  0  0  0
 30 67  1  0  0  0  0
 31 68  1  0  0  0  0
 31 73  2  0  0  0  0
 32 48  1  0  0  0  0
 32 69  1  0  0  0  0
 32 74  2  0  0  0  0
 33 58  1  0  0  0  0
 33 65  1  0  0  0  0
 33 75  2  0  0  0  0
 34 59  1  0  0  0  0
 34 70  1  0  0  0  0
 34 76  2  0  0  0  0
 35 66  1  0  0  0  0
 35 71  1  0  0  0  0
 35 77  2  0  0  0  0
 36 40  1  0  0  0  0
 37 48  1  0  0  0  0
 38 65  1  0  0  0  0
 39 50  1  0  0  0  0
 40 42  1  0  0  0  0
 41 43  1  0  0  0  0
 41 45  1  0  0  0  0
 42 47  1  0  0  0  0
 43 49  1  0  0  0  0
 44 50  1  0  0  0  0
 44 63  1  0  0  0  0
 45 66  1  0  0  0  0
 46 49  1  0  0  0  0
 46 66  1  0  0  0  0
 47 69  1  0  0  0  0
 48 65  1  0  0  0  0
 49 64  1  0  0  0  0
 50 51  1  0  0  0  0
 50 71  1  0  0  0  0
 52 59  1  0  0  0  0
 53 60  1  0  0  0  0
 54 60  1  0  0  0  0
 55 60  1  0  0  0  0
 56 72  1  0  0  0  0
 57 79  1  0  0  0  0
 58 60  1  0  0  0  0
 58 70  1  0  0  0  0
 59 72  1  0  0  0  0
 61 64  1  0  0  0  0
 62 63  1  0  0  0  0
M  CHG  1  72   1
M  ISO  4  35 100  57 101  71 100  79 101
M  END
> <Batch ID>
0187

> <Smiles>
CNC(C)C(=O)NC(C(=O)N1Cc2cc([101O:1][101CH2:1]c3cc4n(n3)CC(C)([100NH:0][100C:0](=O)N3CCCC(n5nc(-c6ccc(Oc7ccc(F)cc7F)cc6)c(C(N)=O)c5N)C3)C4)ccc2CC1C(=O)NC1CCCc2ccccc21)C(C)(C)C

> <Shape>
0.296

> <Color>
0.122

> <Negative vol penalty>
0.000

$$$$

  -OEChem-04052323173D

 83 93  0     1  0  0  0  0  0999 V2000
  -31.1756  -33.0508   24.7737 C   0  0  0  0  0  0  0  0  0  0  0  0
  -30.4588  -32.0215   25.3756 C   0  0  0  0  0  0  0  0  0  0  0  0
  -23.0730   -9.8737   19.9538 C   0  0  0  0  0  0  0  0  0  0  0  0
  -23.8703   -9.8832   22.2344 C   0  0  0  0  0  0  0  0  0  0  0  0
  -32.0665  -32.7664   23.7396 C   0  0  0  0  0  0  0  0  0  0  0  0
  -30.6318  -30.7072   24.9429 C   0  0  0  0  0  0  0  0  0  0  0  0
  -30.4413  -25.6438   28.3827 C   0  0  0  0  0  0  0  0  0  0  0  0
  -22.3428   -8.7141   20.2138 C   0  0  0  0  0  0  0  0  0  0  0  0
  -23.1401   -8.7235   22.4945 C   0  0  0  0  0  0  0  0  0  0  0  0
  -29.4366  -24.7058   28.6162 C   0  0  0  0  0  0  0  0  0  0  0  0
  -22.9470   -5.4000   20.4894 C   0  0  0  0  0  0  0  0  0  0  0  0
  -23.0070   -4.3725   19.5479 C   0  0  0  0  0  0  0  0  0  0  0  0
  -30.3707  -23.2876   26.9029 C   0  0  0  0  0  0  0  0  0  0  0  0
  -20.6157   -4.5193   19.2356 C   0  0  0  0  0  0  0  0  0  0  0  0
  -28.0425  -18.2400   25.8334 C   0  0  0  0  0  0  0  0  0  0  0  0
  -30.2531  -18.8930   24.4866 C   0  0  0  0  0  0  0  0  0  0  0  0
  -23.8368  -10.4583   20.9641 C   0  0  0  0  0  0  0  0  0  0  0  0
  -24.1559  -12.9863   20.8430 C   0  0  0  0  0  0  0  0  0  0  0  0
  -32.2577  -31.4468   23.3006 C   0  0  0  0  0  0  0  0  0  0  0  0
  -31.4135  -25.4153   27.3983 C   0  0  0  0  0  0  0  0  0  0  0  0
  -31.5251  -30.4050   23.9011 C   0  0  0  0  0  0  0  0  0  0  0  0
  -31.3882  -24.2232   26.6606 C   0  0  0  0  0  0  0  0  0  0  0  0
  -22.3763   -8.1390   21.4841 C   0  0  0  0  0  0  0  0  0  0  0  0
  -29.3995  -23.5288   27.8743 C   0  0  0  0  0  0  0  0  0  0  0  0
  -21.7214   -5.9870   20.8040 C   0  0  0  0  0  0  0  0  0  0  0  0
  -21.8413   -3.9322   18.9210 C   0  0  0  0  0  0  0  0  0  0  0  0
  -20.5558   -5.5467   20.1771 C   0  0  0  0  0  0  0  0  0  0  0  0
  -24.5917  -11.6559   20.6959 C   0  0  0  0  0  0  0  0  0  0  0  0
  -28.5807  -19.5050   25.9211 C   0  0  0  0  0  0  0  0  0  0  0  0
  -29.7155  -17.6277   24.3994 C   0  0  0  0  0  0  0  0  0  0  0  0
  -25.2357  -13.7454   20.4632 C   0  0  0  0  0  0  0  0  0  0  0  0
  -22.8882  -13.4910   21.2836 C   0  0  0  0  0  0  0  0  0  0  0  0
  -32.2684  -26.8767   24.7081 C   0  0  0  0  0  0  0  0  0  0  0  0
  -34.6619  -24.6875   24.7383 C   0  0  0  0  0  0  0  0  0  0  0  0
  -35.7902  -21.6427   25.7884 C   0  0  0  0  0  0  0  0  0  0  0  0
  -30.7972  -14.6706   20.7324 C   0  0  0  0  0  0  0  0  0  0  0  0
  -33.1965  -31.1941   22.1476 C   0  0  0  0  0  0  0  0  0  0  0  0
  -32.5062  -26.4250   27.1769 C   0  0  0  0  0  0  0  0  0  0  0  0
  -32.4204  -23.9209   25.6063 C   0  0  0  0  0  0  0  0  0  0  0  0
  -33.6003  -29.7293   22.0006 C   0  0  0  0  0  0  0  0  0  0  0  0
  -29.5403  -12.4703   18.1807 C   0  0  0  0  0  0  0  0  0  0  0  0
  -32.3764  -28.8251   22.1053 C   0  0  0  0  0  0  0  0  0  0  0  0
  -28.1284  -12.1250   18.6422 C   0  0  0  0  0  0  0  0  0  0  0  0
  -27.6722  -20.2228   28.2309 C   0  0  0  0  0  0  0  0  0  0  0  0
  -30.4757  -12.6384   19.3706 C   0  0  0  0  0  0  0  0  0  0  0  0
  -29.3727  -15.5035   22.7665 C   0  0  0  0  0  0  0  0  0  0  0  0
  -30.9274  -16.7992   22.1358 C   0  0  0  0  0  0  0  0  0  0  0  0
  -28.5946  -13.3798   20.8077 C   0  0  0  0  0  0  0  0  0  0  0  0
  -31.7038  -28.9635   23.4764 C   0  0  1  0  0  0  0  0  0  0  0  0
  -27.9293  -20.5278   26.7737 C   0  0  1  0  0  0  0  0  0  0  0  0
  -30.3286  -16.4598   23.5202 C   0  0  0  0  0  0  0  0  0  0  0  0
  -33.1445  -26.3214   25.7952 C   0  0  1  0  0  0  0  0  0  0  0  0
  -27.6151  -13.1783   19.6344 C   0  0  2  0  0  0  0  0  0  0  0  0
  -28.7354  -21.2100   27.8572 C   0  0  1  0  0  0  0  0  0  1  0  0
  -37.7712  -20.1112   25.6214 C   0  0  0  0  0  0  0  0  0  0  0  0
  -33.8265  -23.9198   21.9058 C   0  0  0  0  0  0  0  0  0  0  0  0
  -35.1616  -21.8167   22.1569 C   0  0  0  0  0  0  0  0  0  0  0  0
  -36.2982  -24.0344   22.2696 C   0  0  0  0  0  0  0  0  0  0  0  0
  -36.2423  -21.7191   28.7122 C   0  0  0  0  0  0  0  0  0  0  0  0
  -34.8394  -23.2900   24.1957 C   0  0  1  0  0  0  0  0  0  0  0  0
  -37.1031  -21.2185   26.4216 C   0  0  2  0  0  0  0  0  0  0  0  0
  -35.0107  -23.2715   22.6504 C   0  0  0  0  0  0  0  0  0  0  0  0
  -29.6954  -19.8543   25.2490 N   0  0  0  0  0  0  0  0  0  0  0  0
  -28.6004  -17.2786   25.0712 N   0  0  0  0  0  0  0  0  0  0  0  0
  -25.8503  -11.5711   20.2568 N   0  0  0  0  0  0  0  0  0  0  0  0
  -26.2145  -12.8580   20.1246 N   0  0  0  0  0  0  0  0  0  0  0  0
  -33.4650  -24.9421   25.4226 N   0  0  0  0  0  0  0  0  0  0  0  0
  -29.9673  -13.6150   20.3387 N   0  0  0  0  0  0  0  0  0  0  0  0
  -30.3199  -15.5600   21.6661 N   0  0  0  0  0  0  0  0  0  0  0  0
  -25.4340  -15.0787   20.3891 N   0  0  0  0  0  0  0  0  0  0  0  0
  -21.8895  -12.5729   21.6357 N   0  0  0  0  0  0  0  0  0  0  0  0
  -32.4441  -28.2280   24.4791 N   0  0  0  0  0  0  0  0  0  0  0  0
  -35.9585  -22.7069   24.9279 N   0  0  0  0  0  0  0  0  0  0  0  0
  -36.8733  -20.7233   27.8083 N   0  3  0  0  0  0  0  0  0  0  0  0
  -22.6429  -14.7195   21.3470 O   0  0  0  0  0  0  0  0  0  0  0  0
  -31.4917  -26.1337   24.1194 O   0  0  0  0  0  0  0  0  0  0  0  0
  -35.5556  -25.5205   24.5676 O   0  0  0  0  0  0  0  0  0  0  0  0
  -34.7229  -21.0833   26.0300 O   0  0  0  0  0  0  0  0  0  0  0  0
  -31.9449  -14.8006   20.2863 O   0  0  0  0  0  0  0  0  0  0  0  0
  -21.6637   -7.0075   21.7383 O   0  0  0  0  0  0  0  0  0  0  0  0
  -28.4196  -22.6119   28.0999 O   0  0  0  0  0  0  0  0  0  1  0  0
  -21.8992   -2.9465   18.0158 F   0  0  0  0  0  0  0  0  0  0  0  0
  -19.3756   -6.1077   20.4744 F   0  0  0  0  0  0  0  0  0  0  0  0
  1  2  1  0  0  0  0
  1  5  2  0  0  0  0
  2  6  2  0  0  0  0
  3  8  2  0  0  0  0
  3 17  1  0  0  0  0
  4  9  1  0  0  0  0
  4 17  2  0  0  0  0
  5 19  1  0  0  0  0
  6 21  1  0  0  0  0
  7 10  2  0  0  0  0
  7 20  1  0  0  0  0
  8 23  1  0  0  0  0
  9 23  2  0  0  0  0
 10 24  1  0  0  0  0
 11 12  2  0  0  0  0
 11 25  1  0  0  0  0
 12 26  1  0  0  0  0
 13 22  1  0  0  0  0
 13 24  2  0  0  0  0
 14 26  2  0  0  0  0
 14 27  1  0  0  0  0
 15 29  1  0  0  0  0
 15 64  2  0  0  0  0
 16 30  2  0  0  0  0
 16 63  1  0  0  0  0
 17 28  1  0  0  0  0
 18 28  1  0  0  0  0
 18 31  2  0  0  0  0
 18 32  1  0  0  0  0
 19 21  2  0  0  0  0
 19 37  1  0  0  0  0
 20 22  2  0  0  0  0
 20 38  1  0  0  0  0
 21 49  1  0  0  0  0
 22 39  1  0  0  0  0
 23 80  1  0  0  0  0
 24 81  1  0  0  0  0
 25 27  2  0  0  0  0
 25 80  1  0  0  0  0
 26 82  1  0  0  0  0
 27 83  1  0  0  0  0
 28 65  2  0  0  0  0
 29 50  1  0  0  0  0
 29 63  2  0  0  0  0
 30 51  1  0  0  0  0
 30 64  1  0  0  0  0
 31 66  1  0  0  0  0
 31 70  1  0  0  0  0
 32 71  1  0  0  0  0
 32 75  2  0  0  0  0
 33 52  1  0  0  0  0
 33 72  1  0  0  0  0
 33 76  2  0  0  0  0
 34 60  1  0  0  0  0
 34 67  1  0  0  0  0
 34 77  2  0  0  0  0
 35 61  1  0  0  0  0
 35 73  1  0  0  0  0
 35 78  2  0  0  0  0
 36 68  1  0  0  0  0
 36 69  1  0  0  0  0
 36 79  2  0  0  0  0
 37 40  1  0  0  0  0
 38 52  1  0  0  0  0
 39 67  1  0  0  0  0
 40 42  1  0  0  0  0
 41 43  1  0  0  0  0
 41 45  1  0  0  0  0
 42 49  1  0  0  0  0
 43 53  1  0  0  0  0
 44 50  1  0  0  0  0
 44 54  1  0  0  0  0
 45 68  1  0  0  0  0
 46 51  1  0  0  0  0
 46 69  1  0  0  0  0
 47 51  1  0  0  0  0
 47 69  1  0  0  0  0
 48 53  1  0  0  0  0
 48 68  1  0  0  0  0
 49 72  1  0  0  0  0
 50 54  1  0  0  0  0
 52 67  1  0  0  0  0
 53 66  1  0  0  0  0
 54 81  1  0  0  0  0
 55 61  1  0  0  0  0
 56 62  1  0  0  0  0
 57 62  1  0  0  0  0
 58 62  1  0  0  0  0
 59 74  1  0  0  0  0
 60 62  1  0  0  0  0
 60 73  1  0  0  0  0
 61 74  1  0  0  0  0
 65 66  1  0  0  0  0
M  CHG  1  74   1
M  ISO  4  36 100  54 101  69 100  81 101
M  END
> <Batch ID>
0187

> <Smiles>
CNC(C)C(=O)NC(C(=O)N1Cc2cc([101O:1][101CH:1]3CC3c3cnc(C4C[100N:0]([100C:0](=O)N5CCCC(n6nc(-c7ccc(Oc8ccc(F)cc8F)cc7)c(C(N)=O)c6N)C5)C4)cn3)ccc2CC1C(=O)NC1CCCc2ccccc21)C(C)(C)C

> <Shape>
0.149

> <Color>
0.191

> <Negative vol penalty>
0.000

$$$$

  -OEChem-04052323173D

 87 96  0     1  0  0  0  0  0999 V2000
  -27.5793  -32.0069   27.8766 C   0  0  0  0  0  0  0  0  0  0  0  0
  -27.6039  -30.9590   26.9620 C   0  0  0  0  0  0  0  0  0  0  0  0
  -26.6549  -13.2314   20.7871 C   0  0  0  0  0  0  0  0  0  0  0  0
  -25.8165  -12.0138   18.8762 C   0  0  0  0  0  0  0  0  0  0  0  0
  -26.4332  -32.7901   28.0072 C   0  0  0  0  0  0  0  0  0  0  0  0
  -26.4818  -30.6929   26.1780 C   0  0  0  0  0  0  0  0  0  0  0  0
  -27.6586  -29.8448   21.3261 C   0  0  0  0  0  0  0  0  0  0  0  0
  -25.5880  -12.7628   21.5538 C   0  0  0  0  0  0  0  0  0  0  0  0
  -24.7496  -11.5452   19.6428 C   0  0  0  0  0  0  0  0  0  0  0  0
  -28.1715  -28.5887   21.0055 C   0  0  0  0  0  0  0  0  0  0  0  0
  -22.0027   -9.7383   21.1944 C   0  0  0  0  0  0  0  0  0  0  0  0
  -21.6761   -8.3859   21.0947 C   0  0  0  0  0  0  0  0  0  0  0  0
  -25.9969  -27.9097   20.2122 C   0  0  0  0  0  0  0  0  0  0  0  0
  -23.8879   -7.7949   21.8667 C   0  0  0  0  0  0  0  0  0  0  0  0
  -26.7692  -12.8569   19.4483 C   0  0  0  0  0  0  0  0  0  0  0  0
  -29.1300  -12.7341   18.4897 C   0  0  0  0  0  0  0  0  0  0  0  0
  -25.2999  -32.5395   27.2176 C   0  0  0  0  0  0  0  0  0  0  0  0
  -26.3061  -30.1397   21.1019 C   0  0  0  0  0  0  0  0  0  0  0  0
  -25.3190  -31.4725   26.2990 C   0  0  0  0  0  0  0  0  0  0  0  0
  -25.4699  -29.1712   20.5285 C   0  0  0  0  0  0  0  0  0  0  0  0
  -24.6354  -11.9197   20.9816 C   0  0  0  0  0  0  0  0  0  0  0  0
  -27.3401  -27.6200   20.4512 C   0  0  0  0  0  0  0  0  0  0  0  0
  -23.2719  -10.1190   21.6302 C   0  0  0  0  0  0  0  0  0  0  0  0
  -22.6187   -7.4142   21.4308 C   0  0  0  0  0  0  0  0  0  0  0  0
  -24.2145   -9.1474   21.9664 C   0  0  0  0  0  0  0  0  0  0  0  0
  -27.8707  -13.3411   18.6557 C   0  0  0  0  0  0  0  0  0  0  0  0
  -29.8114  -13.5810   17.6501 C   0  0  0  0  0  0  0  0  0  0  0  0
  -29.6384  -11.5138   19.0448 C   0  0  0  0  0  0  0  0  0  0  0  0
  -23.8479  -30.9390   22.9518 C   0  0  0  0  0  0  0  0  0  0  0  0
  -22.3342  -31.3204   20.1083 C   0  0  0  0  0  0  0  0  0  0  0  0
  -22.5558  -30.9268   16.9928 C   0  0  0  0  0  0  0  0  0  0  0  0
  -29.4910  -19.3174   16.4441 C   0  0  0  0  0  0  0  0  0  0  0  0
  -24.0676  -33.3833   27.4278 C   0  0  0  0  0  0  0  0  0  0  0  0
  -25.7744  -31.5083   21.4284 C   0  0  0  0  0  0  0  0  0  0  0  0
  -24.0153  -29.4445   20.2490 C   0  0  0  0  0  0  0  0  0  0  0  0
  -23.0519  -33.2712   26.2938 C   0  0  0  0  0  0  0  0  0  0  0  0
  -29.1172  -16.7576   14.1495 C   0  0  0  0  0  0  0  0  0  0  0  0
  -22.8318  -31.8096   25.9168 C   0  0  0  0  0  0  0  0  0  0  0  0
  -28.8776  -15.5226   15.0173 C   0  0  0  0  0  0  0  0  0  0  0  0
  -29.9390  -25.8220   21.4015 C   0  0  0  0  0  0  0  0  0  0  0  0
  -28.3675  -17.9649   14.7006 C   0  0  0  0  0  0  0  0  0  0  0  0
  -28.4728  -17.0627   17.0015 C   0  0  0  0  0  0  0  0  0  0  0  0
  -27.9807  -19.8534   18.4050 C   0  0  0  0  0  0  0  0  0  0  0  0
  -29.7438  -22.1696   18.5095 C   0  0  0  0  0  0  0  0  0  0  0  0
  -24.1304  -31.1681   25.4132 C   0  0  1  0  0  0  0  0  0  0  0  0
  -24.2628  -31.5288   21.6335 C   0  0  1  0  0  0  0  0  0  0  0  0
  -29.2137  -15.8099   16.4914 C   0  0  1  0  0  0  0  0  0  0  0  0
  -30.2973  -20.7630   18.2964 C   0  0  1  0  0  0  0  0  0  0  0  0
  -27.4075  -21.2609   18.6254 C   0  0  1  0  0  0  0  0  0  0  0  0
  -30.2496  -24.5883   20.5046 C   0  0  0  0  0  0  0  0  0  0  0  0
  -28.7648  -24.0809   20.8071 C   0  0  2  0  0  0  0  0  0  0  0  0
  -28.4150  -25.5815   21.1982 C   0  0  1  0  0  0  0  0  0  1  0  0
  -30.8773  -20.1519   19.5752 C   0  0  0  0  0  0  0  0  0  0  0  0
  -26.1442  -21.1733   19.4799 C   0  0  0  0  0  0  0  0  0  0  0  0
  -30.5651  -24.9910   19.0553 C   0  0  0  0  0  0  0  0  0  0  0  0
  -31.3989  -23.7306   21.0440 C   0  0  0  0  0  0  0  0  0  0  0  0
  -28.6387  -23.0708   21.9617 C   0  0  0  0  0  0  0  0  0  0  0  0
  -27.5934  -25.8362   22.4578 C   0  0  0  0  0  0  0  0  0  0  0  0
  -22.0785  -33.1767   15.9890 C   0  0  0  0  0  0  0  0  0  0  0  0
  -20.1620  -29.4512   21.1561 C   0  0  0  0  0  0  0  0  0  0  0  0
  -19.3603  -29.1757   18.8004 C   0  0  0  0  0  0  0  0  0  0  0  0
  -19.3119  -31.4252   19.8774 C   0  0  0  0  0  0  0  0  0  0  0  0
  -21.1964  -29.7243   14.6551 C   0  0  0  0  0  0  0  0  0  0  0  0
  -27.9896  -23.5318   19.6026 C   0  0  0  0  0  0  0  0  0  0  0  0
  -21.5315  -30.4248   19.1958 C   0  0  1  0  0  0  0  0  0  0  0  0
  -22.3041  -31.6988   15.7102 C   0  0  2  0  0  0  0  0  0  0  0  0
  -20.1183  -30.1131   19.7644 C   0  0  0  0  0  0  0  0  0  0  0  0
  -27.7563  -14.4853   17.9762 N   0  0  0  0  0  0  0  0  0  0  0  0
  -28.9524  -14.6041   17.3752 N   0  0  0  0  0  0  0  0  0  0  0  0
  -23.5411  -30.7955   20.5916 N   0  0  0  0  0  0  0  0  0  0  0  0
  -28.7090  -18.2032   16.1029 N   0  0  0  0  0  0  0  0  0  0  0  0
  -29.2754  -19.8834   17.7122 N   0  0  0  0  0  0  0  0  0  0  0  0
  -31.0556  -13.5429   17.1276 N   0  0  0  0  0  0  0  0  0  0  0  0
  -28.8056  -10.7654   19.8879 N   0  0  0  0  0  0  0  0  0  0  0  0
  -24.3981  -31.5726   24.0496 N   0  0  0  0  0  0  0  0  0  0  0  0
  -21.5201  -31.0766   17.8907 N   0  0  0  0  0  0  0  0  0  0  0  0
  -28.4578  -22.1272   19.3085 N   0  3  2  0  0  0  0  0  0  0  0  0
  -21.1018  -31.1635   15.0109 N   0  3  0  0  0  0  0  0  0  0  0  0
  -30.8024  -11.1076   18.8135 O   0  0  0  0  0  0  0  0  0  0  0  0
  -23.0840  -29.9811   22.9714 O   0  0  0  0  0  0  0  0  0  0  0  0
  -21.9095  -32.4471   20.3764 O   0  0  0  0  0  0  0  0  0  0  0  0
  -23.5680  -30.2548   17.1781 O   0  0  0  0  0  0  0  0  0  0  0  0
  -30.3310  -19.7787   15.6613 O   0  0  0  0  0  0  0  0  0  0  0  0
  -23.5943  -11.4621   21.7295 O   0  0  0  0  0  0  0  0  0  0  0  0
  -27.8415  -26.3842   20.1357 O   0  0  0  0  0  0  0  0  0  1  0  0
  -22.3045   -6.1155   21.3364 F   0  0  0  0  0  0  0  0  0  0  0  0
  -25.4350   -9.5070   22.3868 F   0  0  0  0  0  0  0  0  0  0  0  0
  1  2  1  0  0  0  0
  1  5  2  0  0  0  0
  2  6  2  0  0  0  0
  3  8  2  0  0  0  0
  3 15  1  0  0  0  0
  4  9  1  0  0  0  0
  4 15  2  0  0  0  0
  5 17  1  0  0  0  0
  6 19  1  0  0  0  0
  7 10  2  0  0  0  0
  7 18  1  0  0  0  0
  8 21  1  0  0  0  0
  9 21  2  0  0  0  0
 10 22  1  0  0  0  0
 11 12  2  0  0  0  0
 11 23  1  0  0  0  0
 12 24  1  0  0  0  0
 13 20  1  0  0  0  0
 13 22  2  0  0  0  0
 14 24  2  0  0  0  0
 14 25  1  0  0  0  0
 15 26  1  0  0  0  0
 16 26  1  0  0  0  0
 16 27  2  0  0  0  0
 16 28  1  0  0  0  0
 17 19  2  0  0  0  0
 17 33  1  0  0  0  0
 18 20  2  0  0  0  0
 18 34  1  0  0  0  0
 19 45  1  0  0  0  0
 20 35  1  0  0  0  0
 21 84  1  0  0  0  0
 22 85  1  0  0  0  0
 23 25  2  0  0  0  0
 23 84  1  0  0  0  0
 24 86  1  0  0  0  0
 25 87  1  0  0  0  0
 26 68  2  0  0  0  0
 27 69  1  0  0  0  0
 27 73  1  0  0  0  0
 28 74  1  0  0  0  0
 28 79  2  0  0  0  0
 29 46  1  0  0  0  0
 29 75  1  0  0  0  0
 29 80  2  0  0  0  0
 30 65  1  0  0  0  0
 30 70  1  0  0  0  0
 30 81  2  0  0  0  0
 31 66  1  0  0  0  0
 31 76  1  0  0  0  0
 31 82  2  0  0  0  0
 32 71  1  0  0  0  0
 32 72  1  0  0  0  0
 32 83  2  0  0  0  0
 33 36  1  0  0  0  0
 34 46  1  0  0  0  0
 35 70  1  0  0  0  0
 36 38  1  0  0  0  0
 37 39  1  0  0  0  0
 37 41  1  0  0  0  0
 38 45  1  0  0  0  0
 39 47  1  0  0  0  0
 40 50  1  0  0  0  0
 40 52  1  0  0  0  0
 41 71  1  0  0  0  0
 42 47  1  0  0  0  0
 42 71  1  0  0  0  0
 43 49  1  0  0  0  0
 43 72  1  0  0  0  0
 44 48  1  0  0  0  0
 44 77  1  0  0  0  0
 45 75  1  0  0  0  0
 46 70  1  0  0  0  0
 47 69  1  0  0  0  0
 48 53  1  0  0  0  0
 48 72  1  0  0  0  0
 49 54  1  0  0  0  0
 49 77  1  0  0  0  0
 50 51  1  0  0  0  0
 50 55  1  0  0  0  0
 50 56  1  0  0  0  0
 51 52  1  0  0  0  0
 51 57  1  0  0  0  0
 51 64  1  0  0  0  0
 52 58  1  0  0  0  0
 52 85  1  0  0  0  0
 59 66  1  0  0  0  0
 60 67  1  0  0  0  0
 61 67  1  0  0  0  0
 62 67  1  0  0  0  0
 63 78  1  0  0  0  0
 64 77  1  0  0  0  0
 65 67  1  0  0  0  0
 65 76  1  0  0  0  0
 66 78  1  0  0  0  0
 68 69  1  0  0  0  0
M  CHG  2  77   1  78   1
M  ISO  4  32 100  52 101  72 100  85 101
M  END
> <Batch ID>
0187

> <Smiles>
CNC(C)C(=O)NC(C(=O)N1Cc2cc([101O:1][101C:1]3(C)CC(C)(C)C3(C)CN3CC(C)[100N:0]([100C:0](=O)N4CCCC(n5nc(-c6ccc(Oc7ccc(F)cc7F)cc6)c(C(N)=O)c5N)C4)CC3C)ccc2CC1C(=O)NC1CCCc2ccccc21)C(C)(C)C

> <Shape>
0.279

> <Color>
0.062

> <Negative vol penalty>
0.000

$$$$

  -OEChem-04052323173D

 84 93  0     1  0  0  0  0  0999 V2000
  -36.6526  -15.6225   24.6267 C   0  0  0  0  0  0  0  0  0  0  0  0
  -35.8988  -16.2857   23.6637 C   0  0  0  0  0  0  0  0  0  0  0  0
  -19.9473  -27.0474   21.7700 C   0  0  0  0  0  0  0  0  0  0  0  0
  -19.5496  -28.6433   23.5398 C   0  0  0  0  0  0  0  0  0  0  0  0
  -36.3840  -14.2866   24.9223 C   0  0  0  0  0  0  0  0  0  0  0  0
  -34.8766  -15.6131   22.9949 C   0  0  0  0  0  0  0  0  0  0  0  0
  -30.6419  -18.3681   22.6458 C   0  0  0  0  0  0  0  0  0  0  0  0
  -18.8866  -26.2691   22.2335 C   0  0  0  0  0  0  0  0  0  0  0  0
  -18.4889  -27.8651   24.0032 C   0  0  0  0  0  0  0  0  0  0  0  0
  -30.6106  -19.3672   21.6739 C   0  0  0  0  0  0  0  0  0  0  0  0
  -16.0547  -24.0454   22.7339 C   0  0  0  0  0  0  0  0  0  0  0  0
  -15.1576  -23.5442   21.7907 C   0  0  0  0  0  0  0  0  0  0  0  0
  -29.3424  -17.9118   20.2273 C   0  0  0  0  0  0  0  0  0  0  0  0
  -14.6122  -25.7978   21.1118 C   0  0  0  0  0  0  0  0  0  0  0  0
  -30.8962  -23.0924   16.5413 C   0  0  0  0  0  0  0  0  0  0  0  0
  -20.2789  -28.2345   22.4232 C   0  0  0  0  0  0  0  0  0  0  0  0
  -21.3170  -30.0768   20.9964 C   0  0  0  0  0  0  0  0  0  0  0  0
  -35.3518  -13.6001   24.2637 C   0  0  0  0  0  0  0  0  0  0  0  0
  -30.0320  -17.1274   22.4111 C   0  0  0  0  0  0  0  0  0  0  0  0
  -34.5949  -14.2664   23.2810 C   0  0  0  0  0  0  0  0  0  0  0  0
  -29.3652  -16.8995   21.1988 C   0  0  0  0  0  0  0  0  0  0  0  0
  -18.1573  -26.6780   23.3500 C   0  0  0  0  0  0  0  0  0  0  0  0
  -29.9633  -19.1381   20.4633 C   0  0  0  0  0  0  0  0  0  0  0  0
  -16.2305  -25.4229   22.8661 C   0  0  0  0  0  0  0  0  0  0  0  0
  -14.4364  -24.4203   20.9796 C   0  0  0  0  0  0  0  0  0  0  0  0
  -15.5093  -26.2990   22.0550 C   0  0  0  0  0  0  0  0  0  0  0  0
  -31.1388  -22.1499   17.5197 C   0  0  0  0  0  0  0  0  0  0  0  0
  -21.3749  -29.0385   21.9454 C   0  0  0  0  0  0  0  0  0  0  0  0
  -30.4125  -22.2973   18.6837 C   0  0  0  0  0  0  0  0  0  0  0  0
  -22.6133  -30.5181   20.8908 C   0  0  0  0  0  0  0  0  0  0  0  0
  -29.3688  -24.1405   17.8587 C   0  0  0  0  0  0  0  0  0  0  0  0
  -20.1920  -30.5959   20.2749 C   0  0  0  0  0  0  0  0  0  0  0  0
  -31.0552  -14.1233   22.2307 C   0  0  0  0  0  0  0  0  0  0  0  0
  -27.8858  -13.4677   22.0129 C   0  0  0  0  0  0  0  0  0  0  0  0
  -24.7525  -14.5497   21.2014 C   0  0  0  0  0  0  0  0  0  0  0  0
  -27.8061  -27.6124   22.1553 C   0  0  0  0  0  0  0  0  0  0  0  0
  -35.1297  -12.1430   24.5833 C   0  0  0  0  0  0  0  0  0  0  0  0
  -30.0517  -16.0696   23.4802 C   0  0  0  0  0  0  0  0  0  0  0  0
  -28.6775  -15.5920   20.9056 C   0  0  0  0  0  0  0  0  0  0  0  0
  -33.7842  -11.6109   24.0968 C   0  0  0  0  0  0  0  0  0  0  0  0
  -26.6727  -30.8736   23.4015 C   0  0  0  0  0  0  0  0  0  0  0  0
  -33.5248  -12.0497   22.6591 C   0  0  0  0  0  0  0  0  0  0  0  0
  -25.1689  -30.8375   23.1259 C   0  0  0  0  0  0  0  0  0  0  0  0
  -26.4814  -26.2743   18.9976 C   0  0  0  0  0  0  0  0  0  0  0  0
  -27.2392  -29.4803   23.6653 C   0  0  0  0  0  0  0  0  0  0  0  0
  -26.1449  -26.7316   20.4131 C   0  0  0  0  0  0  0  0  0  0  0  0
  -25.4256  -28.4512   22.3519 C   0  0  0  0  0  0  0  0  0  0  0  0
  -28.4575  -26.0947   20.3077 C   0  0  0  0  0  0  0  0  0  0  0  0
  -33.4616  -13.5781   22.5517 C   0  0  1  0  0  0  0  0  0  0  0  0
  -29.8402  -14.6618   22.9318 C   0  0  1  0  0  0  0  0  0  0  0  0
  -24.8322  -29.8260   22.0144 C   0  0  1  0  0  0  0  0  0  0  0  0
  -27.6766  -25.3567   19.2308 C   0  0  2  0  0  0  0  0  0  0  0  0
  -22.3679  -13.7757   21.0924 C   0  0  0  0  0  0  0  0  0  0  0  0
  -28.5110  -11.9082   19.4660 C   0  0  0  0  0  0  0  0  0  0  0  0
  -26.0716  -11.9788   18.9071 C   0  0  0  0  0  0  0  0  0  0  0  0
  -26.8425  -10.8159   20.9750 C   0  0  0  0  0  0  0  0  0  0  0  0
  -23.8799  -16.5873   23.1625 C   0  0  0  0  0  0  0  0  0  0  0  0
  -30.5815  -21.3427   19.8204 C   0  0  0  0  0  0  0  0  0  1  0  0
  -26.8955  -13.3418   20.8805 C   0  0  1  0  0  0  0  0  0  0  0  0
  -23.4308  -14.4548   21.9420 C   0  0  2  0  0  0  0  0  0  0  0  0
  -27.0947  -12.0352   20.0616 C   0  0  0  0  0  0  0  0  0  0  0  0
  -30.0148  -24.1048   16.6777 N   0  0  0  0  0  0  0  0  0  0  0  0
  -22.6102  -28.8325   22.4095 N   0  0  0  0  0  0  0  0  0  0  0  0
  -29.5159  -23.2846   18.8880 N   0  0  0  0  0  0  0  0  0  0  0  0
  -23.3406  -29.7472   21.7493 N   0  0  0  0  0  0  0  0  0  0  0  0
  -28.7299  -14.5868   21.9801 N   0  0  0  0  0  0  0  0  0  0  0  0
  -26.8683  -28.5522   22.5967 N   0  0  0  0  0  0  0  0  0  0  0  0
  -27.4383  -26.7788   21.1000 N   0  0  0  0  0  0  0  0  0  0  0  0
  -23.1907  -31.4865   20.1483 N   0  0  0  0  0  0  0  0  0  0  0  0
  -18.9315  -30.0272   20.5034 N   0  0  0  0  0  0  0  0  0  0  0  0
  -28.4540  -25.1699   18.0342 N   0  0  0  0  0  0  0  0  0  0  0  0
  -32.1841  -14.0657   23.0257 N   0  0  0  0  0  0  0  0  0  0  0  0
  -25.5718  -13.4760   21.4790 N   0  0  0  0  0  0  0  0  0  0  0  0
  -22.9427  -15.8147   22.3070 N   0  3  0  0  0  0  0  0  0  0  0  0
  -20.3039  -31.5251   19.4398 O   0  0  0  0  0  0  0  0  0  0  0  0
  -30.9742  -13.7839   21.0561 O   0  0  0  0  0  0  0  0  0  0  0  0
  -27.9048  -12.6087   22.8980 O   0  0  0  0  0  0  0  0  0  0  0  0
  -25.0290  -15.4813   20.4488 O   0  0  0  0  0  0  0  0  0  0  0  0
  -28.9394  -27.5519   22.6504 O   0  0  0  0  0  0  0  0  0  0  0  0
  -17.1221  -25.9189   23.8024 O   0  0  0  0  0  0  0  0  0  0  0  0
  -29.9316  -20.1183   19.5058 O   0  0  0  0  0  0  0  0  0  1  0  0
  -13.5761  -23.9388   20.0729 F   0  0  0  0  0  0  0  0  0  0  0  0
  -15.6748  -27.6233   22.1765 F   0  0  0  0  0  0  0  0  0  0  0  0
  -32.2769  -20.8942   17.2665 Cl  0  0  0  0  0  0  0  0  0  0  0  0
  1  2  1  0  0  0  0
  1  5  2  0  0  0  0
  2  6  2  0  0  0  0
  3  8  2  0  0  0  0
  3 16  1  0  0  0  0
  4  9  1  0  0  0  0
  4 16  2  0  0  0  0
  5 18  1  0  0  0  0
  6 20  1  0  0  0  0
  7 10  2  0  0  0  0
  7 19  1  0  0  0  0
  8 22  1  0  0  0  0
  9 22  2  0  0  0  0
 10 23  1  0  0  0  0
 11 12  2  0  0  0  0
 11 24  1  0  0  0  0
 12 25  1  0  0  0  0
 13 21  1  0  0  0  0
 13 23  2  0  0  0  0
 14 25  2  0  0  0  0
 14 26  1  0  0  0  0
 15 27  1  0  0  0  0
 15 62  2  0  0  0  0
 16 28  1  0  0  0  0
 17 28  1  0  0  0  0
 17 30  2  0  0  0  0
 17 32  1  0  0  0  0
 18 20  2  0  0  0  0
 18 37  1  0  0  0  0
 19 21  2  0  0  0  0
 19 38  1  0  0  0  0
 20 49  1  0  0  0  0
 21 39  1  0  0  0  0
 22 80  1  0  0  0  0
 23 81  1  0  0  0  0
 24 26  2  0  0  0  0
 24 80  1  0  0  0  0
 25 82  1  0  0  0  0
 26 83  1  0  0  0  0
 27 29  2  0  0  0  0
 27 84  1  0  0  0  0
 28 63  2  0  0  0  0
 29 58  1  0  0  0  0
 29 64  1  0  0  0  0
 30 65  1  0  0  0  0
 30 69  1  0  0  0  0
 31 62  1  0  0  0  0
 31 64  2  0  0  0  0
 31 71  1  0  0  0  0
 32 70  1  0  0  0  0
 32 75  2  0  0  0  0
 33 50  1  0  0  0  0
 33 72  1  0  0  0  0
 33 76  2  0  0  0  0
 34 59  1  0  0  0  0
 34 66  1  0  0  0  0
 34 77  2  0  0  0  0
 35 60  1  0  0  0  0
 35 73  1  0  0  0  0
 35 78  2  0  0  0  0
 36 67  1  0  0  0  0
 36 68  1  0  0  0  0
 36 79  2  0  0  0  0
 37 40  1  0  0  0  0
 38 50  1  0  0  0  0
 39 66  1  0  0  0  0
 40 42  1  0  0  0  0
 41 43  1  0  0  0  0
 41 45  1  0  0  0  0
 42 49  1  0  0  0  0
 43 51  1  0  0  0  0
 44 46  1  0  0  0  0
 44 52  1  0  0  0  0
 45 67  1  0  0  0  0
 46 68  1  0  0  0  0
 47 51  1  0  0  0  0
 47 67  1  0  0  0  0
 48 52  1  0  0  0  0
 48 68  1  0  0  0  0
 49 72  1  0  0  0  0
 50 66  1  0  0  0  0
 51 65  1  0  0  0  0
 52 71  1  0  0  0  0
 53 60  1  0  0  0  0
 54 61  1  0  0  0  0
 55 61  1  0  0  0  0
 56 61  1  0  0  0  0
 57 74  1  0  0  0  0
 58 81  1  0  0  0  0
 59 61  1  0  0  0  0
 59 73  1  0  0  0  0
 60 74  1  0  0  0  0
 63 65  1  0  0  0  0
M  CHG  1  74   1
M  ISO  4  36 100  58 101  68 100  81 101
M  END
> <Batch ID>
0187

> <Smiles>
CNC(C)C(=O)NC(C(=O)N1Cc2cc([101O:1][101CH2:1]c3nc(NC4CC[100N:0]([100C:0](=O)N5CCCC(n6nc(-c7ccc(Oc8ccc(F)cc8F)cc7)c(C(N)=O)c6N)C5)C4)ncc3Cl)ccc2CC1C(=O)NC1CCCc2ccccc21)C(C)(C)C

> <Shape>
0.259

> <Color>
0.060

> <Negative vol penalty>
0.000

$$$$

  -OEChem-04052323173D

 81 90  0     1  0  0  0  0  0999 V2000
  -30.8952  -33.8109   17.3350 C   0  0  0  0  0  0  0  0  0  0  0  0
  -30.9788  -32.4635   17.6711 C   0  0  0  0  0  0  0  0  0  0  0  0
  -25.0868   -8.3798   21.9873 C   0  0  0  0  0  0  0  0  0  0  0  0
  -24.3724   -8.4557   19.6806 C   0  0  0  0  0  0  0  0  0  0  0  0
  -30.0506  -34.6562   18.0533 C   0  0  0  0  0  0  0  0  0  0  0  0
  -30.2186  -31.9609   18.7265 C   0  0  0  0  0  0  0  0  0  0  0  0
  -27.6913  -26.3964   19.1200 C   0  0  0  0  0  0  0  0  0  0  0  0
  -23.8326   -7.8962   22.3598 C   0  0  0  0  0  0  0  0  0  0  0  0
  -23.1182   -7.9721   20.0531 C   0  0  0  0  0  0  0  0  0  0  0  0
  -28.0950  -25.2260   19.7611 C   0  0  0  0  0  0  0  0  0  0  0  0
  -22.1837   -4.9448   22.3041 C   0  0  0  0  0  0  0  0  0  0  0  0
  -22.1409   -3.8725   23.1952 C   0  0  0  0  0  0  0  0  0  0  0  0
  -30.0193  -21.6321   22.8843 C   0  0  0  0  0  0  0  0  0  0  0  0
  -26.7077  -25.7905   21.6522 C   0  0  0  0  0  0  0  0  0  0  0  0
  -20.8940   -5.2244   24.7620 C   0  0  0  0  0  0  0  0  0  0  0  0
  -30.0029  -20.3189   23.2996 C   0  0  0  0  0  0  0  0  0  0  0  0
  -28.7011  -20.4620   21.4832 C   0  0  0  0  0  0  0  0  0  0  0  0
  -25.3567   -8.6596   20.6477 C   0  0  0  0  0  0  0  0  0  0  0  0
  -27.7785   -8.4030   19.8883 C   0  0  0  0  0  0  0  0  0  0  0  0
  -29.2724  -34.1617   19.1118 C   0  0  0  0  0  0  0  0  0  0  0  0
  -26.7997  -27.2795   19.7458 C   0  0  0  0  0  0  0  0  0  0  0  0
  -29.3638  -32.8007   19.4605 C   0  0  0  0  0  0  0  0  0  0  0  0
  -26.2923  -26.9701   21.0158 C   0  0  0  0  0  0  0  0  0  0  0  0
  -29.1958  -21.7227   21.7351 C   0  0  0  0  0  0  0  0  0  0  0  0
  -22.8483   -7.6923   21.3928 C   0  0  0  0  0  0  0  0  0  0  0  0
  -27.6055  -24.9243   21.0286 C   0  0  0  0  0  0  0  0  0  0  0  0
  -21.5818   -6.1569   22.6420 C   0  0  0  0  0  0  0  0  0  0  0  0
  -21.4960   -4.0123   24.4241 C   0  0  0  0  0  0  0  0  0  0  0  0
  -20.9369   -6.2967   23.8709 C   0  0  0  0  0  0  0  0  0  0  0  0
  -26.6518   -9.1597   20.2623 C   0  0  0  0  0  0  0  0  0  0  0  0
  -28.7466   -9.3390   19.6183 C   0  0  0  0  0  0  0  0  0  0  0  0
  -27.9357   -6.9810   19.7932 C   0  0  0  0  0  0  0  0  0  0  0  0
  -26.9468  -30.3032   20.7150 C   0  0  0  0  0  0  0  0  0  0  0  0
  -23.7953  -29.8497   21.3351 C   0  0  0  0  0  0  0  0  0  0  0  0
  -21.2614  -27.6676   22.0168 C   0  0  0  0  0  0  0  0  0  0  0  0
  -29.4529  -14.8599   21.6397 C   0  0  0  0  0  0  0  0  0  0  0  0
  -28.4095  -35.1236   19.8896 C   0  0  0  0  0  0  0  0  0  0  0  0
  -26.3532  -28.5246   19.0297 C   0  0  0  0  0  0  0  0  0  0  0  0
  -25.3172  -27.8750   21.7222 C   0  0  0  0  0  0  0  0  0  0  0  0
  -27.3557  -34.4352   20.7531 C   0  0  0  0  0  0  0  0  0  0  0  0
  -29.3247  -13.8264   18.1291 C   0  0  0  0  0  0  0  0  0  0  0  0
  -27.9757  -33.2792   21.5317 C   0  0  0  0  0  0  0  0  0  0  0  0
  -28.6685  -12.4550   18.2516 C   0  0  0  0  0  0  0  0  0  0  0  0
  -28.8037  -14.8157   19.1724 C   0  0  0  0  0  0  0  0  0  0  0  0
  -28.2349  -12.9351   20.6858 C   0  0  0  0  0  0  0  0  0  0  0  0
  -28.5958  -17.2936   21.2086 C   0  0  0  0  0  0  0  0  0  0  0  0
  -30.0969  -17.0884   22.7024 C   0  0  0  0  0  0  0  0  0  0  0  0
  -28.5363  -32.2129   20.5830 C   0  0  1  0  0  0  0  0  0  0  0  0
  -25.8401  -29.6063   19.9753 C   0  0  1  0  0  0  0  0  0  0  0  0
  -28.8038  -11.9197   19.6849 C   0  0  1  0  0  0  0  0  0  0  0  0
  -28.8852  -18.0503   22.5392 C   0  0  0  0  0  0  0  0  0  0  0  0
  -27.7985  -17.8210   23.6016 C   0  0  0  0  0  0  0  0  0  0  0  0
  -18.8023  -27.5970   22.5122 C   0  0  0  0  0  0  0  0  0  0  0  0
  -24.3416  -30.8260   24.1738 C   0  0  0  0  0  0  0  0  0  0  0  0
  -22.1393  -29.8515   24.8582 C   0  0  0  0  0  0  0  0  0  0  0  0
  -22.2191  -31.6829   23.1662 C   0  0  0  0  0  0  0  0  0  0  0  0
  -20.7070  -26.0274   19.6166 C   0  0  0  0  0  0  0  0  0  0  0  0
  -28.9170  -22.9419   20.9525 C   0  0  0  0  0  0  0  0  0  1  0  0
  -22.9981  -29.3655   22.5221 C   0  0  1  0  0  0  0  0  0  0  0  0
  -19.8685  -27.5264   21.4300 C   0  0  2  0  0  0  0  0  0  0  0  0
  -22.9444  -30.4152   23.6678 C   0  0  0  0  0  0  0  0  0  0  0  0
  -26.8817  -10.4751   20.2339 N   0  0  0  0  0  0  0  0  0  0  0  0
  -29.1982  -19.6169   22.4407 N   0  0  0  0  0  0  0  0  0  0  0  0
  -28.1639  -10.5523   19.8389 N   0  0  0  0  0  0  0  0  0  0  0  0
  -24.9157  -29.0836   20.9835 N   0  0  0  0  0  0  0  0  0  0  0  0
  -28.8533  -14.2568   20.5289 N   0  0  0  0  0  0  0  0  0  0  0  0
  -29.4564  -16.2339   21.7092 N   0  0  0  0  0  0  0  0  0  0  0  0
  -30.0311   -9.2345   19.2163 N   0  0  0  0  0  0  0  0  0  0  0  0
  -26.8400   -6.1652   20.1065 N   0  0  0  0  0  0  0  0  0  0  0  0
  -27.4660  -31.3975   20.0499 N   0  0  0  0  0  0  0  0  0  0  0  0
  -21.6902  -28.9780   22.0048 N   0  0  0  0  0  0  0  0  0  0  0  0
  -19.7343  -26.2216   20.7225 N   0  3  0  0  0  0  0  0  0  0  0  0
  -29.0208   -6.4491   19.4567 O   0  0  0  0  0  0  0  0  0  0  0  0
  -27.3023  -29.8803   21.8088 O   0  0  0  0  0  0  0  0  0  0  0  0
  -23.4330  -30.8660   20.7372 O   0  0  0  0  0  0  0  0  0  0  0  0
  -21.9033  -26.7116   22.4464 O   0  0  0  0  0  0  0  0  0  0  0  0
  -29.9438  -14.1927   22.5599 O   0  0  0  0  0  0  0  0  0  0  0  0
  -21.6245   -7.2202   21.7559 O   0  0  0  0  0  0  0  0  0  0  0  0
  -28.0005  -23.7772   21.6601 O   0  0  0  0  0  0  0  0  0  1  0  0
  -21.4536   -2.9821   25.2791 F   0  0  0  0  0  0  0  0  0  0  0  0
  -20.3557   -7.4583   24.2005 F   0  0  0  0  0  0  0  0  0  0  0  0
  1  2  1  0  0  0  0
  1  5  2  0  0  0  0
  2  6  2  0  0  0  0
  3  8  2  0  0  0  0
  3 18  1  0  0  0  0
  4  9  1  0  0  0  0
  4 18  2  0  0  0  0
  5 20  1  0  0  0  0
  6 22  1  0  0  0  0
  7 10  2  0  0  0  0
  7 21  1  0  0  0  0
  8 25  1  0  0  0  0
  9 25  2  0  0  0  0
 10 26  1  0  0  0  0
 11 12  2  0  0  0  0
 11 27  1  0  0  0  0
 12 28  1  0  0  0  0
 13 16  2  0  0  0  0
 13 24  1  0  0  0  0
 14 23  1  0  0  0  0
 14 26  2  0  0  0  0
 15 28  2  0  0  0  0
 15 29  1  0  0  0  0
 16 63  1  0  0  0  0
 17 24  2  0  0  0  0
 17 63  1  0  0  0  0
 18 30  1  0  0  0  0
 19 30  1  0  0  0  0
 19 31  2  0  0  0  0
 19 32  1  0  0  0  0
 20 22  2  0  0  0  0
 20 37  1  0  0  0  0
 21 23  2  0  0  0  0
 21 38  1  0  0  0  0
 22 48  1  0  0  0  0
 23 39  1  0  0  0  0
 24 58  1  0  0  0  0
 25 78  1  0  0  0  0
 26 79  1  0  0  0  0
 27 29  2  0  0  0  0
 27 78  1  0  0  0  0
 28 80  1  0  0  0  0
 29 81  1  0  0  0  0
 30 62  2  0  0  0  0
 31 64  1  0  0  0  0
 31 68  1  0  0  0  0
 32 69  1  0  0  0  0
 32 73  2  0  0  0  0
 33 49  1  0  0  0  0
 33 70  1  0  0  0  0
 33 74  2  0  0  0  0
 34 59  1  0  0  0  0
 34 65  1  0  0  0  0
 34 75  2  0  0  0  0
 35 60  1  0  0  0  0
 35 71  1  0  0  0  0
 35 76  2  0  0  0  0
 36 66  1  0  0  0  0
 36 67  1  0  0  0  0
 36 77  2  0  0  0  0
 37 40  1  0  0  0  0
 38 49  1  0  0  0  0
 39 65  1  0  0  0  0
 40 42  1  0  0  0  0
 41 43  1  0  0  0  0
 41 44  1  0  0  0  0
 42 48  1  0  0  0  0
 43 50  1  0  0  0  0
 44 66  1  0  0  0  0
 45 50  1  0  0  0  0
 45 66  1  0  0  0  0
 46 51  1  0  0  0  0
 46 67  1  0  0  0  0
 47 51  1  0  0  0  0
 47 67  1  0  0  0  0
 48 70  1  0  0  0  0
 49 65  1  0  0  0  0
 50 64  1  0  0  0  0
 51 52  1  0  0  0  0
 51 63  1  0  0  0  0
 53 60  1  0  0  0  0
 54 61  1  0  0  0  0
 55 61  1  0  0  0  0
 56 61  1  0  0  0  0
 57 72  1  0  0  0  0
 58 79  1  0  0  0  0
 59 61  1  0  0  0  0
 59 71  1  0  0  0  0
 60 72  1  0  0  0  0
 62 64  1  0  0  0  0
M  CHG  1  72   1
M  ISO  4  36 100  58 101  67 100  79 101
M  END
> <Batch ID>
0187

> <Smiles>
CNC(C)C(=O)NC(C(=O)N1Cc2cc([101O:1][101CH2:1]c3ccn(C4(C)C[100N:0]([100C:0](=O)N5CCCC(n6nc(-c7ccc(Oc8ccc(F)cc8F)cc7)c(C(N)=O)c6N)C5)C4)c3)ccc2CC1C(=O)NC1CCCc2ccccc21)C(C)(C)C

> <Shape>
0.261

> <Color>
0.086

> <Negative vol penalty>
0.000

$$$$

  -OEChem-04052323173D

 80 89  0     1  0  0  0  0  0999 V2000
  -28.0685  -31.9094   26.1394 C   0  0  0  0  0  0  0  0  0  0  0  0
  -28.6680  -30.9700   25.3066 C   0  0  0  0  0  0  0  0  0  0  0  0
  -22.9046  -15.5390   20.6115 C   0  0  0  0  0  0  0  0  0  0  0  0
  -22.4527  -13.8754   18.9188 C   0  0  0  0  0  0  0  0  0  0  0  0
  -26.7564  -31.7200   26.5712 C   0  0  0  0  0  0  0  0  0  0  0  0
  -27.9560  -29.8400   24.9060 C   0  0  0  0  0  0  0  0  0  0  0  0
  -28.3368  -26.9705   19.5090 C   0  0  0  0  0  0  0  0  0  0  0  0
  -21.8154  -16.2880   20.1663 C   0  0  0  0  0  0  0  0  0  0  0  0
  -21.3634  -14.6244   18.4736 C   0  0  0  0  0  0  0  0  0  0  0  0
  -29.0291  -25.8320   19.0988 C   0  0  0  0  0  0  0  0  0  0  0  0
  -21.1228  -18.4101   17.6284 C   0  0  0  0  0  0  0  0  0  0  0  0
  -21.3017  -19.7849   17.4754 C   0  0  0  0  0  0  0  0  0  0  0  0
  -27.0474  -24.5045   19.4593 C   0  0  0  0  0  0  0  0  0  0  0  0
  -19.5501  -20.1923   19.0889 C   0  0  0  0  0  0  0  0  0  0  0  0
  -23.2233  -14.3328   19.9877 C   0  0  0  0  0  0  0  0  0  0  0  0
  -24.3443  -12.5553   21.4340 C   0  0  0  0  0  0  0  0  0  0  0  0
  -26.0247  -30.5919   26.1679 C   0  0  0  0  0  0  0  0  0  0  0  0
  -26.9955  -26.8826   19.9085 C   0  0  0  0  0  0  0  0  0  0  0  0
  -26.6333  -29.6346   25.3339 C   0  0  0  0  0  0  0  0  0  0  0  0
  -26.3396  -25.6438   19.8717 C   0  0  0  0  0  0  0  0  0  0  0  0
  -21.0447  -15.8307   19.0974 C   0  0  0  0  0  0  0  0  0  0  0  0
  -28.3853  -24.5982   19.0767 C   0  0  0  0  0  0  0  0  0  0  0  0
  -20.1575  -17.9263   18.5115 C   0  0  0  0  0  0  0  0  0  0  0  0
  -20.5154  -20.6760   18.2056 C   0  0  0  0  0  0  0  0  0  0  0  0
  -19.3712  -18.8175   19.2418 C   0  0  0  0  0  0  0  0  0  0  0  0
  -24.3487  -13.5589   20.4468 C   0  0  0  0  0  0  0  0  0  0  0  0
  -25.6495  -12.1326   21.4997 C   0  0  0  0  0  0  0  0  0  0  0  0
  -23.2576  -12.0502   22.2211 C   0  0  0  0  0  0  0  0  0  0  0  0
  -25.4157  -27.4606   22.6055 C   0  0  0  0  0  0  0  0  0  0  0  0
  -22.8200  -26.8499   20.7584 C   0  0  0  0  0  0  0  0  0  0  0  0
  -21.5282  -25.3345   17.9868 C   0  0  0  0  0  0  0  0  0  0  0  0
  -30.8369  -14.7742   20.1193 C   0  0  0  0  0  0  0  0  0  0  0  0
  -24.6252  -30.4066   26.6987 C   0  0  0  0  0  0  0  0  0  0  0  0
  -26.2550  -28.1245   20.3228 C   0  0  0  0  0  0  0  0  0  0  0  0
  -24.8946  -25.4993   20.2713 C   0  0  0  0  0  0  0  0  0  0  0  0
  -23.8129  -29.3707   25.9258 C   0  0  0  0  0  0  0  0  0  0  0  0
  -29.6008  -11.7115   18.8666 C   0  0  0  0  0  0  0  0  0  0  0  0
  -24.6375  -28.1080   25.6970 C   0  0  0  0  0  0  0  0  0  0  0  0
  -28.1088  -11.7488   19.1855 C   0  0  0  0  0  0  0  0  0  0  0  0
  -31.1313  -18.2663   21.3095 C   0  0  0  0  0  0  0  0  0  0  0  0
  -30.1028  -13.0924   18.4665 C   0  0  0  0  0  0  0  0  0  0  0  0
  -31.6906  -16.8624   21.1395 C   0  0  0  0  0  0  0  0  0  0  0  0
  -29.5296  -16.9827   20.1023 C   0  0  0  0  0  0  0  0  0  0  0  0
  -28.3755  -14.1896   19.8671 C   0  0  0  0  0  0  0  0  0  0  0  0
  -30.2885  -21.3213   19.2002 C   0  0  0  0  0  0  0  0  0  0  0  0
  -28.8950  -21.9026   20.6435 C   0  0  0  0  0  0  0  0  0  0  0  0
  -25.8852  -28.4084   24.8577 C   0  0  1  0  0  0  0  0  0  0  0  0
  -25.0407  -27.8319   21.1987 C   0  0  1  0  0  0  0  0  0  0  0  0
  -30.1484  -18.3799   20.1436 C   0  0  1  0  0  0  0  0  0  0  0  0
  -27.8107  -12.8082   20.2578 C   0  0  1  0  0  0  0  0  0  0  0  0
  -29.7691  -22.6963   19.6568 C   0  0  0  0  0  0  0  0  0  1  0  0
  -19.3669  -24.9825   16.7611 C   0  0  0  0  0  0  0  0  0  0  0  0
  -21.9730  -24.7936   22.8474 C   0  0  0  0  0  0  0  0  0  0  0  0
  -20.3917  -23.8339   21.1602 C   0  0  0  0  0  0  0  0  0  0  0  0
  -20.1058  -26.1868   21.9379 C   0  0  0  0  0  0  0  0  0  0  0  0
  -22.5483  -26.6906   15.5621 C   0  0  0  0  0  0  0  0  0  0  0  0
  -29.1259  -19.4869   20.3275 C   0  0  0  0  0  0  0  0  0  0  0  0
  -22.0294  -25.6147   20.4003 C   0  0  1  0  0  0  0  0  0  0  0  0
  -20.6096  -25.8492   16.8933 C   0  0  2  0  0  0  0  0  0  0  0  0
  -21.1528  -25.1093   21.5807 C   0  0  0  0  0  0  0  0  0  0  0  0
  -25.5606  -13.7618   19.9231 N   0  0  0  0  0  0  0  0  0  0  0  0
  -26.3299  -12.8799   20.5838 N   0  0  0  0  0  0  0  0  0  0  0  0
  -24.2154  -26.7416   20.6749 N   0  0  0  0  0  0  0  0  0  0  0  0
  -29.7898  -14.1000   19.4814 N   0  0  0  0  0  0  0  0  0  0  0  0
  -30.6192  -16.0937   20.5136 N   0  0  0  0  0  0  0  0  0  0  0  0
  -26.2701  -11.1984   22.2511 N   0  0  0  0  0  0  0  0  0  0  0  0
  -21.9815  -12.5960   22.0265 N   0  0  0  0  0  0  0  0  0  0  0  0
  -25.5342  -28.5402   23.4598 N   0  0  0  0  0  0  0  0  0  0  0  0
  -21.2760  -25.9473   19.1961 N   0  0  0  0  0  0  0  0  0  0  0  0
  -29.8337  -20.7754   20.4923 N   0  3  0  0  0  0  0  0  0  0  0  0
  -21.3186  -25.8573   15.5825 N   0  3  0  0  0  0  0  0  0  0  0  0
  -23.4167  -11.1532   23.0835 O   0  0  0  0  0  0  0  0  0  0  0  0
  -25.5836  -26.2817   22.8949 O   0  0  0  0  0  0  0  0  0  0  0  0
  -22.2213  -27.8753   21.0928 O   0  0  0  0  0  0  0  0  0  0  0  0
  -22.3814  -24.4724   17.7890 O   0  0  0  0  0  0  0  0  0  0  0  0
  -31.9380  -14.2343   20.2925 O   0  0  0  0  0  0  0  0  0  0  0  0
  -19.9816  -16.5611   18.6629 O   0  0  0  0  0  0  0  0  0  0  0  0
  -29.0667  -23.4722   18.6727 O   0  0  0  0  0  0  0  0  0  1  0  0
  -20.6884  -21.9963   18.0598 F   0  0  0  0  0  0  0  0  0  0  0  0
  -18.4431  -18.3587   20.0927 F   0  0  0  0  0  0  0  0  0  0  0  0
  1  2  1  0  0  0  0
  1  5  2  0  0  0  0
  2  6  2  0  0  0  0
  3  8  2  0  0  0  0
  3 15  1  0  0  0  0
  4  9  1  0  0  0  0
  4 15  2  0  0  0  0
  5 17  1  0  0  0  0
  6 19  1  0  0  0  0
  7 10  2  0  0  0  0
  7 18  1  0  0  0  0
  8 21  1  0  0  0  0
  9 21  2  0  0  0  0
 10 22  1  0  0  0  0
 11 12  2  0  0  0  0
 11 23  1  0  0  0  0
 12 24  1  0  0  0  0
 13 20  1  0  0  0  0
 13 22  2  0  0  0  0
 14 24  2  0  0  0  0
 14 25  1  0  0  0  0
 15 26  1  0  0  0  0
 16 26  1  0  0  0  0
 16 27  2  0  0  0  0
 16 28  1  0  0  0  0
 17 19  2  0  0  0  0
 17 33  1  0  0  0  0
 18 20  2  0  0  0  0
 18 34  1  0  0  0  0
 19 47  1  0  0  0  0
 20 35  1  0  0  0  0
 21 77  1  0  0  0  0
 22 78  1  0  0  0  0
 23 25  2  0  0  0  0
 23 77  1  0  0  0  0
 24 79  1  0  0  0  0
 25 80  1  0  0  0  0
 26 61  2  0  0  0  0
 27 62  1  0  0  0  0
 27 66  1  0  0  0  0
 28 67  1  0  0  0  0
 28 72  2  0  0  0  0
 29 48  1  0  0  0  0
 29 68  1  0  0  0  0
 29 73  2  0  0  0  0
 30 58  1  0  0  0  0
 30 63  1  0  0  0  0
 30 74  2  0  0  0  0
 31 59  1  0  0  0  0
 31 69  1  0  0  0  0
 31 75  2  0  0  0  0
 32 64  1  0  0  0  0
 32 65  1  0  0  0  0
 32 76  2  0  0  0  0
 33 36  1  0  0  0  0
 34 48  1  0  0  0  0
 35 63  1  0  0  0  0
 36 38  1  0  0  0  0
 37 39  1  0  0  0  0
 37 41  1  0  0  0  0
 38 47  1  0  0  0  0
 39 50  1  0  0  0  0
 40 42  1  0  0  0  0
 40 49  1  0  0  0  0
 41 64  1  0  0  0  0
 42 65  1  0  0  0  0
 43 49  1  0  0  0  0
 43 65  1  0  0  0  0
 44 50  1  0  0  0  0
 44 64  1  0  0  0  0
 45 51  1  0  0  0  0
 45 70  1  0  0  0  0
 46 51  1  0  0  0  0
 46 70  1  0  0  0  0
 47 68  1  0  0  0  0
 48 63  1  0  0  0  0
 49 57  1  0  0  0  0
 50 62  1  0  0  0  0
 51 78  1  0  0  0  0
 52 59  1  0  0  0  0
 53 60  1  0  0  0  0
 54 60  1  0  0  0  0
 55 60  1  0  0  0  0
 56 71  1  0  0  0  0
 57 70  1  0  0  0  0
 58 60  1  0  0  0  0
 58 69  1  0  0  0  0
 59 71  1  0  0  0  0
 61 62  1  0  0  0  0
M  CHG  2  70   1  71   1
M  ISO  4  32 100  51 101  65 100  78 101
M  END
> <Batch ID>
0187

> <Smiles>
CNC(C)C(=O)NC(C(=O)N1Cc2cc([101O:1][101CH:1]3CN(CC4CC[100N:0]([100C:0](=O)N5CCCC(n6nc(-c7ccc(Oc8ccc(F)cc8F)cc7)c(C(N)=O)c6N)C5)C4)C3)ccc2CC1C(=O)NC1CCCc2ccccc21)C(C)(C)C

> <Shape>
0.241

> <Color>
0.088

> <Negative vol penalty>
0.000

$$$$

  -OEChem-04052323173D

 83 92  0     1  0  0  0  0  0999 V2000
  -32.4258  -37.9129   21.5591 C   0  0  0  0  0  0  0  0  0  0  0  0
  -32.3438  -36.8911   20.6186 C   0  0  0  0  0  0  0  0  0  0  0  0
  -24.3972   -9.1263   22.2620 C   0  0  0  0  0  0  0  0  0  0  0  0
  -23.8977   -9.1520   19.8984 C   0  0  0  0  0  0  0  0  0  0  0  0
  -32.0466  -37.6755   22.8796 C   0  0  0  0  0  0  0  0  0  0  0  0
  -31.8835  -35.6308   20.9984 C   0  0  0  0  0  0  0  0  0  0  0  0
  -28.2139  -30.0281   18.4566 C   0  0  0  0  0  0  0  0  0  0  0  0
  -23.2964   -8.2995   22.4857 C   0  0  0  0  0  0  0  0  0  0  0  0
  -22.7969   -8.3251   20.1221 C   0  0  0  0  0  0  0  0  0  0  0  0
  -28.3181  -28.6445   18.3205 C   0  0  0  0  0  0  0  0  0  0  0  0
  -22.5343   -5.0221   22.1533 C   0  0  0  0  0  0  0  0  0  0  0  0
  -22.7088   -3.9241   22.9957 C   0  0  0  0  0  0  0  0  0  0  0  0
  -27.6156  -28.3722   20.6121 C   0  0  0  0  0  0  0  0  0  0  0  0
  -21.0040   -4.7873   24.4740 C   0  0  0  0  0  0  0  0  0  0  0  0
  -27.5702  -23.7375   17.3854 C   0  0  0  0  0  0  0  0  0  0  0  0
  -29.5323  -23.7606   18.6526 C   0  0  0  0  0  0  0  0  0  0  0  0
  -24.6979   -9.5526   20.9683 C   0  0  0  0  0  0  0  0  0  0  0  0
  -27.1545  -10.0081   20.4533 C   0  0  0  0  0  0  0  0  0  0  0  0
  -31.5723  -36.4144   23.2736 C   0  0  0  0  0  0  0  0  0  0  0  0
  -27.8196  -30.5956   19.6768 C   0  0  0  0  0  0  0  0  0  0  0  0
  -31.4988  -35.3759   22.3257 C   0  0  0  0  0  0  0  0  0  0  0  0
  -27.5047  -29.7631   20.7604 C   0  0  0  0  0  0  0  0  0  0  0  0
  -28.5477  -24.4840   18.0111 C   0  0  0  0  0  0  0  0  0  0  0  0
  -22.4962   -7.8988   21.4158 C   0  0  0  0  0  0  0  0  0  0  0  0
  -28.0218  -27.8164   19.3991 C   0  0  0  0  0  0  0  0  0  0  0  0
  -21.5947   -6.0027   22.4714 C   0  0  0  0  0  0  0  0  0  0  0  0
  -21.9437   -3.8067   24.1560 C   0  0  0  0  0  0  0  0  0  0  0  0
  -20.8295   -5.8853   23.6317 C   0  0  0  0  0  0  0  0  0  0  0  0
  -25.8346  -10.4072   20.7367 C   0  0  0  0  0  0  0  0  0  0  0  0
  -27.8480  -11.1859   20.3186 C   0  0  0  0  0  0  0  0  0  0  0  0
  -28.5609  -21.7991   18.0397 C   0  0  0  0  0  0  0  0  0  0  0  0
  -27.7045   -8.6904   20.3232 C   0  0  0  0  0  0  0  0  0  0  0  0
  -29.1740  -32.5562   21.7805 C   0  0  0  0  0  0  0  0  0  0  0  0
  -26.2490  -32.4470   23.1787 C   0  0  0  0  0  0  0  0  0  0  0  0
  -23.3190  -30.7588   23.6389 C   0  0  0  0  0  0  0  0  0  0  0  0
  -28.4545  -16.1919   18.4702 C   0  0  0  0  0  0  0  0  0  0  0  0
  -31.2187  -36.1921   24.7228 C   0  0  0  0  0  0  0  0  0  0  0  0
  -27.6863  -32.0887   19.7995 C   0  0  0  0  0  0  0  0  0  0  0  0
  -27.0574  -30.3216   22.0857 C   0  0  0  0  0  0  0  0  0  0  0  0
  -30.3876  -34.9340   24.9609 C   0  0  0  0  0  0  0  0  0  0  0  0
  -26.5237  -15.9403   21.3939 C   0  0  0  0  0  0  0  0  0  0  0  0
  -30.9833  -33.7499   24.2061 C   0  0  0  0  0  0  0  0  0  0  0  0
  -26.2734  -14.4342   21.4640 C   0  0  0  0  0  0  0  0  0  0  0  0
  -26.4262  -16.4714   19.9629 C   0  0  0  0  0  0  0  0  0  0  0  0
  -29.6457  -19.6921   18.7552 C   0  0  0  0  0  0  0  0  0  0  0  0
  -27.2737  -19.7084   17.9683 C   0  0  0  0  0  0  0  0  0  0  0  0
  -29.7838  -18.2580   18.2513 C   0  0  0  0  0  0  0  0  0  0  0  0
  -27.4575  -18.2801   17.4675 C   0  0  0  0  0  0  0  0  0  0  0  0
  -27.0381  -14.2488   19.0664 C   0  0  0  0  0  0  0  0  0  0  0  0
  -30.9812  -34.0023   22.6936 C   0  0  1  0  0  0  0  0  0  0  0  0
  -27.7717  -32.5798   21.2414 C   0  0  1  0  0  0  0  0  0  0  0  0
  -27.1872  -13.6762   20.4846 C   0  0  2  0  0  0  0  0  0  0  0  0
  -21.1350  -30.9018   24.8665 C   0  0  0  0  0  0  0  0  0  0  0  0
  -27.6543  -31.6492   25.7669 C   0  0  0  0  0  0  0  0  0  0  0  0
  -25.4383  -30.8961   26.6561 C   0  0  0  0  0  0  0  0  0  0  0  0
  -25.7903  -33.2915   26.0553 C   0  0  0  0  0  0  0  0  0  0  0  0
  -21.7700  -30.7768   21.1172 C   0  0  0  0  0  0  0  0  0  0  0  0
  -28.5398  -25.9669   17.9966 C   0  0  0  0  0  0  0  0  0  1  0  0
  -25.5919  -31.5685   24.2157 C   0  0  1  0  0  0  0  0  0  0  0  0
  -21.8726  -31.2151   23.5740 C   0  0  2  0  0  0  0  0  0  0  0  0
  -26.1290  -31.8406   25.6493 C   0  0  0  0  0  0  0  0  0  0  0  0
  -27.5458  -22.3886   17.3797 N   0  0  0  0  0  0  0  0  0  0  0  0
  -29.5699  -22.4124   18.6872 N   0  0  0  0  0  0  0  0  0  0  0  0
  -25.6955  -11.7349   20.7800 N   0  0  0  0  0  0  0  0  0  0  0  0
  -26.9369  -12.1803   20.5220 N   0  0  0  0  0  0  0  0  0  0  0  0
  -28.5681  -20.3984   18.0540 N   0  0  0  0  0  0  0  0  0  0  0  0
  -26.9485  -31.7881   22.1578 N   0  0  0  0  0  0  0  0  0  0  0  0
  -27.2831  -15.6926   19.0589 N   0  0  0  0  0  0  0  0  0  0  0  0
  -28.4981  -17.5716   18.2156 N   0  0  0  0  0  0  0  0  0  0  0  0
  -29.1422  -11.4578   20.0473 N   0  0  0  0  0  0  0  0  0  0  0  0
  -26.8519   -7.5909   20.4922 N   0  0  0  0  0  0  0  0  0  0  0  0
  -29.6561  -33.7977   22.1489 N   0  0  0  0  0  0  0  0  0  0  0  0
  -24.1543  -31.7683   24.0683 N   0  0  0  0  0  0  0  0  0  0  0  0
  -21.1649  -30.5355   22.4523 N   0  3  0  0  0  0  0  0  0  0  0  0
  -28.9195   -8.4936   20.0810 O   0  0  0  0  0  0  0  0  0  0  0  0
  -29.7736  -31.4903   21.8580 O   0  0  0  0  0  0  0  0  0  0  0  0
  -26.1395  -33.6725   23.2672 O   0  0  0  0  0  0  0  0  0  0  0  0
  -23.6720  -29.6195   23.3422 O   0  0  0  0  0  0  0  0  0  0  0  0
  -29.4063  -15.4522   18.1911 O   0  0  0  0  0  0  0  0  0  0  0  0
  -21.4221   -7.0918   21.6337 O   0  0  0  0  0  0  0  0  0  0  0  0
  -28.1239  -26.4576   19.2683 O   0  0  0  0  0  0  0  0  0  1  0  0
  -22.1103   -2.7514   24.9640 F   0  0  0  0  0  0  0  0  0  0  0  0
  -19.9244   -6.8236   23.9418 F   0  0  0  0  0  0  0  0  0  0  0  0
  1  2  1  0  0  0  0
  1  5  2  0  0  0  0
  2  6  2  0  0  0  0
  3  8  2  0  0  0  0
  3 17  1  0  0  0  0
  4  9  1  0  0  0  0
  4 17  2  0  0  0  0
  5 19  1  0  0  0  0
  6 21  1  0  0  0  0
  7 10  2  0  0  0  0
  7 20  1  0  0  0  0
  8 24  1  0  0  0  0
  9 24  2  0  0  0  0
 10 25  1  0  0  0  0
 11 12  2  0  0  0  0
 11 26  1  0  0  0  0
 12 27  1  0  0  0  0
 13 22  1  0  0  0  0
 13 25  2  0  0  0  0
 14 27  2  0  0  0  0
 14 28  1  0  0  0  0
 15 23  1  0  0  0  0
 15 62  2  0  0  0  0
 16 23  2  0  0  0  0
 16 63  1  0  0  0  0
 17 29  1  0  0  0  0
 18 29  1  0  0  0  0
 18 30  2  0  0  0  0
 18 32  1  0  0  0  0
 19 21  2  0  0  0  0
 19 37  1  0  0  0  0
 20 22  2  0  0  0  0
 20 38  1  0  0  0  0
 21 50  1  0  0  0  0
 22 39  1  0  0  0  0
 23 58  1  0  0  0  0
 24 80  1  0  0  0  0
 25 81  1  0  0  0  0
 26 28  2  0  0  0  0
 26 80  1  0  0  0  0
 27 82  1  0  0  0  0
 28 83  1  0  0  0  0
 29 64  2  0  0  0  0
 30 65  1  0  0  0  0
 30 70  1  0  0  0  0
 31 62  1  0  0  0  0
 31 63  2  0  0  0  0
 31 66  1  0  0  0  0
 32 71  1  0  0  0  0
 32 75  2  0  0  0  0
 33 51  1  0  0  0  0
 33 72  1  0  0  0  0
 33 76  2  0  0  0  0
 34 59  1  0  0  0  0
 34 67  1  0  0  0  0
 34 77  2  0  0  0  0
 35 60  1  0  0  0  0
 35 73  1  0  0  0  0
 35 78  2  0  0  0  0
 36 68  1  0  0  0  0
 36 69  1  0  0  0  0
 36 79  2  0  0  0  0
 37 40  1  0  0  0  0
 38 51  1  0  0  0  0
 39 67  1  0  0  0  0
 40 42  1  0  0  0  0
 41 43  1  0  0  0  0
 41 44  1  0  0  0  0
 42 50  1  0  0  0  0
 43 52  1  0  0  0  0
 44 68  1  0  0  0  0
 45 47  1  0  0  0  0
 45 66  1  0  0  0  0
 46 48  1  0  0  0  0
 46 66  1  0  0  0  0
 47 69  1  0  0  0  0
 48 69  1  0  0  0  0
 49 52  1  0  0  0  0
 49 68  1  0  0  0  0
 50 72  1  0  0  0  0
 51 67  1  0  0  0  0
 52 65  1  0  0  0  0
 53 60  1  0  0  0  0
 54 61  1  0  0  0  0
 55 61  1  0  0  0  0
 56 61  1  0  0  0  0
 57 74  1  0  0  0  0
 58 81  1  0  0  0  0
 59 61  1  0  0  0  0
 59 73  1  0  0  0  0
 60 74  1  0  0  0  0
 64 65  1  0  0  0  0
M  CHG  1  74   1
M  ISO  4  36 100  58 101  69 100  81 101
M  END
> <Batch ID>
0187

> <Smiles>
CNC(C)C(=O)NC(C(=O)N1Cc2cc([101O:1][101CH2:1]c3cnc(N4CC[100N:0]([100C:0](=O)N5CCCC(n6nc(-c7ccc(Oc8ccc(F)cc8F)cc7)c(C(N)=O)c6N)C5)CC4)nc3)ccc2CC1C(=O)NC1CCCc2ccccc21)C(C)(C)C

> <Shape>
0.257

> <Color>
0.110

> <Negative vol penalty>
0.000

$$$$

  -OEChem-04052323173D

 83 92  0     1  0  0  0  0  0999 V2000
  -19.6696  -24.4215   24.0249 C   0  0  0  0  0  0  0  0  0  0  0  0
  -20.9754  -24.4935   23.5504 C   0  0  0  0  0  0  0  0  0  0  0  0
  -26.7630  -15.0838   21.6836 C   0  0  0  0  0  0  0  0  0  0  0  0
  -26.3970  -15.0802   19.2955 C   0  0  0  0  0  0  0  0  0  0  0  0
  -18.7910  -25.4822   23.8082 C   0  0  0  0  0  0  0  0  0  0  0  0
  -21.4030  -25.6257   22.8579 C   0  0  0  0  0  0  0  0  0  0  0  0
  -26.9923  -28.1256   22.9837 C   0  0  0  0  0  0  0  0  0  0  0  0
  -26.4861  -13.7175   21.7281 C   0  0  0  0  0  0  0  0  0  0  0  0
  -26.1202  -13.7138   19.3400 C   0  0  0  0  0  0  0  0  0  0  0  0
  -28.0817  -28.0313   22.1188 C   0  0  0  0  0  0  0  0  0  0  0  0
  -25.5235  -10.3021   22.5234 C   0  0  0  0  0  0  0  0  0  0  0  0
  -24.6826   -9.8420   23.5366 C   0  0  0  0  0  0  0  0  0  0  0  0
  -27.3912  -30.0734   21.0361 C   0  0  0  0  0  0  0  0  0  0  0  0
  -22.9121  -11.2650   22.7134 C   0  0  0  0  0  0  0  0  0  0  0  0
  -26.7184  -15.7652   20.4673 C   0  0  0  0  0  0  0  0  0  0  0  0
  -28.2588  -17.7844   20.2273 C   0  0  0  0  0  0  0  0  0  0  0  0
  -19.2108  -26.6321   23.1212 C   0  0  0  0  0  0  0  0  0  0  0  0
  -26.0865  -29.1905   22.8741 C   0  0  0  0  0  0  0  0  0  0  0  0
  -20.5288  -26.7022   22.6307 C   0  0  0  0  0  0  0  0  0  0  0  0
  -26.2926  -30.1803   21.9025 C   0  0  0  0  0  0  0  0  0  0  0  0
  -26.1647  -13.0324   20.5564 C   0  0  0  0  0  0  0  0  0  0  0  0
  -28.2797  -29.0037   21.1430 C   0  0  0  0  0  0  0  0  0  0  0  0
  -25.0589  -11.2438   21.6052 C   0  0  0  0  0  0  0  0  0  0  0  0
  -23.3769  -10.3234   23.6316 C   0  0  0  0  0  0  0  0  0  0  0  0
  -23.7532  -11.7252   21.7002 C   0  0  0  0  0  0  0  0  0  0  0  0
  -27.0037  -17.1768   20.4207 C   0  0  0  0  0  0  0  0  0  0  0  0
  -27.9971  -19.1323   20.2645 C   0  0  0  0  0  0  0  0  0  0  0  0
  -29.9787  -27.4601   17.1634 C   0  0  0  0  0  0  0  0  0  0  0  0
  -27.8485  -27.0382   17.7299 C   0  0  0  0  0  0  0  0  0  0  0  0
  -29.1637  -28.2212   19.1110 C   0  0  0  0  0  0  0  0  0  1  0  0
  -29.5460  -17.1842   20.0314 C   0  0  0  0  0  0  0  0  0  0  0  0
  -22.9815  -29.4380   22.2406 C   0  0  0  0  0  0  0  0  0  0  0  0
  -23.4869  -32.5664   22.9338 C   0  0  0  0  0  0  0  0  0  0  0  0
  -25.6841  -35.1694   23.1423 C   0  0  0  0  0  0  0  0  0  0  0  0
  -24.9168  -23.3691   18.5366 C   0  0  0  0  0  0  0  0  0  0  0  0
  -18.2113  -27.7332   22.8700 C   0  0  0  0  0  0  0  0  0  0  0  0
  -24.9314  -29.2922   23.8320 C   0  0  0  0  0  0  0  0  0  0  0  0
  -25.3605  -31.3544   21.7565 C   0  0  0  0  0  0  0  0  0  0  0  0
  -18.8524  -29.0545   22.4536 C   0  0  0  0  0  0  0  0  0  0  0  0
  -23.8626  -21.6608   21.6428 C   0  0  0  0  0  0  0  0  0  0  0  0
  -19.9068  -28.8202   21.3765 C   0  0  0  0  0  0  0  0  0  0  0  0
  -24.6542  -20.3607   21.5433 C   0  0  0  0  0  0  0  0  0  0  0  0
  -24.6047  -27.7809   18.0320 C   0  0  0  0  0  0  0  0  0  0  0  0
  -23.3796  -26.8694   18.2594 C   0  0  0  0  0  0  0  0  0  0  0  0
  -23.4427  -22.1856   20.2703 C   0  0  0  0  0  0  0  0  0  0  0  0
  -25.3759  -21.0375   19.2216 C   0  0  0  0  0  0  0  0  0  0  0  0
  -21.0372  -27.9241   21.8967 C   0  0  1  0  0  0  0  0  0  0  0  0
  -23.7843  -30.1437   23.2966 C   0  0  1  0  0  0  0  0  0  0  0  0
  -25.8479  -20.5262   20.5910 C   0  0  2  0  0  0  0  0  0  0  0  0
  -25.4817  -26.5404   18.3087 C   0  0  1  0  0  0  0  0  0  0  0  0
  -24.2796  -25.6789   17.8484 C   0  0  1  0  0  0  0  0  0  0  0  0
  -31.1083  -27.3299   16.1993 C   0  0  0  0  0  0  0  0  0  0  0  0
  -25.7955  -37.6132   23.7013 C   0  0  0  0  0  0  0  0  0  0  0  0
  -22.2280  -33.2382   20.2368 C   0  0  0  0  0  0  0  0  0  0  0  0
  -23.2117  -35.5326   20.4277 C   0  0  0  0  0  0  0  0  0  0  0  0
  -21.5466  -34.7473   22.1110 C   0  0  0  0  0  0  0  0  0  0  0  0
  -27.5624  -34.6909   25.3788 C   0  0  0  0  0  0  0  0  0  0  0  0
  -23.8851  -33.7867   22.1393 C   0  0  1  0  0  0  0  0  0  0  0  0
  -25.9299  -36.1952   24.2340 C   0  0  2  0  0  0  0  0  0  0  0  0
  -22.7345  -34.3031   21.2300 C   0  0  0  0  0  0  0  0  0  0  0  0
  -26.0180  -18.0656   20.5699 N   0  0  0  0  0  0  0  0  0  0  0  0
  -28.8187  -26.8804   16.8151 N   0  0  0  0  0  0  0  0  0  0  0  0
  -30.2249  -28.1451   18.2918 N   0  0  0  0  0  0  0  0  0  0  0  0
  -27.9473  -27.6940   18.8975 N   0  0  0  0  0  0  0  0  0  0  0  0
  -26.6536  -19.2456   20.4703 N   0  0  0  0  0  0  0  0  0  0  0  0
  -24.2422  -31.4060   22.7126 N   0  0  0  0  0  0  0  0  0  0  0  0
  -24.5846  -22.2678   19.3456 N   0  0  0  0  0  0  0  0  0  0  0  0
  -28.7874  -20.2197   20.1410 N   0  0  0  0  0  0  0  0  0  0  0  0
  -29.6364  -15.7856   20.0204 N   0  0  0  0  0  0  0  0  0  0  0  0
  -26.5972  -26.4554   17.4340 N   0  0  0  0  0  0  0  0  0  0  0  0
  -21.9370  -28.6829   22.7387 N   0  0  0  0  0  0  0  0  0  0  0  0
  -24.3662  -34.7655   23.1082 N   0  0  0  0  0  0  0  0  0  0  0  0
  -24.0695  -24.4689   18.6297 N   0  0  0  0  0  0  0  0  0  0  0  0
  -27.2996  -36.0329   24.7984 N   0  3  0  0  0  0  0  0  0  0  0  0
  -30.5878  -17.8679   19.8872 O   0  0  0  0  0  0  0  0  0  0  0  0
  -23.2863  -29.5702   21.0610 O   0  0  0  0  0  0  0  0  0  0  0  0
  -22.5452  -32.6419   23.7269 O   0  0  0  0  0  0  0  0  0  0  0  0
  -26.5717  -34.7693   22.3921 O   0  0  0  0  0  0  0  0  0  0  0  0
  -25.8925  -23.3760   17.7782 O   0  0  0  0  0  0  0  0  0  0  0  0
  -25.8948  -11.6991   20.5994 O   0  0  0  0  0  0  0  0  0  0  0  0
  -29.3419  -28.9137   20.2970 O   0  0  0  0  0  0  0  0  0  1  0  0
  -22.5689   -9.8802   24.6037 F   0  0  0  0  0  0  0  0  0  0  0  0
  -23.3007  -12.6290   20.8203 F   0  0  0  0  0  0  0  0  0  0  0  0
  1  2  1  0  0  0  0
  1  5  2  0  0  0  0
  2  6  2  0  0  0  0
  3  8  2  0  0  0  0
  3 15  1  0  0  0  0
  4  9  1  0  0  0  0
  4 15  2  0  0  0  0
  5 17  1  0  0  0  0
  6 19  1  0  0  0  0
  7 10  2  0  0  0  0
  7 18  1  0  0  0  0
  8 21  1  0  0  0  0
  9 21  2  0  0  0  0
 10 22  1  0  0  0  0
 11 12  2  0  0  0  0
 11 23  1  0  0  0  0
 12 24  1  0  0  0  0
 13 20  1  0  0  0  0
 13 22  2  0  0  0  0
 14 24  2  0  0  0  0
 14 25  1  0  0  0  0
 15 26  1  0  0  0  0
 16 26  1  0  0  0  0
 16 27  2  0  0  0  0
 16 31  1  0  0  0  0
 17 19  2  0  0  0  0
 17 36  1  0  0  0  0
 18 20  2  0  0  0  0
 18 37  1  0  0  0  0
 19 47  1  0  0  0  0
 20 38  1  0  0  0  0
 21 80  1  0  0  0  0
 22 81  1  0  0  0  0
 23 25  2  0  0  0  0
 23 80  1  0  0  0  0
 24 82  1  0  0  0  0
 25 83  1  0  0  0  0
 26 61  2  0  0  0  0
 27 65  1  0  0  0  0
 27 68  1  0  0  0  0
 28 52  1  0  0  0  0
 28 62  1  0  0  0  0
 28 63  2  0  0  0  0
 29 62  2  0  0  0  0
 29 64  1  0  0  0  0
 29 70  1  0  0  0  0
 30 63  1  0  0  0  0
 30 64  2  0  0  0  0
 30 81  1  0  0  0  0
 31 69  1  0  0  0  0
 31 75  2  0  0  0  0
 32 48  1  0  0  0  0
 32 71  1  0  0  0  0
 32 76  2  0  0  0  0
 33 58  1  0  0  0  0
 33 66  1  0  0  0  0
 33 77  2  0  0  0  0
 34 59  1  0  0  0  0
 34 72  1  0  0  0  0
 34 78  2  0  0  0  0
 35 67  1  0  0  0  0
 35 73  1  0  0  0  0
 35 79  2  0  0  0  0
 36 39  1  0  0  0  0
 37 48  1  0  0  0  0
 38 66  1  0  0  0  0
 39 41  1  0  0  0  0
 40 42  1  0  0  0  0
 40 45  1  0  0  0  0
 41 47  1  0  0  0  0
 42 49  1  0  0  0  0
 43 44  1  0  0  0  0
 43 50  1  0  0  0  0
 44 51  1  0  0  0  0
 45 67  1  0  0  0  0
 46 49  1  0  0  0  0
 46 67  1  0  0  0  0
 47 71  1  0  0  0  0
 48 66  1  0  0  0  0
 49 65  1  0  0  0  0
 50 51  1  0  0  0  0
 50 70  1  0  0  0  0
 51 73  1  0  0  0  0
 53 59  1  0  0  0  0
 54 60  1  0  0  0  0
 55 60  1  0  0  0  0
 56 60  1  0  0  0  0
 57 74  1  0  0  0  0
 58 60  1  0  0  0  0
 58 72  1  0  0  0  0
 59 74  1  0  0  0  0
 61 65  1  0  0  0  0
M  CHG  1  74   1
M  ISO  4  30 101  35 100  73 100  81 101
M  END
> <Batch ID>
0187

> <Smiles>
CNC(C)C(=O)NC(C(=O)N1Cc2cc([101O:1][101c:1]3nc(C)nc(NC4CCC4[100NH:0][100C:0](=O)N4CCCC(n5nc(-c6ccc(Oc7ccc(F)cc7F)cc6)c(C(N)=O)c5N)C4)n3)ccc2CC1C(=O)NC1CCCc2ccccc21)C(C)(C)C

> <Shape>
0.252

> <Color>
0.101

> <Negative vol penalty>
0.000

$$$$

  -OEChem-04052323173D

 80 88  0     1  0  0  0  0  0999 V2000
  -24.8134   -6.5484   24.1897 C   0  0  0  0  0  0  0  0  0  0  0  0
  -25.8426   -7.4748   24.0553 C   0  0  0  0  0  0  0  0  0  0  0  0
  -25.2738  -29.1256   21.9943 C   0  0  0  0  0  0  0  0  0  0  0  0
  -24.6768  -30.6614   20.2274 C   0  0  0  0  0  0  0  0  0  0  0  0
  -23.7307   -6.5788   23.3118 C   0  0  0  0  0  0  0  0  0  0  0  0
  -25.7901   -8.4315   23.0422 C   0  0  0  0  0  0  0  0  0  0  0  0
  -27.8465  -14.1939   23.3099 C   0  0  0  0  0  0  0  0  0  0  0  0
  -24.7694  -30.0179   22.9403 C   0  0  0  0  0  0  0  0  0  0  0  0
  -24.1724  -31.5537   21.1734 C   0  0  0  0  0  0  0  0  0  0  0  0
  -29.0260  -14.7904   22.8666 C   0  0  0  0  0  0  0  0  0  0  0  0
  -25.3970  -33.8317   23.3511 C   0  0  0  0  0  0  0  0  0  0  0  0
  -25.7334  -35.1785   23.2156 C   0  0  0  0  0  0  0  0  0  0  0  0
  -27.9111  -15.4749   20.8398 C   0  0  0  0  0  0  0  0  0  0  0  0
  -23.3929  -35.7427   23.0127 C   0  0  0  0  0  0  0  0  0  0  0  0
  -25.2276  -29.4474   20.6378 C   0  0  0  0  0  0  0  0  0  0  0  0
  -25.0480  -27.4977   19.0026 C   0  0  0  0  0  0  0  0  0  0  0  0
  -23.6603   -7.5423   22.2933 C   0  0  0  0  0  0  0  0  0  0  0  0
  -26.6914  -14.2240   22.5153 C   0  0  0  0  0  0  0  0  0  0  0  0
  -24.7061   -8.4739   22.1489 C   0  0  0  0  0  0  0  0  0  0  0  0
  -26.7174  -14.8803   21.2765 C   0  0  0  0  0  0  0  0  0  0  0  0
  -24.2187  -31.2319   22.5299 C   0  0  0  0  0  0  0  0  0  0  0  0
  -29.0593  -15.4286   21.6301 C   0  0  0  0  0  0  0  0  0  0  0  0
  -24.0586  -33.4403   23.3173 C   0  0  0  0  0  0  0  0  0  0  0  0
  -24.7314  -36.1340   23.0464 C   0  0  0  0  0  0  0  0  0  0  0  0
  -23.0566  -34.3958   23.1482 C   0  0  0  0  0  0  0  0  0  0  0  0
  -25.7490  -28.5263   19.6601 C   0  0  0  0  0  0  0  0  0  0  0  0
  -25.9824  -26.9165   18.1806 C   0  0  0  0  0  0  0  0  0  0  0  0
  -23.6750  -27.1028   19.1239 C   0  0  0  0  0  0  0  0  0  0  0  0
  -30.6712  -20.9837   20.1561 C   0  0  0  0  0  0  0  0  0  0  0  0
  -24.8619  -12.0229   21.1326 C   0  0  0  0  0  0  0  0  0  0  0  0
  -23.0043  -14.5819   20.4093 C   0  0  0  0  0  0  0  0  0  0  0  0
  -22.7805  -17.9501   19.9072 C   0  0  0  0  0  0  0  0  0  0  0  0
  -31.2089  -24.9008   17.5055 C   0  0  0  0  0  0  0  0  0  0  0  0
  -22.4930   -7.5059   21.3389 C   0  0  0  0  0  0  0  0  0  0  0  0
  -25.4196  -13.5990   23.0196 C   0  0  0  0  0  0  0  0  0  0  0  0
  -25.4990  -14.9582   20.3945 C   0  0  0  0  0  0  0  0  0  0  0  0
  -22.3310   -8.7875   20.5256 C   0  0  0  0  0  0  0  0  0  0  0  0
  -30.6186  -28.3901   16.8774 C   0  0  0  0  0  0  0  0  0  0  0  0
  -23.6746   -9.2320   19.9564 C   0  0  0  0  0  0  0  0  0  0  0  0
  -29.2715  -28.6691   17.5362 C   0  0  0  0  0  0  0  0  0  0  0  0
  -31.4071  -27.3550   17.6685 C   0  0  0  0  0  0  0  0  0  0  0  0
  -31.3629  -22.4153   18.0618 C   0  0  0  0  0  0  0  0  0  0  0  0
  -30.3612  -23.5295   19.5675 C   0  0  0  0  0  0  0  0  0  0  0  0
  -29.3110  -26.3046   18.4792 C   0  0  0  0  0  0  0  0  0  0  0  0
  -24.6733   -9.5425   21.0779 C   0  0  1  0  0  0  0  0  0  0  0  0
  -31.2606  -22.2785   19.5912 C   0  0  0  0  0  0  0  0  0  0  0  0
  -24.4440  -13.2442   21.9017 C   0  0  1  0  0  0  0  0  0  0  0  0
  -28.4846  -27.3640   17.7233 C   0  0  1  0  0  0  0  0  0  0  0  0
  -21.1387  -19.7450   19.2908 C   0  0  0  0  0  0  0  0  0  0  0  0
  -23.1231  -13.6864   17.4949 C   0  0  0  0  0  0  0  0  0  0  0  0
  -22.3101  -15.9607   16.8356 C   0  0  0  0  0  0  0  0  0  0  0  0
  -20.8773  -14.4874   18.2494 C   0  0  0  0  0  0  0  0  0  0  0  0
  -23.1717  -19.3540   22.4830 C   0  0  0  0  0  0  0  0  0  0  0  0
  -31.6653  -19.9501   20.6246 C   0  0  0  0  0  0  0  0  0  0  0  0
  -31.9063  -17.6685   21.6121 C   0  0  0  0  0  0  0  0  0  0  0  0
  -31.0952  -16.5243   22.1874 C   0  0  0  0  0  0  0  0  0  1  0  0
  -22.9312  -15.5595   19.2613 C   0  0  1  0  0  0  0  0  0  0  0  0
  -21.7988  -18.9833   20.4296 C   0  0  2  0  0  0  0  0  0  0  0  0
  -22.3341  -14.9205   17.9758 C   0  0  0  0  0  0  0  0  0  0  0  0
  -27.0298  -28.5970   19.2881 N   0  0  0  0  0  0  0  0  0  0  0  0
  -27.1412  -27.6053   18.3879 N   0  0  0  0  0  0  0  0  0  0  0  0
  -24.2813  -14.3264   20.9289 N   0  0  0  0  0  0  0  0  0  0  0  0
  -30.6413  -26.1232   17.8817 N   0  0  0  0  0  0  0  0  0  0  0  0
  -30.8824  -23.7807   18.2344 N   0  0  0  0  0  0  0  0  0  0  0  0
  -25.9177  -25.8885   17.3080 N   0  0  0  0  0  0  0  0  0  0  0  0
  -22.8535  -27.8071   20.0147 N   0  0  0  0  0  0  0  0  0  0  0  0
  -24.3913  -10.8364   21.6618 N   0  0  0  0  0  0  0  0  0  0  0  0
  -22.1885  -16.7141   19.7551 N   0  0  0  0  0  0  0  0  0  0  0  0
  -22.4972  -19.9638   21.3082 N   0  3  0  0  0  0  0  0  0  0  0  0
  -30.9853  -18.7559   21.1813 N   0  3  0  0  0  0  0  0  0  0  0  0
  -23.1952  -26.1431   18.4742 O   0  0  0  0  0  0  0  0  0  0  0  0
  -29.4545  -20.8136   20.2177 O   0  0  0  0  0  0  0  0  0  0  0  0
  -25.5585  -12.1479   20.1321 O   0  0  0  0  0  0  0  0  0  0  0  0
  -21.9658  -14.0693   20.8342 O   0  0  0  0  0  0  0  0  0  0  0  0
  -23.9542  -18.2139   19.6554 O   0  0  0  0  0  0  0  0  0  0  0  0
  -32.0091  -24.8142   16.5646 O   0  0  0  0  0  0  0  0  0  0  0  0
  -23.7262  -32.1028   23.4528 O   0  0  0  0  0  0  0  0  0  0  0  0
  -30.2178  -16.0152   21.1916 O   0  0  0  0  0  0  0  0  0  1  0  0
  -25.0545  -37.4276   22.9179 F   0  0  0  0  0  0  0  0  0  0  0  0
  -21.7689  -34.0259   23.1162 F   0  0  0  0  0  0  0  0  0  0  0  0
  1  2  1  0  0  0  0
  1  5  2  0  0  0  0
  2  6  2  0  0  0  0
  3  8  2  0  0  0  0
  3 15  1  0  0  0  0
  4  9  1  0  0  0  0
  4 15  2  0  0  0  0
  5 17  1  0  0  0  0
  6 19  1  0  0  0  0
  7 10  2  0  0  0  0
  7 18  1  0  0  0  0
  8 21  1  0  0  0  0
  9 21  2  0  0  0  0
 10 22  1  0  0  0  0
 11 12  2  0  0  0  0
 11 23  1  0  0  0  0
 12 24  1  0  0  0  0
 13 20  1  0  0  0  0
 13 22  2  0  0  0  0
 14 24  2  0  0  0  0
 14 25  1  0  0  0  0
 15 26  1  0  0  0  0
 16 26  1  0  0  0  0
 16 27  2  0  0  0  0
 16 28  1  0  0  0  0
 17 19  2  0  0  0  0
 17 34  1  0  0  0  0
 18 20  2  0  0  0  0
 18 35  1  0  0  0  0
 19 45  1  0  0  0  0
 20 36  1  0  0  0  0
 21 77  1  0  0  0  0
 22 78  1  0  0  0  0
 23 25  2  0  0  0  0
 23 77  1  0  0  0  0
 24 79  1  0  0  0  0
 25 80  1  0  0  0  0
 26 60  2  0  0  0  0
 27 61  1  0  0  0  0
 27 65  1  0  0  0  0
 28 66  1  0  0  0  0
 28 71  2  0  0  0  0
 29 46  1  0  0  0  0
 29 54  1  0  0  0  0
 29 72  2  0  0  0  0
 30 47  1  0  0  0  0
 30 67  1  0  0  0  0
 30 73  2  0  0  0  0
 31 57  1  0  0  0  0
 31 62  1  0  0  0  0
 31 74  2  0  0  0  0
 32 58  1  0  0  0  0
 32 68  1  0  0  0  0
 32 75  2  0  0  0  0
 33 63  1  0  0  0  0
 33 64  1  0  0  0  0
 33 76  2  0  0  0  0
 34 37  1  0  0  0  0
 35 47  1  0  0  0  0
 36 62  1  0  0  0  0
 37 39  1  0  0  0  0
 38 40  1  0  0  0  0
 38 41  1  0  0  0  0
 39 45  1  0  0  0  0
 40 48  1  0  0  0  0
 41 63  1  0  0  0  0
 42 46  1  0  0  0  0
 42 64  1  0  0  0  0
 43 46  1  0  0  0  0
 43 64  1  0  0  0  0
 44 48  1  0  0  0  0
 44 63  1  0  0  0  0
 45 67  1  0  0  0  0
 47 62  1  0  0  0  0
 48 61  1  0  0  0  0
 49 58  1  0  0  0  0
 50 59  1  0  0  0  0
 51 59  1  0  0  0  0
 52 59  1  0  0  0  0
 53 69  1  0  0  0  0
 54 70  1  0  0  0  0
 55 56  1  0  0  0  0
 55 70  1  0  0  0  0
 56 78  1  0  0  0  0
 57 59  1  0  0  0  0
 57 68  1  0  0  0  0
 58 69  1  0  0  0  0
 60 61  1  0  0  0  0
M  CHG  2  69   1  70   1
M  ISO  4  33 100  56 101  64 100  78 101
M  END
> <Batch ID>
0187

> <Smiles>
CNC(C)C(=O)NC(C(=O)N1Cc2cc([101O:1][101CH2:1]CNCC(=O)C3C[100N:0]([100C:0](=O)N4CCCC(n5nc(-c6ccc(Oc7ccc(F)cc7F)cc6)c(C(N)=O)c5N)C4)C3)ccc2CC1C(=O)NC1CCCc2ccccc21)C(C)(C)C

> <Shape>
0.249

> <Color>
0.083

> <Negative vol penalty>
0.000

$$$$

  -OEChem-04052323173D

 86 95  0     1  0  0  0  0  0999 V2000
  -26.7386  -37.5129   18.2693 C   0  0  0  0  0  0  0  0  0  0  0  0
  -27.1628  -36.2078   18.0410 C   0  0  0  0  0  0  0  0  0  0  0  0
  -24.7547   -8.7996   21.8361 C   0  0  0  0  0  0  0  0  0  0  0  0
  -23.4231   -9.4512   19.9284 C   0  0  0  0  0  0  0  0  0  0  0  0
  -26.3631  -37.9082   19.5525 C   0  0  0  0  0  0  0  0  0  0  0  0
  -27.2128  -35.2974   19.0960 C   0  0  0  0  0  0  0  0  0  0  0  0
  -26.0669  -29.2873   18.8300 C   0  0  0  0  0  0  0  0  0  0  0  0
  -23.6053   -8.3472   22.4839 C   0  0  0  0  0  0  0  0  0  0  0  0
  -22.2737   -8.9987   20.5762 C   0  0  0  0  0  0  0  0  0  0  0  0
  -26.9039  -28.1759   18.7395 C   0  0  0  0  0  0  0  0  0  0  0  0
  -21.5990   -5.6272   22.3879 C   0  0  0  0  0  0  0  0  0  0  0  0
  -21.6598   -4.3886   23.0265 C   0  0  0  0  0  0  0  0  0  0  0  0
  -26.7949  -27.9062   21.1341 C   0  0  0  0  0  0  0  0  0  0  0  0
  -21.1298   -5.4483   25.1321 C   0  0  0  0  0  0  0  0  0  0  0  0
  -29.6545  -21.7997   19.1136 C   0  0  0  0  0  0  0  0  0  0  0  0
  -24.6637   -9.3517   20.5583 C   0  0  0  0  0  0  0  0  0  0  0  0
  -26.6982   -9.0786   19.0439 C   0  0  0  0  0  0  0  0  0  0  0  0
  -26.3993  -36.9995   20.6220 C   0  0  0  0  0  0  0  0  0  0  0  0
  -25.5957  -29.7237   20.0766 C   0  0  0  0  0  0  0  0  0  0  0  0
  -26.8387  -35.6813   20.3950 C   0  0  0  0  0  0  0  0  0  0  0  0
  -25.9500  -29.0218   21.2376 C   0  0  0  0  0  0  0  0  0  0  0  0
  -22.3648   -8.4467   21.8540 C   0  0  0  0  0  0  0  0  0  0  0  0
  -27.2703  -27.4869   19.8919 C   0  0  0  0  0  0  0  0  0  0  0  0
  -21.3037   -6.7763   23.1213 C   0  0  0  0  0  0  0  0  0  0  0  0
  -21.4252   -4.2991   24.3986 C   0  0  0  0  0  0  0  0  0  0  0  0
  -21.0691   -6.6868   24.4934 C   0  0  0  0  0  0  0  0  0  0  0  0
  -25.8506   -9.8197   19.8889 C   0  0  0  0  0  0  0  0  0  0  0  0
  -30.3401  -20.7337   18.5677 C   0  0  0  0  0  0  0  0  0  0  0  0
  -30.3794  -22.9652   19.2571 C   0  0  0  0  0  0  0  0  0  0  0  0
  -27.6726   -9.9703   18.6672 C   0  0  0  0  0  0  0  0  0  0  0  0
  -32.2306  -21.9815   18.3784 C   0  0  0  0  0  0  0  0  0  0  0  0
  -26.6124   -7.7068   18.6358 C   0  0  0  0  0  0  0  0  0  0  0  0
  -25.9027  -32.3875   21.7835 C   0  0  0  0  0  0  0  0  0  0  0  0
  -23.7593  -30.9243   23.7296 C   0  0  0  0  0  0  0  0  0  0  0  0
  -22.3620  -28.0116   24.8297 C   0  0  0  0  0  0  0  0  0  0  0  0
  -27.8387  -15.7195   18.0790 C   0  0  0  0  0  0  0  0  0  0  0  0
  -26.0288  -37.4860   22.0007 C   0  0  0  0  0  0  0  0  0  0  0  0
  -24.6720  -30.9082   20.1546 C   0  0  0  0  0  0  0  0  0  0  0  0
  -25.4546  -29.4375   22.5978 C   0  0  0  0  0  0  0  0  0  0  0  0
  -25.7535  -36.3575   22.9911 C   0  0  0  0  0  0  0  0  0  0  0  0
  -29.9698  -13.8784   20.1785 C   0  0  0  0  0  0  0  0  0  0  0  0
  -26.8427  -35.2932   22.9040 C   0  0  0  0  0  0  0  0  0  0  0  0
  -29.2325  -12.5424   20.2637 C   0  0  0  0  0  0  0  0  0  0  0  0
  -29.0091  -15.0675   20.2297 C   0  0  0  0  0  0  0  0  0  0  0  0
  -30.0074  -18.6277   17.3099 C   0  0  0  0  0  0  0  0  0  0  0  0
  -29.0597  -18.9121   19.6049 C   0  0  0  0  0  0  0  0  0  0  0  0
  -28.8643  -17.6729   16.9761 C   0  0  0  0  0  0  0  0  0  0  0  0
  -27.9277  -17.9634   19.2267 C   0  0  0  0  0  0  0  0  0  0  0  0
  -27.1869  -13.6707   19.3096 C   0  0  0  0  0  0  0  0  0  0  0  0
  -26.8829  -34.6579   21.5089 C   0  0  1  0  0  0  0  0  0  0  0  0
  -24.6667  -31.5723   21.5281 C   0  0  1  0  0  0  0  0  0  0  0  0
  -28.1218  -12.4559   19.2018 C   0  0  2  0  0  0  0  0  0  0  0  0
  -33.6611  -22.0824   17.9701 C   0  0  0  0  0  0  0  0  0  0  0  0
  -20.6617  -27.1321   26.4524 C   0  0  0  0  0  0  0  0  0  0  0  0
  -25.7103  -31.3984   26.0271 C   0  0  0  0  0  0  0  0  0  0  0  0
  -24.4364  -29.7090   27.3654 C   0  0  0  0  0  0  0  0  0  0  0  0
  -23.3086  -31.7978   26.5987 C   0  0  0  0  0  0  0  0  0  0  0  0
  -20.7364  -26.8229   22.6610 C   0  0  0  0  0  0  0  0  0  0  0  0
  -28.3454  -24.0420   20.2210 C   0  0  0  0  0  0  0  0  0  0  0  0
  -27.9239  -25.3853   20.7929 C   0  0  0  0  0  0  0  0  0  1  0  0
  -23.8526  -29.9929   24.9139 C   0  0  1  0  0  0  0  0  0  0  0  0
  -20.9141  -27.6008   25.0278 C   0  0  2  0  0  0  0  0  0  0  0  0
  -24.3380  -30.7176   26.2010 C   0  0  0  0  0  0  0  0  0  0  0  0
  -26.2515  -11.0848   20.0405 N   0  0  0  0  0  0  0  0  0  0  0  0
  -31.6334  -20.7897   18.1875 N   0  0  0  0  0  0  0  0  0  0  0  0
  -31.6740  -23.0918   18.8988 N   0  0  0  0  0  0  0  0  0  0  0  0
  -27.3618  -11.1454   19.2857 N   0  0  0  0  0  0  0  0  0  0  0  0
  -29.6398  -19.5314   18.4053 N   0  0  0  0  0  0  0  0  0  0  0  0
  -24.5590  -30.6057   22.6228 N   0  0  0  0  0  0  0  0  0  0  0  0
  -27.9452  -14.9207   19.2273 N   0  0  0  0  0  0  0  0  0  0  0  0
  -28.3296  -17.0314   18.1711 N   0  0  0  0  0  0  0  0  0  0  0  0
  -28.7565   -9.8559   17.8707 N   0  0  0  0  0  0  0  0  0  0  0  0
  -25.5473   -6.9324   19.1157 N   0  0  0  0  0  0  0  0  0  0  0  0
  -29.7124  -24.0838   19.8138 N   0  0  0  0  0  0  0  0  0  0  0  0
  -25.8092  -33.6992   21.3590 N   0  0  0  0  0  0  0  0  0  0  0  0
  -22.5433  -29.3620   25.0412 N   0  0  0  0  0  0  0  0  0  0  0  0
  -20.5585  -26.4916   24.0982 N   0  3  0  0  0  0  0  0  0  0  0  0
  -27.4643   -7.1788   17.8815 O   0  0  0  0  0  0  0  0  0  0  0  0
  -26.8692  -31.8655   22.3268 O   0  0  0  0  0  0  0  0  0  0  0  0
  -22.9995  -31.8946   23.7817 O   0  0  0  0  0  0  0  0  0  0  0  0
  -23.2446  -27.2136   24.5221 O   0  0  0  0  0  0  0  0  0  0  0  0
  -27.3387  -15.2880   17.0328 O   0  0  0  0  0  0  0  0  0  0  0  0
  -21.2429   -8.0051   22.4857 O   0  0  0  0  0  0  0  0  0  0  0  0
  -28.0934  -26.3946   19.8057 O   0  0  0  0  0  0  0  0  0  1  0  0
  -21.4821   -3.1095   25.0114 F   0  0  0  0  0  0  0  0  0  0  0  0
  -20.7837   -7.7872   25.2031 F   0  0  0  0  0  0  0  0  0  0  0  0
  1  2  1  0  0  0  0
  1  5  2  0  0  0  0
  2  6  2  0  0  0  0
  3  8  2  0  0  0  0
  3 16  1  0  0  0  0
  4  9  1  0  0  0  0
  4 16  2  0  0  0  0
  5 18  1  0  0  0  0
  6 20  1  0  0  0  0
  7 10  2  0  0  0  0
  7 19  1  0  0  0  0
  8 22  1  0  0  0  0
  9 22  2  0  0  0  0
 10 23  1  0  0  0  0
 11 12  2  0  0  0  0
 11 24  1  0  0  0  0
 12 25  1  0  0  0  0
 13 21  1  0  0  0  0
 13 23  2  0  0  0  0
 14 25  2  0  0  0  0
 14 26  1  0  0  0  0
 15 28  2  0  0  0  0
 15 29  1  0  0  0  0
 16 27  1  0  0  0  0
 17 27  1  0  0  0  0
 17 30  2  0  0  0  0
 17 32  1  0  0  0  0
 18 20  2  0  0  0  0
 18 37  1  0  0  0  0
 19 21  2  0  0  0  0
 19 38  1  0  0  0  0
 20 50  1  0  0  0  0
 21 39  1  0  0  0  0
 22 83  1  0  0  0  0
 23 84  1  0  0  0  0
 24 26  2  0  0  0  0
 24 83  1  0  0  0  0
 25 85  1  0  0  0  0
 26 86  1  0  0  0  0
 27 64  2  0  0  0  0
 28 65  1  0  0  0  0
 28 68  1  0  0  0  0
 29 66  2  0  0  0  0
 29 74  1  0  0  0  0
 30 67  1  0  0  0  0
 30 72  1  0  0  0  0
 31 53  1  0  0  0  0
 31 65  2  0  0  0  0
 31 66  1  0  0  0  0
 32 73  1  0  0  0  0
 32 78  2  0  0  0  0
 33 51  1  0  0  0  0
 33 75  1  0  0  0  0
 33 79  2  0  0  0  0
 34 61  1  0  0  0  0
 34 69  1  0  0  0  0
 34 80  2  0  0  0  0
 35 62  1  0  0  0  0
 35 76  1  0  0  0  0
 35 81  2  0  0  0  0
 36 70  1  0  0  0  0
 36 71  1  0  0  0  0
 36 82  2  0  0  0  0
 37 40  1  0  0  0  0
 38 51  1  0  0  0  0
 39 69  1  0  0  0  0
 40 42  1  0  0  0  0
 41 43  1  0  0  0  0
 41 44  1  0  0  0  0
 42 50  1  0  0  0  0
 43 52  1  0  0  0  0
 44 70  1  0  0  0  0
 45 47  1  0  0  0  0
 45 68  1  0  0  0  0
 46 48  1  0  0  0  0
 46 68  1  0  0  0  0
 47 71  1  0  0  0  0
 48 71  1  0  0  0  0
 49 52  1  0  0  0  0
 49 70  1  0  0  0  0
 50 75  1  0  0  0  0
 51 69  1  0  0  0  0
 52 67  1  0  0  0  0
 54 62  1  0  0  0  0
 55 63  1  0  0  0  0
 56 63  1  0  0  0  0
 57 63  1  0  0  0  0
 58 77  1  0  0  0  0
 59 60  1  0  0  0  0
 59 74  1  0  0  0  0
 60 84  1  0  0  0  0
 61 63  1  0  0  0  0
 61 76  1  0  0  0  0
 62 77  1  0  0  0  0
 64 67  1  0  0  0  0
M  CHG  1  77   1
M  ISO  4  36 100  60 101  71 100  84 101
M  END
> <Batch ID>
0187

> <Smiles>
CNC(C)C(=O)NC(C(=O)N1Cc2cc([101O:1][101CH2:1]CNc3cc(N4CC[100N:0]([100C:0](=O)N5CCCC(n6nc(-c7ccc(Oc8ccc(F)cc8F)cc7)c(C(N)=O)c6N)C5)CC4)nc(C)n3)ccc2CC1C(=O)NC1CCCc2ccccc21)C(C)(C)C

> <Shape>
0.284

> <Color>
0.106

> <Negative vol penalty>
0.000

$$$$

  -OEChem-04052323173D

 80 89  0     1  0  0  0  0  0999 V2000
  -31.1883  -35.5659   20.0641 C   0  0  0  0  0  0  0  0  0  0  0  0
  -30.9047  -34.2579   19.6844 C   0  0  0  0  0  0  0  0  0  0  0  0
  -22.6817   -9.9127   20.4447 C   0  0  0  0  0  0  0  0  0  0  0  0
  -24.1422   -9.2823   22.2632 C   0  0  0  0  0  0  0  0  0  0  0  0
  -30.7388  -36.0467   21.2932 C   0  0  0  0  0  0  0  0  0  0  0  0
  -30.1725  -33.4296   20.5342 C   0  0  0  0  0  0  0  0  0  0  0  0
  -26.1588  -29.1026   18.8990 C   0  0  0  0  0  0  0  0  0  0  0  0
  -22.2552   -8.5898   20.3286 C   0  0  0  0  0  0  0  0  0  0  0  0
  -23.7156   -7.9593   22.1471 C   0  0  0  0  0  0  0  0  0  0  0  0
  -26.2707  -27.7186   18.7737 C   0  0  0  0  0  0  0  0  0  0  0  0
  -21.0359   -6.1180   23.0687 C   0  0  0  0  0  0  0  0  0  0  0  0
  -20.7227   -5.4342   24.2434 C   0  0  0  0  0  0  0  0  0  0  0  0
  -25.3766  -27.4509   20.9981 C   0  0  0  0  0  0  0  0  0  0  0  0
  -22.4291   -3.7978   23.7458 C   0  0  0  0  0  0  0  0  0  0  0  0
  -25.4323  -22.6697   18.7053 C   0  0  0  0  0  0  0  0  0  0  0  0
  -27.6113  -22.7048   18.4125 C   0  0  0  0  0  0  0  0  0  0  0  0
  -23.6253  -10.2590   21.4120 C   0  0  0  0  0  0  0  0  0  0  0  0
  -23.5018  -12.6337   22.3356 C   0  0  0  0  0  0  0  0  0  0  0  0
  -29.9924  -35.2269   22.1543 C   0  0  0  0  0  0  0  0  0  0  0  0
  -25.6643  -29.6726   20.0810 C   0  0  0  0  0  0  0  0  0  0  0  0
  -29.7138  -33.8995   21.7766 C   0  0  0  0  0  0  0  0  0  0  0  0
  -25.2571  -28.8423   21.1350 C   0  0  0  0  0  0  0  0  0  0  0  0
  -26.5257  -23.5384   18.5273 C   0  0  0  0  0  0  0  0  0  0  0  0
  -22.7721   -7.6131   21.1798 C   0  0  0  0  0  0  0  0  0  0  0  0
  -25.8823  -26.8926   19.8244 C   0  0  0  0  0  0  0  0  0  0  0  0
  -22.0456   -5.6417   22.2325 C   0  0  0  0  0  0  0  0  0  0  0  0
  -21.4193   -4.2742   24.5820 C   0  0  0  0  0  0  0  0  0  0  0  0
  -22.7422   -4.4816   22.5711 C   0  0  0  0  0  0  0  0  0  0  0  0
  -24.0667  -11.6253   21.5321 C   0  0  0  0  0  0  0  0  0  0  0  0
  -24.2795  -13.7400   22.0956 C   0  0  0  0  0  0  0  0  0  0  0  0
  -22.3747  -12.5755   23.2200 C   0  0  0  0  0  0  0  0  0  0  0  0
  -26.8411  -31.6328   22.2892 C   0  0  0  0  0  0  0  0  0  0  0  0
  -23.8083  -31.5324   23.4356 C   0  0  0  0  0  0  0  0  0  0  0  0
  -20.8457  -29.8517   23.6488 C   0  0  0  0  0  0  0  0  0  0  0  0
  -26.7164  -17.0801   18.4545 C   0  0  0  0  0  0  0  0  0  0  0  0
  -29.5686  -35.7762   23.4934 C   0  0  0  0  0  0  0  0  0  0  0  0
  -25.5248  -31.1662   20.1902 C   0  0  0  0  0  0  0  0  0  0  0  0
  -24.7008  -29.4036   22.4171 C   0  0  0  0  0  0  0  0  0  0  0  0
  -28.4781  -34.9518   24.1725 C   0  0  0  0  0  0  0  0  0  0  0  0
  -28.6901  -14.2242   19.7040 C   0  0  0  0  0  0  0  0  0  0  0  0
  -28.8164  -33.4656   24.1116 C   0  0  0  0  0  0  0  0  0  0  0  0
  -27.5941  -13.3534   20.3110 C   0  0  0  0  0  0  0  0  0  0  0  0
  -28.8714  -20.0012   17.2887 C   0  0  0  0  0  0  0  0  0  0  0  0
  -28.2010  -14.9871   18.4735 C   0  0  0  0  0  0  0  0  0  0  0  0
  -25.8766  -14.9243   19.3325 C   0  0  0  0  0  0  0  0  0  0  0  0
  -28.9010  -32.9781   22.6601 C   0  0  1  0  0  0  0  0  0  0  0  0
  -25.4894  -31.6590   21.6336 C   0  0  1  0  0  0  0  0  0  0  0  0
  -26.3363  -14.1870   20.5996 C   0  0  1  0  0  0  0  0  0  0  0  0
  -27.9478  -20.2457   18.4573 C   0  0  2  0  0  0  0  0  0  0  0  0
  -27.6510  -19.1454   17.4581 C   0  0  2  0  0  0  0  0  0  0  0  0
  -18.5662  -30.0015   24.6874 C   0  0  0  0  0  0  0  0  0  0  0  0
  -24.9881  -30.7347   26.1341 C   0  0  0  0  0  0  0  0  0  0  0  0
  -22.7031  -29.9880   26.8339 C   0  0  0  0  0  0  0  0  0  0  0  0
  -23.1105  -32.3818   26.2623 C   0  0  0  0  0  0  0  0  0  0  0  0
  -19.5152  -29.8700   21.0053 C   0  0  0  0  0  0  0  0  0  0  0  0
  -26.5114  -25.0379   18.4753 C   0  0  0  0  0  0  0  0  0  1  0  0
  -23.0638  -30.6568   24.4145 C   0  0  1  0  0  0  0  0  0  0  0  0
  -19.4111  -30.3114   23.4615 C   0  0  2  0  0  0  0  0  0  0  0  0
  -23.4786  -30.9295   25.8879 C   0  0  0  0  0  0  0  0  0  0  0  0
  -25.7905  -21.3830   18.7041 N   0  0  0  0  0  0  0  0  0  0  0  0
  -25.1218  -12.0531   20.8337 N   0  0  0  0  0  0  0  0  0  0  0  0
  -27.1211  -21.4370   18.5239 N   0  0  0  0  0  0  0  0  0  0  0  0
  -25.2260  -13.3426   21.1976 N   0  0  0  0  0  0  0  0  0  0  0  0
  -24.5898  -30.8704   22.4781 N   0  0  0  0  0  0  0  0  0  0  0  0
  -26.9606  -15.7275   18.7536 N   0  0  0  0  0  0  0  0  0  0  0  0
  -24.2393  -15.0043   22.5672 N   0  0  0  0  0  0  0  0  0  0  0  0
  -21.6885  -11.3603   23.3488 N   0  0  0  0  0  0  0  0  0  0  0  0
  -27.5749  -32.7902   22.1120 N   0  0  0  0  0  0  0  0  0  0  0  0
  -21.6443  -30.8598   24.1460 N   0  0  0  0  0  0  0  0  0  0  0  0
  -27.7563  -17.7599   17.8305 N   0  0  0  0  0  0  0  0  0  0  0  0
  -18.7989  -29.6320   22.2848 N   0  3  0  0  0  0  0  0  0  0  0  0
  -21.9776  -13.5760   23.8641 O   0  0  0  0  0  0  0  0  0  0  0  0
  -27.1917  -30.6368   22.9112 O   0  0  0  0  0  0  0  0  0  0  0  0
  -23.6947  -32.7582   23.5131 O   0  0  0  0  0  0  0  0  0  0  0  0
  -21.2197  -28.7112   23.3842 O   0  0  0  0  0  0  0  0  0  0  0  0
  -25.6475  -17.6419   18.7182 O   0  0  0  0  0  0  0  0  0  0  0  0
  -22.3559   -6.3221   21.0670 O   0  0  0  0  0  0  0  0  0  0  0  0
  -25.9911  -25.5414   19.7050 O   0  0  0  0  0  0  0  0  0  1  0  0
  -21.1195   -3.6185   25.7109 F   0  0  0  0  0  0  0  0  0  0  0  0
  -23.7141   -4.0198   21.7723 F   0  0  0  0  0  0  0  0  0  0  0  0
  1  2  1  0  0  0  0
  1  5  2  0  0  0  0
  2  6  2  0  0  0  0
  3  8  2  0  0  0  0
  3 17  1  0  0  0  0
  4  9  1  0  0  0  0
  4 17  2  0  0  0  0
  5 19  1  0  0  0  0
  6 21  1  0  0  0  0
  7 10  2  0  0  0  0
  7 20  1  0  0  0  0
  8 24  1  0  0  0  0
  9 24  2  0  0  0  0
 10 25  1  0  0  0  0
 11 12  2  0  0  0  0
 11 26  1  0  0  0  0
 12 27  1  0  0  0  0
 13 22  1  0  0  0  0
 13 25  2  0  0  0  0
 14 27  2  0  0  0  0
 14 28  1  0  0  0  0
 15 23  1  0  0  0  0
 15 60  2  0  0  0  0
 16 23  2  0  0  0  0
 16 62  1  0  0  0  0
 17 29  1  0  0  0  0
 18 29  1  0  0  0  0
 18 30  2  0  0  0  0
 18 31  1  0  0  0  0
 19 21  2  0  0  0  0
 19 36  1  0  0  0  0
 20 22  2  0  0  0  0
 20 37  1  0  0  0  0
 21 46  1  0  0  0  0
 22 38  1  0  0  0  0
 23 56  1  0  0  0  0
 24 77  1  0  0  0  0
 25 78  1  0  0  0  0
 26 28  2  0  0  0  0
 26 77  1  0  0  0  0
 27 79  1  0  0  0  0
 28 80  1  0  0  0  0
 29 61  2  0  0  0  0
 30 63  1  0  0  0  0
 30 66  1  0  0  0  0
 31 67  1  0  0  0  0
 31 72  2  0  0  0  0
 32 47  1  0  0  0  0
 32 68  1  0  0  0  0
 32 73  2  0  0  0  0
 33 57  1  0  0  0  0
 33 64  1  0  0  0  0
 33 74  2  0  0  0  0
 34 58  1  0  0  0  0
 34 69  1  0  0  0  0
 34 75  2  0  0  0  0
 35 65  1  0  0  0  0
 35 70  1  0  0  0  0
 35 76  2  0  0  0  0
 36 39  1  0  0  0  0
 37 47  1  0  0  0  0
 38 64  1  0  0  0  0
 39 41  1  0  0  0  0
 40 42  1  0  0  0  0
 40 44  1  0  0  0  0
 41 46  1  0  0  0  0
 42 48  1  0  0  0  0
 43 49  1  0  0  0  0
 43 50  1  0  0  0  0
 44 65  1  0  0  0  0
 45 48  1  0  0  0  0
 45 65  1  0  0  0  0
 46 68  1  0  0  0  0
 47 64  1  0  0  0  0
 48 63  1  0  0  0  0
 49 50  1  0  0  0  0
 49 62  1  0  0  0  0
 50 70  1  0  0  0  0
 51 58  1  0  0  0  0
 52 59  1  0  0  0  0
 53 59  1  0  0  0  0
 54 59  1  0  0  0  0
 55 71  1  0  0  0  0
 56 78  1  0  0  0  0
 57 59  1  0  0  0  0
 57 69  1  0  0  0  0
 58 71  1  0  0  0  0
 60 62  1  0  0  0  0
 61 63  1  0  0  0  0
M  CHG  1  71   1
M  ISO  4  35 100  56 101  70 100  78 101
M  END
> <Batch ID>
0187

> <Smiles>
CNC(C)C(=O)NC(C(=O)N1Cc2cc([101O:1][101CH2:1]c3cnn(C4CC4[100NH:0][100C:0](=O)N4CCCC(n5nc(-c6ccc(Oc7ccc(F)cc7F)cc6)c(C(N)=O)c5N)C4)c3)ccc2CC1C(=O)NC1CCCc2ccccc21)C(C)(C)C

> <Shape>
0.257

> <Color>
0.102

> <Negative vol penalty>
0.000

$$$$

  -OEChem-04052323173D

 86 95  0     1  0  0  0  0  0999 V2000
  -17.2046  -28.1481   23.3620 C   0  0  0  0  0  0  0  0  0  0  0  0
  -18.4182  -27.9815   22.7027 C   0  0  0  0  0  0  0  0  0  0  0  0
  -22.8196  -10.5474   21.8525 C   0  0  0  0  0  0  0  0  0  0  0  0
  -24.6232   -8.9401   21.8270 C   0  0  0  0  0  0  0  0  0  0  0  0
  -16.9950  -29.2715   24.1608 C   0  0  0  0  0  0  0  0  0  0  0  0
  -19.4227  -28.9389   22.8409 C   0  0  0  0  0  0  0  0  0  0  0  0
  -23.9793  -26.8741   23.6276 C   0  0  0  0  0  0  0  0  0  0  0  0
  -21.9002   -9.5190   21.6458 C   0  0  0  0  0  0  0  0  0  0  0  0
  -23.7038   -7.9117   21.6204 C   0  0  0  0  0  0  0  0  0  0  0  0
  -24.6412  -26.3504   22.5179 C   0  0  0  0  0  0  0  0  0  0  0  0
  -21.5270   -6.1094   23.4734 C   0  0  0  0  0  0  0  0  0  0  0  0
  -21.6734   -4.9489   24.2333 C   0  0  0  0  0  0  0  0  0  0  0  0
  -25.9812  -28.3515   22.3803 C   0  0  0  0  0  0  0  0  0  0  0  0
  -27.1277  -24.3927   18.4505 C   0  0  0  0  0  0  0  0  0  0  0  0
  -21.9464   -3.6581   22.2094 C   0  0  0  0  0  0  0  0  0  0  0  0
  -29.8462  -24.6037   18.3457 C   0  0  0  0  0  0  0  0  0  0  0  0
  -24.1811  -10.2580   21.9430 C   0  0  0  0  0  0  0  0  0  0  0  0
  -25.5903  -11.8151   23.3912 C   0  0  0  0  0  0  0  0  0  0  0  0
  -18.0008  -30.2382   24.3166 C   0  0  0  0  0  0  0  0  0  0  0  0
  -24.3064  -28.1472   24.1161 C   0  0  0  0  0  0  0  0  0  0  0  0
  -19.2258  -30.0769   23.6415 C   0  0  0  0  0  0  0  0  0  0  0  0
  -25.3237  -28.8881   23.4979 C   0  0  0  0  0  0  0  0  0  0  0  0
  -27.7136  -25.6534   18.4276 C   0  0  0  0  0  0  0  0  0  0  0  0
  -22.3423   -8.2011   21.5298 C   0  0  0  0  0  0  0  0  0  0  0  0
  -25.6403  -27.0903   21.8923 C   0  0  0  0  0  0  0  0  0  0  0  0
  -21.5902   -6.0442   22.0814 C   0  0  0  0  0  0  0  0  0  0  0  0
  -21.8831   -3.7233   23.6013 C   0  0  0  0  0  0  0  0  0  0  0  0
  -21.7999   -4.8186   21.4494 C   0  0  0  0  0  0  0  0  0  0  0  0
  -29.0981  -25.7696   18.3742 C   0  0  0  0  0  0  0  0  0  0  0  0
  -25.1314  -11.3199   22.1559 C   0  0  0  0  0  0  0  0  0  0  0  0
  -27.9639  -23.2884   18.4183 C   0  0  0  0  0  0  0  0  0  0  0  0
  -26.4743  -12.8111   23.0549 C   0  0  0  0  0  0  0  0  0  0  0  0
  -25.2483  -11.4107   24.7235 C   0  0  0  0  0  0  0  0  0  0  0  0
  -22.7360  -30.8892   24.4609 C   0  0  0  0  0  0  0  0  0  0  0  0
  -25.4605  -31.8108   25.9611 C   0  0  0  0  0  0  0  0  0  0  0  0
  -28.8178  -31.3778   26.3946 C   0  0  0  0  0  0  0  0  0  0  0  0
  -27.9640  -17.1263   20.2326 C   0  0  0  0  0  0  0  0  0  0  0  0
  -17.7107  -31.4594   25.1528 C   0  0  0  0  0  0  0  0  0  0  0  0
  -23.6015  -28.6867   25.3304 C   0  0  0  0  0  0  0  0  0  0  0  0
  -25.7265  -30.2513   23.9957 C   0  0  0  0  0  0  0  0  0  0  0  0
  -18.9624  -32.2397   25.5461 C   0  0  0  0  0  0  0  0  0  0  0  0
  -28.5022  -14.0641   18.6010 C   0  0  0  0  0  0  0  0  0  0  0  0
  -19.8740  -32.4306   24.3381 C   0  0  0  0  0  0  0  0  0  0  0  0
  -27.7042  -13.1053   19.4843 C   0  0  0  0  0  0  0  0  0  0  0  0
  -27.1982  -19.6693   17.9228 C   0  0  0  0  0  0  0  0  0  0  0  0
  -28.6660  -20.4920   19.8034 C   0  0  0  0  0  0  0  0  0  0  0  0
  -27.7735  -15.3931   18.3934 C   0  0  0  0  0  0  0  0  0  0  0  0
  -27.9011  -18.3103   17.9919 C   0  0  0  0  0  0  0  0  0  0  0  0
  -29.3564  -19.1310   19.8160 C   0  0  0  0  0  0  0  0  0  0  0  0
  -26.5718  -15.1002   20.5355 C   0  0  0  0  0  0  0  0  0  0  0  0
  -20.3488  -31.0809   23.7864 C   0  0  1  0  0  0  0  0  0  0  0  0
  -23.6612  -30.2079   25.4292 C   0  0  1  0  0  0  0  0  0  0  0  0
  -27.3051  -13.7781   20.8098 C   0  0  1  0  0  0  0  0  0  0  0  0
  -28.1086  -20.7986   18.4109 C   0  0  0  0  0  0  0  0  0  0  0  0
  -30.7766  -32.3060   27.6590 C   0  0  0  0  0  0  0  0  0  0  0  0
  -25.5428  -34.2049   24.0712 C   0  0  0  0  0  0  0  0  0  0  0  0
  -27.9376  -34.5443   24.7176 C   0  0  0  0  0  0  0  0  0  0  0  0
  -26.1443  -34.7262   26.4420 C   0  0  0  0  0  0  0  0  0  0  0  0
  -29.3057  -28.7986   27.7614 C   0  0  0  0  0  0  0  0  0  0  0  0
  -26.8258  -26.8544   18.4638 C   0  0  0  0  0  0  0  0  0  0  0  0
  -26.7724  -27.5139   19.8442 C   0  0  0  0  0  0  0  0  0  1  0  0
  -26.7566  -32.4507   25.5257 C   0  0  1  0  0  0  0  0  0  0  0  0
  -29.6655  -31.2677   27.6490 C   0  0  2  0  0  0  0  0  0  0  0  0
  -26.5866  -33.9567   25.1783 C   0  0  0  0  0  0  0  0  0  0  0  0
  -29.3129  -23.3616   18.3664 N   0  0  0  0  0  0  0  0  0  0  0  0
  -25.6784  -11.9496   21.1126 N   0  0  0  0  0  0  0  0  0  0  0  0
  -26.4901  -12.8507   21.6917 N   0  0  0  0  0  0  0  0  0  0  0  0
  -25.0036  -30.7382   25.1823 N   0  0  0  0  0  0  0  0  0  0  0  0
  -27.3778  -15.9764   19.6828 N   0  0  0  0  0  0  0  0  0  0  0  0
  -28.4599  -18.0807   19.3320 N   0  0  0  0  0  0  0  0  0  0  0  0
  -27.2316  -13.6482   23.7952 N   0  0  0  0  0  0  0  0  0  0  0  0
  -24.3232  -10.3710   24.8895 N   0  0  0  0  0  0  0  0  0  0  0  0
  -27.3674  -22.0402   18.4412 N   0  0  0  0  0  0  0  0  0  0  0  0
  -21.4073  -30.5413   24.6126 N   0  0  0  0  0  0  0  0  0  0  0  0
  -27.7192  -32.1880   26.5900 N   0  0  0  0  0  0  0  0  0  0  0  0
  -30.2852  -29.9154   27.7384 N   0  3  0  0  0  0  0  0  0  0  0  0
  -25.7358  -11.9663   25.7370 O   0  0  0  0  0  0  0  0  0  0  0  0
  -23.1936  -31.6736   23.6381 O   0  0  0  0  0  0  0  0  0  0  0  0
  -24.8786  -32.2420   26.9596 O   0  0  0  0  0  0  0  0  0  0  0  0
  -29.1036  -30.8056   25.3451 O   0  0  0  0  0  0  0  0  0  0  0  0
  -28.0399  -17.2909   21.4567 O   0  0  0  0  0  0  0  0  0  0  0  0
  -21.4454   -7.1973   21.3284 O   0  0  0  0  0  0  0  0  0  0  0  0
  -26.2920  -26.5782   20.8010 O   0  0  0  0  0  0  0  0  0  1  0  0
  -22.0253   -2.6092   24.3312 F   0  0  0  0  0  0  0  0  0  0  0  0
  -21.8628   -4.7498   20.1126 F   0  0  0  0  0  0  0  0  0  0  0  0
  -29.8907  -27.2956   18.3443 Cl  0  0  0  0  0  0  0  0  0  0  0  0
  1  2  1  0  0  0  0
  1  5  2  0  0  0  0
  2  6  2  0  0  0  0
  3  8  2  0  0  0  0
  3 17  1  0  0  0  0
  4  9  1  0  0  0  0
  4 17  2  0  0  0  0
  5 19  1  0  0  0  0
  6 21  1  0  0  0  0
  7 10  2  0  0  0  0
  7 20  1  0  0  0  0
  8 24  1  0  0  0  0
  9 24  2  0  0  0  0
 10 25  1  0  0  0  0
 11 12  2  0  0  0  0
 11 26  1  0  0  0  0
 12 27  1  0  0  0  0
 13 22  1  0  0  0  0
 13 25  2  0  0  0  0
 14 23  1  0  0  0  0
 14 31  2  0  0  0  0
 15 27  2  0  0  0  0
 15 28  1  0  0  0  0
 16 29  1  0  0  0  0
 16 65  2  0  0  0  0
 17 30  1  0  0  0  0
 18 30  1  0  0  0  0
 18 32  2  0  0  0  0
 18 33  1  0  0  0  0
 19 21  2  0  0  0  0
 19 38  1  0  0  0  0
 20 22  2  0  0  0  0
 20 39  1  0  0  0  0
 21 51  1  0  0  0  0
 22 40  1  0  0  0  0
 23 29  2  0  0  0  0
 23 60  1  0  0  0  0
 24 82  1  0  0  0  0
 25 83  1  0  0  0  0
 26 28  2  0  0  0  0
 26 82  1  0  0  0  0
 27 84  1  0  0  0  0
 28 85  1  0  0  0  0
 29 86  1  0  0  0  0
 30 66  2  0  0  0  0
 31 65  1  0  0  0  0
 31 73  1  0  0  0  0
 32 67  1  0  0  0  0
 32 71  1  0  0  0  0
 33 72  1  0  0  0  0
 33 77  2  0  0  0  0
 34 52  1  0  0  0  0
 34 74  1  0  0  0  0
 34 78  2  0  0  0  0
 35 62  1  0  0  0  0
 35 68  1  0  0  0  0
 35 79  2  0  0  0  0
 36 63  1  0  0  0  0
 36 75  1  0  0  0  0
 36 80  2  0  0  0  0
 37 69  1  0  0  0  0
 37 70  1  0  0  0  0
 37 81  2  0  0  0  0
 38 41  1  0  0  0  0
 39 52  1  0  0  0  0
 40 68  1  0  0  0  0
 41 43  1  0  0  0  0
 42 44  1  0  0  0  0
 42 47  1  0  0  0  0
 43 51  1  0  0  0  0
 44 53  1  0  0  0  0
 45 48  1  0  0  0  0
 45 54  1  0  0  0  0
 46 49  1  0  0  0  0
 46 54  1  0  0  0  0
 47 69  1  0  0  0  0
 48 70  1  0  0  0  0
 49 70  1  0  0  0  0
 50 53  1  0  0  0  0
 50 69  1  0  0  0  0
 51 74  1  0  0  0  0
 52 68  1  0  0  0  0
 53 67  1  0  0  0  0
 54 73  1  0  0  0  0
 55 63  1  0  0  0  0
 56 64  1  0  0  0  0
 57 64  1  0  0  0  0
 58 64  1  0  0  0  0
 59 76  1  0  0  0  0
 60 61  1  0  0  0  0
 61 83  1  0  0  0  0
 62 64  1  0  0  0  0
 62 75  1  0  0  0  0
 63 76  1  0  0  0  0
 66 67  1  0  0  0  0
M  CHG  1  76   1
M  ISO  4  37 100  61 101  70 100  83 101
M  END
> <Batch ID>
0187

> <Smiles>
CNC(C)C(=O)NC(C(=O)N1Cc2cc([101O:1][101CH2:1]Cc3cc(NC4CC[100N:0]([100C:0](=O)N5CCCC(n6nc(-c7ccc(Oc8ccc(F)cc8F)cc7)c(C(N)=O)c6N)C5)CC4)ncc3Cl)ccc2CC1C(=O)NC1CCCc2ccccc21)C(C)(C)C

> <Shape>
0.304

> <Color>
0.097

> <Negative vol penalty>
0.000

$$$$

  -OEChem-04052323173D

 81 89  0     1  0  0  0  0  0999 V2000
  -24.4818  -35.5534   23.3406 C   0  0  0  0  0  0  0  0  0  0  0  0
  -25.2068  -34.5177   22.7599 C   0  0  0  0  0  0  0  0  0  0  0  0
  -25.9574  -13.7529   19.5719 C   0  0  0  0  0  0  0  0  0  0  0  0
  -24.2979  -13.8214   21.3264 C   0  0  0  0  0  0  0  0  0  0  0  0
  -23.4271  -35.2649   24.2056 C   0  0  0  0  0  0  0  0  0  0  0  0
  -24.8781  -33.1928   23.0447 C   0  0  0  0  0  0  0  0  0  0  0  0
  -24.7869  -30.2803   18.9030 C   0  0  0  0  0  0  0  0  0  0  0  0
  -26.1038  -12.3791   19.7640 C   0  0  0  0  0  0  0  0  0  0  0  0
  -24.4442  -12.4476   21.5185 C   0  0  0  0  0  0  0  0  0  0  0  0
  -26.0144  -29.8587   18.3939 C   0  0  0  0  0  0  0  0  0  0  0  0
  -23.3993   -9.6005   20.0275 C   0  0  0  0  0  0  0  0  0  0  0  0
  -22.2383   -8.8392   20.1616 C   0  0  0  0  0  0  0  0  0  0  0  0
  -25.7125  -27.7148   19.4578 C   0  0  0  0  0  0  0  0  0  0  0  0
  -22.9542   -8.1345   22.3589 C   0  0  0  0  0  0  0  0  0  0  0  0
  -25.0545  -14.4741   20.3532 C   0  0  0  0  0  0  0  0  0  0  0  0
  -24.0072  -16.5394   19.2831 C   0  0  0  0  0  0  0  0  0  0  0  0
  -23.0791  -33.9357   24.4937 C   0  0  0  0  0  0  0  0  0  0  0  0
  -24.0167  -29.4246   19.7037 C   0  0  0  0  0  0  0  0  0  0  0  0
  -23.8186  -32.8863   23.9154 C   0  0  0  0  0  0  0  0  0  0  0  0
  -24.4743  -28.1270   19.9736 C   0  0  0  0  0  0  0  0  0  0  0  0
  -25.3472  -11.7264   20.7372 C   0  0  0  0  0  0  0  0  0  0  0  0
  -26.4787  -28.5768   18.6737 C   0  0  0  0  0  0  0  0  0  0  0  0
  -24.3378   -9.6289   21.0591 C   0  0  0  0  0  0  0  0  0  0  0  0
  -22.0157   -8.1062   21.3272 C   0  0  0  0  0  0  0  0  0  0  0  0
  -24.1152   -8.8959   22.2247 C   0  0  0  0  0  0  0  0  0  0  0  0
  -24.9033  -15.8933   20.1557 C   0  0  0  0  0  0  0  0  0  0  0  0
  -24.2548  -17.8780   19.4662 C   0  0  0  0  0  0  0  0  0  0  0  0
  -23.0377  -15.9797   18.3873 C   0  0  0  0  0  0  0  0  0  0  0  0
  -22.9585  -29.5046   22.6999 C   0  0  0  0  0  0  0  0  0  0  0  0
  -21.3826  -26.8148   21.8033 C   0  0  0  0  0  0  0  0  0  0  0  0
  -21.1930  -24.1324   19.7020 C   0  0  0  0  0  0  0  0  0  0  0  0
  -29.1504  -20.6847   21.2780 C   0  0  0  0  0  0  0  0  0  0  0  0
  -21.9614  -33.6736   25.4718 C   0  0  0  0  0  0  0  0  0  0  0  0
  -22.6823  -29.8852   20.2231 C   0  0  0  0  0  0  0  0  0  0  0  0
  -23.6760  -27.1628   20.8112 C   0  0  0  0  0  0  0  0  0  0  0  0
  -21.4377  -32.2404   25.4284 C   0  0  0  0  0  0  0  0  0  0  0  0
  -25.7929  -21.0041   22.7152 C   0  0  0  0  0  0  0  0  0  0  0  0
  -22.5965  -31.2485   25.4221 C   0  0  0  0  0  0  0  0  0  0  0  0
  -25.1241  -19.7427   22.1793 C   0  0  0  0  0  0  0  0  0  0  0  0
  -31.8448  -21.6095   23.0568 C   0  0  0  0  0  0  0  0  0  0  0  0
  -27.2790  -20.7946   23.0086 C   0  0  0  0  0  0  0  0  0  0  0  0
  -30.4098  -21.2912   23.4879 C   0  0  0  0  0  0  0  0  0  0  0  0
  -27.3653  -18.9789   21.3206 C   0  0  0  0  0  0  0  0  0  0  0  0
  -23.4765  -31.4361   24.1804 C   0  0  1  0  0  0  0  0  0  0  0  0
  -22.2197  -29.1096   21.4526 C   0  0  1  0  0  0  0  0  0  0  0  0
  -25.8898  -19.2038   20.9618 C   0  0  1  0  0  0  0  0  0  0  0  0
  -31.2966  -22.0126   21.6794 C   0  0  2  0  0  0  0  0  0  0  0  0
  -19.8154  -22.0868   19.2384 C   0  0  0  0  0  0  0  0  0  0  0  0
  -30.8931  -24.7171   17.2066 C   0  0  0  0  0  0  0  0  0  0  0  0
  -22.6369  -25.4268   24.2137 C   0  0  0  0  0  0  0  0  0  0  0  0
  -22.0176  -23.2306   23.1835 C   0  0  0  0  0  0  0  0  0  0  0  0
  -20.2346  -24.8570   23.8151 C   0  0  0  0  0  0  0  0  0  0  0  0
  -20.5119  -25.0667   16.9777 C   0  0  0  0  0  0  0  0  0  0  0  0
  -31.0812  -23.4897   21.4152 C   0  0  0  0  0  0  0  0  0  0  0  0
  -30.2858  -25.0784   19.6596 C   0  0  0  0  0  0  0  0  0  0  0  0
  -28.1028  -26.8309   18.5008 C   0  0  0  0  0  0  0  0  0  1  0  0
  -21.6978  -25.3385   21.8103 C   0  0  1  0  0  0  0  0  0  0  0  0
  -20.0353  -23.5548   18.9079 C   0  0  2  0  0  0  0  0  0  0  0  0
  -29.8370  -25.1862   18.2027 C   0  0  1  0  0  0  0  0  0  0  0  0
  -21.6629  -24.7318   23.2414 C   0  0  0  0  0  0  0  0  0  0  0  0
  -25.6635  -16.7508   20.8419 N   0  0  0  0  0  0  0  0  0  0  0  0
  -25.2457  -17.9494   20.4006 N   0  0  0  0  0  0  0  0  0  0  0  0
  -22.3807  -27.6620   21.3014 N   0  0  0  0  0  0  0  0  0  0  0  0
  -27.9827  -20.1916   21.8704 N   0  0  0  0  0  0  0  0  0  0  0  0
  -30.0528  -21.3499   22.0779 N   0  0  0  0  0  0  0  0  0  0  0  0
  -23.7194  -18.9890   18.9173 N   0  0  0  0  0  0  0  0  0  0  0  0
  -22.9138  -14.5851   18.3235 N   0  0  0  0  0  0  0  0  0  0  0  0
  -22.8461  -30.8442   23.0199 N   0  0  0  0  0  0  0  0  0  0  0  0
  -20.7659  -24.7177   20.8752 N   0  0  0  0  0  0  0  0  0  0  0  0
  -29.4028  -26.5274   17.8884 N   0  0  0  0  0  0  0  0  0  0  0  0
  -20.2999  -23.6729   17.4460 N   0  3  0  0  0  0  0  0  0  0  0  0
  -30.5924  -23.6683   20.0291 N   0  3  0  0  0  0  0  0  0  0  0  0
  -22.3146  -16.6946   17.6528 O   0  0  0  0  0  0  0  0  0  0  0  0
  -23.5829  -28.6566   23.3265 O   0  0  0  0  0  0  0  0  0  0  0  0
  -20.2882  -27.2015   22.2210 O   0  0  0  0  0  0  0  0  0  0  0  0
  -22.3598  -24.0674   19.3216 O   0  0  0  0  0  0  0  0  0  0  0  0
  -29.3978  -20.5113   20.0773 O   0  0  0  0  0  0  0  0  0  0  0  0
  -25.4895  -10.3859   20.9247 O   0  0  0  0  0  0  0  0  0  0  0  0
  -27.6849  -28.1602   18.1752 O   0  0  0  0  0  0  0  0  0  1  0  0
  -20.9000   -7.3763   21.4565 F   0  0  0  0  0  0  0  0  0  0  0  0
  -25.0126   -8.9201   23.2197 F   0  0  0  0  0  0  0  0  0  0  0  0
  1  2  1  0  0  0  0
  1  5  2  0  0  0  0
  2  6  2  0  0  0  0
  3  8  2  0  0  0  0
  3 15  1  0  0  0  0
  4  9  1  0  0  0  0
  4 15  2  0  0  0  0
  5 17  1  0  0  0  0
  6 19  1  0  0  0  0
  7 10  2  0  0  0  0
  7 18  1  0  0  0  0
  8 21  1  0  0  0  0
  9 21  2  0  0  0  0
 10 22  1  0  0  0  0
 11 12  2  0  0  0  0
 11 23  1  0  0  0  0
 12 24  1  0  0  0  0
 13 20  1  0  0  0  0
 13 22  2  0  0  0  0
 14 24  2  0  0  0  0
 14 25  1  0  0  0  0
 15 26  1  0  0  0  0
 16 26  1  0  0  0  0
 16 27  2  0  0  0  0
 16 28  1  0  0  0  0
 17 19  2  0  0  0  0
 17 33  1  0  0  0  0
 18 20  2  0  0  0  0
 18 34  1  0  0  0  0
 19 44  1  0  0  0  0
 20 35  1  0  0  0  0
 21 78  1  0  0  0  0
 22 79  1  0  0  0  0
 23 25  2  0  0  0  0
 23 78  1  0  0  0  0
 24 80  1  0  0  0  0
 25 81  1  0  0  0  0
 26 61  2  0  0  0  0
 27 62  1  0  0  0  0
 27 66  1  0  0  0  0
 28 67  1  0  0  0  0
 28 73  2  0  0  0  0
 29 45  1  0  0  0  0
 29 68  1  0  0  0  0
 29 74  2  0  0  0  0
 30 57  1  0  0  0  0
 30 63  1  0  0  0  0
 30 75  2  0  0  0  0
 31 58  1  0  0  0  0
 31 69  1  0  0  0  0
 31 76  2  0  0  0  0
 32 64  1  0  0  0  0
 32 65  1  0  0  0  0
 32 77  2  0  0  0  0
 33 36  1  0  0  0  0
 34 45  1  0  0  0  0
 35 63  1  0  0  0  0
 36 38  1  0  0  0  0
 37 39  1  0  0  0  0
 37 41  1  0  0  0  0
 38 44  1  0  0  0  0
 39 46  1  0  0  0  0
 40 42  1  0  0  0  0
 40 47  1  0  0  0  0
 41 64  1  0  0  0  0
 42 65  1  0  0  0  0
 43 46  1  0  0  0  0
 43 64  1  0  0  0  0
 44 68  1  0  0  0  0
 45 63  1  0  0  0  0
 46 62  1  0  0  0  0
 47 54  1  0  0  0  0
 47 65  1  0  0  0  0
 48 58  1  0  0  0  0
 49 59  1  0  0  0  0
 50 60  1  0  0  0  0
 51 60  1  0  0  0  0
 52 60  1  0  0  0  0
 53 71  1  0  0  0  0
 54 72  1  0  0  0  0
 55 59  1  0  0  0  0
 55 72  1  0  0  0  0
 56 70  1  0  0  0  0
 56 79  1  0  0  0  0
 57 60  1  0  0  0  0
 57 69  1  0  0  0  0
 58 71  1  0  0  0  0
 59 70  1  0  0  0  0
 61 62  1  0  0  0  0
M  CHG  2  71   1  72   1
M  ISO  4  32 100  56 101  65 100  79 101
M  END
> <Batch ID>
0187

> <Smiles>
CNC(C)C(=O)NC(C(=O)N1Cc2cc([101O:1][101CH2:1]NC(C)CNCC3CC[100N:0]3[100C:0](=O)N3CCCC(n4nc(-c5ccc(Oc6ccc(F)cc6F)cc5)c(C(N)=O)c4N)C3)ccc2CC1C(=O)NC1CCCc2ccccc21)C(C)(C)C

> <Shape>
0.230

> <Color>
0.075

> <Negative vol penalty>
0.000

$$$$

  -OEChem-04052323173D

 80 88  0     1  0  0  0  0  0999 V2000
  -18.5364  -30.5266   23.9070 C   0  0  0  0  0  0  0  0  0  0  0  0
  -19.9142  -30.5852   23.7235 C   0  0  0  0  0  0  0  0  0  0  0  0
  -26.2590  -13.0871   20.1921 C   0  0  0  0  0  0  0  0  0  0  0  0
  -23.9973  -13.3458   21.0013 C   0  0  0  0  0  0  0  0  0  0  0  0
  -17.8506  -29.3391   23.6552 C   0  0  0  0  0  0  0  0  0  0  0  0
  -20.6072  -29.4558   23.2892 C   0  0  0  0  0  0  0  0  0  0  0  0
  -25.5082  -29.3291   19.6191 C   0  0  0  0  0  0  0  0  0  0  0  0
  -26.1954  -11.7181   20.4521 C   0  0  0  0  0  0  0  0  0  0  0  0
  -23.9337  -11.9768   21.2613 C   0  0  0  0  0  0  0  0  0  0  0  0
  -26.8732  -29.2179   19.8805 C   0  0  0  0  0  0  0  0  0  0  0  0
  -23.4558   -9.1293   19.5053 C   0  0  0  0  0  0  0  0  0  0  0  0
  -22.3039   -8.4490   19.1105 C   0  0  0  0  0  0  0  0  0  0  0  0
  -26.7477  -26.8403   19.4926 C   0  0  0  0  0  0  0  0  0  0  0  0
  -21.8939   -7.8118   21.4046 C   0  0  0  0  0  0  0  0  0  0  0  0
  -25.1599  -13.9009   20.4668 C   0  0  0  0  0  0  0  0  0  0  0  0
  -24.8727  -15.9713   19.0044 C   0  0  0  0  0  0  0  0  0  0  0  0
  -18.5342  -28.1973   23.2083 C   0  0  0  0  0  0  0  0  0  0  0  0
  -24.7493  -28.1932   19.3026 C   0  0  0  0  0  0  0  0  0  0  0  0
  -19.9301  -28.2515   23.0325 C   0  0  0  0  0  0  0  0  0  0  0  0
  -25.3738  -26.9401   19.2251 C   0  0  0  0  0  0  0  0  0  0  0  0
  -25.0328  -11.1630   20.9867 C   0  0  0  0  0  0  0  0  0  0  0  0
  -27.4925  -27.9730   19.8201 C   0  0  0  0  0  0  0  0  0  0  0  0
  -23.8268   -9.1507   20.8498 C   0  0  0  0  0  0  0  0  0  0  0  0
  -21.5229   -7.7903   20.0601 C   0  0  0  0  0  0  0  0  0  0  0  0
  -23.0459   -8.4920   21.7994 C   0  0  0  0  0  0  0  0  0  0  0  0
  -25.2252  -15.3152   20.1990 C   0  0  0  0  0  0  0  0  0  0  0  0
  -25.1144  -17.2994   19.2579 C   0  0  0  0  0  0  0  0  0  0  0  0
  -24.3714  -15.4288   17.7755 C   0  0  0  0  0  0  0  0  0  0  0  0
  -22.2786  -26.7032   20.6366 C   0  0  0  0  0  0  0  0  0  0  0  0
  -22.3983  -24.9134   17.9339 C   0  0  0  0  0  0  0  0  0  0  0  0
  -24.2459  -23.7404   15.3153 C   0  0  0  0  0  0  0  0  0  0  0  0
  -28.7176  -21.0707   21.2794 C   0  0  0  0  0  0  0  0  0  0  0  0
  -17.7566  -26.9228   22.9947 C   0  0  0  0  0  0  0  0  0  0  0  0
  -23.2833  -28.3339   18.9972 C   0  0  0  0  0  0  0  0  0  0  0  0
  -24.6077  -25.6930   18.8699 C   0  0  0  0  0  0  0  0  0  0  0  0
  -18.5122  -25.8780   22.1777 C   0  0  0  0  0  0  0  0  0  0  0  0
  -26.1573  -19.6968   23.5843 C   0  0  0  0  0  0  0  0  0  0  0  0
  -19.9438  -25.7366   22.6850 C   0  0  0  0  0  0  0  0  0  0  0  0
  -25.6928  -18.4600   22.8139 C   0  0  0  0  0  0  0  0  0  0  0  0
  -28.0969  -24.4623   22.5534 C   0  0  0  0  0  0  0  0  0  0  0  0
  -27.6207  -20.0024   23.2930 C   0  0  0  0  0  0  0  0  0  0  0  0
  -27.8279  -22.9736   22.7496 C   0  0  0  0  0  0  0  0  0  0  0  0
  -27.4741  -18.9488   21.0691 C   0  0  0  0  0  0  0  0  0  0  0  0
  -29.8662  -23.2559   21.5066 C   0  0  0  0  0  0  0  0  0  0  0  0
  -20.7137  -27.0546   22.5387 C   0  0  1  0  0  0  0  0  0  0  0  0
  -22.5057  -27.0354   19.1889 C   0  0  1  0  0  0  0  0  0  0  0  0
  -25.9961  -18.5940   21.3105 C   0  0  1  0  0  0  0  0  0  0  0  0
  -29.6062  -24.4817   22.3629 C   0  0  1  0  0  0  0  0  0  0  0  0
  -24.0795  -22.2674   13.2904 C   0  0  0  0  0  0  0  0  0  0  0  0
  -22.5123  -22.4447   19.7234 C   0  0  0  0  0  0  0  0  0  0  0  0
  -23.2904  -21.1291   17.7405 C   0  0  0  0  0  0  0  0  0  0  0  0
  -21.0422  -22.2096   17.7139 C   0  0  0  0  0  0  0  0  0  0  0  0
  -24.8927  -25.9788   13.4905 C   0  0  0  0  0  0  0  0  0  0  0  0
  -30.0969  -26.9224   22.5645 C   0  0  0  0  0  0  0  0  0  0  0  0
  -29.3908  -28.8022   20.9885 C   0  0  0  0  0  0  0  0  0  1  0  0
  -23.1115  -23.6490   17.5196 C   0  0  1  0  0  0  0  0  0  0  0  0
  -23.9603  -23.6860   13.8253 C   0  0  2  0  0  0  0  0  0  0  0  0
  -30.5382  -28.1480   21.7642 C   0  0  1  0  0  0  0  0  0  0  0  0
  -22.5034  -22.3811   18.1830 C   0  0  0  0  0  0  0  0  0  0  0  0
  -25.6581  -16.1570   21.1412 N   0  0  0  0  0  0  0  0  0  0  0  0
  -25.5792  -17.3558   20.5389 N   0  0  0  0  0  0  0  0  0  0  0  0
  -23.1754  -25.8812   18.5859 N   0  0  0  0  0  0  0  0  0  0  0  0
  -27.8600  -20.1247   21.8522 N   0  0  0  0  0  0  0  0  0  0  0  0
  -28.8325  -22.3061   21.9151 N   0  0  0  0  0  0  0  0  0  0  0  0
  -24.9726  -18.4128   18.5077 N   0  0  0  0  0  0  0  0  0  0  0  0
  -24.1814  -14.0431   17.6852 N   0  0  0  0  0  0  0  0  0  0  0  0
  -31.0954  -29.1280   22.7041 N   0  0  0  0  0  0  0  0  0  0  0  0
  -21.1248  -27.2500   21.1650 N   0  0  0  0  0  0  0  0  0  0  0  0
  -23.0916  -23.6282   16.0610 N   0  0  0  0  0  0  0  0  0  0  0  0
  -30.0459  -25.7142   21.6886 N   0  3  0  0  0  0  0  0  0  0  0  0
  -24.9198  -24.5507   13.0821 N   0  3  0  0  0  0  0  0  0  0  0  0
  -24.1156  -16.1496   16.7813 O   0  0  0  0  0  0  0  0  0  0  0  0
  -23.0893  -26.0015   21.2298 O   0  0  0  0  0  0  0  0  0  0  0  0
  -21.1976  -25.0408   17.6816 O   0  0  0  0  0  0  0  0  0  0  0  0
  -25.3800  -23.8657   15.7719 O   0  0  0  0  0  0  0  0  0  0  0  0
  -29.3164  -20.8401   20.2205 O   0  0  0  0  0  0  0  0  0  0  0  0
  -24.9703   -9.8272   21.2403 O   0  0  0  0  0  0  0  0  0  0  0  0
  -28.8329  -27.8609   20.0771 O   0  0  0  0  0  0  0  0  0  1  0  0
  -20.4159   -7.1383   19.6810 F   0  0  0  0  0  0  0  0  0  0  0  0
  -23.3966   -8.5102   23.0927 F   0  0  0  0  0  0  0  0  0  0  0  0
  1  2  1  0  0  0  0
  1  5  2  0  0  0  0
  2  6  2  0  0  0  0
  3  8  2  0  0  0  0
  3 15  1  0  0  0  0
  4  9  1  0  0  0  0
  4 15  2  0  0  0  0
  5 17  1  0  0  0  0
  6 19  1  0  0  0  0
  7 10  2  0  0  0  0
  7 18  1  0  0  0  0
  8 21  1  0  0  0  0
  9 21  2  0  0  0  0
 10 22  1  0  0  0  0
 11 12  2  0  0  0  0
 11 23  1  0  0  0  0
 12 24  1  0  0  0  0
 13 20  1  0  0  0  0
 13 22  2  0  0  0  0
 14 24  2  0  0  0  0
 14 25  1  0  0  0  0
 15 26  1  0  0  0  0
 16 26  1  0  0  0  0
 16 27  2  0  0  0  0
 16 28  1  0  0  0  0
 17 19  2  0  0  0  0
 17 33  1  0  0  0  0
 18 20  2  0  0  0  0
 18 34  1  0  0  0  0
 19 45  1  0  0  0  0
 20 35  1  0  0  0  0
 21 77  1  0  0  0  0
 22 78  1  0  0  0  0
 23 25  2  0  0  0  0
 23 77  1  0  0  0  0
 24 79  1  0  0  0  0
 25 80  1  0  0  0  0
 26 60  2  0  0  0  0
 27 61  1  0  0  0  0
 27 65  1  0  0  0  0
 28 66  1  0  0  0  0
 28 72  2  0  0  0  0
 29 46  1  0  0  0  0
 29 68  1  0  0  0  0
 29 73  2  0  0  0  0
 30 56  1  0  0  0  0
 30 62  1  0  0  0  0
 30 74  2  0  0  0  0
 31 57  1  0  0  0  0
 31 69  1  0  0  0  0
 31 75  2  0  0  0  0
 32 63  1  0  0  0  0
 32 64  1  0  0  0  0
 32 76  2  0  0  0  0
 33 36  1  0  0  0  0
 34 46  1  0  0  0  0
 35 62  1  0  0  0  0
 36 38  1  0  0  0  0
 37 39  1  0  0  0  0
 37 41  1  0  0  0  0
 38 45  1  0  0  0  0
 39 47  1  0  0  0  0
 40 42  1  0  0  0  0
 40 48  1  0  0  0  0
 41 63  1  0  0  0  0
 42 64  1  0  0  0  0
 43 47  1  0  0  0  0
 43 63  1  0  0  0  0
 44 48  1  0  0  0  0
 44 64  1  0  0  0  0
 45 68  1  0  0  0  0
 46 62  1  0  0  0  0
 47 61  1  0  0  0  0
 48 70  1  0  0  0  0
 49 57  1  0  0  0  0
 50 59  1  0  0  0  0
 51 59  1  0  0  0  0
 52 59  1  0  0  0  0
 53 71  1  0  0  0  0
 54 58  1  0  0  0  0
 54 70  1  0  0  0  0
 55 58  1  0  0  0  0
 55 78  1  0  0  0  0
 56 59  1  0  0  0  0
 56 69  1  0  0  0  0
 57 71  1  0  0  0  0
 58 67  1  0  0  0  0
 60 61  1  0  0  0  0
M  CHG  2  70   1  71   1
M  ISO  4  32 100  55 101  64 100  78 101
M  END
> <Batch ID>
0187

> <Smiles>
CNC(C)C(=O)NC(C(=O)N1Cc2cc([101O:1][101CH2:1]C(N)CNC3CC[100N:0]([100C:0](=O)N4CCCC(n5nc(-c6ccc(Oc7ccc(F)cc7F)cc6)c(C(N)=O)c5N)C4)C3)ccc2CC1C(=O)NC1CCCc2ccccc21)C(C)(C)C

> <Shape>
0.226

> <Color>
0.075

> <Negative vol penalty>
0.000

$$$$

  -OEChem-04052323173D

 84 93  0     1  0  0  0  0  0999 V2000
  -24.0795  -26.9531   19.7300 C   0  0  0  0  0  0  0  0  0  0  0  0
  -24.4151  -25.7265   20.2943 C   0  0  0  0  0  0  0  0  0  0  0  0
  -23.2018   -9.8525   19.9509 C   0  0  0  0  0  0  0  0  0  0  0  0
  -23.9147   -9.9297   22.2581 C   0  0  0  0  0  0  0  0  0  0  0  0
  -22.9846  -27.6665   20.2160 C   0  0  0  0  0  0  0  0  0  0  0  0
  -23.6565  -25.2132   21.3457 C   0  0  0  0  0  0  0  0  0  0  0  0
  -22.6093  -20.2928   20.7644 C   0  0  0  0  0  0  0  0  0  0  0  0
  -22.5118   -8.6669   20.2038 C   0  0  0  0  0  0  0  0  0  0  0  0
  -23.2247   -8.7441   22.5109 C   0  0  0  0  0  0  0  0  0  0  0  0
  -23.6250  -19.3859   21.0639 C   0  0  0  0  0  0  0  0  0  0  0  0
  -20.0293   -7.7930   23.0635 C   0  0  0  0  0  0  0  0  0  0  0  0
  -19.2523   -7.7313   24.2202 C   0  0  0  0  0  0  0  0  0  0  0  0
  -22.6106  -18.9688   23.2125 C   0  0  0  0  0  0  0  0  0  0  0  0
  -20.5744   -5.8693   25.0090 C   0  0  0  0  0  0  0  0  0  0  0  0
  -27.0169  -16.8191   23.9405 C   0  0  0  0  0  0  0  0  0  0  0  0
  -23.9033  -10.4839   20.9781 C   0  0  0  0  0  0  0  0  0  0  0  0
  -24.1203  -13.0212   20.8270 C   0  0  0  0  0  0  0  0  0  0  0  0
  -22.2065  -27.1571   21.2675 C   0  0  0  0  0  0  0  0  0  0  0  0
  -21.5909  -20.5530   21.6926 C   0  0  0  0  0  0  0  0  0  0  0  0
  -22.5510  -25.9211   21.8472 C   0  0  0  0  0  0  0  0  0  0  0  0
  -21.5818  -19.8775   22.9213 C   0  0  0  0  0  0  0  0  0  0  0  0
  -22.5233   -8.1127   21.4838 C   0  0  0  0  0  0  0  0  0  0  0  0
  -23.6274  -18.7259   22.2893 C   0  0  0  0  0  0  0  0  0  0  0  0
  -21.0789   -6.8929   22.8795 C   0  0  0  0  0  0  0  0  0  0  0  0
  -19.5248   -6.7695   25.1929 C   0  0  0  0  0  0  0  0  0  0  0  0
  -21.3515   -5.9311   23.8522 C   0  0  0  0  0  0  0  0  0  0  0  0
  -24.6166  -11.7084   20.7174 C   0  0  0  0  0  0  0  0  0  0  0  0
  -25.7433  -16.2917   24.0052 C   0  0  0  0  0  0  0  0  0  0  0  0
  -28.0467  -15.9121   24.0859 C   0  0  0  0  0  0  0  0  0  0  0  0
  -25.1805  -13.8197   20.4735 C   0  0  0  0  0  0  0  0  0  0  0  0
  -26.5717  -14.1990   24.3241 C   0  0  0  0  0  0  0  0  0  0  0  0
  -22.8175  -13.4781   21.2138 C   0  0  0  0  0  0  0  0  0  0  0  0
  -20.6056  -23.1251   23.2793 C   0  0  0  0  0  0  0  0  0  0  0  0
  -18.2186  -21.1448   24.2294 C   0  0  0  0  0  0  0  0  0  0  0  0
  -17.1453  -17.9499   24.7652 C   0  0  0  0  0  0  0  0  0  0  0  0
  -30.9443  -14.0679   20.9550 C   0  0  0  0  0  0  0  0  0  0  0  0
  -21.0606  -27.9866   21.7906 C   0  0  0  0  0  0  0  0  0  0  0  0
  -20.4878  -21.5141   21.3436 C   0  0  0  0  0  0  0  0  0  0  0  0
  -20.5001  -20.1063   23.9441 C   0  0  0  0  0  0  0  0  0  0  0  0
  -20.0837  -27.1974   22.6583 C   0  0  0  0  0  0  0  0  0  0  0  0
  -29.3521  -13.1389   17.9089 C   0  0  0  0  0  0  0  0  0  0  0  0
  -20.8393  -26.3457   23.6735 C   0  0  0  0  0  0  0  0  0  0  0  0
  -27.9225  -12.7973   18.3328 C   0  0  0  0  0  0  0  0  0  0  0  0
  -31.0282  -16.9899   25.0249 C   0  0  0  0  0  0  0  0  0  0  0  0
  -30.3707  -12.7113   18.9632 C   0  0  0  0  0  0  0  0  0  0  0  0
  -29.8158  -17.6921   24.4062 C   0  0  0  0  0  0  0  0  0  0  0  0
  -28.6772  -12.8792   20.7458 C   0  0  0  0  0  0  0  0  0  0  0  0
  -21.7377  -25.3195   22.9727 C   0  0  1  0  0  0  0  0  0  0  0  0
  -19.7836  -22.0864   22.5700 C   0  0  1  0  0  0  0  0  0  0  0  0
  -27.6095  -13.3417   19.7396 C   0  0  2  0  0  0  0  0  0  0  0  0
  -30.5819  -15.7295   24.2630 C   0  0  2  0  0  0  0  0  0  0  0  0
  -26.3245  -12.7441   24.5369 C   0  0  0  0  0  0  0  0  0  0  0  0
  -15.1601  -16.6493   25.5808 C   0  0  0  0  0  0  0  0  0  0  0  0
  -18.9170  -21.8869   27.1054 C   0  0  0  0  0  0  0  0  0  0  0  0
  -17.5977  -19.8993   27.8650 C   0  0  0  0  0  0  0  0  0  0  0  0
  -16.4657  -21.7475   26.6299 C   0  0  0  0  0  0  0  0  0  0  0  0
  -16.8348  -16.5703   22.1653 C   0  0  0  0  0  0  0  0  0  0  0  0
  -24.5583  -17.2002   23.8582 C   0  0  0  0  0  0  0  0  0  1  0  0
  -31.3667  -15.4020   23.0046 C   0  0  0  0  0  0  0  0  0  0  0  0
  -18.0165  -20.1896   25.3808 C   0  0  1  0  0  0  0  0  0  0  0  0
  -15.8649  -17.2375   24.3683 C   0  0  2  0  0  0  0  0  0  0  0  0
  -17.7708  -20.9277   26.7270 C   0  0  0  0  0  0  0  0  0  0  0  0
  -25.8927  -11.6706   20.3248 N   0  0  0  0  0  0  0  0  0  0  0  0
  -25.4833  -14.9817   24.1966 N   0  0  0  0  0  0  0  0  0  0  0  0
  -27.8596  -14.5901   24.2800 N   0  0  0  0  0  0  0  0  0  0  0  0
  -26.2073  -12.9697   20.1846 N   0  0  0  0  0  0  0  0  0  0  0  0
  -29.3703  -16.4131   24.0255 N   0  0  1  0  0  0  0  0  0  0  0  0
  -19.4469  -21.0601   23.5587 N   0  0  0  0  0  0  0  0  0  0  0  0
  -30.0172  -13.2620   20.2738 N   0  0  0  0  0  0  0  0  0  0  0  0
  -25.3253  -15.1589   20.3847 N   0  0  0  0  0  0  0  0  0  0  0  0
  -21.8460  -12.5238   21.5452 N   0  0  0  0  0  0  0  0  0  0  0  0
  -20.9507  -24.2052   22.4895 N   0  0  0  0  0  0  0  0  0  0  0  0
  -16.9347  -19.2949   24.9838 N   0  0  0  0  0  0  0  0  0  0  0  0
  -30.5270  -14.5542   22.1879 N   0  0  0  0  0  0  0  0  0  0  0  0
  -16.1619  -16.1312   23.4148 N   0  3  0  0  0  0  0  0  0  0  0  0
  -22.5188  -14.6959   21.2483 O   0  0  0  0  0  0  0  0  0  0  0  0
  -20.9035  -22.9596   24.4564 O   0  0  0  0  0  0  0  0  0  0  0  0
  -17.3169  -21.9321   23.9313 O   0  0  0  0  0  0  0  0  0  0  0  0
  -18.2236  -17.3704   24.8743 O   0  0  0  0  0  0  0  0  0  0  0  0
  -32.0591  -14.3386   20.4959 O   0  0  0  0  0  0  0  0  0  0  0  0
  -21.8500   -6.9560   21.7309 O   0  0  0  0  0  0  0  0  0  0  0  0
  -24.6179  -17.8407   22.5844 O   0  0  0  0  0  0  0  0  0  1  0  0
  -18.7795   -6.7113   26.3044 F   0  0  0  0  0  0  0  0  0  0  0  0
  -22.3592   -5.0644   23.6816 F   0  0  0  0  0  0  0  0  0  0  0  0
  1  2  1  0  0  0  0
  1  5  2  0  0  0  0
  2  6  2  0  0  0  0
  3  8  2  0  0  0  0
  3 16  1  0  0  0  0
  4  9  1  0  0  0  0
  4 16  2  0  0  0  0
  5 18  1  0  0  0  0
  6 20  1  0  0  0  0
  7 10  2  0  0  0  0
  7 19  1  0  0  0  0
  8 22  1  0  0  0  0
  9 22  2  0  0  0  0
 10 23  1  0  0  0  0
 11 12  2  0  0  0  0
 11 24  1  0  0  0  0
 12 25  1  0  0  0  0
 13 21  1  0  0  0  0
 13 23  2  0  0  0  0
 14 25  2  0  0  0  0
 14 26  1  0  0  0  0
 15 28  1  0  0  0  0
 15 29  2  0  0  0  0
 16 27  1  0  0  0  0
 17 27  1  0  0  0  0
 17 30  2  0  0  0  0
 17 32  1  0  0  0  0
 18 20  2  0  0  0  0
 18 37  1  0  0  0  0
 19 21  2  0  0  0  0
 19 38  1  0  0  0  0
 20 48  1  0  0  0  0
 21 39  1  0  0  0  0
 22 81  1  0  0  0  0
 23 82  1  0  0  0  0
 24 26  2  0  0  0  0
 24 81  1  0  0  0  0
 25 83  1  0  0  0  0
 26 84  1  0  0  0  0
 27 63  2  0  0  0  0
 28 58  1  0  0  0  0
 28 64  2  0  0  0  0
 29 65  1  0  0  0  0
 29 67  1  0  0  0  0
 30 66  1  0  0  0  0
 30 70  1  0  0  0  0
 31 52  1  0  0  0  0
 31 64  1  0  0  0  0
 31 65  2  0  0  0  0
 32 71  1  0  0  0  0
 32 76  2  0  0  0  0
 33 49  1  0  0  0  0
 33 72  1  0  0  0  0
 33 77  2  0  0  0  0
 34 60  1  0  0  0  0
 34 68  1  0  0  0  0
 34 78  2  0  0  0  0
 35 61  1  0  0  0  0
 35 73  1  0  0  0  0
 35 79  2  0  0  0  0
 36 69  1  0  0  0  0
 36 74  1  0  0  0  0
 36 80  2  0  0  0  0
 37 40  1  0  0  0  0
 38 49  1  0  0  0  0
 39 68  1  0  0  0  0
 40 42  1  0  0  0  0
 41 43  1  0  0  0  0
 41 45  1  0  0  0  0
 42 48  1  0  0  0  0
 43 50  1  0  0  0  0
 44 46  1  0  0  0  0
 44 51  1  0  0  0  0
 45 69  1  0  0  0  0
 46 67  1  0  0  0  0
 47 50  1  0  0  0  0
 47 69  1  0  0  0  0
 48 72  1  0  0  0  0
 49 68  1  0  0  0  0
 50 66  1  0  0  0  0
 51 59  1  0  0  0  0
 51 67  1  0  0  0  0
 53 61  1  0  0  0  0
 54 62  1  0  0  0  0
 55 62  1  0  0  0  0
 56 62  1  0  0  0  0
 57 75  1  0  0  0  0
 58 82  1  0  0  0  0
 59 74  1  0  0  0  0
 60 62  1  0  0  0  0
 60 73  1  0  0  0  0
 61 75  1  0  0  0  0
 63 66  1  0  0  0  0
M  CHG  1  75   1
M  ISO  4  36 100  58 101  74 100  82 101
M  END
> <Batch ID>
0187

> <Smiles>
CNC(C)C(=O)NC(C(=O)N1Cc2cc([101O:1][101CH2:1]c3cc(N4CCC4C[100NH:0][100C:0](=O)N4CCCC(n5nc(-c6ccc(Oc7ccc(F)cc7F)cc6)c(C(N)=O)c5N)C4)nc(C)n3)ccc2CC1C(=O)NC1CCCc2ccccc21)C(C)(C)C

> <Shape>
0.190

> <Color>
0.181

> <Negative vol penalty>
0.000

$$$$

  -OEChem-04052323173D

 84 93  0     1  0  0  0  0  0999 V2000
  -28.5394  -35.4685   23.4762 C   0  0  0  0  0  0  0  0  0  0  0  0
  -28.6102  -34.0792   23.4981 C   0  0  0  0  0  0  0  0  0  0  0  0
  -24.5881  -10.4009   23.3158 C   0  0  0  0  0  0  0  0  0  0  0  0
  -24.2492   -9.1414   21.2821 C   0  0  0  0  0  0  0  0  0  0  0  0
  -27.2983  -36.1027   23.5125 C   0  0  0  0  0  0  0  0  0  0  0  0
  -27.4399  -33.3235   23.5574 C   0  0  0  0  0  0  0  0  0  0  0  0
  -27.4827  -29.4198   20.3318 C   0  0  0  0  0  0  0  0  0  0  0  0
  -23.5365   -9.7107   23.9186 C   0  0  0  0  0  0  0  0  0  0  0  0
  -23.1976   -8.4511   21.8849 C   0  0  0  0  0  0  0  0  0  0  0  0
  -28.2190  -28.2954   20.7027 C   0  0  0  0  0  0  0  0  0  0  0  0
  -22.8225   -5.8930   24.0611 C   0  0  0  0  0  0  0  0  0  0  0  0
  -22.7739   -4.5098   23.8884 C   0  0  0  0  0  0  0  0  0  0  0  0
  -26.1872  -27.2071   21.4144 C   0  0  0  0  0  0  0  0  0  0  0  0
  -20.6108   -4.7176   22.8325 C   0  0  0  0  0  0  0  0  0  0  0  0
  -29.2043  -23.9728   20.9979 C   0  0  0  0  0  0  0  0  0  0  0  0
  -24.9444  -10.1164   21.9976 C   0  0  0  0  0  0  0  0  0  0  0  0
  -27.3914  -10.4704   21.3695 C   0  0  0  0  0  0  0  0  0  0  0  0
  -26.1118  -35.3542   23.5626 C   0  0  0  0  0  0  0  0  0  0  0  0
  -26.0921  -29.4504   20.5099 C   0  0  0  0  0  0  0  0  0  0  0  0
  -26.1818  -33.9483   23.5958 C   0  0  0  0  0  0  0  0  0  0  0  0
  -25.4352  -28.3320   21.0427 C   0  0  0  0  0  0  0  0  0  0  0  0
  -22.8413   -8.7357   23.2031 C   0  0  0  0  0  0  0  0  0  0  0  0
  -27.5716  -27.1900   21.2467 C   0  0  0  0  0  0  0  0  0  0  0  0
  -21.7652   -6.6886   23.6196 C   0  0  0  0  0  0  0  0  0  0  0  0
  -21.6681   -3.9220   23.2741 C   0  0  0  0  0  0  0  0  0  0  0  0
  -20.6594   -6.1009   23.0052 C   0  0  0  0  0  0  0  0  0  0  0  0
  -26.0302  -10.8295   21.3742 C   0  0  0  0  0  0  0  0  0  0  0  0
  -29.3461  -23.0407   19.9902 C   0  0  0  0  0  0  0  0  0  0  0  0
  -28.4848  -25.1032   20.6687 C   0  0  0  0  0  0  0  0  0  1  0  0
  -28.0065  -11.4654   20.6498 C   0  0  0  0  0  0  0  0  0  0  0  0
  -28.1485  -24.3351   18.5559 C   0  0  0  0  0  0  0  0  0  0  0  0
  -28.0416   -9.3385   21.9626 C   0  0  0  0  0  0  0  0  0  0  0  0
  -24.0870  -31.2394   22.2079 C   0  0  0  0  0  0  0  0  0  0  0  0
  -21.8330  -29.5417   20.6080 C   0  0  0  0  0  0  0  0  0  0  0  0
  -21.0080  -26.6938   18.9181 C   0  0  0  0  0  0  0  0  0  0  0  0
  -28.8682  -16.6095   19.3783 C   0  0  0  0  0  0  0  0  0  0  0  0
  -24.7954  -36.0852   23.6481 C   0  0  0  0  0  0  0  0  0  0  0  0
  -25.3090  -30.6606   20.0800 C   0  0  0  0  0  0  0  0  0  0  0  0
  -23.9417  -28.3068   21.2356 C   0  0  0  0  0  0  0  0  0  0  0  0
  -23.5886  -35.2054   23.3321 C   0  0  0  0  0  0  0  0  0  0  0  0
  -26.0716  -15.1700   17.8129 C   0  0  0  0  0  0  0  0  0  0  0  0
  -23.6891  -33.8754   24.0721 C   0  0  0  0  0  0  0  0  0  0  0  0
  -25.9157  -13.8720   18.6045 C   0  0  0  0  0  0  0  0  0  0  0  0
  -26.4356  -16.3512   18.7142 C   0  0  0  0  0  0  0  0  0  0  0  0
  -27.8517  -18.9130   19.0864 C   0  0  0  0  0  0  0  0  0  0  0  0
  -30.1680  -18.4585   18.3679 C   0  0  0  0  0  0  0  0  0  0  0  0
  -27.4679  -14.8154   20.3558 C   0  0  0  0  0  0  0  0  0  0  0  0
  -28.3428  -20.0398   19.9895 C   0  0  0  0  0  0  0  0  0  0  0  0
  -30.6955  -19.5576   19.2758 C   0  0  0  0  0  0  0  0  0  0  0  0
  -24.9337  -33.0935   23.6349 C   0  0  1  0  0  0  0  0  0  0  0  0
  -23.9602  -30.7801   20.7828 C   0  0  1  0  0  0  0  0  0  0  0  0
  -27.1597  -13.5994   19.4686 C   0  0  1  0  0  0  0  0  0  0  0  0
  -27.5603  -24.5363   17.2007 C   0  0  0  0  0  0  0  0  0  0  0  0
  -19.0806  -25.5774   17.7622 C   0  0  0  0  0  0  0  0  0  0  0  0
  -20.6173  -28.8407   23.3174 C   0  0  0  0  0  0  0  0  0  0  0  0
  -19.3313  -27.0126   22.1892 C   0  0  0  0  0  0  0  0  0  0  0  0
  -18.9497  -29.3898   21.5364 C   0  0  0  0  0  0  0  0  0  0  0  0
  -22.4416  -26.6392   16.3295 C   0  0  0  0  0  0  0  0  0  0  0  0
  -30.1128  -21.7783   20.2536 C   0  0  0  0  0  0  0  0  0  0  0  0
  -21.0977  -28.2458   20.8513 C   0  0  1  0  0  0  0  0  0  0  0  0
  -20.2946  -26.4782   17.5956 C   0  0  2  0  0  0  0  0  0  0  0  0
  -20.0274  -28.3731   21.9719 C   0  0  0  0  0  0  0  0  0  0  0  0
  -25.7939  -11.9641   20.7103 N   0  0  0  0  0  0  0  0  0  0  0  0
  -28.8294  -23.1900   18.7528 N   0  0  0  0  0  0  0  0  0  0  0  0
  -27.9407  -25.3178   19.4528 N   0  0  0  0  0  0  0  0  0  0  0  0
  -27.0150  -12.3267   20.2818 N   0  0  0  0  0  0  0  0  0  0  0  0
  -23.2208  -29.5164   20.8057 N   0  0  0  0  0  0  0  0  0  0  0  0
  -27.6021  -16.0297   19.5482 N   0  0  0  0  0  0  0  0  0  0  0  0
  -28.9073  -17.9162   18.8697 N   0  0  0  0  0  0  0  0  0  0  0  0
  -29.2934  -11.6790   20.3022 N   0  0  0  0  0  0  0  0  0  0  0  0
  -27.2603   -8.4125   22.6672 N   0  0  0  0  0  0  0  0  0  0  0  0
  -24.7101  -32.4645   22.3508 N   0  0  0  0  0  0  0  0  0  0  0  0
  -20.5633  -27.8308   19.5589 N   0  0  0  0  0  0  0  0  0  0  0  0
  -29.6264  -20.6128   19.4384 N   0  3  0  0  0  0  0  0  0  0  0  0
  -21.2150  -25.8483   16.6071 N   0  3  0  0  0  0  0  0  0  0  0  0
  -29.2812   -9.1625   21.8845 O   0  0  0  0  0  0  0  0  0  0  0  0
  -23.6504  -30.5352   23.1107 O   0  0  0  0  0  0  0  0  0  0  0  0
  -21.2002  -30.5377   20.2487 O   0  0  0  0  0  0  0  0  0  0  0  0
  -21.8708  -25.9280   19.3421 O   0  0  0  0  0  0  0  0  0  0  0  0
  -29.9036  -15.9955   19.6651 O   0  0  0  0  0  0  0  0  0  0  0  0
  -21.8152   -8.0618   23.7910 O   0  0  0  0  0  0  0  0  0  0  0  0
  -28.2985  -26.0754   21.6155 O   0  0  0  0  0  0  0  0  0  1  0  0
  -21.6223   -2.5938   23.1069 F   0  0  0  0  0  0  0  0  0  0  0  0
  -19.6411   -6.8601   22.5779 F   0  0  0  0  0  0  0  0  0  0  0  0
  1  2  1  0  0  0  0
  1  5  2  0  0  0  0
  2  6  2  0  0  0  0
  3  8  2  0  0  0  0
  3 16  1  0  0  0  0
  4  9  1  0  0  0  0
  4 16  2  0  0  0  0
  5 18  1  0  0  0  0
  6 20  1  0  0  0  0
  7 10  2  0  0  0  0
  7 19  1  0  0  0  0
  8 22  1  0  0  0  0
  9 22  2  0  0  0  0
 10 23  1  0  0  0  0
 11 12  2  0  0  0  0
 11 24  1  0  0  0  0
 12 25  1  0  0  0  0
 13 21  1  0  0  0  0
 13 23  2  0  0  0  0
 14 25  2  0  0  0  0
 14 26  1  0  0  0  0
 15 28  2  0  0  0  0
 15 29  1  0  0  0  0
 16 27  1  0  0  0  0
 17 27  1  0  0  0  0
 17 30  2  0  0  0  0
 17 32  1  0  0  0  0
 18 20  2  0  0  0  0
 18 37  1  0  0  0  0
 19 21  2  0  0  0  0
 19 38  1  0  0  0  0
 20 50  1  0  0  0  0
 21 39  1  0  0  0  0
 22 81  1  0  0  0  0
 23 82  1  0  0  0  0
 24 26  2  0  0  0  0
 24 81  1  0  0  0  0
 25 83  1  0  0  0  0
 26 84  1  0  0  0  0
 27 63  2  0  0  0  0
 28 59  1  0  0  0  0
 28 64  1  0  0  0  0
 29 65  2  0  0  0  0
 29 82  1  0  0  0  0
 30 66  1  0  0  0  0
 30 70  1  0  0  0  0
 31 53  1  0  0  0  0
 31 64  2  0  0  0  0
 31 65  1  0  0  0  0
 32 71  1  0  0  0  0
 32 76  2  0  0  0  0
 33 51  1  0  0  0  0
 33 72  1  0  0  0  0
 33 77  2  0  0  0  0
 34 60  1  0  0  0  0
 34 67  1  0  0  0  0
 34 78  2  0  0  0  0
 35 61  1  0  0  0  0
 35 73  1  0  0  0  0
 35 79  2  0  0  0  0
 36 68  1  0  0  0  0
 36 69  1  0  0  0  0
 36 80  2  0  0  0  0
 37 40  1  0  0  0  0
 38 51  1  0  0  0  0
 39 67  1  0  0  0  0
 40 42  1  0  0  0  0
 41 43  1  0  0  0  0
 41 44  1  0  0  0  0
 42 50  1  0  0  0  0
 43 52  1  0  0  0  0
 44 68  1  0  0  0  0
 45 48  1  0  0  0  0
 45 69  1  0  0  0  0
 46 49  1  0  0  0  0
 46 69  1  0  0  0  0
 47 52  1  0  0  0  0
 47 68  1  0  0  0  0
 48 74  1  0  0  0  0
 49 74  1  0  0  0  0
 50 72  1  0  0  0  0
 51 67  1  0  0  0  0
 52 66  1  0  0  0  0
 54 61  1  0  0  0  0
 55 62  1  0  0  0  0
 56 62  1  0  0  0  0
 57 62  1  0  0  0  0
 58 75  1  0  0  0  0
 59 74  1  0  0  0  0
 60 62  1  0  0  0  0
 60 73  1  0  0  0  0
 61 75  1  0  0  0  0
 63 66  1  0  0  0  0
M  CHG  2  74   1  75   1
M  ISO  4  29 101  36 100  69 100  82 101
M  END
> <Batch ID>
0187

> <Smiles>
CNC(C)C(=O)NC(C(=O)N1Cc2cc([101O:1][101c:1]3cc(CN4CC[100N:0]([100C:0](=O)N5CCCC(n6nc(-c7ccc(Oc8ccc(F)cc8F)cc7)c(C(N)=O)c6N)C5)CC4)nc(C)n3)ccc2CC1C(=O)NC1CCCc2ccccc21)C(C)(C)C

> <Shape>
0.317

> <Color>
0.076

> <Negative vol penalty>
0.000

$$$$

  -OEChem-04052323173D

 87 96  0     1  0  0  0  0  0999 V2000
  -29.0414  -32.6430   26.0125 C   0  0  0  0  0  0  0  0  0  0  0  0
  -28.9217  -31.4666   25.2796 C   0  0  0  0  0  0  0  0  0  0  0  0
  -23.1048  -10.5317   21.5787 C   0  0  0  0  0  0  0  0  0  0  0  0
  -24.4699   -8.6240   21.0006 C   0  0  0  0  0  0  0  0  0  0  0  0
  -27.9000  -33.2799   26.4978 C   0  0  0  0  0  0  0  0  0  0  0  0
  -27.6604  -30.9258   25.0324 C   0  0  0  0  0  0  0  0  0  0  0  0
  -27.0983  -29.4230   20.2292 C   0  0  0  0  0  0  0  0  0  0  0  0
  -21.9559   -9.8022   21.2730 C   0  0  0  0  0  0  0  0  0  0  0  0
  -23.3210   -7.8944   20.6950 C   0  0  0  0  0  0  0  0  0  0  0  0
  -27.6815  -28.2088   19.8695 C   0  0  0  0  0  0  0  0  0  0  0  0
  -20.7301   -5.4125   20.1071 C   0  0  0  0  0  0  0  0  0  0  0  0
  -20.6473   -4.1031   20.5806 C   0  0  0  0  0  0  0  0  0  0  0  0
  -25.5356  -27.1253   20.0712 C   0  0  0  0  0  0  0  0  0  0  0  0
  -20.8275   -4.9126   22.8499 C   0  0  0  0  0  0  0  0  0  0  0  0
  -24.3619   -9.9426   21.4424 C   0  0  0  0  0  0  0  0  0  0  0  0
  -26.1961  -10.7805   23.0048 C   0  0  0  0  0  0  0  0  0  0  0  0
  -26.6235  -32.7517   26.2482 C   0  0  0  0  0  0  0  0  0  0  0  0
  -25.7292  -29.4955   20.5237 C   0  0  0  0  0  0  0  0  0  0  0  0
  -26.5009  -31.5554   25.5159 C   0  0  0  0  0  0  0  0  0  0  0  0
  -24.9370  -28.3421   20.4319 C   0  0  0  0  0  0  0  0  0  0  0  0
  -29.4391  -23.5096   19.7107 C   0  0  0  0  0  0  0  0  0  0  0  0
  -22.0640   -8.4836   20.8312 C   0  0  0  0  0  0  0  0  0  0  0  0
  -26.9007  -27.0592   19.7933 C   0  0  0  0  0  0  0  0  0  0  0  0
  -20.8617   -6.4719   21.0049 C   0  0  0  0  0  0  0  0  0  0  0  0
  -20.6959   -3.8532   21.9521 C   0  0  0  0  0  0  0  0  0  0  0  0
  -20.9104   -6.2219   22.3763 C   0  0  0  0  0  0  0  0  0  0  0  0
  -25.5491  -10.6958   21.7574 C   0  0  0  0  0  0  0  0  0  0  0  0
  -29.3030  -24.5058   18.7654 C   0  0  0  0  0  0  0  0  0  0  0  0
  -29.8475  -22.2822   19.2299 C   0  0  0  0  0  0  0  0  0  0  0  0
  -27.2657  -11.6126   22.7810 C   0  0  0  0  0  0  0  0  0  0  0  0
  -29.9367  -23.0873   17.1060 C   0  0  0  0  0  0  0  0  0  0  0  0
  -25.8603  -10.1623   24.2541 C   0  0  0  0  0  0  0  0  0  0  0  0
  -24.0253  -30.2699   23.0929 C   0  0  0  0  0  0  0  0  0  0  0  0
  -21.5258  -29.9582   21.0488 C   0  0  0  0  0  0  0  0  0  0  0  0
  -20.2822  -28.5899   18.1804 C   0  0  0  0  0  0  0  0  0  0  0  0
  -29.5384  -16.0383   20.7676 C   0  0  0  0  0  0  0  0  0  0  0  0
  -25.4218  -33.4502   26.8336 C   0  0  0  0  0  0  0  0  0  0  0  0
  -25.1101  -30.8181   20.8841 C   0  0  0  0  0  0  0  0  0  0  0  0
  -23.4586  -28.3706   20.7184 C   0  0  0  0  0  0  0  0  0  0  0  0
  -24.0992  -33.0139   26.2084 C   0  0  0  0  0  0  0  0  0  0  0  0
  -29.2218  -13.3951   18.4780 C   0  0  0  0  0  0  0  0  0  0  0  0
  -24.0326  -31.4933   26.1070 C   0  0  0  0  0  0  0  0  0  0  0  0
  -28.2819  -12.4532   19.2301 C   0  0  0  0  0  0  0  0  0  0  0  0
  -29.2404  -19.1505   19.1509 C   0  0  0  0  0  0  0  0  0  0  0  0
  -30.9870  -19.1792   20.9720 C   0  0  0  0  0  0  0  0  0  0  0  0
  -28.8165  -14.8610   18.6425 C   0  0  0  0  0  0  0  0  0  0  0  0
  -29.6040  -17.6938   18.8488 C   0  0  0  0  0  0  0  0  0  0  0  0
  -31.3343  -17.7363   20.6162 C   0  0  0  0  0  0  0  0  0  0  0  0
  -27.7297  -14.3464   20.8041 C   0  0  0  0  0  0  0  0  0  0  0  0
  -25.1486  -30.9511   25.2059 C   0  0  1  0  0  0  0  0  0  0  0  0
  -23.8060  -30.6750   21.6627 C   0  0  1  0  0  0  0  0  0  0  0  0
  -28.1458  -12.8706   20.7052 C   0  0  1  0  0  0  0  0  0  0  0  0
  -30.4238  -19.9126   19.7519 C   0  0  0  0  0  0  0  0  0  0  0  0
  -30.2131  -22.8529   15.6597 C   0  0  0  0  0  0  0  0  0  0  0  0
  -27.8126  -23.1849   21.5910 C   0  0  0  0  0  0  0  0  0  0  0  0
  -18.1954  -28.4875   16.7903 C   0  0  0  0  0  0  0  0  0  0  0  0
  -20.2845  -28.0272   23.0589 C   0  0  0  0  0  0  0  0  0  0  0  0
  -18.7361  -27.2506   21.2512 C   0  0  0  0  0  0  0  0  0  0  0  0
  -18.6697  -29.6250   22.0131 C   0  0  0  0  0  0  0  0  0  0  0  0
  -21.6384  -29.8033   15.8465 C   0  0  0  0  0  0  0  0  0  0  0  0
  -29.1610  -23.7534   21.1528 C   0  0  0  0  0  0  0  0  0  0  0  0
  -28.8666  -25.8763   19.1671 C   0  0  0  0  0  0  0  0  0  1  0  0
  -20.6255  -28.8225   20.6263 C   0  0  1  0  0  0  0  0  0  0  0  0
  -19.5174  -29.2029   17.0211 C   0  0  2  0  0  0  0  0  0  0  0  0
  -19.6072  -28.4301   21.7338 C   0  0  0  0  0  0  0  0  0  0  0  0
  -26.1568  -11.4167   20.8113 N   0  0  0  0  0  0  0  0  0  0  0  0
  -29.5444  -24.3288   17.4498 N   0  0  0  0  0  0  0  0  0  0  0  0
  -30.1059  -22.0349   17.9290 N   0  0  0  0  0  0  0  0  0  0  0  0
  -27.1968  -11.9624   21.4645 N   0  0  0  0  0  0  0  0  0  0  0  0
  -22.9011  -29.6863   21.0728 N   0  0  0  0  0  0  0  0  0  0  0  0
  -28.6599  -15.2012   20.0635 N   0  0  0  0  0  0  0  0  0  0  0  0
  -30.1833  -17.0453   20.0340 N   0  0  0  0  0  0  0  0  0  0  0  0
  -28.2489  -12.0720   23.5839 N   0  0  0  0  0  0  0  0  0  0  0  0
  -24.7288   -9.3370   24.3083 N   0  0  0  0  0  0  0  0  0  0  0  0
  -30.0019  -21.2432   20.1304 N   0  0  0  0  0  0  0  0  0  0  0  0
  -24.8132  -31.1482   23.8119 N   0  0  0  0  0  0  0  0  0  0  0  0
  -20.0113  -29.2347   19.3688 N   0  0  0  0  0  0  0  0  0  0  0  0
  -20.3213  -29.1204   15.7690 N   0  3  0  0  0  0  0  0  0  0  0  0
  -26.5341  -10.3495   25.2954 O   0  0  0  0  0  0  0  0  0  0  0  0
  -23.5160  -29.2376   23.5133 O   0  0  0  0  0  0  0  0  0  0  0  0
  -21.0278  -31.0486   21.3398 O   0  0  0  0  0  0  0  0  0  0  0  0
  -21.0409  -27.6324   18.0459 O   0  0  0  0  0  0  0  0  0  0  0  0
  -29.7351  -15.8948   21.9808 O   0  0  0  0  0  0  0  0  0  0  0  0
  -20.9430   -7.7714   20.5332 O   0  0  0  0  0  0  0  0  0  0  0  0
  -27.4716  -25.8642   19.4406 O   0  0  0  0  0  0  0  0  0  1  0  0
  -20.6148   -2.5959   22.4068 F   0  0  0  0  0  0  0  0  0  0  0  0
  -21.0355   -7.2357   23.2437 F   0  0  0  0  0  0  0  0  0  0  0  0
  1  2  1  0  0  0  0
  1  5  2  0  0  0  0
  2  6  2  0  0  0  0
  3  8  2  0  0  0  0
  3 15  1  0  0  0  0
  4  9  1  0  0  0  0
  4 15  2  0  0  0  0
  5 17  1  0  0  0  0
  6 19  1  0  0  0  0
  7 10  2  0  0  0  0
  7 18  1  0  0  0  0
  8 22  1  0  0  0  0
  9 22  2  0  0  0  0
 10 23  1  0  0  0  0
 11 12  2  0  0  0  0
 11 24  1  0  0  0  0
 12 25  1  0  0  0  0
 13 20  1  0  0  0  0
 13 23  2  0  0  0  0
 14 25  2  0  0  0  0
 14 26  1  0  0  0  0
 15 27  1  0  0  0  0
 16 27  1  0  0  0  0
 16 30  2  0  0  0  0
 16 32  1  0  0  0  0
 17 19  2  0  0  0  0
 17 37  1  0  0  0  0
 18 20  2  0  0  0  0
 18 38  1  0  0  0  0
 19 50  1  0  0  0  0
 20 39  1  0  0  0  0
 21 28  2  0  0  0  0
 21 29  1  0  0  0  0
 21 61  1  0  0  0  0
 22 84  1  0  0  0  0
 23 85  1  0  0  0  0
 24 26  2  0  0  0  0
 24 84  1  0  0  0  0
 25 86  1  0  0  0  0
 26 87  1  0  0  0  0
 27 66  2  0  0  0  0
 28 62  1  0  0  0  0
 28 67  1  0  0  0  0
 29 68  2  0  0  0  0
 29 75  1  0  0  0  0
 30 69  1  0  0  0  0
 30 73  1  0  0  0  0
 31 54  1  0  0  0  0
 31 67  2  0  0  0  0
 31 68  1  0  0  0  0
 32 74  1  0  0  0  0
 32 79  2  0  0  0  0
 33 51  1  0  0  0  0
 33 76  1  0  0  0  0
 33 80  2  0  0  0  0
 34 63  1  0  0  0  0
 34 70  1  0  0  0  0
 34 81  2  0  0  0  0
 35 64  1  0  0  0  0
 35 77  1  0  0  0  0
 35 82  2  0  0  0  0
 36 71  1  0  0  0  0
 36 72  1  0  0  0  0
 36 83  2  0  0  0  0
 37 40  1  0  0  0  0
 38 51  1  0  0  0  0
 39 70  1  0  0  0  0
 40 42  1  0  0  0  0
 41 43  1  0  0  0  0
 41 46  1  0  0  0  0
 42 50  1  0  0  0  0
 43 52  1  0  0  0  0
 44 47  1  0  0  0  0
 44 53  1  0  0  0  0
 45 48  1  0  0  0  0
 45 53  1  0  0  0  0
 46 71  1  0  0  0  0
 47 72  1  0  0  0  0
 48 72  1  0  0  0  0
 49 52  1  0  0  0  0
 49 71  1  0  0  0  0
 50 76  1  0  0  0  0
 51 70  1  0  0  0  0
 52 69  1  0  0  0  0
 53 75  1  0  0  0  0
 55 61  1  0  0  0  0
 56 64  1  0  0  0  0
 57 65  1  0  0  0  0
 58 65  1  0  0  0  0
 59 65  1  0  0  0  0
 60 78  1  0  0  0  0
 62 85  1  0  0  0  0
 63 65  1  0  0  0  0
 63 77  1  0  0  0  0
 64 78  1  0  0  0  0
 66 69  1  0  0  0  0
M  CHG  1  78   1
M  ISO  4  36 100  62 101  72 100  85 101
M  END
> <Batch ID>
0187

> <Smiles>
CCc1c(NC2CC[100N:0]([100C:0](=O)N3CCCC(n4nc(-c5ccc(Oc6ccc(F)cc6F)cc5)c(C(N)=O)c4N)C3)CC2)nc(C)nc1[101CH2:1][101O:1]c1ccc2c(c1)CN(C(=O)C(NC(=O)C(C)NC)C(C)(C)C)C(C(=O)NC1CCCc3ccccc31)C2

> <Shape>
0.353

> <Color>
0.089

> <Negative vol penalty>
0.000

$$$$

  -OEChem-04052323173D

 85 94  0     1  0  0  0  0  0999 V2000
  -18.1835  -29.3937   25.9362 C   0  0  0  0  0  0  0  0  0  0  0  0
  -19.5618  -29.5040   26.0891 C   0  0  0  0  0  0  0  0  0  0  0  0
  -23.6154  -12.7429   19.0337 C   0  0  0  0  0  0  0  0  0  0  0  0
  -24.4929  -11.5724   20.9564 C   0  0  0  0  0  0  0  0  0  0  0  0
  -17.6559  -28.7909   24.7950 C   0  0  0  0  0  0  0  0  0  0  0  0
  -20.4135  -29.0106   25.1012 C   0  0  0  0  0  0  0  0  0  0  0  0
  -25.7991  -31.3597   23.3742 C   0  0  0  0  0  0  0  0  0  0  0  0
  -23.2179  -11.5281   18.4754 C   0  0  0  0  0  0  0  0  0  0  0  0
  -24.0953  -10.3575   20.3982 C   0  0  0  0  0  0  0  0  0  0  0  0
  -27.1139  -31.0316   23.7018 C   0  0  0  0  0  0  0  0  0  0  0  0
  -21.2354   -8.5880   20.0660 C   0  0  0  0  0  0  0  0  0  0  0  0
  -20.5925   -7.6730   20.8997 C   0  0  0  0  0  0  0  0  0  0  0  0
  -27.2682  -29.6837   21.7072 C   0  0  0  0  0  0  0  0  0  0  0  0
  -22.3435   -6.0618   20.4816 C   0  0  0  0  0  0  0  0  0  0  0  0
  -24.2530  -12.7651   20.2742 C   0  0  0  0  0  0  0  0  0  0  0  0
  -23.9117  -14.8518   21.7014 C   0  0  0  0  0  0  0  0  0  0  0  0
  -18.5012  -28.2986   23.7882 C   0  0  0  0  0  0  0  0  0  0  0  0
  -25.2043  -30.8427   22.2143 C   0  0  0  0  0  0  0  0  0  0  0  0
  -19.8967  -28.3996   23.9461 C   0  0  0  0  0  0  0  0  0  0  0  0
  -25.9465  -30.0089   21.3657 C   0  0  0  0  0  0  0  0  0  0  0  0
  -23.4579  -10.3353   19.1577 C   0  0  0  0  0  0  0  0  0  0  0  0
  -27.8477  -30.1911   22.8698 C   0  0  0  0  0  0  0  0  0  0  0  0
  -22.4324   -8.2399   19.4401 C   0  0  0  0  0  0  0  0  0  0  0  0
  -21.1465   -6.4099   21.1075 C   0  0  0  0  0  0  0  0  0  0  0  0
  -22.9865   -6.9768   19.6479 C   0  0  0  0  0  0  0  0  0  0  0  0
  -24.6644  -14.0197   20.8511 C   0  0  0  0  0  0  0  0  0  0  0  0
  -24.7432  -15.9119   21.9684 C   0  0  0  0  0  0  0  0  0  0  0  0
  -22.5801  -14.6816   22.2049 C   0  0  0  0  0  0  0  0  0  0  0  0
  -22.7103  -28.9643   21.6185 C   0  0  0  0  0  0  0  0  0  0  0  0
  -23.3981  -29.6870   18.5320 C   0  0  0  0  0  0  0  0  0  0  0  0
  -25.7172  -30.6940   16.2397 C   0  0  0  0  0  0  0  0  0  0  0  0
  -28.1577  -19.7963   20.1541 C   0  0  0  0  0  0  0  0  0  0  0  0
  -17.8855  -27.6127   22.5945 C   0  0  0  0  0  0  0  0  0  0  0  0
  -23.7939  -31.2277   21.8611 C   0  0  0  0  0  0  0  0  0  0  0  0
  -25.3608  -29.4438   20.0984 C   0  0  0  0  0  0  0  0  0  0  0  0
  -18.8482  -27.4520   21.4208 C   0  0  0  0  0  0  0  0  0  0  0  0
  -29.6533  -16.5753   21.0640 C   0  0  0  0  0  0  0  0  0  0  0  0
  -20.1946  -26.9217   21.9034 C   0  0  0  0  0  0  0  0  0  0  0  0
  -28.4197  -15.6793   21.0983 C   0  0  0  0  0  0  0  0  0  0  0  0
  -29.7676  -21.8772   18.0666 C   0  0  0  0  0  0  0  0  0  0  0  0
  -31.5067  -24.4841   21.3928 C   0  0  0  0  0  0  0  0  0  0  0  0
  -29.0034  -24.6667   21.1789 C   0  0  0  0  0  0  0  0  0  0  0  0
  -29.5510  -17.6650   19.9961 C   0  0  0  0  0  0  0  0  0  0  0  0
  -29.9462  -20.3803   18.3380 C   0  0  0  0  0  0  0  0  0  0  0  0
  -27.0756  -17.5768   20.1305 C   0  0  0  0  0  0  0  0  0  0  0  0
  -31.6027  -26.0007   21.4875 C   0  0  0  0  0  0  0  0  0  0  0  0
  -29.1123  -26.1823   21.2745 C   0  0  0  0  0  0  0  0  0  0  0  0
  -20.8525  -27.8988   22.8852 C   0  0  1  0  0  0  0  0  0  0  0  0
  -23.1198  -30.2315   20.9227 C   0  0  1  0  0  0  0  0  0  0  0  0
  -30.2753  -24.0414   20.5939 C   0  0  0  0  0  0  0  0  0  0  0  0
  -27.1455  -16.5239   21.2455 C   0  0  1  0  0  0  0  0  0  0  0  0
  -29.2152  -22.0267   19.4923 C   0  0  2  0  0  0  0  0  0  0  0  0
  -25.9927  -31.1563   13.7887 C   0  0  0  0  0  0  0  0  0  0  0  0
  -29.8885  -28.2493   24.8103 C   0  0  0  0  0  0  0  0  0  0  0  0
  -23.4706  -26.6876   17.9768 C   0  0  0  0  0  0  0  0  0  0  0  0
  -24.6550  -27.1846   15.8278 C   0  0  0  0  0  0  0  0  0  0  0  0
  -22.3460  -28.0494   16.2062 C   0  0  0  0  0  0  0  0  0  0  0  0
  -26.4202  -33.5259   16.7345 C   0  0  0  0  0  0  0  0  0  0  0  0
  -30.4191  -28.0317   22.3172 C   0  0  0  0  0  0  0  0  0  0  0  0
  -24.2791  -29.0854   17.4639 C   0  0  1  0  0  0  0  0  0  0  0  0
  -25.6641  -31.7494   15.1499 C   0  0  2  0  0  0  0  0  0  0  0  0
  -30.1668  -22.5185   20.5651 C   0  0  2  0  0  0  0  0  0  0  0  0
  -29.4216  -28.4826   23.3794 C   0  0  2  0  0  0  0  0  0  1  0  0
  -23.6984  -27.7607   16.8935 C   0  0  0  0  0  0  0  0  0  0  0  0
  -25.8804  -14.5092   20.5948 N   0  0  0  0  0  0  0  0  0  0  0  0
  -25.8982  -15.6603   21.2880 N   0  0  0  0  0  0  0  0  0  0  0  0
  -23.9760  -29.8444   19.7997 N   0  0  0  0  0  0  0  0  0  0  0  0
  -28.2866  -18.4048   20.0872 N   0  0  0  0  0  0  0  0  0  0  0  0
  -29.0970  -20.5669   19.5055 N   0  0  0  0  0  0  0  0  0  0  0  0
  -24.5917  -17.0255   22.7164 N   0  0  0  0  0  0  0  0  0  0  0  0
  -21.8661  -13.5348   21.8316 N   0  0  0  0  0  0  0  0  0  0  0  0
  -21.4448  -29.0100   22.1718 N   0  0  0  0  0  0  0  0  0  0  0  0
  -24.4796  -30.1291   16.4645 N   0  0  0  0  0  0  0  0  0  0  0  0
  -30.3304  -26.5481   22.0876 N   0  3  0  0  0  0  0  0  0  0  0  0
  -29.6675  -22.0592   21.8915 N   0  3  0  0  0  0  0  0  0  0  0  0
  -26.6400  -32.8388   15.4359 N   0  3  0  0  0  0  0  0  0  0  0  0
  -22.0334  -15.5297   22.9502 O   0  0  0  0  0  0  0  0  0  0  0  0
  -23.4844  -28.0149   21.6499 O   0  0  0  0  0  0  0  0  0  0  0  0
  -22.2420  -30.0122   18.2500 O   0  0  0  0  0  0  0  0  0  0  0  0
  -26.7537  -30.3975   16.8299 O   0  0  0  0  0  0  0  0  0  0  0  0
  -27.2162  -20.3379   20.7483 O   0  0  0  0  0  0  0  0  0  0  0  0
  -23.0699   -9.1497   18.6133 O   0  0  0  0  0  0  0  0  0  0  0  0
  -29.1385  -29.8668   23.1894 O   0  0  0  0  0  0  0  0  0  1  0  0
  -20.5298   -5.5319   21.9093 F   0  0  0  0  0  0  0  0  0  0  0  0
  -24.1368   -6.6370   19.0503 F   0  0  0  0  0  0  0  0  0  0  0  0
  1  2  1  0  0  0  0
  1  5  2  0  0  0  0
  2  6  2  0  0  0  0
  3  8  2  0  0  0  0
  3 15  1  0  0  0  0
  4  9  1  0  0  0  0
  4 15  2  0  0  0  0
  5 17  1  0  0  0  0
  6 19  1  0  0  0  0
  7 10  2  0  0  0  0
  7 18  1  0  0  0  0
  8 21  1  0  0  0  0
  9 21  2  0  0  0  0
 10 22  1  0  0  0  0
 11 12  2  0  0  0  0
 11 23  1  0  0  0  0
 12 24  1  0  0  0  0
 13 20  1  0  0  0  0
 13 22  2  0  0  0  0
 14 24  2  0  0  0  0
 14 25  1  0  0  0  0
 15 26  1  0  0  0  0
 16 26  1  0  0  0  0
 16 27  2  0  0  0  0
 16 28  1  0  0  0  0
 17 19  2  0  0  0  0
 17 33  1  0  0  0  0
 18 20  2  0  0  0  0
 18 34  1  0  0  0  0
 19 48  1  0  0  0  0
 20 35  1  0  0  0  0
 21 82  1  0  0  0  0
 22 83  1  0  0  0  0
 23 25  2  0  0  0  0
 23 82  1  0  0  0  0
 24 84  1  0  0  0  0
 25 85  1  0  0  0  0
 26 65  2  0  0  0  0
 27 66  1  0  0  0  0
 27 70  1  0  0  0  0
 28 71  1  0  0  0  0
 28 77  2  0  0  0  0
 29 49  1  0  0  0  0
 29 72  1  0  0  0  0
 29 78  2  0  0  0  0
 30 60  1  0  0  0  0
 30 67  1  0  0  0  0
 30 79  2  0  0  0  0
 31 61  1  0  0  0  0
 31 73  1  0  0  0  0
 31 80  2  0  0  0  0
 32 68  1  0  0  0  0
 32 69  1  0  0  0  0
 32 81  2  0  0  0  0
 33 36  1  0  0  0  0
 34 49  1  0  0  0  0
 35 67  1  0  0  0  0
 36 38  1  0  0  0  0
 37 39  1  0  0  0  0
 37 43  1  0  0  0  0
 38 48  1  0  0  0  0
 39 51  1  0  0  0  0
 40 44  1  0  0  0  0
 40 52  1  0  0  0  0
 41 46  1  0  0  0  0
 41 50  1  0  0  0  0
 42 47  1  0  0  0  0
 42 50  1  0  0  0  0
 43 68  1  0  0  0  0
 44 69  1  0  0  0  0
 45 51  1  0  0  0  0
 45 68  1  0  0  0  0
 46 74  1  0  0  0  0
 47 74  1  0  0  0  0
 48 72  1  0  0  0  0
 49 67  1  0  0  0  0
 50 62  1  0  0  0  0
 51 66  1  0  0  0  0
 52 62  1  0  0  0  0
 52 69  1  0  0  0  0
 53 61  1  0  0  0  0
 54 63  1  0  0  0  0
 55 64  1  0  0  0  0
 56 64  1  0  0  0  0
 57 64  1  0  0  0  0
 58 76  1  0  0  0  0
 59 63  1  0  0  0  0
 59 74  1  0  0  0  0
 60 64  1  0  0  0  0
 60 73  1  0  0  0  0
 61 76  1  0  0  0  0
 62 75  1  0  0  0  0
 63 83  1  0  0  0  0
 65 66  1  0  0  0  0
M  CHG  3  74   1  75   1  76   1
M  ISO  4  32 100  63 101  69 100  83 101
M  END
> <Batch ID>
0187

> <Smiles>
CNC(C)C(=O)NC(C(=O)N1Cc2cc([101O:1][101CH:1](C)CN3CCC(C(N)C4CC[100N:0]4[100C:0](=O)N4CCCC(n5nc(-c6ccc(Oc7ccc(F)cc7F)cc6)c(C(N)=O)c5N)C4)CC3)ccc2CC1C(=O)NC1CCCc2ccccc21)C(C)(C)C

> <Shape>
0.276

> <Color>
0.072

> <Negative vol penalty>
0.000

$$$$

  -OEChem-04052323173D

 84 92  0     1  0  0  0  0  0999 V2000
  -19.2790  -30.3602   25.5276 C   0  0  0  0  0  0  0  0  0  0  0  0
  -20.5278  -30.4954   24.9318 C   0  0  0  0  0  0  0  0  0  0  0  0
  -24.6107   -9.0565   21.6547 C   0  0  0  0  0  0  0  0  0  0  0  0
  -22.7717  -10.5946   21.3556 C   0  0  0  0  0  0  0  0  0  0  0  0
  -18.3776  -29.4156   25.0414 C   0  0  0  0  0  0  0  0  0  0  0  0
  -20.8712  -29.6943   23.8422 C   0  0  0  0  0  0  0  0  0  0  0  0
  -26.1032  -29.2403   20.7522 C   0  0  0  0  0  0  0  0  0  0  0  0
  -23.8126   -8.2622   22.4779 C   0  0  0  0  0  0  0  0  0  0  0  0
  -21.9735   -9.8003   22.1788 C   0  0  0  0  0  0  0  0  0  0  0  0
  -27.2643  -28.4702   20.8021 C   0  0  0  0  0  0  0  0  0  0  0  0
  -21.3618   -5.9630   22.1039 C   0  0  0  0  0  0  0  0  0  0  0  0
  -21.3875   -4.5839   21.8966 C   0  0  0  0  0  0  0  0  0  0  0  0
  -26.3534  -26.9990   19.1213 C   0  0  0  0  0  0  0  0  0  0  0  0
  -22.1725   -4.2584   24.1582 C   0  0  0  0  0  0  0  0  0  0  0  0
  -24.0903  -10.2227   21.0936 C   0  0  0  0  0  0  0  0  0  0  0  0
  -25.0586  -10.9450   18.8467 C   0  0  0  0  0  0  0  0  0  0  0  0
  -18.7156  -28.5944   23.9532 C   0  0  0  0  0  0  0  0  0  0  0  0
  -25.0522  -28.8887   19.8929 C   0  0  0  0  0  0  0  0  0  0  0  0
  -19.9661  -28.7517   23.3217 C   0  0  0  0  0  0  0  0  0  0  0  0
  -25.1811  -27.7677   19.0605 C   0  0  0  0  0  0  0  0  0  0  0  0
  -22.4940   -8.6341   22.7400 C   0  0  0  0  0  0  0  0  0  0  0  0
  -27.3884  -27.3477   19.9887 C   0  0  0  0  0  0  0  0  0  0  0  0
  -21.7416   -6.4898   23.3384 C   0  0  0  0  0  0  0  0  0  0  0  0
  -21.7928   -3.7316   22.9237 C   0  0  0  0  0  0  0  0  0  0  0  0
  -22.1469   -5.6375   24.3656 C   0  0  0  0  0  0  0  0  0  0  0  0
  -24.9145  -11.0439   20.2436 C   0  0  0  0  0  0  0  0  0  0  0  0
  -25.9448  -11.9426   18.5215 C   0  0  0  0  0  0  0  0  0  0  0  0
  -24.4462  -10.0328   17.9255 C   0  0  0  0  0  0  0  0  0  0  0  0
  -22.0139  -28.0450   20.2935 C   0  0  0  0  0  0  0  0  0  0  0  0
  -21.9527  -28.1896   17.0535 C   0  0  0  0  0  0  0  0  0  0  0  0
  -23.6809  -28.0495   14.1140 C   0  0  0  0  0  0  0  0  0  0  0  0
  -27.2477  -17.0607   21.1603 C   0  0  0  0  0  0  0  0  0  0  0  0
  -17.6989  -27.5940   23.4627 C   0  0  0  0  0  0  0  0  0  0  0  0
  -23.8172  -29.7451   19.8315 C   0  0  0  0  0  0  0  0  0  0  0  0
  -24.0901  -27.3592   18.1059 C   0  0  0  0  0  0  0  0  0  0  0  0
  -18.3131  -26.4964   22.5999 C   0  0  0  0  0  0  0  0  0  0  0  0
  -29.6030  -14.4399   20.3350 C   0  0  0  0  0  0  0  0  0  0  0  0
  -19.1967  -27.1130   21.5258 C   0  0  0  0  0  0  0  0  0  0  0  0
  -28.6661  -13.2568   20.0844 C   0  0  0  0  0  0  0  0  0  0  0  0
  -27.8897  -21.5961   22.4904 C   0  0  0  0  0  0  0  0  0  0  0  0
  -29.0990  -15.3109   21.4819 C   0  0  0  0  0  0  0  0  0  0  0  0
  -26.7682  -14.6312   21.0585 C   0  0  0  0  0  0  0  0  0  0  0  0
  -20.3731  -27.8703   22.1547 C   0  0  1  0  0  0  0  0  0  0  0  0
  -22.5998  -29.0003   19.2926 C   0  0  1  0  0  0  0  0  0  0  0  0
  -28.5335  -21.7338   21.0990 C   0  0  2  0  0  0  0  0  0  0  0  0
  -27.2109  -13.7247   19.8956 C   0  0  2  0  0  0  0  0  0  0  0  0
  -27.8788  -19.4569   21.2905 C   0  0  2  0  0  0  0  0  0  0  0  0
  -29.0334  -20.3236   20.8008 C   0  0  1  0  0  0  0  0  0  0  0  0
  -27.5115  -20.0948   22.6576 C   0  0  0  0  0  0  0  0  0  0  0  0
  -26.0139  -19.9332   22.9484 C   0  0  0  0  0  0  0  0  0  0  0  0
  -28.3086  -19.4979   23.8333 C   0  0  0  0  0  0  0  0  0  0  0  0
  -23.3529  -28.1635   11.6287 C   0  0  0  0  0  0  0  0  0  0  0  0
  -30.7525  -25.1592   22.7301 C   0  0  0  0  0  0  0  0  0  0  0  0
  -20.8407  -25.3483   17.0724 C   0  0  0  0  0  0  0  0  0  0  0  0
  -21.4261  -25.1776   14.6442 C   0  0  0  0  0  0  0  0  0  0  0  0
  -19.7682  -26.8773   15.4091 C   0  0  0  0  0  0  0  0  0  0  0  0
  -25.4111  -30.4390   13.8785 C   0  0  0  0  0  0  0  0  0  0  0  0
  -29.6197  -22.7975   21.0516 C   0  0  0  0  0  0  0  0  0  0  0  0
  -29.2187  -26.5476   21.2793 C   0  0  0  0  0  0  0  0  0  1  0  0
  -22.2185  -27.2118   15.9345 C   0  0  1  0  0  0  0  0  0  0  0  0
  -23.6648  -28.9503   12.8922 C   0  0  2  0  0  0  0  0  0  0  0  0
  -29.9908  -25.2403   21.4171 C   0  0  2  0  0  0  0  0  0  0  0  0
  -21.0833  -26.1601   15.7844 C   0  0  0  0  0  0  0  0  0  0  0  0
  -25.6503  -12.0268   20.7695 N   0  0  0  0  0  0  0  0  0  0  0  0
  -26.2654  -12.5545   19.6975 N   0  0  0  0  0  0  0  0  0  0  0  0
  -22.8995  -28.2250   18.0871 N   0  0  0  0  0  0  0  0  0  0  0  0
  -27.7151  -15.7379   21.2316 N   0  0  0  0  0  0  0  0  0  0  0  0
  -26.4734  -12.3474   17.3471 N   0  0  0  0  0  0  0  0  0  0  0  0
  -23.5602   -9.0700   18.4280 N   0  0  0  0  0  0  0  0  0  0  0  0
  -21.0639  -28.6109   21.1222 N   0  0  0  0  0  0  0  0  0  0  0  0
  -22.4520  -28.0139   14.7384 N   0  0  0  0  0  0  0  0  0  0  0  0
  -28.2068  -18.0495   21.3420 N   0  0  0  0  0  0  0  0  0  0  0  0
  -29.2752  -20.1303   19.3570 N   0  3  0  0  0  0  0  0  0  0  0  0
  -24.9889  -29.6119   12.7190 N   0  3  0  0  0  0  0  0  0  0  0  0
  -29.0198  -24.1106   21.3726 N   0  3  0  0  0  0  0  0  0  0  0  0
  -24.6903  -10.0599   16.6954 O   0  0  0  0  0  0  0  0  0  0  0  0
  -22.3945  -26.8803   20.3116 O   0  0  0  0  0  0  0  0  0  0  0  0
  -20.9460  -28.9010   17.0085 O   0  0  0  0  0  0  0  0  0  0  0  0
  -24.6823  -27.4358   14.4760 O   0  0  0  0  0  0  0  0  0  0  0  0
  -26.0634  -17.3403   20.9451 O   0  0  0  0  0  0  0  0  0  0  0  0
  -21.7148   -7.8592   23.5430 O   0  0  0  0  0  0  0  0  0  0  0  0
  -28.5280  -26.5888   20.0362 O   0  0  0  0  0  0  0  0  0  1  0  0
  -21.8159   -2.4071   22.7249 F   0  0  0  0  0  0  0  0  0  0  0  0
  -22.5117   -6.1377   25.5541 F   0  0  0  0  0  0  0  0  0  0  0  0
  1  2  1  0  0  0  0
  1  5  2  0  0  0  0
  2  6  2  0  0  0  0
  3  8  2  0  0  0  0
  3 15  1  0  0  0  0
  4  9  1  0  0  0  0
  4 15  2  0  0  0  0
  5 17  1  0  0  0  0
  6 19  1  0  0  0  0
  7 10  2  0  0  0  0
  7 18  1  0  0  0  0
  8 21  1  0  0  0  0
  9 21  2  0  0  0  0
 10 22  1  0  0  0  0
 11 12  2  0  0  0  0
 11 23  1  0  0  0  0
 12 24  1  0  0  0  0
 13 20  1  0  0  0  0
 13 22  2  0  0  0  0
 14 24  2  0  0  0  0
 14 25  1  0  0  0  0
 15 26  1  0  0  0  0
 16 26  1  0  0  0  0
 16 27  2  0  0  0  0
 16 28  1  0  0  0  0
 17 19  2  0  0  0  0
 17 33  1  0  0  0  0
 18 20  2  0  0  0  0
 18 34  1  0  0  0  0
 19 43  1  0  0  0  0
 20 35  1  0  0  0  0
 21 81  1  0  0  0  0
 22 82  1  0  0  0  0
 23 25  2  0  0  0  0
 23 81  1  0  0  0  0
 24 83  1  0  0  0  0
 25 84  1  0  0  0  0
 26 64  2  0  0  0  0
 27 65  1  0  0  0  0
 27 68  1  0  0  0  0
 28 69  1  0  0  0  0
 28 76  2  0  0  0  0
 29 44  1  0  0  0  0
 29 70  1  0  0  0  0
 29 77  2  0  0  0  0
 30 60  1  0  0  0  0
 30 66  1  0  0  0  0
 30 78  2  0  0  0  0
 31 61  1  0  0  0  0
 31 71  1  0  0  0  0
 31 79  2  0  0  0  0
 32 67  1  0  0  0  0
 32 72  1  0  0  0  0
 32 80  2  0  0  0  0
 33 36  1  0  0  0  0
 34 44  1  0  0  0  0
 35 66  1  0  0  0  0
 36 38  1  0  0  0  0
 37 39  1  0  0  0  0
 37 41  1  0  0  0  0
 38 43  1  0  0  0  0
 39 46  1  0  0  0  0
 40 45  1  0  0  0  0
 40 49  1  0  0  0  0
 41 67  1  0  0  0  0
 42 46  1  0  0  0  0
 42 67  1  0  0  0  0
 43 70  1  0  0  0  0
 44 66  1  0  0  0  0
 45 48  1  0  0  0  0
 45 58  1  0  0  0  0
 46 65  1  0  0  0  0
 47 48  1  0  0  0  0
 47 49  1  0  0  0  0
 47 72  1  0  0  0  0
 48 73  1  0  0  0  0
 49 50  1  0  0  0  0
 49 51  1  0  0  0  0
 52 61  1  0  0  0  0
 53 62  1  0  0  0  0
 54 63  1  0  0  0  0
 55 63  1  0  0  0  0
 56 63  1  0  0  0  0
 57 74  1  0  0  0  0
 58 75  1  0  0  0  0
 59 62  1  0  0  0  0
 59 82  1  0  0  0  0
 60 63  1  0  0  0  0
 60 71  1  0  0  0  0
 61 74  1  0  0  0  0
 62 75  1  0  0  0  0
 64 65  1  0  0  0  0
M  CHG  3  73   1  74   1  75   1
M  ISO  4  32 100  59 101  72 100  82 101
M  END
> <Batch ID>
0187

> <Smiles>
CNC(C)C(=O)NC(C(=O)N1Cc2cc([101O:1][101CH2:1]C(C)NCC3CC(C)(C)C([100NH:0][100C:0](=O)N4CCCC(n5nc(-c6ccc(Oc7ccc(F)cc7F)cc6)c(C(N)=O)c5N)C4)C3N)ccc2CC1C(=O)NC1CCCc2ccccc21)C(C)(C)C

> <Shape>
0.277

> <Color>
0.095

> <Negative vol penalty>
0.000

$$$$

  -OEChem-04052323173D

 83 92  0     1  0  0  0  0  0999 V2000
  -27.0336  -37.4992   22.6394 C   0  0  0  0  0  0  0  0  0  0  0  0
  -27.6826  -36.5026   21.9176 C   0  0  0  0  0  0  0  0  0  0  0  0
  -23.4549  -12.1438   16.2295 C   0  0  0  0  0  0  0  0  0  0  0  0
  -22.6513  -10.9529   18.1719 C   0  0  0  0  0  0  0  0  0  0  0  0
  -26.1924  -37.1567   23.6973 C   0  0  0  0  0  0  0  0  0  0  0  0
  -27.4916  -35.1629   22.2540 C   0  0  0  0  0  0  0  0  0  0  0  0
  -27.1588  -28.6533   19.2822 C   0  0  0  0  0  0  0  0  0  0  0  0
  -22.6424  -11.3584   15.4118 C   0  0  0  0  0  0  0  0  0  0  0  0
  -21.8387  -10.1675   17.3542 C   0  0  0  0  0  0  0  0  0  0  0  0
  -27.7116  -27.3801   19.4129 C   0  0  0  0  0  0  0  0  0  0  0  0
  -18.8743  -10.4727   15.7606 C   0  0  0  0  0  0  0  0  0  0  0  0
  -17.5586  -10.2583   16.1710 C   0  0  0  0  0  0  0  0  0  0  0  0
  -26.1736  -26.9032   21.2090 C   0  0  0  0  0  0  0  0  0  0  0  0
  -17.9641   -7.8772   16.2271 C   0  0  0  0  0  0  0  0  0  0  0  0
  -28.9293  -22.4954   19.0019 C   0  0  0  0  0  0  0  0  0  0  0  0
  -30.0161  -23.1680   20.9571 C   0  0  0  0  0  0  0  0  0  0  0  0
  -23.4594  -11.9410   17.6096 C   0  0  0  0  0  0  0  0  0  0  0  0
  -23.9623  -13.9745   19.0655 C   0  0  0  0  0  0  0  0  0  0  0  0
  -25.9835  -35.8117   24.0406 C   0  0  0  0  0  0  0  0  0  0  0  0
  -26.1147  -29.0656   20.1226 C   0  0  0  0  0  0  0  0  0  0  0  0
  -26.6479  -34.8022   23.3183 C   0  0  0  0  0  0  0  0  0  0  0  0
  -25.6075  -28.1812   21.0853 C   0  0  0  0  0  0  0  0  0  0  0  0
  -29.2586  -23.5246   19.8601 C   0  0  0  0  0  0  0  0  0  0  0  0
  -21.8343  -10.3703   15.9742 C   0  0  0  0  0  0  0  0  0  0  0  0
  -27.2210  -26.5059   20.3783 C   0  0  0  0  0  0  0  0  0  0  0  0
  -19.7350   -9.3894   15.5834 C   0  0  0  0  0  0  0  0  0  0  0  0
  -17.1035   -8.9606   16.4043 C   0  0  0  0  0  0  0  0  0  0  0  0
  -19.2798   -8.0916   15.8166 C   0  0  0  0  0  0  0  0  0  0  0  0
  -24.2989  -12.7516   18.4547 C   0  0  0  0  0  0  0  0  0  0  0  0
  -25.0931  -14.3361   19.7561 C   0  0  0  0  0  0  0  0  0  0  0  0
  -30.0408  -20.9932   20.2962 C   0  0  0  0  0  0  0  0  0  0  0  0
  -22.7370  -14.7171   19.0133 C   0  0  0  0  0  0  0  0  0  0  0  0
  -25.7483  -31.3725   22.2784 C   0  0  0  0  0  0  0  0  0  0  0  0
  -22.6819  -30.3151   22.3163 C   0  0  0  0  0  0  0  0  0  0  0  0
  -20.4911  -27.7602   21.7510 C   0  0  0  0  0  0  0  0  0  0  0  0
  -30.7065  -14.9349   19.6597 C   0  0  0  0  0  0  0  0  0  0  0  0
  -25.1021  -35.4926   25.2221 C   0  0  0  0  0  0  0  0  0  0  0  0
  -25.5112  -30.4327   19.9511 C   0  0  0  0  0  0  0  0  0  0  0  0
  -24.4742  -28.5681   21.9987 C   0  0  0  0  0  0  0  0  0  0  0  0
  -24.6602  -34.0324   25.2756 C   0  0  0  0  0  0  0  0  0  0  0  0
  -29.3047  -11.7388   20.7967 C   0  0  0  0  0  0  0  0  0  0  0  0
  -25.8468  -33.1061   25.0293 C   0  0  0  0  0  0  0  0  0  0  0  0
  -27.8620  -11.8035   20.2935 C   0  0  0  0  0  0  0  0  0  0  0  0
  -28.7323  -18.0244   19.9322 C   0  0  0  0  0  0  0  0  0  0  0  0
  -30.2597  -12.5194   19.8965 C   0  0  0  0  0  0  0  0  0  0  0  0
  -28.8155  -16.6313   19.3172 C   0  0  0  0  0  0  0  0  0  0  0  0
  -28.4209  -13.9767   19.1427 C   0  0  0  0  0  0  0  0  0  0  0  0
  -31.0213  -17.3814   19.8976 C   0  0  0  0  0  0  0  0  0  0  0  0
  -26.4468  -33.3365   23.6370 C   0  0  1  0  0  0  0  0  0  0  0  0
  -24.7961  -30.9315   21.2030 C   0  0  1  0  0  0  0  0  0  0  0  0
  -27.4202  -13.2603   20.0600 C   0  0  1  0  0  0  0  0  0  0  0  0
  -30.1227  -18.5841   19.6520 C   0  0  2  0  0  0  0  0  0  0  0  0
  -18.0539  -27.1836   21.9096 C   0  0  0  0  0  0  0  0  0  0  0  0
  -22.9474  -30.0359   25.3431 C   0  0  0  0  0  0  0  0  0  0  0  0
  -20.8960  -28.6008   25.3207 C   0  0  0  0  0  0  0  0  0  0  0  0
  -20.7627  -30.9759   24.5699 C   0  0  0  0  0  0  0  0  0  0  0  0
  -20.3019  -27.2561   18.8408 C   0  0  0  0  0  0  0  0  0  0  0  0
  -28.8255  -24.9225   19.6202 C   0  0  0  0  0  0  0  0  0  1  0  0
  -21.9195  -29.2745   23.1004 C   0  0  1  0  0  0  0  0  0  0  0  0
  -19.1636  -27.7156   21.0161 C   0  0  2  0  0  0  0  0  0  0  0  0
  -21.6541  -29.7149   24.5678 C   0  0  0  0  0  0  0  0  0  0  0  0
  -29.3050  -21.2133   19.1900 N   0  0  0  0  0  0  0  0  0  0  0  0
  -30.4260  -21.9071   21.2072 N   0  0  0  0  0  0  0  0  0  0  0  0
  -25.5460  -12.3624   18.7327 N   0  0  0  0  0  0  0  0  0  0  0  0
  -26.0030  -13.3465   19.5256 N   0  0  0  0  0  0  0  0  0  0  0  0
  -23.9218  -29.9177   21.7963 N   0  0  0  0  0  0  0  0  0  0  0  0
  -29.7813  -13.8856   19.6837 N   0  0  0  0  0  0  0  0  0  0  0  0
  -30.2116  -16.2295   19.5078 N   0  0  0  0  0  0  0  0  0  0  0  0
  -25.3881  -15.4008   20.5318 N   0  0  0  0  0  0  0  0  0  0  0  0
  -21.6752  -14.2020   18.2573 N   0  0  0  0  0  0  0  0  0  0  0  0
  -30.4458  -19.6845   20.5212 N   0  0  0  0  0  0  0  0  0  0  0  0
  -25.6290  -32.7053   22.6235 N   0  0  0  0  0  0  0  0  0  0  0  0
  -20.7111  -28.9902   22.3341 N   0  0  0  0  0  0  0  0  0  0  0  0
  -19.2643  -26.8358   19.8174 N   0  3  0  0  0  0  0  0  0  0  0  0
  -22.5936  -15.8134   19.6058 O   0  0  0  0  0  0  0  0  0  0  0  0
  -26.5320  -30.5632   22.7606 O   0  0  0  0  0  0  0  0  0  0  0  0
  -22.1920  -31.4370   22.1646 O   0  0  0  0  0  0  0  0  0  0  0  0
  -21.2547  -26.7987   21.8057 O   0  0  0  0  0  0  0  0  0  0  0  0
  -31.9176  -14.7294   19.8146 O   0  0  0  0  0  0  0  0  0  0  0  0
  -21.0412   -9.6039   15.1766 O   0  0  0  0  0  0  0  0  0  0  0  0
  -27.7625  -25.2554   20.5092 O   0  0  0  0  0  0  0  0  0  1  0  0
  -15.8404   -8.7550   16.7999 F   0  0  0  0  0  0  0  0  0  0  0  0
  -20.1023   -7.0470   15.6492 F   0  0  0  0  0  0  0  0  0  0  0  0
  1  2  1  0  0  0  0
  1  5  2  0  0  0  0
  2  6  2  0  0  0  0
  3  8  2  0  0  0  0
  3 17  1  0  0  0  0
  4  9  1  0  0  0  0
  4 17  2  0  0  0  0
  5 19  1  0  0  0  0
  6 21  1  0  0  0  0
  7 10  2  0  0  0  0
  7 20  1  0  0  0  0
  8 24  1  0  0  0  0
  9 24  2  0  0  0  0
 10 25  1  0  0  0  0
 11 12  2  0  0  0  0
 11 26  1  0  0  0  0
 12 27  1  0  0  0  0
 13 22  1  0  0  0  0
 13 25  2  0  0  0  0
 14 27  2  0  0  0  0
 14 28  1  0  0  0  0
 15 23  1  0  0  0  0
 15 62  2  0  0  0  0
 16 23  2  0  0  0  0
 16 63  1  0  0  0  0
 17 29  1  0  0  0  0
 18 29  1  0  0  0  0
 18 30  2  0  0  0  0
 18 32  1  0  0  0  0
 19 21  2  0  0  0  0
 19 37  1  0  0  0  0
 20 22  2  0  0  0  0
 20 38  1  0  0  0  0
 21 49  1  0  0  0  0
 22 39  1  0  0  0  0
 23 58  1  0  0  0  0
 24 80  1  0  0  0  0
 25 81  1  0  0  0  0
 26 28  2  0  0  0  0
 26 80  1  0  0  0  0
 27 82  1  0  0  0  0
 28 83  1  0  0  0  0
 29 64  2  0  0  0  0
 30 65  1  0  0  0  0
 30 69  1  0  0  0  0
 31 62  1  0  0  0  0
 31 63  2  0  0  0  0
 31 71  1  0  0  0  0
 32 70  1  0  0  0  0
 32 75  2  0  0  0  0
 33 50  1  0  0  0  0
 33 72  1  0  0  0  0
 33 76  2  0  0  0  0
 34 59  1  0  0  0  0
 34 66  1  0  0  0  0
 34 77  2  0  0  0  0
 35 60  1  0  0  0  0
 35 73  1  0  0  0  0
 35 78  2  0  0  0  0
 36 67  1  0  0  0  0
 36 68  1  0  0  0  0
 36 79  2  0  0  0  0
 37 40  1  0  0  0  0
 38 50  1  0  0  0  0
 39 66  1  0  0  0  0
 40 42  1  0  0  0  0
 41 43  1  0  0  0  0
 41 45  1  0  0  0  0
 42 49  1  0  0  0  0
 43 51  1  0  0  0  0
 44 46  1  0  0  0  0
 44 52  1  0  0  0  0
 45 67  1  0  0  0  0
 46 68  1  0  0  0  0
 47 51  1  0  0  0  0
 47 67  1  0  0  0  0
 48 52  1  0  0  0  0
 48 68  1  0  0  0  0
 49 72  1  0  0  0  0
 50 66  1  0  0  0  0
 51 65  1  0  0  0  0
 52 71  1  0  0  0  0
 53 60  1  0  0  0  0
 54 61  1  0  0  0  0
 55 61  1  0  0  0  0
 56 61  1  0  0  0  0
 57 74  1  0  0  0  0
 58 81  1  0  0  0  0
 59 61  1  0  0  0  0
 59 73  1  0  0  0  0
 60 74  1  0  0  0  0
 64 65  1  0  0  0  0
M  CHG  1  74   1
M  ISO  4  36 100  58 101  68 100  81 101
M  END
> <Batch ID>
0187

> <Smiles>
CNC(C)C(=O)NC(C(=O)N1Cc2cc([101O:1][101CH2:1]c3cnc(NC4CC[100N:0]([100C:0](=O)N5CCCC(n6nc(-c7ccc(Oc8ccc(F)cc8F)cc7)c(C(N)=O)c6N)C5)C4)nc3)ccc2CC1C(=O)NC1CCCc2ccccc21)C(C)(C)C

> <Shape>
0.296

> <Color>
0.116

> <Negative vol penalty>
0.000

$$$$

  -OEChem-04052323173D

 84 93  0     1  0  0  0  0  0999 V2000
  -27.9170  -31.6479   27.7647 C   0  0  0  0  0  0  0  0  0  0  0  0
  -27.9960  -30.6470   26.8017 C   0  0  0  0  0  0  0  0  0  0  0  0
  -24.8396  -10.1931   23.3642 C   0  0  0  0  0  0  0  0  0  0  0  0
  -23.6529   -9.4488   21.3958 C   0  0  0  0  0  0  0  0  0  0  0  0
  -26.6894  -32.2444   28.0494 C   0  0  0  0  0  0  0  0  0  0  0  0
  -26.8472  -30.2413   26.1235 C   0  0  0  0  0  0  0  0  0  0  0  0
  -27.6058  -29.7439   21.1414 C   0  0  0  0  0  0  0  0  0  0  0  0
  -24.0269   -9.3854   24.1596 C   0  0  0  0  0  0  0  0  0  0  0  0
  -22.8402   -8.6410   22.1912 C   0  0  0  0  0  0  0  0  0  0  0  0
  -28.2596  -28.5910   20.7088 C   0  0  0  0  0  0  0  0  0  0  0  0
  -23.0605   -5.6447   23.7384 C   0  0  0  0  0  0  0  0  0  0  0  0
  -22.8212   -4.3411   23.3039 C   0  0  0  0  0  0  0  0  0  0  0  0
  -28.7306  -23.4500   22.5729 C   0  0  0  0  0  0  0  0  0  0  0  0
  -26.1352  -27.6190   20.1079 C   0  0  0  0  0  0  0  0  0  0  0  0
  -20.4506   -4.8014   23.2286 C   0  0  0  0  0  0  0  0  0  0  0  0
  -28.0998  -24.6526   22.8482 C   0  0  0  0  0  0  0  0  0  0  0  0
  -24.6525  -10.2249   21.9822 C   0  0  0  0  0  0  0  0  0  0  0  0
  -26.7132  -10.7053   20.5572 C   0  0  0  0  0  0  0  0  0  0  0  0
  -25.5266  -31.8525   27.3675 C   0  0  0  0  0  0  0  0  0  0  0  0
  -26.2085  -29.8389   21.0704 C   0  0  0  0  0  0  0  0  0  0  0  0
  -25.6026  -30.8321   26.4003 C   0  0  0  0  0  0  0  0  0  0  0  0
  -25.4662  -28.7752   20.5378 C   0  0  0  0  0  0  0  0  0  0  0  0
  -29.1913  -23.2382   21.2782 C   0  0  0  0  0  0  0  0  0  0  0  0
  -29.0097  -24.2216   20.3120 C   0  0  0  0  0  0  0  0  0  0  0  0
  -23.0272   -8.6093   23.5731 C   0  0  0  0  0  0  0  0  0  0  0  0
  -27.5241  -27.5272   20.1947 C   0  0  0  0  0  0  0  0  0  0  0  0
  -21.9949   -6.5267   23.9182 C   0  0  0  0  0  0  0  0  0  0  0  0
  -21.5162   -3.9194   23.0489 C   0  0  0  0  0  0  0  0  0  0  0  0
  -20.6899   -6.1050   23.6632 C   0  0  0  0  0  0  0  0  0  0  0  0
  -25.4913  -11.0595   21.1601 C   0  0  0  0  0  0  0  0  0  0  0  0
  -28.3664  -25.3896   20.6884 C   0  0  0  0  0  0  0  0  0  1  0  0
  -27.1079  -11.8388   19.8895 C   0  0  0  0  0  0  0  0  0  0  0  0
  -27.4274   -9.4627   20.5971 C   0  0  0  0  0  0  0  0  0  0  0  0
  -23.8736  -30.1957   23.1975 C   0  0  0  0  0  0  0  0  0  0  0  0
  -22.0228  -30.4399   20.5447 C   0  0  0  0  0  0  0  0  0  0  0  0
  -21.6001  -29.7361   17.2321 C   0  0  0  0  0  0  0  0  0  0  0  0
  -27.9167  -17.1335   19.5258 C   0  0  0  0  0  0  0  0  0  0  0  0
  -24.2139  -32.4933   27.7431 C   0  0  0  0  0  0  0  0  0  0  0  0
  -25.5204  -31.0999   21.5163 C   0  0  0  0  0  0  0  0  0  0  0  0
  -23.9658  -28.8352   20.4213 C   0  0  0  0  0  0  0  0  0  0  0  0
  -23.1094  -32.2674   26.7140 C   0  0  0  0  0  0  0  0  0  0  0  0
  -24.6165  -16.1156   18.8805 C   0  0  0  0  0  0  0  0  0  0  0  0
  -23.0663  -30.8029   26.2897 C   0  0  0  0  0  0  0  0  0  0  0  0
  -24.6441  -14.6685   19.3716 C   0  0  0  0  0  0  0  0  0  0  0  0
  -25.3987  -17.0500   19.8053 C   0  0  0  0  0  0  0  0  0  0  0  0
  -27.0864  -19.4457   20.1493 C   0  0  0  0  0  0  0  0  0  0  0  0
  -28.9165  -19.1622   18.5189 C   0  0  0  0  0  0  0  0  0  0  0  0
  -26.8170  -15.1664   20.5535 C   0  0  0  0  0  0  0  0  0  0  0  0
  -27.9815  -20.3263   21.0152 C   0  0  0  0  0  0  0  0  0  0  0  0
  -29.8444  -20.0146   19.3692 C   0  0  0  0  0  0  0  0  0  0  0  0
  -24.3830  -30.3819   25.6258 C   0  0  1  0  0  0  0  0  0  0  0  0
  -24.0531  -30.8853   21.8746 C   0  0  1  0  0  0  0  0  0  0  0  0
  -26.0883  -14.1945   19.6126 C   0  0  1  0  0  0  0  0  0  0  0  0
  -29.4882  -24.0248   18.9131 C   0  0  0  0  0  0  0  0  0  0  0  0
  -19.9695  -30.0324   15.3478 C   0  0  0  0  0  0  0  0  0  0  0  0
  -20.2735  -28.2303   21.7141 C   0  0  0  0  0  0  0  0  0  0  0  0
  -19.2716  -27.9163   19.4413 C   0  0  0  0  0  0  0  0  0  0  0  0
  -19.0107  -30.0953   20.6272 C   0  0  0  0  0  0  0  0  0  0  0  0
  -23.5450  -31.2998   15.6411 C   0  0  0  0  0  0  0  0  0  0  0  0
  -29.8784  -21.9457   20.9492 C   0  0  0  0  0  0  0  0  0  0  0  0
  -21.2664  -29.4646   19.6754 C   0  0  1  0  0  0  0  0  0  0  0  0
  -21.1820  -30.6086   16.0623 C   0  0  2  0  0  0  0  0  0  0  0  0
  -19.9836  -28.9244   20.3684 C   0  0  0  0  0  0  0  0  0  0  0  0
  -27.9051  -25.6313   21.9361 N   0  0  0  0  0  0  0  0  0  0  0  0
  -25.1336  -12.3195   20.8987 N   0  0  0  0  0  0  0  0  0  0  0  0
  -26.1366  -12.7670   20.1243 N   0  0  0  0  0  0  0  0  0  0  0  0
  -23.3385  -30.0870   20.8765 N   0  0  0  0  0  0  0  0  0  0  0  0
  -26.7555  -16.5359   20.0384 N   0  0  0  0  0  0  0  0  0  0  0  0
  -27.8871  -18.5230   19.3355 N   0  0  0  0  0  0  0  0  0  0  0  0
  -28.1878  -12.1221   19.1305 N   0  0  0  0  0  0  0  0  0  0  0  0
  -26.8799   -8.4006   21.3296 N   0  0  0  0  0  0  0  0  0  0  0  0
  -24.4401  -30.8677   24.2637 N   0  0  0  0  0  0  0  0  0  0  0  0
  -21.0191  -30.1508   18.4119 N   0  0  0  0  0  0  0  0  0  0  0  0
  -29.0166  -21.0069   20.1521 N   0  3  0  0  0  0  0  0  0  0  0  0
  -22.2957  -30.7250   15.0790 N   0  3  0  0  0  0  0  0  0  0  0  0
  -28.5268   -9.3041   20.0142 O   0  0  0  0  0  0  0  0  0  0  0  0
  -23.2647  -29.1334   23.2473 O   0  0  0  0  0  0  0  0  0  0  0  0
  -21.4691  -31.4800   20.9097 O   0  0  0  0  0  0  0  0  0  0  0  0
  -22.3626  -28.7799   17.1108 O   0  0  0  0  0  0  0  0  0  0  0  0
  -28.9218  -16.4644   19.2546 O   0  0  0  0  0  0  0  0  0  0  0  0
  -22.2342   -7.8208   24.3489 O   0  0  0  0  0  0  0  0  0  0  0  0
  -28.1688  -26.3843   19.7663 O   0  0  0  0  0  0  0  0  0  1  0  0
  -21.2867   -2.6680   22.6301 F   0  0  0  0  0  0  0  0  0  0  0  0
  -19.6623   -6.9482   23.8329 F   0  0  0  0  0  0  0  0  0  0  0  0
  1  2  1  0  0  0  0
  1  5  2  0  0  0  0
  2  6  2  0  0  0  0
  3  8  2  0  0  0  0
  3 17  1  0  0  0  0
  4  9  1  0  0  0  0
  4 17  2  0  0  0  0
  5 19  1  0  0  0  0
  6 21  1  0  0  0  0
  7 10  2  0  0  0  0
  7 20  1  0  0  0  0
  8 25  1  0  0  0  0
  9 25  2  0  0  0  0
 10 26  1  0  0  0  0
 11 12  2  0  0  0  0
 11 27  1  0  0  0  0
 12 28  1  0  0  0  0
 13 16  1  0  0  0  0
 13 23  2  0  0  0  0
 14 22  1  0  0  0  0
 14 26  2  0  0  0  0
 15 28  2  0  0  0  0
 15 29  1  0  0  0  0
 16 64  2  0  0  0  0
 17 30  1  0  0  0  0
 18 30  1  0  0  0  0
 18 32  2  0  0  0  0
 18 33  1  0  0  0  0
 19 21  2  0  0  0  0
 19 38  1  0  0  0  0
 20 22  2  0  0  0  0
 20 39  1  0  0  0  0
 21 51  1  0  0  0  0
 22 40  1  0  0  0  0
 23 24  1  0  0  0  0
 23 60  1  0  0  0  0
 24 31  2  0  0  0  0
 24 54  1  0  0  0  0
 25 81  1  0  0  0  0
 26 82  1  0  0  0  0
 27 29  2  0  0  0  0
 27 81  1  0  0  0  0
 28 83  1  0  0  0  0
 29 84  1  0  0  0  0
 30 65  2  0  0  0  0
 31 64  1  0  0  0  0
 31 82  1  0  0  0  0
 32 66  1  0  0  0  0
 32 70  1  0  0  0  0
 33 71  1  0  0  0  0
 33 76  2  0  0  0  0
 34 52  1  0  0  0  0
 34 72  1  0  0  0  0
 34 77  2  0  0  0  0
 35 61  1  0  0  0  0
 35 67  1  0  0  0  0
 35 78  2  0  0  0  0
 36 62  1  0  0  0  0
 36 73  1  0  0  0  0
 36 79  2  0  0  0  0
 37 68  1  0  0  0  0
 37 69  1  0  0  0  0
 37 80  2  0  0  0  0
 38 41  1  0  0  0  0
 39 52  1  0  0  0  0
 40 67  1  0  0  0  0
 41 43  1  0  0  0  0
 42 44  1  0  0  0  0
 42 45  1  0  0  0  0
 43 51  1  0  0  0  0
 44 53  1  0  0  0  0
 45 68  1  0  0  0  0
 46 49  1  0  0  0  0
 46 69  1  0  0  0  0
 47 50  1  0  0  0  0
 47 69  1  0  0  0  0
 48 53  1  0  0  0  0
 48 68  1  0  0  0  0
 49 74  1  0  0  0  0
 50 74  1  0  0  0  0
 51 72  1  0  0  0  0
 52 67  1  0  0  0  0
 53 66  1  0  0  0  0
 55 62  1  0  0  0  0
 56 63  1  0  0  0  0
 57 63  1  0  0  0  0
 58 63  1  0  0  0  0
 59 75  1  0  0  0  0
 60 74  1  0  0  0  0
 61 63  1  0  0  0  0
 61 73  1  0  0  0  0
 62 75  1  0  0  0  0
 65 66  1  0  0  0  0
M  CHG  2  74   1  75   1
M  ISO  4  31 101  37 100  69 100  82 101
M  END
> <Batch ID>
0187

> <Smiles>
CNC(C)C(=O)NC(C(=O)N1Cc2cc([101O:1][101c:1]3nccc(CN4CC[100N:0]([100C:0](=O)N5CCCC(n6nc(-c7ccc(Oc8ccc(F)cc8F)cc7)c(C(N)=O)c6N)C5)CC4)c3C)ccc2CC1C(=O)NC1CCCc2ccccc21)C(C)(C)C

> <Shape>
0.297

> <Color>
0.086

> <Negative vol penalty>
0.000

$$$$

  -OEChem-04052323173D

 82 91  0     1  0  0  0  0  0999 V2000
  -18.7875  -27.3380   23.4254 C   0  0  0  0  0  0  0  0  0  0  0  0
  -19.8882  -26.5709   23.0573 C   0  0  0  0  0  0  0  0  0  0  0  0
  -23.1968   -9.7487   21.5332 C   0  0  0  0  0  0  0  0  0  0  0  0
  -23.8925  -10.8074   23.5904 C   0  0  0  0  0  0  0  0  0  0  0  0
  -18.5225  -28.5368   22.7647 C   0  0  0  0  0  0  0  0  0  0  0  0
  -20.7239  -27.0017   22.0275 C   0  0  0  0  0  0  0  0  0  0  0  0
  -25.6319  -26.5118   23.1750 C   0  0  0  0  0  0  0  0  0  0  0  0
  -22.5248   -8.7693   22.2644 C   0  0  0  0  0  0  0  0  0  0  0  0
  -23.2204   -9.8280   24.3217 C   0  0  0  0  0  0  0  0  0  0  0  0
  -26.1839  -25.2352   23.0791 C   0  0  0  0  0  0  0  0  0  0  0  0
  -23.3082   -5.9585   23.9704 C   0  0  0  0  0  0  0  0  0  0  0  0
  -23.4686   -4.6308   23.5743 C   0  0  0  0  0  0  0  0  0  0  0  0
  -27.1232  -25.8091   20.9326 C   0  0  0  0  0  0  0  0  0  0  0  0
  -21.0887   -4.4559   23.1967 C   0  0  0  0  0  0  0  0  0  0  0  0
  -27.8104  -19.1958   22.3970 C   0  0  0  0  0  0  0  0  0  0  0  0
  -23.8808  -10.7677   22.1962 C   0  0  0  0  0  0  0  0  0  0  0  0
  -24.0572  -13.0062   20.9856 C   0  0  0  0  0  0  0  0  0  0  0  0
  -19.3608  -28.9874   21.7329 C   0  0  0  0  0  0  0  0  0  0  0  0
  -25.8126  -27.4447   22.1437 C   0  0  0  0  0  0  0  0  0  0  0  0
  -20.4691  -28.2071   21.3516 C   0  0  0  0  0  0  0  0  0  0  0  0
  -26.5746  -27.0978   21.0190 C   0  0  0  0  0  0  0  0  0  0  0  0
  -29.1778  -19.1165   22.2282 C   0  0  0  0  0  0  0  0  0  0  0  0
  -22.5365   -8.8089   23.6587 C   0  0  0  0  0  0  0  0  0  0  0  0
  -26.9272  -24.8827   21.9564 C   0  0  0  0  0  0  0  0  0  0  0  0
  -22.0381   -6.5350   23.9797 C   0  0  0  0  0  0  0  0  0  0  0  0
  -22.3589   -3.8795   23.1874 C   0  0  0  0  0  0  0  0  0  0  0  0
  -20.9283   -5.7837   23.5929 C   0  0  0  0  0  0  0  0  0  0  0  0
  -24.5757  -11.7793   21.4414 C   0  0  0  0  0  0  0  0  0  0  0  0
  -29.8600  -20.3131   22.3116 C   0  0  0  0  0  0  0  0  0  0  0  0
  -25.1066  -13.5989   20.3267 C   0  0  0  0  0  0  0  0  0  0  0  0
  -27.9264  -21.4471   22.6892 C   0  0  0  0  0  0  0  0  0  0  0  0
  -22.7444  -13.5606   21.1437 C   0  0  0  0  0  0  0  0  0  0  0  0
  -23.8756  -28.9953   20.1569 C   0  0  0  0  0  0  0  0  0  0  0  0
  -26.6105  -30.5119   19.2954 C   0  0  0  0  0  0  0  0  0  0  0  0
  -30.0176  -30.4578   19.1074 C   0  0  0  0  0  0  0  0  0  0  0  0
  -30.5878  -14.9429   20.2397 C   0  0  0  0  0  0  0  0  0  0  0  0
  -19.0070  -30.2664   21.0162 C   0  0  0  0  0  0  0  0  0  0  0  0
  -25.2331  -28.8266   22.2746 C   0  0  0  0  0  0  0  0  0  0  0  0
  -26.8150  -28.0695   19.8935 C   0  0  0  0  0  0  0  0  0  0  0  0
  -20.1546  -30.8379   20.1876 C   0  0  0  0  0  0  0  0  0  0  0  0
  -29.5731  -11.7674   18.8910 C   0  0  0  0  0  0  0  0  0  0  0  0
  -20.8117  -29.7401   19.3570 C   0  0  0  0  0  0  0  0  0  0  0  0
  -28.1649  -11.5579   19.4378 C   0  0  0  0  0  0  0  0  0  0  0  0
  -30.4445  -12.5032   19.9000 C   0  0  0  0  0  0  0  0  0  0  0  0
  -29.0304  -16.4747   21.6847 C   0  0  0  0  0  0  0  0  0  0  0  0
  -30.5329  -17.4735   20.5720 C   0  0  0  0  0  0  0  0  0  0  0  0
  -28.4628  -13.6604   20.8421 C   0  0  0  0  0  0  0  0  0  0  0  0
  -29.8953  -17.7292   21.9570 C   0  0  0  0  0  0  0  0  0  0  0  0
  -21.4131  -28.6532   20.2561 C   0  0  1  0  0  0  0  0  0  0  0  0
  -25.0482  -29.5266   20.9317 C   0  0  1  0  0  0  0  0  0  0  0  0
  -27.5486  -12.8987   19.8621 C   0  0  2  0  0  0  0  0  0  0  0  0
  -31.3431  -20.3460   22.1445 C   0  0  0  0  0  0  0  0  0  0  0  0
  -31.9690  -31.8248   18.3197 C   0  0  0  0  0  0  0  0  0  0  0  0
  -25.9756  -29.7511   16.4095 C   0  0  0  0  0  0  0  0  0  0  0  0
  -28.3504  -30.2815   15.8206 C   0  0  0  0  0  0  0  0  0  0  0  0
  -26.8571  -32.0725   16.7065 C   0  0  0  0  0  0  0  0  0  0  0  0
  -31.1533  -30.6208   21.8355 C   0  0  0  0  0  0  0  0  0  0  0  0
  -27.2316  -22.7413   22.9452 C   0  0  0  0  0  0  0  0  0  1  0  0
  -27.6905  -30.2681   18.2691 C   0  0  1  0  0  0  0  0  0  0  0  0
  -31.0643  -31.4869   19.4944 C   0  0  2  0  0  0  0  0  0  0  0  0
  -27.2124  -30.5741   16.8216 C   0  0  0  0  0  0  0  0  0  0  0  0
  -27.1495  -20.3487   22.6299 N   0  0  0  0  0  0  0  0  0  0  0  0
  -25.8550  -11.6018   21.1008 N   0  0  0  0  0  0  0  0  0  0  0  0
  -29.2639  -21.5015   22.5416 N   0  0  0  0  0  0  0  0  0  0  0  0
  -26.1491  -12.7249   20.4239 N   0  0  0  0  0  0  0  0  0  0  0  0
  -26.2224  -29.4062   20.0652 N   0  0  0  0  0  0  0  0  0  0  0  0
  -29.8386  -13.7650   20.3362 N   0  0  0  0  0  0  0  0  0  0  0  0
  -30.0196  -16.1136   20.6835 N   0  0  0  0  0  0  0  0  0  0  0  0
  -25.2299  -14.7771   19.6795 N   0  0  0  0  0  0  0  0  0  0  0  0
  -21.7864  -12.8190   21.8484 N   0  0  0  0  0  0  0  0  0  0  0  0
  -22.6681  -29.1013   20.8204 N   0  0  0  0  0  0  0  0  0  0  0  0
  -28.8438  -31.0529   18.6959 N   0  0  0  0  0  0  0  0  0  0  0  0
  -31.9113  -30.9711   20.6068 N   0  3  0  0  0  0  0  0  0  0  0  0
  -22.4255  -14.6731   20.6598 O   0  0  0  0  0  0  0  0  0  0  0  0
  -24.0529  -28.5253   19.0391 O   0  0  0  0  0  0  0  0  0  0  0  0
  -26.1340  -31.6435   19.4146 O   0  0  0  0  0  0  0  0  0  0  0  0
  -30.2222  -29.2471   19.1609 O   0  0  0  0  0  0  0  0  0  0  0  0
  -31.7443  -14.9470   19.7973 O   0  0  0  0  0  0  0  0  0  0  0  0
  -21.8806   -7.8536   24.3725 O   0  0  0  0  0  0  0  0  0  0  0  0
  -27.4702  -23.6285   21.8593 O   0  0  0  0  0  0  0  0  0  1  0  0
  -22.5133   -2.6049   22.8056 F   0  0  0  0  0  0  0  0  0  0  0  0
  -19.7057   -6.3324   23.5987 F   0  0  0  0  0  0  0  0  0  0  0  0
  1  2  1  0  0  0  0
  1  5  2  0  0  0  0
  2  6  2  0  0  0  0
  3  8  2  0  0  0  0
  3 16  1  0  0  0  0
  4  9  1  0  0  0  0
  4 16  2  0  0  0  0
  5 18  1  0  0  0  0
  6 20  1  0  0  0  0
  7 10  2  0  0  0  0
  7 19  1  0  0  0  0
  8 23  1  0  0  0  0
  9 23  2  0  0  0  0
 10 24  1  0  0  0  0
 11 12  2  0  0  0  0
 11 25  1  0  0  0  0
 12 26  1  0  0  0  0
 13 21  1  0  0  0  0
 13 24  2  0  0  0  0
 14 26  2  0  0  0  0
 14 27  1  0  0  0  0
 15 22  1  0  0  0  0
 15 62  2  0  0  0  0
 16 28  1  0  0  0  0
 17 28  1  0  0  0  0
 17 30  2  0  0  0  0
 17 32  1  0  0  0  0
 18 20  2  0  0  0  0
 18 37  1  0  0  0  0
 19 21  2  0  0  0  0
 19 38  1  0  0  0  0
 20 49  1  0  0  0  0
 21 39  1  0  0  0  0
 22 29  2  0  0  0  0
 22 48  1  0  0  0  0
 23 79  1  0  0  0  0
 24 80  1  0  0  0  0
 25 27  2  0  0  0  0
 25 79  1  0  0  0  0
 26 81  1  0  0  0  0
 27 82  1  0  0  0  0
 28 63  2  0  0  0  0
 29 52  1  0  0  0  0
 29 64  1  0  0  0  0
 30 65  1  0  0  0  0
 30 69  1  0  0  0  0
 31 58  1  0  0  0  0
 31 62  1  0  0  0  0
 31 64  2  0  0  0  0
 32 70  1  0  0  0  0
 32 74  2  0  0  0  0
 33 50  1  0  0  0  0
 33 71  1  0  0  0  0
 33 75  2  0  0  0  0
 34 59  1  0  0  0  0
 34 66  1  0  0  0  0
 34 76  2  0  0  0  0
 35 60  1  0  0  0  0
 35 72  1  0  0  0  0
 35 77  2  0  0  0  0
 36 67  1  0  0  0  0
 36 68  1  0  0  0  0
 36 78  2  0  0  0  0
 37 40  1  0  0  0  0
 38 50  1  0  0  0  0
 39 66  1  0  0  0  0
 40 42  1  0  0  0  0
 41 43  1  0  0  0  0
 41 44  1  0  0  0  0
 42 49  1  0  0  0  0
 43 51  1  0  0  0  0
 44 67  1  0  0  0  0
 45 48  1  0  0  0  0
 45 68  1  0  0  0  0
 46 48  1  0  0  0  0
 46 68  1  0  0  0  0
 47 51  1  0  0  0  0
 47 67  1  0  0  0  0
 49 71  1  0  0  0  0
 50 66  1  0  0  0  0
 51 65  1  0  0  0  0
 53 60  1  0  0  0  0
 54 61  1  0  0  0  0
 55 61  1  0  0  0  0
 56 61  1  0  0  0  0
 57 73  1  0  0  0  0
 58 80  1  0  0  0  0
 59 61  1  0  0  0  0
 59 72  1  0  0  0  0
 60 73  1  0  0  0  0
 63 65  1  0  0  0  0
M  CHG  1  73   1
M  ISO  4  36 100  58 101  68 100  80 101
M  END
> <Batch ID>
0187

> <Smiles>
CNC(C)C(=O)NC(C(=O)N1Cc2cc([101O:1][101CH2:1]c3ncc(C4C[100N:0]([100C:0](=O)N5CCCC(n6nc(-c7ccc(Oc8ccc(F)cc8F)cc7)c(C(N)=O)c6N)C5)C4)c(C)n3)ccc2CC1C(=O)NC1CCCc2ccccc21)C(C)(C)C

> <Shape>
0.263

> <Color>
0.177

> <Negative vol penalty>
0.000

$$$$

  -OEChem-04052323173D

 82 90  0     1  0  0  0  0  0999 V2000
  -16.8200  -23.5152   22.4204 C   0  0  0  0  0  0  0  0  0  0  0  0
  -18.1553  -23.1281   22.4710 C   0  0  0  0  0  0  0  0  0  0  0  0
  -25.4833  -13.3728   21.9491 C   0  0  0  0  0  0  0  0  0  0  0  0
  -26.2753  -13.5181   19.6713 C   0  0  0  0  0  0  0  0  0  0  0  0
  -16.4535  -24.6597   21.7134 C   0  0  0  0  0  0  0  0  0  0  0  0
  -19.1248  -23.8847   21.8138 C   0  0  0  0  0  0  0  0  0  0  0  0
  -25.9834  -25.8746   22.3772 C   0  0  0  0  0  0  0  0  0  0  0  0
  -24.4789  -12.4938   21.5439 C   0  0  0  0  0  0  0  0  0  0  0  0
  -25.2709  -12.6391   19.2660 C   0  0  0  0  0  0  0  0  0  0  0  0
  -27.1645  -25.8908   21.6366 C   0  0  0  0  0  0  0  0  0  0  0  0
  -24.2035   -9.2153   20.7638 C   0  0  0  0  0  0  0  0  0  0  0  0
  -23.9860   -8.0772   21.5402 C   0  0  0  0  0  0  0  0  0  0  0  0
  -26.4250  -27.8929   20.5124 C   0  0  0  0  0  0  0  0  0  0  0  0
  -21.7128   -8.7882   21.9457 C   0  0  0  0  0  0  0  0  0  0  0  0
  -30.3361  -22.4407   15.6845 C   0  0  0  0  0  0  0  0  0  0  0  0
  -26.3815  -13.8850   21.0128 C   0  0  0  0  0  0  0  0  0  0  0  0
  -28.7174  -14.4610   21.8608 C   0  0  0  0  0  0  0  0  0  0  0  0
  -17.4203  -25.4361   21.0553 C   0  0  0  0  0  0  0  0  0  0  0  0
  -25.0078  -26.8630   22.1828 C   0  0  0  0  0  0  0  0  0  0  0  0
  -18.7707  -25.0400   21.0963 C   0  0  0  0  0  0  0  0  0  0  0  0
  -25.2335  -27.8885   21.2536 C   0  0  0  0  0  0  0  0  0  0  0  0
  -24.3727  -12.1269   20.2023 C   0  0  0  0  0  0  0  0  0  0  0  0
  -27.3842  -26.8984   20.7019 C   0  0  0  0  0  0  0  0  0  0  0  0
  -23.1757  -10.1400   20.5783 C   0  0  0  0  0  0  0  0  0  0  0  0
  -22.7407   -7.8636   22.1312 C   0  0  0  0  0  0  0  0  0  0  0  0
  -21.9304   -9.9264   21.1693 C   0  0  0  0  0  0  0  0  0  0  0  0
  -27.4188  -14.7934   21.4307 C   0  0  0  0  0  0  0  0  0  0  0  0
  -30.0155  -23.1791   16.8023 C   0  0  0  0  0  0  0  0  0  0  0  0
  -29.6007  -20.5429   16.7271 C   0  0  0  0  0  0  0  0  0  0  0  0
  -29.2808  -21.2811   17.8453 C   0  0  0  0  0  0  0  0  0  0  0  0
  -29.3061  -15.6697   22.1417 C   0  0  0  0  0  0  0  0  0  0  0  0
  -29.3363  -13.1746   21.9944 C   0  0  0  0  0  0  0  0  0  0  0  0
  -21.9804  -26.8668   21.2140 C   0  0  0  0  0  0  0  0  0  0  0  0
  -22.1399  -30.0095   22.0017 C   0  0  0  0  0  0  0  0  0  0  0  0
  -24.0724  -32.7801   22.4870 C   0  0  0  0  0  0  0  0  0  0  0  0
  -28.3432  -21.2322   20.1830 C   0  0  0  0  0  0  0  0  0  0  0  0
  -16.9700  -26.6388   20.2644 C   0  0  0  0  0  0  0  0  0  0  0  0
  -23.7508  -26.8465   23.0088 C   0  0  0  0  0  0  0  0  0  0  0  0
  -24.2266  -28.9843   21.0217 C   0  0  0  0  0  0  0  0  0  0  0  0
  -18.1064  -27.5936   19.9079 C   0  0  0  0  0  0  0  0  0  0  0  0
  -28.2354  -20.1161   23.5623 C   0  0  0  0  0  0  0  0  0  0  0  0
  -19.3038  -26.8195   19.3658 C   0  0  0  0  0  0  0  0  0  0  0  0
  -28.1381  -18.5938   23.4384 C   0  0  0  0  0  0  0  0  0  0  0  0
  -27.4455  -20.8261   22.4643 C   0  0  0  0  0  0  0  0  0  0  0  0
  -27.6682  -18.8789   20.9716 C   0  0  0  0  0  0  0  0  0  0  0  0
  -19.8547  -25.8484   20.4169 C   0  0  1  0  0  0  0  0  0  0  0  0
  -22.6007  -27.6121   22.3618 C   0  0  1  0  0  0  0  0  0  0  0  0
  -28.5010  -18.1197   22.0174 C   0  0  2  0  0  0  0  0  0  0  0  0
  -23.9145  -35.2113   23.0884 C   0  0  0  0  0  0  0  0  0  0  0  0
  -21.1295  -30.6364   19.1917 C   0  0  0  0  0  0  0  0  0  0  0  0
  -21.8882  -32.9994   19.5214 C   0  0  0  0  0  0  0  0  0  0  0  0
  -20.1225  -32.0404   20.9998 C   0  0  0  0  0  0  0  0  0  0  0  0
  -25.7300  -32.4077   24.9104 C   0  0  0  0  0  0  0  0  0  0  0  0
  -30.2538  -24.6601   16.8304 C   0  0  0  0  0  0  0  0  0  0  0  0
  -29.5339  -26.8508   17.7904 C   0  0  0  0  0  0  0  0  0  0  0  0
  -28.4711  -27.4812   18.6685 C   0  0  0  0  0  0  0  0  0  1  0  0
  -22.5171  -31.2765   21.2727 C   0  0  1  0  0  0  0  0  0  0  0  0
  -24.1099  -33.7974   23.6131 C   0  0  2  0  0  0  0  0  0  0  0  0
  -21.4327  -31.7166   20.2491 C   0  0  0  0  0  0  0  0  0  0  0  0
  -30.1344  -21.1094   15.6268 N   0  0  0  0  0  0  0  0  0  0  0  0
  -27.1951  -16.1102   21.4364 N   0  0  0  0  0  0  0  0  0  0  0  0
  -29.4822  -22.6126   17.9028 N   0  0  0  0  0  0  0  0  0  0  0  0
  -28.3610  -16.6158   21.8736 N   0  0  0  0  0  0  0  0  0  0  0  0
  -23.0106  -28.9211   21.8493 N   0  0  0  0  0  0  0  0  0  0  0  0
  -27.8455  -20.3291   21.1460 N   0  0  0  0  0  0  0  0  0  0  0  0
  -29.3681  -19.1486   16.7198 N   0  0  0  0  0  0  0  0  0  0  0  0
  -30.5347  -16.0050   22.5895 N   0  0  0  0  0  0  0  0  0  0  0  0
  -28.5892  -12.0360   21.6628 N   0  0  0  0  0  0  0  0  0  0  0  0
  -28.7220  -20.6401   18.9786 N   0  0  0  0  0  0  0  0  0  0  0  0
  -20.6455  -26.5606   21.3977 N   0  0  0  0  0  0  0  0  0  0  0  0
  -22.8051  -32.2693   22.3021 N   0  0  0  0  0  0  0  0  0  0  0  0
  -25.4189  -33.7363   24.3230 N   0  3  0  0  0  0  0  0  0  0  0  0
  -29.2872  -25.3898   17.6947 N   0  3  0  0  0  0  0  0  0  0  0  0
  -30.5114  -13.0378   22.4116 O   0  0  0  0  0  0  0  0  0  0  0  0
  -22.6620  -26.5913   20.2336 O   0  0  0  0  0  0  0  0  0  0  0  0
  -21.1145  -29.9885   22.6869 O   0  0  0  0  0  0  0  0  0  0  0  0
  -25.0671  -32.4724   21.8340 O   0  0  0  0  0  0  0  0  0  0  0  0
  -28.4527  -22.4381   20.4196 O   0  0  0  0  0  0  0  0  0  0  0  0
  -23.3929  -11.2691   19.8066 O   0  0  0  0  0  0  0  0  0  0  0  0
  -28.5359  -26.9161   19.9773 O   0  0  0  0  0  0  0  0  0  1  0  0
  -22.5315   -6.7698   22.8755 F   0  0  0  0  0  0  0  0  0  0  0  0
  -20.9388  -10.8105   20.9938 F   0  0  0  0  0  0  0  0  0  0  0  0
  1  2  1  0  0  0  0
  1  5  2  0  0  0  0
  2  6  2  0  0  0  0
  3  8  2  0  0  0  0
  3 16  1  0  0  0  0
  4  9  1  0  0  0  0
  4 16  2  0  0  0  0
  5 18  1  0  0  0  0
  6 20  1  0  0  0  0
  7 10  2  0  0  0  0
  7 19  1  0  0  0  0
  8 22  1  0  0  0  0
  9 22  2  0  0  0  0
 10 23  1  0  0  0  0
 11 12  2  0  0  0  0
 11 24  1  0  0  0  0
 12 25  1  0  0  0  0
 13 21  1  0  0  0  0
 13 23  2  0  0  0  0
 14 25  2  0  0  0  0
 14 26  1  0  0  0  0
 15 28  1  0  0  0  0
 15 60  2  0  0  0  0
 16 27  1  0  0  0  0
 17 27  1  0  0  0  0
 17 31  2  0  0  0  0
 17 32  1  0  0  0  0
 18 20  2  0  0  0  0
 18 37  1  0  0  0  0
 19 21  2  0  0  0  0
 19 38  1  0  0  0  0
 20 46  1  0  0  0  0
 21 39  1  0  0  0  0
 22 79  1  0  0  0  0
 23 80  1  0  0  0  0
 24 26  2  0  0  0  0
 24 79  1  0  0  0  0
 25 81  1  0  0  0  0
 26 82  1  0  0  0  0
 27 61  2  0  0  0  0
 28 54  1  0  0  0  0
 28 62  2  0  0  0  0
 29 30  2  0  0  0  0
 29 60  1  0  0  0  0
 29 66  1  0  0  0  0
 30 62  1  0  0  0  0
 30 69  1  0  0  0  0
 31 63  1  0  0  0  0
 31 67  1  0  0  0  0
 32 68  1  0  0  0  0
 32 74  2  0  0  0  0
 33 47  1  0  0  0  0
 33 70  1  0  0  0  0
 33 75  2  0  0  0  0
 34 57  1  0  0  0  0
 34 64  1  0  0  0  0
 34 76  2  0  0  0  0
 35 58  1  0  0  0  0
 35 71  1  0  0  0  0
 35 77  2  0  0  0  0
 36 65  1  0  0  0  0
 36 69  1  0  0  0  0
 36 78  2  0  0  0  0
 37 40  1  0  0  0  0
 38 47  1  0  0  0  0
 39 64  1  0  0  0  0
 40 42  1  0  0  0  0
 41 43  1  0  0  0  0
 41 44  1  0  0  0  0
 42 46  1  0  0  0  0
 43 48  1  0  0  0  0
 44 65  1  0  0  0  0
 45 48  1  0  0  0  0
 45 65  1  0  0  0  0
 46 70  1  0  0  0  0
 47 64  1  0  0  0  0
 48 63  1  0  0  0  0
 49 58  1  0  0  0  0
 50 59  1  0  0  0  0
 51 59  1  0  0  0  0
 52 59  1  0  0  0  0
 53 72  1  0  0  0  0
 54 73  1  0  0  0  0
 55 56  1  0  0  0  0
 55 73  1  0  0  0  0
 56 80  1  0  0  0  0
 57 59  1  0  0  0  0
 57 71  1  0  0  0  0
 58 72  1  0  0  0  0
 61 63  1  0  0  0  0
M  CHG  2  72   1  73   1
M  ISO  4  36 100  56 101  69 100  80 101
M  END
> <Batch ID>
0187

> <Smiles>
CNC(C)C(=O)NC(C(=O)N1Cc2cc([101O:1][101CH2:1]CNCc3cnc(N)c([100NH:0][100C:0](=O)N4CCCC(n5nc(-c6ccc(Oc7ccc(F)cc7F)cc6)c(C(N)=O)c5N)C4)n3)ccc2CC1C(=O)NC1CCCc2ccccc21)C(C)(C)C

> <Shape>
0.268

> <Color>
0.072

> <Negative vol penalty>
0.000

$$$$

  -OEChem-04052323173D

 85 94  0     1  0  0  0  0  0999 V2000
  -26.6084  -38.4767   22.7727 C   0  0  0  0  0  0  0  0  0  0  0  0
  -27.2406  -37.5357   21.9662 C   0  0  0  0  0  0  0  0  0  0  0  0
  -24.5310  -10.1912   23.1494 C   0  0  0  0  0  0  0  0  0  0  0  0
  -24.4650   -8.6836   21.2627 C   0  0  0  0  0  0  0  0  0  0  0  0
  -25.8826  -38.0616   23.8885 C   0  0  0  0  0  0  0  0  0  0  0  0
  -27.1483  -36.1792   22.2758 C   0  0  0  0  0  0  0  0  0  0  0  0
  -26.8841  -29.7432   19.1414 C   0  0  0  0  0  0  0  0  0  0  0  0
  -23.3884   -9.5862   23.6729 C   0  0  0  0  0  0  0  0  0  0  0  0
  -23.3224   -8.0785   21.7862 C   0  0  0  0  0  0  0  0  0  0  0  0
  -27.5102  -28.4982   19.1835 C   0  0  0  0  0  0  0  0  0  0  0  0
  -22.5801   -5.8197   24.1877 C   0  0  0  0  0  0  0  0  0  0  0  0
  -22.5278   -4.4259   24.1851 C   0  0  0  0  0  0  0  0  0  0  0  0
  -26.1634  -27.8921   21.0908 C   0  0  0  0  0  0  0  0  0  0  0  0
  -20.5463   -4.5030   22.8048 C   0  0  0  0  0  0  0  0  0  0  0  0
  -28.9199  -23.7091   18.5098 C   0  0  0  0  0  0  0  0  0  0  0  0
  -25.0693   -9.7400   21.9443 C   0  0  0  0  0  0  0  0  0  0  0  0
  -27.5886  -10.0047   21.6436 C   0  0  0  0  0  0  0  0  0  0  0  0
  -25.7734  -36.6987   24.2064 C   0  0  0  0  0  0  0  0  0  0  0  0
  -25.8990  -30.0766   20.0820 C   0  0  0  0  0  0  0  0  0  0  0  0
  -26.4215  -35.7457   23.3976 C   0  0  0  0  0  0  0  0  0  0  0  0
  -25.5245  -29.1410   21.0569 C   0  0  0  0  0  0  0  0  0  0  0  0
  -29.2849  -24.7178   19.3779 C   0  0  0  0  0  0  0  0  0  0  0  0
  -22.7841   -8.5298   22.9913 C   0  0  0  0  0  0  0  0  0  0  0  0
  -27.1519  -27.5735   20.1600 C   0  0  0  0  0  0  0  0  0  0  0  0
  -21.6155   -6.5552   23.4990 C   0  0  0  0  0  0  0  0  0  0  0  0
  -21.5109   -3.7675   23.4936 C   0  0  0  0  0  0  0  0  0  0  0  0
  -20.5987   -5.8968   22.8075 C   0  0  0  0  0  0  0  0  0  0  0  0
  -26.2492  -10.3650   21.4028 C   0  0  0  0  0  0  0  0  0  0  0  0
  -30.1556  -24.3533   20.3845 C   0  0  0  0  0  0  0  0  0  0  0  0
  -28.3230  -10.8983   20.9028 C   0  0  0  0  0  0  0  0  0  0  0  0
  -30.2089  -22.2094   19.6308 C   0  0  0  0  0  0  0  0  0  0  0  0
  -28.1214   -8.9560   22.4634 C   0  0  0  0  0  0  0  0  0  0  0  0
  -25.6084  -32.3021   22.3329 C   0  0  0  0  0  0  0  0  0  0  0  0
  -22.6149  -31.0823   22.6043 C   0  0  0  0  0  0  0  0  0  0  0  0
  -20.5151  -28.4304   22.1518 C   0  0  0  0  0  0  0  0  0  0  0  0
  -29.4712  -15.8333   19.1329 C   0  0  0  0  0  0  0  0  0  0  0  0
  -25.0173  -36.3015   25.4495 C   0  0  0  0  0  0  0  0  0  0  0  0
  -25.2142  -31.4137   20.0067 C   0  0  0  0  0  0  0  0  0  0  0  0
  -24.4584  -29.4423   22.0772 C   0  0  0  0  0  0  0  0  0  0  0  0
  -24.6565  -34.8190   25.4954 C   0  0  0  0  0  0  0  0  0  0  0  0
  -26.9010  -14.2168   17.3694 C   0  0  0  0  0  0  0  0  0  0  0  0
  -25.8621  -33.9642   25.1178 C   0  0  0  0  0  0  0  0  0  0  0  0
  -26.6039  -13.0303   18.2860 C   0  0  0  0  0  0  0  0  0  0  0  0
  -28.9343  -19.3102   19.2406 C   0  0  0  0  0  0  0  0  0  0  0  0
  -31.3712  -18.7248   18.9463 C   0  0  0  0  0  0  0  0  0  0  0  0
  -27.1548  -15.5019   18.1595 C   0  0  0  0  0  0  0  0  0  0  0  0
  -28.5565  -18.0830   18.4058 C   0  0  0  0  0  0  0  0  0  0  0  0
  -30.9476  -17.5298   18.0968 C   0  0  0  0  0  0  0  0  0  0  0  0
  -27.9047  -14.1846   20.1142 C   0  0  0  0  0  0  0  0  0  0  0  0
  -26.3240  -34.2634   23.6865 C   0  0  1  0  0  0  0  0  0  0  0  0
  -24.5884  -31.8400   21.3311 C   0  0  1  0  0  0  0  0  0  0  0  0
  -27.7028  -12.8664   19.3511 C   0  0  1  0  0  0  0  0  0  0  0  0
  -30.3223  -19.8373   18.8693 C   0  0  0  0  0  0  0  0  0  0  0  0
  -30.6222  -25.3628   21.3809 C   0  0  0  0  0  0  0  0  0  0  0  0
  -18.1339  -27.7208   22.5037 C   0  0  0  0  0  0  0  0  0  0  0  0
  -23.1612  -30.7366   25.5862 C   0  0  0  0  0  0  0  0  0  0  0  0
  -21.1913  -29.1954   25.6974 C   0  0  0  0  0  0  0  0  0  0  0  0
  -20.8718  -31.5793   25.0359 C   0  0  0  0  0  0  0  0  0  0  0  0
  -20.0948  -27.9951   19.2548 C   0  0  0  0  0  0  0  0  0  0  0  0
  -28.7609  -26.0980   19.2166 C   0  0  0  0  0  0  0  0  0  1  0  0
  -21.9787  -29.9819   23.4187 C   0  0  1  0  0  0  0  0  0  0  0  0
  -19.1316  -28.3349   21.5341 C   0  0  2  0  0  0  0  0  0  0  0  0
  -21.8222  -30.3680   24.9166 C   0  0  0  0  0  0  0  0  0  0  0  0
  -29.3645  -22.4390   18.6072 N   0  0  0  0  0  0  0  0  0  0  0  0
  -26.1363  -11.4063   20.5740 N   0  0  0  0  0  0  0  0  0  0  0  0
  -30.6391  -23.1035   20.5413 N   0  0  0  0  0  0  0  0  0  0  0  0
  -27.4142  -11.7081   20.2876 N   0  0  0  0  0  0  0  0  0  0  0  0
  -23.8225  -30.7655   21.9661 N   0  0  0  0  0  0  0  0  0  0  0  0
  -28.1808  -15.2857   19.1891 N   0  0  0  0  0  0  0  0  0  0  0  0
  -29.6126  -17.0628   18.4724 N   0  0  0  0  0  0  0  0  0  0  0  0
  -29.6510  -11.0625   20.7243 N   0  0  0  0  0  0  0  0  0  0  0  0
  -27.2263   -8.1294   23.1562 N   0  0  0  0  0  0  0  0  0  0  0  0
  -30.6854  -20.9170   19.7605 N   0  0  0  0  0  0  0  0  0  0  0  0
  -25.4527  -33.6169   22.7286 N   0  0  0  0  0  0  0  0  0  0  0  0
  -20.7231  -29.6543   22.7518 N   0  0  0  0  0  0  0  0  0  0  0  0
  -19.1704  -27.4942   20.3043 N   0  3  0  0  0  0  0  0  0  0  0  0
  -29.3550   -8.7682   22.5913 O   0  0  0  0  0  0  0  0  0  0  0  0
  -26.4717  -31.5231   22.7194 O   0  0  0  0  0  0  0  0  0  0  0  0
  -22.0573  -32.1802   22.5310 O   0  0  0  0  0  0  0  0  0  0  0  0
  -21.3283  -27.5099   22.1097 O   0  0  0  0  0  0  0  0  0  0  0  0
  -30.4404  -15.2577   19.6432 O   0  0  0  0  0  0  0  0  0  0  0  0
  -21.6694   -7.9390   23.5019 O   0  0  0  0  0  0  0  0  0  0  0  0
  -27.7657  -26.3503   20.2040 O   0  0  0  0  0  0  0  0  0  1  0  0
  -21.4616   -2.4289   23.4898 F   0  0  0  0  0  0  0  0  0  0  0  0
  -19.6699   -6.5980   22.1430 F   0  0  0  0  0  0  0  0  0  0  0  0
  1  2  1  0  0  0  0
  1  5  2  0  0  0  0
  2  6  2  0  0  0  0
  3  8  2  0  0  0  0
  3 16  1  0  0  0  0
  4  9  1  0  0  0  0
  4 16  2  0  0  0  0
  5 18  1  0  0  0  0
  6 20  1  0  0  0  0
  7 10  2  0  0  0  0
  7 19  1  0  0  0  0
  8 23  1  0  0  0  0
  9 23  2  0  0  0  0
 10 24  1  0  0  0  0
 11 12  2  0  0  0  0
 11 25  1  0  0  0  0
 12 26  1  0  0  0  0
 13 21  1  0  0  0  0
 13 24  2  0  0  0  0
 14 26  2  0  0  0  0
 14 27  1  0  0  0  0
 15 22  1  0  0  0  0
 15 64  2  0  0  0  0
 16 28  1  0  0  0  0
 17 28  1  0  0  0  0
 17 30  2  0  0  0  0
 17 32  1  0  0  0  0
 18 20  2  0  0  0  0
 18 37  1  0  0  0  0
 19 21  2  0  0  0  0
 19 38  1  0  0  0  0
 20 50  1  0  0  0  0
 21 39  1  0  0  0  0
 22 29  2  0  0  0  0
 22 60  1  0  0  0  0
 23 82  1  0  0  0  0
 24 83  1  0  0  0  0
 25 27  2  0  0  0  0
 25 82  1  0  0  0  0
 26 84  1  0  0  0  0
 27 85  1  0  0  0  0
 28 65  2  0  0  0  0
 29 54  1  0  0  0  0
 29 66  1  0  0  0  0
 30 67  1  0  0  0  0
 30 71  1  0  0  0  0
 31 64  1  0  0  0  0
 31 66  2  0  0  0  0
 31 73  1  0  0  0  0
 32 72  1  0  0  0  0
 32 77  2  0  0  0  0
 33 51  1  0  0  0  0
 33 74  1  0  0  0  0
 33 78  2  0  0  0  0
 34 61  1  0  0  0  0
 34 68  1  0  0  0  0
 34 79  2  0  0  0  0
 35 62  1  0  0  0  0
 35 75  1  0  0  0  0
 35 80  2  0  0  0  0
 36 69  1  0  0  0  0
 36 70  1  0  0  0  0
 36 81  2  0  0  0  0
 37 40  1  0  0  0  0
 38 51  1  0  0  0  0
 39 68  1  0  0  0  0
 40 42  1  0  0  0  0
 41 43  1  0  0  0  0
 41 46  1  0  0  0  0
 42 50  1  0  0  0  0
 43 52  1  0  0  0  0
 44 47  1  0  0  0  0
 44 53  1  0  0  0  0
 45 48  1  0  0  0  0
 45 53  1  0  0  0  0
 46 69  1  0  0  0  0
 47 70  1  0  0  0  0
 48 70  1  0  0  0  0
 49 52  1  0  0  0  0
 49 69  1  0  0  0  0
 50 74  1  0  0  0  0
 51 68  1  0  0  0  0
 52 67  1  0  0  0  0
 53 73  1  0  0  0  0
 55 62  1  0  0  0  0
 56 63  1  0  0  0  0
 57 63  1  0  0  0  0
 58 63  1  0  0  0  0
 59 76  1  0  0  0  0
 60 83  1  0  0  0  0
 61 63  1  0  0  0  0
 61 75  1  0  0  0  0
 62 76  1  0  0  0  0
 65 67  1  0  0  0  0
M  CHG  1  76   1
M  ISO  4  36 100  60 101  70 100  83 101
M  END
> <Batch ID>
0187

> <Smiles>
CNC(C)C(=O)NC(C(=O)N1Cc2cc([101O:1][101CH2:1]c3cnc(NC4CC[100N:0]([100C:0](=O)N5CCCC(n6nc(-c7ccc(Oc8ccc(F)cc8F)cc7)c(C(N)=O)c6N)C5)CC4)nc3C)ccc2CC1C(=O)NC1CCCc2ccccc21)C(C)(C)C

> <Shape>
0.330

> <Color>
0.103

> <Negative vol penalty>
0.000

$$$$

  -OEChem-04052323173D

 84 93  0     1  0  0  0  0  0999 V2000
  -36.8259  -15.6774   24.3902 C   0  0  0  0  0  0  0  0  0  0  0  0
  -36.0458  -16.3419   23.4494 C   0  0  0  0  0  0  0  0  0  0  0  0
  -19.9229  -27.0610   21.7756 C   0  0  0  0  0  0  0  0  0  0  0  0
  -19.5283  -28.6613   23.5420 C   0  0  0  0  0  0  0  0  0  0  0  0
  -36.5805  -14.3346   24.6743 C   0  0  0  0  0  0  0  0  0  0  0  0
  -35.0203  -15.6638   22.7913 C   0  0  0  0  0  0  0  0  0  0  0  0
  -30.7440  -18.3659   22.5537 C   0  0  0  0  0  0  0  0  0  0  0  0
  -18.8677  -26.2802   22.2472 C   0  0  0  0  0  0  0  0  0  0  0  0
  -18.4730  -27.8806   24.0136 C   0  0  0  0  0  0  0  0  0  0  0  0
  -30.6815  -19.3760   21.5948 C   0  0  0  0  0  0  0  0  0  0  0  0
  -15.4902  -26.2991   22.0884 C   0  0  0  0  0  0  0  0  0  0  0  0
  -14.5882  -25.7943   21.1518 C   0  0  0  0  0  0  0  0  0  0  0  0
  -29.4060  -17.9212   20.1541 C   0  0  0  0  0  0  0  0  0  0  0  0
  -15.1421  -23.5431   21.8316 C   0  0  0  0  0  0  0  0  0  0  0  0
  -31.1100  -22.1918   17.4824 C   0  0  0  0  0  0  0  0  0  0  0  0
  -20.2533  -28.2516   22.4230 C   0  0  0  0  0  0  0  0  0  0  0  0
  -21.2767  -30.0930   20.9845 C   0  0  0  0  0  0  0  0  0  0  0  0
  -35.5453  -13.6423   24.0265 C   0  0  0  0  0  0  0  0  0  0  0  0
  -30.1462  -17.1200   22.3151 C   0  0  0  0  0  0  0  0  0  0  0  0
  -34.7617  -14.3102   23.0661 C   0  0  0  0  0  0  0  0  0  0  0  0
  -29.4601  -16.8978   21.1127 C   0  0  0  0  0  0  0  0  0  0  0  0
  -18.1427  -26.6900   23.3662 C   0  0  0  0  0  0  0  0  0  0  0  0
  -30.0150  -19.1528   20.3936 C   0  0  0  0  0  0  0  0  0  0  0  0
  -16.2182  -25.4258   22.8966 C   0  0  0  0  0  0  0  0  0  0  0  0
  -14.4141  -24.4164   21.0234 C   0  0  0  0  0  0  0  0  0  0  0  0
  -16.0442  -24.0478   22.7682 C   0  0  0  0  0  0  0  0  0  0  0  0
  -21.3436  -29.0582   21.9366 C   0  0  0  0  0  0  0  0  0  0  0  0
  -30.8591  -23.1304   16.5023 C   0  0  0  0  0  0  0  0  0  0  0  0
  -30.3893  -22.3404   18.6498 C   0  0  0  0  0  0  0  0  0  0  0  0
  -22.5708  -30.5390   20.8706 C   0  0  0  0  0  0  0  0  0  0  0  0
  -29.3350  -24.1773   17.8246 C   0  0  0  0  0  0  0  0  0  0  0  0
  -20.1459  -30.6053   20.2672 C   0  0  0  0  0  0  0  0  0  0  0  0
  -31.2053  -14.1323   22.0794 C   0  0  0  0  0  0  0  0  0  0  0  0
  -28.0413  -13.4370   21.9119 C   0  0  0  0  0  0  0  0  0  0  0  0
  -24.8796  -14.4867   21.1714 C   0  0  0  0  0  0  0  0  0  0  0  0
  -27.7814  -27.6577   22.1176 C   0  0  0  0  0  0  0  0  0  0  0  0
  -35.3484  -12.1786   24.3323 C   0  0  0  0  0  0  0  0  0  0  0  0
  -30.1996  -16.0499   23.3707 C   0  0  0  0  0  0  0  0  0  0  0  0
  -28.7843  -15.5848   20.8162 C   0  0  0  0  0  0  0  0  0  0  0  0
  -34.0012  -11.6344   23.8641 C   0  0  0  0  0  0  0  0  0  0  0  0
  -26.6419  -30.9187   23.3588 C   0  0  0  0  0  0  0  0  0  0  0  0
  -33.7095  -12.0869   22.4369 C   0  0  0  0  0  0  0  0  0  0  0  0
  -25.1368  -30.8758   23.0912 C   0  0  0  0  0  0  0  0  0  0  0  0
  -26.4453  -26.3038   18.9714 C   0  0  0  0  0  0  0  0  0  0  0  0
  -27.2151  -29.5285   23.6242 C   0  0  0  0  0  0  0  0  0  0  0  0
  -26.1145  -26.7646   20.3872 C   0  0  0  0  0  0  0  0  0  0  0  0
  -25.3987  -28.4880   22.3239 C   0  0  0  0  0  0  0  0  0  0  0  0
  -28.4290  -26.1363   20.2717 C   0  0  0  0  0  0  0  0  0  0  0  0
  -33.6242  -13.6155   22.3494 C   0  0  1  0  0  0  0  0  0  0  0  0
  -29.9965  -14.6460   22.8092 C   0  0  1  0  0  0  0  0  0  0  0  0
  -24.7982  -29.8593   21.9848 C   0  0  1  0  0  0  0  0  0  0  0  0
  -27.6453  -25.3917   19.2014 C   0  0  2  0  0  0  0  0  0  0  0  0
  -31.5907  -23.0518   15.2046 C   0  0  0  0  0  0  0  0  0  0  0  0
  -22.5037  -13.6822   21.0967 C   0  0  0  0  0  0  0  0  0  0  0  0
  -28.6397  -11.9166   19.3350 C   0  0  0  0  0  0  0  0  0  0  0  0
  -26.1896  -11.9612   18.8220 C   0  0  0  0  0  0  0  0  0  0  0  0
  -27.0138  -10.7841   20.8610 C   0  0  0  0  0  0  0  0  0  0  0  0
  -24.0167  -16.4888   23.1729 C   0  0  0  0  0  0  0  0  0  0  0  0
  -30.5926  -21.3732   19.7674 C   0  0  0  0  0  0  0  0  0  1  0  0
  -27.0319  -13.3114   20.7964 C   0  0  1  0  0  0  0  0  0  0  0  0
  -23.5732  -14.3652   21.9349 C   0  0  2  0  0  0  0  0  0  0  0  0
  -27.2330  -12.0175   19.9581 C   0  0  0  0  0  0  0  0  0  0  0  0
  -22.5822  -28.8585   22.3949 N   0  0  0  0  0  0  0  0  0  0  0  0
  -29.9749  -24.1401   16.6403 N   0  0  0  0  0  0  0  0  0  0  0  0
  -29.4905  -23.3252   18.8557 N   0  0  0  0  0  0  0  0  0  0  0  0
  -23.3056  -29.7739   21.7278 N   0  0  0  0  0  0  0  0  0  0  0  0
  -28.8698  -14.5676   21.8772 N   0  0  0  0  0  0  0  0  0  0  0  0
  -26.8423  -28.5954   22.5608 N   0  0  0  0  0  0  0  0  0  0  0  0
  -27.4113  -26.8191   21.0670 N   0  0  0  0  0  0  0  0  0  0  0  0
  -23.1404  -31.5071   20.1218 N   0  0  0  0  0  0  0  0  0  0  0  0
  -18.8889  -30.0325   20.5043 N   0  0  0  0  0  0  0  0  0  0  0  0
  -28.4171  -25.2038   18.0014 N   0  0  0  0  0  0  0  0  0  0  0  0
  -32.3494  -14.0802   22.8527 N   0  0  0  0  0  0  0  0  0  0  0  0
  -25.7179  -13.4207   21.4207 N   0  0  0  0  0  0  0  0  0  0  0  0
  -23.0741  -15.7141   22.3254 N   0  3  0  0  0  0  0  0  0  0  0  0
  -20.2499  -31.5321   19.4283 O   0  0  0  0  0  0  0  0  0  0  0  0
  -31.1070  -13.8059   20.9023 O   0  0  0  0  0  0  0  0  0  0  0  0
  -28.0880  -12.5678   22.7859 O   0  0  0  0  0  0  0  0  0  0  0  0
  -25.1297  -15.4307   20.4253 O   0  0  0  0  0  0  0  0  0  0  0  0
  -28.9175  -27.6033   22.6069 O   0  0  0  0  0  0  0  0  0  0  0  0
  -17.1128  -25.9285   23.8265 O   0  0  0  0  0  0  0  0  0  0  0  0
  -29.9526  -20.1436   19.4491 O   0  0  0  0  0  0  0  0  0  1  0  0
  -13.5468  -23.9318   20.1250 F   0  0  0  0  0  0  0  0  0  0  0  0
  -16.7399  -23.2040   23.5426 F   0  0  0  0  0  0  0  0  0  0  0  0
  1  2  1  0  0  0  0
  1  5  2  0  0  0  0
  2  6  2  0  0  0  0
  3  8  2  0  0  0  0
  3 16  1  0  0  0  0
  4  9  1  0  0  0  0
  4 16  2  0  0  0  0
  5 18  1  0  0  0  0
  6 20  1  0  0  0  0
  7 10  2  0  0  0  0
  7 19  1  0  0  0  0
  8 22  1  0  0  0  0
  9 22  2  0  0  0  0
 10 23  1  0  0  0  0
 11 12  2  0  0  0  0
 11 24  1  0  0  0  0
 12 25  1  0  0  0  0
 13 21  1  0  0  0  0
 13 23  2  0  0  0  0
 14 25  2  0  0  0  0
 14 26  1  0  0  0  0
 15 28  2  0  0  0  0
 15 29  1  0  0  0  0
 16 27  1  0  0  0  0
 17 27  1  0  0  0  0
 17 30  2  0  0  0  0
 17 32  1  0  0  0  0
 18 20  2  0  0  0  0
 18 37  1  0  0  0  0
 19 21  2  0  0  0  0
 19 38  1  0  0  0  0
 20 49  1  0  0  0  0
 21 39  1  0  0  0  0
 22 81  1  0  0  0  0
 23 82  1  0  0  0  0
 24 26  2  0  0  0  0
 24 81  1  0  0  0  0
 25 83  1  0  0  0  0
 26 84  1  0  0  0  0
 27 63  2  0  0  0  0
 28 53  1  0  0  0  0
 28 64  1  0  0  0  0
 29 59  1  0  0  0  0
 29 65  2  0  0  0  0
 30 66  1  0  0  0  0
 30 70  1  0  0  0  0
 31 64  2  0  0  0  0
 31 65  1  0  0  0  0
 31 72  1  0  0  0  0
 32 71  1  0  0  0  0
 32 76  2  0  0  0  0
 33 50  1  0  0  0  0
 33 73  1  0  0  0  0
 33 77  2  0  0  0  0
 34 60  1  0  0  0  0
 34 67  1  0  0  0  0
 34 78  2  0  0  0  0
 35 61  1  0  0  0  0
 35 74  1  0  0  0  0
 35 79  2  0  0  0  0
 36 68  1  0  0  0  0
 36 69  1  0  0  0  0
 36 80  2  0  0  0  0
 37 40  1  0  0  0  0
 38 50  1  0  0  0  0
 39 67  1  0  0  0  0
 40 42  1  0  0  0  0
 41 43  1  0  0  0  0
 41 45  1  0  0  0  0
 42 49  1  0  0  0  0
 43 51  1  0  0  0  0
 44 46  1  0  0  0  0
 44 52  1  0  0  0  0
 45 68  1  0  0  0  0
 46 69  1  0  0  0  0
 47 51  1  0  0  0  0
 47 68  1  0  0  0  0
 48 52  1  0  0  0  0
 48 69  1  0  0  0  0
 49 73  1  0  0  0  0
 50 67  1  0  0  0  0
 51 66  1  0  0  0  0
 52 72  1  0  0  0  0
 54 61  1  0  0  0  0
 55 62  1  0  0  0  0
 56 62  1  0  0  0  0
 57 62  1  0  0  0  0
 58 75  1  0  0  0  0
 59 82  1  0  0  0  0
 60 62  1  0  0  0  0
 60 74  1  0  0  0  0
 61 75  1  0  0  0  0
 63 66  1  0  0  0  0
M  CHG  1  75   1
M  ISO  4  36 100  59 101  69 100  82 101
M  END
> <Batch ID>
0187

> <Smiles>
CNC(C)C(=O)NC(C(=O)N1Cc2cc([101O:1][101CH2:1]c3cc(C)nc(NC4CC[100N:0]([100C:0](=O)N5CCCC(n6nc(-c7ccc(Oc8ccc(F)cc8F)cc7)c(C(N)=O)c6N)C5)C4)n3)ccc2CC1C(=O)NC1CCCc2ccccc21)C(C)(C)C

> <Shape>
0.261

> <Color>
0.062

> <Negative vol penalty>
0.000

$$$$

  -OEChem-04052323173D

 84 93  0     1  0  0  0  0  0999 V2000
  -25.9719  -37.2059   23.2604 C   0  0  0  0  0  0  0  0  0  0  0  0
  -26.6678  -36.1537   22.6737 C   0  0  0  0  0  0  0  0  0  0  0  0
  -24.6766  -10.1860   23.3288 C   0  0  0  0  0  0  0  0  0  0  0  0
  -24.2801   -8.9375   21.2987 C   0  0  0  0  0  0  0  0  0  0  0  0
  -24.9888  -36.9442   24.2139 C   0  0  0  0  0  0  0  0  0  0  0  0
  -26.3817  -34.8393   23.0410 C   0  0  0  0  0  0  0  0  0  0  0  0
  -26.5222  -29.8945   19.4306 C   0  0  0  0  0  0  0  0  0  0  0  0
  -23.5845   -9.5584   23.9280 C   0  0  0  0  0  0  0  0  0  0  0  0
  -23.1881   -8.3099   21.8980 C   0  0  0  0  0  0  0  0  0  0  0  0
  -27.4821  -28.9023   19.2358 C   0  0  0  0  0  0  0  0  0  0  0  0
  -20.5143   -6.1133   23.0134 C   0  0  0  0  0  0  0  0  0  0  0  0
  -20.3860   -4.7344   22.8466 C   0  0  0  0  0  0  0  0  0  0  0  0
  -26.3344  -27.4895   20.8189 C   0  0  0  0  0  0  0  0  0  0  0  0
  -22.5272   -4.4057   23.9163 C   0  0  0  0  0  0  0  0  0  0  0  0
  -25.0243   -9.8756   22.0141 C   0  0  0  0  0  0  0  0  0  0  0  0
  -27.4910  -10.0896   21.3998 C   0  0  0  0  0  0  0  0  0  0  0  0
  -24.6838  -35.6254   24.5859 C   0  0  0  0  0  0  0  0  0  0  0  0
  -25.4655  -29.6955   20.3307 C   0  0  0  0  0  0  0  0  0  0  0  0
  -25.3945  -34.5598   24.0013 C   0  0  0  0  0  0  0  0  0  0  0  0
  -25.3610  -28.4797   21.0214 C   0  0  0  0  0  0  0  0  0  0  0  0
  -22.8403   -8.6203   23.2127 C   0  0  0  0  0  0  0  0  0  0  0  0
  -27.3899  -27.7007   19.9321 C   0  0  0  0  0  0  0  0  0  0  0  0
  -21.6492   -6.6384   23.6316 C   0  0  0  0  0  0  0  0  0  0  0  0
  -21.3924   -3.8806   23.2980 C   0  0  0  0  0  0  0  0  0  0  0  0
  -22.6556   -5.7846   24.0830 C   0  0  0  0  0  0  0  0  0  0  0  0
  -26.1520  -10.5240   21.3943 C   0  0  0  0  0  0  0  0  0  0  0  0
  -28.1650  -11.0453   20.6794 C   0  0  0  0  0  0  0  0  0  0  0  0
  -28.0735   -8.9262   22.0020 C   0  0  0  0  0  0  0  0  0  0  0  0
  -24.4992  -31.1162   23.0050 C   0  0  0  0  0  0  0  0  0  0  0  0
  -21.9848  -29.0877   22.7127 C   0  0  0  0  0  0  0  0  0  0  0  0
  -20.7547  -26.1594   21.4643 C   0  0  0  0  0  0  0  0  0  0  0  0
  -27.1574  -16.7115   19.7142 C   0  0  0  0  0  0  0  0  0  0  0  0
  -23.6459  -35.3945   25.6556 C   0  0  0  0  0  0  0  0  0  0  0  0
  -24.4233  -30.7652   20.5096 C   0  0  0  0  0  0  0  0  0  0  0  0
  -24.2346  -28.2087   21.9838 C   0  0  0  0  0  0  0  0  0  0  0  0
  -23.1427  -33.9546   25.7152 C   0  0  0  0  0  0  0  0  0  0  0  0
  -27.5622  -14.2263   17.1751 C   0  0  0  0  0  0  0  0  0  0  0  0
  -24.3131  -32.9775   25.6664 C   0  0  0  0  0  0  0  0  0  0  0  0
  -27.3436  -12.9436   17.9738 C   0  0  0  0  0  0  0  0  0  0  0  0
  -25.4502  -19.6405   18.4351 C   0  0  0  0  0  0  0  0  0  0  0  0
  -26.7948  -21.6787   19.3913 C   0  0  0  0  0  0  0  0  0  0  0  0
  -26.6376  -15.3574   17.6297 C   0  0  0  0  0  0  0  0  0  0  0  0
  -25.8442  -18.2070   18.1295 C   0  0  0  0  0  0  0  0  0  0  0  0
  -26.4766  -14.3392   19.8831 C   0  0  0  0  0  0  0  0  0  0  0  0
  -25.0956  -33.1192   24.3552 C   0  0  1  0  0  0  0  0  0  0  0  0
  -23.6762  -30.6558   21.8353 C   0  0  1  0  0  0  0  0  0  0  0  0
  -27.4457  -13.2175   19.4832 C   0  0  1  0  0  0  0  0  0  0  0  0
  -27.5798  -19.1627   19.5397 C   0  0  2  0  0  0  0  0  0  0  0  0
  -27.2405  -22.1108   17.9893 C   0  0  1  0  0  0  0  0  0  0  0  0
  -26.7952  -20.2571   18.8027 C   0  0  1  0  0  0  0  0  0  0  0  0
  -29.7839  -18.0513   19.9343 C   0  0  0  0  0  0  0  0  0  0  0  0
  -18.6763  -24.7537   21.4246 C   0  0  0  0  0  0  0  0  0  0  0  0
  -22.5527  -28.1717   25.5672 C   0  0  0  0  0  0  0  0  0  0  0  0
  -21.1138  -26.1687   25.1365 C   0  0  0  0  0  0  0  0  0  0  0  0
  -20.1278  -28.4574   25.0262 C   0  0  0  0  0  0  0  0  0  0  0  0
  -20.5327  -26.3645   18.5202 C   0  0  0  0  0  0  0  0  0  0  0  0
  -29.0777  -19.1913   19.2721 C   0  0  0  0  0  0  0  0  0  0  0  0
  -28.5132  -22.9246   17.8923 C   0  0  0  0  0  0  0  0  0  0  0  0
  -29.3940  -25.2442   18.1793 C   0  0  0  0  0  0  0  0  0  0  0  0
  -28.9459  -26.6646   18.4620 C   0  0  0  0  0  0  0  0  0  1  0  0
  -21.6807  -27.6868   23.1859 C   0  0  1  0  0  0  0  0  0  0  0  0
  -19.4704  -25.8424   20.7197 C   0  0  2  0  0  0  0  0  0  0  0  0
  -21.3912  -27.6267   24.7123 C   0  0  0  0  0  0  0  0  0  0  0  0
  -25.9834  -11.6669   20.7238 N   0  0  0  0  0  0  0  0  0  0  0  0
  -27.2253  -11.9587   20.3013 N   0  0  0  0  0  0  0  0  0  0  0  0
  -23.2439  -29.2880   22.1292 N   0  0  0  0  0  0  0  0  0  0  0  0
  -26.7015  -15.5466   19.0838 N   0  0  0  0  0  0  0  0  0  0  0  0
  -26.9439  -17.9277   19.0555 N   0  0  0  0  0  0  0  0  0  0  0  0
  -29.4638  -11.1851   20.3389 N   0  0  0  0  0  0  0  0  0  0  0  0
  -27.2376   -8.0486   22.7059 N   0  0  0  0  0  0  0  0  0  0  0  0
  -24.3902  -32.4675   23.2727 N   0  0  0  0  0  0  0  0  0  0  0  0
  -20.5871  -27.2022   22.3507 N   0  0  0  0  0  0  0  0  0  0  0  0
  -19.7744  -25.3811   19.3356 N   0  3  0  0  0  0  0  0  0  0  0  0
  -28.2077  -24.3439   18.1867 N   0  3  0  0  0  0  0  0  0  0  0  0
  -29.3018   -8.6809   21.9325 O   0  0  0  0  0  0  0  0  0  0  0  0
  -25.1815  -30.3052   23.6202 O   0  0  0  0  0  0  0  0  0  0  0  0
  -21.1337  -29.9702   22.8489 O   0  0  0  0  0  0  0  0  0  0  0  0
  -21.8009  -25.5411   21.2809 O   0  0  0  0  0  0  0  0  0  0  0  0
  -27.7017  -16.6713   20.8253 O   0  0  0  0  0  0  0  0  0  0  0  0
  -27.4717  -20.7305   17.6019 O   0  0  0  0  0  0  0  0  0  0  0  0
  -21.7748   -8.0075   23.7972 O   0  0  0  0  0  0  0  0  0  0  0  0
  -28.3326  -26.7239   19.7430 O   0  0  0  0  0  0  0  0  0  1  0  0
  -21.2683   -2.5564   23.1391 F   0  0  0  0  0  0  0  0  0  0  0  0
  -23.7476   -6.2831   24.6787 F   0  0  0  0  0  0  0  0  0  0  0  0
  1  2  1  0  0  0  0
  1  5  2  0  0  0  0
  2  6  2  0  0  0  0
  3  8  2  0  0  0  0
  3 15  1  0  0  0  0
  4  9  1  0  0  0  0
  4 15  2  0  0  0  0
  5 17  1  0  0  0  0
  6 19  1  0  0  0  0
  7 10  2  0  0  0  0
  7 18  1  0  0  0  0
  8 21  1  0  0  0  0
  9 21  2  0  0  0  0
 10 22  1  0  0  0  0
 11 12  2  0  0  0  0
 11 23  1  0  0  0  0
 12 24  1  0  0  0  0
 13 20  1  0  0  0  0
 13 22  2  0  0  0  0
 14 24  2  0  0  0  0
 14 25  1  0  0  0  0
 15 26  1  0  0  0  0
 16 26  1  0  0  0  0
 16 27  2  0  0  0  0
 16 28  1  0  0  0  0
 17 19  2  0  0  0  0
 17 33  1  0  0  0  0
 18 20  2  0  0  0  0
 18 34  1  0  0  0  0
 19 45  1  0  0  0  0
 20 35  1  0  0  0  0
 21 81  1  0  0  0  0
 22 82  1  0  0  0  0
 23 25  2  0  0  0  0
 23 81  1  0  0  0  0
 24 83  1  0  0  0  0
 25 84  1  0  0  0  0
 26 64  2  0  0  0  0
 27 65  1  0  0  0  0
 27 69  1  0  0  0  0
 28 70  1  0  0  0  0
 28 75  2  0  0  0  0
 29 46  1  0  0  0  0
 29 71  1  0  0  0  0
 29 76  2  0  0  0  0
 30 61  1  0  0  0  0
 30 66  1  0  0  0  0
 30 77  2  0  0  0  0
 31 62  1  0  0  0  0
 31 72  1  0  0  0  0
 31 78  2  0  0  0  0
 32 67  1  0  0  0  0
 32 68  1  0  0  0  0
 32 79  2  0  0  0  0
 33 36  1  0  0  0  0
 34 46  1  0  0  0  0
 35 66  1  0  0  0  0
 36 38  1  0  0  0  0
 37 39  1  0  0  0  0
 37 42  1  0  0  0  0
 38 45  1  0  0  0  0
 39 47  1  0  0  0  0
 40 43  1  0  0  0  0
 40 50  1  0  0  0  0
 41 49  1  0  0  0  0
 41 50  1  0  0  0  0
 42 67  1  0  0  0  0
 43 68  1  0  0  0  0
 44 47  1  0  0  0  0
 44 67  1  0  0  0  0
 45 71  1  0  0  0  0
 46 66  1  0  0  0  0
 47 65  1  0  0  0  0
 48 50  1  0  0  0  0
 48 57  1  0  0  0  0
 48 68  1  0  0  0  0
 49 58  1  0  0  0  0
 49 80  1  0  0  0  0
 50 80  1  0  0  0  0
 51 57  1  0  0  0  0
 52 62  1  0  0  0  0
 53 63  1  0  0  0  0
 54 63  1  0  0  0  0
 55 63  1  0  0  0  0
 56 73  1  0  0  0  0
 58 74  1  0  0  0  0
 59 60  1  0  0  0  0
 59 74  1  0  0  0  0
 60 82  1  0  0  0  0
 61 63  1  0  0  0  0
 61 72  1  0  0  0  0
 62 73  1  0  0  0  0
 64 65  1  0  0  0  0
M  CHG  2  73   1  74   1
M  ISO  4  32 100  60 101  68 100  82 101
M  END
> <Batch ID>
0187

> <Smiles>
CCC1[100N:0]([100C:0](=O)N2CCCC(n3nc(-c4ccc(Oc5ccc(F)cc5F)cc4)c(C(N)=O)c3N)C2)CCC12CC(CNC[101CH2:1][101O:1]c1ccc3c(c1)CN(C(=O)C(NC(=O)C(C)NC)C(C)(C)C)C(C(=O)NC1CCCc4ccccc41)C3)O2

> <Shape>
0.312

> <Color>
0.079

> <Negative vol penalty>
0.000

$$$$

  -OEChem-04052323173D

 87 97  0     1  0  0  0  0  0999 V2000
  -29.3459  -33.5057   24.6316 C   0  0  0  0  0  0  0  0  0  0  0  0
  -29.2698  -32.2029   24.1494 C   0  0  0  0  0  0  0  0  0  0  0  0
  -24.6821   -9.5055   19.8725 C   0  0  0  0  0  0  0  0  0  0  0  0
  -24.5765   -9.7244   22.2763 C   0  0  0  0  0  0  0  0  0  0  0  0
  -28.1968  -34.1438   25.0966 C   0  0  0  0  0  0  0  0  0  0  0  0
  -28.0447  -31.5371   24.1331 C   0  0  0  0  0  0  0  0  0  0  0  0
  -27.2240  -29.0856   19.7786 C   0  0  0  0  0  0  0  0  0  0  0  0
  -24.4325   -8.1379   19.9861 C   0  0  0  0  0  0  0  0  0  0  0  0
  -24.3268   -8.3568   22.3899 C   0  0  0  0  0  0  0  0  0  0  0  0
  -27.8797  -27.8683   19.5999 C   0  0  0  0  0  0  0  0  0  0  0  0
  -21.6973   -6.2671   22.0168 C   0  0  0  0  0  0  0  0  0  0  0  0
  -20.6838   -5.8649   22.8866 C   0  0  0  0  0  0  0  0  0  0  0  0
  -25.8608  -26.6979   20.2109 C   0  0  0  0  0  0  0  0  0  0  0  0
  -22.2871   -4.5853   24.1630 C   0  0  0  0  0  0  0  0  0  0  0  0
  -29.2063  -21.9110   18.8811 C   0  0  0  0  0  0  0  0  0  0  0  0
  -24.7542  -10.2988   21.0176 C   0  0  0  0  0  0  0  0  0  0  0  0
  -24.0622  -12.7412   20.7656 C   0  0  0  0  0  0  0  0  0  0  0  0
  -26.9552  -33.4890   25.0770 C   0  0  0  0  0  0  0  0  0  0  0  0
  -25.8826  -29.1184   20.1861 C   0  0  0  0  0  0  0  0  0  0  0  0
  -26.8782  -32.1667   24.5995 C   0  0  0  0  0  0  0  0  0  0  0  0
  -25.1896  -27.9169   20.3916 C   0  0  0  0  0  0  0  0  0  0  0  0
  -30.5417  -21.5523   18.7928 C   0  0  0  0  0  0  0  0  0  0  0  0
  -31.5025  -22.5632   18.8525 C   0  0  0  0  0  0  0  0  0  0  0  0
  -31.0891  -23.8973   18.9737 C   0  0  0  0  0  0  0  0  0  0  0  0
  -24.2548   -7.5635   21.2448 C   0  0  0  0  0  0  0  0  0  0  0  0
  -27.1990  -26.6743   19.8188 C   0  0  0  0  0  0  0  0  0  0  0  0
  -23.0058   -5.8283   22.2200 C   0  0  0  0  0  0  0  0  0  0  0  0
  -20.9787   -5.0241   23.9598 C   0  0  0  0  0  0  0  0  0  0  0  0
  -23.3006   -4.9874   23.2931 C   0  0  0  0  0  0  0  0  0  0  0  0
  -25.0125  -11.7115   20.9010 C   0  0  0  0  0  0  0  0  0  0  0  0
  -29.7224  -24.1413   19.0648 C   0  0  0  0  0  0  0  0  0  0  0  0
  -24.8097  -13.8912   20.6945 C   0  0  0  0  0  0  0  0  0  0  0  0
  -22.6315  -12.6649   20.7093 C   0  0  0  0  0  0  0  0  0  0  0  0
  -24.3341  -30.2605   22.7162 C   0  0  0  0  0  0  0  0  0  0  0  0
  -21.7122  -29.3797   21.0213 C   0  0  0  0  0  0  0  0  0  0  0  0
  -20.3619  -27.3915   18.5984 C   0  0  0  0  0  0  0  0  0  0  0  0
  -29.2248  -16.3711   18.2551 C   0  0  0  0  0  0  0  0  0  0  0  0
  -25.7491  -34.2028   25.6340 C   0  0  0  0  0  0  0  0  0  0  0  0
  -25.1818  -30.4393   20.3486 C   0  0  0  0  0  0  0  0  0  0  0  0
  -32.0816  -25.0238   19.0697 C   0  0  0  0  0  0  0  0  0  0  0  0
  -23.7429  -27.8974   20.8102 C   0  0  0  0  0  0  0  0  0  0  0  0
  -32.9605  -22.2220   18.7345 C   0  0  0  0  0  0  0  0  0  0  0  0
  -24.4230  -33.5608   25.2345 C   0  0  0  0  0  0  0  0  0  0  0  0
  -29.7126  -14.7107   21.5742 C   0  0  0  0  0  0  0  0  0  0  0  0
  -24.4817  -32.0490   25.4294 C   0  0  0  0  0  0  0  0  0  0  0  0
  -28.4767  -13.8146   21.6348 C   0  0  0  0  0  0  0  0  0  0  0  0
  -30.4629  -19.2456   19.8382 C   0  0  0  0  0  0  0  0  0  0  0  0
  -30.3627  -19.4963   17.3209 C   0  0  0  0  0  0  0  0  0  0  0  0
  -30.1456  -14.9597   20.1341 C   0  0  0  0  0  0  0  0  0  0  0  0
  -30.8098  -17.7655   19.6546 C   0  0  0  0  0  0  0  0  0  0  0  0
  -30.7367  -18.0219   17.1972 C   0  0  0  0  0  0  0  0  0  0  0  0
  -27.8288  -14.6384   19.3257 C   0  0  0  0  0  0  0  0  0  0  0  0
  -33.4580  -24.6545   18.5283 C   0  0  0  0  0  0  0  0  0  0  0  0
  -30.9109  -20.0897   18.6314 C   0  0  0  0  0  0  0  0  0  0  0  0
  -25.5631  -31.4200   24.5426 C   0  0  1  0  0  0  0  0  0  0  0  0
  -23.9635  -30.3608   21.2635 C   0  0  1  0  0  0  0  0  0  0  0  0
  -27.3441  -14.3810   20.7619 C   0  0  1  0  0  0  0  0  0  0  0  0
  -18.1851  -26.8725   17.4628 C   0  0  0  0  0  0  0  0  0  0  0  0
  -20.8139  -27.7984   23.4714 C   0  0  0  0  0  0  0  0  0  0  0  0
  -19.1963  -26.5758   22.0028 C   0  0  0  0  0  0  0  0  0  0  0  0
  -18.9850  -29.0430   22.3048 C   0  0  0  0  0  0  0  0  0  0  0  0
  -21.4105  -28.2154   15.9563 C   0  0  0  0  0  0  0  0  0  0  0  0
  -29.2026  -25.5317   19.2390 C   0  0  0  0  0  0  0  0  0  1  0  0
  -20.8831  -28.1230   20.9109 C   0  0  1  0  0  0  0  0  0  0  0  0
  -19.4539  -27.7100   17.4243 C   0  0  2  0  0  0  0  0  0  0  0  0
  -19.9974  -27.8851   22.1665 C   0  0  0  0  0  0  0  0  0  0  0  0
  -28.7710  -23.1818   19.0187 N   0  0  0  0  0  0  0  0  0  0  0  0
  -26.2680  -12.1671   20.9151 N   0  0  0  0  0  0  0  0  0  0  0  0
  -26.1117  -13.4958   20.7876 N   0  0  0  0  0  0  0  0  0  0  0  0
  -23.1033  -29.2147   20.9621 N   0  0  0  0  0  0  0  0  0  0  0  0
  -29.0373  -15.4654   19.3127 N   0  0  0  0  0  0  0  0  0  0  0  0
  -30.2976  -17.2677   18.3711 N   0  0  0  0  0  0  0  0  0  0  0  0
  -24.4738  -15.1920   20.5620 N   0  0  0  0  0  0  0  0  0  0  0  0
  -22.0257  -11.4041   20.7968 N   0  0  0  0  0  0  0  0  0  0  0  0
  -25.0985  -31.3159   23.1759 N   0  0  0  0  0  0  0  0  0  0  0  0
  -20.1341  -28.2363   19.6641 N   0  0  0  0  0  0  0  0  0  0  0  0
  -33.8723  -23.3480   19.1205 N   0  3  0  0  0  0  0  0  0  0  0  0
  -20.1564  -27.4400   16.1380 N   0  3  0  0  0  0  0  0  0  0  0  0
  -21.9125  -13.6831   20.5686 O   0  0  0  0  0  0  0  0  0  0  0  0
  -23.9533  -29.2978   23.3717 O   0  0  0  0  0  0  0  0  0  0  0  0
  -21.1462  -30.4684   21.1480 O   0  0  0  0  0  0  0  0  0  0  0  0
  -21.1879  -26.4817   18.5740 O   0  0  0  0  0  0  0  0  0  0  0  0
  -28.4763  -16.3794   17.2699 O   0  0  0  0  0  0  0  0  0  0  0  0
  -24.0110   -6.2291   21.3560 O   0  0  0  0  0  0  0  0  0  0  0  0
  -27.8415  -25.4761   19.6444 O   0  0  0  0  0  0  0  0  0  1  0  0
  -20.0056   -4.6392   24.7959 F   0  0  0  0  0  0  0  0  0  0  0  0
  -24.5559   -4.5636   23.4941 F   0  0  0  0  0  0  0  0  0  0  0  0
  1  2  1  0  0  0  0
  1  5  2  0  0  0  0
  2  6  2  0  0  0  0
  3  8  2  0  0  0  0
  3 16  1  0  0  0  0
  4  9  1  0  0  0  0
  4 16  2  0  0  0  0
  5 18  1  0  0  0  0
  6 20  1  0  0  0  0
  7 10  2  0  0  0  0
  7 19  1  0  0  0  0
  8 25  1  0  0  0  0
  9 25  2  0  0  0  0
 10 26  1  0  0  0  0
 11 12  2  0  0  0  0
 11 27  1  0  0  0  0
 12 28  1  0  0  0  0
 13 21  1  0  0  0  0
 13 26  2  0  0  0  0
 14 28  2  0  0  0  0
 14 29  1  0  0  0  0
 15 22  1  0  0  0  0
 15 67  2  0  0  0  0
 16 30  1  0  0  0  0
 17 30  1  0  0  0  0
 17 32  2  0  0  0  0
 17 33  1  0  0  0  0
 18 20  2  0  0  0  0
 18 38  1  0  0  0  0
 19 21  2  0  0  0  0
 19 39  1  0  0  0  0
 20 55  1  0  0  0  0
 21 41  1  0  0  0  0
 22 23  2  0  0  0  0
 22 54  1  0  0  0  0
 23 24  1  0  0  0  0
 23 42  1  0  0  0  0
 24 31  2  0  0  0  0
 24 40  1  0  0  0  0
 25 84  1  0  0  0  0
 26 85  1  0  0  0  0
 27 29  2  0  0  0  0
 27 84  1  0  0  0  0
 28 86  1  0  0  0  0
 29 87  1  0  0  0  0
 30 68  2  0  0  0  0
 31 63  1  0  0  0  0
 31 67  1  0  0  0  0
 32 69  1  0  0  0  0
 32 73  1  0  0  0  0
 33 74  1  0  0  0  0
 33 79  2  0  0  0  0
 34 56  1  0  0  0  0
 34 75  1  0  0  0  0
 34 80  2  0  0  0  0
 35 64  1  0  0  0  0
 35 70  1  0  0  0  0
 35 81  2  0  0  0  0
 36 65  1  0  0  0  0
 36 76  1  0  0  0  0
 36 82  2  0  0  0  0
 37 71  1  0  0  0  0
 37 72  1  0  0  0  0
 37 83  2  0  0  0  0
 38 43  1  0  0  0  0
 39 56  1  0  0  0  0
 40 53  1  0  0  0  0
 41 70  1  0  0  0  0
 42 77  1  0  0  0  0
 43 45  1  0  0  0  0
 44 46  1  0  0  0  0
 44 49  1  0  0  0  0
 45 55  1  0  0  0  0
 46 57  1  0  0  0  0
 47 50  1  0  0  0  0
 47 54  1  0  0  0  0
 48 51  1  0  0  0  0
 48 54  1  0  0  0  0
 49 71  1  0  0  0  0
 50 72  1  0  0  0  0
 51 72  1  0  0  0  0
 52 57  1  0  0  0  0
 52 71  1  0  0  0  0
 53 77  1  0  0  0  0
 55 75  1  0  0  0  0
 56 70  1  0  0  0  0
 57 69  1  0  0  0  0
 58 65  1  0  0  0  0
 59 66  1  0  0  0  0
 60 66  1  0  0  0  0
 61 66  1  0  0  0  0
 62 78  1  0  0  0  0
 63 85  1  0  0  0  0
 64 66  1  0  0  0  0
 64 76  1  0  0  0  0
 65 78  1  0  0  0  0
 68 69  1  0  0  0  0
M  CHG  2  77   1  78   1
M  ISO  4  37 100  63 101  72 100  85 101
M  END
> <Batch ID>
0187

> <Smiles>
CNC(C)C(=O)NC(C(=O)N1Cc2cc([101O:1][101CH2:1]c3ncc(C4CC[100N:0]([100C:0](=O)N5CCCC(n6nc(-c7ccc(Oc8ccc(F)cc8F)cc7)c(C(N)=O)c6N)C5)CC4)c4c3CCNC4)ccc2CC1C(=O)NC1CCCc2ccccc21)C(C)(C)C

> <Shape>
0.338

> <Color>
0.121

> <Negative vol penalty>
0.000

$$$$

  -OEChem-04052323173D

 78 86  0     1  0  0  0  0  0999 V2000
  -25.2515  -35.8412   15.7868 C   0  0  0  0  0  0  0  0  0  0  0  0
  -25.5596  -34.4846   15.7926 C   0  0  0  0  0  0  0  0  0  0  0  0
  -25.1011  -14.5573   20.4531 C   0  0  0  0  0  0  0  0  0  0  0  0
  -26.6111  -12.6849   20.2273 C   0  0  0  0  0  0  0  0  0  0  0  0
  -25.3885  -36.5910   16.9542 C   0  0  0  0  0  0  0  0  0  0  0  0
  -26.0061  -33.8772   16.9657 C   0  0  0  0  0  0  0  0  0  0  0  0
  -24.8529  -28.1548   18.8177 C   0  0  0  0  0  0  0  0  0  0  0  0
  -24.0132  -13.6996   20.2913 C   0  0  0  0  0  0  0  0  0  0  0  0
  -25.5231  -11.8271   20.0655 C   0  0  0  0  0  0  0  0  0  0  0  0
  -25.5950  -26.9769   18.7420 C   0  0  0  0  0  0  0  0  0  0  0  0
  -23.2304  -10.3157   22.0352 C   0  0  0  0  0  0  0  0  0  0  0  0
  -23.2436   -9.1141   22.7434 C   0  0  0  0  0  0  0  0  0  0  0  0
  -26.4000  -27.3470   20.9858 C   0  0  0  0  0  0  0  0  0  0  0  0
  -23.1460   -7.8876   20.6642 C   0  0  0  0  0  0  0  0  0  0  0  0
  -26.4001  -14.0500   20.4211 C   0  0  0  0  0  0  0  0  0  0  0  0
  -28.1515  -15.2955   21.7956 C   0  0  0  0  0  0  0  0  0  0  0  0
  -25.8276  -35.9904   18.1446 C   0  0  0  0  0  0  0  0  0  0  0  0
  -24.8874  -28.9446   19.9759 C   0  0  0  0  0  0  0  0  0  0  0  0
  -26.1504  -34.6200   18.1498 C   0  0  0  0  0  0  0  0  0  0  0  0
  -25.6554  -28.5331   21.0745 C   0  0  0  0  0  0  0  0  0  0  0  0
  -24.2242  -12.3344   20.0975 C   0  0  0  0  0  0  0  0  0  0  0  0
  -26.3709  -26.5743   19.8251 C   0  0  0  0  0  0  0  0  0  0  0  0
  -23.1750  -10.3033   20.6415 C   0  0  0  0  0  0  0  0  0  0  0  0
  -23.2014   -7.9000   22.0579 C   0  0  0  0  0  0  0  0  0  0  0  0
  -23.1328   -9.0892   19.9560 C   0  0  0  0  0  0  0  0  0  0  0  0
  -27.5243  -14.9357   20.5876 C   0  0  0  0  0  0  0  0  0  0  0  0
  -29.1575  -16.1512   21.4185 C   0  0  0  0  0  0  0  0  0  0  0  0
  -27.8515  -14.8922   23.1383 C   0  0  0  0  0  0  0  0  0  0  0  0
  -25.8135  -31.9117   20.6408 C   0  0  0  0  0  0  0  0  0  0  0  0
  -24.5671  -31.2313   23.5573 C   0  0  0  0  0  0  0  0  0  0  0  0
  -23.6935  -28.8627   25.8537 C   0  0  0  0  0  0  0  0  0  0  0  0
  -30.9595  -20.4540   18.3641 C   0  0  0  0  0  0  0  0  0  0  0  0
  -26.0053  -36.8519   19.3698 C   0  0  0  0  0  0  0  0  0  0  0  0
  -24.0602  -30.1986   20.0516 C   0  0  0  0  0  0  0  0  0  0  0  0
  -25.7106  -29.3349   22.3483 C   0  0  0  0  0  0  0  0  0  0  0  0
  -26.1265  -36.0522   20.6644 C   0  0  0  0  0  0  0  0  0  0  0  0
  -31.0342  -17.2530   16.8724 C   0  0  0  0  0  0  0  0  0  0  0  0
  -27.1034  -34.8941   20.4870 C   0  0  0  0  0  0  0  0  0  0  0  0
  -30.1550  -16.3948   17.7779 C   0  0  0  0  0  0  0  0  0  0  0  0
  -29.9859  -23.4382   20.3249 C   0  0  0  0  0  0  0  0  0  0  0  0
  -30.4650  -18.6593   16.7413 C   0  0  0  0  0  0  0  0  0  0  0  0
  -31.0017  -22.6437   19.5189 C   0  0  0  0  0  0  0  0  0  0  0  0
  -28.9214  -21.4479   19.5661 C   0  0  0  0  0  0  0  0  0  0  0  0
  -29.4388  -18.5164   18.9943 C   0  0  0  0  0  0  0  0  0  0  0  0
  -26.6140  -33.9198   19.4088 C   0  0  1  0  0  0  0  0  0  0  0  0
  -24.5737  -31.1913   21.0899 C   0  0  1  0  0  0  0  0  0  0  0  0
  -28.6516  -22.9387   19.7695 C   0  0  1  0  0  0  0  0  0  0  0  0
  -29.9603  -17.0721   19.1433 C   0  0  1  0  0  0  0  0  0  0  0  0
  -22.7343  -28.6134   28.1591 C   0  0  0  0  0  0  0  0  0  0  0  0
  -26.1793  -22.6595   20.0995 C   0  0  0  0  0  0  0  0  0  0  0  0
  -27.2414  -32.0767   24.7588 C   0  0  0  0  0  0  0  0  0  0  0  0
  -26.5703  -30.9317   26.8817 C   0  0  0  0  0  0  0  0  0  0  0  0
  -25.2336  -32.8575   26.0290 C   0  0  0  0  0  0  0  0  0  0  0  0
  -21.3702  -27.3304   24.8471 C   0  0  0  0  0  0  0  0  0  0  0  0
  -27.3199  -24.7199   20.9725 C   0  0  0  0  0  0  0  0  0  1  0  0
  -25.1025  -30.6325   24.8355 C   0  0  1  0  0  0  0  0  0  0  0  0
  -22.4286  -28.6698   26.6705 C   0  0  2  0  0  0  0  0  0  0  0  0
  -27.4770  -23.2188   20.6897 C   0  0  2  0  0  0  0  0  0  0  0  0
  -26.0376  -31.6102   25.6017 C   0  0  0  0  0  0  0  0  0  0  0  0
  -28.0849  -15.5155   19.5230 N   0  0  0  0  0  0  0  0  0  0  0  0
  -29.0748  -16.2484   20.0606 N   0  0  0  0  0  0  0  0  0  0  0  0
  -24.8893  -30.5565   22.3712 N   0  0  0  0  0  0  0  0  0  0  0  0
  -30.2570  -19.2859   18.0480 N   0  0  0  0  0  0  0  0  0  0  0  0
  -30.3372  -21.3853   19.1945 N   0  0  0  0  0  0  0  0  0  0  0  0
  -30.0959  -16.8224   22.1194 N   0  0  0  0  0  0  0  0  0  0  0  0
  -26.7847  -14.0076   23.3478 N   0  0  0  0  0  0  0  0  0  0  0  0
  -25.5646  -33.0719   19.9325 N   0  0  0  0  0  0  0  0  0  0  0  0
  -23.9394  -30.1955   25.6001 N   0  0  0  0  0  0  0  0  0  0  0  0
  -21.7494  -27.4015   26.2818 N   0  3  0  0  0  0  0  0  0  0  0  0
  -28.4995  -15.3169   24.1248 O   0  0  0  0  0  0  0  0  0  0  0  0
  -26.9143  -31.4501   20.9177 O   0  0  0  0  0  0  0  0  0  0  0  0
  -23.8820  -32.2558   23.6099 O   0  0  0  0  0  0  0  0  0  0  0  0
  -24.3954  -27.9250   25.4813 O   0  0  0  0  0  0  0  0  0  0  0  0
  -32.0816  -20.6776   17.8899 O   0  0  0  0  0  0  0  0  0  0  0  0
  -23.1628  -11.4971   19.9398 O   0  0  0  0  0  0  0  0  0  0  0  0
  -27.1019  -25.4172   19.7531 O   0  0  0  0  0  0  0  0  0  1  0  0
  -23.2156   -6.7462   22.7381 F   0  0  0  0  0  0  0  0  0  0  0  0
  -23.0806   -9.0709   18.6170 F   0  0  0  0  0  0  0  0  0  0  0  0
  1  2  1  0  0  0  0
  1  5  2  0  0  0  0
  2  6  2  0  0  0  0
  3  8  2  0  0  0  0
  3 15  1  0  0  0  0
  4  9  1  0  0  0  0
  4 15  2  0  0  0  0
  5 17  1  0  0  0  0
  6 19  1  0  0  0  0
  7 10  2  0  0  0  0
  7 18  1  0  0  0  0
  8 21  1  0  0  0  0
  9 21  2  0  0  0  0
 10 22  1  0  0  0  0
 11 12  2  0  0  0  0
 11 23  1  0  0  0  0
 12 24  1  0  0  0  0
 13 20  1  0  0  0  0
 13 22  2  0  0  0  0
 14 24  2  0  0  0  0
 14 25  1  0  0  0  0
 15 26  1  0  0  0  0
 16 26  1  0  0  0  0
 16 27  2  0  0  0  0
 16 28  1  0  0  0  0
 17 19  2  0  0  0  0
 17 33  1  0  0  0  0
 18 20  2  0  0  0  0
 18 34  1  0  0  0  0
 19 45  1  0  0  0  0
 20 35  1  0  0  0  0
 21 75  1  0  0  0  0
 22 76  1  0  0  0  0
 23 25  2  0  0  0  0
 23 75  1  0  0  0  0
 24 77  1  0  0  0  0
 25 78  1  0  0  0  0
 26 60  2  0  0  0  0
 27 61  1  0  0  0  0
 27 65  1  0  0  0  0
 28 66  1  0  0  0  0
 28 70  2  0  0  0  0
 29 46  1  0  0  0  0
 29 67  1  0  0  0  0
 29 71  2  0  0  0  0
 30 56  1  0  0  0  0
 30 62  1  0  0  0  0
 30 72  2  0  0  0  0
 31 57  1  0  0  0  0
 31 68  1  0  0  0  0
 31 73  2  0  0  0  0
 32 63  1  0  0  0  0
 32 64  1  0  0  0  0
 32 74  2  0  0  0  0
 33 36  1  0  0  0  0
 34 46  1  0  0  0  0
 35 62  1  0  0  0  0
 36 38  1  0  0  0  0
 37 39  1  0  0  0  0
 37 41  1  0  0  0  0
 38 45  1  0  0  0  0
 39 48  1  0  0  0  0
 40 42  1  0  0  0  0
 40 47  1  0  0  0  0
 41 63  1  0  0  0  0
 42 64  1  0  0  0  0
 43 47  1  0  0  0  0
 43 64  1  0  0  0  0
 44 48  1  0  0  0  0
 44 63  1  0  0  0  0
 45 67  1  0  0  0  0
 46 62  1  0  0  0  0
 47 58  1  0  0  0  0
 48 61  1  0  0  0  0
 49 57  1  0  0  0  0
 50 58  1  0  0  0  0
 51 59  1  0  0  0  0
 52 59  1  0  0  0  0
 53 59  1  0  0  0  0
 54 69  1  0  0  0  0
 55 58  1  0  0  0  0
 55 76  1  0  0  0  0
 56 59  1  0  0  0  0
 56 68  1  0  0  0  0
 57 69  1  0  0  0  0
 60 61  1  0  0  0  0
M  CHG  1  69   1
M  ISO  4  32 100  55 101  64 100  76 101
M  END
> <Batch ID>
0187

> <Smiles>
CNC(C)C(=O)NC(C(=O)N1Cc2cc([101O:1][101CH2:1]C(C)C3CC[100N:0]([100C:0](=O)N4CCCC(n5nc(-c6ccc(Oc7ccc(F)cc7F)cc6)c(C(N)=O)c5N)C4)C3)ccc2CC1C(=O)NC1CCCc2ccccc21)C(C)(C)C

> <Shape>
0.252

> <Color>
0.092

> <Negative vol penalty>
0.000

$$$$

  -OEChem-04052323173D

 84 93  0     1  0  0  0  0  0999 V2000
  -30.2973  -25.8792   16.6148 C   0  0  0  0  0  0  0  0  0  0  0  0
  -29.1179  -25.7067   17.3321 C   0  0  0  0  0  0  0  0  0  0  0  0
  -27.9722  -14.7558   21.1237 C   0  0  0  0  0  0  0  0  0  0  0  0
  -25.6736  -15.3105   20.6279 C   0  0  0  0  0  0  0  0  0  0  0  0
  -31.2949  -26.7195   17.1074 C   0  0  0  0  0  0  0  0  0  0  0  0
  -28.9358  -26.3736   18.5431 C   0  0  0  0  0  0  0  0  0  0  0  0
  -24.3350  -28.4514   18.9440 C   0  0  0  0  0  0  0  0  0  0  0  0
  -27.6841  -13.4027   20.9458 C   0  0  0  0  0  0  0  0  0  0  0  0
  -25.3855  -13.9574   20.4499 C   0  0  0  0  0  0  0  0  0  0  0  0
  -23.2775  -27.6003   19.2619 C   0  0  0  0  0  0  0  0  0  0  0  0
  -24.7844  -11.2608   22.3988 C   0  0  0  0  0  0  0  0  0  0  0  0
  -23.6210  -10.7633   22.9858 C   0  0  0  0  0  0  0  0  0  0  0  0
  -23.3974  -28.3202   21.5612 C   0  0  0  0  0  0  0  0  0  0  0  0
  -22.7957  -10.1229   20.8073 C   0  0  0  0  0  0  0  0  0  0  0  0
  -26.9669  -15.7097   20.9649 C   0  0  0  0  0  0  0  0  0  0  0  0
  -28.1949  -17.8809   20.4302 C   0  0  0  0  0  0  0  0  0  0  0  0
  -31.1210  -27.4045   18.3203 C   0  0  0  0  0  0  0  0  0  0  0  0
  -24.9398  -29.2365   19.9360 C   0  0  0  0  0  0  0  0  0  0  0  0
  -29.9325  -27.2228   19.0531 C   0  0  0  0  0  0  0  0  0  0  0  0
  -24.4608  -29.1824   21.2527 C   0  0  0  0  0  0  0  0  0  0  0  0
  -20.3272  -23.9791   21.1289 C   0  0  0  0  0  0  0  0  0  0  0  0
  -26.3907  -13.0035   20.6088 C   0  0  0  0  0  0  0  0  0  0  0  0
  -22.8105  -27.5325   20.5713 C   0  0  0  0  0  0  0  0  0  0  0  0
  -24.9534  -11.1895   21.0160 C   0  0  0  0  0  0  0  0  0  0  0  0
  -22.6267  -10.1943   22.1901 C   0  0  0  0  0  0  0  0  0  0  0  0
  -23.9591  -10.6205   20.2203 C   0  0  0  0  0  0  0  0  0  0  0  0
  -27.2638  -17.1076   21.1491 C   0  0  0  0  0  0  0  0  0  0  0  0
  -19.1969  -23.2780   21.5379 C   0  0  0  0  0  0  0  0  0  0  0  0
  -20.0873  -25.1063   20.3583 C   0  0  0  0  0  0  0  0  0  0  0  0
  -28.0993  -19.1347   20.9827 C   0  0  0  0  0  0  0  0  0  0  0  0
  -17.8440  -24.7940   20.4877 C   0  0  0  0  0  0  0  0  0  0  0  0
  -29.0682  -17.4999   19.3588 C   0  0  0  0  0  0  0  0  0  0  0  0
  -27.8610  -29.4277   21.1745 C   0  0  0  0  0  0  0  0  0  0  0  0
  -26.6072  -31.9757   22.7423 C   0  0  0  0  0  0  0  0  0  0  0  0
  -23.8336  -33.5592   23.9450 C   0  0  0  0  0  0  0  0  0  0  0  0
  -23.8546  -22.0628   23.8262 C   0  0  0  0  0  0  0  0  0  0  0  0
  -32.2470  -28.2653   18.8358 C   0  0  0  0  0  0  0  0  0  0  0  0
  -26.0620  -30.1694   19.5715 C   0  0  0  0  0  0  0  0  0  0  0  0
  -21.7248  -23.5225   21.4294 C   0  0  0  0  0  0  0  0  0  0  0  0
  -25.0624  -30.0198   22.3506 C   0  0  0  0  0  0  0  0  0  0  0  0
  -19.3157  -22.0531   22.4047 C   0  0  0  0  0  0  0  0  0  0  0  0
  -31.8211  -29.2273   19.9419 C   0  0  0  0  0  0  0  0  0  0  0  0
  -20.7081  -21.4221   22.3688 C   0  0  0  0  0  0  0  0  0  0  0  0
  -27.0182  -21.3663   25.0643 C   0  0  0  0  0  0  0  0  0  0  0  0
  -30.9738  -28.5025   20.9828 C   0  0  0  0  0  0  0  0  0  0  0  0
  -27.5409  -20.2676   24.1399 C   0  0  0  0  0  0  0  0  0  0  0  0
  -25.5446  -21.1503   25.3876 C   0  0  0  0  0  0  0  0  0  0  0  0
  -25.1779  -19.9768   23.2406 C   0  0  0  0  0  0  0  0  0  0  0  0
  -29.6876  -27.9483   20.3584 C   0  0  1  0  0  0  0  0  0  0  0  0
  -26.9405  -30.5413   20.7621 C   0  0  1  0  0  0  0  0  0  0  0  0
  -26.6677  -20.1468   22.8786 C   0  0  2  0  0  0  0  0  0  0  0  0
  -21.7803  -22.4953   22.5660 C   0  0  1  0  0  0  0  0  0  0  0  0
  -16.4660  -25.2465   20.1411 C   0  0  0  0  0  0  0  0  0  0  0  0
  -23.1288  -35.6057   25.2148 C   0  0  0  0  0  0  0  0  0  0  0  0
  -27.5704  -30.6937   25.3382 C   0  0  0  0  0  0  0  0  0  0  0  0
  -26.0478  -32.2409   26.5856 C   0  0  0  0  0  0  0  0  0  0  0  0
  -27.9094  -33.1681   25.2082 C   0  0  0  0  0  0  0  0  0  0  0  0
  -23.4319  -20.9387   21.5986 C   0  0  0  0  0  0  0  0  0  0  0  0
  -22.2079  -34.5476   21.6780 C   0  0  0  0  0  0  0  0  0  0  0  0
  -21.2219  -25.9289   19.8222 C   0  0  0  0  0  0  0  0  0  1  0  0
  -25.8899  -32.1757   24.0554 C   0  0  1  0  0  0  0  0  0  0  0  0
  -23.3724  -35.0017   23.8405 C   0  0  2  0  0  0  0  0  0  0  0  0
  -26.8441  -32.0523   25.2768 C   0  0  0  0  0  0  0  0  0  0  0  0
  -26.6238  -17.8113   22.0868 N   0  0  0  0  0  0  0  0  0  0  0  0
  -17.9396  -23.6777   21.2338 N   0  0  0  0  0  0  0  0  0  0  0  0
  -18.8573  -25.5444   20.0225 N   0  0  0  0  0  0  0  0  0  0  0  0
  -27.1537  -19.0399   21.9610 N   0  0  0  0  0  0  0  0  0  0  0  0
  -26.1615  -30.9116   21.9454 N   0  0  0  0  0  0  0  0  0  0  0  0
  -24.7460  -21.0348   24.1670 N   0  0  0  0  0  0  0  0  0  0  0  0
  -28.7326  -20.2981   20.7222 N   0  0  0  0  0  0  0  0  0  0  0  0
  -28.6008  -17.6157   18.0426 N   0  0  0  0  0  0  0  0  0  0  0  0
  -28.7178  -29.0068   20.1753 N   0  0  0  0  0  0  0  0  0  0  0  0
  -25.2090  -33.4622   23.9568 N   0  0  0  0  0  0  0  0  0  0  0  0
  -23.1062  -21.8997   22.6507 N   0  0  0  0  0  0  0  0  0  0  0  0
  -22.1062  -35.0854   23.0591 N   0  3  0  0  0  0  0  0  0  0  0  0
  -30.2227  -17.0540   19.5633 O   0  0  0  0  0  0  0  0  0  0  0  0
  -27.7997  -28.9841   22.3152 O   0  0  0  0  0  0  0  0  0  0  0  0
  -27.5243  -32.7399   22.4316 O   0  0  0  0  0  0  0  0  0  0  0  0
  -23.0518  -32.6132   24.0133 O   0  0  0  0  0  0  0  0  0  0  0  0
  -23.7277  -23.0686   24.5365 O   0  0  0  0  0  0  0  0  0  0  0  0
  -26.1093  -11.6832   20.4348 O   0  0  0  0  0  0  0  0  0  0  0  0
  -21.7788  -26.7021   20.8845 O   0  0  0  0  0  0  0  0  0  1  0  0
  -21.5102   -9.7151   22.7541 F   0  0  0  0  0  0  0  0  0  0  0  0
  -24.1163  -10.5481   18.8914 F   0  0  0  0  0  0  0  0  0  0  0  0
  1  2  1  0  0  0  0
  1  5  2  0  0  0  0
  2  6  2  0  0  0  0
  3  8  2  0  0  0  0
  3 15  1  0  0  0  0
  4  9  1  0  0  0  0
  4 15  2  0  0  0  0
  5 17  1  0  0  0  0
  6 19  1  0  0  0  0
  7 10  2  0  0  0  0
  7 18  1  0  0  0  0
  8 22  1  0  0  0  0
  9 22  2  0  0  0  0
 10 23  1  0  0  0  0
 11 12  2  0  0  0  0
 11 24  1  0  0  0  0
 12 25  1  0  0  0  0
 13 20  1  0  0  0  0
 13 23  2  0  0  0  0
 14 25  2  0  0  0  0
 14 26  1  0  0  0  0
 15 27  1  0  0  0  0
 16 27  1  0  0  0  0
 16 30  2  0  0  0  0
 16 32  1  0  0  0  0
 17 19  2  0  0  0  0
 17 37  1  0  0  0  0
 18 20  2  0  0  0  0
 18 38  1  0  0  0  0
 19 49  1  0  0  0  0
 20 40  1  0  0  0  0
 21 28  1  0  0  0  0
 21 29  2  0  0  0  0
 21 39  1  0  0  0  0
 22 81  1  0  0  0  0
 23 82  1  0  0  0  0
 24 26  2  0  0  0  0
 24 81  1  0  0  0  0
 25 83  1  0  0  0  0
 26 84  1  0  0  0  0
 27 64  2  0  0  0  0
 28 41  1  0  0  0  0
 28 65  2  0  0  0  0
 29 60  1  0  0  0  0
 29 66  1  0  0  0  0
 30 67  1  0  0  0  0
 30 70  1  0  0  0  0
 31 53  1  0  0  0  0
 31 65  1  0  0  0  0
 31 66  2  0  0  0  0
 32 71  1  0  0  0  0
 32 76  2  0  0  0  0
 33 50  1  0  0  0  0
 33 72  1  0  0  0  0
 33 77  2  0  0  0  0
 34 61  1  0  0  0  0
 34 68  1  0  0  0  0
 34 78  2  0  0  0  0
 35 62  1  0  0  0  0
 35 73  1  0  0  0  0
 35 79  2  0  0  0  0
 36 69  1  0  0  0  0
 36 74  1  0  0  0  0
 36 80  2  0  0  0  0
 37 42  1  0  0  0  0
 38 50  1  0  0  0  0
 39 52  1  0  0  0  0
 40 68  1  0  0  0  0
 41 43  1  0  0  0  0
 42 45  1  0  0  0  0
 43 52  1  0  0  0  0
 44 46  1  0  0  0  0
 44 47  1  0  0  0  0
 45 49  1  0  0  0  0
 46 51  1  0  0  0  0
 47 69  1  0  0  0  0
 48 51  1  0  0  0  0
 48 69  1  0  0  0  0
 49 72  1  0  0  0  0
 50 68  1  0  0  0  0
 51 67  1  0  0  0  0
 52 74  1  0  0  0  0
 54 62  1  0  0  0  0
 55 63  1  0  0  0  0
 56 63  1  0  0  0  0
 57 63  1  0  0  0  0
 58 74  1  0  0  0  0
 59 75  1  0  0  0  0
 60 82  1  0  0  0  0
 61 63  1  0  0  0  0
 61 73  1  0  0  0  0
 62 75  1  0  0  0  0
 64 67  1  0  0  0  0
M  CHG  1  75   1
M  ISO  4  36 100  60 101  74 100  82 101
M  END
> <Batch ID>
0187

> <Smiles>
CNC(C)C(=O)NC(C(=O)N1Cc2cc([101O:1][101CH2:1]c3nc(C)nc4c3CC([100N:0](C)[100C:0](=O)N3CCCC(n5nc(-c6ccc(Oc7ccc(F)cc7F)cc6)c(C(N)=O)c5N)C3)CC4)ccc2CC1C(=O)NC1CCCc2ccccc21)C(C)(C)C

> <Shape>
0.246

> <Color>
0.082

> <Negative vol penalty>
0.000

$$$$

  -OEChem-04052323173D

 86 95  0     1  0  0  0  0  0999 V2000
  -28.8538   -9.5982   22.8768 C   0  0  0  0  0  0  0  0  0  0  0  0
  -29.3320  -10.8931   22.7038 C   0  0  0  0  0  0  0  0  0  0  0  0
  -21.0495  -27.0934   21.6120 C   0  0  0  0  0  0  0  0  0  0  0  0
  -20.1302  -28.0499   23.6312 C   0  0  0  0  0  0  0  0  0  0  0  0
  -27.7419   -9.1648   22.1558 C   0  0  0  0  0  0  0  0  0  0  0  0
  -28.6992  -11.7551   21.8089 C   0  0  0  0  0  0  0  0  0  0  0  0
  -28.0176  -17.8134   22.3902 C   0  0  0  0  0  0  0  0  0  0  0  0
  -20.0274  -26.1444   21.5961 C   0  0  0  0  0  0  0  0  0  0  0  0
  -19.1080  -27.1010   23.6153 C   0  0  0  0  0  0  0  0  0  0  0  0
  -28.7237  -18.8920   21.8593 C   0  0  0  0  0  0  0  0  0  0  0  0
  -17.4547  -23.6950   20.8238 C   0  0  0  0  0  0  0  0  0  0  0  0
  -16.8203  -23.4455   19.6070 C   0  0  0  0  0  0  0  0  0  0  0  0
  -27.1081  -19.0644   20.0763 C   0  0  0  0  0  0  0  0  0  0  0  0
  -16.1323  -25.7586   19.4915 C   0  0  0  0  0  0  0  0  0  0  0  0
  -32.3304  -23.7267   18.3714 C   0  0  0  0  0  0  0  0  0  0  0  0
  -21.1010  -28.0462   22.6296 C   0  0  0  0  0  0  0  0  0  0  0  0
  -22.1473  -30.2970   22.0408 C   0  0  0  0  0  0  0  0  0  0  0  0
  -27.0893  -10.0251   21.2587 C   0  0  0  0  0  0  0  0  0  0  0  0
  -26.8554  -17.3445   21.7609 C   0  0  0  0  0  0  0  0  0  0  0  0
  -27.5784  -11.3324   21.0742 C   0  0  0  0  0  0  0  0  0  0  0  0
  -26.3876  -17.9813   20.6026 C   0  0  0  0  0  0  0  0  0  0  0  0
  -19.0566  -26.1482   22.5977 C   0  0  0  0  0  0  0  0  0  0  0  0
  -28.2707  -19.5158   20.7006 C   0  0  0  0  0  0  0  0  0  0  0  0
  -17.4279  -24.9762   21.3746 C   0  0  0  0  0  0  0  0  0  0  0  0
  -16.1591  -24.4773   18.9408 C   0  0  0  0  0  0  0  0  0  0  0  0
  -16.7667  -26.0080   20.7084 C   0  0  0  0  0  0  0  0  0  0  0  0
  -22.1569  -29.0264   22.6468 C   0  0  0  0  0  0  0  0  0  0  0  0
  -33.1518  -24.8347   18.3267 C   0  0  0  0  0  0  0  0  0  0  0  0
  -31.0866  -23.9278   18.9342 C   0  0  0  0  0  0  0  0  0  0  0  0
  -23.3745  -30.8326   22.3468 C   0  0  0  0  0  0  0  0  0  0  0  0
  -31.5585  -26.1181   19.3176 C   0  0  0  0  0  0  0  0  0  0  0  0
  -21.1209  -30.9360   21.2702 C   0  0  0  0  0  0  0  0  0  0  0  0
  -25.9860  -14.6004   20.4128 C   0  0  0  0  0  0  0  0  0  0  0  0
  -23.1004  -16.0674   20.2031 C   0  0  0  0  0  0  0  0  0  0  0  0
  -21.3364  -18.9862   20.0801 C   0  0  0  0  0  0  0  0  0  0  0  0
  -28.5628  -28.0233   23.8290 C   0  0  0  0  0  0  0  0  0  0  0  0
  -25.9198   -9.4964   20.4667 C   0  0  0  0  0  0  0  0  0  0  0  0
  -26.0904  -16.1970   22.3611 C   0  0  0  0  0  0  0  0  0  0  0  0
  -25.1343  -17.5293   19.9003 C   0  0  0  0  0  0  0  0  0  0  0  0
  -25.0795  -10.5924   19.8162 C   0  0  0  0  0  0  0  0  0  0  0  0
  -26.8150  -30.6741   25.6705 C   0  0  0  0  0  0  0  0  0  0  0  0
  -25.9770  -11.6134   19.1243 C   0  0  0  0  0  0  0  0  0  0  0  0
  -25.4060  -30.6258   25.0779 C   0  0  0  0  0  0  0  0  0  0  0  0
  -29.5490  -29.0946   20.4531 C   0  0  0  0  0  0  0  0  0  0  0  0
  -27.4929  -29.3061   25.6456 C   0  0  0  0  0  0  0  0  0  0  0  0
  -28.4695  -29.1512   21.5290 C   0  0  0  0  0  0  0  0  0  0  0  0
  -26.1012  -28.6073   23.7356 C   0  0  0  0  0  0  0  0  0  0  0  0
  -29.8305  -27.2018   21.8644 C   0  0  0  0  0  0  0  0  0  0  0  0
  -26.9040  -12.3050   20.1311 C   0  0  1  0  0  0  0  0  0  0  0  0
  -25.2038  -15.4762   21.3502 C   0  0  1  0  0  0  0  0  0  0  0  0
  -25.4131  -29.9783   23.6805 C   0  0  1  0  0  0  0  0  0  0  0  0
  -29.8717  -27.6054   20.3982 C   0  0  2  0  0  0  0  0  0  0  0  0
  -34.5164  -24.7153   17.7359 C   0  0  0  0  0  0  0  0  0  0  0  0
  -18.9956  -19.8659   19.8698 C   0  0  0  0  0  0  0  0  0  0  0  0
  -23.1260  -15.4160   17.2224 C   0  0  0  0  0  0  0  0  0  0  0  0
  -21.2985  -17.0986   16.9101 C   0  0  0  0  0  0  0  0  0  0  0  0
  -20.9132  -15.0926   18.3419 C   0  0  0  0  0  0  0  0  0  0  0  0
  -21.4818  -20.3320   22.7119 C   0  0  0  0  0  0  0  0  0  0  0  0
  -28.9020  -22.8962   19.5578 C   0  0  0  0  0  0  0  0  0  0  0  0
  -28.2058  -21.5486   19.4678 C   0  0  0  0  0  0  0  0  0  1  0  0
  -22.4182  -16.9431   19.1801 C   0  0  1  0  0  0  0  0  0  0  0  0
  -20.0992  -19.4479   20.8289 C   0  0  2  0  0  0  0  0  0  0  0  0
  -21.9637  -16.1451   17.9255 C   0  0  0  0  0  0  0  0  0  0  0  0
  -23.2996  -28.7701   23.2891 N   0  0  0  0  0  0  0  0  0  0  0  0
  -32.7967  -26.0502   18.7924 N   0  0  0  0  0  0  0  0  0  0  0  0
  -30.6663  -25.1145   19.4192 N   0  0  0  0  0  0  0  0  0  0  0  0
  -24.0195  -29.8870   23.0884 N   0  0  0  0  0  0  0  0  0  0  0  0
  -24.4248  -16.3992   20.5223 N   0  0  0  0  0  0  0  0  0  0  0  0
  -27.4483  -28.7228   24.3046 N   0  0  0  0  0  0  0  0  0  0  0  0
  -28.8240  -28.0772   22.4604 N   0  0  0  0  0  0  0  0  0  0  0  0
  -23.9539  -32.0155   22.0512 N   0  0  0  0  0  0  0  0  0  0  0  0
  -19.9217  -30.2444   21.0509 N   0  0  0  0  0  0  0  0  0  0  0  0
  -30.2126  -22.8151   18.9993 N   0  0  0  0  0  0  0  0  0  0  0  0
  -31.1593  -27.3546   19.8065 N   0  0  0  0  0  0  0  0  0  0  0  0
  -26.1797  -13.3128   20.8755 N   0  0  0  0  0  0  0  0  0  0  0  0
  -21.3339  -17.6217   19.8818 N   0  0  0  0  0  0  0  0  0  0  0  0
  -20.4265  -20.6092   21.7037 N   0  3  0  0  0  0  0  0  0  0  0  0
  -21.2692  -32.0795   20.7765 O   0  0  0  0  0  0  0  0  0  0  0  0
  -26.3830  -15.0584   19.3477 O   0  0  0  0  0  0  0  0  0  0  0  0
  -22.4788  -15.1280   20.7059 O   0  0  0  0  0  0  0  0  0  0  0  0
  -22.2151  -19.7593   19.7050 O   0  0  0  0  0  0  0  0  0  0  0  0
  -29.3188  -27.4161   24.5989 O   0  0  0  0  0  0  0  0  0  0  0  0
  -18.0589  -25.2225   22.5824 O   0  0  0  0  0  0  0  0  0  0  0  0
  -28.9632  -20.5757   20.1763 O   0  0  0  0  0  0  0  0  0  1  0  0
  -15.5512  -24.2379   17.7714 F   0  0  0  0  0  0  0  0  0  0  0  0
  -16.7385  -27.2413   21.2320 F   0  0  0  0  0  0  0  0  0  0  0  0
  1  2  1  0  0  0  0
  1  5  2  0  0  0  0
  2  6  2  0  0  0  0
  3  8  2  0  0  0  0
  3 16  1  0  0  0  0
  4  9  1  0  0  0  0
  4 16  2  0  0  0  0
  5 18  1  0  0  0  0
  6 20  1  0  0  0  0
  7 10  2  0  0  0  0
  7 19  1  0  0  0  0
  8 22  1  0  0  0  0
  9 22  2  0  0  0  0
 10 23  1  0  0  0  0
 11 12  2  0  0  0  0
 11 24  1  0  0  0  0
 12 25  1  0  0  0  0
 13 21  1  0  0  0  0
 13 23  2  0  0  0  0
 14 25  2  0  0  0  0
 14 26  1  0  0  0  0
 15 28  2  0  0  0  0
 15 29  1  0  0  0  0
 16 27  1  0  0  0  0
 17 27  1  0  0  0  0
 17 30  2  0  0  0  0
 17 32  1  0  0  0  0
 18 20  2  0  0  0  0
 18 37  1  0  0  0  0
 19 21  2  0  0  0  0
 19 38  1  0  0  0  0
 20 49  1  0  0  0  0
 21 39  1  0  0  0  0
 22 83  1  0  0  0  0
 23 84  1  0  0  0  0
 24 26  2  0  0  0  0
 24 83  1  0  0  0  0
 25 85  1  0  0  0  0
 26 86  1  0  0  0  0
 27 64  2  0  0  0  0
 28 53  1  0  0  0  0
 28 65  1  0  0  0  0
 29 66  2  0  0  0  0
 29 73  1  0  0  0  0
 30 67  1  0  0  0  0
 30 71  1  0  0  0  0
 31 65  2  0  0  0  0
 31 66  1  0  0  0  0
 31 74  1  0  0  0  0
 32 72  1  0  0  0  0
 32 78  2  0  0  0  0
 33 50  1  0  0  0  0
 33 75  1  0  0  0  0
 33 79  2  0  0  0  0
 34 61  1  0  0  0  0
 34 68  1  0  0  0  0
 34 80  2  0  0  0  0
 35 62  1  0  0  0  0
 35 76  1  0  0  0  0
 35 81  2  0  0  0  0
 36 69  1  0  0  0  0
 36 70  1  0  0  0  0
 36 82  2  0  0  0  0
 37 40  1  0  0  0  0
 38 50  1  0  0  0  0
 39 68  1  0  0  0  0
 40 42  1  0  0  0  0
 41 43  1  0  0  0  0
 41 45  1  0  0  0  0
 42 49  1  0  0  0  0
 43 51  1  0  0  0  0
 44 46  1  0  0  0  0
 44 52  1  0  0  0  0
 45 69  1  0  0  0  0
 46 70  1  0  0  0  0
 47 51  1  0  0  0  0
 47 69  1  0  0  0  0
 48 52  1  0  0  0  0
 48 70  1  0  0  0  0
 49 75  1  0  0  0  0
 50 68  1  0  0  0  0
 51 67  1  0  0  0  0
 52 74  1  0  0  0  0
 54 62  1  0  0  0  0
 55 63  1  0  0  0  0
 56 63  1  0  0  0  0
 57 63  1  0  0  0  0
 58 77  1  0  0  0  0
 59 60  1  0  0  0  0
 59 73  1  0  0  0  0
 60 84  1  0  0  0  0
 61 63  1  0  0  0  0
 61 76  1  0  0  0  0
 62 77  1  0  0  0  0
 64 67  1  0  0  0  0
M  CHG  1  77   1
M  ISO  4  36 100  60 101  70 100  84 101
M  END
> <Batch ID>
0187

> <Smiles>
CNC(C)C(=O)NC(C(=O)N1Cc2cc([101O:1][101CH2:1]CNc3cc(C)nc(NC4CC[100N:0]([100C:0](=O)N5CCCC(n6nc(-c7ccc(Oc8ccc(F)cc8F)cc7)c(C(N)=O)c6N)C5)C4)n3)ccc2CC1C(=O)NC1CCCc2ccccc21)C(C)(C)C

> <Shape>
0.234

> <Color>
0.076

> <Negative vol penalty>
0.000

$$$$

  -OEChem-04052323173D

 82 91  0     1  0  0  0  0  0999 V2000
  -21.9682  -31.1752   18.8836 C   0  0  0  0  0  0  0  0  0  0  0  0
  -22.0652  -29.8363   18.5187 C   0  0  0  0  0  0  0  0  0  0  0  0
  -30.8303  -19.9669   18.9496 C   0  0  0  0  0  0  0  0  0  0  0  0
  -28.7549  -20.4833   20.0735 C   0  0  0  0  0  0  0  0  0  0  0  0
  -22.8312  -31.6987   19.8454 C   0  0  0  0  0  0  0  0  0  0  0  0
  -23.0261  -29.0202   19.1147 C   0  0  0  0  0  0  0  0  0  0  0  0
  -22.4791  -23.0720   20.4657 C   0  0  0  0  0  0  0  0  0  0  0  0
  -30.7168  -21.1387   18.2016 C   0  0  0  0  0  0  0  0  0  0  0  0
  -28.6414  -21.6552   19.3255 C   0  0  0  0  0  0  0  0  0  0  0  0
  -22.9036  -21.9180   19.8086 C   0  0  0  0  0  0  0  0  0  0  0  0
  -27.9890  -24.9644   17.9684 C   0  0  0  0  0  0  0  0  0  0  0  0
  -27.6264  -26.1314   18.6409 C   0  0  0  0  0  0  0  0  0  0  0  0
  -24.8789  -21.8641   21.1921 C   0  0  0  0  0  0  0  0  0  0  0  0
  -29.5906  -25.9388   20.0344 C   0  0  0  0  0  0  0  0  0  0  0  0
  -24.1494  -16.6986   19.9323 C   0  0  0  0  0  0  0  0  0  0  0  0
  -22.9905  -17.8004   21.6352 C   0  0  0  0  0  0  0  0  0  0  0  0
  -29.8493  -19.6392   19.8856 C   0  0  0  0  0  0  0  0  0  0  0  0
  -30.6017  -18.2733   21.9045 C   0  0  0  0  0  0  0  0  0  0  0  0
  -23.7968  -30.8864   20.4605 C   0  0  0  0  0  0  0  0  0  0  0  0
  -23.2580  -23.6378   21.4853 C   0  0  0  0  0  0  0  0  0  0  0  0
  -23.9037  -29.5337   20.0847 C   0  0  0  0  0  0  0  0  0  0  0  0
  -24.4609  -23.0238   21.8623 C   0  0  0  0  0  0  0  0  0  0  0  0
  -23.3601  -16.6016   21.0601 C   0  0  0  0  0  0  0  0  0  0  0  0
  -29.6224  -21.9828   18.3895 C   0  0  0  0  0  0  0  0  0  0  0  0
  -24.1051  -21.3155   20.1698 C   0  0  0  0  0  0  0  0  0  0  0  0
  -29.1524  -24.2845   18.3290 C   0  0  0  0  0  0  0  0  0  0  0  0
  -28.4272  -26.6186   19.6738 C   0  0  0  0  0  0  0  0  0  0  0  0
  -29.9532  -24.7717   19.3619 C   0  0  0  0  0  0  0  0  0  0  0  0
  -29.9657  -18.4286   20.6582 C   0  0  0  0  0  0  0  0  0  0  0  0
  -30.4363  -16.9448   22.2113 C   0  0  0  0  0  0  0  0  0  0  0  0
  -24.1267  -18.9686   20.0505 C   0  0  0  0  0  0  0  0  0  1  0  0
  -31.2813  -19.2433   22.7126 C   0  0  0  0  0  0  0  0  0  0  0  0
  -24.7339  -26.4227   21.8973 C   0  0  0  0  0  0  0  0  0  0  0  0
  -25.3010  -25.2401   24.8641 C   0  0  0  0  0  0  0  0  0  0  0  0
  -25.6229  -22.5054   26.8802 C   0  0  0  0  0  0  0  0  0  0  0  0
  -26.3790  -12.8568   20.5749 C   0  0  0  0  0  0  0  0  0  0  0  0
  -24.7386  -31.5087   21.4606 C   0  0  0  0  0  0  0  0  0  0  0  0
  -22.7730  -24.8678   22.2025 C   0  0  0  0  0  0  0  0  0  0  0  0
  -25.3238  -23.5802   22.9643 C   0  0  0  0  0  0  0  0  0  0  0  0
  -25.4817  -30.4856   22.3159 C   0  0  0  0  0  0  0  0  0  0  0  0
  -29.9080  -12.6622   20.1446 C   0  0  0  0  0  0  0  0  0  0  0  0
  -26.0417  -29.3665   21.4437 C   0  0  0  0  0  0  0  0  0  0  0  0
  -30.3803  -14.1040   20.3399 C   0  0  0  0  0  0  0  0  0  0  0  0
  -21.7043  -13.7666   21.4990 C   0  0  0  0  0  0  0  0  0  0  0  0
  -28.5604  -12.6019   19.4290 C   0  0  0  0  0  0  0  0  0  0  0  0
  -21.7720  -15.0709   22.2992 C   0  0  0  0  0  0  0  0  0  0  0  0
  -27.9651  -14.8498   20.2452 C   0  0  0  0  0  0  0  0  0  0  0  0
  -24.9166  -28.6106   20.7265 C   0  0  1  0  0  0  0  0  0  0  0  0
  -23.8971  -25.6488   22.8763 C   0  0  1  0  0  0  0  0  0  0  0  0
  -29.2934  -14.9639   21.0125 C   0  0  2  0  0  0  0  0  0  0  0  0
  -23.1474  -14.0626   21.0536 C   0  0  2  0  0  0  0  0  0  0  0  0
  -26.1258  -21.8539   29.2509 C   0  0  0  0  0  0  0  0  0  0  0  0
  -28.2595  -25.8187   24.3930 C   0  0  0  0  0  0  0  0  0  0  0  0
  -28.7894  -24.3159   26.3242 C   0  0  0  0  0  0  0  0  0  0  0  0
  -27.4389  -26.3816   26.6874 C   0  0  0  0  0  0  0  0  0  0  0  0
  -22.9814  -21.2114   27.2073 C   0  0  0  0  0  0  0  0  0  0  0  0
  -24.2346  -13.2671   21.7549 C   0  0  0  0  0  0  0  0  0  0  0  0
  -26.3951  -24.4123   25.4940 C   0  0  1  0  0  0  0  0  0  0  0  0
  -25.0360  -22.1837   28.2427 C   0  0  2  0  0  0  0  0  0  0  0  0
  -27.7057  -25.2225   25.7025 C   0  0  0  0  0  0  0  0  0  0  0  0
  -24.5528  -17.8701   19.3983 N   0  0  0  0  0  0  0  0  0  0  0  0
  -23.3572  -19.0067   21.1551 N   0  0  0  0  0  0  0  0  0  0  0  0
  -29.4359  -17.2896   20.2043 N   0  0  0  0  0  0  0  0  0  0  0  0
  -29.7387  -16.4060   21.1705 N   0  0  0  0  0  0  0  0  0  0  0  0
  -22.9605  -15.3692   21.5853 N   0  0  1  0  0  0  0  0  0  0  0  0
  -24.8098  -24.7879   23.6312 N   0  0  0  0  0  0  0  0  0  0  0  0
  -27.5737  -13.4372   20.1179 N   0  0  0  0  0  0  0  0  0  0  0  0
  -30.8210  -16.1966   23.2670 N   0  0  0  0  0  0  0  0  0  0  0  0
  -31.3591  -20.5634   22.2481 N   0  0  0  0  0  0  0  0  0  0  0  0
  -24.2625  -27.6953   21.6369 N   0  0  0  0  0  0  0  0  0  0  0  0
  -25.8331  -23.8588   26.7212 N   0  0  0  0  0  0  0  0  0  0  0  0
  -25.5015  -13.7174   21.2230 N   0  0  0  0  0  0  0  0  0  0  0  0
  -24.1150  -21.0159   28.1474 N   0  3  0  0  0  0  0  0  0  0  0  0
  -31.8182  -18.9447   23.8062 O   0  0  0  0  0  0  0  0  0  0  0  0
  -25.7341  -25.9043   21.4151 O   0  0  0  0  0  0  0  0  0  0  0  0
  -24.8920  -26.2467   25.4481 O   0  0  0  0  0  0  0  0  0  0  0  0
  -25.8736  -21.6419   26.0422 O   0  0  0  0  0  0  0  0  0  0  0  0
  -26.1164  -11.6590   20.4218 O   0  0  0  0  0  0  0  0  0  0  0  0
  -29.5114  -23.1265   17.6599 O   0  0  0  0  0  0  0  0  0  0  0  0
  -24.5221  -20.1894   19.5295 O   0  0  0  0  0  0  0  0  0  1  0  0
  -28.0797  -27.7401   20.3185 F   0  0  0  0  0  0  0  0  0  0  0  0
  -31.0727  -24.1236   19.7119 F   0  0  0  0  0  0  0  0  0  0  0  0
  1  2  1  0  0  0  0
  1  5  2  0  0  0  0
  2  6  2  0  0  0  0
  3  8  2  0  0  0  0
  3 17  1  0  0  0  0
  4  9  1  0  0  0  0
  4 17  2  0  0  0  0
  5 19  1  0  0  0  0
  6 21  1  0  0  0  0
  7 10  2  0  0  0  0
  7 20  1  0  0  0  0
  8 24  1  0  0  0  0
  9 24  2  0  0  0  0
 10 25  1  0  0  0  0
 11 12  2  0  0  0  0
 11 26  1  0  0  0  0
 12 27  1  0  0  0  0
 13 22  1  0  0  0  0
 13 25  2  0  0  0  0
 14 27  2  0  0  0  0
 14 28  1  0  0  0  0
 15 23  1  0  0  0  0
 15 61  2  0  0  0  0
 16 23  2  0  0  0  0
 16 62  1  0  0  0  0
 17 29  1  0  0  0  0
 18 29  1  0  0  0  0
 18 30  2  0  0  0  0
 18 32  1  0  0  0  0
 19 21  2  0  0  0  0
 19 37  1  0  0  0  0
 20 22  2  0  0  0  0
 20 38  1  0  0  0  0
 21 48  1  0  0  0  0
 22 39  1  0  0  0  0
 23 65  1  0  0  0  0
 24 79  1  0  0  0  0
 25 80  1  0  0  0  0
 26 28  2  0  0  0  0
 26 79  1  0  0  0  0
 27 81  1  0  0  0  0
 28 82  1  0  0  0  0
 29 63  2  0  0  0  0
 30 64  1  0  0  0  0
 30 68  1  0  0  0  0
 31 61  1  0  0  0  0
 31 62  2  0  0  0  0
 31 80  1  0  0  0  0
 32 69  1  0  0  0  0
 32 74  2  0  0  0  0
 33 49  1  0  0  0  0
 33 70  1  0  0  0  0
 33 75  2  0  0  0  0
 34 58  1  0  0  0  0
 34 66  1  0  0  0  0
 34 76  2  0  0  0  0
 35 59  1  0  0  0  0
 35 71  1  0  0  0  0
 35 77  2  0  0  0  0
 36 67  1  0  0  0  0
 36 72  1  0  0  0  0
 36 78  2  0  0  0  0
 37 40  1  0  0  0  0
 38 49  1  0  0  0  0
 39 66  1  0  0  0  0
 40 42  1  0  0  0  0
 41 43  1  0  0  0  0
 41 45  1  0  0  0  0
 42 48  1  0  0  0  0
 43 50  1  0  0  0  0
 44 46  1  0  0  0  0
 44 51  1  0  0  0  0
 45 67  1  0  0  0  0
 46 65  1  0  0  0  0
 47 50  1  0  0  0  0
 47 67  1  0  0  0  0
 48 70  1  0  0  0  0
 49 66  1  0  0  0  0
 50 64  1  0  0  0  0
 51 57  1  0  0  0  0
 51 65  1  0  0  0  0
 52 59  1  0  0  0  0
 53 60  1  0  0  0  0
 54 60  1  0  0  0  0
 55 60  1  0  0  0  0
 56 73  1  0  0  0  0
 57 72  1  0  0  0  0
 58 60  1  0  0  0  0
 58 71  1  0  0  0  0
 59 73  1  0  0  0  0
 63 64  1  0  0  0  0
M  CHG  1  73   1
M  ISO  4  31 101  36 100  72 100  80 101
M  END
> <Batch ID>
0187

> <Smiles>
CNC(C)C(=O)NC(C(=O)N1Cc2cc([101O:1][101c:1]3ncc(N4CCC4C[100NH:0][100C:0](=O)N4CCCC(n5nc(-c6ccc(Oc7ccc(F)cc7F)cc6)c(C(N)=O)c5N)C4)cn3)ccc2CC1C(=O)NC1CCCc2ccccc21)C(C)(C)C

> <Shape>
0.211

> <Color>
0.051

> <Negative vol penalty>
0.000

$$$$

  -OEChem-04052323173D

 84 93  0     1  0  0  0  0  0999 V2000
  -28.0672  -37.8352   24.3279 C   0  0  0  0  0  0  0  0  0  0  0  0
  -28.4127  -37.0266   23.2498 C   0  0  0  0  0  0  0  0  0  0  0  0
  -23.3624   -9.3153   22.3608 C   0  0  0  0  0  0  0  0  0  0  0  0
  -24.9259   -7.6594   21.5542 C   0  0  0  0  0  0  0  0  0  0  0  0
  -27.4970  -37.2695   25.4675 C   0  0  0  0  0  0  0  0  0  0  0  0
  -28.1891  -35.6516   23.3111 C   0  0  0  0  0  0  0  0  0  0  0  0
  -26.4945  -30.0796   19.1402 C   0  0  0  0  0  0  0  0  0  0  0  0
  -22.3061   -8.4387   22.1131 C   0  0  0  0  0  0  0  0  0  0  0  0
  -23.8696   -6.7827   21.3066 C   0  0  0  0  0  0  0  0  0  0  0  0
  -26.9400  -28.7973   18.8224 C   0  0  0  0  0  0  0  0  0  0  0  0
  -21.8939   -4.6993   23.0888 C   0  0  0  0  0  0  0  0  0  0  0  0
  -22.0465   -3.3729   23.4922 C   0  0  0  0  0  0  0  0  0  0  0  0
  -25.8759  -27.9413   20.8109 C   0  0  0  0  0  0  0  0  0  0  0  0
  -21.7713   -2.6456   21.2047 C   0  0  0  0  0  0  0  0  0  0  0  0
  -27.8462  -22.9227   16.8496 C   0  0  0  0  0  0  0  0  0  0  0  0
  -29.1665  -24.3031   18.7147 C   0  0  0  0  0  0  0  0  0  0  0  0
  -24.6723   -8.9257   22.0813 C   0  0  0  0  0  0  0  0  0  0  0  0
  -26.5068   -9.9531   23.5259 C   0  0  0  0  0  0  0  0  0  0  0  0
  -27.2574  -35.8881   25.5390 C   0  0  0  0  0  0  0  0  0  0  0  0
  -25.7443  -30.3045   20.3034 C   0  0  0  0  0  0  0  0  0  0  0  0
  -27.6163  -35.0667   24.4533 C   0  0  0  0  0  0  0  0  0  0  0  0
  -25.4199  -29.2269   21.1399 C   0  0  0  0  0  0  0  0  0  0  0  0
  -22.5597   -7.1723   21.5860 C   0  0  0  0  0  0  0  0  0  0  0  0
  -26.6332  -27.7284   19.6593 C   0  0  0  0  0  0  0  0  0  0  0  0
  -21.6799   -4.9990   21.7434 C   0  0  0  0  0  0  0  0  0  0  0  0
  -21.9852   -2.3460   22.5501 C   0  0  0  0  0  0  0  0  0  0  0  0
  -21.6186   -3.9722   20.8014 C   0  0  0  0  0  0  0  0  0  0  0  0
  -25.7638   -9.8311   22.3364 C   0  0  0  0  0  0  0  0  0  0  0  0
  -28.8298  -22.3294   17.6100 C   0  0  0  0  0  0  0  0  0  0  0  0
  -28.1835  -24.8967   17.9539 C   0  0  0  0  0  0  0  0  0  0  0  0
  -27.4202  -10.9438   23.2600 C   0  0  0  0  0  0  0  0  0  0  0  0
  -26.3825   -9.2350   24.7606 C   0  0  0  0  0  0  0  0  0  0  0  0
  -26.1615  -32.0239   22.9441 C   0  0  0  0  0  0  0  0  0  0  0  0
  -23.1218  -31.0807   23.5711 C   0  0  0  0  0  0  0  0  0  0  0  0
  -20.6289  -28.8078   23.0553 C   0  0  0  0  0  0  0  0  0  0  0  0
  -27.1056  -15.3710   19.1594 C   0  0  0  0  0  0  0  0  0  0  0  0
  -26.6823  -35.3160   26.8104 C   0  0  0  0  0  0  0  0  0  0  0  0
  -25.2485  -31.6893   20.6181 C   0  0  0  0  0  0  0  0  0  0  0  0
  -24.6002  -29.4121   22.3898 C   0  0  0  0  0  0  0  0  0  0  0  0
  -26.1334  -33.9009   26.6479 C   0  0  0  0  0  0  0  0  0  0  0  0
  -29.8551  -12.9322   19.6567 C   0  0  0  0  0  0  0  0  0  0  0  0
  -27.1246  -33.0282   25.8845 C   0  0  0  0  0  0  0  0  0  0  0  0
  -29.1513  -11.8496   20.4763 C   0  0  0  0  0  0  0  0  0  0  0  0
  -29.5372  -18.1163   18.9094 C   0  0  0  0  0  0  0  0  0  0  0  0
  -28.8785  -13.6227   18.7135 C   0  0  0  0  0  0  0  0  0  0  0  0
  -29.3450  -16.6038   18.9613 C   0  0  0  0  0  0  0  0  0  0  0  0
  -26.9792  -13.1407   20.2092 C   0  0  0  0  0  0  0  0  0  0  0  0
  -27.3215  -17.6355   18.1736 C   0  0  0  0  0  0  0  0  0  0  0  0
  -27.3666  -33.5743   24.4722 C   0  0  1  0  0  0  0  0  0  0  0  0
  -24.9284  -31.8877   22.0965 C   0  0  1  0  0  0  0  0  0  0  0  0
  -27.9112  -12.4127   21.1941 C   0  0  1  0  0  0  0  0  0  0  0  0
  -28.5125  -18.5228   17.8609 C   0  0  1  0  0  0  0  0  0  0  0  0
  -18.2708  -28.2825   23.7339 C   0  0  0  0  0  0  0  0  0  0  0  0
  -24.1268  -30.0619   26.2659 C   0  0  0  0  0  0  0  0  0  0  0  0
  -22.0126  -28.7373   26.4750 C   0  0  0  0  0  0  0  0  0  0  0  0
  -21.9154  -31.2268   26.3499 C   0  0  0  0  0  0  0  0  0  0  0  0
  -19.6536  -29.0367   20.2705 C   0  0  0  0  0  0  0  0  0  0  0  0
  -29.1829  -20.8855   17.4066 C   0  0  0  0  0  0  0  0  0  0  0  0
  -27.8327  -26.3293   18.1560 C   0  0  0  0  0  0  0  0  0  1  0  0
  -22.4914  -29.9030   24.2743 C   0  0  1  0  0  0  0  0  0  0  0  0
  -19.1593  -28.9838   22.7183 C   0  0  2  0  0  0  0  0  0  0  0  0
  -22.6537  -29.9787   25.8188 C   0  0  0  0  0  0  0  0  0  0  0  0
  -29.5073  -23.0088   18.5564 N   0  0  0  0  0  0  0  0  0  0  0  0
  -27.5057  -24.2171   17.0077 N   0  0  0  0  0  0  0  0  0  0  0  0
  -26.1698  -10.6769   21.3857 N   0  0  0  0  0  0  0  0  0  0  0  0
  -27.1779  -11.3398   21.9776 N   0  0  0  0  0  0  0  0  0  0  0  0
  -24.1440  -30.7860   22.6577 N   0  0  0  0  0  0  0  0  0  0  0  0
  -27.7184  -14.1449   19.4412 N   0  0  0  0  0  0  0  0  0  0  0  0
  -27.9162  -16.4061   18.6956 N   0  0  0  0  0  0  0  0  0  0  0  0
  -28.3989  -11.5062   24.0006 N   0  0  0  0  0  0  0  0  0  0  0  0
  -25.3911   -8.2497   24.8636 N   0  0  0  0  0  0  0  0  0  0  0  0
  -26.2607  -33.2347   23.6026 N   0  0  0  0  0  0  0  0  0  0  0  0
  -21.1058  -29.8507   23.8209 N   0  0  0  0  0  0  0  0  0  0  0  0
  -28.1670  -19.9493   17.9731 N   0  3  0  0  0  0  0  0  0  0  0  0
  -18.8662  -28.4213   21.3697 N   0  3  0  0  0  0  0  0  0  0  0  0
  -27.1178   -9.4717   25.7489 O   0  0  0  0  0  0  0  0  0  0  0  0
  -26.9629  -31.0983   22.9980 O   0  0  0  0  0  0  0  0  0  0  0  0
  -22.7173  -32.2197   23.8176 O   0  0  0  0  0  0  0  0  0  0  0  0
  -21.2871  -27.8400   22.6803 O   0  0  0  0  0  0  0  0  0  0  0  0
  -25.8966  -15.5483   19.3593 O   0  0  0  0  0  0  0  0  0  0  0  0
  -21.5293   -6.3165   21.3444 O   0  0  0  0  0  0  0  0  0  0  0  0
  -27.0702  -26.4676   19.3498 O   0  0  0  0  0  0  0  0  0  1  0  0
  -22.1333   -1.0723   22.9374 F   0  0  0  0  0  0  0  0  0  0  0  0
  -21.4144   -4.2540   19.5072 F   0  0  0  0  0  0  0  0  0  0  0  0
  1  2  1  0  0  0  0
  1  5  2  0  0  0  0
  2  6  2  0  0  0  0
  3  8  2  0  0  0  0
  3 17  1  0  0  0  0
  4  9  1  0  0  0  0
  4 17  2  0  0  0  0
  5 19  1  0  0  0  0
  6 21  1  0  0  0  0
  7 10  2  0  0  0  0
  7 20  1  0  0  0  0
  8 23  1  0  0  0  0
  9 23  2  0  0  0  0
 10 24  1  0  0  0  0
 11 12  2  0  0  0  0
 11 25  1  0  0  0  0
 12 26  1  0  0  0  0
 13 22  1  0  0  0  0
 13 24  2  0  0  0  0
 14 26  2  0  0  0  0
 14 27  1  0  0  0  0
 15 29  2  0  0  0  0
 15 64  1  0  0  0  0
 16 30  1  0  0  0  0
 16 63  2  0  0  0  0
 17 28  1  0  0  0  0
 18 28  1  0  0  0  0
 18 31  2  0  0  0  0
 18 32  1  0  0  0  0
 19 21  2  0  0  0  0
 19 37  1  0  0  0  0
 20 22  2  0  0  0  0
 20 38  1  0  0  0  0
 21 49  1  0  0  0  0
 22 39  1  0  0  0  0
 23 81  1  0  0  0  0
 24 82  1  0  0  0  0
 25 27  2  0  0  0  0
 25 81  1  0  0  0  0
 26 83  1  0  0  0  0
 27 84  1  0  0  0  0
 28 65  2  0  0  0  0
 29 58  1  0  0  0  0
 29 63  1  0  0  0  0
 30 59  1  0  0  0  0
 30 64  2  0  0  0  0
 31 66  1  0  0  0  0
 31 70  1  0  0  0  0
 32 71  1  0  0  0  0
 32 76  2  0  0  0  0
 33 50  1  0  0  0  0
 33 72  1  0  0  0  0
 33 77  2  0  0  0  0
 34 60  1  0  0  0  0
 34 67  1  0  0  0  0
 34 78  2  0  0  0  0
 35 61  1  0  0  0  0
 35 73  1  0  0  0  0
 35 79  2  0  0  0  0
 36 68  1  0  0  0  0
 36 69  1  0  0  0  0
 36 80  2  0  0  0  0
 37 40  1  0  0  0  0
 38 50  1  0  0  0  0
 39 67  1  0  0  0  0
 40 42  1  0  0  0  0
 41 43  1  0  0  0  0
 41 45  1  0  0  0  0
 42 49  1  0  0  0  0
 43 51  1  0  0  0  0
 44 46  1  0  0  0  0
 44 52  1  0  0  0  0
 45 68  1  0  0  0  0
 46 69  1  0  0  0  0
 47 51  1  0  0  0  0
 47 68  1  0  0  0  0
 48 52  1  0  0  0  0
 48 69  1  0  0  0  0
 49 72  1  0  0  0  0
 50 67  1  0  0  0  0
 51 66  1  0  0  0  0
 52 74  1  0  0  0  0
 53 61  1  0  0  0  0
 54 62  1  0  0  0  0
 55 62  1  0  0  0  0
 56 62  1  0  0  0  0
 57 75  1  0  0  0  0
 58 74  1  0  0  0  0
 59 82  1  0  0  0  0
 60 62  1  0  0  0  0
 60 73  1  0  0  0  0
 61 75  1  0  0  0  0
 65 66  1  0  0  0  0
M  CHG  2  74   1  75   1
M  ISO  4  36 100  59 101  69 100  82 101
M  END
> <Batch ID>
0187

> <Smiles>
CNC(C)C(=O)NC(C(=O)N1Cc2cc([101O:1][101CH2:1]c3cnc(CNC4CC[100N:0]([100C:0](=O)N5CCCC(n6nc(-c7ccc(Oc8ccc(F)cc8F)cc7)c(C(N)=O)c6N)C5)C4)cn3)ccc2CC1C(=O)NC1CCCc2ccccc21)C(C)(C)C

> <Shape>
0.303

> <Color>
0.086

> <Negative vol penalty>
0.000

$$$$

  -OEChem-04052323173D

 85 94  0     1  0  0  0  0  0999 V2000
  -22.9236  -14.5756   23.7894 C   0  0  0  0  0  0  0  0  0  0  0  0
  -22.7207  -15.8950   24.1812 C   0  0  0  0  0  0  0  0  0  0  0  0
  -31.0649  -17.9593   21.4386 C   0  0  0  0  0  0  0  0  0  0  0  0
  -29.3304  -17.7787   19.7665 C   0  0  0  0  0  0  0  0  0  0  0  0
  -23.6299  -14.2977   22.6199 C   0  0  0  0  0  0  0  0  0  0  0  0
  -23.2250  -16.9373   23.4041 C   0  0  0  0  0  0  0  0  0  0  0  0
  -21.7420  -23.6681   21.4515 C   0  0  0  0  0  0  0  0  0  0  0  0
  -31.4739  -16.6563   21.1551 C   0  0  0  0  0  0  0  0  0  0  0  0
  -29.7394  -16.4757   19.4829 C   0  0  0  0  0  0  0  0  0  0  0  0
  -22.3287  -24.9322   21.4121 C   0  0  0  0  0  0  0  0  0  0  0  0
  -29.3759  -13.3997   20.8384 C   0  0  0  0  0  0  0  0  0  0  0  0
  -28.3876  -12.4240   20.7088 C   0  0  0  0  0  0  0  0  0  0  0  0
  -23.4650  -24.3345   19.3699 C   0  0  0  0  0  0  0  0  0  0  0  0
  -29.1058  -11.9977   18.4417 C   0  0  0  0  0  0  0  0  0  0  0  0
  -25.4004  -31.0410   20.7313 C   0  0  0  0  0  0  0  0  0  0  0  0
  -29.9931  -18.5205   20.7443 C   0  0  0  0  0  0  0  0  0  0  0  0
  -29.1091  -20.3631   22.2712 C   0  0  0  0  0  0  0  0  0  0  0  0
  -24.1348  -15.3373   21.8230 C   0  0  0  0  0  0  0  0  0  0  0  0
  -22.0214  -22.7223   20.4546 C   0  0  0  0  0  0  0  0  0  0  0  0
  -23.9399  -16.6730   22.2235 C   0  0  0  0  0  0  0  0  0  0  0  0
  -22.8786  -23.0599   19.3976 C   0  0  0  0  0  0  0  0  0  0  0  0
  -30.8112  -15.9145   20.1772 C   0  0  0  0  0  0  0  0  0  0  0  0
  -23.1926  -25.2646   20.3727 C   0  0  0  0  0  0  0  0  0  0  0  0
  -30.2291  -13.6746   19.7696 C   0  0  0  0  0  0  0  0  0  0  0  0
  -28.2525  -11.7230   19.5105 C   0  0  0  0  0  0  0  0  0  0  0  0
  -30.0940  -12.9735   18.5713 C   0  0  0  0  0  0  0  0  0  0  0  0
  -29.5698  -19.8663   21.0372 C   0  0  0  0  0  0  0  0  0  0  0  0
  -26.0648  -29.9201   21.1857 C   0  0  0  0  0  0  0  0  0  0  0  0
  -24.0482  -30.8831   20.5059 C   0  0  0  0  0  0  0  0  0  0  0  0
  -28.8364  -21.6871   22.0282 C   0  0  0  0  0  0  0  0  0  0  0  0
  -24.1439  -28.7052   21.1499 C   0  0  0  0  0  0  0  0  0  0  0  0
  -28.9427  -19.6880   23.5252 C   0  0  0  0  0  0  0  0  0  0  0  0
  -23.3590  -19.8392   20.4096 C   0  0  0  0  0  0  0  0  0  0  0  0
  -22.4474  -19.8929   17.2970 C   0  0  0  0  0  0  0  0  0  0  0  0
  -21.6279  -21.7442   14.5496 C   0  0  0  0  0  0  0  0  0  0  0  0
  -30.2155  -26.6082   19.7863 C   0  0  0  0  0  0  0  0  0  0  0  0
  -24.9327  -14.9866   20.5922 C   0  0  0  0  0  0  0  0  0  0  0  0
  -21.3595  -21.3723   20.4972 C   0  0  0  0  0  0  0  0  0  0  0  0
  -23.1953  -22.0875   18.2919 C   0  0  0  0  0  0  0  0  0  0  0  0
  -25.1111  -16.1566   19.6281 C   0  0  0  0  0  0  0  0  0  0  0  0
  -28.5833  -24.2511   17.6752 C   0  0  0  0  0  0  0  0  0  0  0  0
  -25.5267  -17.4138   20.3854 C   0  0  0  0  0  0  0  0  0  0  0  0
  -27.8957  -30.3365   22.9063 C   0  0  0  0  0  0  0  0  0  0  0  0
  -28.6621  -22.9407   18.4605 C   0  0  0  0  0  0  0  0  0  0  0  0
  -29.3180  -29.8225   23.0417 C   0  0  0  0  0  0  0  0  0  0  0  0
  -29.8417  -25.0963   17.8600 C   0  0  0  0  0  0  0  0  0  0  0  0
  -30.2857  -24.0543   20.0488 C   0  0  0  0  0  0  0  0  0  0  0  0
  -24.4500  -17.8315   21.3942 C   0  0  1  0  0  0  0  0  0  0  0  0
  -27.5354  -29.9941   21.4596 C   0  0  1  0  0  0  0  0  0  0  0  0
  -22.1174  -20.3102   19.7066 C   0  0  1  0  0  0  0  0  0  0  0  0
  -29.0159  -23.1931   19.9385 C   0  0  2  0  0  0  0  0  0  0  0  0
  -29.2593  -28.4776   22.3347 C   0  0  2  0  0  0  0  0  0  0  0  0
  -23.2448  -32.0408   20.0151 C   0  0  0  0  0  0  0  0  0  0  0  0
  -20.9656  -21.5076   12.1407 C   0  0  0  0  0  0  0  0  0  0  0  0
  -25.3375  -19.2391   16.5691 C   0  0  0  0  0  0  0  0  0  0  0  0
  -24.8328  -19.9460   14.2210 C   0  0  0  0  0  0  0  0  0  0  0  0
  -23.6206  -18.0119   15.2273 C   0  0  0  0  0  0  0  0  0  0  0  0
  -19.0315  -23.0878   15.0110 C   0  0  0  0  0  0  0  0  0  0  0  0
  -23.4404  -27.4013   21.3871 C   0  0  0  0  0  0  0  0  0  1  0  0
  -30.5953  -27.9907   21.8121 C   0  0  0  0  0  0  0  0  0  0  0  0
  -23.0786  -20.3554   16.0059 C   0  0  1  0  0  0  0  0  0  0  0  0
  -20.4707  -21.6391   13.5727 C   0  0  2  0  0  0  0  0  0  0  0  0
  -24.2132  -19.4060   15.5276 C   0  0  0  0  0  0  0  0  0  0  0  0
  -29.5897  -20.7988   20.0811 N   0  0  0  0  0  0  0  0  0  0  0  0
  -25.4656  -28.7317   21.4067 N   0  0  0  0  0  0  0  0  0  0  0  0
  -23.3852  -29.7251   20.7052 N   0  0  0  0  0  0  0  0  0  0  0  0
  -29.1381  -21.8947   20.7144 N   0  0  0  0  0  0  0  0  0  0  0  0
  -22.5284  -20.7780   18.3814 N   0  0  0  0  0  0  0  0  0  0  0  0
  -30.1206  -25.3001   19.2836 N   0  0  0  0  0  0  0  0  0  0  0  0
  -28.3702  -22.6823   22.8122 N   0  0  0  0  0  0  0  0  0  0  0  0
  -27.7105  -19.0782   23.7973 N   0  0  0  0  0  0  0  0  0  0  0  0
  -23.3539  -18.4924   20.7189 N   0  0  0  0  0  0  0  0  0  0  0  0
  -21.9870  -20.5108   15.0506 N   0  0  0  0  0  0  0  0  0  0  0  0
  -30.4757  -26.7122   21.1473 N   0  0  0  0  0  0  0  0  0  0  0  0
  -28.3093  -28.7150   21.1892 N   0  3  0  0  0  0  0  0  0  0  0  0
  -19.6059  -22.8495   13.6618 N   0  3  0  0  0  0  0  0  0  0  0  0
  -29.8541  -19.6415   24.3858 O   0  0  0  0  0  0  0  0  0  0  0  0
  -24.2560  -20.6382   20.6520 O   0  0  0  0  0  0  0  0  0  0  0  0
  -21.8964  -18.7902   17.3397 O   0  0  0  0  0  0  0  0  0  0  0  0
  -22.1623  -22.8132   14.8366 O   0  0  0  0  0  0  0  0  0  0  0  0
  -30.0732  -27.6093   19.0761 O   0  0  0  0  0  0  0  0  0  0  0  0
  -31.2102  -14.6430   19.9001 O   0  0  0  0  0  0  0  0  0  0  0  0
  -23.7671  -26.4975   20.3322 O   0  0  0  0  0  0  0  0  0  1  0  0
  -27.3044  -10.7849   19.3867 F   0  0  0  0  0  0  0  0  0  0  0  0
  -30.9115  -13.2323   17.5415 F   0  0  0  0  0  0  0  0  0  0  0  0
  1  2  1  0  0  0  0
  1  5  2  0  0  0  0
  2  6  2  0  0  0  0
  3  8  2  0  0  0  0
  3 16  1  0  0  0  0
  4  9  1  0  0  0  0
  4 16  2  0  0  0  0
  5 18  1  0  0  0  0
  6 20  1  0  0  0  0
  7 10  2  0  0  0  0
  7 19  1  0  0  0  0
  8 22  1  0  0  0  0
  9 22  2  0  0  0  0
 10 23  1  0  0  0  0
 11 12  2  0  0  0  0
 11 24  1  0  0  0  0
 12 25  1  0  0  0  0
 13 21  1  0  0  0  0
 13 23  2  0  0  0  0
 14 25  2  0  0  0  0
 14 26  1  0  0  0  0
 15 28  2  0  0  0  0
 15 29  1  0  0  0  0
 16 27  1  0  0  0  0
 17 27  1  0  0  0  0
 17 30  2  0  0  0  0
 17 32  1  0  0  0  0
 18 20  2  0  0  0  0
 18 37  1  0  0  0  0
 19 21  2  0  0  0  0
 19 38  1  0  0  0  0
 20 48  1  0  0  0  0
 21 39  1  0  0  0  0
 22 82  1  0  0  0  0
 23 83  1  0  0  0  0
 24 26  2  0  0  0  0
 24 82  1  0  0  0  0
 25 84  1  0  0  0  0
 26 85  1  0  0  0  0
 27 64  2  0  0  0  0
 28 49  1  0  0  0  0
 28 65  1  0  0  0  0
 29 53  1  0  0  0  0
 29 66  2  0  0  0  0
 30 67  1  0  0  0  0
 30 70  1  0  0  0  0
 31 59  1  0  0  0  0
 31 65  2  0  0  0  0
 31 66  1  0  0  0  0
 32 71  1  0  0  0  0
 32 77  2  0  0  0  0
 33 50  1  0  0  0  0
 33 72  1  0  0  0  0
 33 78  2  0  0  0  0
 34 61  1  0  0  0  0
 34 68  1  0  0  0  0
 34 79  2  0  0  0  0
 35 62  1  0  0  0  0
 35 73  1  0  0  0  0
 35 80  2  0  0  0  0
 36 69  1  0  0  0  0
 36 74  1  0  0  0  0
 36 81  2  0  0  0  0
 37 40  1  0  0  0  0
 38 50  1  0  0  0  0
 39 68  1  0  0  0  0
 40 42  1  0  0  0  0
 41 44  1  0  0  0  0
 41 46  1  0  0  0  0
 42 48  1  0  0  0  0
 43 45  1  0  0  0  0
 43 49  1  0  0  0  0
 44 51  1  0  0  0  0
 45 52  1  0  0  0  0
 46 69  1  0  0  0  0
 47 51  1  0  0  0  0
 47 69  1  0  0  0  0
 48 72  1  0  0  0  0
 49 75  1  0  0  0  0
 50 68  1  0  0  0  0
 51 67  1  0  0  0  0
 52 60  1  0  0  0  0
 52 75  1  0  0  0  0
 54 62  1  0  0  0  0
 55 63  1  0  0  0  0
 56 63  1  0  0  0  0
 57 63  1  0  0  0  0
 58 76  1  0  0  0  0
 59 83  1  0  0  0  0
 60 74  1  0  0  0  0
 61 63  1  0  0  0  0
 61 73  1  0  0  0  0
 62 76  1  0  0  0  0
 64 67  1  0  0  0  0
M  CHG  2  75   1  76   1
M  ISO  4  36 100  59 101  74 100  83 101
M  END
> <Batch ID>
0187

> <Smiles>
CNC(C)C(=O)NC(C(=O)N1Cc2cc([101O:1][101CH2:1]c3nc(C)cc(C4CCC(C[100NH:0][100C:0](=O)N5CCCC(n6nc(-c7ccc(Oc8ccc(F)cc8F)cc7)c(C(N)=O)c6N)C5)N4)n3)ccc2CC1C(=O)NC1CCCc2ccccc21)C(C)(C)C

> <Shape>
0.217

> <Color>
0.061

> <Negative vol penalty>
0.000

$$$$

  -OEChem-04052323173D

 80 88  0     1  0  0  0  0  0999 V2000
  -33.0707  -30.7610   16.4203 C   0  0  0  0  0  0  0  0  0  0  0  0
  -32.2552  -29.6923   16.0624 C   0  0  0  0  0  0  0  0  0  0  0  0
  -23.3912  -10.2830   21.6751 C   0  0  0  0  0  0  0  0  0  0  0  0
  -24.9262   -8.4503   22.0246 C   0  0  0  0  0  0  0  0  0  0  0  0
  -33.1677  -31.1453   17.7570 C   0  0  0  0  0  0  0  0  0  0  0  0
  -31.5370  -29.0064   17.0413 C   0  0  0  0  0  0  0  0  0  0  0  0
  -25.3542  -25.5225   18.0168 C   0  0  0  0  0  0  0  0  0  0  0  0
  -22.3436   -9.3756   21.5176 C   0  0  0  0  0  0  0  0  0  0  0  0
  -23.8786   -7.5429   21.8672 C   0  0  0  0  0  0  0  0  0  0  0  0
  -24.8675  -24.3026   18.4845 C   0  0  0  0  0  0  0  0  0  0  0  0
  -21.3230   -6.3445   23.7255 C   0  0  0  0  0  0  0  0  0  0  0  0
  -21.2351   -5.2938   24.6386 C   0  0  0  0  0  0  0  0  0  0  0  0
  -25.0512  -25.1054   20.7519 C   0  0  0  0  0  0  0  0  0  0  0  0
  -21.4558   -3.7051   22.8318 C   0  0  0  0  0  0  0  0  0  0  0  0
  -24.6825   -9.8203   21.9285 C   0  0  0  0  0  0  0  0  0  0  0  0
  -26.2025  -11.3518   23.2895 C   0  0  0  0  0  0  0  0  0  0  0  0
  -32.4429  -30.4699   18.7516 C   0  0  0  0  0  0  0  0  0  0  0  0
  -25.7040  -26.5408   18.9152 C   0  0  0  0  0  0  0  0  0  0  0  0
  -31.6255  -29.3811   18.3928 C   0  0  0  0  0  0  0  0  0  0  0  0
  -25.5397  -26.3382   20.2929 C   0  0  0  0  0  0  0  0  0  0  0  0
  -22.5873   -8.0056   21.6137 C   0  0  0  0  0  0  0  0  0  0  0  0
  -24.7186  -24.0928   19.8523 C   0  0  0  0  0  0  0  0  0  0  0  0
  -21.4773   -6.0756   22.3655 C   0  0  0  0  0  0  0  0  0  0  0  0
  -21.3015   -3.9741   24.1918 C   0  0  0  0  0  0  0  0  0  0  0  0
  -21.5437   -4.7559   21.9187 C   0  0  0  0  0  0  0  0  0  0  0  0
  -25.7652  -10.7572   22.0907 C   0  0  0  0  0  0  0  0  0  0  0  0
  -27.2499  -12.1559   22.9118 C   0  0  0  0  0  0  0  0  0  0  0  0
  -25.7062  -11.1915   24.6250 C   0  0  0  0  0  0  0  0  0  0  0  0
  -28.3923  -28.0822   19.6226 C   0  0  0  0  0  0  0  0  0  0  0  0
  -26.4218  -29.8641   21.4840 C   0  0  0  0  0  0  0  0  0  0  0  0
  -23.4913  -30.0853   23.2188 C   0  0  0  0  0  0  0  0  0  0  0  0
  -29.4708  -15.8831   19.4093 C   0  0  0  0  0  0  0  0  0  0  0  0
  -32.6166  -30.8915   20.1892 C   0  0  0  0  0  0  0  0  0  0  0  0
  -26.2024  -27.8606   18.3935 C   0  0  0  0  0  0  0  0  0  0  0  0
  -25.8817  -27.4066   21.2979 C   0  0  0  0  0  0  0  0  0  0  0  0
  -31.5324  -30.3507   21.1178 C   0  0  0  0  0  0  0  0  0  0  0  0
  -29.7824  -12.4673   18.5652 C   0  0  0  0  0  0  0  0  0  0  0  0
  -31.2981  -28.8661   20.8572 C   0  0  0  0  0  0  0  0  0  0  0  0
  -28.7811  -11.7615   19.4754 C   0  0  0  0  0  0  0  0  0  0  0  0
  -28.2010  -19.1428   20.6177 C   0  0  0  0  0  0  0  0  0  0  0  0
  -29.2332  -13.8068   18.0932 C   0  0  0  0  0  0  0  0  0  0  0  0
  -29.3297  -18.2473   20.1310 C   0  0  0  0  0  0  0  0  0  0  0  0
  -27.2711  -17.0141   20.0939 C   0  0  0  0  0  0  0  0  0  0  0  0
  -27.8813  -14.0456   20.1584 C   0  0  0  0  0  0  0  0  0  0  0  0
  -30.8116  -28.6279   19.4226 C   0  0  1  0  0  0  0  0  0  0  0  0
  -27.0125  -28.6425   19.4228 C   0  0  1  0  0  0  0  0  0  0  0  0
  -26.9673  -18.5075   19.9752 C   0  0  1  0  0  0  0  0  0  0  0  0
  -28.3809  -12.6705   20.6478 C   0  0  1  0  0  0  0  0  0  0  0  0
  -22.1751  -31.6529   24.6707 C   0  0  0  0  0  0  0  0  0  0  0  0
  -24.4480  -18.3464   19.9332 C   0  0  0  0  0  0  0  0  0  0  0  0
  -28.2975  -29.2742   23.8171 C   0  0  0  0  0  0  0  0  0  0  0  0
  -26.4863  -30.0276   25.3729 C   0  0  0  0  0  0  0  0  0  0  0  0
  -27.4570  -31.6277   23.7237 C   0  0  0  0  0  0  0  0  0  0  0  0
  -21.2255  -30.1309   21.3153 C   0  0  0  0  0  0  0  0  0  0  0  0
  -24.6673  -20.9600   21.6704 C   0  0  0  0  0  0  0  0  0  0  0  0
  -24.6959  -22.4737   21.5942 C   0  0  0  0  0  0  0  0  0  1  0  0
  -25.9339  -29.7810   22.9102 C   0  0  1  0  0  0  0  0  0  0  0  0
  -22.4196  -31.1599   23.2529 C   0  0  2  0  0  0  0  0  0  0  0  0
  -25.6668  -18.9134   20.6451 C   0  0  2  0  0  0  0  0  0  0  0  0
  -27.0390  -30.1566   23.9374 C   0  0  0  0  0  0  0  0  0  0  0  0
  -26.4766  -11.1502   21.0308 N   0  0  0  0  0  0  0  0  0  0  0  0
  -27.3714  -12.0004   21.5622 N   0  0  0  0  0  0  0  0  0  0  0  0
  -26.3712  -28.6775   20.7387 N   0  0  0  0  0  0  0  0  0  0  0  0
  -28.8288  -14.6549   19.2161 N   0  0  0  0  0  0  0  0  0  0  0  0
  -28.7269  -16.9301   19.9520 N   0  0  0  0  0  0  0  0  0  0  0  0
  -28.0696  -12.9738   23.6057 N   0  0  0  0  0  0  0  0  0  0  0  0
  -24.6240  -10.3263   24.8364 N   0  0  0  0  0  0  0  0  0  0  0  0
  -29.4086  -28.9621   19.3026 N   0  0  0  0  0  0  0  0  0  0  0  0
  -24.7411  -30.6178   22.9829 N   0  0  0  0  0  0  0  0  0  0  0  0
  -21.1364  -30.6290   22.7121 N   0  3  0  0  0  0  0  0  0  0  0  0
  -25.5702  -20.3994   20.6318 N   0  3  0  0  0  0  0  0  0  0  0  0
  -26.1971  -11.8100   25.5997 O   0  0  0  0  0  0  0  0  0  0  0  0
  -28.5251  -26.9370   20.0379 O   0  0  0  0  0  0  0  0  0  0  0  0
  -26.8261  -30.9437   21.0450 O   0  0  0  0  0  0  0  0  0  0  0  0
  -23.2449  -28.8933   23.3885 O   0  0  0  0  0  0  0  0  0  0  0  0
  -30.6503  -16.0520   19.0716 O   0  0  0  0  0  0  0  0  0  0  0  0
  -21.5653   -7.1198   21.4603 O   0  0  0  0  0  0  0  0  0  0  0  0
  -24.2410  -22.8943   20.3148 O   0  0  0  0  0  0  0  0  0  1  0  0
  -21.2185   -2.9652   25.0690 F   0  0  0  0  0  0  0  0  0  0  0  0
  -21.6931   -4.4913   20.6135 F   0  0  0  0  0  0  0  0  0  0  0  0
  1  2  1  0  0  0  0
  1  5  2  0  0  0  0
  2  6  2  0  0  0  0
  3  8  2  0  0  0  0
  3 15  1  0  0  0  0
  4  9  1  0  0  0  0
  4 15  2  0  0  0  0
  5 17  1  0  0  0  0
  6 19  1  0  0  0  0
  7 10  2  0  0  0  0
  7 18  1  0  0  0  0
  8 21  1  0  0  0  0
  9 21  2  0  0  0  0
 10 22  1  0  0  0  0
 11 12  2  0  0  0  0
 11 23  1  0  0  0  0
 12 24  1  0  0  0  0
 13 20  1  0  0  0  0
 13 22  2  0  0  0  0
 14 24  2  0  0  0  0
 14 25  1  0  0  0  0
 15 26  1  0  0  0  0
 16 26  1  0  0  0  0
 16 27  2  0  0  0  0
 16 28  1  0  0  0  0
 17 19  2  0  0  0  0
 17 33  1  0  0  0  0
 18 20  2  0  0  0  0
 18 34  1  0  0  0  0
 19 45  1  0  0  0  0
 20 35  1  0  0  0  0
 21 77  1  0  0  0  0
 22 78  1  0  0  0  0
 23 25  2  0  0  0  0
 23 77  1  0  0  0  0
 24 79  1  0  0  0  0
 25 80  1  0  0  0  0
 26 61  2  0  0  0  0
 27 62  1  0  0  0  0
 27 66  1  0  0  0  0
 28 67  1  0  0  0  0
 28 72  2  0  0  0  0
 29 46  1  0  0  0  0
 29 68  1  0  0  0  0
 29 73  2  0  0  0  0
 30 57  1  0  0  0  0
 30 63  1  0  0  0  0
 30 74  2  0  0  0  0
 31 58  1  0  0  0  0
 31 69  1  0  0  0  0
 31 75  2  0  0  0  0
 32 64  1  0  0  0  0
 32 65  1  0  0  0  0
 32 76  2  0  0  0  0
 33 36  1  0  0  0  0
 34 46  1  0  0  0  0
 35 63  1  0  0  0  0
 36 38  1  0  0  0  0
 37 39  1  0  0  0  0
 37 41  1  0  0  0  0
 38 45  1  0  0  0  0
 39 48  1  0  0  0  0
 40 42  1  0  0  0  0
 40 47  1  0  0  0  0
 41 64  1  0  0  0  0
 42 65  1  0  0  0  0
 43 47  1  0  0  0  0
 43 65  1  0  0  0  0
 44 48  1  0  0  0  0
 44 64  1  0  0  0  0
 45 68  1  0  0  0  0
 46 63  1  0  0  0  0
 47 59  1  0  0  0  0
 48 62  1  0  0  0  0
 49 58  1  0  0  0  0
 50 59  1  0  0  0  0
 51 60  1  0  0  0  0
 52 60  1  0  0  0  0
 53 60  1  0  0  0  0
 54 70  1  0  0  0  0
 55 56  1  0  0  0  0
 55 71  1  0  0  0  0
 56 78  1  0  0  0  0
 57 60  1  0  0  0  0
 57 69  1  0  0  0  0
 58 70  1  0  0  0  0
 59 71  1  0  0  0  0
 61 62  1  0  0  0  0
M  CHG  2  70   1  71   1
M  ISO  4  32 100  56 101  65 100  78 101
M  END
> <Batch ID>
0187

> <Smiles>
CNC(C)C(=O)NC(C(=O)N1Cc2cc([101O:1][101CH2:1]CNC(C)C3CC[100N:0]([100C:0](=O)N4CCCC(n5nc(-c6ccc(Oc7ccc(F)cc7F)cc6)c(C(N)=O)c5N)C4)C3)ccc2CC1C(=O)NC1CCCc2ccccc21)C(C)(C)C

> <Shape>
0.250

> <Color>
0.127

> <Negative vol penalty>
0.000

$$$$

  -OEChem-04052323173D

 87 96  0     1  0  0  0  0  0999 V2000
  -20.8769  -30.8466   23.6930 C   0  0  0  0  0  0  0  0  0  0  0  0
  -21.8657  -30.0008   24.1828 C   0  0  0  0  0  0  0  0  0  0  0  0
  -28.6304  -20.9107   20.4767 C   0  0  0  0  0  0  0  0  0  0  0  0
  -30.6804  -20.4437   19.2866 C   0  0  0  0  0  0  0  0  0  0  0  0
  -19.7776  -30.3131   23.0236 C   0  0  0  0  0  0  0  0  0  0  0  0
  -21.7614  -28.6224   23.9932 C   0  0  0  0  0  0  0  0  0  0  0  0
  -23.7989  -20.9531   24.4967 C   0  0  0  0  0  0  0  0  0  0  0  0
  -28.4846  -22.0982   19.7597 C   0  0  0  0  0  0  0  0  0  0  0  0
  -30.5346  -21.6312   18.5695 C   0  0  0  0  0  0  0  0  0  0  0  0
  -23.2901  -19.6584   24.4042 C   0  0  0  0  0  0  0  0  0  0  0  0
  -29.7659  -25.2250   19.8333 C   0  0  0  0  0  0  0  0  0  0  0  0
  -29.4111  -26.3713   20.5445 C   0  0  0  0  0  0  0  0  0  0  0  0
  -22.4579  -20.1497   22.1940 C   0  0  0  0  0  0  0  0  0  0  0  0
  -27.4073  -26.5786   19.2107 C   0  0  0  0  0  0  0  0  0  0  0  0
  -29.7283  -20.0834   20.2402 C   0  0  0  0  0  0  0  0  0  0  0  0
  -29.9973  -18.7157   22.3767 C   0  0  0  0  0  0  0  0  0  0  0  0
  -19.6544  -28.9264   22.8370 C   0  0  0  0  0  0  0  0  0  0  0  0
  -23.6312  -21.8608   23.4410 C   0  0  0  0  0  0  0  0  0  0  0  0
  -20.6714  -28.0666   23.2992 C   0  0  0  0  0  0  0  0  0  0  0  0
  -22.9678  -21.4545   22.2745 C   0  0  0  0  0  0  0  0  0  0  0  0
  -29.4367  -22.4584   18.8061 C   0  0  0  0  0  0  0  0  0  0  0  0
  -22.6170  -19.2574   23.2540 C   0  0  0  0  0  0  0  0  0  0  0  0
  -28.9414  -24.7556   18.8107 C   0  0  0  0  0  0  0  0  0  0  0  0
  -28.2318  -27.0481   20.2332 C   0  0  0  0  0  0  0  0  0  0  0  0
  -27.7621  -25.4324   18.4994 C   0  0  0  0  0  0  0  0  0  0  0  0
  -29.8797  -18.8569   20.9810 C   0  0  0  0  0  0  0  0  0  0  0  0
  -30.1170  -17.3620   22.5760 C   0  0  0  0  0  0  0  0  0  0  0  0
  -23.0846  -13.5446   21.4305 C   0  0  0  0  0  0  0  0  0  0  0  0
  -24.6968  -13.0457   19.9511 C   0  0  0  0  0  0  0  0  0  0  0  0
  -23.0959  -14.5228   19.4105 C   0  0  0  0  0  0  0  0  0  0  0  0
  -29.9981  -19.7185   23.4014 C   0  0  0  0  0  0  0  0  0  0  0  0
  -22.1733  -24.6652   23.1043 C   0  0  0  0  0  0  0  0  0  0  0  0
  -23.5613  -24.5948   20.1732 C   0  0  0  0  0  0  0  0  0  0  0  0
  -24.1303  -22.1440   17.5873 C   0  0  0  0  0  0  0  0  0  0  0  0
  -28.3823  -12.6017   19.3853 C   0  0  0  0  0  0  0  0  0  0  0  0
  -18.4476  -28.4034   22.0985 C   0  0  0  0  0  0  0  0  0  0  0  0
  -24.2093  -23.2455   23.5456 C   0  0  0  0  0  0  0  0  0  0  0  0
  -22.7789  -22.3845   21.1048 C   0  0  0  0  0  0  0  0  0  0  0  0
  -18.2042  -26.9164   22.3350 C   0  0  0  0  0  0  0  0  0  0  0  0
  -31.6939  -13.3865   20.4314 C   0  0  0  0  0  0  0  0  0  0  0  0
  -19.4932  -26.1379   22.1183 C   0  0  0  0  0  0  0  0  0  0  0  0
  -31.6151  -14.8647   20.8168 C   0  0  0  0  0  0  0  0  0  0  0  0
  -20.9796  -12.9355   22.8486 C   0  0  0  0  0  0  0  0  0  0  0  0
  -30.8098  -13.0693   19.2273 C   0  0  0  0  0  0  0  0  0  0  0  0
  -29.3228  -14.9634   19.7516 C   0  0  0  0  0  0  0  0  0  0  0  0
  -20.1664  -14.2232   22.7991 C   0  0  0  0  0  0  0  0  0  0  0  0
  -22.4250  -14.6566   23.6005 C   0  0  0  0  0  0  0  0  0  0  0  0
  -20.5641  -26.5617   23.1315 C   0  0  1  0  0  0  0  0  0  0  0  0
  -22.4501  -13.3573   22.7980 C   0  0  2  0  0  0  0  0  0  0  0  0
  -23.5316  -24.2477   22.6162 C   0  0  1  0  0  0  0  0  0  0  0  0
  -30.1544  -15.3205   20.9955 C   0  0  2  0  0  0  0  0  0  0  0  0
  -25.9175  -22.0106   15.8307 C   0  0  0  0  0  0  0  0  0  0  0  0
  -19.3797  -16.9726   23.4928 C   0  0  0  0  0  0  0  0  0  0  0  0
  -21.5261  -26.0253   18.4064 C   0  0  0  0  0  0  0  0  0  0  0  0
  -22.2918  -24.6034   16.4932 C   0  0  0  0  0  0  0  0  0  0  0  0
  -23.8894  -26.1669   17.6005 C   0  0  0  0  0  0  0  0  0  0  0  0
  -24.9314  -19.4266   18.4436 C   0  0  0  0  0  0  0  0  0  0  0  0
  -25.9291  -12.2881   19.5909 C   0  0  0  0  0  0  0  0  0  0  0  0
  -21.7142  -17.3651   24.3766 C   0  0  0  0  0  0  0  0  0  1  0  0
  -23.1635  -24.0712   18.8143 C   0  0  1  0  0  0  0  0  0  0  0  0
  -25.4610  -21.5259   17.1980 C   0  0  2  0  0  0  0  0  0  0  0  0
  -20.6182  -16.3404   24.1070 C   0  0  2  0  0  0  0  0  0  0  0  0
  -22.7080  -25.2047   17.8525 C   0  0  0  0  0  0  0  0  0  0  0  0
  -29.9212  -17.6863   20.3390 N   0  0  0  0  0  0  0  0  0  0  0  0
  -24.1925  -12.8293   21.1764 N   0  0  0  0  0  0  0  0  0  0  0  0
  -22.4807  -14.4087   20.5986 N   0  0  0  0  0  0  0  0  0  0  0  0
  -24.2043  -13.8751   19.0169 N   0  0  0  0  0  0  0  0  0  0  0  0
  -30.0663  -16.7967   21.3359 N   0  0  0  0  0  0  0  0  0  0  0  0
  -23.3567  -23.7299   21.2577 N   0  0  0  0  0  0  0  0  0  0  0  0
  -29.4377  -13.5255   19.4617 N   0  0  0  0  0  0  0  0  0  0  0  0
  -30.2598  -16.6121   23.6894 N   0  0  0  0  0  0  0  0  0  0  0  0
  -22.5187  -15.4144   18.4807 N   0  0  0  0  0  0  0  0  0  0  0  0
  -29.8653  -21.0613   23.0223 N   0  0  0  0  0  0  0  0  0  0  0  0
  -21.8264  -25.9589   22.7642 N   0  0  0  0  0  0  0  0  0  0  0  0
  -24.2989  -23.2949   18.3277 N   0  0  0  0  0  0  0  0  0  0  0  0
  -27.1142  -13.1157   19.6272 N   0  0  0  0  0  0  0  0  0  0  0  0
  -21.1457  -15.3227   23.1487 N   0  3  2  0  0  0  0  0  0  0  0  0
  -25.3499  -20.0403   17.1570 N   0  3  0  0  0  0  0  0  0  0  0  0
  -30.1295  -19.4336   24.6160 O   0  0  0  0  0  0  0  0  0  0  0  0
  -21.4899  -23.8720   23.7409 O   0  0  0  0  0  0  0  0  0  0  0  0
  -24.0425  -25.7266   20.2681 O   0  0  0  0  0  0  0  0  0  0  0  0
  -23.0494  -21.6567   17.2636 O   0  0  0  0  0  0  0  0  0  0  0  0
  -28.5578  -11.4062   19.1264 O   0  0  0  0  0  0  0  0  0  0  0  0
  -29.2947  -23.6170   18.1060 O   0  0  0  0  0  0  0  0  0  0  0  0
  -22.1188  -17.9944   23.1614 O   0  0  0  0  0  0  0  0  0  1  0  0
  -27.8904  -28.1479   20.9173 F   0  0  0  0  0  0  0  0  0  0  0  0
  -26.9655  -24.9855   17.5189 F   0  0  0  0  0  0  0  0  0  0  0  0
  1  2  1  0  0  0  0
  1  5  2  0  0  0  0
  2  6  2  0  0  0  0
  3  8  2  0  0  0  0
  3 15  1  0  0  0  0
  4  9  1  0  0  0  0
  4 15  2  0  0  0  0
  5 17  1  0  0  0  0
  6 19  1  0  0  0  0
  7 10  2  0  0  0  0
  7 18  1  0  0  0  0
  8 21  1  0  0  0  0
  9 21  2  0  0  0  0
 10 22  1  0  0  0  0
 11 12  2  0  0  0  0
 11 23  1  0  0  0  0
 12 24  1  0  0  0  0
 13 20  1  0  0  0  0
 13 22  2  0  0  0  0
 14 24  2  0  0  0  0
 14 25  1  0  0  0  0
 15 26  1  0  0  0  0
 16 26  1  0  0  0  0
 16 27  2  0  0  0  0
 16 31  1  0  0  0  0
 17 19  2  0  0  0  0
 17 36  1  0  0  0  0
 18 20  2  0  0  0  0
 18 37  1  0  0  0  0
 19 48  1  0  0  0  0
 20 38  1  0  0  0  0
 21 84  1  0  0  0  0
 22 85  1  0  0  0  0
 23 25  2  0  0  0  0
 23 84  1  0  0  0  0
 24 86  1  0  0  0  0
 25 87  1  0  0  0  0
 26 64  2  0  0  0  0
 27 68  1  0  0  0  0
 27 71  1  0  0  0  0
 28 49  1  0  0  0  0
 28 65  2  0  0  0  0
 28 66  1  0  0  0  0
 29 58  1  0  0  0  0
 29 65  1  0  0  0  0
 29 67  2  0  0  0  0
 30 66  2  0  0  0  0
 30 67  1  0  0  0  0
 30 72  1  0  0  0  0
 31 73  1  0  0  0  0
 31 79  2  0  0  0  0
 32 50  1  0  0  0  0
 32 74  1  0  0  0  0
 32 80  2  0  0  0  0
 33 60  1  0  0  0  0
 33 69  1  0  0  0  0
 33 81  2  0  0  0  0
 34 61  1  0  0  0  0
 34 75  1  0  0  0  0
 34 82  2  0  0  0  0
 35 70  1  0  0  0  0
 35 76  1  0  0  0  0
 35 83  2  0  0  0  0
 36 39  1  0  0  0  0
 37 50  1  0  0  0  0
 38 69  1  0  0  0  0
 39 41  1  0  0  0  0
 40 42  1  0  0  0  0
 40 44  1  0  0  0  0
 41 48  1  0  0  0  0
 42 51  1  0  0  0  0
 43 46  1  0  0  0  0
 43 49  1  0  0  0  0
 44 70  1  0  0  0  0
 45 51  1  0  0  0  0
 45 70  1  0  0  0  0
 46 77  1  0  0  0  0
 47 49  1  0  0  0  0
 47 77  1  0  0  0  0
 48 74  1  0  0  0  0
 50 69  1  0  0  0  0
 51 68  1  0  0  0  0
 52 61  1  0  0  0  0
 53 62  1  0  0  0  0
 54 63  1  0  0  0  0
 55 63  1  0  0  0  0
 56 63  1  0  0  0  0
 57 78  1  0  0  0  0
 58 76  1  0  0  0  0
 59 62  1  0  0  0  0
 59 85  1  0  0  0  0
 60 63  1  0  0  0  0
 60 75  1  0  0  0  0
 61 78  1  0  0  0  0
 62 77  1  0  0  0  0
 64 68  1  0  0  0  0
M  CHG  2  77   1  78   1
M  ISO  4  35 100  59 101  76 100  85 101
M  END
> <Batch ID>
0187

> <Smiles>
CNC(C)C(=O)NC(C(=O)N1Cc2cc([101O:1][101CH2:1]C(C)N3CCC(c4nc(N)nc(C[100NH:0][100C:0](=O)N5CCCC(n6nc(-c7ccc(Oc8ccc(F)cc8F)cc7)c(C(N)=O)c6N)C5)n4)C3)ccc2CC1C(=O)NC1CCCc2ccccc21)C(C)(C)C

> <Shape>
0.234

> <Color>
0.052

> <Negative vol penalty>
0.000

$$$$

  -OEChem-04052323173D

 83 92  0     1  0  0  0  0  0999 V2000
  -27.0690  -37.9032   19.2137 C   0  0  0  0  0  0  0  0  0  0  0  0
  -27.1158  -36.7043   18.5095 C   0  0  0  0  0  0  0  0  0  0  0  0
  -24.8900   -8.3720   21.6084 C   0  0  0  0  0  0  0  0  0  0  0  0
  -23.4368   -9.4189   19.9869 C   0  0  0  0  0  0  0  0  0  0  0  0
  -27.1888  -37.8996   20.6027 C   0  0  0  0  0  0  0  0  0  0  0  0
  -27.2835  -35.5011   19.1940 C   0  0  0  0  0  0  0  0  0  0  0  0
  -25.4161  -28.5924   18.8802 C   0  0  0  0  0  0  0  0  0  0  0  0
  -23.7786   -8.0016   22.3654 C   0  0  0  0  0  0  0  0  0  0  0  0
  -22.3253   -9.0485   20.7439 C   0  0  0  0  0  0  0  0  0  0  0  0
  -25.9862  -27.3203   18.9064 C   0  0  0  0  0  0  0  0  0  0  0  0
  -21.3965   -5.6032   22.2842 C   0  0  0  0  0  0  0  0  0  0  0  0
  -21.3546   -4.2999   22.7793 C   0  0  0  0  0  0  0  0  0  0  0  0
  -26.1027  -27.4286   21.3134 C   0  0  0  0  0  0  0  0  0  0  0  0
  -29.0060  -23.3712   19.4732 C   0  0  0  0  0  0  0  0  0  0  0  0
  -21.2604   -5.1598   25.0352 C   0  0  0  0  0  0  0  0  0  0  0  0
  -27.3603  -21.2148   19.1782 C   0  0  0  0  0  0  0  0  0  0  0  0
  -24.7192   -9.0807   20.4192 C   0  0  0  0  0  0  0  0  0  0  0  0
  -26.4807   -8.7240   18.6088 C   0  0  0  0  0  0  0  0  0  0  0  0
  -27.3484  -36.6949   21.3055 C   0  0  0  0  0  0  0  0  0  0  0  0
  -25.1948  -29.2977   20.0718 C   0  0  0  0  0  0  0  0  0  0  0  0
  -27.4069  -35.4815   20.5937 C   0  0  0  0  0  0  0  0  0  0  0  0
  -25.5274  -28.7084   21.2999 C   0  0  0  0  0  0  0  0  0  0  0  0
  -29.5134  -22.0929   19.6779 C   0  0  0  0  0  0  0  0  0  0  0  0
  -28.6814  -20.9888   19.5296 C   0  0  0  0  0  0  0  0  0  0  0  0
  -22.4962   -8.3398   21.9332 C   0  0  0  0  0  0  0  0  0  0  0  0
  -26.3322  -26.7394   20.1229 C   0  0  0  0  0  0  0  0  0  0  0  0
  -21.3705   -6.6849   23.1646 C   0  0  0  0  0  0  0  0  0  0  0  0
  -21.2865   -4.0782   24.1548 C   0  0  0  0  0  0  0  0  0  0  0  0
  -21.3024   -6.4632   24.5400 C   0  0  0  0  0  0  0  0  0  0  0  0
  -25.8669   -9.4641   19.6370 C   0  0  0  0  0  0  0  0  0  0  0  0
  -27.6705  -23.4905   19.1241 C   0  0  0  0  0  0  0  0  0  0  0  0
  -27.5201   -9.5172   18.1882 C   0  0  0  0  0  0  0  0  0  0  0  0
  -26.1415   -7.4347   18.0810 C   0  0  0  0  0  0  0  0  0  0  0  0
  -26.2479  -32.0414   21.2831 C   0  0  0  0  0  0  0  0  0  0  0  0
  -24.0876  -31.3917   23.6141 C   0  0  0  0  0  0  0  0  0  0  0  0
  -22.2506  -29.0560   25.2924 C   0  0  0  0  0  0  0  0  0  0  0  0
  -28.2262  -15.3955   18.4140 C   0  0  0  0  0  0  0  0  0  0  0  0
  -27.5210  -36.7453   22.8029 C   0  0  0  0  0  0  0  0  0  0  0  0
  -24.5544  -30.6580   20.0284 C   0  0  0  0  0  0  0  0  0  0  0  0
  -25.2916  -29.4156   22.6086 C   0  0  0  0  0  0  0  0  0  0  0  0
  -27.3203  -35.3945   23.4850 C   0  0  0  0  0  0  0  0  0  0  0  0
  -30.5429  -12.8695   19.7123 C   0  0  0  0  0  0  0  0  0  0  0  0
  -28.0792  -34.3017   22.7389 C   0  0  0  0  0  0  0  0  0  0  0  0
  -29.6294  -11.6512   19.7975 C   0  0  0  0  0  0  0  0  0  0  0  0
  -29.8015  -14.1741   20.0072 C   0  0  0  0  0  0  0  0  0  0  0  0
  -27.6722  -13.1435   19.2622 C   0  0  0  0  0  0  0  0  0  0  0  0
  -28.3846  -17.9337   18.1727 C   0  0  0  0  0  0  0  0  0  0  0  0
  -29.0659  -17.2458   20.0673 C   0  0  0  0  0  0  0  0  0  0  0  0
  -27.5628  -34.1536   21.3026 C   0  0  1  0  0  0  0  0  0  0  0  0
  -24.8477  -31.4965   21.2687 C   0  0  1  0  0  0  0  0  0  0  0  0
  -28.3967  -11.8392   18.9008 C   0  0  2  0  0  0  0  0  0  0  0  0
  -28.3501  -18.5165   19.5898 C   0  0  0  0  0  0  0  0  0  0  0  0
  -30.9501  -21.9333   20.0534 C   0  0  0  0  0  0  0  0  0  0  0  0
  -20.6049  -28.8230   27.1724 C   0  0  0  0  0  0  0  0  0  0  0  0
  -26.3485  -31.7405   25.6331 C   0  0  0  0  0  0  0  0  0  0  0  0
  -24.9145  -30.5903   27.3328 C   0  0  0  0  0  0  0  0  0  0  0  0
  -24.1664  -32.7467   26.3262 C   0  0  0  0  0  0  0  0  0  0  0  0
  -20.1715  -27.9638   23.4914 C   0  0  0  0  0  0  0  0  0  0  0  0
  -27.0916  -24.8475   18.8982 C   0  0  0  0  0  0  0  0  0  1  0  0
  -24.1215  -30.6431   24.9246 C   0  0  1  0  0  0  0  0  0  0  0  0
  -20.7820  -29.0136   25.6741 C   0  0  2  0  0  0  0  0  0  0  0  0
  -24.8941  -31.4174   26.0296 C   0  0  0  0  0  0  0  0  0  0  0  0
  -26.8315  -22.4415   18.9709 N   0  0  0  0  0  0  0  0  0  0  0  0
  -26.4665  -10.6373   19.8564 N   0  0  0  0  0  0  0  0  0  0  0  0
  -27.4680  -10.6403   18.9602 N   0  0  0  0  0  0  0  0  0  0  0  0
  -24.6687  -30.7462   22.5134 N   0  0  0  0  0  0  0  0  0  0  0  0
  -28.5752  -14.2994   19.2103 N   0  0  0  0  0  0  0  0  0  0  0  0
  -28.6457  -16.6447   18.8089 N   0  0  0  0  0  0  0  0  0  0  0  0
  -28.4644   -9.3565   17.2370 N   0  0  0  0  0  0  0  0  0  0  0  0
  -25.0438   -6.7565   18.6281 N   0  0  0  0  0  0  0  0  0  0  0  0
  -29.1470  -19.6842   19.7254 N   0  0  0  0  0  0  0  0  0  0  0  0
  -26.3144  -33.4216   21.2873 N   0  0  0  0  0  0  0  0  0  0  0  0
  -22.7333  -30.3472   25.2617 N   0  0  0  0  0  0  0  0  0  0  0  0
  -20.0969  -27.8908   24.9733 N   0  3  0  0  0  0  0  0  0  0  0  0
  -26.8026   -6.8928   17.1630 O   0  0  0  0  0  0  0  0  0  0  0  0
  -27.1976  -31.2669   21.2913 O   0  0  0  0  0  0  0  0  0  0  0  0
  -23.5585  -32.5050   23.5671 O   0  0  0  0  0  0  0  0  0  0  0  0
  -22.9052  -28.0445   25.0496 O   0  0  0  0  0  0  0  0  0  0  0  0
  -27.5333  -15.2692   17.3957 O   0  0  0  0  0  0  0  0  0  0  0  0
  -21.4114   -7.9783   22.6715 O   0  0  0  0  0  0  0  0  0  0  0  0
  -26.8933  -25.4895   20.1514 O   0  0  0  0  0  0  0  0  0  1  0  0
  -21.2446   -2.8266   24.6300 F   0  0  0  0  0  0  0  0  0  0  0  0
  -21.2759   -7.4984   25.3907 F   0  0  0  0  0  0  0  0  0  0  0  0
  1  2  1  0  0  0  0
  1  5  2  0  0  0  0
  2  6  2  0  0  0  0
  3  8  2  0  0  0  0
  3 17  1  0  0  0  0
  4  9  1  0  0  0  0
  4 17  2  0  0  0  0
  5 19  1  0  0  0  0
  6 21  1  0  0  0  0
  7 10  2  0  0  0  0
  7 20  1  0  0  0  0
  8 25  1  0  0  0  0
  9 25  2  0  0  0  0
 10 26  1  0  0  0  0
 11 12  2  0  0  0  0
 11 27  1  0  0  0  0
 12 28  1  0  0  0  0
 13 22  1  0  0  0  0
 13 26  2  0  0  0  0
 14 23  2  0  0  0  0
 14 31  1  0  0  0  0
 15 28  2  0  0  0  0
 15 29  1  0  0  0  0
 16 24  2  0  0  0  0
 16 63  1  0  0  0  0
 17 30  1  0  0  0  0
 18 30  1  0  0  0  0
 18 32  2  0  0  0  0
 18 33  1  0  0  0  0
 19 21  2  0  0  0  0
 19 38  1  0  0  0  0
 20 22  2  0  0  0  0
 20 39  1  0  0  0  0
 21 49  1  0  0  0  0
 22 40  1  0  0  0  0
 23 24  1  0  0  0  0
 23 53  1  0  0  0  0
 24 71  1  0  0  0  0
 25 80  1  0  0  0  0
 26 81  1  0  0  0  0
 27 29  2  0  0  0  0
 27 80  1  0  0  0  0
 28 82  1  0  0  0  0
 29 83  1  0  0  0  0
 30 64  2  0  0  0  0
 31 59  1  0  0  0  0
 31 63  2  0  0  0  0
 32 65  1  0  0  0  0
 32 69  1  0  0  0  0
 33 70  1  0  0  0  0
 33 75  2  0  0  0  0
 34 50  1  0  0  0  0
 34 72  1  0  0  0  0
 34 76  2  0  0  0  0
 35 60  1  0  0  0  0
 35 66  1  0  0  0  0
 35 77  2  0  0  0  0
 36 61  1  0  0  0  0
 36 73  1  0  0  0  0
 36 78  2  0  0  0  0
 37 67  1  0  0  0  0
 37 68  1  0  0  0  0
 37 79  2  0  0  0  0
 38 41  1  0  0  0  0
 39 50  1  0  0  0  0
 40 66  1  0  0  0  0
 41 43  1  0  0  0  0
 42 44  1  0  0  0  0
 42 45  1  0  0  0  0
 43 49  1  0  0  0  0
 44 51  1  0  0  0  0
 45 67  1  0  0  0  0
 46 51  1  0  0  0  0
 46 67  1  0  0  0  0
 47 52  1  0  0  0  0
 47 68  1  0  0  0  0
 48 52  1  0  0  0  0
 48 68  1  0  0  0  0
 49 72  1  0  0  0  0
 50 66  1  0  0  0  0
 51 65  1  0  0  0  0
 52 71  1  0  0  0  0
 54 61  1  0  0  0  0
 55 62  1  0  0  0  0
 56 62  1  0  0  0  0
 57 62  1  0  0  0  0
 58 74  1  0  0  0  0
 59 81  1  0  0  0  0
 60 62  1  0  0  0  0
 60 73  1  0  0  0  0
 61 74  1  0  0  0  0
 64 65  1  0  0  0  0
M  CHG  1  74   1
M  ISO  4  37 100  59 101  68 100  81 101
M  END
> <Batch ID>
0187

> <Smiles>
CNC(C)C(=O)NC(C(=O)N1Cc2cc([101O:1][101CH2:1]c3cc(C)c(NC4C[100N:0]([100C:0](=O)N5CCCC(n6nc(-c7ccc(Oc8ccc(F)cc8F)cc7)c(C(N)=O)c6N)C5)C4)cn3)ccc2CC1C(=O)NC1CCCc2ccccc21)C(C)(C)C

> <Shape>
0.290

> <Color>
0.104

> <Negative vol penalty>
0.000

$$$$

  -OEChem-04052323173D

 80 89  0     1  0  0  0  0  0999 V2000
  -28.2587  -24.6809   16.9411 C   0  0  0  0  0  0  0  0  0  0  0  0
  -27.0702  -24.8673   17.6398 C   0  0  0  0  0  0  0  0  0  0  0  0
  -25.1829  -13.4171   21.4776 C   0  0  0  0  0  0  0  0  0  0  0  0
  -25.7220  -12.6776   19.2417 C   0  0  0  0  0  0  0  0  0  0  0  0
  -29.4457  -25.2255   17.4293 C   0  0  0  0  0  0  0  0  0  0  0  0
  -27.0682  -25.5975   18.8277 C   0  0  0  0  0  0  0  0  0  0  0  0
  -23.2261  -28.8869   19.0797 C   0  0  0  0  0  0  0  0  0  0  0  0
  -25.0296  -12.0903   21.8795 C   0  0  0  0  0  0  0  0  0  0  0  0
  -25.5687  -11.3507   19.6436 C   0  0  0  0  0  0  0  0  0  0  0  0
  -21.9697  -28.3749   19.4008 C   0  0  0  0  0  0  0  0  0  0  0  0
  -24.1446   -8.9098   23.4043 C   0  0  0  0  0  0  0  0  0  0  0  0
  -23.0338   -8.5914   24.1856 C   0  0  0  0  0  0  0  0  0  0  0  0
  -22.2606  -29.1073   21.6808 C   0  0  0  0  0  0  0  0  0  0  0  0
  -21.5727   -9.3480   22.4164 C   0  0  0  0  0  0  0  0  0  0  0  0
  -25.5291  -13.7108   20.1587 C   0  0  0  0  0  0  0  0  0  0  0  0
  -26.8671  -15.8483   19.7733 C   0  0  0  0  0  0  0  0  0  0  0  0
  -29.4566  -25.9710   18.6187 C   0  0  0  0  0  0  0  0  0  0  0  0
  -24.0151  -29.5042   20.0610 C   0  0  0  0  0  0  0  0  0  0  0  0
  -28.2567  -26.1515   19.3329 C   0  0  0  0  0  0  0  0  0  0  0  0
  -23.5256  -29.6285   21.3690 C   0  0  0  0  0  0  0  0  0  0  0  0
  -25.2226  -11.0571   20.9626 C   0  0  0  0  0  0  0  0  0  0  0  0
  -21.4880  -28.4825   20.7021 C   0  0  0  0  0  0  0  0  0  0  0  0
  -23.9695   -9.4474   22.1292 C   0  0  0  0  0  0  0  0  0  0  0  0
  -21.7479   -8.8105   23.6916 C   0  0  0  0  0  0  0  0  0  0  0  0
  -22.6835   -9.6664   21.6352 C   0  0  0  0  0  0  0  0  0  0  0  0
  -25.6870  -15.0813   19.7427 C   0  0  0  0  0  0  0  0  0  0  0  0
  -26.4933  -17.0733   19.2771 C   0  0  0  0  0  0  0  0  0  0  0  0
  -18.9498  -25.8362   20.8401 C   0  0  0  0  0  0  0  0  0  0  0  0
  -17.7255  -25.4974   21.1796 C   0  0  0  0  0  0  0  0  0  0  0  0
  -28.1834  -15.4859   20.2110 C   0  0  0  0  0  0  0  0  0  0  0  0
  -26.8599  -28.9140   21.3505 C   0  0  0  0  0  0  0  0  0  0  0  0
  -26.3499  -31.7600   22.8210 C   0  0  0  0  0  0  0  0  0  0  0  0
  -24.1155  -34.0918   23.9241 C   0  0  0  0  0  0  0  0  0  0  0  0
  -23.1895  -21.2937   18.9565 C   0  0  0  0  0  0  0  0  0  0  0  0
  -30.7725  -26.5002   19.1317 C   0  0  0  0  0  0  0  0  0  0  0  0
  -25.3570  -30.0751   19.6924 C   0  0  0  0  0  0  0  0  0  0  0  0
  -24.3250  -30.3004   22.4544 C   0  0  0  0  0  0  0  0  0  0  0  0
  -30.6199  -27.5782   20.2017 C   0  0  0  0  0  0  0  0  0  0  0  0
  -22.2440  -18.5496   16.9786 C   0  0  0  0  0  0  0  0  0  0  0  0
  -29.5927  -27.1524   21.2459 C   0  0  0  0  0  0  0  0  0  0  0  0
  -23.1564  -17.4523   17.5257 C   0  0  0  0  0  0  0  0  0  0  0  0
  -21.6907  -19.4423   18.0907 C   0  0  0  0  0  0  0  0  0  0  0  0
  -20.7874  -22.1023   18.9888 C   0  0  0  0  0  0  0  0  0  0  0  0
  -22.6233  -23.6308   18.3655 C   0  0  0  0  0  0  0  0  0  0  0  0
  -23.6446  -18.9242   19.5162 C   0  0  0  0  0  0  0  0  0  0  0  0
  -20.3600  -23.0535   20.1022 C   0  0  0  0  0  0  0  0  0  0  0  0
  -22.2413  -24.5910   19.4802 C   0  0  0  0  0  0  0  0  0  0  0  0
  -28.2098  -26.9586   20.6122 C   0  0  1  0  0  0  0  0  0  0  0  0
  -20.3036  -25.4477   20.7956 C   0  0  2  0  0  0  0  0  0  0  0  0
  -19.7746  -26.8379   20.2800 C   0  0  2  0  0  0  0  0  0  1  0  0
  -26.2913  -30.2260   20.8889 C   0  0  1  0  0  0  0  0  0  0  0  0
  -24.2618  -18.0461   18.4167 C   0  0  1  0  0  0  0  0  0  0  0  0
  -23.9961  -36.2938   25.1217 C   0  0  0  0  0  0  0  0  0  0  0  0
  -26.8887  -30.3456   25.4703 C   0  0  0  0  0  0  0  0  0  0  0  0
  -25.8448  -32.2954   26.6437 C   0  0  0  0  0  0  0  0  0  0  0  0
  -27.9062  -32.6219   25.2773 C   0  0  0  0  0  0  0  0  0  0  0  0
  -22.8552  -35.4199   21.5988 C   0  0  0  0  0  0  0  0  0  0  0  0
  -25.7027  -32.1946   24.1137 C   0  0  1  0  0  0  0  0  0  0  0  0
  -24.0765  -35.6015   23.7700 C   0  0  2  0  0  0  0  0  0  0  0  0
  -26.5711  -31.8499   25.3565 C   0  0  0  0  0  0  0  0  0  0  0  0
  -24.6418  -15.7619   19.2650 N   0  0  0  0  0  0  0  0  0  0  0  0
  -25.1638  -16.9696   18.9910 N   0  0  0  0  0  0  0  0  0  0  0  0
  -25.6337  -30.8370   22.0459 N   0  0  0  0  0  0  0  0  0  0  0  0
  -22.7778  -19.9528   18.9375 N   0  0  0  0  0  0  0  0  0  0  0  0
  -22.2140  -22.2631   18.6800 N   0  0  0  0  0  0  0  0  0  0  0  0
  -27.1754  -18.2182   19.0621 N   0  0  0  0  0  0  0  0  0  0  0  0
  -28.3934  -14.1864   20.6923 N   0  0  0  0  0  0  0  0  0  0  0  0
  -27.5760  -28.2388   20.3805 N   0  0  0  0  0  0  0  0  0  0  0  0
  -25.4090  -33.6159   23.9655 N   0  0  0  0  0  0  0  0  0  0  0  0
  -20.7615  -24.4623   19.7454 N   0  3  0  0  0  0  0  0  0  0  0  0
  -22.8926  -36.0093   22.9619 N   0  3  0  0  0  0  0  0  0  0  0  0
  -29.1412  -16.2957   20.1918 O   0  0  0  0  0  0  0  0  0  0  0  0
  -26.6647  -28.5424   22.5018 O   0  0  0  0  0  0  0  0  0  0  0  0
  -27.4472  -32.2279   22.5069 O   0  0  0  0  0  0  0  0  0  0  0  0
  -23.1002  -33.4039   24.0037 O   0  0  0  0  0  0  0  0  0  0  0  0
  -24.3603  -21.6067   19.2065 O   0  0  0  0  0  0  0  0  0  0  0  0
  -25.0733   -9.7622   21.3545 O   0  0  0  0  0  0  0  0  0  0  0  0
  -20.2450  -27.9761   21.0228 O   0  0  0  0  0  0  0  0  0  1  0  0
  -20.6812   -8.5033   24.4414 F   0  0  0  0  0  0  0  0  0  0  0  0
  -22.5090  -10.1814   20.4104 F   0  0  0  0  0  0  0  0  0  0  0  0
  1  2  1  0  0  0  0
  1  5  2  0  0  0  0
  2  6  2  0  0  0  0
  3  8  2  0  0  0  0
  3 15  1  0  0  0  0
  4  9  1  0  0  0  0
  4 15  2  0  0  0  0
  5 17  1  0  0  0  0
  6 19  1  0  0  0  0
  7 10  2  0  0  0  0
  7 18  1  0  0  0  0
  8 21  1  0  0  0  0
  9 21  2  0  0  0  0
 10 22  1  0  0  0  0
 11 12  2  0  0  0  0
 11 23  1  0  0  0  0
 12 24  1  0  0  0  0
 13 20  1  0  0  0  0
 13 22  2  0  0  0  0
 14 24  2  0  0  0  0
 14 25  1  0  0  0  0
 15 26  1  0  0  0  0
 16 26  1  0  0  0  0
 16 27  2  0  0  0  0
 16 30  1  0  0  0  0
 17 19  2  0  0  0  0
 17 35  1  0  0  0  0
 18 20  2  0  0  0  0
 18 36  1  0  0  0  0
 19 48  1  0  0  0  0
 20 37  1  0  0  0  0
 21 77  1  0  0  0  0
 22 78  1  0  0  0  0
 23 25  2  0  0  0  0
 23 77  1  0  0  0  0
 24 79  1  0  0  0  0
 25 80  1  0  0  0  0
 26 61  2  0  0  0  0
 27 62  1  0  0  0  0
 27 66  1  0  0  0  0
 28 29  2  0  0  0  0
 28 49  1  0  0  0  0
 28 50  1  0  0  0  0
 30 67  1  0  0  0  0
 30 72  2  0  0  0  0
 31 51  1  0  0  0  0
 31 68  1  0  0  0  0
 31 73  2  0  0  0  0
 32 58  1  0  0  0  0
 32 63  1  0  0  0  0
 32 74  2  0  0  0  0
 33 59  1  0  0  0  0
 33 69  1  0  0  0  0
 33 75  2  0  0  0  0
 34 64  1  0  0  0  0
 34 65  1  0  0  0  0
 34 76  2  0  0  0  0
 35 38  1  0  0  0  0
 36 51  1  0  0  0  0
 37 63  1  0  0  0  0
 38 40  1  0  0  0  0
 39 41  1  0  0  0  0
 39 42  1  0  0  0  0
 40 48  1  0  0  0  0
 41 52  1  0  0  0  0
 42 64  1  0  0  0  0
 43 46  1  0  0  0  0
 43 65  1  0  0  0  0
 44 47  1  0  0  0  0
 44 65  1  0  0  0  0
 45 52  1  0  0  0  0
 45 64  1  0  0  0  0
 46 70  1  0  0  0  0
 47 70  1  0  0  0  0
 48 68  1  0  0  0  0
 49 50  1  0  0  0  0
 49 70  1  0  0  0  0
 50 78  1  0  0  0  0
 51 63  1  0  0  0  0
 52 62  1  0  0  0  0
 53 59  1  0  0  0  0
 54 60  1  0  0  0  0
 55 60  1  0  0  0  0
 56 60  1  0  0  0  0
 57 71  1  0  0  0  0
 58 60  1  0  0  0  0
 58 69  1  0  0  0  0
 59 71  1  0  0  0  0
 61 62  1  0  0  0  0
M  CHG  2  70   1  71   1
M  ISO  4  34 100  50 101  65 100  78 101
M  END
> <Batch ID>
0187

> <Smiles>
C=C1C(N2CC[100N:0]([100C:0](=O)N3CCCC(n4nc(-c5ccc(Oc6ccc(F)cc6F)cc5)c(C(N)=O)c4N)C3)CC2)[101CH:1]1[101O:1]c1ccc2c(c1)CN(C(=O)C(NC(=O)C(C)NC)C(C)(C)C)C(C(=O)NC1CCCc3ccccc31)C2

> <Shape>
0.286

> <Color>
0.076

> <Negative vol penalty>
0.000

$$$$

  -OEChem-04052323173D

 84 94  0     1  0  0  0  0  0999 V2000
  -24.0074  -32.1757   21.3186 C   0  0  0  0  0  0  0  0  0  0  0  0
  -23.9719  -30.8975   20.7705 C   0  0  0  0  0  0  0  0  0  0  0  0
  -23.1461   -9.7581   19.9761 C   0  0  0  0  0  0  0  0  0  0  0  0
  -23.6759   -9.9944   22.3214 C   0  0  0  0  0  0  0  0  0  0  0  0
  -25.0450  -32.5362   22.1772 C   0  0  0  0  0  0  0  0  0  0  0  0
  -24.9748  -29.9794   21.0799 C   0  0  0  0  0  0  0  0  0  0  0  0
  -24.3505  -23.9203   21.7151 C   0  0  0  0  0  0  0  0  0  0  0  0
  -22.4050   -8.6108   20.2591 C   0  0  0  0  0  0  0  0  0  0  0  0
  -22.9347   -8.8472   22.6044 C   0  0  0  0  0  0  0  0  0  0  0  0
  -24.5984  -22.8559   20.8494 C   0  0  0  0  0  0  0  0  0  0  0  0
  -23.3470   -5.4984   22.3881 C   0  0  0  0  0  0  0  0  0  0  0  0
  -23.9096   -4.5607   23.2539 C   0  0  0  0  0  0  0  0  0  0  0  0
  -26.7715  -22.5541   21.8523 C   0  0  0  0  0  0  0  0  0  0  0  0
  -22.0450   -4.8375   24.7652 C   0  0  0  0  0  0  0  0  0  0  0  0
  -30.1131  -18.3360   20.0927 C   0  0  0  0  0  0  0  0  0  0  0  0
  -23.7816  -10.4499   21.0073 C   0  0  0  0  0  0  0  0  0  0  0  0
  -24.0818  -12.9628   20.6871 C   0  0  0  0  0  0  0  0  0  0  0  0
  -26.0559  -31.6189   22.5049 C   0  0  0  0  0  0  0  0  0  0  0  0
  -25.3173  -24.3172   22.6502 C   0  0  0  0  0  0  0  0  0  0  0  0
  -26.0277  -30.3284   21.9426 C   0  0  0  0  0  0  0  0  0  0  0  0
  -26.5324  -23.6222   22.7305 C   0  0  0  0  0  0  0  0  0  0  0  0
  -22.2992   -8.1554   21.5732 C   0  0  0  0  0  0  0  0  0  0  0  0
  -25.8101  -22.1745   20.9160 C   0  0  0  0  0  0  0  0  0  0  0  0
  -22.1335   -6.1058   22.7108 C   0  0  0  0  0  0  0  0  0  0  0  0
  -23.2586   -4.2302   24.4425 C   0  0  0  0  0  0  0  0  0  0  0  0
  -21.4825   -5.7753   23.8993 C   0  0  0  0  0  0  0  0  0  0  0  0
  -24.5478  -11.6347   20.7155 C   0  0  0  0  0  0  0  0  0  0  0  0
  -29.4454  -19.4760   20.4912 C   0  0  0  0  0  0  0  0  0  0  0  0
  -31.2494  -18.0273   20.8122 C   0  0  0  0  0  0  0  0  0  0  0  0
  -25.1889  -13.7083   20.3628 C   0  0  0  0  0  0  0  0  0  0  0  0
  -30.9690  -19.8544   22.1352 C   0  0  0  0  0  0  0  0  0  0  0  0
  -22.7660  -13.4768   20.9321 C   0  0  0  0  0  0  0  0  0  0  0  0
  -26.9849  -26.9744   23.1621 C   0  0  0  0  0  0  0  0  0  0  0  0
  -27.9767  -25.3781   25.8061 C   0  0  0  0  0  0  0  0  0  0  0  0
  -28.4872  -22.3834   27.3611 C   0  0  0  0  0  0  0  0  0  0  0  0
  -30.4864  -14.9027   21.1429 C   0  0  0  0  0  0  0  0  0  0  0  0
  -27.1828  -32.0696   23.4003 C   0  0  0  0  0  0  0  0  0  0  0  0
  -25.0239  -25.4502   23.5950 C   0  0  0  0  0  0  0  0  0  0  0  0
  -27.5952  -23.9959   23.7302 C   0  0  0  0  0  0  0  0  0  0  0  0
  -28.0036  -30.9172   23.9733 C   0  0  0  0  0  0  0  0  0  0  0  0
  -29.7615  -12.2779   18.7353 C   0  0  0  0  0  0  0  0  0  0  0  0
  -28.3508  -29.9131   22.8787 C   0  0  0  0  0  0  0  0  0  0  0  0
  -28.2891  -11.9899   19.0360 C   0  0  0  0  0  0  0  0  0  0  0  0
  -32.6197  -16.5448   19.0534 C   0  0  0  0  0  0  0  0  0  0  0  0
  -27.0792  -18.8900   19.6347 C   0  0  0  0  0  0  0  0  0  0  0  0
  -30.5247  -12.5977   20.0154 C   0  0  0  0  0  0  0  0  0  0  0  0
  -32.2360  -15.0722   19.1874 C   0  0  0  0  0  0  0  0  0  0  0  0
  -28.4990  -13.4395   21.1141 C   0  0  0  0  0  0  0  0  0  0  0  0
  -27.0838  -29.2964   22.2738 C   0  0  1  0  0  0  0  0  0  0  0  0
  -28.2151  -19.8772   19.7681 C   0  0  1  0  0  0  0  0  0  0  0  0
  -32.1512  -16.7588   20.5061 C   0  0  2  0  0  0  0  0  0  0  0  0
  -26.2840  -26.0977   24.1610 C   0  0  1  0  0  0  0  0  0  0  0  0
  -27.6538  -13.1218   19.8658 C   0  0  2  0  0  0  0  0  0  0  0  0
  -26.9309  -20.0711   20.5442 C   0  0  1  0  0  0  0  0  0  1  0  0
  -31.4443  -20.6976   23.2691 C   0  0  0  0  0  0  0  0  0  0  0  0
  -29.3440  -21.3970   29.5036 C   0  0  0  0  0  0  0  0  0  0  0  0
  -30.8413  -25.9293   24.9115 C   0  0  0  0  0  0  0  0  0  0  0  0
  -31.6067  -24.1599   26.5089 C   0  0  0  0  0  0  0  0  0  0  0  0
  -30.4458  -26.1945   27.3666 C   0  0  0  0  0  0  0  0  0  0  0  0
  -25.8734  -21.1345   27.9668 C   0  0  0  0  0  0  0  0  0  0  0  0
  -29.1158  -24.4398   26.1240 C   0  0  1  0  0  0  0  0  0  0  0  0
  -28.1200  -21.8943   28.7505 C   0  0  2  0  0  0  0  0  0  0  0  0
  -30.4834  -25.1748   26.2075 C   0  0  0  0  0  0  0  0  0  0  0  0
  -25.8494  -11.5388   20.4317 N   0  0  0  0  0  0  0  0  0  0  0  0
  -29.8467  -20.2616   21.5121 N   0  0  0  0  0  0  0  0  0  0  0  0
  -31.7080  -18.7671   21.8431 N   0  0  0  0  0  0  0  0  0  0  0  0
  -26.2108  -12.8161   20.2218 N   0  0  0  0  0  0  0  0  0  0  0  0
  -27.2636  -25.1146   24.6280 N   0  0  0  0  0  0  0  0  0  0  0  0
  -29.8902  -13.7088   20.7299 N   0  0  0  0  0  0  0  0  0  0  0  0
  -31.5055  -15.4364   20.3877 N   0  0  0  0  0  0  0  0  0  0  0  0
  -25.3782  -15.0333   20.1873 N   0  0  0  0  0  0  0  0  0  0  0  0
  -21.7445  -12.5724   21.2532 N   0  0  0  0  0  0  0  0  0  0  0  0
  -26.5439  -28.2839   23.1557 N   0  0  0  0  0  0  0  0  0  0  0  0
  -28.7384  -23.7391   27.3467 N   0  0  0  0  0  0  0  0  0  0  0  0
  -27.1362  -20.7783   28.6635 N   0  3  0  0  0  0  0  0  0  0  0  0
  -22.5001  -14.7000   20.8521 O   0  0  0  0  0  0  0  0  0  0  0  0
  -27.8621  -26.4983   22.4510 O   0  0  0  0  0  0  0  0  0  0  0  0
  -27.7242  -26.3062   26.5785 O   0  0  0  0  0  0  0  0  0  0  0  0
  -28.5489  -21.6367   26.3868 O   0  0  0  0  0  0  0  0  0  0  0  0
  -30.0868  -15.5011   22.1517 O   0  0  0  0  0  0  0  0  0  0  0  0
  -21.5759   -7.0360   21.8498 O   0  0  0  0  0  0  0  0  0  0  0  0
  -26.0549  -21.1357   20.0717 O   0  0  0  0  0  0  0  0  0  1  0  0
  -23.7982   -3.3285   25.2731 F   0  0  0  0  0  0  0  0  0  0  0  0
  -20.3158   -6.3546   24.2142 F   0  0  0  0  0  0  0  0  0  0  0  0
  1  2  1  0  0  0  0
  1  5  2  0  0  0  0
  2  6  2  0  0  0  0
  3  8  2  0  0  0  0
  3 16  1  0  0  0  0
  4  9  1  0  0  0  0
  4 16  2  0  0  0  0
  5 18  1  0  0  0  0
  6 20  1  0  0  0  0
  7 10  2  0  0  0  0
  7 19  1  0  0  0  0
  8 22  1  0  0  0  0
  9 22  2  0  0  0  0
 10 23  1  0  0  0  0
 11 12  2  0  0  0  0
 11 24  1  0  0  0  0
 12 25  1  0  0  0  0
 13 21  1  0  0  0  0
 13 23  2  0  0  0  0
 14 25  2  0  0  0  0
 14 26  1  0  0  0  0
 15 28  1  0  0  0  0
 15 29  2  0  0  0  0
 16 27  1  0  0  0  0
 17 27  1  0  0  0  0
 17 30  2  0  0  0  0
 17 32  1  0  0  0  0
 18 20  2  0  0  0  0
 18 37  1  0  0  0  0
 19 21  2  0  0  0  0
 19 38  1  0  0  0  0
 20 49  1  0  0  0  0
 21 39  1  0  0  0  0
 22 81  1  0  0  0  0
 23 82  1  0  0  0  0
 24 26  2  0  0  0  0
 24 81  1  0  0  0  0
 25 83  1  0  0  0  0
 26 84  1  0  0  0  0
 27 64  2  0  0  0  0
 28 50  1  0  0  0  0
 28 65  2  0  0  0  0
 29 51  1  0  0  0  0
 29 66  1  0  0  0  0
 30 67  1  0  0  0  0
 30 71  1  0  0  0  0
 31 55  1  0  0  0  0
 31 65  1  0  0  0  0
 31 66  2  0  0  0  0
 32 72  1  0  0  0  0
 32 76  2  0  0  0  0
 33 52  1  0  0  0  0
 33 73  1  0  0  0  0
 33 77  2  0  0  0  0
 34 61  1  0  0  0  0
 34 68  1  0  0  0  0
 34 78  2  0  0  0  0
 35 62  1  0  0  0  0
 35 74  1  0  0  0  0
 35 79  2  0  0  0  0
 36 69  1  0  0  0  0
 36 70  1  0  0  0  0
 36 80  2  0  0  0  0
 37 40  1  0  0  0  0
 38 52  1  0  0  0  0
 39 68  1  0  0  0  0
 40 42  1  0  0  0  0
 41 43  1  0  0  0  0
 41 46  1  0  0  0  0
 42 49  1  0  0  0  0
 43 53  1  0  0  0  0
 44 47  1  0  0  0  0
 44 51  1  0  0  0  0
 45 50  1  0  0  0  0
 45 54  1  0  0  0  0
 46 69  1  0  0  0  0
 47 70  1  0  0  0  0
 48 53  1  0  0  0  0
 48 69  1  0  0  0  0
 49 73  1  0  0  0  0
 50 54  1  0  0  0  0
 51 70  1  0  0  0  0
 52 68  1  0  0  0  0
 53 67  1  0  0  0  0
 54 82  1  0  0  0  0
 56 62  1  0  0  0  0
 57 63  1  0  0  0  0
 58 63  1  0  0  0  0
 59 63  1  0  0  0  0
 60 75  1  0  0  0  0
 61 63  1  0  0  0  0
 61 74  1  0  0  0  0
 62 75  1  0  0  0  0
 64 67  1  0  0  0  0
M  CHG  1  75   1
M  ISO  4  36 100  54 101  70 100  82 101
M  END
> <Batch ID>
0187

> <Smiles>
CNC(C)C(=O)NC(C(=O)N1Cc2cc([101O:1][101CH:1]3CC3c3cc(C4CC[100N:0]4[100C:0](=O)N4CCCC(n5nc(-c6ccc(Oc7ccc(F)cc7F)cc6)c(C(N)=O)c5N)C4)nc(C)n3)ccc2CC1C(=O)NC1CCCc2ccccc21)C(C)(C)C

> <Shape>
0.258

> <Color>
0.177

> <Negative vol penalty>
0.000

$$$$

  -OEChem-04052323173D

 81 90  0     1  0  0  0  0  0999 V2000
  -29.4174  -29.9316   26.8632 C   0  0  0  0  0  0  0  0  0  0  0  0
  -29.0259  -29.0427   25.8672 C   0  0  0  0  0  0  0  0  0  0  0  0
  -22.6604  -10.4670   21.0084 C   0  0  0  0  0  0  0  0  0  0  0  0
  -24.5478   -9.1433   21.7314 C   0  0  0  0  0  0  0  0  0  0  0  0
  -28.4812  -30.7916   27.4358 C   0  0  0  0  0  0  0  0  0  0  0  0
  -27.6976  -29.0125   25.4440 C   0  0  0  0  0  0  0  0  0  0  0  0
  -27.2691  -28.8263   20.4015 C   0  0  0  0  0  0  0  0  0  0  0  0
  -26.7775  -22.3220   16.0043 C   0  0  0  0  0  0  0  0  0  0  0  0
  -21.8677   -9.3198   20.9774 C   0  0  0  0  0  0  0  0  0  0  0  0
  -23.7550   -7.9960   21.7005 C   0  0  0  0  0  0  0  0  0  0  0  0
  -27.4846  -27.5923   19.7894 C   0  0  0  0  0  0  0  0  0  0  0  0
  -22.1343   -4.7741   22.1595 C   0  0  0  0  0  0  0  0  0  0  0  0
  -22.2226   -3.8946   23.2384 C   0  0  0  0  0  0  0  0  0  0  0  0
  -26.3857  -23.5427   16.5424 C   0  0  0  0  0  0  0  0  0  0  0  0
  -25.1004  -27.2597   19.6343 C   0  0  0  0  0  0  0  0  0  0  0  0
  -21.5011   -5.6525   24.7305 C   0  0  0  0  0  0  0  0  0  0  0  0
  -26.1457  -21.2783   18.0460 C   0  0  0  0  0  0  0  0  0  0  0  0
  -24.0005  -10.3788   21.3853 C   0  0  0  0  0  0  0  0  0  0  0  0
  -25.0139  -12.4342   22.5060 C   0  0  0  0  0  0  0  0  0  0  0  0
  -26.6584  -21.1635   16.7639 C   0  0  0  0  0  0  0  0  0  0  0  0
  -27.1428  -30.7787   27.0126 C   0  0  0  0  0  0  0  0  0  0  0  0
  -25.9654  -29.2820   20.6450 C   0  0  0  0  0  0  0  0  0  0  0  0
  -26.7423  -29.8722   26.0124 C   0  0  0  0  0  0  0  0  0  0  0  0
  -24.8710  -28.5009   20.2473 C   0  0  0  0  0  0  0  0  0  0  0  0
  -22.4149   -8.0843   21.3235 C   0  0  0  0  0  0  0  0  0  0  0  0
  -26.4002  -26.8075   19.4082 C   0  0  0  0  0  0  0  0  0  0  0  0
  -21.7295   -6.0929   22.3660 C   0  0  0  0  0  0  0  0  0  0  0  0
  -21.9060   -4.3338   24.5239 C   0  0  0  0  0  0  0  0  0  0  0  0
  -21.4129   -6.5321   23.6515 C   0  0  0  0  0  0  0  0  0  0  0  0
  -24.8201  -11.5634   21.4170 C   0  0  0  0  0  0  0  0  0  0  0  0
  -25.8849  -23.5511   17.8343 C   0  0  0  0  0  0  0  0  0  0  0  0
  -25.8716  -13.3950   22.0289 C   0  0  0  0  0  0  0  0  0  0  0  0
  -24.4675  -12.3794   23.8304 C   0  0  0  0  0  0  0  0  0  0  0  0
  -24.2948  -30.0151   23.2479 C   0  0  0  0  0  0  0  0  0  0  0  0
  -22.0826  -30.9823   21.0816 C   0  0  0  0  0  0  0  0  0  0  0  0
  -20.8241  -30.7368   17.9189 C   0  0  0  0  0  0  0  0  0  0  0  0
  -27.1744  -16.9909   18.0635 C   0  0  0  0  0  0  0  0  0  0  0  0
  -26.1570  -31.6942   27.6943 C   0  0  0  0  0  0  0  0  0  0  0  0
  -25.7496  -30.6273   21.2821 C   0  0  0  0  0  0  0  0  0  0  0  0
  -23.4516  -28.9538   20.4678 C   0  0  0  0  0  0  0  0  0  0  0  0
  -24.8481  -31.8600   26.9265 C   0  0  0  0  0  0  0  0  0  0  0  0
  -28.5829  -13.5923   17.7841 C   0  0  0  0  0  0  0  0  0  0  0  0
  -24.3251  -30.5038   26.4639 C   0  0  0  0  0  0  0  0  0  0  0  0
  -27.6983  -12.8267   18.7638 C   0  0  0  0  0  0  0  0  0  0  0  0
  -28.4635  -19.6704   15.6752 C   0  0  0  0  0  0  0  0  0  0  0  0
  -27.8201  -14.7117   17.0769 C   0  0  0  0  0  0  0  0  0  0  0  0
  -26.2596  -14.8887   18.9947 C   0  0  0  0  0  0  0  0  0  0  0  0
  -27.0677  -19.8429   16.2173 C   0  0  1  0  0  0  0  0  0  0  0  0
  -25.3159  -29.8269   25.5091 C   0  0  1  0  0  0  0  0  0  0  0  0
  -24.3831  -30.7614   21.9468 C   0  0  1  0  0  0  0  0  0  0  0  0
  -27.0222  -13.7902   19.7511 C   0  0  1  0  0  0  0  0  0  0  0  0
  -28.0873  -19.0179   16.9726 C   0  0  1  0  0  0  0  0  0  0  0  0
  -18.9887  -31.6228   16.4549 C   0  0  0  0  0  0  0  0  0  0  0  0
  -20.0743  -29.1906   22.5192 C   0  0  0  0  0  0  0  0  0  0  0  0
  -18.5867  -29.3668   20.5132 C   0  0  0  0  0  0  0  0  0  0  0  0
  -19.1712  -31.4135   21.8139 C   0  0  0  0  0  0  0  0  0  0  0  0
  -22.7563  -31.8983   16.0015 C   0  0  0  0  0  0  0  0  0  0  0  0
  -25.4511  -24.8504   18.4466 C   0  0  0  0  0  0  0  0  0  1  0  0
  -20.9307  -30.3226   20.3626 C   0  0  1  0  0  0  0  0  0  0  0  0
  -20.4304  -31.7971   16.9064 C   0  0  2  0  0  0  0  0  0  0  0  0
  -19.7174  -30.0637   21.2997 C   0  0  0  0  0  0  0  0  0  0  0  0
  -25.7545  -22.4465   18.6028 N   0  0  0  0  0  0  0  0  0  0  0  0
  -25.4999  -11.9380   20.3299 N   0  0  0  0  0  0  0  0  0  0  0  0
  -26.1291  -13.0548   20.7335 N   0  0  0  0  0  0  0  0  0  0  0  0
  -23.2924  -30.2738   21.1001 N   0  0  0  0  0  0  0  0  0  0  0  0
  -27.1276  -15.5853   18.0373 N   0  0  0  0  0  0  0  0  0  0  0  0
  -26.4230  -14.4894   22.5953 N   0  0  0  0  0  0  0  0  0  0  0  0
  -23.6030  -11.3246   24.1534 N   0  0  0  0  0  0  0  0  0  0  0  0
  -25.2257  -30.4124   24.1887 N   0  0  0  0  0  0  0  0  0  0  0  0
  -20.6283  -31.1691   19.2135 N   0  0  0  0  0  0  0  0  0  0  0  0
  -27.9490  -17.5898   17.0764 N   0  0  0  0  0  0  0  0  0  0  0  0
  -21.3112  -31.7201   15.7067 N   0  3  0  0  0  0  0  0  0  0  0  0
  -24.7249  -13.2494   24.6966 O   0  0  0  0  0  0  0  0  0  0  0  0
  -23.4442  -29.1442   23.3885 O   0  0  0  0  0  0  0  0  0  0  0  0
  -21.9171  -32.0886   21.6014 O   0  0  0  0  0  0  0  0  0  0  0  0
  -21.2582  -29.6339   17.5939 O   0  0  0  0  0  0  0  0  0  0  0  0
  -26.5661  -17.6659   18.9014 O   0  0  0  0  0  0  0  0  0  0  0  0
  -21.6416   -6.9646   21.2936 O   0  0  0  0  0  0  0  0  0  0  0  0
  -26.6078  -25.6024   18.8111 O   0  0  0  0  0  0  0  0  0  1  0  0
  -21.9894   -3.4886   25.5598 F   0  0  0  0  0  0  0  0  0  0  0  0
  -21.0222   -7.7975   23.8559 F   0  0  0  0  0  0  0  0  0  0  0  0
  1  2  1  0  0  0  0
  1  5  2  0  0  0  0
  2  6  2  0  0  0  0
  3  9  2  0  0  0  0
  3 18  1  0  0  0  0
  4 10  1  0  0  0  0
  4 18  2  0  0  0  0
  5 21  1  0  0  0  0
  6 23  1  0  0  0  0
  7 11  2  0  0  0  0
  7 22  1  0  0  0  0
  8 14  2  0  0  0  0
  8 20  1  0  0  0  0
  9 25  1  0  0  0  0
 10 25  2  0  0  0  0
 11 26  1  0  0  0  0
 12 13  2  0  0  0  0
 12 27  1  0  0  0  0
 13 28  1  0  0  0  0
 14 31  1  0  0  0  0
 15 24  1  0  0  0  0
 15 26  2  0  0  0  0
 16 28  2  0  0  0  0
 16 29  1  0  0  0  0
 17 20  2  0  0  0  0
 17 62  1  0  0  0  0
 18 30  1  0  0  0  0
 19 30  1  0  0  0  0
 19 32  2  0  0  0  0
 19 33  1  0  0  0  0
 20 48  1  0  0  0  0
 21 23  2  0  0  0  0
 21 38  1  0  0  0  0
 22 24  2  0  0  0  0
 22 39  1  0  0  0  0
 23 49  1  0  0  0  0
 24 40  1  0  0  0  0
 25 78  1  0  0  0  0
 26 79  1  0  0  0  0
 27 29  2  0  0  0  0
 27 78  1  0  0  0  0
 28 80  1  0  0  0  0
 29 81  1  0  0  0  0
 30 63  2  0  0  0  0
 31 58  1  0  0  0  0
 31 62  2  0  0  0  0
 32 64  1  0  0  0  0
 32 67  1  0  0  0  0
 33 68  1  0  0  0  0
 33 73  2  0  0  0  0
 34 50  1  0  0  0  0
 34 69  1  0  0  0  0
 34 74  2  0  0  0  0
 35 59  1  0  0  0  0
 35 65  1  0  0  0  0
 35 75  2  0  0  0  0
 36 60  1  0  0  0  0
 36 70  1  0  0  0  0
 36 76  2  0  0  0  0
 37 66  1  0  0  0  0
 37 71  1  0  0  0  0
 37 77  2  0  0  0  0
 38 41  1  0  0  0  0
 39 50  1  0  0  0  0
 40 65  1  0  0  0  0
 41 43  1  0  0  0  0
 42 44  1  0  0  0  0
 42 46  1  0  0  0  0
 43 49  1  0  0  0  0
 44 51  1  0  0  0  0
 45 48  1  0  0  0  0
 45 52  1  0  0  0  0
 46 66  1  0  0  0  0
 47 51  1  0  0  0  0
 47 66  1  0  0  0  0
 48 52  1  0  0  0  0
 49 69  1  0  0  0  0
 50 65  1  0  0  0  0
 51 64  1  0  0  0  0
 52 71  1  0  0  0  0
 53 60  1  0  0  0  0
 54 61  1  0  0  0  0
 55 61  1  0  0  0  0
 56 61  1  0  0  0  0
 57 72  1  0  0  0  0
 58 79  1  0  0  0  0
 59 61  1  0  0  0  0
 59 70  1  0  0  0  0
 60 72  1  0  0  0  0
 63 64  1  0  0  0  0
M  CHG  1  72   1
M  ISO  4  37 100  58 101  71 100  79 101
M  END
> <Batch ID>
0187

> <Smiles>
CNC(C)C(=O)NC(C(=O)N1Cc2cc([101O:1][101CH2:1]c3ccc(C4CC4[100NH:0][100C:0](=O)N4CCCC(n5nc(-c6ccc(Oc7ccc(F)cc7F)cc6)c(C(N)=O)c5N)C4)cn3)ccc2CC1C(=O)NC1CCCc2ccccc21)C(C)(C)C

> <Shape>
0.252

> <Color>
0.142

> <Negative vol penalty>
0.000

$$$$

  -OEChem-04052323173D

 84 93  0     1  0  0  0  0  0999 V2000
  -28.8045  -37.5357   21.6726 C   0  0  0  0  0  0  0  0  0  0  0  0
  -29.1366  -36.2266   21.3390 C   0  0  0  0  0  0  0  0  0  0  0  0
  -24.2839  -10.1677   22.8930 C   0  0  0  0  0  0  0  0  0  0  0  0
  -24.4515   -8.6362   21.0320 C   0  0  0  0  0  0  0  0  0  0  0  0
  -27.7839  -37.7827   22.5899 C   0  0  0  0  0  0  0  0  0  0  0  0
  -28.4491  -35.1635   21.9235 C   0  0  0  0  0  0  0  0  0  0  0  0
  -27.0442  -29.8062   19.3099 C   0  0  0  0  0  0  0  0  0  0  0  0
  -23.0959   -9.5545   23.2907 C   0  0  0  0  0  0  0  0  0  0  0  0
  -23.2635   -8.0229   21.4297 C   0  0  0  0  0  0  0  0  0  0  0  0
  -27.6437  -28.5488   19.3671 C   0  0  0  0  0  0  0  0  0  0  0  0
  -22.2770   -5.7846   23.7615 C   0  0  0  0  0  0  0  0  0  0  0  0
  -22.2411   -4.3902   23.7720 C   0  0  0  0  0  0  0  0  0  0  0  0
  -26.1010  -27.8989   21.1041 C   0  0  0  0  0  0  0  0  0  0  0  0
  -20.4299   -4.4248   22.1734 C   0  0  0  0  0  0  0  0  0  0  0  0
  -29.0345  -23.7656   18.6624 C   0  0  0  0  0  0  0  0  0  0  0  0
  -30.4883  -23.1749   20.8222 C   0  0  0  0  0  0  0  0  0  0  0  0
  -24.9617   -9.7086   21.7636 C   0  0  0  0  0  0  0  0  0  0  0  0
  -27.4958  -10.0020   21.7491 C   0  0  0  0  0  0  0  0  0  0  0  0
  -27.0771  -36.7223   23.1786 C   0  0  0  0  0  0  0  0  0  0  0  0
  -25.9738  -30.1236   20.1584 C   0  0  0  0  0  0  0  0  0  0  0  0
  -27.4191  -35.3965   22.8506 C   0  0  0  0  0  0  0  0  0  0  0  0
  -25.4880  -29.1602   21.0538 C   0  0  0  0  0  0  0  0  0  0  0  0
  -22.5857   -8.4821   22.5591 C   0  0  0  0  0  0  0  0  0  0  0  0
  -27.1741  -27.5959   20.2663 C   0  0  0  0  0  0  0  0  0  0  0  0
  -21.3892   -6.4990   22.9570 C   0  0  0  0  0  0  0  0  0  0  0  0
  -21.3176   -3.7103   22.9779 C   0  0  0  0  0  0  0  0  0  0  0  0
  -20.4658   -5.8191   22.1629 C   0  0  0  0  0  0  0  0  0  0  0  0
  -26.1887  -10.3420   21.3519 C   0  0  0  0  0  0  0  0  0  0  0  0
  -29.3322  -24.7265   19.6034 C   0  0  0  0  0  0  0  0  0  0  0  0
  -30.1900  -22.2137   19.8816 C   0  0  0  0  0  0  0  0  0  0  0  0
  -28.2998  -10.8958   21.0850 C   0  0  0  0  0  0  0  0  0  0  0  0
  -27.9431   -8.9705   22.6388 C   0  0  0  0  0  0  0  0  0  0  0  0
  -25.4900  -32.2703   22.4521 C   0  0  0  0  0  0  0  0  0  0  0  0
  -22.4662  -31.0986   22.3729 C   0  0  0  0  0  0  0  0  0  0  0  0
  -20.3830  -28.5055   21.6093 C   0  0  0  0  0  0  0  0  0  0  0  0
  -29.5868  -15.8230   19.3903 C   0  0  0  0  0  0  0  0  0  0  0  0
  -26.0136  -37.0376   24.2005 C   0  0  0  0  0  0  0  0  0  0  0  0
  -25.3207  -31.4754   20.0656 C   0  0  0  0  0  0  0  0  0  0  0  0
  -24.3284  -29.4442   21.9721 C   0  0  0  0  0  0  0  0  0  0  0  0
  -25.0820  -35.8639   24.4921 C   0  0  0  0  0  0  0  0  0  0  0  0
  -27.2539  -14.1518   17.3670 C   0  0  0  0  0  0  0  0  0  0  0  0
  -25.8854  -34.5846   24.7038 C   0  0  0  0  0  0  0  0  0  0  0  0
  -26.8674  -12.9730   18.2598 C   0  0  0  0  0  0  0  0  0  0  0  0
  -29.0015  -19.2937   19.3881 C   0  0  0  0  0  0  0  0  0  0  0  0
  -31.4626  -18.7361   19.3824 C   0  0  0  0  0  0  0  0  0  0  0  0
  -27.4009  -15.4498   18.1632 C   0  0  0  0  0  0  0  0  0  0  0  0
  -28.7357  -18.0516   18.5325 C   0  0  0  0  0  0  0  0  0  0  0  0
  -31.1527  -17.5254   18.5065 C   0  0  0  0  0  0  0  0  0  0  0  0
  -27.9371  -14.1664   20.2087 C   0  0  0  0  0  0  0  0  0  0  0  0
  -26.6797  -34.2172   23.4446 C   0  0  1  0  0  0  0  0  0  0  0  0
  -24.5701  -31.8647   21.3355 C   0  0  1  0  0  0  0  0  0  0  0  0
  -27.8390  -12.8364   19.4456 C   0  0  1  0  0  0  0  0  0  0  0  0
  -30.4168  -19.8340   19.1707 C   0  0  0  0  0  0  0  0  0  0  0  0
  -17.9679  -27.8290   21.6916 C   0  0  0  0  0  0  0  0  0  0  0  0
  -22.7014  -30.6335   25.3793 C   0  0  0  0  0  0  0  0  0  0  0  0
  -20.7071  -29.1271   25.2318 C   0  0  0  0  0  0  0  0  0  0  0  0
  -20.4928  -31.5393   24.6334 C   0  0  0  0  0  0  0  0  0  0  0  0
  -20.2527  -28.1847   18.6701 C   0  0  0  0  0  0  0  0  0  0  0  0
  -28.8473  -26.1242   19.4355 C   0  0  0  0  0  0  0  0  0  1  0  0
  -21.7338  -29.9814   23.0761 C   0  0  1  0  0  0  0  0  0  0  0  0
  -19.0682  -28.4591   20.8520 C   0  0  2  0  0  0  0  0  0  0  0  0
  -21.4319  -30.3153   24.5643 C   0  0  0  0  0  0  0  0  0  0  0  0
  -30.0647  -24.4485   20.7001 N   0  0  0  0  0  0  0  0  0  0  0  0
  -29.4578  -22.4918   18.7848 N   0  0  0  0  0  0  0  0  0  0  0  0
  -26.1595  -11.3715   20.5015 N   0  0  0  0  0  0  0  0  0  0  0  0
  -27.4583  -11.6862   20.3589 N   0  0  0  0  0  0  0  0  0  0  0  0
  -23.7274  -30.7825   21.8482 N   0  0  0  0  0  0  0  0  0  0  0  0
  -28.3048  -15.2595   19.3061 N   0  0  0  0  0  0  0  0  0  0  0  0
  -29.7889  -17.0460   18.7334 N   0  0  0  0  0  0  0  0  0  0  0  0
  -29.6376  -11.0748   21.0571 N   0  0  0  0  0  0  0  0  0  0  0  0
  -26.9841   -8.1410   23.2360 N   0  0  0  0  0  0  0  0  0  0  0  0
  -30.6633  -20.9292   20.0826 N   0  0  0  0  0  0  0  0  0  0  0  0
  -25.8106  -33.6144   22.4568 N   0  0  0  0  0  0  0  0  0  0  0  0
  -20.5477  -29.7024   22.2738 N   0  0  0  0  0  0  0  0  0  0  0  0
  -19.2189  -27.6634   19.6009 N   0  3  0  0  0  0  0  0  0  0  0  0
  -29.1560   -8.8002   22.9094 O   0  0  0  0  0  0  0  0  0  0  0  0
  -25.8788  -31.4266   23.2513 O   0  0  0  0  0  0  0  0  0  0  0  0
  -21.9357  -32.2088   22.2859 O   0  0  0  0  0  0  0  0  0  0  0  0
  -21.1822  -27.5718   21.6142 O   0  0  0  0  0  0  0  0  0  0  0  0
  -30.4977  -15.2663   20.0159 O   0  0  0  0  0  0  0  0  0  0  0  0
  -21.4266   -7.8833   22.9470 O   0  0  0  0  0  0  0  0  0  0  0  0
  -27.7617  -26.3599   20.3251 O   0  0  0  0  0  0  0  0  0  1  0  0
  -21.2844   -2.3713   22.9870 F   0  0  0  0  0  0  0  0  0  0  0  0
  -19.6112   -6.5000   21.3871 F   0  0  0  0  0  0  0  0  0  0  0  0
  1  2  1  0  0  0  0
  1  5  2  0  0  0  0
  2  6  2  0  0  0  0
  3  8  2  0  0  0  0
  3 17  1  0  0  0  0
  4  9  1  0  0  0  0
  4 17  2  0  0  0  0
  5 19  1  0  0  0  0
  6 21  1  0  0  0  0
  7 10  2  0  0  0  0
  7 20  1  0  0  0  0
  8 23  1  0  0  0  0
  9 23  2  0  0  0  0
 10 24  1  0  0  0  0
 11 12  2  0  0  0  0
 11 25  1  0  0  0  0
 12 26  1  0  0  0  0
 13 22  1  0  0  0  0
 13 24  2  0  0  0  0
 14 26  2  0  0  0  0
 14 27  1  0  0  0  0
 15 29  1  0  0  0  0
 15 64  2  0  0  0  0
 16 30  2  0  0  0  0
 16 63  1  0  0  0  0
 17 28  1  0  0  0  0
 18 28  1  0  0  0  0
 18 31  2  0  0  0  0
 18 32  1  0  0  0  0
 19 21  2  0  0  0  0
 19 37  1  0  0  0  0
 20 22  2  0  0  0  0
 20 38  1  0  0  0  0
 21 50  1  0  0  0  0
 22 39  1  0  0  0  0
 23 81  1  0  0  0  0
 24 82  1  0  0  0  0
 25 27  2  0  0  0  0
 25 81  1  0  0  0  0
 26 83  1  0  0  0  0
 27 84  1  0  0  0  0
 28 65  2  0  0  0  0
 29 59  1  0  0  0  0
 29 63  2  0  0  0  0
 30 64  1  0  0  0  0
 30 72  1  0  0  0  0
 31 66  1  0  0  0  0
 31 70  1  0  0  0  0
 32 71  1  0  0  0  0
 32 76  2  0  0  0  0
 33 51  1  0  0  0  0
 33 73  1  0  0  0  0
 33 77  2  0  0  0  0
 34 60  1  0  0  0  0
 34 67  1  0  0  0  0
 34 78  2  0  0  0  0
 35 61  1  0  0  0  0
 35 74  1  0  0  0  0
 35 79  2  0  0  0  0
 36 68  1  0  0  0  0
 36 69  1  0  0  0  0
 36 80  2  0  0  0  0
 37 40  1  0  0  0  0
 38 51  1  0  0  0  0
 39 67  1  0  0  0  0
 40 42  1  0  0  0  0
 41 43  1  0  0  0  0
 41 46  1  0  0  0  0
 42 50  1  0  0  0  0
 43 52  1  0  0  0  0
 44 47  1  0  0  0  0
 44 53  1  0  0  0  0
 45 48  1  0  0  0  0
 45 53  1  0  0  0  0
 46 68  1  0  0  0  0
 47 69  1  0  0  0  0
 48 69  1  0  0  0  0
 49 52  1  0  0  0  0
 49 68  1  0  0  0  0
 50 73  1  0  0  0  0
 51 67  1  0  0  0  0
 52 66  1  0  0  0  0
 53 72  1  0  0  0  0
 54 61  1  0  0  0  0
 55 62  1  0  0  0  0
 56 62  1  0  0  0  0
 57 62  1  0  0  0  0
 58 75  1  0  0  0  0
 59 82  1  0  0  0  0
 60 62  1  0  0  0  0
 60 74  1  0  0  0  0
 61 75  1  0  0  0  0
 65 66  1  0  0  0  0
M  CHG  1  75   1
M  ISO  4  36 100  59 101  69 100  82 101
M  END
> <Batch ID>
0187

> <Smiles>
CNC(C)C(=O)NC(C(=O)N1Cc2cc([101O:1][101CH2:1]c3cnc(NC4CC[100N:0]([100C:0](=O)N5CCCC(n6nc(-c7ccc(Oc8ccc(F)cc8F)cc7)c(C(N)=O)c6N)C5)CC4)cn3)ccc2CC1C(=O)NC1CCCc2ccccc21)C(C)(C)C

> <Shape>
0.317

> <Color>
0.095

> <Negative vol penalty>
0.000

$$$$

  -OEChem-04052323173D

 78 86  0     1  0  0  0  0  0999 V2000
  -21.6655  -29.9408   24.0654 C   0  0  0  0  0  0  0  0  0  0  0  0
  -21.2784  -28.6045   24.0673 C   0  0  0  0  0  0  0  0  0  0  0  0
  -22.7334  -10.4940   21.8161 C   0  0  0  0  0  0  0  0  0  0  0  0
  -24.2018   -9.4176   20.2281 C   0  0  0  0  0  0  0  0  0  0  0  0
  -22.1912  -30.5114   22.9070 C   0  0  0  0  0  0  0  0  0  0  0  0
  -21.4158  -27.8383   22.9104 C   0  0  0  0  0  0  0  0  0  0  0  0
  -25.2224  -21.1091   21.7906 C   0  0  0  0  0  0  0  0  0  0  0  0
  -21.9739   -9.3275   21.9047 C   0  0  0  0  0  0  0  0  0  0  0  0
  -23.4423   -8.2510   20.3166 C   0  0  0  0  0  0  0  0  0  0  0  0
  -25.9911  -20.0017   21.4315 C   0  0  0  0  0  0  0  0  0  0  0  0
  -20.5184   -7.0823   19.0854 C   0  0  0  0  0  0  0  0  0  0  0  0
  -20.1901   -6.4310   17.8965 C   0  0  0  0  0  0  0  0  0  0  0  0
  -26.1286  -20.8202   19.1602 C   0  0  0  0  0  0  0  0  0  0  0  0
  -21.3510   -4.4541   18.6589 C   0  0  0  0  0  0  0  0  0  0  0  0
  -23.8473  -10.5391   20.9778 C   0  0  0  0  0  0  0  0  0  0  0  0
  -24.1922  -13.0152   20.4699 C   0  0  0  0  0  0  0  0  0  0  0  0
  -22.3441  -29.7492   21.7381 C   0  0  0  0  0  0  0  0  0  0  0  0
  -24.9165  -22.0852   20.8383 C   0  0  0  0  0  0  0  0  0  0  0  0
  -21.9428  -28.3997   21.7348 C   0  0  0  0  0  0  0  0  0  0  0  0
  -25.3695  -21.9379   19.5169 C   0  0  0  0  0  0  0  0  0  0  0  0
  -22.3283   -8.2059   21.1549 C   0  0  0  0  0  0  0  0  0  0  0  0
  -26.4428  -19.8575   20.1195 C   0  0  0  0  0  0  0  0  0  0  0  0
  -21.2631   -6.4196   20.0611 C   0  0  0  0  0  0  0  0  0  0  0  0
  -20.6063   -5.1169   17.6832 C   0  0  0  0  0  0  0  0  0  0  0  0
  -21.6793   -5.1055   19.8478 C   0  0  0  0  0  0  0  0  0  0  0  0
  -24.6320  -11.7441   20.8855 C   0  0  0  0  0  0  0  0  0  0  0  0
  -25.3082  -13.8108   20.5592 C   0  0  0  0  0  0  0  0  0  0  0  0
  -29.4384  -16.2943   18.8759 C   0  0  0  0  0  0  0  0  0  0  0  0
  -28.6723  -16.9961   17.7894 C   0  0  0  0  0  0  0  0  0  0  0  0
  -22.8911  -13.4388   20.0415 C   0  0  0  0  0  0  0  0  0  0  0  0
  -23.2171  -25.3456   20.0912 C   0  0  0  0  0  0  0  0  0  0  0  0
  -25.8913  -25.3697   18.5884 C   0  0  0  0  0  0  0  0  0  0  0  0
  -28.8069  -26.2281   17.0393 C   0  0  0  0  0  0  0  0  0  0  0  0
  -30.7634  -14.5616   19.5827 C   0  0  0  0  0  0  0  0  0  0  0  0
  -22.8732  -30.4225   20.4965 C   0  0  0  0  0  0  0  0  0  0  0  0
  -24.0398  -23.2634   21.1656 C   0  0  0  0  0  0  0  0  0  0  0  0
  -24.9869  -22.9954   18.5178 C   0  0  0  0  0  0  0  0  0  0  0  0
  -29.4056  -16.8858   20.2547 C   0  0  0  0  0  0  0  0  0  0  0  0
  -28.6226  -18.5014   17.8455 C   0  0  0  0  0  0  0  0  0  0  0  0
  -23.3344  -29.4419   19.4214 C   0  0  0  0  0  0  0  0  0  0  0  0
  -29.5383  -18.4022   20.2005 C   0  0  0  0  0  0  0  0  0  0  0  0
  -29.8129  -12.9568   22.6761 C   0  0  0  0  0  0  0  0  0  0  0  0
  -22.2966  -28.3420   19.2214 C   0  0  0  0  0  0  0  0  0  0  0  0
  -28.3542  -12.5706   22.4335 C   0  0  0  0  0  0  0  0  0  0  0  0
  -30.6385  -12.8551   21.3975 C   0  0  0  0  0  0  0  0  0  0  0  0
  -28.6230  -13.2674   20.0119 C   0  0  0  0  0  0  0  0  0  0  0  0
  -22.0993  -27.5293   20.5068 C   0  0  1  0  0  0  0  0  0  0  0  0
  -24.4439  -24.5439   20.4131 C   0  0  1  0  0  0  0  0  0  0  0  0
  -27.7524  -13.3852   21.2748 C   0  0  1  0  0  0  0  0  0  0  0  0
  -28.5045  -19.0324   19.2704 C   0  0  2  0  0  0  0  0  0  1  0  0
  -29.7119  -27.7039   15.2225 C   0  0  0  0  0  0  0  0  0  0  0  0
  -24.7962  -23.4487   16.4874 C   0  0  0  0  0  0  0  0  0  0  0  0
  -26.4643  -24.3797   14.8692 C   0  0  0  0  0  0  0  0  0  0  0  0
  -24.7094  -25.8629   15.8404 C   0  0  0  0  0  0  0  0  0  0  0  0
  -30.5297  -27.7060   18.9384 C   0  0  0  0  0  0  0  0  0  0  0  0
  -26.6211  -25.0843   17.3002 C   0  0  1  0  0  0  0  0  0  0  0  0
  -29.4118  -27.5805   16.7083 C   0  0  2  0  0  0  0  0  0  0  0  0
  -25.6562  -24.6827   16.1490 C   0  0  0  0  0  0  0  0  0  0  0  0
  -25.9265  -11.7284   21.2142 N   0  0  0  0  0  0  0  0  0  0  0  0
  -30.0599  -15.2046   18.5814 N   0  0  0  0  0  0  0  0  0  0  0  0
  -26.3097  -12.9994   21.0052 N   0  0  0  0  0  0  0  0  0  0  0  0
  -25.1208  -24.3299   19.1227 N   0  0  0  0  0  0  0  0  0  0  0  0
  -30.0199  -13.6121   20.3081 N   0  0  0  0  0  0  0  0  0  0  0  0
  -25.5207  -15.1183   20.2989 N   0  0  0  0  0  0  0  0  0  0  0  0
  -22.5771  -13.3568   18.6780 N   0  0  0  0  0  0  0  0  0  0  0  0
  -23.1884  -26.5930   20.6849 N   0  0  0  0  0  0  0  0  0  0  0  0
  -27.4288  -26.2660   17.0181 N   0  0  0  0  0  0  0  0  0  0  0  0
  -30.6819  -27.7784   17.4623 N   0  3  0  0  0  0  0  0  0  0  0  0
  -28.2061  -16.3260   16.8793 O   0  0  0  0  0  0  0  0  0  0  0  0
  -22.0383  -13.8925   20.8417 O   0  0  0  0  0  0  0  0  0  0  0  0
  -22.3595  -24.8692   19.3568 O   0  0  0  0  0  0  0  0  0  0  0  0
  -25.9953  -26.4853   19.1061 O   0  0  0  0  0  0  0  0  0  0  0  0
  -29.4889  -25.2362   17.2878 O   0  0  0  0  0  0  0  0  0  0  0  0
  -31.9492  -14.7833   19.8403 O   0  0  0  0  0  0  0  0  0  0  0  0
  -21.5876   -7.0673   21.2412 O   0  0  0  0  0  0  0  0  0  0  0  0
  -27.1966  -18.7762   19.7768 O   0  0  0  0  0  0  0  0  0  1  0  0
  -20.2896   -4.4911   16.5421 F   0  0  0  0  0  0  0  0  0  0  0  0
  -22.3940   -4.4632   20.7819 F   0  0  0  0  0  0  0  0  0  0  0  0
  1  2  1  0  0  0  0
  1  5  2  0  0  0  0
  2  6  2  0  0  0  0
  3  8  2  0  0  0  0
  3 15  1  0  0  0  0
  4  9  1  0  0  0  0
  4 15  2  0  0  0  0
  5 17  1  0  0  0  0
  6 19  1  0  0  0  0
  7 10  2  0  0  0  0
  7 18  1  0  0  0  0
  8 21  1  0  0  0  0
  9 21  2  0  0  0  0
 10 22  1  0  0  0  0
 11 12  2  0  0  0  0
 11 23  1  0  0  0  0
 12 24  1  0  0  0  0
 13 20  1  0  0  0  0
 13 22  2  0  0  0  0
 14 24  2  0  0  0  0
 14 25  1  0  0  0  0
 15 26  1  0  0  0  0
 16 26  1  0  0  0  0
 16 27  2  0  0  0  0
 16 30  1  0  0  0  0
 17 19  2  0  0  0  0
 17 35  1  0  0  0  0
 18 20  2  0  0  0  0
 18 36  1  0  0  0  0
 19 47  1  0  0  0  0
 20 37  1  0  0  0  0
 21 75  1  0  0  0  0
 22 76  1  0  0  0  0
 23 25  2  0  0  0  0
 23 75  1  0  0  0  0
 24 77  1  0  0  0  0
 25 78  1  0  0  0  0
 26 59  2  0  0  0  0
 27 61  1  0  0  0  0
 27 64  1  0  0  0  0
 28 29  1  0  0  0  0
 28 38  1  0  0  0  0
 28 60  2  0  0  0  0
 29 39  1  0  0  0  0
 29 69  2  0  0  0  0
 30 65  1  0  0  0  0
 30 70  2  0  0  0  0
 31 48  1  0  0  0  0
 31 66  1  0  0  0  0
 31 71  2  0  0  0  0
 32 56  1  0  0  0  0
 32 62  1  0  0  0  0
 32 72  2  0  0  0  0
 33 57  1  0  0  0  0
 33 67  1  0  0  0  0
 33 73  2  0  0  0  0
 34 60  1  0  0  0  0
 34 63  1  0  0  0  0
 34 74  2  0  0  0  0
 35 40  1  0  0  0  0
 36 48  1  0  0  0  0
 37 62  1  0  0  0  0
 38 41  1  0  0  0  0
 39 50  1  0  0  0  0
 40 43  1  0  0  0  0
 41 50  1  0  0  0  0
 42 44  1  0  0  0  0
 42 45  1  0  0  0  0
 43 47  1  0  0  0  0
 44 49  1  0  0  0  0
 45 63  1  0  0  0  0
 46 49  1  0  0  0  0
 46 63  1  0  0  0  0
 47 66  1  0  0  0  0
 48 62  1  0  0  0  0
 49 61  1  0  0  0  0
 50 76  1  0  0  0  0
 51 57  1  0  0  0  0
 52 58  1  0  0  0  0
 53 58  1  0  0  0  0
 54 58  1  0  0  0  0
 55 68  1  0  0  0  0
 56 58  1  0  0  0  0
 56 67  1  0  0  0  0
 57 68  1  0  0  0  0
 59 61  1  0  0  0  0
M  CHG  1  68   1
M  ISO  4  34 100  50 101  60 100  76 101
M  END
> <Batch ID>
0187

> <Smiles>
CNC(C)C(=O)NC(C(=O)N1Cc2cc([101O:1][101CH:1]3C=CC([100NH:0][100C:0](=O)N4CCCC(n5nc(-c6ccc(Oc7ccc(F)cc7F)cc6)c(C(N)=O)c5N)C4)C(=O)C3)ccc2CC1C(=O)NC1CCCc2ccccc21)C(C)(C)C

> <Shape>
0.215

> <Color>
0.142

> <Negative vol penalty>
0.000

$$$$

  -OEChem-04052323173D

 84 93  0     1  0  0  0  0  0999 V2000
  -17.6096  -26.0613   22.6258 C   0  0  0  0  0  0  0  0  0  0  0  0
  -18.7390  -25.7829   21.8626 C   0  0  0  0  0  0  0  0  0  0  0  0
  -24.4111   -9.3527   20.8760 C   0  0  0  0  0  0  0  0  0  0  0  0
  -22.2810  -10.2970   20.2371 C   0  0  0  0  0  0  0  0  0  0  0  0
  -17.3896  -27.3548   23.0971 C   0  0  0  0  0  0  0  0  0  0  0  0
  -19.6486  -26.7984   21.5695 C   0  0  0  0  0  0  0  0  0  0  0  0
  -24.4572  -25.3408   22.1998 C   0  0  0  0  0  0  0  0  0  0  0  0
  -23.7597   -8.2327   21.3926 C   0  0  0  0  0  0  0  0  0  0  0  0
  -21.6296   -9.1770   20.7536 C   0  0  0  0  0  0  0  0  0  0  0  0
  -25.0214  -24.5554   21.1955 C   0  0  0  0  0  0  0  0  0  0  0  0
  -22.0513   -7.4161   24.1924 C   0  0  0  0  0  0  0  0  0  0  0  0
  -22.4595   -6.9486   25.4415 C   0  0  0  0  0  0  0  0  0  0  0  0
  -26.1186  -26.5059   20.2949 C   0  0  0  0  0  0  0  0  0  0  0  0
  -23.0409   -4.8210   24.4553 C   0  0  0  0  0  0  0  0  0  0  0  0
  -29.7598  -21.1158   17.8724 C   0  0  0  0  0  0  0  0  0  0  0  0
  -23.6718  -10.3849   20.2984 C   0  0  0  0  0  0  0  0  0  0  0  0
  -24.8170  -11.7206   18.4512 C   0  0  0  0  0  0  0  0  0  0  0  0
  -18.3019  -28.3845   22.8177 C   0  0  0  0  0  0  0  0  0  0  0  0
  -24.7113  -26.7189   22.2529 C   0  0  0  0  0  0  0  0  0  0  0  0
  -19.4399  -28.1073   22.0364 C   0  0  0  0  0  0  0  0  0  0  0  0
  -25.5586  -27.3061   21.3024 C   0  0  0  0  0  0  0  0  0  0  0  0
  -22.3689   -8.1448   21.3313 C   0  0  0  0  0  0  0  0  0  0  0  0
  -25.8499  -25.1384   20.2411 C   0  0  0  0  0  0  0  0  0  0  0  0
  -22.1378   -6.5860   23.0747 C   0  0  0  0  0  0  0  0  0  0  0  0
  -22.9543   -5.6511   25.5730 C   0  0  0  0  0  0  0  0  0  0  0  0
  -22.6327   -5.2886   23.2061 C   0  0  0  0  0  0  0  0  0  0  0  0
  -24.3441  -11.5424   19.7651 C   0  0  0  0  0  0  0  0  0  0  0  0
  -30.4045  -19.9020   17.7480 C   0  0  0  0  0  0  0  0  0  0  0  0
  -29.3000  -21.4208   19.1372 C   0  0  0  0  0  0  0  0  0  0  0  0
  -25.3722  -12.9769   18.4536 C   0  0  0  0  0  0  0  0  0  0  0  0
  -30.0976  -19.4559   19.9557 C   0  0  0  0  0  0  0  0  0  0  0  0
  -24.7594  -10.8303   17.3289 C   0  0  0  0  0  0  0  0  0  0  0  0
  -22.9236  -29.3390   22.0456 C   0  0  0  0  0  0  0  0  0  0  0  0
  -25.7085  -30.8269   22.7888 C   0  0  0  0  0  0  0  0  0  0  0  0
  -29.1203  -30.7480   22.8076 C   0  0  0  0  0  0  0  0  0  0  0  0
  -28.7029  -16.6461   20.8609 C   0  0  0  0  0  0  0  0  0  0  0  0
  -17.9972  -29.7775   23.3092 C   0  0  0  0  0  0  0  0  0  0  0  0
  -24.1166  -27.5475   23.3584 C   0  0  0  0  0  0  0  0  0  0  0  0
  -25.8791  -28.7775   21.3273 C   0  0  0  0  0  0  0  0  0  0  0  0
  -19.2018  -30.7144   23.2697 C   0  0  0  0  0  0  0  0  0  0  0  0
  -25.1527  -16.6814   21.8649 C   0  0  0  0  0  0  0  0  0  0  0  0
  -19.9258  -30.5970   21.9322 C   0  0  0  0  0  0  0  0  0  0  0  0
  -29.9926  -19.4600   15.2363 C   0  0  0  0  0  0  0  0  0  0  0  0
  -30.4996  -18.1800   15.8234 C   0  0  0  0  0  0  0  0  0  0  0  0
  -24.6857  -15.3273   21.3390 C   0  0  0  0  0  0  0  0  0  0  0  0
  -26.6050  -16.6427   22.3388 C   0  0  0  0  0  0  0  0  0  0  0  0
  -27.0855  -14.7749   20.7815 C   0  0  0  0  0  0  0  0  0  0  0  0
  -20.4624  -29.1765   21.7182 C   0  0  1  0  0  0  0  0  0  0  0  0
  -30.9319  -19.4968   16.4129 C   0  0  0  0  0  0  0  0  0  0  0  0
  -24.0310  -29.0311   23.0133 C   0  0  1  0  0  0  0  0  0  0  0  0
  -25.6424  -14.8069   20.2554 C   0  0  1  0  0  0  0  0  0  0  0  0
  -31.1191  -32.1258   23.4430 C   0  0  0  0  0  0  0  0  0  0  0  0
  -25.2993  -32.5591   20.3105 C   0  0  0  0  0  0  0  0  0  0  0  0
  -27.7094  -33.2203   20.4601 C   0  0  0  0  0  0  0  0  0  0  0  0
  -26.1438  -33.7910   22.3164 C   0  0  0  0  0  0  0  0  0  0  0  0
  -30.0438  -28.7204   24.7556 C   0  0  0  0  0  0  0  0  0  0  0  0
  -30.2853  -18.5341   21.1126 C   0  0  0  0  0  0  0  0  0  0  0  0
  -28.4265  -23.5763   18.2337 C   0  0  0  0  0  0  0  0  0  0  0  0
  -27.6677  -24.7881   18.7482 C   0  0  0  0  0  0  0  0  0  1  0  0
  -26.8648  -31.3888   21.9974 C   0  0  1  0  0  0  0  0  0  0  0  0
  -30.1292  -31.0643   23.8969 C   0  0  2  0  0  0  0  0  0  0  0  0
  -26.4969  -32.7124   21.2692 C   0  0  0  0  0  0  0  0  0  0  0  0
  -24.5786  -12.6007   20.5456 N   0  0  0  0  0  0  0  0  0  0  0  0
  -30.5916  -19.0443   18.7725 N   0  0  0  0  0  0  0  0  0  0  0  0
  -29.4520  -20.6110   20.2056 N   0  0  0  0  0  0  0  0  0  0  0  0
  -25.2050  -13.4559   19.7196 N   0  0  0  0  0  0  0  0  0  0  0  0
  -25.2685  -29.5466   22.4242 N   0  0  0  0  0  0  0  0  0  0  0  0
  -27.4951  -16.0819   21.3101 N   0  0  0  0  0  0  0  0  0  0  0  0
  -25.9824  -13.7074   17.4963 N   0  0  0  0  0  0  0  0  0  0  0  0
  -24.1538   -9.5780   17.4999 N   0  0  0  0  0  0  0  0  0  0  0  0
  -28.6470  -22.6308   19.3039 N   0  0  0  0  0  0  0  0  0  0  0  0
  -21.6685  -28.9701   22.4909 N   0  0  0  0  0  0  0  0  0  0  0  0
  -27.9783  -31.5106   22.9321 N   0  0  0  0  0  0  0  0  0  0  0  0
  -29.0735  -17.8428   21.4637 N   0  0  0  0  0  0  0  0  0  0  0  0
  -30.8915  -29.8389   24.2685 N   0  3  0  0  0  0  0  0  0  0  0  0
  -25.2457  -11.1297   16.2120 O   0  0  0  0  0  0  0  0  0  0  0  0
  -23.1880  -29.8730   20.9748 O   0  0  0  0  0  0  0  0  0  0  0  0
  -25.2186  -31.4963   23.7018 O   0  0  0  0  0  0  0  0  0  0  0  0
  -29.3263  -29.9109   21.9316 O   0  0  0  0  0  0  0  0  0  0  0  0
  -29.4047  -16.1202   19.9900 O   0  0  0  0  0  0  0  0  0  0  0  0
  -21.7329   -7.0519   21.8350 O   0  0  0  0  0  0  0  0  0  0  0  0
  -26.4013  -24.3742   19.2594 O   0  0  0  0  0  0  0  0  0  1  0  0
  -23.3477   -5.2028   26.7724 F   0  0  0  0  0  0  0  0  0  0  0  0
  -22.7193   -4.4869   22.1357 F   0  0  0  0  0  0  0  0  0  0  0  0
  1  2  1  0  0  0  0
  1  5  2  0  0  0  0
  2  6  2  0  0  0  0
  3  8  2  0  0  0  0
  3 16  1  0  0  0  0
  4  9  1  0  0  0  0
  4 16  2  0  0  0  0
  5 18  1  0  0  0  0
  6 20  1  0  0  0  0
  7 10  2  0  0  0  0
  7 19  1  0  0  0  0
  8 22  1  0  0  0  0
  9 22  2  0  0  0  0
 10 23  1  0  0  0  0
 11 12  2  0  0  0  0
 11 24  1  0  0  0  0
 12 25  1  0  0  0  0
 13 21  1  0  0  0  0
 13 23  2  0  0  0  0
 14 25  2  0  0  0  0
 14 26  1  0  0  0  0
 15 28  2  0  0  0  0
 15 29  1  0  0  0  0
 16 27  1  0  0  0  0
 17 27  1  0  0  0  0
 17 30  2  0  0  0  0
 17 32  1  0  0  0  0
 18 20  2  0  0  0  0
 18 37  1  0  0  0  0
 19 21  2  0  0  0  0
 19 38  1  0  0  0  0
 20 48  1  0  0  0  0
 21 39  1  0  0  0  0
 22 81  1  0  0  0  0
 23 82  1  0  0  0  0
 24 26  2  0  0  0  0
 24 81  1  0  0  0  0
 25 83  1  0  0  0  0
 26 84  1  0  0  0  0
 27 63  2  0  0  0  0
 28 49  1  0  0  0  0
 28 64  1  0  0  0  0
 29 65  2  0  0  0  0
 29 71  1  0  0  0  0
 30 66  1  0  0  0  0
 30 69  1  0  0  0  0
 31 57  1  0  0  0  0
 31 64  2  0  0  0  0
 31 65  1  0  0  0  0
 32 70  1  0  0  0  0
 32 76  2  0  0  0  0
 33 50  1  0  0  0  0
 33 72  1  0  0  0  0
 33 77  2  0  0  0  0
 34 60  1  0  0  0  0
 34 67  1  0  0  0  0
 34 78  2  0  0  0  0
 35 61  1  0  0  0  0
 35 73  1  0  0  0  0
 35 79  2  0  0  0  0
 36 68  1  0  0  0  0
 36 74  1  0  0  0  0
 36 80  2  0  0  0  0
 37 40  1  0  0  0  0
 38 50  1  0  0  0  0
 39 67  1  0  0  0  0
 40 42  1  0  0  0  0
 41 45  1  0  0  0  0
 41 46  1  0  0  0  0
 42 48  1  0  0  0  0
 43 44  1  0  0  0  0
 43 49  1  0  0  0  0
 44 49  1  0  0  0  0
 45 51  1  0  0  0  0
 46 68  1  0  0  0  0
 47 51  1  0  0  0  0
 47 68  1  0  0  0  0
 48 72  1  0  0  0  0
 50 67  1  0  0  0  0
 51 66  1  0  0  0  0
 52 61  1  0  0  0  0
 53 62  1  0  0  0  0
 54 62  1  0  0  0  0
 55 62  1  0  0  0  0
 56 75  1  0  0  0  0
 57 74  1  0  0  0  0
 58 59  1  0  0  0  0
 58 71  1  0  0  0  0
 59 82  1  0  0  0  0
 60 62  1  0  0  0  0
 60 73  1  0  0  0  0
 61 75  1  0  0  0  0
 63 66  1  0  0  0  0
M  CHG  1  75   1
M  ISO  4  36 100  59 101  74 100  82 101
M  END
> <Batch ID>
0187

> <Smiles>
CNC(C)C(=O)NC(C(=O)N1Cc2cc([101O:1][101CH2:1]CNc3cc(C4CC4)nc(C[100NH:0][100C:0](=O)N4CCCC(n5nc(-c6ccc(Oc7ccc(F)cc7F)cc6)c(C(N)=O)c5N)C4)n3)ccc2CC1C(=O)NC1CCCc2ccccc21)C(C)(C)C

> <Shape>
0.276

> <Color>
0.081

> <Negative vol penalty>
0.000

$$$$

  -OEChem-04052323173D

 81 90  0     1  0  0  0  0  0999 V2000
  -15.3940  -29.2735   11.5522 C   0  0  0  0  0  0  0  0  0  0  0  0
  -15.7357  -27.9611   11.8627 C   0  0  0  0  0  0  0  0  0  0  0  0
  -23.2876   -9.7961   19.9067 C   0  0  0  0  0  0  0  0  0  0  0  0
  -23.7158   -9.9356   22.2803 C   0  0  0  0  0  0  0  0  0  0  0  0
  -16.3755  -30.2637   11.5394 C   0  0  0  0  0  0  0  0  0  0  0  0
  -17.0592  -27.6380   12.1596 C   0  0  0  0  0  0  0  0  0  0  0  0
  -20.9460  -23.1974   16.2204 C   0  0  0  0  0  0  0  0  0  0  0  0
  -22.5540   -8.6269   20.1077 C   0  0  0  0  0  0  0  0  0  0  0  0
  -22.9822   -8.7664   22.4814 C   0  0  0  0  0  0  0  0  0  0  0  0
  -21.9864  -22.2752   16.1162 C   0  0  0  0  0  0  0  0  0  0  0  0
  -19.7292   -7.8698   22.6674 C   0  0  0  0  0  0  0  0  0  0  0  0
  -18.8165   -7.8526   23.7220 C   0  0  0  0  0  0  0  0  0  0  0  0
  -23.5833  -24.0830   16.1408 C   0  0  0  0  0  0  0  0  0  0  0  0
  -20.0043   -6.0004   24.7198 C   0  0  0  0  0  0  0  0  0  0  0  0
  -26.1449  -19.4866   14.7142 C   0  0  0  0  0  0  0  0  0  0  0  0
  -23.8685  -10.4504   20.9930 C   0  0  0  0  0  0  0  0  0  0  0  0
  -24.1411  -12.9792   20.7960 C   0  0  0  0  0  0  0  0  0  0  0  0
  -17.7101  -29.9543   11.8457 C   0  0  0  0  0  0  0  0  0  0  0  0
  -21.2164  -24.5723   16.2748 C   0  0  0  0  0  0  0  0  0  0  0  0
  -18.0597  -28.6248   12.1495 C   0  0  0  0  0  0  0  0  0  0  0  0
  -22.5448  -25.0205   16.2483 C   0  0  0  0  0  0  0  0  0  0  0  0
  -25.2962  -19.6310   15.8281 C   0  0  0  0  0  0  0  0  0  0  0  0
  -22.4013   -8.1120   21.3951 C   0  0  0  0  0  0  0  0  0  0  0  0
  -23.3051  -22.7181   16.0734 C   0  0  0  0  0  0  0  0  0  0  0  0
  -20.7795   -6.9523   22.6390 C   0  0  0  0  0  0  0  0  0  0  0  0
  -18.9540   -6.9179   24.7482 C   0  0  0  0  0  0  0  0  0  0  0  0
  -20.9171   -6.0177   23.6652 C   0  0  0  0  0  0  0  0  0  0  0  0
  -24.6269  -11.6579   20.7858 C   0  0  0  0  0  0  0  0  0  0  0  0
  -25.9037  -18.9000   16.8196 C   0  0  0  0  0  0  0  0  0  0  0  0
  -25.2484  -13.7541   20.5515 C   0  0  0  0  0  0  0  0  0  0  0  0
  -22.8080  -13.4628   21.0076 C   0  0  0  0  0  0  0  0  0  0  0  0
  -20.5025  -27.0727   14.4466 C   0  0  0  0  0  0  0  0  0  0  0  0
  -21.8907  -28.7391   16.8588 C   0  0  0  0  0  0  0  0  0  0  0  0
  -24.0640  -28.7597   19.4900 C   0  0  0  0  0  0  0  0  0  0  0  0
  -29.8889  -14.7088   17.5683 C   0  0  0  0  0  0  0  0  0  0  0  0
  -18.7443  -31.0497   11.7727 C   0  0  0  0  0  0  0  0  0  0  0  0
  -20.0843  -25.5528   16.4141 C   0  0  0  0  0  0  0  0  0  0  0  0
  -22.8893  -26.4848   16.3239 C   0  0  0  0  0  0  0  0  0  0  0  0
  -20.0576  -30.6945   12.4651 C   0  0  0  0  0  0  0  0  0  0  0  0
  -30.1639  -12.5645   20.4602 C   0  0  0  0  0  0  0  0  0  0  0  0
  -20.5079  -29.2921   12.0683 C   0  0  0  0  0  0  0  0  0  0  0  0
  -28.7093  -12.2238   20.7898 C   0  0  0  0  0  0  0  0  0  0  0  0
  -30.3861  -12.7269   18.9573 C   0  0  0  0  0  0  0  0  0  0  0  0
  -28.0220  -13.3250   18.6271 C   0  0  0  0  0  0  0  0  0  0  0  0
  -29.2053  -16.7762   16.2357 C   0  0  0  0  0  0  0  0  0  0  0  0
  -27.6345  -16.0341   17.4493 C   0  0  0  0  0  0  0  0  0  0  0  0
  -19.4803  -28.2395   12.5013 C   0  0  1  0  0  0  0  0  0  0  0  0
  -20.4491  -26.9575   15.9438 C   0  0  1  0  0  0  0  0  0  0  0  0
  -27.7405  -13.2255   20.1336 C   0  0  1  0  0  0  0  0  0  0  0  0
  -28.0690  -17.4596   17.0306 C   0  0  0  0  0  0  0  0  0  0  0  0
  -25.5131  -18.6535   18.2211 C   0  0  0  0  0  0  0  0  0  0  0  0
  -25.0162  -30.2778   21.2467 C   0  0  0  0  0  0  0  0  0  0  0  0
  -23.6903  -30.0328   14.7619 C   0  0  0  0  0  0  0  0  0  0  0  0
  -25.1989  -30.7767   16.6164 C   0  0  0  0  0  0  0  0  0  0  0  0
  -22.8453  -31.5978   16.5201 C   0  0  0  0  0  0  0  0  0  0  0  0
  -22.9658  -27.1026   21.6824 C   0  0  0  0  0  0  0  0  0  0  0  0
  -24.0150  -20.4078   15.9077 C   0  0  0  0  0  0  0  0  0  1  0  0
  -23.2947  -29.1968   17.1724 C   0  0  1  0  0  0  0  0  0  0  0  0
  -23.9217  -29.2771   20.9100 C   0  0  2  0  0  0  0  0  0  0  0  0
  -23.7510  -30.3735   16.2643 C   0  0  0  0  0  0  0  0  0  0  0  0
  -27.2104  -18.7240   14.9732 N   0  0  0  0  0  0  0  0  0  0  0  0
  -25.9406  -11.5934   20.5531 N   0  0  0  0  0  0  0  0  0  0  0  0
  -27.0354  -18.3827   16.2612 N   0  0  0  0  0  0  0  0  0  0  0  0
  -26.2896  -12.8837   20.4147 N   0  0  0  0  0  0  0  0  0  0  0  0
  -21.7471  -27.4047   16.4531 N   0  0  0  0  0  0  0  0  0  0  0  0
  -29.4267  -13.6781   18.3906 N   0  0  0  0  0  0  0  0  0  0  0  0
  -28.9729  -15.6085   17.0771 N   0  0  0  0  0  0  0  0  0  0  0  0
  -25.4234  -15.0882   20.4422 N   0  0  0  0  0  0  0  0  0  0  0  0
  -21.7890  -12.5305   21.2456 N   0  0  0  0  0  0  0  0  0  0  0  0
  -19.5965  -27.9729   13.9190 N   0  0  0  0  0  0  0  0  0  0  0  0
  -23.3161  -29.5002   18.5992 N   0  0  0  0  0  0  0  0  0  0  0  0
  -24.0000  -28.1502   21.8822 N   0  3  0  0  0  0  0  0  0  0  0  0
  -22.5259  -14.6845   20.9701 O   0  0  0  0  0  0  0  0  0  0  0  0
  -21.3072  -26.3963   13.8169 O   0  0  0  0  0  0  0  0  0  0  0  0
  -20.9549  -29.5341   16.9767 O   0  0  0  0  0  0  0  0  0  0  0  0
  -24.7712  -27.7973   19.1994 O   0  0  0  0  0  0  0  0  0  0  0  0
  -31.0909  -14.8425   17.3033 O   0  0  0  0  0  0  0  0  0  0  0  0
  -21.6854   -6.9713   21.5917 O   0  0  0  0  0  0  0  0  0  0  0  0
  -24.3225  -21.8201   15.9710 O   0  0  0  0  0  0  0  0  0  1  0  0
  -18.0783   -6.9025   25.7616 F   0  0  0  0  0  0  0  0  0  0  0  0
  -21.9248   -5.1345   23.6439 F   0  0  0  0  0  0  0  0  0  0  0  0
  1  2  1  0  0  0  0
  1  5  2  0  0  0  0
  2  6  2  0  0  0  0
  3  8  2  0  0  0  0
  3 16  1  0  0  0  0
  4  9  1  0  0  0  0
  4 16  2  0  0  0  0
  5 18  1  0  0  0  0
  6 20  1  0  0  0  0
  7 10  2  0  0  0  0
  7 19  1  0  0  0  0
  8 23  1  0  0  0  0
  9 23  2  0  0  0  0
 10 24  1  0  0  0  0
 11 12  2  0  0  0  0
 11 25  1  0  0  0  0
 12 26  1  0  0  0  0
 13 21  1  0  0  0  0
 13 24  2  0  0  0  0
 14 26  2  0  0  0  0
 14 27  1  0  0  0  0
 15 22  1  0  0  0  0
 15 61  2  0  0  0  0
 16 28  1  0  0  0  0
 17 28  1  0  0  0  0
 17 30  2  0  0  0  0
 17 31  1  0  0  0  0
 18 20  2  0  0  0  0
 18 36  1  0  0  0  0
 19 21  2  0  0  0  0
 19 37  1  0  0  0  0
 20 47  1  0  0  0  0
 21 38  1  0  0  0  0
 22 29  2  0  0  0  0
 22 57  1  0  0  0  0
 23 78  1  0  0  0  0
 24 79  1  0  0  0  0
 25 27  2  0  0  0  0
 25 78  1  0  0  0  0
 26 80  1  0  0  0  0
 27 81  1  0  0  0  0
 28 62  2  0  0  0  0
 29 51  1  0  0  0  0
 29 63  1  0  0  0  0
 30 64  1  0  0  0  0
 30 68  1  0  0  0  0
 31 69  1  0  0  0  0
 31 73  2  0  0  0  0
 32 48  1  0  0  0  0
 32 70  1  0  0  0  0
 32 74  2  0  0  0  0
 33 58  1  0  0  0  0
 33 65  1  0  0  0  0
 33 75  2  0  0  0  0
 34 59  1  0  0  0  0
 34 71  1  0  0  0  0
 34 76  2  0  0  0  0
 35 66  1  0  0  0  0
 35 67  1  0  0  0  0
 35 77  2  0  0  0  0
 36 39  1  0  0  0  0
 37 48  1  0  0  0  0
 38 65  1  0  0  0  0
 39 41  1  0  0  0  0
 40 42  1  0  0  0  0
 40 43  1  0  0  0  0
 41 47  1  0  0  0  0
 42 49  1  0  0  0  0
 43 66  1  0  0  0  0
 44 49  1  0  0  0  0
 44 66  1  0  0  0  0
 45 50  1  0  0  0  0
 45 67  1  0  0  0  0
 46 50  1  0  0  0  0
 46 67  1  0  0  0  0
 47 70  1  0  0  0  0
 48 65  1  0  0  0  0
 49 64  1  0  0  0  0
 50 63  1  0  0  0  0
 52 59  1  0  0  0  0
 53 60  1  0  0  0  0
 54 60  1  0  0  0  0
 55 60  1  0  0  0  0
 56 72  1  0  0  0  0
 57 79  1  0  0  0  0
 58 60  1  0  0  0  0
 58 71  1  0  0  0  0
 59 72  1  0  0  0  0
 61 63  1  0  0  0  0
 62 64  1  0  0  0  0
M  CHG  1  72   1
M  ISO  4  35 100  57 101  67 100  79 101
M  END
> <Batch ID>
0187

> <Smiles>
CNC(C)C(=O)NC(C(=O)N1Cc2cc([101O:1][101CH2:1]c3cnn(C4C[100N:0]([100C:0](=O)N5CCCC(n6nc(-c7ccc(Oc8ccc(F)cc8F)cc7)c(C(N)=O)c6N)C5)C4)c3C)ccc2CC1C(=O)NC1CCCc2ccccc21)C(C)(C)C

> <Shape>
0.166

> <Color>
0.177

> <Negative vol penalty>
0.000

$$$$

  -OEChem-04052323173D

 88 97  0     1  0  0  0  0  0999 V2000
  -20.5840  -36.6616   18.4636 C   0  0  0  0  0  0  0  0  0  0  0  0
  -21.0021  -35.4817   17.8566 C   0  0  0  0  0  0  0  0  0  0  0  0
  -27.9146  -12.4564   19.0758 C   0  0  0  0  0  0  0  0  0  0  0  0
  -28.3438  -12.8516   21.4203 C   0  0  0  0  0  0  0  0  0  0  0  0
  -21.3087  -37.1898   19.5312 C   0  0  0  0  0  0  0  0  0  0  0  0
  -22.1459  -34.8299   18.3162 C   0  0  0  0  0  0  0  0  0  0  0  0
  -24.8888  -28.2601   19.1105 C   0  0  0  0  0  0  0  0  0  0  0  0
  -29.2660  -12.1752   18.8758 C   0  0  0  0  0  0  0  0  0  0  0  0
  -29.6953  -12.5703   21.2203 C   0  0  0  0  0  0  0  0  0  0  0  0
  -26.0323  -27.5256   18.7999 C   0  0  0  0  0  0  0  0  0  0  0  0
  -32.5401  -11.0013   17.8186 C   0  0  0  0  0  0  0  0  0  0  0  0
  -32.8629   -9.8853   17.0466 C   0  0  0  0  0  0  0  0  0  0  0  0
  -27.1602  -28.4884   20.7025 C   0  0  0  0  0  0  0  0  0  0  0  0
  -31.6966   -8.4638   18.6138 C   0  0  0  0  0  0  0  0  0  0  0  0
  -27.4535  -12.7947   20.3481 C   0  0  0  0  0  0  0  0  0  0  0  0
  -25.0404  -12.1740   20.8954 C   0  0  0  0  0  0  0  0  0  0  0  0
  -22.4565  -36.5390   20.0104 C   0  0  0  0  0  0  0  0  0  0  0  0
  -24.8759  -29.1240   20.2150 C   0  0  0  0  0  0  0  0  0  0  0  0
  -22.8874  -35.3506   19.3904 C   0  0  0  0  0  0  0  0  0  0  0  0
  -26.0144  -29.2308   21.0265 C   0  0  0  0  0  0  0  0  0  0  0  0
  -30.1564  -12.2321   19.9480 C   0  0  0  0  0  0  0  0  0  0  0  0
  -27.1693  -27.6418   19.5942 C   0  0  0  0  0  0  0  0  0  0  0  0
  -31.7956  -10.8485   18.9882 C   0  0  0  0  0  0  0  0  0  0  0  0
  -32.4411   -8.6166   17.4441 C   0  0  0  0  0  0  0  0  0  0  0  0
  -31.3738   -9.5798   19.3858 C   0  0  0  0  0  0  0  0  0  0  0  0
  -26.0576  -13.0858   20.5553 C   0  0  0  0  0  0  0  0  0  0  0  0
  -23.9040  -12.9414   20.9750 C   0  0  0  0  0  0  0  0  0  0  0  0
  -28.1723  -21.9498   18.8590 C   0  0  0  0  0  0  0  0  0  0  0  0
  -27.8852  -21.4699   17.6402 C   0  0  0  0  0  0  0  0  0  0  0  0
  -25.1159  -10.7599   21.1195 C   0  0  0  0  0  0  0  0  0  0  0  0
  -24.4948  -32.2549   20.6095 C   0  0  0  0  0  0  0  0  0  0  0  0
  -24.5448  -31.4703   23.7565 C   0  0  0  0  0  0  0  0  0  0  0  0
  -25.5081  -29.2671   26.1782 C   0  0  0  0  0  0  0  0  0  0  0  0
  -26.1725  -17.5023   19.4758 C   0  0  0  0  0  0  0  0  0  0  0  0
  -23.2339  -37.1733   21.1364 C   0  0  0  0  0  0  0  0  0  0  0  0
  -23.6256  -29.8891   20.5521 C   0  0  0  0  0  0  0  0  0  0  0  0
  -26.0452  -30.1290   22.2351 C   0  0  0  0  0  0  0  0  0  0  0  0
  -29.2360  -22.9876   19.0819 C   0  0  0  0  0  0  0  0  0  0  0  0
  -24.2227  -36.2220   21.8054 C   0  0  0  0  0  0  0  0  0  0  0  0
  -24.3150  -17.1122   22.3973 C   0  0  0  0  0  0  0  0  0  0  0  0
  -25.0255  -35.4611   20.7550 C   0  0  0  0  0  0  0  0  0  0  0  0
  -23.2214  -16.1150   22.0204 C   0  0  0  0  0  0  0  0  0  0  0  0
  -24.5761  -18.0983   21.2674 C   0  0  0  0  0  0  0  0  0  0  0  0
  -27.1152  -18.4728   21.6167 C   0  0  0  0  0  0  0  0  0  0  0  0
  -23.8496  -16.4695   19.5553 C   0  0  0  0  0  0  0  0  0  0  0  0
  -28.3582  -18.6306   19.4869 C   0  0  0  0  0  0  0  0  0  0  0  0
  -27.4326  -19.9087   22.0294 C   0  0  0  0  0  0  0  0  0  0  0  0
  -28.0606  -23.7642   21.1670 C   0  0  0  0  0  0  0  0  0  0  0  0
  -24.1090  -34.6011   19.8764 C   0  0  1  0  0  0  0  0  0  0  0  0
  -27.4182  -21.5217   20.0949 C   0  0  2  0  0  0  0  0  0  0  0  0
  -23.8938  -31.1280   21.4010 C   0  0  1  0  0  0  0  0  0  0  0  0
  -26.9303  -22.7637   20.8791 C   0  0  1  0  0  0  0  0  0  0  0  0
  -23.4164  -15.4601   20.6404 C   0  0  1  0  0  0  0  0  0  0  0  0
  -29.1846  -19.6691   20.2499 C   0  0  1  0  0  0  0  0  0  0  0  0
  -26.8394  -20.4419   17.3767 C   0  0  0  0  0  0  0  0  0  0  0  0
  -26.2079  -22.4026   22.1801 C   0  0  0  0  0  0  0  0  0  0  0  0
  -30.1720  -20.4133   19.3606 C   0  0  0  0  0  0  0  0  0  0  0  0
  -25.4386  -28.9153   28.6619 C   0  0  0  0  0  0  0  0  0  0  0  0
  -26.7566  -33.5423   24.1096 C   0  0  0  0  0  0  0  0  0  0  0  0
  -27.2884  -32.4957   26.3209 C   0  0  0  0  0  0  0  0  0  0  0  0
  -25.0469  -33.5201   25.9347 C   0  0  0  0  0  0  0  0  0  0  0  0
  -23.9593  -26.7609   25.8966 C   0  0  0  0  0  0  0  0  0  0  0  0
  -29.7839  -25.2133   20.0825 C   0  0  0  0  0  0  0  0  0  0  0  0
  -29.1301  -26.5485   20.3790 C   0  0  0  0  0  0  0  0  0  1  0  0
  -25.6203  -31.3313   24.8068 C   0  0  1  0  0  0  0  0  0  0  0  0
  -24.7467  -28.6451   27.3348 C   0  0  2  0  0  0  0  0  0  0  0  0
  -26.1784  -32.7068   25.2691 C   0  0  0  0  0  0  0  0  0  0  0  0
  -25.6072  -14.3367   20.4274 N   0  0  0  0  0  0  0  0  0  0  0  0
  -24.2944  -14.2164   20.6885 N   0  0  0  0  0  0  0  0  0  0  0  0
  -24.8001  -30.8612   22.5198 N   0  0  0  0  0  0  0  0  0  0  0  0
  -24.8824  -17.4061   20.0171 N   0  0  0  0  0  0  0  0  0  0  0  0
  -27.1071  -18.2878   20.1649 N   0  0  0  0  0  0  0  0  0  0  0  0
  -22.6189  -12.6431   21.2613 N   0  0  0  0  0  0  0  0  0  0  0  0
  -26.3618  -10.1296   20.9969 N   0  0  0  0  0  0  0  0  0  0  0  0
  -23.7186  -33.3978   20.5792 N   0  0  0  0  0  0  0  0  0  0  0  0
  -25.0418  -30.5299   25.8799 N   0  0  0  0  0  0  0  0  0  0  0  0
  -28.7178  -24.1757   19.8665 N   0  3  1  0  0  0  0  0  0  0  0  0
  -28.2604  -20.6317   20.9772 N   0  3  2  0  0  0  0  0  0  0  0  0
  -24.6407  -27.1700   27.1517 N   0  3  0  0  0  0  0  0  0  0  0  0
  -24.1056  -10.0728   21.4035 O   0  0  0  0  0  0  0  0  0  0  0  0
  -25.5829  -32.0996   20.0676 O   0  0  0  0  0  0  0  0  0  0  0  0
  -23.5129  -32.0902   24.0260 O   0  0  0  0  0  0  0  0  0  0  0  0
  -26.4274  -28.6917   25.5998 O   0  0  0  0  0  0  0  0  0  0  0  0
  -26.4739  -16.9318   18.4190 O   0  0  0  0  0  0  0  0  0  0  0  0
  -31.4752  -11.9575   19.7532 O   0  0  0  0  0  0  0  0  0  0  0  0
  -28.2951  -26.9214   19.2907 O   0  0  0  0  0  0  0  0  0  1  0  0
  -32.7499   -7.5452   16.7019 F   0  0  0  0  0  0  0  0  0  0  0  0
  -30.6573   -9.4269   20.5079 F   0  0  0  0  0  0  0  0  0  0  0  0
  1  2  1  0  0  0  0
  1  5  2  0  0  0  0
  2  6  2  0  0  0  0
  3  8  2  0  0  0  0
  3 15  1  0  0  0  0
  4  9  1  0  0  0  0
  4 15  2  0  0  0  0
  5 17  1  0  0  0  0
  6 19  1  0  0  0  0
  7 10  2  0  0  0  0
  7 18  1  0  0  0  0
  8 21  1  0  0  0  0
  9 21  2  0  0  0  0
 10 22  1  0  0  0  0
 11 12  2  0  0  0  0
 11 23  1  0  0  0  0
 12 24  1  0  0  0  0
 13 20  1  0  0  0  0
 13 22  2  0  0  0  0
 14 24  2  0  0  0  0
 14 25  1  0  0  0  0
 15 26  1  0  0  0  0
 16 26  1  0  0  0  0
 16 27  2  0  0  0  0
 16 30  1  0  0  0  0
 17 19  2  0  0  0  0
 17 35  1  0  0  0  0
 18 20  2  0  0  0  0
 18 36  1  0  0  0  0
 19 49  1  0  0  0  0
 20 37  1  0  0  0  0
 21 85  1  0  0  0  0
 22 86  1  0  0  0  0
 23 25  2  0  0  0  0
 23 85  1  0  0  0  0
 24 87  1  0  0  0  0
 25 88  1  0  0  0  0
 26 68  2  0  0  0  0
 27 69  1  0  0  0  0
 27 73  1  0  0  0  0
 28 29  2  0  0  0  0
 28 38  1  0  0  0  0
 28 50  1  0  0  0  0
 29 55  1  0  0  0  0
 30 74  1  0  0  0  0
 30 80  2  0  0  0  0
 31 51  1  0  0  0  0
 31 75  1  0  0  0  0
 31 81  2  0  0  0  0
 32 65  1  0  0  0  0
 32 70  1  0  0  0  0
 32 82  2  0  0  0  0
 33 66  1  0  0  0  0
 33 76  1  0  0  0  0
 33 83  2  0  0  0  0
 34 71  1  0  0  0  0
 34 72  1  0  0  0  0
 34 84  2  0  0  0  0
 35 39  1  0  0  0  0
 36 51  1  0  0  0  0
 37 70  1  0  0  0  0
 38 77  1  0  0  0  0
 39 41  1  0  0  0  0
 40 42  1  0  0  0  0
 40 43  1  0  0  0  0
 41 49  1  0  0  0  0
 42 53  1  0  0  0  0
 43 71  1  0  0  0  0
 44 47  1  0  0  0  0
 44 72  1  0  0  0  0
 45 53  1  0  0  0  0
 45 71  1  0  0  0  0
 46 54  1  0  0  0  0
 46 72  1  0  0  0  0
 47 78  1  0  0  0  0
 48 52  1  0  0  0  0
 48 77  1  0  0  0  0
 49 75  1  0  0  0  0
 50 52  1  0  0  0  0
 50 78  1  0  0  0  0
 51 70  1  0  0  0  0
 52 56  1  0  0  0  0
 53 69  1  0  0  0  0
 54 57  1  0  0  0  0
 54 78  1  0  0  0  0
 58 66  1  0  0  0  0
 59 67  1  0  0  0  0
 60 67  1  0  0  0  0
 61 67  1  0  0  0  0
 62 79  1  0  0  0  0
 63 64  1  0  0  0  0
 63 77  1  0  0  0  0
 64 86  1  0  0  0  0
 65 67  1  0  0  0  0
 65 76  1  0  0  0  0
 66 79  1  0  0  0  0
 68 69  1  0  0  0  0
M  CHG  3  77   1  78   1  79   1
M  ISO  4  34 100  64 101  72 100  86 101
M  END
> <Batch ID>
0187

> <Smiles>
CC=C1CN(C[101CH2:1][101O:1]c2ccc3c(c2)CN(C(=O)C(NC(=O)C(C)NC)C(C)(C)C)C(C(=O)NC2CCCc4ccccc42)C3)CC(C)C1N1CC[100N:0]([100C:0](=O)N2CCCC(n3nc(-c4ccc(Oc5ccc(F)cc5F)cc4)c(C(N)=O)c3N)C2)CC1C

> <Shape>
0.290

> <Color>
0.103

> <Negative vol penalty>
0.000

$$$$

  -OEChem-04052323173D

 86 96  0     1  0  0  0  0  0999 V2000
  -16.9964  -30.8523   23.2465 C   0  0  0  0  0  0  0  0  0  0  0  0
  -18.2137  -31.2913   23.7573 C   0  0  0  0  0  0  0  0  0  0  0  0
  -25.6436  -15.5002   21.3860 C   0  0  0  0  0  0  0  0  0  0  0  0
  -27.9209  -14.9960   20.7562 C   0  0  0  0  0  0  0  0  0  0  0  0
  -16.8828  -29.5620   22.7307 C   0  0  0  0  0  0  0  0  0  0  0  0
  -19.3179  -30.4397   23.7536 C   0  0  0  0  0  0  0  0  0  0  0  0
  -25.1807  -32.0166   22.9499 C   0  0  0  0  0  0  0  0  0  0  0  0
  -25.2997  -14.1591   21.2166 C   0  0  0  0  0  0  0  0  0  0  0  0
  -27.5771  -13.6548   20.5868 C   0  0  0  0  0  0  0  0  0  0  0  0
  -26.2236  -32.2399   23.8479 C   0  0  0  0  0  0  0  0  0  0  0  0
  -25.6132  -11.2697   22.9446 C   0  0  0  0  0  0  0  0  0  0  0  0
  -24.8287  -10.6720   23.9310 C   0  0  0  0  0  0  0  0  0  0  0  0
  -26.9787  -29.9716   23.5256 C   0  0  0  0  0  0  0  0  0  0  0  0
  -23.1200  -10.2038   22.2884 C   0  0  0  0  0  0  0  0  0  0  0  0
  -29.6106  -27.3545   25.2672 C   0  0  0  0  0  0  0  0  0  0  0  0
  -26.9541  -15.9187   21.1558 C   0  0  0  0  0  0  0  0  0  0  0  0
  -27.2097  -18.0655   22.5099 C   0  0  0  0  0  0  0  0  0  0  0  0
  -17.9886  -28.6974   22.7118 C   0  0  0  0  0  0  0  0  0  0  0  0
  -25.0224  -30.7637   22.3403 C   0  0  0  0  0  0  0  0  0  0  0  0
  -19.2186  -29.1361   23.2383 C   0  0  0  0  0  0  0  0  0  0  0  0
  -25.9346  -29.7358   22.6183 C   0  0  0  0  0  0  0  0  0  0  0  0
  -26.2665  -13.2364   20.8170 C   0  0  0  0  0  0  0  0  0  0  0  0
  -27.1210  -31.2165   24.1381 C   0  0  0  0  0  0  0  0  0  0  0  0
  -25.1510  -11.3346   21.6301 C   0  0  0  0  0  0  0  0  0  0  0  0
  -23.5821  -10.1391   23.6029 C   0  0  0  0  0  0  0  0  0  0  0  0
  -23.9045  -10.8016   21.3020 C   0  0  0  0  0  0  0  0  0  0  0  0
  -27.3098  -17.3041   21.3301 C   0  0  0  0  0  0  0  0  0  0  0  0
  -30.3814  -28.4524   25.5798 C   0  0  0  0  0  0  0  0  0  0  0  0
  -32.2763  -27.2099   25.2711 C   0  0  0  0  0  0  0  0  0  0  0  0
  -31.5054  -26.1118   24.9592 C   0  0  0  0  0  0  0  0  0  0  0  0
  -27.6689  -19.3104   22.1552 C   0  0  0  0  0  0  0  0  0  0  0  0
  -26.7434  -17.6817   23.8103 C   0  0  0  0  0  0  0  0  0  0  0  0
  -22.7538  -28.5373   22.3457 C   0  0  0  0  0  0  0  0  0  0  0  0
  -24.6491  -27.1549   20.1053 C   0  0  0  0  0  0  0  0  0  0  0  0
  -27.7671  -26.8088   18.7619 C   0  0  0  0  0  0  0  0  0  0  0  0
  -31.3769  -22.5709   19.5543 C   0  0  0  0  0  0  0  0  0  0  0  0
  -17.8050  -27.2954   22.1873 C   0  0  0  0  0  0  0  0  0  0  0  0
  -23.9080  -30.5470   21.3535 C   0  0  0  0  0  0  0  0  0  0  0  0
  -25.8203  -28.3787   21.9750 C   0  0  0  0  0  0  0  0  0  0  0  0
  -19.1196  -26.5839   21.8776 C   0  0  0  0  0  0  0  0  0  0  0  0
  -28.6979  -21.2666   17.6054 C   0  0  0  0  0  0  0  0  0  0  0  0
  -20.1093  -26.7683   23.0237 C   0  0  0  0  0  0  0  0  0  0  0  0
  -28.0942  -20.1786   18.4952 C   0  0  0  0  0  0  0  0  0  0  0  0
  -30.4864  -31.0307   25.7125 C   0  0  0  0  0  0  0  0  0  0  0  0
  -30.2168  -21.3342   17.7485 C   0  0  0  0  0  0  0  0  0  0  0  0
  -30.0987  -20.3931   20.0231 C   0  0  0  0  0  0  0  0  0  0  0  0
  -33.0890  -23.4003   22.8490 C   0  0  0  0  0  0  0  0  0  0  0  0
  -31.6676  -24.7862   22.2051 C   0  0  0  0  0  0  0  0  0  0  0  0
  -20.4455  -28.2503   23.2291 C   0  0  1  0  0  0  0  0  0  0  0  0
  -29.7300  -29.7395   25.9212 C   0  0  1  0  0  0  0  0  0  0  0  0
  -23.5382  -29.0768   21.1833 C   0  0  1  0  0  0  0  0  0  0  0  0
  -28.5635  -20.3239   19.9553 C   0  0  2  0  0  0  0  0  0  0  0  0
  -32.4765  -23.7027   21.4698 C   0  0  0  0  0  0  0  0  0  0  0  0
  -29.3408  -30.6893   24.8095 C   0  0  1  0  0  0  0  0  0  1  0  0
  -33.7651  -27.1385   25.2754 C   0  0  0  0  0  0  0  0  0  0  0  0
  -29.5389  -26.0511   17.1544 C   0  0  0  0  0  0  0  0  0  0  0  0
  -24.5920  -24.6195   21.8019 C   0  0  0  0  0  0  0  0  0  0  0  0
  -26.5576  -23.7845   20.4953 C   0  0  0  0  0  0  0  0  0  0  0  0
  -24.3928  -24.2316   19.3393 C   0  0  0  0  0  0  0  0  0  0  0  0
  -27.3294  -29.1446   16.9979 C   0  0  0  0  0  0  0  0  0  0  0  0
  -32.1242  -24.8012   24.6114 C   0  0  0  0  0  0  0  0  0  0  0  0
  -25.7988  -26.1770   20.1334 C   0  0  1  0  0  0  0  0  0  0  0  0
  -28.2547  -26.8477   17.3248 C   0  0  2  0  0  0  0  0  0  0  0  0
  -25.3366  -24.7280   20.4562 C   0  0  0  0  0  0  0  0  0  0  0  0
  -30.1587  -26.1644   24.9513 N   0  0  0  0  0  0  0  0  0  0  0  0
  -27.7944  -18.0065   20.3026 N   0  0  0  0  0  0  0  0  0  0  0  0
  -31.7282  -28.3998   25.5874 N   0  0  0  0  0  0  0  0  0  0  0  0
  -28.0028  -19.2225   20.8357 N   0  0  0  0  0  0  0  0  0  0  0  0
  -24.7104  -28.2141   21.0220 N   0  0  0  0  0  0  0  0  0  0  0  0
  -30.5955  -21.4735   19.1567 N   0  0  0  0  0  0  0  0  0  0  0  0
  -27.8155  -20.4607   22.8463 N   0  0  0  0  0  0  0  0  0  0  0  0
  -27.6704  -17.1698   24.7284 N   0  0  0  0  0  0  0  0  0  0  0  0
  -21.3867  -28.6989   22.2254 N   0  0  0  0  0  0  0  0  0  0  0  0
  -26.4830  -26.3145   18.8523 N   0  0  0  0  0  0  0  0  0  0  0  0
  -31.6858  -22.6305   20.9078 N   0  0  0  0  0  0  0  0  0  0  0  0
  -32.7122  -24.7686   23.2434 N   0  3  0  0  0  0  0  0  0  0  0  0
  -28.5143  -28.2535   16.9038 N   0  3  0  0  0  0  0  0  0  0  0  0
  -25.5373  -17.7743   24.1426 O   0  0  0  0  0  0  0  0  0  0  0  0
  -23.3449  -28.0118   23.2817 O   0  0  0  0  0  0  0  0  0  0  0  0
  -23.7339  -26.9893   19.2949 O   0  0  0  0  0  0  0  0  0  0  0  0
  -28.4577  -27.1763   19.7098 O   0  0  0  0  0  0  0  0  0  0  0  0
  -31.7657  -23.4365   18.7628 O   0  0  0  0  0  0  0  0  0  0  0  0
  -25.9314  -11.9276   20.6518 O   0  0  0  0  0  0  0  0  0  0  0  0
  -28.1394  -31.4316   25.0147 O   0  0  0  0  0  0  0  0  0  1  0  0
  -22.8296   -9.5637   24.5500 F   0  0  0  0  0  0  0  0  0  0  0  0
  -23.4557  -10.8598   20.0407 F   0  0  0  0  0  0  0  0  0  0  0  0
  1  2  1  0  0  0  0
  1  5  2  0  0  0  0
  2  6  2  0  0  0  0
  3  8  2  0  0  0  0
  3 16  1  0  0  0  0
  4  9  1  0  0  0  0
  4 16  2  0  0  0  0
  5 18  1  0  0  0  0
  6 20  1  0  0  0  0
  7 10  2  0  0  0  0
  7 19  1  0  0  0  0
  8 22  1  0  0  0  0
  9 22  2  0  0  0  0
 10 23  1  0  0  0  0
 11 12  2  0  0  0  0
 11 24  1  0  0  0  0
 12 25  1  0  0  0  0
 13 21  1  0  0  0  0
 13 23  2  0  0  0  0
 14 25  2  0  0  0  0
 14 26  1  0  0  0  0
 15 28  1  0  0  0  0
 15 65  2  0  0  0  0
 16 27  1  0  0  0  0
 17 27  1  0  0  0  0
 17 31  2  0  0  0  0
 17 32  1  0  0  0  0
 18 20  2  0  0  0  0
 18 37  1  0  0  0  0
 19 21  2  0  0  0  0
 19 38  1  0  0  0  0
 20 49  1  0  0  0  0
 21 39  1  0  0  0  0
 22 83  1  0  0  0  0
 23 84  1  0  0  0  0
 24 26  2  0  0  0  0
 24 83  1  0  0  0  0
 25 85  1  0  0  0  0
 26 86  1  0  0  0  0
 27 66  2  0  0  0  0
 28 50  1  0  0  0  0
 28 67  2  0  0  0  0
 29 30  2  0  0  0  0
 29 55  1  0  0  0  0
 29 67  1  0  0  0  0
 30 61  1  0  0  0  0
 30 65  1  0  0  0  0
 31 68  1  0  0  0  0
 31 71  1  0  0  0  0
 32 72  1  0  0  0  0
 32 78  2  0  0  0  0
 33 51  1  0  0  0  0
 33 73  1  0  0  0  0
 33 79  2  0  0  0  0
 34 62  1  0  0  0  0
 34 69  1  0  0  0  0
 34 80  2  0  0  0  0
 35 63  1  0  0  0  0
 35 74  1  0  0  0  0
 35 81  2  0  0  0  0
 36 70  1  0  0  0  0
 36 75  1  0  0  0  0
 36 82  2  0  0  0  0
 37 40  1  0  0  0  0
 38 51  1  0  0  0  0
 39 69  1  0  0  0  0
 40 42  1  0  0  0  0
 41 43  1  0  0  0  0
 41 45  1  0  0  0  0
 42 49  1  0  0  0  0
 43 52  1  0  0  0  0
 44 50  1  0  0  0  0
 44 54  1  0  0  0  0
 45 70  1  0  0  0  0
 46 52  1  0  0  0  0
 46 70  1  0  0  0  0
 47 53  1  0  0  0  0
 47 76  1  0  0  0  0
 48 53  1  0  0  0  0
 48 76  1  0  0  0  0
 49 73  1  0  0  0  0
 50 54  1  0  0  0  0
 51 69  1  0  0  0  0
 52 68  1  0  0  0  0
 53 75  1  0  0  0  0
 54 84  1  0  0  0  0
 56 63  1  0  0  0  0
 57 64  1  0  0  0  0
 58 64  1  0  0  0  0
 59 64  1  0  0  0  0
 60 77  1  0  0  0  0
 61 76  1  0  0  0  0
 62 64  1  0  0  0  0
 62 74  1  0  0  0  0
 63 77  1  0  0  0  0
 66 68  1  0  0  0  0
M  CHG  2  76   1  77   1
M  ISO  4  36 100  54 101  75 100  84 101
M  END
> <Batch ID>
0187

> <Smiles>
CNC(C)C(=O)NC(C(=O)N1Cc2cc([101O:1][101CH:1]3CC3c3cnc(CN4CC([100NH:0][100C:0](=O)N5CCCC(n6nc(-c7ccc(Oc8ccc(F)cc8F)cc7)c(C(N)=O)c6N)C5)C4)c(C)n3)ccc2CC1C(=O)NC1CCCc2ccccc21)C(C)(C)C

> <Shape>
0.257

> <Color>
0.088

> <Negative vol penalty>
0.000

$$$$

  -OEChem-04052323173D

 87 96  0     1  0  0  0  0  0999 V2000
  -26.1492  -38.2232   19.2896 C   0  0  0  0  0  0  0  0  0  0  0  0
  -26.3002  -37.0533   18.5519 C   0  0  0  0  0  0  0  0  0  0  0  0
  -24.6177   -8.9835   21.8909 C   0  0  0  0  0  0  0  0  0  0  0  0
  -23.0670   -9.8123   20.2340 C   0  0  0  0  0  0  0  0  0  0  0  0
  -26.3329  -38.2031   20.6715 C   0  0  0  0  0  0  0  0  0  0  0  0
  -26.6361  -35.8629   19.1957 C   0  0  0  0  0  0  0  0  0  0  0  0
  -25.5591  -28.7932   18.7769 C   0  0  0  0  0  0  0  0  0  0  0  0
  -23.5758   -8.3115   22.5299 C   0  0  0  0  0  0  0  0  0  0  0  0
  -22.0250   -9.1403   20.8730 C   0  0  0  0  0  0  0  0  0  0  0  0
  -26.2716  -27.5952   18.7439 C   0  0  0  0  0  0  0  0  0  0  0  0
  -21.8159   -5.4571   22.0959 C   0  0  0  0  0  0  0  0  0  0  0  0
  -22.0428   -4.1403   22.4961 C   0  0  0  0  0  0  0  0  0  0  0  0
  -26.4864  -27.6637   21.1456 C   0  0  0  0  0  0  0  0  0  0  0  0
  -21.6143   -4.7638   24.7906 C   0  0  0  0  0  0  0  0  0  0  0  0
  -24.3633   -9.7340   20.7429 C   0  0  0  0  0  0  0  0  0  0  0  0
  -26.2687   -9.9341   19.0585 C   0  0  0  0  0  0  0  0  0  0  0  0
  -26.6617  -37.0098   21.3338 C   0  0  0  0  0  0  0  0  0  0  0  0
  -25.3139  -29.4421   19.9957 C   0  0  0  0  0  0  0  0  0  0  0  0
  -26.8256  -35.8271   20.5876 C   0  0  0  0  0  0  0  0  0  0  0  0
  -25.7684  -28.8684   21.1917 C   0  0  0  0  0  0  0  0  0  0  0  0
  -28.0034  -22.9095   20.6025 C   0  0  0  0  0  0  0  0  0  0  0  0
  -22.2794   -8.3899   22.0210 C   0  0  0  0  0  0  0  0  0  0  0  0
  -26.7379  -27.0318   19.9280 C   0  0  0  0  0  0  0  0  0  0  0  0
  -21.4882   -6.4273   23.0431 C   0  0  0  0  0  0  0  0  0  0  0  0
  -21.9419   -3.7936   23.8434 C   0  0  0  0  0  0  0  0  0  0  0  0
  -21.3874   -6.0806   24.3904 C   0  0  0  0  0  0  0  0  0  0  0  0
  -25.4391  -10.4288   20.0827 C   0  0  0  0  0  0  0  0  0  0  0  0
  -28.6554  -24.0840   20.9184 C   0  0  0  0  0  0  0  0  0  0  0  0
  -28.8142  -21.8093   20.4117 C   0  0  0  0  0  0  0  0  0  0  0  0
  -27.1229  -10.9721   18.7771 C   0  0  0  0  0  0  0  0  0  0  0  0
  -30.6754  -23.0450   20.8314 C   0  0  0  0  0  0  0  0  0  0  0  0
  -26.2672   -8.6510   18.4188 C   0  0  0  0  0  0  0  0  0  0  0  0
  -26.1012  -32.2619   21.2336 C   0  0  0  0  0  0  0  0  0  0  0  0
  -24.1399  -31.3162   23.6380 C   0  0  0  0  0  0  0  0  0  0  0  0
  -22.6621  -28.7478   25.3310 C   0  0  0  0  0  0  0  0  0  0  0  0
  -26.7293  -16.7235   19.2179 C   0  0  0  0  0  0  0  0  0  0  0  0
  -26.8966  -37.0471   22.8231 C   0  0  0  0  0  0  0  0  0  0  0  0
  -24.5207  -30.7199   20.0169 C   0  0  0  0  0  0  0  0  0  0  0  0
  -25.5141  -29.5149   22.5281 C   0  0  0  0  0  0  0  0  0  0  0  0
  -26.8837  -35.6676   23.4765 C   0  0  0  0  0  0  0  0  0  0  0  0
  -29.1950  -14.7781   20.7911 C   0  0  0  0  0  0  0  0  0  0  0  0
  -27.7273  -34.6864   22.6688 C   0  0  0  0  0  0  0  0  0  0  0  0
  -28.5886  -13.3789   20.6895 C   0  0  0  0  0  0  0  0  0  0  0  0
  -28.1421  -15.8361   21.1249 C   0  0  0  0  0  0  0  0  0  0  0  0
  -28.5555  -19.9270   18.8249 C   0  0  0  0  0  0  0  0  0  0  0  0
  -27.7980  -19.7156   21.1971 C   0  0  0  0  0  0  0  0  0  0  0  0
  -27.4752  -18.9315   18.4104 C   0  0  0  0  0  0  0  0  0  0  0  0
  -26.7242  -18.7348   20.7393 C   0  0  0  0  0  0  0  0  0  0  0  0
  -26.3740  -14.4383   20.1060 C   0  0  0  0  0  0  0  0  0  0  0  0
  -27.1652  -34.5110   21.2529 C   0  0  1  0  0  0  0  0  0  0  0  0
  -24.7734  -31.5593   21.2655 C   0  0  1  0  0  0  0  0  0  0  0  0
  -27.3984  -13.3622   19.7139 C   0  0  2  0  0  0  0  0  0  0  0  0
  -32.1591  -23.1203   20.9586 C   0  0  0  0  0  0  0  0  0  0  0  0
  -21.1428  -28.2852   27.2740 C   0  0  0  0  0  0  0  0  0  0  0  0
  -26.4371  -31.8798   25.5654 C   0  0  0  0  0  0  0  0  0  0  0  0
  -25.2245  -30.5348   27.2942 C   0  0  0  0  0  0  0  0  0  0  0  0
  -24.1887  -32.6117   26.3799 C   0  0  0  0  0  0  0  0  0  0  0  0
  -24.5685  -22.7576   18.9229 C   0  0  0  0  0  0  0  0  0  0  0  0
  -20.6404  -27.4623   23.5934 C   0  0  0  0  0  0  0  0  0  0  0  0
  -26.5213  -22.8442   20.4778 C   0  0  0  0  0  0  0  0  0  0  0  0
  -27.8826  -25.3412   21.1476 C   0  0  0  0  0  0  0  0  0  1  0  0
  -24.3199  -30.5481   24.9251 C   0  0  1  0  0  0  0  0  0  0  0  0
  -21.2272  -28.5277   25.7750 C   0  0  2  0  0  0  0  0  0  0  0  0
  -25.0492  -31.3822   26.0160 C   0  0  0  0  0  0  0  0  0  0  0  0
  -25.7394  -11.6835   20.4286 N   0  0  0  0  0  0  0  0  0  0  0  0
  -29.9950  -24.1880   21.0414 N   0  0  0  0  0  0  0  0  0  0  0  0
  -30.1588  -21.8413   20.5185 N   0  0  0  0  0  0  0  0  0  0  0  0
  -26.7672  -11.9859   19.6173 N   0  0  0  0  0  0  0  0  0  0  0  0
  -28.2105  -20.5873   20.0885 N   0  0  0  0  0  0  0  0  0  0  0  0
  -24.7393  -30.7664   22.4961 N   0  0  0  0  0  0  0  0  0  0  0  0
  -27.0089  -15.7550   20.1935 N   0  0  0  0  0  0  0  0  0  0  0  0
  -27.1093  -18.0435   19.5072 N   0  0  0  0  0  0  0  0  0  0  0  0
  -28.1362  -11.1075   17.8954 N   0  0  0  0  0  0  0  0  0  0  0  0
  -25.3220   -7.7009   18.8291 N   0  0  0  0  0  0  0  0  0  0  0  0
  -26.0094  -33.6402   21.2722 N   0  0  0  0  0  0  0  0  0  0  0  0
  -22.9918  -30.0865   25.3143 N   0  0  0  0  0  0  0  0  0  0  0  0
  -26.0471  -22.7659   19.0674 N   0  3  0  0  0  0  0  0  0  0  0  0
  -20.6433  -27.3489   25.0747 N   0  3  0  0  0  0  0  0  0  0  0  0
  -27.0905   -8.3500   17.5215 O   0  0  0  0  0  0  0  0  0  0  0  0
  -27.1326  -31.6024   21.1795 O   0  0  0  0  0  0  0  0  0  0  0  0
  -23.4852  -32.3617   23.6443 O   0  0  0  0  0  0  0  0  0  0  0  0
  -23.4162  -27.8243   25.0327 O   0  0  0  0  0  0  0  0  0  0  0  0
  -26.1765  -16.4286   18.1510 O   0  0  0  0  0  0  0  0  0  0  0  0
  -21.2625   -7.7340   22.6442 O   0  0  0  0  0  0  0  0  0  0  0  0
  -27.4391  -25.8546   19.8983 O   0  0  0  0  0  0  0  0  0  1  0  0
  -22.1583   -2.5288   24.2273 F   0  0  0  0  0  0  0  0  0  0  0  0
  -21.0718   -7.0080   25.3048 F   0  0  0  0  0  0  0  0  0  0  0  0
  1  2  1  0  0  0  0
  1  5  2  0  0  0  0
  2  6  2  0  0  0  0
  3  8  2  0  0  0  0
  3 15  1  0  0  0  0
  4  9  1  0  0  0  0
  4 15  2  0  0  0  0
  5 17  1  0  0  0  0
  6 19  1  0  0  0  0
  7 10  2  0  0  0  0
  7 18  1  0  0  0  0
  8 22  1  0  0  0  0
  9 22  2  0  0  0  0
 10 23  1  0  0  0  0
 11 12  2  0  0  0  0
 11 24  1  0  0  0  0
 12 25  1  0  0  0  0
 13 20  1  0  0  0  0
 13 23  2  0  0  0  0
 14 25  2  0  0  0  0
 14 26  1  0  0  0  0
 15 27  1  0  0  0  0
 16 27  1  0  0  0  0
 16 30  2  0  0  0  0
 16 32  1  0  0  0  0
 17 19  2  0  0  0  0
 17 37  1  0  0  0  0
 18 20  2  0  0  0  0
 18 38  1  0  0  0  0
 19 50  1  0  0  0  0
 20 39  1  0  0  0  0
 21 28  2  0  0  0  0
 21 29  1  0  0  0  0
 21 60  1  0  0  0  0
 22 84  1  0  0  0  0
 23 85  1  0  0  0  0
 24 26  2  0  0  0  0
 24 84  1  0  0  0  0
 25 86  1  0  0  0  0
 26 87  1  0  0  0  0
 27 65  2  0  0  0  0
 28 61  1  0  0  0  0
 28 66  1  0  0  0  0
 29 67  2  0  0  0  0
 29 69  1  0  0  0  0
 30 68  1  0  0  0  0
 30 73  1  0  0  0  0
 31 53  1  0  0  0  0
 31 66  2  0  0  0  0
 31 67  1  0  0  0  0
 32 74  1  0  0  0  0
 32 79  2  0  0  0  0
 33 51  1  0  0  0  0
 33 75  1  0  0  0  0
 33 80  2  0  0  0  0
 34 62  1  0  0  0  0
 34 70  1  0  0  0  0
 34 81  2  0  0  0  0
 35 63  1  0  0  0  0
 35 76  1  0  0  0  0
 35 82  2  0  0  0  0
 36 71  1  0  0  0  0
 36 72  1  0  0  0  0
 36 83  2  0  0  0  0
 37 40  1  0  0  0  0
 38 51  1  0  0  0  0
 39 70  1  0  0  0  0
 40 42  1  0  0  0  0
 41 43  1  0  0  0  0
 41 44  1  0  0  0  0
 42 50  1  0  0  0  0
 43 52  1  0  0  0  0
 44 71  1  0  0  0  0
 45 47  1  0  0  0  0
 45 69  1  0  0  0  0
 46 48  1  0  0  0  0
 46 69  1  0  0  0  0
 47 72  1  0  0  0  0
 48 72  1  0  0  0  0
 49 52  1  0  0  0  0
 49 71  1  0  0  0  0
 50 75  1  0  0  0  0
 51 70  1  0  0  0  0
 52 68  1  0  0  0  0
 54 63  1  0  0  0  0
 55 64  1  0  0  0  0
 56 64  1  0  0  0  0
 57 64  1  0  0  0  0
 58 77  1  0  0  0  0
 59 78  1  0  0  0  0
 60 77  1  0  0  0  0
 61 85  1  0  0  0  0
 62 64  1  0  0  0  0
 62 76  1  0  0  0  0
 63 78  1  0  0  0  0
 65 68  1  0  0  0  0
M  CHG  2  77   1  78   1
M  ISO  4  36 100  61 101  72 100  85 101
M  END
> <Batch ID>
0187

> <Smiles>
CNCc1c(N2CC[100N:0]([100C:0](=O)N3CCCC(n4nc(-c5ccc(Oc6ccc(F)cc6F)cc5)c(C(N)=O)c4N)C3)CC2)nc(C)nc1[101CH2:1][101O:1]c1ccc2c(c1)CN(C(=O)C(NC(=O)C(C)NC)C(C)(C)C)C(C(=O)NC1CCCc3ccccc31)C2

> <Shape>
0.307

> <Color>
0.115

> <Negative vol penalty>
0.000

$$$$

  -OEChem-04052323173D

 84 93  0     1  0  0  0  0  0999 V2000
  -18.1093  -30.9278   23.4379 C   0  0  0  0  0  0  0  0  0  0  0  0
  -19.4961  -31.0332   23.4035 C   0  0  0  0  0  0  0  0  0  0  0  0
  -26.6320  -12.4683   20.1060 C   0  0  0  0  0  0  0  0  0  0  0  0
  -24.4355  -13.1240   20.8692 C   0  0  0  0  0  0  0  0  0  0  0  0
  -17.4987  -29.6976   23.1976 C   0  0  0  0  0  0  0  0  0  0  0  0
  -20.2732  -29.9082   23.1298 C   0  0  0  0  0  0  0  0  0  0  0  0
  -25.5582  -29.7473   20.0397 C   0  0  0  0  0  0  0  0  0  0  0  0
  -26.3993  -11.1679   20.5535 C   0  0  0  0  0  0  0  0  0  0  0  0
  -24.2028  -11.8235   21.3167 C   0  0  0  0  0  0  0  0  0  0  0  0
  -26.8880  -29.7128   20.4570 C   0  0  0  0  0  0  0  0  0  0  0  0
  -23.3372   -8.8461   19.9727 C   0  0  0  0  0  0  0  0  0  0  0  0
  -22.1017   -8.2713   19.6751 C   0  0  0  0  0  0  0  0  0  0  0  0
  -26.8911  -27.3113   20.2283 C   0  0  0  0  0  0  0  0  0  0  0  0
  -21.6527   -8.0143   22.0351 C   0  0  0  0  0  0  0  0  0  0  0  0
  -25.6501  -13.4464   20.2639 C   0  0  0  0  0  0  0  0  0  0  0  0
  -26.1712  -15.1989   18.4849 C   0  0  0  0  0  0  0  0  0  0  0  0
  -18.2683  -28.5590   22.9113 C   0  0  0  0  0  0  0  0  0  0  0  0
  -24.8804  -28.5611   19.7236 C   0  0  0  0  0  0  0  0  0  0  0  0
  -19.6723  -28.6613   22.8867 C   0  0  0  0  0  0  0  0  0  0  0  0
  -25.5535  -27.3337   19.8048 C   0  0  0  0  0  0  0  0  0  0  0  0
  -25.1847  -10.8455   21.1589 C   0  0  0  0  0  0  0  0  0  0  0  0
  -27.5538  -28.4944   20.5541 C   0  0  0  0  0  0  0  0  0  0  0  0
  -23.7306   -9.0050   21.3016 C   0  0  0  0  0  0  0  0  0  0  0  0
  -21.2594   -7.8554   20.7062 C   0  0  0  0  0  0  0  0  0  0  0  0
  -22.8883   -8.5891   22.3327 C   0  0  0  0  0  0  0  0  0  0  0  0
  -25.8901  -14.7901   19.8023 C   0  0  0  0  0  0  0  0  0  0  0  0
  -26.3163  -16.5620   18.5719 C   0  0  0  0  0  0  0  0  0  0  0  0
  -26.2905  -14.4166   17.2893 C   0  0  0  0  0  0  0  0  0  0  0  0
  -22.3292  -27.0587   20.8804 C   0  0  0  0  0  0  0  0  0  0  0  0
  -22.8161  -25.0988   18.3419 C   0  0  0  0  0  0  0  0  0  0  0  0
  -24.9876  -23.8338   16.0329 C   0  0  0  0  0  0  0  0  0  0  0  0
  -28.2098  -21.0292   20.8695 C   0  0  0  0  0  0  0  0  0  0  0  0
  -17.5652  -27.2407   22.7048 C   0  0  0  0  0  0  0  0  0  0  0  0
  -23.4541  -28.6177   19.2493 C   0  0  0  0  0  0  0  0  0  0  0  0
  -24.8769  -26.0338   19.4574 C   0  0  0  0  0  0  0  0  0  0  0  0
  -18.4446  -26.1770   22.0525 C   0  0  0  0  0  0  0  0  0  0  0  0
  -25.2835  -19.7604   22.3428 C   0  0  0  0  0  0  0  0  0  0  0  0
  -19.8139  -26.1317   22.7232 C   0  0  0  0  0  0  0  0  0  0  0  0
  -25.1994  -18.3741   21.7048 C   0  0  0  0  0  0  0  0  0  0  0  0
  -33.1317  -26.6454   23.2841 C   0  0  0  0  0  0  0  0  0  0  0  0
  -26.7195  -20.1345   22.7144 C   0  0  0  0  0  0  0  0  0  0  0  0
  -32.0567  -27.0714   24.2933 C   0  0  0  0  0  0  0  0  0  0  0  0
  -28.7964  -22.2054   23.0367 C   0  0  0  0  0  0  0  0  0  0  0  0
  -28.7919  -23.4354   20.8978 C   0  0  0  0  0  0  0  0  0  0  0  0
  -27.5949  -18.6315   20.9555 C   0  0  0  0  0  0  0  0  0  0  0  0
  -30.2499  -22.6030   23.2732 C   0  0  0  0  0  0  0  0  0  0  0  0
  -30.2476  -23.8293   21.0884 C   0  0  0  0  0  0  0  0  0  0  0  0
  -20.5483  -27.4690   22.5688 C   0  0  1  0  0  0  0  0  0  0  0  0
  -22.7062  -27.3027   19.4465 C   0  0  1  0  0  0  0  0  0  0  0  0
  -26.1716  -18.2525   20.5179 C   0  0  1  0  0  0  0  0  0  0  0  0
  -32.0086  -25.8764   22.5610 C   0  0  1  0  0  0  0  0  0  0  0  0
  -25.1027  -22.2227   14.1123 C   0  0  0  0  0  0  0  0  0  0  0  0
  -32.8960  -23.5921   21.9440 C   0  0  0  0  0  0  0  0  0  0  0  0
  -22.8147  -22.7626   20.3046 C   0  0  0  0  0  0  0  0  0  0  0  0
  -23.8575  -21.3520   18.5183 C   0  0  0  0  0  0  0  0  0  0  0  0
  -21.5899  -22.3304   18.1675 C   0  0  0  0  0  0  0  0  0  0  0  0
  -25.7565  -25.9708   14.1353 C   0  0  0  0  0  0  0  0  0  0  0  0
  -30.4755  -27.7487   22.5988 C   0  0  0  0  0  0  0  0  0  0  0  0
  -29.3545  -27.3158   21.6665 C   0  0  0  0  0  0  0  0  0  1  0  0
  -23.6158  -23.8414   18.0999 C   0  0  1  0  0  0  0  0  0  0  0  0
  -24.8739  -23.6675   14.5283 C   0  0  2  0  0  0  0  0  0  0  0  0
  -31.9458  -24.3790   22.8323 C   0  0  2  0  0  0  0  0  0  0  0  0
  -22.9819  -22.5958   18.7811 C   0  0  0  0  0  0  0  0  0  0  0  0
  -25.8581  -15.8108   20.6632 N   0  0  0  0  0  0  0  0  0  0  0  0
  -26.1212  -16.8745   19.8851 N   0  0  0  0  0  0  0  0  0  0  0  0
  -23.4801  -26.1407   19.0048 N   0  0  0  0  0  0  0  0  0  0  0  0
  -27.6166  -19.9638   21.5630 N   0  0  0  0  0  0  0  0  0  0  0  0
  -28.4822  -22.1936   21.6029 N   0  0  0  0  0  0  0  0  0  0  0  0
  -31.0033  -26.6167   23.3616 N   0  0  2  0  0  0  0  0  0  0  0  0
  -26.5906  -17.5116   17.6525 N   0  0  0  0  0  0  0  0  0  0  0  0
  -25.1410  -14.1940   16.5191 N   0  0  0  0  0  0  0  0  0  0  0  0
  -21.1046  -27.5895   21.2382 N   0  0  0  0  0  0  0  0  0  0  0  0
  -23.7612  -23.7222   16.6532 N   0  0  0  0  0  0  0  0  0  0  0  0
  -30.5439  -23.9053   22.5681 N   0  3  0  0  0  0  0  0  0  0  0  0
  -25.8799  -24.5211   13.8353 N   0  3  0  0  0  0  0  0  0  0  0  0
  -27.3809  -13.9155   16.9239 O   0  0  0  0  0  0  0  0  0  0  0  0
  -23.0922  -26.4339   21.6078 O   0  0  0  0  0  0  0  0  0  0  0  0
  -21.6478  -25.1571   17.9506 O   0  0  0  0  0  0  0  0  0  0  0  0
  -26.0578  -24.0382   16.6015 O   0  0  0  0  0  0  0  0  0  0  0  0
  -28.4809  -20.9449   19.6650 O   0  0  0  0  0  0  0  0  0  0  0  0
  -24.9572   -9.5766   21.5954 O   0  0  0  0  0  0  0  0  0  0  0  0
  -28.8739  -28.4572   20.9688 O   0  0  0  0  0  0  0  0  0  1  0  0
  -20.0723   -7.3048   20.4203 F   0  0  0  0  0  0  0  0  0  0  0  0
  -23.2603   -8.7402   23.6113 F   0  0  0  0  0  0  0  0  0  0  0  0
  1  2  1  0  0  0  0
  1  5  2  0  0  0  0
  2  6  2  0  0  0  0
  3  8  2  0  0  0  0
  3 15  1  0  0  0  0
  4  9  1  0  0  0  0
  4 15  2  0  0  0  0
  5 17  1  0  0  0  0
  6 19  1  0  0  0  0
  7 10  2  0  0  0  0
  7 18  1  0  0  0  0
  8 21  1  0  0  0  0
  9 21  2  0  0  0  0
 10 22  1  0  0  0  0
 11 12  2  0  0  0  0
 11 23  1  0  0  0  0
 12 24  1  0  0  0  0
 13 20  1  0  0  0  0
 13 22  2  0  0  0  0
 14 24  2  0  0  0  0
 14 25  1  0  0  0  0
 15 26  1  0  0  0  0
 16 26  1  0  0  0  0
 16 27  2  0  0  0  0
 16 28  1  0  0  0  0
 17 19  2  0  0  0  0
 17 33  1  0  0  0  0
 18 20  2  0  0  0  0
 18 34  1  0  0  0  0
 19 48  1  0  0  0  0
 20 35  1  0  0  0  0
 21 81  1  0  0  0  0
 22 82  1  0  0  0  0
 23 25  2  0  0  0  0
 23 81  1  0  0  0  0
 24 83  1  0  0  0  0
 25 84  1  0  0  0  0
 26 64  2  0  0  0  0
 27 65  1  0  0  0  0
 27 70  1  0  0  0  0
 28 71  1  0  0  0  0
 28 76  2  0  0  0  0
 29 49  1  0  0  0  0
 29 72  1  0  0  0  0
 29 77  2  0  0  0  0
 30 60  1  0  0  0  0
 30 66  1  0  0  0  0
 30 78  2  0  0  0  0
 31 61  1  0  0  0  0
 31 73  1  0  0  0  0
 31 79  2  0  0  0  0
 32 67  1  0  0  0  0
 32 68  1  0  0  0  0
 32 80  2  0  0  0  0
 33 36  1  0  0  0  0
 34 49  1  0  0  0  0
 35 66  1  0  0  0  0
 36 38  1  0  0  0  0
 37 39  1  0  0  0  0
 37 41  1  0  0  0  0
 38 48  1  0  0  0  0
 39 50  1  0  0  0  0
 40 42  1  0  0  0  0
 40 51  1  0  0  0  0
 41 67  1  0  0  0  0
 42 69  1  0  0  0  0
 43 46  1  0  0  0  0
 43 68  1  0  0  0  0
 44 47  1  0  0  0  0
 44 68  1  0  0  0  0
 45 50  1  0  0  0  0
 45 67  1  0  0  0  0
 46 74  1  0  0  0  0
 47 74  1  0  0  0  0
 48 72  1  0  0  0  0
 49 66  1  0  0  0  0
 50 65  1  0  0  0  0
 51 62  1  0  0  0  0
 51 69  1  0  0  0  0
 52 61  1  0  0  0  0
 53 62  1  0  0  0  0
 54 63  1  0  0  0  0
 55 63  1  0  0  0  0
 56 63  1  0  0  0  0
 57 75  1  0  0  0  0
 58 59  1  0  0  0  0
 58 69  1  0  0  0  0
 59 82  1  0  0  0  0
 60 63  1  0  0  0  0
 60 73  1  0  0  0  0
 61 75  1  0  0  0  0
 62 74  1  0  0  0  0
 64 65  1  0  0  0  0
M  CHG  2  74   1  75   1
M  ISO  4  32 100  59 101  68 100  82 101
M  END
> <Batch ID>
0187

> <Smiles>
CNC(C)C(=O)NC(C(=O)N1Cc2cc([101O:1][101CH2:1]CN3CCC3C(C)N3CC[100N:0]([100C:0](=O)N4CCCC(n5nc(-c6ccc(Oc7ccc(F)cc7F)cc6)c(C(N)=O)c5N)C4)CC3)ccc2CC1C(=O)NC1CCCc2ccccc21)C(C)(C)C

> <Shape>
0.233

> <Color>
0.075

> <Negative vol penalty>
0.000

$$$$

  -OEChem-04052323173D

 83 92  0     1  0  0  0  0  0999 V2000
  -26.8556  -37.6026   22.4830 C   0  0  0  0  0  0  0  0  0  0  0  0
  -27.5181  -36.6083   21.7704 C   0  0  0  0  0  0  0  0  0  0  0  0
  -23.4142  -12.3013   16.2132 C   0  0  0  0  0  0  0  0  0  0  0  0
  -22.6327  -11.0940   18.1545 C   0  0  0  0  0  0  0  0  0  0  0  0
  -26.0239  -37.2590   23.5479 C   0  0  0  0  0  0  0  0  0  0  0  0
  -27.3500  -35.2697   22.1231 C   0  0  0  0  0  0  0  0  0  0  0  0
  -27.1122  -28.7212   19.2287 C   0  0  0  0  0  0  0  0  0  0  0  0
  -22.5896  -11.5254   15.3986 C   0  0  0  0  0  0  0  0  0  0  0  0
  -21.8080  -10.3181   17.3399 C   0  0  0  0  0  0  0  0  0  0  0  0
  -27.6862  -27.4588   19.3721 C   0  0  0  0  0  0  0  0  0  0  0  0
  -22.6285   -8.4289   14.0442 C   0  0  0  0  0  0  0  0  0  0  0  0
  -23.1741   -7.9245   12.8638 C   0  0  0  0  0  0  0  0  0  0  0  0
  -30.0648  -23.3561   20.9910 C   0  0  0  0  0  0  0  0  0  0  0  0
  -30.4651  -22.0479   21.1990 C   0  0  0  0  0  0  0  0  0  0  0  0
  -26.1625  -26.9781   21.1795 C   0  0  0  0  0  0  0  0  0  0  0  0
  -21.5058   -9.1147   11.5841 C   0  0  0  0  0  0  0  0  0  0  0  0
  -23.4359  -12.0856   17.5911 C   0  0  0  0  0  0  0  0  0  0  0  0
  -23.9620  -14.1042   19.0594 C   0  0  0  0  0  0  0  0  0  0  0  0
  -25.8380  -35.9149   23.9077 C   0  0  0  0  0  0  0  0  0  0  0  0
  -26.0646  -29.1264   20.0682 C   0  0  0  0  0  0  0  0  0  0  0  0
  -26.5161  -34.9079   23.1947 C   0  0  0  0  0  0  0  0  0  0  0  0
  -25.5753  -28.2452   21.0429 C   0  0  0  0  0  0  0  0  0  0  0  0
  -21.7864  -10.5338   15.9620 C   0  0  0  0  0  0  0  0  0  0  0  0
  -27.2132  -26.5881   20.3495 C   0  0  0  0  0  0  0  0  0  0  0  0
  -21.5215   -9.2761   13.9947 C   0  0  0  0  0  0  0  0  0  0  0  0
  -22.6128   -8.2674   11.6337 C   0  0  0  0  0  0  0  0  0  0  0  0
  -20.9602   -9.6191   12.7646 C   0  0  0  0  0  0  0  0  0  0  0  0
  -24.2880  -12.8863   18.4330 C   0  0  0  0  0  0  0  0  0  0  0  0
  -29.2981  -23.6276   19.8757 C   0  0  0  0  0  0  0  0  0  0  0  0
  -30.0719  -21.0977   20.2780 C   0  0  0  0  0  0  0  0  0  0  0  0
  -25.1024  -14.4568   19.7389 C   0  0  0  0  0  0  0  0  0  0  0  0
  -22.7378  -14.8499   19.0299 C   0  0  0  0  0  0  0  0  0  0  0  0
  -25.6685  -31.4522   22.1983 C   0  0  0  0  0  0  0  0  0  0  0  0
  -22.6198  -30.3458   22.2600 C   0  0  0  0  0  0  0  0  0  0  0  0
  -20.4688  -27.7493   21.7328 C   0  0  0  0  0  0  0  0  0  0  0  0
  -30.7154  -15.0442   19.5764 C   0  0  0  0  0  0  0  0  0  0  0  0
  -24.9661  -35.5955   25.0962 C   0  0  0  0  0  0  0  0  0  0  0  0
  -25.4385  -30.4814   19.8830 C   0  0  0  0  0  0  0  0  0  0  0  0
  -24.4391  -28.6244   21.9561 C   0  0  0  0  0  0  0  0  0  0  0  0
  -24.5481  -34.1291   25.1683 C   0  0  0  0  0  0  0  0  0  0  0  0
  -29.3209  -11.8406   20.7012 C   0  0  0  0  0  0  0  0  0  0  0  0
  -25.7488  -33.2193   24.9283 C   0  0  0  0  0  0  0  0  0  0  0  0
  -27.8721  -11.9132   20.2171 C   0  0  0  0  0  0  0  0  0  0  0  0
  -28.7520  -18.1353   19.9031 C   0  0  0  0  0  0  0  0  0  0  0  0
  -30.2661  -12.6275   19.7963 C   0  0  0  0  0  0  0  0  0  0  0  0
  -28.8241  -16.7479   19.2739 C   0  0  0  0  0  0  0  0  0  0  0  0
  -28.4212  -14.0959   19.0797 C   0  0  0  0  0  0  0  0  0  0  0  0
  -31.0388  -17.4877   19.8332 C   0  0  0  0  0  0  0  0  0  0  0  0
  -26.3400  -33.4430   23.5312 C   0  0  1  0  0  0  0  0  0  0  0  0
  -24.7198  -30.9832   21.1317 C   0  0  1  0  0  0  0  0  0  0  0  0
  -27.4306  -13.3731   20.0029 C   0  0  1  0  0  0  0  0  0  0  0  0
  -30.1400  -18.6946   19.6103 C   0  0  2  0  0  0  0  0  0  0  0  0
  -18.0419  -27.1353   21.9072 C   0  0  0  0  0  0  0  0  0  0  0  0
  -22.9007  -30.1064   25.2889 C   0  0  0  0  0  0  0  0  0  0  0  0
  -20.8728  -28.6381   25.2909 C   0  0  0  0  0  0  0  0  0  0  0  0
  -20.6983  -31.0018   24.5129 C   0  0  0  0  0  0  0  0  0  0  0  0
  -20.2775  -27.2081   18.8294 C   0  0  0  0  0  0  0  0  0  0  0  0
  -28.8393  -25.0197   19.6065 C   0  0  0  0  0  0  0  0  0  1  0  0
  -21.8772  -29.3023   23.0591 C   0  0  1  0  0  0  0  0  0  0  0  0
  -19.1395  -27.6747   21.0034 C   0  0  2  0  0  0  0  0  0  0  0  0
  -21.6099  -29.7554   24.5222 C   0  0  0  0  0  0  0  0  0  0  0  0
  -25.5376  -12.4919   18.6913 N   0  0  0  0  0  0  0  0  0  0  0  0
  -28.9280  -22.6777   18.9908 N   0  0  0  0  0  0  0  0  0  0  0  0
  -29.3211  -21.3919   19.1955 N   0  0  0  0  0  0  0  0  0  0  0  0
  -26.0070  -13.4675   19.4876 N   0  0  0  0  0  0  0  0  0  0  0  0
  -23.8642  -29.9624   21.7400 N   0  0  0  0  0  0  0  0  0  0  0  0
  -29.7882  -13.9967   19.6024 N   0  0  0  0  0  0  0  0  0  0  0  0
  -30.2216  -16.3413   19.4429 N   0  0  0  0  0  0  0  0  0  0  0  0
  -25.4097  -15.5136   20.5207 N   0  0  0  0  0  0  0  0  0  0  0  0
  -21.6653  -14.3443   18.2827 N   0  0  0  0  0  0  0  0  0  0  0  0
  -30.4767  -19.7861   20.4857 N   0  0  0  0  0  0  0  0  0  0  0  0
  -25.5289  -32.7868   22.5282 N   0  0  0  0  0  0  0  0  0  0  0  0
  -20.6709  -28.9895   22.3006 N   0  0  0  0  0  0  0  0  0  0  0  0
  -19.2503  -26.7826   19.8147 N   0  3  0  0  0  0  0  0  0  0  0  0
  -22.6045  -15.9409   19.6345 O   0  0  0  0  0  0  0  0  0  0  0  0
  -26.4670  -30.6614   22.6869 O   0  0  0  0  0  0  0  0  0  0  0  0
  -22.1113  -31.4578   22.0970 O   0  0  0  0  0  0  0  0  0  0  0  0
  -21.2481  -26.8011   21.7958 O   0  0  0  0  0  0  0  0  0  0  0  0
  -31.9279  -14.8346   19.7138 O   0  0  0  0  0  0  0  0  0  0  0  0
  -20.9814   -9.7767   15.1674 O   0  0  0  0  0  0  0  0  0  0  0  0
  -27.7758  -25.3471   20.4930 O   0  0  0  0  0  0  0  0  0  1  0  0
  -23.1379   -7.7842   10.5001 F   0  0  0  0  0  0  0  0  0  0  0  0
  -19.8974  -10.4335   12.7106 F   0  0  0  0  0  0  0  0  0  0  0  0
  1  2  1  0  0  0  0
  1  5  2  0  0  0  0
  2  6  2  0  0  0  0
  3  8  2  0  0  0  0
  3 17  1  0  0  0  0
  4  9  1  0  0  0  0
  4 17  2  0  0  0  0
  5 19  1  0  0  0  0
  6 21  1  0  0  0  0
  7 10  2  0  0  0  0
  7 20  1  0  0  0  0
  8 23  1  0  0  0  0
  9 23  2  0  0  0  0
 10 24  1  0  0  0  0
 11 12  2  0  0  0  0
 11 25  1  0  0  0  0
 12 26  1  0  0  0  0
 13 14  2  0  0  0  0
 13 29  1  0  0  0  0
 14 30  1  0  0  0  0
 15 22  1  0  0  0  0
 15 24  2  0  0  0  0
 16 26  2  0  0  0  0
 16 27  1  0  0  0  0
 17 28  1  0  0  0  0
 18 28  1  0  0  0  0
 18 31  2  0  0  0  0
 18 32  1  0  0  0  0
 19 21  2  0  0  0  0
 19 37  1  0  0  0  0
 20 22  2  0  0  0  0
 20 38  1  0  0  0  0
 21 49  1  0  0  0  0
 22 39  1  0  0  0  0
 23 80  1  0  0  0  0
 24 81  1  0  0  0  0
 25 27  2  0  0  0  0
 25 80  1  0  0  0  0
 26 82  1  0  0  0  0
 27 83  1  0  0  0  0
 28 62  2  0  0  0  0
 29 58  1  0  0  0  0
 29 63  2  0  0  0  0
 30 64  2  0  0  0  0
 30 71  1  0  0  0  0
 31 65  1  0  0  0  0
 31 69  1  0  0  0  0
 32 70  1  0  0  0  0
 32 75  2  0  0  0  0
 33 50  1  0  0  0  0
 33 72  1  0  0  0  0
 33 76  2  0  0  0  0
 34 59  1  0  0  0  0
 34 66  1  0  0  0  0
 34 77  2  0  0  0  0
 35 60  1  0  0  0  0
 35 73  1  0  0  0  0
 35 78  2  0  0  0  0
 36 67  1  0  0  0  0
 36 68  1  0  0  0  0
 36 79  2  0  0  0  0
 37 40  1  0  0  0  0
 38 50  1  0  0  0  0
 39 66  1  0  0  0  0
 40 42  1  0  0  0  0
 41 43  1  0  0  0  0
 41 45  1  0  0  0  0
 42 49  1  0  0  0  0
 43 51  1  0  0  0  0
 44 46  1  0  0  0  0
 44 52  1  0  0  0  0
 45 67  1  0  0  0  0
 46 68  1  0  0  0  0
 47 51  1  0  0  0  0
 47 67  1  0  0  0  0
 48 52  1  0  0  0  0
 48 68  1  0  0  0  0
 49 72  1  0  0  0  0
 50 66  1  0  0  0  0
 51 65  1  0  0  0  0
 52 71  1  0  0  0  0
 53 60  1  0  0  0  0
 54 61  1  0  0  0  0
 55 61  1  0  0  0  0
 56 61  1  0  0  0  0
 57 74  1  0  0  0  0
 58 81  1  0  0  0  0
 59 61  1  0  0  0  0
 59 73  1  0  0  0  0
 60 74  1  0  0  0  0
 62 65  1  0  0  0  0
 63 64  1  0  0  0  0
M  CHG  1  74   1
M  ISO  4  36 100  58 101  68 100  81 101
M  END
> <Batch ID>
0187

> <Smiles>
CNC(C)C(=O)NC(C(=O)N1Cc2cc([101O:1][101CH2:1]c3ccc(NC4CC[100N:0]([100C:0](=O)N5CCCC(n6nc(-c7ccc(Oc8ccc(F)cc8F)cc7)c(C(N)=O)c6N)C5)C4)nn3)ccc2CC1C(=O)NC1CCCc2ccccc21)C(C)(C)C

> <Shape>
0.295

> <Color>
0.131

> <Negative vol penalty>
0.000

$$$$

  -OEChem-04052323173D

 82 91  0     1  0  0  0  0  0999 V2000
  -29.4158  -34.2683   24.0851 C   0  0  0  0  0  0  0  0  0  0  0  0
  -29.8865  -33.0993   23.4957 C   0  0  0  0  0  0  0  0  0  0  0  0
  -24.2273   -9.5751   21.4481 C   0  0  0  0  0  0  0  0  0  0  0  0
  -24.7818  -10.6825   23.5225 C   0  0  0  0  0  0  0  0  0  0  0  0
  -28.1481  -34.2937   24.6651 C   0  0  0  0  0  0  0  0  0  0  0  0
  -29.0901  -31.9547   23.4869 C   0  0  0  0  0  0  0  0  0  0  0  0
  -28.7938  -27.7099   19.0823 C   0  0  0  0  0  0  0  0  0  0  0  0
  -23.8498   -8.4351   22.1576 C   0  0  0  0  0  0  0  0  0  0  0  0
  -24.4043   -9.5425   24.2320 C   0  0  0  0  0  0  0  0  0  0  0  0
  -29.3918  -26.4581   18.9444 C   0  0  0  0  0  0  0  0  0  0  0  0
  -21.1824   -7.3872   23.9519 C   0  0  0  0  0  0  0  0  0  0  0  0
  -19.9890   -6.7632   23.5887 C   0  0  0  0  0  0  0  0  0  0  0  0
  -27.4034  -25.4175   19.8291 C   0  0  0  0  0  0  0  0  0  0  0  0
  -21.2027   -4.7363   23.0829 C   0  0  0  0  0  0  0  0  0  0  0  0
  -28.8407  -21.8835   19.9849 C   0  0  0  0  0  0  0  0  0  0  0  0
  -24.6933  -10.6989   22.1306 C   0  0  0  0  0  0  0  0  0  0  0  0
  -24.2653  -12.9635   21.0370 C   0  0  0  0  0  0  0  0  0  0  0  0
  -27.3320  -33.1516   24.6548 C   0  0  0  0  0  0  0  0  0  0  0  0
  -27.4981  -27.8260   19.6058 C   0  0  0  0  0  0  0  0  0  0  0  0
  -27.8109  -31.9645   24.0684 C   0  0  0  0  0  0  0  0  0  0  0  0
  -26.7902  -26.6718   19.9703 C   0  0  0  0  0  0  0  0  0  0  0  0
  -23.9383   -8.4187   23.5496 C   0  0  0  0  0  0  0  0  0  0  0  0
  -28.6976  -25.3118   19.3205 C   0  0  0  0  0  0  0  0  0  0  0  0
  -22.3860   -6.6858   23.8805 C   0  0  0  0  0  0  0  0  0  0  0  0
  -19.9991   -5.4377   23.1543 C   0  0  0  0  0  0  0  0  0  0  0  0
  -22.3962   -5.3604   23.4461 C   0  0  0  0  0  0  0  0  0  0  0  0
  -25.0839  -11.8766   21.3982 C   0  0  0  0  0  0  0  0  0  0  0  0
  -28.7430  -21.0701   21.0953 C   0  0  0  0  0  0  0  0  0  0  0  0
  -29.1701  -23.1998   20.2361 C   0  0  0  0  0  0  0  0  0  1  0  0
  -25.1038  -13.8146   20.3595 C   0  0  0  0  0  0  0  0  0  0  0  0
  -29.2643  -22.8019   22.4721 C   0  0  0  0  0  0  0  0  0  0  0  0
  -22.8716  -13.1841   21.2913 C   0  0  0  0  0  0  0  0  0  0  0  0
  -26.2292  -29.2210   22.1646 C   0  0  0  0  0  0  0  0  0  0  0  0
  -23.4342  -28.3121   20.7918 C   0  0  0  0  0  0  0  0  0  0  0  0
  -21.8021  -26.1944   18.6710 C   0  0  0  0  0  0  0  0  0  0  0  0
  -30.0106  -16.4244   19.9010 C   0  0  0  0  0  0  0  0  0  0  0  0
  -25.9878  -33.2138   25.3359 C   0  0  0  0  0  0  0  0  0  0  0  0
  -26.8570  -29.1816   19.7233 C   0  0  0  0  0  0  0  0  0  0  0  0
  -25.3891  -26.7408   20.5186 C   0  0  0  0  0  0  0  0  0  0  0  0
  -25.0575  -32.0655   24.9535 C   0  0  0  0  0  0  0  0  0  0  0  0
  -29.7800  -13.1472   18.6014 C   0  0  0  0  0  0  0  0  0  0  0  0
  -25.8003  -30.7345   25.0120 C   0  0  0  0  0  0  0  0  0  0  0  0
  -28.4919  -12.5931   19.2041 C   0  0  0  0  0  0  0  0  0  0  0  0
  -28.3417  -18.7504   22.1942 C   0  0  0  0  0  0  0  0  0  0  0  0
  -30.5139  -14.0244   19.6066 C   0  0  0  0  0  0  0  0  0  0  0  0
  -28.3702  -17.3288   21.6490 C   0  0  0  0  0  0  0  0  0  0  0  0
  -29.3725  -18.8120   20.0560 C   0  0  0  0  0  0  0  0  0  0  0  0
  -28.3807  -14.6477   20.7071 C   0  0  0  0  0  0  0  0  0  0  0  0
  -26.9668  -30.7095   24.0170 C   0  0  1  0  0  0  0  0  0  0  0  0
  -28.3866  -19.6103   20.9207 C   0  0  2  0  0  0  0  0  0  0  0  0
  -25.7277  -29.2218   20.7482 C   0  0  1  0  0  0  0  0  0  0  0  0
  -27.6082  -13.7326   19.7345 C   0  0  2  0  0  0  0  0  0  0  0  0
  -29.5015  -23.3125   23.8528 C   0  0  0  0  0  0  0  0  0  0  0  0
  -19.5136  -25.6725   17.7835 C   0  0  0  0  0  0  0  0  0  0  0  0
  -22.7201  -26.9627   23.4336 C   0  0  0  0  0  0  0  0  0  0  0  0
  -20.9350  -25.6924   22.2220 C   0  0  0  0  0  0  0  0  0  0  0  0
  -20.8298  -28.1819   22.3405 C   0  0  0  0  0  0  0  0  0  0  0  0
  -22.6242  -26.7685   15.8865 C   0  0  0  0  0  0  0  0  0  0  0  0
  -22.5597  -27.0835   20.8596 C   0  0  1  0  0  0  0  0  0  0  0  0
  -20.7986  -26.4550   17.5621 C   0  0  2  0  0  0  0  0  0  0  0  0
  -21.7883  -26.9786   22.2054 C   0  0  0  0  0  0  0  0  0  0  0  0
  -26.3455  -12.0214   20.9842 N   0  0  0  0  0  0  0  0  0  0  0  0
  -28.9491  -21.4977   22.3583 N   0  0  0  0  0  0  0  0  0  0  0  0
  -29.3897  -23.6948   21.4718 N   0  0  0  0  0  0  0  0  0  0  0  0
  -26.3260  -13.2092   20.3559 N   0  0  0  0  0  0  0  0  0  0  0  0
  -24.8079  -28.0896   20.6203 N   0  0  0  0  0  0  0  0  0  0  0  0
  -29.6556  -15.0900   20.1274 N   0  0  0  0  0  0  0  0  0  0  0  0
  -29.1989  -17.4172   20.4485 N   0  0  0  0  0  0  0  0  0  0  0  0
  -24.9075  -15.0143   19.7724 N   0  0  0  0  0  0  0  0  0  0  0  0
  -22.1595  -12.2082   22.0018 N   0  0  0  0  0  0  0  0  0  0  0  0
  -26.4801  -30.4810   22.6733 N   0  0  0  0  0  0  0  0  0  0  0  0
  -21.7013  -27.1279   19.6807 N   0  0  0  0  0  0  0  0  0  0  0  0
  -21.3691  -26.0586   16.2436 N   0  3  0  0  0  0  0  0  0  0  0  0
  -22.2717  -14.2084   20.8859 O   0  0  0  0  0  0  0  0  0  0  0  0
  -26.3760  -28.1561   22.7530 O   0  0  0  0  0  0  0  0  0  0  0  0
  -22.9168  -29.4284   20.8804 O   0  0  0  0  0  0  0  0  0  0  0  0
  -22.5934  -25.2543   18.6458 O   0  0  0  0  0  0  0  0  0  0  0  0
  -31.0347  -16.7190   19.2699 O   0  0  0  0  0  0  0  0  0  0  0  0
  -23.5699   -7.3065   24.2422 O   0  0  0  0  0  0  0  0  0  0  0  0
  -29.2877  -24.0708   19.1855 O   0  0  0  0  0  0  0  0  0  1  0  0
  -18.8528   -4.8381   22.8070 F   0  0  0  0  0  0  0  0  0  0  0  0
  -23.5492   -4.6811   23.3766 F   0  0  0  0  0  0  0  0  0  0  0  0
  1  2  1  0  0  0  0
  1  5  2  0  0  0  0
  2  6  2  0  0  0  0
  3  8  2  0  0  0  0
  3 16  1  0  0  0  0
  4  9  1  0  0  0  0
  4 16  2  0  0  0  0
  5 18  1  0  0  0  0
  6 20  1  0  0  0  0
  7 10  2  0  0  0  0
  7 19  1  0  0  0  0
  8 22  1  0  0  0  0
  9 22  2  0  0  0  0
 10 23  1  0  0  0  0
 11 12  2  0  0  0  0
 11 24  1  0  0  0  0
 12 25  1  0  0  0  0
 13 21  1  0  0  0  0
 13 23  2  0  0  0  0
 14 25  2  0  0  0  0
 14 26  1  0  0  0  0
 15 28  2  0  0  0  0
 15 29  1  0  0  0  0
 16 27  1  0  0  0  0
 17 27  1  0  0  0  0
 17 30  2  0  0  0  0
 17 32  1  0  0  0  0
 18 20  2  0  0  0  0
 18 37  1  0  0  0  0
 19 21  2  0  0  0  0
 19 38  1  0  0  0  0
 20 49  1  0  0  0  0
 21 39  1  0  0  0  0
 22 79  1  0  0  0  0
 23 80  1  0  0  0  0
 24 26  2  0  0  0  0
 24 79  1  0  0  0  0
 25 81  1  0  0  0  0
 26 82  1  0  0  0  0
 27 62  2  0  0  0  0
 28 50  1  0  0  0  0
 28 63  1  0  0  0  0
 29 64  2  0  0  0  0
 29 80  1  0  0  0  0
 30 65  1  0  0  0  0
 30 69  1  0  0  0  0
 31 53  1  0  0  0  0
 31 63  2  0  0  0  0
 31 64  1  0  0  0  0
 32 70  1  0  0  0  0
 32 74  2  0  0  0  0
 33 51  1  0  0  0  0
 33 71  1  0  0  0  0
 33 75  2  0  0  0  0
 34 59  1  0  0  0  0
 34 66  1  0  0  0  0
 34 76  2  0  0  0  0
 35 60  1  0  0  0  0
 35 72  1  0  0  0  0
 35 77  2  0  0  0  0
 36 67  1  0  0  0  0
 36 68  1  0  0  0  0
 36 78  2  0  0  0  0
 37 40  1  0  0  0  0
 38 51  1  0  0  0  0
 39 66  1  0  0  0  0
 40 42  1  0  0  0  0
 41 43  1  0  0  0  0
 41 45  1  0  0  0  0
 42 49  1  0  0  0  0
 43 52  1  0  0  0  0
 44 46  1  0  0  0  0
 44 50  1  0  0  0  0
 45 67  1  0  0  0  0
 46 68  1  0  0  0  0
 47 50  1  0  0  0  0
 47 68  1  0  0  0  0
 48 52  1  0  0  0  0
 48 67  1  0  0  0  0
 49 71  1  0  0  0  0
 51 66  1  0  0  0  0
 52 65  1  0  0  0  0
 54 60  1  0  0  0  0
 55 61  1  0  0  0  0
 56 61  1  0  0  0  0
 57 61  1  0  0  0  0
 58 73  1  0  0  0  0
 59 61  1  0  0  0  0
 59 72  1  0  0  0  0
 60 73  1  0  0  0  0
 62 65  1  0  0  0  0
M  CHG  1  73   1
M  ISO  4  29 101  36 100  68 100  80 101
M  END
> <Batch ID>
0187

> <Smiles>
CNC(C)C(=O)NC(C(=O)N1Cc2cc([101O:1][101c:1]3cc(C4CC[100N:0]([100C:0](=O)N5CCCC(n6nc(-c7ccc(Oc8ccc(F)cc8F)cc7)c(C(N)=O)c6N)C5)C4)nc(C)n3)ccc2CC1C(=O)NC1CCCc2ccccc21)C(C)(C)C

> <Shape>
0.338

> <Color>
0.123

> <Negative vol penalty>
0.000

$$$$

  -OEChem-04052323173D

 84 93  0     1  0  0  0  0  0999 V2000
  -19.5920  -26.0320   25.2738 C   0  0  0  0  0  0  0  0  0  0  0  0
  -20.5716  -25.7614   24.3237 C   0  0  0  0  0  0  0  0  0  0  0  0
  -24.6640   -9.3095   22.0284 C   0  0  0  0  0  0  0  0  0  0  0  0
  -23.7113   -9.5467   19.8209 C   0  0  0  0  0  0  0  0  0  0  0  0
  -18.8027  -27.1750   25.1535 C   0  0  0  0  0  0  0  0  0  0  0  0
  -20.7617  -26.6332   23.2521 C   0  0  0  0  0  0  0  0  0  0  0  0
  -25.6550  -27.6057   22.3834 C   0  0  0  0  0  0  0  0  0  0  0  0
  -23.4841   -8.7137   22.4736 C   0  0  0  0  0  0  0  0  0  0  0  0
  -22.5313   -8.9508   20.2661 C   0  0  0  0  0  0  0  0  0  0  0  0
  -26.3884  -26.6297   21.7101 C   0  0  0  0  0  0  0  0  0  0  0  0
  -22.0051   -5.6782   22.2954 C   0  0  0  0  0  0  0  0  0  0  0  0
  -22.1146   -4.5294   23.0788 C   0  0  0  0  0  0  0  0  0  0  0  0
  -26.1573  -27.8791   19.6595 C   0  0  0  0  0  0  0  0  0  0  0  0
  -20.9635   -5.6502   24.8832 C   0  0  0  0  0  0  0  0  0  0  0  0
  -30.4031  -23.3551   18.0517 C   0  0  0  0  0  0  0  0  0  0  0  0
  -24.7776   -9.7261   20.7020 C   0  0  0  0  0  0  0  0  0  0  0  0
  -27.1182   -9.6974   19.6879 C   0  0  0  0  0  0  0  0  0  0  0  0
  -18.9897  -28.0663   24.0852 C   0  0  0  0  0  0  0  0  0  0  0  0
  -25.1571  -28.7222   21.6964 C   0  0  0  0  0  0  0  0  0  0  0  0
  -19.9733  -27.7885   23.1167 C   0  0  0  0  0  0  0  0  0  0  0  0
  -25.4201  -28.8692   20.3269 C   0  0  0  0  0  0  0  0  0  0  0  0
  -29.7504  -24.2618   18.8618 C   0  0  0  0  0  0  0  0  0  0  0  0
  -22.4177   -8.5343   21.5925 C   0  0  0  0  0  0  0  0  0  0  0  0
  -26.6372  -26.7648   20.3474 C   0  0  0  0  0  0  0  0  0  0  0  0
  -21.3749   -6.8131   22.8059 C   0  0  0  0  0  0  0  0  0  0  0  0
  -21.5938   -4.5154   24.3727 C   0  0  0  0  0  0  0  0  0  0  0  0
  -20.8540   -6.7991   24.0998 C   0  0  0  0  0  0  0  0  0  0  0  0
  -25.9960  -10.3422   20.2416 C   0  0  0  0  0  0  0  0  0  0  0  0
  -28.6274  -23.7854   19.5071 C   0  0  0  0  0  0  0  0  0  0  0  0
  -27.9996  -10.7151   19.4159 C   0  0  0  0  0  0  0  0  0  0  0  0
  -28.8917  -21.7355   18.5611 C   0  0  0  0  0  0  0  0  0  0  0  0
  -27.3437   -8.3031   19.4412 C   0  0  0  0  0  0  0  0  0  0  0  0
  -22.2575  -29.8812   21.1027 C   0  0  0  0  0  0  0  0  0  0  0  0
  -23.9310  -32.3589   19.8448 C   0  0  0  0  0  0  0  0  0  0  0  0
  -26.8403  -33.4839   18.4601 C   0  0  0  0  0  0  0  0  0  0  0  0
  -27.3866  -16.3294   18.1786 C   0  0  0  0  0  0  0  0  0  0  0  0
  -18.0805  -29.2642   23.9714 C   0  0  0  0  0  0  0  0  0  0  0  0
  -24.3906  -29.7796   22.4426 C   0  0  0  0  0  0  0  0  0  0  0  0
  -24.9251  -30.0592   19.5476 C   0  0  0  0  0  0  0  0  0  0  0  0
  -18.5973  -30.3322   23.0109 C   0  0  0  0  0  0  0  0  0  0  0  0
  -29.2521  -15.0869   20.8834 C   0  0  0  0  0  0  0  0  0  0  0  0
  -19.0664  -29.6952   21.7067 C   0  0  0  0  0  0  0  0  0  0  0  0
  -28.7343  -13.6519   20.9757 C   0  0  0  0  0  0  0  0  0  0  0  0
  -28.1296  -16.0832   20.5885 C   0  0  0  0  0  0  0  0  0  0  0  0
  -29.1871  -19.5054   17.5279 C   0  0  0  0  0  0  0  0  0  0  0  0
  -27.7137  -19.8072   19.5240 C   0  0  0  0  0  0  0  0  0  0  0  0
  -28.3137  -18.3354   17.0830 C   0  0  0  0  0  0  0  0  0  0  0  0
  -26.8601  -18.6414   19.0375 C   0  0  0  0  0  0  0  0  0  0  0  0
  -26.8051  -14.3080   19.4874 C   0  0  0  0  0  0  0  0  0  0  0  0
  -20.2263  -28.7230   21.9536 C   0  0  1  0  0  0  0  0  0  0  0  0
  -23.4929  -30.6176   21.5375 C   0  0  1  0  0  0  0  0  0  0  0  0
  -27.9195  -13.2771   19.7251 C   0  0  2  0  0  0  0  0  0  0  0  0
  -30.2455  -25.6537   19.0126 C   0  0  0  0  0  0  0  0  0  0  0  0
  -27.8950  -35.5476   17.4976 C   0  0  0  0  0  0  0  0  0  0  0  0
  -22.3126  -31.9891   17.2847 C   0  0  0  0  0  0  0  0  0  0  0  0
  -24.0140  -33.3844   16.0903 C   0  0  0  0  0  0  0  0  0  0  0  0
  -22.6791  -34.3712   17.9522 C   0  0  0  0  0  0  0  0  0  0  0  0
  -28.9654  -33.4990   20.5198 C   0  0  0  0  0  0  0  0  0  0  0  0
  -27.8425  -24.6764   20.4124 C   0  0  0  0  0  0  0  0  0  1  0  0
  -24.4904  -32.6888   18.4820 C   0  0  1  0  0  0  0  0  0  0  0  0
  -27.6854  -34.7111   18.7503 C   0  0  2  0  0  0  0  0  0  0  0  0
  -23.3818  -33.0849   17.4663 C   0  0  0  0  0  0  0  0  0  0  0  0
  -30.0000  -22.0794   17.8777 N   0  0  0  0  0  0  0  0  0  0  0  0
  -26.1481  -11.6670   20.3178 N   0  0  0  0  0  0  0  0  0  0  0  0
  -28.1679  -22.5234   19.3790 N   0  0  0  0  0  0  0  0  0  0  0  0
  -27.3762  -11.8629   19.8084 N   0  0  0  0  0  0  0  0  0  0  0  0
  -28.4444  -20.4173   18.4046 N   0  0  0  0  0  0  0  0  0  0  0  0
  -24.1750  -31.0629   20.3206 N   0  0  0  0  0  0  0  0  0  0  0  0
  -27.3558  -15.6629   19.4126 N   0  0  0  0  0  0  0  0  0  0  0  0
  -27.6312  -17.7113   18.2100 N   0  0  0  0  0  0  0  0  0  0  0  0
  -29.2393  -10.7311   18.8818 N   0  0  0  0  0  0  0  0  0  0  0  0
  -26.3334   -7.3927   19.7802 N   0  0  0  0  0  0  0  0  0  0  0  0
  -21.4626  -29.4500   22.1476 N   0  0  0  0  0  0  0  0  0  0  0  0
  -25.5018  -33.7186   18.6943 N   0  0  0  0  0  0  0  0  0  0  0  0
  -29.0208  -34.3081   19.2751 N   0  3  0  0  0  0  0  0  0  0  0  0
  -28.4160   -7.8755   18.9504 O   0  0  0  0  0  0  0  0  0  0  0  0
  -22.0406  -29.7177   19.9078 O   0  0  0  0  0  0  0  0  0  0  0  0
  -23.3068  -33.2218   20.4673 O   0  0  0  0  0  0  0  0  0  0  0  0
  -27.3190  -32.4244   18.0618 O   0  0  0  0  0  0  0  0  0  0  0  0
  -27.2097  -15.7279   17.1120 O   0  0  0  0  0  0  0  0  0  0  0  0
  -21.2663   -7.9526   22.0265 O   0  0  0  0  0  0  0  0  0  0  0  0
  -27.3663  -25.7945   19.6746 O   0  0  0  0  0  0  0  0  0  1  0  0
  -21.6976   -3.4116   25.1244 F   0  0  0  0  0  0  0  0  0  0  0  0
  -20.2464   -7.8859   24.5952 F   0  0  0  0  0  0  0  0  0  0  0  0
  1  2  1  0  0  0  0
  1  5  2  0  0  0  0
  2  6  2  0  0  0  0
  3  8  2  0  0  0  0
  3 16  1  0  0  0  0
  4  9  1  0  0  0  0
  4 16  2  0  0  0  0
  5 18  1  0  0  0  0
  6 20  1  0  0  0  0
  7 10  2  0  0  0  0
  7 19  1  0  0  0  0
  8 23  1  0  0  0  0
  9 23  2  0  0  0  0
 10 24  1  0  0  0  0
 11 12  2  0  0  0  0
 11 25  1  0  0  0  0
 12 26  1  0  0  0  0
 13 21  1  0  0  0  0
 13 24  2  0  0  0  0
 14 26  2  0  0  0  0
 14 27  1  0  0  0  0
 15 22  1  0  0  0  0
 15 63  2  0  0  0  0
 16 28  1  0  0  0  0
 17 28  1  0  0  0  0
 17 30  2  0  0  0  0
 17 32  1  0  0  0  0
 18 20  2  0  0  0  0
 18 37  1  0  0  0  0
 19 21  2  0  0  0  0
 19 38  1  0  0  0  0
 20 50  1  0  0  0  0
 21 39  1  0  0  0  0
 22 29  2  0  0  0  0
 22 53  1  0  0  0  0
 23 81  1  0  0  0  0
 24 82  1  0  0  0  0
 25 27  2  0  0  0  0
 25 81  1  0  0  0  0
 26 83  1  0  0  0  0
 27 84  1  0  0  0  0
 28 64  2  0  0  0  0
 29 59  1  0  0  0  0
 29 65  1  0  0  0  0
 30 66  1  0  0  0  0
 30 71  1  0  0  0  0
 31 63  1  0  0  0  0
 31 65  2  0  0  0  0
 31 67  1  0  0  0  0
 32 72  1  0  0  0  0
 32 76  2  0  0  0  0
 33 51  1  0  0  0  0
 33 73  1  0  0  0  0
 33 77  2  0  0  0  0
 34 60  1  0  0  0  0
 34 68  1  0  0  0  0
 34 78  2  0  0  0  0
 35 61  1  0  0  0  0
 35 74  1  0  0  0  0
 35 79  2  0  0  0  0
 36 69  1  0  0  0  0
 36 70  1  0  0  0  0
 36 80  2  0  0  0  0
 37 40  1  0  0  0  0
 38 51  1  0  0  0  0
 39 68  1  0  0  0  0
 40 42  1  0  0  0  0
 41 43  1  0  0  0  0
 41 44  1  0  0  0  0
 42 50  1  0  0  0  0
 43 52  1  0  0  0  0
 44 69  1  0  0  0  0
 45 47  1  0  0  0  0
 45 67  1  0  0  0  0
 46 48  1  0  0  0  0
 46 67  1  0  0  0  0
 47 70  1  0  0  0  0
 48 70  1  0  0  0  0
 49 52  1  0  0  0  0
 49 69  1  0  0  0  0
 50 73  1  0  0  0  0
 51 68  1  0  0  0  0
 52 66  1  0  0  0  0
 54 61  1  0  0  0  0
 55 62  1  0  0  0  0
 56 62  1  0  0  0  0
 57 62  1  0  0  0  0
 58 75  1  0  0  0  0
 59 82  1  0  0  0  0
 60 62  1  0  0  0  0
 60 74  1  0  0  0  0
 61 75  1  0  0  0  0
 64 66  1  0  0  0  0
M  CHG  1  75   1
M  ISO  4  36 100  59 101  70 100  82 101
M  END
> <Batch ID>
0187

> <Smiles>
CNC(C)C(=O)NC(C(=O)N1Cc2cc([101O:1][101CH2:1]c3nc(N4CC[100N:0]([100C:0](=O)N5CCCC(n6nc(-c7ccc(Oc8ccc(F)cc8F)cc7)c(C(N)=O)c6N)C5)CC4)ncc3C)ccc2CC1C(=O)NC1CCCc2ccccc21)C(C)(C)C

> <Shape>
0.279

> <Color>
0.113

> <Negative vol penalty>
0.000

$$$$

  -OEChem-04052323173D

 82 91  0     1  0  0  0  0  0999 V2000
  -21.5227  -12.6705   21.1834 C   0  0  0  0  0  0  0  0  0  0  0  0
  -21.6913  -13.9567   21.6859 C   0  0  0  0  0  0  0  0  0  0  0  0
  -28.5407  -27.0343   19.0447 C   0  0  0  0  0  0  0  0  0  0  0  0
  -28.1025  -28.7253   20.7137 C   0  0  0  0  0  0  0  0  0  0  0  0
  -22.6234  -11.9595   20.7071 C   0  0  0  0  0  0  0  0  0  0  0  0
  -22.9611  -14.5323   21.7136 C   0  0  0  0  0  0  0  0  0  0  0  0
  -22.9548  -19.3301   20.0930 C   0  0  0  0  0  0  0  0  0  0  0  0
  -29.8267  -27.5440   18.8658 C   0  0  0  0  0  0  0  0  0  0  0  0
  -29.3885  -29.2350   20.5349 C   0  0  0  0  0  0  0  0  0  0  0  0
  -22.5025  -20.3025   20.9839 C   0  0  0  0  0  0  0  0  0  0  0  0
  -32.8092  -27.3920   20.4515 C   0  0  0  0  0  0  0  0  0  0  0  0
  -33.8643  -26.4818   20.3887 C   0  0  0  0  0  0  0  0  0  0  0  0
  -24.7862  -20.8726   21.5116 C   0  0  0  0  0  0  0  0  0  0  0  0
  -34.4070  -27.2643   18.1683 C   0  0  0  0  0  0  0  0  0  0  0  0
  -20.7389  -25.2449   25.3814 C   0  0  0  0  0  0  0  0  0  0  0  0
  -21.4280  -23.0963   25.0097 C   0  0  0  0  0  0  0  0  0  0  0  0
  -27.6786  -27.6250   19.9685 C   0  0  0  0  0  0  0  0  0  0  0  0
  -25.9494  -26.1002   21.0607 C   0  0  0  0  0  0  0  0  0  0  0  0
  -23.9058  -12.5304   20.7200 C   0  0  0  0  0  0  0  0  0  0  0  0
  -24.3285  -19.1139   19.9125 C   0  0  0  0  0  0  0  0  0  0  0  0
  -24.0802  -13.8278   21.2383 C   0  0  0  0  0  0  0  0  0  0  0  0
  -25.2534  -19.8987   20.6159 C   0  0  0  0  0  0  0  0  0  0  0  0
  -30.2506  -28.6444   19.6110 C   0  0  0  0  0  0  0  0  0  0  0  0
  -23.4182  -21.0720   21.6955 C   0  0  0  0  0  0  0  0  0  0  0  0
  -32.5529  -28.2383   19.3727 C   0  0  0  0  0  0  0  0  0  0  0  0
  -34.6633  -26.4180   19.2471 C   0  0  0  0  0  0  0  0  0  0  0  0
  -33.3519  -28.1744   18.2311 C   0  0  0  0  0  0  0  0  0  0  0  0
  -26.3498  -27.0993   20.1533 C   0  0  0  0  0  0  0  0  0  0  0  0
  -20.5802  -25.4286   24.0255 C   0  0  0  0  0  0  0  0  0  0  0  0
  -21.2686  -23.2797   23.6538 C   0  0  0  0  0  0  0  0  0  0  0  0
  -24.5997  -25.9629   20.8466 C   0  0  0  0  0  0  0  0  0  0  0  0
  -26.7280  -25.3623   22.0120 C   0  0  0  0  0  0  0  0  0  0  0  0
  -26.2935  -16.6596   20.3808 C   0  0  0  0  0  0  0  0  0  0  0  0
  -28.4504  -18.6171   18.9531 C   0  0  0  0  0  0  0  0  0  0  0  0
  -29.4010  -21.8000   18.1705 C   0  0  0  0  0  0  0  0  0  0  0  0
  -19.6429  -28.5208   20.1985 C   0  0  0  0  0  0  0  0  0  0  0  0
  -25.0727  -11.7052   20.2381 C   0  0  0  0  0  0  0  0  0  0  0  0
  -24.8003  -18.0793   18.9279 C   0  0  0  0  0  0  0  0  0  0  0  0
  -26.7388  -19.7197   20.4431 C   0  0  0  0  0  0  0  0  0  0  0  0
  -26.3265  -12.5292   19.9565 C   0  0  0  0  0  0  0  0  0  0  0  0
  -21.6175  -27.7893   17.1883 C   0  0  0  0  0  0  0  0  0  0  0  0
  -26.5943  -13.5016   21.1009 C   0  0  0  0  0  0  0  0  0  0  0  0
  -23.0066  -27.5098   17.7680 C   0  0  0  0  0  0  0  0  0  0  0  0
  -18.5851  -26.9176   23.2838 C   0  0  0  0  0  0  0  0  0  0  0  0
  -20.8256  -28.7761   18.0442 C   0  0  0  0  0  0  0  0  0  0  0  0
  -18.4788  -28.1154   22.3536 C   0  0  0  0  0  0  0  0  0  0  0  0
  -20.6353  -27.1029   22.0822 C   0  0  0  0  0  0  0  0  0  0  0  0
  -22.1298  -28.1556   20.0395 C   0  0  0  0  0  0  0  0  0  0  0  0
  -25.4379  -14.4958   21.2621 C   0  0  1  0  0  0  0  0  0  0  0  0
  -20.0988  -26.7558   23.4809 C   0  0  2  0  0  0  0  0  0  0  0  0
  -26.2194  -17.5933   19.2058 C   0  0  1  0  0  0  0  0  0  0  0  0
  -22.9204  -27.1025   19.2520 C   0  0  2  0  0  0  0  0  0  0  0  0
  -31.2300  -23.0856   17.0306 C   0  0  0  0  0  0  0  0  0  0  0  0
  -30.2637  -18.1727   21.3665 C   0  0  0  0  0  0  0  0  0  0  0  0
  -31.5970  -20.1647   20.6438 C   0  0  0  0  0  0  0  0  0  0  0  0
  -31.4422  -18.1649   19.1607 C   0  0  0  0  0  0  0  0  0  0  0  0
  -27.5269  -22.9202   16.1726 C   0  0  0  0  0  0  0  0  0  0  0  0
  -21.5669  -22.1753   22.7012 C   0  0  0  0  0  0  0  0  0  1  0  0
  -29.4253  -19.6648   19.4335 C   0  0  1  0  0  0  0  0  0  0  0  0
  -29.8731  -22.4185   16.8671 C   0  0  2  0  0  0  0  0  0  0  0  0
  -30.6541  -19.0441   20.1560 C   0  0  0  0  0  0  0  0  0  0  0  0
  -21.1657  -24.0754   25.8979 N   0  0  0  0  0  0  0  0  0  0  0  0
  -25.3364  -27.5636   19.4174 N   0  0  0  0  0  0  0  0  0  0  0  0
  -20.8422  -24.4493   23.1373 N   0  0  0  0  0  0  0  0  0  0  0  0
  -24.2859  -26.8531   19.8621 N   0  0  0  0  0  0  0  0  0  0  0  0
  -27.1506  -18.6912   19.4735 N   0  0  0  0  0  0  0  0  0  0  0  0
  -20.8059  -28.3490   19.4417 N   0  0  0  0  0  0  0  0  0  0  0  0
  -19.6633  -28.0380   21.5094 N   0  0  0  0  0  0  0  0  0  0  0  0
  -23.6625  -25.1686   21.4063 N   0  0  0  0  0  0  0  0  0  0  0  0
  -28.1011  -25.6285   22.1018 N   0  0  0  0  0  0  0  0  0  0  0  0
  -25.5130  -15.5269   20.2493 N   0  0  0  0  0  0  0  0  0  0  0  0
  -29.7635  -20.4731   18.2670 N   0  0  0  0  0  0  0  0  0  0  0  0
  -28.8989  -23.4438   16.3975 N   0  3  0  0  0  0  0  0  0  0  0  0
  -26.2240  -24.4811   22.7489 O   0  0  0  0  0  0  0  0  0  0  0  0
  -27.0070  -16.9451   21.3352 O   0  0  0  0  0  0  0  0  0  0  0  0
  -28.8263  -17.7686   18.1404 O   0  0  0  0  0  0  0  0  0  0  0  0
  -28.7766  -22.4317   19.0199 O   0  0  0  0  0  0  0  0  0  0  0  0
  -18.6266  -29.0285   19.7083 O   0  0  0  0  0  0  0  0  0  0  0  0
  -31.5055  -29.1419   19.4369 O   0  0  0  0  0  0  0  0  0  0  0  0
  -22.9766  -22.0276   22.5719 O   0  0  0  0  0  0  0  0  0  1  0  0
  -35.6774  -25.5450   19.1875 F   0  0  0  0  0  0  0  0  0  0  0  0
  -33.1113  -28.9857   17.1920 F   0  0  0  0  0  0  0  0  0  0  0  0
  1  2  1  0  0  0  0
  1  5  2  0  0  0  0
  2  6  2  0  0  0  0
  3  8  2  0  0  0  0
  3 17  1  0  0  0  0
  4  9  1  0  0  0  0
  4 17  2  0  0  0  0
  5 19  1  0  0  0  0
  6 21  1  0  0  0  0
  7 10  2  0  0  0  0
  7 20  1  0  0  0  0
  8 23  1  0  0  0  0
  9 23  2  0  0  0  0
 10 24  1  0  0  0  0
 11 12  2  0  0  0  0
 11 25  1  0  0  0  0
 12 26  1  0  0  0  0
 13 22  1  0  0  0  0
 13 24  2  0  0  0  0
 14 26  2  0  0  0  0
 14 27  1  0  0  0  0
 15 29  2  0  0  0  0
 15 62  1  0  0  0  0
 16 30  1  0  0  0  0
 16 62  2  0  0  0  0
 17 28  1  0  0  0  0
 18 28  1  0  0  0  0
 18 31  2  0  0  0  0
 18 32  1  0  0  0  0
 19 21  2  0  0  0  0
 19 37  1  0  0  0  0
 20 22  2  0  0  0  0
 20 38  1  0  0  0  0
 21 49  1  0  0  0  0
 22 39  1  0  0  0  0
 23 79  1  0  0  0  0
 24 80  1  0  0  0  0
 25 27  2  0  0  0  0
 25 79  1  0  0  0  0
 26 81  1  0  0  0  0
 27 82  1  0  0  0  0
 28 63  2  0  0  0  0
 29 50  1  0  0  0  0
 29 64  1  0  0  0  0
 30 58  1  0  0  0  0
 30 64  2  0  0  0  0
 31 65  1  0  0  0  0
 31 69  1  0  0  0  0
 32 70  1  0  0  0  0
 32 74  2  0  0  0  0
 33 51  1  0  0  0  0
 33 71  1  0  0  0  0
 33 75  2  0  0  0  0
 34 59  1  0  0  0  0
 34 66  1  0  0  0  0
 34 76  2  0  0  0  0
 35 60  1  0  0  0  0
 35 72  1  0  0  0  0
 35 77  2  0  0  0  0
 36 67  1  0  0  0  0
 36 68  1  0  0  0  0
 36 78  2  0  0  0  0
 37 40  1  0  0  0  0
 38 51  1  0  0  0  0
 39 66  1  0  0  0  0
 40 42  1  0  0  0  0
 41 43  1  0  0  0  0
 41 45  1  0  0  0  0
 42 49  1  0  0  0  0
 43 52  1  0  0  0  0
 44 46  1  0  0  0  0
 44 50  1  0  0  0  0
 45 67  1  0  0  0  0
 46 68  1  0  0  0  0
 47 50  1  0  0  0  0
 47 68  1  0  0  0  0
 48 52  1  0  0  0  0
 48 67  1  0  0  0  0
 49 71  1  0  0  0  0
 51 66  1  0  0  0  0
 52 65  1  0  0  0  0
 53 60  1  0  0  0  0
 54 61  1  0  0  0  0
 55 61  1  0  0  0  0
 56 61  1  0  0  0  0
 57 73  1  0  0  0  0
 58 80  1  0  0  0  0
 59 61  1  0  0  0  0
 59 72  1  0  0  0  0
 60 73  1  0  0  0  0
 63 65  1  0  0  0  0
M  CHG  1  73   1
M  ISO  4  36 100  58 101  68 100  80 101
M  END
> <Batch ID>
0187

> <Smiles>
CNC(C)C(=O)NC(C(=O)N1Cc2cc([101O:1][101CH2:1]c3cncc(C4CC[100N:0]([100C:0](=O)N5CCCC(n6nc(-c7ccc(Oc8ccc(F)cc8F)cc7)c(C(N)=O)c6N)C5)C4)n3)ccc2CC1C(=O)NC1CCCc2ccccc21)C(C)(C)C

> <Shape>
0.190

> <Color>
0.063

> <Negative vol penalty>
0.000

$$$$

  -OEChem-04052323173D

 87 96  0     1  0  0  0  0  0999 V2000
  -18.5830  -28.0118   22.7354 C   0  0  0  0  0  0  0  0  0  0  0  0
  -19.9550  -28.0973   22.9494 C   0  0  0  0  0  0  0  0  0  0  0  0
  -26.3836  -12.7883   21.6882 C   0  0  0  0  0  0  0  0  0  0  0  0
  -25.7599  -13.8766   19.6234 C   0  0  0  0  0  0  0  0  0  0  0  0
  -18.0596  -26.9579   21.9875 C   0  0  0  0  0  0  0  0  0  0  0  0
  -20.8043  -27.1283   22.4163 C   0  0  0  0  0  0  0  0  0  0  0  0
  -24.9206  -29.1317   20.2513 C   0  0  0  0  0  0  0  0  0  0  0  0
  -25.1376  -12.1631   21.7351 C   0  0  0  0  0  0  0  0  0  0  0  0
  -24.5139  -13.2513   19.6702 C   0  0  0  0  0  0  0  0  0  0  0  0
  -25.9446  -29.5528   21.0985 C   0  0  0  0  0  0  0  0  0  0  0  0
  -23.6219   -9.5171   20.2741 C   0  0  0  0  0  0  0  0  0  0  0  0
  -23.5899   -8.1584   20.5877 C   0  0  0  0  0  0  0  0  0  0  0  0
  -27.1511  -27.5139   20.6439 C   0  0  0  0  0  0  0  0  0  0  0  0
  -22.2235   -8.6370   22.5219 C   0  0  0  0  0  0  0  0  0  0  0  0
  -32.6187  -25.8595   23.2733 C   0  0  0  0  0  0  0  0  0  0  0  0
  -26.6947  -13.6452   20.6324 C   0  0  0  0  0  0  0  0  0  0  0  0
  -29.1540  -13.8070   19.9739 C   0  0  0  0  0  0  0  0  0  0  0  0
  -18.9039  -25.9809   21.4369 C   0  0  0  0  0  0  0  0  0  0  0  0
  -24.9993  -27.8916   19.6014 C   0  0  0  0  0  0  0  0  0  0  0  0
  -20.2916  -26.0597   21.6614 C   0  0  0  0  0  0  0  0  0  0  0  0
  -26.1280  -27.0805   19.7869 C   0  0  0  0  0  0  0  0  0  0  0  0
  -24.2028  -12.3945   20.7260 C   0  0  0  0  0  0  0  0  0  0  0  0
  -27.0587  -28.7426   21.2972 C   0  0  0  0  0  0  0  0  0  0  0  0
  -22.9548  -10.4359   21.0844 C   0  0  0  0  0  0  0  0  0  0  0  0
  -22.8906   -7.7183   21.7116 C   0  0  0  0  0  0  0  0  0  0  0  0
  -22.2556   -9.9958   22.2083 C   0  0  0  0  0  0  0  0  0  0  0  0
  -27.9814  -14.2918   20.5838 C   0  0  0  0  0  0  0  0  0  0  0  0
  -32.7113  -26.9265   24.1331 C   0  0  0  0  0  0  0  0  0  0  0  0
  -31.3761  -25.2709   23.5754 C   0  0  0  0  0  0  0  0  0  0  0  0
  -30.0907  -14.7845   20.2051 C   0  0  0  0  0  0  0  0  0  0  0  0
  -29.3765  -12.5826   19.2618 C   0  0  0  0  0  0  0  0  0  0  0  0
  -23.2713  -25.2240   19.6425 C   0  0  0  0  0  0  0  0  0  0  0  0
  -25.2765  -24.3508   17.2469 C   0  0  0  0  0  0  0  0  0  0  0  0
  -28.3050  -24.7309   15.7203 C   0  0  0  0  0  0  0  0  0  0  0  0
  -29.8029  -20.4965   21.0520 C   0  0  0  0  0  0  0  0  0  0  0  0
  -18.2874  -24.8344   20.6752 C   0  0  0  0  0  0  0  0  0  0  0  0
  -23.8986  -27.4637   18.6698 C   0  0  0  0  0  0  0  0  0  0  0  0
  -26.2700  -25.7494   19.0968 C   0  0  0  0  0  0  0  0  0  0  0  0
  -19.2913  -24.0550   19.8296 C   0  0  0  0  0  0  0  0  0  0  0  0
  -31.2334  -18.2254   23.3180 C   0  0  0  0  0  0  0  0  0  0  0  0
  -20.5479  -23.7500   20.6388 C   0  0  0  0  0  0  0  0  0  0  0  0
  -30.6713  -16.8971   22.8124 C   0  0  0  0  0  0  0  0  0  0  0  0
  -30.1900  -19.3429   23.2745 C   0  0  0  0  0  0  0  0  0  0  0  0
  -31.7580  -23.5476   21.8398 C   0  0  0  0  0  0  0  0  0  0  0  0
  -30.0245  -23.2203   23.6101 C   0  0  0  0  0  0  0  0  0  0  0  0
  -30.9270  -22.6862   20.8926 C   0  0  0  0  0  0  0  0  0  0  0  0
  -29.2191  -22.3763   22.6286 C   0  0  0  0  0  0  0  0  0  0  0  0
  -28.9902  -18.1895   21.4446 C   0  0  0  0  0  0  0  0  0  0  0  0
  -21.2477  -25.0416   21.0788 C   0  0  1  0  0  0  0  0  0  0  0  0
  -23.8458  -25.9533   18.4611 C   0  0  1  0  0  0  0  0  0  0  0  0
  -30.0329  -17.0610   21.4217 C   0  0  2  0  0  0  0  0  0  0  0  0
  -33.7705  -27.9361   24.3134 C   0  0  0  0  0  0  0  0  0  0  0  0
  -29.6706  -23.8525   13.8069 C   0  0  0  0  0  0  0  0  0  0  0  0
  -25.8761  -21.8188   18.8404 C   0  0  0  0  0  0  0  0  0  0  0  0
  -27.8900  -21.4693   17.3946 C   0  0  0  0  0  0  0  0  0  0  0  0
  -25.6116  -21.4641   16.3790 C   0  0  0  0  0  0  0  0  0  0  0  0
  -28.4277  -27.3934   14.4338 C   0  0  0  0  0  0  0  0  0  0  0  0
  -31.1899  -27.8394   25.9127 C   0  0  0  0  0  0  0  0  0  0  0  0
  -30.7183  -29.1902   25.3905 C   0  0  0  0  0  0  0  0  0  0  0  0
  -28.9204  -30.3001   24.0584 C   0  0  0  0  0  0  0  0  0  0  0  0
  -27.6984  -29.9963   23.2143 C   0  0  0  0  0  0  0  0  0  1  0  0
  -26.6101  -23.6473   17.1720 C   0  0  1  0  0  0  0  0  0  0  0  0
  -28.6815  -24.9146   14.2612 C   0  0  2  0  0  0  0  0  0  0  0  0
  -26.4937  -22.1240   17.4612 C   0  0  0  0  0  0  0  0  0  0  0  0
  -28.1549  -15.4845   21.1594 N   0  0  0  0  0  0  0  0  0  0  0  0
  -30.7260  -25.9108   24.5511 N   0  0  0  0  0  0  0  0  0  0  0  0
  -31.5634  -26.9125   24.8696 N   0  0  0  0  0  0  0  0  0  0  0  0
  -29.4474  -15.7573   20.9123 N   0  0  0  0  0  0  0  0  0  0  0  0
  -30.9220  -24.1356   22.8920 N   0  0  0  0  0  0  0  0  0  0  0  0
  -25.1645  -25.3723   18.2007 N   0  0  0  0  0  0  0  0  0  0  0  0
  -29.5804  -19.4344   21.9410 N   0  0  0  0  0  0  0  0  0  0  0  0
  -30.0758  -21.7515   21.6186 N   0  0  0  0  0  0  0  0  0  0  0  0
  -31.3936  -14.8982   19.8707 N   0  0  0  0  0  0  0  0  0  0  0  0
  -28.3055  -11.6904   19.1160 N   0  0  0  0  0  0  0  0  0  0  0  0
  -21.9888  -25.6157   19.9762 N   0  0  0  0  0  0  0  0  0  0  0  0
  -27.1666  -23.9658   15.8615 N   0  0  0  0  0  0  0  0  0  0  0  0
  -29.3004  -26.2539   14.0506 N   0  3  0  0  0  0  0  0  0  0  0  0
  -29.4938  -29.0252   24.5695 N   0  3  0  0  0  0  0  0  0  0  0  0
  -30.4963  -12.2809   18.7837 O   0  0  0  0  0  0  0  0  0  0  0  0
  -23.9413  -24.3681   20.2084 O   0  0  0  0  0  0  0  0  0  0  0  0
  -24.3699  -24.0114   16.4823 O   0  0  0  0  0  0  0  0  0  0  0  0
  -28.9577  -25.2144   16.6426 O   0  0  0  0  0  0  0  0  0  0  0  0
  -29.7639  -20.3351   19.8259 O   0  0  0  0  0  0  0  0  0  0  0  0
  -22.9870  -11.7844   20.7713 O   0  0  0  0  0  0  0  0  0  0  0  0
  -28.0665  -29.1539   22.1301 O   0  0  0  0  0  0  0  0  0  1  0  0
  -22.8586   -6.4133   22.0117 F   0  0  0  0  0  0  0  0  0  0  0  0
  -21.6118  -10.8736   22.9898 F   0  0  0  0  0  0  0  0  0  0  0  0
  1  2  1  0  0  0  0
  1  5  2  0  0  0  0
  2  6  2  0  0  0  0
  3  8  2  0  0  0  0
  3 16  1  0  0  0  0
  4  9  1  0  0  0  0
  4 16  2  0  0  0  0
  5 18  1  0  0  0  0
  6 20  1  0  0  0  0
  7 10  2  0  0  0  0
  7 19  1  0  0  0  0
  8 22  1  0  0  0  0
  9 22  2  0  0  0  0
 10 23  1  0  0  0  0
 11 12  2  0  0  0  0
 11 24  1  0  0  0  0
 12 25  1  0  0  0  0
 13 21  1  0  0  0  0
 13 23  2  0  0  0  0
 14 25  2  0  0  0  0
 14 26  1  0  0  0  0
 15 28  2  0  0  0  0
 15 29  1  0  0  0  0
 16 27  1  0  0  0  0
 17 27  1  0  0  0  0
 17 30  2  0  0  0  0
 17 31  1  0  0  0  0
 18 20  2  0  0  0  0
 18 36  1  0  0  0  0
 19 21  2  0  0  0  0
 19 37  1  0  0  0  0
 20 49  1  0  0  0  0
 21 38  1  0  0  0  0
 22 84  1  0  0  0  0
 23 85  1  0  0  0  0
 24 26  2  0  0  0  0
 24 84  1  0  0  0  0
 25 86  1  0  0  0  0
 26 87  1  0  0  0  0
 27 65  2  0  0  0  0
 28 52  1  0  0  0  0
 28 67  1  0  0  0  0
 29 66  2  0  0  0  0
 29 69  1  0  0  0  0
 30 68  1  0  0  0  0
 30 73  1  0  0  0  0
 31 74  1  0  0  0  0
 31 79  2  0  0  0  0
 32 50  1  0  0  0  0
 32 75  1  0  0  0  0
 32 80  2  0  0  0  0
 33 62  1  0  0  0  0
 33 70  1  0  0  0  0
 33 81  2  0  0  0  0
 34 63  1  0  0  0  0
 34 76  1  0  0  0  0
 34 82  2  0  0  0  0
 35 71  1  0  0  0  0
 35 72  1  0  0  0  0
 35 83  2  0  0  0  0
 36 39  1  0  0  0  0
 37 50  1  0  0  0  0
 38 70  1  0  0  0  0
 39 41  1  0  0  0  0
 40 42  1  0  0  0  0
 40 43  1  0  0  0  0
 41 49  1  0  0  0  0
 42 51  1  0  0  0  0
 43 71  1  0  0  0  0
 44 46  1  0  0  0  0
 44 69  1  0  0  0  0
 45 47  1  0  0  0  0
 45 69  1  0  0  0  0
 46 72  1  0  0  0  0
 47 72  1  0  0  0  0
 48 51  1  0  0  0  0
 48 71  1  0  0  0  0
 49 75  1  0  0  0  0
 50 70  1  0  0  0  0
 51 68  1  0  0  0  0
 53 63  1  0  0  0  0
 54 64  1  0  0  0  0
 55 64  1  0  0  0  0
 56 64  1  0  0  0  0
 57 77  1  0  0  0  0
 58 59  1  0  0  0  0
 58 67  1  0  0  0  0
 59 78  1  0  0  0  0
 60 61  1  0  0  0  0
 60 78  1  0  0  0  0
 61 85  1  0  0  0  0
 62 64  1  0  0  0  0
 62 76  1  0  0  0  0
 63 77  1  0  0  0  0
 65 68  1  0  0  0  0
 66 67  1  0  0  0  0
M  CHG  2  77   1  78   1
M  ISO  4  35 100  61 101  72 100  85 101
M  END
> <Batch ID>
0187

> <Smiles>
CNC(C)C(=O)NC(C(=O)N1Cc2cc([101O:1][101CH2:1]CNCCn3nc(N4CC[100N:0]([100C:0](=O)N5CCCC(n6nc(-c7ccc(Oc8ccc(F)cc8F)cc7)c(C(N)=O)c6N)C5)CC4)cc3C)ccc2CC1C(=O)NC1CCCc2ccccc21)C(C)(C)C

> <Shape>
0.249

> <Color>
0.093

> <Negative vol penalty>
0.000

$$$$

  -OEChem-04052323173D

 88 97  0     1  0  0  0  0  0999 V2000
  -16.6661  -30.4168   23.6604 C   0  0  0  0  0  0  0  0  0  0  0  0
  -17.8187  -31.0328   24.1376 C   0  0  0  0  0  0  0  0  0  0  0  0
  -26.7655  -12.3064   21.0108 C   0  0  0  0  0  0  0  0  0  0  0  0
  -24.9447  -13.3324   19.7986 C   0  0  0  0  0  0  0  0  0  0  0  0
  -16.7490  -29.1719   23.0382 C   0  0  0  0  0  0  0  0  0  0  0  0
  -19.0547  -30.4035   23.9937 C   0  0  0  0  0  0  0  0  0  0  0  0
  -25.9884  -31.8856   22.9717 C   0  0  0  0  0  0  0  0  0  0  0  0
  -25.9286  -11.2518   21.3753 C   0  0  0  0  0  0  0  0  0  0  0  0
  -24.1078  -12.2777   20.1631 C   0  0  0  0  0  0  0  0  0  0  0  0
  -27.2409  -31.6084   23.5178 C   0  0  0  0  0  0  0  0  0  0  0  0
  -23.4962  -10.6744   23.6501 C   0  0  0  0  0  0  0  0  0  0  0  0
  -23.5310  -10.2497   24.9782 C   0  0  0  0  0  0  0  0  0  0  0  0
  -27.2731  -29.4948   22.3554 C   0  0  0  0  0  0  0  0  0  0  0  0
  -27.6008  -25.8340   25.3545 C   0  0  0  0  0  0  0  0  0  0  0  0
  -24.2077   -8.0458   24.2557 C   0  0  0  0  0  0  0  0  0  0  0  0
  -29.5047  -26.0890   23.9521 C   0  0  0  0  0  0  0  0  0  0  0  0
  -26.2735  -13.3468   20.2225 C   0  0  0  0  0  0  0  0  0  0  0  0
  -27.9487  -14.5214   18.6988 C   0  0  0  0  0  0  0  0  0  0  0  0
  -17.9879  -28.5315   22.8780 C   0  0  0  0  0  0  0  0  0  0  0  0
  -25.3629  -30.9632   22.1207 C   0  0  0  0  0  0  0  0  0  0  0  0
  -19.1541  -29.1482   23.3700 C   0  0  0  0  0  0  0  0  0  0  0  0
  -26.0138  -29.7639   21.7978 C   0  0  0  0  0  0  0  0  0  0  0  0
  -28.3537  -25.3881   24.2739 C   0  0  0  0  0  0  0  0  0  0  0  0
  -24.5998  -11.2373   20.9514 C   0  0  0  0  0  0  0  0  0  0  0  0
  -27.8822  -30.4116   23.2119 C   0  0  0  0  0  0  0  0  0  0  0  0
  -23.8171   -9.7848   22.6247 C   0  0  0  0  0  0  0  0  0  0  0  0
  -28.0161  -26.9514   26.0702 C   0  0  0  0  0  0  0  0  0  0  0  0
  -23.8868   -8.9354   25.2810 C   0  0  0  0  0  0  0  0  0  0  0  0
  -24.1729   -8.4705   22.9275 C   0  0  0  0  0  0  0  0  0  0  0  0
  -27.1374  -14.4368   19.8461 C   0  0  0  0  0  0  0  0  0  0  0  0
  -29.1824  -27.5822   25.6681 C   0  0  0  0  0  0  0  0  0  0  0  0
  -28.5662  -15.7437   18.8042 C   0  0  0  0  0  0  0  0  0  0  0  0
  -28.1281  -13.5793   17.6329 C   0  0  0  0  0  0  0  0  0  0  0  0
  -22.6645  -29.2865   22.2250 C   0  0  0  0  0  0  0  0  0  0  0  0
  -23.5210  -28.4563   19.2085 C   0  0  0  0  0  0  0  0  0  0  0  0
  -26.0103  -28.0701   16.9061 C   0  0  0  0  0  0  0  0  0  0  0  0
  -27.1515  -20.7480   21.3308 C   0  0  0  0  0  0  0  0  0  0  0  0
  -18.0217  -27.1648   22.2411 C   0  0  0  0  0  0  0  0  0  0  0  0
  -24.0236  -31.2889   21.5186 C   0  0  0  0  0  0  0  0  0  0  0  0
  -25.3940  -28.7492   20.8732 C   0  0  0  0  0  0  0  0  0  0  0  0
  -19.4166  -26.7357   21.7935 C   0  0  0  0  0  0  0  0  0  0  0  0
  -30.0676  -18.9226   22.0408 C   0  0  0  0  0  0  0  0  0  0  0  0
  -20.4380  -27.0107   22.8925 C   0  0  0  0  0  0  0  0  0  0  0  0
  -29.7252  -17.5585   21.4426 C   0  0  0  0  0  0  0  0  0  0  0  0
  -28.8708  -19.5512   22.7563 C   0  0  0  0  0  0  0  0  0  0  0  0
  -28.3074  -24.1841   22.1115 C   0  0  0  0  0  0  0  0  0  0  0  0
  -27.8194  -22.9908   24.2525 C   0  0  0  0  0  0  0  0  0  0  0  0
  -27.3981  -23.2017   21.3780 C   0  0  0  0  0  0  0  0  0  0  0  0
  -26.9098  -22.0385   23.4840 C   0  0  0  0  0  0  0  0  0  0  0  0
  -27.3088  -18.2757   21.3241 C   0  0  0  0  0  0  0  0  0  0  0  0
  -20.5163  -28.5087   23.2106 C   0  0  1  0  0  0  0  0  0  0  0  0
  -23.2519  -30.0508   21.0725 C   0  0  1  0  0  0  0  0  0  0  0  0
  -28.4758  -17.6455   20.5481 C   0  0  2  0  0  0  0  0  0  0  0  0
  -26.4077  -27.3399   14.5384 C   0  0  0  0  0  0  0  0  0  0  0  0
  -31.0738  -30.5533   26.8953 C   0  0  0  0  0  0  0  0  0  0  0  0
  -23.2216  -25.5415   20.0597 C   0  0  0  0  0  0  0  0  0  0  0  0
  -24.5166  -24.8855   18.0199 C   0  0  0  0  0  0  0  0  0  0  0  0
  -22.3288  -26.0601   17.7819 C   0  0  0  0  0  0  0  0  0  0  0  0
  -27.0585  -30.7295   16.1394 C   0  0  0  0  0  0  0  0  0  0  0  0
  -26.2585  -28.3472   26.8565 C   0  0  0  0  0  0  0  0  0  0  0  0
  -29.3940  -30.6964   25.0255 C   0  0  0  0  0  0  0  0  0  1  0  0
  -24.3452  -27.3488   18.5977 C   0  0  1  0  0  0  0  0  0  0  0  0
  -26.1223  -28.5159   15.4593 C   0  0  2  0  0  0  0  0  0  0  0  0
  -30.3447  -29.7861   25.8001 C   0  0  2  0  0  0  0  0  0  0  0  0
  -23.6141  -25.9770   18.6338 C   0  0  0  0  0  0  0  0  0  0  0  0
  -29.9400  -27.1785   24.6238 N   0  0  0  0  0  0  0  0  0  0  0  0
  -27.2291  -15.5191   20.6234 N   0  0  0  0  0  0  0  0  0  0  0  0
  -28.1054  -16.2954   19.9633 N   0  0  0  0  0  0  0  0  0  0  0  0
  -27.9610  -24.2650   23.5346 N   0  0  0  0  0  0  0  0  0  0  0  0
  -24.0807  -29.1109   20.3149 N   0  0  0  0  0  0  0  0  0  0  0  0
  -27.6932  -19.5755   21.8784 N   0  0  0  0  0  0  0  0  0  0  0  0
  -27.3040  -21.9264   22.0782 N   0  0  0  0  0  0  0  0  0  0  0  0
  -29.4529  -16.3897   18.0176 N   0  0  0  0  0  0  0  0  0  0  0  0
  -27.4170  -12.3726   17.6811 N   0  0  0  0  0  0  0  0  0  0  0  0
  -29.6063  -28.7218   26.3969 N   0  0  0  0  0  0  0  0  0  0  0  0
  -21.2856  -29.2007   22.1987 N   0  0  0  0  0  0  0  0  0  0  0  0
  -24.7048  -27.7991   17.2574 N   0  0  0  0  0  0  0  0  0  0  0  0
  -27.2224  -29.5098   15.3072 N   0  3  0  0  0  0  0  0  0  0  0  0
  -28.9087  -13.7941   16.6748 O   0  0  0  0  0  0  0  0  0  0  0  0
  -23.4073  -28.8086   23.0744 O   0  0  0  0  0  0  0  0  0  0  0  0
  -22.4243  -28.7352   18.7175 O   0  0  0  0  0  0  0  0  0  0  0  0
  -26.9841  -27.9685   17.6491 O   0  0  0  0  0  0  0  0  0  0  0  0
  -26.5693  -20.7452   20.2391 O   0  0  0  0  0  0  0  0  0  0  0  0
  -23.7829  -10.2082   21.3067 O   0  0  0  0  0  0  0  0  0  0  0  0
  -27.2828  -27.3894   27.1263 O   0  0  0  0  0  0  0  0  0  0  0  0
  -29.1124  -30.1364   23.7475 O   0  0  0  0  0  0  0  0  0  1  0  0
  -23.9216   -8.5281   26.5566 F   0  0  0  0  0  0  0  0  0  0  0  0
  -24.4834   -7.6117   21.9468 F   0  0  0  0  0  0  0  0  0  0  0  0
  1  2  1  0  0  0  0
  1  5  2  0  0  0  0
  2  6  2  0  0  0  0
  3  8  2  0  0  0  0
  3 17  1  0  0  0  0
  4  9  1  0  0  0  0
  4 17  2  0  0  0  0
  5 19  1  0  0  0  0
  6 21  1  0  0  0  0
  7 10  2  0  0  0  0
  7 20  1  0  0  0  0
  8 24  1  0  0  0  0
  9 24  2  0  0  0  0
 10 25  1  0  0  0  0
 11 12  2  0  0  0  0
 11 26  1  0  0  0  0
 12 28  1  0  0  0  0
 13 22  1  0  0  0  0
 13 25  2  0  0  0  0
 14 23  2  0  0  0  0
 14 27  1  0  0  0  0
 15 28  2  0  0  0  0
 15 29  1  0  0  0  0
 16 23  1  0  0  0  0
 16 66  2  0  0  0  0
 17 30  1  0  0  0  0
 18 30  1  0  0  0  0
 18 32  2  0  0  0  0
 18 33  1  0  0  0  0
 19 21  2  0  0  0  0
 19 38  1  0  0  0  0
 20 22  2  0  0  0  0
 20 39  1  0  0  0  0
 21 51  1  0  0  0  0
 22 40  1  0  0  0  0
 23 69  1  0  0  0  0
 24 84  1  0  0  0  0
 25 86  1  0  0  0  0
 26 29  2  0  0  0  0
 26 84  1  0  0  0  0
 27 31  2  0  0  0  0
 27 85  1  0  0  0  0
 28 87  1  0  0  0  0
 29 88  1  0  0  0  0
 30 67  2  0  0  0  0
 31 66  1  0  0  0  0
 31 75  1  0  0  0  0
 32 68  1  0  0  0  0
 32 73  1  0  0  0  0
 33 74  1  0  0  0  0
 33 79  2  0  0  0  0
 34 52  1  0  0  0  0
 34 76  1  0  0  0  0
 34 80  2  0  0  0  0
 35 62  1  0  0  0  0
 35 70  1  0  0  0  0
 35 81  2  0  0  0  0
 36 63  1  0  0  0  0
 36 77  1  0  0  0  0
 36 82  2  0  0  0  0
 37 71  1  0  0  0  0
 37 72  1  0  0  0  0
 37 83  2  0  0  0  0
 38 41  1  0  0  0  0
 39 52  1  0  0  0  0
 40 70  1  0  0  0  0
 41 43  1  0  0  0  0
 42 44  1  0  0  0  0
 42 45  1  0  0  0  0
 43 51  1  0  0  0  0
 44 53  1  0  0  0  0
 45 71  1  0  0  0  0
 46 48  1  0  0  0  0
 46 69  1  0  0  0  0
 47 49  1  0  0  0  0
 47 69  1  0  0  0  0
 48 72  1  0  0  0  0
 49 72  1  0  0  0  0
 50 53  1  0  0  0  0
 50 71  1  0  0  0  0
 51 76  1  0  0  0  0
 52 70  1  0  0  0  0
 53 68  1  0  0  0  0
 54 63  1  0  0  0  0
 55 64  1  0  0  0  0
 56 65  1  0  0  0  0
 57 65  1  0  0  0  0
 58 65  1  0  0  0  0
 59 78  1  0  0  0  0
 60 85  1  0  0  0  0
 61 64  1  0  0  0  0
 61 86  1  0  0  0  0
 62 65  1  0  0  0  0
 62 77  1  0  0  0  0
 63 78  1  0  0  0  0
 64 75  1  0  0  0  0
 67 68  1  0  0  0  0
M  CHG  1  78   1
M  ISO  4  37 100  61 101  72 100  86 101
M  END
> <Batch ID>
0187

> <Smiles>
CNC(C)C(=O)NC(C(=O)N1Cc2cc([101O:1][101CH2:1]C(C)Nc3ncc(N4CC[100N:0]([100C:0](=O)N5CCCC(n6nc(-c7ccc(Oc8ccc(F)cc8F)cc7)c(C(N)=O)c6N)C5)CC4)cc3OC)ccc2CC1C(=O)NC1CCCc2ccccc21)C(C)(C)C

> <Shape>
0.259

> <Color>
0.106

> <Negative vol penalty>
0.000

$$$$

  -OEChem-04052323173D

 84 93  0     1  0  0  0  0  0999 V2000
  -27.0711  -29.7061   28.6181 C   0  0  0  0  0  0  0  0  0  0  0  0
  -27.3164  -28.9947   27.4480 C   0  0  0  0  0  0  0  0  0  0  0  0
  -26.4571  -12.2579   21.6418 C   0  0  0  0  0  0  0  0  0  0  0  0
  -26.0981  -13.4414   19.5663 C   0  0  0  0  0  0  0  0  0  0  0  0
  -25.7886  -30.1824   28.8871 C   0  0  0  0  0  0  0  0  0  0  0  0
  -26.2791  -28.7583   26.5466 C   0  0  0  0  0  0  0  0  0  0  0  0
  -27.6484  -29.6008   21.7445 C   0  0  0  0  0  0  0  0  0  0  0  0
  -25.1014  -11.9334   21.6912 C   0  0  0  0  0  0  0  0  0  0  0  0
  -24.7424  -13.1168   19.6157 C   0  0  0  0  0  0  0  0  0  0  0  0
  -28.4088  -28.6150   21.1170 C   0  0  0  0  0  0  0  0  0  0  0  0
  -23.0232   -9.6894   20.2496 C   0  0  0  0  0  0  0  0  0  0  0  0
  -22.6824   -8.3765   20.5748 C   0  0  0  0  0  0  0  0  0  0  0  0
  -26.4248  -27.7926   20.0184 C   0  0  0  0  0  0  0  0  0  0  0  0
  -21.4605   -9.1709   22.5017 C   0  0  0  0  0  0  0  0  0  0  0  0
  -29.6890  -25.1878   17.2396 C   0  0  0  0  0  0  0  0  0  0  0  0
  -26.9554  -13.0120   20.5793 C   0  0  0  0  0  0  0  0  0  0  0  0
  -29.3870  -12.6036   19.9249 C   0  0  0  0  0  0  0  0  0  0  0  0
  -24.7372  -29.9601   27.9839 C   0  0  0  0  0  0  0  0  0  0  0  0
  -26.2664  -29.6832   21.5219 C   0  0  0  0  0  0  0  0  0  0  0  0
  -24.9811  -29.2309   26.8044 C   0  0  0  0  0  0  0  0  0  0  0  0
  -25.6496  -28.7820   20.6424 C   0  0  0  0  0  0  0  0  0  0  0  0
  -24.2441  -12.3627   20.6782 C   0  0  0  0  0  0  0  0  0  0  0  0
  -27.7966  -27.7090   20.2560 C   0  0  0  0  0  0  0  0  0  0  0  0
  -22.5827  -10.7431   21.0505 C   0  0  0  0  0  0  0  0  0  0  0  0
  -21.9010   -8.1172   21.7008 C   0  0  0  0  0  0  0  0  0  0  0  0
  -21.8014  -10.4838   22.1766 C   0  0  0  0  0  0  0  0  0  0  0  0
  -28.3556  -13.3481   20.5280 C   0  0  0  0  0  0  0  0  0  0  0  0
  -29.6111  -22.7059   18.2200 C   0  0  0  0  0  0  0  0  0  0  0  0
  -28.7934  -24.8417   18.2273 C   0  0  0  0  0  0  0  0  0  0  0  0
  -30.5062  -23.0520   17.2318 C   0  0  0  0  0  0  0  0  0  0  0  0
  -30.5217  -13.3440   20.1499 C   0  0  0  0  0  0  0  0  0  0  0  0
  -29.3249  -11.3544   19.2239 C   0  0  0  0  0  0  0  0  0  0  0  0
  -23.6801  -29.4229   23.3514 C   0  0  0  0  0  0  0  0  0  0  0  0
  -22.1467  -30.3176   20.6365 C   0  0  0  0  0  0  0  0  0  0  0  0
  -22.1576  -30.4994   17.2286 C   0  0  0  0  0  0  0  0  0  0  0  0
  -31.4177  -19.1674   21.1915 C   0  0  0  0  0  0  0  0  0  0  0  0
  -23.3573  -30.4536   28.3404 C   0  0  0  0  0  0  0  0  0  0  0  0
  -25.4648  -30.7691   22.1857 C   0  0  0  0  0  0  0  0  0  0  0  0
  -24.1725  -28.8406   20.3539 C   0  0  0  0  0  0  0  0  0  0  0  0
  -22.3961  -30.4837   27.1550 C   0  0  0  0  0  0  0  0  0  0  0  0
  -32.4331  -16.4546   23.2146 C   0  0  0  0  0  0  0  0  0  0  0  0
  -22.4809  -29.1812   26.3656 C   0  0  0  0  0  0  0  0  0  0  0  0
  -31.5810  -15.2846   22.7306 C   0  0  0  0  0  0  0  0  0  0  0  0
  -28.5427  -21.0575   19.9202 C   0  0  0  0  0  0  0  0  0  0  0  0
  -31.6314  -17.7492   23.2024 C   0  0  0  0  0  0  0  0  0  0  0  0
  -29.0128  -19.7373   20.5161 C   0  0  0  0  0  0  0  0  0  0  0  0
  -30.8567  -20.8262   19.4407 C   0  0  0  0  0  0  0  0  0  0  0  0
  -30.2238  -16.9273   21.3333 C   0  0  0  0  0  0  0  0  0  0  0  0
  -23.8874  -28.9755   25.7902 C   0  0  1  0  0  0  0  0  0  0  0  0
  -29.5524  -21.3050   18.7877 C   0  0  2  0  0  0  0  0  0  0  0  0
  -23.9787  -30.4388   22.2853 C   0  0  1  0  0  0  0  0  0  0  0  0
  -30.9842  -15.5851   21.3470 C   0  0  2  0  0  0  0  0  0  0  0  0
  -20.7487  -31.2472   15.2913 C   0  0  0  0  0  0  0  0  0  0  0  0
  -20.3900  -27.8443   20.9624 C   0  0  0  0  0  0  0  0  0  0  0  0
  -19.6827  -28.1178   18.5764 C   0  0  0  0  0  0  0  0  0  0  0  0
  -19.1685  -29.9036   20.2404 C   0  0  0  0  0  0  0  0  0  0  0  0
  -32.6932  -22.3944   16.2269 C   0  0  0  0  0  0  0  0  0  0  0  0
  -24.1923  -32.4641   16.3575 C   0  0  0  0  0  0  0  0  0  0  0  0
  -27.8438  -25.8503   18.7731 C   0  0  0  0  0  0  0  0  0  1  0  0
  -21.5512  -29.5898   19.4555 C   0  0  1  0  0  0  0  0  0  0  0  0
  -21.8358  -31.6397   16.2797 C   0  0  2  0  0  0  0  0  0  0  0  0
  -20.2256  -28.8613   19.8154 C   0  0  0  0  0  0  0  0  0  0  0  0
  -30.5614  -24.2992   16.7240 N   0  0  0  0  0  0  0  0  0  0  0  0
  -28.7961  -14.4749   21.0938 N   0  0  0  0  0  0  0  0  0  0  0  0
  -28.7384  -23.5945   18.7353 N   0  0  0  0  0  0  0  0  0  0  0  0
  -30.1168  -14.4440   20.8472 N   0  0  0  0  0  0  0  0  0  0  0  0
  -23.4306  -29.9163   21.0320 N   0  0  0  0  0  0  0  0  0  0  0  0
  -31.0436  -18.0126   21.8876 N   0  0  0  0  0  0  0  0  0  0  0  0
  -30.4664  -19.7702   20.3694 N   0  0  0  0  0  0  0  0  0  0  0  0
  -31.8163  -13.1550   19.8173 N   0  0  0  0  0  0  0  0  0  0  0  0
  -28.0788  -10.7284   19.0833 N   0  0  0  0  0  0  0  0  0  0  0  0
  -31.3961  -22.0742   16.7330 N   0  0  0  0  0  0  0  0  0  0  0  0
  -24.0800  -29.8027   24.6184 N   0  0  0  0  0  0  0  0  0  0  0  0
  -21.4197  -30.5783   18.3907 N   0  0  0  0  0  0  0  0  0  0  0  0
  -23.0506  -32.0323   15.5108 N   0  3  0  0  0  0  0  0  0  0  0  0
  -30.3466  -10.8014   18.7508 O   0  0  0  0  0  0  0  0  0  0  0  0
  -23.1265  -28.3728   23.0471 O   0  0  0  0  0  0  0  0  0  0  0  0
  -21.4996  -31.2143   21.1832 O   0  0  0  0  0  0  0  0  0  0  0  0
  -22.9785  -29.6239   16.9637 O   0  0  0  0  0  0  0  0  0  0  0  0
  -32.5433  -19.6651   21.3300 O   0  0  0  0  0  0  0  0  0  0  0  0
  -22.9212  -12.0460   20.7259 O   0  0  0  0  0  0  0  0  0  0  0  0
  -28.5412  -26.7390   19.6386 O   0  0  0  0  0  0  0  0  0  1  0  0
  -21.5726   -6.8565   22.0121 F   0  0  0  0  0  0  0  0  0  0  0  0
  -21.3743  -11.4920   22.9492 F   0  0  0  0  0  0  0  0  0  0  0  0
  1  2  1  0  0  0  0
  1  5  2  0  0  0  0
  2  6  2  0  0  0  0
  3  8  2  0  0  0  0
  3 16  1  0  0  0  0
  4  9  1  0  0  0  0
  4 16  2  0  0  0  0
  5 18  1  0  0  0  0
  6 20  1  0  0  0  0
  7 10  2  0  0  0  0
  7 19  1  0  0  0  0
  8 22  1  0  0  0  0
  9 22  2  0  0  0  0
 10 23  1  0  0  0  0
 11 12  2  0  0  0  0
 11 24  1  0  0  0  0
 12 25  1  0  0  0  0
 13 21  1  0  0  0  0
 13 23  2  0  0  0  0
 14 25  2  0  0  0  0
 14 26  1  0  0  0  0
 15 29  1  0  0  0  0
 15 63  2  0  0  0  0
 16 27  1  0  0  0  0
 17 27  1  0  0  0  0
 17 31  2  0  0  0  0
 17 32  1  0  0  0  0
 18 20  2  0  0  0  0
 18 37  1  0  0  0  0
 19 21  2  0  0  0  0
 19 38  1  0  0  0  0
 20 49  1  0  0  0  0
 21 39  1  0  0  0  0
 22 81  1  0  0  0  0
 23 82  1  0  0  0  0
 24 26  2  0  0  0  0
 24 81  1  0  0  0  0
 25 83  1  0  0  0  0
 26 84  1  0  0  0  0
 27 64  2  0  0  0  0
 28 30  2  0  0  0  0
 28 50  1  0  0  0  0
 28 65  1  0  0  0  0
 29 59  1  0  0  0  0
 29 65  2  0  0  0  0
 30 63  1  0  0  0  0
 30 72  1  0  0  0  0
 31 66  1  0  0  0  0
 31 70  1  0  0  0  0
 32 71  1  0  0  0  0
 32 76  2  0  0  0  0
 33 51  1  0  0  0  0
 33 73  1  0  0  0  0
 33 77  2  0  0  0  0
 34 60  1  0  0  0  0
 34 67  1  0  0  0  0
 34 78  2  0  0  0  0
 35 61  1  0  0  0  0
 35 74  1  0  0  0  0
 35 79  2  0  0  0  0
 36 68  1  0  0  0  0
 36 69  1  0  0  0  0
 36 80  2  0  0  0  0
 37 40  1  0  0  0  0
 38 51  1  0  0  0  0
 39 67  1  0  0  0  0
 40 42  1  0  0  0  0
 41 43  1  0  0  0  0
 41 45  1  0  0  0  0
 42 49  1  0  0  0  0
 43 52  1  0  0  0  0
 44 46  1  0  0  0  0
 44 50  1  0  0  0  0
 45 68  1  0  0  0  0
 46 69  1  0  0  0  0
 47 50  1  0  0  0  0
 47 69  1  0  0  0  0
 48 52  1  0  0  0  0
 48 68  1  0  0  0  0
 49 73  1  0  0  0  0
 51 67  1  0  0  0  0
 52 66  1  0  0  0  0
 53 61  1  0  0  0  0
 54 62  1  0  0  0  0
 55 62  1  0  0  0  0
 56 62  1  0  0  0  0
 57 72  1  0  0  0  0
 58 75  1  0  0  0  0
 59 82  1  0  0  0  0
 60 62  1  0  0  0  0
 60 74  1  0  0  0  0
 61 75  1  0  0  0  0
 64 66  1  0  0  0  0
M  CHG  1  75   1
M  ISO  4  36 100  59 101  69 100  82 101
M  END
> <Batch ID>
0187

> <Smiles>
CNc1ncc([101CH2:1][101O:1]c2ccc3c(c2)CN(C(=O)C(NC(=O)C(C)NC)C(C)(C)C)C(C(=O)NC2CCCc4ccccc42)C3)nc1C1CC[100N:0]([100C:0](=O)N2CCCC(n3nc(-c4ccc(Oc5ccc(F)cc5F)cc4)c(C(N)=O)c3N)C2)C1

> <Shape>
0.294

> <Color>
0.090

> <Negative vol penalty>
0.000

$$$$

  -OEChem-04052323173D

 84 93  0     1  0  0  0  0  0999 V2000
  -24.1937  -21.1685   21.6676 C   0  0  0  0  0  0  0  0  0  0  0  0
  -25.4825  -21.0327   22.1735 C   0  0  0  0  0  0  0  0  0  0  0  0
  -23.1364   -9.7520   20.2890 C   0  0  0  0  0  0  0  0  0  0  0  0
  -23.8236  -10.0969   22.5794 C   0  0  0  0  0  0  0  0  0  0  0  0
  -23.9887  -21.8151   20.4495 C   0  0  0  0  0  0  0  0  0  0  0  0
  -26.5673  -21.5426   21.4610 C   0  0  0  0  0  0  0  0  0  0  0  0
  -29.8269  -24.0500   24.4160 C   0  0  0  0  0  0  0  0  0  0  0  0
  -22.4075   -8.6278   20.6770 C   0  0  0  0  0  0  0  0  0  0  0  0
  -23.0946   -8.9727   22.9674 C   0  0  0  0  0  0  0  0  0  0  0  0
  -30.7020  -23.2878   25.1887 C   0  0  0  0  0  0  0  0  0  0  0  0
  -20.0729   -5.8768   21.1206 C   0  0  0  0  0  0  0  0  0  0  0  0
  -18.7844   -5.7303   20.6069 C   0  0  0  0  0  0  0  0  0  0  0  0
  -32.4506  -23.6658   23.5705 C   0  0  0  0  0  0  0  0  0  0  0  0
  -18.1406   -7.8246   21.6251 C   0  0  0  0  0  0  0  0  0  0  0  0
  -23.8445  -10.4865   21.2402 C   0  0  0  0  0  0  0  0  0  0  0  0
  -24.1410  -12.9776   20.7771 C   0  0  0  0  0  0  0  0  0  0  0  0
  -25.0706  -22.3417   19.7264 C   0  0  0  0  0  0  0  0  0  0  0  0
  -30.2548  -24.6178   23.2073 C   0  0  0  0  0  0  0  0  0  0  0  0
  -26.3767  -22.1957   20.2314 C   0  0  0  0  0  0  0  0  0  0  0  0
  -31.5798  -24.4369   22.7856 C   0  0  0  0  0  0  0  0  0  0  0  0
  -22.3866   -8.2382   22.0161 C   0  0  0  0  0  0  0  0  0  0  0  0
  -32.0132  -23.0931   24.7645 C   0  0  0  0  0  0  0  0  0  0  0  0
  -20.3953   -6.9971   21.8865 C   0  0  0  0  0  0  0  0  0  0  0  0
  -17.8182   -6.7043   20.8592 C   0  0  0  0  0  0  0  0  0  0  0  0
  -19.4291   -7.9710   22.1388 C   0  0  0  0  0  0  0  0  0  0  0  0
  -24.5981  -11.6476   20.8400 C   0  0  0  0  0  0  0  0  0  0  0  0
  -25.2293  -13.6945   20.3435 C   0  0  0  0  0  0  0  0  0  0  0  0
  -33.7842  -18.9641   25.7240 C   0  0  0  0  0  0  0  0  0  0  0  0
  -32.2403  -19.1919   24.1113 C   0  0  0  0  0  0  0  0  0  0  0  0
  -32.9288  -20.9880   25.2673 C   0  0  0  0  0  0  0  0  0  1  0  0
  -22.8482  -13.5167   21.0833 C   0  0  0  0  0  0  0  0  0  0  0  0
  -29.4088  -24.3062   20.1592 C   0  0  0  0  0  0  0  0  0  0  0  0
  -31.5119  -26.7386   19.7317 C   0  0  0  0  0  0  0  0  0  0  0  0
  -34.2402  -28.4434   20.8704 C   0  0  0  0  0  0  0  0  0  0  0  0
  -30.6837  -14.8588   20.5427 C   0  0  0  0  0  0  0  0  0  0  0  0
  -24.8042  -22.9908   18.3913 C   0  0  0  0  0  0  0  0  0  0  0  0
  -29.3062  -25.4596   22.3986 C   0  0  0  0  0  0  0  0  0  0  0  0
  -32.0942  -25.0419   21.5058 C   0  0  0  0  0  0  0  0  0  0  0  0
  -25.9702  -23.8330   17.8801 C   0  0  0  0  0  0  0  0  0  0  0  0
  -29.6680  -12.1384   18.4825 C   0  0  0  0  0  0  0  0  0  0  0  0
  -27.2838  -23.0717   18.0279 C   0  0  0  0  0  0  0  0  0  0  0  0
  -28.2236  -11.8742   18.9114 C   0  0  0  0  0  0  0  0  0  0  0  0
  -30.5425  -12.5462   19.6661 C   0  0  0  0  0  0  0  0  0  0  0  0
  -28.5843  -13.4186   20.8820 C   0  0  0  0  0  0  0  0  0  0  0  0
  -31.4390  -17.2101   22.7909 C   0  0  0  0  0  0  0  0  0  0  0  0
  -30.5172  -19.3979   22.2948 C   0  0  0  0  0  0  0  0  0  0  0  0
  -27.5766  -22.7573   19.4999 C   0  0  1  0  0  0  0  0  0  0  0  0
  -29.7028  -25.5625   20.9291 C   0  0  1  0  0  0  0  0  0  0  0  0
  -27.6512  -13.0585   19.7133 C   0  0  2  0  0  0  0  0  0  0  0  0
  -30.6690  -17.1619   21.4672 C   0  0  2  0  0  0  0  0  0  0  0  0
  -29.6815  -18.3084   21.6268 C   0  0  2  0  0  0  0  0  0  0  0  0
  -34.7044  -18.1005   26.5178 C   0  0  0  0  0  0  0  0  0  0  0  0
  -35.7493  -30.3616   20.2867 C   0  0  0  0  0  0  0  0  0  0  0  0
  -32.8903  -25.0109   17.6282 C   0  0  0  0  0  0  0  0  0  0  0  0
  -34.8726  -26.5329   17.7778 C   0  0  0  0  0  0  0  0  0  0  0  0
  -32.6718  -27.4256   17.0149 C   0  0  0  0  0  0  0  0  0  0  0  0
  -33.5204  -29.9116   23.3372 C   0  0  0  0  0  0  0  0  0  0  0  0
  -32.9923  -26.8353   19.4523 C   0  0  1  0  0  0  0  0  0  0  0  0
  -34.5010  -29.9292   21.0400 C   0  0  2  0  0  0  0  0  0  0  0  0
  -33.3468  -26.4380   17.9915 C   0  0  0  0  0  0  0  0  0  0  0  0
  -25.8771  -11.5241   20.4754 N   0  0  0  0  0  0  0  0  0  0  0  0
  -33.0440  -18.3532   24.7849 N   0  0  0  0  0  0  0  0  0  0  0  0
  -33.7801  -20.2736   26.0210 N   0  0  0  0  0  0  0  0  0  0  0  0
  -32.1293  -20.5171   24.2967 N   0  0  0  0  0  0  0  0  0  0  0  0
  -26.2329  -12.7857   20.1791 N   0  0  0  0  0  0  0  0  0  0  0  0
  -31.4487  -18.6357   23.1295 N   0  0  3  0  0  0  0  0  0  0  0  0
  -31.1267  -25.8516   20.7469 N   0  0  0  0  0  0  0  0  0  0  0  0
  -29.9445  -13.6750   20.3832 N   0  0  0  0  0  0  0  0  0  0  0  0
  -25.4161  -15.0074   20.0905 N   0  0  0  0  0  0  0  0  0  0  0  0
  -21.8440  -12.6399   21.5158 N   0  0  0  0  0  0  0  0  0  0  0  0
  -28.0783  -23.9333   20.1778 N   0  0  0  0  0  0  0  0  0  0  0  0
  -33.3886  -28.1915   19.8156 N   0  0  0  0  0  0  0  0  0  0  0  0
  -30.0405  -15.8817   21.2288 N   0  0  0  0  0  0  0  0  0  0  0  0
  -29.1572  -18.7590   20.3253 N   0  3  0  0  0  0  0  0  0  0  0  0
  -34.6830  -30.2619   22.4813 N   0  3  0  0  0  0  0  0  0  0  0  0
  -22.5865  -14.7374   20.9608 O   0  0  0  0  0  0  0  0  0  0  0  0
  -30.3211  -23.7194   19.5891 O   0  0  0  0  0  0  0  0  0  0  0  0
  -30.7267  -27.4302   19.0783 O   0  0  0  0  0  0  0  0  0  0  0  0
  -34.7448  -27.5912   21.5982 O   0  0  0  0  0  0  0  0  0  0  0  0
  -31.8297  -14.9959   20.1014 O   0  0  0  0  0  0  0  0  0  0  0  0
  -21.6752   -7.1414   22.3951 O   0  0  0  0  0  0  0  0  0  0  0  0
  -32.8692  -22.3490   25.5165 O   0  0  0  0  0  0  0  0  0  1  0  0
  -16.5813   -6.5643   20.3646 F   0  0  0  0  0  0  0  0  0  0  0  0
  -19.7332   -9.0501   22.8729 F   0  0  0  0  0  0  0  0  0  0  0  0
  1  2  1  0  0  0  0
  1  5  2  0  0  0  0
  2  6  2  0  0  0  0
  3  8  2  0  0  0  0
  3 15  1  0  0  0  0
  4  9  1  0  0  0  0
  4 15  2  0  0  0  0
  5 17  1  0  0  0  0
  6 19  1  0  0  0  0
  7 10  2  0  0  0  0
  7 18  1  0  0  0  0
  8 21  1  0  0  0  0
  9 21  2  0  0  0  0
 10 22  1  0  0  0  0
 11 12  2  0  0  0  0
 11 23  1  0  0  0  0
 12 24  1  0  0  0  0
 13 20  1  0  0  0  0
 13 22  2  0  0  0  0
 14 24  2  0  0  0  0
 14 25  1  0  0  0  0
 15 26  1  0  0  0  0
 16 26  1  0  0  0  0
 16 27  2  0  0  0  0
 16 31  1  0  0  0  0
 17 19  2  0  0  0  0
 17 36  1  0  0  0  0
 18 20  2  0  0  0  0
 18 37  1  0  0  0  0
 19 47  1  0  0  0  0
 20 38  1  0  0  0  0
 21 81  1  0  0  0  0
 22 82  1  0  0  0  0
 23 25  2  0  0  0  0
 23 81  1  0  0  0  0
 24 83  1  0  0  0  0
 25 84  1  0  0  0  0
 26 61  2  0  0  0  0
 27 65  1  0  0  0  0
 27 69  1  0  0  0  0
 28 52  1  0  0  0  0
 28 62  1  0  0  0  0
 28 63  2  0  0  0  0
 29 62  2  0  0  0  0
 29 64  1  0  0  0  0
 29 66  1  0  0  0  0
 30 63  1  0  0  0  0
 30 64  2  0  0  0  0
 30 82  1  0  0  0  0
 31 70  1  0  0  0  0
 31 76  2  0  0  0  0
 32 48  1  0  0  0  0
 32 71  1  0  0  0  0
 32 77  2  0  0  0  0
 33 58  1  0  0  0  0
 33 67  1  0  0  0  0
 33 78  2  0  0  0  0
 34 59  1  0  0  0  0
 34 72  1  0  0  0  0
 34 79  2  0  0  0  0
 35 68  1  0  0  0  0
 35 73  1  0  0  0  0
 35 80  2  0  0  0  0
 36 39  1  0  0  0  0
 37 48  1  0  0  0  0
 38 67  1  0  0  0  0
 39 41  1  0  0  0  0
 40 42  1  0  0  0  0
 40 43  1  0  0  0  0
 41 47  1  0  0  0  0
 42 49  1  0  0  0  0
 43 68  1  0  0  0  0
 44 49  1  0  0  0  0
 44 68  1  0  0  0  0
 45 50  1  0  0  0  0
 45 66  1  0  0  0  0
 46 51  1  0  0  0  0
 46 66  1  0  0  0  0
 47 71  1  0  0  0  0
 48 67  1  0  0  0  0
 49 65  1  0  0  0  0
 50 51  1  0  0  0  0
 50 73  1  0  0  0  0
 51 74  1  0  0  0  0
 53 59  1  0  0  0  0
 54 60  1  0  0  0  0
 55 60  1  0  0  0  0
 56 60  1  0  0  0  0
 57 75  1  0  0  0  0
 58 60  1  0  0  0  0
 58 72  1  0  0  0  0
 59 75  1  0  0  0  0
 61 65  1  0  0  0  0
M  CHG  2  74   1  75   1
M  ISO  4  30 101  35 100  73 100  82 101
M  END
> <Batch ID>
0187

> <Smiles>
CNC(C)C(=O)NC(C(=O)N1Cc2cc([101O:1][101c:1]3nc(C)nc(N4CC(N)C([100NH:0][100C:0](=O)N5CCCC(n6nc(-c7ccc(Oc8ccc(F)cc8F)cc7)c(C(N)=O)c6N)C5)C4)n3)ccc2CC1C(=O)NC1CCCc2ccccc21)C(C)(C)C

> <Shape>
0.204

> <Color>
0.164

> <Negative vol penalty>
0.000

$$$$

  -OEChem-04052323173D

 82 91  0     1  0  0  0  0  0999 V2000
  -16.5508  -28.3535   23.6536 C   0  0  0  0  0  0  0  0  0  0  0  0
  -17.4659  -27.6997   22.8347 C   0  0  0  0  0  0  0  0  0  0  0  0
  -26.2278  -18.7838   20.1016 C   0  0  0  0  0  0  0  0  0  0  0  0
  -27.4623  -17.5045   21.7375 C   0  0  0  0  0  0  0  0  0  0  0  0
  -16.9385  -29.4905   24.3614 C   0  0  0  0  0  0  0  0  0  0  0  0
  -18.7690  -28.1830   22.7224 C   0  0  0  0  0  0  0  0  0  0  0  0
  -23.8736  -24.8756   22.0083 C   0  0  0  0  0  0  0  0  0  0  0  0
  -25.3104  -17.7404   19.9779 C   0  0  0  0  0  0  0  0  0  0  0  0
  -26.5448  -16.4611   21.6138 C   0  0  0  0  0  0  0  0  0  0  0  0
  -24.6319  -24.5519   20.8841 C   0  0  0  0  0  0  0  0  0  0  0  0
  -25.9184  -13.9376   19.4527 C   0  0  0  0  0  0  0  0  0  0  0  0
  -26.4218  -12.6411   19.3469 C   0  0  0  0  0  0  0  0  0  0  0  0
  -26.1113  -26.3975   21.3580 C   0  0  0  0  0  0  0  0  0  0  0  0
  -25.2352  -12.0162   21.3565 C   0  0  0  0  0  0  0  0  0  0  0  0
  -27.3038  -18.6658   20.9814 C   0  0  0  0  0  0  0  0  0  0  0  0
  -28.1908  -20.8279   22.0042 C   0  0  0  0  0  0  0  0  0  0  0  0
  -18.2497  -29.9824   24.2652 C   0  0  0  0  0  0  0  0  0  0  0  0
  -24.2227  -25.9712   22.8111 C   0  0  0  0  0  0  0  0  0  0  0  0
  -19.1742  -29.3284   23.4286 C   0  0  0  0  0  0  0  0  0  0  0  0
  -25.3573  -26.7314   22.4933 C   0  0  0  0  0  0  0  0  0  0  0  0
  -25.4689  -16.5791   20.7340 C   0  0  0  0  0  0  0  0  0  0  0  0
  -25.7493  -25.3146   20.5571 C   0  0  0  0  0  0  0  0  0  0  0  0
  -25.0734  -14.2735   20.5105 C   0  0  0  0  0  0  0  0  0  0  0  0
  -26.0802  -11.6804   20.2988 C   0  0  0  0  0  0  0  0  0  0  0  0
  -24.7318  -13.3128   21.4624 C   0  0  0  0  0  0  0  0  0  0  0  0
  -28.2521  -19.7430   21.1092 C   0  0  0  0  0  0  0  0  0  0  0  0
  -27.8355  -25.2064   16.6232 C   0  0  0  0  0  0  0  0  0  0  0  0
  -28.3032  -25.3376   17.9095 C   0  0  0  0  0  0  0  0  0  0  0  0
  -29.3179  -21.5634   21.7300 C   0  0  0  0  0  0  0  0  0  0  0  0
  -29.8515  -24.5258   16.5678 C   0  0  0  0  0  0  0  0  0  0  0  0
  -27.2032  -21.1427   22.9949 C   0  0  0  0  0  0  0  0  0  0  0  0
  -22.8113  -28.7036   23.6144 C   0  0  0  0  0  0  0  0  0  0  0  0
  -25.3830  -29.0060   25.5681 C   0  0  0  0  0  0  0  0  0  0  0  0
  -28.6227  -28.1716   26.2431 C   0  0  0  0  0  0  0  0  0  0  0  0
  -32.6668  -22.1680   16.8635 C   0  0  0  0  0  0  0  0  0  0  0  0
  -18.6091  -31.2421   25.0127 C   0  0  0  0  0  0  0  0  0  0  0  0
  -23.4098  -26.2910   24.0355 C   0  0  0  0  0  0  0  0  0  0  0  0
  -25.7862  -27.9052   23.3340 C   0  0  0  0  0  0  0  0  0  0  0  0
  -20.1136  -31.4723   25.1304 C   0  0  0  0  0  0  0  0  0  0  0  0
  -33.7885  -21.1258   20.0765 C   0  0  0  0  0  0  0  0  0  0  0  0
  -20.7946  -31.2504   23.7836 C   0  0  0  0  0  0  0  0  0  0  0  0
  -32.4927  -20.7331   20.7896 C   0  0  0  0  0  0  0  0  0  0  0  0
  -33.7533  -20.7491   18.5974 C   0  0  0  0  0  0  0  0  0  0  0  0
  -31.2261  -22.9511   15.0015 C   0  0  0  0  0  0  0  0  0  0  0  0
  -31.2830  -20.8797   18.5718 C   0  0  0  0  0  0  0  0  0  0  0  0
  -20.6038  -29.8078   23.3000 C   0  0  1  0  0  0  0  0  0  0  0  0
  -31.1654  -23.9811   16.0725 C   0  0  2  0  0  0  0  0  0  0  0  0
  -23.5598  -27.7394   24.4907 C   0  0  1  0  0  0  0  0  0  0  0  0
  -31.2615  -21.2933   20.0531 C   0  0  1  0  0  0  0  0  0  0  0  0
  -26.5001  -25.5314   16.0974 C   0  0  0  0  0  0  0  0  0  0  0  0
  -31.0992  -26.2003   19.3066 C   0  0  0  0  0  0  0  0  0  0  0  0
  -30.4666  -28.6054   27.8891 C   0  0  0  0  0  0  0  0  0  0  0  0
  -25.8632  -31.7419   24.3056 C   0  0  0  0  0  0  0  0  0  0  0  0
  -28.1759  -31.7007   25.2636 C   0  0  0  0  0  0  0  0  0  0  0  0
  -26.1977  -31.6629   26.7827 C   0  0  0  0  0  0  0  0  0  0  0  0
  -28.7598  -25.3185   27.0175 C   0  0  0  0  0  0  0  0  0  0  0  0
  -27.6499  -25.8341   19.1657 C   0  0  0  0  0  0  0  0  0  1  0  0
  -30.5254  -24.8366   18.9625 C   0  0  0  0  0  0  0  0  0  0  0  0
  -26.7638  -29.6012   25.4334 C   0  0  1  0  0  0  0  0  0  0  0  0
  -29.2975  -27.7053   27.5204 C   0  0  2  0  0  0  0  0  0  0  0  0
  -26.7412  -31.1558   25.4292 C   0  0  0  0  0  0  0  0  0  0  0  0
  -29.3326  -19.7820   20.3250 N   0  0  0  0  0  0  0  0  0  0  0  0
  -28.8040  -24.7002   15.7929 N   0  0  0  0  0  0  0  0  0  0  0  0
  -29.5958  -24.8972   17.8585 N   0  0  0  0  0  0  0  0  0  0  0  0
  -29.9606  -20.9003   20.7263 N   0  0  0  0  0  0  0  0  0  0  0  0
  -24.9554  -28.1818   24.5175 N   0  0  0  0  0  0  0  0  0  0  0  0
  -32.5538  -21.2860   17.9555 N   0  0  0  0  0  0  0  0  0  0  0  0
  -31.4373  -22.5984   16.3680 N   0  0  0  0  0  0  0  0  0  0  0  0
  -29.8119  -22.7062   22.2520 N   0  0  0  0  0  0  0  0  0  0  0  0
  -26.1089  -20.2801   23.1450 N   0  0  0  0  0  0  0  0  0  0  0  0
  -21.5021  -28.9164   24.0022 N   0  0  0  0  0  0  0  0  0  0  0  0
  -27.5658  -29.0182   26.5036 N   0  0  0  0  0  0  0  0  0  0  0  0
  -29.8080  -26.3145   27.3586 N   0  3  0  0  0  0  0  0  0  0  0  0
  -27.2803  -22.1675   23.7141 O   0  0  0  0  0  0  0  0  0  0  0  0
  -23.3798  -29.2176   22.6583 O   0  0  0  0  0  0  0  0  0  0  0  0
  -24.7116  -29.2571   26.5719 O   0  0  0  0  0  0  0  0  0  0  0  0
  -28.9979  -27.8230   25.1259 O   0  0  0  0  0  0  0  0  0  0  0  0
  -33.7484  -22.5320   16.3944 O   0  0  0  0  0  0  0  0  0  0  0  0
  -24.5737  -15.5608   20.6137 O   0  0  0  0  0  0  0  0  0  0  0  0
  -26.4908  -25.0012   19.4600 O   0  0  0  0  0  0  0  0  0  1  0  0
  -26.5625  -10.4350   20.1962 F   0  0  0  0  0  0  0  0  0  0  0  0
  -23.9194  -13.6292   22.4801 F   0  0  0  0  0  0  0  0  0  0  0  0
  1  2  1  0  0  0  0
  1  5  2  0  0  0  0
  2  6  2  0  0  0  0
  3  8  2  0  0  0  0
  3 15  1  0  0  0  0
  4  9  1  0  0  0  0
  4 15  2  0  0  0  0
  5 17  1  0  0  0  0
  6 19  1  0  0  0  0
  7 10  2  0  0  0  0
  7 18  1  0  0  0  0
  8 21  1  0  0  0  0
  9 21  2  0  0  0  0
 10 22  1  0  0  0  0
 11 12  2  0  0  0  0
 11 23  1  0  0  0  0
 12 24  1  0  0  0  0
 13 20  1  0  0  0  0
 13 22  2  0  0  0  0
 14 24  2  0  0  0  0
 14 25  1  0  0  0  0
 15 26  1  0  0  0  0
 16 26  1  0  0  0  0
 16 29  2  0  0  0  0
 16 31  1  0  0  0  0
 17 19  2  0  0  0  0
 17 36  1  0  0  0  0
 18 20  2  0  0  0  0
 18 37  1  0  0  0  0
 19 46  1  0  0  0  0
 20 38  1  0  0  0  0
 21 79  1  0  0  0  0
 22 80  1  0  0  0  0
 23 25  2  0  0  0  0
 23 79  1  0  0  0  0
 24 81  1  0  0  0  0
 25 82  1  0  0  0  0
 26 62  2  0  0  0  0
 27 28  2  0  0  0  0
 27 50  1  0  0  0  0
 27 63  1  0  0  0  0
 28 57  1  0  0  0  0
 28 64  1  0  0  0  0
 29 65  1  0  0  0  0
 29 69  1  0  0  0  0
 30 47  1  0  0  0  0
 30 63  2  0  0  0  0
 30 64  1  0  0  0  0
 31 70  1  0  0  0  0
 31 74  2  0  0  0  0
 32 48  1  0  0  0  0
 32 71  1  0  0  0  0
 32 75  2  0  0  0  0
 33 59  1  0  0  0  0
 33 66  1  0  0  0  0
 33 76  2  0  0  0  0
 34 60  1  0  0  0  0
 34 72  1  0  0  0  0
 34 77  2  0  0  0  0
 35 67  1  0  0  0  0
 35 68  1  0  0  0  0
 35 78  2  0  0  0  0
 36 39  1  0  0  0  0
 37 48  1  0  0  0  0
 38 66  1  0  0  0  0
 39 41  1  0  0  0  0
 40 42  1  0  0  0  0
 40 43  1  0  0  0  0
 41 46  1  0  0  0  0
 42 49  1  0  0  0  0
 43 67  1  0  0  0  0
 44 47  1  0  0  0  0
 44 68  1  0  0  0  0
 45 49  1  0  0  0  0
 45 67  1  0  0  0  0
 46 71  1  0  0  0  0
 47 68  1  0  0  0  0
 48 66  1  0  0  0  0
 49 65  1  0  0  0  0
 51 58  1  0  0  0  0
 52 60  1  0  0  0  0
 53 61  1  0  0  0  0
 54 61  1  0  0  0  0
 55 61  1  0  0  0  0
 56 73  1  0  0  0  0
 57 80  1  0  0  0  0
 58 64  1  0  0  0  0
 59 61  1  0  0  0  0
 59 72  1  0  0  0  0
 60 73  1  0  0  0  0
 62 65  1  0  0  0  0
M  CHG  1  73   1
M  ISO  4  35 100  57 101  68 100  80 101
M  END
> <Batch ID>
0187

> <Smiles>
CCn1c(C2C[100N:0]2[100C:0](=O)N2CCCC(n3nc(-c4ccc(Oc5ccc(F)cc5F)cc4)c(C(N)=O)c3N)C2)nc(C)c1[101CH2:1][101O:1]c1ccc2c(c1)CN(C(=O)C(NC(=O)C(C)NC)C(C)(C)C)C(C(=O)NC1CCCc3ccccc31)C2

> <Shape>
0.206

> <Color>
0.080

> <Negative vol penalty>
0.000

$$$$

  -OEChem-04052323173D

 82 91  0     1  0  0  0  0  0999 V2000
  -17.6149  -29.6343   22.8636 C   0  0  0  0  0  0  0  0  0  0  0  0
  -18.9118  -29.7107   22.3661 C   0  0  0  0  0  0  0  0  0  0  0  0
  -31.8783  -27.6841   20.4579 C   0  0  0  0  0  0  0  0  0  0  0  0
  -26.2779  -13.3135   21.7026 C   0  0  0  0  0  0  0  0  0  0  0  0
  -25.8475  -13.2027   19.3278 C   0  0  0  0  0  0  0  0  0  0  0  0
  -17.2507  -28.5788   23.6985 C   0  0  0  0  0  0  0  0  0  0  0  0
  -19.8458  -28.7319   22.7041 C   0  0  0  0  0  0  0  0  0  0  0  0
  -24.3341  -26.5448   19.1577 C   0  0  0  0  0  0  0  0  0  0  0  0
  -25.0826  -12.6387   21.9507 C   0  0  0  0  0  0  0  0  0  0  0  0
  -24.6522  -12.5279   19.5759 C   0  0  0  0  0  0  0  0  0  0  0  0
  -25.6949  -26.8376   19.0796 C   0  0  0  0  0  0  0  0  0  0  0  0
  -21.7850  -13.3723   22.0598 C   0  0  0  0  0  0  0  0  0  0  0  0
  -20.9629  -13.8634   23.0739 C   0  0  0  0  0  0  0  0  0  0  0  0
  -30.5666  -27.2609   20.6414 C   0  0  0  0  0  0  0  0  0  0  0  0
  -32.8071  -26.8227   19.8847 C   0  0  0  0  0  0  0  0  0  0  0  0
  -26.1741  -24.9678   20.5264 C   0  0  0  0  0  0  0  0  0  0  0  0
  -21.1444  -11.7560   24.2415 C   0  0  0  0  0  0  0  0  0  0  0  0
  -26.6604  -13.5955   20.3911 C   0  0  0  0  0  0  0  0  0  0  0  0
  -29.1934  -13.8814   20.4886 C   0  0  0  0  0  0  0  0  0  0  0  0
  -18.1780  -27.5814   24.0392 C   0  0  0  0  0  0  0  0  0  0  0  0
  -23.8813  -25.4660   19.9308 C   0  0  0  0  0  0  0  0  0  0  0  0
  -19.4941  -27.6627   23.5455 C   0  0  0  0  0  0  0  0  0  0  0  0
  -24.8072  -24.6618   20.6106 C   0  0  0  0  0  0  0  0  0  0  0  0
  -24.2698  -12.2459   20.8874 C   0  0  0  0  0  0  0  0  0  0  0  0
  -26.6149  -26.0508   19.7663 C   0  0  0  0  0  0  0  0  0  0  0  0
  -22.2868  -12.0731   22.1364 C   0  0  0  0  0  0  0  0  0  0  0  0
  -20.6426  -13.0553   24.1648 C   0  0  0  0  0  0  0  0  0  0  0  0
  -21.9665  -11.2650   23.2273 C   0  0  0  0  0  0  0  0  0  0  0  0
  -27.8947  -14.2930   20.1342 C   0  0  0  0  0  0  0  0  0  0  0  0
  -30.2370  -25.9770   20.2379 C   0  0  0  0  0  0  0  0  0  0  0  0
  -32.3772  -25.5584   19.5153 C   0  0  0  0  0  0  0  0  0  0  0  0
  -30.0100  -14.8832   20.0238 C   0  0  0  0  0  0  0  0  0  0  0  0
  -29.6233  -12.6990   21.1764 C   0  0  0  0  0  0  0  0  0  0  0  0
  -21.9922  -25.1621   22.4690 C   0  0  0  0  0  0  0  0  0  0  0  0
  -22.3884  -21.9935   21.8982 C   0  0  0  0  0  0  0  0  0  0  0  0
  -24.2899  -19.5117   20.5302 C   0  0  0  0  0  0  0  0  0  0  0  0
  -31.1016  -20.2699   19.6439 C   0  0  0  0  0  0  0  0  0  0  0  0
  -17.7511  -26.4852   24.9830 C   0  0  0  0  0  0  0  0  0  0  0  0
  -22.4123  -25.1472   19.9832 C   0  0  0  0  0  0  0  0  0  0  0  0
  -24.3743  -23.4801   21.4379 C   0  0  0  0  0  0  0  0  0  0  0  0
  -18.6959  -25.2862   24.9910 C   0  0  0  0  0  0  0  0  0  0  0  0
  -29.0557  -18.7729   16.9632 C   0  0  0  0  0  0  0  0  0  0  0  0
  -20.1462  -25.7499   25.0822 C   0  0  0  0  0  0  0  0  0  0  0  0
  -28.6374  -17.4574   17.6133 C   0  0  0  0  0  0  0  0  0  0  0  0
  -33.8149  -22.1838   18.9864 C   0  0  0  0  0  0  0  0  0  0  0  0
  -29.1792  -19.9033   17.9841 C   0  0  0  0  0  0  0  0  0  0  0  0
  -29.6634  -18.2605   19.7761 C   0  0  0  0  0  0  0  0  0  0  0  0
  -20.5287  -26.6069   23.8694 C   0  0  1  0  0  0  0  0  0  0  0  0
  -22.0205  -24.3359   21.2143 C   0  0  1  0  0  0  0  0  0  0  0  0
  -29.5813  -17.1006   18.7719 C   0  0  1  0  0  0  0  0  0  0  0  0
  -33.0201  -23.3666   18.5112 C   0  0  1  0  0  0  0  0  0  0  0  0
  -32.3991  -22.3707   19.4571 C   0  0  1  0  0  0  0  0  0  0  0  0
  -24.3753  -17.0185   20.2576 C   0  0  0  0  0  0  0  0  0  0  0  0
  -23.2761  -21.7087   24.8035 C   0  0  0  0  0  0  0  0  0  0  0  0
  -24.2315  -19.4695   24.2192 C   0  0  0  0  0  0  0  0  0  0  0  0
  -21.7818  -19.8780   23.9850 C   0  0  0  0  0  0  0  0  0  0  0  0
  -24.1923  -19.7146   17.5792 C   0  0  0  0  0  0  0  0  0  0  0  0
  -28.8306  -25.4872   20.4213 C   0  0  0  0  0  0  0  0  0  1  0  0
  -23.3788  -20.9433   22.3398 C   0  0  1  0  0  0  0  0  0  0  0  0
  -23.9241  -18.3348   19.6439 C   0  0  2  0  0  0  0  0  0  0  0  0
  -23.1754  -20.5233   23.8229 C   0  0  0  0  0  0  0  0  0  0  0  0
  -27.8821  -15.4651   19.4938 N   0  0  0  0  0  0  0  0  0  0  0  0
  -31.1116  -25.1118   19.6776 N   0  0  0  0  0  0  0  0  0  0  0  0
  -29.1829  -15.7985   19.4422 N   0  0  0  0  0  0  0  0  0  0  0  0
  -22.9267  -23.2128   21.4629 N   0  0  0  0  0  0  0  0  0  0  0  0
  -30.0358  -19.5183   19.1168 N   0  0  0  0  0  0  0  0  0  0  0  0
  -31.3476  -15.0616   20.0600 N   0  0  0  0  0  0  0  0  0  0  0  0
  -29.9313  -11.5604   20.4194 N   0  0  0  0  0  0  0  0  0  0  0  0
  -33.3358  -24.6924   18.9322 N   0  0  0  0  0  0  0  0  0  0  0  0
  -20.7754  -25.7686   22.7158 N   0  0  0  0  0  0  0  0  0  0  0  0
  -23.2619  -19.8453   21.3864 N   0  0  0  0  0  0  0  0  0  0  0  0
  -31.3468  -21.4902   19.0247 N   0  0  0  0  0  0  0  0  0  0  0  0
  -24.5663  -18.4743   18.3064 N   0  3  0  0  0  0  0  0  0  0  0  0
  -29.7152  -12.6486   22.4264 O   0  0  0  0  0  0  0  0  0  0  0  0
  -22.9992  -25.2420   23.1626 O   0  0  0  0  0  0  0  0  0  0  0  0
  -21.1819  -21.7388   21.9312 O   0  0  0  0  0  0  0  0  0  0  0  0
  -25.3802  -20.0761   20.4716 O   0  0  0  0  0  0  0  0  0  0  0  0
  -31.7831  -19.8858   20.6009 O   0  0  0  0  0  0  0  0  0  0  0  0
  -23.1035  -11.5872   21.1291 O   0  0  0  0  0  0  0  0  0  0  0  0
  -27.9437  -26.3348   19.6923 O   0  0  0  0  0  0  0  0  0  1  0  0
  -19.8544  -13.5275   25.1394 F   0  0  0  0  0  0  0  0  0  0  0  0
  -22.4465  -10.0163   23.3070 F   0  0  0  0  0  0  0  0  0  0  0  0
  1  2  1  0  0  0  0
  1  6  2  0  0  0  0
  2  7  2  0  0  0  0
  3 14  2  0  0  0  0
  3 15  1  0  0  0  0
  4  9  2  0  0  0  0
  4 18  1  0  0  0  0
  5 10  1  0  0  0  0
  5 18  2  0  0  0  0
  6 20  1  0  0  0  0
  7 22  1  0  0  0  0
  8 11  2  0  0  0  0
  8 21  1  0  0  0  0
  9 24  1  0  0  0  0
 10 24  2  0  0  0  0
 11 25  1  0  0  0  0
 12 13  2  0  0  0  0
 12 26  1  0  0  0  0
 13 27  1  0  0  0  0
 14 30  1  0  0  0  0
 15 31  2  0  0  0  0
 16 23  1  0  0  0  0
 16 25  2  0  0  0  0
 17 27  2  0  0  0  0
 17 28  1  0  0  0  0
 18 29  1  0  0  0  0
 19 29  1  0  0  0  0
 19 32  2  0  0  0  0
 19 33  1  0  0  0  0
 20 22  2  0  0  0  0
 20 38  1  0  0  0  0
 21 23  2  0  0  0  0
 21 39  1  0  0  0  0
 22 48  1  0  0  0  0
 23 40  1  0  0  0  0
 24 79  1  0  0  0  0
 25 80  1  0  0  0  0
 26 28  2  0  0  0  0
 26 79  1  0  0  0  0
 27 81  1  0  0  0  0
 28 82  1  0  0  0  0
 29 62  2  0  0  0  0
 30 58  1  0  0  0  0
 30 63  2  0  0  0  0
 31 63  1  0  0  0  0
 31 69  1  0  0  0  0
 32 64  1  0  0  0  0
 32 67  1  0  0  0  0
 33 68  1  0  0  0  0
 33 74  2  0  0  0  0
 34 49  1  0  0  0  0
 34 70  1  0  0  0  0
 34 75  2  0  0  0  0
 35 59  1  0  0  0  0
 35 65  1  0  0  0  0
 35 76  2  0  0  0  0
 36 60  1  0  0  0  0
 36 71  1  0  0  0  0
 36 77  2  0  0  0  0
 37 66  1  0  0  0  0
 37 72  1  0  0  0  0
 37 78  2  0  0  0  0
 38 41  1  0  0  0  0
 39 49  1  0  0  0  0
 40 65  1  0  0  0  0
 41 43  1  0  0  0  0
 42 44  1  0  0  0  0
 42 46  1  0  0  0  0
 43 48  1  0  0  0  0
 44 50  1  0  0  0  0
 45 51  1  0  0  0  0
 45 52  1  0  0  0  0
 46 66  1  0  0  0  0
 47 50  1  0  0  0  0
 47 66  1  0  0  0  0
 48 70  1  0  0  0  0
 49 65  1  0  0  0  0
 50 64  1  0  0  0  0
 51 52  1  0  0  0  0
 51 69  1  0  0  0  0
 52 72  1  0  0  0  0
 53 60  1  0  0  0  0
 54 61  1  0  0  0  0
 55 61  1  0  0  0  0
 56 61  1  0  0  0  0
 57 73  1  0  0  0  0
 58 80  1  0  0  0  0
 59 61  1  0  0  0  0
 59 71  1  0  0  0  0
 60 73  1  0  0  0  0
 62 64  1  0  0  0  0
M  CHG  1  73   1
M  ISO  4  37 100  58 101  72 100  80 101
M  END
> <Batch ID>
0187

> <Smiles>
CNC(C)C(=O)NC(C(=O)N1Cc2cc([101O:1][101CH2:1]c3cccc(NC4CC4[100NH:0][100C:0](=O)N4CCCC(n5nc(-c6ccc(Oc7ccc(F)cc7F)cc6)c(C(N)=O)c5N)C4)n3)ccc2CC1C(=O)NC1CCCc2ccccc21)C(C)(C)C

> <Shape>
0.194

> <Color>
0.067

> <Negative vol penalty>
0.000

$$$$

  -OEChem-04052323173D

 83 92  0     1  0  0  0  0  0999 V2000
  -28.3402  -29.7563   27.9148 C   0  0  0  0  0  0  0  0  0  0  0  0
  -28.1993  -28.7757   26.9380 C   0  0  0  0  0  0  0  0  0  0  0  0
  -23.2638  -10.5092   21.4009 C   0  0  0  0  0  0  0  0  0  0  0  0
  -24.8118   -8.8292   22.1872 C   0  0  0  0  0  0  0  0  0  0  0  0
  -27.2820  -30.6213   28.1902 C   0  0  0  0  0  0  0  0  0  0  0  0
  -26.9996  -28.6589   26.2369 C   0  0  0  0  0  0  0  0  0  0  0  0
  -27.7096  -28.0531   21.2595 C   0  0  0  0  0  0  0  0  0  0  0  0
  -22.2944   -9.5253   21.2069 C   0  0  0  0  0  0  0  0  0  0  0  0
  -23.8424   -7.8452   21.9933 C   0  0  0  0  0  0  0  0  0  0  0  0
  -28.0821  -26.7838   20.8193 C   0  0  0  0  0  0  0  0  0  0  0  0
  -21.0955   -6.7066   23.5991 C   0  0  0  0  0  0  0  0  0  0  0  0
  -20.9203   -5.7632   24.6114 C   0  0  0  0  0  0  0  0  0  0  0  0
  -25.7999  -26.3451   20.1723 C   0  0  0  0  0  0  0  0  0  0  0  0
  -21.4815   -3.9964   23.0620 C   0  0  0  0  0  0  0  0  0  0  0  0
  -24.5226  -10.1612   21.8909 C   0  0  0  0  0  0  0  0  0  0  0  0
  -25.7499  -11.9308   23.2583 C   0  0  0  0  0  0  0  0  0  0  0  0
  -26.0721  -30.5213   27.4853 C   0  0  0  0  0  0  0  0  0  0  0  0
  -26.3752  -28.4746   21.1693 C   0  0  0  0  0  0  0  0  0  0  0  0
  -25.9238  -29.5226   26.5041 C   0  0  0  0  0  0  0  0  0  0  0  0
  -25.4136  -27.6212   20.6097 C   0  0  0  0  0  0  0  0  0  0  0  0
  -22.5837   -8.1933   21.5032 C   0  0  0  0  0  0  0  0  0  0  0  0
  -27.1267  -25.9284   20.2783 C   0  0  0  0  0  0  0  0  0  0  0  0
  -21.4636   -6.2950   22.3181 C   0  0  0  0  0  0  0  0  0  0  0  0
  -21.1134   -4.4081   24.3429 C   0  0  0  0  0  0  0  0  0  0  0  0
  -21.6566   -4.9399   22.0496 C   0  0  0  0  0  0  0  0  0  0  0  0
  -25.5246  -11.1771   22.0909 C   0  0  0  0  0  0  0  0  0  0  0  0
  -29.0629  -22.9488   19.4300 C   0  0  0  0  0  0  0  0  0  0  0  0
  -28.6614  -21.8222   20.1008 C   0  0  0  0  0  0  0  0  0  0  0  0
  -26.8040  -12.7514   22.9391 C   0  0  0  0  0  0  0  0  0  0  0  0
  -29.4492  -20.5659   18.3977 C   0  0  0  0  0  0  0  0  0  0  0  0
  -25.0674  -11.8924   24.5187 C   0  0  0  0  0  0  0  0  0  0  0  0
  -24.1515  -29.3463   23.2667 C   0  0  0  0  0  0  0  0  0  0  0  0
  -22.4577  -30.0483   20.5907 C   0  0  0  0  0  0  0  0  0  0  0  0
  -21.9411  -29.5008   17.2620 C   0  0  0  0  0  0  0  0  0  0  0  0
  -29.1071  -16.2960   19.4059 C   0  0  0  0  0  0  0  0  0  0  0  0
  -24.9401  -31.4484   27.8511 C   0  0  0  0  0  0  0  0  0  0  0  0
  -25.9945  -29.8569   21.6240 C   0  0  0  0  0  0  0  0  0  0  0  0
  -23.9715  -28.0335   20.4720 C   0  0  0  0  0  0  0  0  0  0  0  0
  -23.8321  -31.5000   26.8024 C   0  0  0  0  0  0  0  0  0  0  0  0
  -29.9358  -12.7250   18.9896 C   0  0  0  0  0  0  0  0  0  0  0  0
  -23.4540  -30.0915   26.3554 C   0  0  0  0  0  0  0  0  0  0  0  0
  -28.8365  -12.0699   19.8206 C   0  0  0  0  0  0  0  0  0  0  0  0
  -31.0761  -18.8458   17.3647 C   0  0  0  0  0  0  0  0  0  0  0  0
  -29.4532  -14.0036   18.3060 C   0  0  0  0  0  0  0  0  0  0  0  0
  -27.7549  -14.3365   20.0806 C   0  0  0  0  0  0  0  0  0  0  0  0
  -24.6467  -29.3803   25.7048 C   0  0  1  0  0  0  0  0  0  0  0  0
  -29.6822  -19.2264   17.7868 C   0  0  1  0  0  0  0  0  0  0  0  0
  -24.5117  -29.9891   21.9572 C   0  0  1  0  0  0  0  0  0  0  0  0
  -28.2358  -13.0755   20.8147 C   0  0  1  0  0  0  0  0  0  0  0  0
  -30.4611  -18.1919   18.5665 C   0  0  1  0  0  0  0  0  0  0  0  0
  -20.4599  -30.1932   15.3584 C   0  0  0  0  0  0  0  0  0  0  0  0
  -20.2178  -28.2988   21.7006 C   0  0  0  0  0  0  0  0  0  0  0  0
  -19.2112  -28.2546   19.4087 C   0  0  0  0  0  0  0  0  0  0  0  0
  -19.4480  -30.4205   20.6234 C   0  0  0  0  0  0  0  0  0  0  0  0
  -27.5845  -20.8324   22.1222 C   0  0  0  0  0  0  0  0  0  0  0  0
  -24.2271  -30.5813   15.7238 C   0  0  0  0  0  0  0  0  0  0  0  0
  -28.8620  -24.3295   19.9818 C   0  0  0  0  0  0  0  0  0  1  0  0
  -21.5092  -29.2880   19.6957 C   0  0  1  0  0  0  0  0  0  0  0  0
  -21.7607  -30.4602   16.0995 C   0  0  2  0  0  0  0  0  0  0  0  0
  -20.1233  -29.0567   20.3613 C   0  0  0  0  0  0  0  0  0  0  0  0
  -26.3677  -11.4912   21.1037 N   0  0  0  0  0  0  0  0  0  0  0  0
  -29.6629  -22.8591   18.2292 N   0  0  0  0  0  0  0  0  0  0  0  0
  -28.8469  -20.5932   19.5959 N   0  0  0  0  0  0  0  0  0  0  0  0
  -29.8641  -21.6372   17.6933 N   0  0  0  0  0  0  0  0  0  0  0  0
  -27.1330  -12.4513   21.6500 N   0  0  0  0  0  0  0  0  0  0  0  0
  -23.6476  -29.3924   20.9366 N   0  0  0  0  0  0  0  0  0  0  0  0
  -28.8240  -14.9255   19.2647 N   0  0  0  0  0  0  0  0  0  0  0  0
  -27.4722  -13.6933   23.6382 N   0  0  0  0  0  0  0  0  0  0  0  0
  -24.0067  -10.9902   24.6769 N   0  0  0  0  0  0  0  0  0  0  0  0
  -28.0339  -21.9541   21.3597 N   0  0  0  0  0  0  0  0  0  0  0  0
  -24.8407  -29.8543   24.3512 N   0  0  0  0  0  0  0  0  0  0  0  0
  -21.4527  -30.0272   18.4391 N   0  0  0  0  0  0  0  0  0  0  0  0
  -30.0710  -16.8074   18.5443 N   0  0  0  0  0  0  0  0  0  0  0  0
  -22.8881  -30.3227   15.1346 N   0  3  0  0  0  0  0  0  0  0  0  0
  -25.3781  -12.6478   25.4707 O   0  0  0  0  0  0  0  0  0  0  0  0
  -23.3094  -28.4563   23.2914 O   0  0  0  0  0  0  0  0  0  0  0  0
  -22.1573  -31.1853   20.9632 O   0  0  0  0  0  0  0  0  0  0  0  0
  -22.4599  -28.3936   17.1376 O   0  0  0  0  0  0  0  0  0  0  0  0
  -28.5391  -17.0154   20.2351 O   0  0  0  0  0  0  0  0  0  0  0  0
  -21.6378   -7.2329   21.3143 O   0  0  0  0  0  0  0  0  0  0  0  0
  -27.4874  -24.6887   19.8485 O   0  0  0  0  0  0  0  0  0  1  0  0
  -20.9466   -3.5024   25.3156 F   0  0  0  0  0  0  0  0  0  0  0  0
  -22.0115   -4.5384   20.8213 F   0  0  0  0  0  0  0  0  0  0  0  0
  1  2  1  0  0  0  0
  1  5  2  0  0  0  0
  2  6  2  0  0  0  0
  3  8  2  0  0  0  0
  3 15  1  0  0  0  0
  4  9  1  0  0  0  0
  4 15  2  0  0  0  0
  5 17  1  0  0  0  0
  6 19  1  0  0  0  0
  7 10  2  0  0  0  0
  7 18  1  0  0  0  0
  8 21  1  0  0  0  0
  9 21  2  0  0  0  0
 10 22  1  0  0  0  0
 11 12  2  0  0  0  0
 11 23  1  0  0  0  0
 12 24  1  0  0  0  0
 13 20  1  0  0  0  0
 13 22  2  0  0  0  0
 14 24  2  0  0  0  0
 14 25  1  0  0  0  0
 15 26  1  0  0  0  0
 16 26  1  0  0  0  0
 16 29  2  0  0  0  0
 16 31  1  0  0  0  0
 17 19  2  0  0  0  0
 17 36  1  0  0  0  0
 18 20  2  0  0  0  0
 18 37  1  0  0  0  0
 19 46  1  0  0  0  0
 20 38  1  0  0  0  0
 21 80  1  0  0  0  0
 22 81  1  0  0  0  0
 23 25  2  0  0  0  0
 23 80  1  0  0  0  0
 24 82  1  0  0  0  0
 25 83  1  0  0  0  0
 26 61  2  0  0  0  0
 27 28  2  0  0  0  0
 27 57  1  0  0  0  0
 27 62  1  0  0  0  0
 28 63  1  0  0  0  0
 28 70  1  0  0  0  0
 29 65  1  0  0  0  0
 29 68  1  0  0  0  0
 30 47  1  0  0  0  0
 30 63  2  0  0  0  0
 30 64  1  0  0  0  0
 31 69  1  0  0  0  0
 31 75  2  0  0  0  0
 32 48  1  0  0  0  0
 32 71  1  0  0  0  0
 32 76  2  0  0  0  0
 33 58  1  0  0  0  0
 33 66  1  0  0  0  0
 33 77  2  0  0  0  0
 34 59  1  0  0  0  0
 34 72  1  0  0  0  0
 34 78  2  0  0  0  0
 35 67  1  0  0  0  0
 35 73  1  0  0  0  0
 35 79  2  0  0  0  0
 36 39  1  0  0  0  0
 37 48  1  0  0  0  0
 38 66  1  0  0  0  0
 39 41  1  0  0  0  0
 40 42  1  0  0  0  0
 40 44  1  0  0  0  0
 41 46  1  0  0  0  0
 42 49  1  0  0  0  0
 43 47  1  0  0  0  0
 43 50  1  0  0  0  0
 44 67  1  0  0  0  0
 45 49  1  0  0  0  0
 45 67  1  0  0  0  0
 46 71  1  0  0  0  0
 47 50  1  0  0  0  0
 48 66  1  0  0  0  0
 49 65  1  0  0  0  0
 50 73  1  0  0  0  0
 51 59  1  0  0  0  0
 52 60  1  0  0  0  0
 53 60  1  0  0  0  0
 54 60  1  0  0  0  0
 55 70  1  0  0  0  0
 56 74  1  0  0  0  0
 57 81  1  0  0  0  0
 58 60  1  0  0  0  0
 58 72  1  0  0  0  0
 59 74  1  0  0  0  0
 61 65  1  0  0  0  0
 62 64  2  0  0  0  0
M  CHG  1  74   1
M  ISO  4  35 100  57 101  73 100  81 101
M  END
> <Batch ID>
0187

> <Smiles>
CNc1nc(C2CC2[100NH:0][100C:0](=O)N2CCCC(n3nc(-c4ccc(Oc5ccc(F)cc5F)cc4)c(C(N)=O)c3N)C2)nnc1[101CH2:1][101O:1]c1ccc2c(c1)CN(C(=O)C(NC(=O)C(C)NC)C(C)(C)C)C(C(=O)NC1CCCc3ccccc31)C2

> <Shape>
0.284

> <Color>
0.113

> <Negative vol penalty>
0.000

$$$$

  -OEChem-04052323173D

 84 94  0     1  0  0  0  0  0999 V2000
  -28.4194  -35.6102   24.7333 C   0  0  0  0  0  0  0  0  0  0  0  0
  -28.7919  -34.4188   24.1191 C   0  0  0  0  0  0  0  0  0  0  0  0
  -24.3802  -10.6517   23.0810 C   0  0  0  0  0  0  0  0  0  0  0  0
  -24.7202  -12.7356   24.2553 C   0  0  0  0  0  0  0  0  0  0  0  0
  -27.1889  -35.7036   25.3822 C   0  0  0  0  0  0  0  0  0  0  0  0
  -27.9345  -33.3197   24.1544 C   0  0  0  0  0  0  0  0  0  0  0  0
  -27.1631  -29.1102   19.7737 C   0  0  0  0  0  0  0  0  0  0  0  0
  -24.0494  -10.0278   24.2838 C   0  0  0  0  0  0  0  0  0  0  0  0
  -24.3893  -12.1117   25.4582 C   0  0  0  0  0  0  0  0  0  0  0  0
  -27.6827  -27.8278   19.6032 C   0  0  0  0  0  0  0  0  0  0  0  0
  -21.3663   -9.8307   26.3321 C   0  0  0  0  0  0  0  0  0  0  0  0
  -20.2490   -8.9959   26.3434 C   0  0  0  0  0  0  0  0  0  0  0  0
  -25.6918  -26.8956   20.5963 C   0  0  0  0  0  0  0  0  0  0  0  0
  -21.6441   -7.1377   27.0053 C   0  0  0  0  0  0  0  0  0  0  0  0
  -28.0944  -21.4818   18.6489 C   0  0  0  0  0  0  0  0  0  0  0  0
  -24.7157  -12.0056   23.0667 C   0  0  0  0  0  0  0  0  0  0  0  0
  -24.1816  -13.2966   20.9323 C   0  0  0  0  0  0  0  0  0  0  0  0
  -26.3118  -34.6081   25.4171 C   0  0  0  0  0  0  0  0  0  0  0  0
  -25.9065  -29.2959   20.3677 C   0  0  0  0  0  0  0  0  0  0  0  0
  -26.6916  -33.3982   24.8055 C   0  0  0  0  0  0  0  0  0  0  0  0
  -25.1573  -28.1813   20.7708 C   0  0  0  0  0  0  0  0  0  0  0  0
  -28.6797  -20.7820   19.6843 C   0  0  0  0  0  0  0  0  0  0  0  0
  -24.0539  -10.7578   25.4724 C   0  0  0  0  0  0  0  0  0  0  0  0
  -26.9483  -26.7204   20.0172 C   0  0  0  0  0  0  0  0  0  0  0  0
  -22.6226   -9.3191   26.6573 C   0  0  0  0  0  0  0  0  0  0  0  0
  -20.3879   -7.6494   26.6800 C   0  0  0  0  0  0  0  0  0  0  0  0
  -22.7615   -7.9726   26.9939 C   0  0  0  0  0  0  0  0  0  0  0  0
  -25.0581  -12.6505   21.8246 C   0  0  0  0  0  0  0  0  0  0  0  0
  -28.5490  -21.3477   20.9362 C   0  0  0  0  0  0  0  0  0  0  0  0
  -24.9917  -13.7387   19.9150 C   0  0  0  0  0  0  0  0  0  0  0  0
  -27.3716  -23.0934   20.0797 C   0  0  0  0  0  0  0  0  0  0  0  0
  -22.7622  -13.4807   21.0156 C   0  0  0  0  0  0  0  0  0  0  0  0
  -24.8590  -30.7512   22.9923 C   0  0  0  0  0  0  0  0  0  0  0  0
  -21.9470  -30.0013   21.7757 C   0  0  0  0  0  0  0  0  0  0  0  0
  -20.0865  -27.9825   19.7484 C   0  0  0  0  0  0  0  0  0  0  0  0
  -29.7819  -16.2730   18.3372 C   0  0  0  0  0  0  0  0  0  0  0  0
  -25.0126  -34.7421   26.1713 C   0  0  0  0  0  0  0  0  0  0  0  0
  -25.3485  -30.6843   20.5200 C   0  0  0  0  0  0  0  0  0  0  0  0
  -23.7944  -28.3256   21.3954 C   0  0  0  0  0  0  0  0  0  0  0  0
  -24.0008  -33.6479   25.8409 C   0  0  0  0  0  0  0  0  0  0  0  0
  -29.8005  -12.7103   18.8271 C   0  0  0  0  0  0  0  0  0  0  0  0
  -24.6714  -32.2779   25.8586 C   0  0  0  0  0  0  0  0  0  0  0  0
  -29.5195  -21.4917   23.3260 C   0  0  0  0  0  0  0  0  0  0  0  0
  -30.5953  -20.9211   22.4557 C   0  0  0  0  0  0  0  0  0  0  0  0
  -28.5297  -12.4324   19.6231 C   0  0  0  0  0  0  0  0  0  0  0  0
  -30.4037  -14.0531   19.2168 C   0  0  0  0  0  0  0  0  0  0  0  0
  -28.8403  -18.0998   19.9608 C   0  0  0  0  0  0  0  0  0  0  0  0
  -29.3702  -18.7726   18.0217 C   0  0  0  0  0  0  0  0  0  0  0  0
  -28.1642  -14.9455   19.8015 C   0  0  0  0  0  0  0  0  0  0  0  0
  -29.4464  -19.4192   19.4240 C   0  0  0  0  0  0  0  0  0  0  0  0
  -25.7782  -32.1916   24.8009 C   0  0  1  0  0  0  0  0  0  0  0  0
  -29.1495  -20.6675   22.1220 C   0  0  0  0  0  0  0  0  0  0  0  0
  -24.2812  -30.7835   21.6056 C   0  0  1  0  0  0  0  0  0  0  0  0
  -27.5285  -13.5843   19.4558 C   0  0  2  0  0  0  0  0  0  0  0  0
  -17.7274  -27.5897   18.9884 C   0  0  0  0  0  0  0  0  0  0  0  0
  -21.3061  -28.6856   24.4530 C   0  0  0  0  0  0  0  0  0  0  0  0
  -19.3898  -27.5188   23.3419 C   0  0  0  0  0  0  0  0  0  0  0  0
  -19.4285  -30.0100   23.4655 C   0  0  0  0  0  0  0  0  0  0  0  0
  -20.7846  -28.5185   16.9227 C   0  0  0  0  0  0  0  0  0  0  0  0
  -26.6477  -24.3781   20.2992 C   0  0  0  0  0  0  0  0  0  1  0  0
  -21.0112  -28.8224   21.8917 C   0  0  1  0  0  0  0  0  0  0  0  0
  -19.0395  -28.3010   18.6964 C   0  0  2  0  0  0  0  0  0  0  0  0
  -20.3104  -28.7562   23.2781 C   0  0  0  0  0  0  0  0  0  0  0  0
  -27.4302  -22.6448   18.8113 N   0  0  0  0  0  0  0  0  0  0  0  0
  -26.3277  -12.6774   21.4104 N   0  0  0  0  0  0  0  0  0  0  0  0
  -27.8993  -22.5067   21.1710 N   0  0  0  0  0  0  0  0  0  0  0  0
  -26.2548  -13.3456   20.2467 N   0  0  0  0  0  0  0  0  0  0  0  0
  -23.2948  -29.7041   21.5288 N   0  0  0  0  0  0  0  0  0  0  0  0
  -29.4369  -15.1486   19.0955 N   0  0  0  0  0  0  0  0  0  0  0  0
  -29.2707  -17.4929   18.7127 N   0  0  0  0  0  0  0  0  0  0  0  0
  -24.7395  -14.4214   18.7780 N   0  0  0  0  0  0  0  0  0  0  0  0
  -22.0855  -12.9631   22.1284 N   0  0  0  0  0  0  0  0  0  0  0  0
  -25.2066  -31.9941   23.4861 N   0  0  0  0  0  0  0  0  0  0  0  0
  -20.0930  -28.9173   20.7620 N   0  0  0  0  0  0  0  0  0  0  0  0
  -19.5138  -27.8776   17.3486 N   0  3  0  0  0  0  0  0  0  0  0  0
  -22.1108  -14.0719   20.1213 O   0  0  0  0  0  0  0  0  0  0  0  0
  -24.9791  -29.6782   23.5718 O   0  0  0  0  0  0  0  0  0  0  0  0
  -21.4974  -31.1440   21.8924 O   0  0  0  0  0  0  0  0  0  0  0  0
  -20.8223  -27.0004   19.6798 O   0  0  0  0  0  0  0  0  0  0  0  0
  -30.5493  -16.1970   17.3685 O   0  0  0  0  0  0  0  0  0  0  0  0
  -23.7308  -10.1494   26.6463 O   0  0  0  0  0  0  0  0  0  0  0  0
  -27.4569  -25.4590   19.8514 O   0  0  0  0  0  0  0  0  0  1  0  0
  -19.3146   -6.8481   26.6924 F   0  0  0  0  0  0  0  0  0  0  0  0
  -23.9656   -7.4756   27.3084 F   0  0  0  0  0  0  0  0  0  0  0  0
  1  2  1  0  0  0  0
  1  5  2  0  0  0  0
  2  6  2  0  0  0  0
  3  8  2  0  0  0  0
  3 16  1  0  0  0  0
  4  9  1  0  0  0  0
  4 16  2  0  0  0  0
  5 18  1  0  0  0  0
  6 20  1  0  0  0  0
  7 10  2  0  0  0  0
  7 19  1  0  0  0  0
  8 23  1  0  0  0  0
  9 23  2  0  0  0  0
 10 24  1  0  0  0  0
 11 12  2  0  0  0  0
 11 25  1  0  0  0  0
 12 26  1  0  0  0  0
 13 21  1  0  0  0  0
 13 24  2  0  0  0  0
 14 26  2  0  0  0  0
 14 27  1  0  0  0  0
 15 22  1  0  0  0  0
 15 64  2  0  0  0  0
 16 28  1  0  0  0  0
 17 28  1  0  0  0  0
 17 30  2  0  0  0  0
 17 32  1  0  0  0  0
 18 20  2  0  0  0  0
 18 37  1  0  0  0  0
 19 21  2  0  0  0  0
 19 38  1  0  0  0  0
 20 51  1  0  0  0  0
 21 39  1  0  0  0  0
 22 29  2  0  0  0  0
 22 50  1  0  0  0  0
 23 81  1  0  0  0  0
 24 82  1  0  0  0  0
 25 27  2  0  0  0  0
 25 81  1  0  0  0  0
 26 83  1  0  0  0  0
 27 84  1  0  0  0  0
 28 65  2  0  0  0  0
 29 52  1  0  0  0  0
 29 66  1  0  0  0  0
 30 67  1  0  0  0  0
 30 71  1  0  0  0  0
 31 60  1  0  0  0  0
 31 64  1  0  0  0  0
 31 66  2  0  0  0  0
 32 72  1  0  0  0  0
 32 76  2  0  0  0  0
 33 53  1  0  0  0  0
 33 73  1  0  0  0  0
 33 77  2  0  0  0  0
 34 61  1  0  0  0  0
 34 68  1  0  0  0  0
 34 78  2  0  0  0  0
 35 62  1  0  0  0  0
 35 74  1  0  0  0  0
 35 79  2  0  0  0  0
 36 69  1  0  0  0  0
 36 70  1  0  0  0  0
 36 80  2  0  0  0  0
 37 40  1  0  0  0  0
 38 53  1  0  0  0  0
 39 68  1  0  0  0  0
 40 42  1  0  0  0  0
 41 45  1  0  0  0  0
 41 46  1  0  0  0  0
 42 51  1  0  0  0  0
 43 44  1  0  0  0  0
 43 52  1  0  0  0  0
 44 52  1  0  0  0  0
 45 54  1  0  0  0  0
 46 69  1  0  0  0  0
 47 50  1  0  0  0  0
 47 70  1  0  0  0  0
 48 50  1  0  0  0  0
 48 70  1  0  0  0  0
 49 54  1  0  0  0  0
 49 69  1  0  0  0  0
 51 73  1  0  0  0  0
 53 68  1  0  0  0  0
 54 67  1  0  0  0  0
 55 62  1  0  0  0  0
 56 63  1  0  0  0  0
 57 63  1  0  0  0  0
 58 63  1  0  0  0  0
 59 75  1  0  0  0  0
 60 82  1  0  0  0  0
 61 63  1  0  0  0  0
 61 74  1  0  0  0  0
 62 75  1  0  0  0  0
 65 67  1  0  0  0  0
M  CHG  1  75   1
M  ISO  4  36 100  60 101  70 100  82 101
M  END
> <Batch ID>
0187

> <Smiles>
CNC(C)C(=O)NC(C(=O)N1Cc2cc([101O:1][101CH2:1]c3ncc(C4C[100N:0]([100C:0](=O)N5CCCC(n6nc(-c7ccc(Oc8ccc(F)cc8F)cc7)c(C(N)=O)c6N)C5)C4)c(C4CC4)n3)ccc2CC1C(=O)NC1CCCc2ccccc21)C(C)(C)C

> <Shape>
0.286

> <Color>
0.087

> <Negative vol penalty>
0.000

$$$$

  -OEChem-04052323173D

 81 90  0     1  0  0  0  0  0999 V2000
  -22.2673   -9.0393   22.0305 C   0  0  0  0  0  0  0  0  0  0  0  0
  -23.6381   -8.8099   22.0903 C   0  0  0  0  0  0  0  0  0  0  0  0
  -24.9247  -26.9867   21.8688 C   0  0  0  0  0  0  0  0  0  0  0  0
  -24.8863  -26.3080   19.5504 C   0  0  0  0  0  0  0  0  0  0  0  0
  -21.7625  -10.0215   21.1794 C   0  0  0  0  0  0  0  0  0  0  0  0
  -24.5050   -9.5619   21.2981 C   0  0  0  0  0  0  0  0  0  0  0  0
  -29.7439  -13.5203   24.2606 C   0  0  0  0  0  0  0  0  0  0  0  0
  -23.6133  -26.5371   22.0222 C   0  0  0  0  0  0  0  0  0  0  0  0
  -23.5748  -25.8582   19.7038 C   0  0  0  0  0  0  0  0  0  0  0  0
  -30.9014  -14.1356   24.7379 C   0  0  0  0  0  0  0  0  0  0  0  0
  -20.5021  -27.6347   21.2870 C   0  0  0  0  0  0  0  0  0  0  0  0
  -19.6099  -28.4616   21.9694 C   0  0  0  0  0  0  0  0  0  0  0  0
  -31.4323  -14.8940   22.5038 C   0  0  0  0  0  0  0  0  0  0  0  0
  -19.2576  -26.7257   23.6124 C   0  0  0  0  0  0  0  0  0  0  0  0
  -25.5612  -26.8722   20.6329 C   0  0  0  0  0  0  0  0  0  0  0  0
  -27.3930  -28.6474   20.6662 C   0  0  0  0  0  0  0  0  0  0  0  0
  -22.6243  -10.7925   20.3836 C   0  0  0  0  0  0  0  0  0  0  0  0
  -29.4178  -13.6027   22.9040 C   0  0  0  0  0  0  0  0  0  0  0  0
  -24.0111  -10.5544   20.4346 C   0  0  0  0  0  0  0  0  0  0  0  0
  -30.2677  -14.2903   22.0221 C   0  0  0  0  0  0  0  0  0  0  0  0
  -22.9383  -25.9728   20.9397 C   0  0  0  0  0  0  0  0  0  0  0  0
  -31.7436  -14.8205   23.8616 C   0  0  0  0  0  0  0  0  0  0  0  0
  -20.7721  -26.3532   21.7673 C   0  0  0  0  0  0  0  0  0  0  0  0
  -18.9876  -28.0072   23.1321 C   0  0  0  0  0  0  0  0  0  0  0  0
  -20.1498  -25.8987   22.9300 C   0  0  0  0  0  0  0  0  0  0  0  0
  -26.9157  -27.3371   20.4736 C   0  0  0  0  0  0  0  0  0  0  0  0
  -28.7362  -28.5675   20.3911 C   0  0  0  0  0  0  0  0  0  0  0  0
  -26.6853  -29.8310   21.0587 C   0  0  0  0  0  0  0  0  0  0  0  0
  -26.9986  -12.7136   20.1777 C   0  0  0  0  0  0  0  0  0  0  0  0
  -27.8904  -15.6044   19.6697 C   0  0  0  0  0  0  0  0  0  0  0  0
  -28.3709  -18.6872   20.0805 C   0  0  0  0  0  0  0  0  0  0  0  0
  -32.6763  -24.0630   20.5819 C   0  0  0  0  0  0  0  0  0  0  0  0
  -22.0283  -11.8106   19.4439 C   0  0  0  0  0  0  0  0  0  0  0  0
  -28.2133  -12.9031   22.3353 C   0  0  0  0  0  0  0  0  0  0  0  0
  -29.8949  -14.3235   20.5651 C   0  0  0  0  0  0  0  0  0  0  0  0
  -23.0444  -12.8195   18.9149 C   0  0  0  0  0  0  0  0  0  0  0  0
  -31.8803  -26.0932   17.7674 C   0  0  0  0  0  0  0  0  0  0  0  0
  -24.3105  -12.1078   18.4488 C   0  0  0  0  0  0  0  0  0  0  0  0
  -30.5607  -26.7604   18.1592 C   0  0  0  0  0  0  0  0  0  0  0  0
  -32.6406  -23.3828   24.3479 C   0  0  0  0  0  0  0  0  0  0  0  0
  -33.4043  -22.0002   22.9150 C   0  0  0  0  0  0  0  0  0  0  0  0
  -33.9563  -17.2684   25.6816 C   0  0  0  0  0  0  0  0  0  0  0  0
  -32.0566  -17.7678   24.8458 C   0  0  0  0  0  0  0  0  0  0  0  0
  -31.9633  -24.6591   18.2857 C   0  0  0  0  0  0  0  0  0  0  0  0
  -30.4074  -25.1765   20.1255 C   0  0  0  0  0  0  0  0  0  0  0  0
  -24.9855  -11.3664   19.6091 C   0  0  1  0  0  0  0  0  0  0  0  0
  -27.5521  -13.6803   21.1830 C   0  0  1  0  0  0  0  0  0  0  0  0
  -33.4287  -22.0524   24.4645 C   0  0  0  0  0  0  0  0  0  0  0  0
  -30.3008  -26.6429   19.6731 C   0  0  2  0  0  0  0  0  0  0  0  0
  -33.2553  -23.5388   22.9375 C   0  0  0  0  0  0  0  0  0  0  0  0
  -33.0417  -18.5069   25.7742 C   0  0  0  0  0  0  0  0  0  0  0  0
  -32.6947  -16.4439   25.3311 C   0  0  0  0  0  0  0  0  0  1  0  0
  -28.6030  -21.1850   20.0149 C   0  0  0  0  0  0  0  0  0  0  0  0
  -29.8244  -14.6093   17.5312 C   0  0  0  0  0  0  0  0  0  0  0  0
  -30.2122  -16.9936   16.8733 C   0  0  0  0  0  0  0  0  0  0  0  0
  -27.9343  -15.9986   16.6640 C   0  0  0  0  0  0  0  0  0  0  0  0
  -25.5286  -19.0864   20.8022 C   0  0  0  0  0  0  0  0  0  0  0  0
  -32.7398  -20.9173   25.1929 C   0  0  0  0  0  0  0  0  0  0  0  0
  -28.8503  -16.5260   18.9607 C   0  0  1  0  0  0  0  0  0  0  0  0
  -27.6528  -20.0071   19.8649 C   0  0  2  0  0  0  0  0  0  0  0  0
  -29.2099  -16.0233   17.5340 C   0  0  0  0  0  0  0  0  0  0  0  0
  -27.8776  -26.4870   20.1046 N   0  0  0  0  0  0  0  0  0  0  0  0
  -28.9726  -27.2649   20.0630 N   0  0  0  0  0  0  0  0  0  0  0  0
  -28.4506  -14.5644   20.4214 N   0  0  0  0  0  0  0  0  0  0  0  0
  -31.7088  -24.6174   19.7277 N   0  0  0  0  0  0  0  0  0  0  0  0
  -29.7264  -29.4850   20.4002 N   0  0  0  0  0  0  0  0  0  0  0  0
  -26.5827  -30.1259   22.4250 N   0  0  0  0  0  0  0  0  0  0  0  0
  -25.7098  -12.2957   20.4495 N   0  0  0  0  0  0  0  0  0  0  0  0
  -28.2415  -17.8515   18.9914 N   0  0  0  0  0  0  0  0  0  0  0  0
  -32.3585  -24.0685   21.9345 N   0  0  0  0  0  0  0  0  0  0  0  0
  -33.6231  -19.7105   25.1717 N   0  3  0  0  0  0  0  0  0  0  0  0
  -26.5496  -20.1643   20.8543 N   0  3  0  0  0  0  0  0  0  0  0  0
  -26.1455  -30.5955   20.2234 O   0  0  0  0  0  0  0  0  0  0  0  0
  -27.6885  -12.3723   19.2242 O   0  0  0  0  0  0  0  0  0  0  0  0
  -26.6763  -15.7957   19.5573 O   0  0  0  0  0  0  0  0  0  0  0  0
  -28.9882  -18.4252   21.1105 O   0  0  0  0  0  0  0  0  0  0  0  0
  -33.7465  -23.6025   20.1701 O   0  0  0  0  0  0  0  0  0  0  0  0
  -21.6587  -25.5337   21.0891 O   0  0  0  0  0  0  0  0  0  0  0  0
  -32.8696  -15.4227   24.3350 O   0  0  0  0  0  0  0  0  0  1  0  0
  -18.1320  -28.8020   23.7881 F   0  0  0  0  0  0  0  0  0  0  0  0
  -20.4061  -24.6690   23.3969 F   0  0  0  0  0  0  0  0  0  0  0  0
  1  2  1  0  0  0  0
  1  5  2  0  0  0  0
  2  6  2  0  0  0  0
  3  8  2  0  0  0  0
  3 15  1  0  0  0  0
  4  9  1  0  0  0  0
  4 15  2  0  0  0  0
  5 17  1  0  0  0  0
  6 19  1  0  0  0  0
  7 10  2  0  0  0  0
  7 18  1  0  0  0  0
  8 21  1  0  0  0  0
  9 21  2  0  0  0  0
 10 22  1  0  0  0  0
 11 12  2  0  0  0  0
 11 23  1  0  0  0  0
 12 24  1  0  0  0  0
 13 20  1  0  0  0  0
 13 22  2  0  0  0  0
 14 24  2  0  0  0  0
 14 25  1  0  0  0  0
 15 26  1  0  0  0  0
 16 26  1  0  0  0  0
 16 27  2  0  0  0  0
 16 28  1  0  0  0  0
 17 19  2  0  0  0  0
 17 33  1  0  0  0  0
 18 20  2  0  0  0  0
 18 34  1  0  0  0  0
 19 46  1  0  0  0  0
 20 35  1  0  0  0  0
 21 78  1  0  0  0  0
 22 79  1  0  0  0  0
 23 25  2  0  0  0  0
 23 78  1  0  0  0  0
 24 80  1  0  0  0  0
 25 81  1  0  0  0  0
 26 62  2  0  0  0  0
 27 63  1  0  0  0  0
 27 66  1  0  0  0  0
 28 67  1  0  0  0  0
 28 73  2  0  0  0  0
 29 47  1  0  0  0  0
 29 68  1  0  0  0  0
 29 74  2  0  0  0  0
 30 59  1  0  0  0  0
 30 64  1  0  0  0  0
 30 75  2  0  0  0  0
 31 60  1  0  0  0  0
 31 69  1  0  0  0  0
 31 76  2  0  0  0  0
 32 65  1  0  0  0  0
 32 70  1  0  0  0  0
 32 77  2  0  0  0  0
 33 36  1  0  0  0  0
 34 47  1  0  0  0  0
 35 64  1  0  0  0  0
 36 38  1  0  0  0  0
 37 39  1  0  0  0  0
 37 44  1  0  0  0  0
 38 46  1  0  0  0  0
 39 49  1  0  0  0  0
 40 48  1  0  0  0  0
 40 50  1  0  0  0  0
 41 48  1  0  0  0  0
 41 50  1  0  0  0  0
 42 51  1  0  0  0  0
 42 52  1  0  0  0  0
 43 51  1  0  0  0  0
 43 52  1  0  0  0  0
 44 65  1  0  0  0  0
 45 49  1  0  0  0  0
 45 65  1  0  0  0  0
 46 68  1  0  0  0  0
 47 64  1  0  0  0  0
 48 58  1  0  0  0  0
 49 63  1  0  0  0  0
 50 70  1  0  0  0  0
 51 71  1  0  0  0  0
 52 79  1  0  0  0  0
 53 60  1  0  0  0  0
 54 61  1  0  0  0  0
 55 61  1  0  0  0  0
 56 61  1  0  0  0  0
 57 72  1  0  0  0  0
 58 71  1  0  0  0  0
 59 61  1  0  0  0  0
 59 69  1  0  0  0  0
 60 72  1  0  0  0  0
 62 63  1  0  0  0  0
M  CHG  2  71   1  72   1
M  ISO  4  32 100  52 101  70 100  79 101
M  END
> <Batch ID>
0187

> <Smiles>
CNC(C)C(=O)NC(C(=O)N1Cc2cc([101O:1][101CH:1]3CC(NCC4CC([100NH:0][100C:0](=O)N5CCCC(n6nc(-c7ccc(Oc8ccc(F)cc8F)cc7)c(C(N)=O)c6N)C5)C4)C3)ccc2CC1C(=O)NC1CCCc2ccccc21)C(C)(C)C

> <Shape>
0.248

> <Color>
0.039

> <Negative vol penalty>
0.000

$$$$

  -OEChem-04052323173D

 84 93  0     1  0  0  0  0  0999 V2000
  -28.8175  -11.1912   20.7668 C   0  0  0  0  0  0  0  0  0  0  0  0
  -29.0145  -12.4978   20.3316 C   0  0  0  0  0  0  0  0  0  0  0  0
  -19.4782  -26.8065   21.4763 C   0  0  0  0  0  0  0  0  0  0  0  0
  -20.3983  -28.5515   22.8712 C   0  0  0  0  0  0  0  0  0  0  0  0
  -27.5231  -10.7025   20.9386 C   0  0  0  0  0  0  0  0  0  0  0  0
  -27.9170  -13.3162   20.0670 C   0  0  0  0  0  0  0  0  0  0  0  0
  -28.4584  -17.9720   21.9842 C   0  0  0  0  0  0  0  0  0  0  0  0
  -18.2975  -26.8359   22.2183 C   0  0  0  0  0  0  0  0  0  0  0  0
  -19.2175  -28.5809   23.6132 C   0  0  0  0  0  0  0  0  0  0  0  0
  -29.2779  -18.8571   21.2851 C   0  0  0  0  0  0  0  0  0  0  0  0
  -16.3101  -29.3675   25.6494 C   0  0  0  0  0  0  0  0  0  0  0  0
  -15.7688  -30.6152   25.9591 C   0  0  0  0  0  0  0  0  0  0  0  0
  -27.3255  -19.8860   20.3111 C   0  0  0  0  0  0  0  0  0  0  0  0
  -15.5635  -31.1108   23.6034 C   0  0  0  0  0  0  0  0  0  0  0  0
  -30.5678  -23.4432   18.9494 C   0  0  0  0  0  0  0  0  0  0  0  0
  -20.5287  -27.6643   21.8028 C   0  0  0  0  0  0  0  0  0  0  0  0
  -22.0515  -28.3917   19.8898 C   0  0  0  0  0  0  0  0  0  0  0  0
  -26.4092  -11.5185   20.6852 C   0  0  0  0  0  0  0  0  0  0  0  0
  -27.0644  -18.0302   21.8433 C   0  0  0  0  0  0  0  0  0  0  0  0
  -26.6064  -12.8376   20.2343 C   0  0  0  0  0  0  0  0  0  0  0  0
  -26.4904  -19.0021   21.0115 C   0  0  0  0  0  0  0  0  0  0  0  0
  -18.1671  -27.7231   23.2867 C   0  0  0  0  0  0  0  0  0  0  0  0
  -28.7116  -19.8124   20.4462 C   0  0  0  0  0  0  0  0  0  0  0  0
  -16.4782  -28.9915   24.3167 C   0  0  0  0  0  0  0  0  0  0  0  0
  -15.3954  -31.4868   24.9361 C   0  0  0  0  0  0  0  0  0  0  0  0
  -16.1048  -29.8631   23.2937 C   0  0  0  0  0  0  0  0  0  0  0  0
  -21.7488  -27.6340   21.0370 C   0  0  0  0  0  0  0  0  0  0  0  0
  -29.9035  -22.4663   18.2363 C   0  0  0  0  0  0  0  0  0  0  0  0
  -31.5087  -24.1632   18.2418 C   0  0  0  0  0  0  0  0  0  0  0  0
  -23.3216  -27.9993   19.5444 C   0  0  0  0  0  0  0  0  0  0  0  0
  -31.0727  -22.9741   16.3542 C   0  0  0  0  0  0  0  0  0  0  0  0
  -21.2557  -29.3635   19.1983 C   0  0  0  0  0  0  0  0  0  0  0  0
  -24.8315  -16.0315   20.7835 C   0  0  0  0  0  0  0  0  0  0  0  0
  -22.8147  -18.3430   21.8381 C   0  0  0  0  0  0  0  0  0  0  0  0
  -22.3290  -21.6302   22.6160 C   0  0  0  0  0  0  0  0  0  0  0  0
  -28.4975  -26.9051   20.9139 C   0  0  0  0  0  0  0  0  0  0  0  0
  -25.0288  -10.9310   20.8400 C   0  0  0  0  0  0  0  0  0  0  0  0
  -26.1930  -17.0857   22.6250 C   0  0  0  0  0  0  0  0  0  0  0  0
  -24.9985  -19.1195   20.8413 C   0  0  0  0  0  0  0  0  0  0  0  0
  -23.9227  -11.9815   20.8973 C   0  0  0  0  0  0  0  0  0  0  0  0
  -26.1571  -24.1639   21.2281 C   0  0  0  0  0  0  0  0  0  0  0  0
  -24.1125  -13.0173   19.7937 C   0  0  0  0  0  0  0  0  0  0  0  0
  -24.8185  -24.8943   21.1091 C   0  0  0  0  0  0  0  0  0  0  0  0
  -33.0362  -26.4333   20.8938 C   0  0  0  0  0  0  0  0  0  0  0  0
  -31.8737  -27.1244   21.6384 C   0  0  0  0  0  0  0  0  0  0  0  0
  -27.1732  -24.9932   22.0085 C   0  0  0  0  0  0  0  0  0  0  0  0
  -26.0660  -27.0907   21.3430 C   0  0  0  0  0  0  0  0  0  0  0  0
  -25.4415  -13.7640   19.9606 C   0  0  1  0  0  0  0  0  0  0  0  0
  -24.8096  -16.9006   22.0090 C   0  0  1  0  0  0  0  0  0  0  0  0
  -25.0041  -26.3145   20.5433 C   0  0  2  0  0  0  0  0  0  0  0  0
  -31.9840  -25.4663   20.3086 C   0  0  1  0  0  0  0  0  0  0  0  0
  -30.9387  -26.5883   20.5272 C   0  0  1  0  0  0  0  0  0  0  0  0
  -31.3529  -22.7137   14.9131 C   0  0  0  0  0  0  0  0  0  0  0  0
  -20.5644  -23.2255   23.4150 C   0  0  0  0  0  0  0  0  0  0  0  0
  -21.5516  -18.3331   19.0606 C   0  0  0  0  0  0  0  0  0  0  0  0
  -20.4892  -20.5320   19.6122 C   0  0  0  0  0  0  0  0  0  0  0  0
  -19.9198  -18.5037   20.9481 C   0  0  0  0  0  0  0  0  0  0  0  0
  -23.8729  -22.3006   25.0502 C   0  0  0  0  0  0  0  0  0  0  0  0
  -28.8619  -21.6304   18.9204 C   0  0  0  0  0  0  0  0  0  1  0  0
  -22.1916  -19.5767   21.2308 C   0  0  1  0  0  0  0  0  0  0  0  0
  -21.6966  -22.2965   23.8245 C   0  0  2  0  0  0  0  0  0  0  0  0
  -21.0663  -19.2332   20.2144 C   0  0  0  0  0  0  0  0  0  0  0  0
  -22.7462  -26.8216   21.3963 N   0  0  0  0  0  0  0  0  0  0  0  0
  -30.1316  -22.2038   16.9327 N   0  0  0  0  0  0  0  0  0  0  0  0
  -31.7878  -23.9543   16.9384 N   0  0  0  0  0  0  0  0  0  0  0  0
  -23.6881  -27.0665   20.4694 N   0  0  0  0  0  0  0  0  0  0  0  0
  -24.1890  -18.1692   21.6219 N   0  0  0  0  0  0  0  0  0  0  0  0
  -27.3169  -26.3268   21.4069 N   0  0  0  0  0  0  0  0  0  0  0  0
  -24.1495  -28.3646   18.5426 N   0  0  0  0  0  0  0  0  0  0  0  0
  -19.9734  -29.6474   19.6876 N   0  0  0  0  0  0  0  0  0  0  0  0
  -32.2133  -25.1760   18.9376 N   0  0  0  0  0  0  0  0  0  0  0  0
  -25.3327  -14.7626   21.0025 N   0  0  0  0  0  0  0  0  0  0  0  0
  -21.7543  -20.4056   22.3489 N   0  0  0  0  0  0  0  0  0  0  0  0
  -29.6443  -26.1233   21.0035 N   0  0  0  0  0  0  0  0  0  0  0  0
  -22.7132  -23.0937   24.5675 N   0  3  0  0  0  0  0  0  0  0  0  0
  -21.6632  -29.9502   18.1672 O   0  0  0  0  0  0  0  0  0  0  0  0
  -24.4224  -16.4787   19.7184 O   0  0  0  0  0  0  0  0  0  0  0  0
  -22.1094  -17.5659   22.4865 O   0  0  0  0  0  0  0  0  0  0  0  0
  -23.2391  -22.1462   21.9709 O   0  0  0  0  0  0  0  0  0  0  0  0
  -28.5339  -28.0378   20.4207 O   0  0  0  0  0  0  0  0  0  0  0  0
  -17.0150  -27.7522   24.0109 O   0  0  0  0  0  0  0  0  0  0  0  0
  -29.5092  -20.6772   19.7622 O   0  0  0  0  0  0  0  0  0  1  0  0
  -14.8742  -32.6843   25.2336 F   0  0  0  0  0  0  0  0  0  0  0  0
  -16.2628  -29.5070   22.0115 F   0  0  0  0  0  0  0  0  0  0  0  0
  1  2  1  0  0  0  0
  1  5  2  0  0  0  0
  2  6  2  0  0  0  0
  3  8  2  0  0  0  0
  3 16  1  0  0  0  0
  4  9  1  0  0  0  0
  4 16  2  0  0  0  0
  5 18  1  0  0  0  0
  6 20  1  0  0  0  0
  7 10  2  0  0  0  0
  7 19  1  0  0  0  0
  8 22  1  0  0  0  0
  9 22  2  0  0  0  0
 10 23  1  0  0  0  0
 11 12  2  0  0  0  0
 11 24  1  0  0  0  0
 12 25  1  0  0  0  0
 13 21  1  0  0  0  0
 13 23  2  0  0  0  0
 14 25  2  0  0  0  0
 14 26  1  0  0  0  0
 15 28  1  0  0  0  0
 15 29  2  0  0  0  0
 16 27  1  0  0  0  0
 17 27  1  0  0  0  0
 17 30  2  0  0  0  0
 17 32  1  0  0  0  0
 18 20  2  0  0  0  0
 18 37  1  0  0  0  0
 19 21  2  0  0  0  0
 19 38  1  0  0  0  0
 20 48  1  0  0  0  0
 21 39  1  0  0  0  0
 22 81  1  0  0  0  0
 23 82  1  0  0  0  0
 24 26  2  0  0  0  0
 24 81  1  0  0  0  0
 25 83  1  0  0  0  0
 26 84  1  0  0  0  0
 27 63  2  0  0  0  0
 28 59  1  0  0  0  0
 28 64  2  0  0  0  0
 29 65  1  0  0  0  0
 29 71  1  0  0  0  0
 30 66  1  0  0  0  0
 30 69  1  0  0  0  0
 31 53  1  0  0  0  0
 31 64  1  0  0  0  0
 31 65  2  0  0  0  0
 32 70  1  0  0  0  0
 32 76  2  0  0  0  0
 33 49  1  0  0  0  0
 33 72  1  0  0  0  0
 33 77  2  0  0  0  0
 34 60  1  0  0  0  0
 34 67  1  0  0  0  0
 34 78  2  0  0  0  0
 35 61  1  0  0  0  0
 35 73  1  0  0  0  0
 35 79  2  0  0  0  0
 36 68  1  0  0  0  0
 36 74  1  0  0  0  0
 36 80  2  0  0  0  0
 37 40  1  0  0  0  0
 38 49  1  0  0  0  0
 39 67  1  0  0  0  0
 40 42  1  0  0  0  0
 41 43  1  0  0  0  0
 41 46  1  0  0  0  0
 42 48  1  0  0  0  0
 43 50  1  0  0  0  0
 44 45  1  0  0  0  0
 44 51  1  0  0  0  0
 45 52  1  0  0  0  0
 46 68  1  0  0  0  0
 47 50  1  0  0  0  0
 47 68  1  0  0  0  0
 48 72  1  0  0  0  0
 49 67  1  0  0  0  0
 50 66  1  0  0  0  0
 51 52  1  0  0  0  0
 51 71  1  0  0  0  0
 52 74  1  0  0  0  0
 54 61  1  0  0  0  0
 55 62  1  0  0  0  0
 56 62  1  0  0  0  0
 57 62  1  0  0  0  0
 58 75  1  0  0  0  0
 59 82  1  0  0  0  0
 60 62  1  0  0  0  0
 60 73  1  0  0  0  0
 61 75  1  0  0  0  0
 63 66  1  0  0  0  0
M  CHG  1  75   1
M  ISO  4  36 100  59 101  74 100  82 101
M  END
> <Batch ID>
0187

> <Smiles>
CNC(C)C(=O)NC(C(=O)N1Cc2cc([101O:1][101CH2:1]c3cc(NC4CCC4[100NH:0][100C:0](=O)N4CCCC(n5nc(-c6ccc(Oc7ccc(F)cc7F)cc6)c(C(N)=O)c5N)C4)nc(C)n3)ccc2CC1C(=O)NC1CCCc2ccccc21)C(C)(C)C

> <Shape>
0.224

> <Color>
0.066

> <Negative vol penalty>
0.000

$$$$

  -OEChem-04052323173D

 87 98  0     1  0  0  0  0  0999 V2000
  -30.2660  -25.9171   16.8687 C   0  0  0  0  0  0  0  0  0  0  0  0
  -28.8858  -25.8603   17.0338 C   0  0  0  0  0  0  0  0  0  0  0  0
  -27.7680  -13.1667   22.1701 C   0  0  0  0  0  0  0  0  0  0  0  0
  -26.9707  -14.3256   20.2058 C   0  0  0  0  0  0  0  0  0  0  0  0
  -31.0726  -26.3815   17.9068 C   0  0  0  0  0  0  0  0  0  0  0  0
  -28.3115  -26.2669   18.2377 C   0  0  0  0  0  0  0  0  0  0  0  0
  -22.9109  -29.0568   18.9833 C   0  0  0  0  0  0  0  0  0  0  0  0
  -26.9530  -12.0784   21.8589 C   0  0  0  0  0  0  0  0  0  0  0  0
  -26.1558  -13.2372   19.8945 C   0  0  0  0  0  0  0  0  0  0  0  0
  -21.6499  -28.5799   19.3386 C   0  0  0  0  0  0  0  0  0  0  0  0
  -23.1858  -11.9785   20.9073 C   0  0  0  0  0  0  0  0  0  0  0  0
  -21.8709  -12.2422   20.5239 C   0  0  0  0  0  0  0  0  0  0  0  0
  -22.0744  -29.1855   21.6347 C   0  0  0  0  0  0  0  0  0  0  0  0
  -22.2779  -11.1756   18.3946 C   0  0  0  0  0  0  0  0  0  0  0  0
  -23.8998  -22.9112   21.9970 C   0  0  0  0  0  0  0  0  0  0  0  0
  -27.7768  -14.2904   21.3437 C   0  0  0  0  0  0  0  0  0  0  0  0
  -29.9466  -15.6287   21.2515 C   0  0  0  0  0  0  0  0  0  0  0  0
  -30.5071  -26.8031   19.1205 C   0  0  0  0  0  0  0  0  0  0  0  0
  -23.7689  -29.5926   19.9546 C   0  0  0  0  0  0  0  0  0  0  0  0
  -29.1114  -26.7361   19.2935 C   0  0  0  0  0  0  0  0  0  0  0  0
  -23.3448  -29.6709   21.2888 C   0  0  0  0  0  0  0  0  0  0  0  0
  -24.5290  -23.4407   20.8888 C   0  0  0  0  0  0  0  0  0  0  0  0
  -26.1469  -12.1136   20.7210 C   0  0  0  0  0  0  0  0  0  0  0  0
  -21.2326  -28.6415   20.6649 C   0  0  0  0  0  0  0  0  0  0  0  0
  -24.0468  -11.3134   20.0344 C   0  0  0  0  0  0  0  0  0  0  0  0
  -21.4169  -11.8408   19.2676 C   0  0  0  0  0  0  0  0  0  0  0  0
  -23.5928  -10.9119   18.7781 C   0  0  0  0  0  0  0  0  0  0  0  0
  -28.6180  -15.4152   21.6650 C   0  0  0  0  0  0  0  0  0  0  0  0
  -23.8289  -24.4216   20.2166 C   0  0  0  0  0  0  0  0  0  0  0  0
  -30.2938  -16.8305   21.8185 C   0  0  0  0  0  0  0  0  0  0  0  0
  -22.1009  -24.2655   21.6852 C   0  0  0  0  0  0  0  0  0  0  0  0
  -30.7914  -14.8135   20.4283 C   0  0  0  0  0  0  0  0  0  0  0  0
  -26.6418  -28.8262   21.0782 C   0  0  0  0  0  0  0  0  0  0  0  0
  -26.3191  -31.6134   22.7061 C   0  0  0  0  0  0  0  0  0  0  0  0
  -24.2370  -33.9743   24.0242 C   0  0  0  0  0  0  0  0  0  0  0  0
  -27.7893  -21.9695   23.1032 C   0  0  0  0  0  0  0  0  0  0  0  0
  -31.4234  -27.2529   20.2308 C   0  0  0  0  0  0  0  0  0  0  0  0
  -25.1155  -30.1273   19.5507 C   0  0  0  0  0  0  0  0  0  0  0  0
  -24.2200  -30.2555   22.3661 C   0  0  0  0  0  0  0  0  0  0  0  0
  -30.7062  -28.0175   21.3404 C   0  0  0  0  0  0  0  0  0  0  0  0
  -28.6508  -19.5272   25.5916 C   0  0  0  0  0  0  0  0  0  0  0  0
  -29.4295  -27.2904   21.7506 C   0  0  0  0  0  0  0  0  0  0  0  0
  -23.5089  -25.6589   17.9714 C   0  0  0  0  0  0  0  0  0  0  0  0
  -24.2436  -24.3911   17.6660 C   0  0  0  0  0  0  0  0  0  0  0  0
  -28.8029  -18.2277   24.8077 C   0  0  0  0  0  0  0  0  0  0  0  0
  -18.7673  -26.2148   21.9362 C   0  0  0  0  0  0  0  0  0  0  0  0
  -27.5555  -20.3989   24.9923 C   0  0  0  0  0  0  0  0  0  0  0  0
  -27.2258  -23.5011   21.1451 C   0  0  0  0  0  0  0  0  0  0  0  0
  -26.4548  -21.5336   20.8989 C   0  0  0  0  0  0  0  0  0  0  0  0
  -27.9637  -19.4487   22.7374 C   0  0  0  0  0  0  0  0  0  0  0  0
  -25.9740  -22.9317   20.4361 C   0  0  0  0  0  0  0  0  0  0  0  0
  -28.4491  -27.1916   20.5757 C   0  0  1  0  0  0  0  0  0  0  0  0
  -24.4245  -25.0573   19.0036 C   0  0  0  0  0  0  0  0  0  0  0  0
  -26.1085  -30.1811   20.7076 C   0  0  1  0  0  0  0  0  0  0  0  0
  -29.0494  -18.5227   23.3211 C   0  0  2  0  0  0  0  0  0  0  0  0
  -20.0867  -25.7138   21.4187 C   0  0  1  0  0  0  0  0  0  0  0  0
  -19.9741  -27.1073   21.9756 C   0  0  1  0  0  0  0  0  0  1  0  0
  -24.2645  -36.1169   25.3304 C   0  0  0  0  0  0  0  0  0  0  0  0
  -26.9174  -30.0483   25.2561 C   0  0  0  0  0  0  0  0  0  0  0  0
  -26.0107  -31.9772   26.5696 C   0  0  0  0  0  0  0  0  0  0  0  0
  -28.0199  -32.2892   25.1245 C   0  0  0  0  0  0  0  0  0  0  0  0
  -22.9295  -35.4657   21.8275 C   0  0  0  0  0  0  0  0  0  0  0  0
  -25.7499  -32.0084   24.0473 C   0  0  1  0  0  0  0  0  0  0  0  0
  -24.2545  -35.4902   23.9448 C   0  0  2  0  0  0  0  0  0  0  0  0
  -26.6585  -31.5679   25.2296 C   0  0  0  0  0  0  0  0  0  0  0  0
  -22.6813  -23.3016   22.4252 N   0  0  0  0  0  0  0  0  0  0  0  0
  -28.1529  -16.4021   22.4354 N   0  0  0  0  0  0  0  0  0  0  0  0
  -22.6081  -24.8597   20.5883 N   0  0  0  0  0  0  0  0  0  0  0  0
  -29.1950  -17.2474   22.5106 N   0  0  0  0  0  0  0  0  0  0  0  0
  -25.5303  -30.7593   21.9223 N   0  0  0  0  0  0  0  0  0  0  0  0
  -27.7700  -20.6483   23.5638 N   0  0  0  0  0  0  0  0  0  0  0  0
  -27.3341  -22.2198   21.8286 N   0  0  0  0  0  0  0  0  0  0  0  0
  -31.4289  -17.5607   21.7878 N   0  0  0  0  0  0  0  0  0  0  0  0
  -30.2764  -13.6098   19.9280 N   0  0  0  0  0  0  0  0  0  0  0  0
  -20.8236  -24.6980   22.1031 N   0  0  0  0  0  0  0  0  0  0  0  0
  -27.7718  -28.4547   20.3750 N   0  0  0  0  0  0  0  0  0  0  0  0
  -25.5098  -33.4459   23.9815 N   0  0  0  0  0  0  0  0  0  0  0  0
  -23.0534  -35.9845   23.2141 N   0  3  0  0  0  0  0  0  0  0  0  0
  -31.9734  -15.1349   20.1581 O   0  0  0  0  0  0  0  0  0  0  0  0
  -26.0713  -28.1672   21.9396 O   0  0  0  0  0  0  0  0  0  0  0  0
  -27.4197  -32.0523   22.3632 O   0  0  0  0  0  0  0  0  0  0  0  0
  -23.1982  -33.3242   24.1187 O   0  0  0  0  0  0  0  0  0  0  0  0
  -28.1721  -22.9049   23.8184 O   0  0  0  0  0  0  0  0  0  0  0  0
  -25.3517  -11.0516   20.4168 O   0  0  0  0  0  0  0  0  0  0  0  0
  -19.9997  -28.1750   21.0153 O   0  0  0  0  0  0  0  0  0  1  0  0
  -20.1537  -12.0927   18.9001 F   0  0  0  0  0  0  0  0  0  0  0  0
  -24.4150  -10.2715   17.9356 F   0  0  0  0  0  0  0  0  0  0  0  0
  1  2  1  0  0  0  0
  1  5  2  0  0  0  0
  2  6  2  0  0  0  0
  3  8  2  0  0  0  0
  3 16  1  0  0  0  0
  4  9  1  0  0  0  0
  4 16  2  0  0  0  0
  5 18  1  0  0  0  0
  6 20  1  0  0  0  0
  7 10  2  0  0  0  0
  7 19  1  0  0  0  0
  8 23  1  0  0  0  0
  9 23  2  0  0  0  0
 10 24  1  0  0  0  0
 11 12  2  0  0  0  0
 11 25  1  0  0  0  0
 12 26  1  0  0  0  0
 13 21  1  0  0  0  0
 13 24  2  0  0  0  0
 14 26  2  0  0  0  0
 14 27  1  0  0  0  0
 15 22  1  0  0  0  0
 15 66  2  0  0  0  0
 16 28  1  0  0  0  0
 17 28  1  0  0  0  0
 17 30  2  0  0  0  0
 17 32  1  0  0  0  0
 18 20  2  0  0  0  0
 18 37  1  0  0  0  0
 19 21  2  0  0  0  0
 19 38  1  0  0  0  0
 20 52  1  0  0  0  0
 21 39  1  0  0  0  0
 22 29  2  0  0  0  0
 22 51  1  0  0  0  0
 23 84  1  0  0  0  0
 24 85  1  0  0  0  0
 25 27  2  0  0  0  0
 25 84  1  0  0  0  0
 26 86  1  0  0  0  0
 27 87  1  0  0  0  0
 28 67  2  0  0  0  0
 29 53  1  0  0  0  0
 29 68  1  0  0  0  0
 30 69  1  0  0  0  0
 30 73  1  0  0  0  0
 31 66  1  0  0  0  0
 31 68  2  0  0  0  0
 31 75  1  0  0  0  0
 32 74  1  0  0  0  0
 32 79  2  0  0  0  0
 33 54  1  0  0  0  0
 33 76  1  0  0  0  0
 33 80  2  0  0  0  0
 34 63  1  0  0  0  0
 34 70  1  0  0  0  0
 34 81  2  0  0  0  0
 35 64  1  0  0  0  0
 35 77  1  0  0  0  0
 35 82  2  0  0  0  0
 36 71  1  0  0  0  0
 36 72  1  0  0  0  0
 36 83  2  0  0  0  0
 37 40  1  0  0  0  0
 38 54  1  0  0  0  0
 39 70  1  0  0  0  0
 40 42  1  0  0  0  0
 41 45  1  0  0  0  0
 41 47  1  0  0  0  0
 42 52  1  0  0  0  0
 43 44  1  0  0  0  0
 43 53  1  0  0  0  0
 44 53  1  0  0  0  0
 45 55  1  0  0  0  0
 46 56  1  0  0  0  0
 46 57  1  0  0  0  0
 47 71  1  0  0  0  0
 48 51  1  0  0  0  0
 48 72  1  0  0  0  0
 49 51  1  0  0  0  0
 49 72  1  0  0  0  0
 50 55  1  0  0  0  0
 50 71  1  0  0  0  0
 52 76  1  0  0  0  0
 54 70  1  0  0  0  0
 55 69  1  0  0  0  0
 56 57  1  0  0  0  0
 56 75  1  0  0  0  0
 57 85  1  0  0  0  0
 58 64  1  0  0  0  0
 59 65  1  0  0  0  0
 60 65  1  0  0  0  0
 61 65  1  0  0  0  0
 62 78  1  0  0  0  0
 63 65  1  0  0  0  0
 63 77  1  0  0  0  0
 64 78  1  0  0  0  0
 67 69  1  0  0  0  0
M  CHG  1  78   1
M  ISO  4  36 100  57 101  72 100  85 101
M  END
> <Batch ID>
0187

> <Smiles>
CNC(C)C(=O)NC(C(=O)N1Cc2cc([101O:1][101CH:1]3CC3Nc3ncc(C4C[100N:0]([100C:0](=O)N5CCCC(n6nc(-c7ccc(Oc8ccc(F)cc8F)cc7)c(C(N)=O)c6N)C5)C4)c(C4CC4)n3)ccc2CC1C(=O)NC1CCCc2ccccc21)C(C)(C)C

> <Shape>
0.307

> <Color>
0.079

> <Negative vol penalty>
0.000

$$$$

  -OEChem-04052323173D

 86 96  0     1  0  0  0  0  0999 V2000
  -30.8345  -25.9181   19.1063 C   0  0  0  0  0  0  0  0  0  0  0  0
  -29.4878  -25.7238   19.3960 C   0  0  0  0  0  0  0  0  0  0  0  0
  -24.4167  -10.0695   22.2021 C   0  0  0  0  0  0  0  0  0  0  0  0
  -24.6296  -11.5260   24.1179 C   0  0  0  0  0  0  0  0  0  0  0  0
  -31.5665  -26.8748   19.8084 C   0  0  0  0  0  0  0  0  0  0  0  0
  -28.8725  -26.4854   20.3889 C   0  0  0  0  0  0  0  0  0  0  0  0
  -24.3375  -28.2333   18.9661 C   0  0  0  0  0  0  0  0  0  0  0  0
  -24.0245   -9.0253   23.0396 C   0  0  0  0  0  0  0  0  0  0  0  0
  -24.2373  -10.4818   24.9554 C   0  0  0  0  0  0  0  0  0  0  0  0
  -23.2700  -27.3373   19.0018 C   0  0  0  0  0  0  0  0  0  0  0  0
  -21.2208   -8.0492   24.6582 C   0  0  0  0  0  0  0  0  0  0  0  0
  -20.1257   -7.2797   24.2654 C   0  0  0  0  0  0  0  0  0  0  0  0
  -22.5600  -28.2766   21.1073 C   0  0  0  0  0  0  0  0  0  0  0  0
  -25.4419  -21.9613   22.9099 C   0  0  0  0  0  0  0  0  0  0  0  0
  -21.5202   -5.3069   24.2425 C   0  0  0  0  0  0  0  0  0  0  0  0
  -27.0930  -21.7216   20.7507 C   0  0  0  0  0  0  0  0  0  0  0  0
  -24.7193  -11.3199   22.7413 C   0  0  0  0  0  0  0  0  0  0  0  0
  -24.2924  -13.3451   21.2501 C   0  0  0  0  0  0  0  0  0  0  0  0
  -30.9574  -27.6552   20.8037 C   0  0  0  0  0  0  0  0  0  0  0  0
  -24.5310  -29.1520   20.0078 C   0  0  0  0  0  0  0  0  0  0  0  0
  -29.5973  -27.4525   21.1059 C   0  0  0  0  0  0  0  0  0  0  0  0
  -23.6293  -29.1849   21.0811 C   0  0  0  0  0  0  0  0  0  0  0  0
  -27.2518  -20.8311   21.8002 C   0  0  0  0  0  0  0  0  0  0  0  0
  -26.4065  -20.9600   22.8967 C   0  0  0  0  0  0  0  0  0  0  0  0
  -23.9347   -9.2314   24.4162 C   0  0  0  0  0  0  0  0  0  0  0  0
  -22.3827  -27.3570   20.0739 C   0  0  0  0  0  0  0  0  0  0  0  0
  -22.4657   -7.4476   24.8430 C   0  0  0  0  0  0  0  0  0  0  0  0
  -20.2754   -5.9086   24.0576 C   0  0  0  0  0  0  0  0  0  0  0  0
  -22.6153   -6.0765   24.6352 C   0  0  0  0  0  0  0  0  0  0  0  0
  -25.1252  -12.3988   21.8768 C   0  0  0  0  0  0  0  0  0  0  0  0
  -25.3642  -22.8013   21.8107 C   0  0  0  0  0  0  0  0  0  0  0  0
  -25.1552  -14.1481   20.5448 C   0  0  0  0  0  0  0  0  0  0  0  0
  -22.8665  -13.4859   21.3010 C   0  0  0  0  0  0  0  0  0  0  0  0
  -26.8349  -29.6814   22.1327 C   0  0  0  0  0  0  0  0  0  0  0  0
  -25.0168  -32.2616   22.8804 C   0  0  0  0  0  0  0  0  0  0  0  0
  -21.9379  -33.7339   22.8822 C   0  0  0  0  0  0  0  0  0  0  0  0
  -29.9738  -17.0845   20.4165 C   0  0  0  0  0  0  0  0  0  0  0  0
  -31.8012  -28.6441   21.5685 C   0  0  0  0  0  0  0  0  0  0  0  0
  -25.6720  -30.1297   19.9412 C   0  0  0  0  0  0  0  0  0  0  0  0
  -23.7811  -30.1652   22.2145 C   0  0  0  0  0  0  0  0  0  0  0  0
  -30.9817  -29.6702   22.3469 C   0  0  0  0  0  0  0  0  0  0  0  0
  -30.0476  -13.6145   19.4748 C   0  0  0  0  0  0  0  0  0  0  0  0
  -29.8566  -28.9834   23.1146 C   0  0  0  0  0  0  0  0  0  0  0  0
  -28.7354  -13.0505   20.0095 C   0  0  0  0  0  0  0  0  0  0  0  0
  -20.6623  -24.1587   20.7157 C   0  0  0  0  0  0  0  0  0  0  0  0
  -30.5917  -14.6958   20.3989 C   0  0  0  0  0  0  0  0  0  0  0  0
  -27.9395  -18.2261   21.6074 C   0  0  0  0  0  0  0  0  0  0  0  0
  -29.1406  -19.4975   20.4099 C   0  0  0  0  0  0  0  0  0  0  0  0
  -28.2981  -15.2941   21.1305 C   0  0  0  0  0  0  0  0  0  0  0  0
  -28.3686  -19.7080   21.7327 C   0  0  0  0  0  0  0  0  0  0  0  0
  -28.8882  -28.2762   22.1588 C   0  0  1  0  0  0  0  0  0  0  0  0
  -26.0699  -30.6777   21.3082 C   0  0  1  0  0  0  0  0  0  0  0  0
  -27.7193  -14.1788   20.2374 C   0  0  2  0  0  0  0  0  0  0  0  0
  -21.9343  -24.4649   21.4537 C   0  0  2  0  0  0  0  0  0  0  0  0
  -21.6786  -25.0856   20.1080 C   0  0  2  0  0  0  0  0  0  1  0  0
  -26.5190  -20.0371   24.0640 C   0  0  0  0  0  0  0  0  0  0  0  0
  -20.7574  -35.8304   23.5951 C   0  0  0  0  0  0  0  0  0  0  0  0
  -25.0747  -31.3062   25.7775 C   0  0  0  0  0  0  0  0  0  0  0  0
  -23.1548  -32.8423   26.2494 C   0  0  0  0  0  0  0  0  0  0  0  0
  -25.3391  -33.7762   25.4881 C   0  0  0  0  0  0  0  0  0  0  0  0
  -21.1570  -34.3782   20.1012 C   0  0  0  0  0  0  0  0  0  0  0  0
  -24.3409  -23.8874   21.7907 C   0  0  0  0  0  0  0  0  0  0  0  0
  -23.8829  -32.5284   23.8406 C   0  0  1  0  0  0  0  0  0  0  0  0
  -21.4843  -35.1207   22.4635 C   0  0  2  0  0  0  0  0  0  0  0  0
  -24.3609  -32.5934   25.3187 C   0  0  0  0  0  0  0  0  0  0  0  0
  -26.1677  -22.7069   20.7276 N   0  0  0  0  0  0  0  0  0  0  0  0
  -26.4177  -12.5821   21.5944 N   0  0  0  0  0  0  0  0  0  0  0  0
  -26.4036  -13.6529   20.7825 N   0  0  0  0  0  0  0  0  0  0  0  0
  -24.9162  -31.0966   22.1068 N   0  0  0  0  0  0  0  0  0  0  0  0
  -29.6083  -15.7539   20.6494 N   0  0  0  0  0  0  0  0  0  0  0  0
  -29.0532  -18.0691   20.6875 N   0  0  0  0  0  0  0  0  0  0  0  0
  -24.9602  -15.2222   19.7508 N   0  0  0  0  0  0  0  0  0  0  0  0
  -22.1324  -12.5757   22.0736 N   0  0  0  0  0  0  0  0  0  0  0  0
  -28.0000  -29.2356   21.5382 N   0  0  0  0  0  0  0  0  0  0  0  0
  -23.2274  -33.7441   23.3706 N   0  0  0  0  0  0  0  0  0  0  0  0
  -22.9604  -23.3927   21.5344 N   0  3  0  0  0  0  0  0  0  0  0  0
  -20.5635  -35.0337   21.2950 N   0  3  0  0  0  0  0  0  0  0  0  0
  -22.2598  -14.3820   20.6665 O   0  0  0  0  0  0  0  0  0  0  0  0
  -26.4012  -29.3433   23.2278 O   0  0  0  0  0  0  0  0  0  0  0  0
  -25.9537  -33.0613   22.8138 O   0  0  0  0  0  0  0  0  0  0  0  0
  -21.2189  -32.7415   22.7892 O   0  0  0  0  0  0  0  0  0  0  0  0
  -31.1015  -17.3898   20.0062 O   0  0  0  0  0  0  0  0  0  0  0  0
  -23.5517   -8.2128   25.2337 O   0  0  0  0  0  0  0  0  0  0  0  0
  -21.3379  -26.4811   20.1117 O   0  0  0  0  0  0  0  0  0  1  0  0
  -19.2234   -5.1695   23.6820 F   0  0  0  0  0  0  0  0  0  0  0  0
  -23.8085   -5.4927   24.8123 F   0  0  0  0  0  0  0  0  0  0  0  0
  1  2  1  0  0  0  0
  1  5  2  0  0  0  0
  2  6  2  0  0  0  0
  3  8  2  0  0  0  0
  3 17  1  0  0  0  0
  4  9  1  0  0  0  0
  4 17  2  0  0  0  0
  5 19  1  0  0  0  0
  6 21  1  0  0  0  0
  7 10  2  0  0  0  0
  7 20  1  0  0  0  0
  8 25  1  0  0  0  0
  9 25  2  0  0  0  0
 10 26  1  0  0  0  0
 11 12  2  0  0  0  0
 11 27  1  0  0  0  0
 12 28  1  0  0  0  0
 13 22  1  0  0  0  0
 13 26  2  0  0  0  0
 14 24  2  0  0  0  0
 14 31  1  0  0  0  0
 15 28  2  0  0  0  0
 15 29  1  0  0  0  0
 16 23  2  0  0  0  0
 16 66  1  0  0  0  0
 17 30  1  0  0  0  0
 18 30  1  0  0  0  0
 18 32  2  0  0  0  0
 18 33  1  0  0  0  0
 19 21  2  0  0  0  0
 19 38  1  0  0  0  0
 20 22  2  0  0  0  0
 20 39  1  0  0  0  0
 21 51  1  0  0  0  0
 22 40  1  0  0  0  0
 23 24  1  0  0  0  0
 23 50  1  0  0  0  0
 24 56  1  0  0  0  0
 25 83  1  0  0  0  0
 26 84  1  0  0  0  0
 27 29  2  0  0  0  0
 27 83  1  0  0  0  0
 28 85  1  0  0  0  0
 29 86  1  0  0  0  0
 30 67  2  0  0  0  0
 31 62  1  0  0  0  0
 31 66  2  0  0  0  0
 32 68  1  0  0  0  0
 32 72  1  0  0  0  0
 33 73  1  0  0  0  0
 33 78  2  0  0  0  0
 34 52  1  0  0  0  0
 34 74  1  0  0  0  0
 34 79  2  0  0  0  0
 35 63  1  0  0  0  0
 35 69  1  0  0  0  0
 35 80  2  0  0  0  0
 36 64  1  0  0  0  0
 36 75  1  0  0  0  0
 36 81  2  0  0  0  0
 37 70  1  0  0  0  0
 37 71  1  0  0  0  0
 37 82  2  0  0  0  0
 38 41  1  0  0  0  0
 39 52  1  0  0  0  0
 40 69  1  0  0  0  0
 41 43  1  0  0  0  0
 42 44  1  0  0  0  0
 42 46  1  0  0  0  0
 43 51  1  0  0  0  0
 44 53  1  0  0  0  0
 45 54  1  0  0  0  0
 45 55  1  0  0  0  0
 46 70  1  0  0  0  0
 47 50  1  0  0  0  0
 47 71  1  0  0  0  0
 48 50  1  0  0  0  0
 48 71  1  0  0  0  0
 49 53  1  0  0  0  0
 49 70  1  0  0  0  0
 51 74  1  0  0  0  0
 52 69  1  0  0  0  0
 53 68  1  0  0  0  0
 54 55  1  0  0  0  0
 54 76  1  0  0  0  0
 55 84  1  0  0  0  0
 57 64  1  0  0  0  0
 58 65  1  0  0  0  0
 59 65  1  0  0  0  0
 60 65  1  0  0  0  0
 61 77  1  0  0  0  0
 62 76  1  0  0  0  0
 63 65  1  0  0  0  0
 63 75  1  0  0  0  0
 64 77  1  0  0  0  0
 67 68  1  0  0  0  0
M  CHG  2  76   1  77   1
M  ISO  4  37 100  55 101  71 100  84 101
M  END
> <Batch ID>
0187

> <Smiles>
CNC(C)C(=O)NC(C(=O)N1Cc2cc([101O:1][101CH:1]3CC3NCc3cc(C)c(C4C[100N:0]([100C:0](=O)N5CCCC(n6nc(-c7ccc(Oc8ccc(F)cc8F)cc7)c(C(N)=O)c6N)C5)C4)cn3)ccc2CC1C(=O)NC1CCCc2ccccc21)C(C)(C)C

> <Shape>
0.284

> <Color>
0.100

> <Negative vol penalty>
0.000

$$$$

  -OEChem-04052323173D

 85 95  0     1  0  0  0  0  0999 V2000
  -23.3348  -35.6989   15.8263 C   0  0  0  0  0  0  0  0  0  0  0  0
  -24.0074  -34.4812   15.8261 C   0  0  0  0  0  0  0  0  0  0  0  0
  -27.5425  -10.0103   20.0212 C   0  0  0  0  0  0  0  0  0  0  0  0
  -26.1859  -11.5713   18.7721 C   0  0  0  0  0  0  0  0  0  0  0  0
  -23.3200  -36.4857   16.9772 C   0  0  0  0  0  0  0  0  0  0  0  0
  -24.6668  -34.0500   16.9767 C   0  0  0  0  0  0  0  0  0  0  0  0
  -25.2486  -28.2791   18.9424 C   0  0  0  0  0  0  0  0  0  0  0  0
  -26.5809   -9.0188   19.8266 C   0  0  0  0  0  0  0  0  0  0  0  0
  -25.2243  -10.5798   18.5774 C   0  0  0  0  0  0  0  0  0  0  0  0
  -26.2835  -27.3511   18.8342 C   0  0  0  0  0  0  0  0  0  0  0  0
  -23.5875   -8.1604   21.1409 C   0  0  0  0  0  0  0  0  0  0  0  0
  -23.2313   -7.3794   22.2403 C   0  0  0  0  0  0  0  0  0  0  0  0
  -27.0721  -27.9844   21.0242 C   0  0  0  0  0  0  0  0  0  0  0  0
  -31.5322  -22.7894   18.9165 C   0  0  0  0  0  0  0  0  0  0  0  0
  -30.7592  -25.0390   18.5612 C   0  0  0  0  0  0  0  0  0  0  0  0
  -23.9589   -5.3964   21.0674 C   0  0  0  0  0  0  0  0  0  0  0  0
  -27.3450  -11.2865   19.4940 C   0  0  0  0  0  0  0  0  0  0  0  0
  -29.4373  -12.6041   18.8665 C   0  0  0  0  0  0  0  0  0  0  0  0
  -23.9714  -36.0594   18.1455 C   0  0  0  0  0  0  0  0  0  0  0  0
  -25.1239  -29.0757   20.0897 C   0  0  0  0  0  0  0  0  0  0  0  0
  -24.6619  -34.8324   18.1439 C   0  0  0  0  0  0  0  0  0  0  0  0
  -26.0332  -28.9199   21.1456 C   0  0  0  0  0  0  0  0  0  0  0  0
  -31.8060  -24.1309   18.6742 C   0  0  0  0  0  0  0  0  0  0  0  0
  -25.4218   -9.3035   19.1047 C   0  0  0  0  0  0  0  0  0  0  0  0
  -27.1971  -27.2057   19.8740 C   0  0  0  0  0  0  0  0  0  0  0  0
  -24.1294   -7.5594   20.0047 C   0  0  0  0  0  0  0  0  0  0  0  0
  -23.4169   -5.9974   22.2036 C   0  0  0  0  0  0  0  0  0  0  0  0
  -24.3151   -6.1775   19.9680 C   0  0  0  0  0  0  0  0  0  0  0  0
  -28.3377  -12.3113   19.6953 C   0  0  0  0  0  0  0  0  0  0  0  0
  -30.2051  -22.4099   19.0370 C   0  0  0  0  0  0  0  0  0  0  0  0
  -29.4667  -24.5588   18.6974 C   0  0  0  0  0  0  0  0  0  0  0  0
  -30.0679  -13.6527   19.4904 C   0  0  0  0  0  0  0  0  0  0  0  0
  -29.8517  -11.9837   17.6421 C   0  0  0  0  0  0  0  0  0  0  0  0
  -25.2234  -32.1986   20.6739 C   0  0  0  0  0  0  0  0  0  0  0  0
  -24.3720  -31.2713   23.6634 C   0  0  0  0  0  0  0  0  0  0  0  0
  -24.3140  -28.8103   26.0272 C   0  0  0  0  0  0  0  0  0  0  0  0
  -29.8358  -18.5550   22.1383 C   0  0  0  0  0  0  0  0  0  0  0  0
  -23.9677  -36.9662   19.3507 C   0  0  0  0  0  0  0  0  0  0  0  0
  -23.9862  -30.0531   20.2021 C   0  0  0  0  0  0  0  0  0  0  0  0
  -25.9312  -29.7365   22.4070 C   0  0  0  0  0  0  0  0  0  0  0  0
  -24.3749  -36.2632   20.6430 C   0  0  0  0  0  0  0  0  0  0  0  0
  -29.4389  -15.6319   24.0828 C   0  0  0  0  0  0  0  0  0  0  0  0
  -34.1926  -24.3048   19.6478 C   0  0  0  0  0  0  0  0  0  0  0  0
  -33.7130  -25.7050   19.4253 C   0  0  0  0  0  0  0  0  0  0  0  0
  -25.6241  -35.4168   20.4196 C   0  0  0  0  0  0  0  0  0  0  0  0
  -29.1732  -14.5319   23.0587 C   0  0  0  0  0  0  0  0  0  0  0  0
  -28.3810  -20.6119   19.4725 C   0  0  0  0  0  0  0  0  0  0  0  0
  -28.7679  -16.9335   23.6649 C   0  0  0  0  0  0  0  0  0  0  0  0
  -28.4225  -19.2299   20.1107 C   0  0  0  0  0  0  0  0  0  0  0  0
  -30.4583  -20.3945   20.6020 C   0  0  0  0  0  0  0  0  0  0  0  0
  -28.9636  -16.3316   21.2671 C   0  0  0  0  0  0  0  0  0  0  0  0
  -33.2156  -24.5935   18.5375 C   0  0  0  0  0  0  0  0  0  0  0  0
  -25.3680  -34.3189   19.3800 C   0  0  1  0  0  0  0  0  0  0  0  0
  -29.8689  -20.9589   19.3016 C   0  0  2  0  0  0  0  0  0  0  0  0
  -24.2582  -31.1743   21.2003 C   0  0  1  0  0  0  0  0  0  0  0  0
  -29.6049  -14.9832   21.6548 C   0  0  2  0  0  0  0  0  0  0  0  0
  -23.5858  -28.3618   28.3864 C   0  0  0  0  0  0  0  0  0  0  0  0
  -26.7662  -32.8530   24.7007 C   0  0  0  0  0  0  0  0  0  0  0  0
  -26.5535  -31.6193   26.8688 C   0  0  0  0  0  0  0  0  0  0  0  0
  -24.6910  -33.0784   26.0781 C   0  0  0  0  0  0  0  0  0  0  0  0
  -22.4576  -26.6706   25.1703 C   0  0  0  0  0  0  0  0  0  0  0  0
  -28.3184  -25.5051   18.5820 C   0  0  0  0  0  0  0  0  0  1  0  0
  -25.1198  -30.8756   24.9137 C   0  0  1  0  0  0  0  0  0  0  0  0
  -23.1977  -28.2949   26.9175 C   0  0  2  0  0  0  0  0  0  0  0  0
  -25.7860  -32.0924   25.6159 C   0  0  0  0  0  0  0  0  0  0  0  0
  -28.2708  -13.1093   20.7643 N   0  0  0  0  0  0  0  0  0  0  0  0
  -29.1615  -23.2630   18.9333 N   0  0  0  0  0  0  0  0  0  0  0  0
  -29.3364  -13.9138   20.6115 N   0  0  0  0  0  0  0  0  0  0  0  0
  -24.8053  -30.6833   22.4666 N   0  0  0  0  0  0  0  0  0  0  0  0
  -29.1636  -17.3406   22.3154 N   0  0  0  0  0  0  0  0  0  0  0  0
  -29.6170  -19.2546   20.9522 N   0  0  0  0  0  0  0  0  0  0  0  0
  -31.1714  -14.3675   19.1840 N   0  0  0  0  0  0  0  0  0  0  0  0
  -29.0897  -10.9195   17.1411 N   0  0  0  0  0  0  0  0  0  0  0  0
  -24.6248  -33.2268   19.9710 N   0  0  0  0  0  0  0  0  0  0  0  0
  -24.1662  -30.1526   25.7481 N   0  0  0  0  0  0  0  0  0  0  0  0
  -22.8778  -26.8790   26.5799 N   0  3  0  0  0  0  0  0  0  0  0  0
  -30.8768  -12.3513   17.0196 O   0  0  0  0  0  0  0  0  0  0  0  0
  -26.4222  -32.0666   20.8906 O   0  0  0  0  0  0  0  0  0  0  0  0
  -23.4331  -32.0671   23.7467 O   0  0  0  0  0  0  0  0  0  0  0  0
  -25.2279  -28.0948   25.6230 O   0  0  0  0  0  0  0  0  0  0  0  0
  -30.5706  -19.0177   23.0214 O   0  0  0  0  0  0  0  0  0  0  0  0
  -24.4834   -8.3362   18.9143 O   0  0  0  0  0  0  0  0  0  0  0  0
  -28.2284  -26.2835   19.7686 O   0  0  0  0  0  0  0  0  0  1  0  0
  -23.0762   -5.2477   23.2600 F   0  0  0  0  0  0  0  0  0  0  0  0
  -24.8363   -5.5945   18.8797 F   0  0  0  0  0  0  0  0  0  0  0  0
  1  2  1  0  0  0  0
  1  5  2  0  0  0  0
  2  6  2  0  0  0  0
  3  8  2  0  0  0  0
  3 17  1  0  0  0  0
  4  9  1  0  0  0  0
  4 17  2  0  0  0  0
  5 19  1  0  0  0  0
  6 21  1  0  0  0  0
  7 10  2  0  0  0  0
  7 20  1  0  0  0  0
  8 24  1  0  0  0  0
  9 24  2  0  0  0  0
 10 25  1  0  0  0  0
 11 12  2  0  0  0  0
 11 26  1  0  0  0  0
 12 27  1  0  0  0  0
 13 22  1  0  0  0  0
 13 25  2  0  0  0  0
 14 23  1  0  0  0  0
 14 30  2  0  0  0  0
 15 23  2  0  0  0  0
 15 31  1  0  0  0  0
 16 27  2  0  0  0  0
 16 28  1  0  0  0  0
 17 29  1  0  0  0  0
 18 29  1  0  0  0  0
 18 32  2  0  0  0  0
 18 33  1  0  0  0  0
 19 21  2  0  0  0  0
 19 38  1  0  0  0  0
 20 22  2  0  0  0  0
 20 39  1  0  0  0  0
 21 53  1  0  0  0  0
 22 40  1  0  0  0  0
 23 52  1  0  0  0  0
 24 82  1  0  0  0  0
 25 83  1  0  0  0  0
 26 28  2  0  0  0  0
 26 82  1  0  0  0  0
 27 84  1  0  0  0  0
 28 85  1  0  0  0  0
 29 66  2  0  0  0  0
 30 54  1  0  0  0  0
 30 67  1  0  0  0  0
 31 62  1  0  0  0  0
 31 67  2  0  0  0  0
 32 68  1  0  0  0  0
 32 72  1  0  0  0  0
 33 73  1  0  0  0  0
 33 77  2  0  0  0  0
 34 55  1  0  0  0  0
 34 74  1  0  0  0  0
 34 78  2  0  0  0  0
 35 63  1  0  0  0  0
 35 69  1  0  0  0  0
 35 79  2  0  0  0  0
 36 64  1  0  0  0  0
 36 75  1  0  0  0  0
 36 80  2  0  0  0  0
 37 70  1  0  0  0  0
 37 71  1  0  0  0  0
 37 81  2  0  0  0  0
 38 41  1  0  0  0  0
 39 55  1  0  0  0  0
 40 69  1  0  0  0  0
 41 45  1  0  0  0  0
 42 46  1  0  0  0  0
 42 48  1  0  0  0  0
 43 44  1  0  0  0  0
 43 52  1  0  0  0  0
 44 52  1  0  0  0  0
 45 53  1  0  0  0  0
 46 56  1  0  0  0  0
 47 49  1  0  0  0  0
 47 54  1  0  0  0  0
 48 70  1  0  0  0  0
 49 71  1  0  0  0  0
 50 54  1  0  0  0  0
 50 71  1  0  0  0  0
 51 56  1  0  0  0  0
 51 70  1  0  0  0  0
 53 74  1  0  0  0  0
 55 69  1  0  0  0  0
 56 68  1  0  0  0  0
 57 64  1  0  0  0  0
 58 65  1  0  0  0  0
 59 65  1  0  0  0  0
 60 65  1  0  0  0  0
 61 76  1  0  0  0  0
 62 83  1  0  0  0  0
 63 65  1  0  0  0  0
 63 75  1  0  0  0  0
 64 76  1  0  0  0  0
 66 68  1  0  0  0  0
M  CHG  1  76   1
M  ISO  4  37 100  62 101  71 100  83 101
M  END
> <Batch ID>
0187

> <Smiles>
CNC(C)C(=O)NC(C(=O)N1Cc2cc([101O:1][101CH2:1]c3cc(C4CC4)cc(C4CC[100N:0]([100C:0](=O)N5CCCC(n6nc(-c7ccc(Oc8ccc(F)cc8F)cc7)c(C(N)=O)c6N)C5)C4)n3)ccc2CC1C(=O)NC1CCCc2ccccc21)C(C)(C)C

> <Shape>
0.263

> <Color>
0.116

> <Negative vol penalty>
0.000

$$$$

  -OEChem-04052323173D

 82 91  0     1  0  0  0  0  0999 V2000
  -20.5913  -15.4145   19.7412 C   0  0  0  0  0  0  0  0  0  0  0  0
  -21.6499  -16.3118   19.6428 C   0  0  0  0  0  0  0  0  0  0  0  0
  -26.3710  -12.7809   21.6246 C   0  0  0  0  0  0  0  0  0  0  0  0
  -25.9695  -13.6590   19.4100 C   0  0  0  0  0  0  0  0  0  0  0  0
  -19.3282  -15.7743   19.2732 C   0  0  0  0  0  0  0  0  0  0  0  0
  -21.4462  -17.5691   19.0752 C   0  0  0  0  0  0  0  0  0  0  0  0
  -23.6061  -21.2835   21.7553 C   0  0  0  0  0  0  0  0  0  0  0  0
  -25.1181  -12.1681   21.6089 C   0  0  0  0  0  0  0  0  0  0  0  0
  -24.7165  -13.0462   19.3942 C   0  0  0  0  0  0  0  0  0  0  0  0
  -24.9831  -21.4515   21.6157 C   0  0  0  0  0  0  0  0  0  0  0  0
  -23.7183   -9.3946   20.2742 C   0  0  0  0  0  0  0  0  0  0  0  0
  -23.6369   -8.0743   20.7165 C   0  0  0  0  0  0  0  0  0  0  0  0
  -24.5992  -23.2790   20.0885 C   0  0  0  0  0  0  0  0  0  0  0  0
  -22.0926   -8.7494   22.4475 C   0  0  0  0  0  0  0  0  0  0  0  0
  -29.6476  -24.1349   20.7371 C   0  0  0  0  0  0  0  0  0  0  0  0
  -26.7967  -13.5264   20.5252 C   0  0  0  0  0  0  0  0  0  0  0  0
  -29.3110  -13.6123   20.1025 C   0  0  0  0  0  0  0  0  0  0  0  0
  -19.1067  -17.0402   18.7083 C   0  0  0  0  0  0  0  0  0  0  0  0
  -22.7139  -22.1062   21.0528 C   0  0  0  0  0  0  0  0  0  0  0  0
  -20.1793  -17.9456   18.5979 C   0  0  0  0  0  0  0  0  0  0  0  0
  -23.2114  -23.1210   20.2229 C   0  0  0  0  0  0  0  0  0  0  0  0
  -24.2909  -12.3007   20.4936 C   0  0  0  0  0  0  0  0  0  0  0  0
  -25.4799  -22.4475   20.7800 C   0  0  0  0  0  0  0  0  0  0  0  0
  -22.9870  -10.3924   20.9186 C   0  0  0  0  0  0  0  0  0  0  0  0
  -22.8240   -7.7516   21.8031 C   0  0  0  0  0  0  0  0  0  0  0  0
  -22.1741  -10.0698   22.0052 C   0  0  0  0  0  0  0  0  0  0  0  0
  -28.0906  -14.1601   20.5412 C   0  0  0  0  0  0  0  0  0  0  0  0
  -30.8849  -23.9097   20.2046 C   0  0  0  0  0  0  0  0  0  0  0  0
  -28.7629  -23.6567   19.7282 C   0  0  0  0  0  0  0  0  0  0  0  0
  -30.2335  -14.6047   20.3278 C   0  0  0  0  0  0  0  0  0  0  0  0
  -29.5861  -12.3219   19.5414 C   0  0  0  0  0  0  0  0  0  0  0  0
  -20.4744  -21.6202   18.8501 C   0  0  0  0  0  0  0  0  0  0  0  0
  -19.8861  -24.7766   19.3119 C   0  0  0  0  0  0  0  0  0  0  0  0
  -21.0462  -27.8220   20.3251 C   0  0  0  0  0  0  0  0  0  0  0  0
  -31.7644  -19.8464   19.9703 C   0  0  0  0  0  0  0  0  0  0  0  0
  -17.7349  -17.3664   18.1731 C   0  0  0  0  0  0  0  0  0  0  0  0
  -21.2313  -21.9295   21.2349 C   0  0  0  0  0  0  0  0  0  0  0  0
  -22.2956  -24.0439   19.4625 C   0  0  0  0  0  0  0  0  0  0  0  0
  -32.3297  -24.0568   20.4711 C   0  0  0  0  0  0  0  0  0  0  0  0
  -17.5159  -18.8568   17.9264 C   0  0  0  0  0  0  0  0  0  0  0  0
  -29.8442  -18.9423   22.9017 C   0  0  0  0  0  0  0  0  0  0  0  0
  -18.7068  -19.4558   17.1848 C   0  0  0  0  0  0  0  0  0  0  0  0
  -29.3160  -17.5623   22.5056 C   0  0  0  0  0  0  0  0  0  0  0  0
  -31.8736  -23.0204   18.2490 C   0  0  0  0  0  0  0  0  0  0  0  0
  -29.8716  -19.8882   21.7048 C   0  0  0  0  0  0  0  0  0  0  0  0
  -30.1179  -18.0016   20.1383 C   0  0  0  0  0  0  0  0  0  0  0  0
  -19.9923  -19.3279   18.0110 C   0  0  1  0  0  0  0  0  0  0  0  0
  -20.4157  -22.4900   20.0739 C   0  0  1  0  0  0  0  0  0  0  0  0
  -30.0869  -16.9921   21.3003 C   0  0  2  0  0  0  0  0  0  0  0  0
  -32.9455  -23.1372   19.3642 C   0  0  2  0  0  0  0  0  0  0  0  0
  -20.3459  -30.2212   20.5508 C   0  0  0  0  0  0  0  0  0  0  0  0
  -20.1877  -25.1457   16.2982 C   0  0  0  0  0  0  0  0  0  0  0  0
  -20.4287  -27.6061   16.6938 C   0  0  0  0  0  0  0  0  0  0  0  0
  -18.3137  -26.4442   17.3258 C   0  0  0  0  0  0  0  0  0  0  0  0
  -21.4613  -27.7884   23.2552 C   0  0  0  0  0  0  0  0  0  0  0  0
  -27.2630  -23.6532   19.7689 C   0  0  0  0  0  0  0  0  0  1  0  0
  -33.3366  -21.7654   19.9202 C   0  0  0  0  0  0  0  0  0  0  0  0
  -20.3984  -26.0597   18.7036 C   0  0  1  0  0  0  0  0  0  0  0  0
  -20.4497  -28.8720   21.2449 C   0  0  2  0  0  0  0  0  0  0  0  0
  -19.8496  -26.2954   17.2680 C   0  0  0  0  0  0  0  0  0  0  0  0
  -28.2226  -15.4039   21.0099 N   0  0  0  0  0  0  0  0  0  0  0  0
  -29.3990  -23.1702   18.6480 N   0  0  0  0  0  0  0  0  0  0  0  0
  -30.6699  -23.3478   18.9909 N   0  0  0  0  0  0  0  0  0  0  0  0
  -29.5368  -15.6458   20.8670 N   0  0  0  0  0  0  0  0  0  0  0  0
  -20.8541  -23.8271   19.6687 N   0  0  0  0  0  0  0  0  0  0  0  0
  -30.6362  -19.2940   20.5991 N   0  0  0  0  0  0  0  0  0  0  0  0
  -31.5645  -14.6794   20.1153 N   0  0  0  0  0  0  0  0  0  0  0  0
  -28.5226  -11.4235   19.3789 N   0  0  0  0  0  0  0  0  0  0  0  0
  -20.0240  -20.3299   19.0548 N   0  0  0  0  0  0  0  0  0  0  0  0
  -20.0699  -27.1200   19.6504 N   0  0  0  0  0  0  0  0  0  0  0  0
  -32.1869  -21.0755   20.4616 N   0  0  0  0  0  0  0  0  0  0  0  0
  -34.1724  -23.7699   18.8127 N   0  3  0  0  0  0  0  0  0  0  0  0
  -21.2936  -29.0336   22.4625 N   0  3  0  0  0  0  0  0  0  0  0  0
  -30.7434  -11.9697   19.2098 O   0  0  0  0  0  0  0  0  0  0  0  0
  -20.8957  -22.0856   17.7977 O   0  0  0  0  0  0  0  0  0  0  0  0
  -18.6723  -24.6253   19.4714 O   0  0  0  0  0  0  0  0  0  0  0  0
  -22.2573  -27.6449   20.2132 O   0  0  0  0  0  0  0  0  0  0  0  0
  -32.3554  -19.2830   19.0427 O   0  0  0  0  0  0  0  0  0  0  0  0
  -23.0683  -11.7026   20.4778 O   0  0  0  0  0  0  0  0  0  0  0  0
  -26.8235  -22.6132   20.6415 O   0  0  0  0  0  0  0  0  0  1  0  0
  -22.7447   -6.4834   22.2268 F   0  0  0  0  0  0  0  0  0  0  0  0
  -21.4682  -11.0239   22.6275 F   0  0  0  0  0  0  0  0  0  0  0  0
  1  2  1  0  0  0  0
  1  5  2  0  0  0  0
  2  6  2  0  0  0  0
  3  8  2  0  0  0  0
  3 16  1  0  0  0  0
  4  9  1  0  0  0  0
  4 16  2  0  0  0  0
  5 18  1  0  0  0  0
  6 20  1  0  0  0  0
  7 10  2  0  0  0  0
  7 19  1  0  0  0  0
  8 22  1  0  0  0  0
  9 22  2  0  0  0  0
 10 23  1  0  0  0  0
 11 12  2  0  0  0  0
 11 24  1  0  0  0  0
 12 25  1  0  0  0  0
 13 21  1  0  0  0  0
 13 23  2  0  0  0  0
 14 25  2  0  0  0  0
 14 26  1  0  0  0  0
 15 28  2  0  0  0  0
 15 29  1  0  0  0  0
 16 27  1  0  0  0  0
 17 27  1  0  0  0  0
 17 30  2  0  0  0  0
 17 31  1  0  0  0  0
 18 20  2  0  0  0  0
 18 36  1  0  0  0  0
 19 21  2  0  0  0  0
 19 37  1  0  0  0  0
 20 47  1  0  0  0  0
 21 38  1  0  0  0  0
 22 79  1  0  0  0  0
 23 80  1  0  0  0  0
 24 26  2  0  0  0  0
 24 79  1  0  0  0  0
 25 81  1  0  0  0  0
 26 82  1  0  0  0  0
 27 61  2  0  0  0  0
 28 39  1  0  0  0  0
 28 63  1  0  0  0  0
 29 56  1  0  0  0  0
 29 62  2  0  0  0  0
 30 64  1  0  0  0  0
 30 67  1  0  0  0  0
 31 68  1  0  0  0  0
 31 74  2  0  0  0  0
 32 48  1  0  0  0  0
 32 69  1  0  0  0  0
 32 75  2  0  0  0  0
 33 58  1  0  0  0  0
 33 65  1  0  0  0  0
 33 76  2  0  0  0  0
 34 59  1  0  0  0  0
 34 70  1  0  0  0  0
 34 77  2  0  0  0  0
 35 66  1  0  0  0  0
 35 71  1  0  0  0  0
 35 78  2  0  0  0  0
 36 40  1  0  0  0  0
 37 48  1  0  0  0  0
 38 65  1  0  0  0  0
 39 50  1  0  0  0  0
 40 42  1  0  0  0  0
 41 43  1  0  0  0  0
 41 45  1  0  0  0  0
 42 47  1  0  0  0  0
 43 49  1  0  0  0  0
 44 50  1  0  0  0  0
 44 63  1  0  0  0  0
 45 66  1  0  0  0  0
 46 49  1  0  0  0  0
 46 66  1  0  0  0  0
 47 69  1  0  0  0  0
 48 65  1  0  0  0  0
 49 64  1  0  0  0  0
 50 57  1  0  0  0  0
 50 72  1  0  0  0  0
 51 59  1  0  0  0  0
 52 60  1  0  0  0  0
 53 60  1  0  0  0  0
 54 60  1  0  0  0  0
 55 73  1  0  0  0  0
 56 80  1  0  0  0  0
 57 71  1  0  0  0  0
 58 60  1  0  0  0  0
 58 70  1  0  0  0  0
 59 73  1  0  0  0  0
 61 64  1  0  0  0  0
 62 63  1  0  0  0  0
M  CHG  2  72   1  73   1
M  ISO  4  35 100  56 101  71 100  80 101
M  END
> <Batch ID>
0187

> <Smiles>
CNC(C)C(=O)NC(C(=O)N1Cc2cc([101O:1][101CH2:1]c3cc4n(n3)CC(N)(C[100NH:0][100C:0](=O)N3CCCC(n5nc(-c6ccc(Oc7ccc(F)cc7F)cc6)c(C(N)=O)c5N)C3)C4)ccc2CC1C(=O)NC1CCCc2ccccc21)C(C)(C)C

> <Shape>
0.185

> <Color>
0.081

> <Negative vol penalty>
0.000

$$$$

  -OEChem-04052323173D

 84 93  0     1  0  0  0  0  0999 V2000
  -24.1938   -8.3654   21.7207 C   0  0  0  0  0  0  0  0  0  0  0  0
  -24.8800   -9.5399   21.4291 C   0  0  0  0  0  0  0  0  0  0  0  0
  -23.2935  -26.3101   21.6133 C   0  0  0  0  0  0  0  0  0  0  0  0
  -23.1538  -28.6748   22.0884 C   0  0  0  0  0  0  0  0  0  0  0  0
  -22.7999   -8.3495   21.6965 C   0  0  0  0  0  0  0  0  0  0  0  0
  -24.1727  -10.6990   21.1120 C   0  0  0  0  0  0  0  0  0  0  0  0
  -25.9831  -14.7902   23.4846 C   0  0  0  0  0  0  0  0  0  0  0  0
  -22.1203  -26.0954   22.3365 C   0  0  0  0  0  0  0  0  0  0  0  0
  -21.9805  -28.4601   22.8117 C   0  0  0  0  0  0  0  0  0  0  0  0
  -27.1430  -15.3652   22.9671 C   0  0  0  0  0  0  0  0  0  0  0  0
  -18.7527  -28.5845   24.4801 C   0  0  0  0  0  0  0  0  0  0  0  0
  -17.6870  -29.4578   24.2628 C   0  0  0  0  0  0  0  0  0  0  0  0
  -25.8106  -17.0487   21.8672 C   0  0  0  0  0  0  0  0  0  0  0  0
  -17.6386  -28.8193   21.9332 C   0  0  0  0  0  0  0  0  0  0  0  0
  -23.8103  -27.5998   21.4893 C   0  0  0  0  0  0  0  0  0  0  0  0
  -25.1346  -28.1051   19.3683 C   0  0  0  0  0  0  0  0  0  0  0  0
  -22.0749   -9.5114   21.3884 C   0  0  0  0  0  0  0  0  0  0  0  0
  -24.7253  -15.3347   23.1879 C   0  0  0  0  0  0  0  0  0  0  0  0
  -22.7677  -10.6983   21.0823 C   0  0  0  0  0  0  0  0  0  0  0  0
  -24.6364  -16.4803   22.3843 C   0  0  0  0  0  0  0  0  0  0  0  0
  -21.4638  -27.1704   22.9357 C   0  0  0  0  0  0  0  0  0  0  0  0
  -27.0567  -16.4929   22.1559 C   0  0  0  0  0  0  0  0  0  0  0  0
  -19.2614  -27.8285   23.4239 C   0  0  0  0  0  0  0  0  0  0  0  0
  -17.1300  -29.5753   22.9894 C   0  0  0  0  0  0  0  0  0  0  0  0
  -18.7043  -27.9460   22.1505 C   0  0  0  0  0  0  0  0  0  0  0  0
  -25.0225  -27.8221   20.7428 C   0  0  0  0  0  0  0  0  0  0  0  0
  -26.4853  -28.2292   19.1524 C   0  0  0  0  0  0  0  0  0  0  0  0
  -31.2403  -18.2623   19.1773 C   0  0  0  0  0  0  0  0  0  0  0  0
  -29.3555  -18.6631   20.3277 C   0  0  0  0  0  0  0  0  0  0  0  0
  -30.9384  -20.2473   20.1801 C   0  0  0  0  0  0  0  0  0  0  0  0
  -24.1095  -28.2435   18.3755 C   0  0  0  0  0  0  0  0  0  0  0  0
  -22.1197  -14.2829   21.7019 C   0  0  0  0  0  0  0  0  0  0  0  0
  -20.8772  -17.1028   22.7150 C   0  0  0  0  0  0  0  0  0  0  0  0
  -21.4284  -20.3175   23.7194 C   0  0  0  0  0  0  0  0  0  0  0  0
  -31.1400  -25.9730   22.3542 C   0  0  0  0  0  0  0  0  0  0  0  0
  -20.5699   -9.4335   21.3284 C   0  0  0  0  0  0  0  0  0  0  0  0
  -23.4855  -14.7185   23.7757 C   0  0  0  0  0  0  0  0  0  0  0  0
  -23.3116  -17.1153   22.0524 C   0  0  0  0  0  0  0  0  0  0  0  0
  -19.8879  -10.7991   21.3493 C   0  0  0  0  0  0  0  0  0  0  0  0
  -30.5432  -29.4592   21.3726 C   0  0  0  0  0  0  0  0  0  0  0  0
  -20.5695  -11.7512   20.3717 C   0  0  0  0  0  0  0  0  0  0  0  0
  -29.0538  -29.4631   21.0256 C   0  0  0  0  0  0  0  0  0  0  0  0
  -29.6245  -23.2246   20.4395 C   0  0  0  0  0  0  0  0  0  0  0  0
  -30.8775  -28.4252   22.4454 C   0  0  0  0  0  0  0  0  0  0  0  0
  -29.3627  -24.4627   21.2908 C   0  0  0  0  0  0  0  0  0  0  0  0
  -28.9250  -27.0669   21.8006 C   0  0  0  0  0  0  0  0  0  0  0  0
  -31.5429  -23.5926   21.7952 C   0  0  0  0  0  0  0  0  0  0  0  0
  -22.0354  -11.9823   20.7579 C   0  0  1  0  0  0  0  0  0  0  0  0
  -22.2218  -15.0518   22.9887 C   0  0  1  0  0  0  0  0  0  0  0  0
  -28.5613  -28.0463   20.6761 C   0  0  1  0  0  0  0  0  0  0  0  0
  -30.6559  -22.4723   21.2732 C   0  0  2  0  0  0  0  0  0  0  0  0
  -32.0790  -17.3474   18.3517 C   0  0  0  0  0  0  0  0  0  0  0  0
  -20.2141  -22.3901   24.4456 C   0  0  0  0  0  0  0  0  0  0  0  0
  -20.0873  -17.6517   19.8193 C   0  0  0  0  0  0  0  0  0  0  0  0
  -19.7653  -20.0567   20.4362 C   0  0  0  0  0  0  0  0  0  0  0  0
  -18.3623  -18.2965   21.5114 C   0  0  0  0  0  0  0  0  0  0  0  0
  -22.7512  -20.3048   26.3669 C   0  0  0  0  0  0  0  0  0  0  0  0
  -28.0256  -18.2095   20.8254 C   0  0  0  0  0  0  0  0  0  1  0  0
  -20.7997  -18.5010   22.1511 C   0  0  1  0  0  0  0  0  0  0  0  0
  -20.8962  -21.1091   24.9003 C   0  0  2  0  0  0  0  0  0  0  0  0
  -19.7786  -18.6136   20.9840 C   0  0  0  0  0  0  0  0  0  0  0  0
  -26.2075  -27.7693   21.3567 N   0  0  0  0  0  0  0  0  0  0  0  0
  -30.0548  -17.7856   19.5903 N   0  0  0  0  0  0  0  0  0  0  0  0
  -31.7472  -19.4793   19.4324 N   0  0  0  0  0  0  0  0  0  0  0  0
  -29.7321  -19.9077   20.6625 N   0  0  0  0  0  0  0  0  0  0  0  0
  -27.0771  -28.0207   20.3634 N   0  0  0  0  0  0  0  0  0  0  0  0
  -22.1276  -16.4723   22.6459 N   0  0  0  0  0  0  0  0  0  0  0  0
  -30.3646  -27.1048   22.0793 N   0  0  0  0  0  0  0  0  0  0  0  0
  -30.6452  -24.7355   21.9446 N   0  0  0  0  0  0  0  0  0  0  0  0
  -27.2127  -28.4950   18.0466 N   0  0  0  0  0  0  0  0  0  0  0  0
  -22.7734  -28.0849   18.7681 N   0  0  0  0  0  0  0  0  0  0  0  0
  -31.3958  -21.5220   20.4856 N   0  0  0  0  0  0  0  0  0  0  0  0
  -22.1262  -12.9106   21.8644 N   0  0  0  0  0  0  0  0  0  0  0  0
  -20.5167  -19.3812   23.2796 N   0  0  0  0  0  0  0  0  0  0  0  0
  -22.0078  -21.4711   25.8245 N   0  3  0  0  0  0  0  0  0  0  0  0
  -24.3714  -28.4840   17.1726 O   0  0  0  0  0  0  0  0  0  0  0  0
  -22.0394  -14.8896   20.6402 O   0  0  0  0  0  0  0  0  0  0  0  0
  -19.8673  -16.5917   23.2053 O   0  0  0  0  0  0  0  0  0  0  0  0
  -22.5401  -20.5129   23.2332 O   0  0  0  0  0  0  0  0  0  0  0  0
  -32.2476  -26.0680   22.8994 O   0  0  0  0  0  0  0  0  0  0  0  0
  -20.3188  -26.9613   23.6413 O   0  0  0  0  0  0  0  0  0  0  0  0
  -28.1949  -17.0595   21.6455 O   0  0  0  0  0  0  0  0  0  1  0  0
  -16.1057  -30.4129   22.7813 F   0  0  0  0  0  0  0  0  0  0  0  0
  -19.1880  -27.2215   21.1321 F   0  0  0  0  0  0  0  0  0  0  0  0
  1  2  1  0  0  0  0
  1  5  2  0  0  0  0
  2  6  2  0  0  0  0
  3  8  2  0  0  0  0
  3 15  1  0  0  0  0
  4  9  1  0  0  0  0
  4 15  2  0  0  0  0
  5 17  1  0  0  0  0
  6 19  1  0  0  0  0
  7 10  2  0  0  0  0
  7 18  1  0  0  0  0
  8 21  1  0  0  0  0
  9 21  2  0  0  0  0
 10 22  1  0  0  0  0
 11 12  2  0  0  0  0
 11 23  1  0  0  0  0
 12 24  1  0  0  0  0
 13 20  1  0  0  0  0
 13 22  2  0  0  0  0
 14 24  2  0  0  0  0
 14 25  1  0  0  0  0
 15 26  1  0  0  0  0
 16 26  1  0  0  0  0
 16 27  2  0  0  0  0
 16 31  1  0  0  0  0
 17 19  2  0  0  0  0
 17 36  1  0  0  0  0
 18 20  2  0  0  0  0
 18 37  1  0  0  0  0
 19 48  1  0  0  0  0
 20 38  1  0  0  0  0
 21 81  1  0  0  0  0
 22 82  1  0  0  0  0
 23 25  2  0  0  0  0
 23 81  1  0  0  0  0
 24 83  1  0  0  0  0
 25 84  1  0  0  0  0
 26 62  2  0  0  0  0
 27 66  1  0  0  0  0
 27 70  1  0  0  0  0
 28 52  1  0  0  0  0
 28 63  2  0  0  0  0
 28 64  1  0  0  0  0
 29 58  1  0  0  0  0
 29 63  1  0  0  0  0
 29 65  2  0  0  0  0
 30 64  2  0  0  0  0
 30 65  1  0  0  0  0
 30 72  1  0  0  0  0
 31 71  1  0  0  0  0
 31 76  2  0  0  0  0
 32 49  1  0  0  0  0
 32 73  1  0  0  0  0
 32 77  2  0  0  0  0
 33 59  1  0  0  0  0
 33 67  1  0  0  0  0
 33 78  2  0  0  0  0
 34 60  1  0  0  0  0
 34 74  1  0  0  0  0
 34 79  2  0  0  0  0
 35 68  1  0  0  0  0
 35 69  1  0  0  0  0
 35 80  2  0  0  0  0
 36 39  1  0  0  0  0
 37 49  1  0  0  0  0
 38 67  1  0  0  0  0
 39 41  1  0  0  0  0
 40 42  1  0  0  0  0
 40 44  1  0  0  0  0
 41 48  1  0  0  0  0
 42 50  1  0  0  0  0
 43 45  1  0  0  0  0
 43 51  1  0  0  0  0
 44 68  1  0  0  0  0
 45 69  1  0  0  0  0
 46 50  1  0  0  0  0
 46 68  1  0  0  0  0
 47 51  1  0  0  0  0
 47 69  1  0  0  0  0
 48 73  1  0  0  0  0
 49 67  1  0  0  0  0
 50 66  1  0  0  0  0
 51 72  1  0  0  0  0
 53 60  1  0  0  0  0
 54 61  1  0  0  0  0
 55 61  1  0  0  0  0
 56 61  1  0  0  0  0
 57 75  1  0  0  0  0
 58 82  1  0  0  0  0
 59 61  1  0  0  0  0
 59 74  1  0  0  0  0
 60 75  1  0  0  0  0
 62 66  1  0  0  0  0
M  CHG  1  75   1
M  ISO  4  35 100  58 101  69 100  82 101
M  END
> <Batch ID>
0187

> <Smiles>
CNC(C)C(=O)NC(C(=O)N1Cc2cc([101O:1][101CH2:1]c3nc(C)nc(NC4CC[100N:0]([100C:0](=O)N5CCCC(n6nc(-c7ccc(Oc8ccc(F)cc8F)cc7)c(C(N)=O)c6N)C5)C4)n3)ccc2CC1C(=O)NC1CCCc2ccccc21)C(C)(C)C

> <Shape>
0.205

> <Color>
0.100

> <Negative vol penalty>
0.000

$$$$

  -OEChem-04052323173D

 86 95  0     1  0  0  0  0  0999 V2000
  -31.0619  -34.5808   19.5221 C   0  0  0  0  0  0  0  0  0  0  0  0
  -31.1320  -33.1925   19.4655 C   0  0  0  0  0  0  0  0  0  0  0  0
  -24.6028   -9.1404   21.8689 C   0  0  0  0  0  0  0  0  0  0  0  0
  -23.1662   -9.7212   20.0153 C   0  0  0  0  0  0  0  0  0  0  0  0
  -30.1622  -35.1974   20.3906 C   0  0  0  0  0  0  0  0  0  0  0  0
  -30.3030  -32.4200   20.2782 C   0  0  0  0  0  0  0  0  0  0  0  0
  -27.7972  -27.0063   18.8929 C   0  0  0  0  0  0  0  0  0  0  0  0
  -23.5207   -8.5518   22.5232 C   0  0  0  0  0  0  0  0  0  0  0  0
  -22.0841   -9.1326   20.6695 C   0  0  0  0  0  0  0  0  0  0  0  0
  -28.1637  -25.6969   19.2006 C   0  0  0  0  0  0  0  0  0  0  0  0
  -21.7949   -5.6484   22.3671 C   0  0  0  0  0  0  0  0  0  0  0  0
  -21.9950   -4.4005   22.9573 C   0  0  0  0  0  0  0  0  0  0  0  0
  -26.6421  -25.7173   21.0724 C   0  0  0  0  0  0  0  0  0  0  0  0
  -21.4135   -5.3264   25.1118 C   0  0  0  0  0  0  0  0  0  0  0  0
  -29.2138  -20.3646   23.0786 C   0  0  0  0  0  0  0  0  0  0  0  0
  -24.4256   -9.7252   20.6150 C   0  0  0  0  0  0  0  0  0  0  0  0
  -26.4394   -9.7123   19.0491 C   0  0  0  0  0  0  0  0  0  0  0  0
  -29.3150  -34.4320   21.2074 C   0  0  0  0  0  0  0  0  0  0  0  0
  -26.8569  -27.6861   19.6804 C   0  0  0  0  0  0  0  0  0  0  0  0
  -29.3921  -33.0269   21.1594 C   0  0  0  0  0  0  0  0  0  0  0  0
  -26.2635  -27.0345   20.7710 C   0  0  0  0  0  0  0  0  0  0  0  0
  -22.2613   -8.5479   21.9235 C   0  0  0  0  0  0  0  0  0  0  0  0
  -27.5883  -25.0531   20.2922 C   0  0  0  0  0  0  0  0  0  0  0  0
  -21.4042   -6.7353   23.1492 C   0  0  0  0  0  0  0  0  0  0  0  0
  -21.8043   -4.2395   24.3297 C   0  0  0  0  0  0  0  0  0  0  0  0
  -21.2135   -6.5743   24.5215 C   0  0  0  0  0  0  0  0  0  0  0  0
  -25.5429  -10.3339   19.9388 C   0  0  0  0  0  0  0  0  0  0  0  0
  -28.8323  -19.3282   22.2553 C   0  0  0  0  0  0  0  0  0  0  0  0
  -27.4769  -20.7537   21.0888 C   0  0  0  0  0  0  0  0  0  0  0  0
  -27.8578  -21.7899   21.9126 C   0  0  0  0  0  0  0  0  0  0  0  0
  -27.3102  -10.7104   18.6858 C   0  0  0  0  0  0  0  0  0  0  0  0
  -26.4812   -8.3541   18.5917 C   0  0  0  0  0  0  0  0  0  0  0  0
  -26.9119  -30.3066   21.4785 C   0  0  0  0  0  0  0  0  0  0  0  0
  -23.7281  -29.7356   21.7219 C   0  0  0  0  0  0  0  0  0  0  0  0
  -21.1693  -27.4822   21.5751 C   0  0  0  0  0  0  0  0  0  0  0  0
  -28.9046  -15.7085   21.5250 C   0  0  0  0  0  0  0  0  0  0  0  0
  -28.3920  -35.1436   22.1646 C   0  0  0  0  0  0  0  0  0  0  0  0
  -26.4525  -29.0891   19.3192 C   0  0  0  0  0  0  0  0  0  0  0  0
  -25.2340  -27.7131   21.6359 C   0  0  0  0  0  0  0  0  0  0  0  0
  -27.2852  -34.2512   22.7205 C   0  0  0  0  0  0  0  0  0  0  0  0
  -27.5739  -15.4460   18.1300 C   0  0  0  0  0  0  0  0  0  0  0  0
  -27.8576  -32.9137   23.1789 C   0  0  0  0  0  0  0  0  0  0  0  0
  -26.9487  -14.0518   18.1515 C   0  0  0  0  0  0  0  0  0  0  0  0
  -27.4450  -16.1406   19.4827 C   0  0  0  0  0  0  0  0  0  0  0  0
  -30.6122  -17.4912   21.7481 C   0  0  0  0  0  0  0  0  0  0  0  0
  -27.3818  -13.9494   20.6438 C   0  0  0  0  0  0  0  0  0  0  0  0
  -28.4920  -32.1545   22.0073 C   0  0  1  0  0  0  0  0  0  0  0  0
  -29.3980  -17.9500   22.4726 C   0  0  2  0  0  0  0  0  0  0  0  0
  -25.8656  -29.8633   20.4955 C   0  0  1  0  0  0  0  0  0  0  0  0
  -27.5215  -13.2085   19.3039 C   0  0  1  0  0  0  0  0  0  0  0  0
  -18.6820  -27.3048   21.8568 C   0  0  0  0  0  0  0  0  0  0  0  0
  -29.9035  -19.3645   16.8680 C   0  0  0  0  0  0  0  0  0  0  0  0
  -27.7018  -19.9468   15.7782 C   0  0  0  0  0  0  0  0  0  0  0  0
  -24.0651  -29.8564   24.7521 C   0  0  0  0  0  0  0  0  0  0  0  0
  -21.8275  -28.7556   24.9749 C   0  0  0  0  0  0  0  0  0  0  0  0
  -22.0124  -30.9916   23.8846 C   0  0  0  0  0  0  0  0  0  0  0  0
  -20.7983  -26.6002   18.7745 C   0  0  0  0  0  0  0  0  0  0  0  0
  -26.5083  -20.9617   19.9753 C   0  0  0  0  0  0  0  0  0  0  0  0
  -27.3154  -23.1765   21.7274 C   0  0  0  0  0  0  0  0  0  1  0  0
  -26.7276  -20.0420   18.7726 C   0  0  0  0  0  0  0  0  0  0  0  0
  -22.8529  -28.9437   22.6632 C   0  0  1  0  0  0  0  0  0  0  0  0
  -19.8224  -27.5316   20.8766 C   0  0  2  0  0  0  0  0  0  0  0  0
  -28.3916  -19.4078   17.0211 C   0  0  0  0  0  0  0  0  0  0  0  0
  -22.7103  -29.6244   24.0538 C   0  0  0  0  0  0  0  0  0  0  0  0
  -28.7333  -21.6141   22.9221 N   0  0  0  0  0  0  0  0  0  0  0  0
  -25.8189  -11.6268   20.1294 N   0  0  0  0  0  0  0  0  0  0  0  0
  -27.9571  -19.5041   21.2455 N   0  0  0  0  0  0  0  0  0  0  0  0
  -26.8986  -11.8257   19.3544 N   0  0  0  0  0  0  0  0  0  0  0  0
  -24.8764  -29.0870   21.2459 N   0  0  0  0  0  0  0  0  0  0  0  0
  -27.9633  -15.2914   20.5634 N   0  0  0  0  0  0  0  0  0  0  0  0
  -29.3153  -17.0312   21.3665 N   0  0  0  0  0  0  0  0  0  0  0  0
  -28.3802  -10.7341   17.8631 N   0  0  0  0  0  0  0  0  0  0  0  0
  -25.5111   -7.4598   19.0643 N   0  0  0  0  0  0  0  0  0  0  0  0
  -27.4683  -31.5383   21.1907 N   0  0  0  0  0  0  0  0  0  0  0  0
  -21.5877  -28.7362   21.9669 N   0  0  0  0  0  0  0  0  0  0  0  0
  -19.7485  -26.4840   19.8192 N   0  3  0  0  0  0  0  0  0  0  0  0
  -28.0588  -20.2958   18.1682 N   0  3  0  0  0  0  0  0  0  0  0  0
  -27.3629   -7.9416   17.8004 O   0  0  0  0  0  0  0  0  0  0  0  0
  -27.1926  -29.5854   22.4286 O   0  0  0  0  0  0  0  0  0  0  0  0
  -23.4011  -30.8846   21.4146 O   0  0  0  0  0  0  0  0  0  0  0  0
  -21.7866  -26.4353   21.7584 O   0  0  0  0  0  0  0  0  0  0  0  0
  -29.3253  -14.9758   22.4244 O   0  0  0  0  0  0  0  0  0  0  0  0
  -21.2052   -7.9734   22.5616 O   0  0  0  0  0  0  0  0  0  0  0  0
  -27.9447  -23.7752   20.5952 O   0  0  0  0  0  0  0  0  0  1  0  0
  -21.9949   -3.0408   24.8961 F   0  0  0  0  0  0  0  0  0  0  0  0
  -20.8371   -7.6145   25.2779 F   0  0  0  0  0  0  0  0  0  0  0  0
  1  2  1  0  0  0  0
  1  5  2  0  0  0  0
  2  6  2  0  0  0  0
  3  8  2  0  0  0  0
  3 16  1  0  0  0  0
  4  9  1  0  0  0  0
  4 16  2  0  0  0  0
  5 18  1  0  0  0  0
  6 20  1  0  0  0  0
  7 10  2  0  0  0  0
  7 19  1  0  0  0  0
  8 22  1  0  0  0  0
  9 22  2  0  0  0  0
 10 23  1  0  0  0  0
 11 12  2  0  0  0  0
 11 24  1  0  0  0  0
 12 25  1  0  0  0  0
 13 21  1  0  0  0  0
 13 23  2  0  0  0  0
 14 25  2  0  0  0  0
 14 26  1  0  0  0  0
 15 28  1  0  0  0  0
 15 65  2  0  0  0  0
 16 27  1  0  0  0  0
 17 27  1  0  0  0  0
 17 31  2  0  0  0  0
 17 32  1  0  0  0  0
 18 20  2  0  0  0  0
 18 37  1  0  0  0  0
 19 21  2  0  0  0  0
 19 38  1  0  0  0  0
 20 47  1  0  0  0  0
 21 39  1  0  0  0  0
 22 83  1  0  0  0  0
 23 84  1  0  0  0  0
 24 26  2  0  0  0  0
 24 83  1  0  0  0  0
 25 85  1  0  0  0  0
 26 86  1  0  0  0  0
 27 66  2  0  0  0  0
 28 48  1  0  0  0  0
 28 67  2  0  0  0  0
 29 30  2  0  0  0  0
 29 58  1  0  0  0  0
 29 67  1  0  0  0  0
 30 59  1  0  0  0  0
 30 65  1  0  0  0  0
 31 68  1  0  0  0  0
 31 72  1  0  0  0  0
 32 73  1  0  0  0  0
 32 78  2  0  0  0  0
 33 49  1  0  0  0  0
 33 74  1  0  0  0  0
 33 79  2  0  0  0  0
 34 61  1  0  0  0  0
 34 69  1  0  0  0  0
 34 80  2  0  0  0  0
 35 62  1  0  0  0  0
 35 75  1  0  0  0  0
 35 81  2  0  0  0  0
 36 70  1  0  0  0  0
 36 71  1  0  0  0  0
 36 82  2  0  0  0  0
 37 40  1  0  0  0  0
 38 49  1  0  0  0  0
 39 69  1  0  0  0  0
 40 42  1  0  0  0  0
 41 43  1  0  0  0  0
 41 44  1  0  0  0  0
 42 47  1  0  0  0  0
 43 50  1  0  0  0  0
 44 70  1  0  0  0  0
 45 48  1  0  0  0  0
 45 71  1  0  0  0  0
 46 50  1  0  0  0  0
 46 70  1  0  0  0  0
 47 74  1  0  0  0  0
 48 71  1  0  0  0  0
 49 69  1  0  0  0  0
 50 68  1  0  0  0  0
 51 62  1  0  0  0  0
 52 63  1  0  0  0  0
 53 63  1  0  0  0  0
 54 64  1  0  0  0  0
 55 64  1  0  0  0  0
 56 64  1  0  0  0  0
 57 76  1  0  0  0  0
 58 60  1  0  0  0  0
 59 84  1  0  0  0  0
 60 77  1  0  0  0  0
 61 64  1  0  0  0  0
 61 75  1  0  0  0  0
 62 76  1  0  0  0  0
 63 77  1  0  0  0  0
 66 68  1  0  0  0  0
M  CHG  2  76   1  77   1
M  ISO  4  36 100  59 101  71 100  84 101
M  END
> <Batch ID>
0187

> <Smiles>
CNC(C)C(=O)NC(C(=O)N1Cc2cc([101O:1][101CH2:1]c3ncc(C4C[100N:0]4[100C:0](=O)N4CCCC(n5nc(-c6ccc(Oc7ccc(F)cc7F)cc6)c(C(N)=O)c5N)C4)nc3CCNC(C)C)ccc2CC1C(=O)NC1CCCc2ccccc21)C(C)(C)C

> <Shape>
0.278

> <Color>
0.077

> <Negative vol penalty>
0.000

$$$$

  -OEChem-04052323173D

 84 93  0     1  0  0  0  0  0999 V2000
  -28.1010  -33.7046   26.1941 C   0  0  0  0  0  0  0  0  0  0  0  0
  -28.1690  -32.4422   25.6134 C   0  0  0  0  0  0  0  0  0  0  0  0
  -25.3139  -10.0558   23.1251 C   0  0  0  0  0  0  0  0  0  0  0  0
  -24.1753   -9.2116   21.1686 C   0  0  0  0  0  0  0  0  0  0  0  0
  -26.8626  -34.3136   26.3923 C   0  0  0  0  0  0  0  0  0  0  0  0
  -26.9984  -31.7876   25.2316 C   0  0  0  0  0  0  0  0  0  0  0  0
  -27.3620  -29.6751   20.6436 C   0  0  0  0  0  0  0  0  0  0  0  0
  -24.3807   -9.4187   23.9430 C   0  0  0  0  0  0  0  0  0  0  0  0
  -23.2421   -8.5745   21.9865 C   0  0  0  0  0  0  0  0  0  0  0  0
  -28.0574  -28.4703   20.5506 C   0  0  0  0  0  0  0  0  0  0  0  0
  -23.0755   -5.7592   23.8486 C   0  0  0  0  0  0  0  0  0  0  0  0
  -22.7341   -4.4433   23.5367 C   0  0  0  0  0  0  0  0  0  0  0  0
  -25.9646  -27.2708   20.5305 C   0  0  0  0  0  0  0  0  0  0  0  0
  -20.4289   -5.1087   23.2526 C   0  0  0  0  0  0  0  0  0  0  0  0
  -31.0257  -23.2012   18.9228 C   0  0  0  0  0  0  0  0  0  0  0  0
  -30.0501  -23.9278   21.2993 C   0  0  0  0  0  0  0  0  0  0  0  0
  -25.2111   -9.9522   21.7378 C   0  0  0  0  0  0  0  0  0  0  0  0
  -27.3881  -10.0812   20.4143 C   0  0  0  0  0  0  0  0  0  0  0  0
  -25.6769  -33.6703   26.0039 C   0  0  0  0  0  0  0  0  0  0  0  0
  -25.9605  -29.6861   20.6917 C   0  0  0  0  0  0  0  0  0  0  0  0
  -25.7429  -32.3880   25.4260 C   0  0  0  0  0  0  0  0  0  0  0  0
  -25.2537  -28.4771   20.6215 C   0  0  0  0  0  0  0  0  0  0  0  0
  -23.3449   -8.6781   23.3737 C   0  0  0  0  0  0  0  0  0  0  0  0
  -27.3589  -27.2677   20.4970 C   0  0  0  0  0  0  0  0  0  0  0  0
  -22.0936   -6.7499   23.8625 C   0  0  0  0  0  0  0  0  0  0  0  0
  -21.4108   -4.1180   23.2387 C   0  0  0  0  0  0  0  0  0  0  0  0
  -20.7704   -6.4246   23.5645 C   0  0  0  0  0  0  0  0  0  0  0  0
  -26.1744  -10.6105   20.8924 C   0  0  0  0  0  0  0  0  0  0  0  0
  -31.0463  -22.3359   19.9943 C   0  0  0  0  0  0  0  0  0  0  0  0
  -30.0301  -24.7935   20.2280 C   0  0  0  0  0  0  0  0  0  0  0  0
  -27.9309  -11.0931   19.6607 C   0  0  0  0  0  0  0  0  0  0  0  0
  -27.9725   -8.7901   20.6318 C   0  0  0  0  0  0  0  0  0  0  0  0
  -23.7965  -30.6455   22.8131 C   0  0  0  0  0  0  0  0  0  0  0  0
  -21.7129  -29.9116   20.4377 C   0  0  0  0  0  0  0  0  0  0  0  0
  -21.0601  -28.1198   17.6075 C   0  0  0  0  0  0  0  0  0  0  0  0
  -29.2784  -16.2186   18.8040 C   0  0  0  0  0  0  0  0  0  0  0  0
  -24.3586  -34.3483   26.2816 C   0  0  0  0  0  0  0  0  0  0  0  0
  -25.2244  -30.9957   20.7651 C   0  0  0  0  0  0  0  0  0  0  0  0
  -23.7484  -28.4359   20.6493 C   0  0  0  0  0  0  0  0  0  0  0  0
  -23.1891  -33.7468   25.5065 C   0  0  0  0  0  0  0  0  0  0  0  0
  -25.9367  -15.4438   18.0448 C   0  0  0  0  0  0  0  0  0  0  0  0
  -23.2151  -32.2244   25.5972 C   0  0  0  0  0  0  0  0  0  0  0  0
  -25.7927  -14.0632   18.6845 C   0  0  0  0  0  0  0  0  0  0  0  0
  -26.7526  -16.3984   18.9184 C   0  0  0  0  0  0  0  0  0  0  0  0
  -28.6459  -18.6520   19.1254 C   0  0  0  0  0  0  0  0  0  0  0  0
  -30.5303  -18.0235   17.6619 C   0  0  0  0  0  0  0  0  0  0  0  0
  -27.9321  -14.4862   19.9535 C   0  0  0  0  0  0  0  0  0  0  0  0
  -29.5720  -19.5364   19.9540 C   0  0  0  0  0  0  0  0  0  0  0  0
  -31.4871  -18.8753   18.4801 C   0  0  0  0  0  0  0  0  0  0  0  0
  -24.4970  -31.6565   24.9759 C   0  0  1  0  0  0  0  0  0  0  0  0
  -23.8123  -30.8569   21.3256 C   0  0  1  0  0  0  0  0  0  0  0  0
  -27.1667  -13.4878   19.0714 C   0  0  1  0  0  0  0  0  0  0  0  0
  -19.2574  -27.7018   15.9126 C   0  0  0  0  0  0  0  0  0  0  0  0
  -20.2330  -28.1570   22.4480 C   0  0  0  0  0  0  0  0  0  0  0  0
  -19.0656  -27.0587   20.5246 C   0  0  0  0  0  0  0  0  0  0  0  0
  -18.7514  -29.4976   20.9440 C   0  0  0  0  0  0  0  0  0  0  0  0
  -22.7446  -29.1326   15.3949 C   0  0  0  0  0  0  0  0  0  0  0  0
  -31.6202  -20.9573   19.8492 C   0  0  0  0  0  0  0  0  0  0  0  0
  -29.4603  -26.1613   20.3718 C   0  0  0  0  0  0  0  0  0  1  0  0
  -20.9569  -28.6722   20.0238 C   0  0  1  0  0  0  0  0  0  0  0  0
  -20.4820  -28.5314   16.2655 C   0  0  2  0  0  0  0  0  0  0  0  0
  -19.7802  -28.3467   20.9865 C   0  0  0  0  0  0  0  0  0  0  0  0
  -30.5586  -22.6835   21.2017 N   0  0  0  0  0  0  0  0  0  0  0  0
  -30.5175  -24.4457   19.0205 N   0  0  0  0  0  0  0  0  0  0  0  0
  -25.9586  -11.8617   20.4775 N   0  0  0  0  0  0  0  0  0  0  0  0
  -27.0441  -12.1269   19.7309 N   0  0  0  0  0  0  0  0  0  0  0  0
  -23.0741  -29.7423   20.7280 N   0  0  0  0  0  0  0  0  0  0  0  0
  -28.0362  -15.7905   19.2957 N   0  0  0  0  0  0  0  0  0  0  0  0
  -29.3972  -17.5755   18.4686 N   0  0  0  0  0  0  0  0  0  0  0  0
  -29.0755  -11.1906   18.9517 N   0  0  0  0  0  0  0  0  0  0  0  0
  -27.2814   -7.8701   21.4319 N   0  0  0  0  0  0  0  0  0  0  0  0
  -24.4024  -31.6582   23.5318 N   0  0  0  0  0  0  0  0  0  0  0  0
  -20.5539  -28.8837   18.6377 N   0  0  0  0  0  0  0  0  0  0  0  0
  -30.7175  -20.0197   19.0973 N   0  3  0  0  0  0  0  0  0  0  0  0
  -21.4963  -28.3541   15.1882 N   0  3  0  0  0  0  0  0  0  0  0  0
  -29.0828   -8.4679   20.1449 O   0  0  0  0  0  0  0  0  0  0  0  0
  -23.2719  -29.6388   23.2747 O   0  0  0  0  0  0  0  0  0  0  0  0
  -21.1193  -30.9914   20.4941 O   0  0  0  0  0  0  0  0  0  0  0  0
  -21.8761  -27.2089   17.7300 O   0  0  0  0  0  0  0  0  0  0  0  0
  -30.2265  -15.4341   18.6730 O   0  0  0  0  0  0  0  0  0  0  0  0
  -22.4343   -8.0561   24.1716 O   0  0  0  0  0  0  0  0  0  0  0  0
  -28.0397  -26.0826   20.4063 O   0  0  0  0  0  0  0  0  0  1  0  0
  -21.0834   -2.8545   22.9377 F   0  0  0  0  0  0  0  0  0  0  0  0
  -19.8229   -7.3723   23.5751 F   0  0  0  0  0  0  0  0  0  0  0  0
  1  2  1  0  0  0  0
  1  5  2  0  0  0  0
  2  6  2  0  0  0  0
  3  8  2  0  0  0  0
  3 17  1  0  0  0  0
  4  9  1  0  0  0  0
  4 17  2  0  0  0  0
  5 19  1  0  0  0  0
  6 21  1  0  0  0  0
  7 10  2  0  0  0  0
  7 20  1  0  0  0  0
  8 23  1  0  0  0  0
  9 23  2  0  0  0  0
 10 24  1  0  0  0  0
 11 12  2  0  0  0  0
 11 25  1  0  0  0  0
 12 26  1  0  0  0  0
 13 22  1  0  0  0  0
 13 24  2  0  0  0  0
 14 26  2  0  0  0  0
 14 27  1  0  0  0  0
 15 29  2  0  0  0  0
 15 64  1  0  0  0  0
 16 30  1  0  0  0  0
 16 63  2  0  0  0  0
 17 28  1  0  0  0  0
 18 28  1  0  0  0  0
 18 31  2  0  0  0  0
 18 32  1  0  0  0  0
 19 21  2  0  0  0  0
 19 37  1  0  0  0  0
 20 22  2  0  0  0  0
 20 38  1  0  0  0  0
 21 50  1  0  0  0  0
 22 39  1  0  0  0  0
 23 81  1  0  0  0  0
 24 82  1  0  0  0  0
 25 27  2  0  0  0  0
 25 81  1  0  0  0  0
 26 83  1  0  0  0  0
 27 84  1  0  0  0  0
 28 65  2  0  0  0  0
 29 58  1  0  0  0  0
 29 63  1  0  0  0  0
 30 59  1  0  0  0  0
 30 64  2  0  0  0  0
 31 66  1  0  0  0  0
 31 70  1  0  0  0  0
 32 71  1  0  0  0  0
 32 76  2  0  0  0  0
 33 51  1  0  0  0  0
 33 72  1  0  0  0  0
 33 77  2  0  0  0  0
 34 60  1  0  0  0  0
 34 67  1  0  0  0  0
 34 78  2  0  0  0  0
 35 61  1  0  0  0  0
 35 73  1  0  0  0  0
 35 79  2  0  0  0  0
 36 68  1  0  0  0  0
 36 69  1  0  0  0  0
 36 80  2  0  0  0  0
 37 40  1  0  0  0  0
 38 51  1  0  0  0  0
 39 67  1  0  0  0  0
 40 42  1  0  0  0  0
 41 43  1  0  0  0  0
 41 44  1  0  0  0  0
 42 50  1  0  0  0  0
 43 52  1  0  0  0  0
 44 68  1  0  0  0  0
 45 48  1  0  0  0  0
 45 69  1  0  0  0  0
 46 49  1  0  0  0  0
 46 69  1  0  0  0  0
 47 52  1  0  0  0  0
 47 68  1  0  0  0  0
 48 74  1  0  0  0  0
 49 74  1  0  0  0  0
 50 72  1  0  0  0  0
 51 67  1  0  0  0  0
 52 66  1  0  0  0  0
 53 61  1  0  0  0  0
 54 62  1  0  0  0  0
 55 62  1  0  0  0  0
 56 62  1  0  0  0  0
 57 75  1  0  0  0  0
 58 74  1  0  0  0  0
 59 82  1  0  0  0  0
 60 62  1  0  0  0  0
 60 73  1  0  0  0  0
 61 75  1  0  0  0  0
 65 66  1  0  0  0  0
M  CHG  2  74   1  75   1
M  ISO  4  36 100  59 101  69 100  82 101
M  END
> <Batch ID>
0187

> <Smiles>
CNC(C)C(=O)NC(C(=O)N1Cc2cc([101O:1][101CH2:1]c3cnc(CN4CC[100N:0]([100C:0](=O)N5CCCC(n6nc(-c7ccc(Oc8ccc(F)cc8F)cc7)c(C(N)=O)c6N)C5)CC4)cn3)ccc2CC1C(=O)NC1CCCc2ccccc21)C(C)(C)C

> <Shape>
0.300

> <Color>
0.086

> <Negative vol penalty>
0.000

$$$$

  -OEChem-04052323173D

 81 90  0     1  0  0  0  0  0999 V2000
  -28.3321  -30.9122   27.6040 C   0  0  0  0  0  0  0  0  0  0  0  0
  -28.3111  -29.9754   26.5757 C   0  0  0  0  0  0  0  0  0  0  0  0
  -22.3449  -15.3747   23.5882 C   0  0  0  0  0  0  0  0  0  0  0  0
  -21.5348  -15.8260   21.3572 C   0  0  0  0  0  0  0  0  0  0  0  0
  -27.1514  -31.5415   27.9963 C   0  0  0  0  0  0  0  0  0  0  0  0
  -27.1091  -29.6666   25.9398 C   0  0  0  0  0  0  0  0  0  0  0  0
  -27.5715  -29.4707   20.9007 C   0  0  0  0  0  0  0  0  0  0  0  0
  -21.1365  -15.8266   24.1184 C   0  0  0  0  0  0  0  0  0  0  0  0
  -20.3264  -16.2779   21.8874 C   0  0  0  0  0  0  0  0  0  0  0  0
  -28.1453  -28.3218   20.3582 C   0  0  0  0  0  0  0  0  0  0  0  0
  -17.9982  -14.6379   24.5322 C   0  0  0  0  0  0  0  0  0  0  0  0
  -17.4051  -13.8737   25.5370 C   0  0  0  0  0  0  0  0  0  0  0  0
  -25.9476  -27.4861   19.8187 C   0  0  0  0  0  0  0  0  0  0  0  0
  -17.5349  -15.7565   27.0455 C   0  0  0  0  0  0  0  0  0  0  0  0
  -29.6453  -23.5261   19.2019 C   0  0  0  0  0  0  0  0  0  0  0  0
  -22.5441  -15.3744   22.2076 C   0  0  0  0  0  0  0  0  0  0  0  0
  -24.1138  -13.5924   21.2761 C   0  0  0  0  0  0  0  0  0  0  0  0
  -25.9360  -31.2474   27.3585 C   0  0  0  0  0  0  0  0  0  0  0  0
  -26.1785  -29.6313   20.9162 C   0  0  0  0  0  0  0  0  0  0  0  0
  -25.9109  -30.2916   26.3249 C   0  0  0  0  0  0  0  0  0  0  0  0
  -25.3587  -28.6392   20.3597 C   0  0  0  0  0  0  0  0  0  0  0  0
  -20.1272  -16.2782   23.2680 C   0  0  0  0  0  0  0  0  0  0  0  0
  -27.3333  -27.3279   19.8197 C   0  0  0  0  0  0  0  0  0  0  0  0
  -18.3598  -15.9614   24.7840 C   0  0  0  0  0  0  0  0  0  0  0  0
  -17.1734  -14.4330   26.7937 C   0  0  0  0  0  0  0  0  0  0  0  0
  -18.1281  -16.5207   26.0406 C   0  0  0  0  0  0  0  0  0  0  0  0
  -23.7923  -14.9083   21.6593 C   0  0  0  0  0  0  0  0  0  0  0  0
  -30.1553  -22.7154   18.2174 C   0  0  0  0  0  0  0  0  0  0  0  0
  -29.7334  -24.8258   18.6683 C   0  0  0  0  0  0  0  0  0  0  0  0
  -25.4075  -13.6734   20.8218 C   0  0  0  0  0  0  0  0  0  0  0  0
  -23.3145  -12.4031   21.3262 C   0  0  0  0  0  0  0  0  0  0  0  0
  -23.9821  -29.9471   23.1921 C   0  0  0  0  0  0  0  0  0  0  0  0
  -22.0037  -30.4489   20.6710 C   0  0  0  0  0  0  0  0  0  0  0  0
  -21.3687  -29.9874   17.3497 C   0  0  0  0  0  0  0  0  0  0  0  0
  -28.4003  -18.2859   18.5513 C   0  0  0  0  0  0  0  0  0  0  0  0
  -24.6776  -31.9186   27.8491 C   0  0  0  0  0  0  0  0  0  0  0  0
  -25.5763  -30.8886   21.4810 C   0  0  0  0  0  0  0  0  0  0  0  0
  -23.8587  -28.7725   20.3336 C   0  0  0  0  0  0  0  0  0  0  0  0
  -23.5093  -31.8106   26.8726 C   0  0  0  0  0  0  0  0  0  0  0  0
  -29.4353  -16.1507   21.3593 C   0  0  0  0  0  0  0  0  0  0  0  0
  -23.3738  -30.3810   26.3582 C   0  0  0  0  0  0  0  0  0  0  0  0
  -28.1024  -15.5285   21.7602 C   0  0  0  0  0  0  0  0  0  0  0  0
  -29.2782  -17.5758   20.8282 C   0  0  0  0  0  0  0  0  0  0  0  0
  -29.6754  -20.3632   19.4505 C   0  0  0  0  0  0  0  0  0  0  0  0
  -29.4266  -20.2699   17.3425 C   0  0  0  0  0  0  0  0  0  0  0  0
  -26.9476  -17.0613   20.1306 C   0  0  0  0  0  0  0  0  0  0  0  0
  -24.6309  -29.9481   25.5942 C   0  0  1  0  0  0  0  0  0  0  0  0
  -30.3042  -21.1373   18.2683 C   0  0  0  0  0  0  0  0  0  0  0  0
  -24.1221  -30.7150   21.9083 C   0  0  1  0  0  0  0  0  0  0  0  0
  -27.1036  -15.6075   20.5966 C   0  0  2  0  0  0  0  0  0  0  0  0
  -19.6541  -30.4802   15.5849 C   0  0  0  0  0  0  0  0  0  0  0  0
  -20.2175  -28.2449   21.7943 C   0  0  0  0  0  0  0  0  0  0  0  0
  -19.0799  -28.1278   19.5671 C   0  0  0  0  0  0  0  0  0  0  0  0
  -18.9875  -30.2320   20.9037 C   0  0  0  0  0  0  0  0  0  0  0  0
  -31.0883  -23.1599   15.9313 C   0  0  0  0  0  0  0  0  0  0  0  0
  -23.2964  -31.5672   15.7537 C   0  0  0  0  0  0  0  0  0  0  0  0
  -29.3144  -26.1111   19.3192 C   0  0  0  0  0  0  0  0  0  1  0  0
  -21.1557  -29.5681   19.7856 C   0  0  1  0  0  0  0  0  0  0  0  0
  -20.9296  -30.9536   16.2644 C   0  0  2  0  0  0  0  0  0  0  0  0
  -19.8883  -29.0395   20.5148 C   0  0  0  0  0  0  0  0  0  0  0  0
  -24.8005  -15.7627   21.4655 N   0  0  0  0  0  0  0  0  0  0  0  0
  -30.2582  -24.8445   17.4402 N   0  0  0  0  0  0  0  0  0  0  0  0
  -30.5046  -23.5465   17.1940 N   0  0  0  0  0  0  0  0  0  0  0  0
  -25.7683  -14.9819   20.9557 N   0  0  0  0  0  0  0  0  0  0  0  0
  -23.3173  -30.0173   20.9035 N   0  0  0  0  0  0  0  0  0  0  0  0
  -28.2389  -17.6724   19.7981 N   0  0  0  0  0  0  0  0  0  0  0  0
  -29.2611  -19.3625   18.4745 N   0  0  0  0  0  0  0  0  0  0  0  0
  -26.2603  -12.7523   20.3251 N   0  0  0  0  0  0  0  0  0  0  0  0
  -22.0066  -12.4975   21.8210 N   0  0  0  0  0  0  0  0  0  0  0  0
  -24.6370  -30.5209   24.2652 N   0  0  0  0  0  0  0  0  0  0  0  0
  -20.8730  -30.3473   18.5850 N   0  0  0  0  0  0  0  0  0  0  0  0
  -21.9925  -31.0866   15.2283 N   0  3  0  0  0  0  0  0  0  0  0  0
  -23.7529  -11.2867   20.9588 O   0  0  0  0  0  0  0  0  0  0  0  0
  -23.3271  -28.9115   23.2084 O   0  0  0  0  0  0  0  0  0  0  0  0
  -21.5207  -31.4856   21.1333 O   0  0  0  0  0  0  0  0  0  0  0  0
  -22.0773  -29.0089   17.1237 O   0  0  0  0  0  0  0  0  0  0  0  0
  -27.7769  -17.9124   17.5496 O   0  0  0  0  0  0  0  0  0  0  0  0
  -18.9478  -16.7190   23.7851 O   0  0  0  0  0  0  0  0  0  0  0  0
  -27.8908  -26.2052   19.2901 O   0  0  0  0  0  0  0  0  0  1  0  0
  -16.6024  -13.6995   27.7581 F   0  0  0  0  0  0  0  0  0  0  0  0
  -18.4722  -17.7919   26.2881 F   0  0  0  0  0  0  0  0  0  0  0  0
  1  2  1  0  0  0  0
  1  5  2  0  0  0  0
  2  6  2  0  0  0  0
  3  8  2  0  0  0  0
  3 16  1  0  0  0  0
  4  9  1  0  0  0  0
  4 16  2  0  0  0  0
  5 18  1  0  0  0  0
  6 20  1  0  0  0  0
  7 10  2  0  0  0  0
  7 19  1  0  0  0  0
  8 22  1  0  0  0  0
  9 22  2  0  0  0  0
 10 23  1  0  0  0  0
 11 12  2  0  0  0  0
 11 24  1  0  0  0  0
 12 25  1  0  0  0  0
 13 21  1  0  0  0  0
 13 23  2  0  0  0  0
 14 25  2  0  0  0  0
 14 26  1  0  0  0  0
 15 28  2  0  0  0  0
 15 29  1  0  0  0  0
 16 27  1  0  0  0  0
 17 27  1  0  0  0  0
 17 30  2  0  0  0  0
 17 31  1  0  0  0  0
 18 20  2  0  0  0  0
 18 36  1  0  0  0  0
 19 21  2  0  0  0  0
 19 37  1  0  0  0  0
 20 47  1  0  0  0  0
 21 38  1  0  0  0  0
 22 78  1  0  0  0  0
 23 79  1  0  0  0  0
 24 26  2  0  0  0  0
 24 78  1  0  0  0  0
 25 80  1  0  0  0  0
 26 81  1  0  0  0  0
 27 61  2  0  0  0  0
 28 48  1  0  0  0  0
 28 63  1  0  0  0  0
 29 57  1  0  0  0  0
 29 62  2  0  0  0  0
 30 64  1  0  0  0  0
 30 68  1  0  0  0  0
 31 69  1  0  0  0  0
 31 73  2  0  0  0  0
 32 49  1  0  0  0  0
 32 70  1  0  0  0  0
 32 74  2  0  0  0  0
 33 58  1  0  0  0  0
 33 65  1  0  0  0  0
 33 75  2  0  0  0  0
 34 59  1  0  0  0  0
 34 71  1  0  0  0  0
 34 76  2  0  0  0  0
 35 66  1  0  0  0  0
 35 67  1  0  0  0  0
 35 77  2  0  0  0  0
 36 39  1  0  0  0  0
 37 49  1  0  0  0  0
 38 65  1  0  0  0  0
 39 41  1  0  0  0  0
 40 42  1  0  0  0  0
 40 43  1  0  0  0  0
 41 47  1  0  0  0  0
 42 50  1  0  0  0  0
 43 66  1  0  0  0  0
 44 48  1  0  0  0  0
 44 67  1  0  0  0  0
 45 48  1  0  0  0  0
 45 67  1  0  0  0  0
 46 50  1  0  0  0  0
 46 66  1  0  0  0  0
 47 70  1  0  0  0  0
 49 65  1  0  0  0  0
 50 64  1  0  0  0  0
 51 59  1  0  0  0  0
 52 60  1  0  0  0  0
 53 60  1  0  0  0  0
 54 60  1  0  0  0  0
 55 63  1  0  0  0  0
 56 72  1  0  0  0  0
 57 79  1  0  0  0  0
 58 60  1  0  0  0  0
 58 71  1  0  0  0  0
 59 72  1  0  0  0  0
 61 64  1  0  0  0  0
 62 63  1  0  0  0  0
M  CHG  1  72   1
M  ISO  4  35 100  57 101  67 100  79 101
M  END
> <Batch ID>
0187

> <Smiles>
CNC(C)C(=O)NC(C(=O)N1Cc2cc([101O:1][101CH2:1]c3cc(C4C[100N:0]([100C:0](=O)N5CCCC(n6nc(-c7ccc(Oc8ccc(F)cc8F)cc7)c(C(N)=O)c6N)C5)C4)n(C)n3)ccc2CC1C(=O)NC1CCCc2ccccc21)C(C)(C)C

> <Shape>
0.248

> <Color>
0.081

> <Negative vol penalty>
0.000

$$$$

  -OEChem-04052323173D

 79 87  0     1  0  0  0  0  0999 V2000
  -27.6524  -23.7028   10.1155 C   0  0  0  0  0  0  0  0  0  0  0  0
  -27.4800  -22.8175   11.1747 C   0  0  0  0  0  0  0  0  0  0  0  0
  -23.0020   -9.8936   19.9785 C   0  0  0  0  0  0  0  0  0  0  0  0
  -23.7257   -9.9444   22.2830 C   0  0  0  0  0  0  0  0  0  0  0  0
  -28.2074  -24.9613   10.3436 C   0  0  0  0  0  0  0  0  0  0  0  0
  -27.8637  -23.1898   12.4625 C   0  0  0  0  0  0  0  0  0  0  0  0
  -25.1299  -21.6264   17.7150 C   0  0  0  0  0  0  0  0  0  0  0  0
  -22.2361   -8.7585   20.2440 C   0  0  0  0  0  0  0  0  0  0  0  0
  -22.9597   -8.8093   22.5486 C   0  0  0  0  0  0  0  0  0  0  0  0
  -25.4091  -20.6407   18.6606 C   0  0  0  0  0  0  0  0  0  0  0  0
  -23.2068   -5.4707   22.0758 C   0  0  0  0  0  0  0  0  0  0  0  0
  -23.7946   -4.4537   22.8280 C   0  0  0  0  0  0  0  0  0  0  0  0
  -26.6163  -22.2584   19.9816 C   0  0  0  0  0  0  0  0  0  0  0  0
  -22.0695   -4.6948   24.5022 C   0  0  0  0  0  0  0  0  0  0  0  0
  -23.7468  -10.4866   20.9980 C   0  0  0  0  0  0  0  0  0  0  0  0
  -24.1304  -13.0025   20.8230 C   0  0  0  0  0  0  0  0  0  0  0  0
  -28.5892  -25.3529   11.6365 C   0  0  0  0  0  0  0  0  0  0  0  0
  -25.6019  -22.9352   17.8905 C   0  0  0  0  0  0  0  0  0  0  0  0
  -28.4256  -24.4542   12.7080 C   0  0  0  0  0  0  0  0  0  0  0  0
  -26.3395  -23.2595   19.0380 C   0  0  0  0  0  0  0  0  0  0  0  0
  -22.2150   -8.2163   21.5290 C   0  0  0  0  0  0  0  0  0  0  0  0
  -26.1549  -20.9559   19.7926 C   0  0  0  0  0  0  0  0  0  0  0  0
  -22.0504   -6.0998   22.5368 C   0  0  0  0  0  0  0  0  0  0  0  0
  -23.2260   -4.0657   24.0411 C   0  0  0  0  0  0  0  0  0  0  0  0
  -21.4817   -5.7119   23.7500 C   0  0  0  0  0  0  0  0  0  0  0  0
  -24.5386  -11.6588   20.7242 C   0  0  0  0  0  0  0  0  0  0  0  0
  -25.2399  -13.7260   20.4595 C   0  0  0  0  0  0  0  0  0  0  0  0
  -22.8618  -13.5479   21.2089 C   0  0  0  0  0  0  0  0  0  0  0  0
  -27.5661  -24.8462   16.2801 C   0  0  0  0  0  0  0  0  0  0  0  0
  -26.6119  -27.0331   18.4777 C   0  0  0  0  0  0  0  0  0  0  0  0
  -28.1999  -18.7672   21.8141 C   0  0  0  0  0  0  0  0  0  0  0  0
  -25.3399  -27.6552   21.5829 C   0  0  0  0  0  0  0  0  0  0  0  0
  -30.7286  -14.6745   20.6940 C   0  0  0  0  0  0  0  0  0  0  0  0
  -29.2284  -26.7057   11.8263 C   0  0  0  0  0  0  0  0  0  0  0  0
  -25.2694  -23.9933   16.8745 C   0  0  0  0  0  0  0  0  0  0  0  0
  -26.8520  -24.6543   19.2834 C   0  0  0  0  0  0  0  0  0  0  0  0
  -29.2629  -27.1643   13.2819 C   0  0  0  0  0  0  0  0  0  0  0  0
  -29.6001  -12.2402   18.3675 C   0  0  0  0  0  0  0  0  0  0  0  0
  -29.7518  -26.0367   14.1854 C   0  0  0  0  0  0  0  0  0  0  0  0
  -28.1506  -11.9803   18.7812 C   0  0  0  0  0  0  0  0  0  0  0  0
  -31.5441  -17.9988   23.5169 C   0  0  0  0  0  0  0  0  0  0  0  0
  -32.0065  -16.6982   22.8277 C   0  0  0  0  0  0  0  0  0  0  0  0
  -30.4990  -12.4765   19.5793 C   0  0  0  0  0  0  0  0  0  0  0  0
  -28.5869  -13.2701   20.9135 C   0  0  0  0  0  0  0  0  0  0  0  0
  -28.8066  -24.8308   14.1233 C   0  0  1  0  0  0  0  0  0  0  0  0
  -26.2372  -25.1722   16.9009 C   0  0  1  0  0  0  0  0  0  0  0  0
  -27.6297  -13.0821   19.7239 C   0  0  2  0  0  0  0  0  0  0  0  0
  -30.1279  -17.6948   22.9764 C   0  0  2  0  0  0  0  0  0  0  0  0
  -30.8187  -16.8783   21.8538 C   0  0  2  0  0  0  0  0  0  0  0  0
  -24.7074  -29.5428   23.1106 C   0  0  0  0  0  0  0  0  0  0  0  0
  -29.5616  -27.5329   19.0772 C   0  0  0  0  0  0  0  0  0  0  0  0
  -28.8664  -28.6694   21.1970 C   0  0  0  0  0  0  0  0  0  0  0  0
  -28.1498  -29.5955   18.9944 C   0  0  0  0  0  0  0  0  0  0  0  0
  -22.5126  -26.7854   21.6770 C   0  0  0  0  0  0  0  0  0  0  0  0
  -27.6473  -20.1275   21.4486 C   0  0  0  0  0  0  0  0  0  1  0  0
  -27.0968  -27.4591   19.8424 C   0  0  1  0  0  0  0  0  0  0  0  0
  -24.2209  -28.5693   22.0484 C   0  0  2  0  0  0  0  0  0  0  0  0
  -28.4107  -28.2874   19.7725 C   0  0  0  0  0  0  0  0  0  0  0  0
  -25.8082  -11.5334   20.3288 N   0  0  0  0  0  0  0  0  0  0  0  0
  -26.2074  -12.8075   20.1758 N   0  0  0  0  0  0  0  0  0  0  0  0
  -26.5061  -25.6524   18.2579 N   0  0  0  0  0  0  0  0  0  0  0  0
  -29.9497  -13.5374   20.4275 N   0  0  0  0  0  0  0  0  0  0  0  0
  -25.4724  -15.0519   20.3580 N   0  0  0  0  0  0  0  0  0  0  0  0
  -21.8304  -12.6629   21.5515 N   0  0  0  0  0  0  0  0  0  0  0  0
  -27.6224  -25.0753   14.9186 N   0  0  0  0  0  0  0  0  0  0  0  0
  -29.3959  -18.8638   22.5118 N   0  0  0  0  0  0  0  0  0  0  0  0
  -25.9820  -28.1590   20.4715 N   0  0  0  0  0  0  0  0  0  0  0  0
  -30.1372  -15.6425   21.4990 N   0  0  0  0  0  0  0  0  0  0  0  0
  -23.1025  -27.7685   22.6218 N   0  3  0  0  0  0  0  0  0  0  0  0
  -22.6442  -14.7830   21.2329 O   0  0  0  0  0  0  0  0  0  0  0  0
  -28.4737  -24.4199   16.9846 O   0  0  0  0  0  0  0  0  0  0  0  0
  -26.3302  -27.8938   17.6401 O   0  0  0  0  0  0  0  0  0  0  0  0
  -27.6390  -17.7156   21.5178 O   0  0  0  0  0  0  0  0  0  0  0  0
  -25.6189  -26.6015   22.1506 O   0  0  0  0  0  0  0  0  0  0  0  0
  -31.8691  -14.8271   20.2430 O   0  0  0  0  0  0  0  0  0  0  0  0
  -21.4675   -7.1088   21.7885 O   0  0  0  0  0  0  0  0  0  0  0  0
  -26.4294  -19.9955   20.7168 O   0  0  0  0  0  0  0  0  0  1  0  0
  -23.7897   -3.0880   24.7626 F   0  0  0  0  0  0  0  0  0  0  0  0
  -20.3701   -6.3118   24.1975 F   0  0  0  0  0  0  0  0  0  0  0  0
  1  2  1  0  0  0  0
  1  5  2  0  0  0  0
  2  6  2  0  0  0  0
  3  8  2  0  0  0  0
  3 15  1  0  0  0  0
  4  9  1  0  0  0  0
  4 15  2  0  0  0  0
  5 17  1  0  0  0  0
  6 19  1  0  0  0  0
  7 10  2  0  0  0  0
  7 18  1  0  0  0  0
  8 21  1  0  0  0  0
  9 21  2  0  0  0  0
 10 22  1  0  0  0  0
 11 12  2  0  0  0  0
 11 23  1  0  0  0  0
 12 24  1  0  0  0  0
 13 20  1  0  0  0  0
 13 22  2  0  0  0  0
 14 24  2  0  0  0  0
 14 25  1  0  0  0  0
 15 26  1  0  0  0  0
 16 26  1  0  0  0  0
 16 27  2  0  0  0  0
 16 28  1  0  0  0  0
 17 19  2  0  0  0  0
 17 34  1  0  0  0  0
 18 20  2  0  0  0  0
 18 35  1  0  0  0  0
 19 45  1  0  0  0  0
 20 36  1  0  0  0  0
 21 76  1  0  0  0  0
 22 77  1  0  0  0  0
 23 25  2  0  0  0  0
 23 76  1  0  0  0  0
 24 78  1  0  0  0  0
 25 79  1  0  0  0  0
 26 59  2  0  0  0  0
 27 60  1  0  0  0  0
 27 63  1  0  0  0  0
 28 64  1  0  0  0  0
 28 70  2  0  0  0  0
 29 46  1  0  0  0  0
 29 65  1  0  0  0  0
 29 71  2  0  0  0  0
 30 56  1  0  0  0  0
 30 61  1  0  0  0  0
 30 72  2  0  0  0  0
 31 55  1  0  0  0  0
 31 66  1  0  0  0  0
 31 73  2  0  0  0  0
 32 57  1  0  0  0  0
 32 67  1  0  0  0  0
 32 74  2  0  0  0  0
 33 62  1  0  0  0  0
 33 68  1  0  0  0  0
 33 75  2  0  0  0  0
 34 37  1  0  0  0  0
 35 46  1  0  0  0  0
 36 61  1  0  0  0  0
 37 39  1  0  0  0  0
 38 40  1  0  0  0  0
 38 43  1  0  0  0  0
 39 45  1  0  0  0  0
 40 47  1  0  0  0  0
 41 42  1  0  0  0  0
 41 48  1  0  0  0  0
 42 49  1  0  0  0  0
 43 62  1  0  0  0  0
 44 47  1  0  0  0  0
 44 62  1  0  0  0  0
 45 65  1  0  0  0  0
 46 61  1  0  0  0  0
 47 60  1  0  0  0  0
 48 49  1  0  0  0  0
 48 66  1  0  0  0  0
 49 68  1  0  0  0  0
 50 57  1  0  0  0  0
 51 58  1  0  0  0  0
 52 58  1  0  0  0  0
 53 58  1  0  0  0  0
 54 69  1  0  0  0  0
 55 77  1  0  0  0  0
 56 58  1  0  0  0  0
 56 67  1  0  0  0  0
 57 69  1  0  0  0  0
 59 60  1  0  0  0  0
M  CHG  1  69   1
M  ISO  4  33 100  55 101  68 100  77 101
M  END
> <Batch ID>
0187

> <Smiles>
CNC(C)C(=O)NC(C(=O)N1Cc2cc([101O:1][101CH2:1]C(=O)NC3CCC3[100NH:0][100C:0](=O)N3CCCC(n4nc(-c5ccc(Oc6ccc(F)cc6F)cc5)c(C(N)=O)c4N)C3)ccc2CC1C(=O)NC1CCCc2ccccc21)C(C)(C)C

> <Shape>
0.252

> <Color>
0.198

> <Negative vol penalty>
0.000

$$$$

  -OEChem-04052323173D

 85 94  0     1  0  0  0  0  0999 V2000
  -19.8160  -29.2554   19.9729 C   0  0  0  0  0  0  0  0  0  0  0  0
  -21.1409  -28.8801   20.1706 C   0  0  0  0  0  0  0  0  0  0  0  0
  -26.2225  -12.9456   21.6101 C   0  0  0  0  0  0  0  0  0  0  0  0
  -25.8992  -13.7320   19.3487 C   0  0  0  0  0  0  0  0  0  0  0  0
  -18.8120  -28.7126   20.7737 C   0  0  0  0  0  0  0  0  0  0  0  0
  -21.4628  -27.9626   21.1702 C   0  0  0  0  0  0  0  0  0  0  0  0
  -24.7432  -24.4420   19.5925 C   0  0  0  0  0  0  0  0  0  0  0  0
  -24.9990  -12.2784   21.5530 C   0  0  0  0  0  0  0  0  0  0  0  0
  -24.6756  -13.0647   19.2916 C   0  0  0  0  0  0  0  0  0  0  0  0
  -26.0847  -24.8127   19.5109 C   0  0  0  0  0  0  0  0  0  0  0  0
  -22.1289  -10.0707   21.8755 C   0  0  0  0  0  0  0  0  0  0  0  0
  -22.0792   -8.7646   22.3625 C   0  0  0  0  0  0  0  0  0  0  0  0
  -26.5066  -23.7289   21.6243 C   0  0  0  0  0  0  0  0  0  0  0  0
  -23.7375   -8.0957   20.7378 C   0  0  0  0  0  0  0  0  0  0  0  0
  -27.5026  -21.7251   17.5194 C   0  0  0  0  0  0  0  0  0  0  0  0
  -26.6726  -13.6725   20.5079 C   0  0  0  0  0  0  0  0  0  0  0  0
  -29.1995  -13.8545   20.2089 C   0  0  0  0  0  0  0  0  0  0  0  0
  -19.1205  -27.7807   21.7772 C   0  0  0  0  0  0  0  0  0  0  0  0
  -24.2702  -23.7201   20.6978 C   0  0  0  0  0  0  0  0  0  0  0  0
  -20.4621  -27.4079   21.9861 C   0  0  0  0  0  0  0  0  0  0  0  0
  -25.1592  -23.3480   21.7163 C   0  0  0  0  0  0  0  0  0  0  0  0
  -24.2255  -12.3378   20.3938 C   0  0  0  0  0  0  0  0  0  0  0  0
  -26.9661  -24.4587   20.5282 C   0  0  0  0  0  0  0  0  0  0  0  0
  -22.9829  -10.3893   20.8196 C   0  0  0  0  0  0  0  0  0  0  0  0
  -22.8835   -7.7771   21.7937 C   0  0  0  0  0  0  0  0  0  0  0  0
  -23.7872   -9.4018   20.2508 C   0  0  0  0  0  0  0  0  0  0  0  0
  -27.9362  -14.3625   20.5664 C   0  0  0  0  0  0  0  0  0  0  0  0
  -29.2005  -23.7852   17.5382 C   0  0  0  0  0  0  0  0  0  0  0  0
  -28.2551  -23.6523   16.5452 C   0  0  0  0  0  0  0  0  0  0  0  0
  -28.4484  -21.8575   18.5121 C   0  0  0  0  0  0  0  0  0  0  0  0
  -30.0666  -14.8931   20.4452 C   0  0  0  0  0  0  0  0  0  0  0  0
  -29.5572  -12.5596   19.7080 C   0  0  0  0  0  0  0  0  0  0  0  0
  -22.1285  -24.2642   22.9827 C   0  0  0  0  0  0  0  0  0  0  0  0
  -22.7711  -21.1858   23.7780 C   0  0  0  0  0  0  0  0  0  0  0  0
  -24.9565  -18.5661   23.6887 C   0  0  0  0  0  0  0  0  0  0  0  0
  -29.3797  -20.8265   20.6135 C   0  0  0  0  0  0  0  0  0  0  0  0
  -18.0068  -27.2572   22.6490 C   0  0  0  0  0  0  0  0  0  0  0  0
  -22.8259  -23.3047   20.7580 C   0  0  0  0  0  0  0  0  0  0  0  0
  -24.7058  -22.5557   22.9143 C   0  0  0  0  0  0  0  0  0  0  0  0
  -18.3877  -26.0078   23.4391 C   0  0  0  0  0  0  0  0  0  0  0  0
  -30.6186  -18.7513   23.2281 C   0  0  0  0  0  0  0  0  0  0  0  0
  -19.7526  -26.1871   24.0961 C   0  0  0  0  0  0  0  0  0  0  0  0
  -30.1915  -17.3434   22.8066 C   0  0  0  0  0  0  0  0  0  0  0  0
  -31.6803  -24.6717   17.2213 C   0  0  0  0  0  0  0  0  0  0  0  0
  -29.5638  -19.7958   22.8671 C   0  0  0  0  0  0  0  0  0  0  0  0
  -28.7107  -18.3800   21.0404 C   0  0  0  0  0  0  0  0  0  0  0  0
  -32.0511  -25.4357   18.5018 C   0  0  0  0  0  0  0  0  0  0  0  0
  -20.8481  -26.3968   23.0438 C   0  0  1  0  0  0  0  0  0  0  0  0
  -30.2131  -24.9285   17.6324 C   0  0  2  0  0  0  0  0  0  0  0  0
  -22.3462  -23.0148   22.1769 C   0  0  1  0  0  0  0  0  0  0  0  0
  -29.7697  -17.3023   21.3247 C   0  0  2  0  0  0  0  0  0  0  0  0
  -28.1478  -24.6540   15.4478 C   0  0  0  0  0  0  0  0  0  0  0  0
  -25.7985  -16.2242   24.0110 C   0  0  0  0  0  0  0  0  0  0  0  0
  -30.6899  -26.3741   21.0939 C   0  0  0  0  0  0  0  0  0  0  0  0
  -23.3414  -22.1679   26.6100 C   0  0  0  0  0  0  0  0  0  0  0  0
  -24.4858  -19.9873   27.0610 C   0  0  0  0  0  0  0  0  0  0  0  0
  -22.0584  -20.0247   26.4876 C   0  0  0  0  0  0  0  0  0  0  0  0
  -23.9032  -17.7020   21.0614 C   0  0  0  0  0  0  0  0  0  0  0  0
  -28.5767  -26.0271   19.7525 C   0  0  0  0  0  0  0  0  0  1  0  0
  -23.7653  -20.5010   24.6845 C   0  0  1  0  0  0  0  0  0  0  0  0
  -24.7623  -17.1041   23.3293 C   0  0  2  0  0  0  0  0  0  0  0  0
  -30.0835  -26.2542   19.7052 C   0  0  2  0  0  0  0  0  0  0  0  0
  -23.4212  -20.6868   26.1893 C   0  0  0  0  0  0  0  0  0  0  0  0
  -27.3890  -22.6201   16.5181 N   0  0  0  0  0  0  0  0  0  0  0  0
  -27.9914  -15.6256   20.9972 N   0  0  0  0  0  0  0  0  0  0  0  0
  -29.3144  -22.8900   18.5393 N   0  0  0  0  0  0  0  0  0  0  0  0
  -29.2999  -15.9200   20.9120 N   0  0  0  0  0  0  0  0  0  0  0  0
  -23.2827  -22.1786   22.9304 N   0  0  0  0  0  0  0  0  0  0  0  0
  -29.2168  -19.7002   21.4475 N   0  0  0  0  0  0  0  0  0  0  0  0
  -31.4025  -15.0191   20.2972 N   0  0  0  0  0  0  0  0  0  0  0  0
  -28.5423  -11.6107   19.5239 N   0  0  0  0  0  0  0  0  0  0  0  0
  -28.5034  -20.8732   19.5298 N   0  0  0  0  0  0  0  0  0  0  0  0
  -21.2088  -25.1360   22.4316 N   0  0  0  0  0  0  0  0  0  0  0  0
  -23.8209  -19.1089   24.2517 N   0  0  0  0  0  0  0  0  0  0  0  0
  -30.7164  -25.0901   19.0202 N   0  3  2  0  0  0  0  0  0  0  0  0
  -24.8794  -16.9129   21.8559 N   0  3  0  0  0  0  0  0  0  0  0  0
  -30.7439  -12.2477   19.4473 O   0  0  0  0  0  0  0  0  0  0  0  0
  -22.7479  -24.4247   24.0278 O   0  0  0  0  0  0  0  0  0  0  0  0
  -21.5856  -20.8472   23.8154 O   0  0  0  0  0  0  0  0  0  0  0  0
  -26.0115  -19.1656   23.4933 O   0  0  0  0  0  0  0  0  0  0  0  0
  -30.2518  -21.6723   20.8283 O   0  0  0  0  0  0  0  0  0  0  0  0
  -23.0316  -11.6866   20.3377 O   0  0  0  0  0  0  0  0  0  0  0  0
  -28.2758  -24.8198   20.4513 O   0  0  0  0  0  0  0  0  0  1  0  0
  -22.8368   -6.5232   22.2625 F   0  0  0  0  0  0  0  0  0  0  0  0
  -24.6105   -9.7021   19.2369 F   0  0  0  0  0  0  0  0  0  0  0  0
  1  2  1  0  0  0  0
  1  5  2  0  0  0  0
  2  6  2  0  0  0  0
  3  8  2  0  0  0  0
  3 16  1  0  0  0  0
  4  9  1  0  0  0  0
  4 16  2  0  0  0  0
  5 18  1  0  0  0  0
  6 20  1  0  0  0  0
  7 10  2  0  0  0  0
  7 19  1  0  0  0  0
  8 22  1  0  0  0  0
  9 22  2  0  0  0  0
 10 23  1  0  0  0  0
 11 12  2  0  0  0  0
 11 24  1  0  0  0  0
 12 25  1  0  0  0  0
 13 21  1  0  0  0  0
 13 23  2  0  0  0  0
 14 25  2  0  0  0  0
 14 26  1  0  0  0  0
 15 30  1  0  0  0  0
 15 64  2  0  0  0  0
 16 27  1  0  0  0  0
 17 27  1  0  0  0  0
 17 31  2  0  0  0  0
 17 32  1  0  0  0  0
 18 20  2  0  0  0  0
 18 37  1  0  0  0  0
 19 21  2  0  0  0  0
 19 38  1  0  0  0  0
 20 48  1  0  0  0  0
 21 39  1  0  0  0  0
 22 82  1  0  0  0  0
 23 83  1  0  0  0  0
 24 26  2  0  0  0  0
 24 82  1  0  0  0  0
 25 84  1  0  0  0  0
 26 85  1  0  0  0  0
 27 65  2  0  0  0  0
 28 29  2  0  0  0  0
 28 49  1  0  0  0  0
 28 66  1  0  0  0  0
 29 52  1  0  0  0  0
 29 64  1  0  0  0  0
 30 66  2  0  0  0  0
 30 72  1  0  0  0  0
 31 67  1  0  0  0  0
 31 70  1  0  0  0  0
 32 71  1  0  0  0  0
 32 77  2  0  0  0  0
 33 50  1  0  0  0  0
 33 73  1  0  0  0  0
 33 78  2  0  0  0  0
 34 60  1  0  0  0  0
 34 68  1  0  0  0  0
 34 79  2  0  0  0  0
 35 61  1  0  0  0  0
 35 74  1  0  0  0  0
 35 80  2  0  0  0  0
 36 69  1  0  0  0  0
 36 72  1  0  0  0  0
 36 81  2  0  0  0  0
 37 40  1  0  0  0  0
 38 50  1  0  0  0  0
 39 68  1  0  0  0  0
 40 42  1  0  0  0  0
 41 43  1  0  0  0  0
 41 45  1  0  0  0  0
 42 48  1  0  0  0  0
 43 51  1  0  0  0  0
 44 47  1  0  0  0  0
 44 49  1  0  0  0  0
 45 69  1  0  0  0  0
 46 51  1  0  0  0  0
 46 69  1  0  0  0  0
 47 75  1  0  0  0  0
 48 73  1  0  0  0  0
 49 75  1  0  0  0  0
 50 68  1  0  0  0  0
 51 67  1  0  0  0  0
 53 61  1  0  0  0  0
 54 62  1  0  0  0  0
 55 63  1  0  0  0  0
 56 63  1  0  0  0  0
 57 63  1  0  0  0  0
 58 76  1  0  0  0  0
 59 62  1  0  0  0  0
 59 83  1  0  0  0  0
 60 63  1  0  0  0  0
 60 74  1  0  0  0  0
 61 76  1  0  0  0  0
 62 75  1  0  0  0  0
 65 67  1  0  0  0  0
M  CHG  2  75   1  76   1
M  ISO  4  36 100  59 101  72 100  83 101
M  END
> <Batch ID>
0187

> <Smiles>
CNC(C)C(=O)NC(C(=O)N1Cc2cc([101O:1][101CH2:1]C(C)N3CCC3c3nc([100NH:0][100C:0](=O)N4CCCC(n5nc(-c6ccc(Oc7ccc(F)cc7F)cc6)c(C(N)=O)c5N)C4)cnc3C)ccc2CC1C(=O)NC1CCCc2ccccc21)C(C)(C)C

> <Shape>
0.244

> <Color>
0.070

> <Negative vol penalty>
0.000

$$$$

  -OEChem-04052323173D

 84 93  0     1  0  0  0  0  0999 V2000
  -26.4390  -37.7267   22.9516 C   0  0  0  0  0  0  0  0  0  0  0  0
  -27.1416  -36.7846   22.2071 C   0  0  0  0  0  0  0  0  0  0  0  0
  -24.7248   -9.9727   20.7653 C   0  0  0  0  0  0  0  0  0  0  0  0
  -22.6330  -11.1112   21.1722 C   0  0  0  0  0  0  0  0  0  0  0  0
  -25.6022  -37.3123   23.9869 C   0  0  0  0  0  0  0  0  0  0  0  0
  -27.0085  -35.4274   22.4982 C   0  0  0  0  0  0  0  0  0  0  0  0
  -27.0100  -29.0089   19.3173 C   0  0  0  0  0  0  0  0  0  0  0  0
  -24.1488   -8.7691   21.1717 C   0  0  0  0  0  0  0  0  0  0  0  0
  -22.0570   -9.9076   21.5787 C   0  0  0  0  0  0  0  0  0  0  0  0
  -27.6193  -27.7586   19.4148 C   0  0  0  0  0  0  0  0  0  0  0  0
  -22.0985   -6.4211   19.8618 C   0  0  0  0  0  0  0  0  0  0  0  0
  -22.3383   -5.2911   19.0801 C   0  0  0  0  0  0  0  0  0  0  0  0
  -26.0839  -27.1543   21.1745 C   0  0  0  0  0  0  0  0  0  0  0  0
  -23.3651   -4.1985   20.9745 C   0  0  0  0  0  0  0  0  0  0  0  0
  -30.0945  -23.6496   20.8819 C   0  0  0  0  0  0  0  0  0  0  0  0
  -23.9669  -11.1438   20.7655 C   0  0  0  0  0  0  0  0  0  0  0  0
  -24.5954  -12.9165   19.0422 C   0  0  0  0  0  0  0  0  0  0  0  0
  -25.4514  -35.9488   24.2846 C   0  0  0  0  0  0  0  0  0  0  0  0
  -25.9384  -29.3458   20.1566 C   0  0  0  0  0  0  0  0  0  0  0  0
  -26.1699  -34.9944   23.5394 C   0  0  0  0  0  0  0  0  0  0  0  0
  -25.4612  -28.4085   21.0839 C   0  0  0  0  0  0  0  0  0  0  0  0
  -22.8149   -8.7365   21.5784 C   0  0  0  0  0  0  0  0  0  0  0  0
  -27.1582  -26.8322   20.3454 C   0  0  0  0  0  0  0  0  0  0  0  0
  -22.4920   -6.4399   21.1999 C   0  0  0  0  0  0  0  0  0  0  0  0
  -22.9716   -4.1798   19.6364 C   0  0  0  0  0  0  0  0  0  0  0  0
  -23.1253   -5.3285   21.7563 C   0  0  0  0  0  0  0  0  0  0  0  0
  -24.5615  -12.3875   20.3463 C   0  0  0  0  0  0  0  0  0  0  0  0
  -29.3374  -23.9591   19.7736 C   0  0  0  0  0  0  0  0  0  0  0  0
  -30.2374  -21.4785   20.1782 C   0  0  0  0  0  0  0  0  0  0  0  0
  -29.4796  -21.7877   19.0702 C   0  0  0  0  0  0  0  0  0  0  0  0
  -25.2677  -14.1071   19.1720 C   0  0  0  0  0  0  0  0  0  0  0  0
  -24.0665  -12.3797   17.8224 C   0  0  0  0  0  0  0  0  0  0  0  0
  -25.4411  -31.5627   22.3795 C   0  0  0  0  0  0  0  0  0  0  0  0
  -22.4263  -30.3660   22.3435 C   0  0  0  0  0  0  0  0  0  0  0  0
  -20.3621  -27.7334   21.6687 C   0  0  0  0  0  0  0  0  0  0  0  0
  -29.5725  -16.9031   21.0933 C   0  0  0  0  0  0  0  0  0  0  0  0
  -24.5718  -35.5518   25.4437 C   0  0  0  0  0  0  0  0  0  0  0  0
  -25.2747  -30.6887   20.0207 C   0  0  0  0  0  0  0  0  0  0  0  0
  -24.3007  -28.7136   21.9943 C   0  0  0  0  0  0  0  0  0  0  0  0
  -24.1969  -34.0721   25.4450 C   0  0  0  0  0  0  0  0  0  0  0  0
  -26.6242  -16.7117   23.2638 C   0  0  0  0  0  0  0  0  0  0  0  0
  -25.4277  -33.2093   25.1850 C   0  0  0  0  0  0  0  0  0  0  0  0
  -25.8578  -15.5636   22.6156 C   0  0  0  0  0  0  0  0  0  0  0  0
  -32.5943  -17.5629   22.4021 C   0  0  0  0  0  0  0  0  0  0  0  0
  -28.1392  -16.5258   23.1699 C   0  0  0  0  0  0  0  0  0  0  0  0
  -31.2950  -17.0784   23.0528 C   0  0  0  0  0  0  0  0  0  0  0  0
  -27.8512  -15.1330   21.1375 C   0  0  0  0  0  0  0  0  0  0  0  0
  -26.0327  -33.5116   23.8088 C   0  0  1  0  0  0  0  0  0  0  0  0
  -24.5229  -31.1137   21.2782 C   0  0  1  0  0  0  0  0  0  0  0  0
  -26.3317  -15.3489   21.1705 C   0  0  1  0  0  0  0  0  0  0  0  0
  -31.7476  -18.2276   21.3059 C   0  0  2  0  0  0  0  0  0  0  0  0
  -17.9524  -27.0415   21.7769 C   0  0  0  0  0  0  0  0  0  0  0  0
  -22.6691  -30.0015   25.3632 C   0  0  0  0  0  0  0  0  0  0  0  0
  -20.6863  -28.4759   25.2683 C   0  0  0  0  0  0  0  0  0  0  0  0
  -20.4526  -30.8654   24.5915 C   0  0  0  0  0  0  0  0  0  0  0  0
  -20.2303  -27.3154   18.7418 C   0  0  0  0  0  0  0  0  0  0  0  0
  -28.8415  -25.3468   19.5607 C   0  0  0  0  0  0  0  0  0  1  0  0
  -31.4711  -19.7124   21.4369 C   0  0  0  0  0  0  0  0  0  0  0  0
  -21.7035  -29.2669   23.0842 C   0  0  1  0  0  0  0  0  0  0  0  0
  -19.0467  -27.6522   20.9153 C   0  0  2  0  0  0  0  0  0  0  0  0
  -21.4010  -29.6471   24.5611 C   0  0  0  0  0  0  0  0  0  0  0  0
  -30.5581  -22.4038   21.1042 N   0  0  0  0  0  0  0  0  0  0  0  0
  -25.1644  -13.1772   21.2389 N   0  0  0  0  0  0  0  0  0  0  0  0
  -29.0163  -23.0336   18.8478 N   0  0  0  0  0  0  0  0  0  0  0  0
  -25.5836  -14.2146   20.4944 N   0  0  0  0  0  0  0  0  0  0  0  0
  -23.6892  -30.0425   21.8275 N   0  0  0  0  0  0  0  0  0  0  0  0
  -28.5709  -16.2277   21.7991 N   0  0  0  0  0  0  0  0  0  0  0  0
  -30.6289  -17.4254   21.8059 N   0  0  0  0  0  0  0  0  0  0  0  0
  -25.6137  -15.0621   18.2828 N   0  0  0  0  0  0  0  0  0  0  0  0
  -23.4043  -11.1453   17.8675 N   0  0  0  0  0  0  0  0  0  0  0  0
  -30.6807  -20.1659   20.3376 N   0  0  0  0  0  0  0  0  0  0  0  0
  -25.2567  -32.8768   22.7651 N   0  0  0  0  0  0  0  0  0  0  0  0
  -20.5185  -28.9527   22.2933 N   0  0  0  0  0  0  0  0  0  0  0  0
  -19.2018  -26.8170   19.6908 N   0  3  0  0  0  0  0  0  0  0  0  0
  -24.1921  -12.9691   16.7223 O   0  0  0  0  0  0  0  0  0  0  0  0
  -26.2555  -30.7749   22.8460 O   0  0  0  0  0  0  0  0  0  0  0  0
  -21.8872  -31.4687   22.2210 O   0  0  0  0  0  0  0  0  0  0  0  0
  -21.1685  -26.8065   21.7029 O   0  0  0  0  0  0  0  0  0  0  0  0
  -29.5436  -17.0118   19.8603 O   0  0  0  0  0  0  0  0  0  0  0  0
  -22.2525   -7.5622   21.9749 O   0  0  0  0  0  0  0  0  0  0  0  0
  -27.7554  -25.6033   20.4437 O   0  0  0  0  0  0  0  0  0  1  0  0
  -23.2004   -3.0941   18.8860 F   0  0  0  0  0  0  0  0  0  0  0  0
  -23.5045   -5.3402   23.0415 F   0  0  0  0  0  0  0  0  0  0  0  0
  -29.1805  -20.8389   18.1699 F   0  0  0  0  0  0  0  0  0  0  0  0
  1  2  1  0  0  0  0
  1  5  2  0  0  0  0
  2  6  2  0  0  0  0
  3  8  2  0  0  0  0
  3 16  1  0  0  0  0
  4  9  1  0  0  0  0
  4 16  2  0  0  0  0
  5 18  1  0  0  0  0
  6 20  1  0  0  0  0
  7 10  2  0  0  0  0
  7 19  1  0  0  0  0
  8 22  1  0  0  0  0
  9 22  2  0  0  0  0
 10 23  1  0  0  0  0
 11 12  2  0  0  0  0
 11 24  1  0  0  0  0
 12 25  1  0  0  0  0
 13 21  1  0  0  0  0
 13 23  2  0  0  0  0
 14 25  2  0  0  0  0
 14 26  1  0  0  0  0
 15 28  1  0  0  0  0
 15 62  2  0  0  0  0
 16 27  1  0  0  0  0
 17 27  1  0  0  0  0
 17 31  2  0  0  0  0
 17 32  1  0  0  0  0
 18 20  2  0  0  0  0
 18 37  1  0  0  0  0
 19 21  2  0  0  0  0
 19 38  1  0  0  0  0
 20 48  1  0  0  0  0
 21 39  1  0  0  0  0
 22 80  1  0  0  0  0
 23 81  1  0  0  0  0
 24 26  2  0  0  0  0
 24 80  1  0  0  0  0
 25 82  1  0  0  0  0
 26 83  1  0  0  0  0
 27 63  2  0  0  0  0
 28 57  1  0  0  0  0
 28 64  2  0  0  0  0
 29 30  2  0  0  0  0
 29 62  1  0  0  0  0
 29 71  1  0  0  0  0
 30 64  1  0  0  0  0
 30 84  1  0  0  0  0
 31 65  1  0  0  0  0
 31 69  1  0  0  0  0
 32 70  1  0  0  0  0
 32 75  2  0  0  0  0
 33 49  1  0  0  0  0
 33 72  1  0  0  0  0
 33 76  2  0  0  0  0
 34 59  1  0  0  0  0
 34 66  1  0  0  0  0
 34 77  2  0  0  0  0
 35 60  1  0  0  0  0
 35 73  1  0  0  0  0
 35 78  2  0  0  0  0
 36 67  1  0  0  0  0
 36 68  1  0  0  0  0
 36 79  2  0  0  0  0
 37 40  1  0  0  0  0
 38 49  1  0  0  0  0
 39 66  1  0  0  0  0
 40 42  1  0  0  0  0
 41 43  1  0  0  0  0
 41 45  1  0  0  0  0
 42 48  1  0  0  0  0
 43 50  1  0  0  0  0
 44 46  1  0  0  0  0
 44 51  1  0  0  0  0
 45 67  1  0  0  0  0
 46 68  1  0  0  0  0
 47 50  1  0  0  0  0
 47 67  1  0  0  0  0
 48 72  1  0  0  0  0
 49 66  1  0  0  0  0
 50 65  1  0  0  0  0
 51 58  1  0  0  0  0
 51 68  1  0  0  0  0
 52 60  1  0  0  0  0
 53 61  1  0  0  0  0
 54 61  1  0  0  0  0
 55 61  1  0  0  0  0
 56 74  1  0  0  0  0
 57 81  1  0  0  0  0
 58 71  1  0  0  0  0
 59 61  1  0  0  0  0
 59 73  1  0  0  0  0
 60 74  1  0  0  0  0
 63 65  1  0  0  0  0
M  CHG  1  74   1
M  ISO  4  36 100  57 101  68 100  81 101
M  END
> <Batch ID>
0187

> <Smiles>
CNC(C)C(=O)NC(C(=O)N1Cc2cc([101O:1][101CH2:1]c3cnc(NCC4CC[100N:0]4[100C:0](=O)N4CCCC(n5nc(-c6ccc(Oc7ccc(F)cc7F)cc6)c(C(N)=O)c5N)C4)c(F)n3)ccc2CC1C(=O)NC1CCCc2ccccc21)C(C)(C)C

> <Shape>
0.329

> <Color>
0.094

> <Negative vol penalty>
0.000

$$$$

  -OEChem-04052323173D

 83 92  0     1  0  0  0  0  0999 V2000
  -29.4913  -33.5219   25.2418 C   0  0  0  0  0  0  0  0  0  0  0  0
  -29.2770  -32.2357   24.7570 C   0  0  0  0  0  0  0  0  0  0  0  0
  -21.9774  -12.8396   22.7171 C   0  0  0  0  0  0  0  0  0  0  0  0
  -21.5401  -13.4189   20.4127 C   0  0  0  0  0  0  0  0  0  0  0  0
  -28.4057  -34.3234   25.5923 C   0  0  0  0  0  0  0  0  0  0  0  0
  -27.9769  -31.7498   24.6233 C   0  0  0  0  0  0  0  0  0  0  0  0
  -27.2353  -29.3716   20.2143 C   0  0  0  0  0  0  0  0  0  0  0  0
  -20.6441  -13.0982   23.0351 C   0  0  0  0  0  0  0  0  0  0  0  0
  -20.2068  -13.6774   20.7307 C   0  0  0  0  0  0  0  0  0  0  0  0
  -27.7251  -28.0711   20.1021 C   0  0  0  0  0  0  0  0  0  0  0  0
  -17.3893  -11.8955   21.2847 C   0  0  0  0  0  0  0  0  0  0  0  0
  -16.4107  -11.3912   20.4281 C   0  0  0  0  0  0  0  0  0  0  0  0
  -25.5111  -27.2079   20.5169 C   0  0  0  0  0  0  0  0  0  0  0  0
  -15.6241  -13.6361   20.0053 C   0  0  0  0  0  0  0  0  0  0  0  0
  -29.5505  -22.3128   18.4352 C   0  0  0  0  0  0  0  0  0  0  0  0
  -22.4254  -13.0000   21.4059 C   0  0  0  0  0  0  0  0  0  0  0  0
  -24.3559  -11.5070   20.6633 C   0  0  0  0  0  0  0  0  0  0  0  0
  -27.0912  -33.8507   25.4537 C   0  0  0  0  0  0  0  0  0  0  0  0
  -25.8795  -29.6002   20.4900 C   0  0  0  0  0  0  0  0  0  0  0  0
  -26.8726  -32.5453   24.9735 C   0  0  0  0  0  0  0  0  0  0  0  0
  -25.0061  -28.5123   20.6296 C   0  0  0  0  0  0  0  0  0  0  0  0
  -19.7588  -13.5171   22.0419 C   0  0  0  0  0  0  0  0  0  0  0  0
  -26.8636  -26.9890   20.2563 C   0  0  0  0  0  0  0  0  0  0  0  0
  -17.4851  -13.2701   21.5017 C   0  0  0  0  0  0  0  0  0  0  0  0
  -15.5282  -12.2615   19.7884 C   0  0  0  0  0  0  0  0  0  0  0  0
  -16.6026  -14.1404   20.8619 C   0  0  0  0  0  0  0  0  0  0  0  0
  -23.8026  -12.7337   21.0768 C   0  0  0  0  0  0  0  0  0  0  0  0
  -29.6303  -21.5083   19.5504 C   0  0  0  0  0  0  0  0  0  0  0  0
  -29.1320  -23.3014   20.8796 C   0  0  0  0  0  0  0  0  0  0  0  0
  -29.0529  -24.1060   19.7643 C   0  0  0  0  0  0  0  0  0  0  0  0
  -25.6897  -11.7773   20.4773 C   0  0  0  0  0  0  0  0  0  0  0  0
  -23.7211  -10.2369   20.4650 C   0  0  0  0  0  0  0  0  0  0  0  0
  -24.2748  -30.9893   22.8562 C   0  0  0  0  0  0  0  0  0  0  0  0
  -21.7283  -30.4622   20.9171 C   0  0  0  0  0  0  0  0  0  0  0  0
  -20.3465  -28.6476   18.3784 C   0  0  0  0  0  0  0  0  0  0  0  0
  -28.4295  -16.8992   19.1948 C   0  0  0  0  0  0  0  0  0  0  0  0
  -25.9513  -34.7366   25.8901 C   0  0  0  0  0  0  0  0  0  0  0  0
  -25.3617  -31.0094   20.5815 C   0  0  0  0  0  0  0  0  0  0  0  0
  -23.5381  -28.7043   20.9062 C   0  0  0  0  0  0  0  0  0  0  0  0
  -24.5916  -34.2826   25.3653 C   0  0  0  0  0  0  0  0  0  0  0  0
  -29.1964  -14.6233   21.9782 C   0  0  0  0  0  0  0  0  0  0  0  0
  -24.4156  -32.7810   25.5677 C   0  0  0  0  0  0  0  0  0  0  0  0
  -27.9040  -13.8190   22.0627 C   0  0  0  0  0  0  0  0  0  0  0  0
  -28.9574  -16.0678   21.5377 C   0  0  0  0  0  0  0  0  0  0  0  0
  -29.2388  -19.0058   20.4820 C   0  0  0  0  0  0  0  0  0  0  0  0
  -29.3964  -19.0963   18.3651 C   0  0  0  0  0  0  0  0  0  0  0  0
  -26.8811  -15.3681   20.3619 C   0  0  0  0  0  0  0  0  0  0  0  0
  -25.4762  -31.9915   24.7909 C   0  0  1  0  0  0  0  0  0  0  0  0
  -29.9694  -19.9596   19.5080 C   0  0  0  0  0  0  0  0  0  0  0  0
  -24.0628  -31.1184   21.3742 C   0  0  1  0  0  0  0  0  0  0  0  0
  -27.1347  -13.9016   20.7364 C   0  0  2  0  0  0  0  0  0  0  0  0
  -29.3446  -22.8749   23.3411 C   0  0  0  0  0  0  0  0  0  0  0  0
  -18.2366  -28.4243   17.0384 C   0  0  0  0  0  0  0  0  0  0  0  0
  -20.3841  -29.0623   23.2715 C   0  0  0  0  0  0  0  0  0  0  0  0
  -18.7567  -28.0582   21.6554 C   0  0  0  0  0  0  0  0  0  0  0  0
  -18.8709  -30.5348   21.9311 C   0  0  0  0  0  0  0  0  0  0  0  0
  -21.7493  -29.2735   15.8488 C   0  0  0  0  0  0  0  0  0  0  0  0
  -28.9021  -23.8450   22.2483 C   0  0  0  0  0  0  0  0  0  0  0  0
  -28.7317  -25.5675   19.8750 C   0  0  0  0  0  0  0  0  0  1  0  0
  -20.7431  -29.3339   20.7292 C   0  0  1  0  0  0  0  0  0  0  0  0
  -19.6095  -29.0731   17.1214 C   0  0  2  0  0  0  0  0  0  0  0  0
  -19.7167  -29.2433   21.8935 C   0  0  0  0  0  0  0  0  0  0  0  0
  -29.2604  -23.6262   18.5221 N   0  0  0  0  0  0  0  0  0  0  0  0
  -24.7107  -13.7105   21.1495 N   0  0  0  0  0  0  0  0  0  0  0  0
  -29.4224  -21.9881   20.7927 N   0  0  0  0  0  0  0  0  0  0  0  0
  -25.8480  -13.0979   20.7793 N   0  0  0  0  0  0  0  0  0  0  0  0
  -23.0810  -30.1011   20.9931 N   0  0  0  0  0  0  0  0  0  0  0  0
  -28.1218  -16.1500   20.3353 N   0  0  0  0  0  0  0  0  0  0  0  0
  -29.1437  -18.0676   19.3700 N   0  0  0  0  0  0  0  0  0  0  0  0
  -26.7307  -11.0118   20.0866 N   0  0  0  0  0  0  0  0  0  0  0  0
  -22.3434  -10.1343   20.7014 N   0  0  0  0  0  0  0  0  0  0  0  0
  -25.1342  -31.9329   23.3859 N   0  0  0  0  0  0  0  0  0  0  0  0
  -20.1405  -29.5326   19.4155 N   0  0  0  0  0  0  0  0  0  0  0  0
  -20.3861  -28.6864   15.9096 N   0  3  0  0  0  0  0  0  0  0  0  0
  -24.3596   -9.2189   20.1051 O   0  0  0  0  0  0  0  0  0  0  0  0
  -23.7000  -30.1005   23.4736 O   0  0  0  0  0  0  0  0  0  0  0  0
  -21.3136  -31.6218   20.9864 O   0  0  0  0  0  0  0  0  0  0  0  0
  -21.0330  -27.6298   18.4358 O   0  0  0  0  0  0  0  0  0  0  0  0
  -28.0546  -16.5603   18.0651 O   0  0  0  0  0  0  0  0  0  0  0  0
  -18.4577  -13.7692   22.3519 O   0  0  0  0  0  0  0  0  0  0  0  0
  -27.3392  -25.7186   20.1479 O   0  0  0  0  0  0  0  0  0  1  0  0
  -14.5895  -11.7772   18.9646 F   0  0  0  0  0  0  0  0  0  0  0  0
  -16.6906  -15.4620   21.0655 F   0  0  0  0  0  0  0  0  0  0  0  0
  1  2  1  0  0  0  0
  1  5  2  0  0  0  0
  2  6  2  0  0  0  0
  3  8  2  0  0  0  0
  3 16  1  0  0  0  0
  4  9  1  0  0  0  0
  4 16  2  0  0  0  0
  5 18  1  0  0  0  0
  6 20  1  0  0  0  0
  7 10  2  0  0  0  0
  7 19  1  0  0  0  0
  8 22  1  0  0  0  0
  9 22  2  0  0  0  0
 10 23  1  0  0  0  0
 11 12  2  0  0  0  0
 11 24  1  0  0  0  0
 12 25  1  0  0  0  0
 13 21  1  0  0  0  0
 13 23  2  0  0  0  0
 14 25  2  0  0  0  0
 14 26  1  0  0  0  0
 15 28  1  0  0  0  0
 15 63  2  0  0  0  0
 16 27  1  0  0  0  0
 17 27  1  0  0  0  0
 17 31  2  0  0  0  0
 17 32  1  0  0  0  0
 18 20  2  0  0  0  0
 18 37  1  0  0  0  0
 19 21  2  0  0  0  0
 19 38  1  0  0  0  0
 20 48  1  0  0  0  0
 21 39  1  0  0  0  0
 22 80  1  0  0  0  0
 23 81  1  0  0  0  0
 24 26  2  0  0  0  0
 24 80  1  0  0  0  0
 25 82  1  0  0  0  0
 26 83  1  0  0  0  0
 27 64  2  0  0  0  0
 28 49  1  0  0  0  0
 28 65  2  0  0  0  0
 29 30  2  0  0  0  0
 29 58  1  0  0  0  0
 29 65  1  0  0  0  0
 30 59  1  0  0  0  0
 30 63  1  0  0  0  0
 31 66  1  0  0  0  0
 31 70  1  0  0  0  0
 32 71  1  0  0  0  0
 32 75  2  0  0  0  0
 33 50  1  0  0  0  0
 33 72  1  0  0  0  0
 33 76  2  0  0  0  0
 34 60  1  0  0  0  0
 34 67  1  0  0  0  0
 34 77  2  0  0  0  0
 35 61  1  0  0  0  0
 35 73  1  0  0  0  0
 35 78  2  0  0  0  0
 36 68  1  0  0  0  0
 36 69  1  0  0  0  0
 36 79  2  0  0  0  0
 37 40  1  0  0  0  0
 38 50  1  0  0  0  0
 39 67  1  0  0  0  0
 40 42  1  0  0  0  0
 41 43  1  0  0  0  0
 41 44  1  0  0  0  0
 42 48  1  0  0  0  0
 43 51  1  0  0  0  0
 44 68  1  0  0  0  0
 45 49  1  0  0  0  0
 45 69  1  0  0  0  0
 46 49  1  0  0  0  0
 46 69  1  0  0  0  0
 47 51  1  0  0  0  0
 47 68  1  0  0  0  0
 48 72  1  0  0  0  0
 50 67  1  0  0  0  0
 51 66  1  0  0  0  0
 52 58  1  0  0  0  0
 53 61  1  0  0  0  0
 54 62  1  0  0  0  0
 55 62  1  0  0  0  0
 56 62  1  0  0  0  0
 57 74  1  0  0  0  0
 59 81  1  0  0  0  0
 60 62  1  0  0  0  0
 60 73  1  0  0  0  0
 61 74  1  0  0  0  0
 64 66  1  0  0  0  0
M  CHG  1  74   1
M  ISO  4  36 100  59 101  69 100  81 101
M  END
> <Batch ID>
0187

> <Smiles>
CCc1nc(C2C[100N:0]([100C:0](=O)N3CCCC(n4nc(-c5ccc(Oc6ccc(F)cc6F)cc5)c(C(N)=O)c4N)C3)C2)cnc1[101CH2:1][101O:1]c1ccc2c(c1)CN(C(=O)C(NC(=O)C(C)NC)C(C)(C)C)C(C(=O)NC1CCCc3ccccc31)C2

> <Shape>
0.302

> <Color>
0.071

> <Negative vol penalty>
0.000

$$$$

  -OEChem-04052323173D

 81 90  0     1  0  0  0  0  0999 V2000
  -33.8468  -26.2073   16.8149 C   0  0  0  0  0  0  0  0  0  0  0  0
  -32.7823  -25.4323   17.2639 C   0  0  0  0  0  0  0  0  0  0  0  0
  -23.3496   -9.1908   20.5021 C   0  0  0  0  0  0  0  0  0  0  0  0
  -23.1758  -10.8140   22.2832 C   0  0  0  0  0  0  0  0  0  0  0  0
  -34.2839  -27.2942   17.5709 C   0  0  0  0  0  0  0  0  0  0  0  0
  -32.1549  -25.7432   18.4697 C   0  0  0  0  0  0  0  0  0  0  0  0
  -27.1049  -25.5740   18.1322 C   0  0  0  0  0  0  0  0  0  0  0  0
  -22.5701   -8.2990   21.2387 C   0  0  0  0  0  0  0  0  0  0  0  0
  -22.3962   -9.9222   23.0198 C   0  0  0  0  0  0  0  0  0  0  0  0
  -26.5071  -24.3146   18.1541 C   0  0  0  0  0  0  0  0  0  0  0  0
  -22.9977   -6.1686   23.8277 C   0  0  0  0  0  0  0  0  0  0  0  0
  -23.4210   -4.8413   23.8946 C   0  0  0  0  0  0  0  0  0  0  0  0
  -25.9716  -24.6161   20.4869 C   0  0  0  0  0  0  0  0  0  0  0  0
  -21.3512   -4.1295   22.8716 C   0  0  0  0  0  0  0  0  0  0  0  0
  -26.3801  -19.2830   20.0157 C   0  0  0  0  0  0  0  0  0  0  0  0
  -23.6525  -10.4483   21.0244 C   0  0  0  0  0  0  0  0  0  0  0  0
  -24.0068  -12.3333   19.3424 C   0  0  0  0  0  0  0  0  0  0  0  0
  -33.6553  -27.6243   18.7819 C   0  0  0  0  0  0  0  0  0  0  0  0
  -27.1502  -26.3606   19.2922 C   0  0  0  0  0  0  0  0  0  0  0  0
  -32.5848  -26.8347   19.2433 C   0  0  0  0  0  0  0  0  0  0  0  0
  -26.5683  -25.8862   20.4764 C   0  0  0  0  0  0  0  0  0  0  0  0
  -27.7215  -19.4309   20.3040 C   0  0  0  0  0  0  0  0  0  0  0  0
  -22.0933   -8.6647   22.4976 C   0  0  0  0  0  0  0  0  0  0  0  0
  -25.9429  -23.8343   19.3323 C   0  0  0  0  0  0  0  0  0  0  0  0
  -21.7510   -6.4765   23.2829 C   0  0  0  0  0  0  0  0  0  0  0  0
  -22.5978   -3.8217   23.4165 C   0  0  0  0  0  0  0  0  0  0  0  0
  -20.9278   -5.4569   22.8048 C   0  0  0  0  0  0  0  0  0  0  0  0
  -24.4582  -11.3698   20.2642 C   0  0  0  0  0  0  0  0  0  0  0  0
  -28.2052  -20.7221   20.2488 C   0  0  0  0  0  0  0  0  0  0  0  0
  -25.1526  -12.9458   18.8971 C   0  0  0  0  0  0  0  0  0  0  0  0
  -26.1549  -21.5194   19.6766 C   0  0  0  0  0  0  0  0  0  1  0  0
  -22.6711  -12.6466   18.9259 C   0  0  0  0  0  0  0  0  0  0  0  0
  -29.4736  -27.5588   21.1005 C   0  0  0  0  0  0  0  0  0  0  0  0
  -27.0082  -29.0286   22.6118 C   0  0  0  0  0  0  0  0  0  0  0  0
  -23.6823  -29.0580   23.3761 C   0  0  0  0  0  0  0  0  0  0  0  0
  -30.1547  -15.2588   20.1166 C   0  0  0  0  0  0  0  0  0  0  0  0
  -34.1935  -28.7800   19.5877 C   0  0  0  0  0  0  0  0  0  0  0  0
  -27.7750  -27.7281   19.2452 C   0  0  0  0  0  0  0  0  0  0  0  0
  -26.5727  -26.7000   21.7436 C   0  0  0  0  0  0  0  0  0  0  0  0
  -33.2332  -29.2679   20.6694 C   0  0  0  0  0  0  0  0  0  0  0  0
  -30.0029  -11.7221   19.4830 C   0  0  0  0  0  0  0  0  0  0  0  0
  -32.6643  -28.0874   21.4502 C   0  0  0  0  0  0  0  0  0  0  0  0
  -28.5220  -11.3798   19.6076 C   0  0  0  0  0  0  0  0  0  0  0  0
  -30.3898  -12.8265   20.4576 C   0  0  0  0  0  0  0  0  0  0  0  0
  -28.0442  -16.7574   20.5162 C   0  0  0  0  0  0  0  0  0  0  0  0
  -29.7282  -17.7381   19.6822 C   0  0  0  0  0  0  0  0  0  0  0  0
  -28.0965  -13.7691   20.3769 C   0  0  0  0  0  0  0  0  0  0  0  0
  -28.6271  -18.1829   20.6721 C   0  0  0  0  0  0  0  0  0  0  0  0
  -31.8625  -27.1550   20.5340 C   0  0  1  0  0  0  0  0  0  0  0  0
  -28.2194  -28.2294   20.6158 C   0  0  1  0  0  0  0  0  0  0  0  0
  -27.6625  -12.6387   19.4229 C   0  0  2  0  0  0  0  0  0  0  0  0
  -29.6421  -20.9996   20.5437 C   0  0  0  0  0  0  0  0  0  0  0  0
  -21.9677  -30.3648   24.6605 C   0  0  0  0  0  0  0  0  0  0  0  0
  -28.0721  -27.8561   25.2201 C   0  0  0  0  0  0  0  0  0  0  0  0
  -25.8615  -28.3758   26.2742 C   0  0  0  0  0  0  0  0  0  0  0  0
  -27.2828  -30.2233   25.3858 C   0  0  0  0  0  0  0  0  0  0  0  0
  -22.1187  -29.6329   20.9299 C   0  0  0  0  0  0  0  0  0  0  0  0
  -26.1026  -28.6799   23.7682 C   0  0  1  0  0  0  0  0  0  0  0  0
  -22.6441  -30.1638   23.3134 C   0  0  2  0  0  0  0  0  0  0  0  0
  -26.8312  -28.7674   25.1389 C   0  0  0  0  0  0  0  0  0  0  0  0
  -25.5643  -20.3092   19.6969 N   0  0  0  0  0  0  0  0  0  0  0  0
  -25.7872  -11.3666   20.3975 N   0  0  0  0  0  0  0  0  0  0  0  0
  -27.4472  -21.7939   19.9373 N   0  0  0  0  0  0  0  0  0  0  0  0
  -26.1807  -12.3355   19.5535 N   0  0  0  0  0  0  0  0  0  0  0  0
  -27.2011  -28.0280   21.6487 N   0  0  0  0  0  0  0  0  0  0  0  0
  -29.5438  -14.0147   20.3094 N   0  0  0  0  0  0  0  0  0  0  0  0
  -29.3507  -16.3694   20.0126 N   0  0  0  0  0  0  0  0  0  0  0  0
  -25.3710  -13.9415   18.0121 N   0  0  0  0  0  0  0  0  0  0  0  0
  -21.6098  -11.9203   19.4831 N   0  0  0  0  0  0  0  0  0  0  0  0
  -30.5576  -27.7169   20.2582 N   0  0  0  0  0  0  0  0  0  0  0  0
  -24.9392  -29.5527   23.6531 N   0  0  0  0  0  0  0  0  0  0  0  0
  -21.5965  -29.8341   22.3060 N   0  3  0  0  0  0  0  0  0  0  0  0
  -22.4272  -13.5328   18.0723 O   0  0  0  0  0  0  0  0  0  0  0  0
  -29.4593  -26.9447   22.1609 O   0  0  0  0  0  0  0  0  0  0  0  0
  -27.5198  -30.1499   22.5611 O   0  0  0  0  0  0  0  0  0  0  0  0
  -23.4053  -27.8735   23.2008 O   0  0  0  0  0  0  0  0  0  0  0  0
  -31.3859  -15.3815   20.0681 O   0  0  0  0  0  0  0  0  0  0  0  0
  -21.3324   -7.7948   23.2165 O   0  0  0  0  0  0  0  0  0  0  0  0
  -25.3520  -22.5896   19.3569 O   0  0  0  0  0  0  0  0  0  1  0  0
  -23.0052   -2.5473   23.4793 F   0  0  0  0  0  0  0  0  0  0  0  0
  -19.7296   -5.7466   22.2792 F   0  0  0  0  0  0  0  0  0  0  0  0
  1  2  1  0  0  0  0
  1  5  2  0  0  0  0
  2  6  2  0  0  0  0
  3  8  2  0  0  0  0
  3 16  1  0  0  0  0
  4  9  1  0  0  0  0
  4 16  2  0  0  0  0
  5 18  1  0  0  0  0
  6 20  1  0  0  0  0
  7 10  2  0  0  0  0
  7 19  1  0  0  0  0
  8 23  1  0  0  0  0
  9 23  2  0  0  0  0
 10 24  1  0  0  0  0
 11 12  2  0  0  0  0
 11 25  1  0  0  0  0
 12 26  1  0  0  0  0
 13 21  1  0  0  0  0
 13 24  2  0  0  0  0
 14 26  2  0  0  0  0
 14 27  1  0  0  0  0
 15 22  1  0  0  0  0
 15 61  2  0  0  0  0
 16 28  1  0  0  0  0
 17 28  1  0  0  0  0
 17 30  2  0  0  0  0
 17 32  1  0  0  0  0
 18 20  2  0  0  0  0
 18 37  1  0  0  0  0
 19 21  2  0  0  0  0
 19 38  1  0  0  0  0
 20 49  1  0  0  0  0
 21 39  1  0  0  0  0
 22 29  2  0  0  0  0
 22 48  1  0  0  0  0
 23 78  1  0  0  0  0
 24 79  1  0  0  0  0
 25 27  2  0  0  0  0
 25 78  1  0  0  0  0
 26 80  1  0  0  0  0
 27 81  1  0  0  0  0
 28 62  2  0  0  0  0
 29 52  1  0  0  0  0
 29 63  1  0  0  0  0
 30 64  1  0  0  0  0
 30 68  1  0  0  0  0
 31 61  1  0  0  0  0
 31 63  2  0  0  0  0
 31 79  1  0  0  0  0
 32 69  1  0  0  0  0
 32 73  2  0  0  0  0
 33 50  1  0  0  0  0
 33 70  1  0  0  0  0
 33 74  2  0  0  0  0
 34 58  1  0  0  0  0
 34 65  1  0  0  0  0
 34 75  2  0  0  0  0
 35 59  1  0  0  0  0
 35 71  1  0  0  0  0
 35 76  2  0  0  0  0
 36 66  1  0  0  0  0
 36 67  1  0  0  0  0
 36 77  2  0  0  0  0
 37 40  1  0  0  0  0
 38 50  1  0  0  0  0
 39 65  1  0  0  0  0
 40 42  1  0  0  0  0
 41 43  1  0  0  0  0
 41 44  1  0  0  0  0
 42 49  1  0  0  0  0
 43 51  1  0  0  0  0
 44 66  1  0  0  0  0
 45 48  1  0  0  0  0
 45 67  1  0  0  0  0
 46 48  1  0  0  0  0
 46 67  1  0  0  0  0
 47 51  1  0  0  0  0
 47 66  1  0  0  0  0
 49 70  1  0  0  0  0
 50 65  1  0  0  0  0
 51 64  1  0  0  0  0
 53 59  1  0  0  0  0
 54 60  1  0  0  0  0
 55 60  1  0  0  0  0
 56 60  1  0  0  0  0
 57 72  1  0  0  0  0
 58 60  1  0  0  0  0
 58 71  1  0  0  0  0
 59 72  1  0  0  0  0
 62 64  1  0  0  0  0
M  CHG  1  72   1
M  ISO  4  31 101  36 100  67 100  79 101
M  END
> <Batch ID>
0187

> <Smiles>
CNC(C)C(=O)NC(C(=O)N1Cc2cc([101O:1][101c:1]3ncc(C4C[100N:0]([100C:0](=O)N5CCCC(n6nc(-c7ccc(Oc8ccc(F)cc8F)cc7)c(C(N)=O)c6N)C5)C4)c(C)n3)ccc2CC1C(=O)NC1CCCc2ccccc21)C(C)(C)C

> <Shape>
0.266

> <Color>
0.100

> <Negative vol penalty>
0.000

$$$$

  -OEChem-04052323173D

 87 96  0     1  0  0  0  0  0999 V2000
  -22.6296  -20.3836   24.3068 C   0  0  0  0  0  0  0  0  0  0  0  0
  -23.8404  -20.8017   23.7639 C   0  0  0  0  0  0  0  0  0  0  0  0
  -25.8510  -13.3944   21.1448 C   0  0  0  0  0  0  0  0  0  0  0  0
  -24.9488  -14.0837   19.0122 C   0  0  0  0  0  0  0  0  0  0  0  0
  -21.4729  -21.1298   24.0852 C   0  0  0  0  0  0  0  0  0  0  0  0
  -23.8948  -21.9658   22.9982 C   0  0  0  0  0  0  0  0  0  0  0  0
  -28.5130  -25.9787   22.7231 C   0  0  0  0  0  0  0  0  0  0  0  0
  -24.7967  -12.4944   21.3000 C   0  0  0  0  0  0  0  0  0  0  0  0
  -23.8945  -13.1837   19.1674 C   0  0  0  0  0  0  0  0  0  0  0  0
  -29.5518  -26.1521   21.8096 C   0  0  0  0  0  0  0  0  0  0  0  0
  -22.5390   -9.7573   22.0912 C   0  0  0  0  0  0  0  0  0  0  0  0
  -22.8443   -8.4714   22.5369 C   0  0  0  0  0  0  0  0  0  0  0  0
  -28.2585  -27.8386   20.6683 C   0  0  0  0  0  0  0  0  0  0  0  0
  -32.2306  -20.8559   17.0583 C   0  0  0  0  0  0  0  0  0  0  0  0
  -24.2581   -8.1379   20.6063 C   0  0  0  0  0  0  0  0  0  0  0  0
  -25.9271  -14.1891   20.0009 C   0  0  0  0  0  0  0  0  0  0  0  0
  -28.2617  -14.8731   19.2333 C   0  0  0  0  0  0  0  0  0  0  0  0
  -21.5150  -22.3088   23.3244 C   0  0  0  0  0  0  0  0  0  0  0  0
  -27.3328  -26.7275   22.6095 C   0  0  0  0  0  0  0  0  0  0  0  0
  -22.7373  -22.7278   22.7651 C   0  0  0  0  0  0  0  0  0  0  0  0
  -27.2073  -27.6746   21.5832 C   0  0  0  0  0  0  0  0  0  0  0  0
  -33.2683  -21.4707   16.3550 C   0  0  0  0  0  0  0  0  0  0  0  0
  -33.2839  -22.8663   16.2374 C   0  0  0  0  0  0  0  0  0  0  0  0
  -23.8185  -12.3891   20.3113 C   0  0  0  0  0  0  0  0  0  0  0  0
  -29.4235  -27.0800   20.7803 C   0  0  0  0  0  0  0  0  0  0  0  0
  -23.0931  -10.2336   20.9030 C   0  0  0  0  0  0  0  0  0  0  0  0
  -23.7039   -7.6617   21.7945 C   0  0  0  0  0  0  0  0  0  0  0  0
  -23.9527   -9.4239   20.1606 C   0  0  0  0  0  0  0  0  0  0  0  0
  -27.0156  -15.1193   19.8403 C   0  0  0  0  0  0  0  0  0  0  0  0
  -32.2285  -23.5721   16.8065 C   0  0  0  0  0  0  0  0  0  0  0  0
  -31.2363  -21.6576   17.5951 C   0  0  0  0  0  0  0  0  0  0  0  0
  -28.9342  -16.0665   19.3336 C   0  0  0  0  0  0  0  0  0  0  0  0
  -28.7661  -13.6730   18.6325 C   0  0  0  0  0  0  0  0  0  0  0  0
  -24.2705  -26.0278   22.1230 C   0  0  0  0  0  0  0  0  0  0  0  0
  -23.8653  -29.2041   22.6418 C   0  0  0  0  0  0  0  0  0  0  0  0
  -25.2137  -32.3391   22.6160 C   0  0  0  0  0  0  0  0  0  0  0  0
  -29.0945  -21.6169   18.9208 C   0  0  0  0  0  0  0  0  0  0  0  0
  -20.2297  -23.0566   23.0726 C   0  0  0  0  0  0  0  0  0  0  0  0
  -26.2322  -26.5476   23.6188 C   0  0  0  0  0  0  0  0  0  0  0  0
  -34.3611  -23.5776   15.4680 C   0  0  0  0  0  0  0  0  0  0  0  0
  -25.9689  -28.5179   21.4294 C   0  0  0  0  0  0  0  0  0  0  0  0
  -34.3807  -20.6384   15.7803 C   0  0  0  0  0  0  0  0  0  0  0  0
  -20.4428  -24.4795   22.5626 C   0  0  0  0  0  0  0  0  0  0  0  0
  -27.8419  -20.2525   21.9615 C   0  0  0  0  0  0  0  0  0  0  0  0
  -21.4815  -24.4964   21.4457 C   0  0  0  0  0  0  0  0  0  0  0  0
  -27.6177  -18.7751   21.6308 C   0  0  0  0  0  0  0  0  0  0  0  0
  -27.5071  -21.1561   20.7762 C   0  0  0  0  0  0  0  0  0  0  0  0
  -27.9540  -19.3270   19.1876 C   0  0  0  0  0  0  0  0  0  0  0  0
  -35.6295  -22.7454   15.3085 C   0  0  0  0  0  0  0  0  0  0  0  0
  -22.8415  -23.9983   21.9496 C   0  0  1  0  0  0  0  0  0  0  0  0
  -24.8688  -26.9973   23.1027 C   0  0  1  0  0  0  0  0  0  0  0  0
  -28.3398  -18.3730   20.3299 C   0  0  2  0  0  0  0  0  0  0  0  0
  -35.9884  -19.2544   13.7985 C   0  0  0  0  0  0  0  0  0  0  0  0
  -24.6269  -34.7395   23.0530 C   0  0  0  0  0  0  0  0  0  0  0  0
  -22.3723  -29.3206   19.9833 C   0  0  0  0  0  0  0  0  0  0  0  0
  -22.6501  -31.8085   20.0160 C   0  0  0  0  0  0  0  0  0  0  0  0
  -21.3460  -30.6772   21.8165 C   0  0  0  0  0  0  0  0  0  0  0  0
  -27.2265  -32.5590   24.7746 C   0  0  0  0  0  0  0  0  0  0  0  0
  -32.1487  -25.0656   16.6877 C   0  0  0  0  0  0  0  0  0  0  0  0
  -36.4500  -20.5752   14.3746 C   0  0  0  0  0  0  0  0  0  0  0  0
  -31.1179  -27.1573   17.5828 C   0  0  0  0  0  0  0  0  0  0  0  0
  -30.0751  -27.6519   18.5657 C   0  0  0  0  0  0  0  0  0  1  0  0
  -23.8624  -30.4377   21.7716 C   0  0  1  0  0  0  0  0  0  0  0  0
  -25.1874  -33.4554   23.6444 C   0  0  2  0  0  0  0  0  0  0  0  0
  -22.5804  -30.5439   20.8983 C   0  0  0  0  0  0  0  0  0  0  0  0
  -26.9008  -16.3708   20.2928 N   0  0  0  0  0  0  0  0  0  0  0  0
  -31.2068  -23.0029   17.4845 N   0  0  0  0  0  0  0  0  0  0  0  0
  -28.0834  -16.9215   19.9700 N   0  0  0  0  0  0  0  0  0  0  0  0
  -24.9180  -28.3008   22.4375 N   0  0  0  0  0  0  0  0  0  0  0  0
  -28.2305  -20.7176   19.5807 N   0  0  0  0  0  0  0  0  0  0  0  0
  -30.1645  -16.4573   18.9386 N   0  0  0  0  0  0  0  0  0  0  0  0
  -27.9438  -12.5382   18.6145 N   0  0  0  0  0  0  0  0  0  0  0  0
  -30.1900  -21.0151   18.3023 N   0  0  0  0  0  0  0  0  0  0  0  0
  -23.5095  -25.0339   22.7084 N   0  0  0  0  0  0  0  0  0  0  0  0
  -24.0705  -31.5699   22.6677 N   0  0  0  0  0  0  0  0  0  0  0  0
  -35.2512  -21.3815   14.7856 N   0  3  1  0  0  0  0  0  0  0  0  0
  -26.5636  -33.7304   24.1457 N   0  3  0  0  0  0  0  0  0  0  0  0
  -31.1761  -25.6746   17.6348 N   0  3  0  0  0  0  0  0  0  0  0  0
  -29.9183  -13.6042   18.1413 O   0  0  0  0  0  0  0  0  0  0  0  0
  -24.4822  -26.1717   20.9246 O   0  0  0  0  0  0  0  0  0  0  0  0
  -22.9706  -29.0512   23.4771 O   0  0  0  0  0  0  0  0  0  0  0  0
  -26.1528  -32.1688   21.8415 O   0  0  0  0  0  0  0  0  0  0  0  0
  -28.8934  -22.8340   18.9285 O   0  0  0  0  0  0  0  0  0  0  0  0
  -22.7896  -11.5108   20.4623 O   0  0  0  0  0  0  0  0  0  0  0  0
  -30.4357  -27.2508   19.8868 O   0  0  0  0  0  0  0  0  0  1  0  0
  -23.9982   -6.4273   22.2234 F   0  0  0  0  0  0  0  0  0  0  0  0
  -24.4890   -9.8764   19.0189 F   0  0  0  0  0  0  0  0  0  0  0  0
  1  2  1  0  0  0  0
  1  5  2  0  0  0  0
  2  6  2  0  0  0  0
  3  8  2  0  0  0  0
  3 16  1  0  0  0  0
  4  9  1  0  0  0  0
  4 16  2  0  0  0  0
  5 18  1  0  0  0  0
  6 20  1  0  0  0  0
  7 10  2  0  0  0  0
  7 19  1  0  0  0  0
  8 24  1  0  0  0  0
  9 24  2  0  0  0  0
 10 25  1  0  0  0  0
 11 12  2  0  0  0  0
 11 26  1  0  0  0  0
 12 27  1  0  0  0  0
 13 21  1  0  0  0  0
 13 25  2  0  0  0  0
 14 22  2  0  0  0  0
 14 31  1  0  0  0  0
 15 27  2  0  0  0  0
 15 28  1  0  0  0  0
 16 29  1  0  0  0  0
 17 29  1  0  0  0  0
 17 32  2  0  0  0  0
 17 33  1  0  0  0  0
 18 20  2  0  0  0  0
 18 38  1  0  0  0  0
 19 21  2  0  0  0  0
 19 39  1  0  0  0  0
 20 50  1  0  0  0  0
 21 41  1  0  0  0  0
 22 23  1  0  0  0  0
 22 42  1  0  0  0  0
 23 30  2  0  0  0  0
 23 40  1  0  0  0  0
 24 84  1  0  0  0  0
 25 85  1  0  0  0  0
 26 28  2  0  0  0  0
 26 84  1  0  0  0  0
 27 86  1  0  0  0  0
 28 87  1  0  0  0  0
 29 66  2  0  0  0  0
 30 59  1  0  0  0  0
 30 67  1  0  0  0  0
 31 67  2  0  0  0  0
 31 73  1  0  0  0  0
 32 68  1  0  0  0  0
 32 71  1  0  0  0  0
 33 72  1  0  0  0  0
 33 79  2  0  0  0  0
 34 51  1  0  0  0  0
 34 74  1  0  0  0  0
 34 80  2  0  0  0  0
 35 63  1  0  0  0  0
 35 69  1  0  0  0  0
 35 81  2  0  0  0  0
 36 64  1  0  0  0  0
 36 75  1  0  0  0  0
 36 82  2  0  0  0  0
 37 70  1  0  0  0  0
 37 73  1  0  0  0  0
 37 83  2  0  0  0  0
 38 43  1  0  0  0  0
 39 51  1  0  0  0  0
 40 49  1  0  0  0  0
 41 69  1  0  0  0  0
 42 76  1  0  0  0  0
 43 45  1  0  0  0  0
 44 46  1  0  0  0  0
 44 47  1  0  0  0  0
 45 50  1  0  0  0  0
 46 52  1  0  0  0  0
 47 70  1  0  0  0  0
 48 52  1  0  0  0  0
 48 70  1  0  0  0  0
 49 76  1  0  0  0  0
 50 74  1  0  0  0  0
 51 69  1  0  0  0  0
 52 68  1  0  0  0  0
 53 60  1  0  0  0  0
 54 64  1  0  0  0  0
 55 65  1  0  0  0  0
 56 65  1  0  0  0  0
 57 65  1  0  0  0  0
 58 77  1  0  0  0  0
 59 78  1  0  0  0  0
 60 76  1  0  0  0  0
 61 62  1  0  0  0  0
 61 78  1  0  0  0  0
 62 85  1  0  0  0  0
 63 65  1  0  0  0  0
 63 75  1  0  0  0  0
 64 77  1  0  0  0  0
 66 68  1  0  0  0  0
M  CHG  3  76   1  77   1  78   1
M  ISO  4  37 100  62 101  73 100  85 101
M  END
> <Batch ID>
0187

> <Smiles>
CCN1CCc2c(cc([100NH:0][100C:0](=O)N3CCCC(n4nc(-c5ccc(Oc6ccc(F)cc6F)cc5)c(C(N)=O)c4N)C3)nc2CNC[101CH2:1][101O:1]c2ccc3c(c2)CN(C(=O)C(NC(=O)C(C)NC)C(C)(C)C)C(C(=O)NC2CCCc4ccccc42)C3)C1

> <Shape>
0.252

> <Color>
0.062

> <Negative vol penalty>
0.000

$$$$

  -OEChem-04052323173D

 86 95  0     1  0  0  0  0  0999 V2000
  -29.0660  -33.3797   24.7717 C   0  0  0  0  0  0  0  0  0  0  0  0
  -29.5425  -32.2028   24.2031 C   0  0  0  0  0  0  0  0  0  0  0  0
  -24.7113   -8.7437   21.6021 C   0  0  0  0  0  0  0  0  0  0  0  0
  -23.0665   -9.8037   20.1851 C   0  0  0  0  0  0  0  0  0  0  0  0
  -27.7181  -33.4935   25.1094 C   0  0  0  0  0  0  0  0  0  0  0  0
  -28.6714  -31.1386   23.9728 C   0  0  0  0  0  0  0  0  0  0  0  0
  -28.8661  -27.1624   19.3190 C   0  0  0  0  0  0  0  0  0  0  0  0
  -23.6925   -8.2586   22.4220 C   0  0  0  0  0  0  0  0  0  0  0  0
  -22.0476   -9.3186   21.0050 C   0  0  0  0  0  0  0  0  0  0  0  0
  -29.3751  -25.8690   19.2110 C   0  0  0  0  0  0  0  0  0  0  0  0
  -21.5051   -6.4392   24.6848 C   0  0  0  0  0  0  0  0  0  0  0  0
  -21.5796   -5.1075   25.0928 C   0  0  0  0  0  0  0  0  0  0  0  0
  -27.1773  -24.9743   19.6452 C   0  0  0  0  0  0  0  0  0  0  0  0
  -21.5226   -4.3971   22.7843 C   0  0  0  0  0  0  0  0  0  0  0  0
  -24.3984   -9.5163   20.4837 C   0  0  0  0  0  0  0  0  0  0  0  0
  -26.0111   -9.3845   18.5115 C   0  0  0  0  0  0  0  0  0  0  0  0
  -26.8281  -32.4337   24.8743 C   0  0  0  0  0  0  0  0  0  0  0  0
  -27.5087  -27.3718   19.6021 C   0  0  0  0  0  0  0  0  0  0  0  0
  -27.3106  -31.2378   24.3090 C   0  0  0  0  0  0  0  0  0  0  0  0
  -26.6530  -26.2713   19.7537 C   0  0  0  0  0  0  0  0  0  0  0  0
  -29.7217  -21.6699   21.4364 C   0  0  0  0  0  0  0  0  0  0  0  0
  -22.3606   -8.5460   22.1234 C   0  0  0  0  0  0  0  0  0  0  0  0
  -28.5313  -24.7746   19.3770 C   0  0  0  0  0  0  0  0  0  0  0  0
  -21.4393   -6.7500   23.3265 C   0  0  0  0  0  0  0  0  0  0  0  0
  -21.5884   -4.0864   24.1425 C   0  0  0  0  0  0  0  0  0  0  0  0
  -21.4481   -5.7289   22.3763 C   0  0  0  0  0  0  0  0  0  0  0  0
  -25.4504  -10.0181   19.6367 C   0  0  0  0  0  0  0  0  0  0  0  0
  -30.0583  -22.1771   22.6749 C   0  0  0  0  0  0  0  0  0  0  0  0
  -28.5570  -20.9313   21.3902 C   0  0  0  0  0  0  0  0  0  0  0  0
  -26.9647  -10.2646   18.0615 C   0  0  0  0  0  0  0  0  0  0  0  0
  -28.2088  -21.2474   23.6141 C   0  0  0  0  0  0  0  0  0  0  0  0
  -25.6978   -8.1140   17.9255 C   0  0  0  0  0  0  0  0  0  0  0  0
  -25.8980  -28.7498   21.9707 C   0  0  0  0  0  0  0  0  0  0  0  0
  -23.3475  -28.1723   20.0513 C   0  0  0  0  0  0  0  0  0  0  0  0
  -21.9776  -26.3219   17.5322 C   0  0  0  0  0  0  0  0  0  0  0  0
  -27.3660  -16.1479   18.6364 C   0  0  0  0  0  0  0  0  0  0  0  0
  -25.3892  -32.5861   25.2997 C   0  0  0  0  0  0  0  0  0  0  0  0
  -26.9698  -28.7734   19.6889 C   0  0  0  0  0  0  0  0  0  0  0  0
  -25.1840  -26.4424   20.0388 C   0  0  0  0  0  0  0  0  0  0  0  0
  -24.4572  -31.5491   24.6782 C   0  0  0  0  0  0  0  0  0  0  0  0
  -29.9221  -13.6876   19.5567 C   0  0  0  0  0  0  0  0  0  0  0  0
  -25.0645  -30.1538   24.7843 C   0  0  0  0  0  0  0  0  0  0  0  0
  -29.0875  -12.4134   19.6331 C   0  0  0  0  0  0  0  0  0  0  0  0
  -29.1394  -14.9232   20.0030 C   0  0  0  0  0  0  0  0  0  0  0  0
  -27.0123  -13.8163   19.3691 C   0  0  0  0  0  0  0  0  0  0  0  0
  -27.3638  -18.7013   18.5602 C   0  0  0  0  0  0  0  0  0  0  0  0
  -28.2453  -17.9346   20.3384 C   0  0  0  0  0  0  0  0  0  0  0  0
  -26.3918  -30.0703   24.0209 C   0  0  1  0  0  0  0  0  0  0  0  0
  -25.6745  -28.8670   20.4895 C   0  0  1  0  0  0  0  0  0  0  0  0
  -27.7724  -12.5843   18.8582 C   0  0  2  0  0  0  0  0  0  0  0  0
  -27.4221  -19.1880   20.0124 C   0  0  0  0  0  0  0  0  0  0  0  0
  -31.2974  -22.9924   22.8481 C   0  0  0  0  0  0  0  0  0  0  0  0
  -26.1229  -21.8951   24.8454 C   0  0  0  0  0  0  0  0  0  0  0  0
  -19.8628  -26.0584   16.2072 C   0  0  0  0  0  0  0  0  0  0  0  0
  -22.0401  -26.7657   22.4224 C   0  0  0  0  0  0  0  0  0  0  0  0
  -20.4181  -25.7273   20.8228 C   0  0  0  0  0  0  0  0  0  0  0  0
  -20.4959  -28.2069   21.0835 C   0  0  0  0  0  0  0  0  0  0  0  0
  -23.3543  -26.9546   14.9899 C   0  0  0  0  0  0  0  0  0  0  0  0
  -30.5671  -21.9096   20.2346 C   0  0  0  0  0  0  0  0  0  0  0  0
  -27.3686  -21.0128   24.8234 C   0  0  0  0  0  0  0  0  0  0  0  0
  -30.3882  -23.3132   19.6450 C   0  0  0  0  0  0  0  0  0  1  0  0
  -22.3786  -27.0279   19.8763 C   0  0  1  0  0  0  0  0  0  0  0  0
  -21.2260  -26.7287   16.2775 C   0  0  2  0  0  0  0  0  0  0  0  0
  -21.3612  -26.9284   21.0478 C   0  0  0  0  0  0  0  0  0  0  0  0
  -26.0020  -11.2087   19.8862 N   0  0  0  0  0  0  0  0  0  0  0  0
  -29.3221  -21.9845   23.7890 N   0  0  0  0  0  0  0  0  0  0  0  0
  -27.7734  -20.6992   22.4637 N   0  0  0  0  0  0  0  0  0  0  0  0
  -26.9193  -11.3302   18.9116 N   0  0  0  0  0  0  0  0  0  0  0  0
  -24.7061  -27.8325   20.1207 N   0  0  0  0  0  0  0  0  0  0  0  0
  -27.8428  -15.0256   19.3223 N   0  0  0  0  0  0  0  0  0  0  0  0
  -27.7497  -17.3919   19.0809 N   0  0  0  0  0  0  0  0  0  0  0  0
  -27.8294  -10.2231   17.0256 N   0  0  0  0  0  0  0  0  0  0  0  0
  -24.6910   -7.3368   18.5141 N   0  0  0  0  0  0  0  0  0  0  0  0
  -28.1628  -20.3904   20.1617 N   0  0  0  0  0  0  0  0  0  0  0  0
  -26.1504  -29.9546   22.5987 N   0  0  0  0  0  0  0  0  0  0  0  0
  -21.7646  -27.2097   18.5655 N   0  0  0  0  0  0  0  0  0  0  0  0
  -22.0007  -26.3470   15.0630 N   0  3  0  0  0  0  0  0  0  0  0  0
  -26.3044   -7.6736   16.9197 O   0  0  0  0  0  0  0  0  0  0  0  0
  -25.8438  -27.6481   22.5047 O   0  0  0  0  0  0  0  0  0  0  0  0
  -22.9155  -29.3258   20.1167 O   0  0  0  0  0  0  0  0  0  0  0  0
  -22.6801  -25.3152   17.5909 O   0  0  0  0  0  0  0  0  0  0  0  0
  -26.5944  -16.0461   17.6735 O   0  0  0  0  0  0  0  0  0  0  0  0
  -21.3661   -8.0727   22.9231 O   0  0  0  0  0  0  0  0  0  0  0  0
  -29.0292  -23.5022   19.2721 O   0  0  0  0  0  0  0  0  0  1  0  0
  -21.6616   -2.8077   24.5344 F   0  0  0  0  0  0  0  0  0  0  0  0
  -21.3863   -6.0213   21.0700 F   0  0  0  0  0  0  0  0  0  0  0  0
  1  2  1  0  0  0  0
  1  5  2  0  0  0  0
  2  6  2  0  0  0  0
  3  8  2  0  0  0  0
  3 15  1  0  0  0  0
  4  9  1  0  0  0  0
  4 15  2  0  0  0  0
  5 17  1  0  0  0  0
  6 19  1  0  0  0  0
  7 10  2  0  0  0  0
  7 18  1  0  0  0  0
  8 22  1  0  0  0  0
  9 22  2  0  0  0  0
 10 23  1  0  0  0  0
 11 12  2  0  0  0  0
 11 24  1  0  0  0  0
 12 25  1  0  0  0  0
 13 20  1  0  0  0  0
 13 23  2  0  0  0  0
 14 25  2  0  0  0  0
 14 26  1  0  0  0  0
 15 27  1  0  0  0  0
 16 27  1  0  0  0  0
 16 30  2  0  0  0  0
 16 32  1  0  0  0  0
 17 19  2  0  0  0  0
 17 37  1  0  0  0  0
 18 20  2  0  0  0  0
 18 38  1  0  0  0  0
 19 48  1  0  0  0  0
 20 39  1  0  0  0  0
 21 28  1  0  0  0  0
 21 29  2  0  0  0  0
 21 59  1  0  0  0  0
 22 83  1  0  0  0  0
 23 84  1  0  0  0  0
 24 26  2  0  0  0  0
 24 83  1  0  0  0  0
 25 85  1  0  0  0  0
 26 86  1  0  0  0  0
 27 65  2  0  0  0  0
 28 52  1  0  0  0  0
 28 66  2  0  0  0  0
 29 67  1  0  0  0  0
 29 74  1  0  0  0  0
 30 68  1  0  0  0  0
 30 72  1  0  0  0  0
 31 60  1  0  0  0  0
 31 66  1  0  0  0  0
 31 67  2  0  0  0  0
 32 73  1  0  0  0  0
 32 78  2  0  0  0  0
 33 49  1  0  0  0  0
 33 75  1  0  0  0  0
 33 79  2  0  0  0  0
 34 62  1  0  0  0  0
 34 69  1  0  0  0  0
 34 80  2  0  0  0  0
 35 63  1  0  0  0  0
 35 76  1  0  0  0  0
 35 81  2  0  0  0  0
 36 70  1  0  0  0  0
 36 71  1  0  0  0  0
 36 82  2  0  0  0  0
 37 40  1  0  0  0  0
 38 49  1  0  0  0  0
 39 69  1  0  0  0  0
 40 42  1  0  0  0  0
 41 43  1  0  0  0  0
 41 44  1  0  0  0  0
 42 48  1  0  0  0  0
 43 50  1  0  0  0  0
 44 70  1  0  0  0  0
 45 50  1  0  0  0  0
 45 70  1  0  0  0  0
 46 51  1  0  0  0  0
 46 71  1  0  0  0  0
 47 51  1  0  0  0  0
 47 71  1  0  0  0  0
 48 75  1  0  0  0  0
 49 69  1  0  0  0  0
 50 68  1  0  0  0  0
 51 74  1  0  0  0  0
 53 60  1  0  0  0  0
 54 63  1  0  0  0  0
 55 64  1  0  0  0  0
 56 64  1  0  0  0  0
 57 64  1  0  0  0  0
 58 77  1  0  0  0  0
 59 61  1  0  0  0  0
 61 84  1  0  0  0  0
 62 64  1  0  0  0  0
 62 76  1  0  0  0  0
 63 77  1  0  0  0  0
 65 68  1  0  0  0  0
M  CHG  1  77   1
M  ISO  4  36 100  61 101  71 100  84 101
M  END
> <Batch ID>
0187

> <Smiles>
CCc1nc(C)c(C[101CH2:1][101O:1]c2ccc3c(c2)CN(C(=O)C(NC(=O)C(C)NC)C(C)(C)C)C(C(=O)NC2CCCc4ccccc42)C3)c(NC2C[100N:0]([100C:0](=O)N3CCCC(n4nc(-c5ccc(Oc6ccc(F)cc6F)cc5)c(C(N)=O)c4N)C3)C2)n1

> <Shape>
0.301

> <Color>
0.072

> <Negative vol penalty>
0.000

$$$$

  -OEChem-04052323173D

 88 98  0     1  0  0  0  0  0999 V2000
  -16.8005  -31.1768   20.3807 C   0  0  0  0  0  0  0  0  0  0  0  0
  -18.0741  -31.7365   20.3743 C   0  0  0  0  0  0  0  0  0  0  0  0
  -24.0805  -14.6774   23.6376 C   0  0  0  0  0  0  0  0  0  0  0  0
  -23.0853  -15.7149   21.6959 C   0  0  0  0  0  0  0  0  0  0  0  0
  -16.4777  -30.1922   21.3136 C   0  0  0  0  0  0  0  0  0  0  0  0
  -19.0254  -31.3126   21.3015 C   0  0  0  0  0  0  0  0  0  0  0  0
  -25.3079  -28.5172   19.1551 C   0  0  0  0  0  0  0  0  0  0  0  0
  -23.4068  -15.5770   24.4636 C   0  0  0  0  0  0  0  0  0  0  0  0
  -22.4115  -16.6145   22.5220 C   0  0  0  0  0  0  0  0  0  0  0  0
  -26.6174  -28.1673   18.8250 C   0  0  0  0  0  0  0  0  0  0  0  0
  -20.2866  -15.9585   25.7094 C   0  0  0  0  0  0  0  0  0  0  0  0
  -19.6567  -15.4492   26.8448 C   0  0  0  0  0  0  0  0  0  0  0  0
  -30.3999  -25.0340   20.6261 C   0  0  0  0  0  0  0  0  0  0  0  0
  -27.1201  -27.8012   21.1620 C   0  0  0  0  0  0  0  0  0  0  0  0
  -29.5571  -23.5826   18.9034 C   0  0  0  0  0  0  0  0  0  0  0  0
  -21.0345  -16.8590   28.2416 C   0  0  0  0  0  0  0  0  0  0  0  0
  -30.2541  -23.9785   21.5117 C   0  0  0  0  0  0  0  0  0  0  0  0
  -23.9198  -14.7463   22.2537 C   0  0  0  0  0  0  0  0  0  0  0  0
  -24.1600  -12.5601   20.9613 C   0  0  0  0  0  0  0  0  0  0  0  0
  -17.4285  -29.7492   22.2465 C   0  0  0  0  0  0  0  0  0  0  0  0
  -24.8947  -28.4955   20.4901 C   0  0  0  0  0  0  0  0  0  0  0  0
  -18.7146  -30.3221   22.2487 C   0  0  0  0  0  0  0  0  0  0  0  0
  -30.0425  -24.8241   19.2988 C   0  0  0  0  0  0  0  0  0  0  0  0
  -25.8061  -28.1386   21.4975 C   0  0  0  0  0  0  0  0  0  0  0  0
  -22.5722  -16.5455   23.9059 C   0  0  0  0  0  0  0  0  0  0  0  0
  -27.5213  -27.8105   19.8260 C   0  0  0  0  0  0  0  0  0  0  0  0
  -21.2906  -16.9181   25.8400 C   0  0  0  0  0  0  0  0  0  0  0  0
  -20.0306  -15.8994   28.1110 C   0  0  0  0  0  0  0  0  0  0  0  0
  -21.6645  -17.3683   27.1061 C   0  0  0  0  0  0  0  0  0  0  0  0
  -24.6160  -13.8177   21.3998 C   0  0  0  0  0  0  0  0  0  0  0  0
  -29.4492  -22.5920   19.8661 C   0  0  0  0  0  0  0  0  0  0  0  0
  -25.1811  -12.0782   20.1793 C   0  0  0  0  0  0  0  0  0  0  0  0
  -22.9239  -11.8877   21.2362 C   0  0  0  0  0  0  0  0  0  0  0  0
  -22.1036  -29.0228   22.9411 C   0  0  0  0  0  0  0  0  0  0  0  0
  -23.6244  -26.5178   23.8480 C   0  0  0  0  0  0  0  0  0  0  0  0
  -25.3051  -23.5790   24.2672 C   0  0  0  0  0  0  0  0  0  0  0  0
  -29.1725  -16.0008   21.0106 C   0  0  0  0  0  0  0  0  0  0  0  0
  -17.0185  -28.7162   23.2661 C   0  0  0  0  0  0  0  0  0  0  0  0
  -23.5112  -28.9241   20.8977 C   0  0  0  0  0  0  0  0  0  0  0  0
  -25.3271  -28.1628   22.9232 C   0  0  0  0  0  0  0  0  0  0  0  0
  -18.1995  -28.0556   23.9726 C   0  0  0  0  0  0  0  0  0  0  0  0
  -27.3365  -14.9973   17.9061 C   0  0  0  0  0  0  0  0  0  0  0  0
  -19.2087  -29.1072   24.4225 C   0  0  0  0  0  0  0  0  0  0  0  0
  -27.3754  -13.4752   18.0235 C   0  0  0  0  0  0  0  0  0  0  0  0
  -30.1490  -19.5548   20.5848 C   0  0  0  0  0  0  0  0  0  0  0  0
  -27.7938  -19.2495   19.7435 C   0  0  0  0  0  0  0  0  0  0  0  0
  -31.5654  -26.5088   18.0748 C   0  0  0  0  0  0  0  0  0  0  0  0
  -28.5339  -15.6262   18.6043 C   0  0  0  0  0  0  0  0  0  0  0  0
  -29.9936  -18.2901   21.4263 C   0  0  0  0  0  0  0  0  0  0  0  0
  -27.6785  -17.9940   20.6030 C   0  0  0  0  0  0  0  0  0  0  0  0
  -28.6582  -13.7281   20.1951 C   0  0  0  0  0  0  0  0  0  0  0  0
  -19.7815  -29.8710   23.2225 C   0  0  1  0  0  0  0  0  0  0  0  0
  -22.9612  -28.1284   22.0950 C   0  0  1  0  0  0  0  0  0  0  0  0
  -27.4972  -13.0027   19.4854 C   0  0  1  0  0  0  0  0  0  0  0  0
  -28.7986  -20.2328   20.3465 C   0  0  0  0  0  0  0  0  0  0  0  0
  -30.9475  -25.6361   17.0340 C   0  0  1  0  0  0  0  0  0  0  0  0
  -30.1791  -25.9255   18.3051 C   0  0  1  0  0  0  0  0  0  0  0  0
  -25.4180  -21.5712   25.7684 C   0  0  0  0  0  0  0  0  0  0  0  0
  -25.0640  -28.1825   25.9599 C   0  0  0  0  0  0  0  0  0  0  0  0
  -25.9615  -26.0534   26.9242 C   0  0  0  0  0  0  0  0  0  0  0  0
  -23.5006  -26.4591   26.8767 C   0  0  0  0  0  0  0  0  0  0  0  0
  -24.6328  -21.7383   22.0493 C   0  0  0  0  0  0  0  0  0  0  0  0
  -29.0040  -26.8603   18.2267 C   0  0  0  0  0  0  0  0  0  1  0  0
  -24.7141  -25.9456   24.7190 C   0  0  1  0  0  0  0  0  0  0  0  0
  -24.8138  -22.1623   24.5042 C   0  0  2  0  0  0  0  0  0  0  0  0
  -24.8147  -26.6668   26.0927 C   0  0  0  0  0  0  0  0  0  0  0  0
  -29.7863  -22.7585   21.1647 N   0  0  0  0  0  0  0  0  0  0  0  0
  -25.8322  -14.1159   20.9352 N   0  0  0  0  0  0  0  0  0  0  0  0
  -26.1491  -13.0388   20.1966 N   0  0  0  0  0  0  0  0  0  0  0  0
  -23.9780  -27.5822   23.0098 N   0  0  0  0  0  0  0  0  0  0  0  0
  -28.6451  -15.1804   19.9977 N   0  0  0  0  0  0  0  0  0  0  0  0
  -28.9917  -17.3865   20.8599 N   0  0  0  0  0  0  0  0  0  0  0  0
  -25.3365  -10.9306   19.4856 N   0  0  0  0  0  0  0  0  0  0  0  0
  -21.9851  -12.5251   22.0588 N   0  0  0  0  0  0  0  0  0  0  0  0
  -28.9652  -21.3617   19.4579 N   0  0  0  0  0  0  0  0  0  0  0  0
  -20.7806  -29.0726   22.5453 N   0  0  0  0  0  0  0  0  0  0  0  0
  -24.4513  -24.5137   24.8137 N   0  0  0  0  0  0  0  0  0  0  0  0
  -25.1807  -21.2877   23.3546 N   0  3  0  0  0  0  0  0  0  0  0  0
  -22.6664  -10.7481   20.7795 O   0  0  0  0  0  0  0  0  0  0  0  0
  -22.6039  -29.6232   23.8851 O   0  0  0  0  0  0  0  0  0  0  0  0
  -22.4883  -26.0397   23.9112 O   0  0  0  0  0  0  0  0  0  0  0  0
  -26.3443  -23.8310   23.6615 O   0  0  0  0  0  0  0  0  0  0  0  0
  -29.7629  -15.5256   21.9886 O   0  0  0  0  0  0  0  0  0  0  0  0
  -21.9145  -17.4233   24.7116 O   0  0  0  0  0  0  0  0  0  0  0  0
  -28.8083  -27.4626   19.4934 O   0  0  0  0  0  0  0  0  0  1  0  0
  -19.4245  -15.4113   29.2012 F   0  0  0  0  0  0  0  0  0  0  0  0
  -22.6275  -18.2909   27.2378 F   0  0  0  0  0  0  0  0  0  0  0  0
  -30.5237  -26.2419   15.8634 F   0  0  0  0  0  0  0  0  0  0  0  0
  1  2  1  0  0  0  0
  1  5  2  0  0  0  0
  2  6  2  0  0  0  0
  3  8  2  0  0  0  0
  3 18  1  0  0  0  0
  4  9  1  0  0  0  0
  4 18  2  0  0  0  0
  5 20  1  0  0  0  0
  6 22  1  0  0  0  0
  7 10  2  0  0  0  0
  7 21  1  0  0  0  0
  8 25  1  0  0  0  0
  9 25  2  0  0  0  0
 10 26  1  0  0  0  0
 11 12  2  0  0  0  0
 11 27  1  0  0  0  0
 12 28  1  0  0  0  0
 13 17  2  0  0  0  0
 13 23  1  0  0  0  0
 14 24  1  0  0  0  0
 14 26  2  0  0  0  0
 15 23  2  0  0  0  0
 15 31  1  0  0  0  0
 16 28  2  0  0  0  0
 16 29  1  0  0  0  0
 17 67  1  0  0  0  0
 18 30  1  0  0  0  0
 19 30  1  0  0  0  0
 19 32  2  0  0  0  0
 19 33  1  0  0  0  0
 20 22  2  0  0  0  0
 20 38  1  0  0  0  0
 21 24  2  0  0  0  0
 21 39  1  0  0  0  0
 22 52  1  0  0  0  0
 23 57  1  0  0  0  0
 24 40  1  0  0  0  0
 25 84  1  0  0  0  0
 26 85  1  0  0  0  0
 27 29  2  0  0  0  0
 27 84  1  0  0  0  0
 28 86  1  0  0  0  0
 29 87  1  0  0  0  0
 30 68  2  0  0  0  0
 31 67  2  0  0  0  0
 31 75  1  0  0  0  0
 32 69  1  0  0  0  0
 32 73  1  0  0  0  0
 33 74  1  0  0  0  0
 33 79  2  0  0  0  0
 34 53  1  0  0  0  0
 34 76  1  0  0  0  0
 34 80  2  0  0  0  0
 35 64  1  0  0  0  0
 35 70  1  0  0  0  0
 35 81  2  0  0  0  0
 36 65  1  0  0  0  0
 36 77  1  0  0  0  0
 36 82  2  0  0  0  0
 37 71  1  0  0  0  0
 37 72  1  0  0  0  0
 37 83  2  0  0  0  0
 38 41  1  0  0  0  0
 39 53  1  0  0  0  0
 40 70  1  0  0  0  0
 41 43  1  0  0  0  0
 42 44  1  0  0  0  0
 42 48  1  0  0  0  0
 43 52  1  0  0  0  0
 44 54  1  0  0  0  0
 45 49  1  0  0  0  0
 45 55  1  0  0  0  0
 46 50  1  0  0  0  0
 46 55  1  0  0  0  0
 47 56  1  0  0  0  0
 47 57  1  0  0  0  0
 48 71  1  0  0  0  0
 49 72  1  0  0  0  0
 50 72  1  0  0  0  0
 51 54  1  0  0  0  0
 51 71  1  0  0  0  0
 52 76  1  0  0  0  0
 53 70  1  0  0  0  0
 54 69  1  0  0  0  0
 55 75  1  0  0  0  0
 56 57  1  0  0  0  0
 56 88  1  0  0  0  0
 57 63  1  0  0  0  0
 58 65  1  0  0  0  0
 59 66  1  0  0  0  0
 60 66  1  0  0  0  0
 61 66  1  0  0  0  0
 62 78  1  0  0  0  0
 63 85  1  0  0  0  0
 64 66  1  0  0  0  0
 64 77  1  0  0  0  0
 65 78  1  0  0  0  0
 68 69  1  0  0  0  0
M  CHG  1  78   1
M  ISO  4  37 100  63 101  72 100  85 101
M  END
> <Batch ID>
0187

> <Smiles>
CNC(C)C(=O)NC(C(=O)N1Cc2cc([101O:1][101CH2:1]C3(c4ccnc(NC5CC[100N:0]([100C:0](=O)N6CCCC(n7nc(-c8ccc(Oc9ccc(F)cc9F)cc8)c(C(N)=O)c7N)C6)CC5)c4)CC3F)ccc2CC1C(=O)NC1CCCc2ccccc21)C(C)(C)C

> <Shape>
0.246

> <Color>
0.096

> <Negative vol penalty>
0.000

$$$$

  -OEChem-04052323173D

 80 89  0     1  0  0  0  0  0999 V2000
  -16.5329  -29.2024   23.8754 C   0  0  0  0  0  0  0  0  0  0  0  0
  -17.0920  -29.8356   22.7711 C   0  0  0  0  0  0  0  0  0  0  0  0
  -24.9953  -14.8895   22.0788 C   0  0  0  0  0  0  0  0  0  0  0  0
  -24.6824  -14.0641   19.8299 C   0  0  0  0  0  0  0  0  0  0  0  0
  -17.3538  -28.5289   24.7775 C   0  0  0  0  0  0  0  0  0  0  0  0
  -18.4706  -29.7855   22.5622 C   0  0  0  0  0  0  0  0  0  0  0  0
  -26.2058  -29.4977   19.4823 C   0  0  0  0  0  0  0  0  0  0  0  0
  -25.0537  -13.5786   22.5518 C   0  0  0  0  0  0  0  0  0  0  0  0
  -24.7408  -12.7532   20.3029 C   0  0  0  0  0  0  0  0  0  0  0  0
  -27.3798  -28.8360   19.8398 C   0  0  0  0  0  0  0  0  0  0  0  0
  -22.6824  -10.5757   21.8688 C   0  0  0  0  0  0  0  0  0  0  0  0
  -21.7301   -9.6730   21.3956 C   0  0  0  0  0  0  0  0  0  0  0  0
  -26.0980  -26.8639   20.3755 C   0  0  0  0  0  0  0  0  0  0  0  0
  -23.4917   -8.2876   20.4931 C   0  0  0  0  0  0  0  0  0  0  0  0
  -24.8096  -15.1323   20.7178 C   0  0  0  0  0  0  0  0  0  0  0  0
  -23.8224  -17.4813   20.5945 C   0  0  0  0  0  0  0  0  0  0  0  0
  -18.7444  -28.4816   24.5855 C   0  0  0  0  0  0  0  0  0  0  0  0
  -24.9659  -28.8499   19.5792 C   0  0  0  0  0  0  0  0  0  0  0  0
  -19.3133  -29.0905   23.4484 C   0  0  0  0  0  0  0  0  0  0  0  0
  -24.9101  -27.5187   20.0162 C   0  0  0  0  0  0  0  0  0  0  0  0
  -24.9264  -12.5105   21.6639 C   0  0  0  0  0  0  0  0  0  0  0  0
  -27.3257  -27.5199   20.2893 C   0  0  0  0  0  0  0  0  0  0  0  0
  -24.0394  -10.3344   21.6540 C   0  0  0  0  0  0  0  0  0  0  0  0
  -22.1348   -8.5289   20.7078 C   0  0  0  0  0  0  0  0  0  0  0  0
  -24.4440   -9.1904   20.9662 C   0  0  0  0  0  0  0  0  0  0  0  0
  -24.7486  -16.4862   20.2287 C   0  0  0  0  0  0  0  0  0  0  0  0
  -24.1888  -18.5797   19.8556 C   0  0  0  0  0  0  0  0  0  0  0  0
  -22.7287  -17.4185   21.5194 C   0  0  0  0  0  0  0  0  0  0  0  0
  -22.3021  -29.3417   21.2423 C   0  0  0  0  0  0  0  0  0  0  0  0
  -21.1823  -26.8955   19.4300 C   0  0  0  0  0  0  0  0  0  0  0  0
  -22.4166  -23.7218   18.2377 C   0  0  0  0  0  0  0  0  0  0  0  0
  -29.3667  -20.2304   17.5682 C   0  0  0  0  0  0  0  0  0  0  0  0
  -19.5850  -27.7320   25.5889 C   0  0  0  0  0  0  0  0  0  0  0  0
  -23.7115  -29.5687   19.1643 C   0  0  0  0  0  0  0  0  0  0  0  0
  -23.6062  -26.7718   20.1190 C   0  0  0  0  0  0  0  0  0  0  0  0
  -21.0618  -28.1082   25.5263 C   0  0  0  0  0  0  0  0  0  0  0  0
  -26.2850  -19.7849   15.7257 C   0  0  0  0  0  0  0  0  0  0  0  0
  -21.5523  -28.0506   24.0874 C   0  0  0  0  0  0  0  0  0  0  0  0
  -25.4515  -18.9769   16.7218 C   0  0  0  0  0  0  0  0  0  0  0  0
  -32.0187  -22.2030   15.6698 C   0  0  0  0  0  0  0  0  0  0  0  0
  -32.1482  -23.6183   16.2721 C   0  0  0  0  0  0  0  0  0  0  0  0
  -30.6574  -25.7889   19.9739 C   0  0  0  0  0  0  0  0  0  0  0  0
  -29.1407  -25.7427   18.4724 C   0  0  0  0  0  0  0  0  0  0  0  0
  -27.7523  -19.3670   15.7640 C   0  0  0  0  0  0  0  0  0  0  0  0
  -27.5487  -18.6385   18.1084 C   0  0  0  0  0  0  0  0  0  0  0  0
  -20.8135  -29.0752   23.2171 C   0  0  1  0  0  0  0  0  0  0  0  0
  -22.4509  -28.9810   19.7913 C   0  0  1  0  0  0  0  0  0  0  0  0
  -26.0605  -19.0313   18.1352 C   0  0  2  0  0  0  0  0  0  0  0  0
  -31.1477  -21.8380   16.8959 C   0  0  1  0  0  0  0  0  0  0  0  0
  -30.8130  -23.3470   17.0006 C   0  0  1  0  0  0  0  0  0  0  0  0
  -30.6159  -25.2945   18.5134 C   0  0  0  0  0  0  0  0  0  0  0  0
  -29.4748  -26.7229   19.6227 C   0  0  0  0  0  0  0  0  0  1  0  0
  -21.7969  -22.3905   16.2028 C   0  0  0  0  0  0  0  0  0  0  0  0
  -19.2486  -25.4674   21.3091 C   0  0  0  0  0  0  0  0  0  0  0  0
  -19.7896  -23.3277   20.1270 C   0  0  0  0  0  0  0  0  0  0  0  0
  -18.7248  -25.2061   18.8777 C   0  0  0  0  0  0  0  0  0  0  0  0
  -25.2243  -23.6190   17.3074 C   0  0  0  0  0  0  0  0  0  0  0  0
  -21.1507  -25.3922   19.5649 C   0  0  1  0  0  0  0  0  0  0  0  0
  -22.7895  -23.3705   16.8087 C   0  0  2  0  0  0  0  0  0  0  0  0
  -19.7491  -24.8639   19.9816 C   0  0  0  0  0  0  0  0  0  0  0  0
  -25.6365  -16.9144   19.3274 N   0  0  0  0  0  0  0  0  0  0  0  0
  -25.2699  -18.1907   19.1206 N   0  0  0  0  0  0  0  0  0  0  0  0
  -22.4066  -27.5198   19.7078 N   0  0  0  0  0  0  0  0  0  0  0  0
  -28.2763  -19.4597   17.1343 N   0  0  0  0  0  0  0  0  0  0  0  0
  -23.6885  -19.8305   19.7694 N   0  0  0  0  0  0  0  0  0  0  0  0
  -22.4926  -16.2129   22.1940 N   0  0  0  0  0  0  0  0  0  0  0  0
  -21.1528  -28.8481   21.8296 N   0  0  0  0  0  0  0  0  0  0  0  0
  -21.6381  -24.8583   18.2978 N   0  0  0  0  0  0  0  0  0  0  0  0
  -30.0074  -20.9863   16.5923 N   0  0  0  0  0  0  0  0  0  0  0  0
  -30.7913  -23.8450   18.3808 N   0  3  0  0  0  0  0  0  0  0  0  0
  -24.1456  -22.7542   16.7638 N   0  3  0  0  0  0  0  0  0  0  0  0
  -21.9729  -18.3975   21.7290 O   0  0  0  0  0  0  0  0  0  0  0  0
  -23.1667  -30.0165   21.7889 O   0  0  0  0  0  0  0  0  0  0  0  0
  -20.1603  -27.4931   19.0836 O   0  0  0  0  0  0  0  0  0  0  0  0
  -22.7767  -23.0527   19.2037 O   0  0  0  0  0  0  0  0  0  0  0  0
  -29.7457  -20.2531   18.7445 O   0  0  0  0  0  0  0  0  0  0  0  0
  -24.9836  -11.2312   22.1250 O   0  0  0  0  0  0  0  0  0  0  0  0
  -28.4700  -26.8720   20.6395 O   0  0  0  0  0  0  0  0  0  1  0  0
  -21.2202   -7.6614   20.2549 F   0  0  0  0  0  0  0  0  0  0  0  0
  -25.7463   -8.9526   20.7579 F   0  0  0  0  0  0  0  0  0  0  0  0
  1  2  1  0  0  0  0
  1  5  2  0  0  0  0
  2  6  2  0  0  0  0
  3  8  2  0  0  0  0
  3 15  1  0  0  0  0
  4  9  1  0  0  0  0
  4 15  2  0  0  0  0
  5 17  1  0  0  0  0
  6 19  1  0  0  0  0
  7 10  2  0  0  0  0
  7 18  1  0  0  0  0
  8 21  1  0  0  0  0
  9 21  2  0  0  0  0
 10 22  1  0  0  0  0
 11 12  2  0  0  0  0
 11 23  1  0  0  0  0
 12 24  1  0  0  0  0
 13 20  1  0  0  0  0
 13 22  2  0  0  0  0
 14 24  2  0  0  0  0
 14 25  1  0  0  0  0
 15 26  1  0  0  0  0
 16 26  1  0  0  0  0
 16 27  2  0  0  0  0
 16 28  1  0  0  0  0
 17 19  2  0  0  0  0
 17 33  1  0  0  0  0
 18 20  2  0  0  0  0
 18 34  1  0  0  0  0
 19 46  1  0  0  0  0
 20 35  1  0  0  0  0
 21 77  1  0  0  0  0
 22 78  1  0  0  0  0
 23 25  2  0  0  0  0
 23 77  1  0  0  0  0
 24 79  1  0  0  0  0
 25 80  1  0  0  0  0
 26 61  2  0  0  0  0
 27 62  1  0  0  0  0
 27 65  1  0  0  0  0
 28 66  1  0  0  0  0
 28 72  2  0  0  0  0
 29 47  1  0  0  0  0
 29 67  1  0  0  0  0
 29 73  2  0  0  0  0
 30 58  1  0  0  0  0
 30 63  1  0  0  0  0
 30 74  2  0  0  0  0
 31 59  1  0  0  0  0
 31 68  1  0  0  0  0
 31 75  2  0  0  0  0
 32 64  1  0  0  0  0
 32 69  1  0  0  0  0
 32 76  2  0  0  0  0
 33 36  1  0  0  0  0
 34 47  1  0  0  0  0
 35 63  1  0  0  0  0
 36 38  1  0  0  0  0
 37 39  1  0  0  0  0
 37 44  1  0  0  0  0
 38 46  1  0  0  0  0
 39 48  1  0  0  0  0
 40 41  1  0  0  0  0
 40 49  1  0  0  0  0
 41 50  1  0  0  0  0
 42 51  1  0  0  0  0
 42 52  1  0  0  0  0
 43 51  1  0  0  0  0
 43 52  1  0  0  0  0
 44 64  1  0  0  0  0
 45 48  1  0  0  0  0
 45 64  1  0  0  0  0
 46 67  1  0  0  0  0
 47 63  1  0  0  0  0
 48 62  1  0  0  0  0
 49 50  1  0  0  0  0
 49 69  1  0  0  0  0
 50 70  1  0  0  0  0
 51 70  1  0  0  0  0
 52 78  1  0  0  0  0
 53 59  1  0  0  0  0
 54 60  1  0  0  0  0
 55 60  1  0  0  0  0
 56 60  1  0  0  0  0
 57 71  1  0  0  0  0
 58 60  1  0  0  0  0
 58 68  1  0  0  0  0
 59 71  1  0  0  0  0
 61 62  1  0  0  0  0
M  CHG  2  70   1  71   1
M  ISO  4  32 100  52 101  69 100  78 101
M  END
> <Batch ID>
0187

> <Smiles>
CNC(C)C(=O)NC(C(=O)N1Cc2cc([101O:1][101CH:1]3CC(NC4CCC4[100NH:0][100C:0](=O)N4CCCC(n5nc(-c6ccc(Oc7ccc(F)cc7F)cc6)c(C(N)=O)c5N)C4)C3)ccc2CC1C(=O)NC1CCCc2ccccc21)C(C)(C)C

> <Shape>
0.218

> <Color>
0.085

> <Negative vol penalty>
0.000

$$$$

  -OEChem-04052323173D

 84 93  0     1  0  0  0  0  0999 V2000
  -32.3618  -13.9006   21.3638 C   0  0  0  0  0  0  0  0  0  0  0  0
  -31.6108  -15.0508   21.5840 C   0  0  0  0  0  0  0  0  0  0  0  0
  -28.5599  -25.9595   20.6241 C   0  0  0  0  0  0  0  0  0  0  0  0
  -26.7400  -24.9542   21.8547 C   0  0  0  0  0  0  0  0  0  0  0  0
  -31.8023  -12.8255   20.6747 C   0  0  0  0  0  0  0  0  0  0  0  0
  -30.3001  -15.1269   21.1142 C   0  0  0  0  0  0  0  0  0  0  0  0
  -25.5922  -17.9914   23.7855 C   0  0  0  0  0  0  0  0  0  0  0  0
  -22.5306  -24.6586   21.3690 C   0  0  0  0  0  0  0  0  0  0  0  0
  -29.4419  -25.0230   21.1633 C   0  0  0  0  0  0  0  0  0  0  0  0
  -27.6220  -24.0177   22.3940 C   0  0  0  0  0  0  0  0  0  0  0  0
  -25.0105  -19.2402   23.5716 C   0  0  0  0  0  0  0  0  0  0  0  0
  -29.3281  -21.1387   23.8148 C   0  0  0  0  0  0  0  0  0  0  0  0
  -28.9225  -19.8044   23.8405 C   0  0  0  0  0  0  0  0  0  0  0  0
  -23.2663  -23.5071   21.6262 C   0  0  0  0  0  0  0  0  0  0  0  0
  -23.3480  -18.2165   22.1548 C   0  0  0  0  0  0  0  0  0  0  0  0
  -28.7202  -19.8197   21.4330 C   0  0  0  0  0  0  0  0  0  0  0  0
  -21.6594  -24.5328   23.5785 C   0  0  0  0  0  0  0  0  0  0  0  0
  -27.2090  -25.9251   20.9698 C   0  0  0  0  0  0  0  0  0  0  0  0
  -26.0061  -27.1013   19.0522 C   0  0  0  0  0  0  0  0  0  0  0  0
  -21.7094  -25.1877   22.3585 C   0  0  0  0  0  0  0  0  0  0  0  0
  -30.4809  -12.8847   20.2046 C   0  0  0  0  0  0  0  0  0  0  0  0
  -25.0618  -16.8453   23.1759 C   0  0  0  0  0  0  0  0  0  0  0  0
  -29.7229  -14.0521   20.4170 C   0  0  0  0  0  0  0  0  0  0  0  0
  -23.9233  -16.9539   22.3646 C   0  0  0  0  0  0  0  0  0  0  0  0
  -28.9729  -24.0521   22.0482 C   0  0  0  0  0  0  0  0  0  0  0  0
  -23.8900  -19.3533   22.7538 C   0  0  0  0  0  0  0  0  0  0  0  0
  -29.4297  -21.8136   22.5983 C   0  0  0  0  0  0  0  0  0  0  0  0
  -28.6186  -19.1449   22.6495 C   0  0  0  0  0  0  0  0  0  0  0  0
  -29.1258  -21.1541   21.4074 C   0  0  0  0  0  0  0  0  0  0  0  0
  -26.2975  -26.8925   20.4135 C   0  0  0  0  0  0  0  0  0  0  0  0
  -23.1467  -22.9275   22.8791 C   0  0  0  0  0  0  0  0  0  0  0  0
  -25.0880  -28.1229   19.0503 C   0  0  0  0  0  0  0  0  0  0  0  0
  -26.5193  -26.4316   17.8930 C   0  0  0  0  0  0  0  0  0  0  0  0
  -26.1493  -14.7062   21.0914 C   0  0  0  0  0  0  0  0  0  0  0  0
  -23.3333  -13.2285   21.7306 C   0  0  0  0  0  0  0  0  0  0  0  0
  -20.1059  -13.4858   22.8098 C   0  0  0  0  0  0  0  0  0  0  0  0
  -21.1380  -30.0899   22.9414 C   0  0  0  0  0  0  0  0  0  0  0  0
  -29.9351  -11.7156   19.4236 C   0  0  0  0  0  0  0  0  0  0  0  0
  -25.6849  -15.5017   23.4382 C   0  0  0  0  0  0  0  0  0  0  0  0
  -23.3032  -15.7512   21.7032 C   0  0  0  0  0  0  0  0  0  0  0  0
  -28.4149  -11.7317   19.2856 C   0  0  0  0  0  0  0  0  0  0  0  0
  -23.7249  -31.9521   21.5659 C   0  0  0  0  0  0  0  0  0  0  0  0
  -27.9305  -13.1199   18.8793 C   0  0  0  0  0  0  0  0  0  0  0  0
  -24.6623  -30.8971   20.9790 C   0  0  0  0  0  0  0  0  0  0  0  0
  -18.6098  -27.5495   22.0355 C   0  0  0  0  0  0  0  0  0  0  0  0
  -23.1725  -31.5028   22.9140 C   0  0  0  0  0  0  0  0  0  0  0  0
  -19.1310  -28.6509   22.9547 C   0  0  0  0  0  0  0  0  0  0  0  0
  -21.3547  -27.5739   23.0472 C   0  0  0  0  0  0  0  0  0  0  0  0
  -23.3877  -29.1220   22.2786 C   0  0  0  0  0  0  0  0  0  0  0  0
  -20.8925  -26.4443   22.1090 C   0  0  2  0  0  0  0  0  0  0  0  0
  -28.2895  -14.1631   19.9444 C   0  0  1  0  0  0  0  0  0  0  0  0
  -25.3695  -14.4750   22.3547 C   0  0  1  0  0  0  0  0  0  0  0  0
  -23.9714  -29.5241   20.9098 C   0  0  2  0  0  0  0  0  0  0  0  0
  -19.3698  -26.2387   22.2499 C   0  0  2  0  0  0  0  0  0  0  0  0
  -18.0392  -12.1131   23.1859 C   0  0  0  0  0  0  0  0  0  0  0  0
  -22.8143  -13.1907   18.7241 C   0  0  0  0  0  0  0  0  0  0  0  0
  -20.4077  -12.7065   19.2160 C   0  0  0  0  0  0  0  0  0  0  0  0
  -22.1724  -11.0902   19.9200 C   0  0  0  0  0  0  0  0  0  0  0  0
  -20.0857  -14.0981   25.7053 C   0  0  0  0  0  0  0  0  0  0  0  0
  -23.9221  -21.6910   23.1898 C   0  0  0  0  0  0  0  0  0  1  0  0
  -21.9403  -13.2859   21.1516 C   0  0  1  0  0  0  0  0  0  0  0  0
  -19.3101  -12.6674   23.8105 C   0  0  2  0  0  0  0  0  0  0  0  0
  -21.8463  -12.5915   19.7637 C   0  0  0  0  0  0  0  0  0  0  0  0
  -22.3593  -23.4123   23.8653 N   0  0  0  0  0  0  0  0  0  0  0  0
  -25.6196  -27.7154   21.2181 N   0  0  0  0  0  0  0  0  0  0  0  0
  -24.8932  -28.4513   20.3597 N   0  0  0  0  0  0  0  0  0  0  0  0
  -23.9526  -14.4603   21.9853 N   0  0  0  0  0  0  0  0  0  0  0  0
  -22.5316  -30.1916   22.8127 N   0  0  0  0  0  0  0  0  0  0  0  0
  -20.5804  -28.8053   22.8312 N   0  0  0  0  0  0  0  0  0  0  0  0
  -24.4366  -28.7633   18.0564 N   0  0  0  0  0  0  0  0  0  0  0  0
  -25.8434  -25.2975   17.4225 N   0  0  0  0  0  0  0  0  0  0  0  0
  -27.3783  -14.0751   21.0654 N   0  0  0  0  0  0  0  0  0  0  0  0
  -21.0540  -12.7212   22.1636 N   0  0  0  0  0  0  0  0  0  0  0  0
  -18.8957  -25.2553   21.2343 N   0  3  0  0  0  0  0  0  0  0  0  0
  -18.9306  -13.5074   24.9815 N   0  3  0  0  0  0  0  0  0  0  0  0
  -27.5562  -26.8176   17.3018 O   0  0  0  0  0  0  0  0  0  0  0  0
  -25.6708  -15.4043   20.2051 O   0  0  0  0  0  0  0  0  0  0  0  0
  -23.8500  -12.1312   21.9554 O   0  0  0  0  0  0  0  0  0  0  0  0
  -19.9040  -14.6829   22.6177 O   0  0  0  0  0  0  0  0  0  0  0  0
  -20.4314  -31.0863   23.1395 O   0  0  0  0  0  0  0  0  0  0  0  0
  -29.8333  -23.1381   22.5744 O   0  0  0  0  0  0  0  0  0  0  0  0
  -23.3166  -20.5797   22.5413 O   0  0  0  0  0  0  0  0  0  1  0  0
  -28.2306  -17.8631   22.6742 F   0  0  0  0  0  0  0  0  0  0  0  0
  -29.2226  -21.7968   20.2355 F   0  0  0  0  0  0  0  0  0  0  0  0
  1  2  1  0  0  0  0
  1  5  2  0  0  0  0
  2  6  2  0  0  0  0
  3  9  2  0  0  0  0
  3 18  1  0  0  0  0
  4 10  1  0  0  0  0
  4 18  2  0  0  0  0
  5 21  1  0  0  0  0
  6 23  1  0  0  0  0
  7 11  2  0  0  0  0
  7 22  1  0  0  0  0
  8 14  2  0  0  0  0
  8 20  1  0  0  0  0
  9 25  1  0  0  0  0
 10 25  2  0  0  0  0
 11 26  1  0  0  0  0
 12 13  2  0  0  0  0
 12 27  1  0  0  0  0
 13 28  1  0  0  0  0
 14 31  1  0  0  0  0
 15 24  1  0  0  0  0
 15 26  2  0  0  0  0
 16 28  2  0  0  0  0
 16 29  1  0  0  0  0
 17 20  2  0  0  0  0
 17 64  1  0  0  0  0
 18 30  1  0  0  0  0
 19 30  1  0  0  0  0
 19 32  2  0  0  0  0
 19 33  1  0  0  0  0
 20 50  1  0  0  0  0
 21 23  2  0  0  0  0
 21 38  1  0  0  0  0
 22 24  2  0  0  0  0
 22 39  1  0  0  0  0
 23 51  1  0  0  0  0
 24 40  1  0  0  0  0
 25 81  1  0  0  0  0
 26 82  1  0  0  0  0
 27 29  2  0  0  0  0
 27 81  1  0  0  0  0
 28 83  1  0  0  0  0
 29 84  1  0  0  0  0
 30 65  2  0  0  0  0
 31 60  1  0  0  0  0
 31 64  2  0  0  0  0
 32 66  1  0  0  0  0
 32 70  1  0  0  0  0
 33 71  1  0  0  0  0
 33 76  2  0  0  0  0
 34 52  1  0  0  0  0
 34 72  1  0  0  0  0
 34 77  2  0  0  0  0
 35 61  1  0  0  0  0
 35 67  1  0  0  0  0
 35 78  2  0  0  0  0
 36 62  1  0  0  0  0
 36 73  1  0  0  0  0
 36 79  2  0  0  0  0
 37 68  1  0  0  0  0
 37 69  1  0  0  0  0
 37 80  2  0  0  0  0
 38 41  1  0  0  0  0
 39 52  1  0  0  0  0
 40 67  1  0  0  0  0
 41 43  1  0  0  0  0
 42 44  1  0  0  0  0
 42 46  1  0  0  0  0
 43 51  1  0  0  0  0
 44 53  1  0  0  0  0
 45 47  1  0  0  0  0
 45 54  1  0  0  0  0
 46 68  1  0  0  0  0
 47 69  1  0  0  0  0
 48 50  1  0  0  0  0
 48 69  1  0  0  0  0
 49 53  1  0  0  0  0
 49 68  1  0  0  0  0
 50 54  1  0  0  0  0
 51 72  1  0  0  0  0
 52 67  1  0  0  0  0
 53 66  1  0  0  0  0
 54 74  1  0  0  0  0
 55 62  1  0  0  0  0
 56 63  1  0  0  0  0
 57 63  1  0  0  0  0
 58 63  1  0  0  0  0
 59 75  1  0  0  0  0
 60 82  1  0  0  0  0
 61 63  1  0  0  0  0
 61 73  1  0  0  0  0
 62 75  1  0  0  0  0
 65 66  1  0  0  0  0
M  CHG  2  74   1  75   1
M  ISO  4  37 100  60 101  69 100  82 101
M  END
> <Batch ID>
0187

> <Smiles>
CNC(C)C(=O)NC(C(=O)N1Cc2cc([101O:1][101CH2:1]c3ccc(C4C[100N:0]([100C:0](=O)N5CCCC(n6nc(-c7ccc(Oc8ccc(F)cc8F)cc7)c(C(N)=O)c6N)C5)CCC4N)cn3)ccc2CC1C(=O)NC1CCCc2ccccc21)C(C)(C)C

> <Shape>
0.244

> <Color>
0.065

> <Negative vol penalty>
0.000

$$$$

  -OEChem-04052323173D

 84 93  0     1  0  0  0  0  0999 V2000
  -33.4286  -30.9736   15.5636 C   0  0  0  0  0  0  0  0  0  0  0  0
  -32.6723  -29.8373   15.8322 C   0  0  0  0  0  0  0  0  0  0  0  0
  -23.1525   -9.9668   19.8820 C   0  0  0  0  0  0  0  0  0  0  0  0
  -23.8522   -9.7842   22.1872 C   0  0  0  0  0  0  0  0  0  0  0  0
  -33.6366  -31.9233   16.5630 C   0  0  0  0  0  0  0  0  0  0  0  0
  -32.1245  -29.6494   17.1007 C   0  0  0  0  0  0  0  0  0  0  0  0
  -27.3057  -28.1024   16.9261 C   0  0  0  0  0  0  0  0  0  0  0  0
  -22.4256   -8.7831   20.0088 C   0  0  0  0  0  0  0  0  0  0  0  0
  -23.1253   -8.6005   22.3141 C   0  0  0  0  0  0  0  0  0  0  0  0
  -27.0788  -26.7575   16.6369 C   0  0  0  0  0  0  0  0  0  0  0  0
  -23.4970   -5.3465   21.4748 C   0  0  0  0  0  0  0  0  0  0  0  0
  -24.1140   -4.2727   22.1165 C   0  0  0  0  0  0  0  0  0  0  0  0
  -26.7488  -26.3144   18.9851 C   0  0  0  0  0  0  0  0  0  0  0  0
  -22.3657   -4.2646   23.7840 C   0  0  0  0  0  0  0  0  0  0  0  0
  -27.2907  -21.7727   16.2719 C   0  0  0  0  0  0  0  0  0  0  0  0
  -23.8659  -10.4673   20.9712 C   0  0  0  0  0  0  0  0  0  0  0  0
  -24.1601  -12.9988   21.0833 C   0  0  0  0  0  0  0  0  0  0  0  0
  -33.0830  -31.7518   17.8415 C   0  0  0  0  0  0  0  0  0  0  0  0
  -27.2665  -28.5621   18.2503 C   0  0  0  0  0  0  0  0  0  0  0  0
  -32.3265  -30.5971   18.1184 C   0  0  0  0  0  0  0  0  0  0  0  0
  -26.9730  -27.6661   19.2882 C   0  0  0  0  0  0  0  0  0  0  0  0
  -22.4120   -8.1000   21.2248 C   0  0  0  0  0  0  0  0  0  0  0  0
  -26.8032  -25.8628   17.6667 C   0  0  0  0  0  0  0  0  0  0  0  0
  -22.3144   -5.8794   21.9877 C   0  0  0  0  0  0  0  0  0  0  0  0
  -23.5484   -3.7317   23.2711 C   0  0  0  0  0  0  0  0  0  0  0  0
  -21.7487   -5.3384   23.1423 C   0  0  0  0  0  0  0  0  0  0  0  0
  -24.6174  -11.6897   20.8406 C   0  0  0  0  0  0  0  0  0  0  0  0
  -26.3411  -22.7011   15.8969 C   0  0  0  0  0  0  0  0  0  0  0  0
  -26.9229  -20.4506   16.1271 C   0  0  0  0  0  0  0  0  0  0  0  0
  -25.2461  -13.7967   20.8178 C   0  0  0  0  0  0  0  0  0  0  0  0
  -24.8844  -21.0535   15.3221 C   0  0  0  0  0  0  0  0  0  0  0  0
  -22.8691  -13.4530   21.5107 C   0  0  0  0  0  0  0  0  0  0  0  0
  -29.3662  -29.9094   20.2200 C   0  0  0  0  0  0  0  0  0  0  0  0
  -26.7815  -30.1839   22.1608 C   0  0  0  0  0  0  0  0  0  0  0  0
  -23.6811  -29.0560   23.0338 C   0  0  0  0  0  0  0  0  0  0  0  0
  -29.4789  -15.0021   17.2812 C   0  0  0  0  0  0  0  0  0  0  0  0
  -33.3748  -32.7825   18.9032 C   0  0  0  0  0  0  0  0  0  0  0  0
  -27.4871  -30.0209   18.5430 C   0  0  0  0  0  0  0  0  0  0  0  0
  -26.8994  -28.1130   20.7246 C   0  0  0  0  0  0  0  0  0  0  0  0
  -32.4467  -32.6916   20.1118 C   0  0  0  0  0  0  0  0  0  0  0  0
  -30.0952  -12.6180   20.0031 C   0  0  0  0  0  0  0  0  0  0  0  0
  -32.3117  -31.2440   20.5734 C   0  0  0  0  0  0  0  0  0  0  0  0
  -28.6819  -12.2385   20.4474 C   0  0  0  0  0  0  0  0  0  0  0  0
  -26.8395  -17.5408   17.6052 C   0  0  0  0  0  0  0  0  0  0  0  0
  -30.1512  -12.9762   18.5198 C   0  0  0  0  0  0  0  0  0  0  0  0
  -27.1564  -16.0496   17.5633 C   0  0  0  0  0  0  0  0  0  0  0  0
  -27.7734  -13.6232   18.5457 C   0  0  0  0  0  0  0  0  0  0  0  0
  -28.9064  -17.2696   16.4614 C   0  0  0  0  0  0  0  0  0  0  0  0
  -31.6950  -30.3698   19.4748 C   0  0  1  0  0  0  0  0  0  0  0  0
  -27.9306  -30.2818   19.9792 C   0  0  1  0  0  0  0  0  0  0  0  0
  -27.6640  -13.3227   20.0470 C   0  0  1  0  0  0  0  0  0  0  0  0
  -27.6133  -18.0688   16.4021 C   0  0  2  0  0  0  0  0  0  0  0  0
  -23.5482  -20.6542   14.7944 C   0  0  0  0  0  0  0  0  0  0  0  0
  -21.8327  -29.4537   24.6838 C   0  0  0  0  0  0  0  0  0  0  0  0
  -28.4116  -28.7765   24.3223 C   0  0  0  0  0  0  0  0  0  0  0  0
  -26.2767  -28.3571   25.5612 C   0  0  0  0  0  0  0  0  0  0  0  0
  -27.0331  -30.6965   25.1395 C   0  0  0  0  0  0  0  0  0  0  0  0
  -21.7541  -29.7255   20.8896 C   0  0  0  0  0  0  0  0  0  0  0  0
  -26.6474  -24.1562   16.0176 C   0  0  0  0  0  0  0  0  0  1  0  0
  -26.1413  -29.3167   23.2177 C   0  0  1  0  0  0  0  0  0  0  0  0
  -22.3815  -29.7917   23.3064 C   0  0  2  0  0  0  0  0  0  0  0  0
  -26.9689  -29.2776   24.5334 C   0  0  0  0  0  0  0  0  0  0  0  0
  -25.8944  -11.6536   20.4507 N   0  0  0  0  0  0  0  0  0  0  0  0
  -25.1233  -22.3755   15.4161 N   0  0  0  0  0  0  0  0  0  0  0  0
  -25.7234  -20.0537   15.6539 N   0  0  0  0  0  0  0  0  0  0  0  0
  -26.2488  -12.9499   20.4463 N   0  0  0  0  0  0  0  0  0  0  0  0
  -27.1287  -29.5480   20.9604 N   0  0  0  0  0  0  0  0  0  0  0  0
  -29.1480  -13.9876   18.1861 N   0  0  0  0  0  0  0  0  0  0  0  0
  -28.5178  -15.9794   17.0260 N   0  0  0  0  0  0  0  0  0  0  0  0
  -25.4317  -15.1329   20.8680 N   0  0  0  0  0  0  0  0  0  0  0  0
  -21.8672  -12.4999   21.7385 N   0  0  0  0  0  0  0  0  0  0  0  0
  -27.8508  -19.4852   16.4936 N   0  0  0  0  0  0  0  0  0  0  0  0
  -30.2641  -30.5761   19.4084 N   0  0  0  0  0  0  0  0  0  0  0  0
  -24.7794  -29.8130   23.3830 N   0  0  0  0  0  0  0  0  0  0  0  0
  -21.3559  -29.4256   22.2890 N   0  3  0  0  0  0  0  0  0  0  0  0
  -22.6069  -14.6694   21.6695 O   0  0  0  0  0  0  0  0  0  0  0  0
  -29.6391  -29.0798   21.0797 O   0  0  0  0  0  0  0  0  0  0  0  0
  -26.9603  -31.3829   22.3891 O   0  0  0  0  0  0  0  0  0  0  0  0
  -23.7182  -27.9218   22.5619 O   0  0  0  0  0  0  0  0  0  0  0  0
  -30.6005  -15.0595   16.7597 O   0  0  0  0  0  0  0  0  0  0  0  0
  -21.7026   -6.9450   21.3491 O   0  0  0  0  0  0  0  0  0  0  0  0
  -26.5804  -24.5403   17.3853 O   0  0  0  0  0  0  0  0  0  1  0  0
  -24.1402   -2.6995   23.8863 F   0  0  0  0  0  0  0  0  0  0  0  0
  -20.6120   -5.8454   23.6391 F   0  0  0  0  0  0  0  0  0  0  0  0
  1  2  1  0  0  0  0
  1  5  2  0  0  0  0
  2  6  2  0  0  0  0
  3  8  2  0  0  0  0
  3 16  1  0  0  0  0
  4  9  1  0  0  0  0
  4 16  2  0  0  0  0
  5 18  1  0  0  0  0
  6 20  1  0  0  0  0
  7 10  2  0  0  0  0
  7 19  1  0  0  0  0
  8 22  1  0  0  0  0
  9 22  2  0  0  0  0
 10 23  1  0  0  0  0
 11 12  2  0  0  0  0
 11 24  1  0  0  0  0
 12 25  1  0  0  0  0
 13 21  1  0  0  0  0
 13 23  2  0  0  0  0
 14 25  2  0  0  0  0
 14 26  1  0  0  0  0
 15 28  1  0  0  0  0
 15 29  2  0  0  0  0
 16 27  1  0  0  0  0
 17 27  1  0  0  0  0
 17 30  2  0  0  0  0
 17 32  1  0  0  0  0
 18 20  2  0  0  0  0
 18 37  1  0  0  0  0
 19 21  2  0  0  0  0
 19 38  1  0  0  0  0
 20 49  1  0  0  0  0
 21 39  1  0  0  0  0
 22 81  1  0  0  0  0
 23 82  1  0  0  0  0
 24 26  2  0  0  0  0
 24 81  1  0  0  0  0
 25 83  1  0  0  0  0
 26 84  1  0  0  0  0
 27 63  2  0  0  0  0
 28 59  1  0  0  0  0
 28 64  2  0  0  0  0
 29 65  1  0  0  0  0
 29 72  1  0  0  0  0
 30 66  1  0  0  0  0
 30 70  1  0  0  0  0
 31 53  1  0  0  0  0
 31 64  1  0  0  0  0
 31 65  2  0  0  0  0
 32 71  1  0  0  0  0
 32 76  2  0  0  0  0
 33 50  1  0  0  0  0
 33 73  1  0  0  0  0
 33 77  2  0  0  0  0
 34 60  1  0  0  0  0
 34 67  1  0  0  0  0
 34 78  2  0  0  0  0
 35 61  1  0  0  0  0
 35 74  1  0  0  0  0
 35 79  2  0  0  0  0
 36 68  1  0  0  0  0
 36 69  1  0  0  0  0
 36 80  2  0  0  0  0
 37 40  1  0  0  0  0
 38 50  1  0  0  0  0
 39 67  1  0  0  0  0
 40 42  1  0  0  0  0
 41 43  1  0  0  0  0
 41 45  1  0  0  0  0
 42 49  1  0  0  0  0
 43 51  1  0  0  0  0
 44 46  1  0  0  0  0
 44 52  1  0  0  0  0
 45 68  1  0  0  0  0
 46 69  1  0  0  0  0
 47 51  1  0  0  0  0
 47 68  1  0  0  0  0
 48 52  1  0  0  0  0
 48 69  1  0  0  0  0
 49 73  1  0  0  0  0
 50 67  1  0  0  0  0
 51 66  1  0  0  0  0
 52 72  1  0  0  0  0
 54 61  1  0  0  0  0
 55 62  1  0  0  0  0
 56 62  1  0  0  0  0
 57 62  1  0  0  0  0
 58 75  1  0  0  0  0
 59 82  1  0  0  0  0
 60 62  1  0  0  0  0
 60 74  1  0  0  0  0
 61 75  1  0  0  0  0
 63 66  1  0  0  0  0
M  CHG  1  75   1
M  ISO  4  36 100  59 101  69 100  82 101
M  END
> <Batch ID>
0187

> <Smiles>
CNC(C)C(=O)NC(C(=O)N1Cc2cc([101O:1][101CH2:1]c3cc(NC4CC[100N:0]([100C:0](=O)N5CCCC(n6nc(-c7ccc(Oc8ccc(F)cc8F)cc7)c(C(N)=O)c6N)C5)C4)nc(C)n3)ccc2CC1C(=O)NC1CCCc2ccccc21)C(C)(C)C

> <Shape>
0.232

> <Color>
0.185

> <Negative vol penalty>
0.000

$$$$

  -OEChem-04052323173D

 84 93  0     1  0  0  0  0  0999 V2000
  -30.9151  -11.3407   19.8790 C   0  0  0  0  0  0  0  0  0  0  0  0
  -30.7081  -12.6809   19.5686 C   0  0  0  0  0  0  0  0  0  0  0  0
  -20.5783  -25.6949   19.0764 C   0  0  0  0  0  0  0  0  0  0  0  0
  -21.3806  -23.9567   20.5502 C   0  0  0  0  0  0  0  0  0  0  0  0
  -29.8371  -10.5372   20.2479 C   0  0  0  0  0  0  0  0  0  0  0  0
  -29.4226  -13.2182   19.6259 C   0  0  0  0  0  0  0  0  0  0  0  0
  -29.3026  -17.7283   21.9257 C   0  0  0  0  0  0  0  0  0  0  0  0
  -19.8054  -24.7574   18.3914 C   0  0  0  0  0  0  0  0  0  0  0  0
  -20.6076  -23.0192   19.8653 C   0  0  0  0  0  0  0  0  0  0  0  0
  -29.7231  -18.8321   21.1850 C   0  0  0  0  0  0  0  0  0  0  0  0
  -20.7895  -21.2741   16.9753 C   0  0  0  0  0  0  0  0  0  0  0  0
  -21.3876  -20.0580   16.6452 C   0  0  0  0  0  0  0  0  0  0  0  0
  -27.4216  -19.4077   20.7475 C   0  0  0  0  0  0  0  0  0  0  0  0
  -19.7240  -18.8863   17.9479 C   0  0  0  0  0  0  0  0  0  0  0  0
  -21.3660  -25.2946   20.1558 C   0  0  0  0  0  0  0  0  0  0  0  0
  -21.7802  -27.0303   21.9787 C   0  0  0  0  0  0  0  0  0  0  0  0
  -28.5391  -11.0672   20.3191 C   0  0  0  0  0  0  0  0  0  0  0  0
  -27.9363  -17.4492   22.0740 C   0  0  0  0  0  0  0  0  0  0  0  0
  -28.3259  -12.4207   19.9948 C   0  0  0  0  0  0  0  0  0  0  0  0
  -26.9864  -18.3012   21.4927 C   0  0  0  0  0  0  0  0  0  0  0  0
  -30.8416  -22.2031   18.9524 C   0  0  0  0  0  0  0  0  0  0  0  0
  -19.8200  -23.4195   18.7859 C   0  0  0  0  0  0  0  0  0  0  0  0
  -28.7826  -19.6703   20.5934 C   0  0  0  0  0  0  0  0  0  0  0  0
  -19.6587  -21.2964   17.7917 C   0  0  0  0  0  0  0  0  0  0  0  0
  -20.8548  -18.8641   17.1315 C   0  0  0  0  0  0  0  0  0  0  0  0
  -19.1260  -20.1025   18.2780 C   0  0  0  0  0  0  0  0  0  0  0  0
  -22.1651  -26.2625   20.8634 C   0  0  0  0  0  0  0  0  0  0  0  0
  -30.3657  -23.4361   19.3494 C   0  0  0  0  0  0  0  0  0  0  0  0
  -31.5539  -22.1904   17.7706 C   0  0  0  0  0  0  0  0  0  0  0  0
  -22.8872  -27.7887   22.2720 C   0  0  0  0  0  0  0  0  0  0  0  0
  -31.2736  -24.4321   17.5190 C   0  0  0  0  0  0  0  0  0  0  0  0
  -20.5336  -27.0557   22.6865 C   0  0  0  0  0  0  0  0  0  0  0  0
  -26.0386  -15.0341   21.2561 C   0  0  0  0  0  0  0  0  0  0  0  0
  -23.8347  -16.7016   22.9545 C   0  0  0  0  0  0  0  0  0  0  0  0
  -22.7992  -19.7090   24.1916 C   0  0  0  0  0  0  0  0  0  0  0  0
  -28.7578  -26.9332   21.0472 C   0  0  0  0  0  0  0  0  0  0  0  0
  -27.3983  -10.1480   20.6770 C   0  0  0  0  0  0  0  0  0  0  0  0
  -27.4985  -16.2698   22.8984 C   0  0  0  0  0  0  0  0  0  0  0  0
  -25.5074  -18.0569   21.6389 C   0  0  0  0  0  0  0  0  0  0  0  0
  -26.1233  -10.8865   21.0762 C   0  0  0  0  0  0  0  0  0  0  0  0
  -26.7169  -29.7823   20.2620 C   0  0  0  0  0  0  0  0  0  0  0  0
  -25.8227  -12.0067   20.0854 C   0  0  0  0  0  0  0  0  0  0  0  0
  -25.2868  -29.2635   20.3721 C   0  0  0  0  0  0  0  0  0  0  0  0
  -27.6483  -28.7012   19.7307 C   0  0  0  0  0  0  0  0  0  0  0  0
  -29.9663  -24.7770   21.6699 C   0  0  0  0  0  0  0  0  0  0  0  0
  -28.1684  -24.4290   20.5870 C   0  0  0  0  0  0  0  0  0  0  0  0
  -26.2264  -26.9224   20.7145 C   0  0  0  0  0  0  0  0  0  0  0  0
  -26.9500  -13.0462   20.0693 C   0  0  1  0  0  0  0  0  0  0  0  0
  -29.5177  -23.6738   20.6822 C   0  0  0  0  0  0  0  0  0  0  0  0
  -26.0922  -15.7891   22.5540 C   0  0  1  0  0  0  0  0  0  0  0  0
  -25.2415  -27.9907   21.2298 C   0  0  2  0  0  0  0  0  0  0  0  0
  -31.5136  -25.6699   16.7232 C   0  0  0  0  0  0  0  0  0  0  0  0
  -20.9406  -20.7631   25.5075 C   0  0  0  0  0  0  0  0  0  0  0  0
  -22.0227  -16.5607   20.5036 C   0  0  0  0  0  0  0  0  0  0  0  0
  -20.6377  -18.3881   21.5089 C   0  0  0  0  0  0  0  0  0  0  0  0
  -20.8558  -16.1995   22.6859 C   0  0  0  0  0  0  0  0  0  0  0  0
  -24.6511  -20.5803   26.3295 C   0  0  0  0  0  0  0  0  0  0  0  0
  -32.7887  -21.0740   16.0722 C   0  0  0  0  0  0  0  0  0  0  0  0
  -30.5970  -20.9604   19.7568 C   0  0  0  0  0  0  0  0  0  1  0  0
  -22.8285  -17.7798   22.6321 C   0  0  1  0  0  0  0  0  0  0  0  0
  -22.3164  -20.1182   25.5714 C   0  0  2  0  0  0  0  0  0  0  0  0
  -21.6140  -17.2358   21.8281 C   0  0  0  0  0  0  0  0  0  0  0  0
  -23.4186  -26.5105   20.4744 N   0  0  0  0  0  0  0  0  0  0  0  0
  -30.5639  -24.5754   18.6544 N   0  0  0  0  0  0  0  0  0  0  0  0
  -31.7896  -23.2903   17.0255 N   0  0  0  0  0  0  0  0  0  0  0  0
  -23.8309  -27.4428   21.3501 N   0  0  0  0  0  0  0  0  0  0  0  0
  -25.1293  -16.8873   22.4493 N   0  0  0  0  0  0  0  0  0  0  0  0
  -27.5762  -27.4722   20.5265 N   0  0  0  0  0  0  0  0  0  0  0  0
  -28.8415  -25.5666   21.1880 N   0  0  0  0  0  0  0  0  0  0  0  0
  -23.1355  -28.7112   23.2258 N   0  0  0  0  0  0  0  0  0  0  0  0
  -19.5016  -26.2125   22.2526 N   0  0  0  0  0  0  0  0  0  0  0  0
  -26.8510  -13.9169   21.2210 N   0  0  0  0  0  0  0  0  0  0  0  0
  -22.4736  -18.4004   23.9038 N   0  0  0  0  0  0  0  0  0  0  0  0
  -23.2639  -21.0918   26.1841 N   0  3  0  0  0  0  0  0  0  0  0  0
  -20.3350  -27.8160   23.6643 O   0  0  0  0  0  0  0  0  0  0  0  0
  -25.3126  -15.4345   20.3537 O   0  0  0  0  0  0  0  0  0  0  0  0
  -23.4867  -15.7339   23.6357 O   0  0  0  0  0  0  0  0  0  0  0  0
  -23.4015  -20.4747   23.4424 O   0  0  0  0  0  0  0  0  0  0  0  0
  -29.7235  -27.6468   21.3493 O   0  0  0  0  0  0  0  0  0  0  0  0
  -19.0657  -22.5045   18.1179 O   0  0  0  0  0  0  0  0  0  0  0  0
  -29.1904  -20.7480   19.8694 O   0  0  0  0  0  0  0  0  0  1  0  0
  -32.0657  -21.0115   17.2959 O   0  0  0  0  0  0  0  0  0  0  0  0
  -21.4284  -17.6962   16.8131 F   0  0  0  0  0  0  0  0  0  0  0  0
  -18.0391  -20.1174   19.0618 F   0  0  0  0  0  0  0  0  0  0  0  0
  1  2  1  0  0  0  0
  1  5  2  0  0  0  0
  2  6  2  0  0  0  0
  3  8  2  0  0  0  0
  3 15  1  0  0  0  0
  4  9  1  0  0  0  0
  4 15  2  0  0  0  0
  5 17  1  0  0  0  0
  6 19  1  0  0  0  0
  7 10  2  0  0  0  0
  7 18  1  0  0  0  0
  8 22  1  0  0  0  0
  9 22  2  0  0  0  0
 10 23  1  0  0  0  0
 11 12  2  0  0  0  0
 11 24  1  0  0  0  0
 12 25  1  0  0  0  0
 13 20  1  0  0  0  0
 13 23  2  0  0  0  0
 14 25  2  0  0  0  0
 14 26  1  0  0  0  0
 15 27  1  0  0  0  0
 16 27  1  0  0  0  0
 16 30  2  0  0  0  0
 16 32  1  0  0  0  0
 17 19  2  0  0  0  0
 17 37  1  0  0  0  0
 18 20  2  0  0  0  0
 18 38  1  0  0  0  0
 19 48  1  0  0  0  0
 20 39  1  0  0  0  0
 21 28  2  0  0  0  0
 21 29  1  0  0  0  0
 21 59  1  0  0  0  0
 22 80  1  0  0  0  0
 23 81  1  0  0  0  0
 24 26  2  0  0  0  0
 24 80  1  0  0  0  0
 25 83  1  0  0  0  0
 26 84  1  0  0  0  0
 27 63  2  0  0  0  0
 28 49  1  0  0  0  0
 28 64  1  0  0  0  0
 29 65  2  0  0  0  0
 29 82  1  0  0  0  0
 30 66  1  0  0  0  0
 30 70  1  0  0  0  0
 31 52  1  0  0  0  0
 31 64  2  0  0  0  0
 31 65  1  0  0  0  0
 32 71  1  0  0  0  0
 32 75  2  0  0  0  0
 33 50  1  0  0  0  0
 33 72  1  0  0  0  0
 33 76  2  0  0  0  0
 34 60  1  0  0  0  0
 34 67  1  0  0  0  0
 34 77  2  0  0  0  0
 35 61  1  0  0  0  0
 35 73  1  0  0  0  0
 35 78  2  0  0  0  0
 36 68  1  0  0  0  0
 36 69  1  0  0  0  0
 36 79  2  0  0  0  0
 37 40  1  0  0  0  0
 38 50  1  0  0  0  0
 39 67  1  0  0  0  0
 40 42  1  0  0  0  0
 41 43  1  0  0  0  0
 41 44  1  0  0  0  0
 42 48  1  0  0  0  0
 43 51  1  0  0  0  0
 44 68  1  0  0  0  0
 45 49  1  0  0  0  0
 45 69  1  0  0  0  0
 46 49  1  0  0  0  0
 46 69  1  0  0  0  0
 47 51  1  0  0  0  0
 47 68  1  0  0  0  0
 48 72  1  0  0  0  0
 50 67  1  0  0  0  0
 51 66  1  0  0  0  0
 53 61  1  0  0  0  0
 54 62  1  0  0  0  0
 55 62  1  0  0  0  0
 56 62  1  0  0  0  0
 57 74  1  0  0  0  0
 58 82  1  0  0  0  0
 59 81  1  0  0  0  0
 60 62  1  0  0  0  0
 60 73  1  0  0  0  0
 61 74  1  0  0  0  0
 63 66  1  0  0  0  0
M  CHG  1  74   1
M  ISO  4  36 100  59 101  69 100  81 101
M  END
> <Batch ID>
0187

> <Smiles>
CNC(C)C(=O)NC(C(=O)N1Cc2cc([101O:1][101CH2:1]c3c(OC)nc(C)nc3C3C[100N:0]([100C:0](=O)N4CCCC(n5nc(-c6ccc(Oc7ccc(F)cc7F)cc6)c(C(N)=O)c5N)C4)C3)ccc2CC1C(=O)NC1CCCc2ccccc21)C(C)(C)C

> <Shape>
0.202

> <Color>
0.077

> <Negative vol penalty>
0.000

$$$$

  -OEChem-04052323173D

 86 95  0     1  0  0  0  0  0999 V2000
  -23.1243  -23.9776   18.1867 C   0  0  0  0  0  0  0  0  0  0  0  0
  -23.1000  -22.6164   18.4686 C   0  0  0  0  0  0  0  0  0  0  0  0
  -26.5668  -28.5279   21.3285 C   0  0  0  0  0  0  0  0  0  0  0  0
  -26.8067  -28.0448   18.9734 C   0  0  0  0  0  0  0  0  0  0  0  0
  -23.4463  -24.8878   19.1912 C   0  0  0  0  0  0  0  0  0  0  0  0
  -23.3860  -22.1658   19.7578 C   0  0  0  0  0  0  0  0  0  0  0  0
  -22.7278  -17.3722   20.6473 C   0  0  0  0  0  0  0  0  0  0  0  0
  -25.4268  -29.2844   21.0572 C   0  0  0  0  0  0  0  0  0  0  0  0
  -25.6666  -28.8013   18.7022 C   0  0  0  0  0  0  0  0  0  0  0  0
  -23.5736  -16.3879   20.1378 C   0  0  0  0  0  0  0  0  0  0  0  0
  -22.1628  -28.7163   20.3818 C   0  0  0  0  0  0  0  0  0  0  0  0
  -21.0499  -28.5283   21.2014 C   0  0  0  0  0  0  0  0  0  0  0  0
  -24.6134  -16.1689   22.3034 C   0  0  0  0  0  0  0  0  0  0  0  0
  -21.1309  -30.8556   21.8450 C   0  0  0  0  0  0  0  0  0  0  0  0
  -29.7934  -13.3256   19.2192 C   0  0  0  0  0  0  0  0  0  0  0  0
  -27.2568  -27.9081   20.2866 C   0  0  0  0  0  0  0  0  0  0  0  0
  -29.6257  -27.5713   21.1712 C   0  0  0  0  0  0  0  0  0  0  0  0
  -23.7484  -24.4464   20.4900 C   0  0  0  0  0  0  0  0  0  0  0  0
  -22.8260  -17.7705   21.9883 C   0  0  0  0  0  0  0  0  0  0  0  0
  -23.6898  -23.0705   20.7911 C   0  0  0  0  0  0  0  0  0  0  0  0
  -23.7660  -17.1565   22.8282 C   0  0  0  0  0  0  0  0  0  0  0  0
  -29.4046  -14.5885   19.6172 C   0  0  0  0  0  0  0  0  0  0  0  0
  -24.9767  -29.4211   19.7441 C   0  0  0  0  0  0  0  0  0  0  0  0
  -24.5185  -15.7882   20.9651 C   0  0  0  0  0  0  0  0  0  0  0  0
  -22.7598  -29.9739   20.2938 C   0  0  0  0  0  0  0  0  0  0  0  0
  -20.5339  -29.5979   21.9330 C   0  0  0  0  0  0  0  0  0  0  0  0
  -22.2438  -31.0435   21.0254 C   0  0  0  0  0  0  0  0  0  0  0  0
  -28.4349  -27.1269   20.5661 C   0  0  0  0  0  0  0  0  0  0  0  0
  -30.4251  -15.4335   20.0028 C   0  0  0  0  0  0  0  0  0  0  0  0
  -30.4279  -26.4571   21.2095 C   0  0  0  0  0  0  0  0  0  0  0  0
  -31.9789  -13.8254   19.5943 C   0  0  0  0  0  0  0  0  0  0  0  0
  -29.9755  -28.8748   21.6554 C   0  0  0  0  0  0  0  0  0  0  0  0
  -23.5127  -20.4952   23.4743 C   0  0  0  0  0  0  0  0  0  0  0  0
  -22.7247  -18.7963   26.1229 C   0  0  0  0  0  0  0  0  0  0  0  0
  -22.4027  -15.7458   27.6187 C   0  0  0  0  0  0  0  0  0  0  0  0
  -29.3915  -20.7736   21.4354 C   0  0  0  0  0  0  0  0  0  0  0  0
  -24.0827  -25.4755   21.5409 C   0  0  0  0  0  0  0  0  0  0  0  0
  -21.8882  -18.8147   22.5294 C   0  0  0  0  0  0  0  0  0  0  0  0
  -23.8980  -17.5340   24.2803 C   0  0  0  0  0  0  0  0  0  0  0  0
  -24.7991  -24.8806   22.7489 C   0  0  0  0  0  0  0  0  0  0  0  0
  -31.2583  -22.3503   18.9118 C   0  0  0  0  0  0  0  0  0  0  0  0
  -24.0478  -23.6552   23.2473 C   0  0  0  0  0  0  0  0  0  0  0  0
  -30.8594  -23.8127   19.1075 C   0  0  0  0  0  0  0  0  0  0  0  0
  -30.0675  -21.4045   19.0763 C   0  0  0  0  0  0  0  0  0  0  0  0
  -30.9420  -17.4050   21.4078 C   0  0  0  0  0  0  0  0  0  0  0  0
  -29.3794  -17.5902   19.4661 C   0  0  0  0  0  0  0  0  0  0  0  0
  -30.1855  -18.5352   22.1008 C   0  0  0  0  0  0  0  0  0  0  0  0
  -28.6438  -18.7071   20.1982 C   0  0  0  0  0  0  0  0  0  0  0  0
  -28.9355  -23.0404   20.5461 C   0  0  0  0  0  0  0  0  0  0  0  0
  -24.0272  -22.5551   22.1785 C   0  0  1  0  0  0  0  0  0  0  0  0
  -22.4224  -19.5074   23.7793 C   0  0  1  0  0  0  0  0  0  0  0  0
  -30.1231  -24.0101   20.4445 C   0  0  2  0  0  0  0  0  0  0  0  0
  -33.4085  -13.4018   19.5812 C   0  0  0  0  0  0  0  0  0  0  0  0
  -21.7752  -14.6785   29.8015 C   0  0  0  0  0  0  0  0  0  0  0  0
  -25.4264  -19.6014   27.2904 C   0  0  0  0  0  0  0  0  0  0  0  0
  -25.1539  -17.7851   28.9919 C   0  0  0  0  0  0  0  0  0  0  0  0
  -23.5253  -19.6730   28.9137 C   0  0  0  0  0  0  0  0  0  0  0  0
  -20.1440  -14.2829   26.3870 C   0  0  0  0  0  0  0  0  0  0  0  0
  -27.0489  -14.2788   18.8554 C   0  0  0  0  0  0  0  0  0  0  0  0
  -25.6879  -14.9133   19.0881 C   0  0  0  0  0  0  0  0  0  1  0  0
  -23.4778  -17.9190   27.0936 C   0  0  1  0  0  0  0  0  0  0  0  0
  -21.2789  -15.1403   28.4402 C   0  0  2  0  0  0  0  0  0  0  0  0
  -24.3949  -18.7387   28.0446 C   0  0  0  0  0  0  0  0  0  0  0  0
  -31.0764  -12.9091   19.1953 N   0  0  0  0  0  0  0  0  0  0  0  0
  -28.4729  -25.8315   20.2430 N   0  0  0  0  0  0  0  0  0  0  0  0
  -31.7282  -15.0836   20.0038 N   0  0  0  0  0  0  0  0  0  0  0  0
  -29.6974  -25.4523   20.6466 N   0  0  0  0  0  0  0  0  0  0  0  0
  -30.0954  -16.7300   20.4182 N   0  0  0  0  0  0  0  0  0  0  0  0
  -22.9628  -18.5645   24.7608 N   0  0  0  0  0  0  0  0  0  0  0  0
  -29.3733  -21.6574   20.3460 N   0  0  0  0  0  0  0  0  0  0  0  0
  -29.5185  -19.4069   21.1413 N   0  0  0  0  0  0  0  0  0  0  0  0
  -31.6799  -26.2487   21.6693 N   0  0  0  0  0  0  0  0  0  0  0  0
  -30.5933  -29.7717   20.7732 N   0  0  0  0  0  0  0  0  0  0  0  0
  -28.0541  -14.9612   19.6196 N   0  0  0  0  0  0  0  0  0  0  0  0
  -23.1344  -21.4999   22.6043 N   0  0  0  0  0  0  0  0  0  0  0  0
  -22.4734  -17.1134   27.7796 N   0  0  0  0  0  0  0  0  0  0  0  0
  -20.6925  -13.9679   27.7312 N   0  3  0  0  0  0  0  0  0  0  0  0
  -29.7618  -29.2277   22.8400 O   0  0  0  0  0  0  0  0  0  0  0  0
  -24.6152  -20.3570   23.9912 O   0  0  0  0  0  0  0  0  0  0  0  0
  -21.9483  -19.6509   26.5572 O   0  0  0  0  0  0  0  0  0  0  0  0
  -23.1461  -15.0724   26.9084 O   0  0  0  0  0  0  0  0  0  0  0  0
  -29.3030  -21.1789   22.6010 O   0  0  0  0  0  0  0  0  0  0  0  0
  -23.8641  -30.1590   19.4791 O   0  0  0  0  0  0  0  0  0  0  0  0
  -25.3516  -14.8210   20.4666 O   0  0  0  0  0  0  0  0  0  1  0  0
  -19.4643  -29.4177   22.7188 F   0  0  0  0  0  0  0  0  0  0  0  0
  -22.8123  -32.2543   20.9441 F   0  0  0  0  0  0  0  0  0  0  0  0
  1  2  1  0  0  0  0
  1  5  2  0  0  0  0
  2  6  2  0  0  0  0
  3  8  2  0  0  0  0
  3 16  1  0  0  0  0
  4  9  1  0  0  0  0
  4 16  2  0  0  0  0
  5 18  1  0  0  0  0
  6 20  1  0  0  0  0
  7 10  2  0  0  0  0
  7 19  1  0  0  0  0
  8 23  1  0  0  0  0
  9 23  2  0  0  0  0
 10 24  1  0  0  0  0
 11 12  2  0  0  0  0
 11 25  1  0  0  0  0
 12 26  1  0  0  0  0
 13 21  1  0  0  0  0
 13 24  2  0  0  0  0
 14 26  2  0  0  0  0
 14 27  1  0  0  0  0
 15 22  1  0  0  0  0
 15 64  2  0  0  0  0
 16 28  1  0  0  0  0
 17 28  1  0  0  0  0
 17 30  2  0  0  0  0
 17 32  1  0  0  0  0
 18 20  2  0  0  0  0
 18 37  1  0  0  0  0
 19 21  2  0  0  0  0
 19 38  1  0  0  0  0
 20 50  1  0  0  0  0
 21 39  1  0  0  0  0
 22 29  2  0  0  0  0
 22 74  1  0  0  0  0
 23 83  1  0  0  0  0
 24 84  1  0  0  0  0
 25 27  2  0  0  0  0
 25 83  1  0  0  0  0
 26 85  1  0  0  0  0
 27 86  1  0  0  0  0
 28 65  2  0  0  0  0
 29 66  1  0  0  0  0
 29 68  1  0  0  0  0
 30 67  1  0  0  0  0
 30 72  1  0  0  0  0
 31 53  1  0  0  0  0
 31 64  1  0  0  0  0
 31 66  2  0  0  0  0
 32 73  1  0  0  0  0
 32 78  2  0  0  0  0
 33 51  1  0  0  0  0
 33 75  1  0  0  0  0
 33 79  2  0  0  0  0
 34 61  1  0  0  0  0
 34 69  1  0  0  0  0
 34 80  2  0  0  0  0
 35 62  1  0  0  0  0
 35 76  1  0  0  0  0
 35 81  2  0  0  0  0
 36 70  1  0  0  0  0
 36 71  1  0  0  0  0
 36 82  2  0  0  0  0
 37 40  1  0  0  0  0
 38 51  1  0  0  0  0
 39 69  1  0  0  0  0
 40 42  1  0  0  0  0
 41 43  1  0  0  0  0
 41 44  1  0  0  0  0
 42 50  1  0  0  0  0
 43 52  1  0  0  0  0
 44 70  1  0  0  0  0
 45 47  1  0  0  0  0
 45 68  1  0  0  0  0
 46 48  1  0  0  0  0
 46 68  1  0  0  0  0
 47 71  1  0  0  0  0
 48 71  1  0  0  0  0
 49 52  1  0  0  0  0
 49 70  1  0  0  0  0
 50 75  1  0  0  0  0
 51 69  1  0  0  0  0
 52 67  1  0  0  0  0
 54 62  1  0  0  0  0
 55 63  1  0  0  0  0
 56 63  1  0  0  0  0
 57 63  1  0  0  0  0
 58 77  1  0  0  0  0
 59 60  1  0  0  0  0
 59 74  1  0  0  0  0
 60 84  1  0  0  0  0
 61 63  1  0  0  0  0
 61 76  1  0  0  0  0
 62 77  1  0  0  0  0
 65 67  1  0  0  0  0
M  CHG  1  77   1
M  ISO  4  36 100  60 101  71 100  84 101
M  END
> <Batch ID>
0187

> <Smiles>
CNC(C)C(=O)NC(C(=O)N1Cc2cc([101O:1][101CH2:1]CNc3cnc(C)nc3N3CC[100N:0]([100C:0](=O)N4CCCC(n5nc(-c6ccc(Oc7ccc(F)cc7F)cc6)c(C(N)=O)c5N)C4)CC3)ccc2CC1C(=O)NC1CCCc2ccccc21)C(C)(C)C

> <Shape>
0.205

> <Color>
0.055

> <Negative vol penalty>
0.000

$$$$

  -OEChem-04052323173D

 79 87  0     1  0  0  0  0  0999 V2000
  -22.5012   -7.7268   21.8505 C   0  0  0  0  0  0  0  0  0  0  0  0
  -23.3949   -8.5159   22.5676 C   0  0  0  0  0  0  0  0  0  0  0  0
  -21.4310  -25.4412   21.7302 C   0  0  0  0  0  0  0  0  0  0  0  0
  -20.8217  -27.2603   20.2617 C   0  0  0  0  0  0  0  0  0  0  0  0
  -22.1326   -8.0930   20.5568 C   0  0  0  0  0  0  0  0  0  0  0  0
  -23.9213   -9.6712   21.9907 C   0  0  0  0  0  0  0  0  0  0  0  0
  -26.1360  -16.2619   23.7154 C   0  0  0  0  0  0  0  0  0  0  0  0
  -20.2898  -25.6775   22.4965 C   0  0  0  0  0  0  0  0  0  0  0  0
  -19.6804  -27.4966   21.0280 C   0  0  0  0  0  0  0  0  0  0  0  0
  -27.2350  -17.1048   23.5564 C   0  0  0  0  0  0  0  0  0  0  0  0
  -16.7948  -28.8110   22.8044 C   0  0  0  0  0  0  0  0  0  0  0  0
  -16.4942  -30.1339   23.1288 C   0  0  0  0  0  0  0  0  0  0  0  0
  -26.4651  -17.6813   21.3442 C   0  0  0  0  0  0  0  0  0  0  0  0
  -18.6105  -30.3332   24.2771 C   0  0  0  0  0  0  0  0  0  0  0  0
  -21.6970  -26.2326   20.6128 C   0  0  0  0  0  0  0  0  0  0  0  0
  -22.9923  -25.1320   18.7105 C   0  0  0  0  0  0  0  0  0  0  0  0
  -22.6472   -9.2585   19.9674 C   0  0  0  0  0  0  0  0  0  0  0  0
  -25.1975  -16.1137   22.6841 C   0  0  0  0  0  0  0  0  0  0  0  0
  -23.5602  -10.0526   20.6873 C   0  0  0  0  0  0  0  0  0  0  0  0
  -25.3537  -16.8378   21.4935 C   0  0  0  0  0  0  0  0  0  0  0  0
  -19.4144  -26.7052   22.1454 C   0  0  0  0  0  0  0  0  0  0  0  0
  -27.4013  -17.8125   22.3696 C   0  0  0  0  0  0  0  0  0  0  0  0
  -18.0033  -28.2492   23.2164 C   0  0  0  0  0  0  0  0  0  0  0  0
  -17.4020  -30.8950   23.8651 C   0  0  0  0  0  0  0  0  0  0  0  0
  -18.9111  -29.0103   23.9527 C   0  0  0  0  0  0  0  0  0  0  0  0
  -22.8761  -25.9893   19.8211 C   0  0  0  0  0  0  0  0  0  0  0  0
  -24.3027  -25.2549   18.3176 C   0  0  0  0  0  0  0  0  0  0  0  0
  -22.0042  -24.2991   18.0896 C   0  0  0  0  0  0  0  0  0  0  0  0
  -30.2336  -20.8922   20.9402 C   0  0  0  0  0  0  0  0  0  0  0  0
  -24.1996  -13.6861   20.8911 C   0  0  0  0  0  0  0  0  0  0  0  0
  -22.0557  -15.8701   19.8156 C   0  0  0  0  0  0  0  0  0  0  0  0
  -21.2584  -19.1532   19.3337 C   0  0  0  0  0  0  0  0  0  0  0  0
  -29.7557  -25.4762   19.7497 C   0  0  0  0  0  0  0  0  0  0  0  0
  -22.2558   -9.5882   18.5486 C   0  0  0  0  0  0  0  0  0  0  0  0
  -24.0032  -15.2209   22.8815 C   0  0  0  0  0  0  0  0  0  0  0  0
  -24.3637  -16.7294   20.3637 C   0  0  0  0  0  0  0  0  0  0  0  0
  -22.5695  -11.0278   18.1492 C   0  0  0  0  0  0  0  0  0  0  0  0
  -27.8726  -28.5367   19.6774 C   0  0  0  0  0  0  0  0  0  0  0  0
  -23.9827  -11.4059   18.5812 C   0  0  0  0  0  0  0  0  0  0  0  0
  -26.4163  -28.0833   19.6733 C   0  0  0  0  0  0  0  0  0  0  0  0
  -28.7342  -27.5919   20.5044 C   0  0  0  0  0  0  0  0  0  0  0  0
  -30.8415  -23.1672   19.7702 C   0  0  0  0  0  0  0  0  0  0  0  0
  -29.0024  -23.2152   20.8320 C   0  0  0  0  0  0  0  0  0  0  0  0
  -27.2233  -25.6906   19.9980 C   0  0  0  0  0  0  0  0  0  0  0  0
  -24.1336  -11.3263   20.1051 C   0  0  1  0  0  0  0  0  0  0  0  0
  -30.3105  -22.4196   21.0061 C   0  0  0  0  0  0  0  0  0  0  0  0
  -23.3846  -14.7514   21.5684 C   0  0  1  0  0  0  0  0  0  0  0  0
  -26.3075  -26.6304   19.1887 C   0  0  1  0  0  0  0  0  0  0  0  0
  -19.4545  -20.6254   18.3976 C   0  0  0  0  0  0  0  0  0  0  0  0
  -22.9789  -15.1979   16.9862 C   0  0  0  0  0  0  0  0  0  0  0  0
  -21.8773  -17.3047   16.2011 C   0  0  0  0  0  0  0  0  0  0  0  0
  -20.5081  -15.4938   17.2347 C   0  0  0  0  0  0  0  0  0  0  0  0
  -20.7904  -20.4441   21.9555 C   0  0  0  0  0  0  0  0  0  0  0  0
  -30.8740  -18.8139   22.1456 C   0  0  0  0  0  0  0  0  0  0  0  0
  -29.6699  -18.2853   22.9042 C   0  0  0  0  0  0  0  0  0  1  0  0
  -22.0317  -16.8837   18.6971 C   0  0  1  0  0  0  0  0  0  0  0  0
  -19.9966  -19.9390   19.6417 C   0  0  2  0  0  0  0  0  0  0  0  0
  -21.8689  -16.2208   17.3001 C   0  0  0  0  0  0  0  0  0  0  0  0
  -24.0213  -26.6107   20.1149 N   0  0  0  0  0  0  0  0  0  0  0  0
  -24.8696  -26.1434   19.1832 N   0  0  0  0  0  0  0  0  0  0  0  0
  -23.2159  -15.8388   20.6023 N   0  0  0  0  0  0  0  0  0  0  0  0
  -28.6004  -26.1988   20.0677 N   0  0  0  0  0  0  0  0  0  0  0  0
  -29.7599  -24.1208   19.9846 N   0  0  0  0  0  0  0  0  0  0  0  0
  -25.0138  -24.6884   17.3197 N   0  0  0  0  0  0  0  0  0  0  0  0
  -20.7071  -24.2921   18.6203 N   0  0  0  0  0  0  0  0  0  0  0  0
  -23.5354  -12.4847   20.7334 N   0  0  0  0  0  0  0  0  0  0  0  0
  -30.8333  -20.2521   22.0079 N   0  0  0  0  0  0  0  0  0  0  0  0
  -20.9795  -17.8369   19.0325 N   0  0  0  0  0  0  0  0  0  0  0  0
  -20.2735  -20.9812   20.6704 N   0  3  0  0  0  0  0  0  0  0  0  0
  -22.2680  -23.5699   17.1036 O   0  0  0  0  0  0  0  0  0  0  0  0
  -29.6716  -20.3559   19.9924 O   0  0  0  0  0  0  0  0  0  0  0  0
  -25.3456  -13.9362   20.5363 O   0  0  0  0  0  0  0  0  0  0  0  0
  -21.0782  -15.1382   19.9896 O   0  0  0  0  0  0  0  0  0  0  0  0
  -22.3789  -19.6576   19.3544 O   0  0  0  0  0  0  0  0  0  0  0  0
  -30.7675  -26.0281   19.2974 O   0  0  0  0  0  0  0  0  0  0  0  0
  -18.3006  -26.9360   22.8928 O   0  0  0  0  0  0  0  0  0  0  0  0
  -28.4810  -18.6413   22.2104 O   0  0  0  0  0  0  0  0  0  1  0  0
  -17.1139  -32.1658   24.1753 F   0  0  0  0  0  0  0  0  0  0  0  0
  -20.0742  -28.4764   24.3502 F   0  0  0  0  0  0  0  0  0  0  0  0
  1  2  1  0  0  0  0
  1  5  2  0  0  0  0
  2  6  2  0  0  0  0
  3  8  2  0  0  0  0
  3 15  1  0  0  0  0
  4  9  1  0  0  0  0
  4 15  2  0  0  0  0
  5 17  1  0  0  0  0
  6 19  1  0  0  0  0
  7 10  2  0  0  0  0
  7 18  1  0  0  0  0
  8 21  1  0  0  0  0
  9 21  2  0  0  0  0
 10 22  1  0  0  0  0
 11 12  2  0  0  0  0
 11 23  1  0  0  0  0
 12 24  1  0  0  0  0
 13 20  1  0  0  0  0
 13 22  2  0  0  0  0
 14 24  2  0  0  0  0
 14 25  1  0  0  0  0
 15 26  1  0  0  0  0
 16 26  1  0  0  0  0
 16 27  2  0  0  0  0
 16 28  1  0  0  0  0
 17 19  2  0  0  0  0
 17 34  1  0  0  0  0
 18 20  2  0  0  0  0
 18 35  1  0  0  0  0
 19 45  1  0  0  0  0
 20 36  1  0  0  0  0
 21 76  1  0  0  0  0
 22 77  1  0  0  0  0
 23 25  2  0  0  0  0
 23 76  1  0  0  0  0
 24 78  1  0  0  0  0
 25 79  1  0  0  0  0
 26 59  2  0  0  0  0
 27 60  1  0  0  0  0
 27 64  1  0  0  0  0
 28 65  1  0  0  0  0
 28 70  2  0  0  0  0
 29 46  1  0  0  0  0
 29 67  1  0  0  0  0
 29 71  2  0  0  0  0
 30 47  1  0  0  0  0
 30 66  1  0  0  0  0
 30 72  2  0  0  0  0
 31 56  1  0  0  0  0
 31 61  1  0  0  0  0
 31 73  2  0  0  0  0
 32 57  1  0  0  0  0
 32 68  1  0  0  0  0
 32 74  2  0  0  0  0
 33 62  1  0  0  0  0
 33 63  1  0  0  0  0
 33 75  2  0  0  0  0
 34 37  1  0  0  0  0
 35 47  1  0  0  0  0
 36 61  1  0  0  0  0
 37 39  1  0  0  0  0
 38 40  1  0  0  0  0
 38 41  1  0  0  0  0
 39 45  1  0  0  0  0
 40 48  1  0  0  0  0
 41 62  1  0  0  0  0
 42 46  1  0  0  0  0
 42 63  1  0  0  0  0
 43 46  1  0  0  0  0
 43 63  1  0  0  0  0
 44 48  1  0  0  0  0
 44 62  1  0  0  0  0
 45 66  1  0  0  0  0
 47 61  1  0  0  0  0
 48 60  1  0  0  0  0
 49 57  1  0  0  0  0
 50 58  1  0  0  0  0
 51 58  1  0  0  0  0
 52 58  1  0  0  0  0
 53 69  1  0  0  0  0
 54 55  1  0  0  0  0
 54 67  1  0  0  0  0
 55 77  1  0  0  0  0
 56 58  1  0  0  0  0
 56 68  1  0  0  0  0
 57 69  1  0  0  0  0
 59 60  1  0  0  0  0
M  CHG  1  69   1
M  ISO  4  33 100  55 101  63 100  77 101
M  END
> <Batch ID>
0187

> <Smiles>
CNC(C)C(=O)NC(C(=O)N1Cc2cc([101O:1][101CH2:1]CNC(=O)C3C[100N:0]([100C:0](=O)N4CCCC(n5nc(-c6ccc(Oc7ccc(F)cc7F)cc6)c(C(N)=O)c5N)C4)C3)ccc2CC1C(=O)NC1CCCc2ccccc21)C(C)(C)C

> <Shape>
0.225

> <Color>
0.072

> <Negative vol penalty>
0.000

$$$$

  -OEChem-04052323173D

 83 92  0     1  0  0  0  0  0999 V2000
  -26.3196  -38.2635   24.7496 C   0  0  0  0  0  0  0  0  0  0  0  0
  -27.0530  -37.5458   23.8102 C   0  0  0  0  0  0  0  0  0  0  0  0
  -24.6469   -8.8382   18.5079 C   0  0  0  0  0  0  0  0  0  0  0  0
  -24.6525   -7.7144   20.6466 C   0  0  0  0  0  0  0  0  0  0  0  0
  -25.5848  -37.5877   25.7229 C   0  0  0  0  0  0  0  0  0  0  0  0
  -27.0529  -36.1518   23.8443 C   0  0  0  0  0  0  0  0  0  0  0  0
  -27.4049  -30.4613   19.5071 C   0  0  0  0  0  0  0  0  0  0  0  0
  -25.0131   -7.6472   17.8811 C   0  0  0  0  0  0  0  0  0  0  0  0
  -25.0186   -6.5233   20.0198 C   0  0  0  0  0  0  0  0  0  0  0  0
  -28.1224  -29.2778   19.3393 C   0  0  0  0  0  0  0  0  0  0  0  0
  -23.5079   -4.0818   18.2373 C   0  0  0  0  0  0  0  0  0  0  0  0
  -22.8358   -2.9194   18.6147 C   0  0  0  0  0  0  0  0  0  0  0  0
  -26.7526  -28.2164   21.0175 C   0  0  0  0  0  0  0  0  0  0  0  0
  -24.9284   -1.9377   19.3179 C   0  0  0  0  0  0  0  0  0  0  0  0
  -24.4666   -8.8719   19.8907 C   0  0  0  0  0  0  0  0  0  0  0  0
  -22.7831  -10.5663   20.7865 C   0  0  0  0  0  0  0  0  0  0  0  0
  -25.5679  -36.1846   25.7630 C   0  0  0  0  0  0  0  0  0  0  0  0
  -26.3612  -30.5346   20.4408 C   0  0  0  0  0  0  0  0  0  0  0  0
  -26.3182  -35.4566   24.8199 C   0  0  0  0  0  0  0  0  0  0  0  0
  -26.0217  -29.4013   21.1934 C   0  0  0  0  0  0  0  0  0  0  0  0
  -25.1990   -6.4898   18.6370 C   0  0  0  0  0  0  0  0  0  0  0  0
  -27.7982  -28.1559   20.0965 C   0  0  0  0  0  0  0  0  0  0  0  0
  -24.8903   -4.1722   18.4001 C   0  0  0  0  0  0  0  0  0  0  0  0
  -23.5460   -1.8473   19.1550 C   0  0  0  0  0  0  0  0  0  0  0  0
  -25.6005   -3.1002   18.9404 C   0  0  0  0  0  0  0  0  0  0  0  0
  -24.0888  -10.1020   20.5389 C   0  0  0  0  0  0  0  0  0  0  0  0
  -22.9617  -11.7716   21.4203 C   0  0  0  0  0  0  0  0  0  0  0  0
  -21.5216   -9.9620   20.4717 C   0  0  0  0  0  0  0  0  0  0  0  0
  -25.8134  -32.2454   23.0632 C   0  0  0  0  0  0  0  0  0  0  0  0
  -22.9139  -30.7970   22.9318 C   0  0  0  0  0  0  0  0  0  0  0  0
  -21.0426  -28.1518   21.8603 C   0  0  0  0  0  0  0  0  0  0  0  0
  -27.4688  -15.6144   21.2052 C   0  0  0  0  0  0  0  0  0  0  0  0
  -24.7966  -35.4990   26.8629 C   0  0  0  0  0  0  0  0  0  0  0  0
  -25.5795  -31.8108   20.5908 C   0  0  0  0  0  0  0  0  0  0  0  0
  -24.8967  -29.4220   22.1946 C   0  0  0  0  0  0  0  0  0  0  0  0
  -24.5489  -34.0159   26.5998 C   0  0  0  0  0  0  0  0  0  0  0  0
  -26.0104  -14.1274   24.2221 C   0  0  0  0  0  0  0  0  0  0  0  0
  -25.8302  -33.3361   26.1278 C   0  0  0  0  0  0  0  0  0  0  0  0
  -25.2787  -12.9266   23.6320 C   0  0  0  0  0  0  0  0  0  0  0  0
  -27.4850  -21.5166   21.2564 C   0  0  0  0  0  0  0  0  0  0  0  0
  -30.5451  -16.9584   21.3015 C   0  0  0  0  0  0  0  0  0  0  0  0
  -27.3016  -14.4494   23.4687 C   0  0  0  0  0  0  0  0  0  0  0  0
  -27.4250  -22.9992   20.8860 C   0  0  0  0  0  0  0  0  0  0  0  0
  -29.8384  -15.9829   22.2477 C   0  0  0  0  0  0  0  0  0  0  0  0
  -26.3730  -13.4115   21.4159 C   0  0  0  0  0  0  0  0  0  0  0  0
  -29.6753  -22.3773   20.7716 C   0  0  0  0  0  0  0  0  0  0  0  0
  -26.3233  -33.9434   24.8089 C   0  0  1  0  0  0  0  0  0  0  0  0
  -24.8716  -31.9231   21.9376 C   0  0  1  0  0  0  0  0  0  0  0  0
  -25.0430  -13.1266   22.1276 C   0  0  1  0  0  0  0  0  0  0  0  0
  -28.9649  -21.2436   21.4839 C   0  0  2  0  0  0  0  0  0  0  0  0
  -29.1654  -17.5008   20.8984 C   0  0  2  0  0  0  0  0  0  0  0  0
  -18.7108  -27.2277   21.9398 C   0  0  0  0  0  0  0  0  0  0  0  0
  -23.3683  -29.9050   25.8142 C   0  0  0  0  0  0  0  0  0  0  0  0
  -21.5194  -28.2431   25.5179 C   0  0  0  0  0  0  0  0  0  0  0  0
  -21.0443  -30.6837   25.3172 C   0  0  0  0  0  0  0  0  0  0  0  0
  -20.7702  -28.2717   18.9158 C   0  0  0  0  0  0  0  0  0  0  0  0
  -28.6902  -18.7755   21.5672 C   0  0  0  0  0  0  0  0  0  0  0  0
  -29.0787  -24.6891   20.3229 C   0  0  0  0  0  0  0  0  0  0  0  0
  -28.1668  -25.8422   20.7128 C   0  0  0  0  0  0  0  0  0  1  0  0
  -22.3325  -29.5167   23.4813 C   0  0  1  0  0  0  0  0  0  0  0  0
  -19.6957  -28.0875   21.1630 C   0  0  2  0  0  0  0  0  0  0  0  0
  -22.0886  -29.5870   25.0152 C   0  0  0  0  0  0  0  0  0  0  0  0
  -25.0276  -10.9439   20.9793 N   0  0  0  0  0  0  0  0  0  0  0  0
  -24.3110  -11.9493   21.5100 N   0  0  0  0  0  0  0  0  0  0  0  0
  -24.1662  -30.6950   22.3095 N   0  0  0  0  0  0  0  0  0  0  0  0
  -27.0819  -14.5454   22.0207 N   0  0  0  0  0  0  0  0  0  0  0  0
  -28.6062  -16.3121   21.5461 N   0  0  0  0  0  0  0  0  0  0  0  0
  -28.7882  -23.4952   21.1020 N   0  0  1  0  0  0  0  0  0  0  0  0
  -22.0946  -12.6863   21.9040 N   0  0  0  0  0  0  0  0  0  0  0  0
  -21.5192   -8.7217   19.8191 N   0  0  0  0  0  0  0  0  0  0  0  0
  -25.5422  -33.4422   23.6985 N   0  0  0  0  0  0  0  0  0  0  0  0
  -21.1327  -29.2438   22.6974 N   0  0  0  0  0  0  0  0  0  0  0  0
  -29.3610  -19.9341   20.9349 N   0  3  0  0  0  0  0  0  0  0  0  0
  -19.8466  -27.5116   19.7968 N   0  3  0  0  0  0  0  0  0  0  0  0
  -20.4288  -10.5136   20.7459 O   0  0  0  0  0  0  0  0  0  0  0  0
  -26.7182  -31.4652   23.3361 O   0  0  0  0  0  0  0  0  0  0  0  0
  -22.2771  -31.8474   23.0441 O   0  0  0  0  0  0  0  0  0  0  0  0
  -21.9250  -27.3148   21.6832 O   0  0  0  0  0  0  0  0  0  0  0  0
  -26.8374  -15.9204   20.1851 O   0  0  0  0  0  0  0  0  0  0  0  0
  -25.5561   -5.3273   18.0257 O   0  0  0  0  0  0  0  0  0  0  0  0
  -28.5093  -26.9798   19.9324 O   0  0  0  0  0  0  0  0  0  1  0  0
  -22.9002   -0.7316   19.5189 F   0  0  0  0  0  0  0  0  0  0  0  0
  -26.9285   -3.1816   19.1004 F   0  0  0  0  0  0  0  0  0  0  0  0
  1  2  1  0  0  0  0
  1  5  2  0  0  0  0
  2  6  2  0  0  0  0
  3  8  2  0  0  0  0
  3 15  1  0  0  0  0
  4  9  1  0  0  0  0
  4 15  2  0  0  0  0
  5 17  1  0  0  0  0
  6 19  1  0  0  0  0
  7 10  2  0  0  0  0
  7 18  1  0  0  0  0
  8 21  1  0  0  0  0
  9 21  2  0  0  0  0
 10 22  1  0  0  0  0
 11 12  2  0  0  0  0
 11 23  1  0  0  0  0
 12 24  1  0  0  0  0
 13 20  1  0  0  0  0
 13 22  2  0  0  0  0
 14 24  2  0  0  0  0
 14 25  1  0  0  0  0
 15 26  1  0  0  0  0
 16 26  1  0  0  0  0
 16 27  2  0  0  0  0
 16 28  1  0  0  0  0
 17 19  2  0  0  0  0
 17 33  1  0  0  0  0
 18 20  2  0  0  0  0
 18 34  1  0  0  0  0
 19 47  1  0  0  0  0
 20 35  1  0  0  0  0
 21 80  1  0  0  0  0
 22 81  1  0  0  0  0
 23 25  2  0  0  0  0
 23 80  1  0  0  0  0
 24 82  1  0  0  0  0
 25 83  1  0  0  0  0
 26 63  2  0  0  0  0
 27 64  1  0  0  0  0
 27 69  1  0  0  0  0
 28 70  1  0  0  0  0
 28 75  2  0  0  0  0
 29 48  1  0  0  0  0
 29 71  1  0  0  0  0
 29 76  2  0  0  0  0
 30 60  1  0  0  0  0
 30 65  1  0  0  0  0
 30 77  2  0  0  0  0
 31 61  1  0  0  0  0
 31 72  1  0  0  0  0
 31 78  2  0  0  0  0
 32 66  1  0  0  0  0
 32 67  1  0  0  0  0
 32 79  2  0  0  0  0
 33 36  1  0  0  0  0
 34 48  1  0  0  0  0
 35 65  1  0  0  0  0
 36 38  1  0  0  0  0
 37 39  1  0  0  0  0
 37 42  1  0  0  0  0
 38 47  1  0  0  0  0
 39 49  1  0  0  0  0
 40 43  1  0  0  0  0
 40 50  1  0  0  0  0
 41 44  1  0  0  0  0
 41 51  1  0  0  0  0
 42 66  1  0  0  0  0
 43 68  1  0  0  0  0
 44 67  1  0  0  0  0
 45 49  1  0  0  0  0
 45 66  1  0  0  0  0
 46 50  1  0  0  0  0
 46 68  1  0  0  0  0
 47 71  1  0  0  0  0
 48 65  1  0  0  0  0
 49 64  1  0  0  0  0
 50 73  1  0  0  0  0
 51 57  1  0  0  0  0
 51 67  1  0  0  0  0
 52 61  1  0  0  0  0
 53 62  1  0  0  0  0
 54 62  1  0  0  0  0
 55 62  1  0  0  0  0
 56 74  1  0  0  0  0
 57 73  1  0  0  0  0
 58 59  1  0  0  0  0
 58 68  1  0  0  0  0
 59 81  1  0  0  0  0
 60 62  1  0  0  0  0
 60 72  1  0  0  0  0
 61 74  1  0  0  0  0
 63 64  1  0  0  0  0
M  CHG  2  73   1  74   1
M  ISO  4  32 100  59 101  67 100  81 101
M  END
> <Batch ID>
0187

> <Smiles>
CNC(C)C(=O)NC(C(=O)N1Cc2cc([101O:1][101CH2:1]CN3CCC(NCC4CC[100N:0]4[100C:0](=O)N4CCCC(n5nc(-c6ccc(Oc7ccc(F)cc7F)cc6)c(C(N)=O)c5N)C4)C3)ccc2CC1C(=O)NC1CCCc2ccccc21)C(C)(C)C

> <Shape>
0.279

> <Color>
0.083

> <Negative vol penalty>
0.000

$$$$

  -OEChem-04052323173D

 86 95  0     1  0  0  0  0  0999 V2000
  -16.5891  -29.8958   24.1739 C   0  0  0  0  0  0  0  0  0  0  0  0
  -17.7343  -30.3644   24.8098 C   0  0  0  0  0  0  0  0  0  0  0  0
  -27.3465  -14.8386   21.7810 C   0  0  0  0  0  0  0  0  0  0  0  0
  -26.4951  -15.1808   19.5460 C   0  0  0  0  0  0  0  0  0  0  0  0
  -16.6936  -28.9245   23.1791 C   0  0  0  0  0  0  0  0  0  0  0  0
  -18.9846  -29.8612   24.4520 C   0  0  0  0  0  0  0  0  0  0  0  0
  -24.2848  -32.9263   24.3145 C   0  0  0  0  0  0  0  0  0  0  0  0
  -26.8976  -13.5184   21.7499 C   0  0  0  0  0  0  0  0  0  0  0  0
  -26.0461  -13.8605   19.5149 C   0  0  0  0  0  0  0  0  0  0  0  0
  -25.3434  -33.0104   25.2179 C   0  0  0  0  0  0  0  0  0  0  0  0
  -27.9083  -10.5741   20.4297 C   0  0  0  0  0  0  0  0  0  0  0  0
  -28.7756   -9.5835   20.8900 C   0  0  0  0  0  0  0  0  0  0  0  0
  -26.5148  -31.2918   23.9959 C   0  0  0  0  0  0  0  0  0  0  0  0
  -29.0958  -28.3365   28.3077 C   0  0  0  0  0  0  0  0  0  0  0  0
  -27.1660   -8.9596   22.5803 C   0  0  0  0  0  0  0  0  0  0  0  0
  -27.1452  -15.6699   20.6790 C   0  0  0  0  0  0  0  0  0  0  0  0
  -28.8677  -17.5139   20.3042 C   0  0  0  0  0  0  0  0  0  0  0  0
  -17.9466  -28.4161   22.8022 C   0  0  0  0  0  0  0  0  0  0  0  0
  -24.3286  -32.0150   23.2496 C   0  0  0  0  0  0  0  0  0  0  0  0
  -19.1058  -28.8812   23.4522 C   0  0  0  0  0  0  0  0  0  0  0  0
  -25.4566  -31.1998   23.0790 C   0  0  0  0  0  0  0  0  0  0  0  0
  -29.2149  -29.7120   28.4006 C   0  0  0  0  0  0  0  0  0  0  0  0
  -26.2474  -13.0293   20.6168 C   0  0  0  0  0  0  0  0  0  0  0  0
  -26.4573  -32.1910   25.0604 C   0  0  0  0  0  0  0  0  0  0  0  0
  -26.6698  -10.7576   21.0447 C   0  0  0  0  0  0  0  0  0  0  0  0
  -28.4045   -8.7762   21.9652 C   0  0  0  0  0  0  0  0  0  0  0  0
  -26.2986   -9.9503   22.1200 C   0  0  0  0  0  0  0  0  0  0  0  0
  -27.6082  -17.0340   20.7108 C   0  0  0  0  0  0  0  0  0  0  0  0
  -27.8575  -27.8151   27.9910 C   0  0  0  0  0  0  0  0  0  0  0  0
  -28.0878  -30.4751   28.1704 C   0  0  0  0  0  0  0  0  0  0  0  0
  -28.8096  -18.8670   20.5326 C   0  0  0  0  0  0  0  0  0  0  0  0
  -29.9897  -16.8003   19.7680 C   0  0  0  0  0  0  0  0  0  0  0  0
  -22.5811  -29.5109   22.3667 C   0  0  0  0  0  0  0  0  0  0  0  0
  -24.4876  -29.5981   19.7437 C   0  0  0  0  0  0  0  0  0  0  0  0
  -27.4597  -30.5346   18.3521 C   0  0  0  0  0  0  0  0  0  0  0  0
  -27.6071  -23.1617   23.5209 C   0  0  0  0  0  0  0  0  0  0  0  0
  -18.0052  -27.3328   21.7545 C   0  0  0  0  0  0  0  0  0  0  0  0
  -23.1902  -31.9553   22.2683 C   0  0  0  0  0  0  0  0  0  0  0  0
  -25.5616  -30.2192   21.9406 C   0  0  0  0  0  0  0  0  0  0  0  0
  -19.4008  -27.1231   21.1725 C   0  0  0  0  0  0  0  0  0  0  0  0
  -24.9068  -21.8577   21.6902 C   0  0  0  0  0  0  0  0  0  0  0  0
  -20.4405  -27.0627   22.2871 C   0  0  0  0  0  0  0  0  0  0  0  0
  -25.4710  -20.5124   21.2345 C   0  0  0  0  0  0  0  0  0  0  0  0
  -25.3003  -22.1860   23.1316 C   0  0  0  0  0  0  0  0  0  0  0  0
  -25.9907  -24.2004   25.1740 C   0  0  0  0  0  0  0  0  0  0  0  0
  -27.7779  -25.5524   24.1415 C   0  0  0  0  0  0  0  0  0  0  0  0
  -27.3210  -20.7734   22.9302 C   0  0  0  0  0  0  0  0  0  0  0  0
  -26.5084  -24.5597   26.5631 C   0  0  0  0  0  0  0  0  0  0  0  0
  -28.3363  -25.9106   25.5091 C   0  0  0  0  0  0  0  0  0  0  0  0
  -20.4821  -28.3779   23.0746 C   0  0  1  0  0  0  0  0  0  0  0  0
  -23.1170  -30.6290   21.5180 C   0  0  1  0  0  0  0  0  0  0  0  0
  -26.9909  -20.4439   21.4663 C   0  0  1  0  0  0  0  0  0  0  0  0
  -30.5292  -30.3258   28.7390 C   0  0  0  0  0  0  0  0  0  0  0  0
  -28.7451  -30.4346   16.1992 C   0  0  0  0  0  0  0  0  0  0  0  0
  -25.1254  -26.6599   20.2638 C   0  0  0  0  0  0  0  0  0  0  0  0
  -27.0806  -26.8825   18.7159 C   0  0  0  0  0  0  0  0  0  0  0  0
  -24.7657  -27.2393   17.8577 C   0  0  0  0  0  0  0  0  0  0  0  0
  -27.5562  -33.4848   18.1380 C   0  0  0  0  0  0  0  0  0  0  0  0
  -28.1400  -31.9633   28.2538 C   0  0  0  0  0  0  0  0  0  0  0  0
  -27.6746  -26.3303   27.8783 C   0  0  0  0  0  0  0  0  0  0  0  0
  -27.1783  -32.6507   27.2796 C   0  0  0  0  0  0  0  0  0  1  0  0
  -25.8115  -28.9804   19.3633 C   0  0  1  0  0  0  0  0  0  0  0  0
  -27.7826  -31.2473   17.0513 C   0  0  2  0  0  0  0  0  0  0  0  0
  -25.6933  -27.4575   19.0728 C   0  0  0  0  0  0  0  0  0  0  0  0
  -26.8086  -18.0034   21.1633 N   0  0  0  0  0  0  0  0  0  0  0  0
  -26.7714  -28.5859   27.7708 N   0  0  0  0  0  0  0  0  0  0  0  0
  -26.8886  -29.9379   27.8618 N   0  0  0  0  0  0  0  0  0  0  0  0
  -27.5674  -19.1059   21.0426 N   0  0  0  0  0  0  0  0  0  0  0  0
  -24.4200  -30.1936   21.0112 N   0  0  0  0  0  0  0  0  0  0  0  0
  -26.7536  -22.0677   23.3144 N   0  0  0  0  0  0  0  0  0  0  0  0
  -27.0657  -24.2769   24.1773 N   0  0  0  0  0  0  0  0  0  0  0  0
  -29.7004  -19.8638   20.3451 N   0  0  0  0  0  0  0  0  0  0  0  0
  -29.8803  -15.4134   19.5981 N   0  0  0  0  0  0  0  0  0  0  0  0
  -21.2052  -29.3885   22.3328 N   0  0  0  0  0  0  0  0  0  0  0  0
  -26.3210  -29.7645   18.2435 N   0  0  0  0  0  0  0  0  0  0  0  0
  -27.2102  -25.8957   26.5164 N   0  3  0  0  0  0  0  0  0  0  0  0
  -28.4043  -32.5732   17.3276 N   0  3  0  0  0  0  0  0  0  0  0  0
  -31.0635  -17.3732   19.4643 O   0  0  0  0  0  0  0  0  0  0  0  0
  -23.3586  -28.8100   23.0040 O   0  0  0  0  0  0  0  0  0  0  0  0
  -23.5502  -29.5600   18.9428 O   0  0  0  0  0  0  0  0  0  0  0  0
  -28.1506  -30.6466   19.3624 O   0  0  0  0  0  0  0  0  0  0  0  0
  -28.7848  -23.1430   23.1413 O   0  0  0  0  0  0  0  0  0  0  0  0
  -25.8094  -11.7410   20.5860 O   0  0  0  0  0  0  0  0  0  0  0  0
  -27.4990  -32.2712   25.9473 O   0  0  0  0  0  0  0  0  0  1  0  0
  -29.2369   -7.8239   22.4062 F   0  0  0  0  0  0  0  0  0  0  0  0
  -25.1096  -10.1210   22.7141 F   0  0  0  0  0  0  0  0  0  0  0  0
  1  2  1  0  0  0  0
  1  5  2  0  0  0  0
  2  6  2  0  0  0  0
  3  8  2  0  0  0  0
  3 16  1  0  0  0  0
  4  9  1  0  0  0  0
  4 16  2  0  0  0  0
  5 18  1  0  0  0  0
  6 20  1  0  0  0  0
  7 10  2  0  0  0  0
  7 19  1  0  0  0  0
  8 23  1  0  0  0  0
  9 23  2  0  0  0  0
 10 24  1  0  0  0  0
 11 12  2  0  0  0  0
 11 25  1  0  0  0  0
 12 26  1  0  0  0  0
 13 21  1  0  0  0  0
 13 24  2  0  0  0  0
 14 22  1  0  0  0  0
 14 29  2  0  0  0  0
 15 26  2  0  0  0  0
 15 27  1  0  0  0  0
 16 28  1  0  0  0  0
 17 28  1  0  0  0  0
 17 31  2  0  0  0  0
 17 32  1  0  0  0  0
 18 20  2  0  0  0  0
 18 37  1  0  0  0  0
 19 21  2  0  0  0  0
 19 38  1  0  0  0  0
 20 50  1  0  0  0  0
 21 39  1  0  0  0  0
 22 30  2  0  0  0  0
 22 53  1  0  0  0  0
 23 83  1  0  0  0  0
 24 84  1  0  0  0  0
 25 27  2  0  0  0  0
 25 83  1  0  0  0  0
 26 85  1  0  0  0  0
 27 86  1  0  0  0  0
 28 65  2  0  0  0  0
 29 60  1  0  0  0  0
 29 66  1  0  0  0  0
 30 59  1  0  0  0  0
 30 67  1  0  0  0  0
 31 68  1  0  0  0  0
 31 72  1  0  0  0  0
 32 73  1  0  0  0  0
 32 78  2  0  0  0  0
 33 51  1  0  0  0  0
 33 74  1  0  0  0  0
 33 79  2  0  0  0  0
 34 62  1  0  0  0  0
 34 69  1  0  0  0  0
 34 80  2  0  0  0  0
 35 63  1  0  0  0  0
 35 75  1  0  0  0  0
 35 81  2  0  0  0  0
 36 70  1  0  0  0  0
 36 71  1  0  0  0  0
 36 82  2  0  0  0  0
 37 40  1  0  0  0  0
 38 51  1  0  0  0  0
 39 69  1  0  0  0  0
 40 42  1  0  0  0  0
 41 43  1  0  0  0  0
 41 44  1  0  0  0  0
 42 50  1  0  0  0  0
 43 52  1  0  0  0  0
 44 70  1  0  0  0  0
 45 48  1  0  0  0  0
 45 71  1  0  0  0  0
 46 49  1  0  0  0  0
 46 71  1  0  0  0  0
 47 52  1  0  0  0  0
 47 70  1  0  0  0  0
 48 76  1  0  0  0  0
 49 76  1  0  0  0  0
 50 74  1  0  0  0  0
 51 69  1  0  0  0  0
 52 68  1  0  0  0  0
 54 63  1  0  0  0  0
 55 64  1  0  0  0  0
 56 64  1  0  0  0  0
 57 64  1  0  0  0  0
 58 77  1  0  0  0  0
 59 61  1  0  0  0  0
 60 76  1  0  0  0  0
 61 84  1  0  0  0  0
 62 64  1  0  0  0  0
 62 75  1  0  0  0  0
 63 77  1  0  0  0  0
 65 68  1  0  0  0  0
 66 67  2  0  0  0  0
M  CHG  2  76   1  77   1
M  ISO  4  36 100  61 101  71 100  84 101
M  END
> <Batch ID>
0187

> <Smiles>
CNC(C)C(=O)NC(C(=O)N1Cc2cc([101O:1][101CH2:1]Cc3nnc(CN4CC[100N:0]([100C:0](=O)N5CCCC(n6nc(-c7ccc(Oc8ccc(F)cc8F)cc7)c(C(N)=O)c6N)C5)CC4)cc3C)ccc2CC1C(=O)NC1CCCc2ccccc21)C(C)(C)C

> <Shape>
0.254

> <Color>
0.109

> <Negative vol penalty>
0.000

$$$$

  -OEChem-04052323173D

 83 92  0     1  0  0  0  0  0999 V2000
  -17.2260  -22.4720   18.4007 C   0  0  0  0  0  0  0  0  0  0  0  0
  -18.6088  -22.6243   18.3894 C   0  0  0  0  0  0  0  0  0  0  0  0
  -23.0071   -9.8525   19.9640 C   0  0  0  0  0  0  0  0  0  0  0  0
  -23.7198   -9.9060   22.2719 C   0  0  0  0  0  0  0  0  0  0  0  0
  -16.6669  -21.1963   18.4631 C   0  0  0  0  0  0  0  0  0  0  0  0
  -19.4333  -21.5010   18.4416 C   0  0  0  0  0  0  0  0  0  0  0  0
  -24.8549  -20.7824   15.6856 C   0  0  0  0  0  0  0  0  0  0  0  0
  -22.2588   -8.7039   20.2217 C   0  0  0  0  0  0  0  0  0  0  0  0
  -22.9715   -8.7575   22.5297 C   0  0  0  0  0  0  0  0  0  0  0  0
  -26.1650  -20.9126   16.1445 C   0  0  0  0  0  0  0  0  0  0  0  0
  -23.2752   -5.4253   22.0450 C   0  0  0  0  0  0  0  0  0  0  0  0
  -23.8763   -4.4151   22.7959 C   0  0  0  0  0  0  0  0  0  0  0  0
  -26.2559  -18.5348   16.5409 C   0  0  0  0  0  0  0  0  0  0  0  0
  -22.1402   -4.6213   24.4633 C   0  0  0  0  0  0  0  0  0  0  0  0
  -29.7333  -20.0896   20.4485 C   0  0  0  0  0  0  0  0  0  0  0  0
  -23.7377  -10.4535   20.9891 C   0  0  0  0  0  0  0  0  0  0  0  0
  -24.0808  -12.9761   20.8256 C   0  0  0  0  0  0  0  0  0  0  0  0
  -17.4849  -20.0563   18.5063 C   0  0  0  0  0  0  0  0  0  0  0  0
  -24.2308  -19.5270   15.6611 C   0  0  0  0  0  0  0  0  0  0  0  0
  -18.8846  -20.2089   18.5060 C   0  0  0  0  0  0  0  0  0  0  0  0
  -24.9388  -18.3910   16.0788 C   0  0  0  0  0  0  0  0  0  0  0  0
  -30.1466  -19.9641   19.1379 C   0  0  0  0  0  0  0  0  0  0  0  0
  -22.2410   -8.1564   21.5045 C   0  0  0  0  0  0  0  0  0  0  0  0
  -26.8647  -19.7891   16.5750 C   0  0  0  0  0  0  0  0  0  0  0  0
  -22.1067   -6.0336   22.5034 C   0  0  0  0  0  0  0  0  0  0  0  0
  -23.3088   -4.0131   24.0050 C   0  0  0  0  0  0  0  0  0  0  0  0
  -21.5391   -5.6316   23.7125 C   0  0  0  0  0  0  0  0  0  0  0  0
  -24.5114  -11.6397   20.7234 C   0  0  0  0  0  0  0  0  0  0  0  0
  -30.7529  -18.7673   18.8151 C   0  0  0  0  0  0  0  0  0  0  0  0
  -25.1798  -13.7191   20.4698 C   0  0  0  0  0  0  0  0  0  0  0  0
  -30.4989  -18.0070   20.9422 C   0  0  0  0  0  0  0  0  0  0  0  0
  -22.8018  -13.4991   21.2079 C   0  0  0  0  0  0  0  0  0  0  0  0
  -21.6798  -18.2622   17.0741 C   0  0  0  0  0  0  0  0  0  0  0  0
  -22.3438  -15.7416   15.1434 C   0  0  0  0  0  0  0  0  0  0  0  0
  -24.6570  -14.0228   13.3154 C   0  0  0  0  0  0  0  0  0  0  0  0
  -30.6581  -14.7464   20.7501 C   0  0  0  0  0  0  0  0  0  0  0  0
  -16.8349  -18.7002   18.6209 C   0  0  0  0  0  0  0  0  0  0  0  0
  -22.8263  -19.3995   15.1381 C   0  0  0  0  0  0  0  0  0  0  0  0
  -24.3209  -17.0177   16.0534 C   0  0  0  0  0  0  0  0  0  0  0  0
  -17.7767  -17.5438   18.2953 C   0  0  0  0  0  0  0  0  0  0  0  0
  -29.5708  -12.3136   18.3887 C   0  0  0  0  0  0  0  0  0  0  0  0
  -19.1151  -17.7299   19.0031 C   0  0  0  0  0  0  0  0  0  0  0  0
  -32.3579  -17.5518   17.1963 C   0  0  0  0  0  0  0  0  0  0  0  0
  -32.6090  -19.0184   17.0346 C   0  0  0  0  0  0  0  0  0  0  0  0
  -28.1249  -12.0274   18.7979 C   0  0  0  0  0  0  0  0  0  0  0  0
  -30.4630  -12.5592   19.6035 C   0  0  0  0  0  0  0  0  0  0  0  0
  -28.5329  -13.3163   20.9359 C   0  0  0  0  0  0  0  0  0  0  0  0
  -19.8121  -19.0135   18.5364 C   0  0  1  0  0  0  0  0  0  0  0  0
  -31.2386  -18.5319   17.4219 C   0  0  0  0  0  0  0  0  0  0  0  0
  -22.1131  -18.1477   15.6400 C   0  0  1  0  0  0  0  0  0  0  0  0
  -27.5831  -13.1173   19.7423 C   0  0  2  0  0  0  0  0  0  0  0  0
  -24.9108  -11.9810   11.8786 C   0  0  0  0  0  0  0  0  0  0  0  0
  -22.3292  -13.9864   17.6392 C   0  0  0  0  0  0  0  0  0  0  0  0
  -23.4966  -12.2122   16.3135 C   0  0  0  0  0  0  0  0  0  0  0  0
  -21.2167  -12.9706   15.6430 C   0  0  0  0  0  0  0  0  0  0  0  0
  -25.4415  -15.6351   10.9608 C   0  0  0  0  0  0  0  0  0  0  0  0
  -29.9353  -21.0813   18.1451 C   0  0  0  0  0  0  0  0  0  0  0  0
  -30.6976  -16.9213   21.9447 C   0  0  0  0  0  0  0  0  0  0  0  0
  -28.4963  -21.1485   17.6455 C   0  0  0  0  0  0  0  0  0  1  0  0
  -23.1938  -14.4995   15.2611 C   0  0  1  0  0  0  0  0  0  0  0  0
  -24.6168  -13.4730   11.9010 C   0  0  2  0  0  0  0  0  0  0  0  0
  -22.5704  -13.4432   16.2166 C   0  0  0  0  0  0  0  0  0  0  0  0
  -29.8940  -19.1275   21.3806 N   0  0  0  0  0  0  0  0  0  0  0  0
  -25.7846  -11.5366   20.3331 N   0  0  0  0  0  0  0  0  0  0  0  0
  -30.9462  -17.7634   19.6956 N   0  0  0  0  0  0  0  0  0  0  0  0
  -26.1635  -12.8176   20.1869 N   0  0  0  0  0  0  0  0  0  0  0  0
  -22.9432  -16.9456   15.5394 N   0  0  0  0  0  0  0  0  0  0  0  0
  -29.8939  -13.6048   20.4572 N   0  0  0  0  0  0  0  0  0  0  0  0
  -25.3911  -15.0490   20.3745 N   0  0  0  0  0  0  0  0  0  0  0  0
  -21.7835  -12.5960   21.5425 N   0  0  0  0  0  0  0  0  0  0  0  0
  -20.4238  -18.8138   17.2401 N   0  0  0  0  0  0  0  0  0  0  0  0
  -23.4081  -14.0210   13.8997 N   0  0  0  0  0  0  0  0  0  0  0  0
  -30.0414  -15.6914   21.5609 N   0  0  0  0  0  0  0  0  0  0  0  0
  -25.6251  -14.1634   11.0480 N   0  3  0  0  0  0  0  0  0  0  0  0
  -22.5638  -14.7304   21.2357 O   0  0  0  0  0  0  0  0  0  0  0  0
  -22.4289  -17.8771   17.9642 O   0  0  0  0  0  0  0  0  0  0  0  0
  -21.1931  -15.6479   14.7092 O   0  0  0  0  0  0  0  0  0  0  0  0
  -25.6934  -14.4112   13.8498 O   0  0  0  0  0  0  0  0  0  0  0  0
  -31.8030  -14.9137   20.3164 O   0  0  0  0  0  0  0  0  0  0  0  0
  -21.5107   -7.0358   21.7564 O   0  0  0  0  0  0  0  0  0  0  0  0
  -28.1433  -19.9134   17.0240 O   0  0  0  0  0  0  0  0  0  1  0  0
  -23.8853   -3.0419   24.7251 F   0  0  0  0  0  0  0  0  0  0  0  0
  -20.4159   -6.2115   24.1574 F   0  0  0  0  0  0  0  0  0  0  0  0
  1  2  1  0  0  0  0
  1  5  2  0  0  0  0
  2  6  2  0  0  0  0
  3  8  2  0  0  0  0
  3 16  1  0  0  0  0
  4  9  1  0  0  0  0
  4 16  2  0  0  0  0
  5 18  1  0  0  0  0
  6 20  1  0  0  0  0
  7 10  2  0  0  0  0
  7 19  1  0  0  0  0
  8 23  1  0  0  0  0
  9 23  2  0  0  0  0
 10 24  1  0  0  0  0
 11 12  2  0  0  0  0
 11 25  1  0  0  0  0
 12 26  1  0  0  0  0
 13 21  1  0  0  0  0
 13 24  2  0  0  0  0
 14 26  2  0  0  0  0
 14 27  1  0  0  0  0
 15 22  1  0  0  0  0
 15 63  2  0  0  0  0
 16 28  1  0  0  0  0
 17 28  1  0  0  0  0
 17 30  2  0  0  0  0
 17 32  1  0  0  0  0
 18 20  2  0  0  0  0
 18 37  1  0  0  0  0
 19 21  2  0  0  0  0
 19 38  1  0  0  0  0
 20 48  1  0  0  0  0
 21 39  1  0  0  0  0
 22 29  2  0  0  0  0
 22 57  1  0  0  0  0
 23 80  1  0  0  0  0
 24 81  1  0  0  0  0
 25 27  2  0  0  0  0
 25 80  1  0  0  0  0
 26 82  1  0  0  0  0
 27 83  1  0  0  0  0
 28 64  2  0  0  0  0
 29 49  1  0  0  0  0
 29 65  1  0  0  0  0
 30 66  1  0  0  0  0
 30 69  1  0  0  0  0
 31 58  1  0  0  0  0
 31 63  1  0  0  0  0
 31 65  2  0  0  0  0
 32 70  1  0  0  0  0
 32 75  2  0  0  0  0
 33 50  1  0  0  0  0
 33 71  1  0  0  0  0
 33 76  2  0  0  0  0
 34 60  1  0  0  0  0
 34 67  1  0  0  0  0
 34 77  2  0  0  0  0
 35 61  1  0  0  0  0
 35 72  1  0  0  0  0
 35 78  2  0  0  0  0
 36 68  1  0  0  0  0
 36 73  1  0  0  0  0
 36 79  2  0  0  0  0
 37 40  1  0  0  0  0
 38 50  1  0  0  0  0
 39 67  1  0  0  0  0
 40 42  1  0  0  0  0
 41 45  1  0  0  0  0
 41 46  1  0  0  0  0
 42 48  1  0  0  0  0
 43 44  1  0  0  0  0
 43 49  1  0  0  0  0
 44 49  1  0  0  0  0
 45 51  1  0  0  0  0
 46 68  1  0  0  0  0
 47 51  1  0  0  0  0
 47 68  1  0  0  0  0
 48 71  1  0  0  0  0
 50 67  1  0  0  0  0
 51 66  1  0  0  0  0
 52 61  1  0  0  0  0
 53 62  1  0  0  0  0
 54 62  1  0  0  0  0
 55 62  1  0  0  0  0
 56 74  1  0  0  0  0
 57 59  1  0  0  0  0
 58 73  1  0  0  0  0
 59 81  1  0  0  0  0
 60 62  1  0  0  0  0
 60 72  1  0  0  0  0
 61 74  1  0  0  0  0
 64 66  1  0  0  0  0
M  CHG  1  74   1
M  ISO  4  36 100  59 101  73 100  81 101
M  END
> <Batch ID>
0187

> <Smiles>
CNC(C)C(=O)NC(C(=O)N1Cc2cc([101O:1][101CH2:1]Cc3cnc(C[100NH:0][100C:0](=O)N4CCCC(n5nc(-c6ccc(Oc7ccc(F)cc7F)cc6)c(C(N)=O)c5N)C4)nc3C3CC3)ccc2CC1C(=O)NC1CCCc2ccccc21)C(C)(C)C

> <Shape>
0.196

> <Color>
0.214

> <Negative vol penalty>
0.000

$$$$

  -OEChem-04052323173D

 80 89  0     1  0  0  0  0  0999 V2000
  -30.2334  -20.7250   17.9231 C   0  0  0  0  0  0  0  0  0  0  0  0
  -29.7461  -21.8797   17.3215 C   0  0  0  0  0  0  0  0  0  0  0  0
  -22.3004  -14.1541   21.3259 C   0  0  0  0  0  0  0  0  0  0  0  0
  -24.4000  -14.7867   20.3118 C   0  0  0  0  0  0  0  0  0  0  0  0
  -29.7023  -20.2998   19.1390 C   0  0  0  0  0  0  0  0  0  0  0  0
  -28.7358  -22.6161   17.9412 C   0  0  0  0  0  0  0  0  0  0  0  0
  -23.4425  -28.5325   18.9233 C   0  0  0  0  0  0  0  0  0  0  0  0
  -22.4349  -12.8683   20.8024 C   0  0  0  0  0  0  0  0  0  0  0  0
  -24.5345  -13.5008   19.7883 C   0  0  0  0  0  0  0  0  0  0  0  0
  -22.2974  -28.9128   19.6218 C   0  0  0  0  0  0  0  0  0  0  0  0
  -24.1524  -10.0487   21.5323 C   0  0  0  0  0  0  0  0  0  0  0  0
  -23.8818   -8.9729   22.3779 C   0  0  0  0  0  0  0  0  0  0  0  0
  -23.4022  -28.3958   21.7026 C   0  0  0  0  0  0  0  0  0  0  0  0
  -22.1329   -8.2372   20.8822 C   0  0  0  0  0  0  0  0  0  0  0  0
  -23.2829  -15.1134   21.0806 C   0  0  0  0  0  0  0  0  0  0  0  0
  -23.6067  -16.9056   22.8668 C   0  0  0  0  0  0  0  0  0  0  0  0
  -28.6764  -21.0250   19.7671 C   0  0  0  0  0  0  0  0  0  0  0  0
  -24.5748  -28.0702   19.6095 C   0  0  0  0  0  0  0  0  0  0  0  0
  -28.2034  -22.2163   19.1802 C   0  0  0  0  0  0  0  0  0  0  0  0
  -24.5620  -28.0148   21.0108 C   0  0  0  0  0  0  0  0  0  0  0  0
  -23.5519  -12.5416   20.0336 C   0  0  0  0  0  0  0  0  0  0  0  0
  -22.2764  -28.8423   21.0115 C   0  0  0  0  0  0  0  0  0  0  0  0
  -23.4132  -10.2188   20.3617 C   0  0  0  0  0  0  0  0  0  0  0  0
  -22.8720   -8.0672   22.0529 C   0  0  0  0  0  0  0  0  0  0  0  0
  -22.4035   -9.3131   20.0366 C   0  0  0  0  0  0  0  0  0  0  0  0
  -23.1443  -16.4420   21.6206 C   0  0  0  0  0  0  0  0  0  0  0  0
  -23.2281  -18.2254   22.9042 C   0  0  0  0  0  0  0  0  0  0  0  0
  -24.3152  -16.2059   23.8984 C   0  0  0  0  0  0  0  0  0  0  0  0
  -17.5205  -26.6103   22.7299 C   0  0  0  0  0  0  0  0  0  0  0  0
  -26.2950  -25.3722   19.6921 C   0  0  0  0  0  0  0  0  0  0  0  0
  -28.1899  -27.2556   21.6709 C   0  0  0  0  0  0  0  0  0  0  0  0
  -31.1358  -25.9316   20.5718 C   0  0  0  0  0  0  0  0  0  0  0  0
  -19.2887  -22.0132   22.2069 C   0  0  0  0  0  0  0  0  0  0  0  0
  -28.1434  -20.5237   21.0861 C   0  0  0  0  0  0  0  0  0  0  0  0
  -25.8109  -27.6934   18.8385 C   0  0  0  0  0  0  0  0  0  0  0  0
  -25.7523  -27.5297   21.7934 C   0  0  0  0  0  0  0  0  0  0  0  0
  -26.7836  -21.1161   21.4415 C   0  0  0  0  0  0  0  0  0  0  0  0
  -21.4258  -21.2506   19.2976 C   0  0  0  0  0  0  0  0  0  0  0  0
  -26.8174  -22.6286   21.2807 C   0  0  0  0  0  0  0  0  0  0  0  0
  -22.0592  -19.9335   19.7361 C   0  0  0  0  0  0  0  0  0  0  0  0
  -16.4946  -24.2802   22.4180 C   0  0  0  0  0  0  0  0  0  0  0  0
  -19.9967  -21.4008   19.8176 C   0  0  0  0  0  0  0  0  0  0  0  0
  -20.5156  -19.9168   21.7341 C   0  0  0  0  0  0  0  0  0  0  0  0
  -19.8563  -27.0468   21.7837 C   0  0  0  0  0  0  0  0  0  0  0  0
  -19.1652  -28.5771   23.1169 C   0  0  0  0  0  0  0  0  0  0  0  0
  -27.0837  -23.0167   19.8207 C   0  0  1  0  0  0  0  0  0  0  0  0
  -17.4170  -25.3497   21.9378 C   0  0  2  0  0  0  0  0  0  0  0  0
  -26.7681  -26.7964   19.6206 C   0  0  1  0  0  0  0  0  0  0  0  0
  -21.9699  -19.7699   21.2611 C   0  0  1  0  0  0  0  0  0  0  0  0
  -17.9820  -24.0927   22.5232 C   0  0  2  0  0  0  0  0  0  0  0  0
  -20.5339  -28.2132   22.5193 C   0  0  0  0  0  0  0  0  0  1  0  0
  -33.5845  -25.3824   20.5688 C   0  0  0  0  0  0  0  0  0  0  0  0
  -28.4400  -30.0340   20.4367 C   0  0  0  0  0  0  0  0  0  0  0  0
  -30.8760  -29.5791   20.0802 C   0  0  0  0  0  0  0  0  0  0  0  0
  -29.9425  -29.6221   22.3930 C   0  0  0  0  0  0  0  0  0  0  0  0
  -30.7085  -23.4891   22.1875 C   0  0  0  0  0  0  0  0  0  0  0  0
  -29.3984  -27.6766   20.8728 C   0  0  1  0  0  0  0  0  0  0  0  0
  -32.2646  -25.2346   21.3097 C   0  0  2  0  0  0  0  0  0  0  0  0
  -29.6445  -29.2106   20.9348 C   0  0  0  0  0  0  0  0  0  0  0  0
  -22.5195  -17.3901   20.9173 N   0  0  0  0  0  0  0  0  0  0  0  0
  -22.5866  -18.4627   21.7242 N   0  0  0  0  0  0  0  0  0  0  0  0
  -18.6819  -27.3196   22.5873 N   0  0  0  0  0  0  0  0  0  0  0  0
  -26.9589  -27.2552   21.0024 N   0  0  0  0  0  0  0  0  0  0  0  0
  -19.9231  -21.1774   21.2701 N   0  0  0  0  0  0  0  0  0  0  0  0
  -23.3846  -19.1944   23.8310 N   0  0  0  0  0  0  0  0  0  0  0  0
  -24.6247  -14.8538   23.6973 N   0  0  0  0  0  0  0  0  0  0  0  0
  -27.3158  -24.4423   19.7461 N   0  0  0  0  0  0  0  0  0  0  0  0
  -30.5122  -26.8724   21.3638 N   0  0  0  0  0  0  0  0  0  0  0  0
  -18.6753  -23.1481   21.6886 N   0  0  0  0  0  0  0  0  0  0  0  0
  -31.9681  -23.7814   21.4562 N   0  3  0  0  0  0  0  0  0  0  0  0
  -24.6492  -16.7589   24.9736 O   0  0  0  0  0  0  0  0  0  0  0  0
  -16.5835  -26.9441   23.4484 O   0  0  0  0  0  0  0  0  0  0  0  0
  -25.0929  -25.1345   19.6993 O   0  0  0  0  0  0  0  0  0  0  0  0
  -28.3295  -26.9426   22.8565 O   0  0  0  0  0  0  0  0  0  0  0  0
  -30.8396  -25.6704   19.4080 O   0  0  0  0  0  0  0  0  0  0  0  0
  -19.2644  -21.7651   23.4175 O   0  0  0  0  0  0  0  0  0  0  0  0
  -23.6836  -11.2869   19.5228 O   0  0  0  0  0  0  0  0  0  0  0  0
  -21.1601  -29.2134   21.6957 O   0  0  0  0  0  0  0  0  0  1  0  0
  -22.6133   -7.0333   22.8642 F   0  0  0  0  0  0  0  0  0  0  0  0
  -21.6908   -9.4706   18.9128 F   0  0  0  0  0  0  0  0  0  0  0  0
  1  2  1  0  0  0  0
  1  5  2  0  0  0  0
  2  6  2  0  0  0  0
  3  8  2  0  0  0  0
  3 15  1  0  0  0  0
  4  9  1  0  0  0  0
  4 15  2  0  0  0  0
  5 17  1  0  0  0  0
  6 19  1  0  0  0  0
  7 10  2  0  0  0  0
  7 18  1  0  0  0  0
  8 21  1  0  0  0  0
  9 21  2  0  0  0  0
 10 22  1  0  0  0  0
 11 12  2  0  0  0  0
 11 23  1  0  0  0  0
 12 24  1  0  0  0  0
 13 20  1  0  0  0  0
 13 22  2  0  0  0  0
 14 24  2  0  0  0  0
 14 25  1  0  0  0  0
 15 26  1  0  0  0  0
 16 26  1  0  0  0  0
 16 27  2  0  0  0  0
 16 28  1  0  0  0  0
 17 19  2  0  0  0  0
 17 34  1  0  0  0  0
 18 20  2  0  0  0  0
 18 35  1  0  0  0  0
 19 46  1  0  0  0  0
 20 36  1  0  0  0  0
 21 77  1  0  0  0  0
 22 78  1  0  0  0  0
 23 25  2  0  0  0  0
 23 77  1  0  0  0  0
 24 79  1  0  0  0  0
 25 80  1  0  0  0  0
 26 60  2  0  0  0  0
 27 61  1  0  0  0  0
 27 65  1  0  0  0  0
 28 66  1  0  0  0  0
 28 71  2  0  0  0  0
 29 47  1  0  0  0  0
 29 62  1  0  0  0  0
 29 72  2  0  0  0  0
 30 48  1  0  0  0  0
 30 67  1  0  0  0  0
 30 73  2  0  0  0  0
 31 57  1  0  0  0  0
 31 63  1  0  0  0  0
 31 74  2  0  0  0  0
 32 58  1  0  0  0  0
 32 68  1  0  0  0  0
 32 75  2  0  0  0  0
 33 64  1  0  0  0  0
 33 69  1  0  0  0  0
 33 76  2  0  0  0  0
 34 37  1  0  0  0  0
 35 48  1  0  0  0  0
 36 63  1  0  0  0  0
 37 39  1  0  0  0  0
 38 40  1  0  0  0  0
 38 42  1  0  0  0  0
 39 46  1  0  0  0  0
 40 49  1  0  0  0  0
 41 47  1  0  0  0  0
 41 50  1  0  0  0  0
 42 64  1  0  0  0  0
 43 49  1  0  0  0  0
 43 64  1  0  0  0  0
 44 51  1  0  0  0  0
 44 62  1  0  0  0  0
 45 51  1  0  0  0  0
 45 62  1  0  0  0  0
 46 67  1  0  0  0  0
 47 50  1  0  0  0  0
 48 63  1  0  0  0  0
 49 61  1  0  0  0  0
 50 69  1  0  0  0  0
 51 78  1  0  0  0  0
 52 58  1  0  0  0  0
 53 59  1  0  0  0  0
 54 59  1  0  0  0  0
 55 59  1  0  0  0  0
 56 70  1  0  0  0  0
 57 59  1  0  0  0  0
 57 68  1  0  0  0  0
 58 70  1  0  0  0  0
 60 61  1  0  0  0  0
M  CHG  1  70   1
M  ISO  4  33 100  51 101  69 100  78 101
M  END
> <Batch ID>
0187

> <Smiles>
CNC(C)C(=O)NC(C(=O)N1Cc2cc([101O:1][101CH:1]3CN(C(=O)C4CC4[100NH:0][100C:0](=O)N4CCCC(n5nc(-c6ccc(Oc7ccc(F)cc7F)cc6)c(C(N)=O)c5N)C4)C3)ccc2CC1C(=O)NC1CCCc2ccccc21)C(C)(C)C

> <Shape>
0.224

> <Color>
0.065

> <Negative vol penalty>
0.000

$$$$

  -OEChem-04052323173D

 84 93  0     1  0  0  0  0  0999 V2000
  -26.2315  -36.8680   22.3618 C   0  0  0  0  0  0  0  0  0  0  0  0
  -26.8541  -35.7046   21.9212 C   0  0  0  0  0  0  0  0  0  0  0  0
  -24.6982   -9.7416   21.7210 C   0  0  0  0  0  0  0  0  0  0  0  0
  -22.8566  -10.9198   20.6927 C   0  0  0  0  0  0  0  0  0  0  0  0
  -25.1873  -36.7927   23.2826 C   0  0  0  0  0  0  0  0  0  0  0  0
  -26.4335  -34.4651   22.4021 C   0  0  0  0  0  0  0  0  0  0  0  0
  -26.2836  -29.1772   19.3164 C   0  0  0  0  0  0  0  0  0  0  0  0
  -23.7985   -9.0192   22.5047 C   0  0  0  0  0  0  0  0  0  0  0  0
  -21.9569  -10.1974   21.4764 C   0  0  0  0  0  0  0  0  0  0  0  0
  -27.1569  -28.0912   19.2733 C   0  0  0  0  0  0  0  0  0  0  0  0
  -21.7302   -6.3718   22.1232 C   0  0  0  0  0  0  0  0  0  0  0  0
  -21.9297   -4.9961   22.2379 C   0  0  0  0  0  0  0  0  0  0  0  0
  -25.8162  -26.9551   20.9259 C   0  0  0  0  0  0  0  0  0  0  0  0
  -22.1662   -5.2299   24.6309 C   0  0  0  0  0  0  0  0  0  0  0  0
  -29.0833  -23.5511   18.8815 C   0  0  0  0  0  0  0  0  0  0  0  0
  -24.2273  -10.6920   20.8150 C   0  0  0  0  0  0  0  0  0  0  0  0
  -25.6446  -11.0912   18.7318 C   0  0  0  0  0  0  0  0  0  0  0  0
  -24.7473  -35.5511   23.7677 C   0  0  0  0  0  0  0  0  0  0  0  0
  -25.1742  -29.1647   20.1741 C   0  0  0  0  0  0  0  0  0  0  0  0
  -25.3834  -34.3732   23.3313 C   0  0  0  0  0  0  0  0  0  0  0  0
  -24.9289  -28.0411   20.9762 C   0  0  0  0  0  0  0  0  0  0  0  0
  -22.4279   -9.2470   22.3824 C   0  0  0  0  0  0  0  0  0  0  0  0
  -26.9249  -26.9812   20.0802 C   0  0  0  0  0  0  0  0  0  0  0  0
  -21.7487   -7.1766   23.2623 C   0  0  0  0  0  0  0  0  0  0  0  0
  -22.1477   -4.4251   23.4917 C   0  0  0  0  0  0  0  0  0  0  0  0
  -21.9667   -6.6056   24.5161 C   0  0  0  0  0  0  0  0  0  0  0  0
  -25.1562  -11.4390   20.0055 C   0  0  0  0  0  0  0  0  0  0  0  0
  -29.6827  -24.7503   19.2089 C   0  0  0  0  0  0  0  0  0  0  0  0
  -29.8933  -22.4369   18.9634 C   0  0  0  0  0  0  0  0  0  0  0  0
  -26.4897  -12.1203   18.3954 C   0  0  0  0  0  0  0  0  0  0  0  0
  -31.6575  -23.7061   19.6294 C   0  0  0  0  0  0  0  0  0  0  0  0
  -25.3597   -9.9407   17.9249 C   0  0  0  0  0  0  0  0  0  0  0  0
  -24.2235  -30.9342   22.6376 C   0  0  0  0  0  0  0  0  0  0  0  0
  -21.5504  -29.1101   22.4152 C   0  0  0  0  0  0  0  0  0  0  0  0
  -20.1155  -26.1843   21.4016 C   0  0  0  0  0  0  0  0  0  0  0  0
  -27.7646  -17.3218   17.9928 C   0  0  0  0  0  0  0  0  0  0  0  0
  -23.6463  -35.5230   24.7980 C   0  0  0  0  0  0  0  0  0  0  0  0
  -24.2268  -30.3329   20.1892 C   0  0  0  0  0  0  0  0  0  0  0  0
  -23.7409  -27.9697   21.8992 C   0  0  0  0  0  0  0  0  0  0  0  0
  -23.0119  -34.1458   24.9742 C   0  0  0  0  0  0  0  0  0  0  0  0
  -28.3307  -15.9223   21.1646 C   0  0  0  0  0  0  0  0  0  0  0  0
  -24.0895  -33.0720   25.0859 C   0  0  0  0  0  0  0  0  0  0  0  0
  -27.5884  -14.5916   21.0463 C   0  0  0  0  0  0  0  0  0  0  0  0
  -27.5612  -17.0683   20.5057 C   0  0  0  0  0  0  0  0  0  0  0  0
  -30.1680  -20.1449   18.0694 C   0  0  0  0  0  0  0  0  0  0  0  0
  -28.1559  -20.7611   19.4177 C   0  0  0  0  0  0  0  0  0  0  0  0
  -29.3300  -19.1078   17.3266 C   0  0  0  0  0  0  0  0  0  0  0  0
  -27.3514  -19.7232   18.6431 C   0  0  0  0  0  0  0  0  0  0  0  0
  -26.4403  -15.4759   18.9806 C   0  0  0  0  0  0  0  0  0  0  0  0
  -24.9392  -33.0083   23.8109 C   0  0  1  0  0  0  0  0  0  0  0  0
  -23.4147  -30.4269   21.4773 C   0  0  1  0  0  0  0  0  0  0  0  0
  -27.2169  -14.2945   19.5826 C   0  0  2  0  0  0  0  0  0  0  0  0
  -33.0869  -23.7922   20.0449 C   0  0  0  0  0  0  0  0  0  0  0  0
  -17.9216  -24.9661   21.3914 C   0  0  0  0  0  0  0  0  0  0  0  0
  -21.9052  -28.4512   25.3732 C   0  0  0  0  0  0  0  0  0  0  0  0
  -20.3105  -26.5454   25.0684 C   0  0  0  0  0  0  0  0  0  0  0  0
  -19.5428  -28.8864   24.6775 C   0  0  0  0  0  0  0  0  0  0  0  0
  -20.0440  -26.0997   18.4442 C   0  0  0  0  0  0  0  0  0  0  0  0
  -28.8866  -26.0106   19.1498 C   0  0  0  0  0  0  0  0  0  1  0  0
  -21.0993  -27.7976   23.0091 C   0  0  1  0  0  0  0  0  0  0  0  0
  -18.8420  -25.9031   20.6248 C   0  0  2  0  0  0  0  0  0  0  0  0
  -20.7380  -27.9220   24.5162 C   0  0  0  0  0  0  0  0  0  0  0  0
  -25.6501  -12.5983   20.4482 N   0  0  0  0  0  0  0  0  0  0  0  0
  -30.9723  -24.8647   19.5884 N   0  0  0  0  0  0  0  0  0  0  0  0
  -31.1896  -22.4781   19.3350 N   0  0  0  0  0  0  0  0  0  0  0  0
  -26.4576  -12.9879   19.4472 N   0  0  0  0  0  0  0  0  0  0  0  0
  -29.3225  -21.1995   18.6392 N   0  0  0  0  0  0  0  0  0  0  0  0
  -22.8471  -29.1395   21.8829 N   0  0  0  0  0  0  0  0  0  0  0  0
  -27.1938  -16.7231   19.1258 N   0  0  0  0  0  0  0  0  0  0  0  0
  -28.2029  -18.6484   18.1292 N   0  0  0  0  0  0  0  0  0  0  0  0
  -27.2497  -12.3585   17.3054 N   0  0  0  0  0  0  0  0  0  0  0  0
  -24.4685   -8.9800   18.4221 N   0  0  0  0  0  0  0  0  0  0  0  0
  -24.2261  -32.3104   22.7627 N   0  0  0  0  0  0  0  0  0  0  0  0
  -20.0043  -27.3244   22.1692 N   0  0  0  0  0  0  0  0  0  0  0  0
  -19.1639  -25.2755   19.3120 N   0  3  0  0  0  0  0  0  0  0  0  0
  -25.8927   -9.7617   16.8036 O   0  0  0  0  0  0  0  0  0  0  0  0
  -24.8012  -30.1361   23.3663 O   0  0  0  0  0  0  0  0  0  0  0  0
  -20.7779  -30.0719   22.4170 O   0  0  0  0  0  0  0  0  0  0  0  0
  -21.1082  -25.4626   21.3371 O   0  0  0  0  0  0  0  0  0  0  0  0
  -27.8797  -16.7093   16.9240 O   0  0  0  0  0  0  0  0  0  0  0  0
  -21.5496   -8.5421   23.1469 O   0  0  0  0  0  0  0  0  0  0  0  0
  -27.7820  -25.9128   20.0403 O   0  0  0  0  0  0  0  0  0  1  0  0
  -22.3378   -3.1038   23.6019 F   0  0  0  0  0  0  0  0  0  0  0  0
  -21.9844   -7.3736   25.6142 F   0  0  0  0  0  0  0  0  0  0  0  0
  1  2  1  0  0  0  0
  1  5  2  0  0  0  0
  2  6  2  0  0  0  0
  3  8  2  0  0  0  0
  3 16  1  0  0  0  0
  4  9  1  0  0  0  0
  4 16  2  0  0  0  0
  5 18  1  0  0  0  0
  6 20  1  0  0  0  0
  7 10  2  0  0  0  0
  7 19  1  0  0  0  0
  8 22  1  0  0  0  0
  9 22  2  0  0  0  0
 10 23  1  0  0  0  0
 11 12  2  0  0  0  0
 11 24  1  0  0  0  0
 12 25  1  0  0  0  0
 13 21  1  0  0  0  0
 13 23  2  0  0  0  0
 14 25  2  0  0  0  0
 14 26  1  0  0  0  0
 15 28  1  0  0  0  0
 15 29  2  0  0  0  0
 16 27  1  0  0  0  0
 17 27  1  0  0  0  0
 17 30  2  0  0  0  0
 17 32  1  0  0  0  0
 18 20  2  0  0  0  0
 18 37  1  0  0  0  0
 19 21  2  0  0  0  0
 19 38  1  0  0  0  0
 20 50  1  0  0  0  0
 21 39  1  0  0  0  0
 22 81  1  0  0  0  0
 23 82  1  0  0  0  0
 24 26  2  0  0  0  0
 24 81  1  0  0  0  0
 25 83  1  0  0  0  0
 26 84  1  0  0  0  0
 27 63  2  0  0  0  0
 28 59  1  0  0  0  0
 28 64  2  0  0  0  0
 29 65  1  0  0  0  0
 29 67  1  0  0  0  0
 30 66  1  0  0  0  0
 30 71  1  0  0  0  0
 31 53  1  0  0  0  0
 31 64  1  0  0  0  0
 31 65  2  0  0  0  0
 32 72  1  0  0  0  0
 32 76  2  0  0  0  0
 33 51  1  0  0  0  0
 33 73  1  0  0  0  0
 33 77  2  0  0  0  0
 34 60  1  0  0  0  0
 34 68  1  0  0  0  0
 34 78  2  0  0  0  0
 35 61  1  0  0  0  0
 35 74  1  0  0  0  0
 35 79  2  0  0  0  0
 36 69  1  0  0  0  0
 36 70  1  0  0  0  0
 36 80  2  0  0  0  0
 37 40  1  0  0  0  0
 38 51  1  0  0  0  0
 39 68  1  0  0  0  0
 40 42  1  0  0  0  0
 41 43  1  0  0  0  0
 41 44  1  0  0  0  0
 42 50  1  0  0  0  0
 43 52  1  0  0  0  0
 44 69  1  0  0  0  0
 45 47  1  0  0  0  0
 45 67  1  0  0  0  0
 46 48  1  0  0  0  0
 46 67  1  0  0  0  0
 47 70  1  0  0  0  0
 48 70  1  0  0  0  0
 49 52  1  0  0  0  0
 49 69  1  0  0  0  0
 50 73  1  0  0  0  0
 51 68  1  0  0  0  0
 52 66  1  0  0  0  0
 54 61  1  0  0  0  0
 55 62  1  0  0  0  0
 56 62  1  0  0  0  0
 57 62  1  0  0  0  0
 58 75  1  0  0  0  0
 59 82  1  0  0  0  0
 60 62  1  0  0  0  0
 60 74  1  0  0  0  0
 61 75  1  0  0  0  0
 63 66  1  0  0  0  0
M  CHG  1  75   1
M  ISO  4  36 100  59 101  70 100  82 101
M  END
> <Batch ID>
0187

> <Smiles>
CNC(C)C(=O)NC(C(=O)N1Cc2cc([101O:1][101CH2:1]c3cc(N4CC[100N:0]([100C:0](=O)N5CCCC(n6nc(-c7ccc(Oc8ccc(F)cc8F)cc7)c(C(N)=O)c6N)C5)CC4)nc(C)n3)ccc2CC1C(=O)NC1CCCc2ccccc21)C(C)(C)C

> <Shape>
0.343

> <Color>
0.076

> <Negative vol penalty>
0.000

$$$$

  -OEChem-04052323173D

 83 92  0     1  0  0  0  0  0999 V2000
  -35.0670  -34.9429   22.6293 C   0  0  0  0  0  0  0  0  0  0  0  0
  -34.5836  -33.7813   22.0358 C   0  0  0  0  0  0  0  0  0  0  0  0
  -24.5150   -9.2101   22.1852 C   0  0  0  0  0  0  0  0  0  0  0  0
  -23.9088   -9.2145   19.8465 C   0  0  0  0  0  0  0  0  0  0  0  0
  -34.5263  -35.3848   23.8361 C   0  0  0  0  0  0  0  0  0  0  0  0
  -33.5598  -33.0602   22.6493 C   0  0  0  0  0  0  0  0  0  0  0  0
  -29.0641  -29.9628   19.8744 C   0  0  0  0  0  0  0  0  0  0  0  0
  -23.3558   -8.4944   22.4844 C   0  0  0  0  0  0  0  0  0  0  0  0
  -22.7496   -8.4987   20.1457 C   0  0  0  0  0  0  0  0  0  0  0  0
  -28.9021  -28.6105   19.5763 C   0  0  0  0  0  0  0  0  0  0  0  0
  -20.7374   -6.3532   23.8164 C   0  0  0  0  0  0  0  0  0  0  0  0
  -20.8507   -5.2703   24.6883 C   0  0  0  0  0  0  0  0  0  0  0  0
  -26.9568  -24.0914   18.7267 C   0  0  0  0  0  0  0  0  0  0  0  0
  -26.7003  -22.7381   18.5938 C   0  0  0  0  0  0  0  0  0  0  0  0
  -27.6065  -28.3276   21.5913 C   0  0  0  0  0  0  0  0  0  0  0  0
  -22.3994   -4.2085   23.1680 C   0  0  0  0  0  0  0  0  0  0  0  0
  -24.7915   -9.5703   20.8663 C   0  0  0  0  0  0  0  0  0  0  0  0
  -27.2521   -9.7838   20.2279 C   0  0  0  0  0  0  0  0  0  0  0  0
  -33.4888  -34.6741   24.4598 C   0  0  0  0  0  0  0  0  0  0  0  0
  -28.5068  -30.5062   21.0409 C   0  0  0  0  0  0  0  0  0  0  0  0
  -33.0056  -33.4923   23.8662 C   0  0  0  0  0  0  0  0  0  0  0  0
  -27.7607  -29.6876   21.9007 C   0  0  0  0  0  0  0  0  0  0  0  0
  -22.4731   -8.1386   21.4647 C   0  0  0  0  0  0  0  0  0  0  0  0
  -28.1756  -27.7921   20.4362 C   0  0  0  0  0  0  0  0  0  0  0  0
  -21.4550   -6.3637   22.6203 C   0  0  0  0  0  0  0  0  0  0  0  0
  -21.6817   -4.1980   24.3641 C   0  0  0  0  0  0  0  0  0  0  0  0
  -22.2860   -5.2914   22.2962 C   0  0  0  0  0  0  0  0  0  0  0  0
  -25.9885  -10.3102   20.5567 C   0  0  0  0  0  0  0  0  0  0  0  0
  -28.2746  -24.4940   18.8095 C   0  0  0  0  0  0  0  0  0  0  0  0
  -27.7785  -21.8770   18.5521 C   0  0  0  0  0  0  0  0  0  0  0  0
  -28.0419  -10.8889   20.0244 C   0  0  0  0  0  0  0  0  0  0  0  0
  -27.6741   -8.4181   20.1164 C   0  0  0  0  0  0  0  0  0  0  0  0
  -29.6761  -31.9055   23.6444 C   0  0  0  0  0  0  0  0  0  0  0  0
  -26.5402  -32.3867   24.3202 C   0  0  0  0  0  0  0  0  0  0  0  0
  -23.2984  -31.4185   23.8729 C   0  0  0  0  0  0  0  0  0  0  0  0
  -26.9903  -16.3127   18.3201 C   0  0  0  0  0  0  0  0  0  0  0  0
  -32.9685  -35.1651   25.7875 C   0  0  0  0  0  0  0  0  0  0  0  0
  -28.6680  -31.9725   21.3345 C   0  0  0  0  0  0  0  0  0  0  0  0
  -27.1250  -30.2265   23.1553 C   0  0  0  0  0  0  0  0  0  0  0  0
  -31.6296  -34.5476   26.1830 C   0  0  0  0  0  0  0  0  0  0  0  0
  -28.5276  -15.4516   21.3590 C   0  0  0  0  0  0  0  0  0  0  0  0
  -31.6531  -33.0379   25.9662 C   0  0  0  0  0  0  0  0  0  0  0  0
  -28.1713  -13.9695   21.4704 C   0  0  0  0  0  0  0  0  0  0  0  0
  -27.3595  -16.2833   20.8267 C   0  0  0  0  0  0  0  0  0  0  0  0
  -28.4922  -19.6523   17.7342 C   0  0  0  0  0  0  0  0  0  0  0  0
  -26.6921  -19.8674   19.4545 C   0  0  0  0  0  0  0  0  0  0  0  0
  -27.8431  -18.3612   17.2429 C   0  0  0  0  0  0  0  0  0  0  0  0
  -26.0685  -18.5808   18.9251 C   0  0  0  0  0  0  0  0  0  0  0  0
  -26.4438  -14.3030   19.6616 C   0  0  0  0  0  0  0  0  0  0  0  0
  -31.8791  -32.6962   24.4885 C   0  0  1  0  0  0  0  0  0  0  0  0
  -28.4919  -32.3088   22.8121 C   0  0  1  0  0  0  0  0  0  0  0  0
  -27.6172  -13.4330   20.1386 C   0  0  2  0  0  0  0  0  0  0  0  0
  -20.9586  -31.9800   24.5855 C   0  0  0  0  0  0  0  0  0  0  0  0
  -27.0490  -31.0657   27.0232 C   0  0  0  0  0  0  0  0  0  0  0  0
  -24.5731  -30.7957   27.2789 C   0  0  0  0  0  0  0  0  0  0  0  0
  -25.5660  -33.0777   27.1080 C   0  0  0  0  0  0  0  0  0  0  0  0
  -22.4712  -32.0142   21.0945 C   0  0  0  0  0  0  0  0  0  0  0  0
  -28.6053  -25.9401   18.9516 C   0  0  0  0  0  0  0  0  0  1  0  0
  -25.4728  -31.6094   25.0519 C   0  0  1  0  0  0  0  0  0  0  0  0
  -22.0458  -32.2121   23.5478 C   0  0  2  0  0  0  0  0  0  0  0  0
  -25.6787  -31.6262   26.5929 C   0  0  0  0  0  0  0  0  0  0  0  0
  -25.9720  -11.6457   20.5629 N   0  0  0  0  0  0  0  0  0  0  0  0
  -29.3101  -23.6291   18.7661 N   0  0  0  0  0  0  0  0  0  0  0  0
  -29.0579  -22.2991   18.6350 N   0  0  0  0  0  0  0  0  0  0  0  0
  -27.2350  -11.9679   20.2357 N   0  0  0  0  0  0  0  0  0  0  0  0
  -27.5177  -20.5071   18.4209 N   0  0  0  0  0  0  0  0  0  0  0  0
  -27.3163  -31.6652   23.4021 N   0  0  0  0  0  0  0  0  0  0  0  0
  -26.8389  -15.7106   19.5782 N   0  0  0  0  0  0  0  0  0  0  0  0
  -27.0651  -17.7141   18.2925 N   0  0  0  0  0  0  0  0  0  0  0  0
  -29.3411  -11.0332   19.6871 N   0  0  0  0  0  0  0  0  0  0  0  0
  -26.7347   -7.4066   20.3588 N   0  0  0  0  0  0  0  0  0  0  0  0
  -30.6561  -32.8754   23.7356 N   0  0  0  0  0  0  0  0  0  0  0  0
  -24.1945  -32.1596   24.6138 N   0  0  0  0  0  0  0  0  0  0  0  0
  -21.5138  -31.8164   22.2131 N   0  3  0  0  0  0  0  0  0  0  0  0
  -28.8536   -8.1041   19.8269 O   0  0  0  0  0  0  0  0  0  0  0  0
  -29.6984  -30.7970   24.1663 O   0  0  0  0  0  0  0  0  0  0  0  0
  -26.6755  -33.5912   24.5494 O   0  0  0  0  0  0  0  0  0  0  0  0
  -23.4635  -30.2561   23.5094 O   0  0  0  0  0  0  0  0  0  0  0  0
  -27.0580  -15.6408   17.2834 O   0  0  0  0  0  0  0  0  0  0  0  0
  -21.3420   -7.4399   21.7562 O   0  0  0  0  0  0  0  0  0  0  0  0
  -28.0134  -26.4461   20.1423 O   0  0  0  0  0  0  0  0  0  1  0  0
  -21.7917   -3.1589   25.2021 F   0  0  0  0  0  0  0  0  0  0  0  0
  -22.9788   -5.2964   21.1491 F   0  0  0  0  0  0  0  0  0  0  0  0
  1  2  1  0  0  0  0
  1  5  2  0  0  0  0
  2  6  2  0  0  0  0
  3  8  2  0  0  0  0
  3 17  1  0  0  0  0
  4  9  1  0  0  0  0
  4 17  2  0  0  0  0
  5 19  1  0  0  0  0
  6 21  1  0  0  0  0
  7 10  2  0  0  0  0
  7 20  1  0  0  0  0
  8 23  1  0  0  0  0
  9 23  2  0  0  0  0
 10 24  1  0  0  0  0
 11 12  2  0  0  0  0
 11 25  1  0  0  0  0
 12 26  1  0  0  0  0
 13 14  2  0  0  0  0
 13 29  1  0  0  0  0
 14 30  1  0  0  0  0
 15 22  1  0  0  0  0
 15 24  2  0  0  0  0
 16 26  2  0  0  0  0
 16 27  1  0  0  0  0
 17 28  1  0  0  0  0
 18 28  1  0  0  0  0
 18 31  2  0  0  0  0
 18 32  1  0  0  0  0
 19 21  2  0  0  0  0
 19 37  1  0  0  0  0
 20 22  2  0  0  0  0
 20 38  1  0  0  0  0
 21 50  1  0  0  0  0
 22 39  1  0  0  0  0
 23 80  1  0  0  0  0
 24 81  1  0  0  0  0
 25 27  2  0  0  0  0
 25 80  1  0  0  0  0
 26 82  1  0  0  0  0
 27 83  1  0  0  0  0
 28 62  2  0  0  0  0
 29 58  1  0  0  0  0
 29 63  2  0  0  0  0
 30 64  2  0  0  0  0
 30 66  1  0  0  0  0
 31 65  1  0  0  0  0
 31 70  1  0  0  0  0
 32 71  1  0  0  0  0
 32 75  2  0  0  0  0
 33 51  1  0  0  0  0
 33 72  1  0  0  0  0
 33 76  2  0  0  0  0
 34 59  1  0  0  0  0
 34 67  1  0  0  0  0
 34 77  2  0  0  0  0
 35 60  1  0  0  0  0
 35 73  1  0  0  0  0
 35 78  2  0  0  0  0
 36 68  1  0  0  0  0
 36 69  1  0  0  0  0
 36 79  2  0  0  0  0
 37 40  1  0  0  0  0
 38 51  1  0  0  0  0
 39 67  1  0  0  0  0
 40 42  1  0  0  0  0
 41 43  1  0  0  0  0
 41 44  1  0  0  0  0
 42 50  1  0  0  0  0
 43 52  1  0  0  0  0
 44 68  1  0  0  0  0
 45 47  1  0  0  0  0
 45 66  1  0  0  0  0
 46 48  1  0  0  0  0
 46 66  1  0  0  0  0
 47 69  1  0  0  0  0
 48 69  1  0  0  0  0
 49 52  1  0  0  0  0
 49 68  1  0  0  0  0
 50 72  1  0  0  0  0
 51 67  1  0  0  0  0
 52 65  1  0  0  0  0
 53 60  1  0  0  0  0
 54 61  1  0  0  0  0
 55 61  1  0  0  0  0
 56 61  1  0  0  0  0
 57 74  1  0  0  0  0
 58 81  1  0  0  0  0
 59 61  1  0  0  0  0
 59 73  1  0  0  0  0
 60 74  1  0  0  0  0
 62 65  1  0  0  0  0
 63 64  1  0  0  0  0
M  CHG  1  74   1
M  ISO  4  36 100  58 101  69 100  81 101
M  END
> <Batch ID>
0187

> <Smiles>
CNC(C)C(=O)NC(C(=O)N1Cc2cc([101O:1][101CH2:1]c3ccc(N4CC[100N:0]([100C:0](=O)N5CCCC(n6nc(-c7ccc(Oc8ccc(F)cc8F)cc7)c(C(N)=O)c6N)C5)CC4)nn3)ccc2CC1C(=O)NC1CCCc2ccccc21)C(C)(C)C

> <Shape>
0.237

> <Color>
0.107

> <Negative vol penalty>
0.000

$$$$

  -OEChem-04052323173D

 84 93  0     1  0  0  0  0  0999 V2000
  -19.5368  -26.1274   25.3278 C   0  0  0  0  0  0  0  0  0  0  0  0
  -20.5056  -25.8396   24.3718 C   0  0  0  0  0  0  0  0  0  0  0  0
  -24.6418   -9.2200   22.0568 C   0  0  0  0  0  0  0  0  0  0  0  0
  -23.7309   -9.4435   19.8303 C   0  0  0  0  0  0  0  0  0  0  0  0
  -18.7627  -27.2809   25.2087 C   0  0  0  0  0  0  0  0  0  0  0  0
  -20.7002  -26.7046   23.2956 C   0  0  0  0  0  0  0  0  0  0  0  0
  -25.6003  -27.6050   22.3882 C   0  0  0  0  0  0  0  0  0  0  0  0
  -23.4616   -8.6075   22.4782 C   0  0  0  0  0  0  0  0  0  0  0  0
  -22.5507   -8.8309   20.2517 C   0  0  0  0  0  0  0  0  0  0  0  0
  -26.3151  -26.6163   21.7135 C   0  0  0  0  0  0  0  0  0  0  0  0
  -22.0298   -5.5514   22.2711 C   0  0  0  0  0  0  0  0  0  0  0  0
  -22.1396   -4.4043   23.0571 C   0  0  0  0  0  0  0  0  0  0  0  0
  -26.0868  -27.8612   19.6599 C   0  0  0  0  0  0  0  0  0  0  0  0
  -20.9362   -5.5088   24.8372 C   0  0  0  0  0  0  0  0  0  0  0  0
  -24.7764   -9.6381   20.7329 C   0  0  0  0  0  0  0  0  0  0  0  0
  -27.1373   -9.6425   19.7665 C   0  0  0  0  0  0  0  0  0  0  0  0
  -18.9545  -28.1655   24.1357 C   0  0  0  0  0  0  0  0  0  0  0  0
  -25.1132  -28.7258   21.7005 C   0  0  0  0  0  0  0  0  0  0  0  0
  -19.9271  -27.8703   23.1613 C   0  0  0  0  0  0  0  0  0  0  0  0
  -25.3684  -28.8640   20.3287 C   0  0  0  0  0  0  0  0  0  0  0  0
  -22.4161   -8.4129   21.5756 C   0  0  0  0  0  0  0  0  0  0  0  0
  -26.5560  -26.7429   20.3485 C   0  0  0  0  0  0  0  0  0  0  0  0
  -21.3733   -6.6773   22.7682 C   0  0  0  0  0  0  0  0  0  0  0  0
  -21.5928   -4.3830   24.3401 C   0  0  0  0  0  0  0  0  0  0  0  0
  -20.8265   -6.6559   24.0513 C   0  0  0  0  0  0  0  0  0  0  0  0
  -25.9951  -10.2714   20.2971 C   0  0  0  0  0  0  0  0  0  0  0  0
  -28.0095  -10.6725   19.5122 C   0  0  0  0  0  0  0  0  0  0  0  0
  -30.2227  -23.3477   18.2192 C   0  0  0  0  0  0  0  0  0  0  0  0
  -28.4825  -23.7365   19.5820 C   0  0  0  0  0  0  0  0  0  0  0  0
  -28.7625  -21.7044   18.6715 C   0  0  0  0  0  0  0  0  0  0  0  0
  -27.3875   -8.2515   19.5251 C   0  0  0  0  0  0  0  0  0  0  0  0
  -22.2259  -29.9232   21.1231 C   0  0  0  0  0  0  0  0  0  0  0  0
  -23.9249  -32.3725   19.8438 C   0  0  0  0  0  0  0  0  0  0  0  0
  -26.8396  -33.4514   18.4341 C   0  0  0  0  0  0  0  0  0  0  0  0
  -27.3422  -16.2775   18.2606 C   0  0  0  0  0  0  0  0  0  0  0  0
  -18.0613  -29.3756   24.0239 C   0  0  0  0  0  0  0  0  0  0  0  0
  -24.3670  -29.7966   22.4482 C   0  0  0  0  0  0  0  0  0  0  0  0
  -24.8845  -30.0579   19.5484 C   0  0  0  0  0  0  0  0  0  0  0  0
  -18.5861  -30.4326   23.0556 C   0  0  0  0  0  0  0  0  0  0  0  0
  -29.1698  -15.0618   21.0031 C   0  0  0  0  0  0  0  0  0  0  0  0
  -19.0370  -29.7843   21.7505 C   0  0  0  0  0  0  0  0  0  0  0  0
  -28.6706  -13.6196   21.0855 C   0  0  0  0  0  0  0  0  0  0  0  0
  -28.0395  -16.0421   20.6852 C   0  0  0  0  0  0  0  0  0  0  0  0
  -29.1104  -19.4786   17.6454 C   0  0  0  0  0  0  0  0  0  0  0  0
  -27.5926  -19.7597   19.6110 C   0  0  0  0  0  0  0  0  0  0  0  0
  -28.2629  -18.2963   17.1833 C   0  0  0  0  0  0  0  0  0  0  0  0
  -26.7656  -18.5818   19.1077 C   0  0  0  0  0  0  0  0  0  0  0  0
  -26.7630  -14.2482   19.5580 C   0  0  0  0  0  0  0  0  0  0  0  0
  -20.1849  -28.7968   21.9929 C   0  0  1  0  0  0  0  0  0  0  0  0
  -23.4746  -30.6438   21.5463 C   0  0  1  0  0  0  0  0  0  0  0  0
  -27.8868  -13.2332   19.8187 C   0  0  2  0  0  0  0  0  0  0  0  0
  -31.4498  -23.8287   17.5230 C   0  0  0  0  0  0  0  0  0  0  0  0
  -27.9162  -35.4964   17.4562 C   0  0  0  0  0  0  0  0  0  0  0  0
  -22.2831  -32.0158   17.2967 C   0  0  0  0  0  0  0  0  0  0  0  0
  -23.9953  -33.3826   16.0849 C   0  0  0  0  0  0  0  0  0  0  0  0
  -22.6877  -34.3950   17.9525 C   0  0  0  0  0  0  0  0  0  0  0  0
  -28.9795  -33.4443   20.4786 C   0  0  0  0  0  0  0  0  0  0  0  0
  -27.7078  -24.6648   20.4538 C   0  0  0  0  0  0  0  0  0  1  0  0
  -24.4791  -32.6894   18.4758 C   0  0  1  0  0  0  0  0  0  0  0  0
  -27.7039  -34.6676   18.7136 C   0  0  2  0  0  0  0  0  0  0  0  0
  -23.3689  -33.0972   17.4665 C   0  0  0  0  0  0  0  0  0  0  0  0
  -26.1268  -11.5982   20.3759 N   0  0  0  0  0  0  0  0  0  0  0  0
  -29.5763  -24.2394   18.9876 N   0  0  0  0  0  0  0  0  0  0  0  0
  -29.8758  -22.0667   18.0141 N   0  0  0  0  0  0  0  0  0  0  0  0
  -28.0153  -22.4826   19.4710 N   0  0  0  0  0  0  0  0  0  0  0  0
  -27.3621  -11.8114   19.8915 N   0  0  0  0  0  0  0  0  0  0  0  0
  -28.3372  -20.3800   18.5065 N   0  0  0  0  0  0  0  0  0  0  0  0
  -24.1541  -31.0749   20.3229 N   0  0  0  0  0  0  0  0  0  0  0  0
  -27.2959  -15.6107   19.4940 N   0  0  0  0  0  0  0  0  0  0  0  0
  -27.5665  -17.6627   18.2964 N   0  0  0  0  0  0  0  0  0  0  0  0
  -29.2595  -10.7061   19.0034 N   0  0  0  0  0  0  0  0  0  0  0  0
  -26.3836   -7.3269   19.8438 N   0  0  0  0  0  0  0  0  0  0  0  0
  -21.4325  -29.5071   22.1753 N   0  0  0  0  0  0  0  0  0  0  0  0
  -25.5063  -33.7056   18.6769 N   0  0  0  0  0  0  0  0  0  0  0  0
  -29.0372  -34.2479   19.2304 N   0  3  0  0  0  0  0  0  0  0  0  0
  -28.4755   -7.8392   19.0563 O   0  0  0  0  0  0  0  0  0  0  0  0
  -21.9982  -29.7583   19.9304 O   0  0  0  0  0  0  0  0  0  0  0  0
  -23.3173  -33.2463   20.4674 O   0  0  0  0  0  0  0  0  0  0  0  0
  -27.3006  -32.3837   18.0364 O   0  0  0  0  0  0  0  0  0  0  0  0
  -27.1956  -15.6735   17.1908 O   0  0  0  0  0  0  0  0  0  0  0  0
  -21.2644   -7.8150   21.9864 O   0  0  0  0  0  0  0  0  0  0  0  0
  -27.2575  -25.7724   19.6829 O   0  0  0  0  0  0  0  0  0  1  0  0
  -21.6970   -3.2809   25.0941 F   0  0  0  0  0  0  0  0  0  0  0  0
  -20.1935   -7.7341   24.5338 F   0  0  0  0  0  0  0  0  0  0  0  0
  1  2  1  0  0  0  0
  1  5  2  0  0  0  0
  2  6  2  0  0  0  0
  3  8  2  0  0  0  0
  3 15  1  0  0  0  0
  4  9  1  0  0  0  0
  4 15  2  0  0  0  0
  5 17  1  0  0  0  0
  6 19  1  0  0  0  0
  7 10  2  0  0  0  0
  7 18  1  0  0  0  0
  8 21  1  0  0  0  0
  9 21  2  0  0  0  0
 10 22  1  0  0  0  0
 11 12  2  0  0  0  0
 11 23  1  0  0  0  0
 12 24  1  0  0  0  0
 13 20  1  0  0  0  0
 13 22  2  0  0  0  0
 14 24  2  0  0  0  0
 14 25  1  0  0  0  0
 15 26  1  0  0  0  0
 16 26  1  0  0  0  0
 16 27  2  0  0  0  0
 16 31  1  0  0  0  0
 17 19  2  0  0  0  0
 17 36  1  0  0  0  0
 18 20  2  0  0  0  0
 18 37  1  0  0  0  0
 19 49  1  0  0  0  0
 20 38  1  0  0  0  0
 21 81  1  0  0  0  0
 22 82  1  0  0  0  0
 23 25  2  0  0  0  0
 23 81  1  0  0  0  0
 24 83  1  0  0  0  0
 25 84  1  0  0  0  0
 26 62  2  0  0  0  0
 27 66  1  0  0  0  0
 27 71  1  0  0  0  0
 28 52  1  0  0  0  0
 28 63  2  0  0  0  0
 28 64  1  0  0  0  0
 29 58  1  0  0  0  0
 29 63  1  0  0  0  0
 29 65  2  0  0  0  0
 30 64  2  0  0  0  0
 30 65  1  0  0  0  0
 30 67  1  0  0  0  0
 31 72  1  0  0  0  0
 31 76  2  0  0  0  0
 32 50  1  0  0  0  0
 32 73  1  0  0  0  0
 32 77  2  0  0  0  0
 33 59  1  0  0  0  0
 33 68  1  0  0  0  0
 33 78  2  0  0  0  0
 34 60  1  0  0  0  0
 34 74  1  0  0  0  0
 34 79  2  0  0  0  0
 35 69  1  0  0  0  0
 35 70  1  0  0  0  0
 35 80  2  0  0  0  0
 36 39  1  0  0  0  0
 37 50  1  0  0  0  0
 38 68  1  0  0  0  0
 39 41  1  0  0  0  0
 40 42  1  0  0  0  0
 40 43  1  0  0  0  0
 41 49  1  0  0  0  0
 42 51  1  0  0  0  0
 43 69  1  0  0  0  0
 44 46  1  0  0  0  0
 44 67  1  0  0  0  0
 45 47  1  0  0  0  0
 45 67  1  0  0  0  0
 46 70  1  0  0  0  0
 47 70  1  0  0  0  0
 48 51  1  0  0  0  0
 48 69  1  0  0  0  0
 49 73  1  0  0  0  0
 50 68  1  0  0  0  0
 51 66  1  0  0  0  0
 53 60  1  0  0  0  0
 54 61  1  0  0  0  0
 55 61  1  0  0  0  0
 56 61  1  0  0  0  0
 57 75  1  0  0  0  0
 58 82  1  0  0  0  0
 59 61  1  0  0  0  0
 59 74  1  0  0  0  0
 60 75  1  0  0  0  0
 62 66  1  0  0  0  0
M  CHG  1  75   1
M  ISO  4  35 100  58 101  70 100  82 101
M  END
> <Batch ID>
0187

> <Smiles>
CNC(C)C(=O)NC(C(=O)N1Cc2cc([101O:1][101CH2:1]c3nc(C)nc(N4CC[100N:0]([100C:0](=O)N5CCCC(n6nc(-c7ccc(Oc8ccc(F)cc8F)cc7)c(C(N)=O)c6N)C5)CC4)n3)ccc2CC1C(=O)NC1CCCc2ccccc21)C(C)(C)C

> <Shape>
0.273

> <Color>
0.116

> <Negative vol penalty>
0.000

$$$$

  -OEChem-04052323173D

 81 90  0     1  0  0  0  0  0999 V2000
  -29.8397  -11.6162   20.3040 C   0  0  0  0  0  0  0  0  0  0  0  0
  -29.8960  -12.9714   19.9946 C   0  0  0  0  0  0  0  0  0  0  0  0
  -21.3883  -28.7464   20.8594 C   0  0  0  0  0  0  0  0  0  0  0  0
  -23.1098  -27.4238   21.9197 C   0  0  0  0  0  0  0  0  0  0  0  0
  -28.6274  -10.9328   20.2195 C   0  0  0  0  0  0  0  0  0  0  0  0
  -28.7401  -13.6438   19.5994 C   0  0  0  0  0  0  0  0  0  0  0  0
  -28.2311  -18.1372   21.8786 C   0  0  0  0  0  0  0  0  0  0  0  0
  -20.4684  -27.7198   21.0725 C   0  0  0  0  0  0  0  0  0  0  0  0
  -22.1899  -26.3973   22.1329 C   0  0  0  0  0  0  0  0  0  0  0  0
  -29.0023  -19.1905   21.3891 C   0  0  0  0  0  0  0  0  0  0  0  0
  -18.6081  -26.5344   23.6351 C   0  0  0  0  0  0  0  0  0  0  0  0
  -17.3499  -26.8830   24.1262 C   0  0  0  0  0  0  0  0  0  0  0  0
  -31.4685  -24.9419   17.9570 C   0  0  0  0  0  0  0  0  0  0  0  0
  -27.0933  -20.0110   20.1637 C   0  0  0  0  0  0  0  0  0  0  0  0
  -29.1587  -24.2953   18.1336 C   0  0  0  0  0  0  0  0  0  0  0  0
  -16.3194  -25.9420   22.1540 C   0  0  0  0  0  0  0  0  0  0  0  0
  -31.7954  -23.7394   18.5627 C   0  0  0  0  0  0  0  0  0  0  0  0
  -22.7091  -28.5984   21.2829 C   0  0  0  0  0  0  0  0  0  0  0  0
  -23.9526  -30.7310   21.9260 C   0  0  0  0  0  0  0  0  0  0  0  0
  -27.4541  -11.5994   19.8324 C   0  0  0  0  0  0  0  0  0  0  0  0
  -26.8858  -18.0066   21.5050 C   0  0  0  0  0  0  0  0  0  0  0  0
  -27.5112  -12.9683   19.5084 C   0  0  0  0  0  0  0  0  0  0  0  0
  -30.1227  -25.2175   17.7419 C   0  0  0  0  0  0  0  0  0  0  0  0
  -26.3064  -18.9566   20.6519 C   0  0  0  0  0  0  0  0  0  0  0  0
  -20.8691  -26.5453   21.7093 C   0  0  0  0  0  0  0  0  0  0  0  0
  -28.4343  -20.1259   20.5292 C   0  0  0  0  0  0  0  0  0  0  0  0
  -18.7219  -25.8896   22.4034 C   0  0  0  0  0  0  0  0  0  0  0  0
  -16.2056  -26.5868   23.3856 C   0  0  0  0  0  0  0  0  0  0  0  0
  -17.5776  -25.5934   21.6629 C   0  0  0  0  0  0  0  0  0  0  0  0
  -23.6600  -29.6582   21.0626 C   0  0  0  0  0  0  0  0  0  0  0  0
  -29.5890  -23.1216   18.7312 C   0  0  0  0  0  0  0  0  0  0  0  0
  -24.9158  -31.4520   21.2635 C   0  0  0  0  0  0  0  0  0  0  0  0
  -23.4030  -31.0473   23.2119 C   0  0  0  0  0  0  0  0  0  0  0  0
  -25.1923  -15.8109   19.9511 C   0  0  0  0  0  0  0  0  0  0  0  0
  -22.6956  -17.7034   20.7920 C   0  0  0  0  0  0  0  0  0  0  0  0
  -21.5821  -20.8029   21.6865 C   0  0  0  0  0  0  0  0  0  0  0  0
  -28.8659  -29.8192   16.9633 C   0  0  0  0  0  0  0  0  0  0  0  0
  -26.1763  -10.8077   19.7100 C   0  0  0  0  0  0  0  0  0  0  0  0
  -26.0601  -16.8799   22.0630 C   0  0  0  0  0  0  0  0  0  0  0  0
  -24.8611  -18.8727   20.2366 C   0  0  0  0  0  0  0  0  0  0  0  0
  -24.9242  -11.6785   19.6449 C   0  0  0  0  0  0  0  0  0  0  0  0
  -26.4764  -32.5057   16.8872 C   0  0  0  0  0  0  0  0  0  0  0  0
  -25.1226  -12.8260   18.6596 C   0  0  0  0  0  0  0  0  0  0  0  0
  -25.4779  -32.1537   17.9850 C   0  0  0  0  0  0  0  0  0  0  0  0
  -27.0025  -31.2489   16.2070 C   0  0  0  0  0  0  0  0  0  0  0  0
  -28.4214  -27.3076   17.5584 C   0  0  0  0  0  0  0  0  0  0  0  0
  -30.4585  -27.8730   17.4025 C   0  0  0  0  0  0  0  0  0  0  0  0
  -26.6828  -29.9311   18.2843 C   0  0  0  0  0  0  0  0  0  0  0  0
  -29.6896  -26.5780   17.0530 C   0  0  0  0  0  0  0  0  0  0  0  0
  -26.2740  -13.7382   19.0998 C   0  0  1  0  0  0  0  0  0  0  0  0
  -24.8391  -16.5538   21.2084 C   0  0  1  0  0  0  0  0  0  0  0  0
  -26.1055  -31.1752   18.9881 C   0  0  2  0  0  0  0  0  0  0  0  0
  -19.4844  -22.0490   22.2730 C   0  0  0  0  0  0  0  0  0  0  0  0
  -21.9091  -17.7618   17.8445 C   0  0  0  0  0  0  0  0  0  0  0  0
  -20.4405  -19.7262   18.3472 C   0  0  0  0  0  0  0  0  0  0  0  0
  -19.9909  -17.5251   19.4315 C   0  0  0  0  0  0  0  0  0  0  0  0
  -22.5934  -21.4667   24.3875 C   0  0  0  0  0  0  0  0  0  0  0  0
  -28.5819  -22.1091   19.1640 C   0  0  0  0  0  0  0  0  0  1  0  0
  -21.9915  -18.8841   20.1682 C   0  0  1  0  0  0  0  0  0  0  0  0
  -20.6684  -21.2596   22.8094 C   0  0  2  0  0  0  0  0  0  0  0  0
  -21.1108  -18.4751   18.9540 C   0  0  0  0  0  0  0  0  0  0  0  0
  -30.8871  -22.8189   18.9567 N   0  0  0  0  0  0  0  0  0  0  0  0
  -24.3790  -29.6911   19.9374 N   0  0  0  0  0  0  0  0  0  0  0  0
  -25.1328  -30.7932   20.0892 N   0  0  0  0  0  0  0  0  0  0  0  0
  -24.0969  -17.7494   20.8037 N   0  0  0  0  0  0  0  0  0  0  0  0
  -27.5663  -30.2960   17.1681 N   0  0  0  0  0  0  0  0  0  0  0  0
  -29.1643  -28.5437   17.3808 N   0  0  0  0  0  0  0  0  0  0  0  0
  -25.5897  -32.5790   21.5768 N   0  0  0  0  0  0  0  0  0  0  0  0
  -22.4223  -30.2003   23.7460 N   0  0  0  0  0  0  0  0  0  0  0  0
  -25.8451  -14.6128   20.1701 N   0  0  0  0  0  0  0  0  0  0  0  0
  -21.2568  -19.5373   21.2462 N   0  0  0  0  0  0  0  0  0  0  0  0
  -21.4156  -22.1247   23.7657 N   0  3  0  0  0  0  0  0  0  0  0  0
  -23.7588  -32.0603   23.8605 O   0  0  0  0  0  0  0  0  0  0  0  0
  -24.8933  -16.2885   18.8629 O   0  0  0  0  0  0  0  0  0  0  0  0
  -22.0268  -16.7777   21.2584 O   0  0  0  0  0  0  0  0  0  0  0  0
  -22.4910  -21.5005   21.2417 O   0  0  0  0  0  0  0  0  0  0  0  0
  -29.7300  -30.5011   16.3962 O   0  0  0  0  0  0  0  0  0  0  0  0
  -19.9716  -25.5434   21.9176 O   0  0  0  0  0  0  0  0  0  0  0  0
  -29.1997  -21.1747   20.0400 O   0  0  0  0  0  0  0  0  0  1  0  0
  -14.9974  -26.9203   23.8580 F   0  0  0  0  0  0  0  0  0  0  0  0
  -17.6805  -24.9730   20.4795 F   0  0  0  0  0  0  0  0  0  0  0  0
  1  2  1  0  0  0  0
  1  5  2  0  0  0  0
  2  6  2  0  0  0  0
  3  8  2  0  0  0  0
  3 18  1  0  0  0  0
  4  9  1  0  0  0  0
  4 18  2  0  0  0  0
  5 20  1  0  0  0  0
  6 22  1  0  0  0  0
  7 10  2  0  0  0  0
  7 21  1  0  0  0  0
  8 25  1  0  0  0  0
  9 25  2  0  0  0  0
 10 26  1  0  0  0  0
 11 12  2  0  0  0  0
 11 27  1  0  0  0  0
 12 28  1  0  0  0  0
 13 17  2  0  0  0  0
 13 23  1  0  0  0  0
 14 24  1  0  0  0  0
 14 26  2  0  0  0  0
 15 23  2  0  0  0  0
 15 31  1  0  0  0  0
 16 28  2  0  0  0  0
 16 29  1  0  0  0  0
 17 62  1  0  0  0  0
 18 30  1  0  0  0  0
 19 30  1  0  0  0  0
 19 32  2  0  0  0  0
 19 33  1  0  0  0  0
 20 22  2  0  0  0  0
 20 38  1  0  0  0  0
 21 24  2  0  0  0  0
 21 39  1  0  0  0  0
 22 50  1  0  0  0  0
 23 49  1  0  0  0  0
 24 40  1  0  0  0  0
 25 78  1  0  0  0  0
 26 79  1  0  0  0  0
 27 29  2  0  0  0  0
 27 78  1  0  0  0  0
 28 80  1  0  0  0  0
 29 81  1  0  0  0  0
 30 63  2  0  0  0  0
 31 58  1  0  0  0  0
 31 62  2  0  0  0  0
 32 64  1  0  0  0  0
 32 68  1  0  0  0  0
 33 69  1  0  0  0  0
 33 73  2  0  0  0  0
 34 51  1  0  0  0  0
 34 70  1  0  0  0  0
 34 74  2  0  0  0  0
 35 59  1  0  0  0  0
 35 65  1  0  0  0  0
 35 75  2  0  0  0  0
 36 60  1  0  0  0  0
 36 71  1  0  0  0  0
 36 76  2  0  0  0  0
 37 66  1  0  0  0  0
 37 67  1  0  0  0  0
 37 77  2  0  0  0  0
 38 41  1  0  0  0  0
 39 51  1  0  0  0  0
 40 65  1  0  0  0  0
 41 43  1  0  0  0  0
 42 44  1  0  0  0  0
 42 45  1  0  0  0  0
 43 50  1  0  0  0  0
 44 52  1  0  0  0  0
 45 66  1  0  0  0  0
 46 49  1  0  0  0  0
 46 67  1  0  0  0  0
 47 49  1  0  0  0  0
 47 67  1  0  0  0  0
 48 52  1  0  0  0  0
 48 66  1  0  0  0  0
 50 70  1  0  0  0  0
 51 65  1  0  0  0  0
 52 64  1  0  0  0  0
 53 60  1  0  0  0  0
 54 61  1  0  0  0  0
 55 61  1  0  0  0  0
 56 61  1  0  0  0  0
 57 72  1  0  0  0  0
 58 79  1  0  0  0  0
 59 61  1  0  0  0  0
 59 71  1  0  0  0  0
 60 72  1  0  0  0  0
 63 64  1  0  0  0  0
M  CHG  1  72   1
M  ISO  4  37 100  58 101  67 100  79 101
M  END
> <Batch ID>
0187

> <Smiles>
CNC(C)C(=O)NC(C(=O)N1Cc2cc([101O:1][101CH2:1]c3cc(C4C[100N:0]([100C:0](=O)N5CCCC(n6nc(-c7ccc(Oc8ccc(F)cc8F)cc7)c(C(N)=O)c6N)C5)C4)ccn3)ccc2CC1C(=O)NC1CCCc2ccccc21)C(C)(C)C

> <Shape>
0.217

> <Color>
0.071

> <Negative vol penalty>
0.000

$$$$

  -OEChem-04052323173D

 84 93  0     1  0  0  0  0  0999 V2000
  -29.5107  -17.6893   19.4595 C   0  0  0  0  0  0  0  0  0  0  0  0
  -28.3214  -18.3364   19.1397 C   0  0  0  0  0  0  0  0  0  0  0  0
  -25.1622  -14.4099   22.6227 C   0  0  0  0  0  0  0  0  0  0  0  0
  -26.4814  -14.9123   20.6620 C   0  0  0  0  0  0  0  0  0  0  0  0
  -30.4011  -18.2741   20.3590 C   0  0  0  0  0  0  0  0  0  0  0  0
  -28.0213  -19.5682   19.7201 C   0  0  0  0  0  0  0  0  0  0  0  0
  -24.6898  -25.7477   18.2947 C   0  0  0  0  0  0  0  0  0  0  0  0
  -25.1343  -13.0636   22.2590 C   0  0  0  0  0  0  0  0  0  0  0  0
  -26.4536  -13.5660   20.2983 C   0  0  0  0  0  0  0  0  0  0  0  0
  -23.7188  -26.5954   18.8261 C   0  0  0  0  0  0  0  0  0  0  0  0
  -23.4514  -11.1082   20.0753 C   0  0  0  0  0  0  0  0  0  0  0  0
  -22.2295  -10.4406   20.1577 C   0  0  0  0  0  0  0  0  0  0  0  0
  -25.3688  -27.5477   20.3060 C   0  0  0  0  0  0  0  0  0  0  0  0
  -23.1868   -8.8837   21.7378 C   0  0  0  0  0  0  0  0  0  0  0  0
  -25.8357  -15.3343   21.8242 C   0  0  0  0  0  0  0  0  0  0  0  0
  -26.8210  -17.3683   23.0073 C   0  0  0  0  0  0  0  0  0  0  0  0
  -30.1162  -19.5183   20.9434 C   0  0  0  0  0  0  0  0  0  0  0  0
  -26.0073  -25.7862   18.7734 C   0  0  0  0  0  0  0  0  0  0  0  0
  -28.9080  -20.1696   20.6293 C   0  0  0  0  0  0  0  0  0  0  0  0
  -26.3552  -26.7013   19.7772 C   0  0  0  0  0  0  0  0  0  0  0  0
  -25.7800  -12.6416   21.0968 C   0  0  0  0  0  0  0  0  0  0  0  0
  -24.0575  -27.4936   19.8339 C   0  0  0  0  0  0  0  0  0  0  0  0
  -24.5410  -10.6636   20.8240 C   0  0  0  0  0  0  0  0  0  0  0  0
  -22.0971   -9.3283   20.9889 C   0  0  0  0  0  0  0  0  0  0  0  0
  -24.4087   -9.5513   21.6553 C   0  0  0  0  0  0  0  0  0  0  0  0
  -25.8644  -16.7252   22.1991 C   0  0  0  0  0  0  0  0  0  0  0  0
  -26.4030  -18.6755   23.0600 C   0  0  0  0  0  0  0  0  0  0  0  0
  -27.9836  -16.8319   23.6526 C   0  0  0  0  0  0  0  0  0  0  0  0
  -27.9296  -23.7092   20.2207 C   0  0  0  0  0  0  0  0  0  0  0  0
  -21.2274  -28.7893   23.7302 C   0  0  0  0  0  0  0  0  0  0  0  0
  -30.1261  -26.0641   19.8301 C   0  0  0  0  0  0  0  0  0  0  0  0
  -30.7632  -29.3884   19.3946 C   0  0  0  0  0  0  0  0  0  0  0  0
  -22.1022  -22.1567   23.8829 C   0  0  0  0  0  0  0  0  0  0  0  0
  -31.0874  -20.0887   21.9463 C   0  0  0  0  0  0  0  0  0  0  0  0
  -27.0491  -24.8838   18.1710 C   0  0  0  0  0  0  0  0  0  0  0  0
  -27.7601  -26.7961   20.3116 C   0  0  0  0  0  0  0  0  0  0  0  0
  -30.8682  -21.5724   22.2308 C   0  0  0  0  0  0  0  0  0  0  0  0
  -22.8621  -21.1177   20.4046 C   0  0  0  0  0  0  0  0  0  0  0  0
  -29.3880  -21.8583   22.4633 C   0  0  0  0  0  0  0  0  0  0  0  0
  -23.7611  -19.9037   20.6437 C   0  0  0  0  0  0  0  0  0  0  0  0
  -21.6554  -25.6360   22.7845 C   0  0  0  0  0  0  0  0  0  0  0  0
  -19.2060  -28.1611   25.3276 C   0  0  0  0  0  0  0  0  0  0  0  0
  -21.8443  -21.2715   21.5273 C   0  0  0  0  0  0  0  0  0  0  0  0
  -21.8369  -24.1878   22.3407 C   0  0  0  0  0  0  0  0  0  0  0  0
  -23.3421  -20.1569   23.1370 C   0  0  0  0  0  0  0  0  0  0  0  0
  -20.9249  -24.2292   24.5646 C   0  0  0  0  0  0  0  0  0  0  0  0
  -19.3430  -26.6572   25.6041 C   0  0  0  0  0  0  0  0  0  0  0  0
  -28.5584  -21.5186   21.2192 C   0  0  1  0  0  0  0  0  0  0  0  0
  -28.2426  -24.6507   19.0923 C   0  0  1  0  0  0  0  0  0  0  0  0
  -20.0374  -27.8878   24.0609 C   0  0  2  0  0  0  0  0  0  0  0  0
  -24.4040  -19.9537   22.0417 C   0  0  1  0  0  0  0  0  0  0  0  0
  -20.5567  -25.5044   23.8286 C   0  0  1  0  0  0  0  0  0  0  0  0
  -32.6579  -31.0150   19.1467 C   0  0  0  0  0  0  0  0  0  0  0  0
  -30.6763  -25.8758   22.8254 C   0  0  0  0  0  0  0  0  0  0  0  0
  -31.8256  -28.0956   22.6831 C   0  0  0  0  0  0  0  0  0  0  0  0
  -32.7167  -26.1475   21.4049 C   0  0  0  0  0  0  0  0  0  0  0  0
  -29.8525  -30.2174   16.7035 C   0  0  0  0  0  0  0  0  0  0  0  0
  -22.3360  -30.0205   21.8761 C   0  0  0  0  0  0  0  0  0  0  0  0
  -23.5266  -29.2169   21.3845 C   0  0  0  0  0  0  0  0  0  1  0  0
  -30.5743  -27.2537   20.6443 C   0  0  1  0  0  0  0  0  0  0  0  0
  -31.6657  -30.1216   18.4187 C   0  0  2  0  0  0  0  0  0  0  0  0
  -31.4212  -26.8403   21.8809 C   0  0  0  0  0  0  0  0  0  0  0  0
  -24.9105  -17.5555   21.7694 N   0  0  0  0  0  0  0  0  0  0  0  0
  -25.2655  -18.7337   22.3097 N   0  0  0  0  0  0  0  0  0  0  0  0
  -28.7416  -25.8885   19.6949 N   0  0  0  0  0  0  0  0  0  0  0  0
  -22.5020  -21.3182   22.8362 N   0  0  0  0  0  0  0  0  0  0  0  0
  -21.5638  -23.3977   23.5458 N   0  0  0  0  0  0  0  0  0  0  0  0
  -26.9011  -19.7694   23.6746 N   0  0  0  0  0  0  0  0  0  0  0  0
  -28.2663  -15.4683   23.4943 N   0  0  0  0  0  0  0  0  0  0  0  0
  -28.6945  -22.5583   20.2217 N   0  0  0  0  0  0  0  0  0  0  0  0
  -21.2938  -29.1689   22.4032 N   0  0  0  0  0  0  0  0  0  0  0  0
  -31.2644  -28.1453   19.7185 N   0  0  0  0  0  0  0  0  0  0  0  0
  -20.5366  -26.6641   24.7351 N   0  3  2  0  0  0  0  0  0  0  0  0
  -30.8546  -30.9705   17.5008 N   0  3  0  0  0  0  0  0  0  0  0  0
  -28.7399  -17.5373   24.3624 O   0  0  0  0  0  0  0  0  0  0  0  0
  -27.0597  -24.0056   21.0313 O   0  0  0  0  0  0  0  0  0  0  0  0
  -22.0104  -29.1062   24.6179 O   0  0  0  0  0  0  0  0  0  0  0  0
  -30.9732  -25.3221   19.3265 O   0  0  0  0  0  0  0  0  0  0  0  0
  -29.7201  -29.8716   19.8293 O   0  0  0  0  0  0  0  0  0  0  0  0
  -22.2639  -21.8318   25.0666 O   0  0  0  0  0  0  0  0  0  0  0  0
  -25.7532  -11.3279   20.7417 O   0  0  0  0  0  0  0  0  0  0  0  0
  -23.1049  -28.3275   20.3585 O   0  0  0  0  0  0  0  0  0  1  0  0
  -20.9233   -8.6882   21.0692 F   0  0  0  0  0  0  0  0  0  0  0  0
  -25.4516   -9.1201   22.3779 F   0  0  0  0  0  0  0  0  0  0  0  0
  1  2  1  0  0  0  0
  1  5  2  0  0  0  0
  2  6  2  0  0  0  0
  3  8  2  0  0  0  0
  3 15  1  0  0  0  0
  4  9  1  0  0  0  0
  4 15  2  0  0  0  0
  5 17  1  0  0  0  0
  6 19  1  0  0  0  0
  7 10  2  0  0  0  0
  7 18  1  0  0  0  0
  8 21  1  0  0  0  0
  9 21  2  0  0  0  0
 10 22  1  0  0  0  0
 11 12  2  0  0  0  0
 11 23  1  0  0  0  0
 12 24  1  0  0  0  0
 13 20  1  0  0  0  0
 13 22  2  0  0  0  0
 14 24  2  0  0  0  0
 14 25  1  0  0  0  0
 15 26  1  0  0  0  0
 16 26  1  0  0  0  0
 16 27  2  0  0  0  0
 16 28  1  0  0  0  0
 17 19  2  0  0  0  0
 17 34  1  0  0  0  0
 18 20  2  0  0  0  0
 18 35  1  0  0  0  0
 19 48  1  0  0  0  0
 20 36  1  0  0  0  0
 21 81  1  0  0  0  0
 22 82  1  0  0  0  0
 23 25  2  0  0  0  0
 23 81  1  0  0  0  0
 24 83  1  0  0  0  0
 25 84  1  0  0  0  0
 26 63  2  0  0  0  0
 27 64  1  0  0  0  0
 27 68  1  0  0  0  0
 28 69  1  0  0  0  0
 28 75  2  0  0  0  0
 29 49  1  0  0  0  0
 29 70  1  0  0  0  0
 29 76  2  0  0  0  0
 30 50  1  0  0  0  0
 30 71  1  0  0  0  0
 30 77  2  0  0  0  0
 31 60  1  0  0  0  0
 31 65  1  0  0  0  0
 31 78  2  0  0  0  0
 32 61  1  0  0  0  0
 32 72  1  0  0  0  0
 32 79  2  0  0  0  0
 33 66  1  0  0  0  0
 33 67  1  0  0  0  0
 33 80  2  0  0  0  0
 34 37  1  0  0  0  0
 35 49  1  0  0  0  0
 36 65  1  0  0  0  0
 37 39  1  0  0  0  0
 38 40  1  0  0  0  0
 38 43  1  0  0  0  0
 39 48  1  0  0  0  0
 40 51  1  0  0  0  0
 41 44  1  0  0  0  0
 41 52  1  0  0  0  0
 42 47  1  0  0  0  0
 42 50  1  0  0  0  0
 43 66  1  0  0  0  0
 44 67  1  0  0  0  0
 45 51  1  0  0  0  0
 45 66  1  0  0  0  0
 46 52  1  0  0  0  0
 46 67  1  0  0  0  0
 47 73  1  0  0  0  0
 48 70  1  0  0  0  0
 49 65  1  0  0  0  0
 50 73  1  0  0  0  0
 51 64  1  0  0  0  0
 52 73  1  0  0  0  0
 53 61  1  0  0  0  0
 54 62  1  0  0  0  0
 55 62  1  0  0  0  0
 56 62  1  0  0  0  0
 57 74  1  0  0  0  0
 58 59  1  0  0  0  0
 58 71  1  0  0  0  0
 59 82  1  0  0  0  0
 60 62  1  0  0  0  0
 60 72  1  0  0  0  0
 61 74  1  0  0  0  0
 63 64  1  0  0  0  0
M  CHG  2  73   1  74   1
M  ISO  4  33 100  59 101  67 100  82 101
M  END
> <Batch ID>
0187

> <Smiles>
CNC(C)C(=O)NC(C(=O)N1Cc2cc([101O:1][101CH2:1]CNC(=O)C3CCN3C3CC[100N:0]([100C:0](=O)N4CCCC(n5nc(-c6ccc(Oc7ccc(F)cc7F)cc6)c(C(N)=O)c5N)C4)C3)ccc2CC1C(=O)NC1CCCc2ccccc21)C(C)(C)C

> <Shape>
0.225

> <Color>
0.061

> <Negative vol penalty>
0.000

$$$$

  -OEChem-04052323173D

 83 92  0     1  0  0  0  0  0999 V2000
  -17.2566  -25.1648   22.0250 C   0  0  0  0  0  0  0  0  0  0  0  0
  -18.4156  -25.0567   21.2631 C   0  0  0  0  0  0  0  0  0  0  0  0
  -22.8020  -11.2194   19.1245 C   0  0  0  0  0  0  0  0  0  0  0  0
  -23.2071   -9.8717   21.0884 C   0  0  0  0  0  0  0  0  0  0  0  0
  -17.0426  -26.2973   22.8095 C   0  0  0  0  0  0  0  0  0  0  0  0
  -19.3607  -26.0817   21.2844 C   0  0  0  0  0  0  0  0  0  0  0  0
  -24.0993  -24.3465   21.7093 C   0  0  0  0  0  0  0  0  0  0  0  0
  -21.7728  -10.3577   18.7454 C   0  0  0  0  0  0  0  0  0  0  0  0
  -22.1778   -9.0100   20.7093 C   0  0  0  0  0  0  0  0  0  0  0  0
  -24.6943  -23.8315   20.5585 C   0  0  0  0  0  0  0  0  0  0  0  0
  -18.8007   -8.9633   20.8255 C   0  0  0  0  0  0  0  0  0  0  0  0
  -17.8982   -8.5615   21.8103 C   0  0  0  0  0  0  0  0  0  0  0  0
  -25.8773  -25.9106   20.2470 C   0  0  0  0  0  0  0  0  0  0  0  0
  -18.5147   -6.2559   21.4344 C   0  0  0  0  0  0  0  0  0  0  0  0
  -23.5192  -10.9764   20.2960 C   0  0  0  0  0  0  0  0  0  0  0  0
  -24.4771  -13.0129   21.4970 C   0  0  0  0  0  0  0  0  0  0  0  0
  -17.9901  -27.3324   22.8479 C   0  0  0  0  0  0  0  0  0  0  0  0
  -24.3809  -25.6535   22.1323 C   0  0  0  0  0  0  0  0  0  0  0  0
  -19.1585  -27.2298   22.0690 C   0  0  0  0  0  0  0  0  0  0  0  0
  -25.2865  -26.4390   21.4050 C   0  0  0  0  0  0  0  0  0  0  0  0
  -21.4607   -9.2530   19.5378 C   0  0  0  0  0  0  0  0  0  0  0  0
  -25.5813  -24.6145   19.8256 C   0  0  0  0  0  0  0  0  0  0  0  0
  -19.5601   -8.0115   20.1452 C   0  0  0  0  0  0  0  0  0  0  0  0
  -17.7553   -7.2078   22.1147 C   0  0  0  0  0  0  0  0  0  0  0  0
  -19.4172   -6.6578   20.4496 C   0  0  0  0  0  0  0  0  0  0  0  0
  -24.5829  -11.8659   20.6878 C   0  0  0  0  0  0  0  0  0  0  0  0
  -25.7587  -13.5016   21.5691 C   0  0  0  0  0  0  0  0  0  0  0  0
  -23.3236  -13.5855   22.1273 C   0  0  0  0  0  0  0  0  0  0  0  0
  -22.6640  -28.2965   22.5452 C   0  0  0  0  0  0  0  0  0  0  0  0
  -25.4415  -29.4429   23.7673 C   0  0  0  0  0  0  0  0  0  0  0  0
  -28.8457  -29.2451   23.9061 C   0  0  0  0  0  0  0  0  0  0  0  0
  -30.5959  -14.7938   19.3584 C   0  0  0  0  0  0  0  0  0  0  0  0
  -17.6926  -28.5586   23.6742 C   0  0  0  0  0  0  0  0  0  0  0  0
  -23.7512  -26.1849   23.3907 C   0  0  0  0  0  0  0  0  0  0  0  0
  -25.6380  -27.8411   21.8280 C   0  0  0  0  0  0  0  0  0  0  0  0
  -18.9182  -29.4315   23.9317 C   0  0  0  0  0  0  0  0  0  0  0  0
  -30.1591  -11.4595   20.1611 C   0  0  0  0  0  0  0  0  0  0  0  0
  -19.7040  -29.6424   22.6414 C   0  0  0  0  0  0  0  0  0  0  0  0
  -28.6605  -11.3474   20.4401 C   0  0  0  0  0  0  0  0  0  0  0  0
  -27.5298  -20.3736   17.0647 C   0  0  0  0  0  0  0  0  0  0  0  0
  -30.4249  -12.3561   18.9571 C   0  0  0  0  0  0  0  0  0  0  0  0
  -30.8964  -17.2316   19.1153 C   0  0  0  0  0  0  0  0  0  0  0  0
  -29.1148  -16.1406   17.8199 C   0  0  0  0  0  0  0  0  0  0  0  0
  -29.9989  -18.4587   19.2713 C   0  0  0  0  0  0  0  0  0  0  0  0
  -28.2386  -17.3767   18.0068 C   0  0  0  0  0  0  0  0  0  0  0  0
  -28.3446  -13.6304   19.3650 C   0  0  0  0  0  0  0  0  0  0  0  0
  -20.2188  -28.3094   22.0849 C   0  0  1  0  0  0  0  0  0  0  0  0
  -23.7156  -27.7092   23.4434 C   0  0  1  0  0  0  0  0  0  0  0  0
  -28.0191  -12.7394   20.5806 C   0  0  1  0  0  0  0  0  0  0  0  0
  -28.2190  -19.8050   18.2769 C   0  0  2  0  0  0  0  0  0  0  0  0
  -28.6876  -21.1064   17.6809 C   0  0  2  0  0  0  0  0  0  0  0  0
  -30.8411  -30.3403   24.9628 C   0  0  0  0  0  0  0  0  0  0  0  0
  -29.6339  -24.0530   17.2020 C   0  0  0  0  0  0  0  0  0  0  0  0
  -25.1926  -31.7745   21.8150 C   0  0  0  0  0  0  0  0  0  0  0  0
  -27.6066  -32.2910   22.2324 C   0  0  0  0  0  0  0  0  0  0  0  0
  -25.9650  -32.4109   24.1069 C   0  0  0  0  0  0  0  0  0  0  0  0
  -29.6276  -26.7492   25.2910 C   0  0  0  0  0  0  0  0  0  0  0  0
  -27.4617  -24.6036   18.3695 C   0  0  0  0  0  0  0  0  0  1  0  0
  -26.6473  -30.1519   23.1995 C   0  0  1  0  0  0  0  0  0  0  0  0
  -29.8068  -29.2316   25.0811 C   0  0  2  0  0  0  0  0  0  0  0  0
  -28.2452  -23.5625   17.5781 C   0  0  2  0  0  0  0  0  0  0  0  0
  -26.3450  -31.6314   22.8291 C   0  0  0  0  0  0  0  0  0  0  0  0
  -25.8329  -11.6394   20.2752 N   0  0  0  0  0  0  0  0  0  0  0  0
  -26.5243  -12.6509   20.8273 N   0  0  0  0  0  0  0  0  0  0  0  0
  -24.9916  -28.3179   23.0618 N   0  0  0  0  0  0  0  0  0  0  0  0
  -29.7954  -13.6656   19.1258 N   0  0  0  0  0  0  0  0  0  0  0  0
  -30.1066  -16.0240   18.8940 N   0  0  0  0  0  0  0  0  0  0  0  0
  -29.0601  -18.5875   18.1481 N   0  0  0  0  0  0  0  0  0  0  0  0
  -26.2941  -14.5718   22.1940 N   0  0  0  0  0  0  0  0  0  0  0  0
  -22.0839  -12.9560   21.9501 N   0  0  0  0  0  0  0  0  0  0  0  0
  -21.3808  -27.8675   22.8258 N   0  0  0  0  0  0  0  0  0  0  0  0
  -27.7161  -29.9875   24.1787 N   0  0  0  0  0  0  0  0  0  0  0  0
  -28.3961  -22.3388   18.4233 N   0  3  0  0  0  0  0  0  0  0  0  0
  -30.5227  -27.9264   25.1497 N   0  3  0  0  0  0  0  0  0  0  0  0
  -23.3874  -14.6337   22.8134 O   0  0  0  0  0  0  0  0  0  0  0  0
  -22.9923  -29.0821   21.6638 O   0  0  0  0  0  0  0  0  0  0  0  0
  -24.9224  -29.8674   24.8027 O   0  0  0  0  0  0  0  0  0  0  0  0
  -29.0757  -28.6590   22.8506 O   0  0  0  0  0  0  0  0  0  0  0  0
  -31.6795  -14.7110   19.9498 O   0  0  0  0  0  0  0  0  0  0  0  0
  -20.4562   -8.4120   19.1683 O   0  0  0  0  0  0  0  0  0  0  0  0
  -26.1670  -24.1111   18.6939 O   0  0  0  0  0  0  0  0  0  1  0  0
  -16.8897   -6.8222   23.0614 F   0  0  0  0  0  0  0  0  0  0  0  0
  -20.1448   -5.7388   19.8002 F   0  0  0  0  0  0  0  0  0  0  0  0
  1  2  1  0  0  0  0
  1  5  2  0  0  0  0
  2  6  2  0  0  0  0
  3  8  2  0  0  0  0
  3 15  1  0  0  0  0
  4  9  1  0  0  0  0
  4 15  2  0  0  0  0
  5 17  1  0  0  0  0
  6 19  1  0  0  0  0
  7 10  2  0  0  0  0
  7 18  1  0  0  0  0
  8 21  1  0  0  0  0
  9 21  2  0  0  0  0
 10 22  1  0  0  0  0
 11 12  2  0  0  0  0
 11 23  1  0  0  0  0
 12 24  1  0  0  0  0
 13 20  1  0  0  0  0
 13 22  2  0  0  0  0
 14 24  2  0  0  0  0
 14 25  1  0  0  0  0
 15 26  1  0  0  0  0
 16 26  1  0  0  0  0
 16 27  2  0  0  0  0
 16 28  1  0  0  0  0
 17 19  2  0  0  0  0
 17 33  1  0  0  0  0
 18 20  2  0  0  0  0
 18 34  1  0  0  0  0
 19 47  1  0  0  0  0
 20 35  1  0  0  0  0
 21 80  1  0  0  0  0
 22 81  1  0  0  0  0
 23 25  2  0  0  0  0
 23 80  1  0  0  0  0
 24 82  1  0  0  0  0
 25 83  1  0  0  0  0
 26 63  2  0  0  0  0
 27 64  1  0  0  0  0
 27 69  1  0  0  0  0
 28 70  1  0  0  0  0
 28 75  2  0  0  0  0
 29 48  1  0  0  0  0
 29 71  1  0  0  0  0
 29 76  2  0  0  0  0
 30 59  1  0  0  0  0
 30 65  1  0  0  0  0
 30 77  2  0  0  0  0
 31 60  1  0  0  0  0
 31 72  1  0  0  0  0
 31 78  2  0  0  0  0
 32 66  1  0  0  0  0
 32 67  1  0  0  0  0
 32 79  2  0  0  0  0
 33 36  1  0  0  0  0
 34 48  1  0  0  0  0
 35 65  1  0  0  0  0
 36 38  1  0  0  0  0
 37 39  1  0  0  0  0
 37 41  1  0  0  0  0
 38 47  1  0  0  0  0
 39 49  1  0  0  0  0
 40 50  1  0  0  0  0
 40 51  1  0  0  0  0
 41 66  1  0  0  0  0
 42 44  1  0  0  0  0
 42 67  1  0  0  0  0
 43 45  1  0  0  0  0
 43 67  1  0  0  0  0
 44 68  1  0  0  0  0
 45 68  1  0  0  0  0
 46 49  1  0  0  0  0
 46 66  1  0  0  0  0
 47 71  1  0  0  0  0
 48 65  1  0  0  0  0
 49 64  1  0  0  0  0
 50 51  1  0  0  0  0
 50 68  1  0  0  0  0
 51 73  1  0  0  0  0
 52 60  1  0  0  0  0
 53 61  1  0  0  0  0
 54 62  1  0  0  0  0
 55 62  1  0  0  0  0
 56 62  1  0  0  0  0
 57 74  1  0  0  0  0
 58 61  1  0  0  0  0
 58 81  1  0  0  0  0
 59 62  1  0  0  0  0
 59 72  1  0  0  0  0
 60 74  1  0  0  0  0
 61 73  1  0  0  0  0
 63 64  1  0  0  0  0
M  CHG  2  73   1  74   1
M  ISO  4  32 100  58 101  67 100  81 101
M  END
> <Batch ID>
0187

> <Smiles>
CNC(C)C(=O)NC(C(=O)N1Cc2cc([101O:1][101CH2:1]C(C)NC3CC3N3CC[100N:0]([100C:0](=O)N4CCCC(n5nc(-c6ccc(Oc7ccc(F)cc7F)cc6)c(C(N)=O)c5N)C4)CC3)ccc2CC1C(=O)NC1CCCc2ccccc21)C(C)(C)C

> <Shape>
0.272

> <Color>
0.106

> <Negative vol penalty>
0.000

$$$$

  -OEChem-04052323173D

 84 94  0     1  0  0  0  0  0999 V2000
  -18.1950  -28.8522   22.8696 C   0  0  0  0  0  0  0  0  0  0  0  0
  -17.9248  -27.6574   22.2102 C   0  0  0  0  0  0  0  0  0  0  0  0
  -27.6969  -25.7034   18.5680 C   0  0  0  0  0  0  0  0  0  0  0  0
  -27.9903  -25.1596   20.9037 C   0  0  0  0  0  0  0  0  0  0  0  0
  -19.4904  -29.1299   23.3041 C   0  0  0  0  0  0  0  0  0  0  0  0
  -18.9502  -26.7399   21.9839 C   0  0  0  0  0  0  0  0  0  0  0  0
  -20.1301  -19.6901   21.5110 C   0  0  0  0  0  0  0  0  0  0  0  0
  -26.0145  -11.9933   20.4436 C   0  0  0  0  0  0  0  0  0  0  0  0
  -26.8172  -26.7281   18.9171 C   0  0  0  0  0  0  0  0  0  0  0  0
  -27.1107  -26.1843   21.2528 C   0  0  0  0  0  0  0  0  0  0  0  0
  -20.7027  -18.7488   20.6567 C   0  0  0  0  0  0  0  0  0  0  0  0
  -27.0193  -29.8922   20.0919 C   0  0  0  0  0  0  0  0  0  0  0  0
  -27.1751  -31.1246   19.4575 C   0  0  0  0  0  0  0  0  0  0  0  0
  -24.7166  -12.5016   20.4177 C   0  0  0  0  0  0  0  0  0  0  0  0
  -22.8858  -19.3002   21.5221 C   0  0  0  0  0  0  0  0  0  0  0  0
  -24.9312  -30.9556   18.5780 C   0  0  0  0  0  0  0  0  0  0  0  0
  -28.2835  -24.9191   19.5613 C   0  0  0  0  0  0  0  0  0  0  0  0
  -30.5881  -23.9534   19.0478 C   0  0  0  0  0  0  0  0  0  0  0  0
  -20.5302  -28.2111   23.0915 C   0  0  0  0  0  0  0  0  0  0  0  0
  -20.9335  -20.4525   22.3710 C   0  0  0  0  0  0  0  0  0  0  0  0
  -20.2610  -27.0062   22.4147 C   0  0  0  0  0  0  0  0  0  0  0  0
  -22.3207  -20.2487   22.3882 C   0  0  0  0  0  0  0  0  0  0  0  0
  -27.0629  -12.8878   20.3974 C   0  0  0  0  0  0  0  0  0  0  0  0
  -26.5241  -26.9685   20.2595 C   0  0  0  0  0  0  0  0  0  0  0  0
  -22.0810  -18.5558   20.6601 C   0  0  0  0  0  0  0  0  0  0  0  0
  -25.8194  -29.1915   19.9694 C   0  0  0  0  0  0  0  0  0  0  0  0
  -26.1311  -31.6563   18.7006 C   0  0  0  0  0  0  0  0  0  0  0  0
  -24.7754  -29.7232   19.2124 C   0  0  0  0  0  0  0  0  0  0  0  0
  -29.1918  -23.8602   19.2014 C   0  0  0  0  0  0  0  0  0  0  0  0
  -24.5398  -13.8847   20.3724 C   0  0  0  0  0  0  0  0  0  0  0  0
  -26.7790  -14.2471   20.3678 C   0  0  0  0  0  0  0  0  0  0  0  0
  -30.9812  -22.6832   18.7036 C   0  0  0  0  0  0  0  0  0  0  0  0
  -31.4524  -25.0868   19.2027 C   0  0  0  0  0  0  0  0  0  0  0  0
  -21.5441  -23.5536   22.7088 C   0  0  0  0  0  0  0  0  0  0  0  0
  -23.1857  -22.5480   25.3197 C   0  0  0  0  0  0  0  0  0  0  0  0
  -24.8316  -20.0160   26.9092 C   0  0  0  0  0  0  0  0  0  0  0  0
  -28.3858  -17.4316   19.8373 C   0  0  0  0  0  0  0  0  0  0  0  0
  -21.9240  -28.5762   23.5374 C   0  0  0  0  0  0  0  0  0  0  0  0
  -20.2978  -21.4449   23.3055 C   0  0  0  0  0  0  0  0  0  0  0  0
  -23.2253  -21.0273   23.3069 C   0  0  0  0  0  0  0  0  0  0  0  0
  -22.8781  -27.3858   23.5903 C   0  0  0  0  0  0  0  0  0  0  0  0
  -29.4343  -18.7307   16.5370 C   0  0  0  0  0  0  0  0  0  0  0  0
  -22.7564  -26.5474   22.3217 C   0  0  0  0  0  0  0  0  0  0  0  0
  -29.5560  -20.2215   16.8361 C   0  0  0  0  0  0  0  0  0  0  0  0
  -22.1957  -13.9413   19.2830 C   0  0  0  0  0  0  0  0  0  0  0  0
  -28.3249  -18.0685   17.3533 C   0  0  0  0  0  0  0  0  0  0  0  0
  -29.1029  -13.8902   20.1961 C   0  0  0  0  0  0  0  0  0  0  0  0
  -28.5746  -19.7912   19.1210 C   0  0  0  0  0  0  0  0  0  0  0  0
  -21.3417  -25.9748   22.1725 C   0  0  1  0  0  0  0  0  0  0  0  0
  -23.1578  -14.4214   20.3479 C   0  0  2  0  0  0  0  0  0  0  0  0
  -28.0696  -15.0152   20.4467 C   0  0  1  0  0  0  0  0  0  0  0  0
  -21.2636  -22.5298   23.7722 C   0  0  1  0  0  0  0  0  0  0  0  0
  -22.7406  -15.3369   19.2158 C   0  0  2  0  0  0  0  0  0  0  0  0
  -29.7198  -20.4586   18.3447 C   0  0  2  0  0  0  0  0  0  0  0  0
  -26.0994  -19.5064   29.0140 C   0  0  0  0  0  0  0  0  0  0  0  0
  -25.6022  -24.0564   24.2264 C   0  0  0  0  0  0  0  0  0  0  0  0
  -27.0415  -22.7595   25.8122 C   0  0  0  0  0  0  0  0  0  0  0  0
  -25.2663  -24.2735   26.6951 C   0  0  0  0  0  0  0  0  0  0  0  0
  -22.8870  -17.9354   27.7146 C   0  0  0  0  0  0  0  0  0  0  0  0
  -21.8507  -16.5014   19.4843 C   0  0  0  0  0  0  0  0  0  1  0  0
  -24.6031  -22.1011   25.5846 C   0  0  1  0  0  0  0  0  0  0  0  0
  -24.7408  -19.4918   28.3309 C   0  0  2  0  0  0  0  0  0  0  0  0
  -25.6117  -23.2842   25.5608 C   0  0  0  0  0  0  0  0  0  0  0  0
  -28.7291  -22.6282   18.9731 N   0  0  0  0  0  0  0  0  0  0  0  0
  -25.5492  -14.7871   20.3575 N   0  0  0  0  0  0  0  0  0  0  0  0
  -29.8409  -21.9356   18.6726 N   0  0  0  0  0  0  0  0  0  0  0  0
  -28.4253  -12.6280   20.4789 N   0  0  0  0  0  0  0  0  0  0  0  0
  -22.5568  -21.9904   24.1974 N   0  0  0  0  0  0  0  0  0  0  0  0
  -28.4525  -18.3665   18.7887 N   0  0  0  0  0  0  0  0  0  0  0  0
  -32.1876  -22.1440   18.4272 N   0  0  0  0  0  0  0  0  0  0  0  0
  -30.8837  -26.3169   19.5598 N   0  0  0  0  0  0  0  0  0  0  0  0
  -21.1618  -24.8372   23.0488 N   0  0  0  0  0  0  0  0  0  0  0  0
  -24.5711  -21.3685   26.8459 N   0  0  0  0  0  0  0  0  0  0  0  0
  -28.1714  -16.1096   19.4597 N   0  0  0  0  0  0  0  0  0  0  0  0
  -24.2275  -18.0927   28.3354 N   0  3  0  0  0  0  0  0  0  0  0  0
  -32.6904  -25.0146   19.0135 O   0  0  0  0  0  0  0  0  0  0  0  0
  -22.0700  -23.2051   21.6582 O   0  0  0  0  0  0  0  0  0  0  0  0
  -22.6535  -23.3564   26.0844 O   0  0  0  0  0  0  0  0  0  0  0  0
  -25.1098  -19.2982   25.9511 O   0  0  0  0  0  0  0  0  0  0  0  0
  -28.5010  -17.7463   21.0267 O   0  0  0  0  0  0  0  0  0  0  0  0
  -25.6660  -27.9684   20.6005 O   0  0  0  0  0  0  0  0  0  0  0  0
  -22.6425  -17.6381   19.8267 O   0  0  0  0  0  0  0  0  0  1  0  0
  -26.2804  -32.8405   18.0927 F   0  0  0  0  0  0  0  0  0  0  0  0
  -23.6199  -29.0552   19.0920 F   0  0  0  0  0  0  0  0  0  0  0  0
  1  2  1  0  0  0  0
  1  5  2  0  0  0  0
  2  6  2  0  0  0  0
  3  9  2  0  0  0  0
  3 17  1  0  0  0  0
  4 10  1  0  0  0  0
  4 17  2  0  0  0  0
  5 19  1  0  0  0  0
  6 21  1  0  0  0  0
  7 11  2  0  0  0  0
  7 20  1  0  0  0  0
  8 14  2  0  0  0  0
  8 23  1  0  0  0  0
  9 24  1  0  0  0  0
 10 24  2  0  0  0  0
 11 25  1  0  0  0  0
 12 13  2  0  0  0  0
 12 26  1  0  0  0  0
 13 27  1  0  0  0  0
 14 30  1  0  0  0  0
 15 22  1  0  0  0  0
 15 25  2  0  0  0  0
 16 27  2  0  0  0  0
 16 28  1  0  0  0  0
 17 29  1  0  0  0  0
 18 29  1  0  0  0  0
 18 32  2  0  0  0  0
 18 33  1  0  0  0  0
 19 21  2  0  0  0  0
 19 38  1  0  0  0  0
 20 22  2  0  0  0  0
 20 39  1  0  0  0  0
 21 49  1  0  0  0  0
 22 40  1  0  0  0  0
 23 31  2  0  0  0  0
 23 67  1  0  0  0  0
 24 81  1  0  0  0  0
 25 82  1  0  0  0  0
 26 28  2  0  0  0  0
 26 81  1  0  0  0  0
 27 83  1  0  0  0  0
 28 84  1  0  0  0  0
 29 64  2  0  0  0  0
 30 50  1  0  0  0  0
 30 65  2  0  0  0  0
 31 51  1  0  0  0  0
 31 65  1  0  0  0  0
 32 66  1  0  0  0  0
 32 70  1  0  0  0  0
 33 71  1  0  0  0  0
 33 76  2  0  0  0  0
 34 52  1  0  0  0  0
 34 72  1  0  0  0  0
 34 77  2  0  0  0  0
 35 61  1  0  0  0  0
 35 68  1  0  0  0  0
 35 78  2  0  0  0  0
 36 62  1  0  0  0  0
 36 73  1  0  0  0  0
 36 79  2  0  0  0  0
 37 69  1  0  0  0  0
 37 74  1  0  0  0  0
 37 80  2  0  0  0  0
 38 41  1  0  0  0  0
 39 52  1  0  0  0  0
 40 68  1  0  0  0  0
 41 43  1  0  0  0  0
 42 44  1  0  0  0  0
 42 46  1  0  0  0  0
 43 49  1  0  0  0  0
 44 54  1  0  0  0  0
 45 50  1  0  0  0  0
 45 53  1  0  0  0  0
 46 69  1  0  0  0  0
 47 51  1  0  0  0  0
 47 67  1  0  0  0  0
 48 54  1  0  0  0  0
 48 69  1  0  0  0  0
 49 72  1  0  0  0  0
 50 53  1  0  0  0  0
 51 74  1  0  0  0  0
 52 68  1  0  0  0  0
 53 60  1  0  0  0  0
 54 66  1  0  0  0  0
 55 62  1  0  0  0  0
 56 63  1  0  0  0  0
 57 63  1  0  0  0  0
 58 63  1  0  0  0  0
 59 75  1  0  0  0  0
 60 82  1  0  0  0  0
 61 63  1  0  0  0  0
 61 73  1  0  0  0  0
 62 75  1  0  0  0  0
 64 66  1  0  0  0  0
M  CHG  1  75   1
M  ISO  4  37 100  60 101  74 100  82 101
M  END
> <Batch ID>
0187

> <Smiles>
CNC(C)C(=O)NC(C(=O)N1Cc2cc([101O:1][101CH2:1]C3CC3c3ccc4c(n3)C([100NH:0][100C:0](=O)N3CCCC(n5nc(-c6ccc(Oc7ccc(F)cc7F)cc6)c(C(N)=O)c5N)C3)CN4)ccc2CC1C(=O)NC1CCCc2ccccc21)C(C)(C)C

> <Shape>
0.218

> <Color>
0.057

> <Negative vol penalty>
0.000

$$$$

  -OEChem-04052323173D

 85 94  0     1  0  0  0  0  0999 V2000
  -26.5340  -38.2220   19.9866 C   0  0  0  0  0  0  0  0  0  0  0  0
  -27.0863  -37.1164   19.3478 C   0  0  0  0  0  0  0  0  0  0  0  0
  -24.6046  -11.0895   23.7144 C   0  0  0  0  0  0  0  0  0  0  0  0
  -23.6750  -13.3053   23.4635 C   0  0  0  0  0  0  0  0  0  0  0  0
  -25.9876  -38.0877   21.2622 C   0  0  0  0  0  0  0  0  0  0  0  0
  -27.0935  -35.8760   19.9848 C   0  0  0  0  0  0  0  0  0  0  0  0
  -26.6610  -28.8680   18.5647 C   0  0  0  0  0  0  0  0  0  0  0  0
  -24.1113  -11.0301   25.0177 C   0  0  0  0  0  0  0  0  0  0  0  0
  -23.1815  -13.2459   24.7668 C   0  0  0  0  0  0  0  0  0  0  0  0
  -27.3373  -27.6747   18.8145 C   0  0  0  0  0  0  0  0  0  0  0  0
  -21.1463  -10.4463   26.5346 C   0  0  0  0  0  0  0  0  0  0  0  0
  -20.5066   -9.2725   26.9327 C   0  0  0  0  0  0  0  0  0  0  0  0
  -26.2940  -27.5447   20.9856 C   0  0  0  0  0  0  0  0  0  0  0  0
  -22.1433   -8.9749   28.6848 C   0  0  0  0  0  0  0  0  0  0  0  0
  -24.3865  -12.2272   22.9373 C   0  0  0  0  0  0  0  0  0  0  0  0
  -24.2408  -11.8813   20.4140 C   0  0  0  0  0  0  0  0  0  0  0  0
  -25.9794  -36.8431   21.9113 C   0  0  0  0  0  0  0  0  0  0  0  0
  -25.8030  -29.4152   19.5296 C   0  0  0  0  0  0  0  0  0  0  0  0
  -26.5477  -35.7253   21.2710 C   0  0  0  0  0  0  0  0  0  0  0  0
  -25.6060  -28.7437   20.7446 C   0  0  0  0  0  0  0  0  0  0  0  0
  -23.3997  -12.1082   25.5439 C   0  0  0  0  0  0  0  0  0  0  0  0
  -27.1561  -27.0143   20.0262 C   0  0  0  0  0  0  0  0  0  0  0  0
  -22.2845  -10.8845   27.2115 C   0  0  0  0  0  0  0  0  0  0  0  0
  -21.0051   -8.5367   28.0078 C   0  0  0  0  0  0  0  0  0  0  0  0
  -22.7829  -10.1487   28.2866 C   0  0  0  0  0  0  0  0  0  0  0  0
  -24.8964  -12.2894   21.5911 C   0  0  0  0  0  0  0  0  0  0  0  0
  -25.1404  -12.1460   19.4105 C   0  0  0  0  0  0  0  0  0  0  0  0
  -30.7117  -22.9127   21.0868 C   0  0  0  0  0  0  0  0  0  0  0  0
  -29.2804  -24.0192   19.7588 C   0  0  0  0  0  0  0  0  0  0  0  0
  -29.3476  -21.7763   19.7140 C   0  0  0  0  0  0  0  0  0  0  0  0
  -22.9353  -11.3137   20.2431 C   0  0  0  0  0  0  0  0  0  0  0  0
  -25.7364  -32.1212   21.1959 C   0  0  0  0  0  0  0  0  0  0  0  0
  -22.8621  -30.9869   22.1825 C   0  0  0  0  0  0  0  0  0  0  0  0
  -20.8301  -28.2924   22.6903 C   0  0  0  0  0  0  0  0  0  0  0  0
  -29.6844  -16.0147   18.9240 C   0  0  0  0  0  0  0  0  0  0  0  0
  -25.4200  -36.7570   23.3093 C   0  0  0  0  0  0  0  0  0  0  0  0
  -25.0602  -30.6893   19.2342 C   0  0  0  0  0  0  0  0  0  0  0  0
  -24.6802  -29.2788   21.8053 C   0  0  0  0  0  0  0  0  0  0  0  0
  -25.1300  -35.3285   23.7625 C   0  0  0  0  0  0  0  0  0  0  0  0
  -29.8421  -12.4738   18.5870 C   0  0  0  0  0  0  0  0  0  0  0  0
  -26.3056  -34.4145   23.4317 C   0  0  0  0  0  0  0  0  0  0  0  0
  -28.5333  -11.9882   19.2125 C   0  0  0  0  0  0  0  0  0  0  0  0
  -30.4091  -13.6810   19.3306 C   0  0  0  0  0  0  0  0  0  0  0  0
  -28.1621  -14.3224   20.1137 C   0  0  0  0  0  0  0  0  0  0  0  0
  -29.3870  -19.2655   19.6294 C   0  0  0  0  0  0  0  0  0  0  0  0
  -27.8430  -20.4614   18.1914 C   0  0  0  0  0  0  0  0  0  0  0  0
  -26.5519  -34.3579   21.9192 C   0  0  1  0  0  0  0  0  0  0  0  0
  -24.6071  -31.4224   20.4930 C   0  0  1  0  0  0  0  0  0  0  0  0
  -27.5227  -13.1410   19.3642 C   0  0  2  0  0  0  0  0  0  0  0  0
  -28.8120  -18.3120   18.5769 C   0  0  2  0  0  0  0  0  0  0  0  0
  -27.4883  -18.9767   18.2287 C   0  0  2  0  0  0  0  0  0  0  0  0
  -31.7838  -22.9242   22.1225 C   0  0  0  0  0  0  0  0  0  0  0  0
  -18.5518  -27.6762   23.5430 C   0  0  0  0  0  0  0  0  0  0  0  0
  -23.8303  -31.3831   25.0488 C   0  0  0  0  0  0  0  0  0  0  0  0
  -21.9596  -29.9041   25.8113 C   0  0  0  0  0  0  0  0  0  0  0  0
  -21.4541  -32.0523   24.6485 C   0  0  0  0  0  0  0  0  0  0  0  0
  -20.0304  -27.1603   20.0754 C   0  0  0  0  0  0  0  0  0  0  0  0
  -28.7018  -25.3119   19.2635 C   0  0  0  0  0  0  0  0  0  1  0  0
  -22.3905  -30.1150   23.3211 C   0  0  1  0  0  0  0  0  0  0  0  0
  -19.3795  -28.0408   22.3204 C   0  0  2  0  0  0  0  0  0  0  0  0
  -22.4276  -30.8543   24.6884 C   0  0  0  0  0  0  0  0  0  0  0  0
  -26.1182  -12.7762   21.3584 N   0  0  0  0  0  0  0  0  0  0  0  0
  -30.2420  -24.1072   20.6917 N   0  0  0  0  0  0  0  0  0  0  0  0
  -30.3139  -21.7091   20.6439 N   0  0  0  0  0  0  0  0  0  0  0  0
  -28.7837  -22.8921   19.2240 N   0  0  0  0  0  0  0  0  0  0  0  0
  -26.2376  -12.6757   20.0236 N   0  0  0  0  0  0  0  0  0  0  0  0
  -28.8877  -20.5781   19.2113 N   0  0  3  0  0  0  0  0  0  0  0  0
  -23.9814  -30.5310   21.4719 N   0  0  0  0  0  0  0  0  0  0  0  0
  -29.4015  -14.7388   19.4389 N   0  0  0  0  0  0  0  0  0  0  0  0
  -25.0922  -11.9750   18.0723 N   0  0  0  0  0  0  0  0  0  0  0  0
  -22.1418  -11.1087   21.3800 N   0  0  0  0  0  0  0  0  0  0  0  0
  -25.5835  -33.4919   21.2815 N   0  0  0  0  0  0  0  0  0  0  0  0
  -21.0691  -29.6270   22.9414 N   0  0  0  0  0  0  0  0  0  0  0  0
  -28.6727  -16.9571   19.0623 N   0  0  0  0  0  0  0  0  0  0  0  0
  -26.9754  -18.5164   16.9261 N   0  3  0  0  0  0  0  0  0  0  0  0
  -19.2817  -26.9254   21.3369 N   0  3  0  0  0  0  0  0  0  0  0  0
  -22.4922  -10.9825   19.1172 O   0  0  0  0  0  0  0  0  0  0  0  0
  -26.6762  -31.4653   21.6297 O   0  0  0  0  0  0  0  0  0  0  0  0
  -22.2551  -32.0303   21.9284 O   0  0  0  0  0  0  0  0  0  0  0  0
  -21.6667  -27.3943   22.7541 O   0  0  0  0  0  0  0  0  0  0  0  0
  -30.7570  -16.2919   18.3766 O   0  0  0  0  0  0  0  0  0  0  0  0
  -22.9179  -12.0505   26.8156 O   0  0  0  0  0  0  0  0  0  0  0  0
  -27.8156  -25.8498   20.2727 O   0  0  0  0  0  0  0  0  0  1  0  0
  -20.3898   -7.4103   28.3909 F   0  0  0  0  0  0  0  0  0  0  0  0
  -23.8753  -10.5652   28.9416 F   0  0  0  0  0  0  0  0  0  0  0  0
  1  2  1  0  0  0  0
  1  5  2  0  0  0  0
  2  6  2  0  0  0  0
  3  8  2  0  0  0  0
  3 15  1  0  0  0  0
  4  9  1  0  0  0  0
  4 15  2  0  0  0  0
  5 17  1  0  0  0  0
  6 19  1  0  0  0  0
  7 10  2  0  0  0  0
  7 18  1  0  0  0  0
  8 21  1  0  0  0  0
  9 21  2  0  0  0  0
 10 22  1  0  0  0  0
 11 12  2  0  0  0  0
 11 23  1  0  0  0  0
 12 24  1  0  0  0  0
 13 20  1  0  0  0  0
 13 22  2  0  0  0  0
 14 24  2  0  0  0  0
 14 25  1  0  0  0  0
 15 26  1  0  0  0  0
 16 26  1  0  0  0  0
 16 27  2  0  0  0  0
 16 31  1  0  0  0  0
 17 19  2  0  0  0  0
 17 36  1  0  0  0  0
 18 20  2  0  0  0  0
 18 37  1  0  0  0  0
 19 47  1  0  0  0  0
 20 38  1  0  0  0  0
 21 82  1  0  0  0  0
 22 83  1  0  0  0  0
 23 25  2  0  0  0  0
 23 82  1  0  0  0  0
 24 84  1  0  0  0  0
 25 85  1  0  0  0  0
 26 62  2  0  0  0  0
 27 66  1  0  0  0  0
 27 70  1  0  0  0  0
 28 52  1  0  0  0  0
 28 63  2  0  0  0  0
 28 64  1  0  0  0  0
 29 58  1  0  0  0  0
 29 63  1  0  0  0  0
 29 65  2  0  0  0  0
 30 64  2  0  0  0  0
 30 65  1  0  0  0  0
 30 67  1  0  0  0  0
 31 71  1  0  0  0  0
 31 77  2  0  0  0  0
 32 48  1  0  0  0  0
 32 72  1  0  0  0  0
 32 78  2  0  0  0  0
 33 59  1  0  0  0  0
 33 68  1  0  0  0  0
 33 79  2  0  0  0  0
 34 60  1  0  0  0  0
 34 73  1  0  0  0  0
 34 80  2  0  0  0  0
 35 69  1  0  0  0  0
 35 74  1  0  0  0  0
 35 81  2  0  0  0  0
 36 39  1  0  0  0  0
 37 48  1  0  0  0  0
 38 68  1  0  0  0  0
 39 41  1  0  0  0  0
 40 42  1  0  0  0  0
 40 43  1  0  0  0  0
 41 47  1  0  0  0  0
 42 49  1  0  0  0  0
 43 69  1  0  0  0  0
 44 49  1  0  0  0  0
 44 69  1  0  0  0  0
 45 50  1  0  0  0  0
 45 67  1  0  0  0  0
 46 51  1  0  0  0  0
 46 67  1  0  0  0  0
 47 72  1  0  0  0  0
 48 68  1  0  0  0  0
 49 66  1  0  0  0  0
 50 51  1  0  0  0  0
 50 74  1  0  0  0  0
 51 75  1  0  0  0  0
 53 60  1  0  0  0  0
 54 61  1  0  0  0  0
 55 61  1  0  0  0  0
 56 61  1  0  0  0  0
 57 76  1  0  0  0  0
 58 83  1  0  0  0  0
 59 61  1  0  0  0  0
 59 73  1  0  0  0  0
 60 76  1  0  0  0  0
 62 66  1  0  0  0  0
M  CHG  2  75   1  76   1
M  ISO  4  35 100  58 101  74 100  83 101
M  END
> <Batch ID>
0187

> <Smiles>
CNC(C)C(=O)NC(C(=O)N1Cc2cc([101O:1][101CH2:1]c3nc(C)nc(N4CC(N)C([100NH:0][100C:0](=O)N5CCCC(n6nc(-c7ccc(Oc8ccc(F)cc8F)cc7)c(C(N)=O)c6N)C5)C4)n3)ccc2CC1C(=O)NC1CCCc2ccccc21)C(C)(C)C

> <Shape>
0.282

> <Color>
0.093

> <Negative vol penalty>
0.000

$$$$

  -OEChem-04052323173D

 91101  0     1  0  0  0  0  0999 V2000
  -17.8384  -24.6783   24.6382 C   0  0  0  0  0  0  0  0  0  0  0  0
  -19.2073  -24.4893   24.7987 C   0  0  0  0  0  0  0  0  0  0  0  0
  -23.8660   -9.9724   22.4563 C   0  0  0  0  0  0  0  0  0  0  0  0
  -22.9364  -10.2927   20.2495 C   0  0  0  0  0  0  0  0  0  0  0  0
  -17.3680  -25.7453   23.8739 C   0  0  0  0  0  0  0  0  0  0  0  0
  -20.1067  -25.3667   24.1940 C   0  0  0  0  0  0  0  0  0  0  0  0
  -23.8472  -26.7660   27.3078 C   0  0  0  0  0  0  0  0  0  0  0  0
  -22.9152   -8.9848   22.7135 C   0  0  0  0  0  0  0  0  0  0  0  0
  -21.9856   -9.3050   20.5066 C   0  0  0  0  0  0  0  0  0  0  0  0
  -24.8827  -25.8544   27.5089 C   0  0  0  0  0  0  0  0  0  0  0  0
  -22.4403   -5.7253   21.9501 C   0  0  0  0  0  0  0  0  0  0  0  0
  -22.8783   -4.5440   22.5486 C   0  0  0  0  0  0  0  0  0  0  0  0
  -26.2457  -27.0632   25.9276 C   0  0  0  0  0  0  0  0  0  0  0  0
  -21.3991   -4.9420   24.4169 C   0  0  0  0  0  0  0  0  0  0  0  0
  -23.8766  -10.6264   21.2243 C   0  0  0  0  0  0  0  0  0  0  0  0
  -26.1360  -11.4714   20.3943 C   0  0  0  0  0  0  0  0  0  0  0  0
  -18.2619  -26.6418   23.2675 C   0  0  0  0  0  0  0  0  0  0  0  0
  -23.9994  -27.8285   26.4053 C   0  0  0  0  0  0  0  0  0  0  0  0
  -19.6479  -26.4459   23.4197 C   0  0  0  0  0  0  0  0  0  0  0  0
  -25.2115  -27.9883   25.7187 C   0  0  0  0  0  0  0  0  0  0  0  0
  -30.2829  -21.6838   28.2642 C   0  0  0  0  0  0  0  0  0  0  0  0
  -21.9751   -8.6511   21.7387 C   0  0  0  0  0  0  0  0  0  0  0  0
  -26.0812  -26.0013   26.8166 C   0  0  0  0  0  0  0  0  0  0  0  0
  -21.4817   -6.5150   22.5851 C   0  0  0  0  0  0  0  0  0  0  0  0
  -22.3577   -4.1523   23.7820 C   0  0  0  0  0  0  0  0  0  0  0  0
  -20.9611   -6.1234   23.8184 C   0  0  0  0  0  0  0  0  0  0  0  0
  -24.8581  -11.6472   20.9582 C   0  0  0  0  0  0  0  0  0  0  0  0
  -29.9129  -22.5801   29.2461 C   0  0  0  0  0  0  0  0  0  0  0  0
  -29.4479  -21.6217   27.1672 C   0  0  0  0  0  0  0  0  0  0  0  0
  -26.6696  -12.7363   20.3521 C   0  0  0  0  0  0  0  0  0  0  0  0
  -28.0821  -23.2077   28.0540 C   0  0  0  0  0  0  0  0  0  0  0  0
  -26.7827  -10.2720   19.9483 C   0  0  0  0  0  0  0  0  0  0  0  0
  -22.5447  -28.7194   23.7232 C   0  0  0  0  0  0  0  0  0  0  0  0
  -24.4513  -31.3274   24.0156 C   0  0  0  0  0  0  0  0  0  0  0  0
  -27.3138  -32.6976   25.2709 C   0  0  0  0  0  0  0  0  0  0  0  0
  -27.7511  -17.5406   22.4863 C   0  0  0  0  0  0  0  0  0  0  0  0
  -17.7071  -27.7528   22.4117 C   0  0  0  0  0  0  0  0  0  0  0  0
  -22.8825  -28.8186   26.2196 C   0  0  0  0  0  0  0  0  0  0  0  0
  -25.4327  -29.1236   24.7540 C   0  0  0  0  0  0  0  0  0  0  0  0
  -18.7196  -28.8556   22.1134 C   0  0  0  0  0  0  0  0  0  0  0  0
  -24.5336  -17.2508   21.1106 C   0  0  0  0  0  0  0  0  0  0  0  0
  -32.8342  -21.5093   28.6307 C   0  0  0  0  0  0  0  0  0  0  0  0
  -32.5449  -20.8896   27.2993 C   0  0  0  0  0  0  0  0  0  0  0  0
  -20.0536  -28.2535   21.6837 C   0  0  0  0  0  0  0  0  0  0  0  0
  -24.4286  -15.7406   20.8999 C   0  0  0  0  0  0  0  0  0  0  0  0
  -27.7490  -19.7151   25.2539 C   0  0  0  0  0  0  0  0  0  0  0  0
  -29.8228  -19.9666   23.8382 C   0  0  0  0  0  0  0  0  0  0  0  0
  -25.2179  -17.5986   22.4338 C   0  0  0  0  0  0  0  0  0  0  0  0
  -26.9415  -19.4162   23.9873 C   0  0  0  0  0  0  0  0  0  0  0  0
  -28.9720  -19.6917   22.6014 C   0  0  0  0  0  0  0  0  0  0  0  0
  -26.4337  -15.4447   22.4029 C   0  0  0  0  0  0  0  0  0  0  0  0
  -31.5059  -20.8408   28.3892 C   0  0  0  0  0  0  0  0  0  0  0  0
  -20.6545  -27.3907   22.7999 C   0  0  1  0  0  0  0  0  0  0  0  0
  -22.9614  -29.5664   24.8922 C   0  0  1  0  0  0  0  0  0  0  0  0
  -25.8026  -15.0645   21.0545 C   0  0  1  0  0  0  0  0  0  0  0  0
  -28.9708  -20.5852   24.9496 C   0  0  0  0  0  0  0  0  0  0  0  0
  -31.2576  -24.1624   30.6887 C   0  0  0  0  0  0  0  0  0  0  0  0
  -28.6198  -34.8401   25.3097 C   0  0  0  0  0  0  0  0  0  0  0  0
  -25.4037  -30.7956   21.1660 C   0  0  0  0  0  0  0  0  0  0  0  0
  -27.3351  -32.3285   21.5998 C   0  0  0  0  0  0  0  0  0  0  0  0
  -25.0020  -33.2058   21.6990 C   0  0  0  0  0  0  0  0  0  0  0  0
  -29.5729  -20.9202   31.7418 C   0  0  0  0  0  0  0  0  0  0  0  0
  -27.0875  -32.9177   28.2135 C   0  0  0  0  0  0  0  0  0  0  0  0
  -26.8598  -24.0537   27.9377 C   0  0  0  0  0  0  0  0  0  1  0  0
  -30.7384  -22.7344   30.4812 C   0  0  1  0  0  0  0  0  0  0  0  0
  -25.8381  -31.6959   23.5465 C   0  0  1  0  0  0  0  0  0  0  0  0
  -27.5671  -33.9975   26.0129 C   0  0  2  0  0  0  0  0  0  0  0  0
  -25.8902  -31.9839   22.0195 C   0  0  0  0  0  0  0  0  0  0  0  0
  -24.5959  -12.9231   21.2533 N   0  0  0  0  0  0  0  0  0  0  0  0
  -28.8149  -23.3606   29.1734 N   0  0  0  0  0  0  0  0  0  0  0  0
  -28.3350  -22.3718   27.0288 N   0  0  0  0  0  0  0  0  0  0  0  0
  -25.7163  -13.5606   20.8734 N   0  0  0  0  0  0  0  0  0  0  0  0
  -24.3084  -30.0619   24.6019 N   0  0  0  0  0  0  0  0  0  0  0  0
  -26.5050  -16.8996   22.5535 N   0  0  0  0  0  0  0  0  0  0  0  0
  -27.8087  -18.8688   22.9342 N   0  0  0  0  0  0  0  0  0  0  0  0
  -27.8567  -13.2126   19.9204 N   0  0  0  0  0  0  0  0  0  0  0  0
  -26.0920   -9.0579   20.0638 N   0  0  0  0  0  0  0  0  0  0  0  0
  -29.7654  -20.7416   26.1480 N   0  0  0  0  0  0  0  0  0  0  0  0
  -21.2571  -28.2266   23.8161 N   0  0  0  0  0  0  0  0  0  0  0  0
  -26.2675  -32.8134   24.3803 N   0  0  0  0  0  0  0  0  0  0  0  0
  -30.0138  -22.3337   31.7348 N   0  3  0  0  0  0  0  0  0  0  0  0
  -28.0371  -33.7193   27.3995 N   0  3  0  0  0  0  0  0  0  0  0  0
  -27.9451  -10.2745   19.4769 O   0  0  0  0  0  0  0  0  0  0  0  0
  -23.3326  -28.5284   22.8042 O   0  0  0  0  0  0  0  0  0  0  0  0
  -23.5303  -32.1356   23.8737 O   0  0  0  0  0  0  0  0  0  0  0  0
  -27.9800  -31.6822   25.4595 O   0  0  0  0  0  0  0  0  0  0  0  0
  -28.7539  -16.9603   22.0517 O   0  0  0  0  0  0  0  0  0  0  0  0
  -21.0473   -7.6872   21.9892 O   0  0  0  0  0  0  0  0  0  0  0  0
  -27.1003  -25.1065   27.0120 O   0  0  0  0  0  0  0  0  0  1  0  0
  -22.7773   -3.0171   24.3558 F   0  0  0  0  0  0  0  0  0  0  0  0
  -20.0391   -6.8773   24.4327 F   0  0  0  0  0  0  0  0  0  0  0  0
  1  2  1  0  0  0  0
  1  5  2  0  0  0  0
  2  6  2  0  0  0  0
  3  8  2  0  0  0  0
  3 15  1  0  0  0  0
  4  9  1  0  0  0  0
  4 15  2  0  0  0  0
  5 17  1  0  0  0  0
  6 19  1  0  0  0  0
  7 10  2  0  0  0  0
  7 18  1  0  0  0  0
  8 22  1  0  0  0  0
  9 22  2  0  0  0  0
 10 23  1  0  0  0  0
 11 12  2  0  0  0  0
 11 24  1  0  0  0  0
 12 25  1  0  0  0  0
 13 20  1  0  0  0  0
 13 23  2  0  0  0  0
 14 25  2  0  0  0  0
 14 26  1  0  0  0  0
 15 27  1  0  0  0  0
 16 27  1  0  0  0  0
 16 30  2  0  0  0  0
 16 32  1  0  0  0  0
 17 19  2  0  0  0  0
 17 37  1  0  0  0  0
 18 20  2  0  0  0  0
 18 38  1  0  0  0  0
 19 53  1  0  0  0  0
 20 39  1  0  0  0  0
 21 28  2  0  0  0  0
 21 29  1  0  0  0  0
 21 52  1  0  0  0  0
 22 88  1  0  0  0  0
 23 89  1  0  0  0  0
 24 26  2  0  0  0  0
 24 88  1  0  0  0  0
 25 90  1  0  0  0  0
 26 91  1  0  0  0  0
 27 69  2  0  0  0  0
 28 65  1  0  0  0  0
 28 70  1  0  0  0  0
 29 71  2  0  0  0  0
 29 78  1  0  0  0  0
 30 72  1  0  0  0  0
 30 76  1  0  0  0  0
 31 64  1  0  0  0  0
 31 70  2  0  0  0  0
 31 71  1  0  0  0  0
 32 77  1  0  0  0  0
 32 83  2  0  0  0  0
 33 54  1  0  0  0  0
 33 79  1  0  0  0  0
 33 84  2  0  0  0  0
 34 66  1  0  0  0  0
 34 73  1  0  0  0  0
 34 85  2  0  0  0  0
 35 67  1  0  0  0  0
 35 80  1  0  0  0  0
 35 86  2  0  0  0  0
 36 74  1  0  0  0  0
 36 75  1  0  0  0  0
 36 87  2  0  0  0  0
 37 40  1  0  0  0  0
 38 54  1  0  0  0  0
 39 73  1  0  0  0  0
 40 44  1  0  0  0  0
 41 45  1  0  0  0  0
 41 48  1  0  0  0  0
 42 43  1  0  0  0  0
 42 52  1  0  0  0  0
 43 52  1  0  0  0  0
 44 53  1  0  0  0  0
 45 55  1  0  0  0  0
 46 49  1  0  0  0  0
 46 56  1  0  0  0  0
 47 50  1  0  0  0  0
 47 56  1  0  0  0  0
 48 74  1  0  0  0  0
 49 75  1  0  0  0  0
 50 75  1  0  0  0  0
 51 55  1  0  0  0  0
 51 74  1  0  0  0  0
 53 79  1  0  0  0  0
 54 73  1  0  0  0  0
 55 72  1  0  0  0  0
 56 78  1  0  0  0  0
 57 65  1  0  0  0  0
 58 67  1  0  0  0  0
 59 68  1  0  0  0  0
 60 68  1  0  0  0  0
 61 68  1  0  0  0  0
 62 81  1  0  0  0  0
 63 82  1  0  0  0  0
 64 89  1  0  0  0  0
 65 81  1  0  0  0  0
 66 68  1  0  0  0  0
 66 80  1  0  0  0  0
 67 82  1  0  0  0  0
 69 72  1  0  0  0  0
M  CHG  2  81   1  82   1
M  ISO  4  36 100  64 101  75 100  89 101
M  END
> <Batch ID>
0187

> <Smiles>
CNC(C)C(=O)NC(C(=O)N1Cc2cc([101O:1][101CH2:1]c3nc(NC4CC[100N:0]([100C:0](=O)N5CCCC(n6nc(-c7ccc(Oc8ccc(F)cc8F)cc7)c(C(N)=O)c6N)C5)CC4)c(C4CC4)c(C(C)NC)n3)ccc2CC1C(=O)NC1CCCc2ccccc21)C(C)(C)C

> <Shape>
0.235

> <Color>
0.103

> <Negative vol penalty>
0.000

$$$$

  -OEChem-04052323173D

 83 92  0     1  0  0  0  0  0999 V2000
  -19.7355  -10.4217   21.1331 C   0  0  0  0  0  0  0  0  0  0  0  0
  -20.3563  -11.4489   21.8366 C   0  0  0  0  0  0  0  0  0  0  0  0
  -26.5166  -31.3727   22.4725 C   0  0  0  0  0  0  0  0  0  0  0  0
  -25.9069  -32.0581   20.2375 C   0  0  0  0  0  0  0  0  0  0  0  0
  -20.4878   -9.3453   20.6646 C   0  0  0  0  0  0  0  0  0  0  0  0
  -21.7297  -11.3997   22.0730 C   0  0  0  0  0  0  0  0  0  0  0  0
  -25.6017  -16.1400   22.2801 C   0  0  0  0  0  0  0  0  0  0  0  0
  -26.6160  -32.7102   22.8556 C   0  0  0  0  0  0  0  0  0  0  0  0
  -26.0062  -33.3957   20.6206 C   0  0  0  0  0  0  0  0  0  0  0  0
  -26.1423  -16.8638   23.3420 C   0  0  0  0  0  0  0  0  0  0  0  0
  -25.7476  -36.9896   21.1052 C   0  0  0  0  0  0  0  0  0  0  0  0
  -24.7317  -37.8571   20.7039 C   0  0  0  0  0  0  0  0  0  0  0  0
  -28.1205  -15.4853   23.2665 C   0  0  0  0  0  0  0  0  0  0  0  0
  -23.1158  -36.5191   21.9022 C   0  0  0  0  0  0  0  0  0  0  0  0
  -31.5008  -19.7036   23.5434 C   0  0  0  0  0  0  0  0  0  0  0  0
  -30.9878  -18.6075   25.2944 C   0  0  0  0  0  0  0  0  0  0  0  0
  -26.1621  -31.0466   21.1634 C   0  0  0  0  0  0  0  0  0  0  0  0
  -24.9167  -28.8458   20.8273 C   0  0  0  0  0  0  0  0  0  0  0  0
  -21.8726   -9.2877   20.8870 C   0  0  0  0  0  0  0  0  0  0  0  0
  -26.3130  -15.0746   21.7097 C   0  0  0  0  0  0  0  0  0  0  0  0
  -22.5009  -10.3209   21.6082 C   0  0  0  0  0  0  0  0  0  0  0  0
  -27.5878  -14.7512   22.1958 C   0  0  0  0  0  0  0  0  0  0  0  0
  -26.3608  -33.7217   21.9297 C   0  0  0  0  0  0  0  0  0  0  0  0
  -27.4007  -16.5347   23.8373 C   0  0  0  0  0  0  0  0  0  0  0  0
  -25.4476  -35.8868   21.9049 C   0  0  0  0  0  0  0  0  0  0  0  0
  -23.4158  -37.6219   21.1024 C   0  0  0  0  0  0  0  0  0  0  0  0
  -24.1317  -35.6516   22.3034 C   0  0  0  0  0  0  0  0  0  0  0  0
  -26.0599  -29.6652   20.7669 C   0  0  0  0  0  0  0  0  0  0  0  0
  -30.2125  -20.0766   23.8462 C   0  0  0  0  0  0  0  0  0  0  0  0
  -25.3376  -27.6327   20.3396 C   0  0  0  0  0  0  0  0  0  0  0  0
  -23.5928  -29.1537   21.2834 C   0  0  0  0  0  0  0  0  0  0  0  0
  -25.8106  -11.9509   21.4031 C   0  0  0  0  0  0  0  0  0  0  0  0
  -28.5110  -12.0876   19.6110 C   0  0  0  0  0  0  0  0  0  0  0  0
  -31.4209  -13.7119   18.8754 C   0  0  0  0  0  0  0  0  0  0  0  0
  -28.9685  -23.5494   19.9367 C   0  0  0  0  0  0  0  0  0  0  0  0
  -22.6361   -8.0807   20.4023 C   0  0  0  0  0  0  0  0  0  0  0  0
  -25.7272  -14.3209   20.5473 C   0  0  0  0  0  0  0  0  0  0  0  0
  -28.4007  -13.6293   21.6051 C   0  0  0  0  0  0  0  0  0  0  0  0
  -24.1480   -8.2889   20.3701 C   0  0  0  0  0  0  0  0  0  0  0  0
  -29.6063  -26.3248   17.9775 C   0  0  0  0  0  0  0  0  0  0  0  0
  -24.6259   -8.9329   21.6677 C   0  0  0  0  0  0  0  0  0  0  0  0
  -28.6490  -27.3835   18.5244 C   0  0  0  0  0  0  0  0  0  0  0  0
  -29.7923  -22.4846   23.1778 C   0  0  0  0  0  0  0  0  0  0  0  0
  -28.9090  -20.5998   21.7367 C   0  0  0  0  0  0  0  0  0  0  0  0
  -30.2276  -25.5142   19.1090 C   0  0  0  0  0  0  0  0  0  0  0  0
  -28.8382  -23.4473   22.4652 C   0  0  0  0  0  0  0  0  0  0  0  0
  -27.9606  -21.5979   21.0787 C   0  0  0  0  0  0  0  0  0  0  0  0
  -28.2605  -25.9041   20.5570 C   0  0  0  0  0  0  0  0  0  0  0  0
  -23.9926  -10.3157   21.8632 C   0  0  1  0  0  0  0  0  0  0  0  0
  -29.2569  -21.0414   23.1698 C   0  0  0  0  0  0  0  0  0  0  0  0
  -26.3209  -12.9256   20.3797 C   0  0  1  0  0  0  0  0  0  0  0  0
  -27.5966  -26.7509   19.4521 C   0  0  1  0  0  0  0  0  0  0  0  0
  -33.4388  -13.5635   17.3911 C   0  0  0  0  0  0  0  0  0  0  0  0
  -29.6487   -9.8792   21.3825 C   0  0  0  0  0  0  0  0  0  0  0  0
  -31.9229  -10.4351   20.4955 C   0  0  0  0  0  0  0  0  0  0  0  0
  -30.1461   -9.6216   18.9452 C   0  0  0  0  0  0  0  0  0  0  0  0
  -30.7996  -16.2978   17.5770 C   0  0  0  0  0  0  0  0  0  0  0  0
  -28.6490  -19.3981   25.6944 C   0  0  0  0  0  0  0  0  0  0  0  0
  -27.5501  -18.6087   24.9913 C   0  0  0  0  0  0  0  0  0  1  0  0
  -29.9886  -11.9602   19.8927 C   0  0  1  0  0  0  0  0  0  0  0  0
  -32.0355  -14.1274   17.5510 C   0  0  2  0  0  0  0  0  0  0  0  0
  -30.4107  -10.4940   20.1916 C   0  0  0  0  0  0  0  0  0  0  0  0
  -31.9776  -18.7887   24.4485 N   0  0  0  0  0  0  0  0  0  0  0  0
  -27.1269  -29.0265   20.2794 N   0  0  0  0  0  0  0  0  0  0  0  0
  -29.8974  -19.3659   24.9700 N   0  0  0  0  0  0  0  0  0  0  0  0
  -26.6560  -27.7929   20.0291 N   0  0  0  0  0  0  0  0  0  0  0  0
  -27.7821  -12.9180   20.4742 N   0  0  0  0  0  0  0  0  0  0  0  0
  -29.1967  -24.9334   19.9690 N   0  0  0  0  0  0  0  0  0  0  0  0
  -28.5101  -22.9527   21.1209 N   0  0  0  0  0  0  0  0  0  0  0  0
  -24.7049  -26.4553   20.1504 N   0  0  0  0  0  0  0  0  0  0  0  0
  -23.3319  -30.4484   21.7525 N   0  0  0  0  0  0  0  0  0  0  0  0
  -24.6526  -11.2965   21.0285 N   0  0  0  0  0  0  0  0  0  0  0  0
  -30.6745  -12.5589   18.7528 N   0  0  0  0  0  0  0  0  0  0  0  0
  -32.1126  -15.6128   17.4591 N   0  3  0  0  0  0  0  0  0  0  0  0
  -22.6727  -28.3011   21.2907 O   0  0  0  0  0  0  0  0  0  0  0  0
  -26.4229  -11.8025   22.4541 O   0  0  0  0  0  0  0  0  0  0  0  0
  -28.0227  -11.4786   18.6558 O   0  0  0  0  0  0  0  0  0  0  0  0
  -31.5892  -14.3446   19.9156 O   0  0  0  0  0  0  0  0  0  0  0  0
  -29.1619  -22.8855   18.9106 O   0  0  0  0  0  0  0  0  0  0  0  0
  -26.4574  -35.0269   22.3032 O   0  0  0  0  0  0  0  0  0  0  0  0
  -27.9342  -17.2440   24.8813 O   0  0  0  0  0  0  0  0  0  1  0  0
  -22.4406  -38.4559   20.7182 F   0  0  0  0  0  0  0  0  0  0  0  0
  -23.8376  -34.5945   23.0728 F   0  0  0  0  0  0  0  0  0  0  0  0
  1  2  1  0  0  0  0
  1  5  2  0  0  0  0
  2  6  2  0  0  0  0
  3  8  2  0  0  0  0
  3 17  1  0  0  0  0
  4  9  1  0  0  0  0
  4 17  2  0  0  0  0
  5 19  1  0  0  0  0
  6 21  1  0  0  0  0
  7 10  2  0  0  0  0
  7 20  1  0  0  0  0
  8 23  1  0  0  0  0
  9 23  2  0  0  0  0
 10 24  1  0  0  0  0
 11 12  2  0  0  0  0
 11 25  1  0  0  0  0
 12 26  1  0  0  0  0
 13 22  1  0  0  0  0
 13 24  2  0  0  0  0
 14 26  2  0  0  0  0
 14 27  1  0  0  0  0
 15 29  2  0  0  0  0
 15 63  1  0  0  0  0
 16 63  2  0  0  0  0
 16 65  1  0  0  0  0
 17 28  1  0  0  0  0
 18 28  1  0  0  0  0
 18 30  2  0  0  0  0
 18 31  1  0  0  0  0
 19 21  2  0  0  0  0
 19 36  1  0  0  0  0
 20 22  2  0  0  0  0
 20 37  1  0  0  0  0
 21 49  1  0  0  0  0
 22 38  1  0  0  0  0
 23 80  1  0  0  0  0
 24 81  1  0  0  0  0
 25 27  2  0  0  0  0
 25 80  1  0  0  0  0
 26 82  1  0  0  0  0
 27 83  1  0  0  0  0
 28 64  2  0  0  0  0
 29 50  1  0  0  0  0
 29 65  1  0  0  0  0
 30 66  1  0  0  0  0
 30 70  1  0  0  0  0
 31 71  1  0  0  0  0
 31 75  2  0  0  0  0
 32 51  1  0  0  0  0
 32 72  1  0  0  0  0
 32 76  2  0  0  0  0
 33 60  1  0  0  0  0
 33 67  1  0  0  0  0
 33 77  2  0  0  0  0
 34 61  1  0  0  0  0
 34 73  1  0  0  0  0
 34 78  2  0  0  0  0
 35 68  1  0  0  0  0
 35 69  1  0  0  0  0
 35 79  2  0  0  0  0
 36 39  1  0  0  0  0
 37 51  1  0  0  0  0
 38 67  1  0  0  0  0
 39 41  1  0  0  0  0
 40 42  1  0  0  0  0
 40 45  1  0  0  0  0
 41 49  1  0  0  0  0
 42 52  1  0  0  0  0
 43 46  1  0  0  0  0
 43 50  1  0  0  0  0
 44 47  1  0  0  0  0
 44 50  1  0  0  0  0
 45 68  1  0  0  0  0
 46 69  1  0  0  0  0
 47 69  1  0  0  0  0
 48 52  1  0  0  0  0
 48 68  1  0  0  0  0
 49 72  1  0  0  0  0
 51 67  1  0  0  0  0
 52 66  1  0  0  0  0
 53 61  1  0  0  0  0
 54 62  1  0  0  0  0
 55 62  1  0  0  0  0
 56 62  1  0  0  0  0
 57 74  1  0  0  0  0
 58 59  1  0  0  0  0
 58 65  1  0  0  0  0
 59 81  1  0  0  0  0
 60 62  1  0  0  0  0
 60 73  1  0  0  0  0
 61 74  1  0  0  0  0
 64 66  1  0  0  0  0
M  CHG  1  74   1
M  ISO  4  35 100  59 101  69 100  81 101
M  END
> <Batch ID>
0187

> <Smiles>
CNC(C)C(=O)NC(C(=O)N1Cc2cc([101O:1][101CH2:1]Cn3cncc3C3CC[100N:0]([100C:0](=O)N4CCCC(n5nc(-c6ccc(Oc7ccc(F)cc7F)cc6)c(C(N)=O)c5N)C4)CC3)ccc2CC1C(=O)NC1CCCc2ccccc21)C(C)(C)C

> <Shape>
0.262

> <Color>
0.089

> <Negative vol penalty>
0.000

$$$$

  -OEChem-04052323173D

 82 91  0     1  0  0  0  0  0999 V2000
  -28.5976  -37.2038   22.3076 C   0  0  0  0  0  0  0  0  0  0  0  0
  -28.9705  -35.9414   21.8573 C   0  0  0  0  0  0  0  0  0  0  0  0
  -24.8077  -13.2811   21.8742 C   0  0  0  0  0  0  0  0  0  0  0  0
  -25.9591  -12.7343   19.8218 C   0  0  0  0  0  0  0  0  0  0  0  0
  -27.5916  -37.3324   23.2643 C   0  0  0  0  0  0  0  0  0  0  0  0
  -28.3382  -34.8067   22.3644 C   0  0  0  0  0  0  0  0  0  0  0  0
  -27.0718  -29.6357   19.3374 C   0  0  0  0  0  0  0  0  0  0  0  0
  -24.2543  -12.0011   21.9048 C   0  0  0  0  0  0  0  0  0  0  0  0
  -25.4057  -11.4542   19.8524 C   0  0  0  0  0  0  0  0  0  0  0  0
  -27.7195  -28.4027   19.2750 C   0  0  0  0  0  0  0  0  0  0  0  0
  -25.2386   -8.8815   22.7606 C   0  0  0  0  0  0  0  0  0  0  0  0
  -25.2523   -8.1983   23.9766 C   0  0  0  0  0  0  0  0  0  0  0  0
  -26.2459  -27.5490   20.9835 C   0  0  0  0  0  0  0  0  0  0  0  0
  -22.8399   -8.0732   23.9334 C   0  0  0  0  0  0  0  0  0  0  0  0
  -30.3448  -24.2571   20.2452 C   0  0  0  0  0  0  0  0  0  0  0  0
  -25.6601  -13.6477   20.8326 C   0  0  0  0  0  0  0  0  0  0  0  0
  -27.4492  -15.3841   21.3727 C   0  0  0  0  0  0  0  0  0  0  0  0
  -26.9400  -36.1992   23.7762 C   0  0  0  0  0  0  0  0  0  0  0  0
  -26.0115  -29.8383   20.2325 C   0  0  0  0  0  0  0  0  0  0  0  0
  -27.3234  -34.9201   23.3298 C   0  0  0  0  0  0  0  0  0  0  0  0
  -25.5847  -28.7847   21.0535 C   0  0  0  0  0  0  0  0  0  0  0  0
  -24.5533  -11.0877   20.8939 C   0  0  0  0  0  0  0  0  0  0  0  0
  -27.3085  -27.3600   20.1002 C   0  0  0  0  0  0  0  0  0  0  0  0
  -24.0256   -9.1607   22.1311 C   0  0  0  0  0  0  0  0  0  0  0  0
  -24.0530   -7.7941   24.5630 C   0  0  0  0  0  0  0  0  0  0  0  0
  -22.8262   -8.7566   22.7175 C   0  0  0  0  0  0  0  0  0  0  0  0
  -26.2316  -14.9700   20.8002 C   0  0  0  0  0  0  0  0  0  0  0  0
  -30.8001  -22.9546   20.2228 C   0  0  0  0  0  0  0  0  0  0  0  0
  -29.5568  -24.6325   19.1764 C   0  0  0  0  0  0  0  0  0  0  0  0
  -27.5367  -16.7198   21.0649 C   0  0  0  0  0  0  0  0  0  0  0  0
  -29.7367  -22.5636   18.2522 C   0  0  0  0  0  0  0  0  0  0  0  0
  -28.4149  -14.6289   22.1162 C   0  0  0  0  0  0  0  0  0  0  0  0
  -25.5042  -31.7644   22.7097 C   0  0  0  0  0  0  0  0  0  0  0  0
  -22.5257  -30.4845   22.5967 C   0  0  0  0  0  0  0  0  0  0  0  0
  -20.5234  -27.8840   21.6613 C   0  0  0  0  0  0  0  0  0  0  0  0
  -27.0360  -20.9174   17.4214 C   0  0  0  0  0  0  0  0  0  0  0  0
  -25.8910  -36.3854   24.8438 C   0  0  0  0  0  0  0  0  0  0  0  0
  -25.3058  -31.1661   20.2687 C   0  0  0  0  0  0  0  0  0  0  0  0
  -24.4384  -28.9446   22.0172 C   0  0  0  0  0  0  0  0  0  0  0  0
  -25.0119  -35.1554   25.0550 C   0  0  0  0  0  0  0  0  0  0  0  0
  -24.0937  -19.8874   19.1416 C   0  0  0  0  0  0  0  0  0  0  0  0
  -25.8679  -33.8957   25.1402 C   0  0  0  0  0  0  0  0  0  0  0  0
  -31.2397  -21.2408   22.1053 C   0  0  0  0  0  0  0  0  0  0  0  0
  -31.1537  -22.5860   22.7561 C   0  0  0  0  0  0  0  0  0  0  0  0
  -24.4862  -18.5481   19.7680 C   0  0  0  0  0  0  0  0  0  0  0  0
  -24.7318  -20.0761   17.7671 C   0  0  0  0  0  0  0  0  0  0  0  0
  -26.5893  -18.5698   18.3626 C   0  0  0  0  0  0  0  0  0  0  0  0
  -26.6440  -33.6669   23.8376 C   0  0  1  0  0  0  0  0  0  0  0  0
  -31.6587  -22.4696   21.3419 C   0  0  0  0  0  0  0  0  0  0  0  0
  -24.5729  -31.4176   21.5828 C   0  0  1  0  0  0  0  0  0  0  0  0
  -26.0150  -18.3584   19.7739 C   0  0  2  0  0  0  0  0  0  0  0  0
  -18.1382  -27.1078   21.7380 C   0  0  0  0  0  0  0  0  0  0  0  0
  -22.8527  -29.7789   25.5471 C   0  0  0  0  0  0  0  0  0  0  0  0
  -20.9136  -28.2123   25.3156 C   0  0  0  0  0  0  0  0  0  0  0  0
  -20.5938  -30.6557   24.9283 C   0  0  0  0  0  0  0  0  0  0  0  0
  -20.3324  -27.8057   18.7090 C   0  0  0  0  0  0  0  0  0  0  0  0
  -29.0147  -26.0302   19.1121 C   0  0  0  0  0  0  0  0  0  1  0  0
  -29.3992  -21.6232   17.1453 C   0  0  0  0  0  0  0  0  0  0  0  0
  -21.8536  -29.2842   23.2184 C   0  0  1  0  0  0  0  0  0  0  0  0
  -19.1929  -27.8491   20.9312 C   0  0  2  0  0  0  0  0  0  0  0  0
  -21.5763  -29.4800   24.7357 C   0  0  0  0  0  0  0  0  0  0  0  0
  -25.5914  -15.9623   20.1761 N   0  0  0  0  0  0  0  0  0  0  0  0
  -30.5143  -22.0774   19.2383 N   0  0  0  0  0  0  0  0  0  0  0  0
  -29.2318  -23.8086   18.1587 N   0  0  0  0  0  0  0  0  0  0  0  0
  -26.4098  -17.0132   20.3547 N   0  0  0  0  0  0  0  0  0  0  0  0
  -23.7845  -30.2637   22.0201 N   0  0  0  0  0  0  0  0  0  0  0  0
  -26.1822  -19.8844   17.8421 N   0  0  0  0  0  0  0  0  0  0  0  0
  -28.4667  -17.6602   21.3352 N   0  0  0  0  0  0  0  0  0  0  0  0
  -28.1688  -13.2677   22.3416 N   0  0  0  0  0  0  0  0  0  0  0  0
  -25.7740  -33.1150   22.8212 N   0  0  0  0  0  0  0  0  0  0  0  0
  -20.6593  -29.0266   22.4211 N   0  0  0  0  0  0  0  0  0  0  0  0
  -28.3962  -20.6561   17.5319 N   0  0  0  0  0  0  0  0  0  0  0  0
  -19.3424  -27.1676   19.6144 N   0  3  0  0  0  0  0  0  0  0  0  0
  -29.4571  -15.1496   22.5813 O   0  0  0  0  0  0  0  0  0  0  0  0
  -25.9442  -30.8728   23.4260 O   0  0  0  0  0  0  0  0  0  0  0  0
  -21.9517  -31.5762   22.6154 O   0  0  0  0  0  0  0  0  0  0  0  0
  -21.3571  -26.9856   21.5699 O   0  0  0  0  0  0  0  0  0  0  0  0
  -26.6171  -21.9949   16.9851 O   0  0  0  0  0  0  0  0  0  0  0  0
  -24.0137   -9.8385   20.9235 O   0  0  0  0  0  0  0  0  0  0  0  0
  -27.9394  -26.1556   20.0418 O   0  0  0  0  0  0  0  0  0  1  0  0
  -24.0663   -7.1366   25.7299 F   0  0  0  0  0  0  0  0  0  0  0  0
  -21.6578   -9.0208   22.1168 F   0  0  0  0  0  0  0  0  0  0  0  0
  1  2  1  0  0  0  0
  1  5  2  0  0  0  0
  2  6  2  0  0  0  0
  3  8  2  0  0  0  0
  3 16  1  0  0  0  0
  4  9  1  0  0  0  0
  4 16  2  0  0  0  0
  5 18  1  0  0  0  0
  6 20  1  0  0  0  0
  7 10  2  0  0  0  0
  7 19  1  0  0  0  0
  8 22  1  0  0  0  0
  9 22  2  0  0  0  0
 10 23  1  0  0  0  0
 11 12  2  0  0  0  0
 11 24  1  0  0  0  0
 12 25  1  0  0  0  0
 13 21  1  0  0  0  0
 13 23  2  0  0  0  0
 14 25  2  0  0  0  0
 14 26  1  0  0  0  0
 15 28  2  0  0  0  0
 15 29  1  0  0  0  0
 16 27  1  0  0  0  0
 17 27  1  0  0  0  0
 17 30  2  0  0  0  0
 17 32  1  0  0  0  0
 18 20  2  0  0  0  0
 18 37  1  0  0  0  0
 19 21  2  0  0  0  0
 19 38  1  0  0  0  0
 20 48  1  0  0  0  0
 21 39  1  0  0  0  0
 22 79  1  0  0  0  0
 23 80  1  0  0  0  0
 24 26  2  0  0  0  0
 24 79  1  0  0  0  0
 25 81  1  0  0  0  0
 26 82  1  0  0  0  0
 27 62  2  0  0  0  0
 28 49  1  0  0  0  0
 28 63  1  0  0  0  0
 29 57  1  0  0  0  0
 29 64  2  0  0  0  0
 30 65  1  0  0  0  0
 30 68  1  0  0  0  0
 31 58  1  0  0  0  0
 31 63  2  0  0  0  0
 31 64  1  0  0  0  0
 32 69  1  0  0  0  0
 32 74  2  0  0  0  0
 33 50  1  0  0  0  0
 33 70  1  0  0  0  0
 33 75  2  0  0  0  0
 34 59  1  0  0  0  0
 34 66  1  0  0  0  0
 34 76  2  0  0  0  0
 35 60  1  0  0  0  0
 35 71  1  0  0  0  0
 35 77  2  0  0  0  0
 36 67  1  0  0  0  0
 36 72  1  0  0  0  0
 36 78  2  0  0  0  0
 37 40  1  0  0  0  0
 38 50  1  0  0  0  0
 39 66  1  0  0  0  0
 40 42  1  0  0  0  0
 41 45  1  0  0  0  0
 41 46  1  0  0  0  0
 42 48  1  0  0  0  0
 43 44  1  0  0  0  0
 43 49  1  0  0  0  0
 44 49  1  0  0  0  0
 45 51  1  0  0  0  0
 46 67  1  0  0  0  0
 47 51  1  0  0  0  0
 47 67  1  0  0  0  0
 48 70  1  0  0  0  0
 50 66  1  0  0  0  0
 51 65  1  0  0  0  0
 52 60  1  0  0  0  0
 53 61  1  0  0  0  0
 54 61  1  0  0  0  0
 55 61  1  0  0  0  0
 56 73  1  0  0  0  0
 57 80  1  0  0  0  0
 58 72  1  0  0  0  0
 59 61  1  0  0  0  0
 59 71  1  0  0  0  0
 60 73  1  0  0  0  0
 62 65  1  0  0  0  0
M  CHG  1  73   1
M  ISO  4  36 100  57 101  72 100  80 101
M  END
> <Batch ID>
0187

> <Smiles>
CNC(C)C(=O)NC(C(=O)N1Cc2cc([101O:1][101CH2:1]c3cc(C4CC4)nc(C[100NH:0][100C:0](=O)N4CCCC(n5nc(-c6ccc(Oc7ccc(F)cc7F)cc6)c(C(N)=O)c5N)C4)n3)ccc2CC1C(=O)NC1CCCc2ccccc21)C(C)(C)C

> <Shape>
0.289

> <Color>
0.086

> <Negative vol penalty>
0.000

$$$$

  -OEChem-04052323173D

 86 95  0     1  0  0  0  0  0999 V2000
  -21.0867  -24.3137   23.1374 C   0  0  0  0  0  0  0  0  0  0  0  0
  -22.0951  -24.9244   22.3987 C   0  0  0  0  0  0  0  0  0  0  0  0
  -24.1108  -11.9891   21.2695 C   0  0  0  0  0  0  0  0  0  0  0  0
  -25.2163  -10.3346   19.8992 C   0  0  0  0  0  0  0  0  0  0  0  0
  -19.9099  -25.0078   23.4155 C   0  0  0  0  0  0  0  0  0  0  0  0
  -21.9267  -26.2293   21.9368 C   0  0  0  0  0  0  0  0  0  0  0  0
  -26.0379  -29.0945   22.6676 C   0  0  0  0  0  0  0  0  0  0  0  0
  -22.9579  -11.2041   21.2872 C   0  0  0  0  0  0  0  0  0  0  0  0
  -24.0634   -9.5496   19.9169 C   0  0  0  0  0  0  0  0  0  0  0  0
  -27.0986  -28.9244   21.7790 C   0  0  0  0  0  0  0  0  0  0  0  0
  -22.5371   -7.4161   22.0474 C   0  0  0  0  0  0  0  0  0  0  0  0
  -22.6891   -6.0493   22.2806 C   0  0  0  0  0  0  0  0  0  0  0  0
  -26.3957  -30.8918   20.5729 C   0  0  0  0  0  0  0  0  0  0  0  0
  -21.6847   -5.5718   20.1357 C   0  0  0  0  0  0  0  0  0  0  0  0
  -30.0129  -26.8219   18.6082 C   0  0  0  0  0  0  0  0  0  0  0  0
  -25.2400  -11.5543   20.5754 C   0  0  0  0  0  0  0  0  0  0  0  0
  -27.5019  -12.3241   21.4692 C   0  0  0  0  0  0  0  0  0  0  0  0
  -19.7310  -26.3252   22.9650 C   0  0  0  0  0  0  0  0  0  0  0  0
  -25.1402  -30.1600   22.5088 C   0  0  0  0  0  0  0  0  0  0  0  0
  -20.7458  -26.9412   22.2080 C   0  0  0  0  0  0  0  0  0  0  0  0
  -25.3259  -31.0746   21.4623 C   0  0  0  0  0  0  0  0  0  0  0  0
  -28.9963  -25.9012   18.4557 C   0  0  0  0  0  0  0  0  0  0  0  0
  -22.9342   -9.9844   20.6109 C   0  0  0  0  0  0  0  0  0  0  0  0
  -27.2760  -29.8215   20.7297 C   0  0  0  0  0  0  0  0  0  0  0  0
  -21.9589   -7.8608   20.8585 C   0  0  0  0  0  0  0  0  0  0  0  0
  -22.2629   -5.1272   21.3247 C   0  0  0  0  0  0  0  0  0  0  0  0
  -21.5327   -6.9386   19.9026 C   0  0  0  0  0  0  0  0  0  0  0  0
  -26.4310  -12.3650   20.5563 C   0  0  0  0  0  0  0  0  0  0  0  0
  -27.7361  -26.3395   18.8078 C   0  0  0  0  0  0  0  0  0  0  0  0
  -28.3759  -13.2820   21.0163 C   0  0  0  0  0  0  0  0  0  0  0  0
  -28.5511  -28.3836   19.3773 C   0  0  0  0  0  0  0  0  0  1  0  0
  -27.6898  -11.4944   22.6234 C   0  0  0  0  0  0  0  0  0  0  0  0
  -22.0196  -30.4004   21.9540 C   0  0  0  0  0  0  0  0  0  0  0  0
  -22.5788  -33.5638   22.4034 C   0  0  0  0  0  0  0  0  0  0  0  0
  -24.8083  -36.1472   22.3559 C   0  0  0  0  0  0  0  0  0  0  0  0
  -29.5524  -18.1657   19.1229 C   0  0  0  0  0  0  0  0  0  0  0  0
  -18.4223  -27.0185   23.2500 C   0  0  0  0  0  0  0  0  0  0  0  0
  -24.0167  -30.3449   23.4917 C   0  0  0  0  0  0  0  0  0  0  0  0
  -24.4020  -32.2468   21.2602 C   0  0  0  0  0  0  0  0  0  0  0  0
  -18.4762  -28.5301   23.0439 C   0  0  0  0  0  0  0  0  0  0  0  0
  -28.4794  -15.8764   16.6834 C   0  0  0  0  0  0  0  0  0  0  0  0
  -19.1613  -28.8645   21.7227 C   0  0  0  0  0  0  0  0  0  0  0  0
  -27.9303  -14.7441   17.5508 C   0  0  0  0  0  0  0  0  0  0  0  0
  -28.1182  -17.2538   17.2423 C   0  0  0  0  0  0  0  0  0  0  0  0
  -28.8238  -20.0906   17.6435 C   0  0  0  0  0  0  0  0  0  0  0  0
  -31.0891  -20.0406   18.6202 C   0  0  0  0  0  0  0  0  0  0  0  0
  -27.9562  -16.3150   19.5252 C   0  0  0  0  0  0  0  0  0  0  0  0
  -28.5624  -21.4447   18.2952 C   0  0  0  0  0  0  0  0  0  0  0  0
  -30.8542  -21.3771   19.3051 C   0  0  0  0  0  0  0  0  0  0  0  0
  -20.6107  -28.3640   21.7106 C   0  0  1  0  0  0  0  0  0  0  0  0
  -22.8623  -31.1700   22.9313 C   0  0  1  0  0  0  0  0  0  0  0  0
  -28.3534  -14.9193   19.0202 C   0  0  1  0  0  0  0  0  0  0  0  0
  -26.5593  -25.4288   18.6850 C   0  0  0  0  0  0  0  0  0  0  0  0
  -24.9624  -38.6234   22.7330 C   0  0  0  0  0  0  0  0  0  0  0  0
  -21.2431  -34.0556   19.7045 C   0  0  0  0  0  0  0  0  0  0  0  0
  -22.2560  -36.3452   19.6988 C   0  0  0  0  0  0  0  0  0  0  0  0
  -20.6363  -35.7041   21.4845 C   0  0  0  0  0  0  0  0  0  0  0  0
  -26.7506  -35.8074   24.5629 C   0  0  0  0  0  0  0  0  0  0  0  0
  -29.6562  -23.5524   19.0604 C   0  0  0  0  0  0  0  0  0  0  0  0
  -29.2728  -24.5083   17.9354 C   0  0  2  0  0  0  0  0  0  0  0  0
  -22.9645  -34.7187   21.5109 C   0  0  1  0  0  0  0  0  0  0  0  0
  -25.0987  -37.2458   23.3626 C   0  0  2  0  0  0  0  0  0  0  0  0
  -21.7914  -35.1828   20.6021 C   0  0  0  0  0  0  0  0  0  0  0  0
  -29.8253  -28.0764   19.0679 N   0  0  0  0  0  0  0  0  0  0  0  0
  -26.6065  -13.2767   19.5962 N   0  0  0  0  0  0  0  0  0  0  0  0
  -27.4764  -27.5787   19.2740 N   0  0  0  0  0  0  0  0  0  0  0  0
  -27.7978  -13.8177   19.9033 N   0  0  0  0  0  0  0  0  0  0  0  0
  -23.3147  -32.3812   22.2438 N   0  0  0  0  0  0  0  0  0  0  0  0
  -28.5035  -17.3593   18.6565 N   0  0  0  0  0  0  0  0  0  0  0  0
  -29.8310  -19.3321   18.3951 N   0  0  0  0  0  0  0  0  0  0  0  0
  -29.5748  -13.7099   21.4656 N   0  0  0  0  0  0  0  0  0  0  0  0
  -26.6936  -10.5628   22.9459 N   0  0  0  0  0  0  0  0  0  0  0  0
  -21.4582  -29.2515   22.4778 N   0  0  0  0  0  0  0  0  0  0  0  0
  -23.4858  -35.7586   22.3913 N   0  0  0  0  0  0  0  0  0  0  0  0
  -29.8676  -22.1786   18.4883 N   0  3  0  0  0  0  0  0  0  0  0  0
  -26.4836  -37.1074   23.8952 N   0  3  0  0  0  0  0  0  0  0  0  0
  -28.7033  -11.5882   23.3566 O   0  0  0  0  0  0  0  0  0  0  0  0
  -21.8872  -30.8187   20.8098 O   0  0  0  0  0  0  0  0  0  0  0  0
  -21.6632  -33.7081   23.2173 O   0  0  0  0  0  0  0  0  0  0  0  0
  -25.6678  -35.6831   21.6100 O   0  0  0  0  0  0  0  0  0  0  0  0
  -30.2018  -17.8616   20.1314 O   0  0  0  0  0  0  0  0  0  0  0  0
  -30.3506  -24.5976   17.0035 O   0  0  0  0  0  0  0  0  0  0  0  0
  -21.8095   -9.2181   20.6282 O   0  0  0  0  0  0  0  0  0  0  0  0
  -28.3233  -29.6554   19.8495 O   0  0  0  0  0  0  0  0  0  1  0  0
  -22.4103   -3.8147   21.5481 F   0  0  0  0  0  0  0  0  0  0  0  0
  -20.9776   -7.3599   18.7580 F   0  0  0  0  0  0  0  0  0  0  0  0
  1  2  1  0  0  0  0
  1  5  2  0  0  0  0
  2  6  2  0  0  0  0
  3  8  2  0  0  0  0
  3 16  1  0  0  0  0
  4  9  1  0  0  0  0
  4 16  2  0  0  0  0
  5 18  1  0  0  0  0
  6 20  1  0  0  0  0
  7 10  2  0  0  0  0
  7 19  1  0  0  0  0
  8 23  1  0  0  0  0
  9 23  2  0  0  0  0
 10 24  1  0  0  0  0
 11 12  2  0  0  0  0
 11 25  1  0  0  0  0
 12 26  1  0  0  0  0
 13 21  1  0  0  0  0
 13 24  2  0  0  0  0
 14 26  2  0  0  0  0
 14 27  1  0  0  0  0
 15 22  1  0  0  0  0
 15 64  2  0  0  0  0
 16 28  1  0  0  0  0
 17 28  1  0  0  0  0
 17 30  2  0  0  0  0
 17 32  1  0  0  0  0
 18 20  2  0  0  0  0
 18 37  1  0  0  0  0
 19 21  2  0  0  0  0
 19 38  1  0  0  0  0
 20 50  1  0  0  0  0
 21 39  1  0  0  0  0
 22 29  2  0  0  0  0
 22 60  1  0  0  0  0
 23 83  1  0  0  0  0
 24 84  1  0  0  0  0
 25 27  2  0  0  0  0
 25 83  1  0  0  0  0
 26 85  1  0  0  0  0
 27 86  1  0  0  0  0
 28 65  2  0  0  0  0
 29 53  1  0  0  0  0
 29 66  1  0  0  0  0
 30 67  1  0  0  0  0
 30 71  1  0  0  0  0
 31 64  1  0  0  0  0
 31 66  2  0  0  0  0
 31 84  1  0  0  0  0
 32 72  1  0  0  0  0
 32 77  2  0  0  0  0
 33 51  1  0  0  0  0
 33 73  1  0  0  0  0
 33 78  2  0  0  0  0
 34 61  1  0  0  0  0
 34 68  1  0  0  0  0
 34 79  2  0  0  0  0
 35 62  1  0  0  0  0
 35 74  1  0  0  0  0
 35 80  2  0  0  0  0
 36 69  1  0  0  0  0
 36 70  1  0  0  0  0
 36 81  2  0  0  0  0
 37 40  1  0  0  0  0
 38 51  1  0  0  0  0
 39 68  1  0  0  0  0
 40 42  1  0  0  0  0
 41 43  1  0  0  0  0
 41 44  1  0  0  0  0
 42 50  1  0  0  0  0
 43 52  1  0  0  0  0
 44 69  1  0  0  0  0
 45 48  1  0  0  0  0
 45 70  1  0  0  0  0
 46 49  1  0  0  0  0
 46 70  1  0  0  0  0
 47 52  1  0  0  0  0
 47 69  1  0  0  0  0
 48 75  1  0  0  0  0
 49 75  1  0  0  0  0
 50 73  1  0  0  0  0
 51 68  1  0  0  0  0
 52 67  1  0  0  0  0
 54 62  1  0  0  0  0
 55 63  1  0  0  0  0
 56 63  1  0  0  0  0
 57 63  1  0  0  0  0
 58 76  1  0  0  0  0
 59 60  1  0  0  0  0
 59 75  1  0  0  0  0
 60 82  1  0  0  0  0
 61 63  1  0  0  0  0
 61 74  1  0  0  0  0
 62 76  1  0  0  0  0
 65 67  1  0  0  0  0
M  CHG  2  75   1  76   1
M  ISO  4  31 101  36 100  70 100  84 101
M  END
> <Batch ID>
0187

> <Smiles>
CNC(C)C(=O)NC(C(=O)N1Cc2cc([101O:1][101c:1]3ncc(C(O)CN4CC[100N:0]([100C:0](=O)N5CCCC(n6nc(-c7ccc(Oc8ccc(F)cc8F)cc7)c(C(N)=O)c6N)C5)CC4)c(C)n3)ccc2CC1C(=O)NC1CCCc2ccccc21)C(C)(C)C

> <Shape>
0.329

> <Color>
0.095

> <Negative vol penalty>
0.000

$$$$
