
  -OEChem-04052323193D

 84 93  0     1  0  0  0  0  0999 V2000
  -25.3141  -18.7807   17.2197 C   0  0  0  0  0  0  0  0  0  0  0  0
  -24.6953  -19.9935   17.5057 C   0  0  0  0  0  0  0  0  0  0  0  0
  -23.8034  -14.4493   19.5998 C   0  0  0  0  0  0  0  0  0  0  0  0
  -23.1555  -13.1859   21.5546 C   0  0  0  0  0  0  0  0  0  0  0  0
  -26.5022  -18.4368   17.8632 C   0  0  0  0  0  0  0  0  0  0  0  0
  -25.2638  -20.8626   18.4363 C   0  0  0  0  0  0  0  0  0  0  0  0
  -25.1984  -26.9843   18.2754 C   0  0  0  0  0  0  0  0  0  0  0  0
  -24.9784  -13.7033   19.5072 C   0  0  0  0  0  0  0  0  0  0  0  0
  -24.3305  -12.4400   21.4620 C   0  0  0  0  0  0  0  0  0  0  0  0
  -24.3960  -27.9308   18.9111 C   0  0  0  0  0  0  0  0  0  0  0  0
  -28.0041  -13.6257   21.0117 C   0  0  0  0  0  0  0  0  0  0  0  0
  -29.1921  -14.3163   20.7729 C   0  0  0  0  0  0  0  0  0  0  0  0
  -26.0626  -28.1752   20.6379 C   0  0  0  0  0  0  0  0  0  0  0  0
  -29.5089  -13.0653   18.7305 C   0  0  0  0  0  0  0  0  0  0  0  0
  -22.8920  -14.1906   20.6236 C   0  0  0  0  0  0  0  0  0  0  0  0
  -20.4374  -14.6714   20.1218 C   0  0  0  0  0  0  0  0  0  0  0  0
  -27.0906  -19.3064   18.7950 C   0  0  0  0  0  0  0  0  0  0  0  0
  -26.4362  -26.6175   18.8230 C   0  0  0  0  0  0  0  0  0  0  0  0
  -26.4601  -20.5294   19.0938 C   0  0  0  0  0  0  0  0  0  0  0  0
  -26.8800  -27.2257   20.0059 C   0  0  0  0  0  0  0  0  0  0  0  0
  -25.2419  -12.6987   20.4382 C   0  0  0  0  0  0  0  0  0  0  0  0
  -24.8267  -28.5243   20.0940 C   0  0  0  0  0  0  0  0  0  0  0  0
  -27.5684  -12.6547   20.1099 C   0  0  0  0  0  0  0  0  0  0  0  0
  -29.9446  -14.0361   19.6323 C   0  0  0  0  0  0  0  0  0  0  0  0
  -28.3208  -12.3745   18.9693 C   0  0  0  0  0  0  0  0  0  0  0  0
  -21.6783  -14.9612   20.7202 C   0  0  0  0  0  0  0  0  0  0  0  0
  -19.6175  -15.7003   20.5161 C   0  0  0  0  0  0  0  0  0  0  0  0
  -20.0597  -13.5704   19.2846 C   0  0  0  0  0  0  0  0  0  0  0  0
  -27.6858  -23.9131   19.9312 C   0  0  0  0  0  0  0  0  0  0  0  0
  -30.3850  -25.7004   20.1359 C   0  0  0  0  0  0  0  0  0  0  0  0
  -31.7966  -28.7959   20.4044 C   0  0  0  0  0  0  0  0  0  0  0  0
  -21.1371  -21.2676   22.3077 C   0  0  0  0  0  0  0  0  0  0  0  0
  -28.3504  -18.8702   19.5001 C   0  0  0  0  0  0  0  0  0  0  0  0
  -27.3019  -25.6146   18.1109 C   0  0  0  0  0  0  0  0  0  0  0  0
  -28.2097  -26.8816   20.6240 C   0  0  0  0  0  0  0  0  0  0  0  0
  -29.0855  -20.0128   20.1962 C   0  0  0  0  0  0  0  0  0  0  0  0
  -18.9716  -18.8292   24.0740 C   0  0  0  0  0  0  0  0  0  0  0  0
  -28.1077  -20.8682   20.9955 C   0  0  0  0  0  0  0  0  0  0  0  0
  -17.9448  -28.6589   22.9531 C   0  0  0  0  0  0  0  0  0  0  0  0
  -19.3559  -17.5247   23.3743 C   0  0  0  0  0  0  0  0  0  0  0  0
  -17.8329  -27.1223   23.0495 C   0  0  0  0  0  0  0  0  0  0  0  0
  -18.7100  -23.9502   22.9594 C   0  0  0  0  0  0  0  0  0  0  0  0
  -20.1490  -19.7948   24.1114 C   0  0  0  0  0  0  0  0  0  0  0  0
  -19.1111  -22.5112   23.2684 C   0  0  0  0  0  0  0  0  0  0  0  0
  -21.1151  -18.8111   22.0679 C   0  0  0  0  0  0  0  0  0  0  0  0
  -21.0452  -23.7348   22.5329 C   0  0  0  0  0  0  0  0  0  0  0  0
  -27.0590  -21.5097   20.0789 C   0  0  1  0  0  0  0  0  0  0  0  0
  -28.3141  -24.9389   19.0309 C   0  0  1  0  0  0  0  0  0  0  0  0
  -19.3965  -28.4511   22.4469 C   0  0  2  0  0  0  0  0  0  0  0  0
  -19.9616  -17.7956   21.9850 C   0  0  1  0  0  0  0  0  0  0  0  0
  -19.3700  -27.0933   23.2012 C   0  0  2  0  0  0  0  0  0  0  0  0
  -20.0297  -24.6851   23.1405 C   0  0  1  0  0  0  0  0  0  0  0  0
  -34.0247  -29.9357   20.5877 C   0  0  0  0  0  0  0  0  0  0  0  0
  -30.5775  -24.8488   23.0595 C   0  0  0  0  0  0  0  0  0  0  0  0
  -32.2066  -26.7147   23.4233 C   0  0  0  0  0  0  0  0  0  0  0  0
  -32.7575  -24.8725   21.8341 C   0  0  0  0  0  0  0  0  0  0  0  0
  -31.3693  -30.2907   17.8861 C   0  0  0  0  0  0  0  0  0  0  0  0
  -20.4231  -29.4630   22.9146 C   0  0  0  0  0  0  0  0  0  0  0  0
  -22.8443  -30.0443   22.7174 C   0  0  0  0  0  0  0  0  0  0  0  0
  -24.1495  -29.5379   22.1360 C   0  0  0  0  0  0  0  0  0  1  0  0
  -31.0069  -26.5804   21.1932 C   0  0  1  0  0  0  0  0  0  0  0  0
  -32.9339  -29.4538   19.6440 C   0  0  2  0  0  0  0  0  0  0  0  0
  -31.6111  -25.7594   22.3672 C   0  0  0  0  0  0  0  0  0  0  0  0
  -21.6536  -16.0862   21.4397 N   0  0  0  0  0  0  0  0  0  0  0  0
  -20.3872  -16.5124   21.2959 N   0  0  0  0  0  0  0  0  0  0  0  0
  -29.0172  -25.8907   19.8935 N   0  0  0  0  0  0  0  0  0  0  0  0
  -20.6888  -20.0245   22.7683 N   0  0  0  0  0  0  0  0  0  0  0  0
  -20.4946  -22.4057   22.7932 N   0  0  0  0  0  0  0  0  0  0  0  0
  -18.3204  -15.9806   20.2682 N   0  0  0  0  0  0  0  0  0  0  0  0
  -21.0255  -12.6021   18.9780 N   0  0  0  0  0  0  0  0  0  0  0  0
  -27.6234  -22.6462   19.3830 N   0  0  0  0  0  0  0  0  0  0  0  0
  -31.9692  -27.4314   20.5017 N   0  0  0  0  0  0  0  0  0  0  0  0
  -20.0211  -25.9825   22.4451 N   0  3  0  0  0  0  0  0  0  0  0  0
  -32.4310  -30.6240   18.8702 N   0  3  0  0  0  0  0  0  0  0  0  0
  -21.7513  -29.0920   22.3752 N   0  3  0  0  0  0  0  0  0  0  0  0
  -18.9046  -13.4576   18.8087 O   0  0  0  0  0  0  0  0  0  0  0  0
  -27.2884  -24.2459   21.0416 O   0  0  0  0  0  0  0  0  0  0  0  0
  -31.0885  -24.8796   19.5417 O   0  0  0  0  0  0  0  0  0  0  0  0
  -30.8516  -29.4297   20.8691 O   0  0  0  0  0  0  0  0  0  0  0  0
  -22.0385  -21.3553   21.4635 O   0  0  0  0  0  0  0  0  0  0  0  0
  -26.3883  -11.9704   20.3479 O   0  0  0  0  0  0  0  0  0  0  0  0
  -24.0395  -29.4545   20.7213 O   0  0  0  0  0  0  0  0  0  1  0  0
  -31.0847  -14.7006   19.4024 F   0  0  0  0  0  0  0  0  0  0  0  0
  -27.9068  -11.4437   18.0987 F   0  0  0  0  0  0  0  0  0  0  0  0
  1  2  1  0  0  0  0
  1  5  2  0  0  0  0
  2  6  2  0  0  0  0
  3  8  2  0  0  0  0
  3 15  1  0  0  0  0
  4  9  1  0  0  0  0
  4 15  2  0  0  0  0
  5 17  1  0  0  0  0
  6 19  1  0  0  0  0
  7 10  2  0  0  0  0
  7 18  1  0  0  0  0
  8 21  1  0  0  0  0
  9 21  2  0  0  0  0
 10 22  1  0  0  0  0
 11 12  2  0  0  0  0
 11 23  1  0  0  0  0
 12 24  1  0  0  0  0
 13 20  1  0  0  0  0
 13 22  2  0  0  0  0
 14 24  2  0  0  0  0
 14 25  1  0  0  0  0
 15 26  1  0  0  0  0
 16 26  1  0  0  0  0
 16 27  2  0  0  0  0
 16 28  1  0  0  0  0
 17 19  2  0  0  0  0
 17 33  1  0  0  0  0
 18 20  2  0  0  0  0
 18 34  1  0  0  0  0
 19 47  1  0  0  0  0
 20 35  1  0  0  0  0
 21 81  1  0  0  0  0
 22 82  1  0  0  0  0
 23 25  2  0  0  0  0
 23 81  1  0  0  0  0
 24 83  1  0  0  0  0
 25 84  1  0  0  0  0
 26 64  2  0  0  0  0
 27 65  1  0  0  0  0
 27 69  1  0  0  0  0
 28 70  1  0  0  0  0
 28 76  2  0  0  0  0
 29 48  1  0  0  0  0
 29 71  1  0  0  0  0
 29 77  2  0  0  0  0
 30 61  1  0  0  0  0
 30 66  1  0  0  0  0
 30 78  2  0  0  0  0
 31 62  1  0  0  0  0
 31 72  1  0  0  0  0
 31 79  2  0  0  0  0
 32 67  1  0  0  0  0
 32 68  1  0  0  0  0
 32 80  2  0  0  0  0
 33 36  1  0  0  0  0
 34 48  1  0  0  0  0
 35 66  1  0  0  0  0
 36 38  1  0  0  0  0
 37 40  1  0  0  0  0
 37 43  1  0  0  0  0
 38 47  1  0  0  0  0
 39 41  1  0  0  0  0
 39 49  1  0  0  0  0
 40 50  1  0  0  0  0
 41 51  1  0  0  0  0
 42 44  1  0  0  0  0
 42 52  1  0  0  0  0
 43 67  1  0  0  0  0
 44 68  1  0  0  0  0
 45 50  1  0  0  0  0
 45 67  1  0  0  0  0
 46 52  1  0  0  0  0
 46 68  1  0  0  0  0
 47 71  1  0  0  0  0
 48 66  1  0  0  0  0
 49 51  1  0  0  0  0
 49 58  1  0  0  0  0
 50 65  1  0  0  0  0
 51 73  1  0  0  0  0
 52 73  1  0  0  0  0
 53 62  1  0  0  0  0
 54 63  1  0  0  0  0
 55 63  1  0  0  0  0
 56 63  1  0  0  0  0
 57 74  1  0  0  0  0
 58 75  1  0  0  0  0
 59 60  1  0  0  0  0
 59 75  1  0  0  0  0
 60 82  1  0  0  0  0
 61 63  1  0  0  0  0
 61 72  1  0  0  0  0
 62 74  1  0  0  0  0
 64 65  1  0  0  0  0
M  CHG  3  73   1  74   1  75   1
M  ISO  4  32 100  60 101  68 100  82 101
M  END
> <Batch ID>
0188

> <Smiles>
CNC(C)C(=O)NC(C(=O)N1Cc2cc([101O:1][101CH2:1]CNCC3CCC3NC3CC[100N:0]([100C:0](=O)N4CCCC(n5nc(-c6ccc(Oc7ccc(F)cc7F)cc6)c(C(N)=O)c5N)C4)C3)ccc2CC1C(=O)NC1CCCc2ccccc21)C(C)(C)C

> <Shape>
0.239

> <Color>
0.073

> <Negative vol penalty>
0.000

$$$$

  -OEChem-04052323193D

 84 93  0     1  0  0  0  0  0999 V2000
  -20.9904  -26.6424   25.9507 C   0  0  0  0  0  0  0  0  0  0  0  0
  -22.0690  -26.4121   25.1028 C   0  0  0  0  0  0  0  0  0  0  0  0
  -23.3628   -9.3470   21.7860 C   0  0  0  0  0  0  0  0  0  0  0  0
  -25.6368   -8.5686   21.5411 C   0  0  0  0  0  0  0  0  0  0  0  0
  -19.7769  -27.0875   25.4279 C   0  0  0  0  0  0  0  0  0  0  0  0
  -21.9344  -26.6258   23.7314 C   0  0  0  0  0  0  0  0  0  0  0  0
  -25.8784  -29.1139   21.7567 C   0  0  0  0  0  0  0  0  0  0  0  0
  -23.1213   -8.3457   22.7265 C   0  0  0  0  0  0  0  0  0  0  0  0
  -25.3953   -7.5673   22.4817 C   0  0  0  0  0  0  0  0  0  0  0  0
  -27.0405  -28.3807   21.5211 C   0  0  0  0  0  0  0  0  0  0  0  0
  -22.4605   -5.0310   22.7213 C   0  0  0  0  0  0  0  0  0  0  0  0
  -21.2732   -4.3079   22.6067 C   0  0  0  0  0  0  0  0  0  0  0  0
  -26.4527  -28.2103   19.1877 C   0  0  0  0  0  0  0  0  0  0  0  0
  -20.6117   -5.0449   24.8104 C   0  0  0  0  0  0  0  0  0  0  0  0
  -24.6206   -9.4584   21.1932 C   0  0  0  0  0  0  0  0  0  0  0  0
  -24.2082  -10.6829   18.9936 C   0  0  0  0  0  0  0  0  0  0  0  0
  -19.6302  -27.3160   24.0507 C   0  0  0  0  0  0  0  0  0  0  0  0
  -24.9877  -29.3920   20.7099 C   0  0  0  0  0  0  0  0  0  0  0  0
  -20.7174  -27.0731   23.1896 C   0  0  0  0  0  0  0  0  0  0  0  0
  -25.2813  -28.9494   19.4121 C   0  0  0  0  0  0  0  0  0  0  0  0
  -24.1376   -7.4559   23.0745 C   0  0  0  0  0  0  0  0  0  0  0  0
  -27.3264  -27.9262   20.2370 C   0  0  0  0  0  0  0  0  0  0  0  0
  -22.7235   -5.7609   23.8805 C   0  0  0  0  0  0  0  0  0  0  0  0
  -20.3488   -4.3149   23.6512 C   0  0  0  0  0  0  0  0  0  0  0  0
  -21.7991   -5.7679   24.9250 C   0  0  0  0  0  0  0  0  0  0  0  0
  -24.8705  -10.4922   20.2211 C   0  0  0  0  0  0  0  0  0  0  0  0
  -24.8099  -11.7900   18.4471 C   0  0  0  0  0  0  0  0  0  0  0  0
  -23.1440   -9.9269   18.4004 C   0  0  0  0  0  0  0  0  0  0  0  0
  -21.9521  -28.6753   20.0974 C   0  0  0  0  0  0  0  0  0  0  0  0
  -22.3985  -30.6632   17.5733 C   0  0  0  0  0  0  0  0  0  0  0  0
  -24.9904  -31.2933   15.1439 C   0  0  0  0  0  0  0  0  0  0  0  0
  -27.7054  -16.3039   21.0859 C   0  0  0  0  0  0  0  0  0  0  0  0
  -18.2850  -27.7518   23.5263 C   0  0  0  0  0  0  0  0  0  0  0  0
  -23.7518  -30.2071   20.9754 C   0  0  0  0  0  0  0  0  0  0  0  0
  -24.3679  -29.2387   18.2500 C   0  0  0  0  0  0  0  0  0  0  0  0
  -18.3368  -28.3127   22.1075 C   0  0  0  0  0  0  0  0  0  0  0  0
  -28.9665  -14.1549   18.3955 C   0  0  0  0  0  0  0  0  0  0  0  0
  -19.1690  -27.4068   21.2055 C   0  0  0  0  0  0  0  0  0  0  0  0
  -27.9958  -12.9751   18.4680 C   0  0  0  0  0  0  0  0  0  0  0  0
  -30.3476  -22.3377   20.3816 C   0  0  0  0  0  0  0  0  0  0  0  0
  -27.9149  -22.3750   19.6903 C   0  0  0  0  0  0  0  0  0  0  0  0
  -29.2320  -14.7287   19.7821 C   0  0  0  0  0  0  0  0  0  0  0  0
  -27.0332  -13.9776   20.5956 C   0  0  0  0  0  0  0  0  0  0  0  0
  -28.7833  -17.8833   19.2971 C   0  0  0  0  0  0  0  0  0  0  0  0
  -28.2513  -18.7972   21.1445 C   0  0  0  0  0  0  0  0  0  0  0  0
  -30.1456  -23.6463   21.1348 C   0  0  0  0  0  0  0  0  0  0  0  0
  -27.7277  -23.6830   20.4481 C   0  0  0  0  0  0  0  0  0  0  0  0
  -20.6180  -27.3171   21.6994 C   0  0  1  0  0  0  0  0  0  0  0  0
  -22.6585  -29.9913   19.9335 C   0  0  1  0  0  0  0  0  0  0  0  0
  -26.7099  -13.3565   19.2241 C   0  0  2  0  0  0  0  0  0  0  0  0
  -29.0456  -21.5472   20.2937 C   0  0  0  0  0  0  0  0  0  0  0  0
  -28.2845  -19.2806   19.6903 C   0  0  0  0  0  0  0  0  0  0  0  0
  -25.5466  -33.3725   13.8535 C   0  0  0  0  0  0  0  0  0  0  0  0
  -20.6282  -29.4443   15.4076 C   0  0  0  0  0  0  0  0  0  0  0  0
  -22.2352  -30.3199   13.6990 C   0  0  0  0  0  0  0  0  0  0  0  0
  -21.0073  -31.9060   15.1820 C   0  0  0  0  0  0  0  0  0  0  0  0
  -27.7883  -31.2833   16.1088 C   0  0  0  0  0  0  0  0  0  0  0  0
  -29.3794  -20.7326   17.9894 C   0  0  0  0  0  0  0  0  0  0  0  0
  -29.4013  -25.1314   19.2336 C   0  0  0  0  0  0  0  0  0  0  0  0
  -28.4181  -26.2500   18.9507 C   0  0  0  0  0  0  0  0  0  1  0  0
  -22.8680  -30.4933   16.1486 C   0  0  1  0  0  0  0  0  0  0  0  0
  -25.8841  -32.5179   15.0653 C   0  0  2  0  0  0  0  0  0  0  0  0
  -21.6936  -30.5236   15.1301 C   0  0  0  0  0  0  0  0  0  0  0  0
  -25.8204  -11.4048   20.4417 N   0  0  0  0  0  0  0  0  0  0  0  0
  -25.7594  -12.1797   19.3454 N   0  0  0  0  0  0  0  0  0  0  0  0
  -23.1687  -30.0340   18.5616 N   0  0  0  0  0  0  0  0  0  0  0  0
  -27.9767  -15.0907   20.4476 N   0  0  0  0  0  0  0  0  0  0  0  0
  -28.3028  -17.4428   20.5989 N   0  0  0  0  0  0  0  0  0  0  0  0
  -24.6143  -12.4584   17.2907 N   0  0  0  0  0  0  0  0  0  0  0  0
  -22.6427   -8.8189   19.0970 N   0  0  0  0  0  0  0  0  0  0  0  0
  -21.3522  -28.5086   21.3311 N   0  0  0  0  0  0  0  0  0  0  0  0
  -23.8784  -31.5219   15.9264 N   0  0  0  0  0  0  0  0  0  0  0  0
  -29.0247  -24.4534   20.5235 N   0  3  0  0  0  0  0  0  0  0  0  0
  -27.3143  -32.1101   14.9692 N   0  3  0  0  0  0  0  0  0  0  0  0
  -29.2671  -20.3436   19.4497 N   0  3  1  0  0  0  0  0  0  0  0  0
  -22.6634  -10.2155   17.2783 O   0  0  0  0  0  0  0  0  0  0  0  0
  -21.9501  -27.8713   19.1726 O   0  0  0  0  0  0  0  0  0  0  0  0
  -21.3898  -31.3355   17.8015 O   0  0  0  0  0  0  0  0  0  0  0  0
  -25.2508  -30.2405   14.5656 O   0  0  0  0  0  0  0  0  0  0  0  0
  -26.9257  -16.3763   22.0451 O   0  0  0  0  0  0  0  0  0  0  0  0
  -23.9023   -6.4789   23.9924 O   0  0  0  0  0  0  0  0  0  0  0  0
  -28.4679  -27.2046   20.0027 O   0  0  0  0  0  0  0  0  0  1  0  0
  -19.2080   -3.6218   23.5404 F   0  0  0  0  0  0  0  0  0  0  0  0
  -22.0456   -6.4682   26.0406 F   0  0  0  0  0  0  0  0  0  0  0  0
  1  2  1  0  0  0  0
  1  5  2  0  0  0  0
  2  6  2  0  0  0  0
  3  8  2  0  0  0  0
  3 15  1  0  0  0  0
  4  9  1  0  0  0  0
  4 15  2  0  0  0  0
  5 17  1  0  0  0  0
  6 19  1  0  0  0  0
  7 10  2  0  0  0  0
  7 18  1  0  0  0  0
  8 21  1  0  0  0  0
  9 21  2  0  0  0  0
 10 22  1  0  0  0  0
 11 12  2  0  0  0  0
 11 23  1  0  0  0  0
 12 24  1  0  0  0  0
 13 20  1  0  0  0  0
 13 22  2  0  0  0  0
 14 24  2  0  0  0  0
 14 25  1  0  0  0  0
 15 26  1  0  0  0  0
 16 26  1  0  0  0  0
 16 27  2  0  0  0  0
 16 28  1  0  0  0  0
 17 19  2  0  0  0  0
 17 33  1  0  0  0  0
 18 20  2  0  0  0  0
 18 34  1  0  0  0  0
 19 48  1  0  0  0  0
 20 35  1  0  0  0  0
 21 81  1  0  0  0  0
 22 82  1  0  0  0  0
 23 25  2  0  0  0  0
 23 81  1  0  0  0  0
 24 83  1  0  0  0  0
 25 84  1  0  0  0  0
 26 64  2  0  0  0  0
 27 65  1  0  0  0  0
 27 69  1  0  0  0  0
 28 70  1  0  0  0  0
 28 76  2  0  0  0  0
 29 49  1  0  0  0  0
 29 71  1  0  0  0  0
 29 77  2  0  0  0  0
 30 61  1  0  0  0  0
 30 66  1  0  0  0  0
 30 78  2  0  0  0  0
 31 62  1  0  0  0  0
 31 72  1  0  0  0  0
 31 79  2  0  0  0  0
 32 67  1  0  0  0  0
 32 68  1  0  0  0  0
 32 80  2  0  0  0  0
 33 36  1  0  0  0  0
 34 49  1  0  0  0  0
 35 66  1  0  0  0  0
 36 38  1  0  0  0  0
 37 39  1  0  0  0  0
 37 42  1  0  0  0  0
 38 48  1  0  0  0  0
 39 50  1  0  0  0  0
 40 46  1  0  0  0  0
 40 51  1  0  0  0  0
 41 47  1  0  0  0  0
 41 51  1  0  0  0  0
 42 67  1  0  0  0  0
 43 50  1  0  0  0  0
 43 67  1  0  0  0  0
 44 52  1  0  0  0  0
 44 68  1  0  0  0  0
 45 52  1  0  0  0  0
 45 68  1  0  0  0  0
 46 73  1  0  0  0  0
 47 73  1  0  0  0  0
 48 71  1  0  0  0  0
 49 66  1  0  0  0  0
 50 65  1  0  0  0  0
 51 75  1  0  0  0  0
 52 75  1  0  0  0  0
 53 62  1  0  0  0  0
 54 63  1  0  0  0  0
 55 63  1  0  0  0  0
 56 63  1  0  0  0  0
 57 74  1  0  0  0  0
 58 75  1  0  0  0  0
 59 60  1  0  0  0  0
 59 73  1  0  0  0  0
 60 82  1  0  0  0  0
 61 63  1  0  0  0  0
 61 72  1  0  0  0  0
 62 74  1  0  0  0  0
 64 65  1  0  0  0  0
M  CHG  3  73   1  74   1  75   1
M  ISO  4  32 100  60 101  68 100  82 101
M  END
> <Batch ID>
0188

> <Smiles>
CNC(C)C(=O)NC(C(=O)N1Cc2cc([101O:1][101CH2:1]CN3CCC(N(C)C4C[100N:0]([100C:0](=O)N5CCCC(n6nc(-c7ccc(Oc8ccc(F)cc8F)cc7)c(C(N)=O)c6N)C5)C4)CC3)ccc2CC1C(=O)NC1CCCc2ccccc21)C(C)(C)C

> <Shape>
0.266

> <Color>
0.090

> <Negative vol penalty>
0.000

$$$$

  -OEChem-04052323193D

 89 99  0     1  0  0  0  0  0999 V2000
  -17.3315  -26.8028   23.2999 C   0  0  0  0  0  0  0  0  0  0  0  0
  -18.5462  -26.2670   22.8842 C   0  0  0  0  0  0  0  0  0  0  0  0
  -24.1841   -9.7839   21.3528 C   0  0  0  0  0  0  0  0  0  0  0  0
  -25.9187  -10.4634   22.8911 C   0  0  0  0  0  0  0  0  0  0  0  0
  -17.0781  -28.1638   23.1342 C   0  0  0  0  0  0  0  0  0  0  0  0
  -19.5079  -27.0917   22.3015 C   0  0  0  0  0  0  0  0  0  0  0  0
  -25.5888  -26.6101   22.8454 C   0  0  0  0  0  0  0  0  0  0  0  0
  -24.0149   -8.5980   22.0673 C   0  0  0  0  0  0  0  0  0  0  0  0
  -25.7495   -9.2774   23.6056 C   0  0  0  0  0  0  0  0  0  0  0  0
  -26.5632  -26.0518   22.0192 C   0  0  0  0  0  0  0  0  0  0  0  0
  -22.4978   -7.6038   24.9208 C   0  0  0  0  0  0  0  0  0  0  0  0
  -21.1936   -7.1968   25.2020 C   0  0  0  0  0  0  0  0  0  0  0  0
  -27.0023  -28.2285   21.0765 C   0  0  0  0  0  0  0  0  0  0  0  0
  -21.5698   -5.1471   23.9796 C   0  0  0  0  0  0  0  0  0  0  0  0
  -31.7030  -23.8713   19.2126 C   0  0  0  0  0  0  0  0  0  0  0  0
  -25.1360  -10.7166   21.7646 C   0  0  0  0  0  0  0  0  0  0  0  0
  -24.3463  -12.9394   20.7935 C   0  0  0  0  0  0  0  0  0  0  0  0
  -18.0409  -29.0074   22.5580 C   0  0  0  0  0  0  0  0  0  0  0  0
  -25.3058  -27.9823   22.7856 C   0  0  0  0  0  0  0  0  0  0  0  0
  -19.2665  -28.4650   22.1267 C   0  0  0  0  0  0  0  0  0  0  0  0
  -26.0257  -28.8021   21.9049 C   0  0  0  0  0  0  0  0  0  0  0  0
  -31.5152  -23.7673   17.8494 C   0  0  0  0  0  0  0  0  0  0  0  0
  -24.7976   -8.3447   23.1937 C   0  0  0  0  0  0  0  0  0  0  0  0
  -27.2681  -26.8605   21.1325 C   0  0  0  0  0  0  0  0  0  0  0  0
  -23.3379   -6.7825   24.1690 C   0  0  0  0  0  0  0  0  0  0  0  0
  -20.7296   -5.9684   24.7314 C   0  0  0  0  0  0  0  0  0  0  0  0
  -22.8740   -5.5542   23.6984 C   0  0  0  0  0  0  0  0  0  0  0  0
  -25.3116  -11.9416   21.0266 C   0  0  0  0  0  0  0  0  0  0  0  0
  -30.2462  -24.0664   17.3971 C   0  0  0  0  0  0  0  0  0  0  0  0
  -25.0050  -13.8872   20.0491 C   0  0  0  0  0  0  0  0  0  0  0  0
  -29.5404  -24.5039   19.5131 C   0  0  0  0  0  0  0  0  0  0  0  0
  -22.9766  -13.0039   21.2126 C   0  0  0  0  0  0  0  0  0  0  0  0
  -22.7432  -29.7141   22.0525 C   0  0  0  0  0  0  0  0  0  0  0  0
  -24.6177  -32.1814   23.0123 C   0  0  0  0  0  0  0  0  0  0  0  0
  -27.7637  -33.4053   23.5137 C   0  0  0  0  0  0  0  0  0  0  0  0
  -30.8378  -15.1407   19.6898 C   0  0  0  0  0  0  0  0  0  0  0  0
  -17.7030  -30.4633   22.3564 C   0  0  0  0  0  0  0  0  0  0  0  0
  -24.2705  -28.5736   23.7026 C   0  0  0  0  0  0  0  0  0  0  0  0
  -25.7739  -30.2845   21.8165 C   0  0  0  0  0  0  0  0  0  0  0  0
  -18.9215  -31.3378   22.0722 C   0  0  0  0  0  0  0  0  0  0  0  0
  -28.5786  -14.3669   16.9071 C   0  0  0  0  0  0  0  0  0  0  0  0
  -19.8142  -30.6843   21.0220 C   0  0  0  0  0  0  0  0  0  0  0  0
  -27.3992  -13.7271   17.6414 C   0  0  0  0  0  0  0  0  0  0  0  0
  -33.6064  -20.0343   15.7070 C   0  0  0  0  0  0  0  0  0  0  0  0
  -29.8964  -14.0300   17.5942 C   0  0  0  0  0  0  0  0  0  0  0  0
  -33.5759  -21.5593   15.5959 C   0  0  0  0  0  0  0  0  0  0  0  0
  -28.7807  -13.7750   19.7739 C   0  0  0  0  0  0  0  0  0  0  0  0
  -31.2873  -16.9280   17.8297 C   0  0  0  0  0  0  0  0  0  0  0  0
  -32.6718  -16.9001   19.4464 C   0  0  0  0  0  0  0  0  0  0  0  0
  -32.4861  -21.0174   17.5915 C   0  0  0  0  0  0  0  0  0  0  0  0
  -20.3445  -29.3318   21.5130 C   0  0  1  0  0  0  0  0  0  0  0  0
  -23.7055  -29.8956   23.1922 C   0  0  1  0  0  0  0  0  0  0  0  0
  -27.4130  -14.0865   19.1385 C   0  0  2  0  0  0  0  0  0  0  0  0
  -32.6236  -19.7172   16.8249 C   0  0  2  0  0  0  0  0  0  0  0  0
  -32.1111  -18.0067   18.5461 C   0  0  0  0  0  0  0  0  0  0  0  0
  -29.9265  -23.9885   15.9407 C   0  0  0  0  0  0  0  0  0  0  0  0
  -28.9781  -35.4671   24.2697 C   0  0  0  0  0  0  0  0  0  0  0  0
  -24.0261  -33.5104   20.3302 C   0  0  0  0  0  0  0  0  0  0  0  0
  -25.9620  -35.0437   20.7419 C   0  0  0  0  0  0  0  0  0  0  0  0
  -24.0066  -35.0631   22.2906 C   0  0  0  0  0  0  0  0  0  0  0  0
  -29.0240  -31.9739   25.7769 C   0  0  0  0  0  0  0  0  0  0  0  0
  -32.6354  -23.3530   16.9398 C   0  0  0  0  0  0  0  0  0  0  0  0
  -28.4438  -24.9138   20.4369 C   0  0  0  0  0  0  0  0  0  1  0  0
  -25.6025  -33.1027   22.3338 C   0  0  1  0  0  0  0  0  0  0  0  0
  -28.3860  -34.1316   24.6925 C   0  0  2  0  0  0  0  0  0  0  0  0
  -24.9029  -34.1517   21.4242 C   0  0  0  0  0  0  0  0  0  0  0  0
  -30.7342  -24.2382   20.0769 N   0  0  0  0  0  0  0  0  0  0  0  0
  -26.4935  -12.2287   20.4748 N   0  0  0  0  0  0  0  0  0  0  0  0
  -29.2312  -24.4393   18.2040 N   0  0  0  0  0  0  0  0  0  0  0  0
  -26.2752  -13.4176   19.8875 N   0  0  0  0  0  0  0  0  0  0  0  0
  -24.7474  -30.8144   22.7291 N   0  0  0  0  0  0  0  0  0  0  0  0
  -29.8601  -14.4093   19.0100 N   0  0  0  0  0  0  0  0  0  0  0  0
  -31.5492  -16.0851   18.9876 N   0  0  0  0  0  0  0  0  0  0  0  0
  -32.4882  -21.9785   16.4859 N   0  0  1  0  0  0  0  0  0  0  0  0
  -24.6158  -15.0681   19.5234 N   0  0  0  0  0  0  0  0  0  0  0  0
  -22.4596  -11.9452   21.9717 N   0  0  0  0  0  0  0  0  0  0  0  0
  -21.4326  -29.5247   22.4475 N   0  0  0  0  0  0  0  0  0  0  0  0
  -26.4181  -33.6819   23.3958 N   0  0  0  0  0  0  0  0  0  0  0  0
  -33.1250  -18.6349   17.6912 N   0  3  0  0  0  0  0  0  0  0  0  0
  -29.4706  -33.3065   25.2955 N   0  3  0  0  0  0  0  0  0  0  0  0
  -22.2286  -13.9639   20.9086 O   0  0  0  0  0  0  0  0  0  0  0  0
  -23.1587  -29.7453   20.9001 O   0  0  0  0  0  0  0  0  0  0  0  0
  -23.7693  -32.6564   23.7714 O   0  0  0  0  0  0  0  0  0  0  0  0
  -28.4079  -32.6692   22.7694 O   0  0  0  0  0  0  0  0  0  0  0  0
  -31.0498  -14.9797   20.8991 O   0  0  0  0  0  0  0  0  0  0  0  0
  -24.6327   -7.1877   23.8913 O   0  0  0  0  0  0  0  0  0  0  0  0
  -28.2257  -26.3143   20.3188 O   0  0  0  0  0  0  0  0  0  1  0  0
  -19.4777   -5.5770   25.0028 F   0  0  0  0  0  0  0  0  0  0  0  0
  -23.6769   -4.7603   22.9766 F   0  0  0  0  0  0  0  0  0  0  0  0
  1  2  1  0  0  0  0
  1  5  2  0  0  0  0
  2  6  2  0  0  0  0
  3  8  2  0  0  0  0
  3 16  1  0  0  0  0
  4  9  1  0  0  0  0
  4 16  2  0  0  0  0
  5 18  1  0  0  0  0
  6 20  1  0  0  0  0
  7 10  2  0  0  0  0
  7 19  1  0  0  0  0
  8 23  1  0  0  0  0
  9 23  2  0  0  0  0
 10 24  1  0  0  0  0
 11 12  2  0  0  0  0
 11 25  1  0  0  0  0
 12 26  1  0  0  0  0
 13 21  1  0  0  0  0
 13 24  2  0  0  0  0
 14 26  2  0  0  0  0
 14 27  1  0  0  0  0
 15 22  1  0  0  0  0
 15 67  2  0  0  0  0
 16 28  1  0  0  0  0
 17 28  1  0  0  0  0
 17 30  2  0  0  0  0
 17 32  1  0  0  0  0
 18 20  2  0  0  0  0
 18 37  1  0  0  0  0
 19 21  2  0  0  0  0
 19 38  1  0  0  0  0
 20 51  1  0  0  0  0
 21 39  1  0  0  0  0
 22 29  2  0  0  0  0
 22 62  1  0  0  0  0
 23 86  1  0  0  0  0
 24 87  1  0  0  0  0
 25 27  2  0  0  0  0
 25 86  1  0  0  0  0
 26 88  1  0  0  0  0
 27 89  1  0  0  0  0
 28 68  2  0  0  0  0
 29 56  1  0  0  0  0
 29 69  1  0  0  0  0
 30 70  1  0  0  0  0
 30 75  1  0  0  0  0
 31 63  1  0  0  0  0
 31 67  1  0  0  0  0
 31 69  2  0  0  0  0
 32 76  1  0  0  0  0
 32 81  2  0  0  0  0
 33 52  1  0  0  0  0
 33 77  1  0  0  0  0
 33 82  2  0  0  0  0
 34 64  1  0  0  0  0
 34 71  1  0  0  0  0
 34 83  2  0  0  0  0
 35 65  1  0  0  0  0
 35 78  1  0  0  0  0
 35 84  2  0  0  0  0
 36 72  1  0  0  0  0
 36 73  1  0  0  0  0
 36 85  2  0  0  0  0
 37 40  1  0  0  0  0
 38 52  1  0  0  0  0
 39 71  1  0  0  0  0
 40 42  1  0  0  0  0
 41 43  1  0  0  0  0
 41 45  1  0  0  0  0
 42 51  1  0  0  0  0
 43 53  1  0  0  0  0
 44 46  1  0  0  0  0
 44 54  1  0  0  0  0
 45 72  1  0  0  0  0
 46 74  1  0  0  0  0
 47 53  1  0  0  0  0
 47 72  1  0  0  0  0
 48 55  1  0  0  0  0
 48 73  1  0  0  0  0
 49 55  1  0  0  0  0
 49 73  1  0  0  0  0
 50 54  1  0  0  0  0
 50 74  1  0  0  0  0
 51 77  1  0  0  0  0
 52 71  1  0  0  0  0
 53 70  1  0  0  0  0
 54 79  1  0  0  0  0
 55 79  1  0  0  0  0
 57 65  1  0  0  0  0
 58 66  1  0  0  0  0
 59 66  1  0  0  0  0
 60 66  1  0  0  0  0
 61 80  1  0  0  0  0
 62 74  1  0  0  0  0
 63 87  1  0  0  0  0
 64 66  1  0  0  0  0
 64 78  1  0  0  0  0
 65 80  1  0  0  0  0
 68 70  1  0  0  0  0
M  CHG  2  79   1  80   1
M  ISO  4  36 100  63 101  73 100  87 101
M  END
> <Batch ID>
0188

> <Smiles>
CNC(C)C(=O)NC(C(=O)N1Cc2cc([101O:1][101CH2:1]c3ncc(CN4CCC(NC5C[100N:0]([100C:0](=O)N6CCCC(n7nc(-c8ccc(Oc9ccc(F)cc9F)cc8)c(C(N)=O)c7N)C6)C5)C4)c(C)n3)ccc2CC1C(=O)NC1CCCc2ccccc21)C(C)(C)C

> <Shape>
0.300

> <Color>
0.125

> <Negative vol penalty>
0.000

$$$$

  -OEChem-04052323193D

 87 96  0     1  0  0  0  0  0999 V2000
  -16.5856  -29.2990   23.8759 C   0  0  0  0  0  0  0  0  0  0  0  0
  -17.0784  -28.5414   22.8182 C   0  0  0  0  0  0  0  0  0  0  0  0
  -23.2429  -12.6143   19.0591 C   0  0  0  0  0  0  0  0  0  0  0  0
  -24.4692  -11.5912   20.8720 C   0  0  0  0  0  0  0  0  0  0  0  0
  -17.3649  -30.3156   24.4262 C   0  0  0  0  0  0  0  0  0  0  0  0
  -18.3506  -28.8008   22.3096 C   0  0  0  0  0  0  0  0  0  0  0  0
  -23.9630  -25.4781   19.3470 C   0  0  0  0  0  0  0  0  0  0  0  0
  -30.0281  -26.4318   14.3894 C   0  0  0  0  0  0  0  0  0  0  0  0
  -22.8145  -11.3553   18.6383 C   0  0  0  0  0  0  0  0  0  0  0  0
  -24.0408  -10.3322   20.4512 C   0  0  0  0  0  0  0  0  0  0  0  0
  -24.7929  -25.5543   18.2293 C   0  0  0  0  0  0  0  0  0  0  0  0
  -21.2455   -8.4475   20.6846 C   0  0  0  0  0  0  0  0  0  0  0  0
  -20.7861   -7.5618   21.6593 C   0  0  0  0  0  0  0  0  0  0  0  0
  -29.8199  -27.4809   13.5009 C   0  0  0  0  0  0  0  0  0  0  0  0
  -26.0809  -27.2834   19.3112 C   0  0  0  0  0  0  0  0  0  0  0  0
  -22.5162   -5.9906   21.0468 C   0  0  0  0  0  0  0  0  0  0  0  0
  -24.0703  -12.7323   20.1759 C   0  0  0  0  0  0  0  0  0  0  0  0
  -23.8718  -14.8868   21.5273 C   0  0  0  0  0  0  0  0  0  0  0  0
  -18.6511  -30.5813   23.9304 C   0  0  0  0  0  0  0  0  0  0  0  0
  -24.1796  -26.3130   20.4527 C   0  0  0  0  0  0  0  0  0  0  0  0
  -19.1473  -29.8229   22.8529 C   0  0  0  0  0  0  0  0  0  0  0  0
  -25.2539  -27.2140   20.4427 C   0  0  0  0  0  0  0  0  0  0  0  0
  -29.3498  -26.4109   15.6029 C   0  0  0  0  0  0  0  0  0  0  0  0
  -23.2135  -10.2143   19.3344 C   0  0  0  0  0  0  0  0  0  0  0  0
  -25.8503  -26.4591   18.2101 C   0  0  0  0  0  0  0  0  0  0  0  0
  -22.3402   -8.1048   19.8909 C   0  0  0  0  0  0  0  0  0  0  0  0
  -21.4215   -6.3333   21.8404 C   0  0  0  0  0  0  0  0  0  0  0  0
  -22.9755   -6.8763   20.0720 C   0  0  0  0  0  0  0  0  0  0  0  0
  -24.5136  -14.0325   20.6107 C   0  0  0  0  0  0  0  0  0  0  0  0
  -28.4811  -27.4545   15.8784 C   0  0  0  0  0  0  0  0  0  0  0  0
  -28.9299  -28.4765   13.8704 C   0  0  0  0  0  0  0  0  0  0  0  0
  -24.6879  -15.9892   21.5985 C   0  0  0  0  0  0  0  0  0  0  0  0
  -22.6475  -14.7005   22.2498 C   0  0  0  0  0  0  0  0  0  0  0  0
  -22.4981  -28.5791   21.9159 C   0  0  0  0  0  0  0  0  0  0  0  0
  -24.9499  -28.4837   24.0377 C   0  0  0  0  0  0  0  0  0  0  0  0
  -28.2204  -27.7281   24.6539 C   0  0  0  0  0  0  0  0  0  0  0  0
  -27.7236  -19.8373   19.4081 C   0  0  0  0  0  0  0  0  0  0  0  0
  -19.4377  -31.7217   24.5266 C   0  0  0  0  0  0  0  0  0  0  0  0
  -23.2916  -26.1997   21.6614 C   0  0  0  0  0  0  0  0  0  0  0  0
  -25.5415  -28.1182   21.6124 C   0  0  0  0  0  0  0  0  0  0  0  0
  -20.9230  -31.6860   24.1760 C   0  0  0  0  0  0  0  0  0  0  0  0
  -29.3611  -16.7593   19.8423 C   0  0  0  0  0  0  0  0  0  0  0  0
  -21.1136  -31.4203   22.6861 C   0  0  0  0  0  0  0  0  0  0  0  0
  -28.1869  -15.8329   20.1566 C   0  0  0  0  0  0  0  0  0  0  0  0
  -29.0199  -17.7639   18.7402 C   0  0  0  0  0  0  0  0  0  0  0  0
  -29.3551  -20.4508   17.5679 C   0  0  0  0  0  0  0  0  0  0  0  0
  -28.9160  -22.0068   19.4318 C   0  0  0  0  0  0  0  0  0  0  0  0
  -26.6186  -17.6224   19.3172 C   0  0  0  0  0  0  0  0  0  0  0  0
  -28.9428  -21.5224   16.5637 C   0  0  0  0  0  0  0  0  0  0  0  0
  -28.4745  -23.0901   18.4611 C   0  0  0  0  0  0  0  0  0  0  0  0
  -20.5322  -30.0577   22.2899 C   0  0  1  0  0  0  0  0  0  0  0  0
  -23.2928  -27.4582   22.5238 C   0  0  1  0  0  0  0  0  0  0  0  0
  -26.9128  -16.6404   20.4618 C   0  0  1  0  0  0  0  0  0  0  0  0
  -29.9488  -27.7946   26.4720 C   0  0  0  0  0  0  0  0  0  0  0  0
  -25.2358  -31.4970   23.6523 C   0  0  0  0  0  0  0  0  0  0  0  0
  -27.5015  -31.3466   24.7069 C   0  0  0  0  0  0  0  0  0  0  0  0
  -25.4735  -30.7206   26.0177 C   0  0  0  0  0  0  0  0  0  0  0  0
  -28.5794  -24.7913   24.5796 C   0  0  0  0  0  0  0  0  0  0  0  0
  -27.7863  -30.5165   13.4389 C   0  0  0  0  0  0  0  0  0  0  0  0
  -29.5702  -25.2804   16.5660 C   0  0  0  0  0  0  0  0  0  0  0  0
  -27.7255  -27.4842   17.1667 C   0  0  0  0  0  0  0  0  0  1  0  0
  -28.8725  -23.9844   16.1657 C   0  0  0  0  0  0  0  0  0  0  0  0
  -26.2765  -29.1918   24.1711 C   0  0  1  0  0  0  0  0  0  0  0  0
  -28.8809  -26.9588   25.7837 C   0  0  2  0  0  0  0  0  0  0  0  0
  -26.1155  -30.6735   24.6140 C   0  0  0  0  0  0  0  0  0  0  0  0
  -25.6497  -14.5479   20.1337 N   0  0  0  0  0  0  0  0  0  0  0  0
  -28.2528  -28.4905   15.0404 N   0  0  0  0  0  0  0  0  0  0  0  0
  -25.7282  -15.7381   20.7529 N   0  0  0  0  0  0  0  0  0  0  0  0
  -24.6411  -27.9744   22.7684 N   0  0  0  0  0  0  0  0  0  0  0  0
  -27.7762  -18.4804   19.0556 N   0  0  0  0  0  0  0  0  0  0  0  0
  -28.7111  -20.6744   18.8679 N   0  0  0  0  0  0  0  0  0  0  0  0
  -24.6100  -17.1393   22.3012 N   0  0  0  0  0  0  0  0  0  0  0  0
  -21.9339  -13.5094   22.0593 N   0  0  0  0  0  0  0  0  0  0  0  0
  -21.4275  -28.9918   22.6859 N   0  0  0  0  0  0  0  0  0  0  0  0
  -27.0825  -28.3813   25.0777 N   0  0  0  0  0  0  0  0  0  0  0  0
  -29.1937  -22.8922   17.1472 N   0  3  0  0  0  0  0  0  0  0  0  0
  -29.5196  -25.7178   25.2613 N   0  3  0  0  0  0  0  0  0  0  0  0
  -22.1911  -15.5717   23.0284 O   0  0  0  0  0  0  0  0  0  0  0  0
  -22.8325  -29.0368   20.8294 O   0  0  0  0  0  0  0  0  0  0  0  0
  -24.2179  -28.3799   25.0251 O   0  0  0  0  0  0  0  0  0  0  0  0
  -28.6710  -27.7504   23.5107 O   0  0  0  0  0  0  0  0  0  0  0  0
  -26.8448  -20.2755   20.1611 O   0  0  0  0  0  0  0  0  0  0  0  0
  -22.7955   -8.9856   18.9242 O   0  0  0  0  0  0  0  0  0  0  0  0
  -26.6672  -26.5366   17.1124 O   0  0  0  0  0  0  0  0  0  1  0  0
  -28.7088  -29.5214   13.0118 O   0  0  0  0  0  0  0  0  0  0  0  0
  -20.9812   -5.4834   22.7775 F   0  0  0  0  0  0  0  0  0  0  0  0
  -24.0284   -6.5420   19.3134 F   0  0  0  0  0  0  0  0  0  0  0  0
  1  2  1  0  0  0  0
  1  5  2  0  0  0  0
  2  6  2  0  0  0  0
  3  9  2  0  0  0  0
  3 17  1  0  0  0  0
  4 10  1  0  0  0  0
  4 17  2  0  0  0  0
  5 19  1  0  0  0  0
  6 21  1  0  0  0  0
  7 11  2  0  0  0  0
  7 20  1  0  0  0  0
  8 14  2  0  0  0  0
  8 23  1  0  0  0  0
  9 24  1  0  0  0  0
 10 24  2  0  0  0  0
 11 25  1  0  0  0  0
 12 13  2  0  0  0  0
 12 26  1  0  0  0  0
 13 27  1  0  0  0  0
 14 31  1  0  0  0  0
 15 22  1  0  0  0  0
 15 25  2  0  0  0  0
 16 27  2  0  0  0  0
 16 28  1  0  0  0  0
 17 29  1  0  0  0  0
 18 29  1  0  0  0  0
 18 32  2  0  0  0  0
 18 33  1  0  0  0  0
 19 21  2  0  0  0  0
 19 38  1  0  0  0  0
 20 22  2  0  0  0  0
 20 39  1  0  0  0  0
 21 51  1  0  0  0  0
 22 40  1  0  0  0  0
 23 30  2  0  0  0  0
 23 60  1  0  0  0  0
 24 83  1  0  0  0  0
 25 84  1  0  0  0  0
 26 28  2  0  0  0  0
 26 83  1  0  0  0  0
 27 86  1  0  0  0  0
 28 87  1  0  0  0  0
 29 66  2  0  0  0  0
 30 61  1  0  0  0  0
 30 67  1  0  0  0  0
 31 67  2  0  0  0  0
 31 85  1  0  0  0  0
 32 68  1  0  0  0  0
 32 72  1  0  0  0  0
 33 73  1  0  0  0  0
 33 78  2  0  0  0  0
 34 52  1  0  0  0  0
 34 74  1  0  0  0  0
 34 79  2  0  0  0  0
 35 63  1  0  0  0  0
 35 69  1  0  0  0  0
 35 80  2  0  0  0  0
 36 64  1  0  0  0  0
 36 75  1  0  0  0  0
 36 81  2  0  0  0  0
 37 70  1  0  0  0  0
 37 71  1  0  0  0  0
 37 82  2  0  0  0  0
 38 41  1  0  0  0  0
 39 52  1  0  0  0  0
 40 69  1  0  0  0  0
 41 43  1  0  0  0  0
 42 44  1  0  0  0  0
 42 45  1  0  0  0  0
 43 51  1  0  0  0  0
 44 53  1  0  0  0  0
 45 70  1  0  0  0  0
 46 49  1  0  0  0  0
 46 71  1  0  0  0  0
 47 50  1  0  0  0  0
 47 71  1  0  0  0  0
 48 53  1  0  0  0  0
 48 70  1  0  0  0  0
 49 76  1  0  0  0  0
 50 76  1  0  0  0  0
 51 74  1  0  0  0  0
 52 69  1  0  0  0  0
 53 68  1  0  0  0  0
 54 64  1  0  0  0  0
 55 65  1  0  0  0  0
 56 65  1  0  0  0  0
 57 65  1  0  0  0  0
 58 77  1  0  0  0  0
 59 85  1  0  0  0  0
 60 62  1  0  0  0  0
 61 84  1  0  0  0  0
 62 76  1  0  0  0  0
 63 65  1  0  0  0  0
 63 75  1  0  0  0  0
 64 77  1  0  0  0  0
 66 68  1  0  0  0  0
M  CHG  2  76   1  77   1
M  ISO  4  37 100  61 101  71 100  84 101
M  END
> <Batch ID>
0188

> <Smiles>
CNC(C)C(=O)NC(C(=O)N1Cc2cc([101O:1][101CH2:1]c3nc(OC)ccc3CCN3CC[100N:0]([100C:0](=O)N4CCCC(n5nc(-c6ccc(Oc7ccc(F)cc7F)cc6)c(C(N)=O)c5N)C4)CC3)ccc2CC1C(=O)NC1CCCc2ccccc21)C(C)(C)C

> <Shape>
0.247

> <Color>
0.063

> <Negative vol penalty>
0.000

$$$$

  -OEChem-04052323193D

 84 93  0     1  0  0  0  0  0999 V2000
  -20.2826  -33.4216   24.8519 C   0  0  0  0  0  0  0  0  0  0  0  0
  -21.5712  -33.0363   24.4964 C   0  0  0  0  0  0  0  0  0  0  0  0
  -26.8893  -13.2532   22.0520 C   0  0  0  0  0  0  0  0  0  0  0  0
  -26.6684  -12.8689   19.6770 C   0  0  0  0  0  0  0  0  0  0  0  0
  -19.2594  -32.4753   24.8925 C   0  0  0  0  0  0  0  0  0  0  0  0
  -21.8376  -31.7041   24.1823 C   0  0  0  0  0  0  0  0  0  0  0  0
  -25.8270  -29.6287   20.0250 C   0  0  0  0  0  0  0  0  0  0  0  0
  -26.2919  -12.0188   22.3073 C   0  0  0  0  0  0  0  0  0  0  0  0
  -26.0711  -11.6346   19.9323 C   0  0  0  0  0  0  0  0  0  0  0  0
  -27.1297  -29.1442   20.1351 C   0  0  0  0  0  0  0  0  0  0  0  0
  -23.1697  -10.7250   22.3527 C   0  0  0  0  0  0  0  0  0  0  0  0
  -22.1862  -10.6738   23.3404 C   0  0  0  0  0  0  0  0  0  0  0  0
  -26.2799  -26.8869   20.1797 C   0  0  0  0  0  0  0  0  0  0  0  0
  -23.5118   -9.0771   24.5775 C   0  0  0  0  0  0  0  0  0  0  0  0
  -31.9288  -23.9406   18.2897 C   0  0  0  0  0  0  0  0  0  0  0  0
  -27.0775  -13.6783   20.7369 C   0  0  0  0  0  0  0  0  0  0  0  0
  -29.0667  -15.2151   20.3024 C   0  0  0  0  0  0  0  0  0  0  0  0
  -19.5114  -31.1327   24.5694 C   0  0  0  0  0  0  0  0  0  0  0  0
  -24.7385  -28.7449   20.0023 C   0  0  0  0  0  0  0  0  0  0  0  0
  -20.8172  -30.7387   24.2200 C   0  0  0  0  0  0  0  0  0  0  0  0
  -24.9646  -27.3626   20.0667 C   0  0  0  0  0  0  0  0  0  0  0  0
  -25.8828  -11.2095   21.2474 C   0  0  0  0  0  0  0  0  0  0  0  0
  -27.3561  -27.7733   20.2154 C   0  0  0  0  0  0  0  0  0  0  0  0
  -24.3243   -9.9523   22.4773 C   0  0  0  0  0  0  0  0  0  0  0  0
  -22.3572   -9.8498   24.4528 C   0  0  0  0  0  0  0  0  0  0  0  0
  -24.4953   -9.1284   23.5897 C   0  0  0  0  0  0  0  0  0  0  0  0
  -27.6940  -14.9535   20.4726 C   0  0  0  0  0  0  0  0  0  0  0  0
  -32.3001  -23.1370   17.2312 C   0  0  0  0  0  0  0  0  0  0  0  0
  -30.5777  -23.9740   18.5687 C   0  0  0  0  0  0  0  0  0  0  0  0
  -29.1329  -16.5683   20.0765 C   0  0  0  0  0  0  0  0  0  0  0  0
  -30.1393  -22.5333   16.8660 C   0  0  0  0  0  0  0  0  0  0  0  0
  -30.1822  -14.3154   20.3447 C   0  0  0  0  0  0  0  0  0  0  0  0
  -22.2060  -28.2574   21.8604 C   0  0  0  0  0  0  0  0  0  0  0  0
  -21.3690  -26.1831   19.5112 C   0  0  0  0  0  0  0  0  0  0  0  0
  -22.3525  -24.1791   16.9298 C   0  0  0  0  0  0  0  0  0  0  0  0
  -27.2452  -21.1814   17.5662 C   0  0  0  0  0  0  0  0  0  0  0  0
  -18.3834  -30.1370   24.6734 C   0  0  0  0  0  0  0  0  0  0  0  0
  -23.3412  -29.2822   19.8562 C   0  0  0  0  0  0  0  0  0  0  0  0
  -23.8317  -26.3710   20.0260 C   0  0  0  0  0  0  0  0  0  0  0  0
  -18.6693  -28.8164   23.9630 C   0  0  0  0  0  0  0  0  0  0  0  0
  -25.6072  -20.1631   20.5590 C   0  0  0  0  0  0  0  0  0  0  0  0
  -20.0672  -28.3148   24.3108 C   0  0  0  0  0  0  0  0  0  0  0  0
  -26.1123  -18.7371   20.7855 C   0  0  0  0  0  0  0  0  0  0  0  0
  -30.2019  -26.0065   21.6228 C   0  0  0  0  0  0  0  0  0  0  0  0
  -25.4153  -20.4647   19.0744 C   0  0  0  0  0  0  0  0  0  0  0  0
  -31.0693  -25.5621   20.4452 C   0  0  0  0  0  0  0  0  0  0  0  0
  -27.1021  -18.7770   18.4579 C   0  0  0  0  0  0  0  0  0  0  0  0
  -28.7709  -24.9125   20.0374 C   0  0  0  0  0  0  0  0  0  0  0  0
  -21.1405  -29.3077   23.8485 C   0  0  1  0  0  0  0  0  0  0  0  0
  -22.2737  -28.3160   20.3606 C   0  0  1  0  0  0  0  0  0  0  0  0
  -27.3642  -18.4443   19.9368 C   0  0  2  0  0  0  0  0  0  0  0  0
  -28.8023  -26.0745   21.0292 C   0  0  2  0  0  0  0  0  0  1  0  0
  -33.7400  -23.0369   16.8536 C   0  0  0  0  0  0  0  0  0  0  0  0
  -21.4463  -22.5778   15.2233 C   0  0  0  0  0  0  0  0  0  0  0  0
  -21.0813  -24.0475   21.6714 C   0  0  0  0  0  0  0  0  0  0  0  0
  -21.1191  -22.3144   19.8650 C   0  0  0  0  0  0  0  0  0  0  0  0
  -19.2922  -24.0118   19.9243 C   0  0  0  0  0  0  0  0  0  0  0  0
  -23.2891  -25.8623   14.6830 C   0  0  0  0  0  0  0  0  0  0  0  0
  -29.1456  -21.7517   16.0755 C   0  0  0  0  0  0  0  0  0  0  0  0
  -21.6200  -24.7198   19.2375 C   0  0  1  0  0  0  0  0  0  0  0  0
  -21.8201  -24.0224   15.5169 C   0  0  2  0  0  0  0  0  0  0  0  0
  -20.7996  -23.7919   20.1773 C   0  0  0  0  0  0  0  0  0  0  0  0
  -26.9423  -16.0523   20.3642 N   0  0  0  0  0  0  0  0  0  0  0  0
  -31.4285  -22.4169   16.4949 N   0  0  0  0  0  0  0  0  0  0  0  0
  -29.6516  -23.2805   17.8747 N   0  0  0  0  0  0  0  0  0  0  0  0
  -27.8460  -17.0175   20.1236 N   0  0  0  0  0  0  0  0  0  0  0  0
  -30.1659  -24.7658   19.6200 N   0  0  3  0  0  0  0  0  0  0  0  0
  -22.4833  -26.9458   19.8887 N   0  0  0  0  0  0  0  0  0  0  0  0
  -26.6392  -20.1674   18.3263 N   0  0  0  0  0  0  0  0  0  0  0  0
  -30.1658  -17.4058   19.8442 N   0  0  0  0  0  0  0  0  0  0  0  0
  -29.9363  -12.9572   20.5880 N   0  0  0  0  0  0  0  0  0  0  0  0
  -21.3561  -29.1910   22.4222 N   0  0  0  0  0  0  0  0  0  0  0  0
  -21.3534  -24.5185   17.8174 N   0  0  0  0  0  0  0  0  0  0  0  0
  -28.4049  -20.8171   16.8932 N   0  0  0  0  0  0  0  0  0  0  0  0
  -22.8465  -24.4529   14.5259 N   0  3  0  0  0  0  0  0  0  0  0  0
  -31.3636  -14.7070   20.1881 O   0  0  0  0  0  0  0  0  0  0  0  0
  -22.8741  -27.4256   22.4633 O   0  0  0  0  0  0  0  0  0  0  0  0
  -20.2276  -26.6343   19.3874 O   0  0  0  0  0  0  0  0  0  0  0  0
  -23.5357  -24.0130   17.2180 O   0  0  0  0  0  0  0  0  0  0  0  0
  -26.7896  -22.3279   17.4972 O   0  0  0  0  0  0  0  0  0  0  0  0
  -25.3001  -10.0049   21.4962 O   0  0  0  0  0  0  0  0  0  0  0  0
  -28.6265  -27.2977   20.3237 O   0  0  0  0  0  0  0  0  0  1  0  0
  -21.4134   -9.8019   25.4021 F   0  0  0  0  0  0  0  0  0  0  0  0
  -25.6030   -8.3846   23.7155 F   0  0  0  0  0  0  0  0  0  0  0  0
  1  2  1  0  0  0  0
  1  5  2  0  0  0  0
  2  6  2  0  0  0  0
  3  8  2  0  0  0  0
  3 16  1  0  0  0  0
  4  9  1  0  0  0  0
  4 16  2  0  0  0  0
  5 18  1  0  0  0  0
  6 20  1  0  0  0  0
  7 10  2  0  0  0  0
  7 19  1  0  0  0  0
  8 22  1  0  0  0  0
  9 22  2  0  0  0  0
 10 23  1  0  0  0  0
 11 12  2  0  0  0  0
 11 24  1  0  0  0  0
 12 25  1  0  0  0  0
 13 21  1  0  0  0  0
 13 23  2  0  0  0  0
 14 25  2  0  0  0  0
 14 26  1  0  0  0  0
 15 28  2  0  0  0  0
 15 29  1  0  0  0  0
 16 27  1  0  0  0  0
 17 27  1  0  0  0  0
 17 30  2  0  0  0  0
 17 32  1  0  0  0  0
 18 20  2  0  0  0  0
 18 37  1  0  0  0  0
 19 21  2  0  0  0  0
 19 38  1  0  0  0  0
 20 49  1  0  0  0  0
 21 39  1  0  0  0  0
 22 81  1  0  0  0  0
 23 82  1  0  0  0  0
 24 26  2  0  0  0  0
 24 81  1  0  0  0  0
 25 83  1  0  0  0  0
 26 84  1  0  0  0  0
 27 63  2  0  0  0  0
 28 53  1  0  0  0  0
 28 64  1  0  0  0  0
 29 65  2  0  0  0  0
 29 67  1  0  0  0  0
 30 66  1  0  0  0  0
 30 70  1  0  0  0  0
 31 59  1  0  0  0  0
 31 64  2  0  0  0  0
 31 65  1  0  0  0  0
 32 71  1  0  0  0  0
 32 76  2  0  0  0  0
 33 50  1  0  0  0  0
 33 72  1  0  0  0  0
 33 77  2  0  0  0  0
 34 60  1  0  0  0  0
 34 68  1  0  0  0  0
 34 78  2  0  0  0  0
 35 61  1  0  0  0  0
 35 73  1  0  0  0  0
 35 79  2  0  0  0  0
 36 69  1  0  0  0  0
 36 74  1  0  0  0  0
 36 80  2  0  0  0  0
 37 40  1  0  0  0  0
 38 50  1  0  0  0  0
 39 68  1  0  0  0  0
 40 42  1  0  0  0  0
 41 43  1  0  0  0  0
 41 45  1  0  0  0  0
 42 49  1  0  0  0  0
 43 51  1  0  0  0  0
 44 46  1  0  0  0  0
 44 52  1  0  0  0  0
 45 69  1  0  0  0  0
 46 67  1  0  0  0  0
 47 51  1  0  0  0  0
 47 69  1  0  0  0  0
 48 52  1  0  0  0  0
 48 67  1  0  0  0  0
 49 72  1  0  0  0  0
 50 68  1  0  0  0  0
 51 66  1  0  0  0  0
 52 82  1  0  0  0  0
 54 61  1  0  0  0  0
 55 62  1  0  0  0  0
 56 62  1  0  0  0  0
 57 62  1  0  0  0  0
 58 75  1  0  0  0  0
 59 74  1  0  0  0  0
 60 62  1  0  0  0  0
 60 73  1  0  0  0  0
 61 75  1  0  0  0  0
 63 66  1  0  0  0  0
M  CHG  1  75   1
M  ISO  4  36 100  52 101  74 100  82 101
M  END
> <Batch ID>
0188

> <Smiles>
CNC(C)C(=O)NC(C(=O)N1Cc2cc([101O:1][101CH:1]3CCN(c4cc(C)nc(C[100NH:0][100C:0](=O)N5CCCC(n6nc(-c7ccc(Oc8ccc(F)cc8F)cc7)c(C(N)=O)c6N)C5)n4)C3)ccc2CC1C(=O)NC1CCCc2ccccc21)C(C)(C)C

> <Shape>
0.221

> <Color>
0.093

> <Negative vol penalty>
0.000

$$$$

  -OEChem-04052323193D

 82 91  0     1  0  0  0  0  0999 V2000
  -30.6938  -24.5101   16.6143 C   0  0  0  0  0  0  0  0  0  0  0  0
  -29.5731  -23.8335   17.0825 C   0  0  0  0  0  0  0  0  0  0  0  0
  -26.7724  -13.5508   22.5706 C   0  0  0  0  0  0  0  0  0  0  0  0
  -26.2517  -13.1510   20.2455 C   0  0  0  0  0  0  0  0  0  0  0  0
  -31.1079  -25.6829   17.2420 C   0  0  0  0  0  0  0  0  0  0  0  0
  -28.8593  -24.3359   18.1711 C   0  0  0  0  0  0  0  0  0  0  0  0
  -24.0905  -22.0325   21.1844 C   0  0  0  0  0  0  0  0  0  0  0  0
  -25.5877  -12.9168   22.9449 C   0  0  0  0  0  0  0  0  0  0  0  0
  -25.0669  -12.5170   20.6198 C   0  0  0  0  0  0  0  0  0  0  0  0
  -23.8702  -21.2218   22.2971 C   0  0  0  0  0  0  0  0  0  0  0  0
  -22.0808  -10.4743   20.9784 C   0  0  0  0  0  0  0  0  0  0  0  0
  -21.7612   -9.2714   20.3489 C   0  0  0  0  0  0  0  0  0  0  0  0
  -23.5512  -23.1875   23.6585 C   0  0  0  0  0  0  0  0  0  0  0  0
  -23.8069   -8.2922   21.1816 C   0  0  0  0  0  0  0  0  0  0  0  0
  -27.1044  -13.6679   21.2208 C   0  0  0  0  0  0  0  0  0  0  0  0
  -29.5906  -13.7280   20.6528 C   0  0  0  0  0  0  0  0  0  0  0  0
  -30.4056  -26.1925   18.3465 C   0  0  0  0  0  0  0  0  0  0  0  0
  -24.0534  -23.4292   21.3028 C   0  0  0  0  0  0  0  0  0  0  0  0
  -29.2475  -25.5310   18.8032 C   0  0  0  0  0  0  0  0  0  0  0  0
  -23.7687  -24.0136   22.5452 C   0  0  0  0  0  0  0  0  0  0  0  0
  -24.7350  -12.3999   21.9696 C   0  0  0  0  0  0  0  0  0  0  0  0
  -23.6034  -21.7993   23.5350 C   0  0  0  0  0  0  0  0  0  0  0  0
  -23.2635  -10.5863   21.7095 C   0  0  0  0  0  0  0  0  0  0  0  0
  -22.6242   -8.1803   20.4505 C   0  0  0  0  0  0  0  0  0  0  0  0
  -24.1265   -9.4952   21.8111 C   0  0  0  0  0  0  0  0  0  0  0  0
  -28.3278  -14.3232   20.8335 C   0  0  0  0  0  0  0  0  0  0  0  0
  -30.4114  -14.7675   20.2893 C   0  0  0  0  0  0  0  0  0  0  0  0
  -25.3768  -19.5796   27.1449 C   0  0  0  0  0  0  0  0  0  0  0  0
  -24.4845  -20.6544   25.3885 C   0  0  0  0  0  0  0  0  0  1  0  0
  -26.6958  -20.7525   25.7588 C   0  0  0  0  0  0  0  0  0  0  0  0
  -29.9864  -12.3578   20.8001 C   0  0  0  0  0  0  0  0  0  0  0  0
  -26.1523  -25.7746   20.8584 C   0  0  0  0  0  0  0  0  0  0  0  0
  -23.5731  -27.6618   21.4136 C   0  0  0  0  0  0  0  0  0  0  0  0
  -20.4823  -28.0039   22.8196 C   0  0  0  0  0  0  0  0  0  0  0  0
  -29.9538  -20.7363   21.2524 C   0  0  0  0  0  0  0  0  0  0  0  0
  -30.8932  -27.4700   18.9833 C   0  0  0  0  0  0  0  0  0  0  0  0
  -24.2666  -24.2894   20.0875 C   0  0  0  0  0  0  0  0  0  0  0  0
  -23.6977  -25.5077   22.7212 C   0  0  0  0  0  0  0  0  0  0  0  0
  -30.3427  -27.6810   20.3899 C   0  0  0  0  0  0  0  0  0  0  0  0
  -30.3695  -19.0103   18.1252 C   0  0  0  0  0  0  0  0  0  0  0  0
  -28.8345  -27.4814   20.3932 C   0  0  0  0  0  0  0  0  0  0  0  0
  -29.9541  -17.5746   18.4288 C   0  0  0  0  0  0  0  0  0  0  0  0
  -29.5406  -19.9988   18.9343 C   0  0  0  0  0  0  0  0  0  0  0  0
  -29.2403  -18.3362   20.7512 C   0  0  0  0  0  0  0  0  0  0  0  0
  -29.6003  -21.7066   23.5842 C   0  0  0  0  0  0  0  0  0  0  0  0
  -28.2157  -20.1589   23.1209 C   0  0  0  0  0  0  0  0  0  0  0  0
  -28.4732  -26.0421   20.0047 C   0  0  1  0  0  0  0  0  0  0  0  0
  -24.7137  -25.7072   20.4298 C   0  0  1  0  0  0  0  0  0  0  0  0
  -30.0389  -17.2988   19.9369 C   0  0  1  0  0  0  0  0  0  0  0  0
  -28.1522  -21.4173   24.0002 C   0  0  0  0  0  0  0  0  0  0  0  0
  -25.2136  -18.7163   28.3495 C   0  0  0  0  0  0  0  0  0  0  0  0
  -18.6376  -29.6748   23.1393 C   0  0  0  0  0  0  0  0  0  0  0  0
  -25.2189  -29.0632   23.5671 C   0  0  0  0  0  0  0  0  0  0  0  0
  -23.0909  -30.0266   24.4681 C   0  0  0  0  0  0  0  0  0  0  0  0
  -23.8323  -30.5914   22.1542 C   0  0  0  0  0  0  0  0  0  0  0  0
  -18.5439  -26.3187   21.3494 C   0  0  0  0  0  0  0  0  0  0  0  0
  -22.9416  -28.2756   22.6398 C   0  0  1  0  0  0  0  0  0  0  0  0
  -19.1795  -28.5531   22.2670 C   0  0  2  0  0  0  0  0  0  0  0  0
  -23.7741  -29.4611   23.2047 C   0  0  0  0  0  0  0  0  0  0  0  0
  -28.3403  -15.6390   20.6039 N   0  0  0  0  0  0  0  0  0  0  0  0
  -24.2609  -19.8758   26.4593 N   0  0  0  0  0  0  0  0  0  0  0  0
  -26.6251  -19.9808   26.8553 N   0  0  0  0  0  0  0  0  0  0  0  0
  -25.6711  -21.1300   24.9775 N   0  0  0  0  0  0  0  0  0  0  0  0
  -29.6211  -15.8791   20.2753 N   0  0  0  0  0  0  0  0  0  0  0  0
  -23.9196  -26.3063   21.5044 N   0  0  0  0  0  0  0  0  0  0  0  0
  -29.5879  -19.7125   20.3714 N   0  0  0  0  0  0  0  0  0  0  0  0
  -29.4021  -20.7378   22.5129 N   0  0  0  0  0  0  0  0  0  0  0  0
  -31.7248  -14.8302   19.9836 N   0  0  0  0  0  0  0  0  0  0  0  0
  -29.0168  -11.4194   21.1794 N   0  0  0  0  0  0  0  0  0  0  0  0
  -27.0423  -25.9491   19.8158 N   0  0  0  0  0  0  0  0  0  0  0  0
  -21.5775  -28.6296   22.2626 N   0  0  0  0  0  0  0  0  0  0  0  0
  -18.1523  -27.4758   22.1948 N   0  3  0  0  0  0  0  0  0  0  0  0
  -31.1684  -11.9797   20.6174 O   0  0  0  0  0  0  0  0  0  0  0  0
  -26.4339  -25.6770   22.0470 O   0  0  0  0  0  0  0  0  0  0  0  0
  -23.7458  -28.3576   20.4097 O   0  0  0  0  0  0  0  0  0  0  0  0
  -20.5242  -27.1117   23.6639 O   0  0  0  0  0  0  0  0  0  0  0  0
  -30.7267  -21.6430   20.9153 O   0  0  0  0  0  0  0  0  0  0  0  0
  -23.5790  -11.7810   22.3345 O   0  0  0  0  0  0  0  0  0  0  0  0
  -23.3860  -21.0003   24.6367 O   0  0  0  0  0  0  0  0  0  1  0  0
  -27.9338  -21.2000   25.4047 O   0  0  0  0  0  0  0  0  0  0  0  0
  -22.3164   -7.0247   19.8472 F   0  0  0  0  0  0  0  0  0  0  0  0
  -25.2636   -9.5963   22.5130 F   0  0  0  0  0  0  0  0  0  0  0  0
  1  2  1  0  0  0  0
  1  5  2  0  0  0  0
  2  6  2  0  0  0  0
  3  8  2  0  0  0  0
  3 15  1  0  0  0  0
  4  9  1  0  0  0  0
  4 15  2  0  0  0  0
  5 17  1  0  0  0  0
  6 19  1  0  0  0  0
  7 10  2  0  0  0  0
  7 18  1  0  0  0  0
  8 21  1  0  0  0  0
  9 21  2  0  0  0  0
 10 22  1  0  0  0  0
 11 12  2  0  0  0  0
 11 23  1  0  0  0  0
 12 24  1  0  0  0  0
 13 20  1  0  0  0  0
 13 22  2  0  0  0  0
 14 24  2  0  0  0  0
 14 25  1  0  0  0  0
 15 26  1  0  0  0  0
 16 26  1  0  0  0  0
 16 27  2  0  0  0  0
 16 31  1  0  0  0  0
 17 19  2  0  0  0  0
 17 36  1  0  0  0  0
 18 20  2  0  0  0  0
 18 37  1  0  0  0  0
 19 47  1  0  0  0  0
 20 38  1  0  0  0  0
 21 78  1  0  0  0  0
 22 79  1  0  0  0  0
 23 25  2  0  0  0  0
 23 78  1  0  0  0  0
 24 81  1  0  0  0  0
 25 82  1  0  0  0  0
 26 60  2  0  0  0  0
 27 64  1  0  0  0  0
 27 68  1  0  0  0  0
 28 51  1  0  0  0  0
 28 61  2  0  0  0  0
 28 62  1  0  0  0  0
 29 61  1  0  0  0  0
 29 63  2  0  0  0  0
 29 79  1  0  0  0  0
 30 62  2  0  0  0  0
 30 63  1  0  0  0  0
 30 80  1  0  0  0  0
 31 69  1  0  0  0  0
 31 73  2  0  0  0  0
 32 48  1  0  0  0  0
 32 70  1  0  0  0  0
 32 74  2  0  0  0  0
 33 57  1  0  0  0  0
 33 65  1  0  0  0  0
 33 75  2  0  0  0  0
 34 58  1  0  0  0  0
 34 71  1  0  0  0  0
 34 76  2  0  0  0  0
 35 66  1  0  0  0  0
 35 67  1  0  0  0  0
 35 77  2  0  0  0  0
 36 39  1  0  0  0  0
 37 48  1  0  0  0  0
 38 65  1  0  0  0  0
 39 41  1  0  0  0  0
 40 42  1  0  0  0  0
 40 43  1  0  0  0  0
 41 47  1  0  0  0  0
 42 49  1  0  0  0  0
 43 66  1  0  0  0  0
 44 49  1  0  0  0  0
 44 66  1  0  0  0  0
 45 50  1  0  0  0  0
 45 67  1  0  0  0  0
 46 50  1  0  0  0  0
 46 67  1  0  0  0  0
 47 70  1  0  0  0  0
 48 65  1  0  0  0  0
 49 64  1  0  0  0  0
 50 80  1  0  0  0  0
 52 58  1  0  0  0  0
 53 59  1  0  0  0  0
 54 59  1  0  0  0  0
 55 59  1  0  0  0  0
 56 72  1  0  0  0  0
 57 59  1  0  0  0  0
 57 71  1  0  0  0  0
 58 72  1  0  0  0  0
 60 64  1  0  0  0  0
M  CHG  1  72   1
M  ISO  4  29 101  35 100  67 100  79 101
M  END
> <Batch ID>
0188

> <Smiles>
CNC(C)C(=O)NC(C(=O)N1Cc2cc([101O:1][101c:1]3nc(C)nc(OC4C[100N:0]([100C:0](=O)N5CCCC(n6nc(-c7ccc(Oc8ccc(F)cc8F)cc7)c(C(N)=O)c6N)C5)C4)n3)ccc2CC1C(=O)NC1CCCc2ccccc21)C(C)(C)C

> <Shape>
0.267

> <Color>
0.049

> <Negative vol penalty>
0.000

$$$$

  -OEChem-04052323193D

 85 94  0     1  0  0  0  0  0999 V2000
  -16.9704  -29.0370   24.4749 C   0  0  0  0  0  0  0  0  0  0  0  0
  -17.3899  -27.8816   23.8234 C   0  0  0  0  0  0  0  0  0  0  0  0
  -28.2060  -17.3234   19.6828 C   0  0  0  0  0  0  0  0  0  0  0  0
  -28.0737  -17.1772   22.0907 C   0  0  0  0  0  0  0  0  0  0  0  0
  -17.5703  -30.2601   24.1783 C   0  0  0  0  0  0  0  0  0  0  0  0
  -18.4088  -27.9489   22.8738 C   0  0  0  0  0  0  0  0  0  0  0  0
  -22.6863  -23.7107   21.7574 C   0  0  0  0  0  0  0  0  0  0  0  0
  -29.1067  -18.3824   19.7965 C   0  0  0  0  0  0  0  0  0  0  0  0
  -28.9744  -18.2362   22.2045 C   0  0  0  0  0  0  0  0  0  0  0  0
  -22.7888  -22.7141   20.7878 C   0  0  0  0  0  0  0  0  0  0  0  0
  -31.1649  -21.3605   19.4532 C   0  0  0  0  0  0  0  0  0  0  0  0
  -30.9685  -22.4718   18.6335 C   0  0  0  0  0  0  0  0  0  0  0  0
  -24.1461  -24.1788   19.4344 C   0  0  0  0  0  0  0  0  0  0  0  0
  -28.7885  -22.8124   19.6178 C   0  0  0  0  0  0  0  0  0  0  0  0
  -25.7154  -19.5481   17.1282 C   0  0  0  0  0  0  0  0  0  0  0  0
  -27.1930  -20.0493   15.6804 C   0  0  0  0  0  0  0  0  0  0  0  0
  -27.6894  -16.7208   20.8299 C   0  0  0  0  0  0  0  0  0  0  0  0
  -27.0636  -14.2546   20.6466 C   0  0  0  0  0  0  0  0  0  0  0  0
  -18.6037  -30.3409   23.2316 C   0  0  0  0  0  0  0  0  0  0  0  0
  -23.3050  -24.9547   21.5675 C   0  0  0  0  0  0  0  0  0  0  0  0
  -19.0222  -29.1745   22.5632 C   0  0  0  0  0  0  0  0  0  0  0  0
  -24.0521  -25.1886   20.4042 C   0  0  0  0  0  0  0  0  0  0  0  0
  -29.4909  -18.8387   21.0574 C   0  0  0  0  0  0  0  0  0  0  0  0
  -23.5163  -22.9491   19.6248 C   0  0  0  0  0  0  0  0  0  0  0  0
  -30.1731  -20.9750   20.3551 C   0  0  0  0  0  0  0  0  0  0  0  0
  -29.7803  -23.1978   18.7158 C   0  0  0  0  0  0  0  0  0  0  0  0
  -28.9849  -21.7010   20.4374 C   0  0  0  0  0  0  0  0  0  0  0  0
  -26.7585  -15.6273   20.7130 C   0  0  0  0  0  0  0  0  0  0  0  0
  -25.1475  -20.5268   16.3471 C   0  0  0  0  0  0  0  0  0  0  0  0
  -25.8418  -13.6359   20.5428 C   0  0  0  0  0  0  0  0  0  0  0  0
  -28.3376  -13.5975   20.6763 C   0  0  0  0  0  0  0  0  0  0  0  0
  -22.2824  -27.9545   21.3239 C   0  0  0  0  0  0  0  0  0  0  0  0
  -25.4561  -28.6251   21.3248 C   0  0  0  0  0  0  0  0  0  0  0  0
  -28.6426  -27.5593   20.7274 C   0  0  0  0  0  0  0  0  0  0  0  0
  -20.5201  -15.4908   18.5347 C   0  0  0  0  0  0  0  0  0  0  0  0
  -19.1895  -31.6929   22.9100 C   0  0  0  0  0  0  0  0  0  0  0  0
  -23.2072  -26.0099   22.6350 C   0  0  0  0  0  0  0  0  0  0  0  0
  -24.7521  -26.4999   20.1615 C   0  0  0  0  0  0  0  0  0  0  0  0
  -20.5189  -31.6188   22.1634 C   0  0  0  0  0  0  0  0  0  0  0  0
  -21.2527  -14.1572   21.7226 C   0  0  0  0  0  0  0  0  0  0  0  0
  -20.4333  -30.6135   21.0193 C   0  0  0  0  0  0  0  0  0  0  0  0
  -22.7690  -14.2815   21.8435 C   0  0  0  0  0  0  0  0  0  0  0  0
  -20.6660  -17.3752   15.3526 C   0  0  0  0  0  0  0  0  0  0  0  0
  -20.6677  -15.3612   20.9966 C   0  0  0  0  0  0  0  0  0  0  0  0
  -20.0632  -16.2960   16.2385 C   0  0  0  0  0  0  0  0  0  0  0  0
  -21.7831  -17.4464   17.4544 C   0  0  0  0  0  0  0  0  0  0  0  0
  -22.7654  -15.6789   19.7127 C   0  0  0  0  0  0  0  0  0  0  0  0
  -20.1415  -29.2029   21.5451 C   0  0  1  0  0  0  0  0  0  0  0  0
  -23.4491  -27.4200   22.1053 C   0  0  1  0  0  0  0  0  0  0  0  0
  -21.2281  -18.3693   16.3696 C   0  0  1  0  0  0  0  0  0  0  0  0
  -23.4069  -14.4925   20.4616 C   0  0  1  0  0  0  0  0  0  0  0  0
  -31.0255  -28.3444   20.7834 C   0  0  0  0  0  0  0  0  0  0  0  0
  -24.9993  -30.1879   18.7443 C   0  0  0  0  0  0  0  0  0  0  0  0
  -27.4716  -30.1297   18.3535 C   0  0  0  0  0  0  0  0  0  0  0  0
  -26.5556  -31.2842   20.3662 C   0  0  0  0  0  0  0  0  0  0  0  0
  -26.0063  -21.8161   14.3670 C   0  0  0  0  0  0  0  0  0  0  0  0
  -29.3887  -25.5211   22.7393 C   0  0  0  0  0  0  0  0  0  0  0  0
  -22.2705  -19.3033   15.7814 C   0  0  0  0  0  0  0  0  0  0  0  0
  -23.7590  -22.4059   17.3222 C   0  0  0  0  0  0  0  0  0  1  0  0
  -23.7898  -21.1884   16.3955 C   0  0  2  0  0  0  0  0  0  0  0  0
  -26.5210  -28.7582   20.2631 C   0  0  1  0  0  0  0  0  0  0  0  0
  -29.9101  -27.6585   21.5569 C   0  0  2  0  0  0  0  0  0  0  0  0
  -26.3722  -30.0659   19.4352 C   0  0  0  0  0  0  0  0  0  0  0  0
  -26.9888  -19.2556   16.7082 N   0  0  0  0  0  0  0  0  0  0  0  0
  -25.4458  -15.8671   20.6559 N   0  0  0  0  0  0  0  0  0  0  0  0
  -26.1060  -20.8382   15.4243 N   0  0  0  0  0  0  0  0  0  0  0  0
  -24.9152  -14.6367   20.5525 N   0  0  0  0  0  0  0  0  0  0  0  0
  -24.6216  -27.5022   21.2319 N   0  0  0  0  0  0  0  0  0  0  0  0
  -21.3008  -15.5707   19.6932 N   0  0  0  0  0  0  0  0  0  0  0  0
  -20.8695  -16.3011   17.4552 N   0  0  0  0  0  0  0  0  0  0  0  0
  -25.4803  -12.3389   20.4449 N   0  0  0  0  0  0  0  0  0  0  0  0
  -29.4925  -14.3838   20.7867 N   0  0  0  0  0  0  0  0  0  0  0  0
  -21.3417  -28.6102   22.0951 N   0  0  0  0  0  0  0  0  0  0  0  0
  -27.8013  -28.6287   20.9505 N   0  0  0  0  0  0  0  0  0  0  0  0
  -30.3786  -26.2999   21.9515 N   0  3  0  0  0  0  0  0  0  0  0  0
  -22.7189  -20.2476   16.8290 N   0  3  0  0  0  0  0  0  0  0  0  0
  -28.4494  -12.3510   20.5904 O   0  0  0  0  0  0  0  0  0  0  0  0
  -22.2395  -27.7860   20.1109 O   0  0  0  0  0  0  0  0  0  0  0  0
  -25.3726  -29.4819   22.2083 O   0  0  0  0  0  0  0  0  0  0  0  0
  -28.4227  -26.6284   19.9557 O   0  0  0  0  0  0  0  0  0  0  0  0
  -19.5244  -14.7563   18.4800 O   0  0  0  0  0  0  0  0  0  0  0  0
  -30.3700  -19.8719   21.1688 O   0  0  0  0  0  0  0  0  0  0  0  0
  -23.6180  -21.9719   18.6702 O   0  0  0  0  0  0  0  0  0  1  0  0
  -29.5925  -24.2660   17.9297 F   0  0  0  0  0  0  0  0  0  0  0  0
  -28.0290  -21.3362   21.3028 F   0  0  0  0  0  0  0  0  0  0  0  0
  1  2  1  0  0  0  0
  1  5  2  0  0  0  0
  2  6  2  0  0  0  0
  3  8  2  0  0  0  0
  3 17  1  0  0  0  0
  4  9  1  0  0  0  0
  4 17  2  0  0  0  0
  5 19  1  0  0  0  0
  6 21  1  0  0  0  0
  7 10  2  0  0  0  0
  7 20  1  0  0  0  0
  8 23  1  0  0  0  0
  9 23  2  0  0  0  0
 10 24  1  0  0  0  0
 11 12  2  0  0  0  0
 11 25  1  0  0  0  0
 12 26  1  0  0  0  0
 13 22  1  0  0  0  0
 13 24  2  0  0  0  0
 14 26  2  0  0  0  0
 14 27  1  0  0  0  0
 15 29  2  0  0  0  0
 15 64  1  0  0  0  0
 16 64  2  0  0  0  0
 16 66  1  0  0  0  0
 17 28  1  0  0  0  0
 18 28  1  0  0  0  0
 18 30  2  0  0  0  0
 18 31  1  0  0  0  0
 19 21  2  0  0  0  0
 19 36  1  0  0  0  0
 20 22  2  0  0  0  0
 20 37  1  0  0  0  0
 21 48  1  0  0  0  0
 22 38  1  0  0  0  0
 23 82  1  0  0  0  0
 24 83  1  0  0  0  0
 25 27  2  0  0  0  0
 25 82  1  0  0  0  0
 26 84  1  0  0  0  0
 27 85  1  0  0  0  0
 28 65  2  0  0  0  0
 29 60  1  0  0  0  0
 29 66  1  0  0  0  0
 30 67  1  0  0  0  0
 30 71  1  0  0  0  0
 31 72  1  0  0  0  0
 31 77  2  0  0  0  0
 32 49  1  0  0  0  0
 32 73  1  0  0  0  0
 32 78  2  0  0  0  0
 33 61  1  0  0  0  0
 33 68  1  0  0  0  0
 33 79  2  0  0  0  0
 34 62  1  0  0  0  0
 34 74  1  0  0  0  0
 34 80  2  0  0  0  0
 35 69  1  0  0  0  0
 35 70  1  0  0  0  0
 35 81  2  0  0  0  0
 36 39  1  0  0  0  0
 37 49  1  0  0  0  0
 38 68  1  0  0  0  0
 39 41  1  0  0  0  0
 40 42  1  0  0  0  0
 40 44  1  0  0  0  0
 41 48  1  0  0  0  0
 42 51  1  0  0  0  0
 43 45  1  0  0  0  0
 43 50  1  0  0  0  0
 44 69  1  0  0  0  0
 45 70  1  0  0  0  0
 46 50  1  0  0  0  0
 46 70  1  0  0  0  0
 47 51  1  0  0  0  0
 47 69  1  0  0  0  0
 48 73  1  0  0  0  0
 49 68  1  0  0  0  0
 50 58  1  0  0  0  0
 51 67  1  0  0  0  0
 52 62  1  0  0  0  0
 53 63  1  0  0  0  0
 54 63  1  0  0  0  0
 55 63  1  0  0  0  0
 56 66  1  0  0  0  0
 57 75  1  0  0  0  0
 58 76  1  0  0  0  0
 59 60  1  0  0  0  0
 59 83  1  0  0  0  0
 60 76  1  0  0  0  0
 61 63  1  0  0  0  0
 61 74  1  0  0  0  0
 62 75  1  0  0  0  0
 65 67  1  0  0  0  0
M  CHG  2  75   1  76   1
M  ISO  4  35 100  59 101  70 100  83 101
M  END
> <Batch ID>
0188

> <Smiles>
CNC(C)C(=O)NC(C(=O)N1Cc2cc([101O:1][101CH2:1]C(NCC3CC[100N:0]([100C:0](=O)N4CCCC(n5nc(-c6ccc(Oc7ccc(F)cc7F)cc6)c(C(N)=O)c5N)C4)C3)c3cncn3C)ccc2CC1C(=O)NC1CCCc2ccccc21)C(C)(C)C

> <Shape>
0.238

> <Color>
0.066

> <Negative vol penalty>
0.000

$$$$

  -OEChem-04052323193D

 87 97  0     1  0  0  0  0  0999 V2000
  -22.1886  -15.3384   14.0020 C   0  0  0  0  0  0  0  0  0  0  0  0
  -23.1830  -15.0896   14.9426 C   0  0  0  0  0  0  0  0  0  0  0  0
  -26.7822  -28.5231   21.2384 C   0  0  0  0  0  0  0  0  0  0  0  0
  -26.3570  -27.7740   18.9811 C   0  0  0  0  0  0  0  0  0  0  0  0
  -20.9589  -15.8541   14.4092 C   0  0  0  0  0  0  0  0  0  0  0  0
  -22.9486  -15.3575   16.2909 C   0  0  0  0  0  0  0  0  0  0  0  0
  -24.5360  -11.6213   19.3185 C   0  0  0  0  0  0  0  0  0  0  0  0
  -25.5926  -29.2511   21.2209 C   0  0  0  0  0  0  0  0  0  0  0  0
  -25.1673  -28.5021   18.9637 C   0  0  0  0  0  0  0  0  0  0  0  0
  -25.9039  -11.5497   19.5780 C   0  0  0  0  0  0  0  0  0  0  0  0
  -22.2871  -28.6307   21.5700 C   0  0  0  0  0  0  0  0  0  0  0  0
  -21.4577  -28.5442   22.6881 C   0  0  0  0  0  0  0  0  0  0  0  0
  -25.5501  -12.6259   21.7077 C   0  0  0  0  0  0  0  0  0  0  0  0
  -29.3561  -14.4839   20.3547 C   0  0  0  0  0  0  0  0  0  0  0  0
  -21.6567  -30.9290   23.0202 C   0  0  0  0  0  0  0  0  0  0  0  0
  -31.9058  -13.6738   19.6500 C   0  0  0  0  0  0  0  0  0  0  0  0
  -27.1645  -27.7845   20.1185 C   0  0  0  0  0  0  0  0  0  0  0  0
  -29.6950  -27.5354   20.3236 C   0  0  0  0  0  0  0  0  0  0  0  0
  -20.7059  -16.1193   15.7642 C   0  0  0  0  0  0  0  0  0  0  0  0
  -23.6647  -12.2065   20.2485 C   0  0  0  0  0  0  0  0  0  0  0  0
  -21.7148  -15.8785   16.7163 C   0  0  0  0  0  0  0  0  0  0  0  0
  -24.1711  -12.7013   21.4588 C   0  0  0  0  0  0  0  0  0  0  0  0
  -29.6005  -13.1673   20.0173 C   0  0  0  0  0  0  0  0  0  0  0  0
  -30.8851  -12.7522   19.6605 C   0  0  0  0  0  0  0  0  0  0  0  0
  -24.7852  -29.2406   20.0836 C   0  0  0  0  0  0  0  0  0  0  0  0
  -26.4116  -12.0547   20.7715 C   0  0  0  0  0  0  0  0  0  0  0  0
  -22.8014  -29.8664   21.1770 C   0  0  0  0  0  0  0  0  0  0  0  0
  -21.1425  -29.6933   23.4132 C   0  0  0  0  0  0  0  0  0  0  0  0
  -22.4862  -31.0155   21.9021 C   0  0  0  0  0  0  0  0  0  0  0  0
  -28.3935  -27.0327   20.1357 C   0  0  0  0  0  0  0  0  0  0  0  0
  -30.4489  -15.3385   20.3272 C   0  0  0  0  0  0  0  0  0  0  0  0
  -30.5041  -26.4276   20.2550 C   0  0  0  0  0  0  0  0  0  0  0  0
  -30.1333  -28.8831   20.5408 C   0  0  0  0  0  0  0  0  0  0  0  0
  -21.7114  -14.7140   20.2230 C   0  0  0  0  0  0  0  0  0  0  0  0
  -20.8479  -13.5787   23.1364 C   0  0  0  0  0  0  0  0  0  0  0  0
  -21.6683  -11.7292   25.8847 C   0  0  0  0  0  0  0  0  0  0  0  0
  -29.7240  -20.8133   21.3944 C   0  0  0  0  0  0  0  0  0  0  0  0
  -19.3779  -16.7208   16.1506 C   0  0  0  0  0  0  0  0  0  0  0  0
  -22.1882  -12.2519   19.9652 C   0  0  0  0  0  0  0  0  0  0  0  0
  -30.9121  -11.3066   19.2858 C   0  0  0  0  0  0  0  0  0  0  0  0
  -23.2753  -13.3210   22.4990 C   0  0  0  0  0  0  0  0  0  0  0  0
  -19.0774  -16.6253   17.6442 C   0  0  0  0  0  0  0  0  0  0  0  0
  -30.7565  -22.0811   18.2854 C   0  0  0  0  0  0  0  0  0  0  0  0
  -20.2926  -17.0520   18.4615 C   0  0  0  0  0  0  0  0  0  0  0  0
  -30.3911  -23.5588   18.4234 C   0  0  0  0  0  0  0  0  0  0  0  0
  -29.6865  -21.1678   18.8858 C   0  0  0  0  0  0  0  0  0  0  0  0
  -31.2910  -17.4536   21.2997 C   0  0  0  0  0  0  0  0  0  0  0  0
  -29.2376  -17.4269   19.8752 C   0  0  0  0  0  0  0  0  0  0  0  0
  -30.7327  -18.6600   22.0498 C   0  0  0  0  0  0  0  0  0  0  0  0
  -28.7107  -18.6245   20.6580 C   0  0  0  0  0  0  0  0  0  0  0  0
  -28.9752  -22.9672   20.4266 C   0  0  0  0  0  0  0  0  0  0  0  0
  -21.4898  -16.1327   18.1910 C   0  0  1  0  0  0  0  0  0  0  0  0
  -28.6304  -12.0274   19.9158 C   0  0  1  0  0  0  0  0  0  1  0  0
  -21.4605  -13.3328   20.7586 C   0  0  1  0  0  0  0  0  0  0  0  0
  -30.0593  -23.9116   19.8843 C   0  0  2  0  0  0  0  0  0  0  0  0
  -29.6000  -10.8332   19.9276 C   0  0  1  0  0  0  0  0  0  0  0  0
  -20.7740  -11.0174   28.1187 C   0  0  0  0  0  0  0  0  0  0  0  0
  -21.4373  -16.3558   24.2545 C   0  0  0  0  0  0  0  0  0  0  0  0
  -21.4542  -15.3524   26.5483 C   0  0  0  0  0  0  0  0  0  0  0  0
  -19.3753  -15.2781   25.1715 C   0  0  0  0  0  0  0  0  0  0  0  0
  -29.9146   -8.4986   19.0969 C   0  0  0  0  0  0  0  0  0  0  0  0
  -21.7737   -8.8657   25.1443 C   0  0  0  0  0  0  0  0  0  0  0  0
  -21.3258  -13.7936   24.5521 C   0  0  1  0  0  0  0  0  0  0  0  0
  -20.9028  -10.6618   26.6457 C   0  0  2  0  0  0  0  0  0  0  0  0
  -20.9155  -15.1851   25.1114 C   0  0  0  0  0  0  0  0  0  0  0  0
  -31.7134  -14.9699   19.9860 N   0  0  0  0  0  0  0  0  0  0  0  0
  -28.3724  -25.7087   19.9607 N   0  0  0  0  0  0  0  0  0  0  0  0
  -29.6706  -25.3700   20.0383 N   0  0  0  0  0  0  0  0  0  0  0  0
  -30.2165  -16.6759   20.6731 N   0  0  0  0  0  0  0  0  0  0  0  0
  -21.8399  -13.3478   22.1729 N   0  0  0  0  0  0  0  0  0  0  0  0
  -29.3745  -21.5677   20.2645 N   0  0  0  0  0  0  0  0  0  0  0  0
  -29.7983  -19.4213   21.2296 N   0  0  0  0  0  0  0  0  0  0  0  0
  -31.8401  -26.2648   20.3595 N   0  0  0  0  0  0  0  0  0  0  0  0
  -30.4518  -29.6700   19.4256 N   0  0  0  0  0  0  0  0  0  0  0  0
  -21.3378  -14.8821   18.9033 N   0  0  0  0  0  0  0  0  0  0  0  0
  -20.8226  -12.6655   25.3285 N   0  0  0  0  0  0  0  0  0  0  0  0
  -29.0344   -9.6991   19.1638 N   0  3  0  0  0  0  0  0  0  0  0  0
  -21.5996   -9.3489   26.5383 N   0  3  0  0  0  0  0  0  0  0  0  0
  -30.2551  -29.3697   21.6905 O   0  0  0  0  0  0  0  0  0  0  0  0
  -22.2059  -15.5647   20.9534 O   0  0  0  0  0  0  0  0  0  0  0  0
  -19.6384  -13.6074   22.8955 O   0  0  0  0  0  0  0  0  0  0  0  0
  -22.8941  -11.7342   25.7959 O   0  0  0  0  0  0  0  0  0  0  0  0
  -29.9591  -21.3490   22.4847 O   0  0  0  0  0  0  0  0  0  0  0  0
  -23.6241  -29.9507   20.0663 O   0  0  0  0  0  0  0  0  0  0  0  0
  -27.7591  -11.9860   21.0294 O   0  0  0  0  0  0  0  0  0  1  0  0
  -20.3447  -29.6103   24.4860 F   0  0  0  0  0  0  0  0  0  0  0  0
  -22.9763  -32.2055   21.5288 F   0  0  0  0  0  0  0  0  0  0  0  0
  1  2  1  0  0  0  0
  1  5  2  0  0  0  0
  2  6  2  0  0  0  0
  3  8  2  0  0  0  0
  3 17  1  0  0  0  0
  4  9  1  0  0  0  0
  4 17  2  0  0  0  0
  5 19  1  0  0  0  0
  6 21  1  0  0  0  0
  7 10  2  0  0  0  0
  7 20  1  0  0  0  0
  8 25  1  0  0  0  0
  9 25  2  0  0  0  0
 10 26  1  0  0  0  0
 11 12  2  0  0  0  0
 11 27  1  0  0  0  0
 12 28  1  0  0  0  0
 13 22  1  0  0  0  0
 13 26  2  0  0  0  0
 14 23  1  0  0  0  0
 14 31  2  0  0  0  0
 15 28  2  0  0  0  0
 15 29  1  0  0  0  0
 16 24  1  0  0  0  0
 16 66  2  0  0  0  0
 17 30  1  0  0  0  0
 18 30  1  0  0  0  0
 18 32  2  0  0  0  0
 18 33  1  0  0  0  0
 19 21  2  0  0  0  0
 19 38  1  0  0  0  0
 20 22  2  0  0  0  0
 20 39  1  0  0  0  0
 21 52  1  0  0  0  0
 22 41  1  0  0  0  0
 23 24  2  0  0  0  0
 23 53  1  0  0  0  0
 24 40  1  0  0  0  0
 25 84  1  0  0  0  0
 26 85  1  0  0  0  0
 27 29  2  0  0  0  0
 27 84  1  0  0  0  0
 28 86  1  0  0  0  0
 29 87  1  0  0  0  0
 30 67  2  0  0  0  0
 31 66  1  0  0  0  0
 31 69  1  0  0  0  0
 32 68  1  0  0  0  0
 32 73  1  0  0  0  0
 33 74  1  0  0  0  0
 33 79  2  0  0  0  0
 34 54  1  0  0  0  0
 34 75  1  0  0  0  0
 34 80  2  0  0  0  0
 35 63  1  0  0  0  0
 35 70  1  0  0  0  0
 35 81  2  0  0  0  0
 36 64  1  0  0  0  0
 36 76  1  0  0  0  0
 36 82  2  0  0  0  0
 37 71  1  0  0  0  0
 37 72  1  0  0  0  0
 37 83  2  0  0  0  0
 38 42  1  0  0  0  0
 39 54  1  0  0  0  0
 40 56  1  0  0  0  0
 41 70  1  0  0  0  0
 42 44  1  0  0  0  0
 43 45  1  0  0  0  0
 43 46  1  0  0  0  0
 44 52  1  0  0  0  0
 45 55  1  0  0  0  0
 46 71  1  0  0  0  0
 47 49  1  0  0  0  0
 47 69  1  0  0  0  0
 48 50  1  0  0  0  0
 48 69  1  0  0  0  0
 49 72  1  0  0  0  0
 50 72  1  0  0  0  0
 51 55  1  0  0  0  0
 51 71  1  0  0  0  0
 52 75  1  0  0  0  0
 53 56  1  0  0  0  0
 53 85  1  0  0  0  0
 54 70  1  0  0  0  0
 55 68  1  0  0  0  0
 56 77  1  0  0  0  0
 57 64  1  0  0  0  0
 58 65  1  0  0  0  0
 59 65  1  0  0  0  0
 60 65  1  0  0  0  0
 61 77  1  0  0  0  0
 62 78  1  0  0  0  0
 63 65  1  0  0  0  0
 63 76  1  0  0  0  0
 64 78  1  0  0  0  0
 67 68  1  0  0  0  0
M  CHG  2  77   1  78   1
M  ISO  4  37 100  53 101  72 100  85 101
M  END
> <Batch ID>
0188

> <Smiles>
CNC(C)C(=O)NC(C(=O)N1Cc2cc([101O:1][101CH:1]3c4cc(N5CC[100N:0]([100C:0](=O)N6CCCC(n7nc(-c8ccc(Oc9ccc(F)cc9F)cc8)c(C(N)=O)c7N)C6)CC5)ncc4CC3NC)ccc2CC1C(=O)NC1CCCc2ccccc21)C(C)(C)C

> <Shape>
0.277

> <Color>
0.066

> <Negative vol penalty>
0.000

$$$$

  -OEChem-04052323193D

 78 86  0     1  0  0  0  0  0999 V2000
  -20.0533  -31.2558   23.3153 C   0  0  0  0  0  0  0  0  0  0  0  0
  -21.3629  -30.7911   23.2495 C   0  0  0  0  0  0  0  0  0  0  0  0
  -28.4363  -17.7266   19.4317 C   0  0  0  0  0  0  0  0  0  0  0  0
  -30.1903  -18.2244   21.0169 C   0  0  0  0  0  0  0  0  0  0  0  0
  -18.9913  -30.3747   23.1158 C   0  0  0  0  0  0  0  0  0  0  0  0
  -21.6113  -29.4447   22.9852 C   0  0  0  0  0  0  0  0  0  0  0  0
  -25.2941  -28.7818   19.5731 C   0  0  0  0  0  0  0  0  0  0  0  0
  -28.3632  -16.4228   19.9221 C   0  0  0  0  0  0  0  0  0  0  0  0
  -30.1172  -16.9207   21.5073 C   0  0  0  0  0  0  0  0  0  0  0  0
  -26.6074  -28.9296   20.0169 C   0  0  0  0  0  0  0  0  0  0  0  0
  -27.9645  -12.8573   20.5151 C   0  0  0  0  0  0  0  0  0  0  0  0
  -27.8942  -11.8172   19.5883 C   0  0  0  0  0  0  0  0  0  0  0  0
  -26.8204  -26.5313   20.1659 C   0  0  0  0  0  0  0  0  0  0  0  0
  -30.0222  -12.4947   18.6665 C   0  0  0  0  0  0  0  0  0  0  0  0
  -29.3499  -18.6274   19.9791 C   0  0  0  0  0  0  0  0  0  0  0  0
  -28.7018  -21.0940   19.9228 C   0  0  0  0  0  0  0  0  0  0  0  0
  -19.2270  -29.0188   22.8394 C   0  0  0  0  0  0  0  0  0  0  0  0
  -24.7295  -27.5059   19.4325 C   0  0  0  0  0  0  0  0  0  0  0  0
  -20.5515  -28.5443   22.7832 C   0  0  0  0  0  0  0  0  0  0  0  0
  -25.5005  -26.3700   19.7176 C   0  0  0  0  0  0  0  0  0  0  0  0
  -29.2036  -16.0198   20.9599 C   0  0  0  0  0  0  0  0  0  0  0  0
  -27.3699  -27.8043   20.3162 C   0  0  0  0  0  0  0  0  0  0  0  0
  -29.0637  -13.7161   20.5175 C   0  0  0  0  0  0  0  0  0  0  0  0
  -28.9230  -11.6359   18.6641 C   0  0  0  0  0  0  0  0  0  0  0  0
  -30.0925  -13.5348   19.5933 C   0  0  0  0  0  0  0  0  0  0  0  0
  -29.4263  -19.9741   19.4726 C   0  0  0  0  0  0  0  0  0  0  0  0
  -29.1322  -22.1252   19.1240 C   0  0  0  0  0  0  0  0  0  0  0  0
  -27.7270  -21.1934   20.9695 C   0  0  0  0  0  0  0  0  0  0  0  0
  -22.2768  -25.9797   20.7587 C   0  0  0  0  0  0  0  0  0  0  0  0
  -23.0114  -23.7036   18.5673 C   0  0  0  0  0  0  0  0  0  0  0  0
  -25.3574  -22.2956   16.5276 C   0  0  0  0  0  0  0  0  0  0  0  0
  -33.2382  -24.9405   16.6022 C   0  0  0  0  0  0  0  0  0  0  0  0
  -18.0459  -28.0949   22.6777 C   0  0  0  0  0  0  0  0  0  0  0  0
  -23.3201  -27.3627   18.9270 C   0  0  0  0  0  0  0  0  0  0  0  0
  -24.9478  -24.9774   19.5639 C   0  0  0  0  0  0  0  0  0  0  0  0
  -18.4019  -26.7585   22.0315 C   0  0  0  0  0  0  0  0  0  0  0  0
  -31.9463  -22.0801   14.9211 C   0  0  0  0  0  0  0  0  0  0  0  0
  -19.6547  -26.1717   22.6742 C   0  0  0  0  0  0  0  0  0  0  0  0
  -31.1214  -21.3669   15.9938 C   0  0  0  0  0  0  0  0  0  0  0  0
  -31.1606  -27.5799   19.3008 C   0  0  0  0  0  0  0  0  0  0  0  0
  -33.2035  -22.7185   15.5075 C   0  0  0  0  0  0  0  0  0  0  0  0
  -32.1400  -22.9070   17.7227 C   0  0  0  0  0  0  0  0  0  0  0  0
  -31.6913  -29.8701   19.6443 C   0  0  0  0  0  0  0  0  0  0  0  0
  -20.8619  -27.0958   22.4742 C   0  0  1  0  0  0  0  0  0  0  0  0
  -22.6795  -26.0327   19.3121 C   0  0  1  0  0  0  0  0  0  0  0  0
  -30.8468  -28.7481   20.2276 C   0  0  1  0  0  0  0  0  0  0  0  0
  -30.8335  -22.2951   17.1891 C   0  0  2  0  0  0  0  0  0  0  0  0
  -32.6686  -27.6913   19.1172 C   0  0  1  0  0  0  0  0  0  0  0  0
  -25.6718  -20.4250   14.8846 C   0  0  0  0  0  0  0  0  0  0  0  0
  -23.1415  -21.7061   20.8701 C   0  0  0  0  0  0  0  0  0  0  0  0
  -24.3583  -20.1353   19.3469 C   0  0  0  0  0  0  0  0  0  0  0  0
  -22.0293  -20.8439   18.8028 C   0  0  0  0  0  0  0  0  0  0  0  0
  -26.0064  -24.1750   14.3354 C   0  0  0  0  0  0  0  0  0  0  0  0
  -29.3726  -29.0866   20.2863 C   0  0  0  0  0  0  0  0  0  1  0  0
  -33.1801  -27.1034   17.8177 C   0  0  0  0  0  0  0  0  0  0  0  0
  -23.9218  -22.4997   18.5404 C   0  0  1  0  0  0  0  0  0  0  0  0
  -25.3084  -21.8906   15.0654 C   0  0  2  0  0  0  0  0  0  0  0  0
  -23.3728  -21.3224   19.3949 C   0  0  0  0  0  0  0  0  0  0  0  0
  -30.2540  -20.2662   18.4658 N   0  0  0  0  0  0  0  0  0  0  0  0
  -30.0522  -21.5813   18.2767 N   0  0  0  0  0  0  0  0  0  0  0  0
  -23.5628  -24.8896   19.0725 N   0  0  0  0  0  0  0  0  0  0  0  0
  -32.8611  -23.5878   16.6358 N   0  0  0  0  0  0  0  0  0  0  0  0
  -28.8095  -23.4349   19.0708 N   0  0  0  0  0  0  0  0  0  0  0  0
  -27.4017  -20.0370   21.6916 N   0  0  0  0  0  0  0  0  0  0  0  0
  -21.3816  -26.9647   21.1299 N   0  0  0  0  0  0  0  0  0  0  0  0
  -24.1248  -22.1727   17.1332 N   0  0  0  0  0  0  0  0  0  0  0  0
  -32.8690  -25.6955   17.7087 N   0  0  0  0  0  0  0  0  0  0  0  0
  -32.9315  -29.1757   19.1549 N   0  3  0  0  0  0  0  0  0  0  0  0
  -26.2615  -22.7130   14.2678 N   0  3  0  0  0  0  0  0  0  0  0  0
  -27.1492  -22.2721   21.2452 O   0  0  0  0  0  0  0  0  0  0  0  0
  -22.7427  -25.1087   21.4840 O   0  0  0  0  0  0  0  0  0  0  0  0
  -21.8560  -23.5976   18.1486 O   0  0  0  0  0  0  0  0  0  0  0  0
  -26.3871  -22.6788   17.0784 O   0  0  0  0  0  0  0  0  0  0  0  0
  -33.8534  -25.4396   15.6538 O   0  0  0  0  0  0  0  0  0  0  0  0
  -29.1324  -14.7478   21.4388 O   0  0  0  0  0  0  0  0  0  0  0  0
  -28.6519  -27.9457   20.7502 O   0  0  0  0  0  0  0  0  0  1  0  0
  -28.8561  -10.6361   17.7752 F   0  0  0  0  0  0  0  0  0  0  0  0
  -31.1515  -14.3560   19.5915 F   0  0  0  0  0  0  0  0  0  0  0  0
  1  2  1  0  0  0  0
  1  5  2  0  0  0  0
  2  6  2  0  0  0  0
  3  8  2  0  0  0  0
  3 15  1  0  0  0  0
  4  9  1  0  0  0  0
  4 15  2  0  0  0  0
  5 17  1  0  0  0  0
  6 19  1  0  0  0  0
  7 10  2  0  0  0  0
  7 18  1  0  0  0  0
  8 21  1  0  0  0  0
  9 21  2  0  0  0  0
 10 22  1  0  0  0  0
 11 12  2  0  0  0  0
 11 23  1  0  0  0  0
 12 24  1  0  0  0  0
 13 20  1  0  0  0  0
 13 22  2  0  0  0  0
 14 24  2  0  0  0  0
 14 25  1  0  0  0  0
 15 26  1  0  0  0  0
 16 26  1  0  0  0  0
 16 27  2  0  0  0  0
 16 28  1  0  0  0  0
 17 19  2  0  0  0  0
 17 33  1  0  0  0  0
 18 20  2  0  0  0  0
 18 34  1  0  0  0  0
 19 44  1  0  0  0  0
 20 35  1  0  0  0  0
 21 75  1  0  0  0  0
 22 76  1  0  0  0  0
 23 25  2  0  0  0  0
 23 75  1  0  0  0  0
 24 77  1  0  0  0  0
 25 78  1  0  0  0  0
 26 59  2  0  0  0  0
 27 60  1  0  0  0  0
 27 63  1  0  0  0  0
 28 64  1  0  0  0  0
 28 70  2  0  0  0  0
 29 45  1  0  0  0  0
 29 65  1  0  0  0  0
 29 71  2  0  0  0  0
 30 56  1  0  0  0  0
 30 61  1  0  0  0  0
 30 72  2  0  0  0  0
 31 57  1  0  0  0  0
 31 66  1  0  0  0  0
 31 73  2  0  0  0  0
 32 62  1  0  0  0  0
 32 67  1  0  0  0  0
 32 74  2  0  0  0  0
 33 36  1  0  0  0  0
 34 45  1  0  0  0  0
 35 61  1  0  0  0  0
 36 38  1  0  0  0  0
 37 39  1  0  0  0  0
 37 41  1  0  0  0  0
 38 44  1  0  0  0  0
 39 47  1  0  0  0  0
 40 46  1  0  0  0  0
 40 48  1  0  0  0  0
 41 62  1  0  0  0  0
 42 47  1  0  0  0  0
 42 62  1  0  0  0  0
 43 46  1  0  0  0  0
 43 68  1  0  0  0  0
 44 65  1  0  0  0  0
 45 61  1  0  0  0  0
 46 54  1  0  0  0  0
 47 60  1  0  0  0  0
 48 55  1  0  0  0  0
 48 68  1  0  0  0  0
 49 57  1  0  0  0  0
 50 58  1  0  0  0  0
 51 58  1  0  0  0  0
 52 58  1  0  0  0  0
 53 69  1  0  0  0  0
 54 76  1  0  0  0  0
 55 67  1  0  0  0  0
 56 58  1  0  0  0  0
 56 66  1  0  0  0  0
 57 69  1  0  0  0  0
 59 60  1  0  0  0  0
M  CHG  2  68   1  69   1
M  ISO  4  32 100  54 101  67 100  76 101
M  END
> <Batch ID>
0188

> <Smiles>
CNC(C)C(=O)NC(C(=O)N1Cc2cc([101O:1][101CH2:1]C3CNC(C[100NH:0][100C:0](=O)N4CCCC(n5nc(-c6ccc(Oc7ccc(F)cc7F)cc6)c(C(N)=O)c5N)C4)C3)ccc2CC1C(=O)NC1CCCc2ccccc21)C(C)(C)C

> <Shape>
0.240

> <Color>
0.068

> <Negative vol penalty>
0.000

$$$$

  -OEChem-04052323193D

 81 90  0     1  0  0  0  0  0999 V2000
  -27.8181  -37.2279   25.6196 C   0  0  0  0  0  0  0  0  0  0  0  0
  -28.4164  -36.4793   24.6111 C   0  0  0  0  0  0  0  0  0  0  0  0
  -23.8880  -12.7558   19.0278 C   0  0  0  0  0  0  0  0  0  0  0  0
  -25.2256  -11.8508   20.8246 C   0  0  0  0  0  0  0  0  0  0  0  0
  -26.9307  -36.6185   26.5056 C   0  0  0  0  0  0  0  0  0  0  0  0
  -28.1284  -35.1205   24.4886 C   0  0  0  0  0  0  0  0  0  0  0  0
  -27.4338  -29.9843   19.5436 C   0  0  0  0  0  0  0  0  0  0  0  0
  -23.8805  -11.5078   18.4048 C   0  0  0  0  0  0  0  0  0  0  0  0
  -25.2181  -10.6028   20.2017 C   0  0  0  0  0  0  0  0  0  0  0  0
  -27.8971  -28.7028   19.2493 C   0  0  0  0  0  0  0  0  0  0  0  0
  -23.2054   -8.4718   16.5227 C   0  0  0  0  0  0  0  0  0  0  0  0
  -21.9916   -8.0070   16.0166 C   0  0  0  0  0  0  0  0  0  0  0  0
  -26.2878  -27.7742   20.7878 C   0  0  0  0  0  0  0  0  0  0  0  0
  -21.0320   -8.1009   18.2318 C   0  0  0  0  0  0  0  0  0  0  0  0
  -24.5606  -12.9273   20.2377 C   0  0  0  0  0  0  0  0  0  0  0  0
  -23.6399  -14.7044   21.8194 C   0  0  0  0  0  0  0  0  0  0  0  0
  -26.6242  -35.2536   26.3880 C   0  0  0  0  0  0  0  0  0  0  0  0
  -26.3995  -30.1716   20.4719 C   0  0  0  0  0  0  0  0  0  0  0  0
  -27.2370  -34.4919   25.3747 C   0  0  0  0  0  0  0  0  0  0  0  0
  -25.8114  -29.0590   21.0902 C   0  0  0  0  0  0  0  0  0  0  0  0
  -24.5454  -10.4313   18.9917 C   0  0  0  0  0  0  0  0  0  0  0  0
  -27.3261  -27.5976   19.8736 C   0  0  0  0  0  0  0  0  0  0  0  0
  -23.3326   -8.7512   17.8834 C   0  0  0  0  0  0  0  0  0  0  0  0
  -20.9049   -7.8216   16.8711 C   0  0  0  0  0  0  0  0  0  0  0  0
  -22.2458   -8.5657   18.7380 C   0  0  0  0  0  0  0  0  0  0  0  0
  -24.5693  -14.2163   20.8814 C   0  0  0  0  0  0  0  0  0  0  0  0
  -24.0884  -15.9667   22.1224 C   0  0  0  0  0  0  0  0  0  0  0  0
  -22.4752  -14.0731   22.3678 C   0  0  0  0  0  0  0  0  0  0  0  0
  -26.1359  -31.6650   23.2654 C   0  0  0  0  0  0  0  0  0  0  0  0
  -23.0058  -30.8739   22.9512 C   0  0  0  0  0  0  0  0  0  0  0  0
  -20.6637  -28.8072   21.5762 C   0  0  0  0  0  0  0  0  0  0  0  0
  -29.5813  -18.2940   21.7796 C   0  0  0  0  0  0  0  0  0  0  0  0
  -25.6953  -34.6285   27.3984 C   0  0  0  0  0  0  0  0  0  0  0  0
  -25.8929  -31.5586   20.7583 C   0  0  0  0  0  0  0  0  0  0  0  0
  -24.6847  -29.2047   22.0791 C   0  0  0  0  0  0  0  0  0  0  0  0
  -25.1557  -33.2666   26.9689 C   0  0  0  0  0  0  0  0  0  0  0  0
  -26.5294  -19.6274   20.2457 C   0  0  0  0  0  0  0  0  0  0  0  0
  -26.2835  -32.3904   26.4331 C   0  0  0  0  0  0  0  0  0  0  0  0
  -25.6013  -18.4133   20.3092 C   0  0  0  0  0  0  0  0  0  0  0  0
  -32.5951  -24.5669   20.8415 C   0  0  0  0  0  0  0  0  0  0  0  0
  -27.9736  -19.1984   20.0158 C   0  0  0  0  0  0  0  0  0  0  0  0
  -31.6803  -19.6664   22.2574 C   0  0  0  0  0  0  0  0  0  0  0  0
  -30.2730  -20.7122   21.0529 C   0  0  0  0  0  0  0  0  0  0  0  0
  -27.5771  -17.0215   21.0951 C   0  0  0  0  0  0  0  0  0  0  0  0
  -26.9310  -33.0209   25.1942 C   0  0  1  0  0  0  0  0  0  0  0  0
  -25.1827  -31.6692   22.1039 C   0  0  1  0  0  0  0  0  0  0  0  0
  -31.8614  -23.5292   21.6487 C   0  0  1  0  0  0  0  0  0  0  0  0
  -31.2812  -21.1468   22.1336 C   0  0  0  0  0  0  0  0  0  0  0  0
  -26.1002  -17.3831   21.3390 C   0  0  2  0  0  0  0  0  0  0  0  0
  -31.2509  -24.0697   20.3832 C   0  0  1  0  0  0  0  0  0  0  0  0
  -18.1904  -28.3850   21.5345 C   0  0  0  0  0  0  0  0  0  0  0  0
  -23.1790  -29.6006   25.7186 C   0  0  0  0  0  0  0  0  0  0  0  0
  -21.0376  -28.4013   25.2244 C   0  0  0  0  0  0  0  0  0  0  0  0
  -21.0812  -30.8945   25.2951 C   0  0  0  0  0  0  0  0  0  0  0  0
  -20.5116  -29.2989   18.6617 C   0  0  0  0  0  0  0  0  0  0  0  0
  -32.3706  -22.1059   21.6981 C   0  0  0  0  0  0  0  0  0  0  0  0
  -28.7667  -24.3229   20.4426 C   0  0  0  0  0  0  0  0  0  0  0  0
  -27.6855  -25.3698   20.6244 C   0  0  0  0  0  0  0  0  0  1  0  0
  -22.1570  -29.6907   23.3494 C   0  0  1  0  0  0  0  0  0  0  0  0
  -19.3543  -29.1002   20.8662 C   0  0  2  0  0  0  0  0  0  0  0  0
  -21.8862  -29.6438   24.8797 C   0  0  0  0  0  0  0  0  0  0  0  0
  -25.5353  -15.0969   20.6065 N   0  0  0  0  0  0  0  0  0  0  0  0
  -25.2152  -16.1510   21.3763 N   0  0  0  0  0  0  0  0  0  0  0  0
  -24.2286  -30.5818   22.3306 N   0  0  0  0  0  0  0  0  0  0  0  0
  -28.4009  -18.2334   21.0338 N   0  0  0  0  0  0  0  0  0  0  0  0
  -30.4208  -19.3649   21.5825 N   0  0  0  0  0  0  0  0  0  0  0  0
  -23.6250  -16.9260   22.9515 N   0  0  0  0  0  0  0  0  0  0  0  0
  -22.1591  -12.7739   21.9477 N   0  0  0  0  0  0  0  0  0  0  0  0
  -26.0976  -32.8161   24.0289 N   0  0  0  0  0  0  0  0  0  0  0  0
  -20.9511  -29.7595   22.5311 N   0  0  0  0  0  0  0  0  0  0  0  0
  -30.1074  -24.9802   20.5161 N   0  3  0  0  0  0  0  0  0  0  0  0
  -19.4250  -28.6567   19.4452 N   0  3  0  0  0  0  0  0  0  0  0  0
  -21.7276  -14.6504   23.1932 O   0  0  0  0  0  0  0  0  0  0  0  0
  -26.8521  -30.6890   23.4557 O   0  0  0  0  0  0  0  0  0  0  0  0
  -22.5956  -32.0153   23.1759 O   0  0  0  0  0  0  0  0  0  0  0  0
  -21.3600  -27.8293   21.3128 O   0  0  0  0  0  0  0  0  0  0  0  0
  -29.8651  -17.4328   22.6227 O   0  0  0  0  0  0  0  0  0  0  0  0
  -24.5381   -9.2133   18.3842 O   0  0  0  0  0  0  0  0  0  0  0  0
  -27.7802  -26.3367   19.5867 O   0  0  0  0  0  0  0  0  0  1  0  0
  -19.7389   -7.3767   16.3847 F   0  0  0  0  0  0  0  0  0  0  0  0
  -22.3616   -8.8335   20.0459 F   0  0  0  0  0  0  0  0  0  0  0  0
  1  2  1  0  0  0  0
  1  5  2  0  0  0  0
  2  6  2  0  0  0  0
  3  8  2  0  0  0  0
  3 15  1  0  0  0  0
  4  9  1  0  0  0  0
  4 15  2  0  0  0  0
  5 17  1  0  0  0  0
  6 19  1  0  0  0  0
  7 10  2  0  0  0  0
  7 18  1  0  0  0  0
  8 21  1  0  0  0  0
  9 21  2  0  0  0  0
 10 22  1  0  0  0  0
 11 12  2  0  0  0  0
 11 23  1  0  0  0  0
 12 24  1  0  0  0  0
 13 20  1  0  0  0  0
 13 22  2  0  0  0  0
 14 24  2  0  0  0  0
 14 25  1  0  0  0  0
 15 26  1  0  0  0  0
 16 26  1  0  0  0  0
 16 27  2  0  0  0  0
 16 28  1  0  0  0  0
 17 19  2  0  0  0  0
 17 33  1  0  0  0  0
 18 20  2  0  0  0  0
 18 34  1  0  0  0  0
 19 45  1  0  0  0  0
 20 35  1  0  0  0  0
 21 78  1  0  0  0  0
 22 79  1  0  0  0  0
 23 25  2  0  0  0  0
 23 78  1  0  0  0  0
 24 80  1  0  0  0  0
 25 81  1  0  0  0  0
 26 62  2  0  0  0  0
 27 63  1  0  0  0  0
 27 67  1  0  0  0  0
 28 68  1  0  0  0  0
 28 73  2  0  0  0  0
 29 46  1  0  0  0  0
 29 69  1  0  0  0  0
 29 74  2  0  0  0  0
 30 59  1  0  0  0  0
 30 64  1  0  0  0  0
 30 75  2  0  0  0  0
 31 60  1  0  0  0  0
 31 70  1  0  0  0  0
 31 76  2  0  0  0  0
 32 65  1  0  0  0  0
 32 66  1  0  0  0  0
 32 77  2  0  0  0  0
 33 36  1  0  0  0  0
 34 46  1  0  0  0  0
 35 64  1  0  0  0  0
 36 38  1  0  0  0  0
 37 39  1  0  0  0  0
 37 41  1  0  0  0  0
 38 45  1  0  0  0  0
 39 49  1  0  0  0  0
 40 47  1  0  0  0  0
 40 50  1  0  0  0  0
 41 65  1  0  0  0  0
 42 48  1  0  0  0  0
 42 66  1  0  0  0  0
 43 48  1  0  0  0  0
 43 66  1  0  0  0  0
 44 49  1  0  0  0  0
 44 65  1  0  0  0  0
 45 69  1  0  0  0  0
 46 64  1  0  0  0  0
 47 50  1  0  0  0  0
 47 56  1  0  0  0  0
 48 56  1  0  0  0  0
 49 63  1  0  0  0  0
 50 71  1  0  0  0  0
 51 60  1  0  0  0  0
 52 61  1  0  0  0  0
 53 61  1  0  0  0  0
 54 61  1  0  0  0  0
 55 72  1  0  0  0  0
 57 58  1  0  0  0  0
 57 71  1  0  0  0  0
 58 79  1  0  0  0  0
 59 61  1  0  0  0  0
 59 70  1  0  0  0  0
 60 72  1  0  0  0  0
 62 63  1  0  0  0  0
M  CHG  2  71   1  72   1
M  ISO  4  32 100  58 101  66 100  79 101
M  END
> <Batch ID>
0188

> <Smiles>
CNC(C)C(=O)NC(C(=O)N1Cc2cc([101O:1][101CH2:1]CNC3CC3CC3C[100N:0]([100C:0](=O)N4CCCC(n5nc(-c6ccc(Oc7ccc(F)cc7F)cc6)c(C(N)=O)c5N)C4)C3)ccc2CC1C(=O)NC1CCCc2ccccc21)C(C)(C)C

> <Shape>
0.245

> <Color>
0.090

> <Negative vol penalty>
0.000

$$$$

  -OEChem-04052323193D

 86 96  0     1  0  0  0  0  0999 V2000
  -21.1597  -26.0026   21.9000 C   0  0  0  0  0  0  0  0  0  0  0  0
  -21.8625  -24.8504   21.5622 C   0  0  0  0  0  0  0  0  0  0  0  0
  -27.3973  -22.5085   21.5313 C   0  0  0  0  0  0  0  0  0  0  0  0
  -28.2593  -23.4341   19.4728 C   0  0  0  0  0  0  0  0  0  0  0  0
  -20.0202  -25.9138   22.6984 C   0  0  0  0  0  0  0  0  0  0  0  0
  -21.4268  -23.6088   22.0237 C   0  0  0  0  0  0  0  0  0  0  0  0
  -21.7853  -18.2528   19.0759 C   0  0  0  0  0  0  0  0  0  0  0  0
  -27.2301  -23.7963   22.0404 C   0  0  0  0  0  0  0  0  0  0  0  0
  -28.0921  -24.7220   19.9819 C   0  0  0  0  0  0  0  0  0  0  0  0
  -22.6895  -17.1949   19.1593 C   0  0  0  0  0  0  0  0  0  0  0  0
  -25.5577  -26.9124   20.4286 C   0  0  0  0  0  0  0  0  0  0  0  0
  -24.9816  -27.8685   19.5923 C   0  0  0  0  0  0  0  0  0  0  0  0
  -21.2036  -16.0525   20.6780 C   0  0  0  0  0  0  0  0  0  0  0  0
  -26.9765  -29.2205   19.7635 C   0  0  0  0  0  0  0  0  0  0  0  0
  -24.8910  -10.8279   21.3099 C   0  0  0  0  0  0  0  0  0  0  0  0
  -27.9119  -22.3274   20.2475 C   0  0  0  0  0  0  0  0  0  0  0  0
  -27.1481  -20.2437   18.9896 C   0  0  0  0  0  0  0  0  0  0  0  0
  -19.5647  -24.6695   23.1619 C   0  0  0  0  0  0  0  0  0  0  0  0
  -20.5863  -18.2233   19.8026 C   0  0  0  0  0  0  0  0  0  0  0  0
  -20.2808  -23.5035   22.8302 C   0  0  0  0  0  0  0  0  0  0  0  0
  -20.2846  -17.1101   20.6000 C   0  0  0  0  0  0  0  0  0  0  0  0
  -27.5775  -24.9031   21.2657 C   0  0  0  0  0  0  0  0  0  0  0  0
  -22.4001  -16.0958   19.9627 C   0  0  0  0  0  0  0  0  0  0  0  0
  -26.8433  -27.1104   20.9325 C   0  0  0  0  0  0  0  0  0  0  0  0
  -25.6909  -29.0225   19.2597 C   0  0  0  0  0  0  0  0  0  0  0  0
  -27.5527  -28.2644   20.5999 C   0  0  0  0  0  0  0  0  0  0  0  0
  -23.8040  -11.6764   21.3642 C   0  0  0  0  0  0  0  0  0  0  0  0
  -28.0853  -20.9973   19.7212 C   0  0  0  0  0  0  0  0  0  0  0  0
  -24.0183  -12.9526   20.8850 C   0  0  0  0  0  0  0  0  0  0  0  0
  -27.7911  -19.0592   18.7253 C   0  0  0  0  0  0  0  0  0  0  0  0
  -26.1808  -12.4576   20.3893 C   0  0  0  0  0  0  0  0  0  0  0  0
  -25.8153  -20.5839   18.5850 C   0  0  0  0  0  0  0  0  0  0  0  0
  -19.3095  -20.0146   22.0971 C   0  0  0  0  0  0  0  0  0  0  0  0
  -16.7341  -18.1009   21.6201 C   0  0  0  0  0  0  0  0  0  0  0  0
  -15.5110  -15.1090   20.5252 C   0  0  0  0  0  0  0  0  0  0  0  0
  -30.8960  -14.8610   20.9430 C   0  0  0  0  0  0  0  0  0  0  0  0
  -18.3549  -24.6284   24.0615 C   0  0  0  0  0  0  0  0  0  0  0  0
  -19.6093  -19.3604   19.6809 C   0  0  0  0  0  0  0  0  0  0  0  0
  -19.0019  -17.0207   21.3843 C   0  0  0  0  0  0  0  0  0  0  0  0
  -17.7455  -23.2357   24.1996 C   0  0  0  0  0  0  0  0  0  0  0  0
  -32.6221  -17.7032   19.2981 C   0  0  0  0  0  0  0  0  0  0  0  0
  -18.8347  -22.1998   24.4596 C   0  0  0  0  0  0  0  0  0  0  0  0
  -31.5334  -18.7756   19.2765 C   0  0  0  0  0  0  0  0  0  0  0  0
  -29.5699  -13.4543   18.0471 C   0  0  0  0  0  0  0  0  0  0  0  0
  -29.2086  -12.0247   18.4775 C   0  0  0  0  0  0  0  0  0  0  0  0
  -32.4324  -16.7250   20.4536 C   0  0  0  0  0  0  0  0  0  0  0  0
  -30.0024  -17.1646   20.4728 C   0  0  0  0  0  0  0  0  0  0  0  0
  -27.6082  -14.2318   19.3806 C   0  0  0  0  0  0  0  0  0  0  0  0
  -29.6388  -12.7340   20.8352 C   0  0  0  0  0  0  0  0  0  0  0  0
  -19.8254  -22.1358   23.2909 C   0  0  1  0  0  0  0  0  0  0  0  0
  -18.6534  -19.4563   20.8660 C   0  0  1  0  0  0  0  0  0  0  0  0
  -30.1345  -18.1349   19.2903 C   0  0  1  0  0  0  0  0  0  0  0  0
  -29.1160  -14.4466   19.1352 C   0  0  1  0  0  0  0  0  0  0  0  0
  -28.6304  -12.0350   19.9095 C   0  0  1  0  0  0  0  0  0  0  0  0
  -13.3695  -13.8208   20.2977 C   0  0  0  0  0  0  0  0  0  0  0  0
  -16.7692  -17.5185   24.6150 C   0  0  0  0  0  0  0  0  0  0  0  0
  -15.2766  -15.5561   24.1802 C   0  0  0  0  0  0  0  0  0  0  0  0
  -14.4896  -17.8621   23.6457 C   0  0  0  0  0  0  0  0  0  0  0  0
  -15.7792  -14.9576   17.5817 C   0  0  0  0  0  0  0  0  0  0  0  0
  -22.9225  -13.9679   20.8874 C   0  0  0  0  0  0  0  0  0  1  0  0
  -16.2574  -16.7878   22.1922 C   0  0  1  0  0  0  0  0  0  0  0  0
  -14.3431  -14.7700   19.6167 C   0  0  2  0  0  0  0  0  0  0  0  0
  -15.7233  -16.9334   23.6452 C   0  0  0  0  0  0  0  0  0  0  0  0
  -26.0986  -11.1867   20.8270 N   0  0  0  0  0  0  0  0  0  0  0  0
  -29.2362  -20.3462   19.9098 N   0  0  0  0  0  0  0  0  0  0  0  0
  -25.1984  -13.3787   20.3887 N   0  0  0  0  0  0  0  0  0  0  0  0
  -29.0263  -19.1708   19.2929 N   0  0  0  0  0  0  0  0  0  0  0  0
  -27.4091  -12.8614   19.8859 N   0  0  3  0  0  0  0  0  0  0  0  0
  -18.0816  -18.1604   21.2373 N   0  0  0  0  0  0  0  0  0  0  0  0
  -31.0801  -16.1673   20.4686 N   0  0  0  0  0  0  0  0  0  0  0  0
  -29.8516  -14.1158   20.3817 N   0  0  0  0  0  0  0  0  0  0  0  0
  -27.4149  -17.9433   18.0651 N   0  0  0  0  0  0  0  0  0  0  0  0
  -25.3100  -21.8421   18.9400 N   0  0  0  0  0  0  0  0  0  0  0  0
  -19.2572  -21.3925   22.1868 N   0  0  0  0  0  0  0  0  0  0  0  0
  -15.2795  -16.2613   21.2461 N   0  0  0  0  0  0  0  0  0  0  0  0
  -14.8308  -14.1246   18.3650 N   0  3  0  0  0  0  0  0  0  0  0  0
  -25.0880  -19.7893   17.9423 O   0  0  0  0  0  0  0  0  0  0  0  0
  -19.8238  -19.2516   22.9065 O   0  0  0  0  0  0  0  0  0  0  0  0
  -15.9384  -19.0371   21.5101 O   0  0  0  0  0  0  0  0  0  0  0  0
  -16.5255  -14.4184   20.5917 O   0  0  0  0  0  0  0  0  0  0  0  0
  -31.6387  -14.3804   21.8087 O   0  0  0  0  0  0  0  0  0  0  0  0
  -27.4143  -26.1599   21.7621 O   0  0  0  0  0  0  0  0  0  0  0  0
  -23.2875  -15.0548   20.0471 O   0  0  0  0  0  0  0  0  0  1  0  0
  -25.1381  -29.9399   18.4553 F   0  0  0  0  0  0  0  0  0  0  0  0
  -28.7886  -28.4596   21.0799 F   0  0  0  0  0  0  0  0  0  0  0  0
  -22.3030  -11.1414   21.9943 Cl  0  0  0  0  0  0  0  0  0  0  0  0
  1  2  1  0  0  0  0
  1  5  2  0  0  0  0
  2  6  2  0  0  0  0
  3  8  2  0  0  0  0
  3 16  1  0  0  0  0
  4  9  1  0  0  0  0
  4 16  2  0  0  0  0
  5 18  1  0  0  0  0
  6 20  1  0  0  0  0
  7 10  2  0  0  0  0
  7 19  1  0  0  0  0
  8 22  1  0  0  0  0
  9 22  2  0  0  0  0
 10 23  1  0  0  0  0
 11 12  2  0  0  0  0
 11 24  1  0  0  0  0
 12 25  1  0  0  0  0
 13 21  1  0  0  0  0
 13 23  2  0  0  0  0
 14 25  2  0  0  0  0
 14 26  1  0  0  0  0
 15 27  1  0  0  0  0
 15 64  2  0  0  0  0
 16 28  1  0  0  0  0
 17 28  1  0  0  0  0
 17 30  2  0  0  0  0
 17 32  1  0  0  0  0
 18 20  2  0  0  0  0
 18 37  1  0  0  0  0
 19 21  2  0  0  0  0
 19 38  1  0  0  0  0
 20 50  1  0  0  0  0
 21 39  1  0  0  0  0
 22 82  1  0  0  0  0
 23 83  1  0  0  0  0
 24 26  2  0  0  0  0
 24 82  1  0  0  0  0
 25 84  1  0  0  0  0
 26 85  1  0  0  0  0
 27 29  2  0  0  0  0
 27 86  1  0  0  0  0
 28 65  2  0  0  0  0
 29 60  1  0  0  0  0
 29 66  1  0  0  0  0
 30 67  1  0  0  0  0
 30 72  1  0  0  0  0
 31 64  1  0  0  0  0
 31 66  2  0  0  0  0
 31 68  1  0  0  0  0
 32 73  1  0  0  0  0
 32 77  2  0  0  0  0
 33 51  1  0  0  0  0
 33 74  1  0  0  0  0
 33 78  2  0  0  0  0
 34 61  1  0  0  0  0
 34 69  1  0  0  0  0
 34 79  2  0  0  0  0
 35 62  1  0  0  0  0
 35 75  1  0  0  0  0
 35 80  2  0  0  0  0
 36 70  1  0  0  0  0
 36 71  1  0  0  0  0
 36 81  2  0  0  0  0
 37 40  1  0  0  0  0
 38 51  1  0  0  0  0
 39 69  1  0  0  0  0
 40 42  1  0  0  0  0
 41 43  1  0  0  0  0
 41 46  1  0  0  0  0
 42 50  1  0  0  0  0
 43 52  1  0  0  0  0
 44 45  1  0  0  0  0
 44 53  1  0  0  0  0
 45 54  1  0  0  0  0
 46 70  1  0  0  0  0
 47 52  1  0  0  0  0
 47 70  1  0  0  0  0
 48 53  1  0  0  0  0
 48 68  1  0  0  0  0
 49 54  1  0  0  0  0
 49 71  1  0  0  0  0
 50 74  1  0  0  0  0
 51 69  1  0  0  0  0
 52 67  1  0  0  0  0
 53 71  1  0  0  0  0
 54 68  1  0  0  0  0
 55 62  1  0  0  0  0
 56 63  1  0  0  0  0
 57 63  1  0  0  0  0
 58 63  1  0  0  0  0
 59 76  1  0  0  0  0
 60 83  1  0  0  0  0
 61 63  1  0  0  0  0
 61 75  1  0  0  0  0
 62 76  1  0  0  0  0
 65 67  1  0  0  0  0
M  CHG  1  76   1
M  ISO  4  36 100  60 101  71 100  83 101
M  END
> <Batch ID>
0188

> <Smiles>
CNC(C)C(=O)NC(C(=O)N1Cc2cc([101O:1][101CH2:1]c3nc(N4CC5CCC4C[100N:0]5[100C:0](=O)N4CCCC(n5nc(-c6ccc(Oc7ccc(F)cc7F)cc6)c(C(N)=O)c5N)C4)ncc3Cl)ccc2CC1C(=O)NC1CCCc2ccccc21)C(C)(C)C

> <Shape>
0.202

> <Color>
0.100

> <Negative vol penalty>
0.000

$$$$

  -OEChem-04052323193D

 86 95  0     1  0  0  0  0  0999 V2000
  -16.8226  -30.3336   23.9281 C   0  0  0  0  0  0  0  0  0  0  0  0
  -18.0233  -30.7951   24.4580 C   0  0  0  0  0  0  0  0  0  0  0  0
  -24.8173  -15.4121   19.8415 C   0  0  0  0  0  0  0  0  0  0  0  0
  -26.6870  -15.5414   21.3662 C   0  0  0  0  0  0  0  0  0  0  0  0
  -16.8081  -29.1919   23.1280 C   0  0  0  0  0  0  0  0  0  0  0  0
  -19.2102  -30.1144   24.1890 C   0  0  0  0  0  0  0  0  0  0  0  0
  -26.2101  -31.2732   23.2018 C   0  0  0  0  0  0  0  0  0  0  0  0
  -24.8937  -14.0196   19.8658 C   0  0  0  0  0  0  0  0  0  0  0  0
  -26.7634  -14.1489   21.3906 C   0  0  0  0  0  0  0  0  0  0  0  0
  -27.4501  -30.8365   23.6660 C   0  0  0  0  0  0  0  0  0  0  0  0
  -24.3666  -10.4232   19.8092 C   0  0  0  0  0  0  0  0  0  0  0  0
  -23.1753   -9.7106   19.9451 C   0  0  0  0  0  0  0  0  0  0  0  0
  -27.3154  -28.9211   22.2059 C   0  0  0  0  0  0  0  0  0  0  0  0
  -32.8300  -27.4140   20.1703 C   0  0  0  0  0  0  0  0  0  0  0  0
  -22.7682  -10.7953   22.0652 C   0  0  0  0  0  0  0  0  0  0  0  0
  -34.2413  -29.0681   18.5216 C   0  0  0  0  0  0  0  0  0  0  0  0
  -25.7139  -16.1730   20.5916 C   0  0  0  0  0  0  0  0  0  0  0  0
  -24.8816  -18.4371   21.4216 C   0  0  0  0  0  0  0  0  0  0  0  0
  -17.9968  -28.5024   22.8411 C   0  0  0  0  0  0  0  0  0  0  0  0
  -25.5073  -30.5301   22.2425 C   0  0  0  0  0  0  0  0  0  0  0  0
  -19.2114  -28.9616   23.3854 C   0  0  0  0  0  0  0  0  0  0  0  0
  -26.0679  -29.3518   21.7292 C   0  0  0  0  0  0  0  0  0  0  0  0
  -33.3655  -28.5912   20.6808 C   0  0  0  0  0  0  0  0  0  0  0  0
  -25.8668  -13.3879   20.6404 C   0  0  0  0  0  0  0  0  0  0  0  0
  -28.0016  -29.6588   23.1702 C   0  0  0  0  0  0  0  0  0  0  0  0
  -24.7588  -11.3218   20.8013 C   0  0  0  0  0  0  0  0  0  0  0  0
  -22.3761   -9.8966   21.0731 C   0  0  0  0  0  0  0  0  0  0  0  0
  -23.9596  -11.5079   21.9293 C   0  0  0  0  0  0  0  0  0  0  0  0
  -34.0859  -29.4395   19.8474 C   0  0  0  0  0  0  0  0  0  0  0  0
  -25.6359  -17.6116   20.5664 C   0  0  0  0  0  0  0  0  0  0  0  0
  -33.0414  -27.1333   18.8300 C   0  0  0  0  0  0  0  0  0  0  0  0
  -25.1471  -19.7133   20.9891 C   0  0  0  0  0  0  0  0  0  0  0  0
  -24.0182  -18.0820   22.5098 C   0  0  0  0  0  0  0  0  0  0  0  0
  -22.7018  -29.0373   22.1753 C   0  0  0  0  0  0  0  0  0  0  0  0
  -23.4446  -28.6088   19.0469 C   0  0  0  0  0  0  0  0  0  0  0  0
  -25.8595  -28.4055   16.6441 C   0  0  0  0  0  0  0  0  0  0  0  0
  -28.7939  -23.5225   19.5019 C   0  0  0  0  0  0  0  0  0  0  0  0
  -17.9246  -27.2459   22.0100 C   0  0  0  0  0  0  0  0  0  0  0  0
  -24.1830  -31.0287   21.7324 C   0  0  0  0  0  0  0  0  0  0  0  0
  -25.3630  -28.5283   20.6836 C   0  0  0  0  0  0  0  0  0  0  0  0
  -19.2783  -26.7973   21.4655 C   0  0  0  0  0  0  0  0  0  0  0  0
  -27.4600  -21.3862   16.8391 C   0  0  0  0  0  0  0  0  0  0  0  0
  -20.3359  -26.8387   22.5639 C   0  0  0  0  0  0  0  0  0  0  0  0
  -26.8544  -20.2476   17.6533 C   0  0  0  0  0  0  0  0  0  0  0  0
  -28.7216  -21.9578   17.4872 C   0  0  0  0  0  0  0  0  0  0  0  0
  -27.9208  -21.2226   19.7164 C   0  0  0  0  0  0  0  0  0  0  0  0
  -30.3640  -25.5375   19.4865 C   0  0  0  0  0  0  0  0  0  0  0  0
  -31.0514  -23.9525   18.2446 C   0  0  0  0  0  0  0  0  0  0  0  0
  -20.5232  -28.2647   23.0959 C   0  0  1  0  0  0  0  0  0  0  0  0
  -23.3198  -29.9237   21.1313 C   0  0  1  0  0  0  0  0  0  0  0  0
  -26.6171  -20.6910   19.1046 C   0  0  2  0  0  0  0  0  0  0  0  0
  -31.7525  -25.0143   19.1025 C   0  0  0  0  0  0  0  0  0  0  0  0
  -26.1629  -28.0097   14.1847 C   0  0  0  0  0  0  0  0  0  0  0  0
  -22.9600  -25.6261   19.4696 C   0  0  0  0  0  0  0  0  0  0  0  0
  -24.1697  -25.1960   17.3202 C   0  0  0  0  0  0  0  0  0  0  0  0
  -22.0644  -26.5339   17.3183 C   0  0  0  0  0  0  0  0  0  0  0  0
  -27.0749  -31.0745   16.2465 C   0  0  0  0  0  0  0  0  0  0  0  0
  -33.1669  -28.9406   22.1166 C   0  0  0  0  0  0  0  0  0  0  0  0
  -31.5573  -29.7204   23.8601 C   0  0  0  0  0  0  0  0  0  0  0  0
  -30.1402  -30.2273   24.0415 C   0  0  0  0  0  0  0  0  0  1  0  0
  -24.1793  -27.5523   18.2575 C   0  0  1  0  0  0  0  0  0  0  0  0
  -25.9760  -29.0525   15.2757 C   0  0  2  0  0  0  0  0  0  0  0  0
  -23.3560  -26.2413   18.1125 C   0  0  0  0  0  0  0  0  0  0  0  0
  -33.7358  -27.9327   17.9895 N   0  0  0  0  0  0  0  0  0  0  0  0
  -26.3285  -18.3051   19.6590 N   0  0  0  0  0  0  0  0  0  0  0  0
  -26.0104  -19.5799   19.9416 N   0  0  0  0  0  0  0  0  0  0  0  0
  -24.0679  -29.0541   20.2212 N   0  0  0  0  0  0  0  0  0  0  0  0
  -28.5079  -22.2920   18.9005 N   0  0  0  0  0  0  0  0  0  0  0  0
  -29.8512  -24.2540   19.0128 N   0  0  0  0  0  0  0  0  0  0  0  0
  -24.7240  -20.9255   21.4062 N   0  0  0  0  0  0  0  0  0  0  0  0
  -23.8580  -16.7246   22.8201 N   0  0  0  0  0  0  0  0  0  0  0  0
  -32.4983  -25.9445   18.3310 N   0  0  0  0  0  0  0  0  0  0  0  0
  -21.3200  -29.0470   22.1753 N   0  0  0  0  0  0  0  0  0  0  0  0
  -24.5449  -28.1717   16.9883 N   0  0  0  0  0  0  0  0  0  0  0  0
  -27.1391  -29.9835   15.2403 N   0  3  0  0  0  0  0  0  0  0  0  0
  -31.7911  -29.4212   22.4234 N   0  3  0  0  0  0  0  0  0  0  0  0
  -23.3940  -18.9420   23.1764 O   0  0  0  0  0  0  0  0  0  0  0  0
  -23.4250  -28.3911   22.9244 O   0  0  0  0  0  0  0  0  0  0  0  0
  -22.3611  -29.0288   18.6330 O   0  0  0  0  0  0  0  0  0  0  0  0
  -26.8371  -28.1313   17.3366 O   0  0  0  0  0  0  0  0  0  0  0  0
  -28.1448  -23.9440   20.4683 O   0  0  0  0  0  0  0  0  0  0  0  0
  -25.9415  -12.0291   20.6646 O   0  0  0  0  0  0  0  0  0  0  0  0
  -29.2202  -29.2269   23.6253 O   0  0  0  0  0  0  0  0  0  1  0  0
  -21.2313   -9.2134   21.2027 F   0  0  0  0  0  0  0  0  0  0  0  0
  -24.3306  -12.3707   22.8852 F   0  0  0  0  0  0  0  0  0  0  0  0
  -34.6148  -30.5816   20.3027 F   0  0  0  0  0  0  0  0  0  0  0  0
  1  2  1  0  0  0  0
  1  5  2  0  0  0  0
  2  6  2  0  0  0  0
  3  8  2  0  0  0  0
  3 17  1  0  0  0  0
  4  9  1  0  0  0  0
  4 17  2  0  0  0  0
  5 19  1  0  0  0  0
  6 21  1  0  0  0  0
  7 10  2  0  0  0  0
  7 20  1  0  0  0  0
  8 24  1  0  0  0  0
  9 24  2  0  0  0  0
 10 25  1  0  0  0  0
 11 12  2  0  0  0  0
 11 26  1  0  0  0  0
 12 27  1  0  0  0  0
 13 22  1  0  0  0  0
 13 25  2  0  0  0  0
 14 23  1  0  0  0  0
 14 31  2  0  0  0  0
 15 27  2  0  0  0  0
 15 28  1  0  0  0  0
 16 29  1  0  0  0  0
 16 64  2  0  0  0  0
 17 30  1  0  0  0  0
 18 30  1  0  0  0  0
 18 32  2  0  0  0  0
 18 33  1  0  0  0  0
 19 21  2  0  0  0  0
 19 38  1  0  0  0  0
 20 22  2  0  0  0  0
 20 39  1  0  0  0  0
 21 49  1  0  0  0  0
 22 40  1  0  0  0  0
 23 29  2  0  0  0  0
 23 58  1  0  0  0  0
 24 82  1  0  0  0  0
 25 83  1  0  0  0  0
 26 28  2  0  0  0  0
 26 82  1  0  0  0  0
 27 84  1  0  0  0  0
 28 85  1  0  0  0  0
 29 86  1  0  0  0  0
 30 65  2  0  0  0  0
 31 64  1  0  0  0  0
 31 72  1  0  0  0  0
 32 66  1  0  0  0  0
 32 70  1  0  0  0  0
 33 71  1  0  0  0  0
 33 77  2  0  0  0  0
 34 50  1  0  0  0  0
 34 73  1  0  0  0  0
 34 78  2  0  0  0  0
 35 61  1  0  0  0  0
 35 67  1  0  0  0  0
 35 79  2  0  0  0  0
 36 62  1  0  0  0  0
 36 74  1  0  0  0  0
 36 80  2  0  0  0  0
 37 68  1  0  0  0  0
 37 69  1  0  0  0  0
 37 81  2  0  0  0  0
 38 41  1  0  0  0  0
 39 50  1  0  0  0  0
 40 67  1  0  0  0  0
 41 43  1  0  0  0  0
 42 44  1  0  0  0  0
 42 45  1  0  0  0  0
 43 49  1  0  0  0  0
 44 51  1  0  0  0  0
 45 68  1  0  0  0  0
 46 51  1  0  0  0  0
 46 68  1  0  0  0  0
 47 52  1  0  0  0  0
 47 69  1  0  0  0  0
 48 52  1  0  0  0  0
 48 69  1  0  0  0  0
 49 73  1  0  0  0  0
 50 67  1  0  0  0  0
 51 66  1  0  0  0  0
 52 72  1  0  0  0  0
 53 62  1  0  0  0  0
 54 63  1  0  0  0  0
 55 63  1  0  0  0  0
 56 63  1  0  0  0  0
 57 75  1  0  0  0  0
 58 76  1  0  0  0  0
 59 60  1  0  0  0  0
 59 76  1  0  0  0  0
 60 83  1  0  0  0  0
 61 63  1  0  0  0  0
 61 74  1  0  0  0  0
 62 75  1  0  0  0  0
 65 66  1  0  0  0  0
M  CHG  2  75   1  76   1
M  ISO  4  37 100  60 101  69 100  83 101
M  END
> <Batch ID>
0188

> <Smiles>
CNC(C)C(=O)NC(C(=O)N1Cc2cc([101O:1][101CH2:1]CNCc3cc(NC4C[100N:0]([100C:0](=O)N5CCCC(n6nc(-c7ccc(Oc8ccc(F)cc8F)cc7)c(C(N)=O)c6N)C5)C4)ncc3F)ccc2CC1C(=O)NC1CCCc2ccccc21)C(C)(C)C

> <Shape>
0.259

> <Color>
0.100

> <Negative vol penalty>
0.000

$$$$

  -OEChem-04052323193D

 84 93  0     1  0  0  0  0  0999 V2000
  -15.6584  -28.2642   23.0595 C   0  0  0  0  0  0  0  0  0  0  0  0
  -16.2132  -27.0036   23.2555 C   0  0  0  0  0  0  0  0  0  0  0  0
  -24.3797  -10.8148   23.5760 C   0  0  0  0  0  0  0  0  0  0  0  0
  -24.4678  -13.1523   24.1807 C   0  0  0  0  0  0  0  0  0  0  0  0
  -16.3211  -29.2008   22.2672 C   0  0  0  0  0  0  0  0  0  0  0  0
  -17.4306  -26.6784   22.6584 C   0  0  0  0  0  0  0  0  0  0  0  0
  -23.3306  -22.7727   23.7777 C   0  0  0  0  0  0  0  0  0  0  0  0
  -24.0227  -10.4897   24.8846 C   0  0  0  0  0  0  0  0  0  0  0  0
  -24.1108  -12.8272   25.4893 C   0  0  0  0  0  0  0  0  0  0  0  0
  -24.1162  -21.8050   23.1531 C   0  0  0  0  0  0  0  0  0  0  0  0
  -21.2919  -12.0362   27.1771 C   0  0  0  0  0  0  0  0  0  0  0  0
  -20.3134  -12.8164   27.7931 C   0  0  0  0  0  0  0  0  0  0  0  0
  -27.9355  -19.1602   21.3748 C   0  0  0  0  0  0  0  0  0  0  0  0
  -25.2099  -23.5300   21.8696 C   0  0  0  0  0  0  0  0  0  0  0  0
  -21.8895  -13.4311   29.5180 C   0  0  0  0  0  0  0  0  0  0  0  0
  -26.1017  -17.9927   20.4094 C   0  0  0  0  0  0  0  0  0  0  0  0
  -24.6022  -12.1461   23.2240 C   0  0  0  0  0  0  0  0  0  0  0  0
  -24.1055  -12.7911   20.8064 C   0  0  0  0  0  0  0  0  0  0  0  0
  -17.5520  -28.8902   21.6681 C   0  0  0  0  0  0  0  0  0  0  0  0
  -23.4714  -24.1275   23.4445 C   0  0  0  0  0  0  0  0  0  0  0  0
  -18.1098  -27.6112   21.8564 C   0  0  0  0  0  0  0  0  0  0  0  0
  -28.7994  -18.3110   20.6863 C   0  0  0  0  0  0  0  0  0  0  0  0
  -24.4267  -24.5132   22.4933 C   0  0  0  0  0  0  0  0  0  0  0  0
  -26.5610  -18.9981   21.2436 C   0  0  0  0  0  0  0  0  0  0  0  0
  -23.8883  -11.4959   25.8413 C   0  0  0  0  0  0  0  0  0  0  0  0
  -25.0540  -22.1832   22.1968 C   0  0  0  0  0  0  0  0  0  0  0  0
  -22.5692  -11.9534   27.7315 C   0  0  0  0  0  0  0  0  0  0  0  0
  -20.6122  -13.5138   28.9636 C   0  0  0  0  0  0  0  0  0  0  0  0
  -22.8680  -12.6509   28.9019 C   0  0  0  0  0  0  0  0  0  0  0  0
  -24.9715  -12.4825   21.8725 C   0  0  0  0  0  0  0  0  0  0  0  0
  -28.2412  -17.3360   19.8644 C   0  0  0  0  0  0  0  0  0  0  0  0
  -24.9417  -13.0352   19.7444 C   0  0  0  0  0  0  0  0  0  0  0  0
  -22.6733  -12.8519   20.7785 C   0  0  0  0  0  0  0  0  0  0  0  0
  -21.5628  -26.3396   22.1924 C   0  0  0  0  0  0  0  0  0  0  0  0
  -24.0610  -28.3044   22.8414 C   0  0  0  0  0  0  0  0  0  0  0  0
  -27.4140  -28.6476   23.3764 C   0  0  0  0  0  0  0  0  0  0  0  0
  -30.8258  -14.6950   19.9045 C   0  0  0  0  0  0  0  0  0  0  0  0
  -18.2080  -29.9190   20.7816 C   0  0  0  0  0  0  0  0  0  0  0  0
  -22.6350  -25.1618   24.1467 C   0  0  0  0  0  0  0  0  0  0  0  0
  -30.2909  -18.4542   20.7388 C   0  0  0  0  0  0  0  0  0  0  0  0
  -24.6309  -25.9566   22.1147 C   0  0  0  0  0  0  0  0  0  0  0  0
  -19.6771  -29.6241   20.4900 C   0  0  0  0  0  0  0  0  0  0  0  0
  -29.2575  -11.9099   18.0063 C   0  0  0  0  0  0  0  0  0  0  0  0
  -19.8608  -28.1604   20.1019 C   0  0  0  0  0  0  0  0  0  0  0  0
  -27.9382  -11.7133   18.7535 C   0  0  0  0  0  0  0  0  0  0  0  0
  -30.3453  -12.4803   18.9121 C   0  0  0  0  0  0  0  0  0  0  0  0
  -28.6335  -13.5364   20.3523 C   0  0  0  0  0  0  0  0  0  0  0  0
  -19.4408  -27.2294   21.2457 C   0  0  1  0  0  0  0  0  0  0  0  0
  -29.1663  -16.4145   19.1145 C   0  0  1  0  0  0  0  0  0  0  0  0
  -22.5040  -26.4607   23.3574 C   0  0  1  0  0  0  0  0  0  0  0  0
  -27.5063  -13.0153   19.4501 C   0  0  2  0  0  0  0  0  0  0  0  0
  -31.0585  -17.0904   20.7145 C   0  0  0  0  0  0  0  0  0  0  0  0
  -29.6301  -17.0170   17.7841 C   0  0  0  0  0  0  0  0  0  0  0  0
  -32.4502  -17.3604   20.1064 C   0  0  0  0  0  0  0  0  0  0  0  0
  -31.2352  -16.6310   22.1811 C   0  0  0  0  0  0  0  0  0  0  0  0
  -29.1669  -30.3815   23.8438 C   0  0  0  0  0  0  0  0  0  0  0  0
  -23.9658  -29.1841   19.9213 C   0  0  0  0  0  0  0  0  0  0  0  0
  -26.2589  -30.1469   20.2091 C   0  0  0  0  0  0  0  0  0  0  0  0
  -24.3569  -31.0356   21.5564 C   0  0  0  0  0  0  0  0  0  0  0  0
  -28.1279  -27.3963   25.9617 C   0  0  0  0  0  0  0  0  0  0  0  0
  -25.6127  -19.8825   21.9722 C   0  0  0  0  0  0  0  0  0  1  0  0
  -25.2938  -28.7493   22.0923 C   0  0  1  0  0  0  0  0  0  0  0  0
  -28.1922  -29.3847   24.4514 C   0  0  2  0  0  0  0  0  0  0  0  0
  -24.9639  -29.7515   20.9503 C   0  0  0  0  0  0  0  0  0  0  0  0
  -26.9067  -17.1603   19.7132 N   0  0  0  0  0  0  0  0  0  0  0  0
  -26.2591  -12.5257   21.5200 N   0  0  0  0  0  0  0  0  0  0  0  0
  -26.2083  -12.8642   20.2204 N   0  0  0  0  0  0  0  0  0  0  0  0
  -23.7847  -26.9299   22.8246 N   0  0  0  0  0  0  0  0  0  0  0  0
  -29.8907  -13.6853   19.6044 N   0  0  0  0  0  0  0  0  0  0  0  0
  -30.3165  -16.0152   19.9646 N   0  0  0  0  0  0  0  0  0  0  0  0
  -24.7096  -13.3771   18.4593 N   0  0  0  0  0  0  0  0  0  0  0  0
  -21.9696  -12.5725   21.9580 N   0  0  0  0  0  0  0  0  0  0  0  0
  -20.4696  -27.1819   22.2625 N   0  0  0  0  0  0  0  0  0  0  0  0
  -26.2157  -29.2697   23.0962 N   0  0  0  0  0  0  0  0  0  0  0  0
  -28.9646  -28.4205   25.2849 N   0  3  0  0  0  0  0  0  0  0  0  0
  -22.0358  -13.1292   19.7344 O   0  0  0  0  0  0  0  0  0  0  0  0
  -21.8108  -25.5421   21.2957 O   0  0  0  0  0  0  0  0  0  0  0  0
  -23.3725  -29.1445   23.4261 O   0  0  0  0  0  0  0  0  0  0  0  0
  -27.8293  -27.6246   22.8366 O   0  0  0  0  0  0  0  0  0  0  0  0
  -32.0117  -14.4239   20.1185 O   0  0  0  0  0  0  0  0  0  0  0  0
  -23.5398  -11.1791   27.1183 O   0  0  0  0  0  0  0  0  0  0  0  0
  -25.8266  -21.2346   21.5812 O   0  0  0  0  0  0  0  0  0  1  0  0
  -19.6729  -14.2642   29.5542 F   0  0  0  0  0  0  0  0  0  0  0  0
  -24.0937  -12.5762   29.4386 F   0  0  0  0  0  0  0  0  0  0  0  0
  1  2  1  0  0  0  0
  1  5  2  0  0  0  0
  2  6  2  0  0  0  0
  3  8  2  0  0  0  0
  3 17  1  0  0  0  0
  4  9  1  0  0  0  0
  4 17  2  0  0  0  0
  5 19  1  0  0  0  0
  6 21  1  0  0  0  0
  7 10  2  0  0  0  0
  7 20  1  0  0  0  0
  8 25  1  0  0  0  0
  9 25  2  0  0  0  0
 10 26  1  0  0  0  0
 11 12  2  0  0  0  0
 11 27  1  0  0  0  0
 12 28  1  0  0  0  0
 13 22  1  0  0  0  0
 13 24  2  0  0  0  0
 14 23  1  0  0  0  0
 14 26  2  0  0  0  0
 15 28  2  0  0  0  0
 15 29  1  0  0  0  0
 16 24  1  0  0  0  0
 16 65  2  0  0  0  0
 17 30  1  0  0  0  0
 18 30  1  0  0  0  0
 18 32  2  0  0  0  0
 18 33  1  0  0  0  0
 19 21  2  0  0  0  0
 19 38  1  0  0  0  0
 20 23  2  0  0  0  0
 20 39  1  0  0  0  0
 21 48  1  0  0  0  0
 22 31  2  0  0  0  0
 22 40  1  0  0  0  0
 23 41  1  0  0  0  0
 24 61  1  0  0  0  0
 25 81  1  0  0  0  0
 26 82  1  0  0  0  0
 27 29  2  0  0  0  0
 27 81  1  0  0  0  0
 28 83  1  0  0  0  0
 29 84  1  0  0  0  0
 30 66  2  0  0  0  0
 31 49  1  0  0  0  0
 31 65  1  0  0  0  0
 32 67  1  0  0  0  0
 32 71  1  0  0  0  0
 33 72  1  0  0  0  0
 33 76  2  0  0  0  0
 34 50  1  0  0  0  0
 34 73  1  0  0  0  0
 34 77  2  0  0  0  0
 35 62  1  0  0  0  0
 35 68  1  0  0  0  0
 35 78  2  0  0  0  0
 36 63  1  0  0  0  0
 36 74  1  0  0  0  0
 36 79  2  0  0  0  0
 37 69  1  0  0  0  0
 37 70  1  0  0  0  0
 37 80  2  0  0  0  0
 38 42  1  0  0  0  0
 39 50  1  0  0  0  0
 40 52  1  0  0  0  0
 41 68  1  0  0  0  0
 42 44  1  0  0  0  0
 43 45  1  0  0  0  0
 43 46  1  0  0  0  0
 44 48  1  0  0  0  0
 45 51  1  0  0  0  0
 46 69  1  0  0  0  0
 47 51  1  0  0  0  0
 47 69  1  0  0  0  0
 48 73  1  0  0  0  0
 49 53  1  0  0  0  0
 49 70  1  0  0  0  0
 50 68  1  0  0  0  0
 51 67  1  0  0  0  0
 52 54  1  0  0  0  0
 52 55  1  0  0  0  0
 52 70  1  0  0  0  0
 56 63  1  0  0  0  0
 57 64  1  0  0  0  0
 58 64  1  0  0  0  0
 59 64  1  0  0  0  0
 60 75  1  0  0  0  0
 61 82  1  0  0  0  0
 62 64  1  0  0  0  0
 62 74  1  0  0  0  0
 63 75  1  0  0  0  0
 66 67  1  0  0  0  0
M  CHG  1  75   1
M  ISO  4  37 100  61 101  70 100  82 101
M  END
> <Batch ID>
0188

> <Smiles>
CNC(C)C(=O)NC(C(=O)N1Cc2cc([101O:1][101CH2:1]c3cnc4c(c3)CC(C)(C)[100N:0]([100C:0](=O)N3CCCC(n5nc(-c6ccc(Oc7ccc(F)cc7F)cc6)c(C(N)=O)c5N)C3)C4C)ccc2CC1C(=O)NC1CCCc2ccccc21)C(C)(C)C

> <Shape>
0.222

> <Color>
0.093

> <Negative vol penalty>
0.000

$$$$

  -OEChem-04052323193D

 87 97  0     1  0  0  0  0  0999 V2000
  -31.7557  -15.7772   20.1947 C   0  0  0  0  0  0  0  0  0  0  0  0
  -30.9293  -16.5192   19.3570 C   0  0  0  0  0  0  0  0  0  0  0  0
  -28.5124  -27.5892   18.3663 C   0  0  0  0  0  0  0  0  0  0  0  0
  -26.9310  -26.1202   19.4518 C   0  0  0  0  0  0  0  0  0  0  0  0
  -31.3417  -14.5264   20.6509 C   0  0  0  0  0  0  0  0  0  0  0  0
  -29.6888  -16.0104   18.9740 C   0  0  0  0  0  0  0  0  0  0  0  0
  -25.9948  -19.4608   19.2814 C   0  0  0  0  0  0  0  0  0  0  0  0
  -29.5295  -26.6623   18.5938 C   0  0  0  0  0  0  0  0  0  0  0  0
  -27.9482  -25.1932   19.6793 C   0  0  0  0  0  0  0  0  0  0  0  0
  -25.9167  -20.4029   18.2566 C   0  0  0  0  0  0  0  0  0  0  0  0
  -30.0556  -22.2816   20.2260 C   0  0  0  0  0  0  0  0  0  0  0  0
  -29.7832  -20.9400   19.9584 C   0  0  0  0  0  0  0  0  0  0  0  0
  -24.1399  -19.1327   17.2326 C   0  0  0  0  0  0  0  0  0  0  0  0
  -29.3362  -21.4913   17.6490 C   0  0  0  0  0  0  0  0  0  0  0  0
  -22.5278  -24.4401   19.8628 C   0  0  0  0  0  0  0  0  0  0  0  0
  -27.2130  -27.3182   18.7954 C   0  0  0  0  0  0  0  0  0  0  0  0
  -25.3179  -28.3533   17.4373 C   0  0  0  0  0  0  0  0  0  0  0  0
  -30.0914  -14.0062   20.2811 C   0  0  0  0  0  0  0  0  0  0  0  0
  -25.1521  -18.3400   19.2836 C   0  0  0  0  0  0  0  0  0  0  0  0
  -29.2582  -14.7509   19.4246 C   0  0  0  0  0  0  0  0  0  0  0  0
  -24.2076  -18.1792   18.2598 C   0  0  0  0  0  0  0  0  0  0  0  0
  -21.8133  -25.5739   19.5335 C   0  0  0  0  0  0  0  0  0  0  0  0
  -29.2475  -25.4643   19.2502 C   0  0  0  0  0  0  0  0  0  0  0  0
  -24.9911  -20.2375   17.2305 C   0  0  0  0  0  0  0  0  0  0  0  0
  -29.9682  -23.2281   19.2051 C   0  0  0  0  0  0  0  0  0  0  0  0
  -29.4236  -20.5449   18.6700 C   0  0  0  0  0  0  0  0  0  0  0  0
  -29.6086  -22.8329   17.9166 C   0  0  0  0  0  0  0  0  0  0  0  0
  -26.1620  -28.2755   18.5612 C   0  0  0  0  0  0  0  0  0  0  0  0
  -21.5617  -25.7513   18.1884 C   0  0  0  0  0  0  0  0  0  0  0  0
  -24.4989  -29.4251   17.6964 C   0  0  0  0  0  0  0  0  0  0  0  0
  -22.6585  -23.8269   17.6779 C   0  0  0  0  0  0  0  0  0  0  0  0
  -25.2776  -27.5303   16.2639 C   0  0  0  0  0  0  0  0  0  0  0  0
  -25.6006  -15.1961   19.1481 C   0  0  0  0  0  0  0  0  0  0  0  0
  -22.3969  -15.1100   19.6490 C   0  0  0  0  0  0  0  0  0  0  0  0
  -19.3846  -16.6974   19.4178 C   0  0  0  0  0  0  0  0  0  0  0  0
  -22.9208  -29.1384   22.5122 C   0  0  0  0  0  0  0  0  0  0  0  0
  -29.7073  -12.6290   20.7612 C   0  0  0  0  0  0  0  0  0  0  0  0
  -25.2307  -17.3468   20.4104 C   0  0  0  0  0  0  0  0  0  0  0  0
  -23.2662  -17.0040   18.2268 C   0  0  0  0  0  0  0  0  0  0  0  0
  -28.2190  -12.3247   20.6113 C   0  0  0  0  0  0  0  0  0  0  0  0
  -25.7144  -31.2413   21.7770 C   0  0  0  0  0  0  0  0  0  0  0  0
  -19.2951  -29.1304   22.5717 C   0  0  0  0  0  0  0  0  0  0  0  0
  -27.7269  -12.7355   19.2271 C   0  0  0  0  0  0  0  0  0  0  0  0
  -25.3866  -31.8687   20.4266 C   0  0  0  0  0  0  0  0  0  0  0  0
  -19.5346  -27.6313   22.4615 C   0  0  0  0  0  0  0  0  0  0  0  0
  -23.9643  -23.3564   15.4986 C   0  0  0  0  0  0  0  0  0  0  0  0
  -24.4530  -31.0716   22.6095 C   0  0  0  0  0  0  0  0  0  0  0  0
  -20.5214  -29.7141   21.8873 C   0  0  0  0  0  0  0  0  0  0  0  0
  -23.0805  -30.7659   20.5579 C   0  0  0  0  0  0  0  0  0  0  0  0
  -27.8949  -14.2438   19.0070 C   0  0  1  0  0  0  0  0  0  0  0  0
  -23.1278  -22.8559   16.6467 C   0  0  1  0  0  0  0  0  0  0  0  0
  -24.6747  -15.9757   20.0383 C   0  0  1  0  0  0  0  0  0  0  0  0
  -24.2995  -31.0935   19.6650 C   0  0  2  0  0  0  0  0  0  0  0  0
  -24.5972  -22.5242   16.5715 C   0  0  1  0  0  0  0  0  0  1  0  0
  -21.0457  -27.5004   22.6711 C   0  0  1  0  0  0  0  0  0  0  0  0
  -20.7967  -26.9423   17.7107 C   0  0  0  0  0  0  0  0  0  0  0  0
  -16.9398  -16.3593   19.8718 C   0  0  0  0  0  0  0  0  0  0  0  0
  -22.1825  -13.3467   17.1682 C   0  0  0  0  0  0  0  0  0  0  0  0
  -19.7258  -13.8275   17.1241 C   0  0  0  0  0  0  0  0  0  0  0  0
  -20.7283  -12.6429   19.0771 C   0  0  0  0  0  0  0  0  0  0  0  0
  -19.3115  -18.9475   21.3389 C   0  0  0  0  0  0  0  0  0  0  0  0
  -21.6256  -26.3163   21.9083 C   0  0  0  0  0  0  0  0  0  0  0  0
  -21.1756  -15.1111   18.7616 C   0  0  1  0  0  0  0  0  0  0  0  0
  -18.2602  -16.8756   20.4220 C   0  0  2  0  0  0  0  0  0  0  0  0
  -20.9720  -13.7533   18.0321 C   0  0  0  0  0  0  0  0  0  0  0  0
  -22.9676  -23.5419   18.9572 N   0  0  0  0  0  0  0  0  0  0  0  0
  -25.9033  -29.2225   19.4669 N   0  0  0  0  0  0  0  0  0  0  0  0
  -21.9710  -24.8947   17.2298 N   0  0  0  0  0  0  0  0  0  0  0  0
  -24.8874  -29.9056   18.9123 N   0  0  0  0  0  0  0  0  0  0  0  0
  -23.3860  -16.0569   19.3476 N   0  0  0  0  0  0  0  0  0  0  0  0
  -23.4329  -30.2947   21.9050 N   0  0  0  0  0  0  0  0  0  0  0  0
  -21.6003  -28.7846   22.2260 N   0  0  0  0  0  0  0  0  0  0  0  0
  -23.4917  -29.9940   17.0005 N   0  0  0  0  0  0  0  0  0  0  0  0
  -26.1900  -26.4716   16.1587 N   0  0  0  0  0  0  0  0  0  0  0  0
  -21.3820  -26.4710   20.5123 N   0  0  0  0  0  0  0  0  0  0  0  0
  -26.8508  -14.9740   19.6932 N   0  0  0  0  0  0  0  0  0  0  0  0
  -20.0560  -15.5082   19.6085 N   0  0  0  0  0  0  0  0  0  0  0  0
  -18.0953  -18.3165   20.7647 N   0  3  0  0  0  0  0  0  0  0  0  0
  -24.4677  -27.7380   15.3288 O   0  0  0  0  0  0  0  0  0  0  0  0
  -25.2092  -14.8223   18.0486 O   0  0  0  0  0  0  0  0  0  0  0  0
  -22.4673  -14.3037   20.5799 O   0  0  0  0  0  0  0  0  0  0  0  0
  -19.6393  -17.5281   18.5486 O   0  0  0  0  0  0  0  0  0  0  0  0
  -23.6092  -28.4575   23.2839 O   0  0  0  0  0  0  0  0  0  0  0  0
  -30.2397  -24.5595   19.4721 O   0  0  0  0  0  0  0  0  0  0  0  0
  -24.9120  -21.1685   16.2142 O   0  0  0  0  0  0  0  0  0  1  0  0
  -29.1635  -19.2563   18.4129 F   0  0  0  0  0  0  0  0  0  0  0  0
  -29.5241  -23.7375   16.9315 F   0  0  0  0  0  0  0  0  0  0  0  0
  1  2  1  0  0  0  0
  1  5  2  0  0  0  0
  2  6  2  0  0  0  0
  3  8  2  0  0  0  0
  3 16  1  0  0  0  0
  4  9  1  0  0  0  0
  4 16  2  0  0  0  0
  5 18  1  0  0  0  0
  6 20  1  0  0  0  0
  7 10  2  0  0  0  0
  7 19  1  0  0  0  0
  8 23  1  0  0  0  0
  9 23  2  0  0  0  0
 10 24  1  0  0  0  0
 11 12  2  0  0  0  0
 11 25  1  0  0  0  0
 12 26  1  0  0  0  0
 13 21  1  0  0  0  0
 13 24  2  0  0  0  0
 14 26  2  0  0  0  0
 14 27  1  0  0  0  0
 15 22  1  0  0  0  0
 15 66  2  0  0  0  0
 16 28  1  0  0  0  0
 17 28  1  0  0  0  0
 17 30  2  0  0  0  0
 17 32  1  0  0  0  0
 18 20  2  0  0  0  0
 18 37  1  0  0  0  0
 19 21  2  0  0  0  0
 19 38  1  0  0  0  0
 20 50  1  0  0  0  0
 21 39  1  0  0  0  0
 22 29  2  0  0  0  0
 22 75  1  0  0  0  0
 23 84  1  0  0  0  0
 24 85  1  0  0  0  0
 25 27  2  0  0  0  0
 25 84  1  0  0  0  0
 26 86  1  0  0  0  0
 27 87  1  0  0  0  0
 28 67  2  0  0  0  0
 29 56  1  0  0  0  0
 29 68  1  0  0  0  0
 30 69  1  0  0  0  0
 30 73  1  0  0  0  0
 31 51  1  0  0  0  0
 31 66  1  0  0  0  0
 31 68  2  0  0  0  0
 32 74  1  0  0  0  0
 32 79  2  0  0  0  0
 33 52  1  0  0  0  0
 33 76  1  0  0  0  0
 33 80  2  0  0  0  0
 34 63  1  0  0  0  0
 34 70  1  0  0  0  0
 34 81  2  0  0  0  0
 35 64  1  0  0  0  0
 35 77  1  0  0  0  0
 35 82  2  0  0  0  0
 36 71  1  0  0  0  0
 36 72  1  0  0  0  0
 36 83  2  0  0  0  0
 37 40  1  0  0  0  0
 38 52  1  0  0  0  0
 39 70  1  0  0  0  0
 40 43  1  0  0  0  0
 41 44  1  0  0  0  0
 41 47  1  0  0  0  0
 42 45  1  0  0  0  0
 42 48  1  0  0  0  0
 43 50  1  0  0  0  0
 44 53  1  0  0  0  0
 45 55  1  0  0  0  0
 46 51  1  0  0  0  0
 46 54  1  0  0  0  0
 47 71  1  0  0  0  0
 48 72  1  0  0  0  0
 49 53  1  0  0  0  0
 49 71  1  0  0  0  0
 50 76  1  0  0  0  0
 51 54  1  0  0  0  0
 52 70  1  0  0  0  0
 53 69  1  0  0  0  0
 54 85  1  0  0  0  0
 55 62  1  0  0  0  0
 55 72  1  0  0  0  0
 57 64  1  0  0  0  0
 58 65  1  0  0  0  0
 59 65  1  0  0  0  0
 60 65  1  0  0  0  0
 61 78  1  0  0  0  0
 62 75  1  0  0  0  0
 63 65  1  0  0  0  0
 63 77  1  0  0  0  0
 64 78  1  0  0  0  0
 67 69  1  0  0  0  0
M  CHG  1  78   1
M  ISO  4  36 100  54 101  72 100  85 101
M  END
> <Batch ID>
0188

> <Smiles>
CNC(C)C(=O)NC(C(=O)N1Cc2cc([101O:1][101CH:1]3CC3c3ncc(NCC4CCC[100N:0]4[100C:0](=O)N4CCCC(n5nc(-c6ccc(Oc7ccc(F)cc7F)cc6)c(C(N)=O)c5N)C4)c(C)n3)ccc2CC1C(=O)NC1CCCc2ccccc21)C(C)(C)C

> <Shape>
0.212

> <Color>
0.062

> <Negative vol penalty>
0.000

$$$$

  -OEChem-04052323193D

 84 93  0     1  0  0  0  0  0999 V2000
  -22.8422  -33.7223   19.9933 C   0  0  0  0  0  0  0  0  0  0  0  0
  -23.7356  -32.6703   20.1685 C   0  0  0  0  0  0  0  0  0  0  0  0
  -24.4267  -11.7773   19.9318 C   0  0  0  0  0  0  0  0  0  0  0  0
  -25.3660  -12.2349   22.1101 C   0  0  0  0  0  0  0  0  0  0  0  0
  -21.6879  -33.7921   20.7721 C   0  0  0  0  0  0  0  0  0  0  0  0
  -23.4756  -31.6881   21.1235 C   0  0  0  0  0  0  0  0  0  0  0  0
  -24.3040  -27.0089   19.3730 C   0  0  0  0  0  0  0  0  0  0  0  0
  -24.7228  -10.4233   20.0885 C   0  0  0  0  0  0  0  0  0  0  0  0
  -25.6621  -10.8808   22.2669 C   0  0  0  0  0  0  0  0  0  0  0  0
  -25.6289  -26.5804   19.3034 C   0  0  0  0  0  0  0  0  0  0  0  0
  -23.4156   -7.7589   21.7088 C   0  0  0  0  0  0  0  0  0  0  0  0
  -22.4299   -6.8353   21.3609 C   0  0  0  0  0  0  0  0  0  0  0  0
  -25.3358  -25.3592   21.3631 C   0  0  0  0  0  0  0  0  0  0  0  0
  -23.9160   -5.8672   19.7204 C   0  0  0  0  0  0  0  0  0  0  0  0
  -24.7484  -12.6831   20.9426 C   0  0  0  0  0  0  0  0  0  0  0  0
  -23.2571  -14.7420   21.1541 C   0  0  0  0  0  0  0  0  0  0  0  0
  -21.4088  -32.8050   21.7305 C   0  0  0  0  0  0  0  0  0  0  0  0
  -23.4869  -26.6240   20.4457 C   0  0  0  0  0  0  0  0  0  0  0  0
  -22.3172  -31.7455   21.9169 C   0  0  0  0  0  0  0  0  0  0  0  0
  -24.0001  -25.7821   21.4426 C   0  0  0  0  0  0  0  0  0  0  0  0
  -25.3405   -9.9750   21.2560 C   0  0  0  0  0  0  0  0  0  0  0  0
  -26.1458  -25.7578   20.3000 C   0  0  0  0  0  0  0  0  0  0  0  0
  -24.6515   -7.7367   21.0624 C   0  0  0  0  0  0  0  0  0  0  0  0
  -22.6801   -5.8894   20.3668 C   0  0  0  0  0  0  0  0  0  0  0  0
  -24.9017   -6.7908   20.0682 C   0  0  0  0  0  0  0  0  0  0  0  0
  -24.4433  -14.0820   20.7810 C   0  0  0  0  0  0  0  0  0  0  0  0
  -23.4635  -16.0505   20.7912 C   0  0  0  0  0  0  0  0  0  0  0  0
  -30.9335  -23.3996   19.3009 C   0  0  0  0  0  0  0  0  0  0  0  0
  -31.8094  -25.4650   19.3605 C   0  0  0  0  0  0  0  0  0  0  0  0
  -29.5868  -25.1927   19.2104 C   0  0  0  0  0  0  0  0  0  0  0  0
  -22.0745  -14.2191   21.7734 C   0  0  0  0  0  0  0  0  0  0  0  0
  -21.9503  -28.1670   22.7613 C   0  0  0  0  0  0  0  0  0  0  0  0
  -20.7704  -25.2162   23.4116 C   0  0  0  0  0  0  0  0  0  0  0  0
  -21.1495  -21.8316   23.1934 C   0  0  0  0  0  0  0  0  0  0  0  0
  -28.5590  -19.0843   20.1336 C   0  0  0  0  0  0  0  0  0  0  0  0
  -20.1719  -32.9485   22.5814 C   0  0  0  0  0  0  0  0  0  0  0  0
  -22.0520  -27.0730   20.4922 C   0  0  0  0  0  0  0  0  0  0  0  0
  -23.1584  -25.3240   22.6045 C   0  0  0  0  0  0  0  0  0  0  0  0
  -19.7828  -31.6657   23.3117 C   0  0  0  0  0  0  0  0  0  0  0  0
  -25.8313  -18.7502   17.6584 C   0  0  0  0  0  0  0  0  0  0  0  0
  -21.0052  -31.0350   23.9711 C   0  0  0  0  0  0  0  0  0  0  0  0
  -25.0978  -17.5259   18.1967 C   0  0  0  0  0  0  0  0  0  0  0  0
  -27.3361  -18.6789   17.9156 C   0  0  0  0  0  0  0  0  0  0  0  0
  -26.9469  -17.2250   19.8878 C   0  0  0  0  0  0  0  0  0  0  0  0
  -31.5685  -20.1987   20.5424 C   0  0  0  0  0  0  0  0  0  0  0  0
  -22.0577  -30.6474   22.9254 C   0  0  1  0  0  0  0  0  0  0  0  0
  -31.1247  -21.8324   19.3133 C   0  0  2  0  0  0  0  0  0  0  0  0
  -21.4606  -27.0389   21.8980 C   0  0  1  0  0  0  0  0  0  0  0  0
  -25.4270  -17.3078   19.6810 C   0  0  2  0  0  0  0  0  0  0  0  0
  -30.2577  -20.9326   20.2270 C   0  0  1  0  0  0  0  0  0  0  0  0
  -33.5591  -26.4568   20.8577 C   0  0  0  0  0  0  0  0  0  0  0  0
  -20.0404  -19.6787   23.8510 C   0  0  0  0  0  0  0  0  0  0  0  0
  -21.7246  -25.6047   26.2836 C   0  0  0  0  0  0  0  0  0  0  0  0
  -21.4659  -23.1385   26.6294 C   0  0  0  0  0  0  0  0  0  0  0  0
  -19.4753  -24.5329   26.0676 C   0  0  0  0  0  0  0  0  0  0  0  0
  -20.8478  -20.9906   20.3720 C   0  0  0  0  0  0  0  0  0  0  0  0
  -32.9977  -26.3616   19.4411 C   0  0  0  0  0  0  0  0  0  0  0  0
  -28.2091  -25.7798   19.1175 C   0  0  0  0  0  0  0  0  0  1  0  0
  -21.2015  -24.0604   24.2818 C   0  0  1  0  0  0  0  0  0  0  0  0
  -20.1891  -20.7358   22.7678 C   0  0  2  0  0  0  0  0  0  0  0  0
  -20.9835  -24.3442   25.7948 C   0  0  0  0  0  0  0  0  0  0  0  0
  -25.3370  -14.9034   20.2236 N   0  0  0  0  0  0  0  0  0  0  0  0
  -32.0487  -24.1439   19.3764 N   0  0  0  0  0  0  0  0  0  0  0  0
  -29.6723  -23.8527   19.2159 N   0  0  0  0  0  0  0  0  0  0  0  0
  -30.6089  -26.0608   19.2795 N   0  0  0  0  0  0  0  0  0  0  0  0
  -24.7120  -16.0930   20.2437 N   0  0  0  0  0  0  0  0  0  0  0  0
  -21.7635  -25.7949   22.6086 N   0  0  0  0  0  0  0  0  0  0  0  0
  -27.6347  -18.3951   19.3283 N   0  0  0  0  0  0  0  0  0  0  0  0
  -22.6970  -17.1573   20.8900 N   0  0  0  0  0  0  0  0  0  0  0  0
  -22.0291  -12.8520   22.0793 N   0  0  0  0  0  0  0  0  0  0  0  0
  -21.6766  -29.4231   22.2544 N   0  0  0  0  0  0  0  0  0  0  0  0
  -20.4895  -22.8878   23.7851 N   0  0  0  0  0  0  0  0  0  0  0  0
  -29.2490  -20.1219   19.5145 N   0  0  0  0  0  0  0  0  0  0  0  0
  -32.2858  -21.4225   20.1482 N   0  3  0  0  0  0  0  0  0  0  0  0
  -20.6783  -20.0715   21.5268 N   0  3  0  0  0  0  0  0  0  0  0  0
  -21.0808  -14.9394   22.0325 O   0  0  0  0  0  0  0  0  0  0  0  0
  -22.5321  -27.9164   23.8103 O   0  0  0  0  0  0  0  0  0  0  0  0
  -19.5942  -25.5872   23.4379 O   0  0  0  0  0  0  0  0  0  0  0  0
  -22.3642  -21.7564   23.0218 O   0  0  0  0  0  0  0  0  0  0  0  0
  -28.7648  -18.7963   21.3176 O   0  0  0  0  0  0  0  0  0  0  0  0
  -25.6293   -8.6538   21.4094 O   0  0  0  0  0  0  0  0  0  0  0  0
  -27.4388  -25.3386   20.2349 O   0  0  0  0  0  0  0  0  0  1  0  0
  -21.7340   -5.0016   20.0339 F   0  0  0  0  0  0  0  0  0  0  0  0
  -26.0875   -6.7638   19.4446 F   0  0  0  0  0  0  0  0  0  0  0  0
  1  2  1  0  0  0  0
  1  5  2  0  0  0  0
  2  6  2  0  0  0  0
  3  8  2  0  0  0  0
  3 15  1  0  0  0  0
  4  9  1  0  0  0  0
  4 15  2  0  0  0  0
  5 17  1  0  0  0  0
  6 19  1  0  0  0  0
  7 10  2  0  0  0  0
  7 18  1  0  0  0  0
  8 21  1  0  0  0  0
  9 21  2  0  0  0  0
 10 22  1  0  0  0  0
 11 12  2  0  0  0  0
 11 23  1  0  0  0  0
 12 24  1  0  0  0  0
 13 20  1  0  0  0  0
 13 22  2  0  0  0  0
 14 24  2  0  0  0  0
 14 25  1  0  0  0  0
 15 26  1  0  0  0  0
 16 26  1  0  0  0  0
 16 27  2  0  0  0  0
 16 31  1  0  0  0  0
 17 19  2  0  0  0  0
 17 36  1  0  0  0  0
 18 20  2  0  0  0  0
 18 37  1  0  0  0  0
 19 46  1  0  0  0  0
 20 38  1  0  0  0  0
 21 81  1  0  0  0  0
 22 82  1  0  0  0  0
 23 25  2  0  0  0  0
 23 81  1  0  0  0  0
 24 83  1  0  0  0  0
 25 84  1  0  0  0  0
 26 62  2  0  0  0  0
 27 66  1  0  0  0  0
 27 69  1  0  0  0  0
 28 47  1  0  0  0  0
 28 63  2  0  0  0  0
 28 64  1  0  0  0  0
 29 57  1  0  0  0  0
 29 63  1  0  0  0  0
 29 65  2  0  0  0  0
 30 58  1  0  0  0  0
 30 64  2  0  0  0  0
 30 65  1  0  0  0  0
 31 70  1  0  0  0  0
 31 76  2  0  0  0  0
 32 48  1  0  0  0  0
 32 71  1  0  0  0  0
 32 77  2  0  0  0  0
 33 59  1  0  0  0  0
 33 67  1  0  0  0  0
 33 78  2  0  0  0  0
 34 60  1  0  0  0  0
 34 72  1  0  0  0  0
 34 79  2  0  0  0  0
 35 68  1  0  0  0  0
 35 73  1  0  0  0  0
 35 80  2  0  0  0  0
 36 39  1  0  0  0  0
 37 48  1  0  0  0  0
 38 67  1  0  0  0  0
 39 41  1  0  0  0  0
 40 42  1  0  0  0  0
 40 43  1  0  0  0  0
 41 46  1  0  0  0  0
 42 49  1  0  0  0  0
 43 68  1  0  0  0  0
 44 49  1  0  0  0  0
 44 68  1  0  0  0  0
 45 50  1  0  0  0  0
 45 74  1  0  0  0  0
 46 71  1  0  0  0  0
 47 50  1  0  0  0  0
 47 74  1  0  0  0  0
 48 67  1  0  0  0  0
 49 66  1  0  0  0  0
 50 73  1  0  0  0  0
 51 57  1  0  0  0  0
 52 60  1  0  0  0  0
 53 61  1  0  0  0  0
 54 61  1  0  0  0  0
 55 61  1  0  0  0  0
 56 75  1  0  0  0  0
 58 82  1  0  0  0  0
 59 61  1  0  0  0  0
 59 72  1  0  0  0  0
 60 75  1  0  0  0  0
 62 66  1  0  0  0  0
M  CHG  2  74   1  75   1
M  ISO  4  35 100  58 101  73 100  82 101
M  END
> <Batch ID>
0188

> <Smiles>
CCc1nc(C2NCC2[100NH:0][100C:0](=O)N2CCCC(n3nc(-c4ccc(Oc5ccc(F)cc5F)cc4)c(C(N)=O)c3N)C2)nc([101CH2:1][101O:1]c2ccc3c(c2)CN(C(=O)C(NC(=O)C(C)NC)C(C)(C)C)C(C(=O)NC2CCCc4ccccc42)C3)n1

> <Shape>
0.195

> <Color>
0.072

> <Negative vol penalty>
0.000

$$$$

  -OEChem-04052323193D

 81 90  0     1  0  0  0  0  0999 V2000
  -28.3321  -30.9122   27.6040 C   0  0  0  0  0  0  0  0  0  0  0  0
  -28.3111  -29.9754   26.5757 C   0  0  0  0  0  0  0  0  0  0  0  0
  -22.3449  -15.3747   23.5882 C   0  0  0  0  0  0  0  0  0  0  0  0
  -21.5348  -15.8260   21.3572 C   0  0  0  0  0  0  0  0  0  0  0  0
  -27.1514  -31.5415   27.9963 C   0  0  0  0  0  0  0  0  0  0  0  0
  -27.1091  -29.6666   25.9398 C   0  0  0  0  0  0  0  0  0  0  0  0
  -27.5715  -29.4707   20.9007 C   0  0  0  0  0  0  0  0  0  0  0  0
  -21.1365  -15.8266   24.1184 C   0  0  0  0  0  0  0  0  0  0  0  0
  -20.3264  -16.2779   21.8874 C   0  0  0  0  0  0  0  0  0  0  0  0
  -28.1453  -28.3218   20.3582 C   0  0  0  0  0  0  0  0  0  0  0  0
  -17.9982  -14.6379   24.5322 C   0  0  0  0  0  0  0  0  0  0  0  0
  -17.4051  -13.8737   25.5370 C   0  0  0  0  0  0  0  0  0  0  0  0
  -25.9476  -27.4861   19.8187 C   0  0  0  0  0  0  0  0  0  0  0  0
  -17.5349  -15.7565   27.0455 C   0  0  0  0  0  0  0  0  0  0  0  0
  -29.6453  -23.5261   19.2019 C   0  0  0  0  0  0  0  0  0  0  0  0
  -22.5441  -15.3744   22.2076 C   0  0  0  0  0  0  0  0  0  0  0  0
  -24.1138  -13.5924   21.2761 C   0  0  0  0  0  0  0  0  0  0  0  0
  -25.9360  -31.2474   27.3585 C   0  0  0  0  0  0  0  0  0  0  0  0
  -26.1785  -29.6313   20.9162 C   0  0  0  0  0  0  0  0  0  0  0  0
  -25.9109  -30.2916   26.3249 C   0  0  0  0  0  0  0  0  0  0  0  0
  -25.3587  -28.6392   20.3597 C   0  0  0  0  0  0  0  0  0  0  0  0
  -20.1272  -16.2782   23.2680 C   0  0  0  0  0  0  0  0  0  0  0  0
  -27.3333  -27.3279   19.8197 C   0  0  0  0  0  0  0  0  0  0  0  0
  -18.3598  -15.9614   24.7840 C   0  0  0  0  0  0  0  0  0  0  0  0
  -17.1734  -14.4330   26.7937 C   0  0  0  0  0  0  0  0  0  0  0  0
  -18.1281  -16.5207   26.0406 C   0  0  0  0  0  0  0  0  0  0  0  0
  -23.7923  -14.9083   21.6593 C   0  0  0  0  0  0  0  0  0  0  0  0
  -30.1553  -22.7154   18.2174 C   0  0  0  0  0  0  0  0  0  0  0  0
  -29.7334  -24.8258   18.6683 C   0  0  0  0  0  0  0  0  0  0  0  0
  -25.4075  -13.6734   20.8218 C   0  0  0  0  0  0  0  0  0  0  0  0
  -23.3145  -12.4031   21.3262 C   0  0  0  0  0  0  0  0  0  0  0  0
  -23.9821  -29.9471   23.1921 C   0  0  0  0  0  0  0  0  0  0  0  0
  -22.0037  -30.4489   20.6710 C   0  0  0  0  0  0  0  0  0  0  0  0
  -21.3687  -29.9874   17.3497 C   0  0  0  0  0  0  0  0  0  0  0  0
  -28.4003  -18.2859   18.5513 C   0  0  0  0  0  0  0  0  0  0  0  0
  -24.6776  -31.9186   27.8491 C   0  0  0  0  0  0  0  0  0  0  0  0
  -25.5763  -30.8886   21.4810 C   0  0  0  0  0  0  0  0  0  0  0  0
  -23.8587  -28.7725   20.3336 C   0  0  0  0  0  0  0  0  0  0  0  0
  -23.5093  -31.8106   26.8726 C   0  0  0  0  0  0  0  0  0  0  0  0
  -29.4353  -16.1507   21.3593 C   0  0  0  0  0  0  0  0  0  0  0  0
  -23.3738  -30.3810   26.3582 C   0  0  0  0  0  0  0  0  0  0  0  0
  -28.1024  -15.5285   21.7602 C   0  0  0  0  0  0  0  0  0  0  0  0
  -29.2782  -17.5758   20.8282 C   0  0  0  0  0  0  0  0  0  0  0  0
  -29.6754  -20.3632   19.4505 C   0  0  0  0  0  0  0  0  0  0  0  0
  -29.4266  -20.2699   17.3425 C   0  0  0  0  0  0  0  0  0  0  0  0
  -26.9476  -17.0613   20.1306 C   0  0  0  0  0  0  0  0  0  0  0  0
  -24.6309  -29.9481   25.5942 C   0  0  1  0  0  0  0  0  0  0  0  0
  -30.3042  -21.1373   18.2683 C   0  0  0  0  0  0  0  0  0  0  0  0
  -24.1221  -30.7150   21.9083 C   0  0  1  0  0  0  0  0  0  0  0  0
  -27.1036  -15.6075   20.5966 C   0  0  2  0  0  0  0  0  0  0  0  0
  -19.6541  -30.4802   15.5849 C   0  0  0  0  0  0  0  0  0  0  0  0
  -20.2175  -28.2449   21.7943 C   0  0  0  0  0  0  0  0  0  0  0  0
  -19.0799  -28.1278   19.5671 C   0  0  0  0  0  0  0  0  0  0  0  0
  -18.9875  -30.2320   20.9037 C   0  0  0  0  0  0  0  0  0  0  0  0
  -31.0883  -23.1599   15.9313 C   0  0  0  0  0  0  0  0  0  0  0  0
  -23.2964  -31.5672   15.7537 C   0  0  0  0  0  0  0  0  0  0  0  0
  -29.3144  -26.1111   19.3192 C   0  0  0  0  0  0  0  0  0  1  0  0
  -21.1557  -29.5681   19.7856 C   0  0  1  0  0  0  0  0  0  0  0  0
  -20.9296  -30.9536   16.2644 C   0  0  2  0  0  0  0  0  0  0  0  0
  -19.8883  -29.0395   20.5148 C   0  0  0  0  0  0  0  0  0  0  0  0
  -24.8005  -15.7627   21.4655 N   0  0  0  0  0  0  0  0  0  0  0  0
  -30.2582  -24.8445   17.4402 N   0  0  0  0  0  0  0  0  0  0  0  0
  -30.5046  -23.5465   17.1940 N   0  0  0  0  0  0  0  0  0  0  0  0
  -25.7683  -14.9819   20.9557 N   0  0  0  0  0  0  0  0  0  0  0  0
  -23.3173  -30.0173   20.9035 N   0  0  0  0  0  0  0  0  0  0  0  0
  -28.2389  -17.6724   19.7981 N   0  0  0  0  0  0  0  0  0  0  0  0
  -29.2611  -19.3625   18.4745 N   0  0  0  0  0  0  0  0  0  0  0  0
  -26.2603  -12.7523   20.3251 N   0  0  0  0  0  0  0  0  0  0  0  0
  -22.0066  -12.4975   21.8210 N   0  0  0  0  0  0  0  0  0  0  0  0
  -24.6370  -30.5209   24.2652 N   0  0  0  0  0  0  0  0  0  0  0  0
  -20.8730  -30.3473   18.5850 N   0  0  0  0  0  0  0  0  0  0  0  0
  -21.9925  -31.0866   15.2283 N   0  3  0  0  0  0  0  0  0  0  0  0
  -23.7529  -11.2867   20.9588 O   0  0  0  0  0  0  0  0  0  0  0  0
  -23.3271  -28.9115   23.2084 O   0  0  0  0  0  0  0  0  0  0  0  0
  -21.5207  -31.4856   21.1333 O   0  0  0  0  0  0  0  0  0  0  0  0
  -22.0773  -29.0089   17.1237 O   0  0  0  0  0  0  0  0  0  0  0  0
  -27.7769  -17.9124   17.5496 O   0  0  0  0  0  0  0  0  0  0  0  0
  -18.9478  -16.7190   23.7851 O   0  0  0  0  0  0  0  0  0  0  0  0
  -27.8908  -26.2052   19.2901 O   0  0  0  0  0  0  0  0  0  1  0  0
  -16.6024  -13.6995   27.7581 F   0  0  0  0  0  0  0  0  0  0  0  0
  -18.4722  -17.7919   26.2881 F   0  0  0  0  0  0  0  0  0  0  0  0
  1  2  1  0  0  0  0
  1  5  2  0  0  0  0
  2  6  2  0  0  0  0
  3  8  2  0  0  0  0
  3 16  1  0  0  0  0
  4  9  1  0  0  0  0
  4 16  2  0  0  0  0
  5 18  1  0  0  0  0
  6 20  1  0  0  0  0
  7 10  2  0  0  0  0
  7 19  1  0  0  0  0
  8 22  1  0  0  0  0
  9 22  2  0  0  0  0
 10 23  1  0  0  0  0
 11 12  2  0  0  0  0
 11 24  1  0  0  0  0
 12 25  1  0  0  0  0
 13 21  1  0  0  0  0
 13 23  2  0  0  0  0
 14 25  2  0  0  0  0
 14 26  1  0  0  0  0
 15 28  2  0  0  0  0
 15 29  1  0  0  0  0
 16 27  1  0  0  0  0
 17 27  1  0  0  0  0
 17 30  2  0  0  0  0
 17 31  1  0  0  0  0
 18 20  2  0  0  0  0
 18 36  1  0  0  0  0
 19 21  2  0  0  0  0
 19 37  1  0  0  0  0
 20 47  1  0  0  0  0
 21 38  1  0  0  0  0
 22 78  1  0  0  0  0
 23 79  1  0  0  0  0
 24 26  2  0  0  0  0
 24 78  1  0  0  0  0
 25 80  1  0  0  0  0
 26 81  1  0  0  0  0
 27 61  2  0  0  0  0
 28 48  1  0  0  0  0
 28 63  1  0  0  0  0
 29 57  1  0  0  0  0
 29 62  2  0  0  0  0
 30 64  1  0  0  0  0
 30 68  1  0  0  0  0
 31 69  1  0  0  0  0
 31 73  2  0  0  0  0
 32 49  1  0  0  0  0
 32 70  1  0  0  0  0
 32 74  2  0  0  0  0
 33 58  1  0  0  0  0
 33 65  1  0  0  0  0
 33 75  2  0  0  0  0
 34 59  1  0  0  0  0
 34 71  1  0  0  0  0
 34 76  2  0  0  0  0
 35 66  1  0  0  0  0
 35 67  1  0  0  0  0
 35 77  2  0  0  0  0
 36 39  1  0  0  0  0
 37 49  1  0  0  0  0
 38 65  1  0  0  0  0
 39 41  1  0  0  0  0
 40 42  1  0  0  0  0
 40 43  1  0  0  0  0
 41 47  1  0  0  0  0
 42 50  1  0  0  0  0
 43 66  1  0  0  0  0
 44 48  1  0  0  0  0
 44 67  1  0  0  0  0
 45 48  1  0  0  0  0
 45 67  1  0  0  0  0
 46 50  1  0  0  0  0
 46 66  1  0  0  0  0
 47 70  1  0  0  0  0
 49 65  1  0  0  0  0
 50 64  1  0  0  0  0
 51 59  1  0  0  0  0
 52 60  1  0  0  0  0
 53 60  1  0  0  0  0
 54 60  1  0  0  0  0
 55 63  1  0  0  0  0
 56 72  1  0  0  0  0
 57 79  1  0  0  0  0
 58 60  1  0  0  0  0
 58 71  1  0  0  0  0
 59 72  1  0  0  0  0
 61 64  1  0  0  0  0
 62 63  1  0  0  0  0
M  CHG  1  72   1
M  ISO  4  35 100  57 101  67 100  79 101
M  END
> <Batch ID>
0188

> <Smiles>
CNC(C)C(=O)NC(C(=O)N1Cc2cc([101O:1][101CH2:1]c3cc(C4C[100N:0]([100C:0](=O)N5CCCC(n6nc(-c7ccc(Oc8ccc(F)cc8F)cc7)c(C(N)=O)c6N)C5)C4)n(C)n3)ccc2CC1C(=O)NC1CCCc2ccccc21)C(C)(C)C

> <Shape>
0.248

> <Color>
0.081

> <Negative vol penalty>
0.000

$$$$

  -OEChem-04052323193D

 85 94  0     1  0  0  0  0  0999 V2000
  -21.9180  -32.7345   24.8937 C   0  0  0  0  0  0  0  0  0  0  0  0
  -23.0519  -32.0558   24.4591 C   0  0  0  0  0  0  0  0  0  0  0  0
  -24.3409  -13.9431   20.6614 C   0  0  0  0  0  0  0  0  0  0  0  0
  -26.7173  -13.5879   20.9139 C   0  0  0  0  0  0  0  0  0  0  0  0
  -20.7077  -32.0548   25.0249 C   0  0  0  0  0  0  0  0  0  0  0  0
  -22.9765  -30.6967   24.1565 C   0  0  0  0  0  0  0  0  0  0  0  0
  -25.3475  -29.5340   19.8355 C   0  0  0  0  0  0  0  0  0  0  0  0
  -24.1721  -12.5935   20.3521 C   0  0  0  0  0  0  0  0  0  0  0  0
  -26.5485  -12.2383   20.6046 C   0  0  0  0  0  0  0  0  0  0  0  0
  -26.7379  -29.4401   19.8774 C   0  0  0  0  0  0  0  0  0  0  0  0
  -24.0114   -9.6567   22.0201 C   0  0  0  0  0  0  0  0  0  0  0  0
  -22.9585   -8.9779   22.6334 C   0  0  0  0  0  0  0  0  0  0  0  0
  -26.5659  -27.0370   19.9979 C   0  0  0  0  0  0  0  0  0  0  0  0
  -22.0126   -8.4864   20.4652 C   0  0  0  0  0  0  0  0  0  0  0  0
  -33.5886  -25.9555   23.2039 C   0  0  0  0  0  0  0  0  0  0  0  0
  -33.5475  -24.7076   23.7858 C   0  0  0  0  0  0  0  0  0  0  0  0
  -25.6135  -14.4403   20.9423 C   0  0  0  0  0  0  0  0  0  0  0  0
  -25.7418  -16.4268   22.5376 C   0  0  0  0  0  0  0  0  0  0  0  0
  -20.6151  -30.6889   24.7145 C   0  0  0  0  0  0  0  0  0  0  0  0
  -24.5543  -28.3787   19.8855 C   0  0  0  0  0  0  0  0  0  0  0  0
  -21.7642  -29.9978   24.2850 C   0  0  0  0  0  0  0  0  0  0  0  0
  -25.1658  -27.1187   19.9538 C   0  0  0  0  0  0  0  0  0  0  0  0
  -25.2758  -11.7411   20.3236 C   0  0  0  0  0  0  0  0  0  0  0  0
  -27.3473  -28.1916   19.9616 C   0  0  0  0  0  0  0  0  0  0  0  0
  -24.0650   -9.7505   20.6294 C   0  0  0  0  0  0  0  0  0  0  0  0
  -21.9591   -8.3927   21.8559 C   0  0  0  0  0  0  0  0  0  0  0  0
  -23.0656   -9.1653   19.8520 C   0  0  0  0  0  0  0  0  0  0  0  0
  -25.7887  -15.8344   21.2614 C   0  0  0  0  0  0  0  0  0  0  0  0
  -32.2754  -25.2001   21.4909 C   0  0  0  0  0  0  0  0  0  0  0  0
  -32.2348  -23.9520   22.0723 C   0  0  0  0  0  0  0  0  0  0  0  0
  -25.9669  -17.7616   22.3050 C   0  0  0  0  0  0  0  0  0  0  0  0
  -25.5152  -15.8243   23.8188 C   0  0  0  0  0  0  0  0  0  0  0  0
  -22.3618  -27.2481   21.8902 C   0  0  0  0  0  0  0  0  0  0  0  0
  -22.0283  -24.9574   19.6178 C   0  0  0  0  0  0  0  0  0  0  0  0
  -23.4064  -23.2413   17.0097 C   0  0  0  0  0  0  0  0  0  0  0  0
  -28.7866  -21.8506   19.7605 C   0  0  0  0  0  0  0  0  0  0  0  0
  -19.2961  -29.9862   24.9171 C   0  0  0  0  0  0  0  0  0  0  0  0
  -23.0565  -28.4955   19.8123 C   0  0  0  0  0  0  0  0  0  0  0  0
  -24.3597  -25.8470   19.9898 C   0  0  0  0  0  0  0  0  0  0  0  0
  -19.2138  -28.6318   24.2176 C   0  0  0  0  0  0  0  0  0  0  0  0
  -26.0816  -20.3757   17.9761 C   0  0  0  0  0  0  0  0  0  0  0  0
  -20.4771  -27.8180   24.4796 C   0  0  0  0  0  0  0  0  0  0  0  0
  -25.7649  -19.1091   18.7732 C   0  0  0  0  0  0  0  0  0  0  0  0
  -27.5806  -20.6659   17.9498 C   0  0  0  0  0  0  0  0  0  0  0  0
  -27.9067  -19.4580   20.0731 C   0  0  0  0  0  0  0  0  0  0  0  0
  -31.4680  -27.1014   18.7434 C   0  0  0  0  0  0  0  0  0  0  0  0
  -21.7166  -28.5291   23.9233 C   0  0  1  0  0  0  0  0  0  0  0  0
  -31.5799  -25.5761   20.1795 C   0  0  1  0  0  0  0  0  0  0  0  0
  -22.3336  -27.2817   20.3883 C   0  0  1  0  0  0  0  0  0  0  0  0
  -30.7734  -26.9030   20.1085 C   0  0  2  0  0  0  0  0  0  0  0  0
  -26.4020  -19.1549   20.1751 C   0  0  2  0  0  0  0  0  0  0  0  0
  -22.9053  -21.4025   15.3772 C   0  0  0  0  0  0  0  0  0  0  0  0
  -22.4679  -22.8884   21.8170 C   0  0  0  0  0  0  0  0  0  0  0  0
  -22.9032  -21.1868   20.0328 C   0  0  0  0  0  0  0  0  0  0  0  0
  -20.6756  -22.3006   20.1748 C   0  0  0  0  0  0  0  0  0  0  0  0
  -32.9569  -25.2465   18.1624 C   0  0  0  0  0  0  0  0  0  0  0  0
  -23.7119  -25.0573   14.6928 C   0  0  0  0  0  0  0  0  0  0  0  0
  -31.4777  -22.8349   21.4413 C   0  0  0  0  0  0  0  0  0  0  0  0
  -29.2617  -26.7864   20.0895 C   0  0  0  0  0  0  0  0  0  1  0  0
  -29.9629  -22.9101   21.6718 C   0  0  0  0  0  0  0  0  0  0  0  0
  -22.6693  -23.6174   19.3484 C   0  0  1  0  0  0  0  0  0  0  0  0
  -22.8689  -22.9015   15.6312 C   0  0  2  0  0  0  0  0  0  0  0  0
  -22.1944  -22.5222   20.3445 C   0  0  0  0  0  0  0  0  0  0  0  0
  -32.9532  -26.2242   22.0461 N   0  0  0  0  0  0  0  0  0  0  0  0
  -32.8699  -23.6834   23.2304 N   0  0  0  0  0  0  0  0  0  0  0  0
  -26.0248  -16.7203   20.2901 N   0  0  0  0  0  0  0  0  0  0  0  0
  -26.1282  -17.8830   20.9562 N   0  0  0  0  0  0  0  0  0  0  0  0
  -22.8985  -26.0137   19.9221 N   0  0  0  0  0  0  0  0  0  0  0  0
  -28.1228  -20.6975   19.3103 N   0  0  0  0  0  0  0  0  0  0  0  0
  -26.0404  -18.8317   23.1248 N   0  0  0  0  0  0  0  0  0  0  0  0
  -25.3013  -14.4405   23.8779 N   0  0  0  0  0  0  0  0  0  0  0  0
  -21.7962  -28.3579   22.4885 N   0  0  0  0  0  0  0  0  0  0  0  0
  -22.3987  -23.3096   17.9483 N   0  0  0  0  0  0  0  0  0  0  0  0
  -29.2642  -21.7994   21.0643 N   0  0  0  0  0  0  0  0  0  0  0  0
  -32.5354  -26.1953   19.2183 N   0  3  1  0  0  0  0  0  0  0  0  0
  -23.6794  -23.5764   14.5784 N   0  3  0  0  0  0  0  0  0  0  0  0
  -25.4864  -16.4958   24.8779 O   0  0  0  0  0  0  0  0  0  0  0  0
  -22.8586  -26.2859   22.4638 O   0  0  0  0  0  0  0  0  0  0  0  0
  -20.8011  -25.0645   19.5535 O   0  0  0  0  0  0  0  0  0  0  0  0
  -24.6013  -23.4240   17.2323 O   0  0  0  0  0  0  0  0  0  0  0  0
  -28.9374  -22.8536   19.0547 O   0  0  0  0  0  0  0  0  0  0  0  0
  -25.1114  -10.4241   20.0220 O   0  0  0  0  0  0  0  0  0  0  0  0
  -28.7042  -28.0972   20.0034 O   0  0  0  0  0  0  0  0  0  1  0  0
  -20.9489   -7.7395   22.4449 F   0  0  0  0  0  0  0  0  0  0  0  0
  -23.1122   -9.2510   18.5154 F   0  0  0  0  0  0  0  0  0  0  0  0
  1  2  1  0  0  0  0
  1  5  2  0  0  0  0
  2  6  2  0  0  0  0
  3  8  2  0  0  0  0
  3 17  1  0  0  0  0
  4  9  1  0  0  0  0
  4 17  2  0  0  0  0
  5 19  1  0  0  0  0
  6 21  1  0  0  0  0
  7 10  2  0  0  0  0
  7 20  1  0  0  0  0
  8 23  1  0  0  0  0
  9 23  2  0  0  0  0
 10 24  1  0  0  0  0
 11 12  2  0  0  0  0
 11 25  1  0  0  0  0
 12 26  1  0  0  0  0
 13 22  1  0  0  0  0
 13 24  2  0  0  0  0
 14 26  2  0  0  0  0
 14 27  1  0  0  0  0
 15 16  1  0  0  0  0
 15 64  2  0  0  0  0
 16 65  2  0  0  0  0
 17 28  1  0  0  0  0
 18 28  1  0  0  0  0
 18 31  2  0  0  0  0
 18 32  1  0  0  0  0
 19 21  2  0  0  0  0
 19 37  1  0  0  0  0
 20 22  2  0  0  0  0
 20 38  1  0  0  0  0
 21 47  1  0  0  0  0
 22 39  1  0  0  0  0
 23 82  1  0  0  0  0
 24 83  1  0  0  0  0
 25 27  2  0  0  0  0
 25 82  1  0  0  0  0
 26 84  1  0  0  0  0
 27 85  1  0  0  0  0
 28 66  2  0  0  0  0
 29 30  2  0  0  0  0
 29 48  1  0  0  0  0
 29 64  1  0  0  0  0
 30 58  1  0  0  0  0
 30 65  1  0  0  0  0
 31 67  1  0  0  0  0
 31 70  1  0  0  0  0
 32 71  1  0  0  0  0
 32 77  2  0  0  0  0
 33 49  1  0  0  0  0
 33 72  1  0  0  0  0
 33 78  2  0  0  0  0
 34 61  1  0  0  0  0
 34 68  1  0  0  0  0
 34 79  2  0  0  0  0
 35 62  1  0  0  0  0
 35 73  1  0  0  0  0
 35 80  2  0  0  0  0
 36 69  1  0  0  0  0
 36 74  1  0  0  0  0
 36 81  2  0  0  0  0
 37 40  1  0  0  0  0
 38 49  1  0  0  0  0
 39 68  1  0  0  0  0
 40 42  1  0  0  0  0
 41 43  1  0  0  0  0
 41 44  1  0  0  0  0
 42 47  1  0  0  0  0
 43 51  1  0  0  0  0
 44 69  1  0  0  0  0
 45 51  1  0  0  0  0
 45 69  1  0  0  0  0
 46 50  1  0  0  0  0
 46 75  1  0  0  0  0
 47 72  1  0  0  0  0
 48 50  1  0  0  0  0
 48 75  1  0  0  0  0
 49 68  1  0  0  0  0
 50 59  1  0  0  0  0
 51 67  1  0  0  0  0
 52 62  1  0  0  0  0
 53 63  1  0  0  0  0
 54 63  1  0  0  0  0
 55 63  1  0  0  0  0
 56 75  1  0  0  0  0
 57 76  1  0  0  0  0
 58 60  1  0  0  0  0
 59 83  1  0  0  0  0
 60 74  1  0  0  0  0
 61 63  1  0  0  0  0
 61 73  1  0  0  0  0
 62 76  1  0  0  0  0
 66 67  1  0  0  0  0
M  CHG  2  75   1  76   1
M  ISO  4  36 100  59 101  74 100  83 101
M  END
> <Batch ID>
0188

> <Smiles>
CNC(C)C(=O)NC(C(=O)N1Cc2cc([101O:1][101CH2:1]C3CN(C)C3c3nccnc3CC[100NH:0][100C:0](=O)N3CCCC(n4nc(-c5ccc(Oc6ccc(F)cc6F)cc5)c(C(N)=O)c4N)C3)ccc2CC1C(=O)NC1CCCc2ccccc21)C(C)(C)C

> <Shape>
0.214

> <Color>
0.077

> <Negative vol penalty>
0.000

$$$$

  -OEChem-04052323193D

 79 88  0     1  0  0  0  0  0999 V2000
  -33.9237  -28.4074    8.0227 C   0  0  0  0  0  0  0  0  0  0  0  0
  -34.2357  -27.1806    8.5998 C   0  0  0  0  0  0  0  0  0  0  0  0
  -23.1924   -9.8638   19.9210 C   0  0  0  0  0  0  0  0  0  0  0  0
  -23.8020   -9.9684   22.2565 C   0  0  0  0  0  0  0  0  0  0  0  0
  -33.7616  -29.5341    8.8279 C   0  0  0  0  0  0  0  0  0  0  0  0
  -34.3868  -27.0799    9.9823 C   0  0  0  0  0  0  0  0  0  0  0  0
  -32.8759  -22.3097   13.5133 C   0  0  0  0  0  0  0  0  0  0  0  0
  -22.4784   -8.6897   20.1599 C   0  0  0  0  0  0  0  0  0  0  0  0
  -23.0879   -8.7943   22.4954 C   0  0  0  0  0  0  0  0  0  0  0  0
  -33.6265  -21.2635   14.0480 C   0  0  0  0  0  0  0  0  0  0  0  0
  -23.5403   -5.4716   22.0636 C   0  0  0  0  0  0  0  0  0  0  0  0
  -24.1467   -4.4933   22.8513 C   0  0  0  0  0  0  0  0  0  0  0  0
  -33.8515  -22.4888   16.1137 C   0  0  0  0  0  0  0  0  0  0  0  0
  -22.3334   -4.6487   24.4403 C   0  0  0  0  0  0  0  0  0  0  0  0
  -23.8543  -10.5032   20.9693 C   0  0  0  0  0  0  0  0  0  0  0  0
  -24.1069  -13.0354   20.7908 C   0  0  0  0  0  0  0  0  0  0  0  0
  -33.9013  -29.4452   10.2219 C   0  0  0  0  0  0  0  0  0  0  0  0
  -32.6162  -23.4599   14.2723 C   0  0  0  0  0  0  0  0  0  0  0  0
  -34.2277  -28.2068   10.8068 C   0  0  0  0  0  0  0  0  0  0  0  0
  -33.0952  -23.5470   15.5873 C   0  0  0  0  0  0  0  0  0  0  0  0
  -22.4261   -8.1549   21.4471 C   0  0  0  0  0  0  0  0  0  0  0  0
  -34.1169  -21.3542   15.3474 C   0  0  0  0  0  0  0  0  0  0  0  0
  -22.3304   -6.0386   22.4642 C   0  0  0  0  0  0  0  0  0  0  0  0
  -23.5433   -4.0817   24.0397 C   0  0  0  0  0  0  0  0  0  0  0  0
  -21.7270   -5.6271   23.6526 C   0  0  0  0  0  0  0  0  0  0  0  0
  -24.5926  -11.7158   20.7230 C   0  0  0  0  0  0  0  0  0  0  0  0
  -25.1909  -13.8169   20.4738 C   0  0  0  0  0  0  0  0  0  0  0  0
  -22.7933  -13.5120   21.1119 C   0  0  0  0  0  0  0  0  0  0  0  0
  -33.3184  -26.5461   13.9799 C   0  0  0  0  0  0  0  0  0  0  0  0
  -31.4011  -26.8289   16.5811 C   0  0  0  0  0  0  0  0  0  0  0  0
  -30.0158  -25.3603   19.3326 C   0  0  0  0  0  0  0  0  0  0  0  0
  -30.5472  -14.9759   21.2408 C   0  0  0  0  0  0  0  0  0  0  0  0
  -33.7632  -30.7003   11.0468 C   0  0  0  0  0  0  0  0  0  0  0  0
  -31.7823  -24.5681   13.6903 C   0  0  0  0  0  0  0  0  0  0  0  0
  -32.8271  -24.7517   16.4506 C   0  0  0  0  0  0  0  0  0  0  0  0
  -33.5713  -30.4316   12.5372 C   0  0  0  0  0  0  0  0  0  0  0  0
  -29.7188  -12.5709   18.5999 C   0  0  0  0  0  0  0  0  0  0  0  0
  -34.5742  -29.3912   13.0255 C   0  0  0  0  0  0  0  0  0  0  0  0
  -28.2671  -12.2316   18.9416 C   0  0  0  0  0  0  0  0  0  0  0  0
  -30.5310  -12.8272   19.8636 C   0  0  0  0  0  0  0  0  0  0  0  0
  -32.4097  -16.6900   20.9081 C   0  0  0  0  0  0  0  0  0  0  0  0
  -32.0658  -15.5056   19.1750 C   0  0  0  0  0  0  0  0  0  0  0  0
  -28.5274  -13.5606   21.0920 C   0  0  0  0  0  0  0  0  0  0  0  0
  -33.1585  -18.8585   17.0444 C   0  0  0  0  0  0  0  0  0  0  0  0
  -35.0399  -17.9825   16.8090 C   0  0  0  0  0  0  0  0  0  0  0  0
  -34.3753  -28.0523   12.3049 C   0  0  1  0  0  0  0  0  0  0  0  0
  -32.0142  -25.9123   14.3735 C   0  0  1  0  0  0  0  0  0  0  0  0
  -32.4924  -16.9690   19.3976 C   0  0  0  0  0  0  0  0  0  0  0  0
  -27.6448  -13.3018   19.8570 C   0  0  2  0  0  0  0  0  0  0  0  0
  -34.2609  -19.0208   15.9828 C   0  0  0  0  0  0  0  0  0  1  0  0
  -28.5223  -25.8545   21.2877 C   0  0  0  0  0  0  0  0  0  0  0  0
  -33.6889  -28.3122   17.9507 C   0  0  0  0  0  0  0  0  0  0  0  0
  -32.5293  -27.9385   20.1379 C   0  0  0  0  0  0  0  0  0  0  0  0
  -31.4223  -29.2882   18.3559 C   0  0  0  0  0  0  0  0  0  0  0  0
  -28.0277  -23.3439   18.4720 C   0  0  0  0  0  0  0  0  0  0  0  0
  -33.8508  -17.3689   18.8580 C   0  0  0  0  0  0  0  0  0  0  0  0
  -31.6125  -26.7828   18.0751 C   0  0  1  0  0  0  0  0  0  0  0  0
  -28.5911  -25.3450   19.8565 C   0  0  2  0  0  0  0  0  0  0  0  0
  -32.3201  -28.0584   18.6132 C   0  0  0  0  0  0  0  0  0  0  0  0
  -25.8845  -11.6584   20.3889 N   0  0  0  0  0  0  0  0  0  0  0  0
  -26.2198  -12.9517   20.2439 N   0  0  0  0  0  0  0  0  0  0  0  0
  -32.0121  -25.8116   15.8344 N   0  0  0  0  0  0  0  0  0  0  0  0
  -29.9036  -13.8659   20.6869 N   0  0  0  0  0  0  0  0  0  0  0  0
  -31.6069  -15.5220   20.5558 N   0  0  0  0  0  0  0  0  0  0  0  0
  -25.3548  -15.1530   20.3719 N   0  0  0  0  0  0  0  0  0  0  0  0
  -21.7971  -12.5734   21.4132 N   0  0  0  0  0  0  0  0  0  0  0  0
  -33.2386  -27.3458   12.8558 N   0  0  0  0  0  0  0  0  0  0  0  0
  -30.3020  -26.5325   18.6653 N   0  0  0  0  0  0  0  0  0  0  0  0
  -33.7550  -17.5560   17.3937 N   0  3  0  0  0  0  0  0  0  0  0  0
  -28.0420  -23.9599   19.8237 N   0  3  0  0  0  0  0  0  0  0  0  0
  -22.5072  -14.7334   21.1150 O   0  0  0  0  0  0  0  0  0  0  0  0
  -34.3224  -26.3271   14.6475 O   0  0  0  0  0  0  0  0  0  0  0  0
  -30.7131  -27.7302   16.0953 O   0  0  0  0  0  0  0  0  0  0  0  0
  -30.7978  -24.4273   19.5018 O   0  0  0  0  0  0  0  0  0  0  0  0
  -30.1678  -15.4873   22.3027 O   0  0  0  0  0  0  0  0  0  0  0  0
  -21.7292   -7.0093   21.6807 O   0  0  0  0  0  0  0  0  0  0  0  0
  -34.8590  -20.3228   15.8776 O   0  0  0  0  0  0  0  0  0  1  0  0
  -24.1250   -3.1411   24.7953 F   0  0  0  0  0  0  0  0  0  0  0  0
  -20.5641   -6.1673   24.0421 F   0  0  0  0  0  0  0  0  0  0  0  0
  1  2  1  0  0  0  0
  1  5  2  0  0  0  0
  2  6  2  0  0  0  0
  3  8  2  0  0  0  0
  3 15  1  0  0  0  0
  4  9  1  0  0  0  0
  4 15  2  0  0  0  0
  5 17  1  0  0  0  0
  6 19  1  0  0  0  0
  7 10  2  0  0  0  0
  7 18  1  0  0  0  0
  8 21  1  0  0  0  0
  9 21  2  0  0  0  0
 10 22  1  0  0  0  0
 11 12  2  0  0  0  0
 11 23  1  0  0  0  0
 12 24  1  0  0  0  0
 13 20  1  0  0  0  0
 13 22  2  0  0  0  0
 14 24  2  0  0  0  0
 14 25  1  0  0  0  0
 15 26  1  0  0  0  0
 16 26  1  0  0  0  0
 16 27  2  0  0  0  0
 16 28  1  0  0  0  0
 17 19  2  0  0  0  0
 17 33  1  0  0  0  0
 18 20  2  0  0  0  0
 18 34  1  0  0  0  0
 19 46  1  0  0  0  0
 20 35  1  0  0  0  0
 21 76  1  0  0  0  0
 22 77  1  0  0  0  0
 23 25  2  0  0  0  0
 23 76  1  0  0  0  0
 24 78  1  0  0  0  0
 25 79  1  0  0  0  0
 26 60  2  0  0  0  0
 27 61  1  0  0  0  0
 27 65  1  0  0  0  0
 28 66  1  0  0  0  0
 28 71  2  0  0  0  0
 29 47  1  0  0  0  0
 29 67  1  0  0  0  0
 29 72  2  0  0  0  0
 30 57  1  0  0  0  0
 30 62  1  0  0  0  0
 30 73  2  0  0  0  0
 31 58  1  0  0  0  0
 31 68  1  0  0  0  0
 31 74  2  0  0  0  0
 32 63  1  0  0  0  0
 32 64  1  0  0  0  0
 32 75  2  0  0  0  0
 33 36  1  0  0  0  0
 34 47  1  0  0  0  0
 35 62  1  0  0  0  0
 36 38  1  0  0  0  0
 37 39  1  0  0  0  0
 37 40  1  0  0  0  0
 38 46  1  0  0  0  0
 39 49  1  0  0  0  0
 40 63  1  0  0  0  0
 41 48  1  0  0  0  0
 41 64  1  0  0  0  0
 42 48  1  0  0  0  0
 42 64  1  0  0  0  0
 43 49  1  0  0  0  0
 43 63  1  0  0  0  0
 44 50  1  0  0  0  0
 44 69  1  0  0  0  0
 45 50  1  0  0  0  0
 45 69  1  0  0  0  0
 46 67  1  0  0  0  0
 47 62  1  0  0  0  0
 48 56  1  0  0  0  0
 49 61  1  0  0  0  0
 50 77  1  0  0  0  0
 51 58  1  0  0  0  0
 52 59  1  0  0  0  0
 53 59  1  0  0  0  0
 54 59  1  0  0  0  0
 55 70  1  0  0  0  0
 56 69  1  0  0  0  0
 57 59  1  0  0  0  0
 57 68  1  0  0  0  0
 58 70  1  0  0  0  0
 60 61  1  0  0  0  0
M  CHG  2  69   1  70   1
M  ISO  4  32 100  50 101  64 100  77 101
M  END
> <Batch ID>
0188

> <Smiles>
CNC(C)C(=O)NC(C(=O)N1Cc2cc([101O:1][101CH:1]3CN(CC4C[100N:0]([100C:0](=O)N5CCCC(n6nc(-c7ccc(Oc8ccc(F)cc8F)cc7)c(C(N)=O)c6N)C5)C4)C3)ccc2CC1C(=O)NC1CCCc2ccccc21)C(C)(C)C

> <Shape>
0.200

> <Color>
0.184

> <Negative vol penalty>
0.000

$$$$

  -OEChem-04052323193D

 85 94  0     1  0  0  0  0  0999 V2000
  -33.0565  -20.5808   23.7790 C   0  0  0  0  0  0  0  0  0  0  0  0
  -31.9949  -20.8215   24.6453 C   0  0  0  0  0  0  0  0  0  0  0  0
  -29.7555  -26.2069   19.2414 C   0  0  0  0  0  0  0  0  0  0  0  0
  -29.3036  -26.2694   21.6139 C   0  0  0  0  0  0  0  0  0  0  0  0
  -32.8115  -20.3446   22.4269 C   0  0  0  0  0  0  0  0  0  0  0  0
  -30.6878  -20.8274   24.1598 C   0  0  0  0  0  0  0  0  0  0  0  0
  -23.9946  -19.1989   26.1260 C   0  0  0  0  0  0  0  0  0  0  0  0
  -31.0355  -25.7157   19.4982 C   0  0  0  0  0  0  0  0  0  0  0  0
  -30.5836  -25.7782   21.8707 C   0  0  0  0  0  0  0  0  0  0  0  0
  -22.7201  -19.7618   26.1778 C   0  0  0  0  0  0  0  0  0  0  0  0
  -33.7393  -26.9863   21.9846 C   0  0  0  0  0  0  0  0  0  0  0  0
  -34.4774  -27.5989   22.9972 C   0  0  0  0  0  0  0  0  0  0  0  0
  -22.4112  -19.2629   23.8379 C   0  0  0  0  0  0  0  0  0  0  0  0
  -34.5987  -25.4962   24.1809 C   0  0  0  0  0  0  0  0  0  0  0  0
  -18.4813  -26.2592   21.9332 C   0  0  0  0  0  0  0  0  0  0  0  0
  -19.6248  -27.7903   23.7975 C   0  0  0  0  0  0  0  0  0  0  0  0
  -28.8896  -26.4838   20.2993 C   0  0  0  0  0  0  0  0  0  0  0  0
  -26.5511  -26.3681   19.2865 C   0  0  0  0  0  0  0  0  0  0  0  0
  -31.5000  -20.3380   21.9263 C   0  0  0  0  0  0  0  0  0  0  0  0
  -24.4920  -18.6728   24.9251 C   0  0  0  0  0  0  0  0  0  0  0  0
  -30.4251  -20.5923   22.7995 C   0  0  0  0  0  0  0  0  0  0  0  0
  -23.6913  -18.6917   23.7741 C   0  0  0  0  0  0  0  0  0  0  0  0
  -31.4495  -25.5013   20.8128 C   0  0  0  0  0  0  0  0  0  0  0  0
  -21.9293  -19.7965   25.0330 C   0  0  0  0  0  0  0  0  0  0  0  0
  -33.4307  -25.6287   22.0702 C   0  0  0  0  0  0  0  0  0  0  0  0
  -34.9072  -26.8539   24.0954 C   0  0  0  0  0  0  0  0  0  0  0  0
  -33.8605  -24.8836   23.1683 C   0  0  0  0  0  0  0  0  0  0  0  0
  -27.5674  -26.9918   20.0348 C   0  0  0  0  0  0  0  0  0  0  0  0
  -18.5941  -25.8276   23.2365 C   0  0  0  0  0  0  0  0  0  0  0  0
  -19.5127  -28.2218   22.4942 C   0  0  0  0  0  0  0  0  0  0  0  0
  -25.4995  -27.2505   19.3333 C   0  0  0  0  0  0  0  0  0  0  0  0
  -26.5570  -25.1041   18.6097 C   0  0  0  0  0  0  0  0  0  0  0  0
  -26.9546  -19.3454   23.0312 C   0  0  0  0  0  0  0  0  0  0  0  0
  -25.9814  -16.6744   21.4688 C   0  0  0  0  0  0  0  0  0  0  0  0
  -23.4498  -14.5054   20.7385 C   0  0  0  0  0  0  0  0  0  0  0  0
  -22.2054  -30.7498   22.1702 C   0  0  0  0  0  0  0  0  0  0  0  0
  -31.2882  -20.1247   20.4484 C   0  0  0  0  0  0  0  0  0  0  0  0
  -25.8585  -18.0450   24.8922 C   0  0  0  0  0  0  0  0  0  0  0  0
  -24.1709  -18.1218   22.4650 C   0  0  0  0  0  0  0  0  0  0  0  0
  -29.8472  -19.7769   20.0836 C   0  0  0  0  0  0  0  0  0  0  0  0
  -25.2900  -32.0400   20.9468 C   0  0  0  0  0  0  0  0  0  0  0  0
  -28.8757  -20.7156   20.7920 C   0  0  0  0  0  0  0  0  0  0  0  0
  -26.0755  -30.7903   20.5449 C   0  0  0  0  0  0  0  0  0  0  0  0
  -17.5991  -24.3851   25.0928 C   0  0  0  0  0  0  0  0  0  0  0  0
  -24.4489  -31.7995   22.1985 C   0  0  0  0  0  0  0  0  0  0  0  0
  -24.3340  -29.3840   21.7232 C   0  0  0  0  0  0  0  0  0  0  0  0
  -17.4894  -22.8907   25.3118 C   0  0  0  0  0  0  0  0  0  0  0  0
  -19.0933  -23.3401   23.5191 C   0  0  0  0  0  0  0  0  0  0  0  0
  -28.9914  -20.5823   22.3153 C   0  0  1  0  0  0  0  0  0  0  0  0
  -18.0702  -24.4719   23.6426 C   0  0  2  0  0  0  0  0  0  0  0  0
  -26.4630  -18.0025   23.4921 C   0  0  1  0  0  0  0  0  0  0  0  0
  -25.1542  -29.5606   20.4339 C   0  0  2  0  0  0  0  0  0  0  0  0
  -22.9486  -12.4404   19.4036 C   0  0  0  0  0  0  0  0  0  0  0  0
  -25.9108  -18.3445   18.9163 C   0  0  0  0  0  0  0  0  0  0  0  0
  -24.5307  -16.5431   17.8587 C   0  0  0  0  0  0  0  0  0  0  0  0
  -26.8493  -16.0439   18.6320 C   0  0  0  0  0  0  0  0  0  0  0  0
  -22.7456  -12.9664   23.1664 C   0  0  0  0  0  0  0  0  0  0  0  0
  -20.0291  -29.5593   22.0936 C   0  0  0  0  0  0  0  0  0  0  0  0
  -18.5580  -20.9399   24.1295 C   0  0  0  0  0  0  0  0  0  0  0  0
  -19.9294  -20.3480   23.8703 C   0  0  0  0  0  0  0  0  0  1  0  0
  -25.0189  -16.3857   20.3423 C   0  0  1  0  0  0  0  0  0  0  0  0
  -23.3873  -12.9887   20.7526 C   0  0  2  0  0  0  0  0  0  0  0  0
  -25.5689  -16.8419   18.9614 C   0  0  0  0  0  0  0  0  0  0  0  0
  -19.1675  -26.5854   24.1921 N   0  0  0  0  0  0  0  0  0  0  0  0
  -18.9389  -27.4640   21.5386 N   0  0  0  0  0  0  0  0  0  0  0  0
  -27.1951  -28.1787   20.5211 N   0  0  0  0  0  0  0  0  0  0  0  0
  -25.9332  -28.3080   20.0775 N   0  0  0  0  0  0  0  0  0  0  0  0
  -25.5165  -17.5246   22.4822 N   0  0  0  0  0  0  0  0  0  0  0  0
  -23.5967  -30.6204   22.0274 N   0  0  0  0  0  0  0  0  0  0  0  0
  -24.2556  -27.2172   18.8100 N   0  0  0  0  0  0  0  0  0  0  0  0
  -26.1444  -23.9661   19.3161 N   0  0  0  0  0  0  0  0  0  0  0  0
  -28.3111  -19.3891   22.7712 N   0  0  0  0  0  0  0  0  0  0  0  0
  -24.7120  -14.9617   20.4224 N   0  0  0  0  0  0  0  0  0  0  0  0
  -21.4708  -29.5849   21.9856 N   0  0  0  0  0  0  0  0  0  0  0  0
  -18.7107  -22.3483   24.6057 N   0  3  2  0  0  0  0  0  0  0  0  0
  -22.4224  -12.5196   21.7869 N   0  3  0  0  0  0  0  0  0  0  0  0
  -26.9330  -24.9847   17.4190 O   0  0  0  0  0  0  0  0  0  0  0  0
  -26.1617  -20.2729   22.9182 O   0  0  0  0  0  0  0  0  0  0  0  0
  -27.1019  -16.1587   21.4540 O   0  0  0  0  0  0  0  0  0  0  0  0
  -22.4754  -15.2145   20.9799 O   0  0  0  0  0  0  0  0  0  0  0  0
  -21.6578  -31.8250   22.4369 O   0  0  0  0  0  0  0  0  0  0  0  0
  -32.6984  -25.0217   21.0637 O   0  0  0  0  0  0  0  0  0  0  0  0
  -20.6852  -20.3459   25.0807 O   0  0  0  0  0  0  0  0  0  1  0  0
  -35.6174  -27.4420   25.0669 F   0  0  0  0  0  0  0  0  0  0  0  0
  -33.5681  -23.5787   23.2555 F   0  0  0  0  0  0  0  0  0  0  0  0
  1  2  1  0  0  0  0
  1  5  2  0  0  0  0
  2  6  2  0  0  0  0
  3  8  2  0  0  0  0
  3 17  1  0  0  0  0
  4  9  1  0  0  0  0
  4 17  2  0  0  0  0
  5 19  1  0  0  0  0
  6 21  1  0  0  0  0
  7 10  2  0  0  0  0
  7 20  1  0  0  0  0
  8 23  1  0  0  0  0
  9 23  2  0  0  0  0
 10 24  1  0  0  0  0
 11 12  2  0  0  0  0
 11 25  1  0  0  0  0
 12 26  1  0  0  0  0
 13 22  1  0  0  0  0
 13 24  2  0  0  0  0
 14 26  2  0  0  0  0
 14 27  1  0  0  0  0
 15 29  1  0  0  0  0
 15 65  2  0  0  0  0
 16 30  2  0  0  0  0
 16 64  1  0  0  0  0
 17 28  1  0  0  0  0
 18 28  1  0  0  0  0
 18 31  2  0  0  0  0
 18 32  1  0  0  0  0
 19 21  2  0  0  0  0
 19 37  1  0  0  0  0
 20 22  2  0  0  0  0
 20 38  1  0  0  0  0
 21 49  1  0  0  0  0
 22 39  1  0  0  0  0
 23 82  1  0  0  0  0
 24 83  1  0  0  0  0
 25 27  2  0  0  0  0
 25 82  1  0  0  0  0
 26 84  1  0  0  0  0
 27 85  1  0  0  0  0
 28 66  2  0  0  0  0
 29 50  1  0  0  0  0
 29 64  2  0  0  0  0
 30 58  1  0  0  0  0
 30 65  1  0  0  0  0
 31 67  1  0  0  0  0
 31 70  1  0  0  0  0
 32 71  1  0  0  0  0
 32 77  2  0  0  0  0
 33 51  1  0  0  0  0
 33 72  1  0  0  0  0
 33 78  2  0  0  0  0
 34 61  1  0  0  0  0
 34 68  1  0  0  0  0
 34 79  2  0  0  0  0
 35 62  1  0  0  0  0
 35 73  1  0  0  0  0
 35 80  2  0  0  0  0
 36 69  1  0  0  0  0
 36 74  1  0  0  0  0
 36 81  2  0  0  0  0
 37 40  1  0  0  0  0
 38 51  1  0  0  0  0
 39 68  1  0  0  0  0
 40 42  1  0  0  0  0
 41 43  1  0  0  0  0
 41 45  1  0  0  0  0
 42 49  1  0  0  0  0
 43 52  1  0  0  0  0
 44 47  1  0  0  0  0
 44 50  1  0  0  0  0
 45 69  1  0  0  0  0
 46 52  1  0  0  0  0
 46 69  1  0  0  0  0
 47 75  1  0  0  0  0
 48 50  1  0  0  0  0
 48 75  1  0  0  0  0
 49 72  1  0  0  0  0
 51 68  1  0  0  0  0
 52 67  1  0  0  0  0
 53 62  1  0  0  0  0
 54 63  1  0  0  0  0
 55 63  1  0  0  0  0
 56 63  1  0  0  0  0
 57 76  1  0  0  0  0
 58 74  1  0  0  0  0
 59 60  1  0  0  0  0
 59 75  1  0  0  0  0
 60 83  1  0  0  0  0
 61 63  1  0  0  0  0
 61 73  1  0  0  0  0
 62 76  1  0  0  0  0
 66 67  1  0  0  0  0
M  CHG  2  75   1  76   1
M  ISO  4  36 100  60 101  74 100  83 101
M  END
> <Batch ID>
0188

> <Smiles>
CNC(C)C(=O)NC(C(=O)N1Cc2cc([101O:1][101CH2:1]CN3CCC(c4cnc(C[100NH:0][100C:0](=O)N5CCCC(n6nc(-c7ccc(Oc8ccc(F)cc8F)cc7)c(C(N)=O)c6N)C5)cn4)C3)ccc2CC1C(=O)NC1CCCc2ccccc21)C(C)(C)C

> <Shape>
0.188

> <Color>
0.080

> <Negative vol penalty>
0.000

$$$$

  -OEChem-04052323193D

 83 92  0     1  0  0  0  0  0999 V2000
  -24.1236   -8.4628   21.5498 C   0  0  0  0  0  0  0  0  0  0  0  0
  -24.7961   -9.6324   21.2107 C   0  0  0  0  0  0  0  0  0  0  0  0
  -23.2064  -26.2487   21.5492 C   0  0  0  0  0  0  0  0  0  0  0  0
  -23.0599  -28.6034   22.0695 C   0  0  0  0  0  0  0  0  0  0  0  0
  -22.7315   -8.4580   21.6275 C   0  0  0  0  0  0  0  0  0  0  0  0
  -24.0769  -10.7977   20.9479 C   0  0  0  0  0  0  0  0  0  0  0  0
  -26.0888  -14.8693   23.1883 C   0  0  0  0  0  0  0  0  0  0  0  0
  -22.0829  -26.0043   22.3388 C   0  0  0  0  0  0  0  0  0  0  0  0
  -21.9364  -28.3590   22.8591 C   0  0  0  0  0  0  0  0  0  0  0  0
  -27.2124  -15.4362   22.5883 C   0  0  0  0  0  0  0  0  0  0  0  0
  -18.8147  -28.4062   24.7222 C   0  0  0  0  0  0  0  0  0  0  0  0
  -17.7246  -29.2655   24.5840 C   0  0  0  0  0  0  0  0  0  0  0  0
  -29.9595  -17.8621   18.9831 C   0  0  0  0  0  0  0  0  0  0  0  0
  -25.8169  -17.1326   21.5914 C   0  0  0  0  0  0  0  0  0  0  0  0
  -17.5440  -28.6612   22.2517 C   0  0  0  0  0  0  0  0  0  0  0  0
  -31.1464  -18.3545   18.4801 C   0  0  0  0  0  0  0  0  0  0  0  0
  -23.6950  -27.5482   21.4145 C   0  0  0  0  0  0  0  0  0  0  0  0
  -24.8797  -28.1066   19.2254 C   0  0  0  0  0  0  0  0  0  0  0  0
  -21.9953   -9.6263   21.3749 C   0  0  0  0  0  0  0  0  0  0  0  0
  -24.8171  -15.4244   22.9851 C   0  0  0  0  0  0  0  0  0  0  0  0
  -22.6736  -10.8082   21.0209 C   0  0  0  0  0  0  0  0  0  0  0  0
  -24.6791  -16.5724   22.1919 C   0  0  0  0  0  0  0  0  0  0  0  0
  -21.4479  -27.0594   22.9937 C   0  0  0  0  0  0  0  0  0  0  0  0
  -27.0762  -16.5662   21.7874 C   0  0  0  0  0  0  0  0  0  0  0  0
  -19.2695  -27.6745   23.6251 C   0  0  0  0  0  0  0  0  0  0  0  0
  -17.0893  -29.3929   23.3488 C   0  0  0  0  0  0  0  0  0  0  0  0
  -18.6342  -27.8020   22.3899 C   0  0  0  0  0  0  0  0  0  0  0  0
  -24.8559  -27.8013   20.5994 C   0  0  0  0  0  0  0  0  0  0  0  0
  -29.2553  -18.7219   19.8010 C   0  0  0  0  0  0  0  0  0  0  0  0
  -26.2127  -28.2557   18.9299 C   0  0  0  0  0  0  0  0  0  0  0  0
  -30.8411  -20.3323   19.5582 C   0  0  0  0  0  0  0  0  0  0  0  0
  -23.7940  -28.2432   18.2990 C   0  0  0  0  0  0  0  0  0  0  0  0
  -22.1015  -14.3965   21.6918 C   0  0  0  0  0  0  0  0  0  0  0  0
  -20.9592  -17.2241   22.7974 C   0  0  0  0  0  0  0  0  0  0  0  0
  -21.6083  -20.4321   23.7639 C   0  0  0  0  0  0  0  0  0  0  0  0
  -31.0877  -26.0274   21.8069 C   0  0  0  0  0  0  0  0  0  0  0  0
  -20.4894   -9.5604   21.4250 C   0  0  0  0  0  0  0  0  0  0  0  0
  -23.6186  -14.8168   23.6610 C   0  0  0  0  0  0  0  0  0  0  0  0
  -23.3387  -17.2186   21.9588 C   0  0  0  0  0  0  0  0  0  0  0  0
  -19.8219  -10.9314   21.4978 C   0  0  0  0  0  0  0  0  0  0  0  0
  -30.3792  -29.5177   20.9189 C   0  0  0  0  0  0  0  0  0  0  0  0
  -20.4379  -11.8801   20.4744 C   0  0  0  0  0  0  0  0  0  0  0  0
  -28.8716  -29.5028   20.6631 C   0  0  0  0  0  0  0  0  0  0  0  0
  -29.5003  -23.2838   19.9442 C   0  0  0  0  0  0  0  0  0  0  0  0
  -30.7939  -28.4734   21.9529 C   0  0  0  0  0  0  0  0  0  0  0  0
  -29.2720  -24.5046   20.8294 C   0  0  0  0  0  0  0  0  0  0  0  0
  -28.8267  -27.0935   21.4062 C   0  0  0  0  0  0  0  0  0  0  0  0
  -31.4920  -23.6624   21.1866 C   0  0  0  0  0  0  0  0  0  0  0  0
  -21.9299  -12.0987   20.7529 C   0  0  1  0  0  0  0  0  0  0  0  0
  -22.3036  -15.1619   22.9689 C   0  0  1  0  0  0  0  0  0  0  0  0
  -28.3803  -28.0837   20.3216 C   0  0  1  0  0  0  0  0  0  0  0  0
  -30.5919  -22.5359   20.7016 C   0  0  2  0  0  0  0  0  0  0  0  0
  -21.1612  -22.7190   24.6954 C   0  0  0  0  0  0  0  0  0  0  0  0
  -19.9644  -17.7854   19.9680 C   0  0  0  0  0  0  0  0  0  0  0  0
  -19.7078  -20.1916   20.6105 C   0  0  0  0  0  0  0  0  0  0  0  0
  -18.3729  -18.4403   21.7826 C   0  0  0  0  0  0  0  0  0  0  0  0
  -22.1804  -19.5446   26.5286 C   0  0  0  0  0  0  0  0  0  0  0  0
  -27.9598  -18.2777   20.3924 C   0  0  0  0  0  0  0  0  0  1  0  0
  -20.8521  -18.6241   22.2428 C   0  0  1  0  0  0  0  0  0  0  0  0
  -21.1701  -21.2254   24.9817 C   0  0  2  0  0  0  0  0  0  0  0  0
  -19.7494  -18.7473   21.1536 C   0  0  0  0  0  0  0  0  0  0  0  0
  -31.6192  -19.5895   18.7481 N   0  0  0  0  0  0  0  0  0  0  0  0
  -26.0768  -27.7584   21.1394 N   0  0  0  0  0  0  0  0  0  0  0  0
  -29.6682  -19.9684   20.1110 N   0  0  0  0  0  0  0  0  0  0  0  0
  -26.8803  -28.0387   20.0992 N   0  0  0  0  0  0  0  0  0  0  0  0
  -22.1961  -16.5838   22.6362 N   0  0  0  0  0  0  0  0  0  0  0  0
  -30.2799  -27.1504   21.5976 N   0  0  0  0  0  0  0  0  0  0  0  0
  -30.5878  -24.7883   21.4084 N   0  0  0  0  0  0  0  0  0  0  0  0
  -26.8672  -28.5498   17.7864 N   0  0  0  0  0  0  0  0  0  0  0  0
  -22.4869  -28.0572   18.7694 N   0  0  0  0  0  0  0  0  0  0  0  0
  -31.2969  -21.6095   19.8556 N   0  0  0  0  0  0  0  0  0  0  0  0
  -22.1088  -13.0239   21.8513 N   0  0  0  0  0  0  0  0  0  0  0  0
  -20.6593  -19.5040   23.3904 N   0  0  0  0  0  0  0  0  0  0  0  0
  -22.0923  -20.9715   26.1246 N   0  3  0  0  0  0  0  0  0  0  0  0
  -23.9785  -28.5059   17.0864 O   0  0  0  0  0  0  0  0  0  0  0  0
  -21.9488  -15.0061   20.6398 O   0  0  0  0  0  0  0  0  0  0  0  0
  -19.9837  -16.7199   23.3594 O   0  0  0  0  0  0  0  0  0  0  0  0
  -22.6831  -20.6197   23.1981 O   0  0  0  0  0  0  0  0  0  0  0  0
  -32.2249  -26.1321   22.2852 O   0  0  0  0  0  0  0  0  0  0  0  0
  -20.3513  -26.8213   23.7641 O   0  0  0  0  0  0  0  0  0  0  0  0
  -28.1788  -17.1249   21.1960 O   0  0  0  0  0  0  0  0  0  1  0  0
  -16.0415  -30.2169   23.2165 F   0  0  0  0  0  0  0  0  0  0  0  0
  -19.0658  -27.1007   21.3327 F   0  0  0  0  0  0  0  0  0  0  0  0
  1  2  1  0  0  0  0
  1  5  2  0  0  0  0
  2  6  2  0  0  0  0
  3  8  2  0  0  0  0
  3 17  1  0  0  0  0
  4  9  1  0  0  0  0
  4 17  2  0  0  0  0
  5 19  1  0  0  0  0
  6 21  1  0  0  0  0
  7 10  2  0  0  0  0
  7 20  1  0  0  0  0
  8 23  1  0  0  0  0
  9 23  2  0  0  0  0
 10 24  1  0  0  0  0
 11 12  2  0  0  0  0
 11 25  1  0  0  0  0
 12 26  1  0  0  0  0
 13 16  2  0  0  0  0
 13 29  1  0  0  0  0
 14 22  1  0  0  0  0
 14 24  2  0  0  0  0
 15 26  2  0  0  0  0
 15 27  1  0  0  0  0
 16 62  1  0  0  0  0
 17 28  1  0  0  0  0
 18 28  1  0  0  0  0
 18 30  2  0  0  0  0
 18 32  1  0  0  0  0
 19 21  2  0  0  0  0
 19 37  1  0  0  0  0
 20 22  2  0  0  0  0
 20 38  1  0  0  0  0
 21 49  1  0  0  0  0
 22 39  1  0  0  0  0
 23 80  1  0  0  0  0
 24 81  1  0  0  0  0
 25 27  2  0  0  0  0
 25 80  1  0  0  0  0
 26 82  1  0  0  0  0
 27 83  1  0  0  0  0
 28 63  2  0  0  0  0
 29 58  1  0  0  0  0
 29 64  2  0  0  0  0
 30 65  1  0  0  0  0
 30 69  1  0  0  0  0
 31 62  2  0  0  0  0
 31 64  1  0  0  0  0
 31 71  1  0  0  0  0
 32 70  1  0  0  0  0
 32 75  2  0  0  0  0
 33 50  1  0  0  0  0
 33 72  1  0  0  0  0
 33 76  2  0  0  0  0
 34 59  1  0  0  0  0
 34 66  1  0  0  0  0
 34 77  2  0  0  0  0
 35 60  1  0  0  0  0
 35 73  1  0  0  0  0
 35 78  2  0  0  0  0
 36 67  1  0  0  0  0
 36 68  1  0  0  0  0
 36 79  2  0  0  0  0
 37 40  1  0  0  0  0
 38 50  1  0  0  0  0
 39 66  1  0  0  0  0
 40 42  1  0  0  0  0
 41 43  1  0  0  0  0
 41 45  1  0  0  0  0
 42 49  1  0  0  0  0
 43 51  1  0  0  0  0
 44 46  1  0  0  0  0
 44 52  1  0  0  0  0
 45 67  1  0  0  0  0
 46 68  1  0  0  0  0
 47 51  1  0  0  0  0
 47 67  1  0  0  0  0
 48 52  1  0  0  0  0
 48 68  1  0  0  0  0
 49 72  1  0  0  0  0
 50 66  1  0  0  0  0
 51 65  1  0  0  0  0
 52 71  1  0  0  0  0
 53 60  1  0  0  0  0
 54 61  1  0  0  0  0
 55 61  1  0  0  0  0
 56 61  1  0  0  0  0
 57 74  1  0  0  0  0
 58 81  1  0  0  0  0
 59 61  1  0  0  0  0
 59 73  1  0  0  0  0
 60 74  1  0  0  0  0
 63 65  1  0  0  0  0
M  CHG  1  74   1
M  ISO  4  36 100  58 101  68 100  81 101
M  END
> <Batch ID>
0188

> <Smiles>
CNC(C)C(=O)NC(C(=O)N1Cc2cc([101O:1][101CH2:1]c3ccnc(NC4CC[100N:0]([100C:0](=O)N5CCCC(n6nc(-c7ccc(Oc8ccc(F)cc8F)cc7)c(C(N)=O)c6N)C5)C4)n3)ccc2CC1C(=O)NC1CCCc2ccccc21)C(C)(C)C

> <Shape>
0.215

> <Color>
0.085

> <Negative vol penalty>
0.000

$$$$

  -OEChem-04052323193D

 82 91  0     1  0  0  0  0  0999 V2000
  -22.6981  -31.2234   27.1485 C   0  0  0  0  0  0  0  0  0  0  0  0
  -22.3405  -30.5763   25.9700 C   0  0  0  0  0  0  0  0  0  0  0  0
  -22.9317   -9.8764   19.9635 C   0  0  0  0  0  0  0  0  0  0  0  0
  -24.3880   -9.3780   21.8258 C   0  0  0  0  0  0  0  0  0  0  0  0
  -24.0342  -31.5400   27.3908 C   0  0  0  0  0  0  0  0  0  0  0  0
  -23.3187  -30.2465   25.0326 C   0  0  0  0  0  0  0  0  0  0  0  0
  -24.3504  -23.4139   22.9972 C   0  0  0  0  0  0  0  0  0  0  0  0
  -22.2838   -8.6543   20.1431 C   0  0  0  0  0  0  0  0  0  0  0  0
  -23.7401   -8.1559   22.0054 C   0  0  0  0  0  0  0  0  0  0  0  0
  -24.4671  -22.1584   22.4003 C   0  0  0  0  0  0  0  0  0  0  0  0
  -20.8607   -7.0435   23.3811 C   0  0  0  0  0  0  0  0  0  0  0  0
  -20.5194   -6.6779   24.6832 C   0  0  0  0  0  0  0  0  0  0  0  0
  -26.3026  -22.9612   21.0458 C   0  0  0  0  0  0  0  0  0  0  0  0
  -21.8911   -4.6988   24.4871 C   0  0  0  0  0  0  0  0  0  0  0  0
  -23.9838  -10.2382   20.8048 C   0  0  0  0  0  0  0  0  0  0  0  0
  -24.0808  -12.7845   20.6837 C   0  0  0  0  0  0  0  0  0  0  0  0
  -25.0304  -31.2052   26.4602 C   0  0  0  0  0  0  0  0  0  0  0  0
  -25.2204  -24.4447   22.6314 C   0  0  0  0  0  0  0  0  0  0  0  0
  -24.6691  -30.5601   25.2620 C   0  0  0  0  0  0  0  0  0  0  0  0
  -26.1985  -24.2173   21.6493 C   0  0  0  0  0  0  0  0  0  0  0  0
  -22.6879   -7.7940   21.1640 C   0  0  0  0  0  0  0  0  0  0  0  0
  -25.4406  -21.9328   21.4268 C   0  0  0  0  0  0  0  0  0  0  0  0
  -21.7172   -6.2367   22.6320 C   0  0  0  0  0  0  0  0  0  0  0  0
  -21.0346   -5.5056   25.2362 C   0  0  0  0  0  0  0  0  0  0  0  0
  -22.2324   -5.0644   23.1850 C   0  0  0  0  0  0  0  0  0  0  0  0
  -24.6539  -11.5003   20.6195 C   0  0  0  0  0  0  0  0  0  0  0  0
  -25.1271  -13.6400   20.4389 C   0  0  0  0  0  0  0  0  0  0  0  0
  -22.7240  -13.1697   20.9417 C   0  0  0  0  0  0  0  0  0  0  0  0
  -26.2824  -28.0081   23.1319 C   0  0  0  0  0  0  0  0  0  0  0  0
  -28.8444  -26.3508   22.8155 C   0  0  0  0  0  0  0  0  0  0  0  0
  -31.4216  -24.1160   22.8421 C   0  0  0  0  0  0  0  0  0  0  0  0
  -30.4186  -15.2151   21.2537 C   0  0  0  0  0  0  0  0  0  0  0  0
  -26.4551  -31.6102   26.7447 C   0  0  0  0  0  0  0  0  0  0  0  0
  -25.0914  -25.8302   23.2036 C   0  0  0  0  0  0  0  0  0  0  0  0
  -27.0901  -25.3655   21.2624 C   0  0  0  0  0  0  0  0  0  0  0  0
  -27.4790  -30.8911   25.8701 C   0  0  0  0  0  0  0  0  0  0  0  0
  -29.8189  -12.7159   18.7899 C   0  0  0  0  0  0  0  0  0  0  0  0
  -27.0362  -30.9027   24.4104 C   0  0  0  0  0  0  0  0  0  0  0  0
  -28.3773  -12.2787   19.0556 C   0  0  0  0  0  0  0  0  0  0  0  0
  -26.7746  -18.9066   19.8188 C   0  0  0  0  0  0  0  0  0  0  0  0
  -30.5600  -13.0348   20.0864 C   0  0  0  0  0  0  0  0  0  0  0  0
  -27.4042  -18.0221   20.8832 C   0  0  0  0  0  0  0  0  0  0  0  0
  -28.4431  -13.5740   21.2274 C   0  0  0  0  0  0  0  0  0  0  0  0
  -27.7972  -20.2030   21.6026 C   0  0  0  0  0  0  0  0  0  0  0  0
  -29.7140  -19.4760   23.4660 C   0  0  0  0  0  0  0  0  0  0  0  0
  -30.7563  -17.2836   23.8255 C   0  0  0  0  0  0  0  0  0  0  0  0
  -25.7045  -30.1637   24.2320 C   0  0  1  0  0  0  0  0  0  0  0  0
  -26.4465  -26.5378   23.3827 C   0  0  1  0  0  0  0  0  0  0  0  0
  -27.6382  -13.2954   19.9465 C   0  0  2  0  0  0  0  0  0  0  0  0
  -29.0105  -18.3869   22.6645 C   0  0  2  0  0  0  0  0  0  0  0  0
  -30.1162  -17.3574   22.4504 C   0  0  2  0  0  0  0  0  0  0  0  0
  -26.8449  -20.3107   20.4125 C   0  0  2  0  0  0  0  0  0  1  0  0
  -33.7782  -23.2820   23.0621 C   0  0  0  0  0  0  0  0  0  0  0  0
  -29.0534  -27.2676   19.9138 C   0  0  0  0  0  0  0  0  0  0  0  0
  -31.3367  -26.2442   19.8292 C   0  0  0  0  0  0  0  0  0  0  0  0
  -30.8689  -28.1165   21.4098 C   0  0  0  0  0  0  0  0  0  0  0  0
  -30.5849  -18.8821   25.7696 C   0  0  0  0  0  0  0  0  0  0  0  0
  -31.1361  -23.7321   25.7627 C   0  0  0  0  0  0  0  0  0  0  0  0
  -29.9046  -25.8271   21.8801 C   0  0  1  0  0  0  0  0  0  0  0  0
  -32.6174  -23.9680   23.7655 C   0  0  2  0  0  0  0  0  0  0  0  0
  -30.2683  -26.8481   20.7653 C   0  0  0  0  0  0  0  0  0  0  0  0
  -25.9626  -11.5323   20.3545 N   0  0  0  0  0  0  0  0  0  0  0  0
  -26.2206  -12.8471   20.2500 N   0  0  0  0  0  0  0  0  0  0  0  0
  -27.5121  -26.1012   22.4646 N   0  0  0  0  0  0  0  0  0  0  0  0
  -29.8072  -14.0057   20.8842 N   0  0  0  0  0  0  0  0  0  0  0  0
  -28.4397  -18.8985   21.4279 N   0  0  1  0  0  0  0  0  0  0  0  0
  -25.2091  -14.9857   20.3690 N   0  0  0  0  0  0  0  0  0  0  0  0
  -22.3349  -13.3973   22.2687 N   0  0  0  0  0  0  0  0  0  0  0  0
  -25.9147  -28.7319   24.2501 N   0  0  0  0  0  0  0  0  0  0  0  0
  -31.0308  -25.4326   22.7195 N   0  0  0  0  0  0  0  0  0  0  0  0
  -29.6331  -16.0817   22.0039 N   0  0  0  0  0  0  0  0  0  0  0  0
  -30.7521  -18.7293   24.2912 N   0  3  2  0  0  0  0  0  0  0  0  0
  -32.2502  -23.1607   24.9631 N   0  3  0  0  0  0  0  0  0  0  0  0
  -21.8775  -13.2920   20.0241 O   0  0  0  0  0  0  0  0  0  0  0  0
  -26.4763  -28.4545   22.0073 O   0  0  0  0  0  0  0  0  0  0  0  0
  -29.1851  -26.9697   23.8275 O   0  0  0  0  0  0  0  0  0  0  0  0
  -30.8899  -23.1597   22.2823 O   0  0  0  0  0  0  0  0  0  0  0  0
  -31.5768  -15.5037   20.9340 O   0  0  0  0  0  0  0  0  0  0  0  0
  -22.0558   -6.6015   21.3397 O   0  0  0  0  0  0  0  0  0  0  0  0
  -25.5520  -20.7035   20.8513 O   0  0  0  0  0  0  0  0  0  1  0  0
  -20.7079   -5.1554   26.4871 F   0  0  0  0  0  0  0  0  0  0  0  0
  -23.0566   -4.2859   22.4705 F   0  0  0  0  0  0  0  0  0  0  0  0
  1  2  1  0  0  0  0
  1  5  2  0  0  0  0
  2  6  2  0  0  0  0
  3  8  2  0  0  0  0
  3 15  1  0  0  0  0
  4  9  1  0  0  0  0
  4 15  2  0  0  0  0
  5 17  1  0  0  0  0
  6 19  1  0  0  0  0
  7 10  2  0  0  0  0
  7 18  1  0  0  0  0
  8 21  1  0  0  0  0
  9 21  2  0  0  0  0
 10 22  1  0  0  0  0
 11 12  2  0  0  0  0
 11 23  1  0  0  0  0
 12 24  1  0  0  0  0
 13 20  1  0  0  0  0
 13 22  2  0  0  0  0
 14 24  2  0  0  0  0
 14 25  1  0  0  0  0
 15 26  1  0  0  0  0
 16 26  1  0  0  0  0
 16 27  2  0  0  0  0
 16 28  1  0  0  0  0
 17 19  2  0  0  0  0
 17 33  1  0  0  0  0
 18 20  2  0  0  0  0
 18 34  1  0  0  0  0
 19 47  1  0  0  0  0
 20 35  1  0  0  0  0
 21 79  1  0  0  0  0
 22 80  1  0  0  0  0
 23 25  2  0  0  0  0
 23 79  1  0  0  0  0
 24 81  1  0  0  0  0
 25 82  1  0  0  0  0
 26 62  2  0  0  0  0
 27 63  1  0  0  0  0
 27 67  1  0  0  0  0
 28 68  1  0  0  0  0
 28 74  2  0  0  0  0
 29 48  1  0  0  0  0
 29 69  1  0  0  0  0
 29 75  2  0  0  0  0
 30 59  1  0  0  0  0
 30 64  1  0  0  0  0
 30 76  2  0  0  0  0
 31 60  1  0  0  0  0
 31 70  1  0  0  0  0
 31 77  2  0  0  0  0
 32 65  1  0  0  0  0
 32 71  1  0  0  0  0
 32 78  2  0  0  0  0
 33 36  1  0  0  0  0
 34 48  1  0  0  0  0
 35 64  1  0  0  0  0
 36 38  1  0  0  0  0
 37 39  1  0  0  0  0
 37 41  1  0  0  0  0
 38 47  1  0  0  0  0
 39 49  1  0  0  0  0
 40 42  1  0  0  0  0
 40 52  1  0  0  0  0
 41 65  1  0  0  0  0
 42 66  1  0  0  0  0
 43 49  1  0  0  0  0
 43 65  1  0  0  0  0
 44 52  1  0  0  0  0
 44 66  1  0  0  0  0
 45 50  1  0  0  0  0
 45 72  1  0  0  0  0
 46 51  1  0  0  0  0
 46 72  1  0  0  0  0
 47 69  1  0  0  0  0
 48 64  1  0  0  0  0
 49 63  1  0  0  0  0
 50 51  1  0  0  0  0
 50 66  1  0  0  0  0
 51 71  1  0  0  0  0
 52 80  1  0  0  0  0
 53 60  1  0  0  0  0
 54 61  1  0  0  0  0
 55 61  1  0  0  0  0
 56 61  1  0  0  0  0
 57 72  1  0  0  0  0
 58 73  1  0  0  0  0
 59 61  1  0  0  0  0
 59 70  1  0  0  0  0
 60 73  1  0  0  0  0
 62 63  1  0  0  0  0
M  CHG  2  72   1  73   1
M  ISO  4  32 100  52 101  71 100  80 101
M  END
> <Batch ID>
0188

> <Smiles>
CNC(C)C(=O)NC(C(=O)N1Cc2cc([101O:1][101CH:1]3CCN(C4CN(C)CC4[100NH:0][100C:0](=O)N4CCCC(n5nc(-c6ccc(Oc7ccc(F)cc7F)cc6)c(C(N)=O)c5N)C4)C3)ccc2CC1C(=O)NC1CCCc2ccccc21)C(C)(C)C

> <Shape>
0.284

> <Color>
0.150

> <Negative vol penalty>
0.000

$$$$

  -OEChem-04052323193D

 85 95  0     1  0  0  0  0  0999 V2000
  -28.0474  -33.2378   25.3466 C   0  0  0  0  0  0  0  0  0  0  0  0
  -28.1486  -31.8793   25.0644 C   0  0  0  0  0  0  0  0  0  0  0  0
  -23.1844  -16.3633   21.5329 C   0  0  0  0  0  0  0  0  0  0  0  0
  -22.4196  -15.4205   19.4441 C   0  0  0  0  0  0  0  0  0  0  0  0
  -26.7999  -33.8603   25.3339 C   0  0  0  0  0  0  0  0  0  0  0  0
  -27.0020  -31.1422   24.7703 C   0  0  0  0  0  0  0  0  0  0  0  0
  -27.6327  -28.0735   20.7915 C   0  0  0  0  0  0  0  0  0  0  0  0
  -22.1937  -17.3420   21.4539 C   0  0  0  0  0  0  0  0  0  0  0  0
  -21.4289  -16.3992   19.3650 C   0  0  0  0  0  0  0  0  0  0  0  0
  -28.3317  -26.8867   21.0073 C   0  0  0  0  0  0  0  0  0  0  0  0
  -18.8729  -17.5784   22.0449 C   0  0  0  0  0  0  0  0  0  0  0  0
  -18.1384  -17.8519   23.1987 C   0  0  0  0  0  0  0  0  0  0  0  0
  -28.5565  -21.6554   23.1049 C   0  0  0  0  0  0  0  0  0  0  0  0
  -26.2429  -25.6865   21.1330 C   0  0  0  0  0  0  0  0  0  0  0  0
  -18.8997  -20.1441   23.1399 C   0  0  0  0  0  0  0  0  0  0  0  0
  -29.1765  -21.6124   20.8092 C   0  0  0  0  0  0  0  0  0  0  0  0
  -23.2974  -15.4026   20.5279 C   0  0  0  0  0  0  0  0  0  0  0  0
  -24.2196  -13.1260   21.2168 C   0  0  0  0  0  0  0  0  0  0  0  0
  -25.6386  -33.1325   25.0300 C   0  0  0  0  0  0  0  0  0  0  0  0
  -26.2309  -28.0775   20.7557 C   0  0  0  0  0  0  0  0  0  0  0  0
  -25.7376  -31.7552   24.7548 C   0  0  0  0  0  0  0  0  0  0  0  0
  -29.4023  -20.5733   23.3222 C   0  0  0  0  0  0  0  0  0  0  0  0
  -25.5286  -26.8743   20.9140 C   0  0  0  0  0  0  0  0  0  0  0  0
  -28.4358  -22.1907   21.8274 C   0  0  0  0  0  0  0  0  0  0  0  0
  -21.3159  -17.3600   20.3700 C   0  0  0  0  0  0  0  0  0  0  0  0
  -27.6367  -25.6933   21.1810 C   0  0  0  0  0  0  0  0  0  0  0  0
  -19.6209  -18.5877   21.4386 C   0  0  0  0  0  0  0  0  0  0  0  0
  -18.1518  -19.1347   23.7462 C   0  0  0  0  0  0  0  0  0  0  0  0
  -19.6343  -19.8705   21.9861 C   0  0  0  0  0  0  0  0  0  0  0  0
  -24.3209  -14.3916   20.6087 C   0  0  0  0  0  0  0  0  0  0  0  0
  -30.0996  -20.0673   22.2371 C   0  0  0  0  0  0  0  0  0  0  0  0
  -25.4525  -12.5525   21.0233 C   0  0  0  0  0  0  0  0  0  0  0  0
  -23.1102  -12.5228   21.8958 C   0  0  0  0  0  0  0  0  0  0  0  0
  -23.9467  -29.4548   22.4846 C   0  0  0  0  0  0  0  0  0  0  0  0
  -22.0056  -28.1889   20.2148 C   0  0  0  0  0  0  0  0  0  0  0  0
  -21.5188  -25.8085   17.8183 C   0  0  0  0  0  0  0  0  0  0  0  0
  -30.8921  -15.0329   20.0124 C   0  0  0  0  0  0  0  0  0  0  0  0
  -24.3067  -33.8387   25.0749 C   0  0  0  0  0  0  0  0  0  0  0  0
  -25.4926  -29.3619   20.4953 C   0  0  0  0  0  0  0  0  0  0  0  0
  -24.0242  -26.8216   20.8639 C   0  0  0  0  0  0  0  0  0  0  0  0
  -23.1843  -33.0665   24.3862 C   0  0  0  0  0  0  0  0  0  0  0  0
  -29.1749  -12.5552   18.0518 C   0  0  0  0  0  0  0  0  0  0  0  0
  -29.2784  -18.5199   24.8849 C   0  0  0  0  0  0  0  0  0  0  0  0
  -28.3059  -19.5266   25.4151 C   0  0  0  0  0  0  0  0  0  0  0  0
  -23.2041  -31.6021   24.8126 C   0  0  0  0  0  0  0  0  0  0  0  0
  -27.7196  -12.6667   18.4940 C   0  0  0  0  0  0  0  0  0  0  0  0
  -29.8549  -13.9176   18.0711 C   0  0  0  0  0  0  0  0  0  0  0  0
  -28.3640  -14.6913   19.8971 C   0  0  0  0  0  0  0  0  0  0  0  0
  -31.8633  -16.8305   21.5385 C   0  0  0  0  0  0  0  0  0  0  0  0
  -29.8802  -17.2735   20.9076 C   0  0  0  0  0  0  0  0  0  0  0  0
  -29.5405  -19.9907   24.6858 C   0  0  0  0  0  0  0  0  0  0  0  0
  -24.5198  -30.9270   24.4069 C   0  0  1  0  0  0  0  0  0  0  0  0
  -24.0499  -29.3327   20.9906 C   0  0  1  0  0  0  0  0  0  0  0  0
  -27.6272  -13.3372   19.8722 C   0  0  1  0  0  0  0  0  0  0  0  0
  -31.0982  -18.1343   21.2769 C   0  0  0  0  0  0  0  0  0  0  0  0
  -19.8183  -25.0044   16.1572 C   0  0  0  0  0  0  0  0  0  0  0  0
  -20.4093  -26.9033   22.4751 C   0  0  0  0  0  0  0  0  0  0  0  0
  -19.3560  -25.3931   20.7786 C   0  0  0  0  0  0  0  0  0  0  0  0
  -19.0193  -27.8603   20.6295 C   0  0  0  0  0  0  0  0  0  0  0  0
  -23.3308  -26.3285   15.5368 C   0  0  0  0  0  0  0  0  0  0  0  0
  -27.5397  -23.3479   21.5622 C   0  0  0  0  0  0  0  0  0  1  0  0
  -21.2744  -26.8795   20.0426 C   0  0  1  0  0  0  0  0  0  0  0  0
  -21.0207  -25.9066   16.3877 C   0  0  2  0  0  0  0  0  0  0  0  0
  -20.0430  -26.7600   20.9844 C   0  0  0  0  0  0  0  0  0  0  0  0
  -30.0083  -20.5607   20.9817 N   0  0  0  0  0  0  0  0  0  0  0  0
  -25.5232  -14.6099   20.0694 N   0  0  0  0  0  0  0  0  0  0  0  0
  -26.1888  -13.4737   20.3381 N   0  0  0  0  0  0  0  0  0  0  0  0
  -23.3474  -28.1048   20.6130 N   0  0  0  0  0  0  0  0  0  0  0  0
  -29.7328  -14.5771   19.3748 N   0  0  0  0  0  0  0  0  0  0  0  0
  -30.8001  -16.1530   20.8063 N   0  0  0  0  0  0  0  0  0  0  0  0
  -25.9679  -11.3551   21.3743 N   0  0  0  0  0  0  0  0  0  0  0  0
  -21.9176  -13.2508   22.0048 N   0  0  0  0  0  0  0  0  0  0  0  0
  -24.5101  -30.6087   22.9951 N   0  0  0  0  0  0  0  0  0  0  0  0
  -20.9535  -26.7747   18.6233 N   0  0  0  0  0  0  0  0  0  0  0  0
  -22.0963  -25.5082   15.4362 N   0  3  0  0  0  0  0  0  0  0  0  0
  -23.1799  -11.3788   22.4056 O   0  0  0  0  0  0  0  0  0  0  0  0
  -23.3953  -28.5684   23.1266 O   0  0  0  0  0  0  0  0  0  0  0  0
  -21.4104  -29.2471   19.9970 O   0  0  0  0  0  0  0  0  0  0  0  0
  -22.3257  -24.9573   18.1858 O   0  0  0  0  0  0  0  0  0  0  0  0
  -31.9867  -14.4762   19.8538 O   0  0  0  0  0  0  0  0  0  0  0  0
  -20.3489  -18.3147   20.2927 O   0  0  0  0  0  0  0  0  0  0  0  0
  -28.3208  -24.5261   21.3938 O   0  0  0  0  0  0  0  0  0  1  0  0
  -30.9391  -19.0070   22.4084 O   0  0  0  0  0  0  0  0  0  0  0  0
  -17.4452  -19.3977   24.8533 F   0  0  0  0  0  0  0  0  0  0  0  0
  -20.3500  -20.8445   21.4074 F   0  0  0  0  0  0  0  0  0  0  0  0
  1  2  1  0  0  0  0
  1  5  2  0  0  0  0
  2  6  2  0  0  0  0
  3  8  2  0  0  0  0
  3 17  1  0  0  0  0
  4  9  1  0  0  0  0
  4 17  2  0  0  0  0
  5 19  1  0  0  0  0
  6 21  1  0  0  0  0
  7 10  2  0  0  0  0
  7 20  1  0  0  0  0
  8 25  1  0  0  0  0
  9 25  2  0  0  0  0
 10 26  1  0  0  0  0
 11 12  2  0  0  0  0
 11 27  1  0  0  0  0
 12 28  1  0  0  0  0
 13 22  1  0  0  0  0
 13 24  2  0  0  0  0
 14 23  1  0  0  0  0
 14 26  2  0  0  0  0
 15 28  2  0  0  0  0
 15 29  1  0  0  0  0
 16 24  1  0  0  0  0
 16 65  2  0  0  0  0
 17 30  1  0  0  0  0
 18 30  1  0  0  0  0
 18 32  2  0  0  0  0
 18 33  1  0  0  0  0
 19 21  2  0  0  0  0
 19 38  1  0  0  0  0
 20 23  2  0  0  0  0
 20 39  1  0  0  0  0
 21 52  1  0  0  0  0
 22 31  2  0  0  0  0
 22 51  1  0  0  0  0
 23 40  1  0  0  0  0
 24 61  1  0  0  0  0
 25 81  1  0  0  0  0
 26 82  1  0  0  0  0
 27 29  2  0  0  0  0
 27 81  1  0  0  0  0
 28 84  1  0  0  0  0
 29 85  1  0  0  0  0
 30 66  2  0  0  0  0
 31 65  1  0  0  0  0
 31 83  1  0  0  0  0
 32 67  1  0  0  0  0
 32 71  1  0  0  0  0
 33 72  1  0  0  0  0
 33 76  2  0  0  0  0
 34 53  1  0  0  0  0
 34 73  1  0  0  0  0
 34 77  2  0  0  0  0
 35 62  1  0  0  0  0
 35 68  1  0  0  0  0
 35 78  2  0  0  0  0
 36 63  1  0  0  0  0
 36 74  1  0  0  0  0
 36 79  2  0  0  0  0
 37 69  1  0  0  0  0
 37 70  1  0  0  0  0
 37 80  2  0  0  0  0
 38 41  1  0  0  0  0
 39 53  1  0  0  0  0
 40 68  1  0  0  0  0
 41 45  1  0  0  0  0
 42 46  1  0  0  0  0
 42 47  1  0  0  0  0
 43 44  1  0  0  0  0
 43 51  1  0  0  0  0
 44 51  1  0  0  0  0
 45 52  1  0  0  0  0
 46 54  1  0  0  0  0
 47 69  1  0  0  0  0
 48 54  1  0  0  0  0
 48 69  1  0  0  0  0
 49 55  1  0  0  0  0
 49 70  1  0  0  0  0
 50 55  1  0  0  0  0
 50 70  1  0  0  0  0
 52 73  1  0  0  0  0
 53 68  1  0  0  0  0
 54 67  1  0  0  0  0
 55 83  1  0  0  0  0
 56 63  1  0  0  0  0
 57 64  1  0  0  0  0
 58 64  1  0  0  0  0
 59 64  1  0  0  0  0
 60 75  1  0  0  0  0
 61 82  1  0  0  0  0
 62 64  1  0  0  0  0
 62 74  1  0  0  0  0
 63 75  1  0  0  0  0
 66 67  1  0  0  0  0
M  CHG  1  75   1
M  ISO  4  37 100  61 101  70 100  82 101
M  END
> <Batch ID>
0188

> <Smiles>
CNC(C)C(=O)NC(C(=O)N1Cc2cc([101O:1][101CH2:1]c3cnc(OC4C[100N:0]([100C:0](=O)N5CCCC(n6nc(-c7ccc(Oc8ccc(F)cc8F)cc7)c(C(N)=O)c6N)C5)C4)c(C4CC4)c3)ccc2CC1C(=O)NC1CCCc2ccccc21)C(C)(C)C

> <Shape>
0.264

> <Color>
0.093

> <Negative vol penalty>
0.000

$$$$

  -OEChem-04052323193D

 84 93  0     1  0  0  0  0  0999 V2000
  -18.4696  -29.0781   27.4559 C   0  0  0  0  0  0  0  0  0  0  0  0
  -19.3908  -28.0883   27.1286 C   0  0  0  0  0  0  0  0  0  0  0  0
  -23.0774   -9.7969   20.0576 C   0  0  0  0  0  0  0  0  0  0  0  0
  -23.5818  -10.1934   22.3869 C   0  0  0  0  0  0  0  0  0  0  0  0
  -17.7534  -29.7230   26.4484 C   0  0  0  0  0  0  0  0  0  0  0  0
  -19.5956  -27.7422   25.7934 C   0  0  0  0  0  0  0  0  0  0  0  0
  -24.5043  -27.2826   24.6365 C   0  0  0  0  0  0  0  0  0  0  0  0
  -27.9533  -18.1665   24.5786 C   0  0  0  0  0  0  0  0  0  0  0  0
  -22.3078   -8.6891   20.4128 C   0  0  0  0  0  0  0  0  0  0  0  0
  -22.8122   -9.0856   22.7421 C   0  0  0  0  0  0  0  0  0  0  0  0
  -25.1444  -26.1088   25.0315 C   0  0  0  0  0  0  0  0  0  0  0  0
  -23.1541   -5.7221   22.7767 C   0  0  0  0  0  0  0  0  0  0  0  0
  -23.6849   -4.8388   23.7167 C   0  0  0  0  0  0  0  0  0  0  0  0
  -27.3577  -19.3165   25.0847 C   0  0  0  0  0  0  0  0  0  0  0  0
  -24.9155  -25.2380   22.7935 C   0  0  0  0  0  0  0  0  0  0  0  0
  -21.8074   -5.2644   25.1766 C   0  0  0  0  0  0  0  0  0  0  0  0
  -29.7891  -19.4966   23.8592 C   0  0  0  0  0  0  0  0  0  0  0  0
  -23.7144  -10.5490   21.0446 C   0  0  0  0  0  0  0  0  0  0  0  0
  -24.0736  -13.0250   20.5464 C   0  0  0  0  0  0  0  0  0  0  0  0
  -29.1921  -18.2497   23.9527 C   0  0  0  0  0  0  0  0  0  0  0  0
  -17.9565  -29.3913   25.0996 C   0  0  0  0  0  0  0  0  0  0  0  0
  -24.0545  -27.4389   23.3175 C   0  0  0  0  0  0  0  0  0  0  0  0
  -18.8805  -28.3823   24.7670 C   0  0  0  0  0  0  0  0  0  0  0  0
  -24.2723  -26.4159   22.3836 C   0  0  0  0  0  0  0  0  0  0  0  0
  -22.1752   -8.3335   21.7550 C   0  0  0  0  0  0  0  0  0  0  0  0
  -25.3475  -25.0850   24.1107 C   0  0  0  0  0  0  0  0  0  0  0  0
  -21.9501   -6.3767   23.0366 C   0  0  0  0  0  0  0  0  0  0  0  0
  -23.0115   -4.6099   24.9166 C   0  0  0  0  0  0  0  0  0  0  0  0
  -21.2767   -6.1478   24.2365 C   0  0  0  0  0  0  0  0  0  0  0  0
  -24.5100  -11.6931   20.6783 C   0  0  0  0  0  0  0  0  0  0  0  0
  -28.0369  -20.5156   24.9407 C   0  0  0  0  0  0  0  0  0  0  0  0
  -25.2008  -13.7214   20.1846 C   0  0  0  0  0  0  0  0  0  0  0  0
  -22.7662  -13.5827   20.7341 C   0  0  0  0  0  0  0  0  0  0  0  0
  -21.2166  -27.8663   21.9511 C   0  0  0  0  0  0  0  0  0  0  0  0
  -22.9991  -28.2276   19.2651 C   0  0  0  0  0  0  0  0  0  0  0  0
  -25.9193  -27.5894   17.6184 C   0  0  0  0  0  0  0  0  0  0  0  0
  -30.6940  -14.7357   20.9933 C   0  0  0  0  0  0  0  0  0  0  0  0
  -17.1246  -30.0829   24.0487 C   0  0  0  0  0  0  0  0  0  0  0  0
  -23.3896  -28.7221   22.9005 C   0  0  0  0  0  0  0  0  0  0  0  0
  -23.8266  -26.5423   20.9505 C   0  0  0  0  0  0  0  0  0  0  0  0
  -17.6724  -29.9195   22.6333 C   0  0  0  0  0  0  0  0  0  0  0  0
  -29.7440  -12.1291   18.7051 C   0  0  0  0  0  0  0  0  0  0  0  0
  -18.0466  -28.4643   22.3704 C   0  0  0  0  0  0  0  0  0  0  0  0
  -28.2816  -11.8508   19.0363 C   0  0  0  0  0  0  0  0  0  0  0  0
  -30.5242  -12.5022   19.9585 C   0  0  0  0  0  0  0  0  0  0  0  0
  -29.0343  -15.8803   22.6653 C   0  0  0  0  0  0  0  0  0  0  0  0
  -30.6698  -17.0690   22.0287 C   0  0  0  0  0  0  0  0  0  0  0  0
  -28.4855  -13.4527   21.0045 C   0  0  0  0  0  0  0  0  0  0  0  0
  -29.8981  -16.9583   23.3638 C   0  0  0  0  0  0  0  0  0  0  0  0
  -19.1486  -27.9962   23.3285 C   0  0  1  0  0  0  0  0  0  0  0  0
  -22.5142  -28.5660   21.6609 C   0  0  1  0  0  0  0  0  0  0  0  0
  -27.6591  -13.0491   19.7673 C   0  0  2  0  0  0  0  0  0  0  0  0
  -27.0692  -27.9824   15.4228 C   0  0  0  0  0  0  0  0  0  0  0  0
  -29.0783  -23.0926   26.4621 C   0  0  0  0  0  0  0  0  0  0  0  0
  -21.2599  -26.0795   17.9725 C   0  0  0  0  0  0  0  0  0  0  0  0
  -23.0012  -25.8411   16.1895 C   0  0  0  0  0  0  0  0  0  0  0  0
  -21.8091  -28.0124   16.4838 C   0  0  0  0  0  0  0  0  0  0  0  0
  -28.1206  -29.0898   18.9076 C   0  0  0  0  0  0  0  0  0  0  0  0
  -26.9369  -24.0425   25.5400 C   0  0  0  0  0  0  0  0  0  1  0  0
  -23.5248  -27.2982   18.1979 C   0  0  1  0  0  0  0  0  0  0  0  0
  -26.8546  -28.4955   16.8381 C   0  0  2  0  0  0  0  0  0  0  0  0
  -28.0139  -22.9717   25.3795 C   0  0  2  0  0  0  0  0  0  0  0  0
  -22.4055  -26.8043   17.2383 C   0  0  0  0  0  0  0  0  0  0  0  0
  -29.2414  -20.6357   24.3387 N   0  0  0  0  0  0  0  0  0  0  0  0
  -25.8128  -11.5495   20.4211 N   0  0  0  0  0  0  0  0  0  0  0  0
  -26.2047  -12.8002   20.1239 N   0  0  0  0  0  0  0  0  0  0  0  0
  -23.1756  -27.8135   20.5930 N   0  0  0  0  0  0  0  0  0  0  0  0
  -29.9087  -13.6208   20.6792 N   0  0  0  0  0  0  0  0  0  0  0  0
  -30.1128  -15.7629   21.6987 N   0  0  0  0  0  0  0  0  0  0  0  0
  -25.4212  -15.0258   19.9156 N   0  0  0  0  0  0  0  0  0  0  0  0
  -21.7212  -12.7258   21.1055 N   0  0  0  0  0  0  0  0  0  0  0  0
  -27.4175  -21.6784   25.4624 N   0  0  0  0  0  0  0  0  0  0  0  0
  -20.4368  -28.4982   22.9010 N   0  0  0  0  0  0  0  0  0  0  0  0
  -24.6097  -28.0121   17.5332 N   0  0  0  0  0  0  0  0  0  0  0  0
  -28.1801  -28.5775   17.5144 N   0  3  0  0  0  0  0  0  0  0  0  0
  -22.5281  -14.8021   20.5612 O   0  0  0  0  0  0  0  0  0  0  0  0
  -20.9423  -26.8307   21.3561 O   0  0  0  0  0  0  0  0  0  0  0  0
  -22.4584  -29.2854   18.9330 O   0  0  0  0  0  0  0  0  0  0  0  0
  -26.3109  -26.6029   18.2381 O   0  0  0  0  0  0  0  0  0  0  0  0
  -31.8899  -14.8015   20.6796 O   0  0  0  0  0  0  0  0  0  0  0  0
  -21.4241   -7.2527   22.1020 O   0  0  0  0  0  0  0  0  0  0  0  0
  -25.9754  -23.9305   24.4963 O   0  0  0  0  0  0  0  0  0  1  0  0
  -23.5205   -3.7605   25.8186 F   0  0  0  0  0  0  0  0  0  0  0  0
  -20.1190   -6.7727   24.4913 F   0  0  0  0  0  0  0  0  0  0  0  0
  1  2  1  0  0  0  0
  1  5  2  0  0  0  0
  2  6  2  0  0  0  0
  3  9  2  0  0  0  0
  3 18  1  0  0  0  0
  4 10  1  0  0  0  0
  4 18  2  0  0  0  0
  5 21  1  0  0  0  0
  6 23  1  0  0  0  0
  7 11  2  0  0  0  0
  7 22  1  0  0  0  0
  8 14  2  0  0  0  0
  8 20  1  0  0  0  0
  9 25  1  0  0  0  0
 10 25  2  0  0  0  0
 11 26  1  0  0  0  0
 12 13  2  0  0  0  0
 12 27  1  0  0  0  0
 13 28  1  0  0  0  0
 14 31  1  0  0  0  0
 15 24  1  0  0  0  0
 15 26  2  0  0  0  0
 16 28  2  0  0  0  0
 16 29  1  0  0  0  0
 17 20  2  0  0  0  0
 17 64  1  0  0  0  0
 18 30  1  0  0  0  0
 19 30  1  0  0  0  0
 19 32  2  0  0  0  0
 19 33  1  0  0  0  0
 20 49  1  0  0  0  0
 21 23  2  0  0  0  0
 21 38  1  0  0  0  0
 22 24  2  0  0  0  0
 22 39  1  0  0  0  0
 23 50  1  0  0  0  0
 24 40  1  0  0  0  0
 25 81  1  0  0  0  0
 26 82  1  0  0  0  0
 27 29  2  0  0  0  0
 27 81  1  0  0  0  0
 28 83  1  0  0  0  0
 29 84  1  0  0  0  0
 30 65  2  0  0  0  0
 31 64  2  0  0  0  0
 31 72  1  0  0  0  0
 32 66  1  0  0  0  0
 32 70  1  0  0  0  0
 33 71  1  0  0  0  0
 33 76  2  0  0  0  0
 34 51  1  0  0  0  0
 34 73  1  0  0  0  0
 34 77  2  0  0  0  0
 35 60  1  0  0  0  0
 35 67  1  0  0  0  0
 35 78  2  0  0  0  0
 36 61  1  0  0  0  0
 36 74  1  0  0  0  0
 36 79  2  0  0  0  0
 37 68  1  0  0  0  0
 37 69  1  0  0  0  0
 37 80  2  0  0  0  0
 38 41  1  0  0  0  0
 39 51  1  0  0  0  0
 40 67  1  0  0  0  0
 41 43  1  0  0  0  0
 42 44  1  0  0  0  0
 42 45  1  0  0  0  0
 43 50  1  0  0  0  0
 44 52  1  0  0  0  0
 45 68  1  0  0  0  0
 46 49  1  0  0  0  0
 46 69  1  0  0  0  0
 47 49  1  0  0  0  0
 47 69  1  0  0  0  0
 48 52  1  0  0  0  0
 48 68  1  0  0  0  0
 50 73  1  0  0  0  0
 51 67  1  0  0  0  0
 52 66  1  0  0  0  0
 53 61  1  0  0  0  0
 54 62  1  0  0  0  0
 55 63  1  0  0  0  0
 56 63  1  0  0  0  0
 57 63  1  0  0  0  0
 58 75  1  0  0  0  0
 59 62  1  0  0  0  0
 59 82  1  0  0  0  0
 60 63  1  0  0  0  0
 60 74  1  0  0  0  0
 61 75  1  0  0  0  0
 62 72  1  0  0  0  0
 65 66  1  0  0  0  0
M  CHG  1  75   1
M  ISO  4  37 100  59 101  69 100  82 101
M  END
> <Batch ID>
0188

> <Smiles>
CNC(C)C(=O)NC(C(=O)N1Cc2cc([101O:1][101CH2:1]C(C)Nc3ccc(C4C[100N:0]([100C:0](=O)N5CCCC(n6nc(-c7ccc(Oc8ccc(F)cc8F)cc7)c(C(N)=O)c6N)C5)C4)cn3)ccc2CC1C(=O)NC1CCCc2ccccc21)C(C)(C)C

> <Shape>
0.249

> <Color>
0.192

> <Negative vol penalty>
0.000

$$$$

  -OEChem-04052323193D

 85 95  0     1  0  0  0  0  0999 V2000
  -30.0224  -33.7330   25.3678 C   0  0  0  0  0  0  0  0  0  0  0  0
  -29.3734  -32.5025   25.3563 C   0  0  0  0  0  0  0  0  0  0  0  0
  -22.7228  -10.6174   21.6541 C   0  0  0  0  0  0  0  0  0  0  0  0
  -24.5703   -9.0807   21.4040 C   0  0  0  0  0  0  0  0  0  0  0  0
  -29.3201  -34.8933   25.0449 C   0  0  0  0  0  0  0  0  0  0  0  0
  -28.0212  -32.4318   25.0229 C   0  0  0  0  0  0  0  0  0  0  0  0
  -27.0060  -28.6447   21.8179 C   0  0  0  0  0  0  0  0  0  0  0  0
  -21.8278   -9.5484   21.6109 C   0  0  0  0  0  0  0  0  0  0  0  0
  -23.6752   -8.0117   21.3608 C   0  0  0  0  0  0  0  0  0  0  0  0
  -26.9338  -27.3595   22.3534 C   0  0  0  0  0  0  0  0  0  0  0  0
  -21.8709   -6.1856   23.5586 C   0  0  0  0  0  0  0  0  0  0  0  0
  -22.1760   -5.0558   24.3177 C   0  0  0  0  0  0  0  0  0  0  0  0
  -24.5259  -27.5050   22.3620 C   0  0  0  0  0  0  0  0  0  0  0  0
  -22.2055   -3.7140   22.3087 C   0  0  0  0  0  0  0  0  0  0  0  0
  -24.0941  -10.3835   21.5506 C   0  0  0  0  0  0  0  0  0  0  0  0
  -25.1940  -12.4086   22.6447 C   0  0  0  0  0  0  0  0  0  0  0  0
  -27.9611  -34.8356   24.6979 C   0  0  0  0  0  0  0  0  0  0  0  0
  -25.8371  -29.3752   21.5602 C   0  0  0  0  0  0  0  0  0  0  0  0
  -27.2997  -33.5926   24.6963 C   0  0  0  0  0  0  0  0  0  0  0  0
  -24.5859  -28.7983   21.8209 C   0  0  0  0  0  0  0  0  0  0  0  0
  -22.3040   -8.2456   21.4642 C   0  0  0  0  0  0  0  0  0  0  0  0
  -25.6937  -26.7906   22.6283 C   0  0  0  0  0  0  0  0  0  0  0  0
  -21.7330   -6.0796   22.1746 C   0  0  0  0  0  0  0  0  0  0  0  0
  -22.3433   -3.8201   23.6927 C   0  0  0  0  0  0  0  0  0  0  0  0
  -21.9003   -4.8438   21.5497 C   0  0  0  0  0  0  0  0  0  0  0  0
  -25.0191  -11.4874   21.5946 C   0  0  0  0  0  0  0  0  0  0  0  0
  -26.1827  -13.2521   22.2003 C   0  0  0  0  0  0  0  0  0  0  0  0
  -25.8803  -20.6642   20.5044 C   0  0  0  0  0  0  0  0  0  0  0  0
  -24.5229  -12.4941   23.9088 C   0  0  0  0  0  0  0  0  0  0  0  0
  -24.6211  -32.1116   22.6265 C   0  0  0  0  0  0  0  0  0  0  0  0
  -22.3828  -31.5548   20.3456 C   0  0  0  0  0  0  0  0  0  0  0  0
  -20.5298  -28.7154   19.1121 C   0  0  0  0  0  0  0  0  0  0  0  0
  -28.5496  -16.3144   18.2677 C   0  0  0  0  0  0  0  0  0  0  0  0
  -27.2321  -36.1224   24.4023 C   0  0  0  0  0  0  0  0  0  0  0  0
  -25.9312  -30.7501   20.9575 C   0  0  0  0  0  0  0  0  0  0  0  0
  -23.3007  -29.5329   21.5434 C   0  0  0  0  0  0  0  0  0  0  0  0
  -25.8945  -35.9164   23.6961 C   0  0  0  0  0  0  0  0  0  0  0  0
  -29.2854  -12.9080   18.2353 C   0  0  0  0  0  0  0  0  0  0  0  0
  -25.0951  -34.8111   24.3788 C   0  0  0  0  0  0  0  0  0  0  0  0
  -28.2526  -12.2963   19.1799 C   0  0  0  0  0  0  0  0  0  0  0  0
  -25.6020  -24.0237   21.1119 C   0  0  0  0  0  0  0  0  0  0  0  0
  -25.0723  -23.0581   22.9617 C   0  0  0  0  0  0  0  0  0  0  0  0
  -28.6595  -14.0067   17.3854 C   0  0  0  0  0  0  0  0  0  0  0  0
  -25.8113  -18.6238   19.1851 C   0  0  0  0  0  0  0  0  0  0  0  0
  -27.8998  -19.3097   20.4752 C   0  0  0  0  0  0  0  0  0  0  0  0
  -26.4364  -17.2425   19.3323 C   0  0  0  0  0  0  0  0  0  0  0  0
  -28.5919  -18.5015   19.3900 C   0  0  0  0  0  0  0  0  0  0  0  0
  -26.9961  -14.5110   19.1489 C   0  0  0  0  0  0  0  0  0  0  0  0
  -25.8400  -33.4721   24.3159 C   0  0  1  0  0  0  0  0  0  0  0  0
  -24.4761  -20.9550   20.1137 C   0  0  2  0  0  0  0  0  0  0  0  0
  -24.6918  -31.6015   21.2150 C   0  0  1  0  0  0  0  0  0  0  0  0
  -27.5754  -13.3847   20.0297 C   0  0  1  0  0  0  0  0  0  0  0  0
  -24.9223  -24.5034   22.4208 C   0  0  0  0  0  0  0  0  0  1  0  0
  -25.2731  -22.5903   21.5239 C   0  0  0  0  0  0  0  0  0  0  0  0
  -24.3745  -21.2831   18.6284 C   0  0  0  0  0  0  0  0  0  0  0  0
  -19.5277  -28.2775   16.8534 C   0  0  0  0  0  0  0  0  0  0  0  0
  -19.8403  -32.7160   21.5692 C   0  0  0  0  0  0  0  0  0  0  0  0
  -18.5304  -30.9964   20.3060 C   0  0  0  0  0  0  0  0  0  0  0  0
  -19.8780  -32.6923   19.0687 C   0  0  0  0  0  0  0  0  0  0  0  0
  -21.9916  -26.1574   18.8310 C   0  0  0  0  0  0  0  0  0  0  0  0
  -21.0607  -30.8276   20.3001 C   0  0  1  0  0  0  0  0  0  0  0  0
  -20.7119  -28.0235   17.7732 C   0  0  2  0  0  0  0  0  0  0  0  0
  -19.8480  -31.8002   20.3289 C   0  0  0  0  0  0  0  0  0  0  0  0
  -25.8314  -11.7234   20.5609 N   0  0  0  0  0  0  0  0  0  0  0  0
  -26.5262  -12.8026   20.9593 N   0  0  0  0  0  0  0  0  0  0  0  0
  -24.0216  -22.1334   20.8986 N   0  0  0  0  0  0  0  0  0  0  0  0
  -26.5057  -19.5771   20.0725 N   0  0  0  0  0  0  0  0  0  0  0  0
  -23.4453  -30.8768   20.9599 N   0  0  0  0  0  0  0  0  0  0  0  0
  -28.0114  -15.0216   18.2167 N   0  0  0  0  0  0  0  0  0  0  0  0
  -27.8822  -17.2636   19.0610 N   0  0  0  0  0  0  0  0  0  0  0  0
  -26.3265  -21.6216   21.3069 N   0  3  0  0  0  0  0  0  0  0  0  0
  -26.7830  -14.3271   22.7539 N   0  0  0  0  0  0  0  0  0  0  0  0
  -25.0625  -11.7996   25.0000 N   0  0  0  0  0  0  0  0  0  0  0  0
  -25.7061  -32.8805   23.0019 N   0  0  0  0  0  0  0  0  0  0  0  0
  -21.1085  -29.9669   19.1231 N   0  0  0  0  0  0  0  0  0  0  0  0
  -20.8508  -26.5522   17.9652 N   0  3  0  0  0  0  0  0  0  0  0  0
  -23.4666  -13.1531   24.0620 O   0  0  0  0  0  0  0  0  0  0  0  0
  -23.6530  -31.8298   23.3230 O   0  0  0  0  0  0  0  0  0  0  0  0
  -22.4715  -32.6800   19.8479 O   0  0  0  0  0  0  0  0  0  0  0  0
  -19.9307  -28.1990   20.0527 O   0  0  0  0  0  0  0  0  0  0  0  0
  -29.5629  -16.6161   17.6235 O   0  0  0  0  0  0  0  0  0  0  0  0
  -21.4309   -7.2023   21.4223 O   0  0  0  0  0  0  0  0  0  0  0  0
  -25.6195  -25.5222   23.1575 O   0  0  0  0  0  0  0  0  0  1  0  0
  -22.6378   -2.7355   24.4216 F   0  0  0  0  0  0  0  0  0  0  0  0
  -21.7703   -4.7359   20.2203 F   0  0  0  0  0  0  0  0  0  0  0  0
  1  2  1  0  0  0  0
  1  5  2  0  0  0  0
  2  6  2  0  0  0  0
  3  8  2  0  0  0  0
  3 15  1  0  0  0  0
  4  9  1  0  0  0  0
  4 15  2  0  0  0  0
  5 17  1  0  0  0  0
  6 19  1  0  0  0  0
  7 10  2  0  0  0  0
  7 18  1  0  0  0  0
  8 21  1  0  0  0  0
  9 21  2  0  0  0  0
 10 22  1  0  0  0  0
 11 12  2  0  0  0  0
 11 23  1  0  0  0  0
 12 24  1  0  0  0  0
 13 20  1  0  0  0  0
 13 22  2  0  0  0  0
 14 24  2  0  0  0  0
 14 25  1  0  0  0  0
 15 26  1  0  0  0  0
 16 26  1  0  0  0  0
 16 27  2  0  0  0  0
 16 29  1  0  0  0  0
 17 19  2  0  0  0  0
 17 34  1  0  0  0  0
 18 20  2  0  0  0  0
 18 35  1  0  0  0  0
 19 49  1  0  0  0  0
 20 36  1  0  0  0  0
 21 82  1  0  0  0  0
 22 83  1  0  0  0  0
 23 25  2  0  0  0  0
 23 82  1  0  0  0  0
 24 84  1  0  0  0  0
 25 85  1  0  0  0  0
 26 64  2  0  0  0  0
 27 65  1  0  0  0  0
 27 72  1  0  0  0  0
 28 50  1  0  0  0  0
 28 67  1  0  0  0  0
 28 71  2  0  0  0  0
 29 73  1  0  0  0  0
 29 77  2  0  0  0  0
 30 51  1  0  0  0  0
 30 74  1  0  0  0  0
 30 78  2  0  0  0  0
 31 61  1  0  0  0  0
 31 68  1  0  0  0  0
 31 79  2  0  0  0  0
 32 62  1  0  0  0  0
 32 75  1  0  0  0  0
 32 80  2  0  0  0  0
 33 69  1  0  0  0  0
 33 70  1  0  0  0  0
 33 81  2  0  0  0  0
 34 37  1  0  0  0  0
 35 51  1  0  0  0  0
 36 68  1  0  0  0  0
 37 39  1  0  0  0  0
 38 40  1  0  0  0  0
 38 43  1  0  0  0  0
 39 49  1  0  0  0  0
 40 52  1  0  0  0  0
 41 53  1  0  0  0  0
 41 54  1  0  0  0  0
 42 53  1  0  0  0  0
 42 54  1  0  0  0  0
 43 69  1  0  0  0  0
 44 46  1  0  0  0  0
 44 67  1  0  0  0  0
 45 47  1  0  0  0  0
 45 67  1  0  0  0  0
 46 70  1  0  0  0  0
 47 70  1  0  0  0  0
 48 52  1  0  0  0  0
 48 69  1  0  0  0  0
 49 74  1  0  0  0  0
 50 55  1  0  0  0  0
 50 66  1  0  0  0  0
 51 68  1  0  0  0  0
 52 65  1  0  0  0  0
 53 83  1  0  0  0  0
 54 66  1  0  0  0  0
 54 71  1  0  0  0  0
 56 62  1  0  0  0  0
 57 63  1  0  0  0  0
 58 63  1  0  0  0  0
 59 63  1  0  0  0  0
 60 76  1  0  0  0  0
 61 63  1  0  0  0  0
 61 75  1  0  0  0  0
 62 76  1  0  0  0  0
 64 65  1  0  0  0  0
M  CHG  2  71   1  76   1
M  ISO  4  33 100  53 101  70 100  83 101
M  END
> <Batch ID>
0188

> <Smiles>
CNC(C)C(=O)NC(C(=O)N1Cc2cc([101O:1][101CH:1]3CC4(C3)N=C(N3CC[100N:0]([100C:0](=O)N5CCCC(n6nc(-c7ccc(Oc8ccc(F)cc8F)cc7)c(C(N)=O)c6N)C5)CC3)C(C)N4)ccc2CC1C(=O)NC1CCCc2ccccc21)C(C)(C)C

> <Shape>
0.246

> <Color>
0.100

> <Negative vol penalty>
0.000

$$$$

  -OEChem-04052323193D

 81 89  0     1  0  0  0  0  0999 V2000
  -32.3155  -14.0883   20.8913 C   0  0  0  0  0  0  0  0  0  0  0  0
  -31.5153  -15.2048   21.1116 C   0  0  0  0  0  0  0  0  0  0  0  0
  -29.6791  -24.9869   20.7694 C   0  0  0  0  0  0  0  0  0  0  0  0
  -27.6509  -24.1495   21.7805 C   0  0  0  0  0  0  0  0  0  0  0  0
  -31.7709  -12.9465   20.3051 C   0  0  0  0  0  0  0  0  0  0  0  0
  -30.1702  -15.1805   20.7447 C   0  0  0  0  0  0  0  0  0  0  0  0
  -25.5165  -17.9198   23.6336 C   0  0  0  0  0  0  0  0  0  0  0  0
  -30.0267  -23.6898   20.3923 C   0  0  0  0  0  0  0  0  0  0  0  0
  -27.9985  -22.8523   21.4033 C   0  0  0  0  0  0  0  0  0  0  0  0
  -24.8455  -19.1200   23.4031 C   0  0  0  0  0  0  0  0  0  0  0  0
  -27.9104  -20.9671   18.6000 C   0  0  0  0  0  0  0  0  0  0  0  0
  -26.9161  -20.1704   18.0324 C   0  0  0  0  0  0  0  0  0  0  0  0
  -23.1443  -17.9266   22.1781 C   0  0  0  0  0  0  0  0  0  0  0  0
  -27.1784  -18.5682   19.8216 C   0  0  0  0  0  0  0  0  0  0  0  0
  -28.4912  -25.2168   21.4635 C   0  0  0  0  0  0  0  0  0  0  0  0
  -28.8600  -27.4219   22.6921 C   0  0  0  0  0  0  0  0  0  0  0  0
  -30.4161  -12.9048   19.9397 C   0  0  0  0  0  0  0  0  0  0  0  0
  -25.0113  -16.7134   23.1279 C   0  0  0  0  0  0  0  0  0  0  0  0
  -29.6073  -14.0376   20.1519 C   0  0  0  0  0  0  0  0  0  0  0  0
  -23.8094  -16.7122   22.4057 C   0  0  0  0  0  0  0  0  0  0  0  0
  -29.1864  -22.6225   20.7093 C   0  0  0  0  0  0  0  0  0  0  0  0
  -23.6608  -19.1239   22.6728 C   0  0  0  0  0  0  0  0  0  0  0  0
  -28.5388  -20.5643   19.7785 C   0  0  0  0  0  0  0  0  0  0  0  0
  -26.5501  -18.9710   18.6431 C   0  0  0  0  0  0  0  0  0  0  0  0
  -28.1728  -19.3648   20.3892 C   0  0  0  0  0  0  0  0  0  0  0  0
  -28.1318  -26.5564   21.8539 C   0  0  0  0  0  0  0  0  0  0  0  0
  -28.1004  -28.5648   22.7485 C   0  0  0  0  0  0  0  0  0  0  0  0
  -30.1111  -27.2115   23.3599 C   0  0  0  0  0  0  0  0  0  0  0  0
  -26.0631  -14.5260   21.0754 C   0  0  0  0  0  0  0  0  0  0  0  0
  -23.3991  -12.9299   22.0126 C   0  0  0  0  0  0  0  0  0  0  0  0
  -20.2546  -13.0648   23.3318 C   0  0  0  0  0  0  0  0  0  0  0  0
  -22.2615  -29.5915   21.9449 C   0  0  0  0  0  0  0  0  0  0  0  0
  -29.8838  -11.6649   19.2658 C   0  0  0  0  0  0  0  0  0  0  0  0
  -25.7330  -15.4238   23.4080 C   0  0  0  0  0  0  0  0  0  0  0  0
  -23.2143  -15.4414   21.8585 C   0  0  0  0  0  0  0  0  0  0  0  0
  -28.3593  -11.5876   19.2491 C   0  0  0  0  0  0  0  0  0  0  0  0
  -24.9520  -31.1130   20.2349 C   0  0  0  0  0  0  0  0  0  0  0  0
  -27.7619  -12.9215   18.8123 C   0  0  0  0  0  0  0  0  0  0  0  0
  -26.1371  -30.1883   20.4989 C   0  0  0  0  0  0  0  0  0  0  0  0
  -20.0416  -27.1469   23.6164 C   0  0  0  0  0  0  0  0  0  0  0  0
  -23.6712  -30.3106   20.0488 C   0  0  0  0  0  0  0  0  0  0  0  0
  -20.4377  -28.5751   23.2755 C   0  0  0  0  0  0  0  0  0  0  0  0
  -21.9411  -27.0564   22.1833 C   0  0  0  0  0  0  0  0  0  0  0  0
  -24.5204  -28.5046   21.5208 C   0  0  0  0  0  0  0  0  0  0  0  0
  -28.1378  -14.0411   19.7904 C   0  0  1  0  0  0  0  0  0  0  0  0
  -25.3980  -14.3221   22.4073 C   0  0  1  0  0  0  0  0  0  0  0  0
  -20.6096  -26.3510   22.4407 C   0  0  1  0  0  0  0  0  0  0  0  0
  -25.8497  -29.2677   21.6951 C   0  0  1  0  0  0  0  0  0  0  0  0
  -18.3098  -11.6008   23.9418 C   0  0  0  0  0  0  0  0  0  0  0  0
  -19.4186  -24.2622   23.1669 C   0  0  0  0  0  0  0  0  0  0  0  0
  -22.6540  -12.6950   19.0631 C   0  0  0  0  0  0  0  0  0  0  0  0
  -20.3260  -12.1042   19.7701 C   0  0  0  0  0  0  0  0  0  0  0  0
  -22.2343  -10.6317   20.4126 C   0  0  0  0  0  0  0  0  0  0  0  0
  -20.4197  -13.8357   26.1844 C   0  0  0  0  0  0  0  0  0  0  0  0
  -22.1624  -21.8407   20.8029 C   0  0  0  0  0  0  0  0  0  0  0  0
  -21.3995  -24.0897   21.5767 C   0  0  0  0  0  0  0  0  0  0  0  0
  -22.2466  -20.3922   21.2419 C   0  0  0  0  0  0  0  0  0  1  0  0
  -21.9648  -12.8763   21.5447 C   0  0  1  0  0  0  0  0  0  0  0  0
  -19.5890  -12.2599   24.4335 C   0  0  2  0  0  0  0  0  0  0  0  0
  -20.7595  -24.8695   22.7367 C   0  0  1  0  0  0  0  0  0  0  0  0
  -21.8067  -12.1012   20.2061 C   0  0  0  0  0  0  0  0  0  0  0  0
  -26.9968  -27.1027   21.4098 N   0  0  0  0  0  0  0  0  0  0  0  0
  -27.0059  -28.3238   21.9712 N   0  0  0  0  0  0  0  0  0  0  0  0
  -23.9605  -14.2069   22.1535 N   0  0  0  0  0  0  0  0  0  0  0  0
  -23.4204  -29.4163   21.1806 N   0  0  0  0  0  0  0  0  0  0  0  0
  -21.6745  -28.4597   22.5091 N   0  0  0  0  0  0  0  0  0  0  0  0
  -28.2686  -29.7424   23.3867 N   0  0  0  0  0  0  0  0  0  0  0  0
  -30.0959  -26.6674   24.6514 N   0  0  0  0  0  0  0  0  0  0  0  0
  -27.3224  -13.9646   20.9836 N   0  0  0  0  0  0  0  0  0  0  0  0
  -21.1948  -12.3199   22.6519 N   0  0  0  0  0  0  0  0  0  0  0  0
  -19.2504  -13.1413   25.5865 N   0  3  0  0  0  0  0  0  0  0  0  0
  -21.5141  -22.6428   21.8768 N   0  3  0  0  0  0  0  0  0  0  0  0
  -31.2092  -27.5128   22.8336 O   0  0  0  0  0  0  0  0  0  0  0  0
  -25.4765  -15.1453   20.1957 O   0  0  0  0  0  0  0  0  0  0  0  0
  -23.9971  -11.8777   22.2514 O   0  0  0  0  0  0  0  0  0  0  0  0
  -19.9663  -14.2359   23.0954 O   0  0  0  0  0  0  0  0  0  0  0  0
  -21.7459  -30.7090   22.0837 O   0  0  0  0  0  0  0  0  0  0  0  0
  -29.5252  -21.3567   20.3412 O   0  0  0  0  0  0  0  0  0  0  0  0
  -22.9994  -20.3025   22.4443 O   0  0  0  0  0  0  0  0  0  1  0  0
  -25.5942  -18.2068   18.0987 F   0  0  0  0  0  0  0  0  0  0  0  0
  -28.7720  -18.9732   21.5221 F   0  0  0  0  0  0  0  0  0  0  0  0
  1  2  1  0  0  0  0
  1  5  2  0  0  0  0
  2  6  2  0  0  0  0
  3  8  2  0  0  0  0
  3 15  1  0  0  0  0
  4  9  1  0  0  0  0
  4 15  2  0  0  0  0
  5 17  1  0  0  0  0
  6 19  1  0  0  0  0
  7 10  2  0  0  0  0
  7 18  1  0  0  0  0
  8 21  1  0  0  0  0
  9 21  2  0  0  0  0
 10 22  1  0  0  0  0
 11 12  2  0  0  0  0
 11 23  1  0  0  0  0
 12 24  1  0  0  0  0
 13 20  1  0  0  0  0
 13 22  2  0  0  0  0
 14 24  2  0  0  0  0
 14 25  1  0  0  0  0
 15 26  1  0  0  0  0
 16 26  1  0  0  0  0
 16 27  2  0  0  0  0
 16 28  1  0  0  0  0
 17 19  2  0  0  0  0
 17 33  1  0  0  0  0
 18 20  2  0  0  0  0
 18 34  1  0  0  0  0
 19 45  1  0  0  0  0
 20 35  1  0  0  0  0
 21 78  1  0  0  0  0
 22 79  1  0  0  0  0
 23 25  2  0  0  0  0
 23 78  1  0  0  0  0
 24 80  1  0  0  0  0
 25 81  1  0  0  0  0
 26 62  2  0  0  0  0
 27 63  1  0  0  0  0
 27 67  1  0  0  0  0
 28 68  1  0  0  0  0
 28 73  2  0  0  0  0
 29 46  1  0  0  0  0
 29 69  1  0  0  0  0
 29 74  2  0  0  0  0
 30 58  1  0  0  0  0
 30 64  1  0  0  0  0
 30 75  2  0  0  0  0
 31 59  1  0  0  0  0
 31 70  1  0  0  0  0
 31 76  2  0  0  0  0
 32 65  1  0  0  0  0
 32 66  1  0  0  0  0
 32 77  2  0  0  0  0
 33 36  1  0  0  0  0
 34 46  1  0  0  0  0
 35 64  1  0  0  0  0
 36 38  1  0  0  0  0
 37 39  1  0  0  0  0
 37 41  1  0  0  0  0
 38 45  1  0  0  0  0
 39 48  1  0  0  0  0
 40 42  1  0  0  0  0
 40 47  1  0  0  0  0
 41 65  1  0  0  0  0
 42 66  1  0  0  0  0
 43 47  1  0  0  0  0
 43 66  1  0  0  0  0
 44 48  1  0  0  0  0
 44 65  1  0  0  0  0
 45 69  1  0  0  0  0
 46 64  1  0  0  0  0
 47 60  1  0  0  0  0
 48 63  1  0  0  0  0
 49 59  1  0  0  0  0
 50 60  1  0  0  0  0
 51 61  1  0  0  0  0
 52 61  1  0  0  0  0
 53 61  1  0  0  0  0
 54 71  1  0  0  0  0
 55 57  1  0  0  0  0
 55 72  1  0  0  0  0
 56 60  1  0  0  0  0
 56 72  1  0  0  0  0
 57 79  1  0  0  0  0
 58 61  1  0  0  0  0
 58 70  1  0  0  0  0
 59 71  1  0  0  0  0
 62 63  1  0  0  0  0
M  CHG  2  71   1  72   1
M  ISO  4  32 100  57 101  66 100  79 101
M  END
> <Batch ID>
0188

> <Smiles>
CNC(C)C(=O)NC(C(=O)N1Cc2cc([101O:1][101CH2:1]CNCC(C)C3CC[100N:0]([100C:0](=O)N4CCCC(n5nc(-c6ccc(Oc7ccc(F)cc7F)cc6)c(C(N)=O)c5N)C4)C3)ccc2CC1C(=O)NC1CCCc2ccccc21)C(C)(C)C

> <Shape>
0.248

> <Color>
0.067

> <Negative vol penalty>
0.000

$$$$

  -OEChem-04052323193D

 83 92  0     1  0  0  0  0  0999 V2000
  -18.2266  -32.7588   20.8593 C   0  0  0  0  0  0  0  0  0  0  0  0
  -19.6032  -32.7129   20.6637 C   0  0  0  0  0  0  0  0  0  0  0  0
  -24.9171  -13.4649   19.3582 C   0  0  0  0  0  0  0  0  0  0  0  0
  -25.3306  -14.5219   21.4910 C   0  0  0  0  0  0  0  0  0  0  0  0
  -17.6286  -31.9187   21.7977 C   0  0  0  0  0  0  0  0  0  0  0  0
  -20.3828  -31.8276   21.4072 C   0  0  0  0  0  0  0  0  0  0  0  0
  -25.4059  -28.8722   19.5257 C   0  0  0  0  0  0  0  0  0  0  0  0
  -24.8784  -12.2186   19.9833 C   0  0  0  0  0  0  0  0  0  0  0  0
  -25.2918  -13.2756   22.1162 C   0  0  0  0  0  0  0  0  0  0  0  0
  -26.7653  -29.1305   19.6963 C   0  0  0  0  0  0  0  0  0  0  0  0
  -24.3116   -8.7958   21.0688 C   0  0  0  0  0  0  0  0  0  0  0  0
  -23.2851   -7.9221   20.7104 C   0  0  0  0  0  0  0  0  0  0  0  0
  -26.8081  -27.6271   21.5824 C   0  0  0  0  0  0  0  0  0  0  0  0
  -21.6501   -9.5396   21.4503 C   0  0  0  0  0  0  0  0  0  0  0  0
  -31.8252  -27.3877   19.7397 C   0  0  0  0  0  0  0  0  0  0  0  0
  -25.1433  -14.6166   20.1120 C   0  0  0  0  0  0  0  0  0  0  0  0
  -24.1029  -16.7778   19.2436 C   0  0  0  0  0  0  0  0  0  0  0  0
  -18.4000  -31.0158   22.5462 C   0  0  0  0  0  0  0  0  0  0  0  0
  -24.7338  -27.9964   20.3904 C   0  0  0  0  0  0  0  0  0  0  0  0
  -19.7947  -30.9755   22.3575 C   0  0  0  0  0  0  0  0  0  0  0  0
  -25.4408  -27.3575   21.4191 C   0  0  0  0  0  0  0  0  0  0  0  0
  -25.0657  -12.1239   21.3623 C   0  0  0  0  0  0  0  0  0  0  0  0
  -27.4660  -28.5101   20.7265 C   0  0  0  0  0  0  0  0  0  0  0  0
  -24.0074  -10.0414   21.6181 C   0  0  0  0  0  0  0  0  0  0  0  0
  -21.9543   -8.2940   20.9011 C   0  0  0  0  0  0  0  0  0  0  0  0
  -22.6767  -10.4133   21.8088 C   0  0  0  0  0  0  0  0  0  0  0  0
  -25.1840  -15.9042   19.4667 C   0  0  0  0  0  0  0  0  0  0  0  0
  -31.3570  -26.3719   18.9464 C   0  0  0  0  0  0  0  0  0  0  0  0
  -24.6601  -17.8568   18.6018 C   0  0  0  0  0  0  0  0  0  0  0  0
  -29.6923  -27.9461   20.2287 C   0  0  0  0  0  0  0  0  0  1  0  0
  -22.7188  -16.6275   19.5859 C   0  0  0  0  0  0  0  0  0  0  0  0
  -22.3205  -28.2799   22.4396 C   0  0  0  0  0  0  0  0  0  0  0  0
  -22.6499  -25.0611   22.6705 C   0  0  0  0  0  0  0  0  0  0  0  0
  -24.6595  -22.3231   22.3367 C   0  0  0  0  0  0  0  0  0  0  0  0
  -30.1368  -20.0612   18.6451 C   0  0  0  0  0  0  0  0  0  0  0  0
  -17.7148  -30.1609   23.5827 C   0  0  0  0  0  0  0  0  0  0  0  0
  -23.2732  -27.7078   20.1766 C   0  0  0  0  0  0  0  0  0  0  0  0
  -24.7702  -26.3932   22.3620 C   0  0  0  0  0  0  0  0  0  0  0  0
  -18.5646  -28.9872   24.0627 C   0  0  0  0  0  0  0  0  0  0  0  0
  -28.2887  -19.0295   15.7095 C   0  0  0  0  0  0  0  0  0  0  0  0
  -19.9839  -29.4491   24.3774 C   0  0  0  0  0  0  0  0  0  0  0  0
  -27.1732  -18.1882   16.3325 C   0  0  0  0  0  0  0  0  0  0  0  0
  -33.2193  -22.0280   17.9234 C   0  0  0  0  0  0  0  0  0  0  0  0
  -29.6076  -18.8355   16.4518 C   0  0  0  0  0  0  0  0  0  0  0  0
  -28.4239  -18.2732   18.5389 C   0  0  0  0  0  0  0  0  0  0  0  0
  -33.6843  -23.3740   18.4569 C   0  0  0  0  0  0  0  0  0  0  0  0
  -31.2452  -23.1980   18.5123 C   0  0  0  0  0  0  0  0  0  0  0  0
  -20.6711  -30.0112   23.1270 C   0  0  1  0  0  0  0  0  0  0  0  0
  -22.5755  -27.1944   21.4324 C   0  0  1  0  0  0  0  0  0  0  0  0
  -27.0590  -18.4425   17.8472 C   0  0  2  0  0  0  0  0  0  0  0  0
  -31.8713  -21.8197   18.5918 C   0  0  1  0  0  0  0  0  0  0  0  0
  -24.6595  -19.8314   22.6350 C   0  0  0  0  0  0  0  0  0  0  0  0
  -22.8621  -25.4253   25.6925 C   0  0  0  0  0  0  0  0  0  0  0  0
  -23.7923  -23.1053   25.8367 C   0  0  0  0  0  0  0  0  0  0  0  0
  -21.4809  -23.4688   24.9719 C   0  0  0  0  0  0  0  0  0  0  0  0
  -25.2223  -21.8632   19.4678 C   0  0  0  0  0  0  0  0  0  0  0  0
  -32.2893  -25.4738   18.2149 C   0  0  0  0  0  0  0  0  0  0  0  0
  -23.4578  -24.1288   23.5407 C   0  0  1  0  0  0  0  0  0  0  0  0
  -24.4298  -20.9807   21.6660 C   0  0  2  0  0  0  0  0  0  0  0  0
  -22.9108  -24.0517   24.9941 C   0  0  0  0  0  0  0  0  0  0  0  0
  -30.9964  -28.2061   20.4056 N   0  0  0  0  0  0  0  0  0  0  0  0
  -26.3406  -16.3864   19.0041 N   0  0  0  0  0  0  0  0  0  0  0  0
  -30.0359  -26.1589   18.8071 N   0  0  0  0  0  0  0  0  0  0  0  0
  -29.1753  -26.9644   19.4637 N   0  0  0  0  0  0  0  0  0  0  0  0
  -25.9893  -17.5746   18.4838 N   0  0  0  0  0  0  0  0  0  0  0  0
  -23.3394  -26.1487   22.1159 N   0  0  0  0  0  0  0  0  0  0  0  0
  -29.4346  -19.1111   17.8851 N   0  0  0  0  0  0  0  0  0  0  0  0
  -24.1379  -19.0097   18.1325 N   0  0  0  0  0  0  0  0  0  0  0  0
  -22.3164  -15.4569   20.2432 N   0  0  0  0  0  0  0  0  0  0  0  0
  -21.1160  -28.9349   22.2679 N   0  0  0  0  0  0  0  0  0  0  0  0
  -23.4897  -22.8466   22.8454 N   0  0  0  0  0  0  0  0  0  0  0  0
  -31.0812  -20.8087   17.9521 N   0  0  0  0  0  0  0  0  0  0  0  0
  -32.4104  -24.1143   18.8248 N   0  3  2  0  0  0  0  0  0  0  0  0
  -25.3563  -20.8137   20.5107 N   0  3  0  0  0  0  0  0  0  0  0  0
  -21.8613  -17.4980   19.3022 O   0  0  0  0  0  0  0  0  0  0  0  0
  -23.1541  -28.5053   23.3090 O   0  0  0  0  0  0  0  0  0  0  0  0
  -21.4529  -24.8288   22.4839 O   0  0  0  0  0  0  0  0  0  0  0  0
  -25.7666  -22.8523   22.4060 O   0  0  0  0  0  0  0  0  0  0  0  0
  -29.9334  -20.2346   19.8516 O   0  0  0  0  0  0  0  0  0  0  0  0
  -25.0277  -10.9079   21.9727 O   0  0  0  0  0  0  0  0  0  0  0  0
  -28.7928  -28.7610   20.8956 O   0  0  0  0  0  0  0  0  0  1  0  0
  -20.9686   -7.4556   20.5554 F   0  0  0  0  0  0  0  0  0  0  0  0
  -22.3782  -11.6091   22.3349 F   0  0  0  0  0  0  0  0  0  0  0  0
  1  2  1  0  0  0  0
  1  5  2  0  0  0  0
  2  6  2  0  0  0  0
  3  8  2  0  0  0  0
  3 16  1  0  0  0  0
  4  9  1  0  0  0  0
  4 16  2  0  0  0  0
  5 18  1  0  0  0  0
  6 20  1  0  0  0  0
  7 10  2  0  0  0  0
  7 19  1  0  0  0  0
  8 22  1  0  0  0  0
  9 22  2  0  0  0  0
 10 23  1  0  0  0  0
 11 12  2  0  0  0  0
 11 24  1  0  0  0  0
 12 25  1  0  0  0  0
 13 21  1  0  0  0  0
 13 23  2  0  0  0  0
 14 25  2  0  0  0  0
 14 26  1  0  0  0  0
 15 28  1  0  0  0  0
 15 61  2  0  0  0  0
 16 27  1  0  0  0  0
 17 27  1  0  0  0  0
 17 29  2  0  0  0  0
 17 31  1  0  0  0  0
 18 20  2  0  0  0  0
 18 36  1  0  0  0  0
 19 21  2  0  0  0  0
 19 37  1  0  0  0  0
 20 48  1  0  0  0  0
 21 38  1  0  0  0  0
 22 80  1  0  0  0  0
 23 81  1  0  0  0  0
 24 26  2  0  0  0  0
 24 80  1  0  0  0  0
 25 82  1  0  0  0  0
 26 83  1  0  0  0  0
 27 62  2  0  0  0  0
 28 57  1  0  0  0  0
 28 63  2  0  0  0  0
 29 65  1  0  0  0  0
 29 68  1  0  0  0  0
 30 61  1  0  0  0  0
 30 64  2  0  0  0  0
 30 81  1  0  0  0  0
 31 69  1  0  0  0  0
 31 75  2  0  0  0  0
 32 49  1  0  0  0  0
 32 70  1  0  0  0  0
 32 76  2  0  0  0  0
 33 58  1  0  0  0  0
 33 66  1  0  0  0  0
 33 77  2  0  0  0  0
 34 59  1  0  0  0  0
 34 71  1  0  0  0  0
 34 78  2  0  0  0  0
 35 67  1  0  0  0  0
 35 72  1  0  0  0  0
 35 79  2  0  0  0  0
 36 39  1  0  0  0  0
 37 49  1  0  0  0  0
 38 66  1  0  0  0  0
 39 41  1  0  0  0  0
 40 42  1  0  0  0  0
 40 44  1  0  0  0  0
 41 48  1  0  0  0  0
 42 50  1  0  0  0  0
 43 46  1  0  0  0  0
 43 51  1  0  0  0  0
 44 67  1  0  0  0  0
 45 50  1  0  0  0  0
 45 67  1  0  0  0  0
 46 73  1  0  0  0  0
 47 51  1  0  0  0  0
 47 73  1  0  0  0  0
 48 70  1  0  0  0  0
 49 66  1  0  0  0  0
 50 65  1  0  0  0  0
 51 72  1  0  0  0  0
 52 59  1  0  0  0  0
 53 60  1  0  0  0  0
 54 60  1  0  0  0  0
 55 60  1  0  0  0  0
 56 74  1  0  0  0  0
 57 73  1  0  0  0  0
 58 60  1  0  0  0  0
 58 71  1  0  0  0  0
 59 74  1  0  0  0  0
 62 65  1  0  0  0  0
 63 64  1  0  0  0  0
M  CHG  2  73   1  74   1
M  ISO  4  30 101  35 100  72 100  81 101
M  END
> <Batch ID>
0188

> <Smiles>
CNC(C)C(=O)NC(C(=O)N1Cc2cc([101O:1][101c:1]3ncc(CN4CCC([100NH:0][100C:0](=O)N5CCCC(n6nc(-c7ccc(Oc8ccc(F)cc8F)cc7)c(C(N)=O)c6N)C5)C4)nn3)ccc2CC1C(=O)NC1CCCc2ccccc21)C(C)(C)C

> <Shape>
0.201

> <Color>
0.098

> <Negative vol penalty>
0.000

$$$$

  -OEChem-04052323193D

 81 90  0     1  0  0  0  0  0999 V2000
  -16.4116  -29.0607   23.0847 C   0  0  0  0  0  0  0  0  0  0  0  0
  -17.0816  -29.7385   22.0713 C   0  0  0  0  0  0  0  0  0  0  0  0
  -23.8555  -14.1168   20.3525 C   0  0  0  0  0  0  0  0  0  0  0  0
  -26.2401  -14.1601   20.7382 C   0  0  0  0  0  0  0  0  0  0  0  0
  -17.0536  -28.8095   24.2966 C   0  0  0  0  0  0  0  0  0  0  0  0
  -18.3938  -30.1664   22.2695 C   0  0  0  0  0  0  0  0  0  0  0  0
  -24.8282  -28.6638   18.1020 C   0  0  0  0  0  0  0  0  0  0  0  0
  -23.9099  -12.7349   20.1709 C   0  0  0  0  0  0  0  0  0  0  0  0
  -26.2945  -12.7782   20.5568 C   0  0  0  0  0  0  0  0  0  0  0  0
  -26.0623  -28.3418   17.5367 C   0  0  0  0  0  0  0  0  0  0  0  0
  -23.3641   -9.1469   19.9627 C   0  0  0  0  0  0  0  0  0  0  0  0
  -22.3905   -8.3713   20.5921 C   0  0  0  0  0  0  0  0  0  0  0  0
  -27.1507  -28.7407   19.6591 C   0  0  0  0  0  0  0  0  0  0  0  0
  -23.1231   -9.1961   22.7416 C   0  0  0  0  0  0  0  0  0  0  0  0
  -25.0206  -14.8295   20.6360 C   0  0  0  0  0  0  0  0  0  0  0  0
  -24.2270  -16.9591   21.7947 C   0  0  0  0  0  0  0  0  0  0  0  0
  -18.3777  -29.2261   24.5063 C   0  0  0  0  0  0  0  0  0  0  0  0
  -24.7485  -29.0110   19.4535 C   0  0  0  0  0  0  0  0  0  0  0  0
  -19.0538  -29.9217   23.4858 C   0  0  0  0  0  0  0  0  0  0  0  0
  -25.9156  -29.0521   20.2339 C   0  0  0  0  0  0  0  0  0  0  0  0
  -25.1294  -12.0656   20.2731 C   0  0  0  0  0  0  0  0  0  0  0  0
  -27.2206  -28.3804   18.3133 C   0  0  0  0  0  0  0  0  0  0  0  0
  -24.2173   -9.9471   20.7227 C   0  0  0  0  0  0  0  0  0  0  0  0
  -22.2700   -8.3959   21.9816 C   0  0  0  0  0  0  0  0  0  0  0  0
  -24.0967   -9.9717   22.1122 C   0  0  0  0  0  0  0  0  0  0  0  0
  -24.9651  -16.2571   20.8231 C   0  0  0  0  0  0  0  0  0  0  0  0
  -24.5111  -18.2809   21.5530 C   0  0  0  0  0  0  0  0  0  0  0  0
  -23.3619  -16.4608   22.8239 C   0  0  0  0  0  0  0  0  0  0  0  0
  -22.5628  -30.0168   22.3322 C   0  0  0  0  0  0  0  0  0  0  0  0
  -24.6324  -28.0384   23.4336 C   0  0  0  0  0  0  0  0  0  0  0  0
  -26.8101  -25.5144   24.1578 C   0  0  0  0  0  0  0  0  0  0  0  0
  -29.1775  -20.9130   19.0903 C   0  0  0  0  0  0  0  0  0  0  0  0
  -19.0140  -28.9734   25.8501 C   0  0  0  0  0  0  0  0  0  0  0  0
  -23.4492  -29.4250   20.0893 C   0  0  0  0  0  0  0  0  0  0  0  0
  -25.7867  -29.4648   21.6748 C   0  0  0  0  0  0  0  0  0  0  0  0
  -20.5324  -29.1304   25.8442 C   0  0  0  0  0  0  0  0  0  0  0  0
  -25.7403  -21.2606   18.0156 C   0  0  0  0  0  0  0  0  0  0  0  0
  -20.9338  -30.4117   25.1202 C   0  0  0  0  0  0  0  0  0  0  0  0
  -31.7389  -26.5268   18.6348 C   0  0  0  0  0  0  0  0  0  0  0  0
  -29.9130  -25.4657   20.0473 C   0  0  0  0  0  0  0  0  0  0  0  0
  -25.0825  -20.0712   18.7172 C   0  0  0  0  0  0  0  0  0  0  0  0
  -30.6721  -27.2407   17.8083 C   0  0  0  0  0  0  0  0  0  0  0  0
  -28.8590  -26.1877   19.2113 C   0  0  0  0  0  0  0  0  0  0  0  0
  -27.1407  -20.9076   17.5224 C   0  0  0  0  0  0  0  0  0  0  0  0
  -27.3981  -19.2018   19.2808 C   0  0  0  0  0  0  0  0  0  0  0  0
  -32.1027  -22.3852   17.9020 C   0  0  0  0  0  0  0  0  0  0  0  0
  -20.4862  -30.3800   23.6538 C   0  0  1  0  0  0  0  0  0  0  0  0
  -23.3291  -28.9841   21.5591 C   0  0  1  0  0  0  0  0  0  0  0  0
  -31.2302  -25.2382   19.2942 C   0  0  0  0  0  0  0  0  0  0  0  0
  -25.9896  -19.5027   19.8243 C   0  0  2  0  0  0  0  0  0  0  0  0
  -30.9122  -22.7065   18.8065 C   0  0  1  0  0  0  0  0  0  0  0  0
  -31.0735  -24.1239   18.2547 C   0  0  2  0  0  0  0  0  0  0  0  0
  -29.4001  -27.4845   18.6147 C   0  0  0  0  0  0  0  0  0  1  0  0
  -27.5898  -24.0694   26.0556 C   0  0  0  0  0  0  0  0  0  0  0  0
  -26.2435  -30.3768   24.5472 C   0  0  0  0  0  0  0  0  0  0  0  0
  -27.6691  -28.7206   25.7690 C   0  0  0  0  0  0  0  0  0  0  0  0
  -25.2335  -28.8852   26.2820 C   0  0  0  0  0  0  0  0  0  0  0  0
  -25.9380  -23.0412   22.7860 C   0  0  0  0  0  0  0  0  0  0  0  0
  -25.9727  -27.8488   24.0977 C   0  0  1  0  0  0  0  0  0  0  0  0
  -26.6199  -24.1990   24.8915 C   0  0  2  0  0  0  0  0  0  0  0  0
  -26.2768  -28.9563   25.1457 C   0  0  0  0  0  0  0  0  0  0  0  0
  -25.6654  -17.0660   20.0235 N   0  0  0  0  0  0  0  0  0  0  0  0
  -25.3685  -18.2900   20.4923 N   0  0  0  0  0  0  0  0  0  0  0  0
  -24.6056  -28.8263   22.2765 N   0  0  0  0  0  0  0  0  0  0  0  0
  -27.9588  -20.3904   18.6288 N   0  0  0  0  0  0  0  0  0  0  0  0
  -24.1086  -19.4248   22.1463 N   0  0  0  0  0  0  0  0  0  0  0  0
  -23.9157  -16.1645   24.0768 N   0  0  0  0  0  0  0  0  0  0  0  0
  -21.3782  -29.5519   22.8709 N   0  0  0  0  0  0  0  0  0  0  0  0
  -25.9707  -26.4953   24.6421 N   0  0  0  0  0  0  0  0  0  0  0  0
  -29.6479  -22.0420   18.4282 N   0  0  0  0  0  0  0  0  0  0  0  0
  -26.8413  -23.0526   23.9654 N   0  3  0  0  0  0  0  0  0  0  0  0
  -22.1372  -16.2682   22.6329 O   0  0  0  0  0  0  0  0  0  0  0  0
  -23.0129  -31.1519   22.4347 O   0  0  0  0  0  0  0  0  0  0  0  0
  -23.6338  -27.5081   23.9283 O   0  0  0  0  0  0  0  0  0  0  0  0
  -27.6245  -25.6583   23.2487 O   0  0  0  0  0  0  0  0  0  0  0  0
  -29.8062  -20.4165   20.0315 O   0  0  0  0  0  0  0  0  0  0  0  0
  -32.3573  -23.7934   17.6738 O   0  0  0  0  0  0  0  0  0  0  0  0
  -25.1828  -10.7171   20.0963 O   0  0  0  0  0  0  0  0  0  0  0  0
  -28.4215  -28.0605   17.7562 O   0  0  0  0  0  0  0  0  0  1  0  0
  -21.3340   -7.6523   22.5858 F   0  0  0  0  0  0  0  0  0  0  0  0
  -24.9127  -10.7393   22.8475 F   0  0  0  0  0  0  0  0  0  0  0  0
  1  2  1  0  0  0  0
  1  5  2  0  0  0  0
  2  6  2  0  0  0  0
  3  8  2  0  0  0  0
  3 15  1  0  0  0  0
  4  9  1  0  0  0  0
  4 15  2  0  0  0  0
  5 17  1  0  0  0  0
  6 19  1  0  0  0  0
  7 10  2  0  0  0  0
  7 18  1  0  0  0  0
  8 21  1  0  0  0  0
  9 21  2  0  0  0  0
 10 22  1  0  0  0  0
 11 12  2  0  0  0  0
 11 23  1  0  0  0  0
 12 24  1  0  0  0  0
 13 20  1  0  0  0  0
 13 22  2  0  0  0  0
 14 24  2  0  0  0  0
 14 25  1  0  0  0  0
 15 26  1  0  0  0  0
 16 26  1  0  0  0  0
 16 27  2  0  0  0  0
 16 28  1  0  0  0  0
 17 19  2  0  0  0  0
 17 33  1  0  0  0  0
 18 20  2  0  0  0  0
 18 34  1  0  0  0  0
 19 47  1  0  0  0  0
 20 35  1  0  0  0  0
 21 78  1  0  0  0  0
 22 79  1  0  0  0  0
 23 25  2  0  0  0  0
 23 78  1  0  0  0  0
 24 80  1  0  0  0  0
 25 81  1  0  0  0  0
 26 62  2  0  0  0  0
 27 63  1  0  0  0  0
 27 66  1  0  0  0  0
 28 67  1  0  0  0  0
 28 72  2  0  0  0  0
 29 48  1  0  0  0  0
 29 68  1  0  0  0  0
 29 73  2  0  0  0  0
 30 59  1  0  0  0  0
 30 64  1  0  0  0  0
 30 74  2  0  0  0  0
 31 60  1  0  0  0  0
 31 69  1  0  0  0  0
 31 75  2  0  0  0  0
 32 65  1  0  0  0  0
 32 70  1  0  0  0  0
 32 76  2  0  0  0  0
 33 36  1  0  0  0  0
 34 48  1  0  0  0  0
 35 64  1  0  0  0  0
 36 38  1  0  0  0  0
 37 41  1  0  0  0  0
 37 44  1  0  0  0  0
 38 47  1  0  0  0  0
 39 42  1  0  0  0  0
 39 49  1  0  0  0  0
 40 43  1  0  0  0  0
 40 49  1  0  0  0  0
 41 50  1  0  0  0  0
 42 53  1  0  0  0  0
 43 53  1  0  0  0  0
 44 65  1  0  0  0  0
 45 50  1  0  0  0  0
 45 65  1  0  0  0  0
 46 51  1  0  0  0  0
 46 77  1  0  0  0  0
 47 68  1  0  0  0  0
 48 64  1  0  0  0  0
 49 52  1  0  0  0  0
 50 63  1  0  0  0  0
 51 52  1  0  0  0  0
 51 70  1  0  0  0  0
 52 77  1  0  0  0  0
 53 79  1  0  0  0  0
 54 60  1  0  0  0  0
 55 61  1  0  0  0  0
 56 61  1  0  0  0  0
 57 61  1  0  0  0  0
 58 71  1  0  0  0  0
 59 61  1  0  0  0  0
 59 69  1  0  0  0  0
 60 71  1  0  0  0  0
 62 63  1  0  0  0  0
M  CHG  1  71   1
M  ISO  4  32 100  53 101  70 100  79 101
M  END
> <Batch ID>
0188

> <Smiles>
CNC(C)C(=O)NC(C(=O)N1Cc2cc([101O:1][101CH:1]3CCC(C4OCC4[100NH:0][100C:0](=O)N4CCCC(n5nc(-c6ccc(Oc7ccc(F)cc7F)cc6)c(C(N)=O)c5N)C4)CC3)ccc2CC1C(=O)NC1CCCc2ccccc21)C(C)(C)C

> <Shape>
0.241

> <Color>
0.096

> <Negative vol penalty>
0.000

$$$$

  -OEChem-04052323193D

 84 93  0     1  0  0  0  0  0999 V2000
  -28.8538  -36.6786   18.9423 C   0  0  0  0  0  0  0  0  0  0  0  0
  -28.9735  -35.3202   18.6665 C   0  0  0  0  0  0  0  0  0  0  0  0
  -22.6915  -11.3389   19.2239 C   0  0  0  0  0  0  0  0  0  0  0  0
  -23.2684   -9.9301   21.0999 C   0  0  0  0  0  0  0  0  0  0  0  0
  -28.4299  -37.0982   20.2025 C   0  0  0  0  0  0  0  0  0  0  0  0
  -28.6704  -34.3807   19.6513 C   0  0  0  0  0  0  0  0  0  0  0  0
  -26.1424  -28.8644   18.8232 C   0  0  0  0  0  0  0  0  0  0  0  0
  -21.6770  -10.4501   18.8684 C   0  0  0  0  0  0  0  0  0  0  0  0
  -22.2538   -9.0413   20.7445 C   0  0  0  0  0  0  0  0  0  0  0  0
  -26.6893  -27.5845   18.7431 C   0  0  0  0  0  0  0  0  0  0  0  0
  -21.7771   -6.5850   18.4707 C   0  0  0  0  0  0  0  0  0  0  0  0
  -22.0767   -5.2227   18.4788 C   0  0  0  0  0  0  0  0  0  0  0  0
  -26.2231  -27.2454   21.0856 C   0  0  0  0  0  0  0  0  0  0  0  0
  -20.3515   -4.8532   20.1294 C   0  0  0  0  0  0  0  0  0  0  0  0
  -29.2131  -23.1903   21.2064 C   0  0  0  0  0  0  0  0  0  0  0  0
  -23.4873  -11.0789   20.3396 C   0  0  0  0  0  0  0  0  0  0  0  0
  -24.4328  -13.1035   21.5703 C   0  0  0  0  0  0  0  0  0  0  0  0
  -28.1121  -36.1631   21.2001 C   0  0  0  0  0  0  0  0  0  0  0  0
  -25.6408  -29.3494   20.0396 C   0  0  0  0  0  0  0  0  0  0  0  0
  -28.2431  -34.7882   20.9265 C   0  0  0  0  0  0  0  0  0  0  0  0
  -25.6681  -28.5309   21.1778 C   0  0  0  0  0  0  0  0  0  0  0  0
  -27.9346  -23.4443   20.7534 C   0  0  0  0  0  0  0  0  0  0  0  0
  -21.4581   -9.3014   19.6287 C   0  0  0  0  0  0  0  0  0  0  0  0
  -26.7323  -26.7758   19.8751 C   0  0  0  0  0  0  0  0  0  0  0  0
  -20.7648   -7.0814   19.2921 C   0  0  0  0  0  0  0  0  0  0  0  0
  -21.3639   -4.3568   19.3081 C   0  0  0  0  0  0  0  0  0  0  0  0
  -20.0520   -6.2155   20.1214 C   0  0  0  0  0  0  0  0  0  0  0  0
  -24.5358  -11.9963   20.7070 C   0  0  0  0  0  0  0  0  0  0  0  0
  -27.3275  -22.4111   20.0690 C   0  0  0  0  0  0  0  0  0  0  0  0
  -25.6956  -13.6434   21.5885 C   0  0  0  0  0  0  0  0  0  0  0  0
  -29.1609  -21.0932   20.3310 C   0  0  0  0  0  0  0  0  0  0  0  0
  -23.2972  -13.5995   22.2914 C   0  0  0  0  0  0  0  0  0  0  0  0
  -26.3718  -31.7745   21.9601 C   0  0  0  0  0  0  0  0  0  0  0  0
  -23.7140  -30.8083   23.5491 C   0  0  0  0  0  0  0  0  0  0  0  0
  -21.5268  -28.2911   24.2747 C   0  0  0  0  0  0  0  0  0  0  0  0
  -30.1724  -15.3090   18.5783 C   0  0  0  0  0  0  0  0  0  0  0  0
  -27.7034  -36.6655   22.5622 C   0  0  0  0  0  0  0  0  0  0  0  0
  -25.0299  -30.7223   20.1032 C   0  0  0  0  0  0  0  0  0  0  0  0
  -25.1243  -28.9968   22.5028 C   0  0  0  0  0  0  0  0  0  0  0  0
  -27.0423  -35.5990   23.4316 C   0  0  0  0  0  0  0  0  0  0  0  0
  -30.0822  -11.8559   19.8195 C   0  0  0  0  0  0  0  0  0  0  0  0
  -27.8429  -34.3014   23.3859 C   0  0  0  0  0  0  0  0  0  0  0  0
  -28.6095  -11.6659   20.1856 C   0  0  0  0  0  0  0  0  0  0  0  0
  -28.2850  -17.9482   20.3071 C   0  0  0  0  0  0  0  0  0  0  0  0
  -30.2625  -12.8445   18.6698 C   0  0  0  0  0  0  0  0  0  0  0  0
  -28.2004  -16.6259   19.5520 C   0  0  0  0  0  0  0  0  0  0  0  0
  -28.1377  -13.9554   19.2394 C   0  0  0  0  0  0  0  0  0  0  0  0
  -30.2327  -17.7574   18.9567 C   0  0  0  0  0  0  0  0  0  0  0  0
  -27.8998  -33.7382   21.9607 C   0  0  1  0  0  0  0  0  0  0  0  0
  -25.0162  -31.3056   21.5128 C   0  0  1  0  0  0  0  0  0  0  0  0
  -27.9206  -13.0202   20.4371 C   0  0  1  0  0  0  0  0  0  0  0  0
  -29.1962  -18.7757   19.4072 C   0  0  2  0  0  0  0  0  0  0  0  0
  -25.9422  -22.5710   19.5352 C   0  0  0  0  0  0  0  0  0  0  0  0
  -19.4770  -27.7932   25.6339 C   0  0  0  0  0  0  0  0  0  0  0  0
  -25.4226  -30.6790   26.0738 C   0  0  0  0  0  0  0  0  0  0  0  0
  -23.6215  -29.3037   27.1383 C   0  0  0  0  0  0  0  0  0  0  0  0
  -23.1379  -31.6395   26.4084 C   0  0  0  0  0  0  0  0  0  0  0  0
  -19.9421  -27.6423   21.8608 C   0  0  0  0  0  0  0  0  0  0  0  0
  -27.2772  -24.7528   21.0004 C   0  0  0  0  0  0  0  0  0  1  0  0
  -23.4314  -29.8320   24.6653 C   0  0  1  0  0  0  0  0  0  0  0  0
  -20.0095  -28.2464   24.2834 C   0  0  2  0  0  0  0  0  0  0  0  0
  -23.9154  -30.3552   26.0471 C   0  0  0  0  0  0  0  0  0  0  0  0
  -29.8589  -22.0217   21.0122 N   0  0  0  0  0  0  0  0  0  0  0  0
  -25.7668  -11.8409   20.2124 N   0  0  0  0  0  0  0  0  0  0  0  0
  -27.9137  -21.2179   19.8387 N   0  0  0  0  0  0  0  0  0  0  0  0
  -26.4488  -12.8576   20.7667 N   0  0  0  0  0  0  0  0  0  0  0  0
  -24.5428  -30.3493   22.5156 N   0  0  0  0  0  0  0  0  0  0  0  0
  -29.5673  -14.1020   18.9453 N   0  0  0  0  0  0  0  0  0  0  0  0
  -29.5070  -16.4905   18.9029 N   0  0  0  0  0  0  0  0  0  0  0  0
  -26.2240  -14.7090   22.2271 N   0  0  0  0  0  0  0  0  0  0  0  0
  -22.0756  -12.9252   22.1598 N   0  0  0  0  0  0  0  0  0  0  0  0
  -29.7949  -19.8774   20.1134 N   0  0  0  0  0  0  0  0  0  0  0  0
  -26.6525  -33.0854   21.6251 N   0  0  0  0  0  0  0  0  0  0  0  0
  -22.0028  -29.5429   24.6028 N   0  0  0  0  0  0  0  0  0  0  0  0
  -19.5130  -27.3031   23.2420 N   0  3  0  0  0  0  0  0  0  0  0  0
  -23.3598  -14.6203   23.0177 O   0  0  0  0  0  0  0  0  0  0  0  0
  -27.1080  -31.0044   22.5657 O   0  0  0  0  0  0  0  0  0  0  0  0
  -23.2119  -31.9344   23.5891 O   0  0  0  0  0  0  0  0  0  0  0  0
  -22.2205  -27.3124   24.0073 O   0  0  0  0  0  0  0  0  0  0  0  0
  -31.2808  -15.3324   18.0269 O   0  0  0  0  0  0  0  0  0  0  0  0
  -20.4680   -8.4340   19.2823 O   0  0  0  0  0  0  0  0  0  0  0  0
  -27.2694  -25.5186   19.7994 O   0  0  0  0  0  0  0  0  0  1  0  0
  -21.6506   -3.0484   19.3146 F   0  0  0  0  0  0  0  0  0  0  0  0
  -19.0776   -6.6863   20.9117 F   0  0  0  0  0  0  0  0  0  0  0  0
  1  2  1  0  0  0  0
  1  5  2  0  0  0  0
  2  6  2  0  0  0  0
  3  8  2  0  0  0  0
  3 16  1  0  0  0  0
  4  9  1  0  0  0  0
  4 16  2  0  0  0  0
  5 18  1  0  0  0  0
  6 20  1  0  0  0  0
  7 10  2  0  0  0  0
  7 19  1  0  0  0  0
  8 23  1  0  0  0  0
  9 23  2  0  0  0  0
 10 24  1  0  0  0  0
 11 12  2  0  0  0  0
 11 25  1  0  0  0  0
 12 26  1  0  0  0  0
 13 21  1  0  0  0  0
 13 24  2  0  0  0  0
 14 26  2  0  0  0  0
 14 27  1  0  0  0  0
 15 22  1  0  0  0  0
 15 63  2  0  0  0  0
 16 28  1  0  0  0  0
 17 28  1  0  0  0  0
 17 30  2  0  0  0  0
 17 32  1  0  0  0  0
 18 20  2  0  0  0  0
 18 37  1  0  0  0  0
 19 21  2  0  0  0  0
 19 38  1  0  0  0  0
 20 49  1  0  0  0  0
 21 39  1  0  0  0  0
 22 29  2  0  0  0  0
 22 59  1  0  0  0  0
 23 81  1  0  0  0  0
 24 82  1  0  0  0  0
 25 27  2  0  0  0  0
 25 81  1  0  0  0  0
 26 83  1  0  0  0  0
 27 84  1  0  0  0  0
 28 64  2  0  0  0  0
 29 53  1  0  0  0  0
 29 65  1  0  0  0  0
 30 66  1  0  0  0  0
 30 70  1  0  0  0  0
 31 63  1  0  0  0  0
 31 65  2  0  0  0  0
 31 72  1  0  0  0  0
 32 71  1  0  0  0  0
 32 76  2  0  0  0  0
 33 50  1  0  0  0  0
 33 73  1  0  0  0  0
 33 77  2  0  0  0  0
 34 60  1  0  0  0  0
 34 67  1  0  0  0  0
 34 78  2  0  0  0  0
 35 61  1  0  0  0  0
 35 74  1  0  0  0  0
 35 79  2  0  0  0  0
 36 68  1  0  0  0  0
 36 69  1  0  0  0  0
 36 80  2  0  0  0  0
 37 40  1  0  0  0  0
 38 50  1  0  0  0  0
 39 67  1  0  0  0  0
 40 42  1  0  0  0  0
 41 43  1  0  0  0  0
 41 45  1  0  0  0  0
 42 49  1  0  0  0  0
 43 51  1  0  0  0  0
 44 46  1  0  0  0  0
 44 52  1  0  0  0  0
 45 68  1  0  0  0  0
 46 69  1  0  0  0  0
 47 51  1  0  0  0  0
 47 68  1  0  0  0  0
 48 52  1  0  0  0  0
 48 69  1  0  0  0  0
 49 73  1  0  0  0  0
 50 67  1  0  0  0  0
 51 66  1  0  0  0  0
 52 72  1  0  0  0  0
 54 61  1  0  0  0  0
 55 62  1  0  0  0  0
 56 62  1  0  0  0  0
 57 62  1  0  0  0  0
 58 75  1  0  0  0  0
 59 82  1  0  0  0  0
 60 62  1  0  0  0  0
 60 74  1  0  0  0  0
 61 75  1  0  0  0  0
 64 66  1  0  0  0  0
M  CHG  1  75   1
M  ISO  4  36 100  59 101  69 100  82 101
M  END
> <Batch ID>
0188

> <Smiles>
CNC(C)C(=O)NC(C(=O)N1Cc2cc([101O:1][101CH2:1]c3cnc(NC4CC[100N:0]([100C:0](=O)N5CCCC(n6nc(-c7ccc(Oc8ccc(F)cc8F)cc7)c(C(N)=O)c6N)C5)C4)nc3C)ccc2CC1C(=O)NC1CCCc2ccccc21)C(C)(C)C

> <Shape>
0.287

> <Color>
0.126

> <Negative vol penalty>
0.000

$$$$

  -OEChem-04052323193D

 85 94  0     1  0  0  0  0  0999 V2000
  -26.3432  -34.9024   24.9834 C   0  0  0  0  0  0  0  0  0  0  0  0
  -26.8312  -33.6911   24.5039 C   0  0  0  0  0  0  0  0  0  0  0  0
  -25.8675  -11.4642   19.9427 C   0  0  0  0  0  0  0  0  0  0  0  0
  -27.0388  -11.5634   22.0535 C   0  0  0  0  0  0  0  0  0  0  0  0
  -25.0070  -35.0120   25.3661 C   0  0  0  0  0  0  0  0  0  0  0  0
  -25.9834  -32.5881   24.4080 C   0  0  0  0  0  0  0  0  0  0  0  0
  -26.5042  -30.1132   20.0207 C   0  0  0  0  0  0  0  0  0  0  0  0
  -24.6888  -11.1359   20.6122 C   0  0  0  0  0  0  0  0  0  0  0  0
  -25.8600  -11.2351   22.7230 C   0  0  0  0  0  0  0  0  0  0  0  0
  -27.6059  -29.2684   19.8931 C   0  0  0  0  0  0  0  0  0  0  0  0
  -23.3058   -8.3917   22.0198 C   0  0  0  0  0  0  0  0  0  0  0  0
  -22.5326   -7.3544   21.4985 C   0  0  0  0  0  0  0  0  0  0  0  0
  -26.1975  -27.3694   20.3719 C   0  0  0  0  0  0  0  0  0  0  0  0
  -20.6793   -8.8783   21.2153 C   0  0  0  0  0  0  0  0  0  0  0  0
  -27.0426  -11.6779   20.6633 C   0  0  0  0  0  0  0  0  0  0  0  0
  -28.9264  -11.2496   18.9974 C   0  0  0  0  0  0  0  0  0  0  0  0
  -24.1400  -33.9124   25.2657 C   0  0  0  0  0  0  0  0  0  0  0  0
  -25.2409  -29.5927   20.3361 C   0  0  0  0  0  0  0  0  0  0  0  0
  -24.6347  -32.6826   24.7910 C   0  0  0  0  0  0  0  0  0  0  0  0
  -25.0809  -28.2094   20.5004 C   0  0  0  0  0  0  0  0  0  0  0  0
  -24.6850  -11.0213   22.0024 C   0  0  0  0  0  0  0  0  0  0  0  0
  -27.4533  -27.8966   20.0715 C   0  0  0  0  0  0  0  0  0  0  0  0
  -22.7657   -9.6723   22.1390 C   0  0  0  0  0  0  0  0  0  0  0  0
  -21.2194   -7.5977   21.0961 C   0  0  0  0  0  0  0  0  0  0  0  0
  -21.4525   -9.9155   21.7367 C   0  0  0  0  0  0  0  0  0  0  0  0
  -28.2607  -12.0166   19.9722 C   0  0  0  0  0  0  0  0  0  0  0  0
  -30.0228  -12.0037   18.6569 C   0  0  0  0  0  0  0  0  0  0  0  0
  -28.5843   -9.9700   18.4485 C   0  0  0  0  0  0  0  0  0  0  0  0
  -23.2042  -29.9553   22.7494 C   0  0  0  0  0  0  0  0  0  0  0  0
  -21.2764  -28.1301   20.8853 C   0  0  0  0  0  0  0  0  0  0  0  0
  -21.0031  -25.8217   18.3867 C   0  0  0  0  0  0  0  0  0  0  0  0
  -31.0155  -17.8124   18.8572 C   0  0  0  0  0  0  0  0  0  0  0  0
  -22.7153  -34.0661   25.7360 C   0  0  0  0  0  0  0  0  0  0  0  0
  -24.0573  -30.5146   20.4439 C   0  0  0  0  0  0  0  0  0  0  0  0
  -23.7419  -27.5984   20.8200 C   0  0  0  0  0  0  0  0  0  0  0  0
  -21.7903  -32.9528   25.2509 C   0  0  0  0  0  0  0  0  0  0  0  0
  -33.0286  -15.2653   20.4540 C   0  0  0  0  0  0  0  0  0  0  0  0
  -22.4423  -31.5893   25.4571 C   0  0  0  0  0  0  0  0  0  0  0  0
  -32.0833  -14.0634   20.4133 C   0  0  0  0  0  0  0  0  0  0  0  0
  -32.2667  -16.5604   20.7210 C   0  0  0  0  0  0  0  0  0  0  0  0
  -30.2155  -15.6338   19.7200 C   0  0  0  0  0  0  0  0  0  0  0  0
  -32.8939  -21.1278   18.4753 C   0  0  0  0  0  0  0  0  0  0  0  0
  -30.8186  -21.0047   18.4156 C   0  0  0  0  0  0  0  0  0  0  0  0
  -30.3782  -23.8532   19.1054 C   0  0  0  0  0  0  0  0  0  0  0  0
  -23.7400  -31.4704   24.6489 C   0  0  1  0  0  0  0  0  0  0  0  0
  -22.9187  -29.9304   21.2744 C   0  0  1  0  0  0  0  0  0  0  0  0
  -30.9222  -14.2975   19.4290 C   0  0  2  0  0  0  0  0  0  0  0  0
  -31.7135  -23.1273   19.1601 C   0  0  2  0  0  0  0  0  0  0  0  0
  -31.9309  -19.9911   18.0714 C   0  0  0  0  0  0  0  0  0  0  0  0
  -32.7182  -24.2508   18.9331 C   0  0  1  0  0  0  0  0  0  0  0  0
  -32.1764  -25.3627   19.8293 C   0  0  1  0  0  0  0  0  0  0  0  0
  -34.0741  -26.9569   19.5041 C   0  0  0  0  0  0  0  0  0  0  0  0
  -19.2993  -24.4943   17.1088 C   0  0  0  0  0  0  0  0  0  0  0  0
  -20.9387  -26.2657   23.2769 C   0  0  0  0  0  0  0  0  0  0  0  0
  -20.0509  -24.5280   21.7084 C   0  0  0  0  0  0  0  0  0  0  0  0
  -18.8418  -26.6926   21.9827 C   0  0  0  0  0  0  0  0  0  0  0  0
  -21.7963  -27.0583   15.8176 C   0  0  0  0  0  0  0  0  0  0  0  0
  -32.5957  -26.7561   19.3908 C   0  0  0  0  0  0  0  0  0  0  0  0
  -29.9469  -25.4489   21.0158 C   0  0  0  0  0  0  0  0  0  0  0  0
  -28.5207  -25.8758   20.7298 C   0  0  0  0  0  0  0  0  0  1  0  0
  -21.0348  -26.6486   20.7254 C   0  0  1  0  0  0  0  0  0  0  0  0
  -20.1211  -25.7733   17.1521 C   0  0  2  0  0  0  0  0  0  0  0  0
  -20.2423  -26.0451   21.9193 C   0  0  0  0  0  0  0  0  0  0  0  0
  -28.8823  -13.1694   20.2343 N   0  0  0  0  0  0  0  0  0  0  0  0
  -29.9501  -13.1323   19.4192 N   0  0  0  0  0  0  0  0  0  0  0  0
  -22.6162  -28.5419   20.9214 N   0  0  0  0  0  0  0  0  0  0  0  0
  -31.1875  -16.7326   19.7378 N   0  0  0  0  0  0  0  0  0  0  0  0
  -31.8045  -22.0823   18.1467 N   0  0  0  0  0  0  0  0  0  0  0  0
  -31.0322  -11.8047   17.7830 N   0  0  0  0  0  0  0  0  0  0  0  0
  -27.4239   -9.3337   18.9101 N   0  0  0  0  0  0  0  0  0  0  0  0
  -23.4458  -31.2186   23.2545 N   0  0  0  0  0  0  0  0  0  0  0  0
  -20.3855  -26.4783   19.4301 N   0  0  0  0  0  0  0  0  0  0  0  0
  -31.9758  -18.8161   18.9264 N   0  0  0  0  0  0  0  0  0  0  0  0
  -30.6561  -25.2179   19.7320 N   0  3  2  0  0  0  0  0  0  0  0  0
  -20.9537  -25.8389   15.9178 N   0  3  0  0  0  0  0  0  0  0  0  0
  -29.2955   -9.4001   17.5866 O   0  0  0  0  0  0  0  0  0  0  0  0
  -23.2038  -28.9062   23.3826 O   0  0  0  0  0  0  0  0  0  0  0  0
  -20.3120  -28.8947   20.9677 O   0  0  0  0  0  0  0  0  0  0  0  0
  -22.1259  -25.3233   18.4231 O   0  0  0  0  0  0  0  0  0  0  0  0
  -30.0762  -17.8816   18.0568 O   0  0  0  0  0  0  0  0  0  0  0  0
  -34.0097  -23.8464   19.3557 O   0  0  0  0  0  0  0  0  0  0  0  0
  -23.5349  -10.7012   22.6561 O   0  0  0  0  0  0  0  0  0  0  0  0
  -28.5271  -27.0698   19.9482 O   0  0  0  0  0  0  0  0  0  1  0  0
  -20.4775   -6.6019   20.5940 F   0  0  0  0  0  0  0  0  0  0  0  0
  -20.9285  -11.1440   21.8476 F   0  0  0  0  0  0  0  0  0  0  0  0
  1  2  1  0  0  0  0
  1  5  2  0  0  0  0
  2  6  2  0  0  0  0
  3  8  2  0  0  0  0
  3 15  1  0  0  0  0
  4  9  1  0  0  0  0
  4 15  2  0  0  0  0
  5 17  1  0  0  0  0
  6 19  1  0  0  0  0
  7 10  2  0  0  0  0
  7 18  1  0  0  0  0
  8 21  1  0  0  0  0
  9 21  2  0  0  0  0
 10 22  1  0  0  0  0
 11 12  2  0  0  0  0
 11 23  1  0  0  0  0
 12 24  1  0  0  0  0
 13 20  1  0  0  0  0
 13 22  2  0  0  0  0
 14 24  2  0  0  0  0
 14 25  1  0  0  0  0
 15 26  1  0  0  0  0
 16 26  1  0  0  0  0
 16 27  2  0  0  0  0
 16 28  1  0  0  0  0
 17 19  2  0  0  0  0
 17 33  1  0  0  0  0
 18 20  2  0  0  0  0
 18 34  1  0  0  0  0
 19 45  1  0  0  0  0
 20 35  1  0  0  0  0
 21 82  1  0  0  0  0
 22 83  1  0  0  0  0
 23 25  2  0  0  0  0
 23 82  1  0  0  0  0
 24 84  1  0  0  0  0
 25 85  1  0  0  0  0
 26 64  2  0  0  0  0
 27 65  1  0  0  0  0
 27 69  1  0  0  0  0
 28 70  1  0  0  0  0
 28 76  2  0  0  0  0
 29 46  1  0  0  0  0
 29 71  1  0  0  0  0
 29 77  2  0  0  0  0
 30 61  1  0  0  0  0
 30 66  1  0  0  0  0
 30 78  2  0  0  0  0
 31 62  1  0  0  0  0
 31 72  1  0  0  0  0
 31 79  2  0  0  0  0
 32 67  1  0  0  0  0
 32 73  1  0  0  0  0
 32 80  2  0  0  0  0
 33 36  1  0  0  0  0
 34 46  1  0  0  0  0
 35 66  1  0  0  0  0
 36 38  1  0  0  0  0
 37 39  1  0  0  0  0
 37 40  1  0  0  0  0
 38 45  1  0  0  0  0
 39 47  1  0  0  0  0
 40 67  1  0  0  0  0
 41 47  1  0  0  0  0
 41 67  1  0  0  0  0
 42 49  1  0  0  0  0
 42 68  1  0  0  0  0
 43 49  1  0  0  0  0
 43 68  1  0  0  0  0
 44 48  1  0  0  0  0
 44 74  1  0  0  0  0
 45 71  1  0  0  0  0
 46 66  1  0  0  0  0
 47 65  1  0  0  0  0
 48 50  1  0  0  0  0
 48 68  1  0  0  0  0
 49 73  1  0  0  0  0
 50 51  1  0  0  0  0
 50 81  1  0  0  0  0
 51 58  1  0  0  0  0
 51 74  1  0  0  0  0
 52 58  1  0  0  0  0
 53 62  1  0  0  0  0
 54 63  1  0  0  0  0
 55 63  1  0  0  0  0
 56 63  1  0  0  0  0
 57 75  1  0  0  0  0
 59 60  1  0  0  0  0
 59 74  1  0  0  0  0
 60 83  1  0  0  0  0
 61 63  1  0  0  0  0
 61 72  1  0  0  0  0
 62 75  1  0  0  0  0
 64 65  1  0  0  0  0
M  CHG  2  74   1  75   1
M  ISO  4  32 100  60 101  73 100  83 101
M  END
> <Batch ID>
0188

> <Smiles>
CCC1C(O)C(N2CC([100NH:0][100C:0](=O)N3CCCC(n4nc(-c5ccc(Oc6ccc(F)cc6F)cc5)c(C(N)=O)c4N)C3)C2)CN1C[101CH2:1][101O:1]c1ccc2c(c1)CN(C(=O)C(NC(=O)C(C)NC)C(C)(C)C)C(C(=O)NC1CCCc3ccccc31)C2

> <Shape>
0.283

> <Color>
0.065

> <Negative vol penalty>
0.000

$$$$

  -OEChem-04052323193D

 83 92  0     1  0  0  0  0  0999 V2000
  -29.4482  -33.6612   25.7309 C   0  0  0  0  0  0  0  0  0  0  0  0
  -30.1331  -32.5297   25.2996 C   0  0  0  0  0  0  0  0  0  0  0  0
  -23.1198   -9.8504   21.4613 C   0  0  0  0  0  0  0  0  0  0  0  0
  -23.8526  -10.7605   23.5760 C   0  0  0  0  0  0  0  0  0  0  0  0
  -28.0602  -33.6281   25.8585 C   0  0  0  0  0  0  0  0  0  0  0  0
  -29.4305  -31.3640   24.9967 C   0  0  0  0  0  0  0  0  0  0  0  0
  -29.6175  -25.7178   20.5920 C   0  0  0  0  0  0  0  0  0  0  0  0
  -22.4059   -8.8595   22.1351 C   0  0  0  0  0  0  0  0  0  0  0  0
  -23.1387   -9.7695   24.2498 C   0  0  0  0  0  0  0  0  0  0  0  0
  -29.5751  -24.3246   20.6244 C   0  0  0  0  0  0  0  0  0  0  0  0
  -23.0683   -5.9261   23.6781 C   0  0  0  0  0  0  0  0  0  0  0  0
  -23.1751   -4.6176   23.2069 C   0  0  0  0  0  0  0  0  0  0  0  0
  -27.1711  -24.4081   20.8061 C   0  0  0  0  0  0  0  0  0  0  0  0
  -20.7910   -4.5629   22.8189 C   0  0  0  0  0  0  0  0  0  0  0  0
  -23.8432  -10.8009   22.1818 C   0  0  0  0  0  0  0  0  0  0  0  0
  -24.1149  -13.0957   21.1011 C   0  0  0  0  0  0  0  0  0  0  0  0
  -27.3393  -32.4643   25.5478 C   0  0  0  0  0  0  0  0  0  0  0  0
  -28.4359  -26.4680   20.6775 C   0  0  0  0  0  0  0  0  0  0  0  0
  -28.0317  -31.3148   25.1216 C   0  0  0  0  0  0  0  0  0  0  0  0
  -27.2010  -25.8106   20.7720 C   0  0  0  0  0  0  0  0  0  0  0  0
  -22.4154   -8.8190   23.5294 C   0  0  0  0  0  0  0  0  0  0  0  0
  -28.3520  -23.6696   20.7343 C   0  0  0  0  0  0  0  0  0  0  0  0
  -21.8229   -6.5530   23.7198 C   0  0  0  0  0  0  0  0  0  0  0  0
  -22.0364   -3.9360   22.7773 C   0  0  0  0  0  0  0  0  0  0  0  0
  -20.6843   -5.8714   23.2902 C   0  0  0  0  0  0  0  0  0  0  0  0
  -24.5812  -11.8245   21.4863 C   0  0  0  0  0  0  0  0  0  0  0  0
  -25.1896  -13.6812   20.4776 C   0  0  0  0  0  0  0  0  0  0  0  0
  -22.8256  -13.6938   21.2900 C   0  0  0  0  0  0  0  0  0  0  0  0
  -27.2775  -28.6025   22.7284 C   0  0  0  0  0  0  0  0  0  0  0  0
  -24.9197  -28.8698   20.5167 C   0  0  0  0  0  0  0  0  0  0  0  0
  -23.1896  -27.4501   17.9403 C   0  0  0  0  0  0  0  0  0  0  0  0
  -30.6398  -14.8613   20.2592 C   0  0  0  0  0  0  0  0  0  0  0  0
  -25.8442  -32.4618   25.7465 C   0  0  0  0  0  0  0  0  0  0  0  0
  -28.4965  -27.9696   20.6143 C   0  0  0  0  0  0  0  0  0  0  0  0
  -25.9022  -26.5695   20.8464 C   0  0  0  0  0  0  0  0  0  0  0  0
  -25.1387  -31.3030   25.0467 C   0  0  0  0  0  0  0  0  0  0  0  0
  -29.5977  -11.7097   18.9714 C   0  0  0  0  0  0  0  0  0  0  0  0
  -25.8728  -29.9925   25.3124 C   0  0  0  0  0  0  0  0  0  0  0  0
  -28.0103  -16.5260   15.7402 C   0  0  0  0  0  0  0  0  0  0  0  0
  -29.4542  -16.3964   16.1380 C   0  0  0  0  0  0  0  0  0  0  0  0
  -28.1642  -11.5610   19.4842 C   0  0  0  0  0  0  0  0  0  0  0  0
  -26.9070  -19.3457   20.2015 C   0  0  0  0  0  0  0  0  0  0  0  0
  -26.4718  -20.8042   20.3817 C   0  0  0  0  0  0  0  0  0  0  0  0
  -28.4722  -20.6802   18.9912 C   0  0  0  0  0  0  0  0  0  0  0  0
  -30.4943  -12.4025   19.9953 C   0  0  0  0  0  0  0  0  0  0  0  0
  -28.5567  -13.5515   20.9951 C   0  0  0  0  0  0  0  0  0  0  0  0
  -27.3025  -30.0391   24.7597 C   0  0  1  0  0  0  0  0  0  0  0  0
  -27.2723  -28.6434   21.2264 C   0  0  1  0  0  0  0  0  0  0  0  0
  -28.4296  -16.8180   17.1544 C   0  0  0  0  0  0  0  0  0  0  0  0
  -27.6016  -12.9086   19.9750 C   0  0  2  0  0  0  0  0  0  0  0  0
  -28.3838  -19.4357   19.8593 C   0  0  2  0  0  0  0  0  0  0  0  0
  -27.5688  -21.6603   19.7365 C   0  0  2  0  0  0  0  0  0  1  0  0
  -21.2934  -27.8965   16.3584 C   0  0  0  0  0  0  0  0  0  0  0  0
  -22.9240  -28.3384   22.7628 C   0  0  0  0  0  0  0  0  0  0  0  0
  -21.1949  -27.8551   21.0178 C   0  0  0  0  0  0  0  0  0  0  0  0
  -22.2306  -30.1206   21.1512 C   0  0  0  0  0  0  0  0  0  0  0  0
  -24.9565  -27.2287   15.5765 C   0  0  0  0  0  0  0  0  0  0  0  0
  -28.4143  -18.2381   17.6763 C   0  0  0  0  0  0  0  0  0  0  0  0
  -30.6306  -17.3228   20.5753 C   0  0  0  0  0  0  0  0  0  0  0  0
  -30.3275  -18.0018   19.2526 C   0  0  0  0  0  0  0  0  0  0  0  0
  -23.5975  -28.1825   20.2752 C   0  0  1  0  0  0  0  0  0  0  0  0
  -22.7959  -27.9855   16.5754 C   0  0  2  0  0  0  0  0  0  0  0  0
  -22.5112  -28.6096   21.3023 C   0  0  0  0  0  0  0  0  0  0  0  0
  -25.8531  -11.6141   21.1367 N   0  0  0  0  0  0  0  0  0  0  0  0
  -26.1950  -12.7609   20.5251 N   0  0  0  0  0  0  0  0  0  0  0  0
  -26.0142  -28.0363   20.7872 N   0  0  0  0  0  0  0  0  0  0  0  0
  -29.9047  -13.6750   20.4184 N   0  0  0  0  0  0  0  0  0  0  0  0
  -25.3631  -14.8884   19.8988 N   0  0  0  0  0  0  0  0  0  0  0  0
  -21.8360  -12.9533   21.9508 N   0  0  0  0  0  0  0  0  0  0  0  0
  -27.2962  -29.8487   23.3251 N   0  0  0  0  0  0  0  0  0  0  0  0
  -23.2450  -28.4525   18.8855 N   0  0  0  0  0  0  0  0  0  0  0  0
  -30.0050  -16.0235   20.6800 N   0  0  0  0  0  0  0  0  0  0  0  0
  -23.4731  -27.2082   15.4992 N   0  3  0  0  0  0  0  0  0  0  0  0
  -28.8383  -18.2397   19.1289 N   0  3  1  0  0  0  0  0  0  0  0  0
  -22.5541  -14.8443   20.8703 O   0  0  0  0  0  0  0  0  0  0  0  0
  -27.2640  -27.5204   23.3034 O   0  0  0  0  0  0  0  0  0  0  0  0
  -24.9807  -30.1006   20.4603 O   0  0  0  0  0  0  0  0  0  0  0  0
  -23.4209  -26.2611   18.1481 O   0  0  0  0  0  0  0  0  0  0  0  0
  -31.7755  -14.8838   19.7728 O   0  0  0  0  0  0  0  0  0  0  0  0
  -21.7187   -7.8523   24.1872 O   0  0  0  0  0  0  0  0  0  0  0  0
  -28.3078  -22.3099   20.7668 O   0  0  0  0  0  0  0  0  0  1  0  0
  -22.1393   -2.6800   22.3233 F   0  0  0  0  0  0  0  0  0  0  0  0
  -19.4853   -6.4688   23.3268 F   0  0  0  0  0  0  0  0  0  0  0  0
  1  2  1  0  0  0  0
  1  5  2  0  0  0  0
  2  6  2  0  0  0  0
  3  8  2  0  0  0  0
  3 15  1  0  0  0  0
  4  9  1  0  0  0  0
  4 15  2  0  0  0  0
  5 17  1  0  0  0  0
  6 19  1  0  0  0  0
  7 10  2  0  0  0  0
  7 18  1  0  0  0  0
  8 21  1  0  0  0  0
  9 21  2  0  0  0  0
 10 22  1  0  0  0  0
 11 12  2  0  0  0  0
 11 23  1  0  0  0  0
 12 24  1  0  0  0  0
 13 20  1  0  0  0  0
 13 22  2  0  0  0  0
 14 24  2  0  0  0  0
 14 25  1  0  0  0  0
 15 26  1  0  0  0  0
 16 26  1  0  0  0  0
 16 27  2  0  0  0  0
 16 28  1  0  0  0  0
 17 19  2  0  0  0  0
 17 33  1  0  0  0  0
 18 20  2  0  0  0  0
 18 34  1  0  0  0  0
 19 47  1  0  0  0  0
 20 35  1  0  0  0  0
 21 80  1  0  0  0  0
 22 81  1  0  0  0  0
 23 25  2  0  0  0  0
 23 80  1  0  0  0  0
 24 82  1  0  0  0  0
 25 83  1  0  0  0  0
 26 64  2  0  0  0  0
 27 65  1  0  0  0  0
 27 68  1  0  0  0  0
 28 69  1  0  0  0  0
 28 75  2  0  0  0  0
 29 48  1  0  0  0  0
 29 70  1  0  0  0  0
 29 76  2  0  0  0  0
 30 61  1  0  0  0  0
 30 66  1  0  0  0  0
 30 77  2  0  0  0  0
 31 62  1  0  0  0  0
 31 71  1  0  0  0  0
 31 78  2  0  0  0  0
 32 67  1  0  0  0  0
 32 72  1  0  0  0  0
 32 79  2  0  0  0  0
 33 36  1  0  0  0  0
 34 48  1  0  0  0  0
 35 66  1  0  0  0  0
 36 38  1  0  0  0  0
 37 41  1  0  0  0  0
 37 45  1  0  0  0  0
 38 47  1  0  0  0  0
 39 40  1  0  0  0  0
 39 49  1  0  0  0  0
 40 49  1  0  0  0  0
 41 50  1  0  0  0  0
 42 43  1  0  0  0  0
 42 51  1  0  0  0  0
 43 52  1  0  0  0  0
 44 51  1  0  0  0  0
 44 52  1  0  0  0  0
 45 67  1  0  0  0  0
 46 50  1  0  0  0  0
 46 67  1  0  0  0  0
 47 70  1  0  0  0  0
 48 66  1  0  0  0  0
 49 58  1  0  0  0  0
 50 65  1  0  0  0  0
 51 74  1  0  0  0  0
 52 81  1  0  0  0  0
 53 62  1  0  0  0  0
 54 63  1  0  0  0  0
 55 63  1  0  0  0  0
 56 63  1  0  0  0  0
 57 73  1  0  0  0  0
 58 74  1  0  0  0  0
 59 60  1  0  0  0  0
 59 72  1  0  0  0  0
 60 74  1  0  0  0  0
 61 63  1  0  0  0  0
 61 71  1  0  0  0  0
 62 73  1  0  0  0  0
 64 65  1  0  0  0  0
M  CHG  2  73   1  74   1
M  ISO  4  32 100  52 101  72 100  81 101
M  END
> <Batch ID>
0188

> <Smiles>
CNC(C)C(=O)NC(C(=O)N1Cc2cc([101O:1][101CH:1]3CCC(N(CC[100NH:0][100C:0](=O)N4CCCC(n5nc(-c6ccc(Oc7ccc(F)cc7F)cc6)c(C(N)=O)c5N)C4)CC4CC4)C3)ccc2CC1C(=O)NC1CCCc2ccccc21)C(C)(C)C

> <Shape>
0.355

> <Color>
0.154

> <Negative vol penalty>
0.000

$$$$

  -OEChem-04052323193D

 84 93  0     1  0  0  0  0  0999 V2000
  -17.5455  -30.2984   23.0958 C   0  0  0  0  0  0  0  0  0  0  0  0
  -18.9000  -30.5767   22.9430 C   0  0  0  0  0  0  0  0  0  0  0  0
  -24.5489  -14.6022   20.4583 C   0  0  0  0  0  0  0  0  0  0  0  0
  -26.2629  -12.9023   20.5562 C   0  0  0  0  0  0  0  0  0  0  0  0
  -17.1181  -28.9793   23.2409 C   0  0  0  0  0  0  0  0  0  0  0  0
  -19.8280  -29.5360   22.9364 C   0  0  0  0  0  0  0  0  0  0  0  0
  -24.9982  -29.2345   19.6678 C   0  0  0  0  0  0  0  0  0  0  0  0
  -23.5958  -13.6247   20.1720 C   0  0  0  0  0  0  0  0  0  0  0  0
  -25.3099  -11.9248   20.2699 C   0  0  0  0  0  0  0  0  0  0  0  0
  -26.3287  -29.4983   19.9905 C   0  0  0  0  0  0  0  0  0  0  0  0
  -23.2655   -8.9387   19.9211 C   0  0  0  0  0  0  0  0  0  0  0  0
  -23.2911   -7.7661   20.6760 C   0  0  0  0  0  0  0  0  0  0  0  0
  -26.6819  -27.1522   20.4262 C   0  0  0  0  0  0  0  0  0  0  0  0
  -22.9305   -9.0537   22.6883 C   0  0  0  0  0  0  0  0  0  0  0  0
  -25.8824  -14.2409   20.6503 C   0  0  0  0  0  0  0  0  0  0  0  0
  -27.2549  -15.7138   22.2170 C   0  0  0  0  0  0  0  0  0  0  0  0
  -18.0404  -27.9211   23.2264 C   0  0  0  0  0  0  0  0  0  0  0  0
  -24.4959  -27.9269   19.7325 C   0  0  0  0  0  0  0  0  0  0  0  0
  -19.4126  -28.2015   23.0828 C   0  0  0  0  0  0  0  0  0  0  0  0
  -25.3454  -26.8740   20.1013 C   0  0  0  0  0  0  0  0  0  0  0  0
  -23.9763  -12.2861   20.0778 C   0  0  0  0  0  0  0  0  0  0  0  0
  -27.1700  -28.4575   20.3725 C   0  0  0  0  0  0  0  0  0  0  0  0
  -23.0725  -10.1688   20.5497 C   0  0  0  0  0  0  0  0  0  0  0  0
  -23.1236   -7.8236   22.0596 C   0  0  0  0  0  0  0  0  0  0  0  0
  -22.9050  -10.2264   21.9333 C   0  0  0  0  0  0  0  0  0  0  0  0
  -26.8675  -15.2502   20.9455 C   0  0  0  0  0  0  0  0  0  0  0  0
  -28.2128  -16.6637   21.9590 C   0  0  0  0  0  0  0  0  0  0  0  0
  -26.7904  -15.3209   23.5153 C   0  0  0  0  0  0  0  0  0  0  0  0
  -30.8972  -28.3504   17.6707 C   0  0  0  0  0  0  0  0  0  0  0  0
  -22.2259  -26.4769   21.4202 C   0  0  0  0  0  0  0  0  0  0  0  0
  -22.9333  -23.9702   19.4867 C   0  0  0  0  0  0  0  0  0  0  0  0
  -25.2089  -22.4161   17.4734 C   0  0  0  0  0  0  0  0  0  0  0  0
  -30.1358  -20.9115   19.2966 C   0  0  0  0  0  0  0  0  0  0  0  0
  -17.5355  -26.5152   23.4341 C   0  0  0  0  0  0  0  0  0  0  0  0
  -23.0654  -27.6551   19.3555 C   0  0  0  0  0  0  0  0  0  0  0  0
  -24.8604  -25.4496   20.1670 C   0  0  0  0  0  0  0  0  0  0  0  0
  -18.5460  -25.4407   23.0407 C   0  0  0  0  0  0  0  0  0  0  0  0
  -30.6401  -17.8315   17.6854 C   0  0  0  0  0  0  0  0  0  0  0  0
  -19.9235  -25.7704   23.6069 C   0  0  0  0  0  0  0  0  0  0  0  0
  -29.7281  -16.9116   18.4966 C   0  0  0  0  0  0  0  0  0  0  0  0
  -30.1869  -26.5535   15.9820 C   0  0  0  0  0  0  0  0  0  0  0  0
  -29.9993  -19.1976   17.4344 C   0  0  0  0  0  0  0  0  0  0  0  0
  -30.3035  -22.1082   17.0685 C   0  0  0  0  0  0  0  0  0  0  0  0
  -31.6545  -22.8446   18.9993 C   0  0  0  0  0  0  0  0  0  0  0  0
  -28.6236  -18.9580   19.4760 C   0  0  0  0  0  0  0  0  0  0  0  0
  -29.6955  -23.5023   16.9494 C   0  0  0  0  0  0  0  0  0  0  0  0
  -31.0523  -24.2383   18.9262 C   0  0  0  0  0  0  0  0  0  0  0  0
  -20.4474  -27.0978   23.0456 C   0  0  1  0  0  0  0  0  0  0  0  0
  -31.1136  -27.0287   17.0712 C   0  0  2  0  0  0  0  0  0  0  0  0
  -22.5260  -26.3590   19.9526 C   0  0  1  0  0  0  0  0  0  0  0  0
  -29.2637  -17.5977   19.7935 C   0  0  1  0  0  0  0  0  0  0  0  0
  -30.1222  -25.9268   17.3441 C   0  0  2  0  0  0  0  0  0  0  0  0
  -25.5127  -20.3634   16.0622 C   0  0  0  0  0  0  0  0  0  0  0  0
  -23.3281  -22.2980   22.0082 C   0  0  0  0  0  0  0  0  0  0  0  0
  -24.5228  -20.5989   20.6104 C   0  0  0  0  0  0  0  0  0  0  0  0
  -22.1269  -21.1240   20.1553 C   0  0  0  0  0  0  0  0  0  0  0  0
  -25.6040  -24.0211   15.0184 C   0  0  0  0  0  0  0  0  0  0  0  0
  -30.5713  -29.5224   19.8393 C   0  0  0  0  0  0  0  0  0  0  0  0
  -29.0939  -29.8136   20.0326 C   0  0  0  0  0  0  0  0  0  1  0  0
  -23.9041  -22.8156   19.5452 C   0  0  1  0  0  0  0  0  0  0  0  0
  -25.0829  -21.8221   16.0821 C   0  0  2  0  0  0  0  0  0  0  0  0
  -23.4794  -21.7361   20.5805 C   0  0  0  0  0  0  0  0  0  0  0  0
  -27.5254  -15.8558   19.9534 N   0  0  0  0  0  0  0  0  0  0  0  0
  -28.3359  -16.7098   20.6014 N   0  0  0  0  0  0  0  0  0  0  0  0
  -23.4521  -25.2357   19.7951 N   0  0  0  0  0  0  0  0  0  0  0  0
  -29.5367  -19.7948   18.6948 N   0  0  0  0  0  0  0  0  0  0  0  0
  -30.7450  -21.8440   18.4438 N   0  0  0  0  0  0  0  0  0  0  0  0
  -28.9534  -17.4557   22.7631 N   0  0  0  0  0  0  0  0  0  0  0  0
  -25.8024  -14.3305   23.6000 N   0  0  0  0  0  0  0  0  0  0  0  0
  -20.9456  -26.9157   21.6991 N   0  0  0  0  0  0  0  0  0  0  0  0
  -30.7852  -28.3320   19.0478 N   0  0  0  0  0  0  0  0  0  0  0  0
  -24.0287  -22.3175   18.1796 N   0  0  0  0  0  0  0  0  0  0  0  0
  -30.6605  -24.5231   17.4971 N   0  3  0  0  0  0  0  0  0  0  0  0
  -25.9333  -22.5759   15.1180 N   0  3  0  0  0  0  0  0  0  0  0  0
  -27.2266  -15.8446   24.5685 O   0  0  0  0  0  0  0  0  0  0  0  0
  -30.8342  -29.3384   16.9485 O   0  0  0  0  0  0  0  0  0  0  0  0
  -23.0913  -26.1896   22.2388 O   0  0  0  0  0  0  0  0  0  0  0  0
  -21.7596  -23.7581   19.1719 O   0  0  0  0  0  0  0  0  0  0  0  0
  -26.2511  -22.9142   17.8931 O   0  0  0  0  0  0  0  0  0  0  0  0
  -30.1266  -21.0666   20.5242 O   0  0  0  0  0  0  0  0  0  0  0  0
  -23.0466  -11.3320   19.7987 O   0  0  0  0  0  0  0  0  0  0  0  0
  -28.4780  -28.7141   20.6909 O   0  0  0  0  0  0  0  0  0  1  0  0
  -23.1467   -6.6973   22.7843 F   0  0  0  0  0  0  0  0  0  0  0  0
  -22.7180  -11.4051   22.5427 F   0  0  0  0  0  0  0  0  0  0  0  0
  1  2  1  0  0  0  0
  1  5  2  0  0  0  0
  2  6  2  0  0  0  0
  3  8  2  0  0  0  0
  3 15  1  0  0  0  0
  4  9  1  0  0  0  0
  4 15  2  0  0  0  0
  5 17  1  0  0  0  0
  6 19  1  0  0  0  0
  7 10  2  0  0  0  0
  7 18  1  0  0  0  0
  8 21  1  0  0  0  0
  9 21  2  0  0  0  0
 10 22  1  0  0  0  0
 11 12  2  0  0  0  0
 11 23  1  0  0  0  0
 12 24  1  0  0  0  0
 13 20  1  0  0  0  0
 13 22  2  0  0  0  0
 14 24  2  0  0  0  0
 14 25  1  0  0  0  0
 15 26  1  0  0  0  0
 16 26  1  0  0  0  0
 16 27  2  0  0  0  0
 16 28  1  0  0  0  0
 17 19  2  0  0  0  0
 17 34  1  0  0  0  0
 18 20  2  0  0  0  0
 18 35  1  0  0  0  0
 19 48  1  0  0  0  0
 20 36  1  0  0  0  0
 21 81  1  0  0  0  0
 22 82  1  0  0  0  0
 23 25  2  0  0  0  0
 23 81  1  0  0  0  0
 24 83  1  0  0  0  0
 25 84  1  0  0  0  0
 26 63  2  0  0  0  0
 27 64  1  0  0  0  0
 27 68  1  0  0  0  0
 28 69  1  0  0  0  0
 28 75  2  0  0  0  0
 29 49  1  0  0  0  0
 29 71  1  0  0  0  0
 29 76  2  0  0  0  0
 30 50  1  0  0  0  0
 30 70  1  0  0  0  0
 30 77  2  0  0  0  0
 31 60  1  0  0  0  0
 31 65  1  0  0  0  0
 31 78  2  0  0  0  0
 32 61  1  0  0  0  0
 32 72  1  0  0  0  0
 32 79  2  0  0  0  0
 33 66  1  0  0  0  0
 33 67  1  0  0  0  0
 33 80  2  0  0  0  0
 34 37  1  0  0  0  0
 35 50  1  0  0  0  0
 36 65  1  0  0  0  0
 37 39  1  0  0  0  0
 38 40  1  0  0  0  0
 38 42  1  0  0  0  0
 39 48  1  0  0  0  0
 40 51  1  0  0  0  0
 41 49  1  0  0  0  0
 41 52  1  0  0  0  0
 42 66  1  0  0  0  0
 43 46  1  0  0  0  0
 43 67  1  0  0  0  0
 44 47  1  0  0  0  0
 44 67  1  0  0  0  0
 45 51  1  0  0  0  0
 45 66  1  0  0  0  0
 46 73  1  0  0  0  0
 47 73  1  0  0  0  0
 48 70  1  0  0  0  0
 49 52  1  0  0  0  0
 50 65  1  0  0  0  0
 51 64  1  0  0  0  0
 52 73  1  0  0  0  0
 53 61  1  0  0  0  0
 54 62  1  0  0  0  0
 55 62  1  0  0  0  0
 56 62  1  0  0  0  0
 57 74  1  0  0  0  0
 58 59  1  0  0  0  0
 58 71  1  0  0  0  0
 59 82  1  0  0  0  0
 60 62  1  0  0  0  0
 60 72  1  0  0  0  0
 61 74  1  0  0  0  0
 63 64  1  0  0  0  0
M  CHG  2  73   1  74   1
M  ISO  4  33 100  59 101  67 100  82 101
M  END
> <Batch ID>
0188

> <Smiles>
CNC(C)C(=O)NC(C(=O)N1Cc2cc([101O:1][101CH2:1]CNC(=O)C3CC3N3CC[100N:0]([100C:0](=O)N4CCCC(n5nc(-c6ccc(Oc7ccc(F)cc7F)cc6)c(C(N)=O)c5N)C4)CC3)ccc2CC1C(=O)NC1CCCc2ccccc21)C(C)(C)C

> <Shape>
0.255

> <Color>
0.068

> <Negative vol penalty>
0.000

$$$$

  -OEChem-04052323193D

 84 93  0     1  0  0  0  0  0999 V2000
  -27.5680  -23.1519   18.1225 C   0  0  0  0  0  0  0  0  0  0  0  0
  -26.6015  -24.1511   18.1476 C   0  0  0  0  0  0  0  0  0  0  0  0
  -26.6397  -13.3185   21.7123 C   0  0  0  0  0  0  0  0  0  0  0  0
  -25.5127  -13.8511   19.6427 C   0  0  0  0  0  0  0  0  0  0  0  0
  -28.4834  -23.0467   19.1675 C   0  0  0  0  0  0  0  0  0  0  0  0
  -26.5577  -25.0526   19.2116 C   0  0  0  0  0  0  0  0  0  0  0  0
  -23.4028  -28.8083   18.8302 C   0  0  0  0  0  0  0  0  0  0  0  0
  -25.9654  -12.0986   21.7656 C   0  0  0  0  0  0  0  0  0  0  0  0
  -24.8383  -12.6312   19.6960 C   0  0  0  0  0  0  0  0  0  0  0  0
  -22.0222  -28.6466   18.9369 C   0  0  0  0  0  0  0  0  0  0  0  0
  -22.1822  -11.3222   21.3276 C   0  0  0  0  0  0  0  0  0  0  0  0
  -20.8142  -11.3255   21.0553 C   0  0  0  0  0  0  0  0  0  0  0  0
  -20.2123  -22.7463   23.4824 C   0  0  0  0  0  0  0  0  0  0  0  0
  -22.0959  -29.5460   21.1740 C   0  0  0  0  0  0  0  0  0  0  0  0
  -21.1795   -9.8194   19.2018 C   0  0  0  0  0  0  0  0  0  0  0  0
  -18.9983  -23.3249   23.7617 C   0  0  0  0  0  0  0  0  0  0  0  0
  -26.4134  -14.1947   20.6508 C   0  0  0  0  0  0  0  0  0  0  0  0
  -28.3513  -15.7145   19.9856 C   0  0  0  0  0  0  0  0  0  0  0  0
  -28.4422  -23.9401   20.2507 C   0  0  0  0  0  0  0  0  0  0  0  0
  -24.1431  -29.3307   19.9004 C   0  0  0  0  0  0  0  0  0  0  0  0
  -27.4880  -24.9777   20.2640 C   0  0  0  0  0  0  0  0  0  0  0  0
  -23.4855  -29.7157   21.0774 C   0  0  0  0  0  0  0  0  0  0  0  0
  -25.0647  -11.7550   20.7575 C   0  0  0  0  0  0  0  0  0  0  0  0
  -21.3689  -29.0128   20.1100 C   0  0  0  0  0  0  0  0  0  0  0  0
  -23.0489  -10.5675   20.5370 C   0  0  0  0  0  0  0  0  0  0  0  0
  -20.3128  -10.5741   19.9925 C   0  0  0  0  0  0  0  0  0  0  0  0
  -22.5475   -9.8161   19.4741 C   0  0  0  0  0  0  0  0  0  0  0  0
  -27.1093  -15.4552   20.5955 C   0  0  0  0  0  0  0  0  0  0  0  0
  -21.0441  -23.8261   23.1304 C   0  0  0  0  0  0  0  0  0  0  0  0
  -28.5710  -17.0517   20.2091 C   0  0  0  0  0  0  0  0  0  0  0  0
  -29.2279  -14.8260   19.2801 C   0  0  0  0  0  0  0  0  0  0  0  0
  -26.4841  -28.2393   21.7530 C   0  0  0  0  0  0  0  0  0  0  0  0
  -26.4665  -31.2745   22.8974 C   0  0  0  0  0  0  0  0  0  0  0  0
  -24.7390  -34.1772   23.3843 C   0  0  0  0  0  0  0  0  0  0  0  0
  -24.7077  -21.4723   21.1685 C   0  0  0  0  0  0  0  0  0  0  0  0
  -29.4621  -23.7854   21.3512 C   0  0  0  0  0  0  0  0  0  0  0  0
  -25.6282  -29.5237   19.7596 C   0  0  0  0  0  0  0  0  0  0  0  0
  -24.2316  -30.3003   22.2479 C   0  0  0  0  0  0  0  0  0  0  0  0
  -29.0609  -24.4989   22.6381 C   0  0  0  0  0  0  0  0  0  0  0  0
  -27.5895  -20.5665   23.2638 C   0  0  0  0  0  0  0  0  0  0  0  0
  -28.6405  -25.9284   22.3306 C   0  0  0  0  0  0  0  0  0  0  0  0
  -27.8505  -19.1379   22.8001 C   0  0  0  0  0  0  0  0  0  0  0  0
  -26.1056  -20.9323   23.2213 C   0  0  0  0  0  0  0  0  0  0  0  0
  -23.3448  -22.4159   23.1689 C   0  0  0  0  0  0  0  0  0  0  0  0
  -22.9193  -23.2726   21.2717 C   0  0  0  0  0  0  0  0  0  0  0  0
  -25.7380  -19.2425   21.4345 C   0  0  0  0  0  0  0  0  0  0  0  0
  -27.4018  -25.9507   21.4260 C   0  0  1  0  0  0  0  0  0  0  0  0
  -22.5683  -23.6755   22.7189 C   0  0  0  0  0  0  0  0  0  0  0  0
  -26.3523  -29.5865   21.1009 C   0  0  1  0  0  0  0  0  0  0  0  0
  -27.2348  -18.9047   21.4129 C   0  0  2  0  0  0  0  0  0  0  0  0
  -24.9771  -36.4677   24.3814 C   0  0  0  0  0  0  0  0  0  0  0  0
  -26.1713  -30.0859   25.6920 C   0  0  0  0  0  0  0  0  0  0  0  0
  -25.4695  -32.3478   26.5041 C   0  0  0  0  0  0  0  0  0  0  0  0
  -27.7480  -32.0214   25.5427 C   0  0  0  0  0  0  0  0  0  0  0  0
  -24.2699  -35.4893   20.7733 C   0  0  0  0  0  0  0  0  0  0  0  0
  -18.1575  -25.7004   23.7385 C   0  0  0  0  0  0  0  0  0  0  0  0
  -17.5913  -26.2251   22.4256 C   0  0  0  0  0  0  0  0  0  0  0  0
  -18.2384  -27.2420   20.2379 C   0  0  0  0  0  0  0  0  0  0  0  0
  -19.4315  -27.7869   19.4777 C   0  0  0  0  0  0  0  0  0  1  0  0
  -25.7395  -31.9943   24.0075 C   0  0  1  0  0  0  0  0  0  0  0  0
  -25.1092  -35.6258   23.1218 C   0  0  2  0  0  0  0  0  0  0  0  0
  -26.2680  -31.5995   25.4154 C   0  0  0  0  0  0  0  0  0  0  0  0
  -26.5774  -16.5406   21.1639 N   0  0  0  0  0  0  0  0  0  0  0  0
  -20.4119  -25.0017   23.1805 N   0  0  0  0  0  0  0  0  0  0  0  0
  -19.1700  -24.6639   23.5672 N   0  0  0  0  0  0  0  0  0  0  0  0
  -27.4896  -17.4948   20.9122 N   0  0  0  0  0  0  0  0  0  0  0  0
  -25.6832  -30.4634   22.0640 N   0  0  0  0  0  0  0  0  0  0  0  0
  -25.4890  -20.5993   21.9330 N   0  0  0  0  0  0  0  0  0  0  0  0
  -23.9489  -22.4085   21.8420 N   0  0  0  0  0  0  0  0  0  0  0  0
  -29.5820  -17.8800   19.8709 N   0  0  0  0  0  0  0  0  0  0  0  0
  -28.8490  -13.4837   19.1418 N   0  0  0  0  0  0  0  0  0  0  0  0
  -27.1610  -27.3081   20.9887 N   0  0  0  0  0  0  0  0  0  0  0  0
  -25.8438  -33.4182   23.7077 N   0  0  0  0  0  0  0  0  0  0  0  0
  -24.2221  -36.2055   22.0740 N   0  3  0  0  0  0  0  0  0  0  0  0
  -18.6844  -26.7597   21.5694 N   0  3  0  0  0  0  0  0  0  0  0  0
  -30.3228  -15.2073   18.8010 O   0  0  0  0  0  0  0  0  0  0  0  0
  -26.0083  -28.0585   22.8677 O   0  0  0  0  0  0  0  0  0  0  0  0
  -27.6833  -31.4319   22.7698 O   0  0  0  0  0  0  0  0  0  0  0  0
  -23.5846  -33.7613   23.3134 O   0  0  0  0  0  0  0  0  0  0  0  0
  -24.6598  -21.4011   19.9339 O   0  0  0  0  0  0  0  0  0  0  0  0
  -24.4067  -10.5647   20.8091 O   0  0  0  0  0  0  0  0  0  0  0  0
  -20.0214  -28.8555   20.2170 O   0  0  0  0  0  0  0  0  0  1  0  0
  -18.9989  -10.5762   19.7321 F   0  0  0  0  0  0  0  0  0  0  0  0
  -23.3750   -9.0882   18.7118 F   0  0  0  0  0  0  0  0  0  0  0  0
  1  2  1  0  0  0  0
  1  5  2  0  0  0  0
  2  6  2  0  0  0  0
  3  8  2  0  0  0  0
  3 17  1  0  0  0  0
  4  9  1  0  0  0  0
  4 17  2  0  0  0  0
  5 19  1  0  0  0  0
  6 21  1  0  0  0  0
  7 10  2  0  0  0  0
  7 20  1  0  0  0  0
  8 23  1  0  0  0  0
  9 23  2  0  0  0  0
 10 24  1  0  0  0  0
 11 12  2  0  0  0  0
 11 25  1  0  0  0  0
 12 26  1  0  0  0  0
 13 16  2  0  0  0  0
 13 29  1  0  0  0  0
 14 22  1  0  0  0  0
 14 24  2  0  0  0  0
 15 26  2  0  0  0  0
 15 27  1  0  0  0  0
 16 65  1  0  0  0  0
 17 28  1  0  0  0  0
 18 28  1  0  0  0  0
 18 30  2  0  0  0  0
 18 31  1  0  0  0  0
 19 21  2  0  0  0  0
 19 36  1  0  0  0  0
 20 22  2  0  0  0  0
 20 37  1  0  0  0  0
 21 47  1  0  0  0  0
 22 38  1  0  0  0  0
 23 81  1  0  0  0  0
 24 82  1  0  0  0  0
 25 27  2  0  0  0  0
 25 81  1  0  0  0  0
 26 83  1  0  0  0  0
 27 84  1  0  0  0  0
 28 63  2  0  0  0  0
 29 48  1  0  0  0  0
 29 64  2  0  0  0  0
 30 66  1  0  0  0  0
 30 70  1  0  0  0  0
 31 71  1  0  0  0  0
 31 76  2  0  0  0  0
 32 49  1  0  0  0  0
 32 72  1  0  0  0  0
 32 77  2  0  0  0  0
 33 60  1  0  0  0  0
 33 67  1  0  0  0  0
 33 78  2  0  0  0  0
 34 61  1  0  0  0  0
 34 73  1  0  0  0  0
 34 79  2  0  0  0  0
 35 68  1  0  0  0  0
 35 69  1  0  0  0  0
 35 80  2  0  0  0  0
 36 39  1  0  0  0  0
 37 49  1  0  0  0  0
 38 67  1  0  0  0  0
 39 41  1  0  0  0  0
 40 42  1  0  0  0  0
 40 43  1  0  0  0  0
 41 47  1  0  0  0  0
 42 50  1  0  0  0  0
 43 68  1  0  0  0  0
 44 48  1  0  0  0  0
 44 69  1  0  0  0  0
 45 48  1  0  0  0  0
 45 69  1  0  0  0  0
 46 50  1  0  0  0  0
 46 68  1  0  0  0  0
 47 72  1  0  0  0  0
 49 67  1  0  0  0  0
 50 66  1  0  0  0  0
 51 61  1  0  0  0  0
 52 62  1  0  0  0  0
 53 62  1  0  0  0  0
 54 62  1  0  0  0  0
 55 74  1  0  0  0  0
 56 57  1  0  0  0  0
 56 65  1  0  0  0  0
 57 75  1  0  0  0  0
 58 59  1  0  0  0  0
 58 75  1  0  0  0  0
 59 82  1  0  0  0  0
 60 62  1  0  0  0  0
 60 73  1  0  0  0  0
 61 74  1  0  0  0  0
 63 66  1  0  0  0  0
 64 65  1  0  0  0  0
M  CHG  2  74   1  75   1
M  ISO  4  35 100  59 101  69 100  82 101
M  END
> <Batch ID>
0188

> <Smiles>
CNC(C)C(=O)NC(C(=O)N1Cc2cc([101O:1][101CH2:1]CNCCn3ccc(C4C[100N:0]([100C:0](=O)N5CCCC(n6nc(-c7ccc(Oc8ccc(F)cc8F)cc7)c(C(N)=O)c6N)C5)C4)n3)ccc2CC1C(=O)NC1CCCc2ccccc21)C(C)(C)C

> <Shape>
0.267

> <Color>
0.068

> <Negative vol penalty>
0.000

$$$$

  -OEChem-04052323193D

 82 91  0     1  0  0  0  0  0999 V2000
  -22.8848   -8.0184   22.0758 C   0  0  0  0  0  0  0  0  0  0  0  0
  -24.1570   -8.5815   22.0846 C   0  0  0  0  0  0  0  0  0  0  0  0
  -22.9369  -27.3151   20.4716 C   0  0  0  0  0  0  0  0  0  0  0  0
  -24.2685  -26.9339   22.4511 C   0  0  0  0  0  0  0  0  0  0  0  0
  -21.8690   -8.6057   21.3228 C   0  0  0  0  0  0  0  0  0  0  0  0
  -24.4142   -9.7317   21.3394 C   0  0  0  0  0  0  0  0  0  0  0  0
  -28.3934  -15.6873   21.4589 C   0  0  0  0  0  0  0  0  0  0  0  0
  -21.8258  -26.7687   21.1138 C   0  0  0  0  0  0  0  0  0  0  0  0
  -23.1574  -26.3876   23.0934 C   0  0  0  0  0  0  0  0  0  0  0  0
  -29.2884  -16.4008   20.6629 C   0  0  0  0  0  0  0  0  0  0  0  0
  -19.5317  -27.7546   23.3937 C   0  0  0  0  0  0  0  0  0  0  0  0
  -18.3176  -28.4313   23.2767 C   0  0  0  0  0  0  0  0  0  0  0  0
  -27.4360  -17.3736   19.4625 C   0  0  0  0  0  0  0  0  0  0  0  0
  -17.3321  -26.4837   22.2408 C   0  0  0  0  0  0  0  0  0  0  0  0
  -31.6764  -19.9957   18.2313 C   0  0  0  0  0  0  0  0  0  0  0  0
  -24.1583  -27.3977   21.1402 C   0  0  0  0  0  0  0  0  0  0  0  0
  -25.7056  -29.3115   20.4689 C   0  0  0  0  0  0  0  0  0  0  0  0
  -22.1115   -9.7692   20.5757 C   0  0  0  0  0  0  0  0  0  0  0  0
  -27.0109  -15.8034   21.2552 C   0  0  0  0  0  0  0  0  0  0  0  0
  -23.4010  -10.3344   20.5747 C   0  0  0  0  0  0  0  0  0  0  0  0
  -26.5254  -16.6625   20.2589 C   0  0  0  0  0  0  0  0  0  0  0  0
  -21.9360  -26.3050   22.4247 C   0  0  0  0  0  0  0  0  0  0  0  0
  -28.8099  -17.2419   19.6626 C   0  0  0  0  0  0  0  0  0  0  0  0
  -19.6461  -26.4426   22.9342 C   0  0  0  0  0  0  0  0  0  0  0  0
  -17.2178  -27.7958   22.7003 C   0  0  0  0  0  0  0  0  0  0  0  0
  -18.5463  -25.8072   22.3578 C   0  0  0  0  0  0  0  0  0  0  0  0
  -25.3066  -27.9615   20.4771 C   0  0  0  0  0  0  0  0  0  0  0  0
  -32.4432  -20.7158   17.3381 C   0  0  0  0  0  0  0  0  0  0  0  0
  -31.8622  -18.6284   18.2109 C   0  0  0  0  0  0  0  0  0  0  0  0
  -26.8471  -29.3274   19.7051 C   0  0  0  0  0  0  0  0  0  0  0  0
  -33.4167  -18.8136   16.5628 C   0  0  0  0  0  0  0  0  0  0  0  0
  -25.0989  -30.4493   21.0956 C   0  0  0  0  0  0  0  0  0  0  0  0
  -24.6880  -13.7951   20.4337 C   0  0  0  0  0  0  0  0  0  0  0  0
  -22.7919  -16.3583   21.0313 C   0  0  0  0  0  0  0  0  0  0  0  0
  -22.4937  -19.7500   21.2640 C   0  0  0  0  0  0  0  0  0  0  0  0
  -30.7948  -25.0156   18.6056 C   0  0  0  0  0  0  0  0  0  0  0  0
  -20.9940  -10.3411   19.7396 C   0  0  0  0  0  0  0  0  0  0  0  0
  -26.0578  -15.0475   22.1399 C   0  0  0  0  0  0  0  0  0  0  0  0
  -25.0499  -16.8379   20.0131 C   0  0  0  0  0  0  0  0  0  0  0  0
  -21.2520  -11.7721   19.2750 C   0  0  0  0  0  0  0  0  0  0  0  0
  -29.0095  -27.0578   16.1243 C   0  0  0  0  0  0  0  0  0  0  0  0
  -22.6670  -11.9068   18.7214 C   0  0  0  0  0  0  0  0  0  0  0  0
  -27.8466  -27.5819   16.9593 C   0  0  0  0  0  0  0  0  0  0  0  0
  -29.4472  -25.6555   16.5480 C   0  0  0  0  0  0  0  0  0  0  0  0
  -30.9947  -22.9701   17.0164 C   0  0  0  0  0  0  0  0  0  0  0  0
  -32.5225  -23.1581   18.4809 C   0  0  0  0  0  0  0  0  0  0  0  0
  -28.5739  -26.0726   18.8385 C   0  0  0  0  0  0  0  0  0  0  0  0
  -23.7128  -11.5958   19.7990 C   0  0  1  0  0  0  0  0  0  0  0  0
  -32.3726  -22.2950   17.2111 C   0  0  0  0  0  0  0  0  0  0  0  0
  -24.6847  -14.8478   21.5059 C   0  0  1  0  0  0  0  0  0  0  0  0
  -28.1853  -27.5068   18.4551 C   0  0  2  0  0  0  0  0  0  0  0  0
  -34.3831  -18.1572   15.6363 C   0  0  0  0  0  0  0  0  0  0  0  0
  -20.8111  -21.5521   21.7319 C   0  0  0  0  0  0  0  0  0  0  0  0
  -21.6151  -15.9805   18.2416 C   0  0  0  0  0  0  0  0  0  0  0  0
  -20.6790  -18.2972   18.3987 C   0  0  0  0  0  0  0  0  0  0  0  0
  -19.9413  -16.5438   20.0124 C   0  0  0  0  0  0  0  0  0  0  0  0
  -24.0031  -20.7079   23.6226 C   0  0  0  0  0  0  0  0  0  0  0  0
  -31.0726  -17.7610   19.1465 C   0  0  0  0  0  0  0  0  0  1  0  0
  -22.2674  -17.5139   20.2138 C   0  0  1  0  0  0  0  0  0  0  0  0
  -21.8689  -20.6357   22.3269 C   0  0  2  0  0  0  0  0  0  0  0  0
  -21.1536  -17.0793   19.2197 C   0  0  0  0  0  0  0  0  0  0  0  0
  -26.1277  -27.1768   19.7743 N   0  0  0  0  0  0  0  0  0  0  0  0
  -33.3265  -20.1551   16.4863 N   0  0  0  0  0  0  0  0  0  0  0  0
  -32.7270  -18.0016   17.3865 N   0  0  0  0  0  0  0  0  0  0  0  0
  -27.0540  -28.0364   19.3171 N   0  0  0  0  0  0  0  0  0  0  0  0
  -24.1582  -16.0726   20.9001 N   0  0  0  0  0  0  0  0  0  0  0  0
  -29.6565  -25.5536   17.9959 N   0  0  0  0  0  0  0  0  0  0  0  0
  -31.4513  -23.9949   17.9475 N   0  0  0  0  0  0  0  0  0  0  0  0
  -27.6838  -30.3197   19.3342 N   0  0  0  0  0  0  0  0  0  0  0  0
  -23.9297  -30.2556   21.8439 N   0  0  0  0  0  0  0  0  0  0  0  0
  -23.8614  -12.7199   20.6984 N   0  0  0  0  0  0  0  0  0  0  0  0
  -21.8503  -18.5341   21.1696 N   0  0  0  0  0  0  0  0  0  0  0  0
  -22.9114  -21.4803   22.9756 N   0  3  0  0  0  0  0  0  0  0  0  0
  -25.5701  -31.6063   20.9815 O   0  0  0  0  0  0  0  0  0  0  0  0
  -25.3875  -13.9479   19.4392 O   0  0  0  0  0  0  0  0  0  0  0  0
  -22.0192  -15.7367   21.7650 O   0  0  0  0  0  0  0  0  0  0  0  0
  -23.4539  -20.1030   20.5829 O   0  0  0  0  0  0  0  0  0  0  0  0
  -31.1944  -25.4045   19.7104 O   0  0  0  0  0  0  0  0  0  0  0  0
  -20.8519  -25.7719   23.0518 O   0  0  0  0  0  0  0  0  0  0  0  0
  -29.6813  -17.9389   18.8838 O   0  0  0  0  0  0  0  0  0  1  0  0
  -16.0515  -28.4452   22.5894 F   0  0  0  0  0  0  0  0  0  0  0  0
  -18.6497  -24.5464   21.9155 F   0  0  0  0  0  0  0  0  0  0  0  0
  1  2  1  0  0  0  0
  1  5  2  0  0  0  0
  2  6  2  0  0  0  0
  3  8  2  0  0  0  0
  3 16  1  0  0  0  0
  4  9  1  0  0  0  0
  4 16  2  0  0  0  0
  5 18  1  0  0  0  0
  6 20  1  0  0  0  0
  7 10  2  0  0  0  0
  7 19  1  0  0  0  0
  8 22  1  0  0  0  0
  9 22  2  0  0  0  0
 10 23  1  0  0  0  0
 11 12  2  0  0  0  0
 11 24  1  0  0  0  0
 12 25  1  0  0  0  0
 13 21  1  0  0  0  0
 13 23  2  0  0  0  0
 14 25  2  0  0  0  0
 14 26  1  0  0  0  0
 15 28  2  0  0  0  0
 15 29  1  0  0  0  0
 16 27  1  0  0  0  0
 17 27  1  0  0  0  0
 17 30  2  0  0  0  0
 17 32  1  0  0  0  0
 18 20  2  0  0  0  0
 18 37  1  0  0  0  0
 19 21  2  0  0  0  0
 19 38  1  0  0  0  0
 20 48  1  0  0  0  0
 21 39  1  0  0  0  0
 22 79  1  0  0  0  0
 23 80  1  0  0  0  0
 24 26  2  0  0  0  0
 24 79  1  0  0  0  0
 25 81  1  0  0  0  0
 26 82  1  0  0  0  0
 27 62  2  0  0  0  0
 28 49  1  0  0  0  0
 28 63  1  0  0  0  0
 29 58  1  0  0  0  0
 29 64  2  0  0  0  0
 30 65  1  0  0  0  0
 30 69  1  0  0  0  0
 31 52  1  0  0  0  0
 31 63  2  0  0  0  0
 31 64  1  0  0  0  0
 32 70  1  0  0  0  0
 32 74  2  0  0  0  0
 33 50  1  0  0  0  0
 33 71  1  0  0  0  0
 33 75  2  0  0  0  0
 34 59  1  0  0  0  0
 34 66  1  0  0  0  0
 34 76  2  0  0  0  0
 35 60  1  0  0  0  0
 35 72  1  0  0  0  0
 35 77  2  0  0  0  0
 36 67  1  0  0  0  0
 36 68  1  0  0  0  0
 36 78  2  0  0  0  0
 37 40  1  0  0  0  0
 38 50  1  0  0  0  0
 39 66  1  0  0  0  0
 40 42  1  0  0  0  0
 41 43  1  0  0  0  0
 41 44  1  0  0  0  0
 42 48  1  0  0  0  0
 43 51  1  0  0  0  0
 44 67  1  0  0  0  0
 45 49  1  0  0  0  0
 45 68  1  0  0  0  0
 46 49  1  0  0  0  0
 46 68  1  0  0  0  0
 47 51  1  0  0  0  0
 47 67  1  0  0  0  0
 48 71  1  0  0  0  0
 50 66  1  0  0  0  0
 51 65  1  0  0  0  0
 53 60  1  0  0  0  0
 54 61  1  0  0  0  0
 55 61  1  0  0  0  0
 56 61  1  0  0  0  0
 57 73  1  0  0  0  0
 58 80  1  0  0  0  0
 59 61  1  0  0  0  0
 59 72  1  0  0  0  0
 60 73  1  0  0  0  0
 62 65  1  0  0  0  0
M  CHG  1  73   1
M  ISO  4  36 100  58 101  68 100  80 101
M  END
> <Batch ID>
0188

> <Smiles>
CNC(C)C(=O)NC(C(=O)N1Cc2cc([101O:1][101CH2:1]c3cc(C4C[100N:0]([100C:0](=O)N5CCCC(n6nc(-c7ccc(Oc8ccc(F)cc8F)cc7)c(C(N)=O)c6N)C5)C4)nc(C)n3)ccc2CC1C(=O)NC1CCCc2ccccc21)C(C)(C)C

> <Shape>
0.233

> <Color>
0.064

> <Negative vol penalty>
0.000

$$$$

  -OEChem-04052323193D

 83 92  0     1  0  0  0  0  0999 V2000
  -27.6423  -36.2775   16.8200 C   0  0  0  0  0  0  0  0  0  0  0  0
  -27.7501  -34.8911   16.7784 C   0  0  0  0  0  0  0  0  0  0  0  0
  -24.8775   -8.4222   21.5844 C   0  0  0  0  0  0  0  0  0  0  0  0
  -23.3870   -9.4554   19.9882 C   0  0  0  0  0  0  0  0  0  0  0  0
  -27.5316  -36.9305   18.0468 C   0  0  0  0  0  0  0  0  0  0  0  0
  -27.7483  -34.1569   17.9639 C   0  0  0  0  0  0  0  0  0  0  0  0
  -25.3462  -28.5928   18.8447 C   0  0  0  0  0  0  0  0  0  0  0  0
  -23.7828   -8.0440   22.3618 C   0  0  0  0  0  0  0  0  0  0  0  0
  -22.2923   -9.0772   20.7655 C   0  0  0  0  0  0  0  0  0  0  0  0
  -25.9127  -27.3190   18.8648 C   0  0  0  0  0  0  0  0  0  0  0  0
  -21.4188   -5.6268   22.3264 C   0  0  0  0  0  0  0  0  0  0  0  0
  -21.3961   -4.3238   22.8236 C   0  0  0  0  0  0  0  0  0  0  0  0
  -26.0687  -27.4329   21.2693 C   0  0  0  0  0  0  0  0  0  0  0  0
  -21.3358   -5.1859   25.0798 C   0  0  0  0  0  0  0  0  0  0  0  0
  -24.6796   -9.1279   20.3976 C   0  0  0  0  0  0  0  0  0  0  0  0
  -26.4110   -8.7828   18.5562 C   0  0  0  0  0  0  0  0  0  0  0  0
  -27.5187  -36.2032   19.2475 C   0  0  0  0  0  0  0  0  0  0  0  0
  -25.1464  -29.3018   20.0379 C   0  0  0  0  0  0  0  0  0  0  0  0
  -27.6386  -34.8009   19.2081 C   0  0  0  0  0  0  0  0  0  0  0  0
  -25.4972  -28.7145   21.2619 C   0  0  0  0  0  0  0  0  0  0  0  0
  -22.4902   -8.3715   21.9523 C   0  0  0  0  0  0  0  0  0  0  0  0
  -26.2767  -26.7400   20.0770 C   0  0  0  0  0  0  0  0  0  0  0  0
  -21.4000   -6.7094   23.2058 C   0  0  0  0  0  0  0  0  0  0  0  0
  -21.3546   -4.1034   24.2004 C   0  0  0  0  0  0  0  0  0  0  0  0
  -21.3585   -6.4889   24.5825 C   0  0  0  0  0  0  0  0  0  0  0  0
  -25.8100   -9.5194   19.5945 C   0  0  0  0  0  0  0  0  0  0  0  0
  -28.8991  -23.2935   19.3835 C   0  0  0  0  0  0  0  0  0  0  0  0
  -27.5812  -23.4862   19.0575 C   0  0  0  0  0  0  0  0  0  0  0  0
  -27.4363   -9.5836   18.1160 C   0  0  0  0  0  0  0  0  0  0  0  0
  -28.5305  -21.0658   19.4229 C   0  0  0  0  0  0  0  0  0  0  0  0
  -26.0726   -7.4902   18.0362 C   0  0  0  0  0  0  0  0  0  0  0  0
  -26.2276  -32.0451   21.2249 C   0  0  0  0  0  0  0  0  0  0  0  0
  -24.1035  -31.4080   23.5923 C   0  0  0  0  0  0  0  0  0  0  0  0
  -22.2868  -29.0822   25.3062 C   0  0  0  0  0  0  0  0  0  0  0  0
  -28.0997  -15.4677   18.3221 C   0  0  0  0  0  0  0  0  0  0  0  0
  -27.4446  -36.9567   20.5519 C   0  0  0  0  0  0  0  0  0  0  0  0
  -24.5096  -30.6640   20.0014 C   0  0  0  0  0  0  0  0  0  0  0  0
  -25.2848  -29.4256   22.5724 C   0  0  0  0  0  0  0  0  0  0  0  0
  -27.0735  -36.0772   21.7431 C   0  0  0  0  0  0  0  0  0  0  0  0
  -30.4594  -12.9617   19.5814 C   0  0  0  0  0  0  0  0  0  0  0  0
  -27.8946  -34.7917   21.7340 C   0  0  0  0  0  0  0  0  0  0  0  0
  -29.5573  -11.7364   19.6845 C   0  0  0  0  0  0  0  0  0  0  0  0
  -29.7132  -14.2608   19.8882 C   0  0  0  0  0  0  0  0  0  0  0  0
  -27.5790  -13.2124   19.1828 C   0  0  0  0  0  0  0  0  0  0  0  0
  -28.2336  -18.0067   18.0750 C   0  0  0  0  0  0  0  0  0  0  0  0
  -28.9544  -17.3267   19.9578 C   0  0  0  0  0  0  0  0  0  0  0  0
  -27.6155  -33.9677   20.4712 C   0  0  1  0  0  0  0  0  0  0  0  0
  -24.8257  -31.5046   21.2347 C   0  0  1  0  0  0  0  0  0  0  0  0
  -28.3071  -11.9134   18.8100 C   0  0  2  0  0  0  0  0  0  0  0  0
  -28.2201  -18.5911   19.4919 C   0  0  0  0  0  0  0  0  0  0  0  0
  -29.8367  -24.4410   19.5419 C   0  0  0  0  0  0  0  0  0  0  0  0
  -20.6712  -28.8590   27.2133 C   0  0  0  0  0  0  0  0  0  0  0  0
  -26.3980  -31.7548   25.5735 C   0  0  0  0  0  0  0  0  0  0  0  0
  -24.9882  -30.6133   27.2991 C   0  0  0  0  0  0  0  0  0  0  0  0
  -24.2305  -32.7695   26.2994 C   0  0  0  0  0  0  0  0  0  0  0  0
  -20.1754  -27.9921   23.5420 C   0  0  0  0  0  0  0  0  0  0  0  0
  -27.0096  -24.8436   18.8431 C   0  0  0  0  0  0  0  0  0  1  0  0
  -24.1564  -30.6625   24.9040 C   0  0  1  0  0  0  0  0  0  0  0  0
  -20.8244  -29.0453   25.7118 C   0  0  2  0  0  0  0  0  0  0  0  0
  -24.9492  -31.4371   25.9944 C   0  0  0  0  0  0  0  0  0  0  0  0
  -26.4041  -10.6976   19.8016 N   0  0  0  0  0  0  0  0  0  0  0  0
  -29.4094  -22.0676   19.5755 N   0  0  0  0  0  0  0  0  0  0  0  0
  -26.7455  -22.4411   18.9178 N   0  0  0  0  0  0  0  0  0  0  0  0
  -27.2275  -21.1947   19.1044 N   0  0  0  0  0  0  0  0  0  0  0  0
  -27.3892  -10.7073   18.8875 N   0  0  0  0  0  0  0  0  0  0  0  0
  -24.6646  -30.7579   22.4840 N   0  0  0  0  0  0  0  0  0  0  0  0
  -28.4717  -14.3754   19.1133 N   0  0  0  0  0  0  0  0  0  0  0  0
  -28.5163  -16.7206   18.7080 N   0  0  0  0  0  0  0  0  0  0  0  0
  -28.3646   -9.4292   17.1481 N   0  0  0  0  0  0  0  0  0  0  0  0
  -24.9903   -6.8040   18.6037 N   0  0  0  0  0  0  0  0  0  0  0  0
  -29.0099  -19.7652   19.6117 N   0  0  0  0  0  0  0  0  0  0  0  0
  -26.3549  -33.2674   20.5931 N   0  0  0  0  0  0  0  0  0  0  0  0
  -22.7729  -30.3719   25.2644 N   0  0  0  0  0  0  0  0  0  0  0  0
  -20.1246  -27.9231   25.0251 N   0  3  0  0  0  0  0  0  0  0  0  0
  -26.7213   -6.9523   17.1070 O   0  0  0  0  0  0  0  0  0  0  0  0
  -27.1269  -31.4016   21.7529 O   0  0  0  0  0  0  0  0  0  0  0  0
  -23.5772  -32.5228   23.5511 O   0  0  0  0  0  0  0  0  0  0  0  0
  -22.9343  -28.0681   25.0554 O   0  0  0  0  0  0  0  0  0  0  0  0
  -27.3897  -15.3345   17.3166 O   0  0  0  0  0  0  0  0  0  0  0  0
  -21.4218   -8.0024   22.7105 O   0  0  0  0  0  0  0  0  0  0  0  0
  -26.8340  -25.4890   20.0995 O   0  0  0  0  0  0  0  0  0  1  0  0
  -21.3312   -2.8521   24.6777 F   0  0  0  0  0  0  0  0  0  0  0  0
  -21.3391   -7.5250   25.4322 F   0  0  0  0  0  0  0  0  0  0  0  0
  1  2  1  0  0  0  0
  1  5  2  0  0  0  0
  2  6  2  0  0  0  0
  3  8  2  0  0  0  0
  3 15  1  0  0  0  0
  4  9  1  0  0  0  0
  4 15  2  0  0  0  0
  5 17  1  0  0  0  0
  6 19  1  0  0  0  0
  7 10  2  0  0  0  0
  7 18  1  0  0  0  0
  8 21  1  0  0  0  0
  9 21  2  0  0  0  0
 10 22  1  0  0  0  0
 11 12  2  0  0  0  0
 11 23  1  0  0  0  0
 12 24  1  0  0  0  0
 13 20  1  0  0  0  0
 13 22  2  0  0  0  0
 14 24  2  0  0  0  0
 14 25  1  0  0  0  0
 15 26  1  0  0  0  0
 16 26  1  0  0  0  0
 16 29  2  0  0  0  0
 16 31  1  0  0  0  0
 17 19  2  0  0  0  0
 17 36  1  0  0  0  0
 18 20  2  0  0  0  0
 18 37  1  0  0  0  0
 19 47  1  0  0  0  0
 20 38  1  0  0  0  0
 21 80  1  0  0  0  0
 22 81  1  0  0  0  0
 23 25  2  0  0  0  0
 23 80  1  0  0  0  0
 24 82  1  0  0  0  0
 25 83  1  0  0  0  0
 26 61  2  0  0  0  0
 27 28  2  0  0  0  0
 27 51  1  0  0  0  0
 27 62  1  0  0  0  0
 28 57  1  0  0  0  0
 28 63  1  0  0  0  0
 29 65  1  0  0  0  0
 29 69  1  0  0  0  0
 30 62  2  0  0  0  0
 30 64  1  0  0  0  0
 30 71  1  0  0  0  0
 31 70  1  0  0  0  0
 31 75  2  0  0  0  0
 32 48  1  0  0  0  0
 32 72  1  0  0  0  0
 32 76  2  0  0  0  0
 33 58  1  0  0  0  0
 33 66  1  0  0  0  0
 33 77  2  0  0  0  0
 34 59  1  0  0  0  0
 34 73  1  0  0  0  0
 34 78  2  0  0  0  0
 35 67  1  0  0  0  0
 35 68  1  0  0  0  0
 35 79  2  0  0  0  0
 36 39  1  0  0  0  0
 37 48  1  0  0  0  0
 38 66  1  0  0  0  0
 39 41  1  0  0  0  0
 40 42  1  0  0  0  0
 40 43  1  0  0  0  0
 41 47  1  0  0  0  0
 42 49  1  0  0  0  0
 43 67  1  0  0  0  0
 44 49  1  0  0  0  0
 44 67  1  0  0  0  0
 45 50  1  0  0  0  0
 45 68  1  0  0  0  0
 46 50  1  0  0  0  0
 46 68  1  0  0  0  0
 47 72  1  0  0  0  0
 48 66  1  0  0  0  0
 49 65  1  0  0  0  0
 50 71  1  0  0  0  0
 52 59  1  0  0  0  0
 53 60  1  0  0  0  0
 54 60  1  0  0  0  0
 55 60  1  0  0  0  0
 56 74  1  0  0  0  0
 57 81  1  0  0  0  0
 58 60  1  0  0  0  0
 58 73  1  0  0  0  0
 59 74  1  0  0  0  0
 61 65  1  0  0  0  0
 63 64  2  0  0  0  0
M  CHG  1  74   1
M  ISO  4  35 100  57 101  68 100  81 101
M  END
> <Batch ID>
0188

> <Smiles>
CNC(C)C(=O)NC(C(=O)N1Cc2cc([101O:1][101CH2:1]c3nnc(NC4C[100N:0]([100C:0](=O)N5CCCC(n6nc(-c7ccc(Oc8ccc(F)cc8F)cc7)c(C(N)=O)c6N)C5)C4)nc3C)ccc2CC1C(=O)NC1CCCc2ccccc21)C(C)(C)C

> <Shape>
0.281

> <Color>
0.105

> <Negative vol penalty>
0.000

$$$$

  -OEChem-04052323193D

 83 92  0     1  0  0  0  0  0999 V2000
  -25.8822  -37.7775   23.2886 C   0  0  0  0  0  0  0  0  0  0  0  0
  -26.6965  -36.9031   22.5760 C   0  0  0  0  0  0  0  0  0  0  0  0
  -24.1708   -9.7317   21.1808 C   0  0  0  0  0  0  0  0  0  0  0  0
  -25.5962  -10.4827   22.9812 C   0  0  0  0  0  0  0  0  0  0  0  0
  -24.9732  -37.2786   24.2207 C   0  0  0  0  0  0  0  0  0  0  0  0
  -26.6031  -35.5293   22.7960 C   0  0  0  0  0  0  0  0  0  0  0  0
  -27.2158  -29.2714   19.3639 C   0  0  0  0  0  0  0  0  0  0  0  0
  -24.0454   -8.4876   21.7991 C   0  0  0  0  0  0  0  0  0  0  0  0
  -25.4707   -9.2386   23.5995 C   0  0  0  0  0  0  0  0  0  0  0  0
  -27.8735  -28.0464   19.4668 C   0  0  0  0  0  0  0  0  0  0  0  0
  -23.0572   -5.2341   23.0848 C   0  0  0  0  0  0  0  0  0  0  0  0
  -21.7833   -4.6705   23.1552 C   0  0  0  0  0  0  0  0  0  0  0  0
  -26.2113  -27.2934   21.0445 C   0  0  0  0  0  0  0  0  0  0  0  0
  -21.0102   -6.5763   24.4231 C   0  0  0  0  0  0  0  0  0  0  0  0
  -24.9463  -10.7292   21.7719 C   0  0  0  0  0  0  0  0  0  0  0  0
  -24.0431  -12.9178   20.8223 C   0  0  0  0  0  0  0  0  0  0  0  0
  -24.8618  -35.8974   24.4453 C   0  0  0  0  0  0  0  0  0  0  0  0
  -26.0550  -29.5209   20.1101 C   0  0  0  0  0  0  0  0  0  0  0  0
  -25.6927  -35.0116   23.7330 C   0  0  0  0  0  0  0  0  0  0  0  0
  -25.5393  -28.5214   20.9474 C   0  0  0  0  0  0  0  0  0  0  0  0
  -24.6952   -8.2411   23.0084 C   0  0  0  0  0  0  0  0  0  0  0  0
  -27.3729  -27.0582   20.3094 C   0  0  0  0  0  0  0  0  0  0  0  0
  -23.3077   -6.4688   23.6836 C   0  0  0  0  0  0  0  0  0  0  0  0
  -20.7598   -5.3416   23.8243 C   0  0  0  0  0  0  0  0  0  0  0  0
  -22.2842   -7.1399   24.3527 C   0  0  0  0  0  0  0  0  0  0  0  0
  -25.0768  -12.0143   21.1334 C   0  0  0  0  0  0  0  0  0  0  0  0
  -24.6819  -13.9796   20.2299 C   0  0  0  0  0  0  0  0  0  0  0  0
  -22.6316  -12.8072   21.0487 C   0  0  0  0  0  0  0  0  0  0  0  0
  -25.2441  -31.6082   22.3660 C   0  0  0  0  0  0  0  0  0  0  0  0
  -22.3080  -30.2812   21.9914 C   0  0  0  0  0  0  0  0  0  0  0  0
  -19.1398  -29.0214   22.1408 C   0  0  0  0  0  0  0  0  0  0  0  0
  -30.3180  -15.8791   20.7571 C   0  0  0  0  0  0  0  0  0  0  0  0
  -23.8980  -35.4084   25.4972 C   0  0  0  0  0  0  0  0  0  0  0  0
  -25.3423  -30.8378   19.9675 C   0  0  0  0  0  0  0  0  0  0  0  0
  -24.2852  -28.7320   21.7543 C   0  0  0  0  0  0  0  0  0  0  0  0
  -23.5973  -33.9149   25.4006 C   0  0  0  0  0  0  0  0  0  0  0  0
  -28.5636  -15.0523   17.6490 C   0  0  0  0  0  0  0  0  0  0  0  0
  -24.8876  -33.1208   25.2238 C   0  0  0  0  0  0  0  0  0  0  0  0
  -27.3775  -14.2425   18.1754 C   0  0  0  0  0  0  0  0  0  0  0  0
  -28.3514  -21.2159   19.7397 C   0  0  0  0  0  0  0  0  0  0  0  0
  -30.7086  -21.9931   19.2477 C   0  0  0  0  0  0  0  0  0  0  0  0
  -29.8076  -14.8111   18.4957 C   0  0  0  0  0  0  0  0  0  0  0  0
  -28.4482  -14.2881   20.4798 C   0  0  0  0  0  0  0  0  0  0  0  0
  -31.8312  -17.9269   20.8977 C   0  0  0  0  0  0  0  0  0  0  0  0
  -30.8305  -17.7661   19.0193 C   0  0  0  0  0  0  0  0  0  0  0  0
  -28.3184  -22.1234   20.9640 C   0  0  0  0  0  0  0  0  0  0  0  0
  -30.6569  -22.8946   20.4758 C   0  0  0  0  0  0  0  0  0  0  0  0
  -25.6034  -33.5133   23.9257 C   0  0  1  0  0  0  0  0  0  0  0  0
  -24.4561  -31.1702   21.1640 C   0  0  1  0  0  0  0  0  0  0  0  0
  -27.1506  -14.4962   19.6772 C   0  0  2  0  0  0  0  0  0  0  0  0
  -29.7646  -20.7956   19.3400 C   0  0  0  0  0  0  0  0  0  0  0  0
  -31.3625  -18.9418   19.8495 C   0  0  0  0  0  0  0  0  0  0  0  0
  -17.1495  -28.8706   23.6618 C   0  0  0  0  0  0  0  0  0  0  0  0
  -23.7333  -28.1461   23.6407 C   0  0  0  0  0  0  0  0  0  0  0  0
  -21.4942  -27.3868   24.4643 C   0  0  0  0  0  0  0  0  0  0  0  0
  -22.2884  -29.6974   24.9675 C   0  0  0  0  0  0  0  0  0  0  0  0
  -17.4164  -30.4704   20.2201 C   0  0  0  0  0  0  0  0  0  0  0  0
  -29.1354  -24.3007   21.8627 C   0  0  0  0  0  0  0  0  0  0  0  0
  -27.9147  -25.1760   21.6584 C   0  0  0  0  0  0  0  0  0  1  0  0
  -21.5734  -29.1178   22.6127 C   0  0  1  0  0  0  0  0  0  0  0  0
  -17.8216  -29.6558   22.5463 C   0  0  2  0  0  0  0  0  0  0  0  0
  -22.2780  -28.5879   23.8934 C   0  0  0  0  0  0  0  0  0  0  0  0
  -26.2809  -12.4628   20.7686 N   0  0  0  0  0  0  0  0  0  0  0  0
  -26.0077  -13.6599   20.2222 N   0  0  0  0  0  0  0  0  0  0  0  0
  -23.6279  -30.0385   21.5856 N   0  0  0  0  0  0  0  0  0  0  0  0
  -29.5384  -15.0869   19.9102 N   0  0  0  0  0  0  0  0  0  0  0  0
  -30.9923  -16.9472   20.2117 N   0  0  0  0  0  0  0  0  0  0  0  0
  -24.2332  -15.1463   19.7200 N   0  0  0  0  0  0  0  0  0  0  0  0
  -22.1432  -11.6494   21.6693 N   0  0  0  0  0  0  0  0  0  0  0  0
  -24.9605  -32.8935   22.7868 N   0  0  0  0  0  0  0  0  0  0  0  0
  -20.2027  -29.5686   22.8279 N   0  0  0  0  0  0  0  0  0  0  0  0
  -29.2279  -23.3073   20.7371 N   0  3  0  0  0  0  0  0  0  0  0  0
  -30.2933  -19.8277   20.3437 N   0  3  0  0  0  0  0  0  0  0  0  0
  -16.8922  -29.7079   21.3824 N   0  3  0  0  0  0  0  0  0  0  0  0
  -21.8256  -13.7013   20.6958 O   0  0  0  0  0  0  0  0  0  0  0  0
  -26.0487  -30.8367   22.8750 O   0  0  0  0  0  0  0  0  0  0  0  0
  -21.7295  -31.3632   21.8641 O   0  0  0  0  0  0  0  0  0  0  0  0
  -19.2183  -28.1270   21.3014 O   0  0  0  0  0  0  0  0  0  0  0  0
  -30.3859  -15.6613   21.9742 O   0  0  0  0  0  0  0  0  0  0  0  0
  -24.5728   -7.0274   23.6121 O   0  0  0  0  0  0  0  0  0  0  0  0
  -28.0179  -25.8533   20.4130 O   0  0  0  0  0  0  0  0  0  1  0  0
  -19.5360   -4.8009   23.8905 F   0  0  0  0  0  0  0  0  0  0  0  0
  -22.5185   -8.3269   24.9288 F   0  0  0  0  0  0  0  0  0  0  0  0
  1  2  1  0  0  0  0
  1  5  2  0  0  0  0
  2  6  2  0  0  0  0
  3  8  2  0  0  0  0
  3 15  1  0  0  0  0
  4  9  1  0  0  0  0
  4 15  2  0  0  0  0
  5 17  1  0  0  0  0
  6 19  1  0  0  0  0
  7 10  2  0  0  0  0
  7 18  1  0  0  0  0
  8 21  1  0  0  0  0
  9 21  2  0  0  0  0
 10 22  1  0  0  0  0
 11 12  2  0  0  0  0
 11 23  1  0  0  0  0
 12 24  1  0  0  0  0
 13 20  1  0  0  0  0
 13 22  2  0  0  0  0
 14 24  2  0  0  0  0
 14 25  1  0  0  0  0
 15 26  1  0  0  0  0
 16 26  1  0  0  0  0
 16 27  2  0  0  0  0
 16 28  1  0  0  0  0
 17 19  2  0  0  0  0
 17 33  1  0  0  0  0
 18 20  2  0  0  0  0
 18 34  1  0  0  0  0
 19 48  1  0  0  0  0
 20 35  1  0  0  0  0
 21 80  1  0  0  0  0
 22 81  1  0  0  0  0
 23 25  2  0  0  0  0
 23 80  1  0  0  0  0
 24 82  1  0  0  0  0
 25 83  1  0  0  0  0
 26 63  2  0  0  0  0
 27 64  1  0  0  0  0
 27 68  1  0  0  0  0
 28 69  1  0  0  0  0
 28 75  2  0  0  0  0
 29 49  1  0  0  0  0
 29 70  1  0  0  0  0
 29 76  2  0  0  0  0
 30 60  1  0  0  0  0
 30 65  1  0  0  0  0
 30 77  2  0  0  0  0
 31 61  1  0  0  0  0
 31 71  1  0  0  0  0
 31 78  2  0  0  0  0
 32 66  1  0  0  0  0
 32 67  1  0  0  0  0
 32 79  2  0  0  0  0
 33 36  1  0  0  0  0
 34 49  1  0  0  0  0
 35 65  1  0  0  0  0
 36 38  1  0  0  0  0
 37 39  1  0  0  0  0
 37 42  1  0  0  0  0
 38 48  1  0  0  0  0
 39 50  1  0  0  0  0
 40 46  1  0  0  0  0
 40 51  1  0  0  0  0
 41 47  1  0  0  0  0
 41 51  1  0  0  0  0
 42 66  1  0  0  0  0
 43 50  1  0  0  0  0
 43 66  1  0  0  0  0
 44 52  1  0  0  0  0
 44 67  1  0  0  0  0
 45 52  1  0  0  0  0
 45 67  1  0  0  0  0
 46 72  1  0  0  0  0
 47 72  1  0  0  0  0
 48 70  1  0  0  0  0
 49 65  1  0  0  0  0
 50 64  1  0  0  0  0
 51 73  1  0  0  0  0
 52 73  1  0  0  0  0
 53 61  1  0  0  0  0
 54 62  1  0  0  0  0
 55 62  1  0  0  0  0
 56 62  1  0  0  0  0
 57 74  1  0  0  0  0
 58 59  1  0  0  0  0
 58 72  1  0  0  0  0
 59 81  1  0  0  0  0
 60 62  1  0  0  0  0
 60 71  1  0  0  0  0
 61 74  1  0  0  0  0
 63 64  1  0  0  0  0
M  CHG  3  72   1  73   1  74   1
M  ISO  4  32 100  59 101  67 100  81 101
M  END
> <Batch ID>
0188

> <Smiles>
CNC(C)C(=O)NC(C(=O)N1Cc2cc([101O:1][101CH2:1]CN3CCC(NC4C[100N:0]([100C:0](=O)N5CCCC(n6nc(-c7ccc(Oc8ccc(F)cc8F)cc7)c(C(N)=O)c6N)C5)C4)CC3)ccc2CC1C(=O)NC1CCCc2ccccc21)C(C)(C)C

> <Shape>
0.371

> <Color>
0.091

> <Negative vol penalty>
0.000

$$$$

  -OEChem-04052323193D

 85 94  0     1  0  0  0  0  0999 V2000
  -19.9882  -28.3249   27.0006 C   0  0  0  0  0  0  0  0  0  0  0  0
  -21.2452  -27.9863   26.5101 C   0  0  0  0  0  0  0  0  0  0  0  0
  -25.7057  -13.5961   21.1682 C   0  0  0  0  0  0  0  0  0  0  0  0
  -26.1653  -12.1815   19.2643 C   0  0  0  0  0  0  0  0  0  0  0  0
  -18.9353  -28.5564   26.1165 C   0  0  0  0  0  0  0  0  0  0  0  0
  -21.4498  -27.8781   25.1350 C   0  0  0  0  0  0  0  0  0  0  0  0
  -26.5352  -29.3252   22.0445 C   0  0  0  0  0  0  0  0  0  0  0  0
  -24.9523  -12.5742   21.7456 C   0  0  0  0  0  0  0  0  0  0  0  0
  -25.4119  -11.1595   19.8417 C   0  0  0  0  0  0  0  0  0  0  0  0
  -27.5935  -28.5539   21.5660 C   0  0  0  0  0  0  0  0  0  0  0  0
  -25.8204   -8.8190   22.2449 C   0  0  0  0  0  0  0  0  0  0  0  0
  -26.3543   -7.5305   22.2229 C   0  0  0  0  0  0  0  0  0  0  0  0
  -26.5288  -28.4450   19.4042 C   0  0  0  0  0  0  0  0  0  0  0  0
  -24.4449   -6.7610   20.9583 C   0  0  0  0  0  0  0  0  0  0  0  0
  -26.3122  -13.3998   19.9274 C   0  0  0  0  0  0  0  0  0  0  0  0
  -28.4693  -14.6892   19.4890 C   0  0  0  0  0  0  0  0  0  0  0  0
  -19.1295  -28.4604   24.7295 C   0  0  0  0  0  0  0  0  0  0  0  0
  -25.4586  -29.6535   21.2080 C   0  0  0  0  0  0  0  0  0  0  0  0
  -20.3982  -28.1072   24.2315 C   0  0  0  0  0  0  0  0  0  0  0  0
  -25.4593  -29.2227   19.8737 C   0  0  0  0  0  0  0  0  0  0  0  0
  -24.8054  -11.3559   21.0825 C   0  0  0  0  0  0  0  0  0  0  0  0
  -27.5890  -28.1113   20.2465 C   0  0  0  0  0  0  0  0  0  0  0  0
  -24.5987   -9.0784   21.6237 C   0  0  0  0  0  0  0  0  0  0  0  0
  -25.6665   -6.5015   21.5796 C   0  0  0  0  0  0  0  0  0  0  0  0
  -23.9110   -8.0495   20.9804 C   0  0  0  0  0  0  0  0  0  0  0  0
  -27.0902  -14.4553   19.3301 C   0  0  0  0  0  0  0  0  0  0  0  0
  -32.6275  -24.9193   18.7844 C   0  0  0  0  0  0  0  0  0  0  0  0
  -31.4498  -24.3102   19.1341 C   0  0  0  0  0  0  0  0  0  0  0  0
  -28.7195  -15.8010   18.7223 C   0  0  0  0  0  0  0  0  0  0  0  0
  -30.7314  -26.2680   20.0005 C   0  0  0  0  0  0  0  0  0  0  0  0
  -29.4375  -13.9662   20.2605 C   0  0  0  0  0  0  0  0  0  0  0  0
  -22.3361  -29.0592   21.2330 C   0  0  0  0  0  0  0  0  0  0  0  0
  -22.3279  -31.0721   18.6892 C   0  0  0  0  0  0  0  0  0  0  0  0
  -24.0578  -32.4925   16.1131 C   0  0  0  0  0  0  0  0  0  0  0  0
  -27.1162  -21.0236   17.2971 C   0  0  0  0  0  0  0  0  0  0  0  0
  -17.9494  -28.6735   23.8148 C   0  0  0  0  0  0  0  0  0  0  0  0
  -24.3376  -30.5087   21.7318 C   0  0  0  0  0  0  0  0  0  0  0  0
  -24.3370  -29.5650   18.9293 C   0  0  0  0  0  0  0  0  0  0  0  0
  -18.3421  -28.9051   22.3579 C   0  0  0  0  0  0  0  0  0  0  0  0
  -25.8327  -18.1999   15.3344 C   0  0  0  0  0  0  0  0  0  0  0  0
  -19.3821  -27.8805   21.9160 C   0  0  0  0  0  0  0  0  0  0  0  0
  -26.1185  -17.0007   16.2393 C   0  0  0  0  0  0  0  0  0  0  0  0
  -30.3004  -20.7233   19.1101 C   0  0  0  0  0  0  0  0  0  0  0  0
  -25.5844  -19.4752   16.1367 C   0  0  0  0  0  0  0  0  0  0  0  0
  -28.8809  -20.1868   18.9573 C   0  0  0  0  0  0  0  0  0  0  0  0
  -26.9235  -18.6028   18.0126 C   0  0  0  0  0  0  0  0  0  0  0  0
  -28.9802  -22.4346   18.1191 C   0  0  0  0  0  0  0  0  0  0  0  0
  -20.6658  -28.0043   22.7456 C   0  0  1  0  0  0  0  0  0  0  0  0
  -23.0445  -30.3510   20.9378 C   0  0  1  0  0  0  0  0  0  0  0  0
  -27.2459  -17.3163   17.2400 C   0  0  1  0  0  0  0  0  0  0  0  0
  -30.0722  -22.2301   19.1583 C   0  0  2  0  0  0  0  0  0  0  0  0
  -34.5234  -23.2986   19.0406 C   0  0  0  0  0  0  0  0  0  0  0  0
  -23.7729  -34.0685   14.1811 C   0  0  0  0  0  0  0  0  0  0  0  0
  -20.8786  -28.8893   17.1256 C   0  0  0  0  0  0  0  0  0  0  0  0
  -21.4651  -30.1067   15.0180 C   0  0  0  0  0  0  0  0  0  0  0  0
  -20.0180  -31.2036   16.7284 C   0  0  0  0  0  0  0  0  0  0  0  0
  -26.0681  -34.3729   17.2003 C   0  0  0  0  0  0  0  0  0  0  0  0
  -33.7277  -24.1927   18.0918 C   0  0  0  0  0  0  0  0  0  0  0  0
  -29.6744  -27.0581   20.6913 C   0  0  0  0  0  0  0  0  0  1  0  0
  -22.4850  -30.9093   17.1966 C   0  0  1  0  0  0  0  0  0  0  0  0
  -24.1646  -33.9324   15.6443 C   0  0  2  0  0  0  0  0  0  0  0  0
  -21.2320  -30.2690   16.5352 C   0  0  0  0  0  0  0  0  0  0  0  0
  -26.5052  -15.3470   18.5258 N   0  0  0  0  0  0  0  0  0  0  0  0
  -32.8382  -26.2200   19.0562 N   0  0  0  0  0  0  0  0  0  0  0  0
  -30.4651  -24.9763   19.7559 N   0  0  0  0  0  0  0  0  0  0  0  0
  -31.8676  -26.9184   19.6812 N   0  0  0  0  0  0  0  0  0  0  0  0
  -27.5217  -16.1520   18.1725 N   0  0  0  0  0  0  0  0  0  0  0  0
  -23.2607  -30.3983   19.4903 N   0  0  0  0  0  0  0  0  0  0  0  0
  -26.6680  -19.7144   17.0902 N   0  0  0  0  0  0  0  0  0  0  0  0
  -28.1852  -21.2101   18.1725 N   0  0  0  0  0  0  0  0  0  0  0  0
  -29.8451  -16.5029   18.4716 N   0  0  0  0  0  0  0  0  0  0  0  0
  -29.0108  -12.8477   20.9895 N   0  0  0  0  0  0  0  0  0  0  0  0
  -31.2661  -22.9665   18.8372 N   0  0  0  0  0  0  0  0  0  0  0  0
  -21.4531  -29.1313   22.2934 N   0  0  0  0  0  0  0  0  0  0  0  0
  -22.8271  -32.2285   16.6760 N   0  0  0  0  0  0  0  0  0  0  0  0
  -25.5610  -34.4273   15.8050 N   0  3  0  0  0  0  0  0  0  0  0  0
  -30.6422  -14.3116   20.3154 O   0  0  0  0  0  0  0  0  0  0  0  0
  -22.5721  -28.0706   20.5483 O   0  0  0  0  0  0  0  0  0  0  0  0
  -21.4157  -31.7770   19.1280 O   0  0  0  0  0  0  0  0  0  0  0  0
  -24.9733  -31.6819   15.9888 O   0  0  0  0  0  0  0  0  0  0  0  0
  -26.6147  -21.9794   16.6905 O   0  0  0  0  0  0  0  0  0  0  0  0
  -24.0704  -10.3583   21.6458 O   0  0  0  0  0  0  0  0  0  0  0  0
  -28.6273  -27.3527   19.7740 O   0  0  0  0  0  0  0  0  0  1  0  0
  -26.1801   -5.2646   21.5572 F   0  0  0  0  0  0  0  0  0  0  0  0
  -22.7375   -8.2929   20.3808 F   0  0  0  0  0  0  0  0  0  0  0  0
  1  2  1  0  0  0  0
  1  5  2  0  0  0  0
  2  6  2  0  0  0  0
  3  8  2  0  0  0  0
  3 15  1  0  0  0  0
  4  9  1  0  0  0  0
  4 15  2  0  0  0  0
  5 17  1  0  0  0  0
  6 19  1  0  0  0  0
  7 10  2  0  0  0  0
  7 18  1  0  0  0  0
  8 21  1  0  0  0  0
  9 21  2  0  0  0  0
 10 22  1  0  0  0  0
 11 12  2  0  0  0  0
 11 23  1  0  0  0  0
 12 24  1  0  0  0  0
 13 20  1  0  0  0  0
 13 22  2  0  0  0  0
 14 24  2  0  0  0  0
 14 25  1  0  0  0  0
 15 26  1  0  0  0  0
 16 26  1  0  0  0  0
 16 29  2  0  0  0  0
 16 31  1  0  0  0  0
 17 19  2  0  0  0  0
 17 36  1  0  0  0  0
 18 20  2  0  0  0  0
 18 37  1  0  0  0  0
 19 48  1  0  0  0  0
 20 38  1  0  0  0  0
 21 82  1  0  0  0  0
 22 83  1  0  0  0  0
 23 25  2  0  0  0  0
 23 82  1  0  0  0  0
 24 84  1  0  0  0  0
 25 85  1  0  0  0  0
 26 63  2  0  0  0  0
 27 28  2  0  0  0  0
 27 58  1  0  0  0  0
 27 64  1  0  0  0  0
 28 65  1  0  0  0  0
 28 73  1  0  0  0  0
 29 67  1  0  0  0  0
 29 71  1  0  0  0  0
 30 59  1  0  0  0  0
 30 65  2  0  0  0  0
 30 66  1  0  0  0  0
 31 72  1  0  0  0  0
 31 77  2  0  0  0  0
 32 49  1  0  0  0  0
 32 74  1  0  0  0  0
 32 78  2  0  0  0  0
 33 60  1  0  0  0  0
 33 68  1  0  0  0  0
 33 79  2  0  0  0  0
 34 61  1  0  0  0  0
 34 75  1  0  0  0  0
 34 80  2  0  0  0  0
 35 69  1  0  0  0  0
 35 70  1  0  0  0  0
 35 81  2  0  0  0  0
 36 39  1  0  0  0  0
 37 49  1  0  0  0  0
 38 68  1  0  0  0  0
 39 41  1  0  0  0  0
 40 42  1  0  0  0  0
 40 44  1  0  0  0  0
 41 48  1  0  0  0  0
 42 50  1  0  0  0  0
 43 45  1  0  0  0  0
 43 51  1  0  0  0  0
 44 69  1  0  0  0  0
 45 70  1  0  0  0  0
 46 50  1  0  0  0  0
 46 69  1  0  0  0  0
 47 51  1  0  0  0  0
 47 70  1  0  0  0  0
 48 74  1  0  0  0  0
 49 68  1  0  0  0  0
 50 67  1  0  0  0  0
 51 73  1  0  0  0  0
 52 58  1  0  0  0  0
 53 61  1  0  0  0  0
 54 62  1  0  0  0  0
 55 62  1  0  0  0  0
 56 62  1  0  0  0  0
 57 76  1  0  0  0  0
 59 83  1  0  0  0  0
 60 62  1  0  0  0  0
 60 75  1  0  0  0  0
 61 76  1  0  0  0  0
 63 67  1  0  0  0  0
 64 66  2  0  0  0  0
M  CHG  1  76   1
M  ISO  4  35 100  59 101  70 100  83 101
M  END
> <Batch ID>
0188

> <Smiles>
CCc1nnc([101CH2:1][101O:1]c2ccc3c(c2)CN(C(=O)C(NC(=O)C(C)NC)C(C)(C)C)C(C(=O)NC2CCCc4ccccc42)C3)nc1NC1CC[100N:0]([100C:0](=O)N2CCCC(n3nc(-c4ccc(Oc5ccc(F)cc5F)cc4)c(C(N)=O)c3N)C2)C1

> <Shape>
0.242

> <Color>
0.087

> <Negative vol penalty>
0.000

$$$$

  -OEChem-04052323192D

  0  0  0     0  0  0  0  0  0999 V2000
M  END
$$$$

  -OEChem-04052323193D

 83 92  0     1  0  0  0  0  0999 V2000
  -23.5748  -30.9583   13.2933 C   0  0  0  0  0  0  0  0  0  0  0  0
  -24.4708  -30.2880   14.1200 C   0  0  0  0  0  0  0  0  0  0  0  0
  -23.5065   -9.7160   19.8992 C   0  0  0  0  0  0  0  0  0  0  0  0
  -24.0105   -9.8617   22.2576 C   0  0  0  0  0  0  0  0  0  0  0  0
  -23.1787  -32.2582   13.6054 C   0  0  0  0  0  0  0  0  0  0  0  0
  -24.9722  -30.9178   15.2586 C   0  0  0  0  0  0  0  0  0  0  0  0
  -24.9399  -27.8966   19.3227 C   0  0  0  0  0  0  0  0  0  0  0  0
  -23.3287   -8.3380   20.0223 C   0  0  0  0  0  0  0  0  0  0  0  0
  -23.8326   -8.4837   22.3807 C   0  0  0  0  0  0  0  0  0  0  0  0
  -25.9516  -26.9417   19.4142 C   0  0  0  0  0  0  0  0  0  0  0  0
  -21.2485   -6.3180   22.6101 C   0  0  0  0  0  0  0  0  0  0  0  0
  -20.5001   -5.8569   23.6931 C   0  0  0  0  0  0  0  0  0  0  0  0
  -27.1523  -28.3690   20.9439 C   0  0  0  0  0  0  0  0  0  0  0  0
  -22.4073   -4.5957   24.4739 C   0  0  0  0  0  0  0  0  0  0  0  0
  -23.8474  -10.4778   21.0169 C   0  0  0  0  0  0  0  0  0  0  0  0
  -23.0526  -12.9017   21.0379 C   0  0  0  0  0  0  0  0  0  0  0  0
  -23.6680  -32.9006   14.7536 C   0  0  0  0  0  0  0  0  0  0  0  0
  -25.0323  -29.1017   20.0338 C   0  0  0  0  0  0  0  0  0  0  0  0
  -24.5833  -32.2280   15.5856 C   0  0  0  0  0  0  0  0  0  0  0  0
  -26.1393  -29.3366   20.8617 C   0  0  0  0  0  0  0  0  0  0  0  0
  -23.4917   -7.7218   21.2630 C   0  0  0  0  0  0  0  0  0  0  0  0
  -27.0594  -27.1790   20.2226 C   0  0  0  0  0  0  0  0  0  0  0  0
  -22.5762   -5.9180   22.4589 C   0  0  0  0  0  0  0  0  0  0  0  0
  -21.0795   -4.9958   24.6250 C   0  0  0  0  0  0  0  0  0  0  0  0
  -23.1556   -5.0569   23.3908 C   0  0  0  0  0  0  0  0  0  0  0  0
  -24.0318  -11.9012   20.8902 C   0  0  0  0  0  0  0  0  0  0  0  0
  -23.7281  -14.0779   20.8217 C   0  0  0  0  0  0  0  0  0  0  0  0
  -31.2165  -23.6284   19.4867 C   0  0  0  0  0  0  0  0  0  0  0  0
  -29.0570  -24.1485   19.8070 C   0  0  0  0  0  0  0  0  0  0  0  0
  -29.9297  -22.3274   20.7862 C   0  0  0  0  0  0  0  0  0  0  0  0
  -21.6571  -12.7789   21.3432 C   0  0  0  0  0  0  0  0  0  0  0  0
  -25.1798  -32.1739   19.2317 C   0  0  0  0  0  0  0  0  0  0  0  0
  -24.9701  -32.6194   22.4379 C   0  0  0  0  0  0  0  0  0  0  0  0
  -25.4443  -31.3617   25.5748 C   0  0  0  0  0  0  0  0  0  0  0  0
  -28.1085  -17.2481   21.9109 C   0  0  0  0  0  0  0  0  0  0  0  0
  -23.2475  -34.3235   15.0242 C   0  0  0  0  0  0  0  0  0  0  0  0
  -23.9198  -30.1101   19.9452 C   0  0  0  0  0  0  0  0  0  0  0  0
  -26.2764  -30.6055   21.6614 C   0  0  0  0  0  0  0  0  0  0  0  0
  -23.5357  -34.7830   16.4511 C   0  0  0  0  0  0  0  0  0  0  0  0
  -28.3520  -14.9524   19.0215 C   0  0  0  0  0  0  0  0  0  0  0  0
  -24.9514  -34.3913   16.8624 C   0  0  0  0  0  0  0  0  0  0  0  0
  -27.1951  -14.0004   19.3075 C   0  0  0  0  0  0  0  0  0  0  0  0
  -29.0081  -15.4627   20.3039 C   0  0  0  0  0  0  0  0  0  0  0  0
  -26.8840  -15.1313   21.5421 C   0  0  0  0  0  0  0  0  0  0  0  0
  -28.5970  -20.4423   21.7867 C   0  0  0  0  0  0  0  0  0  0  0  0
  -30.6695  -20.1017   21.6969 C   0  0  0  0  0  0  0  0  0  0  0  0
  -25.1301  -32.8684   16.8430 C   0  0  1  0  0  0  0  0  0  0  0  0
  -24.3633  -31.5229   20.3121 C   0  0  1  0  0  0  0  0  0  0  0  0
  -26.1831  -14.6510   20.2623 C   0  0  2  0  0  0  0  0  0  0  0  0
  -29.4982  -19.3060   22.2902 C   0  0  0  0  0  0  0  0  0  0  0  0
  -32.5381  -23.9277   18.8656 C   0  0  0  0  0  0  0  0  0  0  0  0
  -25.2175  -31.9742   27.9978 C   0  0  0  0  0  0  0  0  0  0  0  0
  -27.4895  -34.3291   22.2391 C   0  0  0  0  0  0  0  0  0  0  0  0
  -27.7459  -34.1159   24.7204 C   0  0  0  0  0  0  0  0  0  0  0  0
  -25.7309  -35.2366   23.7682 C   0  0  0  0  0  0  0  0  0  0  0  0
  -23.5000  -29.1844   26.0630 C   0  0  0  0  0  0  0  0  0  0  0  0
  -27.8865  -25.0523   19.5528 C   0  0  0  0  0  0  0  0  0  1  0  0
  -25.9635  -32.7269   23.5696 C   0  0  1  0  0  0  0  0  0  0  0  0
  -24.5423  -31.3329   26.7955 C   0  0  2  0  0  0  0  0  0  0  0  0
  -26.7311  -34.0789   23.5579 C   0  0  0  0  0  0  0  0  0  0  0  0
  -25.2376  -12.3984   20.6023 N   0  0  0  0  0  0  0  0  0  0  0  0
  -30.2152  -24.4808   19.2146 N   0  0  0  0  0  0  0  0  0  0  0  0
  -31.1484  -22.5337   20.2616 N   0  0  0  0  0  0  0  0  0  0  0  0
  -28.8395  -23.0899   20.6038 N   0  0  0  0  0  0  0  0  0  0  0  0
  -25.0205  -13.7242   20.5673 N   0  0  0  0  0  0  0  0  0  0  0  0
  -29.7792  -21.1937   21.6137 N   0  0  0  0  0  0  0  0  0  0  0  0
  -25.1655  -31.5634   21.5365 N   0  0  0  0  0  0  0  0  0  0  0  0
  -28.0168  -16.0151   21.2407 N   0  0  0  0  0  0  0  0  0  0  0  0
  -23.3367  -15.3699   20.8263 N   0  0  0  0  0  0  0  0  0  0  0  0
  -21.1255  -11.4964   21.5353 N   0  0  0  0  0  0  0  0  0  0  0  0
  -24.5283  -32.2738   18.0172 N   0  0  0  0  0  0  0  0  0  0  0  0
  -25.2140  -32.4759   24.7958 N   0  0  0  0  0  0  0  0  0  0  0  0
  -29.2546  -17.9947   21.6553 N   0  0  0  0  0  0  0  0  0  0  0  0
  -24.1917  -29.9278   27.1474 N   0  3  0  0  0  0  0  0  0  0  0  0
  -20.9004  -13.7759   21.4266 O   0  0  0  0  0  0  0  0  0  0  0  0
  -26.3161  -32.5586   19.4819 O   0  0  0  0  0  0  0  0  0  0  0  0
  -24.0503  -33.4378   22.3608 O   0  0  0  0  0  0  0  0  0  0  0  0
  -26.2730  -30.4855   25.3382 O   0  0  0  0  0  0  0  0  0  0  0  0
  -27.2390  -17.6571   22.6880 O   0  0  0  0  0  0  0  0  0  0  0  0
  -23.3180   -6.3773   21.3836 O   0  0  0  0  0  0  0  0  0  0  0  0
  -28.0486  -26.2489   20.3132 O   0  0  0  0  0  0  0  0  0  1  0  0
  -20.3613   -4.5543   25.6659 F   0  0  0  0  0  0  0  0  0  0  0  0
  -24.4310   -4.6700   23.2515 F   0  0  0  0  0  0  0  0  0  0  0  0
  1  2  1  0  0  0  0
  1  5  2  0  0  0  0
  2  6  2  0  0  0  0
  3  8  2  0  0  0  0
  3 15  1  0  0  0  0
  4  9  1  0  0  0  0
  4 15  2  0  0  0  0
  5 17  1  0  0  0  0
  6 19  1  0  0  0  0
  7 10  2  0  0  0  0
  7 18  1  0  0  0  0
  8 21  1  0  0  0  0
  9 21  2  0  0  0  0
 10 22  1  0  0  0  0
 11 12  2  0  0  0  0
 11 23  1  0  0  0  0
 12 24  1  0  0  0  0
 13 20  1  0  0  0  0
 13 22  2  0  0  0  0
 14 24  2  0  0  0  0
 14 25  1  0  0  0  0
 15 26  1  0  0  0  0
 16 26  1  0  0  0  0
 16 27  2  0  0  0  0
 16 31  1  0  0  0  0
 17 19  2  0  0  0  0
 17 36  1  0  0  0  0
 18 20  2  0  0  0  0
 18 37  1  0  0  0  0
 19 47  1  0  0  0  0
 20 38  1  0  0  0  0
 21 80  1  0  0  0  0
 22 81  1  0  0  0  0
 23 25  2  0  0  0  0
 23 80  1  0  0  0  0
 24 82  1  0  0  0  0
 25 83  1  0  0  0  0
 26 61  2  0  0  0  0
 27 65  1  0  0  0  0
 27 69  1  0  0  0  0
 28 51  1  0  0  0  0
 28 62  2  0  0  0  0
 28 63  1  0  0  0  0
 29 57  1  0  0  0  0
 29 62  1  0  0  0  0
 29 64  2  0  0  0  0
 30 63  2  0  0  0  0
 30 64  1  0  0  0  0
 30 66  1  0  0  0  0
 31 70  1  0  0  0  0
 31 75  2  0  0  0  0
 32 48  1  0  0  0  0
 32 71  1  0  0  0  0
 32 76  2  0  0  0  0
 33 58  1  0  0  0  0
 33 67  1  0  0  0  0
 33 77  2  0  0  0  0
 34 59  1  0  0  0  0
 34 72  1  0  0  0  0
 34 78  2  0  0  0  0
 35 68  1  0  0  0  0
 35 73  1  0  0  0  0
 35 79  2  0  0  0  0
 36 39  1  0  0  0  0
 37 48  1  0  0  0  0
 38 67  1  0  0  0  0
 39 41  1  0  0  0  0
 40 42  1  0  0  0  0
 40 43  1  0  0  0  0
 41 47  1  0  0  0  0
 42 49  1  0  0  0  0
 43 68  1  0  0  0  0
 44 49  1  0  0  0  0
 44 68  1  0  0  0  0
 45 50  1  0  0  0  0
 45 66  1  0  0  0  0
 46 50  1  0  0  0  0
 46 66  1  0  0  0  0
 47 71  1  0  0  0  0
 48 67  1  0  0  0  0
 49 65  1  0  0  0  0
 50 73  1  0  0  0  0
 52 59  1  0  0  0  0
 53 60  1  0  0  0  0
 54 60  1  0  0  0  0
 55 60  1  0  0  0  0
 56 74  1  0  0  0  0
 57 81  1  0  0  0  0
 58 60  1  0  0  0  0
 58 72  1  0  0  0  0
 59 74  1  0  0  0  0
 61 65  1  0  0  0  0
M  CHG  1  74   1
M  ISO  4  35 100  57 101  73 100  81 101
M  END
> <Batch ID>
0188

> <Smiles>
CNC(C)C(=O)NC(C(=O)N1Cc2cc([101O:1][101CH2:1]c3nc(C)nc(N4CC([100NH:0][100C:0](=O)N5CCCC(n6nc(-c7ccc(Oc8ccc(F)cc8F)cc7)c(C(N)=O)c6N)C5)C4)n3)ccc2CC1C(=O)NC1CCCc2ccccc21)C(C)(C)C

> <Shape>
0.311

> <Color>
0.106

> <Negative vol penalty>
0.000

$$$$

  -OEChem-04052323193D

 84 93  0     1  0  0  0  0  0999 V2000
  -26.0290  -38.4925   22.2930 C   0  0  0  0  0  0  0  0  0  0  0  0
  -26.7218  -37.5864   21.4966 C   0  0  0  0  0  0  0  0  0  0  0  0
  -21.3572  -10.3507   21.9502 C   0  0  0  0  0  0  0  0  0  0  0  0
  -23.7346   -9.9462   21.8039 C   0  0  0  0  0  0  0  0  0  0  0  0
  -25.3713  -38.0501   23.4400 C   0  0  0  0  0  0  0  0  0  0  0  0
  -26.7582  -36.2373   21.8473 C   0  0  0  0  0  0  0  0  0  0  0  0
  -26.9878  -29.7088   18.9074 C   0  0  0  0  0  0  0  0  0  0  0  0
  -21.1113   -9.0059   21.6730 C   0  0  0  0  0  0  0  0  0  0  0  0
  -23.4888   -8.6014   21.5268 C   0  0  0  0  0  0  0  0  0  0  0  0
  -27.7229  -28.5257   18.9677 C   0  0  0  0  0  0  0  0  0  0  0  0
  -22.6678   -5.8140   23.2520 C   0  0  0  0  0  0  0  0  0  0  0  0
  -23.4351   -4.8641   23.9262 C   0  0  0  0  0  0  0  0  0  0  0  0
  -26.4836  -27.8628   20.9283 C   0  0  0  0  0  0  0  0  0  0  0  0
  -24.2658   -4.0361   21.8140 C   0  0  0  0  0  0  0  0  0  0  0  0
  -31.1236  -24.5917   19.3910 C   0  0  0  0  0  0  0  0  0  0  0  0
  -22.6688  -10.8208   22.0156 C   0  0  0  0  0  0  0  0  0  0  0  0
  -23.1016  -12.7986   23.5677 C   0  0  0  0  0  0  0  0  0  0  0  0
  -25.3915  -36.6933   23.7997 C   0  0  0  0  0  0  0  0  0  0  0  0
  -26.0009  -29.9833   19.8651 C   0  0  0  0  0  0  0  0  0  0  0  0
  -26.1012  -35.7764   23.0009 C   0  0  0  0  0  0  0  0  0  0  0  0
  -25.7357  -29.0490   20.8764 C   0  0  0  0  0  0  0  0  0  0  0  0
  -22.1771   -8.1313   21.4613 C   0  0  0  0  0  0  0  0  0  0  0  0
  -27.4728  -27.6038   19.9799 C   0  0  0  0  0  0  0  0  0  0  0  0
  -22.6994   -5.8749   21.8588 C   0  0  0  0  0  0  0  0  0  0  0  0
  -24.2341   -3.9752   23.2072 C   0  0  0  0  0  0  0  0  0  0  0  0
  -23.4984   -4.9860   21.1398 C   0  0  0  0  0  0  0  0  0  0  0  0
  -22.9234  -12.2099   22.3014 C   0  0  0  0  0  0  0  0  0  0  0  0
  -29.8208  -24.9429   19.1758 C   0  0  0  0  0  0  0  0  0  0  0  0
  -23.3125  -14.1293   23.3012 C   0  0  0  0  0  0  0  0  0  0  0  0
  -29.9255  -22.7339   19.2754 C   0  0  0  0  0  0  0  0  0  0  0  0
  -23.0787  -12.1962   24.8686 C   0  0  0  0  0  0  0  0  0  0  0  0
  -25.5706  -32.2433   22.0584 C   0  0  0  0  0  0  0  0  0  0  0  0
  -22.7051  -30.7737   22.4478 C   0  0  0  0  0  0  0  0  0  0  0  0
  -20.8383  -27.9345   22.1301 C   0  0  0  0  0  0  0  0  0  0  0  0
  -25.5958  -18.1548   20.5785 C   0  0  0  0  0  0  0  0  0  0  0  0
  -24.7053  -36.2699   25.0743 C   0  0  0  0  0  0  0  0  0  0  0  0
  -25.1984  -31.2519   19.7705 C   0  0  0  0  0  0  0  0  0  0  0  0
  -24.6730  -29.2868   21.9169 C   0  0  0  0  0  0  0  0  0  0  0  0
  -24.4788  -34.7635   25.1726 C   0  0  0  0  0  0  0  0  0  0  0  0
  -22.7608  -16.7713   19.0315 C   0  0  0  0  0  0  0  0  0  0  0  0
  -25.7456  -34.0068   24.7863 C   0  0  0  0  0  0  0  0  0  0  0  0
  -22.5605  -15.4961   19.8499 C   0  0  0  0  0  0  0  0  0  0  0  0
  -27.3683  -21.1217   20.3608 C   0  0  0  0  0  0  0  0  0  0  0  0
  -28.1485  -19.5192   18.5778 C   0  0  0  0  0  0  0  0  0  0  0  0
  -24.2391  -17.0440   18.7480 C   0  0  0  0  0  0  0  0  0  0  0  0
  -25.9564  -20.5736   20.1904 C   0  0  0  0  0  0  0  0  0  0  0  0
  -26.7221  -18.9792   18.4622 C   0  0  0  0  0  0  0  0  0  0  0  0
  -24.8881  -15.7896   20.7790 C   0  0  0  0  0  0  0  0  0  0  0  0
  -26.1430  -34.3010   23.3348 C   0  0  1  0  0  0  0  0  0  0  0  0
  -24.5707  -31.6623   21.0990 C   0  0  1  0  0  0  0  0  0  0  0  0
  -23.4162  -15.5208   21.1288 C   0  0  2  0  0  0  0  0  0  0  0  0
  -28.1761  -20.9669   19.0704 C   0  0  0  0  0  0  0  0  0  0  0  0
  -18.5392  -27.0294   22.5683 C   0  0  0  0  0  0  0  0  0  0  0  0
  -23.3547  -30.5701   25.4221 C   0  0  0  0  0  0  0  0  0  0  0  0
  -21.5329  -28.8657   25.6321 C   0  0  0  0  0  0  0  0  0  0  0  0
  -20.9864  -31.1905   24.9117 C   0  0  0  0  0  0  0  0  0  0  0  0
  -32.3511  -22.4233   19.6644 C   0  0  0  0  0  0  0  0  0  0  0  0
  -20.3856  -27.3743   19.2595 C   0  0  0  0  0  0  0  0  0  0  0  0
  -29.1838  -26.2542   19.0274 C   0  0  0  0  0  0  0  0  0  1  0  0
  -22.1897  -29.6474   23.3108 C   0  0  1  0  0  0  0  0  0  0  0  0
  -19.4537  -27.6986   21.5541 C   0  0  2  0  0  0  0  0  0  0  0  0
  -22.0374  -30.0645   24.8008 C   0  0  0  0  0  0  0  0  0  0  0  0
  -23.0130  -13.0943   21.3045 N   0  0  0  0  0  0  0  0  0  0  0  0
  -31.1591  -23.2193   19.4488 N   0  0  0  0  0  0  0  0  0  0  0  0
  -23.2498  -14.2522   21.9443 N   0  0  0  0  0  0  0  0  0  0  0  0
  -29.1020  -23.7738   19.1082 N   0  3  0  0  0  0  0  0  0  0  0  0
  -23.9196  -30.5448   21.7856 N   0  0  0  0  0  0  0  0  0  0  0  0
  -25.0214  -17.0173   19.9917 N   0  0  0  0  0  0  0  0  0  0  0  0
  -25.9826  -19.1903   19.7146 N   0  0  0  0  0  0  0  0  0  0  0  0
  -23.5434  -15.1947   24.0974 N   0  0  0  0  0  0  0  0  0  0  0  0
  -22.8491  -10.8168   24.9622 N   0  0  0  0  0  0  0  0  0  0  0  0
  -29.5553  -21.4090   19.2681 N   0  0  0  0  0  0  0  0  0  0  0  0
  -25.3088  -33.5509   22.4205 N   0  0  0  0  0  0  0  0  0  0  0  0
  -20.9519  -29.1900   22.6887 N   0  0  0  0  0  0  0  0  0  0  0  0
  -19.5360  -26.8267   20.3483 N   0  3  0  0  0  0  0  0  0  0  0  0
  -23.2403  -12.8643   25.9179 O   0  0  0  0  0  0  0  0  0  0  0  0
  -26.5092  -31.5556   22.4429 O   0  0  0  0  0  0  0  0  0  0  0  0
  -22.0505  -31.8154   22.3586 O   0  0  0  0  0  0  0  0  0  0  0  0
  -21.7288  -27.0883   22.0918 O   0  0  0  0  0  0  0  0  0  0  0  0
  -25.7544  -18.2404   21.8027 O   0  0  0  0  0  0  0  0  0  0  0  0
  -21.9376   -6.8190   21.1910 O   0  0  0  0  0  0  0  0  0  0  0  0
  -28.1921  -26.4438   20.0417 O   0  0  0  0  0  0  0  0  0  1  0  0
  -24.9722   -3.0641   23.8548 F   0  0  0  0  0  0  0  0  0  0  0  0
  -23.5338   -5.0404   19.8013 F   0  0  0  0  0  0  0  0  0  0  0  0
  1  2  1  0  0  0  0
  1  5  2  0  0  0  0
  2  6  2  0  0  0  0
  3  8  2  0  0  0  0
  3 16  1  0  0  0  0
  4  9  1  0  0  0  0
  4 16  2  0  0  0  0
  5 18  1  0  0  0  0
  6 20  1  0  0  0  0
  7 10  2  0  0  0  0
  7 19  1  0  0  0  0
  8 22  1  0  0  0  0
  9 22  2  0  0  0  0
 10 23  1  0  0  0  0
 11 12  2  0  0  0  0
 11 24  1  0  0  0  0
 12 25  1  0  0  0  0
 13 21  1  0  0  0  0
 13 23  2  0  0  0  0
 14 25  2  0  0  0  0
 14 26  1  0  0  0  0
 15 28  2  0  0  0  0
 15 64  1  0  0  0  0
 16 27  1  0  0  0  0
 17 27  1  0  0  0  0
 17 29  2  0  0  0  0
 17 31  1  0  0  0  0
 18 20  2  0  0  0  0
 18 36  1  0  0  0  0
 19 21  2  0  0  0  0
 19 37  1  0  0  0  0
 20 49  1  0  0  0  0
 21 38  1  0  0  0  0
 22 81  1  0  0  0  0
 23 82  1  0  0  0  0
 24 26  2  0  0  0  0
 24 81  1  0  0  0  0
 25 83  1  0  0  0  0
 26 84  1  0  0  0  0
 27 63  2  0  0  0  0
 28 59  1  0  0  0  0
 28 66  1  0  0  0  0
 29 65  1  0  0  0  0
 29 70  1  0  0  0  0
 30 64  1  0  0  0  0
 30 66  2  0  0  0  0
 30 72  1  0  0  0  0
 31 71  1  0  0  0  0
 31 76  2  0  0  0  0
 32 50  1  0  0  0  0
 32 73  1  0  0  0  0
 32 77  2  0  0  0  0
 33 60  1  0  0  0  0
 33 67  1  0  0  0  0
 33 78  2  0  0  0  0
 34 61  1  0  0  0  0
 34 74  1  0  0  0  0
 34 79  2  0  0  0  0
 35 68  1  0  0  0  0
 35 69  1  0  0  0  0
 35 80  2  0  0  0  0
 36 39  1  0  0  0  0
 37 50  1  0  0  0  0
 38 67  1  0  0  0  0
 39 41  1  0  0  0  0
 40 42  1  0  0  0  0
 40 45  1  0  0  0  0
 41 49  1  0  0  0  0
 42 51  1  0  0  0  0
 43 46  1  0  0  0  0
 43 52  1  0  0  0  0
 44 47  1  0  0  0  0
 44 52  1  0  0  0  0
 45 68  1  0  0  0  0
 46 69  1  0  0  0  0
 47 69  1  0  0  0  0
 48 51  1  0  0  0  0
 48 68  1  0  0  0  0
 49 73  1  0  0  0  0
 50 67  1  0  0  0  0
 51 65  1  0  0  0  0
 52 72  1  0  0  0  0
 53 61  1  0  0  0  0
 54 62  1  0  0  0  0
 55 62  1  0  0  0  0
 56 62  1  0  0  0  0
 57 64  1  0  0  0  0
 58 75  1  0  0  0  0
 59 82  1  0  0  0  0
 60 62  1  0  0  0  0
 60 74  1  0  0  0  0
 61 75  1  0  0  0  0
 63 65  1  0  0  0  0
M  CHG  2  66   1  75   1
M  ISO  4  35 100  59 101  69 100  82 101
M  END
> <Batch ID>
0188

> <Smiles>
CNC(C)C(=O)NC(C(=O)N1Cc2cc([101O:1][101CH2:1]c3cn(C)c(NC4CC[100N:0]([100C:0](=O)N5CCCC(n6nc(-c7ccc(Oc8ccc(F)cc8F)cc7)c(C(N)=O)c6N)C5)CC4)n3)ccc2CC1C(=O)NC1CCCc2ccccc21)C(C)(C)C

> <Shape>
0.289

> <Color>
0.081

> <Negative vol penalty>
0.000

$$$$

  -OEChem-04052323193D

 83 92  0     1  0  0  0  0  0999 V2000
  -31.0225  -11.4063   19.6981 C   0  0  0  0  0  0  0  0  0  0  0  0
  -30.7669  -12.7452   19.4200 C   0  0  0  0  0  0  0  0  0  0  0  0
  -19.8482  -25.8484   20.2367 C   0  0  0  0  0  0  0  0  0  0  0  0
  -21.5363  -24.2492   20.8923 C   0  0  0  0  0  0  0  0  0  0  0  0
  -29.9769  -10.5595   20.0638 C   0  0  0  0  0  0  0  0  0  0  0  0
  -29.4653  -13.2379   19.5062 C   0  0  0  0  0  0  0  0  0  0  0  0
  -29.2290  -17.6912   21.9057 C   0  0  0  0  0  0  0  0  0  0  0  0
  -19.1867  -24.8545   19.5155 C   0  0  0  0  0  0  0  0  0  0  0  0
  -20.8747  -23.2552   20.1712 C   0  0  0  0  0  0  0  0  0  0  0  0
  -29.6023  -18.8240   21.1838 C   0  0  0  0  0  0  0  0  0  0  0  0
  -20.5813  -22.2972   16.9421 C   0  0  0  0  0  0  0  0  0  0  0  0
  -21.3518  -21.4614   16.1337 C   0  0  0  0  0  0  0  0  0  0  0  0
  -27.2771  -19.3318   20.7899 C   0  0  0  0  0  0  0  0  0  0  0  0
  -20.5986  -19.5448   17.3972 C   0  0  0  0  0  0  0  0  0  0  0  0
  -28.9569  -24.3452   18.3551 C   0  0  0  0  0  0  0  0  0  0  0  0
  -21.0230  -25.5457   20.9251 C   0  0  0  0  0  0  0  0  0  0  0  0
  -21.5098  -26.9172   23.0202 C   0  0  0  0  0  0  0  0  0  0  0  0
  -28.6633  -11.0444   20.1639 C   0  0  0  0  0  0  0  0  0  0  0  0
  -27.8749  -17.3637   22.0661 C   0  0  0  0  0  0  0  0  0  0  0  0
  -28.4010  -12.3966   19.8723 C   0  0  0  0  0  0  0  0  0  0  0  0
  -26.8892  -18.1957   21.5165 C   0  0  0  0  0  0  0  0  0  0  0  0
  -19.6999  -23.5579   19.4828 C   0  0  0  0  0  0  0  0  0  0  0  0
  -28.6264  -19.6430   20.6233 C   0  0  0  0  0  0  0  0  0  0  0  0
  -19.8195  -21.7567   17.9781 C   0  0  0  0  0  0  0  0  0  0  0  0
  -21.3604  -20.0853   16.3612 C   0  0  0  0  0  0  0  0  0  0  0  0
  -19.8281  -20.3806   18.2057 C   0  0  0  0  0  0  0  0  0  0  0  0
  -21.7072  -26.5722   21.6697 C   0  0  0  0  0  0  0  0  0  0  0  0
  -29.6679  -25.4044   18.8812 C   0  0  0  0  0  0  0  0  0  0  0  0
  -29.6086  -23.1288   18.3571 C   0  0  0  0  0  0  0  0  0  0  0  0
  -22.3952  -27.9429   23.2454 C   0  0  0  0  0  0  0  0  0  0  0  0
  -31.4461  -24.0581   19.3201 C   0  0  0  0  0  0  0  0  0  0  0  0
  -20.6070  -26.3604   23.9849 C   0  0  0  0  0  0  0  0  0  0  0  0
  -26.0466  -14.9047   21.2211 C   0  0  0  0  0  0  0  0  0  0  0  0
  -23.8131  -16.4610   22.9850 C   0  0  0  0  0  0  0  0  0  0  0  0
  -22.6965  -19.4050   24.3015 C   0  0  0  0  0  0  0  0  0  0  0  0
  -27.5392  -29.4624   20.4183 C   0  0  0  0  0  0  0  0  0  0  0  0
  -27.5586  -10.0802   20.5169 C   0  0  0  0  0  0  0  0  0  0  0  0
  -27.4880  -16.1529   22.8703 C   0  0  0  0  0  0  0  0  0  0  0  0
  -25.4213  -17.8992   21.6771 C   0  0  0  0  0  0  0  0  0  0  0  0
  -26.2657  -10.7671   20.9493 C   0  0  0  0  0  0  0  0  0  0  0  0
  -24.6510  -31.5129   21.0399 C   0  0  0  0  0  0  0  0  0  0  0  0
  -25.9143  -11.8976   19.9874 C   0  0  0  0  0  0  0  0  0  0  0  0
  -23.5369  -30.5150   21.3381 C   0  0  0  0  0  0  0  0  0  0  0  0
  -25.6184  -30.9549   20.0047 C   0  0  0  0  0  0  0  0  0  0  0  0
  -27.5989  -27.0835   19.3241 C   0  0  0  0  0  0  0  0  0  0  0  0
  -29.4092  -27.7368   20.2124 C   0  0  0  0  0  0  0  0  0  0  0  0
  -25.1448  -28.6337   20.7406 C   0  0  0  0  0  0  0  0  0  0  0  0
  -27.0063  -12.9741   19.9789 C   0  0  1  0  0  0  0  0  0  0  0  0
  -29.0910  -26.8785   18.9665 C   0  0  0  0  0  0  0  0  0  0  0  0
  -26.0936  -15.6331   22.5344 C   0  0  1  0  0  0  0  0  0  0  0  0
  -24.1268  -29.1646   21.7694 C   0  0  2  0  0  0  0  0  0  0  0  0
  -32.8284  -23.8987   19.8560 C   0  0  0  0  0  0  0  0  0  0  0  0
  -20.8229  -20.3682   25.6650 C   0  0  0  0  0  0  0  0  0  0  0  0
  -21.9723  -16.3124   20.5562 C   0  0  0  0  0  0  0  0  0  0  0  0
  -20.5420  -18.0706   21.6198 C   0  0  0  0  0  0  0  0  0  0  0  0
  -20.8489  -15.8658   22.7455 C   0  0  0  0  0  0  0  0  0  0  0  0
  -24.5485  -20.2915   26.4328 C   0  0  0  0  0  0  0  0  0  0  0  0
  -28.9116  -21.9106   17.8018 C   0  0  0  0  0  0  0  0  0  0  0  0
  -28.1164  -21.1621   18.8660 C   0  0  0  0  0  0  0  0  0  1  0  0
  -22.7674  -17.5118   22.6999 C   0  0  1  0  0  0  0  0  0  0  0  0
  -22.2200  -19.7682   25.6963 C   0  0  2  0  0  0  0  0  0  0  0  0
  -21.5603  -16.9450   21.9005 C   0  0  0  0  0  0  0  0  0  0  0  0
  -22.6442  -27.3181   21.0785 N   0  0  0  0  0  0  0  0  0  0  0  0
  -30.9191  -25.2962   19.3742 N   0  0  0  0  0  0  0  0  0  0  0  0
  -30.8581  -22.9486   18.8334 N   0  0  0  0  0  0  0  0  0  0  0  0
  -23.0435  -28.1422   22.0621 N   0  0  0  0  0  0  0  0  0  0  0  0
  -25.0936  -16.7006   22.4667 N   0  0  0  0  0  0  0  0  0  0  0  0
  -26.1522  -29.6469   20.3966 N   0  0  0  0  0  0  0  0  0  0  0  0
  -28.0339  -28.2127   20.1283 N   0  0  0  0  0  0  0  0  0  0  0  0
  -22.6746  -28.6847   24.3382 N   0  0  0  0  0  0  0  0  0  0  0  0
  -19.7671  -25.3116   23.5864 N   0  0  0  0  0  0  0  0  0  0  0  0
  -26.8949  -13.8162   21.1507 N   0  0  0  0  0  0  0  0  0  0  0  0
  -22.4101  -18.0928   23.9895 N   0  0  0  0  0  0  0  0  0  0  0  0
  -23.1433  -20.7595   26.3173 N   0  3  0  0  0  0  0  0  0  0  0  0
  -20.5354  -26.7915   25.1607 O   0  0  0  0  0  0  0  0  0  0  0  0
  -25.2951  -15.3000   20.3375 O   0  0  0  0  0  0  0  0  0  0  0  0
  -23.5069  -15.4679   23.6495 O   0  0  0  0  0  0  0  0  0  0  0  0
  -23.2625  -20.2063   23.5612 O   0  0  0  0  0  0  0  0  0  0  0  0
  -28.3183  -30.3938   20.6604 O   0  0  0  0  0  0  0  0  0  0  0  0
  -19.0545  -22.5877   18.7794 O   0  0  0  0  0  0  0  0  0  0  0  0
  -28.9880  -20.7489   19.9177 O   0  0  0  0  0  0  0  0  0  1  0  0
  -22.0991  -19.2827   15.5839 F   0  0  0  0  0  0  0  0  0  0  0  0
  -19.0974  -19.8555   19.1987 F   0  0  0  0  0  0  0  0  0  0  0  0
  1  2  1  0  0  0  0
  1  5  2  0  0  0  0
  2  6  2  0  0  0  0
  3  8  2  0  0  0  0
  3 16  1  0  0  0  0
  4  9  1  0  0  0  0
  4 16  2  0  0  0  0
  5 18  1  0  0  0  0
  6 20  1  0  0  0  0
  7 10  2  0  0  0  0
  7 19  1  0  0  0  0
  8 22  1  0  0  0  0
  9 22  2  0  0  0  0
 10 23  1  0  0  0  0
 11 12  2  0  0  0  0
 11 24  1  0  0  0  0
 12 25  1  0  0  0  0
 13 21  1  0  0  0  0
 13 23  2  0  0  0  0
 14 25  2  0  0  0  0
 14 26  1  0  0  0  0
 15 28  2  0  0  0  0
 15 29  1  0  0  0  0
 16 27  1  0  0  0  0
 17 27  1  0  0  0  0
 17 30  2  0  0  0  0
 17 32  1  0  0  0  0
 18 20  2  0  0  0  0
 18 37  1  0  0  0  0
 19 21  2  0  0  0  0
 19 38  1  0  0  0  0
 20 48  1  0  0  0  0
 21 39  1  0  0  0  0
 22 80  1  0  0  0  0
 23 81  1  0  0  0  0
 24 26  2  0  0  0  0
 24 80  1  0  0  0  0
 25 82  1  0  0  0  0
 26 83  1  0  0  0  0
 27 63  2  0  0  0  0
 28 49  1  0  0  0  0
 28 64  1  0  0  0  0
 29 58  1  0  0  0  0
 29 65  2  0  0  0  0
 30 66  1  0  0  0  0
 30 70  1  0  0  0  0
 31 52  1  0  0  0  0
 31 64  2  0  0  0  0
 31 65  1  0  0  0  0
 32 71  1  0  0  0  0
 32 75  2  0  0  0  0
 33 50  1  0  0  0  0
 33 72  1  0  0  0  0
 33 76  2  0  0  0  0
 34 60  1  0  0  0  0
 34 67  1  0  0  0  0
 34 77  2  0  0  0  0
 35 61  1  0  0  0  0
 35 73  1  0  0  0  0
 35 78  2  0  0  0  0
 36 68  1  0  0  0  0
 36 69  1  0  0  0  0
 36 79  2  0  0  0  0
 37 40  1  0  0  0  0
 38 50  1  0  0  0  0
 39 67  1  0  0  0  0
 40 42  1  0  0  0  0
 41 43  1  0  0  0  0
 41 44  1  0  0  0  0
 42 48  1  0  0  0  0
 43 51  1  0  0  0  0
 44 68  1  0  0  0  0
 45 49  1  0  0  0  0
 45 69  1  0  0  0  0
 46 49  1  0  0  0  0
 46 69  1  0  0  0  0
 47 51  1  0  0  0  0
 47 68  1  0  0  0  0
 48 72  1  0  0  0  0
 50 67  1  0  0  0  0
 51 66  1  0  0  0  0
 53 61  1  0  0  0  0
 54 62  1  0  0  0  0
 55 62  1  0  0  0  0
 56 62  1  0  0  0  0
 57 74  1  0  0  0  0
 58 59  1  0  0  0  0
 59 81  1  0  0  0  0
 60 62  1  0  0  0  0
 60 73  1  0  0  0  0
 61 74  1  0  0  0  0
 63 66  1  0  0  0  0
M  CHG  1  74   1
M  ISO  4  36 100  59 101  69 100  81 101
M  END
> <Batch ID>
0188

> <Smiles>
CNC(C)C(=O)NC(C(=O)N1Cc2cc([101O:1][101CH2:1]Cc3cc(C4C[100N:0]([100C:0](=O)N5CCCC(n6nc(-c7ccc(Oc8ccc(F)cc8F)cc7)c(C(N)=O)c6N)C5)C4)nc(C)n3)ccc2CC1C(=O)NC1CCCc2ccccc21)C(C)(C)C

> <Shape>
0.220

> <Color>
0.082

> <Negative vol penalty>
0.000

$$$$

  -OEChem-04052323193D

 87 96  0     1  0  0  0  0  0999 V2000
  -26.1492  -38.2232   19.2896 C   0  0  0  0  0  0  0  0  0  0  0  0
  -26.3002  -37.0533   18.5519 C   0  0  0  0  0  0  0  0  0  0  0  0
  -24.6177   -8.9835   21.8909 C   0  0  0  0  0  0  0  0  0  0  0  0
  -23.0670   -9.8123   20.2340 C   0  0  0  0  0  0  0  0  0  0  0  0
  -26.3329  -38.2031   20.6715 C   0  0  0  0  0  0  0  0  0  0  0  0
  -26.6361  -35.8629   19.1957 C   0  0  0  0  0  0  0  0  0  0  0  0
  -25.5591  -28.7932   18.7769 C   0  0  0  0  0  0  0  0  0  0  0  0
  -23.5758   -8.3115   22.5299 C   0  0  0  0  0  0  0  0  0  0  0  0
  -22.0250   -9.1403   20.8730 C   0  0  0  0  0  0  0  0  0  0  0  0
  -26.2716  -27.5952   18.7439 C   0  0  0  0  0  0  0  0  0  0  0  0
  -21.8159   -5.4571   22.0959 C   0  0  0  0  0  0  0  0  0  0  0  0
  -22.0428   -4.1403   22.4961 C   0  0  0  0  0  0  0  0  0  0  0  0
  -26.4864  -27.6637   21.1456 C   0  0  0  0  0  0  0  0  0  0  0  0
  -21.6143   -4.7638   24.7906 C   0  0  0  0  0  0  0  0  0  0  0  0
  -24.3633   -9.7340   20.7429 C   0  0  0  0  0  0  0  0  0  0  0  0
  -26.2687   -9.9341   19.0585 C   0  0  0  0  0  0  0  0  0  0  0  0
  -26.6617  -37.0098   21.3338 C   0  0  0  0  0  0  0  0  0  0  0  0
  -25.3139  -29.4421   19.9957 C   0  0  0  0  0  0  0  0  0  0  0  0
  -26.8256  -35.8271   20.5876 C   0  0  0  0  0  0  0  0  0  0  0  0
  -25.7684  -28.8684   21.1917 C   0  0  0  0  0  0  0  0  0  0  0  0
  -28.0034  -22.9095   20.6025 C   0  0  0  0  0  0  0  0  0  0  0  0
  -22.2794   -8.3899   22.0210 C   0  0  0  0  0  0  0  0  0  0  0  0
  -26.7379  -27.0318   19.9280 C   0  0  0  0  0  0  0  0  0  0  0  0
  -21.4882   -6.4273   23.0431 C   0  0  0  0  0  0  0  0  0  0  0  0
  -21.9419   -3.7936   23.8434 C   0  0  0  0  0  0  0  0  0  0  0  0
  -21.3874   -6.0806   24.3904 C   0  0  0  0  0  0  0  0  0  0  0  0
  -25.4391  -10.4288   20.0827 C   0  0  0  0  0  0  0  0  0  0  0  0
  -28.6554  -24.0840   20.9184 C   0  0  0  0  0  0  0  0  0  0  0  0
  -28.8142  -21.8093   20.4117 C   0  0  0  0  0  0  0  0  0  0  0  0
  -27.1229  -10.9721   18.7771 C   0  0  0  0  0  0  0  0  0  0  0  0
  -30.6754  -23.0450   20.8314 C   0  0  0  0  0  0  0  0  0  0  0  0
  -26.2672   -8.6510   18.4188 C   0  0  0  0  0  0  0  0  0  0  0  0
  -26.1012  -32.2619   21.2336 C   0  0  0  0  0  0  0  0  0  0  0  0
  -24.1399  -31.3162   23.6380 C   0  0  0  0  0  0  0  0  0  0  0  0
  -22.6621  -28.7478   25.3310 C   0  0  0  0  0  0  0  0  0  0  0  0
  -26.7293  -16.7235   19.2179 C   0  0  0  0  0  0  0  0  0  0  0  0
  -26.8966  -37.0471   22.8231 C   0  0  0  0  0  0  0  0  0  0  0  0
  -24.5207  -30.7199   20.0169 C   0  0  0  0  0  0  0  0  0  0  0  0
  -25.5141  -29.5149   22.5281 C   0  0  0  0  0  0  0  0  0  0  0  0
  -26.8837  -35.6676   23.4765 C   0  0  0  0  0  0  0  0  0  0  0  0
  -29.1950  -14.7781   20.7911 C   0  0  0  0  0  0  0  0  0  0  0  0
  -27.7273  -34.6864   22.6688 C   0  0  0  0  0  0  0  0  0  0  0  0
  -28.5886  -13.3789   20.6895 C   0  0  0  0  0  0  0  0  0  0  0  0
  -28.1421  -15.8361   21.1249 C   0  0  0  0  0  0  0  0  0  0  0  0
  -28.5555  -19.9270   18.8249 C   0  0  0  0  0  0  0  0  0  0  0  0
  -27.7980  -19.7156   21.1971 C   0  0  0  0  0  0  0  0  0  0  0  0
  -27.4752  -18.9315   18.4104 C   0  0  0  0  0  0  0  0  0  0  0  0
  -26.7242  -18.7348   20.7393 C   0  0  0  0  0  0  0  0  0  0  0  0
  -26.3740  -14.4383   20.1060 C   0  0  0  0  0  0  0  0  0  0  0  0
  -27.1652  -34.5110   21.2529 C   0  0  1  0  0  0  0  0  0  0  0  0
  -24.7734  -31.5593   21.2655 C   0  0  1  0  0  0  0  0  0  0  0  0
  -27.3984  -13.3622   19.7139 C   0  0  2  0  0  0  0  0  0  0  0  0
  -32.1591  -23.1203   20.9586 C   0  0  0  0  0  0  0  0  0  0  0  0
  -21.1428  -28.2852   27.2740 C   0  0  0  0  0  0  0  0  0  0  0  0
  -26.4371  -31.8798   25.5654 C   0  0  0  0  0  0  0  0  0  0  0  0
  -25.2245  -30.5348   27.2942 C   0  0  0  0  0  0  0  0  0  0  0  0
  -24.1887  -32.6117   26.3799 C   0  0  0  0  0  0  0  0  0  0  0  0
  -24.5685  -22.7576   18.9229 C   0  0  0  0  0  0  0  0  0  0  0  0
  -20.6404  -27.4623   23.5934 C   0  0  0  0  0  0  0  0  0  0  0  0
  -26.5213  -22.8442   20.4778 C   0  0  0  0  0  0  0  0  0  0  0  0
  -27.8826  -25.3412   21.1476 C   0  0  0  0  0  0  0  0  0  1  0  0
  -24.3199  -30.5481   24.9251 C   0  0  1  0  0  0  0  0  0  0  0  0
  -21.2272  -28.5277   25.7750 C   0  0  2  0  0  0  0  0  0  0  0  0
  -25.0492  -31.3822   26.0160 C   0  0  0  0  0  0  0  0  0  0  0  0
  -25.7394  -11.6835   20.4286 N   0  0  0  0  0  0  0  0  0  0  0  0
  -29.9950  -24.1880   21.0414 N   0  0  0  0  0  0  0  0  0  0  0  0
  -30.1588  -21.8413   20.5185 N   0  0  0  0  0  0  0  0  0  0  0  0
  -26.7672  -11.9859   19.6173 N   0  0  0  0  0  0  0  0  0  0  0  0
  -28.2105  -20.5873   20.0885 N   0  0  0  0  0  0  0  0  0  0  0  0
  -24.7393  -30.7664   22.4961 N   0  0  0  0  0  0  0  0  0  0  0  0
  -27.0089  -15.7550   20.1935 N   0  0  0  0  0  0  0  0  0  0  0  0
  -27.1093  -18.0435   19.5072 N   0  0  0  0  0  0  0  0  0  0  0  0
  -28.1362  -11.1075   17.8954 N   0  0  0  0  0  0  0  0  0  0  0  0
  -25.3220   -7.7009   18.8291 N   0  0  0  0  0  0  0  0  0  0  0  0
  -26.0094  -33.6402   21.2722 N   0  0  0  0  0  0  0  0  0  0  0  0
  -22.9918  -30.0865   25.3143 N   0  0  0  0  0  0  0  0  0  0  0  0
  -26.0471  -22.7659   19.0674 N   0  3  0  0  0  0  0  0  0  0  0  0
  -20.6433  -27.3489   25.0747 N   0  3  0  0  0  0  0  0  0  0  0  0
  -27.0905   -8.3500   17.5215 O   0  0  0  0  0  0  0  0  0  0  0  0
  -27.1326  -31.6024   21.1795 O   0  0  0  0  0  0  0  0  0  0  0  0
  -23.4852  -32.3617   23.6443 O   0  0  0  0  0  0  0  0  0  0  0  0
  -23.4162  -27.8243   25.0327 O   0  0  0  0  0  0  0  0  0  0  0  0
  -26.1765  -16.4286   18.1510 O   0  0  0  0  0  0  0  0  0  0  0  0
  -21.2625   -7.7340   22.6442 O   0  0  0  0  0  0  0  0  0  0  0  0
  -27.4391  -25.8546   19.8983 O   0  0  0  0  0  0  0  0  0  1  0  0
  -22.1583   -2.5288   24.2273 F   0  0  0  0  0  0  0  0  0  0  0  0
  -21.0718   -7.0080   25.3048 F   0  0  0  0  0  0  0  0  0  0  0  0
  1  2  1  0  0  0  0
  1  5  2  0  0  0  0
  2  6  2  0  0  0  0
  3  8  2  0  0  0  0
  3 15  1  0  0  0  0
  4  9  1  0  0  0  0
  4 15  2  0  0  0  0
  5 17  1  0  0  0  0
  6 19  1  0  0  0  0
  7 10  2  0  0  0  0
  7 18  1  0  0  0  0
  8 22  1  0  0  0  0
  9 22  2  0  0  0  0
 10 23  1  0  0  0  0
 11 12  2  0  0  0  0
 11 24  1  0  0  0  0
 12 25  1  0  0  0  0
 13 20  1  0  0  0  0
 13 23  2  0  0  0  0
 14 25  2  0  0  0  0
 14 26  1  0  0  0  0
 15 27  1  0  0  0  0
 16 27  1  0  0  0  0
 16 30  2  0  0  0  0
 16 32  1  0  0  0  0
 17 19  2  0  0  0  0
 17 37  1  0  0  0  0
 18 20  2  0  0  0  0
 18 38  1  0  0  0  0
 19 50  1  0  0  0  0
 20 39  1  0  0  0  0
 21 28  2  0  0  0  0
 21 29  1  0  0  0  0
 21 60  1  0  0  0  0
 22 84  1  0  0  0  0
 23 85  1  0  0  0  0
 24 26  2  0  0  0  0
 24 84  1  0  0  0  0
 25 86  1  0  0  0  0
 26 87  1  0  0  0  0
 27 65  2  0  0  0  0
 28 61  1  0  0  0  0
 28 66  1  0  0  0  0
 29 67  2  0  0  0  0
 29 69  1  0  0  0  0
 30 68  1  0  0  0  0
 30 73  1  0  0  0  0
 31 53  1  0  0  0  0
 31 66  2  0  0  0  0
 31 67  1  0  0  0  0
 32 74  1  0  0  0  0
 32 79  2  0  0  0  0
 33 51  1  0  0  0  0
 33 75  1  0  0  0  0
 33 80  2  0  0  0  0
 34 62  1  0  0  0  0
 34 70  1  0  0  0  0
 34 81  2  0  0  0  0
 35 63  1  0  0  0  0
 35 76  1  0  0  0  0
 35 82  2  0  0  0  0
 36 71  1  0  0  0  0
 36 72  1  0  0  0  0
 36 83  2  0  0  0  0
 37 40  1  0  0  0  0
 38 51  1  0  0  0  0
 39 70  1  0  0  0  0
 40 42  1  0  0  0  0
 41 43  1  0  0  0  0
 41 44  1  0  0  0  0
 42 50  1  0  0  0  0
 43 52  1  0  0  0  0
 44 71  1  0  0  0  0
 45 47  1  0  0  0  0
 45 69  1  0  0  0  0
 46 48  1  0  0  0  0
 46 69  1  0  0  0  0
 47 72  1  0  0  0  0
 48 72  1  0  0  0  0
 49 52  1  0  0  0  0
 49 71  1  0  0  0  0
 50 75  1  0  0  0  0
 51 70  1  0  0  0  0
 52 68  1  0  0  0  0
 54 63  1  0  0  0  0
 55 64  1  0  0  0  0
 56 64  1  0  0  0  0
 57 64  1  0  0  0  0
 58 77  1  0  0  0  0
 59 78  1  0  0  0  0
 60 77  1  0  0  0  0
 61 85  1  0  0  0  0
 62 64  1  0  0  0  0
 62 76  1  0  0  0  0
 63 78  1  0  0  0  0
 65 68  1  0  0  0  0
M  CHG  2  77   1  78   1
M  ISO  4  36 100  61 101  72 100  85 101
M  END
> <Batch ID>
0188

> <Smiles>
CNCc1c(N2CC[100N:0]([100C:0](=O)N3CCCC(n4nc(-c5ccc(Oc6ccc(F)cc6F)cc5)c(C(N)=O)c4N)C3)CC2)nc(C)nc1[101CH2:1][101O:1]c1ccc2c(c1)CN(C(=O)C(NC(=O)C(C)NC)C(C)(C)C)C(C(=O)NC1CCCc3ccccc31)C2

> <Shape>
0.307

> <Color>
0.115

> <Negative vol penalty>
0.000

$$$$

  -OEChem-04052323193D

 85 94  0     1  0  0  0  0  0999 V2000
  -26.5322  -36.8077   22.3213 C   0  0  0  0  0  0  0  0  0  0  0  0
  -27.1466  -35.6292   21.9102 C   0  0  0  0  0  0  0  0  0  0  0  0
  -24.7179   -9.6210   21.7836 C   0  0  0  0  0  0  0  0  0  0  0  0
  -22.9261  -10.7863   20.6573 C   0  0  0  0  0  0  0  0  0  0  0  0
  -25.4474  -36.7586   23.1958 C   0  0  0  0  0  0  0  0  0  0  0  0
  -26.6773  -34.4009   22.3743 C   0  0  0  0  0  0  0  0  0  0  0  0
  -26.5411  -29.1096   19.2938 C   0  0  0  0  0  0  0  0  0  0  0  0
  -23.7828   -8.9070   22.5328 C   0  0  0  0  0  0  0  0  0  0  0  0
  -21.9909  -10.0723   21.4065 C   0  0  0  0  0  0  0  0  0  0  0  0
  -27.3904  -28.0040   19.2906 C   0  0  0  0  0  0  0  0  0  0  0  0
  -21.7346   -6.2542   22.0856 C   0  0  0  0  0  0  0  0  0  0  0  0
  -21.9287   -4.8800   22.2252 C   0  0  0  0  0  0  0  0  0  0  0  0
  -25.9533  -26.9031   20.8850 C   0  0  0  0  0  0  0  0  0  0  0  0
  -22.0534   -5.1412   24.6238 C   0  0  0  0  0  0  0  0  0  0  0  0
  -31.7814  -23.5417   19.8629 C   0  0  0  0  0  0  0  0  0  0  0  0
  -24.2896  -10.5607   20.8459 C   0  0  0  0  0  0  0  0  0  0  0  0
  -25.8024  -10.9369   18.8266 C   0  0  0  0  0  0  0  0  0  0  0  0
  -24.9584  -35.5286   23.6633 C   0  0  0  0  0  0  0  0  0  0  0  0
  -25.3954  -29.1247   20.1022 C   0  0  0  0  0  0  0  0  0  0  0  0
  -25.5858  -34.3354   23.2570 C   0  0  0  0  0  0  0  0  0  0  0  0
  -25.0897  -28.0091   20.8947 C   0  0  0  0  0  0  0  0  0  0  0  0
  -22.4192   -9.1326   22.3442 C   0  0  0  0  0  0  0  0  0  0  0  0
  -27.0981  -26.9017   20.0885 C   0  0  0  0  0  0  0  0  0  0  0  0
  -21.7000   -7.0719   23.2151 C   0  0  0  0  0  0  0  0  0  0  0  0
  -29.2423  -23.4096   18.9993 C   0  0  0  0  0  0  0  0  0  0  0  0
  -22.0881   -4.3235   23.4943 C   0  0  0  0  0  0  0  0  0  0  0  0
  -21.8594   -6.5155   24.4842 C   0  0  0  0  0  0  0  0  0  0  0  0
  -25.2552  -11.2989   20.0721 C   0  0  0  0  0  0  0  0  0  0  0  0
  -29.8399  -24.6045   19.3451 C   0  0  0  0  0  0  0  0  0  0  0  0
  -30.0349  -22.2871   19.1261 C   0  0  0  0  0  0  0  0  0  0  0  0
  -26.6621  -11.9626   18.5181 C   0  0  0  0  0  0  0  0  0  0  0  0
  -25.5555   -9.7772   18.0205 C   0  0  0  0  0  0  0  0  0  0  0  0
  -24.3789  -30.9219   22.5189 C   0  0  0  0  0  0  0  0  0  0  0  0
  -21.6770  -29.1586   22.1831 C   0  0  0  0  0  0  0  0  0  0  0  0
  -20.2211  -26.2636   21.1126 C   0  0  0  0  0  0  0  0  0  0  0  0
  -27.9541  -17.1600   18.1159 C   0  0  0  0  0  0  0  0  0  0  0  0
  -23.8131  -35.5284   24.6446 C   0  0  0  0  0  0  0  0  0  0  0  0
  -24.4752  -30.3142   20.0741 C   0  0  0  0  0  0  0  0  0  0  0  0
  -23.8613  -27.9672   21.7651 C   0  0  0  0  0  0  0  0  0  0  0  0
  -23.1403  -34.1664   24.7952 C   0  0  0  0  0  0  0  0  0  0  0  0
  -28.3719  -15.7971   21.3264 C   0  0  0  0  0  0  0  0  0  0  0  0
  -24.1872  -33.0686   24.9555 C   0  0  0  0  0  0  0  0  0  0  0  0
  -27.6360  -14.4647   21.1889 C   0  0  0  0  0  0  0  0  0  0  0  0
  -27.6339  -16.9350   20.6193 C   0  0  0  0  0  0  0  0  0  0  0  0
  -30.3511  -19.9852   18.2721 C   0  0  0  0  0  0  0  0  0  0  0  0
  -28.2784  -20.6155   19.5181 C   0  0  0  0  0  0  0  0  0  0  0  0
  -29.5487  -18.9392   17.5030 C   0  0  0  0  0  0  0  0  0  0  0  0
  -27.5109  -19.5683   18.7188 C   0  0  0  0  0  0  0  0  0  0  0  0
  -26.5853  -15.3247   19.0620 C   0  0  0  0  0  0  0  0  0  0  0  0
  -25.0900  -32.9823   23.7190 C   0  0  1  0  0  0  0  0  0  0  0  0
  -23.6101  -30.4301   21.3253 C   0  0  1  0  0  0  0  0  0  0  0  0
  -27.3331  -14.1507   19.7130 C   0  0  2  0  0  0  0  0  0  0  0  0
  -18.0024  -25.0956   21.0086 C   0  0  0  0  0  0  0  0  0  0  0  0
  -21.8873  -28.4996   25.1549 C   0  0  0  0  0  0  0  0  0  0  0  0
  -20.2642  -26.6298   24.7838 C   0  0  0  0  0  0  0  0  0  0  0  0
  -19.5681  -28.9867   24.3559 C   0  0  0  0  0  0  0  0  0  0  0  0
  -20.2768  -26.1728   18.1550 C   0  0  0  0  0  0  0  0  0  0  0  0
  -27.7402  -23.4694   17.1565 C   0  0  0  0  0  0  0  0  0  0  0  0
  -29.0757  -25.8836   19.2466 C   0  0  0  0  0  0  0  0  0  1  0  0
  -21.1705  -27.8582   22.7588 C   0  0  1  0  0  0  0  0  0  0  0  0
  -18.9766  -26.0094   20.2814 C   0  0  2  0  0  0  0  0  0  0  0  0
  -20.7468  -27.9949   24.2485 C   0  0  0  0  0  0  0  0  0  0  0  0
  -31.1121  -24.7074   19.7824 N   0  0  0  0  0  0  0  0  0  0  0  0
  -31.3133  -22.3167   19.5563 N   0  0  0  0  0  0  0  0  0  0  0  0
  -25.7278  -12.4636   20.5240 N   0  0  0  0  0  0  0  0  0  0  0  0
  -26.5811  -12.8422   19.5573 N   0  0  0  0  0  0  0  0  0  0  0  0
  -29.4799  -21.0457   18.7898 N   0  0  0  0  0  0  0  0  0  0  0  0
  -22.9960  -29.1570   21.7078 N   0  0  0  0  0  0  0  0  0  0  0  0
  -27.3312  -16.5739   19.2279 N   0  0  0  0  0  0  0  0  0  0  0  0
  -28.3855  -18.4883   18.2574 N   0  0  0  0  0  0  0  0  0  0  0  0
  -27.4721  -12.1889   17.4621 N   0  0  0  0  0  0  0  0  0  0  0  0
  -24.6422   -8.8217   18.4865 N   0  0  0  0  0  0  0  0  0  0  0  0
  -24.4075  -32.2980   22.6418 N   0  0  0  0  0  0  0  0  0  0  0  0
  -20.1027  -27.4079   21.8727 N   0  0  0  0  0  0  0  0  0  0  0  0
  -19.3410  -25.3712   18.9849 N   0  3  0  0  0  0  0  0  0  0  0  0
  -26.1401   -9.5857   16.9273 O   0  0  0  0  0  0  0  0  0  0  0  0
  -24.9058  -30.1128   23.2735 O   0  0  0  0  0  0  0  0  0  0  0  0
  -20.9274  -30.1377   22.1495 O   0  0  0  0  0  0  0  0  0  0  0  0
  -21.1989  -25.5193   21.0927 O   0  0  0  0  0  0  0  0  0  0  0  0
  -28.1188  -16.5354   17.0607 O   0  0  0  0  0  0  0  0  0  0  0  0
  -21.5064   -8.4360   23.0749 O   0  0  0  0  0  0  0  0  0  0  0  0
  -27.9611  -23.3512   18.5643 O   0  0  0  0  0  0  0  0  0  0  0  0
  -27.9316  -25.8138   20.0878 O   0  0  0  0  0  0  0  0  0  1  0  0
  -22.2729   -3.0036   23.6283 F   0  0  0  0  0  0  0  0  0  0  0  0
  -21.8259   -7.2959   25.5731 F   0  0  0  0  0  0  0  0  0  0  0  0
  1  2  1  0  0  0  0
  1  5  2  0  0  0  0
  2  6  2  0  0  0  0
  3  8  2  0  0  0  0
  3 16  1  0  0  0  0
  4  9  1  0  0  0  0
  4 16  2  0  0  0  0
  5 18  1  0  0  0  0
  6 20  1  0  0  0  0
  7 10  2  0  0  0  0
  7 19  1  0  0  0  0
  8 22  1  0  0  0  0
  9 22  2  0  0  0  0
 10 23  1  0  0  0  0
 11 12  2  0  0  0  0
 11 24  1  0  0  0  0
 12 26  1  0  0  0  0
 13 21  1  0  0  0  0
 13 23  2  0  0  0  0
 14 26  2  0  0  0  0
 14 27  1  0  0  0  0
 15 63  2  0  0  0  0
 15 64  1  0  0  0  0
 16 28  1  0  0  0  0
 17 28  1  0  0  0  0
 17 31  2  0  0  0  0
 17 32  1  0  0  0  0
 18 20  2  0  0  0  0
 18 37  1  0  0  0  0
 19 21  2  0  0  0  0
 19 38  1  0  0  0  0
 20 50  1  0  0  0  0
 21 39  1  0  0  0  0
 22 81  1  0  0  0  0
 23 83  1  0  0  0  0
 24 27  2  0  0  0  0
 24 81  1  0  0  0  0
 25 29  2  0  0  0  0
 25 30  1  0  0  0  0
 25 82  1  0  0  0  0
 26 84  1  0  0  0  0
 27 85  1  0  0  0  0
 28 65  2  0  0  0  0
 29 59  1  0  0  0  0
 29 63  1  0  0  0  0
 30 64  2  0  0  0  0
 30 67  1  0  0  0  0
 31 66  1  0  0  0  0
 31 71  1  0  0  0  0
 32 72  1  0  0  0  0
 32 76  2  0  0  0  0
 33 51  1  0  0  0  0
 33 73  1  0  0  0  0
 33 77  2  0  0  0  0
 34 60  1  0  0  0  0
 34 68  1  0  0  0  0
 34 78  2  0  0  0  0
 35 61  1  0  0  0  0
 35 74  1  0  0  0  0
 35 79  2  0  0  0  0
 36 69  1  0  0  0  0
 36 70  1  0  0  0  0
 36 80  2  0  0  0  0
 37 40  1  0  0  0  0
 38 51  1  0  0  0  0
 39 68  1  0  0  0  0
 40 42  1  0  0  0  0
 41 43  1  0  0  0  0
 41 44  1  0  0  0  0
 42 50  1  0  0  0  0
 43 52  1  0  0  0  0
 44 69  1  0  0  0  0
 45 47  1  0  0  0  0
 45 67  1  0  0  0  0
 46 48  1  0  0  0  0
 46 67  1  0  0  0  0
 47 70  1  0  0  0  0
 48 70  1  0  0  0  0
 49 52  1  0  0  0  0
 49 69  1  0  0  0  0
 50 73  1  0  0  0  0
 51 68  1  0  0  0  0
 52 66  1  0  0  0  0
 53 61  1  0  0  0  0
 54 62  1  0  0  0  0
 55 62  1  0  0  0  0
 56 62  1  0  0  0  0
 57 75  1  0  0  0  0
 58 82  1  0  0  0  0
 59 83  1  0  0  0  0
 60 62  1  0  0  0  0
 60 74  1  0  0  0  0
 61 75  1  0  0  0  0
 65 66  1  0  0  0  0
M  CHG  1  75   1
M  ISO  4  36 100  59 101  70 100  83 101
M  END
> <Batch ID>
0188

> <Smiles>
CNC(C)C(=O)NC(C(=O)N1Cc2cc([101O:1][101CH2:1]c3ncnc(N4CC[100N:0]([100C:0](=O)N5CCCC(n6nc(-c7ccc(Oc8ccc(F)cc8F)cc7)c(C(N)=O)c6N)C5)CC4)c3OC)ccc2CC1C(=O)NC1CCCc2ccccc21)C(C)(C)C

> <Shape>
0.355

> <Color>
0.081

> <Negative vol penalty>
0.000

$$$$

  -OEChem-04052323193D

 82 91  0     1  0  0  0  0  0999 V2000
  -26.3984  -38.3876   23.6580 C   0  0  0  0  0  0  0  0  0  0  0  0
  -27.1011  -37.5625   22.7857 C   0  0  0  0  0  0  0  0  0  0  0  0
  -23.1307   -9.6931   23.4889 C   0  0  0  0  0  0  0  0  0  0  0  0
  -21.4004  -10.5338   22.0272 C   0  0  0  0  0  0  0  0  0  0  0  0
  -25.6707  -37.8305   24.7086 C   0  0  0  0  0  0  0  0  0  0  0  0
  -27.0773  -36.1798   22.9642 C   0  0  0  0  0  0  0  0  0  0  0  0
  -27.2469  -30.0654   19.2357 C   0  0  0  0  0  0  0  0  0  0  0  0
  -22.9142   -8.4035   23.0036 C   0  0  0  0  0  0  0  0  0  0  0  0
  -21.1840   -9.2441   21.5418 C   0  0  0  0  0  0  0  0  0  0  0  0
  -27.9403  -28.8572   19.1793 C   0  0  0  0  0  0  0  0  0  0  0  0
  -20.6829   -5.9083   23.4718 C   0  0  0  0  0  0  0  0  0  0  0  0
  -20.6126   -4.8703   24.4009 C   0  0  0  0  0  0  0  0  0  0  0  0
  -26.5845  -28.0018   20.9819 C   0  0  0  0  0  0  0  0  0  0  0  0
  -22.4979   -3.7938   23.3407 C   0  0  0  0  0  0  0  0  0  0  0  0
  -22.3737  -10.7583   23.0008 C   0  0  0  0  0  0  0  0  0  0  0  0
  -22.4683  -12.5304   24.8333 C   0  0  0  0  0  0  0  0  0  0  0  0
  -25.6301  -36.4397   24.8944 C   0  0  0  0  0  0  0  0  0  0  0  0
  -26.2227  -30.2551   20.1745 C   0  0  0  0  0  0  0  0  0  0  0  0
  -26.3494  -35.6036   24.0192 C   0  0  0  0  0  0  0  0  0  0  0  0
  -25.8779  -29.2125   21.0464 C   0  0  0  0  0  0  0  0  0  0  0  0
  -21.9409   -8.1790   22.0300 C   0  0  0  0  0  0  0  0  0  0  0  0
  -27.6111  -27.8262   20.0543 C   0  0  0  0  0  0  0  0  0  0  0  0
  -21.6606   -5.8891   22.4771 C   0  0  0  0  0  0  0  0  0  0  0  0
  -21.5202   -3.8131   24.3354 C   0  0  0  0  0  0  0  0  0  0  0  0
  -22.5682   -4.8318   22.4116 C   0  0  0  0  0  0  0  0  0  0  0  0
  -22.5965  -12.0906   23.5022 C   0  0  0  0  0  0  0  0  0  0  0  0
  -22.7868  -13.8656   24.7859 C   0  0  0  0  0  0  0  0  0  0  0  0
  -22.0947  -11.7976   26.0076 C   0  0  0  0  0  0  0  0  0  0  0  0
  -25.7551  -32.2383   22.6142 C   0  0  0  0  0  0  0  0  0  0  0  0
  -22.8287  -30.8404   22.6837 C   0  0  0  0  0  0  0  0  0  0  0  0
  -20.8914  -28.1353   21.9249 C   0  0  0  0  0  0  0  0  0  0  0  0
  -26.0880  -16.8899   20.7598 C   0  0  0  0  0  0  0  0  0  0  0  0
  -24.8681  -35.8866   26.0726 C   0  0  0  0  0  0  0  0  0  0  0  0
  -25.4664  -31.5549   20.2047 C   0  0  0  0  0  0  0  0  0  0  0  0
  -24.7727  -29.3584   22.0592 C   0  0  0  0  0  0  0  0  0  0  0  0
  -24.5895  -34.3893   25.9692 C   0  0  0  0  0  0  0  0  0  0  0  0
  -22.2573  -16.6651   20.9934 C   0  0  0  0  0  0  0  0  0  0  0  0
  -25.8495  -33.6396   25.5484 C   0  0  0  0  0  0  0  0  0  0  0  0
  -22.2734  -16.3340   22.4827 C   0  0  0  0  0  0  0  0  0  0  0  0
  -28.0296  -18.0623   18.3093 C   0  0  0  0  0  0  0  0  0  0  0  0
  -30.2279  -22.1850   17.7707 C   0  0  0  0  0  0  0  0  0  0  0  0
  -23.5872  -17.2699   20.5542 C   0  0  0  0  0  0  0  0  0  0  0  0
  -28.7350  -19.2593   17.6733 C   0  0  0  0  0  0  0  0  0  0  0  0
  -24.4853  -15.2628   21.7320 C   0  0  0  0  0  0  0  0  0  0  0  0
  -27.5147  -20.0893   19.4852 C   0  0  0  0  0  0  0  0  0  0  0  0
  -26.3279  -34.0975   24.1653 C   0  0  1  0  0  0  0  0  0  0  0  0
  -24.7865  -31.8196   21.5445 C   0  0  1  0  0  0  0  0  0  0  0  0
  -23.4882  -15.4698   22.8858 C   0  0  2  0  0  0  0  0  0  0  0  0
  -28.8743  -21.6631   18.1744 C   0  0  2  0  0  0  0  0  0  0  0  0
  -27.5157  -18.5791   19.6497 C   0  0  1  0  0  0  0  0  0  0  0  0
  -29.5496  -22.7300   18.9955 C   0  0  2  0  0  0  0  0  0  0  0  0
  -18.5458  -27.2696   22.1400 C   0  0  0  0  0  0  0  0  0  0  0  0
  -23.3225  -30.2428   25.6349 C   0  0  0  0  0  0  0  0  0  0  0  0
  -21.4395  -28.5953   25.5445 C   0  0  0  0  0  0  0  0  0  0  0  0
  -21.0033  -31.0108   25.0998 C   0  0  0  0  0  0  0  0  0  0  0  0
  -20.5649  -27.9552   18.9889 C   0  0  0  0  0  0  0  0  0  0  0  0
  -29.9968  -25.1821   19.1563 C   0  0  0  0  0  0  0  0  0  0  0  0
  -29.3213  -26.5329   19.0255 C   0  0  0  0  0  0  0  0  0  1  0  0
  -22.2357  -29.6354   23.3730 C   0  0  1  0  0  0  0  0  0  0  0  0
  -19.5305  -28.0253   21.2613 C   0  0  2  0  0  0  0  0  0  0  0  0
  -22.0224  -29.8687   24.8954 C   0  0  0  0  0  0  0  0  0  0  0  0
  -22.9674  -13.0672   22.6699 N   0  0  0  0  0  0  0  0  0  0  0  0
  -23.0749  -14.1340   23.4801 N   0  0  0  0  0  0  0  0  0  0  0  0
  -24.0669  -30.6504   22.0539 N   0  0  0  0  0  0  0  0  0  0  0  0
  -24.7561  -16.5134   21.0207 N   0  0  0  0  0  0  0  0  0  0  0  0
  -28.7430  -20.2937   18.7129 N   0  0  2  0  0  0  0  0  0  0  0  0
  -22.8457  -14.8246   25.7343 N   0  0  0  0  0  0  0  0  0  0  0  0
  -20.7372  -11.7311   26.3500 N   0  0  0  0  0  0  0  0  0  0  0  0
  -25.5170  -33.4994   23.1264 N   0  0  0  0  0  0  0  0  0  0  0  0
  -21.0166  -29.3061   22.6425 N   0  0  0  0  0  0  0  0  0  0  0  0
  -26.2301  -18.0541   20.0089 N   0  0  0  0  0  0  0  0  0  0  0  0
  -28.9972  -24.1096   18.9223 N   0  3  0  0  0  0  0  0  0  0  0  0
  -19.6452  -27.3083   19.9599 N   0  3  0  0  0  0  0  0  0  0  0  0
  -22.9412  -11.2327   26.7410 O   0  0  0  0  0  0  0  0  0  0  0  0
  -26.6511  -31.4732   22.9510 O   0  0  0  0  0  0  0  0  0  0  0  0
  -22.2126  -31.9090   22.6973 O   0  0  0  0  0  0  0  0  0  0  0  0
  -21.7554  -27.2676   21.8205 O   0  0  0  0  0  0  0  0  0  0  0  0
  -27.0622  -16.2445   21.1582 O   0  0  0  0  0  0  0  0  0  0  0  0
  -21.7296   -6.9207   21.5560 O   0  0  0  0  0  0  0  0  0  0  0  0
  -28.2867  -26.6461   20.0018 O   0  0  0  0  0  0  0  0  0  1  0  0
  -21.4535   -2.8171   25.2285 F   0  0  0  0  0  0  0  0  0  0  0  0
  -23.5104   -4.8085   21.4590 F   0  0  0  0  0  0  0  0  0  0  0  0
  1  2  1  0  0  0  0
  1  5  2  0  0  0  0
  2  6  2  0  0  0  0
  3  8  2  0  0  0  0
  3 15  1  0  0  0  0
  4  9  1  0  0  0  0
  4 15  2  0  0  0  0
  5 17  1  0  0  0  0
  6 19  1  0  0  0  0
  7 10  2  0  0  0  0
  7 18  1  0  0  0  0
  8 21  1  0  0  0  0
  9 21  2  0  0  0  0
 10 22  1  0  0  0  0
 11 12  2  0  0  0  0
 11 23  1  0  0  0  0
 12 24  1  0  0  0  0
 13 20  1  0  0  0  0
 13 22  2  0  0  0  0
 14 24  2  0  0  0  0
 14 25  1  0  0  0  0
 15 26  1  0  0  0  0
 16 26  1  0  0  0  0
 16 27  2  0  0  0  0
 16 28  1  0  0  0  0
 17 19  2  0  0  0  0
 17 33  1  0  0  0  0
 18 20  2  0  0  0  0
 18 34  1  0  0  0  0
 19 46  1  0  0  0  0
 20 35  1  0  0  0  0
 21 79  1  0  0  0  0
 22 80  1  0  0  0  0
 23 25  2  0  0  0  0
 23 79  1  0  0  0  0
 24 81  1  0  0  0  0
 25 82  1  0  0  0  0
 26 62  2  0  0  0  0
 27 63  1  0  0  0  0
 27 67  1  0  0  0  0
 28 68  1  0  0  0  0
 28 74  2  0  0  0  0
 29 47  1  0  0  0  0
 29 69  1  0  0  0  0
 29 75  2  0  0  0  0
 30 59  1  0  0  0  0
 30 64  1  0  0  0  0
 30 76  2  0  0  0  0
 31 60  1  0  0  0  0
 31 70  1  0  0  0  0
 31 77  2  0  0  0  0
 32 65  1  0  0  0  0
 32 71  1  0  0  0  0
 32 78  2  0  0  0  0
 33 36  1  0  0  0  0
 34 47  1  0  0  0  0
 35 64  1  0  0  0  0
 36 38  1  0  0  0  0
 37 39  1  0  0  0  0
 37 42  1  0  0  0  0
 38 46  1  0  0  0  0
 39 48  1  0  0  0  0
 40 43  1  0  0  0  0
 40 50  1  0  0  0  0
 41 49  1  0  0  0  0
 41 51  1  0  0  0  0
 42 65  1  0  0  0  0
 43 66  1  0  0  0  0
 44 48  1  0  0  0  0
 44 65  1  0  0  0  0
 45 50  1  0  0  0  0
 45 66  1  0  0  0  0
 46 69  1  0  0  0  0
 47 64  1  0  0  0  0
 48 63  1  0  0  0  0
 49 51  1  0  0  0  0
 49 66  1  0  0  0  0
 50 71  1  0  0  0  0
 51 72  1  0  0  0  0
 52 60  1  0  0  0  0
 53 61  1  0  0  0  0
 54 61  1  0  0  0  0
 55 61  1  0  0  0  0
 56 73  1  0  0  0  0
 57 58  1  0  0  0  0
 57 72  1  0  0  0  0
 58 80  1  0  0  0  0
 59 61  1  0  0  0  0
 59 70  1  0  0  0  0
 60 73  1  0  0  0  0
 62 63  1  0  0  0  0
M  CHG  2  72   1  73   1
M  ISO  4  32 100  58 101  71 100  80 101
M  END
> <Batch ID>
0188

> <Smiles>
CNC(C)C(=O)NC(C(=O)N1Cc2cc([101O:1][101CH2:1]CNC3CC3N3CCC([100NH:0][100C:0](=O)N4CCCC(n5nc(-c6ccc(Oc7ccc(F)cc7F)cc6)c(C(N)=O)c5N)C4)C3)ccc2CC1C(=O)NC1CCCc2ccccc21)C(C)(C)C

> <Shape>
0.291

> <Color>
0.095

> <Negative vol penalty>
0.000

$$$$

  -OEChem-04052323193D

 88 97  0     1  0  0  0  0  0999 V2000
  -31.0721  -24.3663   18.1636 C   0  0  0  0  0  0  0  0  0  0  0  0
  -29.7764  -24.8581   18.2749 C   0  0  0  0  0  0  0  0  0  0  0  0
  -26.6482  -17.9154   18.8969 C   0  0  0  0  0  0  0  0  0  0  0  0
  -25.7435  -18.9662   20.8754 C   0  0  0  0  0  0  0  0  0  0  0  0
  -32.0281  -24.7097   19.1171 C   0  0  0  0  0  0  0  0  0  0  0  0
  -29.4395  -25.7030   19.3329 C   0  0  0  0  0  0  0  0  0  0  0  0
  -24.9595  -27.7334   19.2323 C   0  0  0  0  0  0  0  0  0  0  0  0
  -27.7281  -18.7979   18.9220 C   0  0  0  0  0  0  0  0  0  0  0  0
  -26.8235  -19.8487   20.9006 C   0  0  0  0  0  0  0  0  0  0  0  0
  -23.7957  -27.0038   19.4712 C   0  0  0  0  0  0  0  0  0  0  0  0
  -29.5280  -22.1449   21.6950 C   0  0  0  0  0  0  0  0  0  0  0  0
  -30.1485  -22.3769   22.9225 C   0  0  0  0  0  0  0  0  0  0  0  0
  -23.6637  -27.9510   21.6858 C   0  0  0  0  0  0  0  0  0  0  0  0
  -18.0774  -20.8376   22.1521 C   0  0  0  0  0  0  0  0  0  0  0  0
  -30.6837  -20.0273   23.0959 C   0  0  0  0  0  0  0  0  0  0  0  0
  -20.1990  -24.4453   22.9559 C   0  0  0  0  0  0  0  0  0  0  0  0
  -17.3983  -19.2387   24.2564 C   0  0  0  0  0  0  0  0  0  0  0  0
  -25.6558  -17.9996   19.8736 C   0  0  0  0  0  0  0  0  0  0  0  0
  -24.4536  -15.8319   20.4762 C   0  0  0  0  0  0  0  0  0  0  0  0
  -31.6987  -25.5492   20.1940 C   0  0  0  0  0  0  0  0  0  0  0  0
  -25.4910  -28.5704   20.2239 C   0  0  0  0  0  0  0  0  0  0  0  0
  -30.3965  -26.0804   20.2922 C   0  0  0  0  0  0  0  0  0  0  0  0
  -24.8328  -28.6921   21.4561 C   0  0  0  0  0  0  0  0  0  0  0  0
  -18.0507  -20.4318   24.5226 C   0  0  0  0  0  0  0  0  0  0  0  0
  -18.3932  -21.2407   23.4448 C   0  0  0  0  0  0  0  0  0  0  0  0
  -27.8158  -19.7645   19.9238 C   0  0  0  0  0  0  0  0  0  0  0  0
  -23.1492  -27.1102   20.6991 C   0  0  0  0  0  0  0  0  0  0  0  0
  -29.4853  -20.8541   21.1679 C   0  0  0  0  0  0  0  0  0  0  0  0
  -30.7264  -21.3181   23.6229 C   0  0  0  0  0  0  0  0  0  0  0  0
  -30.0632  -19.7953   21.8684 C   0  0  0  0  0  0  0  0  0  0  0  0
  -24.5397  -17.0887   19.8479 C   0  0  0  0  0  0  0  0  0  0  0  0
  -17.4239  -19.6263   21.9921 C   0  0  0  0  0  0  0  0  0  0  0  0
  -20.1539  -25.6242   22.2400 C   0  0  0  0  0  0  0  0  0  0  0  0
  -19.0501  -23.6816   22.9214 C   0  0  0  0  0  0  0  0  0  0  0  0
  -23.2018  -15.3701   20.1501 C   0  0  0  0  0  0  0  0  0  0  0  0
  -18.0181  -25.2036   21.5851 C   0  0  0  0  0  0  0  0  0  0  0  0
  -25.4187  -15.1434   21.2826 C   0  0  0  0  0  0  0  0  0  0  0  0
  -28.2198  -28.6678   21.8511 C   0  0  0  0  0  0  0  0  0  0  0  0
  -26.9984  -31.4552   22.9741 C   0  0  0  0  0  0  0  0  0  0  0  0
  -24.2407  -33.3636   23.6066 C   0  0  0  0  0  0  0  0  0  0  0  0
  -18.1107  -18.1245   18.6187 C   0  0  0  0  0  0  0  0  0  0  0  0
  -32.7745  -25.8951   21.1931 C   0  0  0  0  0  0  0  0  0  0  0  0
  -26.7323  -29.3713   19.9410 C   0  0  0  0  0  0  0  0  0  0  0  0
  -25.3514  -29.5924   22.5465 C   0  0  0  0  0  0  0  0  0  0  0  0
  -32.2154  -26.4281   22.5082 C   0  0  0  0  0  0  0  0  0  0  0  0
  -19.8722  -15.6752   16.7279 C   0  0  0  0  0  0  0  0  0  0  0  0
  -31.1986  -27.5260   22.2338 C   0  0  0  0  0  0  0  0  0  0  0  0
  -21.2604  -15.6463   17.3698 C   0  0  0  0  0  0  0  0  0  0  0  0
  -19.2909  -17.0872   16.7036 C   0  0  0  0  0  0  0  0  0  0  0  0
  -20.6497  -17.7385   18.6538 C   0  0  0  0  0  0  0  0  0  0  0  0
  -29.9991  -26.9764   21.4514 C   0  0  1  0  0  0  0  0  0  0  0  0
  -27.4691  -29.7987   21.2067 C   0  0  1  0  0  0  0  0  0  0  0  0
  -21.2534  -16.3270   18.7518 C   0  0  2  0  0  0  0  0  0  0  0  0
  -18.3621  -20.8124   25.9290 C   0  0  0  0  0  0  0  0  0  0  0  0
  -16.8072  -25.6245   20.8237 C   0  0  0  0  0  0  0  0  0  0  0  0
  -23.5564  -35.5804   24.5631 C   0  0  0  0  0  0  0  0  0  0  0  0
  -27.4764  -30.3846   25.7911 C   0  0  0  0  0  0  0  0  0  0  0  0
  -25.9433  -32.1663   26.6532 C   0  0  0  0  0  0  0  0  0  0  0  0
  -28.0524  -32.7984   25.4807 C   0  0  0  0  0  0  0  0  0  0  0  0
  -23.0376  -34.2284   21.0447 C   0  0  0  0  0  0  0  0  0  0  0  0
  -17.0700  -19.1616   20.6188 C   0  0  0  0  0  0  0  0  0  0  0  0
  -21.3556  -26.5224   22.2177 C   0  0  0  0  0  0  0  0  0  1  0  0
  -26.1287  -31.8468   24.1443 C   0  0  1  0  0  0  0  0  0  0  0  0
  -23.9307  -34.8180   23.3016 C   0  0  2  0  0  0  0  0  0  0  0  0
  -26.8912  -31.7805   25.4977 C   0  0  0  0  0  0  0  0  0  0  0  0
  -17.0749  -18.8137   23.0145 N   0  0  0  0  0  0  0  0  0  0  0  0
  -23.4311  -17.4052   19.1735 N   0  0  0  0  0  0  0  0  0  0  0  0
  -19.0759  -26.0358   21.5407 N   0  0  0  0  0  0  0  0  0  0  0  0
  -17.9372  -24.0318   22.2439 N   0  0  0  0  0  0  0  0  0  0  0  0
  -22.6365  -16.3405   19.3762 N   0  0  0  0  0  0  0  0  0  0  0  0
  -26.5718  -30.3501   22.2240 N   0  0  0  0  0  0  0  0  0  0  0  0
  -19.3117  -17.6756   18.0450 N   0  0  0  0  0  0  0  0  0  0  0  0
  -22.5406  -14.2327   20.4527 N   0  0  0  0  0  0  0  0  0  0  0  0
  -26.6545  -15.7610   21.5187 N   0  0  0  0  0  0  0  0  0  0  0  0
  -19.0552  -22.4631   23.6437 N   0  0  0  0  0  0  0  0  0  0  0  0
  -29.1639  -28.0798   21.0311 N   0  0  0  0  0  0  0  0  0  0  0  0
  -25.5870  -33.1638   23.8276 N   0  0  0  0  0  0  0  0  0  0  0  0
  -18.2182  -18.6630   19.8951 N   0  0  0  0  0  0  0  0  0  0  0  0
  -22.7965  -34.9151   22.3398 N   0  3  0  0  0  0  0  0  0  0  0  0
  -25.1981  -14.0069   21.7654 O   0  0  0  0  0  0  0  0  0  0  0  0
  -27.9626  -28.3531   23.0072 O   0  0  0  0  0  0  0  0  0  0  0  0
  -28.0148  -32.1102   22.7301 O   0  0  0  0  0  0  0  0  0  0  0  0
  -23.3747  -32.4925   23.6487 O   0  0  0  0  0  0  0  0  0  0  0  0
  -17.0224  -18.0460   18.0387 O   0  0  0  0  0  0  0  0  0  0  0  0
  -28.8695  -20.6256   19.9488 O   0  0  0  0  0  0  0  0  0  0  0  0
  -22.0135  -26.3987   20.9351 O   0  0  0  0  0  0  0  0  0  1  0  0
  -31.3235  -21.5412   24.8009 F   0  0  0  0  0  0  0  0  0  0  0  0
  -30.0263  -18.5533   21.3666 F   0  0  0  0  0  0  0  0  0  0  0  0
  1  2  1  0  0  0  0
  1  5  2  0  0  0  0
  2  6  2  0  0  0  0
  3  8  2  0  0  0  0
  3 18  1  0  0  0  0
  4  9  1  0  0  0  0
  4 18  2  0  0  0  0
  5 20  1  0  0  0  0
  6 22  1  0  0  0  0
  7 10  2  0  0  0  0
  7 21  1  0  0  0  0
  8 26  1  0  0  0  0
  9 26  2  0  0  0  0
 10 27  1  0  0  0  0
 11 12  2  0  0  0  0
 11 28  1  0  0  0  0
 12 29  1  0  0  0  0
 13 23  1  0  0  0  0
 13 27  2  0  0  0  0
 14 25  1  0  0  0  0
 14 32  2  0  0  0  0
 15 29  2  0  0  0  0
 15 30  1  0  0  0  0
 16 33  1  0  0  0  0
 16 34  2  0  0  0  0
 17 24  1  0  0  0  0
 17 66  2  0  0  0  0
 18 31  1  0  0  0  0
 19 31  1  0  0  0  0
 19 35  2  0  0  0  0
 19 37  1  0  0  0  0
 20 22  2  0  0  0  0
 20 42  1  0  0  0  0
 21 23  2  0  0  0  0
 21 43  1  0  0  0  0
 22 51  1  0  0  0  0
 23 44  1  0  0  0  0
 24 25  2  0  0  0  0
 24 54  1  0  0  0  0
 25 75  1  0  0  0  0
 26 85  1  0  0  0  0
 27 86  1  0  0  0  0
 28 30  2  0  0  0  0
 28 85  1  0  0  0  0
 29 87  1  0  0  0  0
 30 88  1  0  0  0  0
 31 67  2  0  0  0  0
 32 61  1  0  0  0  0
 32 66  1  0  0  0  0
 33 62  1  0  0  0  0
 33 68  2  0  0  0  0
 34 69  1  0  0  0  0
 34 75  1  0  0  0  0
 35 70  1  0  0  0  0
 35 73  1  0  0  0  0
 36 55  1  0  0  0  0
 36 68  1  0  0  0  0
 36 69  2  0  0  0  0
 37 74  1  0  0  0  0
 37 80  2  0  0  0  0
 38 52  1  0  0  0  0
 38 76  1  0  0  0  0
 38 81  2  0  0  0  0
 39 63  1  0  0  0  0
 39 71  1  0  0  0  0
 39 82  2  0  0  0  0
 40 64  1  0  0  0  0
 40 77  1  0  0  0  0
 40 83  2  0  0  0  0
 41 72  1  0  0  0  0
 41 78  1  0  0  0  0
 41 84  2  0  0  0  0
 42 45  1  0  0  0  0
 43 52  1  0  0  0  0
 44 71  1  0  0  0  0
 45 47  1  0  0  0  0
 46 48  1  0  0  0  0
 46 49  1  0  0  0  0
 47 51  1  0  0  0  0
 48 53  1  0  0  0  0
 49 72  1  0  0  0  0
 50 53  1  0  0  0  0
 50 72  1  0  0  0  0
 51 76  1  0  0  0  0
 52 71  1  0  0  0  0
 53 70  1  0  0  0  0
 56 64  1  0  0  0  0
 57 65  1  0  0  0  0
 58 65  1  0  0  0  0
 59 65  1  0  0  0  0
 60 79  1  0  0  0  0
 61 78  1  0  0  0  0
 62 86  1  0  0  0  0
 63 65  1  0  0  0  0
 63 77  1  0  0  0  0
 64 79  1  0  0  0  0
 67 70  1  0  0  0  0
M  CHG  1  79   1
M  ISO  4  41 100  62 101  78 100  86 101
M  END
> <Batch ID>
0188

> <Smiles>
CNC(C)C(=O)NC(C(=O)N1Cc2cc([101O:1][101CH2:1]c3cc(Nc4cc(C[100NH:0][100C:0](=O)N5CCCC(n6nc(-c7ccc(Oc8ccc(F)cc8F)cc7)c(C(N)=O)c6N)C5)ncc4C)nc(C)n3)ccc2CC1C(=O)NC1CCCc2ccccc21)C(C)(C)C

> <Shape>
0.231

> <Color>
0.069

> <Negative vol penalty>
0.000

$$$$

  -OEChem-04052323193D

 85 94  0     1  0  0  0  0  0999 V2000
  -29.0322  -18.8225   18.0044 C   0  0  0  0  0  0  0  0  0  0  0  0
  -27.8434  -19.2903   17.4537 C   0  0  0  0  0  0  0  0  0  0  0  0
  -24.2042  -15.2714   20.5846 C   0  0  0  0  0  0  0  0  0  0  0  0
  -23.4524  -13.7294   22.2858 C   0  0  0  0  0  0  0  0  0  0  0  0
  -29.4539  -19.2892   19.2487 C   0  0  0  0  0  0  0  0  0  0  0  0
  -27.0750  -20.2244   18.1476 C   0  0  0  0  0  0  0  0  0  0  0  0
  -22.6998  -25.7864   17.0343 C   0  0  0  0  0  0  0  0  0  0  0  0
  -25.1415  -14.3345   20.1496 C   0  0  0  0  0  0  0  0  0  0  0  0
  -24.3897  -12.7925   21.8507 C   0  0  0  0  0  0  0  0  0  0  0  0
  -21.4292  -26.2435   17.3812 C   0  0  0  0  0  0  0  0  0  0  0  0
  -28.1822  -13.2196   21.1170 C   0  0  0  0  0  0  0  0  0  0  0  0
  -29.4764  -13.6708   20.8582 C   0  0  0  0  0  0  0  0  0  0  0  0
  -22.2967  -27.0381   19.4872 C   0  0  0  0  0  0  0  0  0  0  0  0
  -19.6197  -25.8795   22.4096 C   0  0  0  0  0  0  0  0  0  0  0  0
  -29.2736  -12.9373   18.5651 C   0  0  0  0  0  0  0  0  0  0  0  0
  -19.5181  -28.5932   22.6765 C   0  0  0  0  0  0  0  0  0  0  0  0
  -23.3597  -14.9689   21.6528 C   0  0  0  0  0  0  0  0  0  0  0  0
  -21.0662  -16.0858   21.6529 C   0  0  0  0  0  0  0  0  0  0  0  0
  -28.6952  -20.2367   19.9538 C   0  0  0  0  0  0  0  0  0  0  0  0
  -23.7780  -25.9421   17.9173 C   0  0  0  0  0  0  0  0  0  0  0  0
  -27.4862  -20.7033   19.4031 C   0  0  0  0  0  0  0  0  0  0  0  0
  -23.5805  -26.5843   19.1481 C   0  0  0  0  0  0  0  0  0  0  0  0
  -20.3930  -26.4983   23.3855 C   0  0  0  0  0  0  0  0  0  0  0  0
  -20.3469  -27.8807   23.5281 C   0  0  0  0  0  0  0  0  0  0  0  0
  -25.2343  -13.0950   20.7826 C   0  0  0  0  0  0  0  0  0  0  0  0
  -21.2269  -26.8669   18.6090 C   0  0  0  0  0  0  0  0  0  0  0  0
  -27.4336  -12.6272   20.0999 C   0  0  0  0  0  0  0  0  0  0  0  0
  -30.0221  -13.5297   19.5823 C   0  0  0  0  0  0  0  0  0  0  0  0
  -27.9793  -12.4861   18.8240 C   0  0  0  0  0  0  0  0  0  0  0  0
  -22.3917  -15.9365   22.1031 C   0  0  0  0  0  0  0  0  0  0  0  0
  -18.8232  -26.6817   21.6083 C   0  0  0  0  0  0  0  0  0  0  0  0
  -20.5706  -17.1357   22.3867 C   0  0  0  0  0  0  0  0  0  0  0  0
  -20.3473  -15.3419   20.6602 C   0  0  0  0  0  0  0  0  0  0  0  0
  -25.7296  -23.9537   19.4473 C   0  0  0  0  0  0  0  0  0  0  0  0
  -27.2238  -26.7018   20.3063 C   0  0  0  0  0  0  0  0  0  0  0  0
  -27.0257  -30.0708   20.8133 C   0  0  0  0  0  0  0  0  0  0  0  0
  -21.2095  -22.2685   24.2837 C   0  0  0  0  0  0  0  0  0  0  0  0
  -29.1677  -20.6762   21.3169 C   0  0  0  0  0  0  0  0  0  0  0  0
  -25.1479  -25.4674   17.5170 C   0  0  0  0  0  0  0  0  0  0  0  0
  -24.7092  -26.7942   20.1231 C   0  0  0  0  0  0  0  0  0  0  0  0
  -28.4852  -21.9465   21.8179 C   0  0  0  0  0  0  0  0  0  0  0  0
  -22.4308  -19.5193   26.4198 C   0  0  0  0  0  0  0  0  0  0  0  0
  -26.9772  -21.8621   21.6039 C   0  0  0  0  0  0  0  0  0  0  0  0
  -22.4674  -18.3661   25.4214 C   0  0  0  0  0  0  0  0  0  0  0  0
  -21.1176  -25.7839   25.7598 C   0  0  0  0  0  0  0  0  0  0  0  0
  -22.7622  -20.8582   25.7620 C   0  0  0  0  0  0  0  0  0  0  0  0
  -21.9442  -20.0127   23.5802 C   0  0  0  0  0  0  0  0  0  0  0  0
  -21.2612  -25.6640   24.2669 C   0  0  1  0  0  0  0  0  0  0  0  0
  -26.6377  -21.7352   20.1139 C   0  0  1  0  0  0  0  0  0  0  0  0
  -26.0663  -25.2186   18.7095 C   0  0  1  0  0  0  0  0  0  0  0  0
  -21.5659  -18.6652   24.2139 C   0  0  1  0  0  0  0  0  0  0  0  0
  -20.6319  -24.5463   25.0650 C   0  0  1  0  0  0  0  0  0  0  0  0
  -21.1529  -28.5962   24.5562 C   0  0  0  0  0  0  0  0  0  0  0  0
  -28.4007  -32.0361   21.5512 C   0  0  0  0  0  0  0  0  0  0  0  0
  -16.4729  -25.9538   18.8211 C   0  0  0  0  0  0  0  0  0  0  0  0
  -26.9778  -25.7822   23.2052 C   0  0  0  0  0  0  0  0  0  0  0  0
  -27.4743  -28.1300   23.9190 C   0  0  0  0  0  0  0  0  0  0  0  0
  -29.1712  -26.8357   22.6275 C   0  0  0  0  0  0  0  0  0  0  0  0
  -26.6825  -31.4361   18.2100 C   0  0  0  0  0  0  0  0  0  0  0  0
  -18.8713  -26.6033   18.4159 C   0  0  0  0  0  0  0  0  0  1  0  0
  -27.0954  -27.6750   21.4532 C   0  0  1  0  0  0  0  0  0  0  0  0
  -27.9226  -31.2112   20.3665 C   0  0  2  0  0  0  0  0  0  0  0  0
  -17.6923  -26.6718   19.3842 C   0  0  2  0  0  0  0  0  0  0  0  0
  -27.6578  -27.1002   22.7839 C   0  0  0  0  0  0  0  0  0  0  0  0
  -18.7523  -28.0273   21.7169 N   0  0  0  0  0  0  0  0  0  0  0  0
  -22.7175  -16.8209   23.0494 N   0  0  0  0  0  0  0  0  0  0  0  0
  -21.5897  -17.5361   23.1999 N   0  0  0  0  0  0  0  0  0  0  0  0
  -26.0287  -26.3068   19.6885 N   0  0  0  0  0  0  0  0  0  0  0  0
  -21.9318  -21.0961   24.5709 N   0  0  0  0  0  0  0  0  0  0  0  0
  -19.3668  -17.7464   22.4092 N   0  0  0  0  0  0  0  0  0  0  0  0
  -21.0069  -14.2952   20.0019 N   0  0  0  0  0  0  0  0  0  0  0  0
  -18.0606  -26.0525   20.6416 N   0  0  0  0  0  0  0  0  0  0  0  0
  -26.7490  -23.0208   19.4589 N   0  0  0  0  0  0  0  0  0  0  0  0
  -27.7396  -28.9087   21.0157 N   0  0  0  0  0  0  0  0  0  0  0  0
  -21.3090  -23.2871   25.2248 N   0  0  0  0  0  0  0  0  0  0  0  0
  -27.1892  -32.1115   19.4323 N   0  3  0  0  0  0  0  0  0  0  0  0
  -19.1603  -15.6085   20.3541 O   0  0  0  0  0  0  0  0  0  0  0  0
  -24.6272  -23.8336   19.9688 O   0  0  0  0  0  0  0  0  0  0  0  0
  -28.3437  -26.3120   19.9663 O   0  0  0  0  0  0  0  0  0  0  0  0
  -25.8136  -30.1992   20.9709 O   0  0  0  0  0  0  0  0  0  0  0  0
  -20.5292  -22.4025   23.2606 O   0  0  0  0  0  0  0  0  0  0  0  0
  -26.1486  -12.1805   20.3582 O   0  0  0  0  0  0  0  0  0  0  0  0
  -19.9876  -27.3135   18.9504 O   0  0  0  0  0  0  0  0  0  1  0  0
  -31.2644  -13.9644   19.3335 F   0  0  0  0  0  0  0  0  0  0  0  0
  -27.2646  -11.9189   17.8425 F   0  0  0  0  0  0  0  0  0  0  0  0
  1  2  1  0  0  0  0
  1  5  2  0  0  0  0
  2  6  2  0  0  0  0
  3  8  2  0  0  0  0
  3 17  1  0  0  0  0
  4  9  1  0  0  0  0
  4 17  2  0  0  0  0
  5 19  1  0  0  0  0
  6 21  1  0  0  0  0
  7 10  2  0  0  0  0
  7 20  1  0  0  0  0
  8 25  1  0  0  0  0
  9 25  2  0  0  0  0
 10 26  1  0  0  0  0
 11 12  2  0  0  0  0
 11 27  1  0  0  0  0
 12 28  1  0  0  0  0
 13 22  1  0  0  0  0
 13 26  2  0  0  0  0
 14 23  2  0  0  0  0
 14 31  1  0  0  0  0
 15 28  2  0  0  0  0
 15 29  1  0  0  0  0
 16 24  2  0  0  0  0
 16 65  1  0  0  0  0
 17 30  1  0  0  0  0
 18 30  1  0  0  0  0
 18 32  2  0  0  0  0
 18 33  1  0  0  0  0
 19 21  2  0  0  0  0
 19 38  1  0  0  0  0
 20 22  2  0  0  0  0
 20 39  1  0  0  0  0
 21 49  1  0  0  0  0
 22 40  1  0  0  0  0
 23 24  1  0  0  0  0
 23 48  1  0  0  0  0
 24 53  1  0  0  0  0
 25 82  1  0  0  0  0
 26 83  1  0  0  0  0
 27 29  2  0  0  0  0
 27 82  1  0  0  0  0
 28 84  1  0  0  0  0
 29 85  1  0  0  0  0
 30 66  2  0  0  0  0
 31 65  2  0  0  0  0
 31 72  1  0  0  0  0
 32 67  1  0  0  0  0
 32 70  1  0  0  0  0
 33 71  1  0  0  0  0
 33 77  2  0  0  0  0
 34 50  1  0  0  0  0
 34 73  1  0  0  0  0
 34 78  2  0  0  0  0
 35 61  1  0  0  0  0
 35 68  1  0  0  0  0
 35 79  2  0  0  0  0
 36 62  1  0  0  0  0
 36 74  1  0  0  0  0
 36 80  2  0  0  0  0
 37 69  1  0  0  0  0
 37 75  1  0  0  0  0
 37 81  2  0  0  0  0
 38 41  1  0  0  0  0
 39 50  1  0  0  0  0
 40 68  1  0  0  0  0
 41 43  1  0  0  0  0
 42 44  1  0  0  0  0
 42 46  1  0  0  0  0
 43 49  1  0  0  0  0
 44 51  1  0  0  0  0
 45 48  1  0  0  0  0
 45 52  1  0  0  0  0
 46 69  1  0  0  0  0
 47 51  1  0  0  0  0
 47 69  1  0  0  0  0
 48 52  1  0  0  0  0
 49 73  1  0  0  0  0
 50 68  1  0  0  0  0
 51 67  1  0  0  0  0
 52 75  1  0  0  0  0
 54 62  1  0  0  0  0
 55 63  1  0  0  0  0
 56 64  1  0  0  0  0
 57 64  1  0  0  0  0
 58 64  1  0  0  0  0
 59 76  1  0  0  0  0
 60 63  1  0  0  0  0
 60 83  1  0  0  0  0
 61 64  1  0  0  0  0
 61 74  1  0  0  0  0
 62 76  1  0  0  0  0
 63 72  1  0  0  0  0
 66 67  1  0  0  0  0
M  CHG  1  76   1
M  ISO  4  37 100  60 101  75 100  83 101
M  END
> <Batch ID>
0188

> <Smiles>
CNC(C)C(=O)NC(C(=O)N1Cc2cc([101O:1][101CH2:1]C(C)Nc3cc(C4CC4[100NH:0][100C:0](=O)N4CCCC(n5nc(-c6ccc(Oc7ccc(F)cc7F)cc6)c(C(N)=O)c5N)C4)c(C)cn3)ccc2CC1C(=O)NC1CCCc2ccccc21)C(C)(C)C

> <Shape>
0.213

> <Color>
0.060

> <Negative vol penalty>
0.000

$$$$

  -OEChem-04052323193D

 87 96  0     1  0  0  0  0  0999 V2000
  -28.2930  -37.7946   22.4212 C   0  0  0  0  0  0  0  0  0  0  0  0
  -28.7462  -36.5740   21.9310 C   0  0  0  0  0  0  0  0  0  0  0  0
  -26.8854  -11.5441   19.4913 C   0  0  0  0  0  0  0  0  0  0  0  0
  -26.5622  -13.3827   17.9576 C   0  0  0  0  0  0  0  0  0  0  0  0
  -27.3020  -37.8262   23.4014 C   0  0  0  0  0  0  0  0  0  0  0  0
  -28.2092  -35.3843   22.4215 C   0  0  0  0  0  0  0  0  0  0  0  0
  -27.2530  -30.2094   19.2891 C   0  0  0  0  0  0  0  0  0  0  0  0
  -25.7417  -10.9237   18.9886 C   0  0  0  0  0  0  0  0  0  0  0  0
  -25.4185  -12.7623   17.4549 C   0  0  0  0  0  0  0  0  0  0  0  0
  -27.9868  -29.0288   19.1816 C   0  0  0  0  0  0  0  0  0  0  0  0
  -24.6850  -10.2573   15.3084 C   0  0  0  0  0  0  0  0  0  0  0  0
  -24.5248  -10.2213   13.9233 C   0  0  0  0  0  0  0  0  0  0  0  0
  -26.6175  -28.0288   20.8975 C   0  0  0  0  0  0  0  0  0  0  0  0
  -22.4578  -11.4548   14.1302 C   0  0  0  0  0  0  0  0  0  0  0  0
  -27.2956  -12.7736   18.9758 C   0  0  0  0  0  0  0  0  0  0  0  0
  -29.7984  -13.2639   19.0347 C   0  0  0  0  0  0  0  0  0  0  0  0
  -26.7458  -36.6365   23.8973 C   0  0  0  0  0  0  0  0  0  0  0  0
  -26.2012  -30.3124   20.2108 C   0  0  0  0  0  0  0  0  0  0  0  0
  -27.2108  -35.4000   23.4103 C   0  0  0  0  0  0  0  0  0  0  0  0
  -25.8703  -29.2109   21.0129 C   0  0  0  0  0  0  0  0  0  0  0  0
  -25.0083  -11.5328   17.9704 C   0  0  0  0  0  0  0  0  0  0  0  0
  -27.6709  -27.9392   19.9880 C   0  0  0  0  0  0  0  0  0  0  0  0
  -23.7315  -10.8920   16.1045 C   0  0  0  0  0  0  0  0  0  0  0  0
  -23.4112  -10.8200   13.3342 C   0  0  0  0  0  0  0  0  0  0  0  0
  -22.6179  -11.4908   15.5154 C   0  0  0  0  0  0  0  0  0  0  0  0
  -28.4767  -13.4153   19.4951 C   0  0  0  0  0  0  0  0  0  0  0  0
  -30.5664  -22.4875   20.0603 C   0  0  0  0  0  0  0  0  0  0  0  0
  -30.8721  -23.7504   19.6031 C   0  0  0  0  0  0  0  0  0  0  0  0
  -28.6198  -23.2837   20.9583 C   0  0  0  0  0  0  0  0  0  0  0  0
  -28.9258  -24.5468   20.5018 C   0  0  0  0  0  0  0  0  0  0  0  0
  -30.5424  -14.0784   19.8530 C   0  0  0  0  0  0  0  0  0  0  0  0
  -30.3081  -12.4591   17.9632 C   0  0  0  0  0  0  0  0  0  0  0  0
  -25.6114  -32.1359   22.7466 C   0  0  0  0  0  0  0  0  0  0  0  0
  -22.7316  -30.6453   22.6620 C   0  0  0  0  0  0  0  0  0  0  0  0
  -20.9024  -27.9290   21.7014 C   0  0  0  0  0  0  0  0  0  0  0  0
  -31.1441  -19.0600   22.4302 C   0  0  0  0  0  0  0  0  0  0  0  0
  -25.7103  -36.7198   24.9906 C   0  0  0  0  0  0  0  0  0  0  0  0
  -25.4022  -31.5839   20.2956 C   0  0  0  0  0  0  0  0  0  0  0  0
  -24.7373  -29.2635   22.0039 C   0  0  0  0  0  0  0  0  0  0  0  0
  -24.9275  -35.4242   25.1881 C   0  0  0  0  0  0  0  0  0  0  0  0
  -29.3461  -16.4556   24.1283 C   0  0  0  0  0  0  0  0  0  0  0  0
  -25.8741  -34.2286   25.2232 C   0  0  0  0  0  0  0  0  0  0  0  0
  -29.0192  -15.4466   23.0322 C   0  0  0  0  0  0  0  0  0  0  0  0
  -29.3118  -17.8781   23.5859 C   0  0  0  0  0  0  0  0  0  0  0  0
  -32.4149  -20.7417   20.9968 C   0  0  0  0  0  0  0  0  0  0  0  0
  -30.8302  -19.7927   19.9413 C   0  0  0  0  0  0  0  0  0  0  0  0
  -29.9600  -17.0856   21.3263 C   0  0  0  0  0  0  0  0  0  0  0  0
  -26.6354  -34.0886   23.8995 C   0  0  1  0  0  0  0  0  0  0  0  0
  -31.4816  -21.1953   19.8493 C   0  0  0  0  0  0  0  0  0  0  0  0
  -24.6826  -31.7495   21.6306 C   0  0  1  0  0  0  0  0  0  0  0  0
  -29.9624  -15.6300   21.8345 C   0  0  2  0  0  0  0  0  0  0  0  0
  -27.3640  -23.0131   21.7141 C   0  0  0  0  0  0  0  0  0  0  0  0
  -18.5820  -26.9793   21.8071 C   0  0  0  0  0  0  0  0  0  0  0  0
  -23.1748  -29.8942   25.5859 C   0  0  0  0  0  0  0  0  0  0  0  0
  -21.3495  -28.1964   25.3541 C   0  0  0  0  0  0  0  0  0  0  0  0
  -20.8450  -30.6186   25.0366 C   0  0  0  0  0  0  0  0  0  0  0  0
  -30.8113  -24.7832   15.3318 C   0  0  0  0  0  0  0  0  0  0  0  0
  -20.6515  -27.9084   18.7526 C   0  0  0  0  0  0  0  0  0  0  0  0
  -28.0080  -25.7092   20.7424 C   0  0  0  0  0  0  0  0  0  1  0  0
  -31.9979  -23.8600   17.3264 C   0  0  0  0  0  0  0  0  0  0  0  0
  -32.1290  -24.0102   18.8474 C   0  0  1  0  0  0  0  0  0  0  0  0
  -22.1622  -29.3845   23.2663 C   0  0  1  0  0  0  0  0  0  0  0  0
  -19.5619  -27.8149   20.9982 C   0  0  2  0  0  0  0  0  0  0  0  0
  -21.9055  -29.5227   24.7935 C   0  0  0  0  0  0  0  0  0  0  0  0
  -28.3832  -14.2594   20.5259 N   0  0  0  0  0  0  0  0  0  0  0  0
  -29.4347  -22.2314   20.7461 N   0  0  0  0  0  0  0  0  0  0  0  0
  -30.0573  -24.8028   19.8157 N   0  0  0  0  0  0  0  0  0  0  0  0
  -29.6556  -14.6457   20.7202 N   0  0  0  0  0  0  0  0  0  0  0  0
  -23.9899  -30.5309   22.0541 N   0  0  0  0  0  0  0  0  0  0  0  0
  -30.1826  -18.0434   22.4183 N   0  0  0  0  0  0  0  0  0  0  0  0
  -31.4774  -19.6527   21.2335 N   0  0  0  0  0  0  0  0  0  0  0  0
  -31.8620  -14.3574   19.9083 N   0  0  0  0  0  0  0  0  0  0  0  0
  -29.4059  -11.6825   17.2234 N   0  0  0  0  0  0  0  0  0  0  0  0
  -25.7851  -33.4995   22.8873 N   0  0  0  0  0  0  0  0  0  0  0  0
  -20.9722  -29.0598   22.4873 N   0  0  0  0  0  0  0  0  0  0  0  0
  -30.9725  -24.8023   16.8106 N   0  3  0  0  0  0  0  0  0  0  0  0
  -19.7308  -27.1781   19.6614 N   0  3  0  0  0  0  0  0  0  0  0  0
  -31.5296  -12.4170   17.6809 O   0  0  0  0  0  0  0  0  0  0  0  0
  -26.1307  -31.2617   23.4305 O   0  0  0  0  0  0  0  0  0  0  0  0
  -22.0807  -31.6914   22.7207 O   0  0  0  0  0  0  0  0  0  0  0  0
  -21.7967  -27.0963   21.5698 O   0  0  0  0  0  0  0  0  0  0  0  0
  -31.6685  -19.4506   23.4815 O   0  0  0  0  0  0  0  0  0  0  0  0
  -23.8923  -10.9276   17.4795 O   0  0  0  0  0  0  0  0  0  0  0  0
  -28.3859  -26.7859   19.8856 O   0  0  0  0  0  0  0  0  0  1  0  0
  -23.2584  -10.7867   12.0039 F   0  0  0  0  0  0  0  0  0  0  0  0
  -21.6992  -12.1031   16.2749 F   0  0  0  0  0  0  0  0  0  0  0  0
  -32.6719  -25.2518   19.0824 F   0  0  0  0  0  0  0  0  0  0  0  0
  1  2  1  0  0  0  0
  1  5  2  0  0  0  0
  2  6  2  0  0  0  0
  3  8  2  0  0  0  0
  3 15  1  0  0  0  0
  4  9  1  0  0  0  0
  4 15  2  0  0  0  0
  5 17  1  0  0  0  0
  6 19  1  0  0  0  0
  7 10  2  0  0  0  0
  7 18  1  0  0  0  0
  8 21  1  0  0  0  0
  9 21  2  0  0  0  0
 10 22  1  0  0  0  0
 11 12  2  0  0  0  0
 11 23  1  0  0  0  0
 12 24  1  0  0  0  0
 13 20  1  0  0  0  0
 13 22  2  0  0  0  0
 14 24  2  0  0  0  0
 14 25  1  0  0  0  0
 15 26  1  0  0  0  0
 16 26  1  0  0  0  0
 16 31  2  0  0  0  0
 16 32  1  0  0  0  0
 17 19  2  0  0  0  0
 17 37  1  0  0  0  0
 18 20  2  0  0  0  0
 18 38  1  0  0  0  0
 19 48  1  0  0  0  0
 20 39  1  0  0  0  0
 21 83  1  0  0  0  0
 22 84  1  0  0  0  0
 23 25  2  0  0  0  0
 23 83  1  0  0  0  0
 24 85  1  0  0  0  0
 25 86  1  0  0  0  0
 26 65  2  0  0  0  0
 27 28  2  0  0  0  0
 27 49  1  0  0  0  0
 27 66  1  0  0  0  0
 28 61  1  0  0  0  0
 28 67  1  0  0  0  0
 29 30  1  0  0  0  0
 29 52  1  0  0  0  0
 29 66  2  0  0  0  0
 30 59  1  0  0  0  0
 30 67  2  0  0  0  0
 31 68  1  0  0  0  0
 31 72  1  0  0  0  0
 32 73  1  0  0  0  0
 32 78  2  0  0  0  0
 33 50  1  0  0  0  0
 33 74  1  0  0  0  0
 33 79  2  0  0  0  0
 34 62  1  0  0  0  0
 34 69  1  0  0  0  0
 34 80  2  0  0  0  0
 35 63  1  0  0  0  0
 35 75  1  0  0  0  0
 35 81  2  0  0  0  0
 36 70  1  0  0  0  0
 36 71  1  0  0  0  0
 36 82  2  0  0  0  0
 37 40  1  0  0  0  0
 38 50  1  0  0  0  0
 39 69  1  0  0  0  0
 40 42  1  0  0  0  0
 41 43  1  0  0  0  0
 41 44  1  0  0  0  0
 42 48  1  0  0  0  0
 43 51  1  0  0  0  0
 44 70  1  0  0  0  0
 45 49  1  0  0  0  0
 45 71  1  0  0  0  0
 46 49  1  0  0  0  0
 46 71  1  0  0  0  0
 47 51  1  0  0  0  0
 47 70  1  0  0  0  0
 48 74  1  0  0  0  0
 50 69  1  0  0  0  0
 51 68  1  0  0  0  0
 53 63  1  0  0  0  0
 54 64  1  0  0  0  0
 55 64  1  0  0  0  0
 56 64  1  0  0  0  0
 57 76  1  0  0  0  0
 58 77  1  0  0  0  0
 59 84  1  0  0  0  0
 60 61  1  0  0  0  0
 60 76  1  0  0  0  0
 61 87  1  0  0  0  0
 62 64  1  0  0  0  0
 62 75  1  0  0  0  0
 63 77  1  0  0  0  0
 65 68  1  0  0  0  0
M  CHG  2  76   1  77   1
M  ISO  4  36 100  59 101  71 100  84 101
M  END
> <Batch ID>
0188

> <Smiles>
CNCC(F)c1nc([101CH2:1][101O:1]c2ccc3c(c2)CN(C(=O)C(NC(=O)C(C)NC)C(C)(C)C)C(C(=O)NC2CCCc4ccccc42)C3)c(C)nc1C1C[100N:0]([100C:0](=O)N2CCCC(n3nc(-c4ccc(Oc5ccc(F)cc5F)cc4)c(C(N)=O)c3N)C2)C1

> <Shape>
0.288

> <Color>
0.082

> <Negative vol penalty>
0.000

$$$$

  -OEChem-04052323193D

 88 98  0     1  0  0  0  0  0999 V2000
  -22.1597  -11.0755   19.1392 C   0  0  0  0  0  0  0  0  0  0  0  0
  -21.7610  -12.3982   19.3035 C   0  0  0  0  0  0  0  0  0  0  0  0
  -28.9302  -27.4894   21.6200 C   0  0  0  0  0  0  0  0  0  0  0  0
  -27.7006  -25.5019   21.0079 C   0  0  0  0  0  0  0  0  0  0  0  0
  -23.4052  -10.6606   19.6088 C   0  0  0  0  0  0  0  0  0  0  0  0
  -22.6072  -13.3065   19.9385 C   0  0  0  0  0  0  0  0  0  0  0  0
  -23.2364  -19.2633   18.6631 C   0  0  0  0  0  0  0  0  0  0  0  0
  -30.0402  -27.0188   20.9185 C   0  0  0  0  0  0  0  0  0  0  0  0
  -28.8106  -25.0313   20.3063 C   0  0  0  0  0  0  0  0  0  0  0  0
  -22.6995  -20.4095   19.2476 C   0  0  0  0  0  0  0  0  0  0  0  0
  -33.0776  -26.5077   18.9877 C   0  0  0  0  0  0  0  0  0  0  0  0
  -33.7523  -27.4073   18.1624 C   0  0  0  0  0  0  0  0  0  0  0  0
  -24.7019  -20.6669   20.5680 C   0  0  0  0  0  0  0  0  0  0  0  0
  -31.7355  -27.7378   16.8738 C   0  0  0  0  0  0  0  0  0  0  0  0
  -22.7339  -25.2374   21.4816 C   0  0  0  0  0  0  0  0  0  0  0  0
  -27.7605  -26.7309   21.6648 C   0  0  0  0  0  0  0  0  0  0  0  0
  -25.5686  -28.0163   21.8906 C   0  0  0  0  0  0  0  0  0  0  0  0
  -24.2711  -11.5666   20.2413 C   0  0  0  0  0  0  0  0  0  0  0  0
  -24.5078  -18.8034   19.0352 C   0  0  0  0  0  0  0  0  0  0  0  0
  -23.8649  -12.9031   20.4182 C   0  0  0  0  0  0  0  0  0  0  0  0
  -25.2537  -19.5161   19.9848 C   0  0  0  0  0  0  0  0  0  0  0  0
  -29.9803  -25.7898   20.2616 C   0  0  0  0  0  0  0  0  0  0  0  0
  -23.4310  -21.1099   20.2023 C   0  0  0  0  0  0  0  0  0  0  0  0
  -31.7318  -26.2231   18.7560 C   0  0  0  0  0  0  0  0  0  0  0  0
  -33.0813  -28.0223   17.1054 C   0  0  0  0  0  0  0  0  0  0  0  0
  -31.0608  -26.8382   17.6991 C   0  0  0  0  0  0  0  0  0  0  0  0
  -26.6138  -27.2162   22.3898 C   0  0  0  0  0  0  0  0  0  0  0  0
  -21.6218  -25.0808   23.9036 C   0  0  0  0  0  0  0  0  0  0  0  0
  -22.8857  -24.1125   22.2619 C   0  0  0  0  0  0  0  0  0  0  0  0
  -21.4706  -26.2060   23.1234 C   0  0  0  0  0  0  0  0  0  0  0  0
  -24.7338  -28.2007   22.9656 C   0  0  0  0  0  0  0  0  0  0  0  0
  -25.3700  -28.5455   20.5729 C   0  0  0  0  0  0  0  0  0  0  0  0
  -25.6286  -16.1497   20.3790 C   0  0  0  0  0  0  0  0  0  0  0  0
  -28.5048  -17.5144   19.7565 C   0  0  0  0  0  0  0  0  0  0  0  0
  -30.2983  -20.3616   19.1874 C   0  0  0  0  0  0  0  0  0  0  0  0
  -23.7410  -25.0315   27.9477 C   0  0  0  0  0  0  0  0  0  0  0  0
  -25.5880  -11.0606   20.7744 C   0  0  0  0  0  0  0  0  0  0  0  0
  -25.0839  -17.5804   18.3758 C   0  0  0  0  0  0  0  0  0  0  0  0
  -26.6316  -19.0754   20.4042 C   0  0  0  0  0  0  0  0  0  0  0  0
  -26.5805  -12.1732   21.1021 C   0  0  0  0  0  0  0  0  0  0  0  0
  -24.7777  -28.4316   27.7442 C   0  0  0  0  0  0  0  0  0  0  0  0
  -25.8959  -13.2832   21.8934 C   0  0  0  0  0  0  0  0  0  0  0  0
  -25.2715  -28.5778   26.3038 C   0  0  0  0  0  0  0  0  0  0  0  0
  -17.5417  -27.9979   22.6331 C   0  0  0  0  0  0  0  0  0  0  0  0
  -25.1158  -27.0582   28.3201 C   0  0  0  0  0  0  0  0  0  0  0  0
  -25.1529  -26.0623   26.0661 C   0  0  0  0  0  0  0  0  0  0  0  0
  -18.7117  -27.1202   22.1647 C   0  0  0  0  0  0  0  0  0  0  0  0
  -18.4715  -28.4152   23.7821 C   0  0  0  0  0  0  0  0  0  0  0  0
  -19.5805  -24.4700   25.3861 C   0  0  0  0  0  0  0  0  0  0  0  0
  -24.7651  -13.9240   21.0797 C   0  0  1  0  0  0  0  0  0  0  0  0
  -20.9978  -24.9982   25.2559 C   0  0  1  0  0  0  0  0  0  0  0  0
  -26.1759  -16.9124   19.2058 C   0  0  1  0  0  0  0  0  0  0  0  0
  -24.7858  -27.4108   25.4233 C   0  0  2  0  0  0  0  0  0  0  0  0
  -32.6357  -21.1629   18.7495 C   0  0  0  0  0  0  0  0  0  0  0  0
  -29.1907  -17.1165   22.7029 C   0  0  0  0  0  0  0  0  0  0  0  0
  -31.0693  -18.7460   22.4138 C   0  0  0  0  0  0  0  0  0  0  0  0
  -31.0600  -16.6136   21.1195 C   0  0  0  0  0  0  0  0  0  0  0  0
  -29.5436  -21.4868   16.5562 C   0  0  0  0  0  0  0  0  0  0  0  0
  -20.6834  -27.3815   23.5932 C   0  0  0  0  0  0  0  0  0  0  0  0
  -23.6844  -22.9433   21.7654 C   0  0  0  0  0  0  0  0  0  1  0  0
  -22.4049  -23.0086   27.4167 C   0  0  0  0  0  0  0  0  0  0  0  0
  -20.9558  -23.4020   27.1991 C   0  0  0  0  0  0  0  0  0  0  0  0
  -29.4303  -18.4452   20.5022 C   0  0  1  0  0  0  0  0  0  0  0  0
  -31.3251  -20.7098   18.1250 C   0  0  2  0  0  0  0  0  0  0  0  0
  -30.1608  -17.7378   21.6783 C   0  0  0  0  0  0  0  0  0  0  0  0
  -22.0237  -26.3044   21.8983 N   0  0  0  0  0  0  0  0  0  0  0  0
  -26.4594  -26.9133   23.6815 N   0  0  0  0  0  0  0  0  0  0  0  0
  -22.3323  -24.0140   23.4870 N   0  0  0  0  0  0  0  0  0  0  0  0
  -25.3075  -27.5263   24.0030 N   0  0  0  0  0  0  0  0  0  0  0  0
  -27.1488  -17.8701   19.7354 N   0  0  0  0  0  0  0  0  0  0  0  0
  -24.6265  -25.9956   27.4384 N   0  0  0  0  0  0  0  0  0  0  0  0
  -23.5723  -28.8723   23.1152 N   0  0  0  0  0  0  0  0  0  0  0  0
  -26.3245  -28.2595   19.5872 N   0  0  0  0  0  0  0  0  0  0  0  0
  -25.3054  -14.8366   20.0950 N   0  0  0  0  0  0  0  0  0  0  0  0
  -30.3242  -19.0194   19.5024 N   0  0  0  0  0  0  0  0  0  0  0  0
  -23.3208  -24.0635   27.0437 N   0  0  0  0  0  0  0  0  0  0  0  0
  -19.2210  -27.1647   23.5496 N   0  3  0  0  0  0  0  0  0  0  0  0
  -20.7209  -23.6623   25.7758 N   0  3  1  0  0  0  0  0  0  0  0  0
  -30.8166  -21.8057   17.2525 N   0  3  0  0  0  0  0  0  0  0  0  0
  -24.3841  -29.2647   20.2826 O   0  0  0  0  0  0  0  0  0  0  0  0
  -25.5098  -16.7106   21.4620 O   0  0  0  0  0  0  0  0  0  0  0  0
  -28.9691  -16.5124   19.2068 O   0  0  0  0  0  0  0  0  0  0  0  0
  -29.5506  -21.1973   19.6905 O   0  0  0  0  0  0  0  0  0  0  0  0
  -23.3494  -25.0363   29.1197 O   0  0  0  0  0  0  0  0  0  0  0  0
  -31.0631  -25.3304   19.5767 O   0  0  0  0  0  0  0  0  0  0  0  0
  -22.9090  -22.2286   20.7749 O   0  0  0  0  0  0  0  0  0  1  0  0
  -33.7289  -28.8874   16.3139 F   0  0  0  0  0  0  0  0  0  0  0  0
  -29.7676  -26.5696   17.4723 F   0  0  0  0  0  0  0  0  0  0  0  0
  1  2  1  0  0  0  0
  1  5  2  0  0  0  0
  2  6  2  0  0  0  0
  3  8  2  0  0  0  0
  3 16  1  0  0  0  0
  4  9  1  0  0  0  0
  4 16  2  0  0  0  0
  5 18  1  0  0  0  0
  6 20  1  0  0  0  0
  7 10  2  0  0  0  0
  7 19  1  0  0  0  0
  8 22  1  0  0  0  0
  9 22  2  0  0  0  0
 10 23  1  0  0  0  0
 11 12  2  0  0  0  0
 11 24  1  0  0  0  0
 12 25  1  0  0  0  0
 13 21  1  0  0  0  0
 13 23  2  0  0  0  0
 14 25  2  0  0  0  0
 14 26  1  0  0  0  0
 15 29  1  0  0  0  0
 15 66  2  0  0  0  0
 16 27  1  0  0  0  0
 17 27  1  0  0  0  0
 17 31  2  0  0  0  0
 17 32  1  0  0  0  0
 18 20  2  0  0  0  0
 18 37  1  0  0  0  0
 19 21  2  0  0  0  0
 19 38  1  0  0  0  0
 20 50  1  0  0  0  0
 21 39  1  0  0  0  0
 22 85  1  0  0  0  0
 23 86  1  0  0  0  0
 24 26  2  0  0  0  0
 24 85  1  0  0  0  0
 25 87  1  0  0  0  0
 26 88  1  0  0  0  0
 27 67  2  0  0  0  0
 28 30  2  0  0  0  0
 28 51  1  0  0  0  0
 28 68  1  0  0  0  0
 29 60  1  0  0  0  0
 29 68  2  0  0  0  0
 30 59  1  0  0  0  0
 30 66  1  0  0  0  0
 31 69  1  0  0  0  0
 31 72  1  0  0  0  0
 32 73  1  0  0  0  0
 32 80  2  0  0  0  0
 33 52  1  0  0  0  0
 33 74  1  0  0  0  0
 33 81  2  0  0  0  0
 34 63  1  0  0  0  0
 34 70  1  0  0  0  0
 34 82  2  0  0  0  0
 35 64  1  0  0  0  0
 35 75  1  0  0  0  0
 35 83  2  0  0  0  0
 36 71  1  0  0  0  0
 36 76  1  0  0  0  0
 36 84  2  0  0  0  0
 37 40  1  0  0  0  0
 38 52  1  0  0  0  0
 39 70  1  0  0  0  0
 40 42  1  0  0  0  0
 41 43  1  0  0  0  0
 41 45  1  0  0  0  0
 42 50  1  0  0  0  0
 43 53  1  0  0  0  0
 44 47  1  0  0  0  0
 44 48  1  0  0  0  0
 45 71  1  0  0  0  0
 46 53  1  0  0  0  0
 46 71  1  0  0  0  0
 47 77  1  0  0  0  0
 48 77  1  0  0  0  0
 49 51  1  0  0  0  0
 49 78  1  0  0  0  0
 50 74  1  0  0  0  0
 51 78  1  0  0  0  0
 52 70  1  0  0  0  0
 53 69  1  0  0  0  0
 54 64  1  0  0  0  0
 55 65  1  0  0  0  0
 56 65  1  0  0  0  0
 57 65  1  0  0  0  0
 58 79  1  0  0  0  0
 59 77  1  0  0  0  0
 60 86  1  0  0  0  0
 61 62  1  0  0  0  0
 61 76  1  0  0  0  0
 62 78  1  0  0  0  0
 63 65  1  0  0  0  0
 63 75  1  0  0  0  0
 64 79  1  0  0  0  0
 67 69  1  0  0  0  0
M  CHG  3  77   1  78   1  79   1
M  ISO  4  36 100  60 101  76 100  86 101
M  END
> <Batch ID>
0188

> <Smiles>
CNC(C)C(=O)NC(C(=O)N1Cc2cc([101O:1][101CH2:1]c3cnc(CN4CCC4)c(C4CN4CC[100NH:0][100C:0](=O)N4CCCC(n5nc(-c6ccc(Oc7ccc(F)cc7F)cc6)c(C(N)=O)c5N)C4)n3)ccc2CC1C(=O)NC1CCCc2ccccc21)C(C)(C)C

> <Shape>
0.198

> <Color>
0.080

> <Negative vol penalty>
0.000

$$$$

  -OEChem-04052323193D

 80 89  0     1  0  0  0  0  0999 V2000
  -17.1149  -30.7267   24.3162 C   0  0  0  0  0  0  0  0  0  0  0  0
  -18.4627  -30.3888   24.3846 C   0  0  0  0  0  0  0  0  0  0  0  0
  -26.7928  -14.4854   19.4057 C   0  0  0  0  0  0  0  0  0  0  0  0
  -25.3518  -14.7084   21.3320 C   0  0  0  0  0  0  0  0  0  0  0  0
  -16.2358  -29.9360   23.5775 C   0  0  0  0  0  0  0  0  0  0  0  0
  -18.9320  -29.2592   23.7150 C   0  0  0  0  0  0  0  0  0  0  0  0
  -24.3988  -28.5699   21.0422 C   0  0  0  0  0  0  0  0  0  0  0  0
  -26.7036  -13.0966   19.4997 C   0  0  0  0  0  0  0  0  0  0  0  0
  -25.2625  -13.3196   21.4260 C   0  0  0  0  0  0  0  0  0  0  0  0
  -25.5798  -27.9615   21.4654 C   0  0  0  0  0  0  0  0  0  0  0  0
  -23.5754  -10.8243   19.8937 C   0  0  0  0  0  0  0  0  0  0  0  0
  -22.3134  -10.2706   20.1090 C   0  0  0  0  0  0  0  0  0  0  0  0
  -24.9556  -25.9479   20.2929 C   0  0  0  0  0  0  0  0  0  0  0  0
  -23.0981   -9.2834   22.1697 C   0  0  0  0  0  0  0  0  0  0  0  0
  -29.6126  -26.5081   19.3252 C   0  0  0  0  0  0  0  0  0  0  0  0
  -26.1169  -15.2914   20.3219 C   0  0  0  0  0  0  0  0  0  0  0  0
  -25.3660  -17.5851   19.4957 C   0  0  0  0  0  0  0  0  0  0  0  0
  -16.6962  -28.8016   22.8906 C   0  0  0  0  0  0  0  0  0  0  0  0
  -23.4807  -27.8669   20.2489 C   0  0  0  0  0  0  0  0  0  0  0  0
  -18.0579  -28.4518   22.9675 C   0  0  0  0  0  0  0  0  0  0  0  0
  -23.7649  -26.5504   19.8589 C   0  0  0  0  0  0  0  0  0  0  0  0
  -25.9385  -12.5137   20.5098 C   0  0  0  0  0  0  0  0  0  0  0  0
  -25.8570  -26.6494   21.0932 C   0  0  0  0  0  0  0  0  0  0  0  0
  -24.5988  -10.6075   20.8164 C   0  0  0  0  0  0  0  0  0  0  0  0
  -22.0747   -9.5002   21.2470 C   0  0  0  0  0  0  0  0  0  0  0  0
  -24.3601   -9.8370   21.9544 C   0  0  0  0  0  0  0  0  0  0  0  0
  -26.2092  -16.7260   20.2257 C   0  0  0  0  0  0  0  0  0  0  0  0
  -25.8705  -18.8411   19.7288 C   0  0  0  0  0  0  0  0  0  0  0  0
  -28.1260  -26.1466   20.7452 C   0  0  0  0  0  0  0  0  0  1  0  0
  -24.2283  -17.2753   18.6799 C   0  0  0  0  0  0  0  0  0  0  0  0
  -20.4594  -26.9434   20.5989 C   0  0  0  0  0  0  0  0  0  0  0  0
  -20.7949  -26.0116   17.5100 C   0  0  0  0  0  0  0  0  0  0  0  0
  -22.8800  -25.0642   14.9797 C   0  0  0  0  0  0  0  0  0  0  0  0
  -30.1767  -22.2249   19.9425 C   0  0  0  0  0  0  0  0  0  0  0  0
  -15.6996  -27.9510   22.1437 C   0  0  0  0  0  0  0  0  0  0  0  0
  -22.2239  -28.5463   19.7785 C   0  0  0  0  0  0  0  0  0  0  0  0
  -22.8216  -25.7592   18.9913 C   0  0  0  0  0  0  0  0  0  0  0  0
  -16.3449  -26.9817   21.1566 C   0  0  0  0  0  0  0  0  0  0  0  0
  -29.3015  -20.4668   23.0381 C   0  0  0  0  0  0  0  0  0  0  0  0
  -17.5186  -26.2580   21.8089 C   0  0  0  0  0  0  0  0  0  0  0  0
  -28.3924  -19.3658   22.5023 C   0  0  0  0  0  0  0  0  0  0  0  0
  -33.2780  -23.4382   19.5073 C   0  0  0  0  0  0  0  0  0  0  0  0
  -30.4217  -20.8233   22.0601 C   0  0  0  0  0  0  0  0  0  0  0  0
  -32.7302  -22.3900   20.4808 C   0  0  0  0  0  0  0  0  0  0  0  0
  -29.0221  -20.0532   20.1625 C   0  0  0  0  0  0  0  0  0  0  0  0
  -18.6095  -27.2481   22.2346 C   0  0  1  0  0  0  0  0  0  0  0  0
  -21.1195  -27.5642   19.4003 C   0  0  1  0  0  0  0  0  0  0  0  0
  -27.8574  -19.7395   21.1120 C   0  0  1  0  0  0  0  0  0  0  0  0
  -31.8787  -24.0712   19.4678 C   0  0  2  0  0  0  0  0  0  0  0  0
  -22.8586  -24.3281   12.5808 C   0  0  0  0  0  0  0  0  0  0  0  0
  -19.8245  -23.2492   18.3687 C   0  0  0  0  0  0  0  0  0  0  0  0
  -20.7148  -22.3424   16.2116 C   0  0  0  0  0  0  0  0  0  0  0  0
  -18.8963  -24.0499   16.1889 C   0  0  0  0  0  0  0  0  0  0  0  0
  -24.5113  -27.3837   14.1326 C   0  0  0  0  0  0  0  0  0  0  0  0
  -31.6309  -25.2804   20.3480 C   0  0  0  0  0  0  0  0  0  0  0  0
  -21.2437  -24.7475   16.8173 C   0  0  1  0  0  0  0  0  0  0  0  0
  -22.9735  -25.5095   13.5315 C   0  0  2  0  0  0  0  0  0  0  0  0
  -20.1869  -23.6112   16.9146 C   0  0  0  0  0  0  0  0  0  0  0  0
  -28.2980  -26.7587   19.5966 N   0  0  0  0  0  0  0  0  0  0  0  0
  -27.1761  -17.3810   20.8739 N   0  0  0  0  0  0  0  0  0  0  0  0
  -29.2916  -25.5613   21.1310 N   0  0  0  0  0  0  0  0  0  0  0  0
  -30.2649  -25.7794   20.2334 N   0  0  0  0  0  0  0  0  0  0  0  0
  -26.9436  -18.6649   20.5519 N   0  0  0  0  0  0  0  0  0  0  0  0
  -21.6030  -26.4652   18.5621 N   0  0  0  0  0  0  0  0  0  0  0  0
  -29.9080  -21.0869   20.7107 N   0  0  0  0  0  0  0  0  0  0  0  0
  -31.3995  -22.8391   20.0983 N   0  0  0  0  0  0  0  0  0  0  0  0
  -25.4964  -20.0680   19.3079 N   0  0  0  0  0  0  0  0  0  0  0  0
  -23.8460  -15.9334   18.5483 N   0  0  0  0  0  0  0  0  0  0  0  0
  -19.3881  -27.6659   21.0885 N   0  0  0  0  0  0  0  0  0  0  0  0
  -21.5860  -25.1298   15.4517 N   0  0  0  0  0  0  0  0  0  0  0  0
  -24.2761  -26.1890   13.2816 N   0  3  0  0  0  0  0  0  0  0  0  0
  -23.5802  -18.1608   18.0721 O   0  0  0  0  0  0  0  0  0  0  0  0
  -20.8893  -25.8863   21.0455 O   0  0  0  0  0  0  0  0  0  0  0  0
  -19.7692  -26.5796   17.1268 O   0  0  0  0  0  0  0  0  0  0  0  0
  -23.8564  -24.6917   15.6264 O   0  0  0  0  0  0  0  0  0  0  0  0
  -29.3637  -22.6645   19.1186 O   0  0  0  0  0  0  0  0  0  0  0  0
  -25.8510  -11.1585   20.6017 O   0  0  0  0  0  0  0  0  0  0  0  0
  -27.0382  -26.0377   21.5160 O   0  0  0  0  0  0  0  0  0  1  0  0
  -20.8624   -8.9698   21.4544 F   0  0  0  0  0  0  0  0  0  0  0  0
  -25.3390   -9.6262   22.8450 F   0  0  0  0  0  0  0  0  0  0  0  0
  1  2  1  0  0  0  0
  1  5  2  0  0  0  0
  2  6  2  0  0  0  0
  3  8  2  0  0  0  0
  3 16  1  0  0  0  0
  4  9  1  0  0  0  0
  4 16  2  0  0  0  0
  5 18  1  0  0  0  0
  6 20  1  0  0  0  0
  7 10  2  0  0  0  0
  7 19  1  0  0  0  0
  8 22  1  0  0  0  0
  9 22  2  0  0  0  0
 10 23  1  0  0  0  0
 11 12  2  0  0  0  0
 11 24  1  0  0  0  0
 12 25  1  0  0  0  0
 13 21  1  0  0  0  0
 13 23  2  0  0  0  0
 14 25  2  0  0  0  0
 14 26  1  0  0  0  0
 15 59  2  0  0  0  0
 15 62  1  0  0  0  0
 16 27  1  0  0  0  0
 17 27  1  0  0  0  0
 17 28  2  0  0  0  0
 17 30  1  0  0  0  0
 18 20  2  0  0  0  0
 18 35  1  0  0  0  0
 19 21  2  0  0  0  0
 19 36  1  0  0  0  0
 20 46  1  0  0  0  0
 21 37  1  0  0  0  0
 22 77  1  0  0  0  0
 23 78  1  0  0  0  0
 24 26  2  0  0  0  0
 24 77  1  0  0  0  0
 25 79  1  0  0  0  0
 26 80  1  0  0  0  0
 27 60  2  0  0  0  0
 28 63  1  0  0  0  0
 28 67  1  0  0  0  0
 29 59  1  0  0  0  0
 29 61  2  0  0  0  0
 29 78  1  0  0  0  0
 30 68  1  0  0  0  0
 30 72  2  0  0  0  0
 31 47  1  0  0  0  0
 31 69  1  0  0  0  0
 31 73  2  0  0  0  0
 32 56  1  0  0  0  0
 32 64  1  0  0  0  0
 32 74  2  0  0  0  0
 33 57  1  0  0  0  0
 33 70  1  0  0  0  0
 33 75  2  0  0  0  0
 34 65  1  0  0  0  0
 34 66  1  0  0  0  0
 34 76  2  0  0  0  0
 35 38  1  0  0  0  0
 36 47  1  0  0  0  0
 37 64  1  0  0  0  0
 38 40  1  0  0  0  0
 39 41  1  0  0  0  0
 39 43  1  0  0  0  0
 40 46  1  0  0  0  0
 41 48  1  0  0  0  0
 42 44  1  0  0  0  0
 42 49  1  0  0  0  0
 43 65  1  0  0  0  0
 44 66  1  0  0  0  0
 45 48  1  0  0  0  0
 45 65  1  0  0  0  0
 46 69  1  0  0  0  0
 47 64  1  0  0  0  0
 48 63  1  0  0  0  0
 49 55  1  0  0  0  0
 49 66  1  0  0  0  0
 50 57  1  0  0  0  0
 51 58  1  0  0  0  0
 52 58  1  0  0  0  0
 53 58  1  0  0  0  0
 54 71  1  0  0  0  0
 55 62  1  0  0  0  0
 56 58  1  0  0  0  0
 56 70  1  0  0  0  0
 57 71  1  0  0  0  0
 60 63  1  0  0  0  0
 61 62  1  0  0  0  0
M  CHG  1  71   1
M  ISO  4  29 101  34 100  66 100  78 101
M  END
> <Batch ID>
0188

> <Smiles>
CNC(C)C(=O)NC(C(=O)N1Cc2cc([101O:1][101c:1]3ncn(CC4CC[100N:0]4[100C:0](=O)N4CCCC(n5nc(-c6ccc(Oc7ccc(F)cc7F)cc6)c(C(N)=O)c5N)C4)n3)ccc2CC1C(=O)NC1CCCc2ccccc21)C(C)(C)C

> <Shape>
0.226

> <Color>
0.075

> <Negative vol penalty>
0.000

$$$$

  -OEChem-04052323193D

 83 92  0     1  0  0  0  0  0999 V2000
  -26.7966  -28.6824   29.2920 C   0  0  0  0  0  0  0  0  0  0  0  0
  -25.6100  -28.0732   28.8968 C   0  0  0  0  0  0  0  0  0  0  0  0
  -28.4669  -16.8693   21.0804 C   0  0  0  0  0  0  0  0  0  0  0  0
  -26.9566  -17.5664   19.3282 C   0  0  0  0  0  0  0  0  0  0  0  0
  -27.4479  -29.5629   28.4290 C   0  0  0  0  0  0  0  0  0  0  0  0
  -25.0733  -28.3449   27.6388 C   0  0  0  0  0  0  0  0  0  0  0  0
  -23.9353  -23.0644   22.8731 C   0  0  0  0  0  0  0  0  0  0  0  0
  -29.1626  -18.0722   20.9594 C   0  0  0  0  0  0  0  0  0  0  0  0
  -27.6523  -18.7694   19.2072 C   0  0  0  0  0  0  0  0  0  0  0  0
  -23.4921  -22.0836   21.9855 C   0  0  0  0  0  0  0  0  0  0  0  0
  -27.8262  -21.7199   20.8457 C   0  0  0  0  0  0  0  0  0  0  0  0
  -27.0776  -22.8932   20.7537 C   0  0  0  0  0  0  0  0  0  0  0  0
  -22.7753  -23.7954   20.4351 C   0  0  0  0  0  0  0  0  0  0  0  0
  -28.0600  -23.3505   18.5943 C   0  0  0  0  0  0  0  0  0  0  0  0
  -27.3640  -16.6163   20.2647 C   0  0  0  0  0  0  0  0  0  0  0  0
  -27.1555  -14.0746   20.2050 C   0  0  0  0  0  0  0  0  0  0  0  0
  -26.9239  -29.8381   27.1561 C   0  0  0  0  0  0  0  0  0  0  0  0
  -23.8140  -24.4158   22.5379 C   0  0  0  0  0  0  0  0  0  0  0  0
  -25.7174  -29.2309   26.7586 C   0  0  0  0  0  0  0  0  0  0  0  0
  -23.2288  -24.7820   21.3147 C   0  0  0  0  0  0  0  0  0  0  0  0
  -28.7553  -19.0222   20.0228 C   0  0  0  0  0  0  0  0  0  0  0  0
  -22.9133  -22.4483   20.7697 C   0  0  0  0  0  0  0  0  0  0  0  0
  -28.6917  -21.3619   19.8121 C   0  0  0  0  0  0  0  0  0  0  0  0
  -27.1945  -23.7085   19.6279 C   0  0  0  0  0  0  0  0  0  0  0  0
  -28.8086  -22.1772   18.6864 C   0  0  0  0  0  0  0  0  0  0  0  0
  -26.6453  -15.3737   20.3889 C   0  0  0  0  0  0  0  0  0  0  0  0
  -26.0827  -13.2485   20.4356 C   0  0  0  0  0  0  0  0  0  0  0  0
  -28.4807  -13.6522   19.8571 C   0  0  0  0  0  0  0  0  0  0  0  0
  -24.4105  -27.9830   23.5356 C   0  0  0  0  0  0  0  0  0  0  0  0
  -25.0684  -27.7717   20.5468 C   0  0  0  0  0  0  0  0  0  0  0  0
  -26.3392  -28.1581   17.4047 C   0  0  0  0  0  0  0  0  0  0  0  0
  -20.1182  -14.2580   20.0862 C   0  0  0  0  0  0  0  0  0  0  0  0
  -27.6386  -30.8332   26.2766 C   0  0  0  0  0  0  0  0  0  0  0  0
  -24.2215  -25.5073   23.4900 C   0  0  0  0  0  0  0  0  0  0  0  0
  -23.0873  -26.2486   21.0114 C   0  0  0  0  0  0  0  0  0  0  0  0
  -27.2011  -30.7789   24.8151 C   0  0  0  0  0  0  0  0  0  0  0  0
  -21.9978  -12.9844   22.8715 C   0  0  0  0  0  0  0  0  0  0  0  0
  -25.6796  -30.7364   24.7146 C   0  0  0  0  0  0  0  0  0  0  0  0
  -23.4387  -13.3809   22.5669 C   0  0  0  0  0  0  0  0  0  0  0  0
  -20.2468  -18.9991   15.1415 C   0  0  0  0  0  0  0  0  0  0  0  0
  -21.4460  -19.7671   15.7446 C   0  0  0  0  0  0  0  0  0  0  0  0
  -21.0248  -14.0436   22.3712 C   0  0  0  0  0  0  0  0  0  0  0  0
  -22.5887  -14.6965   20.5597 C   0  0  0  0  0  0  0  0  0  0  0  0
  -20.5993  -16.4330   18.7027 C   0  0  0  0  0  0  0  0  0  0  0  0
  -19.0990  -15.1428   17.9151 C   0  0  0  0  0  0  0  0  0  0  0  0
  -25.1168  -29.4812   25.3923 C   0  0  1  0  0  0  0  0  0  0  0  0
  -24.7946  -26.7459   22.7783 C   0  0  1  0  0  0  0  0  0  0  0  0
  -23.6129  -13.6621   21.0675 C   0  0  1  0  0  0  0  0  0  0  0  0
  -19.9201  -18.5426   16.5817 C   0  0  2  0  0  0  0  0  0  0  0  0
  -19.2933  -16.6626   17.9309 C   0  0  0  0  0  0  0  0  0  0  0  0
  -21.4197  -18.7426   16.9057 C   0  0  2  0  0  0  0  0  0  0  0  0
  -26.7068  -29.8917   15.6280 C   0  0  0  0  0  0  0  0  0  0  0  0
  -22.1028  -27.6712   19.8403 C   0  0  0  0  0  0  0  0  0  0  0  0
  -22.6806  -28.5997   17.5881 C   0  0  0  0  0  0  0  0  0  0  0  0
  -23.1465  -29.9353   19.6428 C   0  0  0  0  0  0  0  0  0  0  0  0
  -18.4905  -16.8455   15.6738 C   0  0  0  0  0  0  0  0  0  0  0  0
  -29.2734  -27.7790   17.4787 C   0  0  0  0  0  0  0  0  0  0  0  0
  -23.0912  -19.5806   18.5620 C   0  0  0  0  0  0  0  0  0  0  0  0
  -23.1835  -20.2416   19.9231 C   0  0  0  0  0  0  0  0  0  1  0  0
  -24.5732  -27.9122   19.1296 C   0  0  1  0  0  0  0  0  0  0  0  0
  -27.3072  -29.1749   16.8274 C   0  0  2  0  0  0  0  0  0  0  0  0
  -23.1378  -28.5055   19.0594 C   0  0  0  0  0  0  0  0  0  0  0  0
  -25.3491  -15.3778   20.7112 N   0  0  0  0  0  0  0  0  0  0  0  0
  -25.0358  -14.0711   20.7317 N   0  0  0  0  0  0  0  0  0  0  0  0
  -24.3119  -26.9633   21.4040 N   0  0  0  0  0  0  0  0  0  0  0  0
  -21.2170  -14.3407   20.9485 N   0  0  0  0  0  0  0  0  0  0  0  0
  -20.0770  -15.1047   19.0027 N   0  0  0  0  0  0  0  0  0  0  0  0
  -25.9421  -11.9061   20.4119 N   0  0  0  0  0  0  0  0  0  0  0  0
  -28.8013  -13.5078   18.5003 N   0  0  0  0  0  0  0  0  0  0  0  0
  -25.2948  -28.3244   24.5411 N   0  0  0  0  0  0  0  0  0  0  0  0
  -25.5793  -28.6963   18.4216 N   0  0  0  0  0  0  0  0  0  0  0  0
  -19.6055  -17.1188   16.5828 N   0  0  1  0  0  0  0  0  0  0  0  0
  -21.6538  -19.3546   18.2196 N   0  3  0  0  0  0  0  0  0  0  0  0
  -28.5650  -28.5041   16.3927 N   0  3  0  0  0  0  0  0  0  0  0  0
  -29.3498  -13.3943   20.7241 O   0  0  0  0  0  0  0  0  0  0  0  0
  -23.3880  -28.5853   23.2302 O   0  0  0  0  0  0  0  0  0  0  0  0
  -26.0945  -28.3661   20.8889 O   0  0  0  0  0  0  0  0  0  0  0  0
  -26.2620  -27.0029   16.9921 O   0  0  0  0  0  0  0  0  0  0  0  0
  -19.1836  -13.4726   20.2925 O   0  0  0  0  0  0  0  0  0  0  0  0
  -29.4337  -20.1963   19.9046 O   0  0  0  0  0  0  0  0  0  0  0  0
  -22.4839  -21.4787   19.8996 O   0  0  0  0  0  0  0  0  0  1  0  0
  -26.4744  -24.8344   19.5390 F   0  0  0  0  0  0  0  0  0  0  0  0
  -29.6376  -21.8379   17.6896 F   0  0  0  0  0  0  0  0  0  0  0  0
  1  2  1  0  0  0  0
  1  5  2  0  0  0  0
  2  6  2  0  0  0  0
  3  8  2  0  0  0  0
  3 15  1  0  0  0  0
  4  9  1  0  0  0  0
  4 15  2  0  0  0  0
  5 17  1  0  0  0  0
  6 19  1  0  0  0  0
  7 10  2  0  0  0  0
  7 18  1  0  0  0  0
  8 21  1  0  0  0  0
  9 21  2  0  0  0  0
 10 22  1  0  0  0  0
 11 12  2  0  0  0  0
 11 23  1  0  0  0  0
 12 24  1  0  0  0  0
 13 20  1  0  0  0  0
 13 22  2  0  0  0  0
 14 24  2  0  0  0  0
 14 25  1  0  0  0  0
 15 26  1  0  0  0  0
 16 26  1  0  0  0  0
 16 27  2  0  0  0  0
 16 28  1  0  0  0  0
 17 19  2  0  0  0  0
 17 33  1  0  0  0  0
 18 20  2  0  0  0  0
 18 34  1  0  0  0  0
 19 46  1  0  0  0  0
 20 35  1  0  0  0  0
 21 80  1  0  0  0  0
 22 81  1  0  0  0  0
 23 25  2  0  0  0  0
 23 80  1  0  0  0  0
 24 82  1  0  0  0  0
 25 83  1  0  0  0  0
 26 63  2  0  0  0  0
 27 64  1  0  0  0  0
 27 68  1  0  0  0  0
 28 69  1  0  0  0  0
 28 75  2  0  0  0  0
 29 47  1  0  0  0  0
 29 70  1  0  0  0  0
 29 76  2  0  0  0  0
 30 60  1  0  0  0  0
 30 65  1  0  0  0  0
 30 77  2  0  0  0  0
 31 61  1  0  0  0  0
 31 71  1  0  0  0  0
 31 78  2  0  0  0  0
 32 66  1  0  0  0  0
 32 67  1  0  0  0  0
 32 79  2  0  0  0  0
 33 36  1  0  0  0  0
 34 47  1  0  0  0  0
 35 65  1  0  0  0  0
 36 38  1  0  0  0  0
 37 39  1  0  0  0  0
 37 42  1  0  0  0  0
 38 46  1  0  0  0  0
 39 48  1  0  0  0  0
 40 41  1  0  0  0  0
 40 49  1  0  0  0  0
 41 51  1  0  0  0  0
 42 66  1  0  0  0  0
 43 48  1  0  0  0  0
 43 66  1  0  0  0  0
 44 50  1  0  0  0  0
 44 67  1  0  0  0  0
 45 50  1  0  0  0  0
 45 67  1  0  0  0  0
 46 70  1  0  0  0  0
 47 65  1  0  0  0  0
 48 64  1  0  0  0  0
 49 51  1  0  0  0  0
 49 72  1  0  0  0  0
 50 72  1  0  0  0  0
 51 73  1  0  0  0  0
 52 61  1  0  0  0  0
 53 62  1  0  0  0  0
 54 62  1  0  0  0  0
 55 62  1  0  0  0  0
 56 72  1  0  0  0  0
 57 74  1  0  0  0  0
 58 59  1  0  0  0  0
 58 73  1  0  0  0  0
 59 81  1  0  0  0  0
 60 62  1  0  0  0  0
 60 71  1  0  0  0  0
 61 74  1  0  0  0  0
 63 64  1  0  0  0  0
M  CHG  2  73   1  74   1
M  ISO  4  32 100  59 101  67 100  81 101
M  END
> <Batch ID>
0188

> <Smiles>
CNC(C)C(=O)NC(C(=O)N1Cc2cc([101O:1][101CH2:1]CNC3CCC3N(C)C3C[100N:0]([100C:0](=O)N4CCCC(n5nc(-c6ccc(Oc7ccc(F)cc7F)cc6)c(C(N)=O)c5N)C4)C3)ccc2CC1C(=O)NC1CCCc2ccccc21)C(C)(C)C

> <Shape>
0.185

> <Color>
0.069

> <Negative vol penalty>
0.000

$$$$

  -OEChem-04052323193D

 80 89  0     1  0  0  0  0  0999 V2000
  -21.1618  -30.0708   14.6063 C   0  0  0  0  0  0  0  0  0  0  0  0
  -22.4117  -29.7304   15.1135 C   0  0  0  0  0  0  0  0  0  0  0  0
  -29.7504  -11.3810   18.9785 C   0  0  0  0  0  0  0  0  0  0  0  0
  -29.4149  -10.7736   21.2927 C   0  0  0  0  0  0  0  0  0  0  0  0
  -20.4755  -31.1680   15.1251 C   0  0  0  0  0  0  0  0  0  0  0  0
  -22.9766  -30.4877   16.1391 C   0  0  0  0  0  0  0  0  0  0  0  0
  -24.9988  -27.6159   19.7872 C   0  0  0  0  0  0  0  0  0  0  0  0
  -30.5878  -10.2782   18.8104 C   0  0  0  0  0  0  0  0  0  0  0  0
  -30.2523   -9.6708   21.1247 C   0  0  0  0  0  0  0  0  0  0  0  0
  -26.2452  -27.0459   19.5314 C   0  0  0  0  0  0  0  0  0  0  0  0
  -30.0429   -6.5632   19.8135 C   0  0  0  0  0  0  0  0  0  0  0  0
  -29.6210   -5.3442   20.3441 C   0  0  0  0  0  0  0  0  0  0  0  0
  -27.3000  -28.7855   20.8276 C   0  0  0  0  0  0  0  0  0  0  0  0
  -31.5902   -5.2711   21.7419 C   0  0  0  0  0  0  0  0  0  0  0  0
  -29.1640  -11.6287   20.2197 C   0  0  0  0  0  0  0  0  0  0  0  0
  -26.9051  -12.8141   20.2042 C   0  0  0  0  0  0  0  0  0  0  0  0
  -21.0280  -31.9333   16.1642 C   0  0  0  0  0  0  0  0  0  0  0  0
  -24.8945  -28.7831   20.5573 C   0  0  0  0  0  0  0  0  0  0  0  0
  -22.2976  -31.5969   16.6714 C   0  0  0  0  0  0  0  0  0  0  0  0
  -26.0509  -29.3669   21.0938 C   0  0  0  0  0  0  0  0  0  0  0  0
  -30.8387   -9.4231   19.8835 C   0  0  0  0  0  0  0  0  0  0  0  0
  -27.3963  -27.6323   20.0492 C   0  0  0  0  0  0  0  0  0  0  0  0
  -31.2385   -7.1361   20.2470 C   0  0  0  0  0  0  0  0  0  0  0  0
  -30.3946   -4.6981   21.3083 C   0  0  0  0  0  0  0  0  0  0  0  0
  -32.0121   -6.4901   21.2112 C   0  0  0  0  0  0  0  0  0  0  0  0
  -28.2993  -12.7680   20.3940 C   0  0  0  0  0  0  0  0  0  0  0  0
  -26.5616  -14.1116   20.4958 C   0  0  0  0  0  0  0  0  0  0  0  0
  -26.0014  -11.7768   19.8005 C   0  0  0  0  0  0  0  0  0  0  0  0
  -23.8421  -31.7349   20.0252 C   0  0  0  0  0  0  0  0  0  0  0  0
  -24.3769  -32.0808   23.2059 C   0  0  0  0  0  0  0  0  0  0  0  0
  -26.0526  -31.0426   25.9918 C   0  0  0  0  0  0  0  0  0  0  0  0
  -30.0246  -19.0613   20.3455 C   0  0  0  0  0  0  0  0  0  0  0  0
  -20.2694  -33.1387   16.6603 C   0  0  0  0  0  0  0  0  0  0  0  0
  -23.5402  -29.3705   20.8464 C   0  0  0  0  0  0  0  0  0  0  0  0
  -25.9911  -30.6089   21.9436 C   0  0  0  0  0  0  0  0  0  0  0  0
  -20.7719  -33.6646   18.0024 C   0  0  0  0  0  0  0  0  0  0  0  0
  -27.9261  -17.8465   23.1519 C   0  0  0  0  0  0  0  0  0  0  0  0
  -22.2944  -33.7587   18.0027 C   0  0  0  0  0  0  0  0  0  0  0  0
  -27.7030  -16.3878   22.7502 C   0  0  0  0  0  0  0  0  0  0  0  0
  -28.7495  -22.4758   20.8224 C   0  0  0  0  0  0  0  0  0  0  0  0
  -31.2515  -25.7053   19.3286 C   0  0  0  0  0  0  0  0  0  0  0  0
  -29.2751  -18.3486   22.6540 C   0  0  0  0  0  0  0  0  0  0  0  0
  -28.8153  -21.0636   21.3956 C   0  0  0  0  0  0  0  0  0  0  0  0
  -29.2568  -16.7548   20.7735 C   0  0  0  0  0  0  0  0  0  0  0  0
  -30.6869  -21.4136   19.9280 C   0  0  0  0  0  0  0  0  0  0  0  0
  -31.7499  -24.2520   19.3287 C   0  0  0  0  0  0  0  0  0  0  0  0
  -22.9324  -32.3790   17.8007 C   0  0  1  0  0  0  0  0  0  0  0  0
  -23.5968  -30.8499   21.2145 C   0  0  1  0  0  0  0  0  0  0  0  0
  -27.9019  -16.1905   21.2363 C   0  0  1  0  0  0  0  0  0  0  0  0
  -30.2093  -22.7417   20.4861 C   0  0  1  0  0  0  0  0  0  0  0  0
  -30.0145  -25.1548   20.0690 C   0  0  1  0  0  0  0  0  0  0  0  0
  -26.3075  -31.5421   28.4378 C   0  0  0  0  0  0  0  0  0  0  0  0
  -26.0751  -34.5233   22.5277 C   0  0  0  0  0  0  0  0  0  0  0  0
  -27.0459  -34.4016   24.8322 C   0  0  0  0  0  0  0  0  0  0  0  0
  -24.6021  -34.8002   24.5297 C   0  0  0  0  0  0  0  0  0  0  0  0
  -25.1033  -28.3467   26.7598 C   0  0  0  0  0  0  0  0  0  0  0  0
  -28.6619  -25.6659   19.6163 C   0  0  0  0  0  0  0  0  0  1  0  0
  -25.5522  -32.5064   24.0523 C   0  0  1  0  0  0  0  0  0  0  0  0
  -25.5710  -30.7169   27.3941 C   0  0  2  0  0  0  0  0  0  0  0  0
  -25.8205  -34.0356   23.9679 C   0  0  0  0  0  0  0  0  0  0  0  0
  -28.8067  -13.9429   20.7764 N   0  0  0  0  0  0  0  0  0  0  0  0
  -27.7256  -14.7394   20.8292 N   0  0  0  0  0  0  0  0  0  0  0  0
  -24.6445  -31.1492   22.1928 N   0  0  0  0  0  0  0  0  0  0  0  0
  -29.4167  -18.1437   21.2098 N   0  0  0  0  0  0  0  0  0  0  0  0
  -29.9007  -20.4158   20.6517 N   0  0  0  0  0  0  0  0  0  0  0  0
  -25.3805  -14.7653   20.4969 N   0  0  0  0  0  0  0  0  0  0  0  0
  -26.5214  -10.5015   19.5405 N   0  0  0  0  0  0  0  0  0  0  0  0
  -22.8899  -31.6176   19.0307 N   0  0  0  0  0  0  0  0  0  0  0  0
  -25.2810  -32.0209   25.4011 N   0  0  0  0  0  0  0  0  0  0  0  0
  -30.3440  -23.8286   19.4907 N   0  3  1  0  0  0  0  0  0  0  0  0
  -25.7907  -29.2740   27.6951 N   0  3  0  0  0  0  0  0  0  0  0  0
  -24.7716  -11.9791   19.6583 O   0  0  0  0  0  0  0  0  0  0  0  0
  -24.8218  -32.4709   20.0116 O   0  0  0  0  0  0  0  0  0  0  0  0
  -23.2611  -32.5519   23.4398 O   0  0  0  0  0  0  0  0  0  0  0  0
  -27.0191  -30.4876   25.4737 O   0  0  0  0  0  0  0  0  0  0  0  0
  -30.6101  -18.6903   19.3197 O   0  0  0  0  0  0  0  0  0  0  0  0
  -31.6556   -8.3468   19.7198 O   0  0  0  0  0  0  0  0  0  0  0  0
  -28.6232  -27.0742   19.7987 O   0  0  0  0  0  0  0  0  0  1  0  0
  -29.9885   -3.5282   21.8189 F   0  0  0  0  0  0  0  0  0  0  0  0
  -33.1611   -7.0362   21.6326 F   0  0  0  0  0  0  0  0  0  0  0  0
  1  2  1  0  0  0  0
  1  5  2  0  0  0  0
  2  6  2  0  0  0  0
  3  8  2  0  0  0  0
  3 15  1  0  0  0  0
  4  9  1  0  0  0  0
  4 15  2  0  0  0  0
  5 17  1  0  0  0  0
  6 19  1  0  0  0  0
  7 10  2  0  0  0  0
  7 18  1  0  0  0  0
  8 21  1  0  0  0  0
  9 21  2  0  0  0  0
 10 22  1  0  0  0  0
 11 12  2  0  0  0  0
 11 23  1  0  0  0  0
 12 24  1  0  0  0  0
 13 20  1  0  0  0  0
 13 22  2  0  0  0  0
 14 24  2  0  0  0  0
 14 25  1  0  0  0  0
 15 26  1  0  0  0  0
 16 26  1  0  0  0  0
 16 27  2  0  0  0  0
 16 28  1  0  0  0  0
 17 19  2  0  0  0  0
 17 33  1  0  0  0  0
 18 20  2  0  0  0  0
 18 34  1  0  0  0  0
 19 47  1  0  0  0  0
 20 35  1  0  0  0  0
 21 77  1  0  0  0  0
 22 78  1  0  0  0  0
 23 25  2  0  0  0  0
 23 77  1  0  0  0  0
 24 79  1  0  0  0  0
 25 80  1  0  0  0  0
 26 61  2  0  0  0  0
 27 62  1  0  0  0  0
 27 66  1  0  0  0  0
 28 67  1  0  0  0  0
 28 72  2  0  0  0  0
 29 48  1  0  0  0  0
 29 68  1  0  0  0  0
 29 73  2  0  0  0  0
 30 58  1  0  0  0  0
 30 63  1  0  0  0  0
 30 74  2  0  0  0  0
 31 59  1  0  0  0  0
 31 69  1  0  0  0  0
 31 75  2  0  0  0  0
 32 64  1  0  0  0  0
 32 65  1  0  0  0  0
 32 76  2  0  0  0  0
 33 36  1  0  0  0  0
 34 48  1  0  0  0  0
 35 63  1  0  0  0  0
 36 38  1  0  0  0  0
 37 39  1  0  0  0  0
 37 42  1  0  0  0  0
 38 47  1  0  0  0  0
 39 49  1  0  0  0  0
 40 43  1  0  0  0  0
 40 50  1  0  0  0  0
 41 46  1  0  0  0  0
 41 51  1  0  0  0  0
 42 64  1  0  0  0  0
 43 65  1  0  0  0  0
 44 49  1  0  0  0  0
 44 64  1  0  0  0  0
 45 50  1  0  0  0  0
 45 65  1  0  0  0  0
 46 70  1  0  0  0  0
 47 68  1  0  0  0  0
 48 63  1  0  0  0  0
 49 62  1  0  0  0  0
 50 70  1  0  0  0  0
 51 57  1  0  0  0  0
 51 70  1  0  0  0  0
 52 59  1  0  0  0  0
 53 60  1  0  0  0  0
 54 60  1  0  0  0  0
 55 60  1  0  0  0  0
 56 71  1  0  0  0  0
 57 78  1  0  0  0  0
 58 60  1  0  0  0  0
 58 69  1  0  0  0  0
 59 71  1  0  0  0  0
 61 62  1  0  0  0  0
M  CHG  2  70   1  71   1
M  ISO  4  32 100  57 101  65 100  78 101
M  END
> <Batch ID>
0188

> <Smiles>
CNC(C)C(=O)NC(C(=O)N1Cc2cc([101O:1][101CH2:1]C3CCN3C3CC[100N:0]([100C:0](=O)N4CCCC(n5nc(-c6ccc(Oc7ccc(F)cc7F)cc6)c(C(N)=O)c5N)C4)C3)ccc2CC1C(=O)NC1CCCc2ccccc21)C(C)(C)C

> <Shape>
0.275

> <Color>
0.107

> <Negative vol penalty>
0.000

$$$$

  -OEChem-04052323193D

 82 91  0     1  0  0  0  0  0999 V2000
  -28.7488  -37.4348   23.5526 C   0  0  0  0  0  0  0  0  0  0  0  0
  -29.1445  -36.1708   23.9785 C   0  0  0  0  0  0  0  0  0  0  0  0
  -23.7122  -10.0201   22.4039 C   0  0  0  0  0  0  0  0  0  0  0  0
  -23.5158   -9.8898   19.9994 C   0  0  0  0  0  0  0  0  0  0  0  0
  -27.4028  -37.7951   23.5993 C   0  0  0  0  0  0  0  0  0  0  0  0
  -28.1944  -35.2669   24.4524 C   0  0  0  0  0  0  0  0  0  0  0  0
  -28.2403  -29.1812   23.7683 C   0  0  0  0  0  0  0  0  0  0  0  0
  -22.7618   -9.0079   22.5365 C   0  0  0  0  0  0  0  0  0  0  0  0
  -22.5653   -8.8775   20.1320 C   0  0  0  0  0  0  0  0  0  0  0  0
  -28.6384  -28.1454   24.6123 C   0  0  0  0  0  0  0  0  0  0  0  0
  -22.6588   -5.6381   22.2774 C   0  0  0  0  0  0  0  0  0  0  0  0
  -22.9243   -4.6147   23.1872 C   0  0  0  0  0  0  0  0  0  0  0  0
  -26.3542  -27.8646   25.3354 C   0  0  0  0  0  0  0  0  0  0  0  0
  -20.9193   -5.1818   24.4101 C   0  0  0  0  0  0  0  0  0  0  0  0
  -24.0892  -10.4611   21.1354 C   0  0  0  0  0  0  0  0  0  0  0  0
  -26.4661  -11.3549   20.8918 C   0  0  0  0  0  0  0  0  0  0  0  0
  -26.4345  -36.8917   24.0649 C   0  0  0  0  0  0  0  0  0  0  0  0
  -26.8955  -29.5744   23.7095 C   0  0  0  0  0  0  0  0  0  0  0  0
  -26.8343  -35.6160   24.5066 C   0  0  0  0  0  0  0  0  0  0  0  0
  -25.9412  -28.9040   24.4879 C   0  0  0  0  0  0  0  0  0  0  0  0
  -22.1883   -8.4365   21.4005 C   0  0  0  0  0  0  0  0  0  0  0  0
  -27.6958  -27.4888   25.3981 C   0  0  0  0  0  0  0  0  0  0  0  0
  -21.5236   -6.4335   22.4340 C   0  0  0  0  0  0  0  0  0  0  0  0
  -22.0546   -4.3865   24.2535 C   0  0  0  0  0  0  0  0  0  0  0  0
  -20.6539   -6.2052   23.5004 C   0  0  0  0  0  0  0  0  0  0  0  0
  -25.0706  -11.5071   20.9978 C   0  0  0  0  0  0  0  0  0  0  0  0
  -26.9440  -12.6379   20.7824 C   0  0  0  0  0  0  0  0  0  0  0  0
  -27.2593  -10.1606   20.8922 C   0  0  0  0  0  0  0  0  0  0  0  0
  -25.3112  -32.2528   24.3576 C   0  0  0  0  0  0  0  0  0  0  0  0
  -22.8049  -30.6099   23.1161 C   0  0  0  0  0  0  0  0  0  0  0  0
  -21.3878  -27.5874   22.4069 C   0  0  0  0  0  0  0  0  0  0  0  0
  -27.1383  -17.8047   22.2269 C   0  0  0  0  0  0  0  0  0  0  0  0
  -24.9974  -37.3432   24.1411 C   0  0  0  0  0  0  0  0  0  0  0  0
  -26.4780  -30.6758   22.7740 C   0  0  0  0  0  0  0  0  0  0  0  0
  -24.4819  -29.2744   24.4463 C   0  0  0  0  0  0  0  0  0  0  0  0
  -24.0059  -36.1942   24.3054 C   0  0  0  0  0  0  0  0  0  0  0  0
  -24.5310  -17.0081   20.0109 C   0  0  0  0  0  0  0  0  0  0  0  0
  -24.4837  -35.2268   25.3836 C   0  0  0  0  0  0  0  0  0  0  0  0
  -24.5474  -15.4806   20.0600 C   0  0  0  0  0  0  0  0  0  0  0  0
  -28.9271  -24.1075   26.4968 C   0  0  0  0  0  0  0  0  0  0  0  0
  -27.7734  -24.4506   24.7349 C   0  0  0  0  0  0  0  0  0  0  0  0
  -24.7516  -17.6286   21.3916 C   0  0  0  0  0  0  0  0  0  0  0  0
  -25.8368  -19.8219   23.0402 C   0  0  0  0  0  0  0  0  0  0  0  0
  -28.1851  -20.0465   22.3169 C   0  0  0  0  0  0  0  0  0  0  0  0
  -25.9847  -15.6151   22.1295 C   0  0  0  0  0  0  0  0  0  0  0  0
  -26.1904  -20.4092   24.4028 C   0  0  0  0  0  0  0  0  0  0  0  0
  -28.5784  -20.6117   23.6721 C   0  0  0  0  0  0  0  0  0  0  0  0
  -25.8302  -34.5988   25.0039 C   0  0  1  0  0  0  0  0  0  0  0  0
  -25.1627  -31.3354   23.1769 C   0  0  1  0  0  0  0  0  0  0  0  0
  -28.5462  -23.2262   25.2824 C   0  0  0  0  0  0  0  0  0  0  0  0
  -25.8239  -14.9639   20.7471 C   0  0  1  0  0  0  0  0  0  0  0  0
  -28.7008  -25.3423   25.5937 C   0  0  0  0  0  0  0  0  0  1  0  0
  -19.3169  -26.5642   21.4260 C   0  0  0  0  0  0  0  0  0  0  0  0
  -28.4858  -20.9877   26.4384 C   0  0  0  0  0  0  0  0  0  0  0  0
  -21.2789  -31.2461   25.6806 C   0  0  0  0  0  0  0  0  0  0  0  0
  -19.6424  -29.4527   25.0692 C   0  0  0  0  0  0  0  0  0  0  0  0
  -19.9255  -31.4385   23.5863 C   0  0  0  0  0  0  0  0  0  0  0  0
  -22.9225  -26.2668   20.2482 C   0  0  0  0  0  0  0  0  0  0  0  0
  -21.7480  -29.6885   23.6757 C   0  0  1  0  0  0  0  0  0  0  0  0
  -20.7292  -27.0544   21.1472 C   0  0  2  0  0  0  0  0  0  0  0  0
  -27.7295  -21.9846   25.5751 C   0  0  2  0  0  0  0  0  0  0  0  0
  -20.6764  -30.4505   24.5054 C   0  0  0  0  0  0  0  0  0  0  0  0
  -24.6869  -12.7859   20.9593 N   0  0  0  0  0  0  0  0  0  0  0  0
  -25.8485  -13.4490   20.8280 N   0  0  0  0  0  0  0  0  0  0  0  0
  -24.1242  -30.3619   23.5206 N   0  0  0  0  0  0  0  0  0  0  0  0
  -25.9571  -17.0756   22.0245 N   0  0  0  0  0  0  0  0  0  0  0  0
  -27.0076  -19.1876   22.4223 N   0  0  0  0  0  0  0  0  0  0  0  0
  -28.1904  -13.1401   20.6526 N   0  0  0  0  0  0  0  0  0  0  0  0
  -26.6077   -8.9257   21.0132 N   0  0  0  0  0  0  0  0  0  0  0  0
  -25.6409  -33.5522   24.0224 N   0  0  0  0  0  0  0  0  0  0  0  0
  -21.2091  -28.9481   22.5400 N   0  0  0  0  0  0  0  0  0  0  0  0
  -27.3863  -21.3214   24.2706 N   0  3  0  0  0  0  0  0  0  0  0  0
  -21.5190  -25.9200   20.5901 N   0  3  0  0  0  0  0  0  0  0  0  0
  -28.5104  -10.1886   20.8049 O   0  0  0  0  0  0  0  0  0  0  0  0
  -25.1381  -31.8145   25.4888 O   0  0  0  0  0  0  0  0  0  0  0  0
  -22.4729  -31.5118   22.3428 O   0  0  0  0  0  0  0  0  0  0  0  0
  -21.9963  -26.8679   23.1959 O   0  0  0  0  0  0  0  0  0  0  0  0
  -28.2456  -17.2521   22.2333 O   0  0  0  0  0  0  0  0  0  0  0  0
  -21.2610   -7.4486   21.5295 O   0  0  0  0  0  0  0  0  0  0  0  0
  -28.0827  -26.4759   26.2250 O   0  0  0  0  0  0  0  0  0  1  0  0
  -22.3089   -3.4027   25.1262 F   0  0  0  0  0  0  0  0  0  0  0  0
  -19.5611   -6.9652   23.6553 F   0  0  0  0  0  0  0  0  0  0  0  0
  1  2  1  0  0  0  0
  1  5  2  0  0  0  0
  2  6  2  0  0  0  0
  3  8  2  0  0  0  0
  3 15  1  0  0  0  0
  4  9  1  0  0  0  0
  4 15  2  0  0  0  0
  5 17  1  0  0  0  0
  6 19  1  0  0  0  0
  7 10  2  0  0  0  0
  7 18  1  0  0  0  0
  8 21  1  0  0  0  0
  9 21  2  0  0  0  0
 10 22  1  0  0  0  0
 11 12  2  0  0  0  0
 11 23  1  0  0  0  0
 12 24  1  0  0  0  0
 13 20  1  0  0  0  0
 13 22  2  0  0  0  0
 14 24  2  0  0  0  0
 14 25  1  0  0  0  0
 15 26  1  0  0  0  0
 16 26  1  0  0  0  0
 16 27  2  0  0  0  0
 16 28  1  0  0  0  0
 17 19  2  0  0  0  0
 17 33  1  0  0  0  0
 18 20  2  0  0  0  0
 18 34  1  0  0  0  0
 19 48  1  0  0  0  0
 20 35  1  0  0  0  0
 21 79  1  0  0  0  0
 22 80  1  0  0  0  0
 23 25  2  0  0  0  0
 23 79  1  0  0  0  0
 24 81  1  0  0  0  0
 25 82  1  0  0  0  0
 26 63  2  0  0  0  0
 27 64  1  0  0  0  0
 27 68  1  0  0  0  0
 28 69  1  0  0  0  0
 28 74  2  0  0  0  0
 29 49  1  0  0  0  0
 29 70  1  0  0  0  0
 29 75  2  0  0  0  0
 30 59  1  0  0  0  0
 30 65  1  0  0  0  0
 30 76  2  0  0  0  0
 31 60  1  0  0  0  0
 31 71  1  0  0  0  0
 31 77  2  0  0  0  0
 32 66  1  0  0  0  0
 32 67  1  0  0  0  0
 32 78  2  0  0  0  0
 33 36  1  0  0  0  0
 34 49  1  0  0  0  0
 35 65  1  0  0  0  0
 36 38  1  0  0  0  0
 37 39  1  0  0  0  0
 37 42  1  0  0  0  0
 38 48  1  0  0  0  0
 39 51  1  0  0  0  0
 40 50  1  0  0  0  0
 40 52  1  0  0  0  0
 41 50  1  0  0  0  0
 41 52  1  0  0  0  0
 42 66  1  0  0  0  0
 43 46  1  0  0  0  0
 43 67  1  0  0  0  0
 44 47  1  0  0  0  0
 44 67  1  0  0  0  0
 45 51  1  0  0  0  0
 45 66  1  0  0  0  0
 46 72  1  0  0  0  0
 47 72  1  0  0  0  0
 48 70  1  0  0  0  0
 49 65  1  0  0  0  0
 50 61  1  0  0  0  0
 51 64  1  0  0  0  0
 52 80  1  0  0  0  0
 53 60  1  0  0  0  0
 54 61  1  0  0  0  0
 55 62  1  0  0  0  0
 56 62  1  0  0  0  0
 57 62  1  0  0  0  0
 58 73  1  0  0  0  0
 59 62  1  0  0  0  0
 59 71  1  0  0  0  0
 60 73  1  0  0  0  0
 61 72  1  0  0  0  0
 63 64  1  0  0  0  0
M  CHG  2  72   1  73   1
M  ISO  4  32 100  52 101  67 100  80 101
M  END
> <Batch ID>
0188

> <Smiles>
CNC(C)C(=O)NC(C(=O)N1Cc2cc([101O:1][101CH:1]3CC(C(C)N4CC[100N:0]([100C:0](=O)N5CCCC(n6nc(-c7ccc(Oc8ccc(F)cc8F)cc7)c(C(N)=O)c6N)C5)CC4)C3)ccc2CC1C(=O)NC1CCCc2ccccc21)C(C)(C)C

> <Shape>
0.274

> <Color>
0.094

> <Negative vol penalty>
0.000

$$$$

  -OEChem-04052323193D

 82 91  0     1  0  0  0  0  0999 V2000
  -24.6803  -21.6929    7.9964 C   0  0  0  0  0  0  0  0  0  0  0  0
  -25.1717  -21.6809    9.2978 C   0  0  0  0  0  0  0  0  0  0  0  0
  -23.0690   -9.9594   19.8913 C   0  0  0  0  0  0  0  0  0  0  0  0
  -23.8688   -9.8398   22.1680 C   0  0  0  0  0  0  0  0  0  0  0  0
  -24.3813  -22.9055    7.3765 C   0  0  0  0  0  0  0  0  0  0  0  0
  -25.3654  -22.8816    9.9799 C   0  0  0  0  0  0  0  0  0  0  0  0
  -23.6492  -22.7100   14.7412 C   0  0  0  0  0  0  0  0  0  0  0  0
  -26.3456  -19.7567   19.7758 C   0  0  0  0  0  0  0  0  0  0  0  0
  -22.3232   -8.7979   20.0923 C   0  0  0  0  0  0  0  0  0  0  0  0
  -23.1230   -8.6783   22.3690 C   0  0  0  0  0  0  0  0  0  0  0  0
  -24.4443  -22.0561   15.6814 C   0  0  0  0  0  0  0  0  0  0  0  0
  -19.9015   -7.8641   22.9850 C   0  0  0  0  0  0  0  0  0  0  0  0
  -19.1649   -7.7649   24.1653 C   0  0  0  0  0  0  0  0  0  0  0  0
  -27.2036  -19.2930   20.7668 C   0  0  0  0  0  0  0  0  0  0  0  0
  -25.2766  -24.1858   16.4500 C   0  0  0  0  0  0  0  0  0  0  0  0
  -20.4082   -5.7850   24.7747 C   0  0  0  0  0  0  0  0  0  0  0  0
  -28.2441  -20.2097   18.4168 C   0  0  0  0  0  0  0  0  0  0  0  0
  -23.8418  -10.4803   20.9292 C   0  0  0  0  0  0  0  0  0  0  0  0
  -24.1955  -13.0067   20.9386 C   0  0  0  0  0  0  0  0  0  0  0  0
  -24.5623  -24.1212    8.0548 C   0  0  0  0  0  0  0  0  0  0  0  0
  -23.6701  -24.1086   14.6409 C   0  0  0  0  0  0  0  0  0  0  0  0
  -25.0698  -24.1117    9.3681 C   0  0  0  0  0  0  0  0  0  0  0  0
  -24.4789  -24.8552   15.5095 C   0  0  0  0  0  0  0  0  0  0  0  0
  -26.8677  -20.2255   18.5755 C   0  0  0  0  0  0  0  0  0  0  0  0
  -22.3502   -8.1574   21.3311 C   0  0  0  0  0  0  0  0  0  0  0  0
  -25.2603  -22.7938   16.5341 C   0  0  0  0  0  0  0  0  0  0  0  0
  -20.8914   -6.9238   22.6995 C   0  0  0  0  0  0  0  0  0  0  0  0
  -19.4182   -6.7254   25.0602 C   0  0  0  0  0  0  0  0  0  0  0  0
  -21.1448   -5.8843   23.5944 C   0  0  0  0  0  0  0  0  0  0  0  0
  -24.6129  -11.6798   20.7220 C   0  0  0  0  0  0  0  0  0  0  0  0
  -28.5649  -19.3188   20.5100 C   0  0  0  0  0  0  0  0  0  0  0  0
  -25.2853  -13.7696   20.5967 C   0  0  0  0  0  0  0  0  0  0  0  0
  -22.9354  -13.5051   21.4070 C   0  0  0  0  0  0  0  0  0  0  0  0
  -24.4687  -26.1827   12.3684 C   0  0  0  0  0  0  0  0  0  0  0  0
  -23.3156  -28.3522   14.4865 C   0  0  0  0  0  0  0  0  0  0  0  0
  -22.6018  -29.1382   17.7299 C   0  0  0  0  0  0  0  0  0  0  0  0
  -30.7770  -14.7519   20.7422 C   0  0  0  0  0  0  0  0  0  0  0  0
  -24.2698  -25.4092    7.3267 C   0  0  0  0  0  0  0  0  0  0  0  0
  -22.7865  -24.8003   13.6394 C   0  0  0  0  0  0  0  0  0  0  0  0
  -24.5223  -26.3598   15.4559 C   0  0  0  0  0  0  0  0  0  0  0  0
  -24.1495  -26.6178    8.2513 C   0  0  0  0  0  0  0  0  0  0  0  0
  -29.5848  -12.5041   18.2516 C   0  0  0  0  0  0  0  0  0  0  0  0
  -25.2973  -26.6378    9.2558 C   0  0  0  0  0  0  0  0  0  0  0  0
  -28.1535  -12.1942   18.6936 C   0  0  0  0  0  0  0  0  0  0  0  0
  -30.5239  -12.6560   19.4462 C   0  0  0  0  0  0  0  0  0  0  0  0
  -28.6507  -13.3203   20.9034 C   0  0  0  0  0  0  0  0  0  0  0  0
  -30.7862  -19.3828   21.6822 C   0  0  0  0  0  0  0  0  0  0  0  0
  -25.2700  -25.3920   10.1496 C   0  0  1  0  0  0  0  0  0  0  0  0
  -23.2737  -26.2004   13.2792 C   0  0  1  0  0  0  0  0  0  0  0  0
  -27.6552  -13.2136   19.7356 C   0  0  2  0  0  0  0  0  0  0  0  0
  -30.5746  -17.9887   21.2045 C   0  0  1  0  0  0  0  0  0  0  0  0
  -21.7027  -30.9986   19.1539 C   0  0  0  0  0  0  0  0  0  0  0  0
  -25.9711  -29.8321   14.2253 C   0  0  0  0  0  0  0  0  0  0  0  0
  -25.3983  -31.0856   16.3155 C   0  0  0  0  0  0  0  0  0  0  0  0
  -23.9551  -31.3106   14.2933 C   0  0  0  0  0  0  0  0  0  0  0  0
  -20.3332  -27.4829   18.6639 C   0  0  0  0  0  0  0  0  0  0  0  0
  -25.9682  -20.7330   17.4871 C   0  0  0  0  0  0  0  0  0  1  0  0
  -30.8763  -16.8326   22.0912 C   0  0  0  0  0  0  0  0  0  0  0  0
  -23.9047  -29.1583   15.6189 C   0  0  1  0  0  0  0  0  0  0  0  0
  -21.3643  -29.7390   18.3718 C   0  0  2  0  0  0  0  0  0  0  0  0
  -24.8082  -30.3182   15.1132 C   0  0  0  0  0  0  0  0  0  0  0  0
  -29.1092  -19.7668   19.3565 N   0  0  0  0  0  0  0  0  0  0  0  0
  -25.8697  -11.6007   20.2769 N   0  0  0  0  0  0  0  0  0  0  0  0
  -26.2514  -12.8876   20.2108 N   0  0  0  0  0  0  0  0  0  0  0  0
  -29.4261  -18.8421   21.5298 N   0  0  2  0  0  0  0  0  0  0  0  0
  -23.6450  -26.9897   14.4554 N   0  0  0  0  0  0  0  0  0  0  0  0
  -29.9946  -13.6380   20.3956 N   0  0  0  0  0  0  0  0  0  0  0  0
  -25.5017  -15.1020   20.5914 N   0  0  0  0  0  0  0  0  0  0  0  0
  -21.9245  -12.5838   21.7129 N   0  0  0  0  0  0  0  0  0  0  0  0
  -24.2544  -25.5256   11.1719 N   0  0  0  0  0  0  0  0  0  0  0  0
  -22.7794  -29.5917   16.4399 N   0  0  0  0  0  0  0  0  0  0  0  0
  -30.1978  -15.6369   21.6433 N   0  0  0  0  0  0  0  0  0  0  0  0
  -20.7378  -28.7605   19.3050 N   0  3  0  0  0  0  0  0  0  0  0  0
  -22.7070  -14.7319   21.5343 O   0  0  0  0  0  0  0  0  0  0  0  0
  -25.5077  -26.7264   12.7243 O   0  0  0  0  0  0  0  0  0  0  0  0
  -22.5843  -28.9093   13.6641 O   0  0  0  0  0  0  0  0  0  0  0  0
  -23.3393  -28.3486   18.3156 O   0  0  0  0  0  0  0  0  0  0  0  0
  -31.9058  -14.9462   20.2786 O   0  0  0  0  0  0  0  0  0  0  0  0
  -21.6224   -7.0241   21.5276 O   0  0  0  0  0  0  0  0  0  0  0  0
  -26.0378  -22.1579   17.4522 O   0  0  0  0  0  0  0  0  0  1  0  0
  -18.7118   -6.6311   26.1943 F   0  0  0  0  0  0  0  0  0  0  0  0
  -22.0954   -4.9786   23.3261 F   0  0  0  0  0  0  0  0  0  0  0  0
  1  2  1  0  0  0  0
  1  5  2  0  0  0  0
  2  6  2  0  0  0  0
  3  9  2  0  0  0  0
  3 18  1  0  0  0  0
  4 10  1  0  0  0  0
  4 18  2  0  0  0  0
  5 20  1  0  0  0  0
  6 22  1  0  0  0  0
  7 11  2  0  0  0  0
  7 21  1  0  0  0  0
  8 14  2  0  0  0  0
  8 24  1  0  0  0  0
  9 25  1  0  0  0  0
 10 25  2  0  0  0  0
 11 26  1  0  0  0  0
 12 13  2  0  0  0  0
 12 27  1  0  0  0  0
 13 28  1  0  0  0  0
 14 31  1  0  0  0  0
 15 23  1  0  0  0  0
 15 26  2  0  0  0  0
 16 28  2  0  0  0  0
 16 29  1  0  0  0  0
 17 24  2  0  0  0  0
 17 62  1  0  0  0  0
 18 30  1  0  0  0  0
 19 30  1  0  0  0  0
 19 32  2  0  0  0  0
 19 33  1  0  0  0  0
 20 22  2  0  0  0  0
 20 38  1  0  0  0  0
 21 23  2  0  0  0  0
 21 39  1  0  0  0  0
 22 48  1  0  0  0  0
 23 40  1  0  0  0  0
 24 57  1  0  0  0  0
 25 79  1  0  0  0  0
 26 80  1  0  0  0  0
 27 29  2  0  0  0  0
 27 79  1  0  0  0  0
 28 81  1  0  0  0  0
 29 82  1  0  0  0  0
 30 63  2  0  0  0  0
 31 62  2  0  0  0  0
 31 65  1  0  0  0  0
 32 64  1  0  0  0  0
 32 68  1  0  0  0  0
 33 69  1  0  0  0  0
 33 74  2  0  0  0  0
 34 49  1  0  0  0  0
 34 70  1  0  0  0  0
 34 75  2  0  0  0  0
 35 59  1  0  0  0  0
 35 66  1  0  0  0  0
 35 76  2  0  0  0  0
 36 60  1  0  0  0  0
 36 71  1  0  0  0  0
 36 77  2  0  0  0  0
 37 67  1  0  0  0  0
 37 72  1  0  0  0  0
 37 78  2  0  0  0  0
 38 41  1  0  0  0  0
 39 49  1  0  0  0  0
 40 66  1  0  0  0  0
 41 43  1  0  0  0  0
 42 44  1  0  0  0  0
 42 45  1  0  0  0  0
 43 48  1  0  0  0  0
 44 50  1  0  0  0  0
 45 67  1  0  0  0  0
 46 50  1  0  0  0  0
 46 67  1  0  0  0  0
 47 51  1  0  0  0  0
 47 65  1  0  0  0  0
 48 70  1  0  0  0  0
 49 66  1  0  0  0  0
 50 64  1  0  0  0  0
 51 58  1  0  0  0  0
 51 65  1  0  0  0  0
 52 60  1  0  0  0  0
 53 61  1  0  0  0  0
 54 61  1  0  0  0  0
 55 61  1  0  0  0  0
 56 73  1  0  0  0  0
 57 80  1  0  0  0  0
 58 72  1  0  0  0  0
 59 61  1  0  0  0  0
 59 71  1  0  0  0  0
 60 73  1  0  0  0  0
 63 64  1  0  0  0  0
M  CHG  1  73   1
M  ISO  4  37 100  57 101  72 100  80 101
M  END
> <Batch ID>
0188

> <Smiles>
CNC(C)C(=O)NC(C(=O)N1Cc2cc([101O:1][101CH2:1]c3ccc(N4CC4C[100NH:0][100C:0](=O)N4CCCC(n5nc(-c6ccc(Oc7ccc(F)cc7F)cc6)c(C(N)=O)c5N)C4)nc3)ccc2CC1C(=O)NC1CCCc2ccccc21)C(C)(C)C

> <Shape>
0.205

> <Color>
0.204

> <Negative vol penalty>
0.000

$$$$

  -OEChem-04052323193D

 83 92  0     1  0  0  0  0  0999 V2000
  -22.7110   -8.6954   21.1828 C   0  0  0  0  0  0  0  0  0  0  0  0
  -23.6861   -9.2070   20.3325 C   0  0  0  0  0  0  0  0  0  0  0  0
  -22.4525  -26.5880   20.5659 C   0  0  0  0  0  0  0  0  0  0  0  0
  -22.7532  -27.5362   22.7677 C   0  0  0  0  0  0  0  0  0  0  0  0
  -21.9891   -9.5544   22.0104 C   0  0  0  0  0  0  0  0  0  0  0  0
  -23.9389  -10.5781   20.3085 C   0  0  0  0  0  0  0  0  0  0  0  0
  -29.3499  -13.3090   19.4317 C   0  0  0  0  0  0  0  0  0  0  0  0
  -21.0782  -26.5049   20.7894 C   0  0  0  0  0  0  0  0  0  0  0  0
  -21.3789  -27.4531   22.9911 C   0  0  0  0  0  0  0  0  0  0  0  0
  -29.9414  -13.8790   18.3051 C   0  0  0  0  0  0  0  0  0  0  0  0
  -17.9069  -27.8252   24.0036 C   0  0  0  0  0  0  0  0  0  0  0  0
  -17.2738  -28.9299   24.5731 C   0  0  0  0  0  0  0  0  0  0  0  0
  -29.1624  -16.0527   19.0033 C   0  0  0  0  0  0  0  0  0  0  0  0
  -17.9725  -30.2934   22.7050 C   0  0  0  0  0  0  0  0  0  0  0  0
  -23.2900  -27.1036   21.5551 C   0  0  0  0  0  0  0  0  0  0  0  0
  -25.4165  -28.2695   20.7635 C   0  0  0  0  0  0  0  0  0  0  0  0
  -22.2399  -10.9355   22.0035 C   0  0  0  0  0  0  0  0  0  0  0  0
  -28.6498  -14.1065   20.3484 C   0  0  0  0  0  0  0  0  0  0  0  0
  -23.2187  -11.4565   21.1358 C   0  0  0  0  0  0  0  0  0  0  0  0
  -28.5652  -15.4908   20.1420 C   0  0  0  0  0  0  0  0  0  0  0  0
  -20.5414  -26.9375   22.0020 C   0  0  0  0  0  0  0  0  0  0  0  0
  -29.8452  -15.2505   18.0893 C   0  0  0  0  0  0  0  0  0  0  0  0
  -18.5729  -27.9546   22.7848 C   0  0  0  0  0  0  0  0  0  0  0  0
  -17.3065  -30.1640   23.9239 C   0  0  0  0  0  0  0  0  0  0  0  0
  -18.6056  -29.1887   22.1355 C   0  0  0  0  0  0  0  0  0  0  0  0
  -24.7099  -27.1892   21.3251 C   0  0  0  0  0  0  0  0  0  0  0  0
  -26.7272  -27.8590   20.7622 C   0  0  0  0  0  0  0  0  0  0  0  0
  -24.9314  -29.5314   20.2859 C   0  0  0  0  0  0  0  0  0  0  0  0
  -25.6432  -14.2348   21.3718 C   0  0  0  0  0  0  0  0  0  0  0  0
  -26.8464  -16.4398   23.4243 C   0  0  0  0  0  0  0  0  0  0  0  0
  -29.2778  -18.7331   24.1141 C   0  0  0  0  0  0  0  0  0  0  0  0
  -30.6032  -24.2478   19.8872 C   0  0  0  0  0  0  0  0  0  0  0  0
  -21.4011  -11.8300   22.8816 C   0  0  0  0  0  0  0  0  0  0  0  0
  -28.0403  -13.4802   21.5726 C   0  0  0  0  0  0  0  0  0  0  0  0
  -27.8421  -16.3937   21.1066 C   0  0  0  0  0  0  0  0  0  0  0  0
  -21.9897  -13.2262   23.0678 C   0  0  0  0  0  0  0  0  0  0  0  0
  -28.9487  -23.8927   22.9650 C   0  0  0  0  0  0  0  0  0  0  0  0
  -22.4391  -13.7992   21.7275 C   0  0  0  0  0  0  0  0  0  0  0  0
  -27.7437  -24.8123   22.7698 C   0  0  0  0  0  0  0  0  0  0  0  0
  -34.9765  -20.4778   16.8442 C   0  0  0  0  0  0  0  0  0  0  0  0
  -29.2670  -23.0894   21.7027 C   0  0  0  0  0  0  0  0  0  0  0  0
  -31.2657  -21.8022   19.9574 C   0  0  0  0  0  0  0  0  0  0  0  0
  -32.9550  -23.5541   19.5413 C   0  0  0  0  0  0  0  0  0  0  0  0
  -28.2330  -24.8405   20.2946 C   0  0  0  0  0  0  0  0  0  0  0  0
  -31.6392  -21.1168   18.6467 C   0  0  0  0  0  0  0  0  0  0  0  0
  -33.3369  -22.9122   18.2175 C   0  0  0  0  0  0  0  0  0  0  0  0
  -23.5391  -12.9351   21.0991 C   0  0  1  0  0  0  0  0  0  0  0  0
  -26.9124  -14.3145   22.1720 C   0  0  1  0  0  0  0  0  0  0  0  0
  -34.0630  -19.3288   17.1788 C   0  0  1  0  0  0  0  0  0  0  0  0
  -27.9239  -25.7032   21.5279 C   0  0  1  0  0  0  0  0  0  0  0  0
  -33.5045  -20.7200   17.0407 C   0  0  1  0  0  0  0  0  0  0  0  0
  -29.9720  -20.4061   25.8510 C   0  0  0  0  0  0  0  0  0  0  0  0
  -24.6731  -18.3478   22.4516 C   0  0  0  0  0  0  0  0  0  0  0  0
  -25.9680  -20.2320   23.4720 C   0  0  0  0  0  0  0  0  0  0  0  0
  -25.0819  -18.4028   24.9182 C   0  0  0  0  0  0  0  0  0  0  0  0
  -31.8367  -17.3310   24.6089 C   0  0  0  0  0  0  0  0  0  0  0  0
  -33.7555  -18.2944   16.1520 C   0  0  0  0  0  0  0  0  0  0  0  0
  -32.4582  -16.1953   15.7649 C   0  0  0  0  0  0  0  0  0  0  0  0
  -31.5896  -15.1755   16.4745 C   0  0  0  0  0  0  0  0  0  1  0  0
  -27.0423  -17.9363   23.3914 C   0  0  1  0  0  0  0  0  0  0  0  0
  -30.1114  -18.9736   25.3598 C   0  0  2  0  0  0  0  0  0  0  0  0
  -25.7034  -18.7127   23.5389 C   0  0  0  0  0  0  0  0  0  0  0  0
  -25.5057  -26.1689   21.6563 N   0  0  0  0  0  0  0  0  0  0  0  0
  -26.7260  -26.6064   21.3018 N   0  0  0  0  0  0  0  0  0  0  0  0
  -27.2574  -15.7331   22.2853 N   0  0  0  0  0  0  0  0  0  0  0  0
  -29.3904  -23.9772   20.5383 N   0  0  0  0  0  0  0  0  0  0  0  0
  -31.5754  -23.2368   19.9062 N   0  0  0  0  0  0  0  0  0  0  0  0
  -27.8691  -28.4509   20.3522 N   0  0  0  0  0  0  0  0  0  0  0  0
  -23.5561  -29.7904   20.3613 N   0  0  0  0  0  0  0  0  0  0  0  0
  -24.8117  -13.1936   21.7379 N   0  0  0  0  0  0  0  0  0  0  0  0
  -28.0271  -18.2418   24.4235 N   0  0  0  0  0  0  0  0  0  0  0  0
  -33.0738  -21.4289   18.3038 N   0  3  0  0  0  0  0  0  0  0  0  0
  -31.5511  -18.7113   25.0782 N   0  3  0  0  0  0  0  0  0  0  0  0
  -32.8695  -17.2465   16.7312 N   0  3  0  0  0  0  0  0  0  0  0  0
  -25.6929  -30.3968   19.7912 O   0  0  0  0  0  0  0  0  0  0  0  0
  -25.4330  -15.0580   20.4887 O   0  0  0  0  0  0  0  0  0  0  0  0
  -26.3535  -15.9163   24.4267 O   0  0  0  0  0  0  0  0  0  0  0  0
  -29.6931  -18.9620   22.9803 O   0  0  0  0  0  0  0  0  0  0  0  0
  -30.8055  -25.3295   19.3213 O   0  0  0  0  0  0  0  0  0  0  0  0
  -19.2003  -26.8567   22.2203 O   0  0  0  0  0  0  0  0  0  0  0  0
  -30.4252  -15.8133   16.9822 O   0  0  0  0  0  0  0  0  0  1  0  0
  -16.6971  -31.2244   24.4701 F   0  0  0  0  0  0  0  0  0  0  0  0
  -19.2429  -29.3189   20.9639 F   0  0  0  0  0  0  0  0  0  0  0  0
  1  2  1  0  0  0  0
  1  5  2  0  0  0  0
  2  6  2  0  0  0  0
  3  8  2  0  0  0  0
  3 15  1  0  0  0  0
  4  9  1  0  0  0  0
  4 15  2  0  0  0  0
  5 17  1  0  0  0  0
  6 19  1  0  0  0  0
  7 10  2  0  0  0  0
  7 18  1  0  0  0  0
  8 21  1  0  0  0  0
  9 21  2  0  0  0  0
 10 22  1  0  0  0  0
 11 12  2  0  0  0  0
 11 23  1  0  0  0  0
 12 24  1  0  0  0  0
 13 20  1  0  0  0  0
 13 22  2  0  0  0  0
 14 24  2  0  0  0  0
 14 25  1  0  0  0  0
 15 26  1  0  0  0  0
 16 26  1  0  0  0  0
 16 27  2  0  0  0  0
 16 28  1  0  0  0  0
 17 19  2  0  0  0  0
 17 33  1  0  0  0  0
 18 20  2  0  0  0  0
 18 34  1  0  0  0  0
 19 47  1  0  0  0  0
 20 35  1  0  0  0  0
 21 80  1  0  0  0  0
 22 81  1  0  0  0  0
 23 25  2  0  0  0  0
 23 80  1  0  0  0  0
 24 82  1  0  0  0  0
 25 83  1  0  0  0  0
 26 63  2  0  0  0  0
 27 64  1  0  0  0  0
 27 68  1  0  0  0  0
 28 69  1  0  0  0  0
 28 75  2  0  0  0  0
 29 48  1  0  0  0  0
 29 70  1  0  0  0  0
 29 76  2  0  0  0  0
 30 60  1  0  0  0  0
 30 65  1  0  0  0  0
 30 77  2  0  0  0  0
 31 61  1  0  0  0  0
 31 71  1  0  0  0  0
 31 78  2  0  0  0  0
 32 66  1  0  0  0  0
 32 67  1  0  0  0  0
 32 79  2  0  0  0  0
 33 36  1  0  0  0  0
 34 48  1  0  0  0  0
 35 65  1  0  0  0  0
 36 38  1  0  0  0  0
 37 39  1  0  0  0  0
 37 41  1  0  0  0  0
 38 47  1  0  0  0  0
 39 50  1  0  0  0  0
 40 49  1  0  0  0  0
 40 51  1  0  0  0  0
 41 66  1  0  0  0  0
 42 45  1  0  0  0  0
 42 67  1  0  0  0  0
 43 46  1  0  0  0  0
 43 67  1  0  0  0  0
 44 50  1  0  0  0  0
 44 66  1  0  0  0  0
 45 72  1  0  0  0  0
 46 72  1  0  0  0  0
 47 70  1  0  0  0  0
 48 65  1  0  0  0  0
 49 51  1  0  0  0  0
 49 57  1  0  0  0  0
 50 64  1  0  0  0  0
 51 72  1  0  0  0  0
 52 61  1  0  0  0  0
 53 62  1  0  0  0  0
 54 62  1  0  0  0  0
 55 62  1  0  0  0  0
 56 73  1  0  0  0  0
 57 74  1  0  0  0  0
 58 59  1  0  0  0  0
 58 74  1  0  0  0  0
 59 81  1  0  0  0  0
 60 62  1  0  0  0  0
 60 71  1  0  0  0  0
 61 73  1  0  0  0  0
 63 64  1  0  0  0  0
M  CHG  3  72   1  73   1  74   1
M  ISO  4  32 100  59 101  67 100  81 101
M  END
> <Batch ID>
0188

> <Smiles>
CNC(C)C(=O)NC(C(=O)N1Cc2cc([101O:1][101CH2:1]CNCC3CC3N3CC[100N:0]([100C:0](=O)N4CCCC(n5nc(-c6ccc(Oc7ccc(F)cc7F)cc6)c(C(N)=O)c5N)C4)CC3)ccc2CC1C(=O)NC1CCCc2ccccc21)C(C)(C)C

> <Shape>
0.218

> <Color>
0.065

> <Negative vol penalty>
0.000

$$$$

  -OEChem-04052323193D

 80 89  0     1  0  0  0  0  0999 V2000
  -27.7572  -34.7576   24.5296 C   0  0  0  0  0  0  0  0  0  0  0  0
  -28.5530  -33.6856   24.1386 C   0  0  0  0  0  0  0  0  0  0  0  0
  -23.0833  -10.3798   19.8924 C   0  0  0  0  0  0  0  0  0  0  0  0
  -23.9038   -9.5449   22.0059 C   0  0  0  0  0  0  0  0  0  0  0  0
  -26.3840  -34.5814   24.6944 C   0  0  0  0  0  0  0  0  0  0  0  0
  -27.9760  -32.4363   23.9131 C   0  0  0  0  0  0  0  0  0  0  0  0
  -28.6909  -26.6179   19.7958 C   0  0  0  0  0  0  0  0  0  0  0  0
  -22.2745   -9.2510   19.7605 C   0  0  0  0  0  0  0  0  0  0  0  0
  -23.0950   -8.4162   21.8740 C   0  0  0  0  0  0  0  0  0  0  0  0
  -28.8017  -25.2320   19.8996 C   0  0  0  0  0  0  0  0  0  0  0  0
  -19.8401   -7.6210   22.3141 C   0  0  0  0  0  0  0  0  0  0  0  0
  -19.1141   -7.2116   23.4325 C   0  0  0  0  0  0  0  0  0  0  0  0
  -26.4072  -25.0645   20.1385 C   0  0  0  0  0  0  0  0  0  0  0  0
  -20.2491   -5.0792   23.3886 C   0  0  0  0  0  0  0  0  0  0  0  0
  -28.7529  -20.4467   21.4047 C   0  0  0  0  0  0  0  0  0  0  0  0
  -23.8980  -10.5267   21.0150 C   0  0  0  0  0  0  0  0  0  0  0  0
  -24.3965  -12.9134   21.7652 C   0  0  0  0  0  0  0  0  0  0  0  0
  -25.7885  -33.3316   24.4614 C   0  0  0  0  0  0  0  0  0  0  0  0
  -27.4363  -27.2395   19.8737 C   0  0  0  0  0  0  0  0  0  0  0  0
  -26.5938  -32.2428   24.0762 C   0  0  0  0  0  0  0  0  0  0  0  0
  -26.2829  -26.4582   20.0329 C   0  0  0  0  0  0  0  0  0  0  0  0
  -22.2804   -8.2692   20.7513 C   0  0  0  0  0  0  0  0  0  0  0  0
  -27.6601  -24.4553   20.0739 C   0  0  0  0  0  0  0  0  0  0  0  0
  -20.7706   -6.7595   21.7329 C   0  0  0  0  0  0  0  0  0  0  0  0
  -19.3186   -5.9407   23.9698 C   0  0  0  0  0  0  0  0  0  0  0  0
  -20.9751   -5.4886   22.2702 C   0  0  0  0  0  0  0  0  0  0  0  0
  -24.7341  -11.6922   21.1516 C   0  0  0  0  0  0  0  0  0  0  0  0
  -28.8523  -18.4242   20.4051 C   0  0  0  0  0  0  0  0  0  0  0  0
  -29.0947  -19.0340   19.1899 C   0  0  0  0  0  0  0  0  0  0  0  0
  -28.9990  -21.0598   20.1834 C   0  0  0  0  0  0  0  0  0  0  0  0
  -25.5239  -13.6868   21.6340 C   0  0  0  0  0  0  0  0  0  0  0  0
  -23.1732  -13.3129   22.3974 C   0  0  0  0  0  0  0  0  0  0  0  0
  -26.0929  -29.3418   21.8432 C   0  0  0  0  0  0  0  0  0  0  0  0
  -23.6762  -29.2350   19.6822 C   0  0  0  0  0  0  0  0  0  0  0  0
  -22.0603  -27.5020   17.2260 C   0  0  0  0  0  0  0  0  0  0  0  0
  -29.6093  -15.5525   18.2391 C   0  0  0  0  0  0  0  0  0  0  0  0
  -24.3070  -33.1780   24.6984 C   0  0  0  0  0  0  0  0  0  0  0  0
  -27.3312  -28.7333   19.7332 C   0  0  0  0  0  0  0  0  0  0  0  0
  -24.9106  -27.0751   20.1023 C   0  0  0  0  0  0  0  0  0  0  0  0
  -28.7965  -16.9364   20.2490 C   0  0  0  0  0  0  0  0  0  0  0  0
  -29.2586  -18.0138   18.1107 C   0  0  0  0  0  0  0  0  0  0  0  0
  -23.7186  -31.9142   24.0764 C   0  0  0  0  0  0  0  0  0  0  0  0
  -30.2085  -12.4796   20.1477 C   0  0  0  0  0  0  0  0  0  0  0  0
  -24.5967  -30.7067   24.3889 C   0  0  0  0  0  0  0  0  0  0  0  0
  -28.8000  -12.0826   20.5941 C   0  0  0  0  0  0  0  0  0  0  0  0
  -30.1989  -13.2248   18.8145 C   0  0  0  0  0  0  0  0  0  0  0  0
  -27.8866  -13.9771   19.2047 C   0  0  0  0  0  0  0  0  0  0  0  0
  -26.0013  -30.8783   23.7981 C   0  0  1  0  0  0  0  0  0  0  0  0
  -26.0531  -29.3022   20.3417 C   0  0  1  0  0  0  0  0  0  0  0  0
  -27.8461  -13.2928   20.5775 C   0  0  1  0  0  0  0  0  0  0  0  0
  -20.0953  -27.6562   15.6728 C   0  0  0  0  0  0  0  0  0  0  0  0
  -21.7960  -28.6106   22.0027 C   0  0  0  0  0  0  0  0  0  0  0  0
  -20.0954  -27.8514   20.3294 C   0  0  0  0  0  0  0  0  0  0  0  0
  -20.8797  -30.2195   20.3215 C   0  0  0  0  0  0  0  0  0  0  0  0
  -23.7931  -27.3479   14.8318 C   0  0  0  0  0  0  0  0  0  0  0  0
  -29.0767  -22.5452   20.0964 C   0  0  0  0  0  0  0  0  0  1  0  0
  -22.4325  -28.3969   19.5097 C   0  0  1  0  0  0  0  0  0  0  0  0
  -21.5832  -27.9185   15.8464 C   0  0  2  0  0  0  0  0  0  0  0  0
  -21.3268  -28.7578   20.5415 C   0  0  0  0  0  0  0  0  0  0  0  0
  -28.6715  -19.1045   21.5435 N   0  0  0  0  0  0  0  0  0  0  0  0
  -25.9785  -11.6856   20.6664 N   0  0  0  0  0  0  0  0  0  0  0  0
  -29.1768  -20.3614   19.0396 N   0  0  0  0  0  0  0  0  0  0  0  0
  -26.4327  -12.9121   20.9750 N   0  0  0  0  0  0  0  0  0  0  0  0
  -24.8604  -28.5402   19.9661 N   0  0  0  0  0  0  0  0  0  0  0  0
  -29.1345  -16.7290   18.8233 N   0  0  0  0  0  0  0  0  0  0  0  0
  -29.2610  -14.3457   18.8535 N   0  0  0  0  0  0  0  0  0  0  0  0
  -25.8167  -14.9472   22.0190 N   0  0  0  0  0  0  0  0  0  0  0  0
  -22.1150  -12.3952   22.4450 N   0  0  0  0  0  0  0  0  0  0  0  0
  -25.9872  -30.6126   22.3755 N   0  0  0  0  0  0  0  0  0  0  0  0
  -22.0247  -28.5531   18.1177 N   0  0  0  0  0  0  0  0  0  0  0  0
  -22.3196  -27.1631   14.7938 N   0  3  0  0  0  0  0  0  0  0  0  0
  -23.0175  -14.4557   22.8907 O   0  0  0  0  0  0  0  0  0  0  0  0
  -26.2093  -28.2966   22.4723 O   0  0  0  0  0  0  0  0  0  0  0  0
  -23.6011  -30.4604   19.5621 O   0  0  0  0  0  0  0  0  0  0  0  0
  -22.4244  -26.3576   17.4876 O   0  0  0  0  0  0  0  0  0  0  0  0
  -30.3534  -15.5800   17.2505 O   0  0  0  0  0  0  0  0  0  0  0  0
  -21.4911   -7.1677   20.6230 O   0  0  0  0  0  0  0  0  0  0  0  0
  -27.7662  -23.0933   20.1768 O   0  0  0  0  0  0  0  0  0  1  0  0
  -18.6224   -5.5482   25.0447 F   0  0  0  0  0  0  0  0  0  0  0  0
  -21.8684   -4.6570   21.7169 F   0  0  0  0  0  0  0  0  0  0  0  0
  1  2  1  0  0  0  0
  1  5  2  0  0  0  0
  2  6  2  0  0  0  0
  3  8  2  0  0  0  0
  3 16  1  0  0  0  0
  4  9  1  0  0  0  0
  4 16  2  0  0  0  0
  5 18  1  0  0  0  0
  6 20  1  0  0  0  0
  7 10  2  0  0  0  0
  7 19  1  0  0  0  0
  8 22  1  0  0  0  0
  9 22  2  0  0  0  0
 10 23  1  0  0  0  0
 11 12  2  0  0  0  0
 11 24  1  0  0  0  0
 12 25  1  0  0  0  0
 13 21  1  0  0  0  0
 13 23  2  0  0  0  0
 14 25  2  0  0  0  0
 14 26  1  0  0  0  0
 15 30  1  0  0  0  0
 15 60  2  0  0  0  0
 16 27  1  0  0  0  0
 17 27  1  0  0  0  0
 17 31  2  0  0  0  0
 17 32  1  0  0  0  0
 18 20  2  0  0  0  0
 18 37  1  0  0  0  0
 19 21  2  0  0  0  0
 19 38  1  0  0  0  0
 20 48  1  0  0  0  0
 21 39  1  0  0  0  0
 22 77  1  0  0  0  0
 23 78  1  0  0  0  0
 24 26  2  0  0  0  0
 24 77  1  0  0  0  0
 25 79  1  0  0  0  0
 26 80  1  0  0  0  0
 27 61  2  0  0  0  0
 28 29  2  0  0  0  0
 28 40  1  0  0  0  0
 28 60  1  0  0  0  0
 29 41  1  0  0  0  0
 29 62  1  0  0  0  0
 30 56  1  0  0  0  0
 30 62  2  0  0  0  0
 31 63  1  0  0  0  0
 31 67  1  0  0  0  0
 32 68  1  0  0  0  0
 32 72  2  0  0  0  0
 33 49  1  0  0  0  0
 33 69  1  0  0  0  0
 33 73  2  0  0  0  0
 34 57  1  0  0  0  0
 34 64  1  0  0  0  0
 34 74  2  0  0  0  0
 35 58  1  0  0  0  0
 35 70  1  0  0  0  0
 35 75  2  0  0  0  0
 36 65  1  0  0  0  0
 36 66  1  0  0  0  0
 36 76  2  0  0  0  0
 37 42  1  0  0  0  0
 38 49  1  0  0  0  0
 39 64  1  0  0  0  0
 40 65  1  0  0  0  0
 41 65  1  0  0  0  0
 42 44  1  0  0  0  0
 43 45  1  0  0  0  0
 43 46  1  0  0  0  0
 44 48  1  0  0  0  0
 45 50  1  0  0  0  0
 46 66  1  0  0  0  0
 47 50  1  0  0  0  0
 47 66  1  0  0  0  0
 48 69  1  0  0  0  0
 49 64  1  0  0  0  0
 50 63  1  0  0  0  0
 51 58  1  0  0  0  0
 52 59  1  0  0  0  0
 53 59  1  0  0  0  0
 54 59  1  0  0  0  0
 55 71  1  0  0  0  0
 56 78  1  0  0  0  0
 57 59  1  0  0  0  0
 57 70  1  0  0  0  0
 58 71  1  0  0  0  0
 61 63  1  0  0  0  0
M  CHG  1  71   1
M  ISO  4  36 100  56 101  65 100  78 101
M  END
> <Batch ID>
0188

> <Smiles>
CNC(C)C(=O)NC(C(=O)N1Cc2cc([101O:1][101CH2:1]c3cnc4c(n3)C[100N:0]([100C:0](=O)N3CCCC(n5nc(-c6ccc(Oc7ccc(F)cc7F)cc6)c(C(N)=O)c5N)C3)C4)ccc2CC1C(=O)NC1CCCc2ccccc21)C(C)(C)C

> <Shape>
0.337

> <Color>
0.120

> <Negative vol penalty>
0.000

$$$$

  -OEChem-04052323193D

 83 92  0     1  0  0  0  0  0999 V2000
  -28.2482  -36.3423   22.9877 C   0  0  0  0  0  0  0  0  0  0  0  0
  -28.4711  -34.9723   22.8941 C   0  0  0  0  0  0  0  0  0  0  0  0
  -22.7675   -9.5605   19.9512 C   0  0  0  0  0  0  0  0  0  0  0  0
  -24.4616   -8.9308   21.5545 C   0  0  0  0  0  0  0  0  0  0  0  0
  -26.9890  -36.8194   23.3492 C   0  0  0  0  0  0  0  0  0  0  0  0
  -27.4352  -34.0785   23.1631 C   0  0  0  0  0  0  0  0  0  0  0  0
  -27.1439  -30.3557   19.7425 C   0  0  0  0  0  0  0  0  0  0  0  0
  -21.7903   -8.9681   20.7510 C   0  0  0  0  0  0  0  0  0  0  0  0
  -23.4844   -8.3384   22.3544 C   0  0  0  0  0  0  0  0  0  0  0  0
  -28.0629  -29.3134   19.8560 C   0  0  0  0  0  0  0  0  0  0  0  0
  -21.4858   -6.3453   24.6442 C   0  0  0  0  0  0  0  0  0  0  0  0
  -21.7603   -5.0861   25.1776 C   0  0  0  0  0  0  0  0  0  0  0  0
  -26.3824  -27.9566   20.9303 C   0  0  0  0  0  0  0  0  0  0  0  0
  -21.9981   -4.1925   22.9455 C   0  0  0  0  0  0  0  0  0  0  0  0
  -24.1032   -9.5418   20.3529 C   0  0  0  0  0  0  0  0  0  0  0  0
  -25.4444   -9.8173   18.2004 C   0  0  0  0  0  0  0  0  0  0  0  0
  -25.9345  -35.9313   23.6134 C   0  0  0  0  0  0  0  0  0  0  0  0
  -25.8382  -30.2098   20.2327 C   0  0  0  0  0  0  0  0  0  0  0  0
  -26.1610  -34.5442   23.5298 C   0  0  0  0  0  0  0  0  0  0  0  0
  -25.4479  -28.9976   20.8195 C   0  0  0  0  0  0  0  0  0  0  0  0
  -22.1487   -8.3571   21.9526 C   0  0  0  0  0  0  0  0  0  0  0  0
  -27.6831  -28.1147   20.4525 C   0  0  0  0  0  0  0  0  0  0  0  0
  -21.4674   -6.5282   23.2614 C   0  0  0  0  0  0  0  0  0  0  0  0
  -22.0165   -4.0097   24.3283 C   0  0  0  0  0  0  0  0  0  0  0  0
  -21.7236   -5.4517   22.4121 C   0  0  0  0  0  0  0  0  0  0  0  0
  -25.1132  -10.1531   19.5268 C   0  0  0  0  0  0  0  0  0  0  0  0
  -26.4575  -10.6836   17.8696 C   0  0  0  0  0  0  0  0  0  0  0  0
  -24.8861   -8.8121   17.3439 C   0  0  0  0  0  0  0  0  0  0  0  0
  -24.1041  -31.6658   22.4636 C   0  0  0  0  0  0  0  0  0  0  0  0
  -21.7351  -29.7804   21.2995 C   0  0  0  0  0  0  0  0  0  0  0  0
  -21.3906  -26.3610   20.2009 C   0  0  0  0  0  0  0  0  0  0  0  0
  -28.4347  -15.7922   17.7370 C   0  0  0  0  0  0  0  0  0  0  0  0
  -24.6036  -36.4930   24.0467 C   0  0  0  0  0  0  0  0  0  0  0  0
  -24.8509  -31.3341   20.0786 C   0  0  0  0  0  0  0  0  0  0  0  0
  -24.0523  -28.7833   21.3435 C   0  0  0  0  0  0  0  0  0  0  0  0
  -23.4581  -35.4885   23.9506 C   0  0  0  0  0  0  0  0  0  0  0  0
  -29.2056  -13.8014   20.7140 C   0  0  0  0  0  0  0  0  0  0  0  0
  -23.8710  -34.1489   24.5521 C   0  0  0  0  0  0  0  0  0  0  0  0
  -28.1870  -12.6738   20.5837 C   0  0  0  0  0  0  0  0  0  0  0  0
  -27.4044  -21.8732   18.5887 C   0  0  0  0  0  0  0  0  0  0  0  0
  -28.6678  -15.1342   20.1916 C   0  0  0  0  0  0  0  0  0  0  0  0
  -27.4100  -23.3251   19.0641 C   0  0  0  0  0  0  0  0  0  0  0  0
  -27.1182  -13.9266   18.6780 C   0  0  0  0  0  0  0  0  0  0  0  0
  -29.1560  -18.1206   16.9744 C   0  0  0  0  0  0  0  0  0  0  0  0
  -28.5840  -18.0678   19.0247 C   0  0  0  0  0  0  0  0  0  0  0  0
  -25.0559  -33.5436   23.7898 C   0  0  1  0  0  0  0  0  0  0  0  0
  -23.6985  -31.2582   21.0754 C   0  0  1  0  0  0  0  0  0  0  0  0
  -27.6774  -12.5731   19.1384 C   0  0  2  0  0  0  0  0  0  0  0  0
  -28.7005  -21.2966   19.1346 C   0  0  2  0  0  0  0  0  0  0  0  0
  -28.4855  -19.1262   17.9174 C   0  0  0  0  0  0  0  0  0  0  0  0
  -29.5972  -22.5122   19.3398 C   0  0  2  0  0  0  0  0  0  0  0  0
  -30.7589  -22.2257   20.2846 C   0  0  0  0  0  0  0  0  0  0  0  0
  -19.7940  -25.3260   18.5648 C   0  0  0  0  0  0  0  0  0  0  0  0
  -20.0443  -29.1852   23.7687 C   0  0  0  0  0  0  0  0  0  0  0  0
  -19.4445  -26.9823   22.7412 C   0  0  0  0  0  0  0  0  0  0  0  0
  -18.7941  -29.1052   21.6042 C   0  0  0  0  0  0  0  0  0  0  0  0
  -23.5972  -25.2228   18.5902 C   0  0  0  0  0  0  0  0  0  0  0  0
  -29.0920  -24.8400   19.9253 C   0  0  0  0  0  0  0  0  0  0  0  0
  -28.0589  -25.7682   20.5455 C   0  0  0  0  0  0  0  0  0  1  0  0
  -21.2206  -28.3955   21.6103 C   0  0  1  0  0  0  0  0  0  0  0  0
  -21.1946  -25.8802   18.7744 C   0  0  2  0  0  0  0  0  0  0  0  0
  -19.9031  -28.4241   22.4353 C   0  0  0  0  0  0  0  0  0  0  0  0
  -25.8558  -11.1546   20.0060 N   0  0  0  0  0  0  0  0  0  0  0  0
  -26.6638  -11.4554   18.9751 N   0  0  0  0  0  0  0  0  0  0  0  0
  -23.1252  -29.9145   21.1753 N   0  0  0  0  0  0  0  0  0  0  0  0
  -28.1001  -15.0048   18.8441 N   0  0  0  0  0  0  0  0  0  0  0  0
  -28.7990  -17.1004   17.9573 N   0  0  0  0  0  0  0  0  0  0  0  0
  -28.6174  -23.4627   19.8912 N   0  0  1  0  0  0  0  0  0  0  0  0
  -27.1832  -10.8528   16.7440 N   0  0  0  0  0  0  0  0  0  0  0  0
  -23.8513   -8.0090   17.8425 N   0  0  0  0  0  0  0  0  0  0  0  0
  -24.6079  -32.9497   22.5484 N   0  0  0  0  0  0  0  0  0  0  0  0
  -21.1092  -27.7046   20.3302 N   0  0  0  0  0  0  0  0  0  0  0  0
  -29.2992  -20.3202   18.1736 N   0  3  0  0  0  0  0  0  0  0  0  0
  -22.1776  -24.8082   18.4494 N   0  3  0  0  0  0  0  0  0  0  0  0
  -25.3039   -8.6205   16.1768 O   0  0  0  0  0  0  0  0  0  0  0  0
  -23.9685  -30.8746   23.3895 O   0  0  0  0  0  0  0  0  0  0  0  0
  -20.9326  -30.7074   21.1646 O   0  0  0  0  0  0  0  0  0  0  0  0
  -21.7532  -25.6181   21.1104 O   0  0  0  0  0  0  0  0  0  0  0  0
  -28.3801  -15.3516   16.5813 O   0  0  0  0  0  0  0  0  0  0  0  0
  -21.1954   -7.7791   22.7334 O   0  0  0  0  0  0  0  0  0  0  0  0
  -28.5847  -27.0887   20.5659 O   0  0  0  0  0  0  0  0  0  1  0  0
  -22.2817   -2.8008   24.8406 F   0  0  0  0  0  0  0  0  0  0  0  0
  -21.7084   -5.6215   21.0829 F   0  0  0  0  0  0  0  0  0  0  0  0
  1  2  1  0  0  0  0
  1  5  2  0  0  0  0
  2  6  2  0  0  0  0
  3  8  2  0  0  0  0
  3 15  1  0  0  0  0
  4  9  1  0  0  0  0
  4 15  2  0  0  0  0
  5 17  1  0  0  0  0
  6 19  1  0  0  0  0
  7 10  2  0  0  0  0
  7 18  1  0  0  0  0
  8 21  1  0  0  0  0
  9 21  2  0  0  0  0
 10 22  1  0  0  0  0
 11 12  2  0  0  0  0
 11 23  1  0  0  0  0
 12 24  1  0  0  0  0
 13 20  1  0  0  0  0
 13 22  2  0  0  0  0
 14 24  2  0  0  0  0
 14 25  1  0  0  0  0
 15 26  1  0  0  0  0
 16 26  1  0  0  0  0
 16 27  2  0  0  0  0
 16 28  1  0  0  0  0
 17 19  2  0  0  0  0
 17 33  1  0  0  0  0
 18 20  2  0  0  0  0
 18 34  1  0  0  0  0
 19 46  1  0  0  0  0
 20 35  1  0  0  0  0
 21 80  1  0  0  0  0
 22 81  1  0  0  0  0
 23 25  2  0  0  0  0
 23 80  1  0  0  0  0
 24 82  1  0  0  0  0
 25 83  1  0  0  0  0
 26 63  2  0  0  0  0
 27 64  1  0  0  0  0
 27 69  1  0  0  0  0
 28 70  1  0  0  0  0
 28 75  2  0  0  0  0
 29 47  1  0  0  0  0
 29 71  1  0  0  0  0
 29 76  2  0  0  0  0
 30 60  1  0  0  0  0
 30 65  1  0  0  0  0
 30 77  2  0  0  0  0
 31 61  1  0  0  0  0
 31 72  1  0  0  0  0
 31 78  2  0  0  0  0
 32 66  1  0  0  0  0
 32 67  1  0  0  0  0
 32 79  2  0  0  0  0
 33 36  1  0  0  0  0
 34 47  1  0  0  0  0
 35 65  1  0  0  0  0
 36 38  1  0  0  0  0
 37 39  1  0  0  0  0
 37 41  1  0  0  0  0
 38 46  1  0  0  0  0
 39 48  1  0  0  0  0
 40 42  1  0  0  0  0
 40 49  1  0  0  0  0
 41 66  1  0  0  0  0
 42 68  1  0  0  0  0
 43 48  1  0  0  0  0
 43 66  1  0  0  0  0
 44 50  1  0  0  0  0
 44 67  1  0  0  0  0
 45 50  1  0  0  0  0
 45 67  1  0  0  0  0
 46 71  1  0  0  0  0
 47 65  1  0  0  0  0
 48 64  1  0  0  0  0
 49 51  1  0  0  0  0
 49 73  1  0  0  0  0
 50 73  1  0  0  0  0
 51 52  1  0  0  0  0
 51 68  1  0  0  0  0
 53 61  1  0  0  0  0
 54 62  1  0  0  0  0
 55 62  1  0  0  0  0
 56 62  1  0  0  0  0
 57 74  1  0  0  0  0
 58 59  1  0  0  0  0
 58 68  1  0  0  0  0
 59 81  1  0  0  0  0
 60 62  1  0  0  0  0
 60 72  1  0  0  0  0
 61 74  1  0  0  0  0
 63 64  1  0  0  0  0
M  CHG  2  73   1  74   1
M  ISO  4  32 100  59 101  67 100  81 101
M  END
> <Batch ID>
0188

> <Smiles>
CNC(C)C(=O)NC(C(=O)N1Cc2cc([101O:1][101CH2:1]CN3CCC(NC4C[100N:0]([100C:0](=O)N5CCCC(n6nc(-c7ccc(Oc8ccc(F)cc8F)cc7)c(C(N)=O)c6N)C5)C4)C3C)ccc2CC1C(=O)NC1CCCc2ccccc21)C(C)(C)C

> <Shape>
0.335

> <Color>
0.087

> <Negative vol penalty>
0.000

$$$$

  -OEChem-04052323193D

 82 90  0     1  0  0  0  0  0999 V2000
  -22.8658  -23.6649   21.6467 C   0  0  0  0  0  0  0  0  0  0  0  0
  -24.0446  -22.9277   21.6949 C   0  0  0  0  0  0  0  0  0  0  0  0
  -24.6978  -29.2444   22.5273 C   0  0  0  0  0  0  0  0  0  0  0  0
  -24.8960  -30.7365   20.6375 C   0  0  0  0  0  0  0  0  0  0  0  0
  -21.6572  -23.0691   22.0048 C   0  0  0  0  0  0  0  0  0  0  0  0
  -24.0156  -21.5944   22.1022 C   0  0  0  0  0  0  0  0  0  0  0  0
  -26.8031  -18.5925   19.1249 C   0  0  0  0  0  0  0  0  0  0  0  0
  -24.3035  -30.3142   23.3307 C   0  0  0  0  0  0  0  0  0  0  0  0
  -24.5017  -31.8064   21.4409 C   0  0  0  0  0  0  0  0  0  0  0  0
  -28.1842  -18.6129   19.3144 C   0  0  0  0  0  0  0  0  0  0  0  0
  -23.8950  -34.9938   23.0787 C   0  0  0  0  0  0  0  0  0  0  0  0
  -24.6167  -36.1829   22.9750 C   0  0  0  0  0  0  0  0  0  0  0  0
  -28.0319  -16.5764   20.5985 C   0  0  0  0  0  0  0  0  0  0  0  0
  -26.6249  -35.0231   23.6527 C   0  0  0  0  0  0  0  0  0  0  0  0
  -24.9941  -29.4555   21.1806 C   0  0  0  0  0  0  0  0  0  0  0  0
  -24.5704  -27.5035   19.5939 C   0  0  0  0  0  0  0  0  0  0  0  0
  -21.6120  -21.7250   22.4074 C   0  0  0  0  0  0  0  0  0  0  0  0
  -26.0234  -17.5682   19.6809 C   0  0  0  0  0  0  0  0  0  0  0  0
  -22.8055  -20.9804   22.4672 C   0  0  0  0  0  0  0  0  0  0  0  0
  -26.6414  -16.5440   20.4124 C   0  0  0  0  0  0  0  0  0  0  0  0
  -24.2054  -31.5952   22.7875 C   0  0  0  0  0  0  0  0  0  0  0  0
  -28.7985  -17.6063   20.0537 C   0  0  0  0  0  0  0  0  0  0  0  0
  -24.5382  -33.8193   23.4694 C   0  0  0  0  0  0  0  0  0  0  0  0
  -25.9817  -36.1975   23.2620 C   0  0  0  0  0  0  0  0  0  0  0  0
  -25.9031  -33.8340   23.7564 C   0  0  0  0  0  0  0  0  0  0  0  0
  -25.4021  -28.3508   20.3504 C   0  0  0  0  0  0  0  0  0  0  0  0
  -25.4351  -26.6242   18.9892 C   0  0  0  0  0  0  0  0  0  0  0  0
  -23.1439  -27.5107   19.4505 C   0  0  0  0  0  0  0  0  0  0  0  0
  -23.6639  -17.4476   21.8075 C   0  0  0  0  0  0  0  0  0  0  0  0
  -23.5780  -14.3191   20.9544 C   0  0  0  0  0  0  0  0  0  0  0  0
  -25.2206  -11.6238   19.6568 C   0  0  0  0  0  0  0  0  0  0  0  0
  -30.4004  -23.9407   20.4630 C   0  0  0  0  0  0  0  0  0  0  0  0
  -20.2887  -21.1380   22.8303 C   0  0  0  0  0  0  0  0  0  0  0  0
  -24.5380  -17.5460   19.4448 C   0  0  0  0  0  0  0  0  0  0  0  0
  -25.8518  -15.4108   21.0131 C   0  0  0  0  0  0  0  0  0  0  0  0
  -20.2907  -19.6127   22.8916 C   0  0  0  0  0  0  0  0  0  0  0  0
  -30.2604  -26.6444   17.9280 C   0  0  0  0  0  0  0  0  0  0  0  0
  -21.5334  -19.1093   23.6190 C   0  0  0  0  0  0  0  0  0  0  0  0
  -28.9212  -27.3019   18.2643 C   0  0  0  0  0  0  0  0  0  0  0  0
  -32.4882  -21.9028   18.2269 C   0  0  0  0  0  0  0  0  0  0  0  0
  -30.9082  -26.0583   19.1758 C   0  0  0  0  0  0  0  0  0  0  0  0
  -31.8672  -23.2752   18.4681 C   0  0  0  0  0  0  0  0  0  0  0  0
  -28.7139  -25.7304   20.2502 C   0  0  0  0  0  0  0  0  0  0  0  0
  -32.0789  -22.1191   20.5652 C   0  0  0  0  0  0  0  0  0  0  0  0
  -22.8113  -19.5245   22.8800 C   0  0  1  0  0  0  0  0  0  0  0  0
  -23.7789  -16.7344   20.4900 C   0  0  1  0  0  0  0  0  0  0  0  0
  -28.0002  -26.3316   19.0264 C   0  0  1  0  0  0  0  0  0  0  0  0
  -33.1132  -21.6035   19.5813 C   0  0  1  0  0  0  0  0  0  0  0  0
  -24.9011   -9.1934   19.1197 C   0  0  0  0  0  0  0  0  0  0  0  0
  -35.3574  -17.7237   20.3595 C   0  0  0  0  0  0  0  0  0  0  0  0
  -23.8317  -13.6336   23.9168 C   0  0  0  0  0  0  0  0  0  0  0  0
  -24.4569  -11.3022   23.2522 C   0  0  0  0  0  0  0  0  0  0  0  0
  -22.2120  -12.2089   22.6513 C   0  0  0  0  0  0  0  0  0  0  0  0
  -25.7230  -12.0751   16.7753 C   0  0  0  0  0  0  0  0  0  0  0  0
  -31.9376  -17.7463   21.8343 C   0  0  0  0  0  0  0  0  0  0  0  0
  -34.0170  -19.7874   21.0385 C   0  0  0  0  0  0  0  0  0  0  0  0
  -30.6435  -17.0475   21.4463 C   0  0  0  0  0  0  0  0  0  1  0  0
  -24.2588  -13.0606   21.4358 C   0  0  1  0  0  0  0  0  0  0  0  0
  -24.8216  -10.6176   18.5924 C   0  0  2  0  0  0  0  0  0  0  0  0
  -34.1799  -18.2726   21.1594 C   0  0  1  0  0  0  0  0  0  0  0  0
  -23.7048  -12.5736   22.8044 C   0  0  0  0  0  0  0  0  0  0  0  0
  -26.6957  -28.0379   20.2383 N   0  0  0  0  0  0  0  0  0  0  0  0
  -26.6835  -26.9841   19.4044 N   0  0  0  0  0  0  0  0  0  0  0  0
  -24.4018  -15.4369   20.7598 N   0  0  0  0  0  0  0  0  0  0  0  0
  -29.9971  -25.1396   19.8642 N   0  0  0  0  0  0  0  0  0  0  0  0
  -31.4618  -23.2520   19.8774 N   0  0  0  0  0  0  0  0  0  0  0  0
  -25.2418  -25.5860   18.1483 N   0  0  0  0  0  0  0  0  0  0  0  0
  -22.4078  -28.4826   20.1417 N   0  0  0  0  0  0  0  0  0  0  0  0
  -23.0297  -18.6729   21.7305 N   0  0  0  0  0  0  0  0  0  0  0  0
  -24.1270  -12.0871   20.3572 N   0  0  0  0  0  0  0  0  0  0  0  0
  -32.9600  -17.5865   20.8029 N   0  0  0  0  0  0  0  0  0  0  0  0
  -33.3516  -20.1613   19.7551 N   0  3  0  0  0  0  0  0  0  0  0  0
  -25.7203  -10.7315   17.4091 N   0  3  0  0  0  0  0  0  0  0  0  0
  -22.5385  -26.6695   18.7438 O   0  0  0  0  0  0  0  0  0  0  0  0
  -24.1158  -16.9243   22.8192 O   0  0  0  0  0  0  0  0  0  0  0  0
  -22.3613  -14.3087   20.7515 O   0  0  0  0  0  0  0  0  0  0  0  0
  -26.3863  -11.9619   19.8502 O   0  0  0  0  0  0  0  0  0  0  0  0
  -29.8076  -23.4809   21.4479 O   0  0  0  0  0  0  0  0  0  0  0  0
  -23.8205  -32.6394   23.5711 O   0  0  0  0  0  0  0  0  0  0  0  0
  -30.1559  -17.6243   20.2421 O   0  0  0  0  0  0  0  0  0  1  0  0
  -26.6749  -37.3392   23.1609 F   0  0  0  0  0  0  0  0  0  0  0  0
  -26.5268  -32.7086   24.1311 F   0  0  0  0  0  0  0  0  0  0  0  0
  1  2  1  0  0  0  0
  1  5  2  0  0  0  0
  2  6  2  0  0  0  0
  3  8  2  0  0  0  0
  3 15  1  0  0  0  0
  4  9  1  0  0  0  0
  4 15  2  0  0  0  0
  5 17  1  0  0  0  0
  6 19  1  0  0  0  0
  7 10  2  0  0  0  0
  7 18  1  0  0  0  0
  8 21  1  0  0  0  0
  9 21  2  0  0  0  0
 10 22  1  0  0  0  0
 11 12  2  0  0  0  0
 11 23  1  0  0  0  0
 12 24  1  0  0  0  0
 13 20  1  0  0  0  0
 13 22  2  0  0  0  0
 14 24  2  0  0  0  0
 14 25  1  0  0  0  0
 15 26  1  0  0  0  0
 16 26  1  0  0  0  0
 16 27  2  0  0  0  0
 16 28  1  0  0  0  0
 17 19  2  0  0  0  0
 17 33  1  0  0  0  0
 18 20  2  0  0  0  0
 18 34  1  0  0  0  0
 19 45  1  0  0  0  0
 20 35  1  0  0  0  0
 21 79  1  0  0  0  0
 22 80  1  0  0  0  0
 23 25  2  0  0  0  0
 23 79  1  0  0  0  0
 24 81  1  0  0  0  0
 25 82  1  0  0  0  0
 26 62  2  0  0  0  0
 27 63  1  0  0  0  0
 27 67  1  0  0  0  0
 28 68  1  0  0  0  0
 28 74  2  0  0  0  0
 29 46  1  0  0  0  0
 29 69  1  0  0  0  0
 29 75  2  0  0  0  0
 30 58  1  0  0  0  0
 30 64  1  0  0  0  0
 30 76  2  0  0  0  0
 31 59  1  0  0  0  0
 31 70  1  0  0  0  0
 31 77  2  0  0  0  0
 32 65  1  0  0  0  0
 32 66  1  0  0  0  0
 32 78  2  0  0  0  0
 33 36  1  0  0  0  0
 34 46  1  0  0  0  0
 35 64  1  0  0  0  0
 36 38  1  0  0  0  0
 37 39  1  0  0  0  0
 37 41  1  0  0  0  0
 38 45  1  0  0  0  0
 39 47  1  0  0  0  0
 40 42  1  0  0  0  0
 40 48  1  0  0  0  0
 41 65  1  0  0  0  0
 42 66  1  0  0  0  0
 43 47  1  0  0  0  0
 43 65  1  0  0  0  0
 44 48  1  0  0  0  0
 44 66  1  0  0  0  0
 45 69  1  0  0  0  0
 46 64  1  0  0  0  0
 47 63  1  0  0  0  0
 48 72  1  0  0  0  0
 49 59  1  0  0  0  0
 50 60  1  0  0  0  0
 51 61  1  0  0  0  0
 52 61  1  0  0  0  0
 53 61  1  0  0  0  0
 54 73  1  0  0  0  0
 55 57  1  0  0  0  0
 55 71  1  0  0  0  0
 56 60  1  0  0  0  0
 56 72  1  0  0  0  0
 57 80  1  0  0  0  0
 58 61  1  0  0  0  0
 58 70  1  0  0  0  0
 59 73  1  0  0  0  0
 60 71  1  0  0  0  0
 62 63  1  0  0  0  0
M  CHG  2  72   1  73   1
M  ISO  4  32 100  57 101  66 100  80 101
M  END
> <Batch ID>
0188

> <Smiles>
CNC(C)C(=O)NC(C(=O)N1Cc2cc([101O:1][101CH2:1]CNC(C)CNC3CC[100N:0]([100C:0](=O)N4CCCC(n5nc(-c6ccc(Oc7ccc(F)cc7F)cc6)c(C(N)=O)c5N)C4)C3)ccc2CC1C(=O)NC1CCCc2ccccc21)C(C)(C)C

> <Shape>
0.238

> <Color>
0.069

> <Negative vol penalty>
0.000

$$$$

  -OEChem-04052323193D

 86 95  0     1  0  0  0  0  0999 V2000
  -16.7272  -30.9232   23.3828 C   0  0  0  0  0  0  0  0  0  0  0  0
  -17.9143  -31.4860   23.8403 C   0  0  0  0  0  0  0  0  0  0  0  0
  -27.3717  -13.3172   21.9668 C   0  0  0  0  0  0  0  0  0  0  0  0
  -26.9064  -13.2548   19.5968 C   0  0  0  0  0  0  0  0  0  0  0  0
  -16.7206  -29.6203   22.8866 C   0  0  0  0  0  0  0  0  0  0  0  0
  -19.0954  -30.7457   23.8029 C   0  0  0  0  0  0  0  0  0  0  0  0
  -26.1568  -31.5418   22.8972 C   0  0  0  0  0  0  0  0  0  0  0  0
  -26.7226  -12.0930   22.1265 C   0  0  0  0  0  0  0  0  0  0  0  0
  -26.2573  -12.0305   19.7566 C   0  0  0  0  0  0  0  0  0  0  0  0
  -27.3649  -31.2174   23.5128 C   0  0  0  0  0  0  0  0  0  0  0  0
  -27.4140   -8.8222   21.6202 C   0  0  0  0  0  0  0  0  0  0  0  0
  -28.0360   -7.8571   22.4123 C   0  0  0  0  0  0  0  0  0  0  0  0
  -27.2487  -29.0039   22.5609 C   0  0  0  0  0  0  0  0  0  0  0  0
  -26.1272   -7.8423   23.8933 C   0  0  0  0  0  0  0  0  0  0  0  0
  -27.4636  -13.8981   20.7019 C   0  0  0  0  0  0  0  0  0  0  0  0
  -29.4984  -15.3727   20.2627 C   0  0  0  0  0  0  0  0  0  0  0  0
  -17.9040  -28.8671   22.8341 C   0  0  0  0  0  0  0  0  0  0  0  0
  -25.4789  -30.5945   22.1165 C   0  0  0  0  0  0  0  0  0  0  0  0
  -19.1044  -29.4310   23.3068 C   0  0  0  0  0  0  0  0  0  0  0  0
  -26.0333  -29.3196   21.9345 C   0  0  0  0  0  0  0  0  0  0  0  0
  -26.1654  -11.4496   21.0214 C   0  0  0  0  0  0  0  0  0  0  0  0
  -27.9096  -29.9474   23.3470 C   0  0  0  0  0  0  0  0  0  0  0  0
  -26.1486   -9.2974   21.9647 C   0  0  0  0  0  0  0  0  0  0  0  0
  -27.3926   -7.3672   23.5488 C   0  0  0  0  0  0  0  0  0  0  0  0
  -25.5052   -8.8074   23.1012 C   0  0  0  0  0  0  0  0  0  0  0  0
  -28.1335  -15.1630   20.5364 C   0  0  0  0  0  0  0  0  0  0  0  0
  -29.6301  -16.7384   20.1999 C   0  0  0  0  0  0  0  0  0  0  0  0
  -29.5546  -26.9709   25.3564 C   0  0  0  0  0  0  0  0  0  0  0  0
  -29.4003  -28.1062   26.3402 C   0  0  0  0  0  0  0  0  0  0  0  0
  -30.5528  -14.4182   20.0813 C   0  0  0  0  0  0  0  0  0  0  0  0
  -22.6447  -29.1650   22.2829 C   0  0  0  0  0  0  0  0  0  0  0  0
  -23.5119  -27.9727   19.3934 C   0  0  0  0  0  0  0  0  0  0  0  0
  -26.0231  -27.1565   17.2314 C   0  0  0  0  0  0  0  0  0  0  0  0
  -28.7393  -21.7135   22.0096 C   0  0  0  0  0  0  0  0  0  0  0  0
  -17.8384  -27.4460   22.3332 C   0  0  0  0  0  0  0  0  0  0  0  0
  -24.1900  -30.9687   21.4374 C   0  0  0  0  0  0  0  0  0  0  0  0
  -25.3553  -28.2731   21.0897 C   0  0  0  0  0  0  0  0  0  0  0  0
  -19.2035  -26.8610   21.9802 C   0  0  0  0  0  0  0  0  0  0  0  0
  -26.1437  -20.3904   20.0458 C   0  0  0  0  0  0  0  0  0  0  0  0
  -20.2133  -27.1580   23.0843 C   0  0  0  0  0  0  0  0  0  0  0  0
  -26.5392  -18.9158   19.9743 C   0  0  0  0  0  0  0  0  0  0  0  0
  -27.8703  -26.8250   27.6379 C   0  0  0  0  0  0  0  0  0  0  0  0
  -26.3812  -20.9810   21.4369 C   0  0  0  0  0  0  0  0  0  0  0  0
  -27.0996  -23.2969   23.1180 C   0  0  0  0  0  0  0  0  0  0  0  0
  -29.2090  -24.1400   22.1548 C   0  0  0  0  0  0  0  0  0  0  0  0
  -28.1531  -19.3109   21.8731 C   0  0  0  0  0  0  0  0  0  0  0  0
  -27.4706  -23.8897   24.4736 C   0  0  0  0  0  0  0  0  0  0  0  0
  -29.6226  -24.7216   23.4969 C   0  0  0  0  0  0  0  0  0  0  0  0
  -20.4107  -28.6686   23.2595 C   0  0  1  0  0  0  0  0  0  0  0  0
  -28.7152  -25.7452   25.5840 C   0  0  1  0  0  0  0  0  0  0  0  0
  -23.3279  -29.7605   21.0844 C   0  0  1  0  0  0  0  0  0  0  0  0
  -27.4476  -26.0847   26.3670 C   0  0  2  0  0  0  0  0  0  0  0  0
  -27.9805  -18.7059   20.4713 C   0  0  1  0  0  0  0  0  0  0  0  0
  -26.3997  -26.8814   25.5794 C   0  0  0  0  0  0  0  0  0  0  0  0
  -26.4232  -26.1654   14.9609 C   0  0  0  0  0  0  0  0  0  0  0  0
  -22.9396  -25.1912   20.5094 C   0  0  0  0  0  0  0  0  0  0  0  0
  -24.2308  -24.2319   18.5908 C   0  0  0  0  0  0  0  0  0  0  0  0
  -22.1594  -25.5539   18.1612 C   0  0  0  0  0  0  0  0  0  0  0  0
  -27.3168  -29.6313   16.2513 C   0  0  0  0  0  0  0  0  0  0  0  0
  -30.1899  -29.3552   26.0700 C   0  0  0  0  0  0  0  0  0  0  0  0
  -29.3896  -30.2830   25.1781 C   0  0  0  0  0  0  0  0  0  1  0  0
  -24.2550  -26.7460   18.9225 C   0  0  1  0  0  0  0  0  0  0  0  0
  -26.2138  -27.4463   15.7535 C   0  0  2  0  0  0  0  0  0  0  0  0
  -23.4083  -25.4496   19.0636 C   0  0  0  0  0  0  0  0  0  0  0  0
  -27.4473  -16.3042   20.6405 N   0  0  0  0  0  0  0  0  0  0  0  0
  -28.6264  -28.0458   27.3648 N   0  0  0  0  0  0  0  0  0  0  0  0
  -28.3848  -17.2440   20.4312 N   0  0  0  0  0  0  0  0  0  0  0  0
  -24.0941  -28.6851   20.4515 N   0  0  0  0  0  0  0  0  0  0  0  0
  -27.7562  -20.7205   21.8854 N   0  0  0  0  0  0  0  0  0  0  0  0
  -28.3006  -23.0080   22.3251 N   0  0  0  0  0  0  0  0  0  0  0  0
  -30.6887  -17.5440   19.9702 N   0  0  0  0  0  0  0  0  0  0  0  0
  -30.2438  -13.0546   20.1786 N   0  0  0  0  0  0  0  0  0  0  0  0
  -21.2648  -29.1912   22.2146 N   0  0  0  0  0  0  0  0  0  0  0  0
  -24.6897  -27.0303   17.5592 N   0  0  0  0  0  0  0  0  0  0  0  0
  -28.3801  -25.0790   24.2789 N   0  3  0  0  0  0  0  0  0  0  0  0
  -27.3989  -28.3260   15.5469 N   0  3  0  0  0  0  0  0  0  0  0  0
  -30.3723  -27.0894   24.4548 O   0  0  0  0  0  0  0  0  0  0  0  0
  -31.7372  -14.7648   19.8562 O   0  0  0  0  0  0  0  0  0  0  0  0
  -23.3195  -28.7137   23.2008 O   0  0  0  0  0  0  0  0  0  0  0  0
  -22.4575  -28.2914   18.8382 O   0  0  0  0  0  0  0  0  0  0  0  0
  -26.9631  -27.0488   18.0158 O   0  0  0  0  0  0  0  0  0  0  0  0
  -29.9394  -21.4582   21.8485 O   0  0  0  0  0  0  0  0  0  0  0  0
  -25.5321  -10.2549   21.1769 O   0  0  0  0  0  0  0  0  0  0  0  0
  -29.0966  -29.6257   23.9514 O   0  0  0  0  0  0  0  0  0  1  0  0
  -27.9894   -6.4393   24.3084 F   0  0  0  0  0  0  0  0  0  0  0  0
  -24.2890   -9.2592   23.4365 F   0  0  0  0  0  0  0  0  0  0  0  0
  1  2  1  0  0  0  0
  1  5  2  0  0  0  0
  2  6  2  0  0  0  0
  3  8  2  0  0  0  0
  3 15  1  0  0  0  0
  4  9  1  0  0  0  0
  4 15  2  0  0  0  0
  5 17  1  0  0  0  0
  6 19  1  0  0  0  0
  7 10  2  0  0  0  0
  7 18  1  0  0  0  0
  8 21  1  0  0  0  0
  9 21  2  0  0  0  0
 10 22  1  0  0  0  0
 11 12  2  0  0  0  0
 11 23  1  0  0  0  0
 12 24  1  0  0  0  0
 13 20  1  0  0  0  0
 13 22  2  0  0  0  0
 14 24  2  0  0  0  0
 14 25  1  0  0  0  0
 15 26  1  0  0  0  0
 16 26  1  0  0  0  0
 16 27  2  0  0  0  0
 16 30  1  0  0  0  0
 17 19  2  0  0  0  0
 17 35  1  0  0  0  0
 18 20  2  0  0  0  0
 18 36  1  0  0  0  0
 19 49  1  0  0  0  0
 20 37  1  0  0  0  0
 21 83  1  0  0  0  0
 22 84  1  0  0  0  0
 23 25  2  0  0  0  0
 23 83  1  0  0  0  0
 24 85  1  0  0  0  0
 25 86  1  0  0  0  0
 26 65  2  0  0  0  0
 27 67  1  0  0  0  0
 27 71  1  0  0  0  0
 28 29  1  0  0  0  0
 28 50  1  0  0  0  0
 28 77  2  0  0  0  0
 29 60  1  0  0  0  0
 29 66  2  0  0  0  0
 30 72  1  0  0  0  0
 30 78  2  0  0  0  0
 31 51  1  0  0  0  0
 31 73  1  0  0  0  0
 31 79  2  0  0  0  0
 32 62  1  0  0  0  0
 32 68  1  0  0  0  0
 32 80  2  0  0  0  0
 33 63  1  0  0  0  0
 33 74  1  0  0  0  0
 33 81  2  0  0  0  0
 34 69  1  0  0  0  0
 34 70  1  0  0  0  0
 34 82  2  0  0  0  0
 35 38  1  0  0  0  0
 36 51  1  0  0  0  0
 37 68  1  0  0  0  0
 38 40  1  0  0  0  0
 39 41  1  0  0  0  0
 39 43  1  0  0  0  0
 40 49  1  0  0  0  0
 41 53  1  0  0  0  0
 42 52  1  0  0  0  0
 42 66  1  0  0  0  0
 43 69  1  0  0  0  0
 44 47  1  0  0  0  0
 44 70  1  0  0  0  0
 45 48  1  0  0  0  0
 45 70  1  0  0  0  0
 46 53  1  0  0  0  0
 46 69  1  0  0  0  0
 47 75  1  0  0  0  0
 48 75  1  0  0  0  0
 49 73  1  0  0  0  0
 50 52  1  0  0  0  0
 50 75  1  0  0  0  0
 51 68  1  0  0  0  0
 52 54  1  0  0  0  0
 53 67  1  0  0  0  0
 55 63  1  0  0  0  0
 56 64  1  0  0  0  0
 57 64  1  0  0  0  0
 58 64  1  0  0  0  0
 59 76  1  0  0  0  0
 60 61  1  0  0  0  0
 61 84  1  0  0  0  0
 62 64  1  0  0  0  0
 62 74  1  0  0  0  0
 63 76  1  0  0  0  0
 65 67  1  0  0  0  0
M  CHG  2  75   1  76   1
M  ISO  4  34 100  61 101  70 100  84 101
M  END
> <Batch ID>
0188

> <Smiles>
CNC(C)C(=O)NC(C(=O)N1Cc2cc([101O:1][101CH2:1]C=C3NCC(C)C(N4CC[100N:0]([100C:0](=O)N5CCCC(n6nc(-c7ccc(Oc8ccc(F)cc8F)cc7)c(C(N)=O)c6N)C5)CC4)C3=O)ccc2CC1C(=O)NC1CCCc2ccccc21)C(C)(C)C

> <Shape>
0.240

> <Color>
0.113

> <Negative vol penalty>
0.000

$$$$

  -OEChem-04052323193D

 82 91  0     1  0  0  0  0  0999 V2000
  -22.6334  -28.6190   23.3442 C   0  0  0  0  0  0  0  0  0  0  0  0
  -23.0077  -27.2837   23.4548 C   0  0  0  0  0  0  0  0  0  0  0  0
  -29.5005  -23.5598   18.5147 C   0  0  0  0  0  0  0  0  0  0  0  0
  -27.8023  -23.2674   20.2081 C   0  0  0  0  0  0  0  0  0  0  0  0
  -21.3229  -28.9482   23.0002 C   0  0  0  0  0  0  0  0  0  0  0  0
  -22.0715  -26.2768   23.2224 C   0  0  0  0  0  0  0  0  0  0  0  0
  -23.1078  -20.8013   20.6825 C   0  0  0  0  0  0  0  0  0  0  0  0
  -29.4893  -24.9361   18.7411 C   0  0  0  0  0  0  0  0  0  0  0  0
  -27.7912  -24.6437   20.4346 C   0  0  0  0  0  0  0  0  0  0  0  0
  -23.3096  -19.5357   21.2315 C   0  0  0  0  0  0  0  0  0  0  0  0
  -26.4912  -27.3992   18.9690 C   0  0  0  0  0  0  0  0  0  0  0  0
  -25.2509  -28.0279   19.0781 C   0  0  0  0  0  0  0  0  0  0  0  0
  -20.9704  -19.0346   20.9206 C   0  0  0  0  0  0  0  0  0  0  0  0
  -25.8130  -28.7486   21.3146 C   0  0  0  0  0  0  0  0  0  0  0  0
  -28.6570  -22.7254   19.2482 C   0  0  0  0  0  0  0  0  0  0  0  0
  -28.3769  -20.6384   17.8082 C   0  0  0  0  0  0  0  0  0  0  0  0
  -20.3727  -27.9447   22.7540 C   0  0  0  0  0  0  0  0  0  0  0  0
  -21.8316  -21.1977   20.2578 C   0  0  0  0  0  0  0  0  0  0  0  0
  -20.7468  -26.5929   22.8761 C   0  0  0  0  0  0  0  0  0  0  0  0
  -20.7557  -20.3048   20.3642 C   0  0  0  0  0  0  0  0  0  0  0  0
  -28.6347  -25.4780   19.7011 C   0  0  0  0  0  0  0  0  0  0  0  0
  -22.2402  -18.6532   21.3532 C   0  0  0  0  0  0  0  0  0  0  0  0
  -27.3924  -27.4450   20.0327 C   0  0  0  0  0  0  0  0  0  0  0  0
  -24.9118  -28.7027   20.2509 C   0  0  0  0  0  0  0  0  0  0  0  0
  -27.0533  -28.1198   21.2054 C   0  0  0  0  0  0  0  0  0  0  0  0
  -28.6676  -21.3037   19.0143 C   0  0  0  0  0  0  0  0  0  0  0  0
  -28.5266  -19.3060   18.1064 C   0  0  0  0  0  0  0  0  0  0  0  0
  -28.0049  -21.1766   16.5325 C   0  0  0  0  0  0  0  0  0  0  0  0
  -19.8019  -23.4960   21.0958 C   0  0  0  0  0  0  0  0  0  0  0  0
  -18.1146  -22.3960   18.5531 C   0  0  0  0  0  0  0  0  0  0  0  0
  -17.4224  -19.8117   16.4343 C   0  0  0  0  0  0  0  0  0  0  0  0
  -27.4967  -15.8182   22.7248 C   0  0  0  0  0  0  0  0  0  0  0  0
  -18.9562  -28.3497   22.4312 C   0  0  0  0  0  0  0  0  0  0  0  0
  -21.6358  -22.5565   19.6431 C   0  0  0  0  0  0  0  0  0  0  0  0
  -19.3699  -20.6745   19.9045 C   0  0  0  0  0  0  0  0  0  0  0  0
  -18.1205  -27.2200   21.8350 C   0  0  0  0  0  0  0  0  0  0  0  0
  -30.8755  -16.7536   21.6302 C   0  0  0  0  0  0  0  0  0  0  0  0
  -18.3055  -25.9372   22.6395 C   0  0  0  0  0  0  0  0  0  0  0  0
  -30.6203  -17.9913   20.7686 C   0  0  0  0  0  0  0  0  0  0  0  0
  -29.8360  -16.6043   22.7389 C   0  0  0  0  0  0  0  0  0  0  0  0
  -26.6146  -15.1739   20.4090 C   0  0  0  0  0  0  0  0  0  0  0  0
  -28.1864  -17.8708   21.4169 C   0  0  0  0  0  0  0  0  0  0  0  0
  -25.3221  -14.6775   22.3843 C   0  0  0  0  0  0  0  0  0  0  0  0
  -26.1696  -12.6602   20.2576 C   0  0  0  0  0  0  0  0  0  0  0  0
  -23.9615  -12.7817   21.2972 C   0  0  0  0  0  0  0  0  0  0  0  0
  -19.7663  -25.4719   22.6075 C   0  0  1  0  0  0  0  0  0  0  0  0
  -20.1919  -23.0434   19.7171 C   0  0  1  0  0  0  0  0  0  0  0  0
  -25.6267  -14.0652   20.0744 C   0  0  1  0  0  0  0  0  0  0  0  0
  -29.1709  -18.0172   20.2484 C   0  0  1  0  0  0  0  0  0  0  0  0
  -24.5565  -14.1782   21.1584 C   0  0  2  0  0  0  0  0  0  0  0  0
  -15.9711  -19.2011   14.4803 C   0  0  0  0  0  0  0  0  0  0  0  0
  -15.7196  -22.1158   20.4227 C   0  0  0  0  0  0  0  0  0  0  0  0
  -14.6373  -20.6523   18.7036 C   0  0  0  0  0  0  0  0  0  0  0  0
  -15.1744  -23.0265   18.1582 C   0  0  0  0  0  0  0  0  0  0  0  0
  -25.1703  -10.5563   21.2183 C   0  0  0  0  0  0  0  0  0  0  0  0
  -19.7679  -19.3095   14.7007 C   0  0  0  0  0  0  0  0  0  0  0  0
  -21.6175  -16.3151   21.4728 C   0  0  0  0  0  0  0  0  0  1  0  0
  -22.4056  -15.0240   21.5809 C   0  0  0  0  0  0  0  0  0  0  0  0
  -17.0514  -21.3437   18.3500 C   0  0  1  0  0  0  0  0  0  0  0  0
  -17.3192  -19.7499   14.9210 C   0  0  2  0  0  0  0  0  0  0  0  0
  -15.6713  -21.7780   18.9192 C   0  0  0  0  0  0  0  0  0  0  0  0
  -28.9783  -20.4633   20.0049 N   0  0  0  0  0  0  0  0  0  0  0  0
  -28.8836  -19.2562   19.4218 N   0  0  0  0  0  0  0  0  0  0  0  0
  -19.2280  -22.0166   19.3161 N   0  0  0  0  0  0  0  0  0  0  0  0
  -28.4789  -16.6632   22.1962 N   0  0  0  0  0  0  0  0  0  0  0  0
  -26.5035  -15.3614   21.8572 N   0  0  0  0  0  0  0  0  0  0  0  0
  -28.3862  -18.1839   17.3691 N   0  0  0  0  0  0  0  0  0  0  0  0
  -26.6435  -21.3657   16.2584 N   0  0  0  0  0  0  0  0  0  0  0  0
  -20.0646  -24.8295   21.3455 N   0  0  0  0  0  0  0  0  0  0  0  0
  -17.0414  -21.0438   16.9223 N   0  0  0  0  0  0  0  0  0  0  0  0
  -24.9177  -11.8672   20.5478 N   0  3  2  0  0  0  0  0  0  0  0  0
  -18.3882  -18.8734   14.3643 N   0  3  0  0  0  0  0  0  0  0  0  0
  -28.8537  -21.4654   15.6551 O   0  0  0  0  0  0  0  0  0  0  0  0
  -19.2985  -22.6951   21.8748 O   0  0  0  0  0  0  0  0  0  0  0  0
  -17.9661  -23.5112   18.0472 O   0  0  0  0  0  0  0  0  0  0  0  0
  -17.7996  -18.8609   17.1156 O   0  0  0  0  0  0  0  0  0  0  0  0
  -27.5332  -15.4490   23.9060 O   0  0  0  0  0  0  0  0  0  0  0  0
  -28.6237  -26.8210   19.9225 O   0  0  0  0  0  0  0  0  0  0  0  0
  -22.4375  -17.3969   21.8983 O   0  0  0  0  0  0  0  0  0  1  0  0
  -23.5714  -15.1223   20.7724 O   0  0  0  0  0  0  0  0  0  0  0  0
  -23.7213  -29.3078   20.3550 F   0  0  0  0  0  0  0  0  0  0  0  0
  -27.9154  -28.1683   22.2302 F   0  0  0  0  0  0  0  0  0  0  0  0
  1  2  1  0  0  0  0
  1  5  2  0  0  0  0
  2  6  2  0  0  0  0
  3  8  2  0  0  0  0
  3 15  1  0  0  0  0
  4  9  1  0  0  0  0
  4 15  2  0  0  0  0
  5 17  1  0  0  0  0
  6 19  1  0  0  0  0
  7 10  2  0  0  0  0
  7 18  1  0  0  0  0
  8 21  1  0  0  0  0
  9 21  2  0  0  0  0
 10 22  1  0  0  0  0
 11 12  2  0  0  0  0
 11 23  1  0  0  0  0
 12 24  1  0  0  0  0
 13 20  1  0  0  0  0
 13 22  2  0  0  0  0
 14 24  2  0  0  0  0
 14 25  1  0  0  0  0
 15 26  1  0  0  0  0
 16 26  1  0  0  0  0
 16 27  2  0  0  0  0
 16 28  1  0  0  0  0
 17 19  2  0  0  0  0
 17 33  1  0  0  0  0
 18 20  2  0  0  0  0
 18 34  1  0  0  0  0
 19 46  1  0  0  0  0
 20 35  1  0  0  0  0
 21 78  1  0  0  0  0
 22 79  1  0  0  0  0
 23 25  2  0  0  0  0
 23 78  1  0  0  0  0
 24 81  1  0  0  0  0
 25 82  1  0  0  0  0
 26 62  2  0  0  0  0
 27 63  1  0  0  0  0
 27 67  1  0  0  0  0
 28 68  1  0  0  0  0
 28 73  2  0  0  0  0
 29 47  1  0  0  0  0
 29 69  1  0  0  0  0
 29 74  2  0  0  0  0
 30 59  1  0  0  0  0
 30 64  1  0  0  0  0
 30 75  2  0  0  0  0
 31 60  1  0  0  0  0
 31 70  1  0  0  0  0
 31 76  2  0  0  0  0
 32 65  1  0  0  0  0
 32 66  1  0  0  0  0
 32 77  2  0  0  0  0
 33 36  1  0  0  0  0
 34 47  1  0  0  0  0
 35 64  1  0  0  0  0
 36 38  1  0  0  0  0
 37 39  1  0  0  0  0
 37 40  1  0  0  0  0
 38 46  1  0  0  0  0
 39 49  1  0  0  0  0
 40 65  1  0  0  0  0
 41 48  1  0  0  0  0
 41 66  1  0  0  0  0
 42 49  1  0  0  0  0
 42 65  1  0  0  0  0
 43 50  1  0  0  0  0
 43 66  1  0  0  0  0
 44 48  1  0  0  0  0
 44 71  1  0  0  0  0
 45 50  1  0  0  0  0
 45 71  1  0  0  0  0
 46 69  1  0  0  0  0
 47 64  1  0  0  0  0
 48 50  1  0  0  0  0
 49 63  1  0  0  0  0
 50 80  1  0  0  0  0
 51 60  1  0  0  0  0
 52 61  1  0  0  0  0
 53 61  1  0  0  0  0
 54 61  1  0  0  0  0
 55 71  1  0  0  0  0
 56 72  1  0  0  0  0
 57 58  1  0  0  0  0
 57 79  1  0  0  0  0
 58 80  1  0  0  0  0
 59 61  1  0  0  0  0
 59 70  1  0  0  0  0
 60 72  1  0  0  0  0
 62 63  1  0  0  0  0
M  CHG  2  71   1  72   1
M  ISO  4  32 100  57 101  66 100  79 101
M  END
> <Batch ID>
0188

> <Smiles>
CNC(C)C(=O)NC(C(=O)N1Cc2cc([101O:1][101CH2:1]COC34CN(C)CC3C[100N:0]([100C:0](=O)N3CCCC(n5nc(-c6ccc(Oc7ccc(F)cc7F)cc6)c(C(N)=O)c5N)C3)C4)ccc2CC1C(=O)NC1CCCc2ccccc21)C(C)(C)C

> <Shape>
0.225

> <Color>
0.082

> <Negative vol penalty>
0.000

$$$$

  -OEChem-04052323193D

 81 90  0     1  0  0  0  0  0999 V2000
  -18.6547  -33.0337   21.2655 C   0  0  0  0  0  0  0  0  0  0  0  0
  -19.9279  -32.7805   20.7653 C   0  0  0  0  0  0  0  0  0  0  0  0
  -23.9628  -14.3879   19.2385 C   0  0  0  0  0  0  0  0  0  0  0  0
  -23.1990  -15.6649   21.1419 C   0  0  0  0  0  0  0  0  0  0  0  0
  -18.2294  -32.4069   22.4360 C   0  0  0  0  0  0  0  0  0  0  0  0
  -20.7771  -31.9011   21.4360 C   0  0  0  0  0  0  0  0  0  0  0  0
  -24.8583  -28.0885   18.9234 C   0  0  0  0  0  0  0  0  0  0  0  0
  -23.2312  -13.2868   19.6836 C   0  0  0  0  0  0  0  0  0  0  0  0
  -22.4674  -14.5638   21.5870 C   0  0  0  0  0  0  0  0  0  0  0  0
  -26.2360  -28.1831   18.7314 C   0  0  0  0  0  0  0  0  0  0  0  0
  -23.5557  -10.8571   22.0107 C   0  0  0  0  0  0  0  0  0  0  0  0
  -24.1835   -9.6117   21.9901 C   0  0  0  0  0  0  0  0  0  0  0  0
  -30.2525  -23.5784   18.5097 C   0  0  0  0  0  0  0  0  0  0  0  0
  -26.5989  -26.9395   20.7663 C   0  0  0  0  0  0  0  0  0  0  0  0
  -22.4817   -8.7787   20.4909 C   0  0  0  0  0  0  0  0  0  0  0  0
  -30.0052  -24.6797   17.7271 C   0  0  0  0  0  0  0  0  0  0  0  0
  -23.9467  -15.5769   19.9677 C   0  0  0  0  0  0  0  0  0  0  0  0
  -24.2618  -17.7363   18.6465 C   0  0  0  0  0  0  0  0  0  0  0  0
  -19.0703  -31.5119   23.1162 C   0  0  0  0  0  0  0  0  0  0  0  0
  -24.3399  -27.4270   20.0459 C   0  0  0  0  0  0  0  0  0  0  0  0
  -20.3632  -31.2627   22.6175 C   0  0  0  0  0  0  0  0  0  0  0  0
  -25.2142  -26.8357   20.9689 C   0  0  0  0  0  0  0  0  0  0  0  0
  -22.4835  -13.3748   20.8578 C   0  0  0  0  0  0  0  0  0  0  0  0
  -27.1066  -27.6110   19.6544 C   0  0  0  0  0  0  0  0  0  0  0  0
  -22.3909  -11.0634   21.2715 C   0  0  0  0  0  0  0  0  0  0  0  0
  -23.6465   -8.5725   21.2302 C   0  0  0  0  0  0  0  0  0  0  0  0
  -21.8540  -10.0242   20.5116 C   0  0  0  0  0  0  0  0  0  0  0  0
  -24.7026  -16.7144   19.5087 C   0  0  0  0  0  0  0  0  0  0  0  0
  -30.7961  -24.1050   19.6967 C   0  0  0  0  0  0  0  0  0  0  0  0
  -25.3450  -18.5715   18.5219 C   0  0  0  0  0  0  0  0  0  0  0  0
  -22.9871  -17.9146   18.0148 C   0  0  0  0  0  0  0  0  0  0  0  0
  -22.5524  -28.2873   22.5295 C   0  0  0  0  0  0  0  0  0  0  0  0
  -22.6109  -25.1091   23.1757 C   0  0  0  0  0  0  0  0  0  0  0  0
  -24.1950  -22.1079   22.8148 C   0  0  0  0  0  0  0  0  0  0  0  0
  -29.4286  -21.4075   20.8403 C   0  0  0  0  0  0  0  0  0  0  0  0
  -18.5840  -30.8946   24.4034 C   0  0  0  0  0  0  0  0  0  0  0  0
  -22.8509  -27.3106   20.2246 C   0  0  0  0  0  0  0  0  0  0  0  0
  -24.7080  -26.0970   22.1799 C   0  0  0  0  0  0  0  0  0  0  0  0
  -19.4069  -29.6888   24.8497 C   0  0  0  0  0  0  0  0  0  0  0  0
  -30.1587  -17.9583   19.9565 C   0  0  0  0  0  0  0  0  0  0  0  0
  -20.8981  -29.9940   24.7505 C   0  0  0  0  0  0  0  0  0  0  0  0
  -28.7553  -17.4122   19.6847 C   0  0  0  0  0  0  0  0  0  0  0  0
  -32.6379  -22.5534   20.8670 C   0  0  0  0  0  0  0  0  0  0  0  0
  -30.1393  -18.9562   21.1084 C   0  0  0  0  0  0  0  0  0  0  0  0
  -31.9982  -21.2643   21.3792 C   0  0  0  0  0  0  0  0  0  0  0  0
  -27.8036  -19.5586   20.6598 C   0  0  0  0  0  0  0  0  0  0  0  0
  -21.3043  -30.2960   23.3030 C   0  0  1  0  0  0  0  0  0  0  0  0
  -31.2508  -23.2222   20.9336 C   0  0  2  0  0  0  0  0  0  0  0  0
  -22.4408  -27.0584   21.6722 C   0  0  1  0  0  0  0  0  0  0  0  0
  -27.7364  -18.5520   19.4954 C   0  0  2  0  0  0  0  0  0  0  0  0
  -24.5604  -19.6316   22.9929 C   0  0  0  0  0  0  0  0  0  0  0  0
  -23.6031  -25.8230   25.9713 C   0  0  0  0  0  0  0  0  0  0  0  0
  -24.3074  -23.4372   26.2549 C   0  0  0  0  0  0  0  0  0  0  0  0
  -21.9007  -23.9922   25.9045 C   0  0  0  0  0  0  0  0  0  0  0  0
  -22.7729  -21.5978   20.2699 C   0  0  0  0  0  0  0  0  0  0  0  0
  -30.3340  -27.2044   18.0412 C   0  0  0  0  0  0  0  0  0  0  0  0
  -28.9195  -27.7679   18.1232 C   0  0  0  0  0  0  0  0  0  1  0  0
  -23.5142  -24.1958   23.9687 C   0  0  1  0  0  0  0  0  0  0  0  0
  -23.6748  -20.7338   22.4330 C   0  0  2  0  0  0  0  0  0  0  0  0
  -23.3412  -24.3776   25.5032 C   0  0  0  0  0  0  0  0  0  0  0  0
  -25.9673  -16.8830   19.9038 N   0  0  0  0  0  0  0  0  0  0  0  0
  -30.8891  -25.4373   19.6745 N   0  0  0  0  0  0  0  0  0  0  0  0
  -30.4007  -25.7570   18.4640 N   0  0  0  0  0  0  0  0  0  0  0  0
  -26.3305  -18.0204   19.2870 N   0  0  0  0  0  0  0  0  0  0  0  0
  -23.2441  -26.0158   22.3138 N   0  0  0  0  0  0  0  0  0  0  0  0
  -29.1812  -20.0326   20.8418 N   0  0  0  0  0  0  0  0  0  0  0  0
  -30.7088  -21.8559   21.0724 N   0  0  0  0  0  0  0  0  0  0  0  0
  -25.5412  -19.7161   17.8336 N   0  0  0  0  0  0  0  0  0  0  0  0
  -21.9856  -16.9628   18.2505 N   0  0  0  0  0  0  0  0  0  0  0  0
  -21.4134  -29.0697   22.5423 N   0  0  0  0  0  0  0  0  0  0  0  0
  -23.2459  -22.8429   23.4933 N   0  0  0  0  0  0  0  0  0  0  0  0
  -23.6279  -20.5913   20.9503 N   0  3  0  0  0  0  0  0  0  0  0  0
  -22.7486  -18.8803   17.2506 O   0  0  0  0  0  0  0  0  0  0  0  0
  -23.5941  -28.5085   23.1357 O   0  0  0  0  0  0  0  0  0  0  0  0
  -21.3882  -25.0164   23.3104 O   0  0  0  0  0  0  0  0  0  0  0  0
  -25.3310  -22.4896   22.5420 O   0  0  0  0  0  0  0  0  0  0  0  0
  -28.5245  -22.2193   20.5974 O   0  0  0  0  0  0  0  0  0  0  0  0
  -21.7694  -12.3007   21.2923 O   0  0  0  0  0  0  0  0  0  0  0  0
  -28.4517  -27.7024   19.4698 O   0  0  0  0  0  0  0  0  0  1  0  0
  -24.2503   -7.3770   21.2093 F   0  0  0  0  0  0  0  0  0  0  0  0
  -20.7359  -10.2167   19.7984 F   0  0  0  0  0  0  0  0  0  0  0  0
  1  2  1  0  0  0  0
  1  5  2  0  0  0  0
  2  6  2  0  0  0  0
  3  8  2  0  0  0  0
  3 17  1  0  0  0  0
  4  9  1  0  0  0  0
  4 17  2  0  0  0  0
  5 19  1  0  0  0  0
  6 21  1  0  0  0  0
  7 10  2  0  0  0  0
  7 20  1  0  0  0  0
  8 23  1  0  0  0  0
  9 23  2  0  0  0  0
 10 24  1  0  0  0  0
 11 12  2  0  0  0  0
 11 25  1  0  0  0  0
 12 26  1  0  0  0  0
 13 16  2  0  0  0  0
 13 29  1  0  0  0  0
 14 22  1  0  0  0  0
 14 24  2  0  0  0  0
 15 26  2  0  0  0  0
 15 27  1  0  0  0  0
 16 63  1  0  0  0  0
 17 28  1  0  0  0  0
 18 28  1  0  0  0  0
 18 30  2  0  0  0  0
 18 31  1  0  0  0  0
 19 21  2  0  0  0  0
 19 36  1  0  0  0  0
 20 22  2  0  0  0  0
 20 37  1  0  0  0  0
 21 47  1  0  0  0  0
 22 38  1  0  0  0  0
 23 78  1  0  0  0  0
 24 79  1  0  0  0  0
 25 27  2  0  0  0  0
 25 78  1  0  0  0  0
 26 80  1  0  0  0  0
 27 81  1  0  0  0  0
 28 61  2  0  0  0  0
 29 48  1  0  0  0  0
 29 62  2  0  0  0  0
 30 64  1  0  0  0  0
 30 68  1  0  0  0  0
 31 69  1  0  0  0  0
 31 73  2  0  0  0  0
 32 49  1  0  0  0  0
 32 70  1  0  0  0  0
 32 74  2  0  0  0  0
 33 58  1  0  0  0  0
 33 65  1  0  0  0  0
 33 75  2  0  0  0  0
 34 59  1  0  0  0  0
 34 71  1  0  0  0  0
 34 76  2  0  0  0  0
 35 66  1  0  0  0  0
 35 67  1  0  0  0  0
 35 77  2  0  0  0  0
 36 39  1  0  0  0  0
 37 49  1  0  0  0  0
 38 65  1  0  0  0  0
 39 41  1  0  0  0  0
 40 42  1  0  0  0  0
 40 44  1  0  0  0  0
 41 47  1  0  0  0  0
 42 50  1  0  0  0  0
 43 45  1  0  0  0  0
 43 48  1  0  0  0  0
 44 66  1  0  0  0  0
 45 67  1  0  0  0  0
 46 50  1  0  0  0  0
 46 66  1  0  0  0  0
 47 70  1  0  0  0  0
 48 67  1  0  0  0  0
 49 65  1  0  0  0  0
 50 64  1  0  0  0  0
 51 59  1  0  0  0  0
 52 60  1  0  0  0  0
 53 60  1  0  0  0  0
 54 60  1  0  0  0  0
 55 72  1  0  0  0  0
 56 57  1  0  0  0  0
 56 63  1  0  0  0  0
 57 79  1  0  0  0  0
 58 60  1  0  0  0  0
 58 71  1  0  0  0  0
 59 72  1  0  0  0  0
 61 64  1  0  0  0  0
 62 63  1  0  0  0  0
M  CHG  1  72   1
M  ISO  4  35 100  57 101  67 100  79 101
M  END
> <Batch ID>
0188

> <Smiles>
CNC(C)C(=O)NC(C(=O)N1Cc2cc([101O:1][101CH2:1]Cn3ccc(C4CC[100N:0]4[100C:0](=O)N4CCCC(n5nc(-c6ccc(Oc7ccc(F)cc7F)cc6)c(C(N)=O)c5N)C4)n3)ccc2CC1C(=O)NC1CCCc2ccccc21)C(C)(C)C

> <Shape>
0.213

> <Color>
0.083

> <Negative vol penalty>
0.000

$$$$

  -OEChem-04052323193D

 84 93  0     1  0  0  0  0  0999 V2000
  -28.2095  -31.2669   30.1682 C   0  0  0  0  0  0  0  0  0  0  0  0
  -28.5243  -30.4245   29.1068 C   0  0  0  0  0  0  0  0  0  0  0  0
  -22.7412  -10.3345   21.5560 C   0  0  0  0  0  0  0  0  0  0  0  0
  -24.6145   -8.8188   21.7297 C   0  0  0  0  0  0  0  0  0  0  0  0
  -27.1893  -32.2074   30.0313 C   0  0  0  0  0  0  0  0  0  0  0  0
  -27.8183  -30.5212   27.9082 C   0  0  0  0  0  0  0  0  0  0  0  0
  -30.0191  -29.6548   22.2591 C   0  0  0  0  0  0  0  0  0  0  0  0
  -21.8745   -9.2489   21.4295 C   0  0  0  0  0  0  0  0  0  0  0  0
  -23.7479   -7.7332   21.6033 C   0  0  0  0  0  0  0  0  0  0  0  0
  -29.9800  -28.5617   21.3947 C   0  0  0  0  0  0  0  0  0  0  0  0
  -21.6028   -6.0180   23.5723 C   0  0  0  0  0  0  0  0  0  0  0  0
  -21.7795   -4.9445   24.4452 C   0  0  0  0  0  0  0  0  0  0  0  0
  -28.0471  -29.5035   20.3009 C   0  0  0  0  0  0  0  0  0  0  0  0
  -22.1657   -3.4785   22.5641 C   0  0  0  0  0  0  0  0  0  0  0  0
  -29.1840  -24.1555   18.9556 C   0  0  0  0  0  0  0  0  0  0  0  0
  -24.1112  -10.1195   21.7061 C   0  0  0  0  0  0  0  0  0  0  0  0
  -25.4090  -11.8736   23.0276 C   0  0  0  0  0  0  0  0  0  0  0  0
  -26.4769  -32.3223   28.8271 C   0  0  0  0  0  0  0  0  0  0  0  0
  -29.0643  -30.6769   22.1578 C   0  0  0  0  0  0  0  0  0  0  0  0
  -26.7868  -31.4632   27.7555 C   0  0  0  0  0  0  0  0  0  0  0  0
  -28.0778  -30.6098   21.1636 C   0  0  0  0  0  0  0  0  0  0  0  0
  -29.1688  -23.5357   17.7300 C   0  0  0  0  0  0  0  0  0  0  0  0
  -22.3778   -7.9483   21.4532 C   0  0  0  0  0  0  0  0  0  0  0  0
  -28.9922  -28.4844   20.4172 C   0  0  0  0  0  0  0  0  0  0  0  0
  -21.7074   -5.8217   22.1953 C   0  0  0  0  0  0  0  0  0  0  0  0
  -22.0610   -3.6748   23.9411 C   0  0  0  0  0  0  0  0  0  0  0  0
  -21.9889   -4.5520   21.6912 C   0  0  0  0  0  0  0  0  0  0  0  0
  -25.0070  -11.2405   21.8362 C   0  0  0  0  0  0  0  0  0  0  0  0
  -29.7261  -24.4826   16.8498 C   0  0  0  0  0  0  0  0  0  0  0  0
  -26.2568  -12.8729   22.6162 C   0  0  0  0  0  0  0  0  0  0  0  0
  -25.0484  -11.5842   24.3848 C   0  0  0  0  0  0  0  0  0  0  0  0
  -26.8222  -31.8507   24.0811 C   0  0  0  0  0  0  0  0  0  0  0  0
  -26.4943  -34.0470   21.7166 C   0  0  0  0  0  0  0  0  0  0  0  0
  -26.8963  -34.8384   18.4213 C   0  0  0  0  0  0  0  0  0  0  0  0
  -27.0672  -17.1216   19.0689 C   0  0  0  0  0  0  0  0  0  0  0  0
  -25.3509  -33.3220   28.7424 C   0  0  0  0  0  0  0  0  0  0  0  0
  -29.1363  -31.8625   23.0806 C   0  0  0  0  0  0  0  0  0  0  0  0
  -27.0419  -31.6907   21.0001 C   0  0  0  0  0  0  0  0  0  0  0  0
  -24.9020  -33.6141   27.3129 C   0  0  0  0  0  0  0  0  0  0  0  0
  -28.3477  -13.7774   18.1037 C   0  0  0  0  0  0  0  0  0  0  0  0
  -24.7328  -32.3156   26.5306 C   0  0  0  0  0  0  0  0  0  0  0  0
  -27.5833  -12.8727   19.0712 C   0  0  0  0  0  0  0  0  0  0  0  0
  -30.2025  -18.6838   17.9549 C   0  0  0  0  0  0  0  0  0  0  0  0
  -27.5294  -15.0126   17.7508 C   0  0  0  0  0  0  0  0  0  0  0  0
  -29.3701  -17.4056   17.9780 C   0  0  0  0  0  0  0  0  0  0  0  0
  -26.3253  -14.9189   19.8999 C   0  0  0  0  0  0  0  0  0  0  0  0
  -27.9207  -19.3031   18.2574 C   0  0  0  0  0  0  0  0  0  0  0  0
  -26.0603  -31.5545   26.4311 C   0  0  1  0  0  0  0  0  0  0  0  0
  -27.8043  -32.5931   23.2197 C   0  0  1  0  0  0  0  0  0  0  0  0
  -27.1059  -13.6566   20.3072 C   0  0  1  0  0  0  0  0  0  0  0  0
  -29.1756  -19.7140   17.5091 C   0  0  1  0  0  0  0  0  0  0  0  0
  -29.9512  -24.3453   15.4002 C   0  0  0  0  0  0  0  0  0  0  0  0
  -26.5009  -36.6938   16.7785 C   0  0  0  0  0  0  0  0  0  0  0  0
  -23.5197  -33.3688   21.6701 C   0  0  0  0  0  0  0  0  0  0  0  0
  -23.3669  -34.5037   19.4437 C   0  0  0  0  0  0  0  0  0  0  0  0
  -24.0372  -35.8068   21.4624 C   0  0  0  0  0  0  0  0  0  0  0  0
  -29.7834  -35.0720   17.8137 C   0  0  0  0  0  0  0  0  0  0  0  0
  -28.6673  -22.1575   17.4136 C   0  0  0  0  0  0  0  0  0  0  0  0
  -29.9510  -26.4088   19.7390 C   0  0  0  0  0  0  0  0  0  1  0  0
  -25.6629  -34.1498   20.4607 C   0  0  1  0  0  0  0  0  0  0  0  0
  -27.4905  -36.0602   17.7440 C   0  0  2  0  0  0  0  0  0  0  0  0
  -24.1649  -34.4358   20.7633 C   0  0  0  0  0  0  0  0  0  0  0  0
  -25.5542  -11.7915   20.7495 N   0  0  0  0  0  0  0  0  0  0  0  0
  -30.0701  -25.6177   17.4640 N   0  0  0  0  0  0  0  0  0  0  0  0
  -29.7280  -25.3881   18.7432 N   0  0  0  0  0  0  0  0  0  0  0  0
  -26.3087  -12.7814   21.2564 N   0  0  0  0  0  0  0  0  0  0  0  0
  -27.1504  -32.8266   21.9305 N   0  0  0  0  0  0  0  0  0  0  0  0
  -27.1014  -15.7271   18.9568 N   0  0  0  0  0  0  0  0  0  0  0  0
  -28.0273  -17.8491   18.3672 N   0  0  0  0  0  0  0  0  0  0  0  0
  -26.9553  -13.8122   23.2886 N   0  0  0  0  0  0  0  0  0  0  0  0
  -24.1662  -10.5231   24.6300 N   0  0  0  0  0  0  0  0  0  0  0  0
  -26.9123  -32.1536   25.4263 N   0  0  0  0  0  0  0  0  0  0  0  0
  -26.3070  -35.1583   19.6261 N   0  0  0  0  0  0  0  0  0  0  0  0
  -29.5949  -21.0790   17.8670 N   0  3  0  0  0  0  0  0  0  0  0  0
  -28.7158  -35.6858   16.9828 N   0  3  0  0  0  0  0  0  0  0  0  0
  -25.4825  -12.2573   25.3502 O   0  0  0  0  0  0  0  0  0  0  0  0
  -26.0396  -31.0625   23.5634 O   0  0  0  0  0  0  0  0  0  0  0  0
  -26.5648  -35.0165   22.4761 O   0  0  0  0  0  0  0  0  0  0  0  0
  -26.9463  -33.7134   17.9289 O   0  0  0  0  0  0  0  0  0  0  0  0
  -26.2464  -17.6894   19.8017 O   0  0  0  0  0  0  0  0  0  0  0  0
  -21.5324   -6.8887   21.3300 O   0  0  0  0  0  0  0  0  0  0  0  0
  -28.9511  -27.4113   19.5671 O   0  0  0  0  0  0  0  0  0  1  0  0
  -22.2322   -2.6443   24.7796 F   0  0  0  0  0  0  0  0  0  0  0  0
  -22.0918   -4.3575   20.3693 F   0  0  0  0  0  0  0  0  0  0  0  0
  1  2  1  0  0  0  0
  1  5  2  0  0  0  0
  2  6  2  0  0  0  0
  3  8  2  0  0  0  0
  3 16  1  0  0  0  0
  4  9  1  0  0  0  0
  4 16  2  0  0  0  0
  5 18  1  0  0  0  0
  6 20  1  0  0  0  0
  7 10  2  0  0  0  0
  7 19  1  0  0  0  0
  8 23  1  0  0  0  0
  9 23  2  0  0  0  0
 10 24  1  0  0  0  0
 11 12  2  0  0  0  0
 11 25  1  0  0  0  0
 12 26  1  0  0  0  0
 13 21  1  0  0  0  0
 13 24  2  0  0  0  0
 14 26  2  0  0  0  0
 14 27  1  0  0  0  0
 15 22  2  0  0  0  0
 15 65  1  0  0  0  0
 16 28  1  0  0  0  0
 17 28  1  0  0  0  0
 17 30  2  0  0  0  0
 17 31  1  0  0  0  0
 18 20  2  0  0  0  0
 18 36  1  0  0  0  0
 19 21  2  0  0  0  0
 19 37  1  0  0  0  0
 20 48  1  0  0  0  0
 21 38  1  0  0  0  0
 22 29  1  0  0  0  0
 22 58  1  0  0  0  0
 23 81  1  0  0  0  0
 24 82  1  0  0  0  0
 25 27  2  0  0  0  0
 25 81  1  0  0  0  0
 26 83  1  0  0  0  0
 27 84  1  0  0  0  0
 28 63  2  0  0  0  0
 29 52  1  0  0  0  0
 29 64  2  0  0  0  0
 30 66  1  0  0  0  0
 30 70  1  0  0  0  0
 31 71  1  0  0  0  0
 31 76  2  0  0  0  0
 32 49  1  0  0  0  0
 32 72  1  0  0  0  0
 32 77  2  0  0  0  0
 33 60  1  0  0  0  0
 33 67  1  0  0  0  0
 33 78  2  0  0  0  0
 34 61  1  0  0  0  0
 34 73  1  0  0  0  0
 34 79  2  0  0  0  0
 35 68  1  0  0  0  0
 35 69  1  0  0  0  0
 35 80  2  0  0  0  0
 36 39  1  0  0  0  0
 37 49  1  0  0  0  0
 38 67  1  0  0  0  0
 39 41  1  0  0  0  0
 40 42  1  0  0  0  0
 40 44  1  0  0  0  0
 41 48  1  0  0  0  0
 42 50  1  0  0  0  0
 43 45  1  0  0  0  0
 43 51  1  0  0  0  0
 44 68  1  0  0  0  0
 45 69  1  0  0  0  0
 46 50  1  0  0  0  0
 46 68  1  0  0  0  0
 47 51  1  0  0  0  0
 47 69  1  0  0  0  0
 48 72  1  0  0  0  0
 49 67  1  0  0  0  0
 50 66  1  0  0  0  0
 51 74  1  0  0  0  0
 53 61  1  0  0  0  0
 54 62  1  0  0  0  0
 55 62  1  0  0  0  0
 56 62  1  0  0  0  0
 57 75  1  0  0  0  0
 58 74  1  0  0  0  0
 59 65  1  0  0  0  0
 59 82  1  0  0  0  0
 60 62  1  0  0  0  0
 60 73  1  0  0  0  0
 61 75  1  0  0  0  0
 63 66  1  0  0  0  0
 64 65  1  0  0  0  0
M  CHG  2  74   1  75   1
M  ISO  4  35 100  59 101  69 100  82 101
M  END
> <Batch ID>
0188

> <Smiles>
CNC(C)C(=O)NC(C(=O)N1Cc2cc([101O:1][101CH2:1]n3cc(CNC4CC[100N:0]([100C:0](=O)N5CCCC(n6nc(-c7ccc(Oc8ccc(F)cc8F)cc7)c(C(N)=O)c6N)C5)C4)c(C)n3)ccc2CC1C(=O)NC1CCCc2ccccc21)C(C)(C)C

> <Shape>
0.247

> <Color>
0.090

> <Negative vol penalty>
0.000

$$$$

  -OEChem-04052323193D

 82 91  0     1  0  0  0  0  0999 V2000
  -28.0954   -9.1706   21.5781 C   0  0  0  0  0  0  0  0  0  0  0  0
  -28.6866  -10.3936   21.2778 C   0  0  0  0  0  0  0  0  0  0  0  0
  -20.2312  -28.2365   23.7938 C   0  0  0  0  0  0  0  0  0  0  0  0
  -20.4858  -26.7949   21.8718 C   0  0  0  0  0  0  0  0  0  0  0  0
  -26.7085   -9.0373   21.5289 C   0  0  0  0  0  0  0  0  0  0  0  0
  -27.8911  -11.4838   20.9270 C   0  0  0  0  0  0  0  0  0  0  0  0
  -28.9267  -17.3735   22.2481 C   0  0  0  0  0  0  0  0  0  0  0  0
  -18.8543  -28.2838   23.5759 C   0  0  0  0  0  0  0  0  0  0  0  0
  -19.1088  -26.8421   21.6540 C   0  0  0  0  0  0  0  0  0  0  0  0
  -29.4798  -18.4176   21.5080 C   0  0  0  0  0  0  0  0  0  0  0  0
  -16.3353  -25.3950   22.9323 C   0  0  0  0  0  0  0  0  0  0  0  0
  -15.6840  -24.1946   22.6487 C   0  0  0  0  0  0  0  0  0  0  0  0
  -27.2648  -19.1366   20.8785 C   0  0  0  0  0  0  0  0  0  0  0  0
  -14.9656  -25.0870   20.5216 C   0  0  0  0  0  0  0  0  0  0  0  0
  -21.0469  -27.4921   22.9417 C   0  0  0  0  0  0  0  0  0  0  0  0
  -23.1743  -26.5150   23.9553 C   0  0  0  0  0  0  0  0  0  0  0  0
  -25.8950  -10.1290   21.1866 C   0  0  0  0  0  0  0  0  0  0  0  0
  -27.5366  -17.1963   22.3002 C   0  0  0  0  0  0  0  0  0  0  0  0
  -26.4920  -11.3646   20.8718 C   0  0  0  0  0  0  0  0  0  0  0  0
  -26.6965  -18.0910   21.6220 C   0  0  0  0  0  0  0  0  0  0  0  0
  -18.2931  -27.5866   22.5061 C   0  0  0  0  0  0  0  0  0  0  0  0
  -28.6489  -19.2976   20.8207 C   0  0  0  0  0  0  0  0  0  0  0  0
  -16.3017  -26.4415   22.0106 C   0  0  0  0  0  0  0  0  0  0  0  0
  -14.9992  -24.0406   21.4433 C   0  0  0  0  0  0  0  0  0  0  0  0
  -15.6169  -26.2875   20.8052 C   0  0  0  0  0  0  0  0  0  0  0  0
  -22.4694  -27.4433   23.1659 C   0  0  0  0  0  0  0  0  0  0  0  0
  -24.4889  -26.8963   23.8423 C   0  0  0  0  0  0  0  0  0  0  0  0
  -29.5634  -24.3650   18.2651 C   0  0  0  0  0  0  0  0  0  0  0  0
  -30.5698  -22.7409   17.0878 C   0  0  0  0  0  0  0  0  0  0  0  0
  -29.0562  -22.2145   18.6591 C   0  0  0  0  0  0  0  0  0  0  0  0
  -22.6844  -25.4069   24.7221 C   0  0  0  0  0  0  0  0  0  0  0  0
  -25.5344  -14.8918   21.4146 C   0  0  0  0  0  0  0  0  0  0  0  0
  -23.3377  -16.7699   22.8876 C   0  0  0  0  0  0  0  0  0  0  0  0
  -22.4344  -19.8852   23.9486 C   0  0  0  0  0  0  0  0  0  0  0  0
  -28.7476  -28.5559   20.5306 C   0  0  0  0  0  0  0  0  0  0  0  0
  -24.4032   -9.9240   21.1008 C   0  0  0  0  0  0  0  0  0  0  0  0
  -26.9547  -16.0810   23.1247 C   0  0  0  0  0  0  0  0  0  0  0  0
  -25.1970  -17.9563   21.6624 C   0  0  0  0  0  0  0  0  0  0  0  0
  -23.6092  -11.2276   21.0846 C   0  0  0  0  0  0  0  0  0  0  0  0
  -26.5753  -31.0599   21.9248 C   0  0  0  0  0  0  0  0  0  0  0  0
  -24.2278  -12.2173   20.1024 C   0  0  0  0  0  0  0  0  0  0  0  0
  -25.3486  -30.2803   22.3868 C   0  0  0  0  0  0  0  0  0  0  0  0
  -27.1667  -30.4457   20.6630 C   0  0  0  0  0  0  0  0  0  0  0  0
  -28.0538  -26.3633   19.2771 C   0  0  0  0  0  0  0  0  0  0  0  0
  -30.1043  -26.5243   19.7896 C   0  0  0  0  0  0  0  0  0  0  0  0
  -26.3423  -28.1976   21.3114 C   0  0  0  0  0  0  0  0  0  0  0  0
  -25.6614  -12.5770   20.5110 C   0  0  1  0  0  0  0  0  0  0  0  0
  -29.3599  -25.9043   18.5847 C   0  0  0  0  0  0  0  0  0  0  0  0
  -25.5465  -15.6878   22.6890 C   0  0  1  0  0  0  0  0  0  0  0  0
  -25.6953  -28.7966   22.5760 C   0  0  2  0  0  0  0  0  0  0  0  0
  -31.5361  -22.3198   16.0336 C   0  0  0  0  0  0  0  0  0  0  0  0
  -20.5650  -21.1139   25.0857 C   0  0  0  0  0  0  0  0  0  0  0  0
  -21.7065  -16.6675   20.3110 C   0  0  0  0  0  0  0  0  0  0  0  0
  -20.3871  -18.6226   21.1508 C   0  0  0  0  0  0  0  0  0  0  0  0
  -20.3583  -16.4682   22.4079 C   0  0  0  0  0  0  0  0  0  0  0  0
  -24.1814  -20.7017   26.1937 C   0  0  0  0  0  0  0  0  0  0  0  0
  -28.2762  -21.1813   19.4176 C   0  0  0  0  0  0  0  0  0  1  0  0
  -22.4390  -17.9036   22.4562 C   0  0  1  0  0  0  0  0  0  0  0  0
  -21.8818  -20.3770   25.2743 C   0  0  2  0  0  0  0  0  0  0  0  0
  -21.2510  -17.4171   21.5789 C   0  0  0  0  0  0  0  0  0  0  0  0
  -23.2700  -28.3465   22.5938 N   0  0  0  0  0  0  0  0  0  0  0  0
  -30.4501  -24.0607   17.3035 N   0  0  0  0  0  0  0  0  0  0  0  0
  -28.8317  -23.4980   18.9835 N   0  0  0  0  0  0  0  0  0  0  0  0
  -29.9078  -21.7617   17.7249 N   0  0  0  0  0  0  0  0  0  0  0  0
  -24.4914  -27.9876   23.0243 N   0  0  0  0  0  0  0  0  0  0  0  0
  -24.6762  -16.8462   22.4772 N   0  0  0  0  0  0  0  0  0  0  0  0
  -27.4614  -29.0192   20.8294 N   0  0  0  0  0  0  0  0  0  0  0  0
  -28.8820  -27.2759   20.0468 N   0  0  0  0  0  0  0  0  0  0  0  0
  -25.6314  -26.4014   24.3641 N   0  0  0  0  0  0  0  0  0  0  0  0
  -21.3055  -25.1563   24.7284 N   0  0  0  0  0  0  0  0  0  0  0  0
  -25.6524  -13.5279   21.6020 N   0  0  0  0  0  0  0  0  0  0  0  0
  -22.0369  -18.5931   23.6774 N   0  0  0  0  0  0  0  0  0  0  0  0
  -22.8495  -21.3034   25.9272 N   0  3  0  0  0  0  0  0  0  0  0  0
  -23.4452  -24.6711   25.3954 O   0  0  0  0  0  0  0  0  0  0  0  0
  -25.4245  -15.4721   20.3409 O   0  0  0  0  0  0  0  0  0  0  0  0
  -22.8710  -15.8542   23.5697 O   0  0  0  0  0  0  0  0  0  0  0  0
  -23.1444  -20.5793   23.2243 O   0  0  0  0  0  0  0  0  0  0  0  0
  -29.7476  -29.2740   20.6629 O   0  0  0  0  0  0  0  0  0  0  0  0
  -16.9495  -27.6323   22.2933 O   0  0  0  0  0  0  0  0  0  0  0  0
  -29.1862  -20.3172   20.0970 O   0  0  0  0  0  0  0  0  0  1  0  0
  -14.3751  -22.8873   21.1704 F   0  0  0  0  0  0  0  0  0  0  0  0
  -15.5821  -27.2888   19.9153 F   0  0  0  0  0  0  0  0  0  0  0  0
  1  2  1  0  0  0  0
  1  5  2  0  0  0  0
  2  6  2  0  0  0  0
  3  8  2  0  0  0  0
  3 15  1  0  0  0  0
  4  9  1  0  0  0  0
  4 15  2  0  0  0  0
  5 17  1  0  0  0  0
  6 19  1  0  0  0  0
  7 10  2  0  0  0  0
  7 18  1  0  0  0  0
  8 21  1  0  0  0  0
  9 21  2  0  0  0  0
 10 22  1  0  0  0  0
 11 12  2  0  0  0  0
 11 23  1  0  0  0  0
 12 24  1  0  0  0  0
 13 20  1  0  0  0  0
 13 22  2  0  0  0  0
 14 24  2  0  0  0  0
 14 25  1  0  0  0  0
 15 26  1  0  0  0  0
 16 26  1  0  0  0  0
 16 27  2  0  0  0  0
 16 31  1  0  0  0  0
 17 19  2  0  0  0  0
 17 36  1  0  0  0  0
 18 20  2  0  0  0  0
 18 37  1  0  0  0  0
 19 47  1  0  0  0  0
 20 38  1  0  0  0  0
 21 79  1  0  0  0  0
 22 80  1  0  0  0  0
 23 25  2  0  0  0  0
 23 79  1  0  0  0  0
 24 81  1  0  0  0  0
 25 82  1  0  0  0  0
 26 61  2  0  0  0  0
 27 65  1  0  0  0  0
 27 69  1  0  0  0  0
 28 48  1  0  0  0  0
 28 62  2  0  0  0  0
 28 63  1  0  0  0  0
 29 51  1  0  0  0  0
 29 62  1  0  0  0  0
 29 64  2  0  0  0  0
 30 57  1  0  0  0  0
 30 63  2  0  0  0  0
 30 64  1  0  0  0  0
 31 70  1  0  0  0  0
 31 74  2  0  0  0  0
 32 49  1  0  0  0  0
 32 71  1  0  0  0  0
 32 75  2  0  0  0  0
 33 58  1  0  0  0  0
 33 66  1  0  0  0  0
 33 76  2  0  0  0  0
 34 59  1  0  0  0  0
 34 72  1  0  0  0  0
 34 77  2  0  0  0  0
 35 67  1  0  0  0  0
 35 68  1  0  0  0  0
 35 78  2  0  0  0  0
 36 39  1  0  0  0  0
 37 49  1  0  0  0  0
 38 66  1  0  0  0  0
 39 41  1  0  0  0  0
 40 42  1  0  0  0  0
 40 43  1  0  0  0  0
 41 47  1  0  0  0  0
 42 50  1  0  0  0  0
 43 67  1  0  0  0  0
 44 48  1  0  0  0  0
 44 68  1  0  0  0  0
 45 48  1  0  0  0  0
 45 68  1  0  0  0  0
 46 50  1  0  0  0  0
 46 67  1  0  0  0  0
 47 71  1  0  0  0  0
 49 66  1  0  0  0  0
 50 65  1  0  0  0  0
 52 59  1  0  0  0  0
 53 60  1  0  0  0  0
 54 60  1  0  0  0  0
 55 60  1  0  0  0  0
 56 73  1  0  0  0  0
 57 80  1  0  0  0  0
 58 60  1  0  0  0  0
 58 72  1  0  0  0  0
 59 73  1  0  0  0  0
 61 65  1  0  0  0  0
M  CHG  1  73   1
M  ISO  4  35 100  57 101  68 100  80 101
M  END
> <Batch ID>
0188

> <Smiles>
CNC(C)C(=O)NC(C(=O)N1Cc2cc([101O:1][101CH2:1]c3nc(C)nc(C4C[100N:0]([100C:0](=O)N5CCCC(n6nc(-c7ccc(Oc8ccc(F)cc8F)cc7)c(C(N)=O)c6N)C5)C4)n3)ccc2CC1C(=O)NC1CCCc2ccccc21)C(C)(C)C

> <Shape>
0.221

> <Color>
0.079

> <Negative vol penalty>
0.000

$$$$

  -OEChem-04052323193D

 82 91  0     1  0  0  0  0  0999 V2000
  -29.2147  -32.7725   24.2096 C   0  0  0  0  0  0  0  0  0  0  0  0
  -29.0408  -31.5154   23.6395 C   0  0  0  0  0  0  0  0  0  0  0  0
  -24.4632   -9.1262   21.9334 C   0  0  0  0  0  0  0  0  0  0  0  0
  -23.5674  -10.1232   19.9233 C   0  0  0  0  0  0  0  0  0  0  0  0
  -28.1658  -33.3723   24.9053 C   0  0  0  0  0  0  0  0  0  0  0  0
  -27.8181  -30.8570   23.7657 C   0  0  0  0  0  0  0  0  0  0  0  0
  -26.2686  -28.7854   19.4123 C   0  0  0  0  0  0  0  0  0  0  0  0
  -23.2732   -8.4214   22.1142 C   0  0  0  0  0  0  0  0  0  0  0  0
  -22.3773   -9.4184   20.1041 C   0  0  0  0  0  0  0  0  0  0  0  0
  -26.8670  -27.5857   19.0296 C   0  0  0  0  0  0  0  0  0  0  0  0
  -21.8045   -5.6484   20.8549 C   0  0  0  0  0  0  0  0  0  0  0  0
  -21.8957   -4.2980   21.1923 C   0  0  0  0  0  0  0  0  0  0  0  0
  -24.9532  -26.3736   19.8589 C   0  0  0  0  0  0  0  0  0  0  0  0
  -20.6965   -4.7300   23.2448 C   0  0  0  0  0  0  0  0  0  0  0  0
  -24.6103   -9.9771   20.8379 C   0  0  0  0  0  0  0  0  0  0  0  0
  -26.9763  -10.2855   19.9353 C   0  0  0  0  0  0  0  0  0  0  0  0
  -26.9266  -32.7251   25.0318 C   0  0  0  0  0  0  0  0  0  0  0  0
  -25.0108  -28.7874   20.0321 C   0  0  0  0  0  0  0  0  0  0  0  0
  -26.7521  -31.4482   24.4649 C   0  0  0  0  0  0  0  0  0  0  0  0
  -24.3400  -27.5749   20.2462 C   0  0  0  0  0  0  0  0  0  0  0  0
  -22.2303   -8.5675   21.1996 C   0  0  0  0  0  0  0  0  0  0  0  0
  -26.2106  -26.3794   19.2555 C   0  0  0  0  0  0  0  0  0  0  0  0
  -21.1594   -6.5395   21.7124 C   0  0  0  0  0  0  0  0  0  0  0  0
  -21.3417   -3.8388   22.3873 C   0  0  0  0  0  0  0  0  0  0  0  0
  -20.6054   -6.0803   22.9073 C   0  0  0  0  0  0  0  0  0  0  0  0
  -25.8392  -10.7059   20.6509 C   0  0  0  0  0  0  0  0  0  0  0  0
  -27.8627  -11.3277   20.0562 C   0  0  0  0  0  0  0  0  0  0  0  0
  -28.5335  -23.9031   17.9068 C   0  0  0  0  0  0  0  0  0  0  0  0
  -29.2771  -21.9643   18.1199 C   0  0  0  0  0  0  0  0  0  0  0  0
  -27.2104   -9.0623   19.2248 C   0  0  0  0  0  0  0  0  0  0  0  0
  -23.9075  -29.7158   22.8649 C   0  0  0  0  0  0  0  0  0  0  0  0
  -21.0334  -28.9893   21.5479 C   0  0  0  0  0  0  0  0  0  0  0  0
  -19.2791  -27.2174   19.2179 C   0  0  0  0  0  0  0  0  0  0  0  0
  -28.8122  -16.7506   19.7168 C   0  0  0  0  0  0  0  0  0  0  0  0
  -25.8375  -33.3927   25.8335 C   0  0  0  0  0  0  0  0  0  0  0  0
  -24.3671  -30.0919   20.4147 C   0  0  0  0  0  0  0  0  0  0  0  0
  -22.9791  -27.5243   20.8896 C   0  0  0  0  0  0  0  0  0  0  0  0
  -24.4540  -32.7907   25.6013 C   0  0  0  0  0  0  0  0  0  0  0  0
  -27.7825  -15.4111   23.0068 C   0  0  0  0  0  0  0  0  0  0  0  0
  -24.5182  -31.2678   25.6578 C   0  0  0  0  0  0  0  0  0  0  0  0
  -27.2225  -14.0504   22.6049 C   0  0  0  0  0  0  0  0  0  0  0  0
  -27.5477  -16.4708   21.9309 C   0  0  0  0  0  0  0  0  0  0  0  0
  -27.4961  -14.7096   20.1843 C   0  0  0  0  0  0  0  0  0  0  0  0
  -30.1102  -20.3633   19.8126 C   0  0  0  0  0  0  0  0  0  0  0  0
  -29.3150  -19.4907   18.0731 C   0  0  0  0  0  0  0  0  0  0  0  0
  -25.4327  -30.7129   24.5590 C   0  0  1  0  0  0  0  0  0  0  0  0
  -23.3103  -29.9398   21.5044 C   0  0  1  0  0  0  0  0  0  0  0  0
  -27.7705  -13.6234   21.2352 C   0  0  2  0  0  0  0  0  0  0  0  0
  -30.0196  -18.9156   19.3099 C   0  0  0  0  0  0  0  0  0  0  0  0
  -16.9399  -26.8027   18.4091 C   0  0  0  0  0  0  0  0  0  0  0  0
  -20.5139  -27.2090   23.9708 C   0  0  0  0  0  0  0  0  0  0  0  0
  -18.6616  -26.1198   22.6860 C   0  0  0  0  0  0  0  0  0  0  0  0
  -18.5424  -28.5531   23.2221 C   0  0  0  0  0  0  0  0  0  0  0  0
  -29.1580  -21.3470   15.6716 C   0  0  0  0  0  0  0  0  0  0  0  0
  -19.9035  -28.2589   16.5189 C   0  0  0  0  0  0  0  0  0  0  0  0
  -28.0771  -25.2863   18.2668 C   0  0  0  0  0  0  0  0  0  1  0  0
  -20.1767  -27.7489   21.4687 C   0  0  1  0  0  0  0  0  0  0  0  0
  -18.1998  -27.6368   18.2362 C   0  0  2  0  0  0  0  0  0  0  0  0
  -19.5001  -27.4082   22.8265 C   0  0  0  0  0  0  0  0  0  0  0  0
  -25.9870  -11.9203   21.1868 N   0  0  0  0  0  0  0  0  0  0  0  0
  -28.9900  -23.0210   18.8440 N   0  0  0  0  0  0  0  0  0  0  0  0
  -28.5202  -23.4586   16.6484 N   0  0  0  0  0  0  0  0  0  0  0  0
  -27.2275  -12.2720   20.8078 N   0  0  0  0  0  0  0  0  0  0  0  0
  -29.0004  -22.2165   16.8124 N   0  0  0  0  0  0  0  0  0  0  0  0
  -29.7740  -20.7643   18.4947 N   0  0  0  0  0  0  0  0  0  0  0  0
  -22.3941  -28.8259   21.2516 N   0  0  0  0  0  0  0  0  0  0  0  0
  -28.0100  -16.0174   20.6094 N   0  0  0  0  0  0  0  0  0  0  0  0
  -29.1157  -11.5193   19.5919 N   0  0  0  0  0  0  0  0  0  0  0  0
  -26.1933   -8.0984   19.2009 N   0  0  0  0  0  0  0  0  0  0  0  0
  -24.7531  -30.7262   23.2814 N   0  0  0  0  0  0  0  0  0  0  0  0
  -19.2393  -27.9696   20.3728 N   0  0  0  0  0  0  0  0  0  0  0  0
  -29.1853  -18.0226   20.1398 N   0  0  0  0  0  0  0  0  0  0  0  0
  -18.6822  -27.4746   16.8355 N   0  3  0  0  0  0  0  0  0  0  0  0
  -28.2957   -8.8242   18.6427 O   0  0  0  0  0  0  0  0  0  0  0  0
  -23.6210  -28.7021   23.4910 O   0  0  0  0  0  0  0  0  0  0  0  0
  -20.5132  -30.0650   21.8543 O   0  0  0  0  0  0  0  0  0  0  0  0
  -20.0752  -26.3105   18.9851 O   0  0  0  0  0  0  0  0  0  0  0  0
  -29.1680  -16.3123   18.6175 O   0  0  0  0  0  0  0  0  0  0  0  0
  -21.0690   -7.8797   21.3756 O   0  0  0  0  0  0  0  0  0  0  0  0
  -26.7926  -25.2069   18.8835 O   0  0  0  0  0  0  0  0  0  1  0  0
  -21.4280   -2.5418   22.7105 F   0  0  0  0  0  0  0  0  0  0  0  0
  -19.9833   -6.9315   23.7346 F   0  0  0  0  0  0  0  0  0  0  0  0
  1  2  1  0  0  0  0
  1  5  2  0  0  0  0
  2  6  2  0  0  0  0
  3  8  2  0  0  0  0
  3 15  1  0  0  0  0
  4  9  1  0  0  0  0
  4 15  2  0  0  0  0
  5 17  1  0  0  0  0
  6 19  1  0  0  0  0
  7 10  2  0  0  0  0
  7 18  1  0  0  0  0
  8 21  1  0  0  0  0
  9 21  2  0  0  0  0
 10 22  1  0  0  0  0
 11 12  2  0  0  0  0
 11 23  1  0  0  0  0
 12 24  1  0  0  0  0
 13 20  1  0  0  0  0
 13 22  2  0  0  0  0
 14 24  2  0  0  0  0
 14 25  1  0  0  0  0
 15 26  1  0  0  0  0
 16 26  1  0  0  0  0
 16 27  2  0  0  0  0
 16 30  1  0  0  0  0
 17 19  2  0  0  0  0
 17 35  1  0  0  0  0
 18 20  2  0  0  0  0
 18 36  1  0  0  0  0
 19 46  1  0  0  0  0
 20 37  1  0  0  0  0
 21 79  1  0  0  0  0
 22 80  1  0  0  0  0
 23 25  2  0  0  0  0
 23 79  1  0  0  0  0
 24 81  1  0  0  0  0
 25 82  1  0  0  0  0
 26 60  2  0  0  0  0
 27 63  1  0  0  0  0
 27 68  1  0  0  0  0
 28 56  1  0  0  0  0
 28 61  1  0  0  0  0
 28 62  2  0  0  0  0
 29 61  2  0  0  0  0
 29 64  1  0  0  0  0
 29 65  1  0  0  0  0
 30 69  1  0  0  0  0
 30 74  2  0  0  0  0
 31 47  1  0  0  0  0
 31 70  1  0  0  0  0
 31 75  2  0  0  0  0
 32 57  1  0  0  0  0
 32 66  1  0  0  0  0
 32 76  2  0  0  0  0
 33 58  1  0  0  0  0
 33 71  1  0  0  0  0
 33 77  2  0  0  0  0
 34 67  1  0  0  0  0
 34 72  1  0  0  0  0
 34 78  2  0  0  0  0
 35 38  1  0  0  0  0
 36 47  1  0  0  0  0
 37 66  1  0  0  0  0
 38 40  1  0  0  0  0
 39 41  1  0  0  0  0
 39 42  1  0  0  0  0
 40 46  1  0  0  0  0
 41 48  1  0  0  0  0
 42 67  1  0  0  0  0
 43 48  1  0  0  0  0
 43 67  1  0  0  0  0
 44 49  1  0  0  0  0
 44 65  1  0  0  0  0
 45 49  1  0  0  0  0
 45 65  1  0  0  0  0
 46 70  1  0  0  0  0
 47 66  1  0  0  0  0
 48 63  1  0  0  0  0
 49 72  1  0  0  0  0
 50 58  1  0  0  0  0
 51 59  1  0  0  0  0
 52 59  1  0  0  0  0
 53 59  1  0  0  0  0
 54 64  1  0  0  0  0
 55 73  1  0  0  0  0
 56 80  1  0  0  0  0
 57 59  1  0  0  0  0
 57 71  1  0  0  0  0
 58 73  1  0  0  0  0
 60 63  1  0  0  0  0
 62 64  1  0  0  0  0
M  CHG  1  73   1
M  ISO  4  34 100  56 101  72 100  80 101
M  END
> <Batch ID>
0188

> <Smiles>
CNC(C)C(=O)NC(C(=O)N1Cc2cc([101O:1][101CH2:1]c3nc(N4CC([100NH:0][100C:0](=O)N5CCCC(n6nc(-c7ccc(Oc8ccc(F)cc8F)cc7)c(C(N)=O)c6N)C5)C4)n(C)n3)ccc2CC1C(=O)NC1CCCc2ccccc21)C(C)(C)C

> <Shape>
0.319

> <Color>
0.082

> <Negative vol penalty>
0.000

$$$$

  -OEChem-04052323193D

 85 94  0     1  0  0  0  0  0999 V2000
  -23.9982  -37.0998   25.6422 C   0  0  0  0  0  0  0  0  0  0  0  0
  -24.0366  -36.7402   24.2997 C   0  0  0  0  0  0  0  0  0  0  0  0
  -24.4467   -9.2963   21.4727 C   0  0  0  0  0  0  0  0  0  0  0  0
  -24.0900  -10.8007   23.3292 C   0  0  0  0  0  0  0  0  0  0  0  0
  -24.4838  -36.2220   26.6091 C   0  0  0  0  0  0  0  0  0  0  0  0
  -24.5495  -35.4979   23.9248 C   0  0  0  0  0  0  0  0  0  0  0  0
  -26.6911  -29.5657   19.0044 C   0  0  0  0  0  0  0  0  0  0  0  0
  -29.9307  -23.9513   21.2947 C   0  0  0  0  0  0  0  0  0  0  0  0
  -24.2023   -8.2068   22.3086 C   0  0  0  0  0  0  0  0  0  0  0  0
  -23.8456   -9.7112   24.1651 C   0  0  0  0  0  0  0  0  0  0  0  0
  -27.4629  -28.4088   18.9066 C   0  0  0  0  0  0  0  0  0  0  0  0
  -23.3178   -5.0463   23.8719 C   0  0  0  0  0  0  0  0  0  0  0  0
  -22.4844   -4.0355   23.3931 C   0  0  0  0  0  0  0  0  0  0  0  0
  -30.7930  -22.8883   21.0505 C   0  0  0  0  0  0  0  0  0  0  0  0
  -26.3979  -27.5380   20.8879 C   0  0  0  0  0  0  0  0  0  0  0  0
  -20.6837   -5.6297   23.1621 C   0  0  0  0  0  0  0  0  0  0  0  0
  -24.3905  -10.5933   21.9830 C   0  0  0  0  0  0  0  0  0  0  0  0
  -23.7004  -12.4354   20.3587 C   0  0  0  0  0  0  0  0  0  0  0  0
  -25.0142  -34.9737   26.2438 C   0  0  0  0  0  0  0  0  0  0  0  0
  -25.7724  -29.7226   20.0524 C   0  0  0  0  0  0  0  0  0  0  0  0
  -25.0223  -34.5883   24.8878 C   0  0  0  0  0  0  0  0  0  0  0  0
  -25.6122  -28.6957   20.9939 C   0  0  0  0  0  0  0  0  0  0  0  0
  -28.8033  -24.1216   20.4990 C   0  0  0  0  0  0  0  0  0  0  0  0
  -23.9018   -8.4142   23.6549 C   0  0  0  0  0  0  0  0  0  0  0  0
  -27.3180  -27.3957   19.8497 C   0  0  0  0  0  0  0  0  0  0  0  0
  -22.8342   -6.3487   23.9960 C   0  0  0  0  0  0  0  0  0  0  0  0
  -21.1673   -4.3272   23.0381 C   0  0  0  0  0  0  0  0  0  0  0  0
  -21.5172   -6.6404   23.6410 C   0  0  0  0  0  0  0  0  0  0  0  0
  -24.6434  -11.7191   21.1201 C   0  0  0  0  0  0  0  0  0  0  0  0
  -30.4856  -22.0304   20.0069 C   0  0  0  0  0  0  0  0  0  0  0  0
  -28.5850  -23.2086   19.4799 C   0  0  0  0  0  0  0  0  0  0  0  0
  -24.4380  -13.4012   19.7188 C   0  0  0  0  0  0  0  0  0  0  0  0
  -22.2843  -12.2447   20.2406 C   0  0  0  0  0  0  0  0  0  0  0  0
  -25.3448  -31.7723   22.4734 C   0  0  0  0  0  0  0  0  0  0  0  0
  -22.5812  -29.9597   22.8347 C   0  0  0  0  0  0  0  0  0  0  0  0
  -20.6430  -32.6008   23.7876 C   0  0  0  0  0  0  0  0  0  0  0  0
  -29.5361  -16.0185   21.1068 C   0  0  0  0  0  0  0  0  0  0  0  0
  -25.5189  -34.0592   27.3321 C   0  0  0  0  0  0  0  0  0  0  0  0
  -24.9275  -30.9658   20.1225 C   0  0  0  0  0  0  0  0  0  0  0  0
  -24.6378  -28.8142   22.1346 C   0  0  0  0  0  0  0  0  0  0  0  0
  -26.4425  -32.9645   26.8078 C   0  0  0  0  0  0  0  0  0  0  0  0
  -28.8347  -14.2494   18.0298 C   0  0  0  0  0  0  0  0  0  0  0  0
  -25.8021  -32.2716   25.6143 C   0  0  0  0  0  0  0  0  0  0  0  0
  -27.5782  -13.4651   18.4118 C   0  0  0  0  0  0  0  0  0  0  0  0
  -29.8172  -14.3233   19.1953 C   0  0  0  0  0  0  0  0  0  0  0  0
  -27.9892  -14.1048   20.8320 C   0  0  0  0  0  0  0  0  0  0  0  0
  -30.2828  -19.1733   21.0858 C   0  0  0  0  0  0  0  0  0  0  0  0
  -32.2160  -18.6957   20.4612 C   0  0  0  0  0  0  0  0  0  0  0  0
  -25.6037  -33.2549   24.4538 C   0  0  1  0  0  0  0  0  0  0  0  0
  -24.3345  -31.2234   21.5062 C   0  0  1  0  0  0  0  0  0  0  0  0
  -26.9459  -14.0156   19.7037 C   0  0  2  0  0  0  0  0  0  0  0  0
  -31.1623  -17.9247   21.2761 C   0  0  0  0  0  0  0  0  0  0  0  0
  -27.1495  -22.0886   17.7561 C   0  0  0  0  0  0  0  0  0  0  0  0
  -18.6749  -33.8109   24.7672 C   0  0  0  0  0  0  0  0  0  0  0  0
  -21.3665  -29.4616   20.0811 C   0  0  0  0  0  0  0  0  0  0  0  0
  -19.4195  -30.8811   20.7611 C   0  0  0  0  0  0  0  0  0  0  0  0
  -19.9180  -28.7744   22.0005 C   0  0  0  0  0  0  0  0  0  0  0  0
  -21.8232  -32.5631   26.5014 C   0  0  0  0  0  0  0  0  0  0  0  0
  -27.8697  -25.2676   20.7568 C   0  0  0  0  0  0  0  0  0  1  0  0
  -27.3886  -23.3400   18.5955 C   0  0  0  0  0  0  0  0  0  0  0  0
  -31.3885  -20.8778   19.7178 C   0  0  0  0  0  0  0  0  0  0  0  0
  -21.4312  -30.7773   22.3017 C   0  0  1  0  0  0  0  0  0  0  0  0
  -19.8185  -32.8459   25.0385 C   0  0  2  0  0  0  0  0  0  0  0  0
  -20.5603  -29.9840   21.2870 C   0  0  0  0  0  0  0  0  0  0  0  0
  -25.8853  -12.1897   20.9779 N   0  0  0  0  0  0  0  0  0  0  0  0
  -29.4000  -22.1636   19.2124 N   0  0  0  0  0  0  0  0  0  0  0  0
  -25.7278  -13.2120   20.1199 N   0  0  0  0  0  0  0  0  0  0  0  0
  -23.7793  -30.0056   22.1105 N   0  0  0  0  0  0  0  0  0  0  0  0
  -29.1574  -14.8735   20.3881 N   0  0  0  0  0  0  0  0  0  0  0  0
  -24.1027  -14.3854   18.8578 N   0  0  0  0  0  0  0  0  0  0  0  0
  -21.6872  -11.2055   20.9671 N   0  0  0  0  0  0  0  0  0  0  0  0
  -24.8097  -32.6182   23.4261 N   0  0  0  0  0  0  0  0  0  0  0  0
  -20.6993  -31.2608   23.4674 N   0  0  0  0  0  0  0  0  0  0  0  0
  -30.6502  -16.6997   20.6279 N   0  0  0  0  0  0  0  0  0  0  0  0
  -31.5244  -19.9337   20.8607 N   0  3  0  0  0  0  0  0  0  0  0  0
  -20.6719  -33.4197   26.1171 N   0  3  0  0  0  0  0  0  0  0  0  0
  -21.5721  -12.9639   19.4997 O   0  0  0  0  0  0  0  0  0  0  0  0
  -26.5223  -31.4510   22.3644 O   0  0  0  0  0  0  0  0  0  0  0  0
  -22.4219  -29.2920   23.8603 O   0  0  0  0  0  0  0  0  0  0  0  0
  -21.1800  -33.5077   23.1555 O   0  0  0  0  0  0  0  0  0  0  0  0
  -28.9247  -16.4164   22.1046 O   0  0  0  0  0  0  0  0  0  0  0  0
  -23.6631   -7.3513   24.4708 O   0  0  0  0  0  0  0  0  0  0  0  0
  -28.0697  -26.2652   19.7562 O   0  0  0  0  0  0  0  0  0  1  0  0
  -20.3676   -3.3568   22.5768 F   0  0  0  0  0  0  0  0  0  0  0  0
  -21.0472   -7.8901   23.7569 F   0  0  0  0  0  0  0  0  0  0  0  0
  1  2  1  0  0  0  0
  1  5  2  0  0  0  0
  2  6  2  0  0  0  0
  3  9  2  0  0  0  0
  3 17  1  0  0  0  0
  4 10  1  0  0  0  0
  4 17  2  0  0  0  0
  5 19  1  0  0  0  0
  6 21  1  0  0  0  0
  7 11  2  0  0  0  0
  7 20  1  0  0  0  0
  8 14  2  0  0  0  0
  8 23  1  0  0  0  0
  9 24  1  0  0  0  0
 10 24  2  0  0  0  0
 11 25  1  0  0  0  0
 12 13  2  0  0  0  0
 12 26  1  0  0  0  0
 13 27  1  0  0  0  0
 14 30  1  0  0  0  0
 15 22  1  0  0  0  0
 15 25  2  0  0  0  0
 16 27  2  0  0  0  0
 16 28  1  0  0  0  0
 17 29  1  0  0  0  0
 18 29  1  0  0  0  0
 18 32  2  0  0  0  0
 18 33  1  0  0  0  0
 19 21  2  0  0  0  0
 19 38  1  0  0  0  0
 20 22  2  0  0  0  0
 20 39  1  0  0  0  0
 21 49  1  0  0  0  0
 22 40  1  0  0  0  0
 23 31  2  0  0  0  0
 23 59  1  0  0  0  0
 24 82  1  0  0  0  0
 25 83  1  0  0  0  0
 26 28  2  0  0  0  0
 26 82  1  0  0  0  0
 27 84  1  0  0  0  0
 28 85  1  0  0  0  0
 29 65  2  0  0  0  0
 30 61  1  0  0  0  0
 30 66  2  0  0  0  0
 31 60  1  0  0  0  0
 31 66  1  0  0  0  0
 32 67  1  0  0  0  0
 32 70  1  0  0  0  0
 33 71  1  0  0  0  0
 33 77  2  0  0  0  0
 34 50  1  0  0  0  0
 34 72  1  0  0  0  0
 34 78  2  0  0  0  0
 35 62  1  0  0  0  0
 35 68  1  0  0  0  0
 35 79  2  0  0  0  0
 36 63  1  0  0  0  0
 36 73  1  0  0  0  0
 36 80  2  0  0  0  0
 37 69  1  0  0  0  0
 37 74  1  0  0  0  0
 37 81  2  0  0  0  0
 38 41  1  0  0  0  0
 39 50  1  0  0  0  0
 40 68  1  0  0  0  0
 41 43  1  0  0  0  0
 42 44  1  0  0  0  0
 42 45  1  0  0  0  0
 43 49  1  0  0  0  0
 44 51  1  0  0  0  0
 45 69  1  0  0  0  0
 46 51  1  0  0  0  0
 46 69  1  0  0  0  0
 47 52  1  0  0  0  0
 47 75  1  0  0  0  0
 48 52  1  0  0  0  0
 48 75  1  0  0  0  0
 49 72  1  0  0  0  0
 50 68  1  0  0  0  0
 51 67  1  0  0  0  0
 52 74  1  0  0  0  0
 53 60  1  0  0  0  0
 54 63  1  0  0  0  0
 55 64  1  0  0  0  0
 56 64  1  0  0  0  0
 57 64  1  0  0  0  0
 58 76  1  0  0  0  0
 59 83  1  0  0  0  0
 61 75  1  0  0  0  0
 62 64  1  0  0  0  0
 62 73  1  0  0  0  0
 63 76  1  0  0  0  0
 65 67  1  0  0  0  0
M  CHG  2  75   1  76   1
M  ISO  4  37 100  59 101  74 100  83 101
M  END
> <Batch ID>
0188

> <Smiles>
CCc1nc(CN2CC([100NH:0][100C:0](=O)N3CCCC(n4nc(-c5ccc(Oc6ccc(F)cc6F)cc5)c(C(N)=O)c4N)C3)C2)ccc1[101CH2:1][101O:1]c1ccc2c(c1)CN(C(=O)C(NC(=O)C(C)NC)C(C)(C)C)C(C(=O)NC1CCCc3ccccc31)C2

> <Shape>
0.312

> <Color>
0.102

> <Negative vol penalty>
0.000

$$$$

  -OEChem-04052323193D

 83 92  0     1  0  0  0  0  0999 V2000
  -19.3759  -27.7965   26.4469 C   0  0  0  0  0  0  0  0  0  0  0  0
  -20.7593  -27.8360   26.3050 C   0  0  0  0  0  0  0  0  0  0  0  0
  -26.2198  -14.0243   21.8710 C   0  0  0  0  0  0  0  0  0  0  0  0
  -25.8877  -13.1290   19.6517 C   0  0  0  0  0  0  0  0  0  0  0  0
  -18.5651  -27.6426   25.3232 C   0  0  0  0  0  0  0  0  0  0  0  0
  -21.3327  -27.7205   25.0391 C   0  0  0  0  0  0  0  0  0  0  0  0
  -26.4101  -30.4939   23.0305 C   0  0  0  0  0  0  0  0  0  0  0  0
  -25.8246  -12.8054   22.4219 C   0  0  0  0  0  0  0  0  0  0  0  0
  -25.4927  -11.9100   20.2026 C   0  0  0  0  0  0  0  0  0  0  0  0
  -27.7302  -30.0619   22.9112 C   0  0  0  0  0  0  0  0  0  0  0  0
  -24.0518   -8.6770   21.0282 C   0  0  0  0  0  0  0  0  0  0  0  0
  -22.9204   -8.0604   20.4941 C   0  0  0  0  0  0  0  0  0  0  0  0
  -27.3342  -29.5104   20.5964 C   0  0  0  0  0  0  0  0  0  0  0  0
  -21.5883   -9.9845   21.0946 C   0  0  0  0  0  0  0  0  0  0  0  0
  -26.2513  -14.1862   20.4859 C   0  0  0  0  0  0  0  0  0  0  0  0
  -27.9644  -15.8359   19.5631 C   0  0  0  0  0  0  0  0  0  0  0  0
  -19.1285  -27.5348   24.0419 C   0  0  0  0  0  0  0  0  0  0  0  0
  -25.5375  -30.4272   21.9348 C   0  0  0  0  0  0  0  0  0  0  0  0
  -20.5287  -27.5636   23.8974 C   0  0  0  0  0  0  0  0  0  0  0  0
  -26.0042  -29.9446   20.7037 C   0  0  0  0  0  0  0  0  0  0  0  0
  -25.4611  -11.7482   21.5877 C   0  0  0  0  0  0  0  0  0  0  0  0
  -28.1917  -29.5674   21.6948 C   0  0  0  0  0  0  0  0  0  0  0  0
  -23.9515   -9.9473   21.5957 C   0  0  0  0  0  0  0  0  0  0  0  0
  -21.6887   -8.7141   20.5272 C   0  0  0  0  0  0  0  0  0  0  0  0
  -22.7197  -10.6010   21.6289 C   0  0  0  0  0  0  0  0  0  0  0  0
  -26.6588  -15.4454   19.9162 C   0  0  0  0  0  0  0  0  0  0  0  0
  -27.8203  -17.1096   19.0699 C   0  0  0  0  0  0  0  0  0  0  0  0
  -30.6970  -26.3119   20.2577 C   0  0  0  0  0  0  0  0  0  0  0  0
  -29.8894  -25.4346   22.0770 C   0  0  0  0  0  0  0  0  0  0  0  0
  -29.1972  -15.1119   19.6712 C   0  0  0  0  0  0  0  0  0  0  0  0
  -22.8176  -28.9003   21.3230 C   0  0  0  0  0  0  0  0  0  0  0  0
  -22.8900  -30.6687   18.6046 C   0  0  0  0  0  0  0  0  0  0  0  0
  -24.7446  -32.4093   16.3292 C   0  0  0  0  0  0  0  0  0  0  0  0
  -25.5526  -22.2300   19.7826 C   0  0  0  0  0  0  0  0  0  0  0  0
  -18.2134  -27.3223   22.8621 C   0  0  0  0  0  0  0  0  0  0  0  0
  -24.1238  -30.9221   22.0726 C   0  0  0  0  0  0  0  0  0  0  0  0
  -25.1132  -29.8711   19.4916 C   0  0  0  0  0  0  0  0  0  0  0  0
  -18.8845  -27.5830   21.5160 C   0  0  0  0  0  0  0  0  0  0  0  0
  -23.6743  -19.7363   17.8524 C   0  0  0  0  0  0  0  0  0  0  0  0
  -20.2507  -26.9068   21.4608 C   0  0  0  0  0  0  0  0  0  0  0  0
  -24.3651  -18.4250   18.2299 C   0  0  0  0  0  0  0  0  0  0  0  0
  -29.2198  -22.4835   19.8249 C   0  0  0  0  0  0  0  0  0  0  0  0
  -23.7376  -20.7616   18.9823 C   0  0  0  0  0  0  0  0  0  0  0  0
  -28.0216  -21.5415   19.7812 C   0  0  0  0  0  0  0  0  0  0  0  0
  -25.7795  -19.7100   19.8754 C   0  0  0  0  0  0  0  0  0  0  0  0
  -27.3515  -23.6359   20.7455 C   0  0  0  0  0  0  0  0  0  0  0  0
  -21.1873  -27.4664   22.5383 C   0  0  1  0  0  0  0  0  0  0  0  0
  -23.1791  -30.3293   21.0317 C   0  0  1  0  0  0  0  0  0  0  0  0
  -25.7964  -18.6779   18.7393 C   0  0  1  0  0  0  0  0  0  0  0  0
  -28.8450  -23.4321   20.9597 C   0  0  2  0  0  0  0  0  0  0  0  0
  -24.5289  -33.7112   14.1947 C   0  0  0  0  0  0  0  0  0  0  0  0
  -22.5766  -28.0623   17.0494 C   0  0  0  0  0  0  0  0  0  0  0  0
  -23.3128  -29.2831   14.9913 C   0  0  0  0  0  0  0  0  0  0  0  0
  -21.2240  -29.9722   16.1679 C   0  0  0  0  0  0  0  0  0  0  0  0
  -25.7848  -34.8754   17.5923 C   0  0  0  0  0  0  0  0  0  0  0  0
  -31.1664  -27.6071   22.3444 C   0  0  0  0  0  0  0  0  0  0  0  0
  -30.0995  -28.6107   22.7441 C   0  0  0  0  0  0  0  0  0  1  0  0
  -23.4653  -30.4803   17.2216 C   0  0  1  0  0  0  0  0  0  0  0  0
  -24.5530  -33.7837   15.7136 C   0  0  2  0  0  0  0  0  0  0  0  0
  -22.6612  -29.4489   16.3807 C   0  0  0  0  0  0  0  0  0  0  0  0
  -25.7520  -16.3943   19.6685 N   0  0  0  0  0  0  0  0  0  0  0  0
  -30.1165  -25.2435   19.8163 N   0  0  0  0  0  0  0  0  0  0  0  0
  -26.4890  -17.3937   19.1545 N   0  0  0  0  0  0  0  0  0  0  0  0
  -30.6118  -26.5047   21.5892 N   0  0  0  0  0  0  0  0  0  0  0  0
  -29.5898  -24.6565   20.9428 N   0  0  0  0  0  0  0  0  0  0  0  0
  -23.7375  -30.3611   19.6784 N   0  0  0  0  0  0  0  0  0  0  0  0
  -25.1124  -20.9446   19.4482 N   0  0  0  0  0  0  0  0  0  0  0  0
  -26.8833  -22.3765   20.1726 N   0  0  0  0  0  0  0  0  0  0  0  0
  -28.7037  -18.0032   18.5765 N   0  0  0  0  0  0  0  0  0  0  0  0
  -29.1659  -13.8144   20.2002 N   0  0  0  0  0  0  0  0  0  0  0  0
  -21.7090  -28.7547   22.1349 N   0  0  0  0  0  0  0  0  0  0  0  0
  -23.5388  -31.8098   16.6255 N   0  0  0  0  0  0  0  0  0  0  0  0
  -25.6599  -34.6936   16.1231 N   0  3  0  0  0  0  0  0  0  0  0  0
  -29.5745  -25.2038   23.2356 O   0  0  0  0  0  0  0  0  0  0  0  0
  -30.2963  -15.6073   19.3247 O   0  0  0  0  0  0  0  0  0  0  0  0
  -23.4935  -27.9966   20.8452 O   0  0  0  0  0  0  0  0  0  0  0  0
  -21.7338  -31.0806   18.7277 O   0  0  0  0  0  0  0  0  0  0  0  0
  -25.8530  -31.9154   16.5240 O   0  0  0  0  0  0  0  0  0  0  0  0
  -24.8031  -23.2114   19.6919 O   0  0  0  0  0  0  0  0  0  0  0  0
  -25.0758  -10.5584   22.1250 O   0  0  0  0  0  0  0  0  0  0  0  0
  -29.4887  -29.1414   21.5750 O   0  0  0  0  0  0  0  0  0  1  0  0
  -20.6026   -8.1226   20.0128 F   0  0  0  0  0  0  0  0  0  0  0  0
  -22.6173  -11.8220   22.1717 F   0  0  0  0  0  0  0  0  0  0  0  0
  1  2  1  0  0  0  0
  1  5  2  0  0  0  0
  2  6  2  0  0  0  0
  3  8  2  0  0  0  0
  3 15  1  0  0  0  0
  4  9  1  0  0  0  0
  4 15  2  0  0  0  0
  5 17  1  0  0  0  0
  6 19  1  0  0  0  0
  7 10  2  0  0  0  0
  7 18  1  0  0  0  0
  8 21  1  0  0  0  0
  9 21  2  0  0  0  0
 10 22  1  0  0  0  0
 11 12  2  0  0  0  0
 11 23  1  0  0  0  0
 12 24  1  0  0  0  0
 13 20  1  0  0  0  0
 13 22  2  0  0  0  0
 14 24  2  0  0  0  0
 14 25  1  0  0  0  0
 15 26  1  0  0  0  0
 16 26  1  0  0  0  0
 16 27  2  0  0  0  0
 16 30  1  0  0  0  0
 17 19  2  0  0  0  0
 17 35  1  0  0  0  0
 18 20  2  0  0  0  0
 18 36  1  0  0  0  0
 19 47  1  0  0  0  0
 20 37  1  0  0  0  0
 21 80  1  0  0  0  0
 22 81  1  0  0  0  0
 23 25  2  0  0  0  0
 23 80  1  0  0  0  0
 24 82  1  0  0  0  0
 25 83  1  0  0  0  0
 26 61  2  0  0  0  0
 27 63  1  0  0  0  0
 27 69  1  0  0  0  0
 28 62  2  0  0  0  0
 28 64  1  0  0  0  0
 29 64  1  0  0  0  0
 29 65  1  0  0  0  0
 29 74  2  0  0  0  0
 30 70  1  0  0  0  0
 30 75  2  0  0  0  0
 31 48  1  0  0  0  0
 31 71  1  0  0  0  0
 31 76  2  0  0  0  0
 32 58  1  0  0  0  0
 32 66  1  0  0  0  0
 32 77  2  0  0  0  0
 33 59  1  0  0  0  0
 33 72  1  0  0  0  0
 33 78  2  0  0  0  0
 34 67  1  0  0  0  0
 34 68  1  0  0  0  0
 34 79  2  0  0  0  0
 35 38  1  0  0  0  0
 36 48  1  0  0  0  0
 37 66  1  0  0  0  0
 38 40  1  0  0  0  0
 39 41  1  0  0  0  0
 39 43  1  0  0  0  0
 40 47  1  0  0  0  0
 41 49  1  0  0  0  0
 42 44  1  0  0  0  0
 42 50  1  0  0  0  0
 43 67  1  0  0  0  0
 44 68  1  0  0  0  0
 45 49  1  0  0  0  0
 45 67  1  0  0  0  0
 46 50  1  0  0  0  0
 46 68  1  0  0  0  0
 47 71  1  0  0  0  0
 48 66  1  0  0  0  0
 49 63  1  0  0  0  0
 50 65  1  0  0  0  0
 51 59  1  0  0  0  0
 52 60  1  0  0  0  0
 53 60  1  0  0  0  0
 54 60  1  0  0  0  0
 55 73  1  0  0  0  0
 56 57  1  0  0  0  0
 56 64  1  0  0  0  0
 57 81  1  0  0  0  0
 58 60  1  0  0  0  0
 58 72  1  0  0  0  0
 59 73  1  0  0  0  0
 61 63  1  0  0  0  0
 62 65  1  0  0  0  0
M  CHG  1  73   1
M  ISO  4  34 100  57 101  68 100  81 101
M  END
> <Batch ID>
0188

> <Smiles>
CNC(C)C(=O)NC(C(=O)N1Cc2cc([101O:1][101CH2:1]Cn3cnn(C4CC[100N:0]([100C:0](=O)N5CCCC(n6nc(-c7ccc(Oc8ccc(F)cc8F)cc7)c(C(N)=O)c6N)C5)C4)c3=O)ccc2CC1C(=O)NC1CCCc2ccccc21)C(C)(C)C

> <Shape>
0.248

> <Color>
0.088

> <Negative vol penalty>
0.000

$$$$

  -OEChem-04052323193D

 82 91  0     1  0  0  0  0  0999 V2000
  -22.1814  -11.7172   19.6579 C   0  0  0  0  0  0  0  0  0  0  0  0
  -21.8830  -13.0728   19.7507 C   0  0  0  0  0  0  0  0  0  0  0  0
  -25.0379  -26.7669   19.3596 C   0  0  0  0  0  0  0  0  0  0  0  0
  -25.8770  -27.5897   21.4705 C   0  0  0  0  0  0  0  0  0  0  0  0
  -23.4485  -11.2575   20.0143 C   0  0  0  0  0  0  0  0  0  0  0  0
  -22.8513  -13.9695   20.2011 C   0  0  0  0  0  0  0  0  0  0  0  0
  -23.0801  -18.1641   17.3730 C   0  0  0  0  0  0  0  0  0  0  0  0
  -26.1366  -27.3244   18.7056 C   0  0  0  0  0  0  0  0  0  0  0  0
  -26.9757  -28.1471   20.8165 C   0  0  0  0  0  0  0  0  0  0  0  0
  -22.0973  -19.1298   17.5856 C   0  0  0  0  0  0  0  0  0  0  0  0
  -29.9224  -27.0820   19.5503 C   0  0  0  0  0  0  0  0  0  0  0  0
  -31.1800  -26.8935   20.1234 C   0  0  0  0  0  0  0  0  0  0  0  0
  -23.6443  -20.3987   18.9331 C   0  0  0  0  0  0  0  0  0  0  0  0
  -31.4467  -29.2862   20.3253 C   0  0  0  0  0  0  0  0  0  0  0  0
  -24.9080  -26.8997   20.7420 C   0  0  0  0  0  0  0  0  0  0  0  0
  -23.6739  -25.0300   21.9623 C   0  0  0  0  0  0  0  0  0  0  0  0
  -24.4359  -12.1503   20.4601 C   0  0  0  0  0  0  0  0  0  0  0  0
  -24.3512  -18.3032   17.9487 C   0  0  0  0  0  0  0  0  0  0  0  0
  -24.1324  -13.5211   20.5651 C   0  0  0  0  0  0  0  0  0  0  0  0
  -24.6423  -19.4347   18.7241 C   0  0  0  0  0  0  0  0  0  0  0  0
  -27.1055  -28.0144   19.4340 C   0  0  0  0  0  0  0  0  0  0  0  0
  -22.3784  -20.2459   18.3682 C   0  0  0  0  0  0  0  0  0  0  0  0
  -29.4270  -28.3727   19.3646 C   0  0  0  0  0  0  0  0  0  0  0  0
  -31.9422  -27.9955   20.5109 C   0  0  0  0  0  0  0  0  0  0  0  0
  -30.1891  -29.4748   19.7522 C   0  0  0  0  0  0  0  0  0  0  0  0
  -23.7730  -26.3246   21.4181 C   0  0  0  0  0  0  0  0  0  0  0  0
  -22.4064  -24.9749   22.4885 C   0  0  0  0  0  0  0  0  0  0  0  0
  -24.6411  -23.9720   21.9897 C   0  0  0  0  0  0  0  0  0  0  0  0
  -26.0636  -16.6266   20.0368 C   0  0  0  0  0  0  0  0  0  0  0  0
  -28.3688  -18.7817   19.2857 C   0  0  0  0  0  0  0  0  0  0  0  0
  -29.5343  -22.1107   18.5262 C   0  0  0  0  0  0  0  0  0  0  0  0
  -17.0902  -26.7156   21.5908 C   0  0  0  0  0  0  0  0  0  0  0  0
  -25.7762  -11.6001   20.8791 C   0  0  0  0  0  0  0  0  0  0  0  0
  -25.4087  -17.2660   17.6877 C   0  0  0  0  0  0  0  0  0  0  0  0
  -25.9975  -19.6412   19.3480 C   0  0  0  0  0  0  0  0  0  0  0  0
  -26.8639  -12.6654   20.9905 C   0  0  0  0  0  0  0  0  0  0  0  0
  -19.0686  -28.3160   23.9272 C   0  0  0  0  0  0  0  0  0  0  0  0
  -26.3461  -13.8792   21.7555 C   0  0  0  0  0  0  0  0  0  0  0  0
  -20.4827  -27.8454   23.5870 C   0  0  0  0  0  0  0  0  0  0  0  0
  -19.2296  -21.6689   19.4837 C   0  0  0  0  0  0  0  0  0  0  0  0
  -19.4615  -20.8615   17.1722 C   0  0  0  0  0  0  0  0  0  0  0  0
  -18.2716  -28.6105   22.6614 C   0  0  0  0  0  0  0  0  0  0  0  0
  -16.2939  -24.4643   20.9659 C   0  0  0  0  0  0  0  0  0  0  0  0
  -17.6608  -25.7109   19.3461 C   0  0  0  0  0  0  0  0  0  0  0  0
  -16.9550  -23.1703   20.4911 C   0  0  0  0  0  0  0  0  0  0  0  0
  -18.3096  -24.4007   18.9047 C   0  0  0  0  0  0  0  0  0  0  0  0
  -19.6005  -26.9761   21.3659 C   0  0  0  0  0  0  0  0  0  0  0  0
  -25.1639  -14.5281   21.0256 C   0  0  1  0  0  0  0  0  0  0  0  0
  -26.5077  -17.2538   18.7457 C   0  0  1  0  0  0  0  0  0  0  0  0
  -20.4494  -26.6548   22.6124 C   0  0  1  0  0  0  0  0  0  0  0  0
  -17.9987  -22.0312   18.6501 C   0  0  2  0  0  0  0  0  0  0  0  0
  -18.5828  -22.1048   17.2453 C   0  0  2  0  0  0  0  0  0  0  0  0
  -20.0640  -20.7513   18.5787 C   0  0  1  0  0  0  0  0  0  1  0  0
  -31.8235  -22.9383   17.9163 C   0  0  0  0  0  0  0  0  0  0  0  0
  -28.6475  -19.3372   22.2730 C   0  0  0  0  0  0  0  0  0  0  0  0
  -29.8835  -21.4367   21.6964 C   0  0  0  0  0  0  0  0  0  0  0  0
  -30.8128  -19.2205   21.0271 C   0  0  0  0  0  0  0  0  0  0  0  0
  -28.5449  -23.3605   16.0327 C   0  0  0  0  0  0  0  0  0  0  0  0
  -28.7863  -20.1305   19.8200 C   0  0  1  0  0  0  0  0  0  0  0  0
  -30.4606  -22.5127   17.3927 C   0  0  2  0  0  0  0  0  0  0  0  0
  -29.5063  -20.0267   21.1941 C   0  0  0  0  0  0  0  0  0  0  0  0
  -22.6573  -27.0401   21.5833 N   0  0  0  0  0  0  0  0  0  0  0  0
  -21.8451  -26.1922   22.2371 N   0  0  0  0  0  0  0  0  0  0  0  0
  -26.9961  -18.5960   19.0688 N   0  0  0  0  0  0  0  0  0  0  0  0
  -18.2683  -27.4579   21.7610 N   0  0  0  0  0  0  0  0  0  0  0  0
  -17.1542  -25.6179   20.7194 N   0  0  0  0  0  0  0  0  0  0  0  0
  -17.3852  -23.2731   19.0900 N   0  0  0  0  0  0  0  0  0  0  0  0
  -21.7284  -24.0043   23.1371 N   0  0  0  0  0  0  0  0  0  0  0  0
  -25.8941  -24.1968   21.4032 N   0  0  0  0  0  0  0  0  0  0  0  0
  -25.6327  -15.3200   19.9086 N   0  0  0  0  0  0  0  0  0  0  0  0
  -29.5863  -20.7549   18.7719 N   0  0  0  0  0  0  0  0  0  0  0  0
  -17.5299  -22.0657   16.2125 N   0  3  0  0  0  0  0  0  0  0  0  0
  -29.8767  -23.6484   16.6246 N   0  3  0  0  0  0  0  0  0  0  0  0
  -24.3956  -22.8546   22.5041 O   0  0  0  0  0  0  0  0  0  0  0  0
  -26.1100  -17.2793   21.0730 O   0  0  0  0  0  0  0  0  0  0  0  0
  -29.2296  -17.9270   19.0622 O   0  0  0  0  0  0  0  0  0  0  0  0
  -28.8373  -22.9191   19.1355 O   0  0  0  0  0  0  0  0  0  0  0  0
  -16.0453  -27.0094   22.1847 O   0  0  0  0  0  0  0  0  0  0  0  0
  -28.1779  -28.5583   18.7962 O   0  0  0  0  0  0  0  0  0  0  0  0
  -21.4138  -21.1965   18.5794 O   0  0  0  0  0  0  0  0  0  1  0  0
  -33.1492  -27.8142   21.0627 F   0  0  0  0  0  0  0  0  0  0  0  0
  -29.7180  -30.7171   19.5774 F   0  0  0  0  0  0  0  0  0  0  0  0
  1  2  1  0  0  0  0
  1  5  2  0  0  0  0
  2  6  2  0  0  0  0
  3  8  2  0  0  0  0
  3 15  1  0  0  0  0
  4  9  1  0  0  0  0
  4 15  2  0  0  0  0
  5 17  1  0  0  0  0
  6 19  1  0  0  0  0
  7 10  2  0  0  0  0
  7 18  1  0  0  0  0
  8 21  1  0  0  0  0
  9 21  2  0  0  0  0
 10 22  1  0  0  0  0
 11 12  2  0  0  0  0
 11 23  1  0  0  0  0
 12 24  1  0  0  0  0
 13 20  1  0  0  0  0
 13 22  2  0  0  0  0
 14 24  2  0  0  0  0
 14 25  1  0  0  0  0
 15 26  1  0  0  0  0
 16 26  1  0  0  0  0
 16 27  2  0  0  0  0
 16 28  1  0  0  0  0
 17 19  2  0  0  0  0
 17 33  1  0  0  0  0
 18 20  2  0  0  0  0
 18 34  1  0  0  0  0
 19 48  1  0  0  0  0
 20 35  1  0  0  0  0
 21 79  1  0  0  0  0
 22 80  1  0  0  0  0
 23 25  2  0  0  0  0
 23 79  1  0  0  0  0
 24 81  1  0  0  0  0
 25 82  1  0  0  0  0
 26 62  2  0  0  0  0
 27 63  1  0  0  0  0
 27 68  1  0  0  0  0
 28 69  1  0  0  0  0
 28 74  2  0  0  0  0
 29 49  1  0  0  0  0
 29 70  1  0  0  0  0
 29 75  2  0  0  0  0
 30 59  1  0  0  0  0
 30 64  1  0  0  0  0
 30 76  2  0  0  0  0
 31 60  1  0  0  0  0
 31 71  1  0  0  0  0
 31 77  2  0  0  0  0
 32 65  1  0  0  0  0
 32 66  1  0  0  0  0
 32 78  2  0  0  0  0
 33 36  1  0  0  0  0
 34 49  1  0  0  0  0
 35 64  1  0  0  0  0
 36 38  1  0  0  0  0
 37 39  1  0  0  0  0
 37 42  1  0  0  0  0
 38 48  1  0  0  0  0
 39 50  1  0  0  0  0
 40 51  1  0  0  0  0
 40 53  1  0  0  0  0
 41 52  1  0  0  0  0
 41 53  1  0  0  0  0
 42 65  1  0  0  0  0
 43 45  1  0  0  0  0
 43 66  1  0  0  0  0
 44 46  1  0  0  0  0
 44 66  1  0  0  0  0
 45 67  1  0  0  0  0
 46 67  1  0  0  0  0
 47 50  1  0  0  0  0
 47 65  1  0  0  0  0
 48 70  1  0  0  0  0
 49 64  1  0  0  0  0
 50 63  1  0  0  0  0
 51 52  1  0  0  0  0
 51 67  1  0  0  0  0
 52 72  1  0  0  0  0
 53 80  1  0  0  0  0
 54 60  1  0  0  0  0
 55 61  1  0  0  0  0
 56 61  1  0  0  0  0
 57 61  1  0  0  0  0
 58 73  1  0  0  0  0
 59 61  1  0  0  0  0
 59 71  1  0  0  0  0
 60 73  1  0  0  0  0
 62 63  1  0  0  0  0
M  CHG  2  72   1  73   1
M  ISO  4  32 100  53 101  66 100  80 101
M  END
> <Batch ID>
0188

> <Smiles>
CNC(C)C(=O)NC(C(=O)N1Cc2cc([101O:1][101CH:1]3CC(N)C(N4CC[100N:0]([100C:0](=O)N5CCCC(n6nc(-c7ccc(Oc8ccc(F)cc8F)cc7)c(C(N)=O)c6N)C5)CC4)C3)ccc2CC1C(=O)NC1CCCc2ccccc21)C(C)(C)C

> <Shape>
0.206

> <Color>
0.077

> <Negative vol penalty>
0.000

$$$$

  -OEChem-04052323193D

 81 90  0     1  0  0  0  0  0999 V2000
  -25.9032  -31.1093   21.8523 C   0  0  0  0  0  0  0  0  0  0  0  0
  -26.0650  -29.9186   21.1513 C   0  0  0  0  0  0  0  0  0  0  0  0
  -23.2990   -9.7912   19.8345 C   0  0  0  0  0  0  0  0  0  0  0  0
  -23.6713   -9.8525   22.2208 C   0  0  0  0  0  0  0  0  0  0  0  0
  -26.8879  -31.5309   22.7448 C   0  0  0  0  0  0  0  0  0  0  0  0
  -27.2123  -29.1492   21.3416 C   0  0  0  0  0  0  0  0  0  0  0  0
  -27.6080  -23.0389   21.2293 C   0  0  0  0  0  0  0  0  0  0  0  0
  -22.5701   -8.6107   19.9785 C   0  0  0  0  0  0  0  0  0  0  0  0
  -22.9424   -8.6720   22.3649 C   0  0  0  0  0  0  0  0  0  0  0  0
  -28.0064  -22.1428   20.2383 C   0  0  0  0  0  0  0  0  0  0  0  0
  -19.6931   -7.7468   22.4445 C   0  0  0  0  0  0  0  0  0  0  0  0
  -18.7564   -7.6872   23.4763 C   0  0  0  0  0  0  0  0  0  0  0  0
  -30.2231  -22.0873   21.1882 C   0  0  0  0  0  0  0  0  0  0  0  0
  -19.9354   -5.8104   24.4380 C   0  0  0  0  0  0  0  0  0  0  0  0
  -31.5437  -18.7743   16.2381 C   0  0  0  0  0  0  0  0  0  0  0  0
  -23.8496  -10.4121   20.9556 C   0  0  0  0  0  0  0  0  0  0  0  0
  -24.1069  -12.9480   20.8512 C   0  0  0  0  0  0  0  0  0  0  0  0
  -28.0434  -30.7615   22.9533 C   0  0  0  0  0  0  0  0  0  0  0  0
  -28.5186  -23.4751   22.2024 C   0  0  0  0  0  0  0  0  0  0  0  0
  -28.2141  -29.5616   22.2367 C   0  0  0  0  0  0  0  0  0  0  0  0
  -29.8331  -22.9870   22.1919 C   0  0  0  0  0  0  0  0  0  0  0  0
  -22.3918   -8.0511   21.2437 C   0  0  0  0  0  0  0  0  0  0  0  0
  -29.3149  -21.6691   20.2159 C   0  0  0  0  0  0  0  0  0  0  0  0
  -20.7509   -6.8382   22.4094 C   0  0  0  0  0  0  0  0  0  0  0  0
  -18.8776   -6.7190   24.4731 C   0  0  0  0  0  0  0  0  0  0  0  0
  -20.8721   -5.8701   23.4061 C   0  0  0  0  0  0  0  0  0  0  0  0
  -24.6031  -11.6313   20.8074 C   0  0  0  0  0  0  0  0  0  0  0  0
  -31.5143  -17.6840   17.1189 C   0  0  0  0  0  0  0  0  0  0  0  0
  -25.2135  -13.7385   20.6590 C   0  0  0  0  0  0  0  0  0  0  0  0
  -22.7656  -13.4147   21.0480 C   0  0  0  0  0  0  0  0  0  0  0  0
  -29.7387  -26.2909   23.0308 C   0  0  0  0  0  0  0  0  0  0  0  0
  -31.0430  -24.5743   25.4546 C   0  0  0  0  0  0  0  0  0  0  0  0
  -32.0762  -21.5406   26.6275 C   0  0  0  0  0  0  0  0  0  0  0  0
  -29.7643  -14.8676   17.8091 C   0  0  0  0  0  0  0  0  0  0  0  0
  -29.1022  -31.2818   23.8930 C   0  0  0  0  0  0  0  0  0  0  0  0
  -28.0659  -24.4213   23.2804 C   0  0  0  0  0  0  0  0  0  0  0  0
  -30.8438  -23.4086   23.2259 C   0  0  0  0  0  0  0  0  0  0  0  0
  -30.1149  -30.2211   24.3168 C   0  0  0  0  0  0  0  0  0  0  0  0
  -30.1236  -12.6224   20.6786 C   0  0  0  0  0  0  0  0  0  0  0  0
  -30.5958  -29.4280   23.1058 C   0  0  0  0  0  0  0  0  0  0  0  0
  -28.6724  -12.2233   20.9237 C   0  0  0  0  0  0  0  0  0  0  0  0
  -30.4252  -12.8438   19.1960 C   0  0  0  0  0  0  0  0  0  0  0  0
  -28.0366  -13.3952   18.7876 C   0  0  0  0  0  0  0  0  0  0  0  0
  -32.2835  -14.2921   17.5778 C   0  0  0  0  0  0  0  0  0  0  0  0
  -29.4332  -28.6871   22.4344 C   0  0  1  0  0  0  0  0  0  0  0  0
  -31.6741  -16.1618   16.7092 C   0  0  1  0  0  0  0  0  0  0  0  0
  -29.2158  -25.1959   23.9170 C   0  0  1  0  0  0  0  0  0  0  0  0
  -27.7193  -13.2422   20.2814 C   0  0  1  0  0  0  0  0  0  0  0  0
  -33.0335  -15.4802   16.9673 C   0  0  2  0  0  0  0  0  0  0  0  0
  -33.1350  -20.4591   28.6292 C   0  0  0  0  0  0  0  0  0  0  0  0
  -33.7555  -25.6975   24.6236 C   0  0  0  0  0  0  0  0  0  0  0  0
  -34.8397  -23.9002   25.9883 C   0  0  0  0  0  0  0  0  0  0  0  0
  -33.3813  -25.5951   27.0942 C   0  0  0  0  0  0  0  0  0  0  0  0
  -29.7186  -19.8111   27.0851 C   0  0  0  0  0  0  0  0  0  0  0  0
  -31.0641  -20.3450   19.2805 C   0  0  0  0  0  0  0  0  0  1  0  0
  -32.3282  -23.8068   25.6503 C   0  0  1  0  0  0  0  0  0  0  0  0
  -31.8280  -20.8333   27.9476 C   0  0  2  0  0  0  0  0  0  0  0  0
  -33.5579  -24.7433   25.8183 C   0  0  0  0  0  0  0  0  0  0  0  0
  -31.3806  -19.9118   16.9194 N   0  0  0  0  0  0  0  0  0  0  0  0
  -25.9223  -11.5839   20.6033 N   0  0  0  0  0  0  0  0  0  0  0  0
  -31.3335  -18.1171   18.3697 N   0  0  0  0  0  0  0  0  0  0  0  0
  -26.2643  -12.8807   20.5170 N   0  0  0  0  0  0  0  0  0  0  0  0
  -31.2631  -19.4433   18.1724 N   0  0  0  0  0  0  0  0  0  0  0  0
  -30.3547  -24.3402   24.2557 N   0  0  0  0  0  0  0  0  0  0  0  0
  -29.4457  -13.7323   18.5618 N   0  0  0  0  0  0  0  0  0  0  0  0
  -31.1044  -15.1536   17.6249 N   0  0  0  0  0  0  0  0  0  0  0  0
  -25.3805  -15.0768   20.5993 N   0  0  0  0  0  0  0  0  0  0  0  0
  -21.7486  -12.4677   21.2303 N   0  0  0  0  0  0  0  0  0  0  0  0
  -29.0884  -27.5000   23.1871 N   0  0  0  0  0  0  0  0  0  0  0  0
  -32.1007  -22.9109   26.7790 N   0  0  0  0  0  0  0  0  0  0  0  0
  -33.7575  -15.1419   15.7342 N   0  3  0  0  0  0  0  0  0  0  0  0
  -31.0392  -19.5881   27.7278 N   0  3  0  0  0  0  0  0  0  0  0  0
  -22.4749  -14.6349   21.0455 O   0  0  0  0  0  0  0  0  0  0  0  0
  -30.6648  -26.0564   22.2632 O   0  0  0  0  0  0  0  0  0  0  0  0
  -30.6601  -25.3475   26.3362 O   0  0  0  0  0  0  0  0  0  0  0  0
  -32.2362  -20.9376   25.5686 O   0  0  0  0  0  0  0  0  0  0  0  0
  -28.8940  -15.5820   17.2961 O   0  0  0  0  0  0  0  0  0  0  0  0
  -21.6805   -6.8993   21.3847 O   0  0  0  0  0  0  0  0  0  0  0  0
  -29.7091  -20.7892   19.2431 O   0  0  0  0  0  0  0  0  0  1  0  0
  -17.9789   -6.6627   25.4648 F   0  0  0  0  0  0  0  0  0  0  0  0
  -21.8868   -4.9952   23.3783 F   0  0  0  0  0  0  0  0  0  0  0  0
  1  2  1  0  0  0  0
  1  5  2  0  0  0  0
  2  6  2  0  0  0  0
  3  8  2  0  0  0  0
  3 16  1  0  0  0  0
  4  9  1  0  0  0  0
  4 16  2  0  0  0  0
  5 18  1  0  0  0  0
  6 20  1  0  0  0  0
  7 10  2  0  0  0  0
  7 19  1  0  0  0  0
  8 22  1  0  0  0  0
  9 22  2  0  0  0  0
 10 23  1  0  0  0  0
 11 12  2  0  0  0  0
 11 24  1  0  0  0  0
 12 25  1  0  0  0  0
 13 21  1  0  0  0  0
 13 23  2  0  0  0  0
 14 25  2  0  0  0  0
 14 26  1  0  0  0  0
 15 28  1  0  0  0  0
 15 59  2  0  0  0  0
 16 27  1  0  0  0  0
 17 27  1  0  0  0  0
 17 29  2  0  0  0  0
 17 30  1  0  0  0  0
 18 20  2  0  0  0  0
 18 35  1  0  0  0  0
 19 21  2  0  0  0  0
 19 36  1  0  0  0  0
 20 45  1  0  0  0  0
 21 37  1  0  0  0  0
 22 78  1  0  0  0  0
 23 79  1  0  0  0  0
 24 26  2  0  0  0  0
 24 78  1  0  0  0  0
 25 80  1  0  0  0  0
 26 81  1  0  0  0  0
 27 60  2  0  0  0  0
 28 46  1  0  0  0  0
 28 61  2  0  0  0  0
 29 62  1  0  0  0  0
 29 67  1  0  0  0  0
 30 68  1  0  0  0  0
 30 73  2  0  0  0  0
 31 47  1  0  0  0  0
 31 69  1  0  0  0  0
 31 74  2  0  0  0  0
 32 56  1  0  0  0  0
 32 64  1  0  0  0  0
 32 75  2  0  0  0  0
 33 57  1  0  0  0  0
 33 70  1  0  0  0  0
 33 76  2  0  0  0  0
 34 65  1  0  0  0  0
 34 66  1  0  0  0  0
 34 77  2  0  0  0  0
 35 38  1  0  0  0  0
 36 47  1  0  0  0  0
 37 64  1  0  0  0  0
 38 40  1  0  0  0  0
 39 41  1  0  0  0  0
 39 42  1  0  0  0  0
 40 45  1  0  0  0  0
 41 48  1  0  0  0  0
 42 65  1  0  0  0  0
 43 48  1  0  0  0  0
 43 65  1  0  0  0  0
 44 49  1  0  0  0  0
 44 66  1  0  0  0  0
 45 69  1  0  0  0  0
 46 49  1  0  0  0  0
 46 66  1  0  0  0  0
 47 64  1  0  0  0  0
 48 62  1  0  0  0  0
 49 71  1  0  0  0  0
 50 57  1  0  0  0  0
 51 58  1  0  0  0  0
 52 58  1  0  0  0  0
 53 58  1  0  0  0  0
 54 72  1  0  0  0  0
 55 63  1  0  0  0  0
 55 79  1  0  0  0  0
 56 58  1  0  0  0  0
 56 70  1  0  0  0  0
 57 72  1  0  0  0  0
 59 63  1  0  0  0  0
 60 62  1  0  0  0  0
 61 63  1  0  0  0  0
M  CHG  2  71   1  72   1
M  ISO  4  34 100  55 101  66 100  79 101
M  END
> <Batch ID>
0188

> <Smiles>
CNC(C)C(=O)NC(C(=O)N1Cc2cc([101O:1][101CH2:1]n3ncc(C4C(N)C[100N:0]4[100C:0](=O)N4CCCC(n5nc(-c6ccc(Oc7ccc(F)cc7F)cc6)c(C(N)=O)c5N)C4)n3)ccc2CC1C(=O)NC1CCCc2ccccc21)C(C)(C)C

> <Shape>
0.205

> <Color>
0.174

> <Negative vol penalty>
0.000

$$$$

  -OEChem-04052323193D

 85 95  0     1  0  0  0  0  0999 V2000
  -29.4985  -36.5919   21.3681 C   0  0  0  0  0  0  0  0  0  0  0  0
  -29.6881  -35.2355   21.1237 C   0  0  0  0  0  0  0  0  0  0  0  0
  -24.7802   -8.5161   21.5119 C   0  0  0  0  0  0  0  0  0  0  0  0
  -23.1239   -9.9056   20.4335 C   0  0  0  0  0  0  0  0  0  0  0  0
  -28.4798  -37.0091   22.2237 C   0  0  0  0  0  0  0  0  0  0  0  0
  -28.8598  -34.2955   21.7357 C   0  0  0  0  0  0  0  0  0  0  0  0
  -26.9395  -28.9844   19.3669 C   0  0  0  0  0  0  0  0  0  0  0  0
  -23.8134   -8.0581   22.4069 C   0  0  0  0  0  0  0  0  0  0  0  0
  -22.1570   -9.4475   21.3285 C   0  0  0  0  0  0  0  0  0  0  0  0
  -27.3858  -27.6726   19.5212 C   0  0  0  0  0  0  0  0  0  0  0  0
  -21.2808   -5.8177   22.4065 C   0  0  0  0  0  0  0  0  0  0  0  0
  -21.2346   -4.4480   22.6658 C   0  0  0  0  0  0  0  0  0  0  0  0
  -25.7133  -27.3101   21.2214 C   0  0  0  0  0  0  0  0  0  0  0  0
  -21.6528   -4.8771   25.0064 C   0  0  0  0  0  0  0  0  0  0  0  0
  -27.6526  -22.7312   19.8459 C   0  0  0  0  0  0  0  0  0  0  0  0
  -24.4355   -9.4399   20.5253 C   0  0  0  0  0  0  0  0  0  0  0  0
  -25.7739   -9.3527   18.3553 C   0  0  0  0  0  0  0  0  0  0  0  0
  -27.6324  -36.0742   22.8389 C   0  0  0  0  0  0  0  0  0  0  0  0
  -25.8822  -29.4731   20.1477 C   0  0  0  0  0  0  0  0  0  0  0  0
  -27.8297  -34.7005   22.6014 C   0  0  0  0  0  0  0  0  0  0  0  0
  -25.2538  -28.6277   21.0733 C   0  0  0  0  0  0  0  0  0  0  0  0
  -22.5017   -8.5237   22.3151 C   0  0  0  0  0  0  0  0  0  0  0  0
  -26.7746  -26.8361   20.4507 C   0  0  0  0  0  0  0  0  0  0  0  0
  -21.5131   -6.7172   23.4471 C   0  0  0  0  0  0  0  0  0  0  0  0
  -21.4206   -3.9777   23.9658 C   0  0  0  0  0  0  0  0  0  0  0  0
  -21.6991   -6.2468   24.7470 C   0  0  0  0  0  0  0  0  0  0  0  0
  -25.4340   -9.9139   19.6008 C   0  0  0  0  0  0  0  0  0  0  0  0
  -30.0962  -22.1042   20.7191 C   0  0  0  0  0  0  0  0  0  0  0  0
  -28.6069  -23.7041   20.0466 C   0  0  0  0  0  0  0  0  0  0  0  0
  -29.1416  -21.1315   20.5191 C   0  0  0  0  0  0  0  0  0  0  0  0
  -26.7696  -10.1664   17.8724 C   0  0  0  0  0  0  0  0  0  0  0  0
  -25.2376   -8.1993   17.6939 C   0  0  0  0  0  0  0  0  0  0  0  0
  -25.5657  -31.7967   22.2935 C   0  0  0  0  0  0  0  0  0  0  0  0
  -22.4311  -30.9752   22.1455 C   0  0  0  0  0  0  0  0  0  0  0  0
  -20.0900  -28.5953   21.4366 C   0  0  0  0  0  0  0  0  0  0  0  0
  -27.9658  -15.8659   18.9629 C   0  0  0  0  0  0  0  0  0  0  0  0
  -26.5751  -36.5705   23.7931 C   0  0  0  0  0  0  0  0  0  0  0  0
  -25.3951  -30.8824   19.9502 C   0  0  0  0  0  0  0  0  0  0  0  0
  -24.1015  -29.0977   21.9216 C   0  0  0  0  0  0  0  0  0  0  0  0
  -25.5028  -35.5308   24.1084 C   0  0  0  0  0  0  0  0  0  0  0  0
  -30.2865  -13.0485   19.2947 C   0  0  0  0  0  0  0  0  0  0  0  0
  -26.1429  -34.1834   24.4271 C   0  0  0  0  0  0  0  0  0  0  0  0
  -32.6101  -22.6776   20.8789 C   0  0  0  0  0  0  0  0  0  0  0  0
  -32.5125  -21.3425   20.2094 C   0  0  0  0  0  0  0  0  0  0  0  0
  -29.3147  -11.8746   19.3548 C   0  0  0  0  0  0  0  0  0  0  0  0
  -29.7223  -14.3052   19.9586 C   0  0  0  0  0  0  0  0  0  0  0  0
  -27.4139  -13.5205   19.5038 C   0  0  0  0  0  0  0  0  0  0  0  0
  -28.2726  -18.3959   19.1379 C   0  0  0  0  0  0  0  0  0  0  0  0
  -29.2564  -17.3403   20.7015 C   0  0  0  0  0  0  0  0  0  0  0  0
  -26.9359  -33.6518   23.2271 C   0  0  1  0  0  0  0  0  0  0  0  0
  -31.4640  -21.7581   21.2067 C   0  0  0  0  0  0  0  0  0  0  0  0
  -24.6476  -31.4315   21.1615 C   0  0  1  0  0  0  0  0  0  0  0  0
  -27.9486  -12.2771   18.7796 C   0  0  2  0  0  0  0  0  0  0  0  0
  -28.5629  -18.7062   20.6106 C   0  0  0  0  0  0  0  0  0  0  0  0
  -17.6111  -28.2052   21.4491 C   0  0  0  0  0  0  0  0  0  0  0  0
  -22.4967  -30.6703   25.1807 C   0  0  0  0  0  0  0  0  0  0  0  0
  -20.3474  -29.3952   25.0293 C   0  0  0  0  0  0  0  0  0  0  0  0
  -20.4386  -31.7752   24.2876 C   0  0  0  0  0  0  0  0  0  0  0  0
  -20.0343  -28.1131   18.5172 C   0  0  0  0  0  0  0  0  0  0  0  0
  -28.2949  -25.1351   19.7791 C   0  0  0  0  0  0  0  0  0  1  0  0
  -21.5474  -29.9939   22.8770 C   0  0  1  0  0  0  0  0  0  0  0  0
  -18.8084  -28.6533   20.6253 C   0  0  2  0  0  0  0  0  0  0  0  0
  -21.2305  -30.4501   24.3292 C   0  0  0  0  0  0  0  0  0  0  0  0
  -27.9028  -21.4274   20.0785 N   0  0  0  0  0  0  0  0  0  0  0  0
  -26.1552  -10.9999   19.8912 N   0  0  0  0  0  0  0  0  0  0  0  0
  -29.8459  -23.4080   20.4868 N   0  0  0  0  0  0  0  0  0  0  0  0
  -26.9584  -11.1277   18.8213 N   0  0  0  0  0  0  0  0  0  0  0  0
  -23.6657  -30.4858   21.6961 N   0  0  0  0  0  0  0  0  0  0  0  0
  -28.3771  -14.6274   19.4672 N   0  0  0  0  0  0  0  0  0  0  0  0
  -28.5514  -17.0014   19.4729 N   0  0  0  0  0  0  0  0  0  0  0  0
  -27.4933  -10.1461   16.7331 N   0  0  0  0  0  0  0  0  0  0  0  0
  -24.2187   -7.4775   18.3305 N   0  0  0  0  0  0  0  0  0  0  0  0
  -29.4600  -19.7942   20.7785 N   0  0  0  0  0  0  0  0  0  0  0  0
  -26.0405  -33.0931   22.2369 N   0  0  0  0  0  0  0  0  0  0  0  0
  -20.3680  -29.8038   22.0396 N   0  0  0  0  0  0  0  0  0  0  0  0
  -18.9123  -27.7709   19.4288 N   0  3  0  0  0  0  0  0  0  0  0  0
  -25.6610   -7.8103   16.5790 O   0  0  0  0  0  0  0  0  0  0  0  0
  -25.8230  -30.9643   23.1553 O   0  0  0  0  0  0  0  0  0  0  0  0
  -22.0373  -32.1314   21.9728 O   0  0  0  0  0  0  0  0  0  0  0  0
  -20.7742  -27.5785   21.5296 O   0  0  0  0  0  0  0  0  0  0  0  0
  -27.0788  -15.9598   18.1042 O   0  0  0  0  0  0  0  0  0  0  0  0
  -21.5579   -8.0768   23.1881 O   0  0  0  0  0  0  0  0  0  0  0  0
  -27.2115  -25.5470   20.6048 O   0  0  0  0  0  0  0  0  0  1  0  0
  -21.3746   -2.6624   24.2149 F   0  0  0  0  0  0  0  0  0  0  0  0
  -21.9214   -7.1061   25.7510 F   0  0  0  0  0  0  0  0  0  0  0  0
  1  2  1  0  0  0  0
  1  5  2  0  0  0  0
  2  6  2  0  0  0  0
  3  8  2  0  0  0  0
  3 16  1  0  0  0  0
  4  9  1  0  0  0  0
  4 16  2  0  0  0  0
  5 18  1  0  0  0  0
  6 20  1  0  0  0  0
  7 10  2  0  0  0  0
  7 19  1  0  0  0  0
  8 22  1  0  0  0  0
  9 22  2  0  0  0  0
 10 23  1  0  0  0  0
 11 12  2  0  0  0  0
 11 24  1  0  0  0  0
 12 25  1  0  0  0  0
 13 21  1  0  0  0  0
 13 23  2  0  0  0  0
 14 25  2  0  0  0  0
 14 26  1  0  0  0  0
 15 29  1  0  0  0  0
 15 64  2  0  0  0  0
 16 27  1  0  0  0  0
 17 27  1  0  0  0  0
 17 31  2  0  0  0  0
 17 32  1  0  0  0  0
 18 20  2  0  0  0  0
 18 37  1  0  0  0  0
 19 21  2  0  0  0  0
 19 38  1  0  0  0  0
 20 50  1  0  0  0  0
 21 39  1  0  0  0  0
 22 82  1  0  0  0  0
 23 83  1  0  0  0  0
 24 26  2  0  0  0  0
 24 82  1  0  0  0  0
 25 84  1  0  0  0  0
 26 85  1  0  0  0  0
 27 65  2  0  0  0  0
 28 30  2  0  0  0  0
 28 51  1  0  0  0  0
 28 66  1  0  0  0  0
 29 60  1  0  0  0  0
 29 66  2  0  0  0  0
 30 64  1  0  0  0  0
 30 73  1  0  0  0  0
 31 67  1  0  0  0  0
 31 71  1  0  0  0  0
 32 72  1  0  0  0  0
 32 77  2  0  0  0  0
 33 52  1  0  0  0  0
 33 74  1  0  0  0  0
 33 78  2  0  0  0  0
 34 61  1  0  0  0  0
 34 68  1  0  0  0  0
 34 79  2  0  0  0  0
 35 62  1  0  0  0  0
 35 75  1  0  0  0  0
 35 80  2  0  0  0  0
 36 69  1  0  0  0  0
 36 70  1  0  0  0  0
 36 81  2  0  0  0  0
 37 40  1  0  0  0  0
 38 52  1  0  0  0  0
 39 68  1  0  0  0  0
 40 42  1  0  0  0  0
 41 45  1  0  0  0  0
 41 46  1  0  0  0  0
 42 50  1  0  0  0  0
 43 44  1  0  0  0  0
 43 51  1  0  0  0  0
 44 51  1  0  0  0  0
 45 53  1  0  0  0  0
 46 69  1  0  0  0  0
 47 53  1  0  0  0  0
 47 69  1  0  0  0  0
 48 54  1  0  0  0  0
 48 70  1  0  0  0  0
 49 54  1  0  0  0  0
 49 70  1  0  0  0  0
 50 74  1  0  0  0  0
 52 68  1  0  0  0  0
 53 67  1  0  0  0  0
 54 73  1  0  0  0  0
 55 62  1  0  0  0  0
 56 63  1  0  0  0  0
 57 63  1  0  0  0  0
 58 63  1  0  0  0  0
 59 76  1  0  0  0  0
 60 83  1  0  0  0  0
 61 63  1  0  0  0  0
 61 75  1  0  0  0  0
 62 76  1  0  0  0  0
 65 67  1  0  0  0  0
M  CHG  1  76   1
M  ISO  4  36 100  60 101  70 100  83 101
M  END
> <Batch ID>
0188

> <Smiles>
CNC(C)C(=O)NC(C(=O)N1Cc2cc([101O:1][101CH2:1]c3cnc(NC4C[100N:0]([100C:0](=O)N5CCCC(n6nc(-c7ccc(Oc8ccc(F)cc8F)cc7)c(C(N)=O)c6N)C5)C4)c(C4CC4)n3)ccc2CC1C(=O)NC1CCCc2ccccc21)C(C)(C)C

> <Shape>
0.328

> <Color>
0.099

> <Negative vol penalty>
0.000

$$$$

  -OEChem-04052323193D

 84 93  0     1  0  0  0  0  0999 V2000
  -28.3995  -23.3073   20.5079 C   0  0  0  0  0  0  0  0  0  0  0  0
  -27.1379  -23.8918   20.5551 C   0  0  0  0  0  0  0  0  0  0  0  0
  -26.7698  -13.4500   21.0623 C   0  0  0  0  0  0  0  0  0  0  0  0
  -24.6822  -13.6628   19.8649 C   0  0  0  0  0  0  0  0  0  0  0  0
  -29.3982  -23.7359   21.3814 C   0  0  0  0  0  0  0  0  0  0  0  0
  -26.8739  -24.9045   21.4765 C   0  0  0  0  0  0  0  0  0  0  0  0
  -24.3511  -28.7873   19.4261 C   0  0  0  0  0  0  0  0  0  0  0  0
  -26.6120  -12.0645   21.0912 C   0  0  0  0  0  0  0  0  0  0  0  0
  -24.5244  -12.2772   19.8938 C   0  0  0  0  0  0  0  0  0  0  0  0
  -22.9812  -28.6221   19.2261 C   0  0  0  0  0  0  0  0  0  0  0  0
  -23.3924   -8.8242   19.9671 C   0  0  0  0  0  0  0  0  0  0  0  0
  -22.1356   -8.3217   20.3041 C   0  0  0  0  0  0  0  0  0  0  0  0
  -22.5421  -29.8794   21.2375 C   0  0  0  0  0  0  0  0  0  0  0  0
  -19.5036  -25.9060   21.7171 C   0  0  0  0  0  0  0  0  0  0  0  0
  -22.2696   -9.4253   22.4492 C   0  0  0  0  0  0  0  0  0  0  0  0
  -18.4870  -27.6746   23.5293 C   0  0  0  0  0  0  0  0  0  0  0  0
  -25.8048  -14.2492   20.4492 C   0  0  0  0  0  0  0  0  0  0  0  0
  -26.6132  -16.4426   19.4277 C   0  0  0  0  0  0  0  0  0  0  0  0
  -29.1491  -24.7611   22.3075 C   0  0  0  0  0  0  0  0  0  0  0  0
  -24.8278  -29.4917   20.5410 C   0  0  0  0  0  0  0  0  0  0  0  0
  -27.8698  -25.3463   22.3641 C   0  0  0  0  0  0  0  0  0  0  0  0
  -23.9184  -30.0544   21.4479 C   0  0  0  0  0  0  0  0  0  0  0  0
  -18.9595  -27.1046   21.2691 C   0  0  0  0  0  0  0  0  0  0  0  0
  -25.4893  -11.4780   20.5070 C   0  0  0  0  0  0  0  0  0  0  0  0
  -22.0765  -29.1657   20.1334 C   0  0  0  0  0  0  0  0  0  0  0  0
  -24.0878   -9.6272   20.8712 C   0  0  0  0  0  0  0  0  0  0  0  0
  -21.5742   -8.6223   21.5452 C   0  0  0  0  0  0  0  0  0  0  0  0
  -23.5264   -9.9278   22.1122 C   0  0  0  0  0  0  0  0  0  0  0  0
  -18.4395  -28.0112   22.1861 C   0  0  0  0  0  0  0  0  0  0  0  0
  -25.9670  -15.6807   20.4195 C   0  0  0  0  0  0  0  0  0  0  0  0
  -19.5037  -25.6637   23.0813 C   0  0  0  0  0  0  0  0  0  0  0  0
  -26.4960  -17.7406   19.8611 C   0  0  0  0  0  0  0  0  0  0  0  0
  -27.2615  -16.0152   18.2224 C   0  0  0  0  0  0  0  0  0  0  0  0
  -26.6359  -28.7608   23.0510 C   0  0  0  0  0  0  0  0  0  0  0  0
  -26.4168  -31.9425   23.6436 C   0  0  0  0  0  0  0  0  0  0  0  0
  -24.6904  -34.8560   23.2217 C   0  0  0  0  0  0  0  0  0  0  0  0
  -23.3691  -21.7908   21.8205 C   0  0  0  0  0  0  0  0  0  0  0  0
  -30.2461  -25.1582   23.2633 C   0  0  0  0  0  0  0  0  0  0  0  0
  -26.3078  -29.6840   20.7280 C   0  0  0  0  0  0  0  0  0  0  0  0
  -24.3784  -30.8367   22.6499 C   0  0  0  0  0  0  0  0  0  0  0  0
  -29.9959  -26.4952   23.9562 C   0  0  0  0  0  0  0  0  0  0  0  0
  -25.0062  -19.6292   24.2865 C   0  0  0  0  0  0  0  0  0  0  0  0
  -28.5649  -26.5654   24.4798 C   0  0  0  0  0  0  0  0  0  0  0  0
  -25.4022  -18.4408   23.4165 C   0  0  0  0  0  0  0  0  0  0  0  0
  -23.6884  -20.2635   23.8398 C   0  0  0  0  0  0  0  0  0  0  0  0
  -24.0631  -19.4386   21.5310 C   0  0  0  0  0  0  0  0  0  0  0  0
  -21.9397  -23.8969   22.0372 C   0  0  0  0  0  0  0  0  0  0  0  0
  -21.3810  -22.3804   23.4211 C   0  0  0  0  0  0  0  0  0  0  0  0
  -27.5521  -26.4647   23.3328 C   0  0  1  0  0  0  0  0  0  0  0  0
  -26.6939  -29.9796   22.1741 C   0  0  1  0  0  0  0  0  0  0  0  0
  -25.4186  -18.8411   21.9338 C   0  0  2  0  0  0  0  0  0  0  0  0
  -20.6075  -23.4659   22.6607 C   0  0  0  0  0  0  0  0  0  0  0  0
  -24.7376  -37.2833   23.8566 C   0  0  0  0  0  0  0  0  0  0  0  0
  -25.4390  -31.2265   26.4438 C   0  0  0  0  0  0  0  0  0  0  0  0
  -24.6166  -33.5791   26.6826 C   0  0  0  0  0  0  0  0  0  0  0  0
  -27.0502  -33.1373   26.3583 C   0  0  0  0  0  0  0  0  0  0  0  0
  -24.8853  -35.7111   20.3951 C   0  0  0  0  0  0  0  0  0  0  0  0
  -18.9500  -27.3801   19.8009 C   0  0  0  0  0  0  0  0  0  0  0  0
  -20.3161  -27.8205   19.2689 C   0  0  0  0  0  0  0  0  0  1  0  0
  -25.4637  -32.8231   24.4150 C   0  0  1  0  0  0  0  0  0  0  0  0
  -25.1456  -36.2475   22.8206 C   0  0  2  0  0  0  0  0  0  0  0  0
  -25.6335  -32.6752   25.9534 C   0  0  0  0  0  0  0  0  0  0  0  0
  -19.0076  -26.5201   24.0022 N   0  0  0  0  0  0  0  0  0  0  0  0
  -25.4757  -16.4320   21.4085 N   0  0  0  0  0  0  0  0  0  0  0  0
  -25.8135  -17.6796   21.0404 N   0  0  0  0  0  0  0  0  0  0  0  0
  -25.8355  -30.9919   22.7926 N   0  0  0  0  0  0  0  0  0  0  0  0
  -23.6816  -20.5570   22.4016 N   0  0  0  0  0  0  0  0  0  0  0  0
  -22.4512  -22.5941   22.4564 N   0  0  0  0  0  0  0  0  0  0  0  0
  -26.9112  -18.9168   19.3448 N   0  0  0  0  0  0  0  0  0  0  0  0
  -27.2909  -14.6450   17.9292 N   0  0  0  0  0  0  0  0  0  0  0  0
  -20.0546  -24.4541   23.5177 N   0  0  0  0  0  0  0  0  0  0  0  0
  -27.4534  -27.7279   22.6334 N   0  0  0  0  0  0  0  0  0  0  0  0
  -25.6691  -34.1797   23.9189 N   0  0  0  0  0  0  0  0  0  0  0  0
  -24.5464  -36.6312   21.5111 N   0  3  0  0  0  0  0  0  0  0  0  0
  -27.8131  -16.8230   17.4371 O   0  0  0  0  0  0  0  0  0  0  0  0
  -25.9049  -28.7583   24.0345 O   0  0  0  0  0  0  0  0  0  0  0  0
  -27.6324  -32.0973   23.7853 O   0  0  0  0  0  0  0  0  0  0  0  0
  -23.5767  -34.4146   22.9474 O   0  0  0  0  0  0  0  0  0  0  0  0
  -23.8705  -22.1537   20.7482 O   0  0  0  0  0  0  0  0  0  0  0  0
  -25.3351  -10.1260   20.5348 O   0  0  0  0  0  0  0  0  0  0  0  0
  -20.7296  -29.0042   19.9396 O   0  0  0  0  0  0  0  0  0  1  0  0
  -20.3666   -8.1409   21.8680 F   0  0  0  0  0  0  0  0  0  0  0  0
  -24.1892  -10.6997   22.9844 F   0  0  0  0  0  0  0  0  0  0  0  0
  -17.7506  -29.5114   21.7039 Cl  0  0  0  0  0  0  0  0  0  0  0  0
  1  2  1  0  0  0  0
  1  5  2  0  0  0  0
  2  6  2  0  0  0  0
  3  8  2  0  0  0  0
  3 17  1  0  0  0  0
  4  9  1  0  0  0  0
  4 17  2  0  0  0  0
  5 19  1  0  0  0  0
  6 21  1  0  0  0  0
  7 10  2  0  0  0  0
  7 20  1  0  0  0  0
  8 24  1  0  0  0  0
  9 24  2  0  0  0  0
 10 25  1  0  0  0  0
 11 12  2  0  0  0  0
 11 26  1  0  0  0  0
 12 27  1  0  0  0  0
 13 22  1  0  0  0  0
 13 25  2  0  0  0  0
 14 23  1  0  0  0  0
 14 31  2  0  0  0  0
 15 27  2  0  0  0  0
 15 28  1  0  0  0  0
 16 29  1  0  0  0  0
 16 63  2  0  0  0  0
 17 30  1  0  0  0  0
 18 30  1  0  0  0  0
 18 32  2  0  0  0  0
 18 33  1  0  0  0  0
 19 21  2  0  0  0  0
 19 38  1  0  0  0  0
 20 22  2  0  0  0  0
 20 39  1  0  0  0  0
 21 49  1  0  0  0  0
 22 40  1  0  0  0  0
 23 29  2  0  0  0  0
 23 58  1  0  0  0  0
 24 80  1  0  0  0  0
 25 81  1  0  0  0  0
 26 28  2  0  0  0  0
 26 80  1  0  0  0  0
 27 82  1  0  0  0  0
 28 83  1  0  0  0  0
 29 84  1  0  0  0  0
 30 64  2  0  0  0  0
 31 63  1  0  0  0  0
 31 71  1  0  0  0  0
 32 65  1  0  0  0  0
 32 69  1  0  0  0  0
 33 70  1  0  0  0  0
 33 75  2  0  0  0  0
 34 50  1  0  0  0  0
 34 72  1  0  0  0  0
 34 76  2  0  0  0  0
 35 60  1  0  0  0  0
 35 66  1  0  0  0  0
 35 77  2  0  0  0  0
 36 61  1  0  0  0  0
 36 73  1  0  0  0  0
 36 78  2  0  0  0  0
 37 67  1  0  0  0  0
 37 68  1  0  0  0  0
 37 79  2  0  0  0  0
 38 41  1  0  0  0  0
 39 50  1  0  0  0  0
 40 66  1  0  0  0  0
 41 43  1  0  0  0  0
 42 44  1  0  0  0  0
 42 45  1  0  0  0  0
 43 49  1  0  0  0  0
 44 51  1  0  0  0  0
 45 67  1  0  0  0  0
 46 51  1  0  0  0  0
 46 67  1  0  0  0  0
 47 52  1  0  0  0  0
 47 68  1  0  0  0  0
 48 52  1  0  0  0  0
 48 68  1  0  0  0  0
 49 72  1  0  0  0  0
 50 66  1  0  0  0  0
 51 65  1  0  0  0  0
 52 71  1  0  0  0  0
 53 61  1  0  0  0  0
 54 62  1  0  0  0  0
 55 62  1  0  0  0  0
 56 62  1  0  0  0  0
 57 74  1  0  0  0  0
 58 59  1  0  0  0  0
 59 81  1  0  0  0  0
 60 62  1  0  0  0  0
 60 73  1  0  0  0  0
 61 74  1  0  0  0  0
 64 65  1  0  0  0  0
M  CHG  1  74   1
M  ISO  4  37 100  59 101  68 100  81 101
M  END
> <Batch ID>
0188

> <Smiles>
CNC(C)C(=O)NC(C(=O)N1Cc2cc([101O:1][101CH2:1]Cc3cc(NC4C[100N:0]([100C:0](=O)N5CCCC(n6nc(-c7ccc(Oc8ccc(F)cc8F)cc7)c(C(N)=O)c6N)C5)C4)ncc3Cl)ccc2CC1C(=O)NC1CCCc2ccccc21)C(C)(C)C

> <Shape>
0.257

> <Color>
0.069

> <Negative vol penalty>
0.000

$$$$

  -OEChem-04052323193D

 82 90  0     1  0  0  0  0  0999 V2000
  -17.7497  -30.7098   23.2226 C   0  0  0  0  0  0  0  0  0  0  0  0
  -19.1293  -30.8670   23.1354 C   0  0  0  0  0  0  0  0  0  0  0  0
  -26.9054  -13.2192   19.8138 C   0  0  0  0  0  0  0  0  0  0  0  0
  -24.8819  -13.8960   20.9470 C   0  0  0  0  0  0  0  0  0  0  0  0
  -17.1910  -29.4329   23.1849 C   0  0  0  0  0  0  0  0  0  0  0  0
  -19.9510  -29.7472   23.0116 C   0  0  0  0  0  0  0  0  0  0  0  0
  -25.1738  -29.3463   19.8387 C   0  0  0  0  0  0  0  0  0  0  0  0
  -26.7012  -11.9049   20.2339 C   0  0  0  0  0  0  0  0  0  0  0  0
  -24.6776  -12.5817   21.3671 C   0  0  0  0  0  0  0  0  0  0  0  0
  -26.5121  -29.4307   20.2205 C   0  0  0  0  0  0  0  0  0  0  0  0
  -23.5062   -9.7000   20.0465 C   0  0  0  0  0  0  0  0  0  0  0  0
  -22.2198   -9.1749   19.9248 C   0  0  0  0  0  0  0  0  0  0  0  0
  -26.6199  -27.0244   20.3524 C   0  0  0  0  0  0  0  0  0  0  0  0
  -22.1416   -8.8128   22.3122 C   0  0  0  0  0  0  0  0  0  0  0  0
  -25.9958  -14.2148   20.1704 C   0  0  0  0  0  0  0  0  0  0  0  0
  -25.7406  -16.1683   18.5498 C   0  0  0  0  0  0  0  0  0  0  0  0
  -18.0056  -28.2976   23.0508 C   0  0  0  0  0  0  0  0  0  0  0  0
  -24.5445  -28.0987   19.7213 C   0  0  0  0  0  0  0  0  0  0  0  0
  -19.4027  -28.4539   22.9734 C   0  0  0  0  0  0  0  0  0  0  0  0
  -25.2743  -26.9268   19.9665 C   0  0  0  0  0  0  0  0  0  0  0  0
  -25.5872  -11.5862   21.0105 C   0  0  0  0  0  0  0  0  0  0  0  0
  -27.2345  -28.2698   20.4802 C   0  0  0  0  0  0  0  0  0  0  0  0
  -24.1105   -9.7814   21.3011 C   0  0  0  0  0  0  0  0  0  0  0  0
  -21.5374   -8.7313   21.0576 C   0  0  0  0  0  0  0  0  0  0  0  0
  -23.4281   -9.3379   22.4340 C   0  0  0  0  0  0  0  0  0  0  0  0
  -26.2066  -15.5727   19.7372 C   0  0  0  0  0  0  0  0  0  0  0  0
  -26.2044  -17.4598   18.6085 C   0  0  0  0  0  0  0  0  0  0  0  0
  -27.8022  -26.1965   23.6264 C   0  0  0  0  0  0  0  0  0  0  0  0
  -26.9217  -26.2736   24.8193 C   0  0  0  0  0  0  0  0  0  0  0  0
  -28.1564  -27.2733   22.9218 C   0  0  0  0  0  0  0  0  0  0  0  0
  -24.9583  -15.6045   17.4887 C   0  0  0  0  0  0  0  0  0  0  0  0
  -22.0885  -26.6812   21.1575 C   0  0  0  0  0  0  0  0  0  0  0  0
  -22.6123  -24.3846   18.9274 C   0  0  0  0  0  0  0  0  0  0  0  0
  -24.7916  -22.8796   16.7751 C   0  0  0  0  0  0  0  0  0  0  0  0
  -27.6290  -20.8062   23.3384 C   0  0  0  0  0  0  0  0  0  0  0  0
  -17.3593  -26.9349   23.0623 C   0  0  0  0  0  0  0  0  0  0  0  0
  -23.1077  -28.0235   19.2826 C   0  0  0  0  0  0  0  0  0  0  0  0
  -24.6507  -25.5621   19.8351 C   0  0  0  0  0  0  0  0  0  0  0  0
  -28.1735  -24.7727   23.3593 C   0  0  0  0  0  0  0  0  0  0  0  0
  -18.2727  -25.8232   22.5524 C   0  0  0  0  0  0  0  0  0  0  0  0
  -29.7485  -20.1001   20.3909 C   0  0  0  0  0  0  0  0  0  0  0  0
  -19.6561  -25.9366   23.1851 C   0  0  0  0  0  0  0  0  0  0  0  0
  -29.0553  -18.8660   19.8226 C   0  0  0  0  0  0  0  0  0  0  0  0
  -29.6624  -20.1578   21.9156 C   0  0  0  0  0  0  0  0  0  0  0  0
  -27.5732  -18.8208   21.8647 C   0  0  0  0  0  0  0  0  0  0  0  0
  -20.3255  -27.2652   22.8134 C   0  0  1  0  0  0  0  0  0  0  0  0
  -22.4247  -26.7228   19.6937 C   0  0  1  0  0  0  0  0  0  0  0  0
  -27.6082  -18.7771   20.3297 C   0  0  2  0  0  0  0  0  0  0  0  0
  -27.1881  -23.9838   24.2264 C   0  0  1  0  0  0  0  0  0  0  0  0
  -30.5230  -27.5606   21.9474 C   0  0  0  0  0  0  0  0  0  0  0  0
  -24.9409  -21.0047   15.1138 C   0  0  0  0  0  0  0  0  0  0  0  0
  -22.7573  -22.3716   21.2158 C   0  0  0  0  0  0  0  0  0  0  0  0
  -23.8267  -20.7538   19.6324 C   0  0  0  0  0  0  0  0  0  0  0  0
  -21.5101  -21.5724   19.2008 C   0  0  0  0  0  0  0  0  0  0  0  0
  -25.7491  -24.5741   26.2393 C   0  0  0  0  0  0  0  0  0  0  0  0
  -25.4236  -24.7379   14.5602 C   0  0  0  0  0  0  0  0  0  0  0  0
  -27.8453  -22.7763   24.8819 C   0  0  0  0  0  0  0  0  0  0  0  0
  -29.0371  -27.3166   21.7042 C   0  0  2  0  0  0  0  0  0  1  0  0
  -23.4633  -23.1399   18.8542 C   0  0  1  0  0  0  0  0  0  0  0  0
  -24.6550  -22.4847   15.3157 C   0  0  2  0  0  0  0  0  0  0  0  0
  -22.9009  -21.9851   19.7302 C   0  0  0  0  0  0  0  0  0  0  0  0
  -26.9125  -16.4165   20.4947 N   0  0  0  0  0  0  0  0  0  0  0  0
  -26.8935  -17.5554   19.7816 N   0  0  0  0  0  0  0  0  0  0  0  0
  -26.6531  -24.9561   25.1711 N   0  0  0  0  0  0  0  0  0  0  0  0
  -23.2415  -25.5412   19.4094 N   0  0  0  0  0  0  0  0  0  0  0  0
  -28.2787  -19.9963   22.3899 N   0  0  0  0  0  0  0  0  0  0  0  0
  -26.0860  -18.5115   17.7705 N   0  0  0  0  0  0  0  0  0  0  0  0
  -24.5660  -14.2627   17.5881 N   0  0  0  0  0  0  0  0  0  0  0  0
  -20.8485  -27.2078   21.4652 N   0  0  0  0  0  0  0  0  0  0  0  0
  -23.5845  -22.8110   17.4380 N   0  0  0  0  0  0  0  0  0  0  0  0
  -28.3859  -21.8458   23.8699 N   0  0  0  0  0  0  0  0  0  0  0  0
  -25.6068  -23.2660   14.4764 N   0  3  0  0  0  0  0  0  0  0  0  0
  -26.5372  -27.3033   25.3476 O   0  0  0  0  0  0  0  0  0  0  0  0
  -24.6312  -16.2663   16.4746 O   0  0  0  0  0  0  0  0  0  0  0  0
  -22.8938  -26.2053   21.9491 O   0  0  0  0  0  0  0  0  0  0  0  0
  -21.4348  -24.3344   18.5634 O   0  0  0  0  0  0  0  0  0  0  0  0
  -25.8628  -23.2118   17.2778 O   0  0  0  0  0  0  0  0  0  0  0  0
  -26.4612  -20.6178   23.6959 O   0  0  0  0  0  0  0  0  0  0  0  0
  -25.3874  -10.3037   21.4205 O   0  0  0  0  0  0  0  0  0  0  0  0
  -28.5407  -28.3493   20.8536 O   0  0  0  0  0  0  0  0  0  1  0  0
  -20.3014   -8.2285   20.9407 F   0  0  0  0  0  0  0  0  0  0  0  0
  -24.0029   -9.4147   23.6421 F   0  0  0  0  0  0  0  0  0  0  0  0
  1  2  1  0  0  0  0
  1  5  2  0  0  0  0
  2  6  2  0  0  0  0
  3  8  2  0  0  0  0
  3 15  1  0  0  0  0
  4  9  1  0  0  0  0
  4 15  2  0  0  0  0
  5 17  1  0  0  0  0
  6 19  1  0  0  0  0
  7 10  2  0  0  0  0
  7 18  1  0  0  0  0
  8 21  1  0  0  0  0
  9 21  2  0  0  0  0
 10 22  1  0  0  0  0
 11 12  2  0  0  0  0
 11 23  1  0  0  0  0
 12 24  1  0  0  0  0
 13 20  1  0  0  0  0
 13 22  2  0  0  0  0
 14 24  2  0  0  0  0
 14 25  1  0  0  0  0
 15 26  1  0  0  0  0
 16 26  1  0  0  0  0
 16 27  2  0  0  0  0
 16 31  1  0  0  0  0
 17 19  2  0  0  0  0
 17 36  1  0  0  0  0
 18 20  2  0  0  0  0
 18 37  1  0  0  0  0
 19 46  1  0  0  0  0
 20 38  1  0  0  0  0
 21 79  1  0  0  0  0
 22 80  1  0  0  0  0
 23 25  2  0  0  0  0
 23 79  1  0  0  0  0
 24 81  1  0  0  0  0
 25 82  1  0  0  0  0
 26 62  2  0  0  0  0
 27 63  1  0  0  0  0
 27 67  1  0  0  0  0
 28 29  1  0  0  0  0
 28 30  2  0  0  0  0
 28 39  1  0  0  0  0
 29 64  1  0  0  0  0
 29 73  2  0  0  0  0
 30 58  1  0  0  0  0
 31 68  1  0  0  0  0
 31 74  2  0  0  0  0
 32 47  1  0  0  0  0
 32 69  1  0  0  0  0
 32 75  2  0  0  0  0
 33 59  1  0  0  0  0
 33 65  1  0  0  0  0
 33 76  2  0  0  0  0
 34 60  1  0  0  0  0
 34 70  1  0  0  0  0
 34 77  2  0  0  0  0
 35 66  1  0  0  0  0
 35 71  1  0  0  0  0
 35 78  2  0  0  0  0
 36 40  1  0  0  0  0
 37 47  1  0  0  0  0
 38 65  1  0  0  0  0
 39 49  1  0  0  0  0
 40 42  1  0  0  0  0
 41 43  1  0  0  0  0
 41 44  1  0  0  0  0
 42 46  1  0  0  0  0
 43 48  1  0  0  0  0
 44 66  1  0  0  0  0
 45 48  1  0  0  0  0
 45 66  1  0  0  0  0
 46 69  1  0  0  0  0
 47 65  1  0  0  0  0
 48 63  1  0  0  0  0
 49 57  1  0  0  0  0
 49 64  1  0  0  0  0
 50 58  1  0  0  0  0
 51 60  1  0  0  0  0
 52 61  1  0  0  0  0
 53 61  1  0  0  0  0
 54 61  1  0  0  0  0
 55 64  1  0  0  0  0
 56 72  1  0  0  0  0
 57 71  1  0  0  0  0
 58 80  1  0  0  0  0
 59 61  1  0  0  0  0
 59 70  1  0  0  0  0
 60 72  1  0  0  0  0
 62 63  1  0  0  0  0
M  CHG  1  72   1
M  ISO  4  35 100  58 101  71 100  80 101
M  END
> <Batch ID>
0188

> <Smiles>
CNC(C)C(=O)NC(C(=O)N1Cc2cc([101O:1][101CH:1](C)C=C3CC(C[100NH:0][100C:0](=O)N4CCCC(n5nc(-c6ccc(Oc7ccc(F)cc7F)cc6)c(C(N)=O)c5N)C4)N(C)C3=O)ccc2CC1C(=O)NC1CCCc2ccccc21)C(C)(C)C

> <Shape>
0.213

> <Color>
0.072

> <Negative vol penalty>
0.000

$$$$

  -OEChem-04052323193D

 80 89  0     1  0  0  0  0  0999 V2000
  -17.1370  -28.6727   23.9627 C   0  0  0  0  0  0  0  0  0  0  0  0
  -17.5737  -27.5309   23.2986 C   0  0  0  0  0  0  0  0  0  0  0  0
  -22.9845  -10.1104   19.8862 C   0  0  0  0  0  0  0  0  0  0  0  0
  -24.3644   -9.8304   21.8495 C   0  0  0  0  0  0  0  0  0  0  0  0
  -17.7931  -29.8869   23.7645 C   0  0  0  0  0  0  0  0  0  0  0  0
  -18.6661  -27.6029   22.4350 C   0  0  0  0  0  0  0  0  0  0  0  0
  -22.8962  -23.2782   21.4810 C   0  0  0  0  0  0  0  0  0  0  0  0
  -22.4535   -8.8349   20.0774 C   0  0  0  0  0  0  0  0  0  0  0  0
  -23.8333   -8.5548   22.0408 C   0  0  0  0  0  0  0  0  0  0  0  0
  -23.0466  -22.3174   20.4820 C   0  0  0  0  0  0  0  0  0  0  0  0
  -21.0007   -7.1995   23.2898 C   0  0  0  0  0  0  0  0  0  0  0  0
  -20.6173   -6.8461   24.5835 C   0  0  0  0  0  0  0  0  0  0  0  0
  -24.5479  -23.7901   19.3002 C   0  0  0  0  0  0  0  0  0  0  0  0
  -22.1915   -5.0137   24.5495 C   0  0  0  0  0  0  0  0  0  0  0  0
  -23.9401  -10.6081   20.7722 C   0  0  0  0  0  0  0  0  0  0  0  0
  -23.9976  -13.1382   21.0937 C   0  0  0  0  0  0  0  0  0  0  0  0
  -18.9001  -29.9717   22.9054 C   0  0  0  0  0  0  0  0  0  0  0  0
  -23.5631  -24.5085   21.3915 C   0  0  0  0  0  0  0  0  0  0  0  0
  -19.3368  -28.8196   22.2240 C   0  0  0  0  0  0  0  0  0  0  0  0
  -24.4063  -24.7638   20.3007 C   0  0  0  0  0  0  0  0  0  0  0  0
  -22.8778   -8.0571   21.1547 C   0  0  0  0  0  0  0  0  0  0  0  0
  -23.8703  -22.5744   19.3900 C   0  0  0  0  0  0  0  0  0  0  0  0
  -21.9795   -6.4599   22.6259 C   0  0  0  0  0  0  0  0  0  0  0  0
  -21.2127   -5.7533   25.2134 C   0  0  0  0  0  0  0  0  0  0  0  0
  -22.5749   -5.3671   23.2558 C   0  0  0  0  0  0  0  0  0  0  0  0
  -24.4895  -11.9255   20.5748 C   0  0  0  0  0  0  0  0  0  0  0  0
  -24.8659  -14.0914   20.6205 C   0  0  0  0  0  0  0  0  0  0  0  0
  -22.8578  -13.3812   21.9289 C   0  0  0  0  0  0  0  0  0  0  0  0
  -22.6488  -27.5464   21.1931 C   0  0  0  0  0  0  0  0  0  0  0  0
  -25.8303  -28.1157   21.4691 C   0  0  0  0  0  0  0  0  0  0  0  0
  -29.0225  -26.9738   21.0783 C   0  0  0  0  0  0  0  0  0  0  0  0
  -27.6401  -16.1081   16.1210 C   0  0  0  0  0  0  0  0  0  0  0  0
  -19.5477  -31.3161   22.6865 C   0  0  0  0  0  0  0  0  0  0  0  0
  -23.4112  -25.5238   22.4909 C   0  0  0  0  0  0  0  0  0  0  0  0
  -25.1603  -26.0608   20.1676 C   0  0  0  0  0  0  0  0  0  0  0  0
  -20.9294  -31.2291   22.0433 C   0  0  0  0  0  0  0  0  0  0  0  0
  -29.3293  -13.6539   18.2954 C   0  0  0  0  0  0  0  0  0  0  0  0
  -20.9060  -30.2724   20.8555 C   0  0  0  0  0  0  0  0  0  0  0  0
  -28.1679  -13.0396   19.0762 C   0  0  0  0  0  0  0  0  0  0  0  0
  -27.8321  -18.9031   17.9710 C   0  0  0  0  0  0  0  0  0  0  0  0
  -27.8263  -19.4121   16.5141 C   0  0  0  0  0  0  0  0  0  0  0  0
  -28.8946  -14.1349   16.9135 C   0  0  0  0  0  0  0  0  0  0  0  0
  -26.5802  -14.4490   17.7123 C   0  0  0  0  0  0  0  0  0  0  0  0
  -25.4249  -18.1264   18.2370 C   0  0  0  0  0  0  0  0  0  0  0  0
  -25.4183  -18.9295   15.8244 C   0  0  0  0  0  0  0  0  0  0  0  0
  -20.5335  -28.8523   21.2983 C   0  0  1  0  0  0  0  0  0  0  0  0
  -23.7343  -26.9451   22.0403 C   0  0  1  0  0  0  0  0  0  0  0  0
  -26.9716  -14.0058   19.1291 C   0  0  1  0  0  0  0  0  0  0  0  0
  -26.8756  -17.6957   17.9686 C   0  0  1  0  0  0  0  0  0  0  0  0
  -26.8770  -18.4566   15.7757 C   0  0  2  0  0  0  0  0  0  0  0  0
  -31.4148  -27.6803   21.3522 C   0  0  0  0  0  0  0  0  0  0  0  0
  -25.6238  -29.7915   18.9277 C   0  0  0  0  0  0  0  0  0  0  0  0
  -28.1165  -29.6705   18.7286 C   0  0  0  0  0  0  0  0  0  0  0  0
  -27.0774  -30.7740   20.7098 C   0  0  0  0  0  0  0  0  0  0  0  0
  -29.5486  -24.8361   23.0562 C   0  0  0  0  0  0  0  0  0  0  0  0
  -23.5357  -19.5231   17.3667 C   0  0  0  0  0  0  0  0  0  0  0  0
  -23.3016  -20.4159   18.5693 C   0  0  0  0  0  0  0  0  0  1  0  0
  -26.9792  -28.2564   20.5000 C   0  0  1  0  0  0  0  0  0  0  0  0
  -30.2226  -27.0004   22.0074 C   0  0  2  0  0  0  0  0  0  0  0  0
  -26.9336  -29.5993   19.7178 C   0  0  0  0  0  0  0  0  0  0  0  0
  -25.5851  -12.0904   19.8289 N   0  0  0  0  0  0  0  0  0  0  0  0
  -25.7889  -13.4180   19.8756 N   0  0  0  0  0  0  0  0  0  0  0  0
  -24.9741  -27.0243   21.2652 N   0  0  0  0  0  0  0  0  0  0  0  0
  -27.7286  -15.0161   16.9960 N   0  0  0  0  0  0  0  0  0  0  0  0
  -26.9801  -17.2478   16.5815 N   0  0  0  0  0  0  0  0  0  0  0  0
  -24.9222  -15.4315   20.7729 N   0  0  0  0  0  0  0  0  0  0  0  0
  -22.0735  -12.2888   22.3234 N   0  0  0  0  0  0  0  0  0  0  0  0
  -21.6691  -28.2009   21.9152 N   0  0  0  0  0  0  0  0  0  0  0  0
  -28.1968  -28.0597   21.2791 N   0  0  0  0  0  0  0  0  0  0  0  0
  -25.0017  -19.2106   17.2588 N   0  3  0  0  0  0  0  0  0  0  0  0
  -30.6195  -25.6133   22.3809 N   0  3  0  0  0  0  0  0  0  0  0  0
  -22.5348  -14.5350   22.3004 O   0  0  0  0  0  0  0  0  0  0  0  0
  -22.6972  -27.4266   19.9745 O   0  0  0  0  0  0  0  0  0  0  0  0
  -25.7015  -28.9396   22.3780 O   0  0  0  0  0  0  0  0  0  0  0  0
  -28.8379  -26.0810   20.2540 O   0  0  0  0  0  0  0  0  0  0  0  0
  -28.1477  -16.0711   14.9927 O   0  0  0  0  0  0  0  0  0  0  0  0
  -22.3596   -6.8125   21.3418 O   0  0  0  0  0  0  0  0  0  0  0  0
  -24.0194  -21.6319   18.4061 O   0  0  0  0  0  0  0  0  0  1  0  0
  -20.8455   -5.4150   26.4563 F   0  0  0  0  0  0  0  0  0  0  0  0
  -23.5166   -4.6535   22.6235 F   0  0  0  0  0  0  0  0  0  0  0  0
  1  2  1  0  0  0  0
  1  5  2  0  0  0  0
  2  6  2  0  0  0  0
  3  8  2  0  0  0  0
  3 15  1  0  0  0  0
  4  9  1  0  0  0  0
  4 15  2  0  0  0  0
  5 17  1  0  0  0  0
  6 19  1  0  0  0  0
  7 10  2  0  0  0  0
  7 18  1  0  0  0  0
  8 21  1  0  0  0  0
  9 21  2  0  0  0  0
 10 22  1  0  0  0  0
 11 12  2  0  0  0  0
 11 23  1  0  0  0  0
 12 24  1  0  0  0  0
 13 20  1  0  0  0  0
 13 22  2  0  0  0  0
 14 24  2  0  0  0  0
 14 25  1  0  0  0  0
 15 26  1  0  0  0  0
 16 26  1  0  0  0  0
 16 27  2  0  0  0  0
 16 28  1  0  0  0  0
 17 19  2  0  0  0  0
 17 33  1  0  0  0  0
 18 20  2  0  0  0  0
 18 34  1  0  0  0  0
 19 46  1  0  0  0  0
 20 35  1  0  0  0  0
 21 77  1  0  0  0  0
 22 78  1  0  0  0  0
 23 25  2  0  0  0  0
 23 77  1  0  0  0  0
 24 79  1  0  0  0  0
 25 80  1  0  0  0  0
 26 61  2  0  0  0  0
 27 62  1  0  0  0  0
 27 66  1  0  0  0  0
 28 67  1  0  0  0  0
 28 72  2  0  0  0  0
 29 47  1  0  0  0  0
 29 68  1  0  0  0  0
 29 73  2  0  0  0  0
 30 58  1  0  0  0  0
 30 63  1  0  0  0  0
 30 74  2  0  0  0  0
 31 59  1  0  0  0  0
 31 69  1  0  0  0  0
 31 75  2  0  0  0  0
 32 64  1  0  0  0  0
 32 65  1  0  0  0  0
 32 76  2  0  0  0  0
 33 36  1  0  0  0  0
 34 47  1  0  0  0  0
 35 63  1  0  0  0  0
 36 38  1  0  0  0  0
 37 39  1  0  0  0  0
 37 42  1  0  0  0  0
 38 46  1  0  0  0  0
 39 48  1  0  0  0  0
 40 41  1  0  0  0  0
 40 49  1  0  0  0  0
 41 50  1  0  0  0  0
 42 64  1  0  0  0  0
 43 48  1  0  0  0  0
 43 64  1  0  0  0  0
 44 49  1  0  0  0  0
 44 70  1  0  0  0  0
 45 50  1  0  0  0  0
 45 70  1  0  0  0  0
 46 68  1  0  0  0  0
 47 63  1  0  0  0  0
 48 62  1  0  0  0  0
 49 65  1  0  0  0  0
 50 65  1  0  0  0  0
 51 59  1  0  0  0  0
 52 60  1  0  0  0  0
 53 60  1  0  0  0  0
 54 60  1  0  0  0  0
 55 71  1  0  0  0  0
 56 57  1  0  0  0  0
 56 70  1  0  0  0  0
 57 78  1  0  0  0  0
 58 60  1  0  0  0  0
 58 69  1  0  0  0  0
 59 71  1  0  0  0  0
 61 62  1  0  0  0  0
M  CHG  2  70   1  71   1
M  ISO  4  32 100  57 101  65 100  78 101
M  END
> <Batch ID>
0188

> <Smiles>
CNC(C)C(=O)NC(C(=O)N1Cc2cc([101O:1][101CH2:1]CN3CC4CCC(C3)[100N:0]4[100C:0](=O)N3CCCC(n4nc(-c5ccc(Oc6ccc(F)cc6F)cc5)c(C(N)=O)c4N)C3)ccc2CC1C(=O)NC1CCCc2ccccc21)C(C)(C)C

> <Shape>
0.247

> <Color>
0.120

> <Negative vol penalty>
0.000

$$$$

  -OEChem-04052323193D

 81 90  0     1  0  0  0  0  0999 V2000
  -28.3591  -33.9302   25.5822 C   0  0  0  0  0  0  0  0  0  0  0  0
  -28.7537  -32.6140   25.3646 C   0  0  0  0  0  0  0  0  0  0  0  0
  -23.2285   -9.7199   19.9399 C   0  0  0  0  0  0  0  0  0  0  0  0
  -23.9217   -9.8361   22.2514 C   0  0  0  0  0  0  0  0  0  0  0  0
  -27.0847  -34.3469   25.2001 C   0  0  0  0  0  0  0  0  0  0  0  0
  -27.8735  -31.7134   24.7657 C   0  0  0  0  0  0  0  0  0  0  0  0
  -29.3132  -27.1382   20.9577 C   0  0  0  0  0  0  0  0  0  0  0  0
  -22.5620   -8.5225   20.1999 C   0  0  0  0  0  0  0  0  0  0  0  0
  -23.2552   -8.6387   22.5115 C   0  0  0  0  0  0  0  0  0  0  0  0
  -29.4878  -25.7697   21.1594 C   0  0  0  0  0  0  0  0  0  0  0  0
  -20.0765   -7.6254   23.0498 C   0  0  0  0  0  0  0  0  0  0  0  0
  -19.2919   -7.5590   24.2012 C   0  0  0  0  0  0  0  0  0  0  0  0
  -27.2085  -25.3836   20.4703 C   0  0  0  0  0  0  0  0  0  0  0  0
  -20.6472   -5.7340   25.0195 C   0  0  0  0  0  0  0  0  0  0  0  0
  -29.3095  -20.8055   22.6431 C   0  0  0  0  0  0  0  0  0  0  0  0
  -23.9084  -10.3767   20.9656 C   0  0  0  0  0  0  0  0  0  0  0  0
  -24.0727  -12.9163   20.7895 C   0  0  0  0  0  0  0  0  0  0  0  0
  -26.1919  -33.4535   24.5874 C   0  0  0  0  0  0  0  0  0  0  0  0
  -28.0796  -27.6415   20.5206 C   0  0  0  0  0  0  0  0  0  0  0  0
  -26.5854  -32.1182   24.3763 C   0  0  0  0  0  0  0  0  0  0  0  0
  -27.0216  -26.7585   20.2614 C   0  0  0  0  0  0  0  0  0  0  0  0
  -22.5753   -7.9819   21.4857 C   0  0  0  0  0  0  0  0  0  0  0  0
  -28.4345  -24.8925   20.9184 C   0  0  0  0  0  0  0  0  0  0  0  0
  -21.1464   -6.7460   22.8832 C   0  0  0  0  0  0  0  0  0  0  0  0
  -19.5773   -6.6134   25.1860 C   0  0  0  0  0  0  0  0  0  0  0  0
  -21.4318   -5.8003   23.8681 C   0  0  0  0  0  0  0  0  0  0  0  0
  -24.5976  -11.6133   20.6974 C   0  0  0  0  0  0  0  0  0  0  0  0
  -29.8768  -21.6273   21.6965 C   0  0  0  0  0  0  0  0  0  0  0  0
  -25.1184  -13.7335   20.4357 C   0  0  0  0  0  0  0  0  0  0  0  0
  -30.3363  -19.5572   21.1407 C   0  0  0  0  0  0  0  0  0  0  0  0
  -22.7575  -13.3492   21.1617 C   0  0  0  0  0  0  0  0  0  0  0  0
  -25.9143  -29.6316   21.7269 C   0  0  0  0  0  0  0  0  0  0  0  0
  -24.5352  -29.2776   18.8122 C   0  0  0  0  0  0  0  0  0  0  0  0
  -24.1382  -27.3756   16.0066 C   0  0  0  0  0  0  0  0  0  0  0  0
  -30.5082  -15.1485   20.7410 C   0  0  0  0  0  0  0  0  0  0  0  0
  -24.8078  -33.9379   24.2347 C   0  0  0  0  0  0  0  0  0  0  0  0
  -27.9155  -29.1176   20.2822 C   0  0  0  0  0  0  0  0  0  0  0  0
  -25.6835  -27.2463   19.7716 C   0  0  0  0  0  0  0  0  0  0  0  0
  -30.7111  -18.2085   20.6699 C   0  0  0  0  0  0  0  0  0  0  0  0
  -24.0693  -33.0183   23.2656 C   0  0  0  0  0  0  0  0  0  0  0  0
  -29.6104  -12.6322   18.3875 C   0  0  0  0  0  0  0  0  0  0  0  0
  -24.2006  -31.5635   23.7050 C   0  0  0  0  0  0  0  0  0  0  0  0
  -28.1860  -12.2462   18.7902 C   0  0  0  0  0  0  0  0  0  0  0  0
  -29.3620  -18.1903   22.7514 C   0  0  0  0  0  0  0  0  0  0  0  0
  -30.4756  -12.9469   19.6059 C   0  0  0  0  0  0  0  0  0  0  0  0
  -28.4886  -13.5722   20.9230 C   0  0  0  0  0  0  0  0  0  0  0  0
  -25.6679  -31.1181   23.7069 C   0  0  1  0  0  0  0  0  0  0  0  0
  -26.4600  -29.5721   20.3281 C   0  0  1  0  0  0  0  0  0  0  0  0
  -27.5626  -13.3000   19.7252 C   0  0  2  0  0  0  0  0  0  0  0  0
  -30.3861  -17.3271   21.9233 C   0  0  2  0  0  0  0  0  0  0  0  0
  -31.6592  -17.0987   22.7461 C   0  0  0  0  0  0  0  0  0  0  0  0
  -22.9186  -27.3300   13.8139 C   0  0  0  0  0  0  0  0  0  0  0  0
  -21.9631  -28.5070   20.2616 C   0  0  0  0  0  0  0  0  0  0  0  0
  -21.1073  -27.5752   18.1012 C   0  0  0  0  0  0  0  0  0  0  0  0
  -21.6384  -30.0055   18.2859 C   0  0  0  0  0  0  0  0  0  0  0  0
  -26.6666  -27.3568   14.4685 C   0  0  0  0  0  0  0  0  0  0  0  0
  -29.8833  -23.1223   21.5692 C   0  0  0  0  0  0  0  0  0  1  0  0
  -23.5268  -28.3260   18.2151 C   0  0  1  0  0  0  0  0  0  0  0  0
  -24.1978  -27.7310   14.5320 C   0  0  2  0  0  0  0  0  0  0  0  0
  -22.0834  -28.5941   18.7270 C   0  0  0  0  0  0  0  0  0  0  0  0
  -25.8772  -11.5987   20.3150 N   0  0  0  0  0  0  0  0  0  0  0  0
  -29.6197  -19.5329   22.2613 N   0  0  0  0  0  0  0  0  0  0  0  0
  -26.1652  -12.9027   20.1635 N   0  0  0  0  0  0  0  0  0  0  0  0
  -30.5123  -20.8189   20.7687 N   0  3  0  0  0  0  0  0  0  0  0  0
  -25.5706  -28.6988   19.5597 N   0  0  0  0  0  0  0  0  0  0  0  0
  -29.8286  -13.9540   20.4504 N   0  0  0  0  0  0  0  0  0  0  0  0
  -25.2353  -15.0745   20.3339 N   0  0  0  0  0  0  0  0  0  0  0  0
  -21.8039  -12.3779   21.4957 N   0  0  0  0  0  0  0  0  0  0  0  0
  -26.1148  -30.8445   22.3579 N   0  0  0  0  0  0  0  0  0  0  0  0
  -23.6761  -28.4286   16.7675 N   0  0  0  0  0  0  0  0  0  0  0  0
  -29.8211  -16.0517   21.5429 N   0  0  0  0  0  0  0  0  0  0  0  0
  -25.3420  -27.0357   13.8774 N   0  3  0  0  0  0  0  0  0  0  0  0
  -22.4326  -14.5607   21.1811 O   0  0  0  0  0  0  0  0  0  0  0  0
  -25.3517  -28.6503   22.1982 O   0  0  0  0  0  0  0  0  0  0  0  0
  -24.4128  -30.4894   18.6166 O   0  0  0  0  0  0  0  0  0  0  0  0
  -24.4651  -26.2728   16.4398 O   0  0  0  0  0  0  0  0  0  0  0  0
  -31.6409  -15.3944   20.3128 O   0  0  0  0  0  0  0  0  0  0  0  0
  -21.9248   -6.8137   21.7399 O   0  0  0  0  0  0  0  0  0  0  0  0
  -28.6020  -23.5564   21.1151 O   0  0  0  0  0  0  0  0  0  1  0  0
  -18.8247   -6.5508   26.2923 F   0  0  0  0  0  0  0  0  0  0  0  0
  -22.4590   -4.9536   23.7142 F   0  0  0  0  0  0  0  0  0  0  0  0
  1  2  1  0  0  0  0
  1  5  2  0  0  0  0
  2  6  2  0  0  0  0
  3  8  2  0  0  0  0
  3 16  1  0  0  0  0
  4  9  1  0  0  0  0
  4 16  2  0  0  0  0
  5 18  1  0  0  0  0
  6 20  1  0  0  0  0
  7 10  2  0  0  0  0
  7 19  1  0  0  0  0
  8 22  1  0  0  0  0
  9 22  2  0  0  0  0
 10 23  1  0  0  0  0
 11 12  2  0  0  0  0
 11 24  1  0  0  0  0
 12 25  1  0  0  0  0
 13 21  1  0  0  0  0
 13 23  2  0  0  0  0
 14 25  2  0  0  0  0
 14 26  1  0  0  0  0
 15 28  2  0  0  0  0
 15 62  1  0  0  0  0
 16 27  1  0  0  0  0
 17 27  1  0  0  0  0
 17 29  2  0  0  0  0
 17 31  1  0  0  0  0
 18 20  2  0  0  0  0
 18 36  1  0  0  0  0
 19 21  2  0  0  0  0
 19 37  1  0  0  0  0
 20 47  1  0  0  0  0
 21 38  1  0  0  0  0
 22 78  1  0  0  0  0
 23 79  1  0  0  0  0
 24 26  2  0  0  0  0
 24 78  1  0  0  0  0
 25 80  1  0  0  0  0
 26 81  1  0  0  0  0
 27 61  2  0  0  0  0
 28 57  1  0  0  0  0
 28 64  1  0  0  0  0
 29 63  1  0  0  0  0
 29 67  1  0  0  0  0
 30 39  1  0  0  0  0
 30 62  1  0  0  0  0
 30 64  2  0  0  0  0
 31 68  1  0  0  0  0
 31 73  2  0  0  0  0
 32 48  1  0  0  0  0
 32 69  1  0  0  0  0
 32 74  2  0  0  0  0
 33 58  1  0  0  0  0
 33 65  1  0  0  0  0
 33 75  2  0  0  0  0
 34 59  1  0  0  0  0
 34 70  1  0  0  0  0
 34 76  2  0  0  0  0
 35 66  1  0  0  0  0
 35 71  1  0  0  0  0
 35 77  2  0  0  0  0
 36 40  1  0  0  0  0
 37 48  1  0  0  0  0
 38 65  1  0  0  0  0
 39 50  1  0  0  0  0
 40 42  1  0  0  0  0
 41 43  1  0  0  0  0
 41 45  1  0  0  0  0
 42 47  1  0  0  0  0
 43 49  1  0  0  0  0
 44 50  1  0  0  0  0
 44 62  1  0  0  0  0
 45 66  1  0  0  0  0
 46 49  1  0  0  0  0
 46 66  1  0  0  0  0
 47 69  1  0  0  0  0
 48 65  1  0  0  0  0
 49 63  1  0  0  0  0
 50 51  1  0  0  0  0
 50 71  1  0  0  0  0
 52 59  1  0  0  0  0
 53 60  1  0  0  0  0
 54 60  1  0  0  0  0
 55 60  1  0  0  0  0
 56 72  1  0  0  0  0
 57 79  1  0  0  0  0
 58 60  1  0  0  0  0
 58 70  1  0  0  0  0
 59 72  1  0  0  0  0
 61 63  1  0  0  0  0
M  CHG  2  64   1  72   1
M  ISO  4  35 100  57 101  71 100  79 101
M  END
> <Batch ID>
0188

> <Smiles>
CNC(C)C(=O)NC(C(=O)N1Cc2cc([101O:1][101CH2:1]c3cn4c(n3)CC(C)([100NH:0][100C:0](=O)N3CCCC(n5nc(-c6ccc(Oc7ccc(F)cc7F)cc6)c(C(N)=O)c5N)C3)C4)ccc2CC1C(=O)NC1CCCc2ccccc21)C(C)(C)C

> <Shape>
0.356

> <Color>
0.188

> <Negative vol penalty>
0.000

$$$$

  -OEChem-04052323193D

 83 92  0     1  0  0  0  0  0999 V2000
  -27.8863  -24.0456   17.2774 C   0  0  0  0  0  0  0  0  0  0  0  0
  -26.7923  -24.8646   17.5329 C   0  0  0  0  0  0  0  0  0  0  0  0
  -26.6431  -14.4354   22.4891 C   0  0  0  0  0  0  0  0  0  0  0  0
  -27.3351  -14.8398   20.2099 C   0  0  0  0  0  0  0  0  0  0  0  0
  -28.9680  -24.0398   18.1555 C   0  0  0  0  0  0  0  0  0  0  0  0
  -26.7847  -25.6869   18.6602 C   0  0  0  0  0  0  0  0  0  0  0  0
  -23.0585  -28.8718   19.0783 C   0  0  0  0  0  0  0  0  0  0  0  0
  -26.2021  -13.1620   22.1293 C   0  0  0  0  0  0  0  0  0  0  0  0
  -26.8941  -13.5663   19.8501 C   0  0  0  0  0  0  0  0  0  0  0  0
  -21.7579  -28.4741   19.3849 C   0  0  0  0  0  0  0  0  0  0  0  0
  -24.5654   -9.9388   21.7337 C   0  0  0  0  0  0  0  0  0  0  0  0
  -23.3212   -9.5237   22.2082 C   0  0  0  0  0  0  0  0  0  0  0  0
  -22.0605  -29.2506   21.6487 C   0  0  0  0  0  0  0  0  0  0  0  0
  -22.2694  -11.3793   21.0735 C   0  0  0  0  0  0  0  0  0  0  0  0
  -27.2095  -15.2744   21.5294 C   0  0  0  0  0  0  0  0  0  0  0  0
  -28.9483  -16.9492   22.3535 C   0  0  0  0  0  0  0  0  0  0  0  0
  -28.9675  -24.8534   19.3004 C   0  0  0  0  0  0  0  0  0  0  0  0
  -23.8750  -29.4529   20.0592 C   0  0  0  0  0  0  0  0  0  0  0  0
  -27.8773  -25.7130   19.5457 C   0  0  0  0  0  0  0  0  0  0  0  0
  -23.3703  -29.6571   21.3513 C   0  0  0  0  0  0  0  0  0  0  0  0
  -26.3276  -12.7274   20.8098 C   0  0  0  0  0  0  0  0  0  0  0  0
  -21.2597  -28.6609   20.6710 C   0  0  0  0  0  0  0  0  0  0  0  0
  -24.6617  -11.0743   20.9292 C   0  0  0  0  0  0  0  0  0  0  0  0
  -22.1732  -10.2439   21.8780 C   0  0  0  0  0  0  0  0  0  0  0  0
  -23.5137  -11.7945   20.5991 C   0  0  0  0  0  0  0  0  0  0  0  0
  -27.6647  -16.5902   21.9003 C   0  0  0  0  0  0  0  0  0  0  0  0
  -28.8699  -18.3034   22.5691 C   0  0  0  0  0  0  0  0  0  0  0  0
  -19.2124  -26.2544   24.6879 C   0  0  0  0  0  0  0  0  0  0  0  0
  -20.0407  -25.0826   24.7684 C   0  0  0  0  0  0  0  0  0  0  0  0
  -18.7271  -26.6430   23.5054 C   0  0  0  0  0  0  0  0  0  0  0  0
  -20.3441  -24.3598   23.6792 C   0  0  0  0  0  0  0  0  0  0  0  0
  -19.8018  -24.7907   22.3409 C   0  0  0  0  0  0  0  0  0  0  0  0
  -30.1078  -16.1318   22.5610 C   0  0  0  0  0  0  0  0  0  0  0  0
  -26.6343  -28.6731   21.4312 C   0  0  0  0  0  0  0  0  0  0  0  0
  -26.3293  -31.5954   22.8059 C   0  0  0  0  0  0  0  0  0  0  0  0
  -24.2715  -34.1345   23.7882 C   0  0  0  0  0  0  0  0  0  0  0  0
  -24.2170  -21.7443   23.8478 C   0  0  0  0  0  0  0  0  0  0  0  0
  -30.1679  -24.8136   20.2130 C   0  0  0  0  0  0  0  0  0  0  0  0
  -25.2666  -29.9009   19.7054 C   0  0  0  0  0  0  0  0  0  0  0  0
  -24.1994  -30.2949   22.4350 C   0  0  0  0  0  0  0  0  0  0  0  0
  -29.8792  -25.3784   21.6000 C   0  0  0  0  0  0  0  0  0  0  0  0
  -26.5897  -22.2175   21.0949 C   0  0  0  0  0  0  0  0  0  0  0  0
  -29.1935  -26.7310   21.4780 C   0  0  0  0  0  0  0  0  0  0  0  0
  -27.2103  -20.8275   21.0014 C   0  0  0  0  0  0  0  0  0  0  0  0
  -25.1152  -22.1702   21.4976 C   0  0  0  0  0  0  0  0  0  0  0  0
  -22.2228  -22.9607   22.6639 C   0  0  0  0  0  0  0  0  0  0  0  0
  -22.3860  -23.2752   24.7590 C   0  0  0  0  0  0  0  0  0  0  0  0
  -25.4875  -20.0022   22.6434 C   0  0  0  0  0  0  0  0  0  0  0  0
  -27.8337  -26.5931   20.7817 C   0  0  1  0  0  0  0  0  0  0  0  0
  -21.1948  -23.1612   23.7928 C   0  0  0  0  0  0  0  0  0  0  0  0
  -26.1850  -30.0121   20.9185 C   0  0  1  0  0  0  0  0  0  0  0  0
  -26.9842  -20.0479   22.3053 C   0  0  1  0  0  0  0  0  0  0  0  0
  -24.3084  -36.3750   24.9180 C   0  0  0  0  0  0  0  0  0  0  0  0
  -26.6949  -30.2245   25.5071 C   0  0  0  0  0  0  0  0  0  0  0  0
  -25.7905  -32.2883   26.5985 C   0  0  0  0  0  0  0  0  0  0  0  0
  -27.8997  -32.4033   25.2715 C   0  0  0  0  0  0  0  0  0  0  0  0
  -23.1732  -35.4882   21.3965 C   0  0  0  0  0  0  0  0  0  0  0  0
  -18.4277  -26.4457   21.1022 C   0  0  0  0  0  0  0  0  0  0  0  0
  -19.4609  -27.1627   20.2517 C   0  0  0  0  0  0  0  0  0  1  0  0
  -25.6932  -32.1211   24.0700 C   0  0  1  0  0  0  0  0  0  0  0  0
  -24.3598  -35.6369   23.5894 C   0  0  2  0  0  0  0  0  0  0  0  0
  -26.5043  -31.7455   25.3421 C   0  0  0  0  0  0  0  0  0  0  0  0
  -26.8319  -17.6321   21.8317 N   0  0  0  0  0  0  0  0  0  0  0  0
  -27.5938  -18.6592   22.2448 N   0  0  0  0  0  0  0  0  0  0  0  0
  -19.0027  -25.9430   22.3448 N   0  0  0  0  0  0  0  0  0  0  0  0
  -25.5559  -30.7102   22.0415 N   0  0  0  0  0  0  0  0  0  0  0  0
  -24.9001  -21.3463   22.6933 N   0  0  0  0  0  0  0  0  0  0  0  0
  -23.1794  -22.6368   23.7124 N   0  0  0  0  0  0  0  0  0  0  0  0
  -29.7687  -19.2126   23.0025 N   0  0  0  0  0  0  0  0  0  0  0  0
  -30.0151  -14.7598   22.2903 N   0  0  0  0  0  0  0  0  0  0  0  0
  -27.3125  -27.9122   20.4983 N   0  0  0  0  0  0  0  0  0  0  0  0
  -25.5204  -33.5563   23.8736 N   0  0  0  0  0  0  0  0  0  0  0  0
  -23.2305  -36.1145   22.7424 N   0  3  0  0  0  0  0  0  0  0  0  0
  -20.0780  -24.1303   21.3397 O   0  0  0  0  0  0  0  0  0  0  0  0
  -31.1890  -16.6013   22.9899 O   0  0  0  0  0  0  0  0  0  0  0  0
  -26.3853  -28.3545   22.5880 O   0  0  0  0  0  0  0  0  0  0  0  0
  -27.4676  -31.9624   22.5039 O   0  0  0  0  0  0  0  0  0  0  0  0
  -23.2016  -33.5344   23.8643 O   0  0  0  0  0  0  0  0  0  0  0  0
  -24.5034  -21.2934   24.9648 O   0  0  0  0  0  0  0  0  0  0  0  0
  -25.8976  -11.4848   20.4584 O   0  0  0  0  0  0  0  0  0  0  0  0
  -19.9818  -28.2703   20.9752 O   0  0  0  0  0  0  0  0  0  1  0  0
  -20.9782   -9.8442   22.3324 F   0  0  0  0  0  0  0  0  0  0  0  0
  -23.5997  -12.8854   19.8256 F   0  0  0  0  0  0  0  0  0  0  0  0
  1  2  1  0  0  0  0
  1  5  2  0  0  0  0
  2  6  2  0  0  0  0
  3  8  2  0  0  0  0
  3 15  1  0  0  0  0
  4  9  1  0  0  0  0
  4 15  2  0  0  0  0
  5 17  1  0  0  0  0
  6 19  1  0  0  0  0
  7 10  2  0  0  0  0
  7 18  1  0  0  0  0
  8 21  1  0  0  0  0
  9 21  2  0  0  0  0
 10 22  1  0  0  0  0
 11 12  2  0  0  0  0
 11 23  1  0  0  0  0
 12 24  1  0  0  0  0
 13 20  1  0  0  0  0
 13 22  2  0  0  0  0
 14 24  2  0  0  0  0
 14 25  1  0  0  0  0
 15 26  1  0  0  0  0
 16 26  1  0  0  0  0
 16 27  2  0  0  0  0
 16 33  1  0  0  0  0
 17 19  2  0  0  0  0
 17 38  1  0  0  0  0
 18 20  2  0  0  0  0
 18 39  1  0  0  0  0
 19 49  1  0  0  0  0
 20 40  1  0  0  0  0
 21 80  1  0  0  0  0
 22 81  1  0  0  0  0
 23 25  2  0  0  0  0
 23 80  1  0  0  0  0
 24 82  1  0  0  0  0
 25 83  1  0  0  0  0
 26 63  2  0  0  0  0
 27 64  1  0  0  0  0
 27 69  1  0  0  0  0
 28 29  1  0  0  0  0
 28 30  2  0  0  0  0
 29 31  2  0  0  0  0
 30 65  1  0  0  0  0
 31 32  1  0  0  0  0
 31 50  1  0  0  0  0
 32 65  1  0  0  0  0
 32 74  2  0  0  0  0
 33 70  1  0  0  0  0
 33 75  2  0  0  0  0
 34 51  1  0  0  0  0
 34 71  1  0  0  0  0
 34 76  2  0  0  0  0
 35 60  1  0  0  0  0
 35 66  1  0  0  0  0
 35 77  2  0  0  0  0
 36 61  1  0  0  0  0
 36 72  1  0  0  0  0
 36 78  2  0  0  0  0
 37 67  1  0  0  0  0
 37 68  1  0  0  0  0
 37 79  2  0  0  0  0
 38 41  1  0  0  0  0
 39 51  1  0  0  0  0
 40 66  1  0  0  0  0
 41 43  1  0  0  0  0
 42 44  1  0  0  0  0
 42 45  1  0  0  0  0
 43 49  1  0  0  0  0
 44 52  1  0  0  0  0
 45 67  1  0  0  0  0
 46 50  1  0  0  0  0
 46 68  1  0  0  0  0
 47 50  1  0  0  0  0
 47 68  1  0  0  0  0
 48 52  1  0  0  0  0
 48 67  1  0  0  0  0
 49 71  1  0  0  0  0
 51 66  1  0  0  0  0
 52 64  1  0  0  0  0
 53 61  1  0  0  0  0
 54 62  1  0  0  0  0
 55 62  1  0  0  0  0
 56 62  1  0  0  0  0
 57 73  1  0  0  0  0
 58 59  1  0  0  0  0
 58 65  1  0  0  0  0
 59 81  1  0  0  0  0
 60 62  1  0  0  0  0
 60 72  1  0  0  0  0
 61 73  1  0  0  0  0
 63 64  1  0  0  0  0
M  CHG  1  73   1
M  ISO  4  37 100  59 101  68 100  81 101
M  END
> <Batch ID>
0188

> <Smiles>
CNC(C)C(=O)NC(C(=O)N1Cc2cc([101O:1][101CH2:1]Cn3cccc(C4C[100N:0]([100C:0](=O)N5CCCC(n6nc(-c7ccc(Oc8ccc(F)cc8F)cc7)c(C(N)=O)c6N)C5)C4)c3=O)ccc2CC1C(=O)NC1CCCc2ccccc21)C(C)(C)C

> <Shape>
0.294

> <Color>
0.075

> <Negative vol penalty>
0.000

$$$$

  -OEChem-04052323193D

 84 93  0     1  0  0  0  0  0999 V2000
  -27.3921  -34.7672   24.1903 C   0  0  0  0  0  0  0  0  0  0  0  0
  -27.6916  -33.4660   23.7996 C   0  0  0  0  0  0  0  0  0  0  0  0
  -20.9964  -13.0845   23.1241 C   0  0  0  0  0  0  0  0  0  0  0  0
  -21.7967  -11.2836   21.7265 C   0  0  0  0  0  0  0  0  0  0  0  0
  -26.1217  -35.0728   24.6766 C   0  0  0  0  0  0  0  0  0  0  0  0
  -26.7210  -32.4694   23.8961 C   0  0  0  0  0  0  0  0  0  0  0  0
  -26.5194  -29.5474   19.7650 C   0  0  0  0  0  0  0  0  0  0  0  0
  -20.1620  -12.1918   23.7966 C   0  0  0  0  0  0  0  0  0  0  0  0
  -20.9623  -10.3908   22.3991 C   0  0  0  0  0  0  0  0  0  0  0  0
  -27.5019  -28.5675   19.6296 C   0  0  0  0  0  0  0  0  0  0  0  0
  -20.9613   -8.7122   25.3321 C   0  0  0  0  0  0  0  0  0  0  0  0
  -21.5019   -7.4845   25.7141 C   0  0  0  0  0  0  0  0  0  0  0  0
  -25.9463  -26.9060   20.4290 C   0  0  0  0  0  0  0  0  0  0  0  0
  -19.8522   -6.3399   24.3705 C   0  0  0  0  0  0  0  0  0  0  0  0
  -21.8138  -12.6304   22.0889 C   0  0  0  0  0  0  0  0  0  0  0  0
  -24.0030  -13.8874   21.7213 C   0  0  0  0  0  0  0  0  0  0  0  0
  -25.1321  -34.0815   24.7701 C   0  0  0  0  0  0  0  0  0  0  0  0
  -25.2442  -29.2153   20.2445 C   0  0  0  0  0  0  0  0  0  0  0  0
  -25.4366  -32.7618   24.3855 C   0  0  0  0  0  0  0  0  0  0  0  0
  -24.9487  -27.8831   20.5671 C   0  0  0  0  0  0  0  0  0  0  0  0
  -20.1449  -10.8450   23.4341 C   0  0  0  0  0  0  0  0  0  0  0  0
  -27.2163  -27.2471   19.9644 C   0  0  0  0  0  0  0  0  0  0  0  0
  -19.8660   -8.7538   24.4693 C   0  0  0  0  0  0  0  0  0  0  0  0
  -20.9474   -6.2983   25.2333 C   0  0  0  0  0  0  0  0  0  0  0  0
  -19.3115   -7.5677   23.9885 C   0  0  0  0  0  0  0  0  0  0  0  0
  -22.6756  -13.5522   21.3934 C   0  0  0  0  0  0  0  0  0  0  0  0
  -24.3747  -14.7965   20.7612 C   0  0  0  0  0  0  0  0  0  0  0  0
  -27.9581  -23.5032   22.6778 C   0  0  0  0  0  0  0  0  0  0  0  0
  -26.8858  -23.0385   20.9483 C   0  0  0  0  0  0  0  0  0  0  0  0
  -24.8264  -13.4188   22.7975 C   0  0  0  0  0  0  0  0  0  0  0  0
  -23.5136  -30.0470   22.7777 C   0  0  0  0  0  0  0  0  0  0  0  0
  -21.2171  -28.3005   21.2950 C   0  0  0  0  0  0  0  0  0  0  0  0
  -20.4387  -25.8168   19.0877 C   0  0  0  0  0  0  0  0  0  0  0  0
  -23.0020  -19.4420   17.8607 C   0  0  0  0  0  0  0  0  0  0  0  0
  -23.7879  -34.4497   25.3464 C   0  0  0  0  0  0  0  0  0  0  0  0
  -24.1873  -30.2794   20.3595 C   0  0  0  0  0  0  0  0  0  0  0  0
  -23.5890  -27.4712   21.0672 C   0  0  0  0  0  0  0  0  0  0  0  0
  -22.7007  -33.4156   25.0654 C   0  0  0  0  0  0  0  0  0  0  0  0
  -22.1094  -16.1710   16.4548 C   0  0  0  0  0  0  0  0  0  0  0  0
  -23.2144  -32.0088   25.3553 C   0  0  0  0  0  0  0  0  0  0  0  0
  -22.2416  -15.2373   17.6587 C   0  0  0  0  0  0  0  0  0  0  0  0
  -26.0141  -20.0832   19.8690 C   0  0  0  0  0  0  0  0  0  0  0  0
  -21.7124  -17.5859   16.8696 C   0  0  0  0  0  0  0  0  0  0  0  0
  -24.9019  -19.0910   19.5454 C   0  0  0  0  0  0  0  0  0  0  0  0
  -22.7074  -17.2539   19.0995 C   0  0  0  0  0  0  0  0  0  0  0  0
  -24.1809  -21.3110   18.9824 C   0  0  0  0  0  0  0  0  0  0  0  0
  -24.4030  -31.6585   24.4519 C   0  0  1  0  0  0  0  0  0  0  0  0
  -23.0802  -29.9179   21.3448 C   0  0  1  0  0  0  0  0  0  0  0  0
  -23.1722  -15.8388   18.7284 C   0  0  1  0  0  0  0  0  0  0  0  0
  -25.2394  -21.3806   20.0729 C   0  0  2  0  0  0  0  0  0  0  0  0
  -28.4595  -23.4198   24.0546 C   0  0  0  0  0  0  0  0  0  0  0  0
  -18.4781  -24.5905   18.1133 C   0  0  0  0  0  0  0  0  0  0  0  0
  -28.8797  -24.3451   18.6424 C   0  0  0  0  0  0  0  0  0  0  0  0
  -20.9163  -26.7243   23.8902 C   0  0  0  0  0  0  0  0  0  0  0  0
  -19.6875  -24.9665   22.5986 C   0  0  0  0  0  0  0  0  0  0  0  0
  -18.7604  -27.2774   22.7498 C   0  0  0  0  0  0  0  0  0  0  0  0
  -21.1021  -26.7010   16.3423 C   0  0  0  0  0  0  0  0  0  0  0  0
  -20.7973  -26.8505   21.3142 C   0  0  1  0  0  0  0  0  0  0  0  0
  -19.4371  -25.7592   17.9484 C   0  0  2  0  0  0  0  0  0  0  0  0
  -27.7888  -24.9334   19.5401 C   0  0  1  0  0  0  0  0  0  1  0  0
  -20.0667  -26.4625   22.6306 C   0  0  0  0  0  0  0  0  0  0  0  0
  -22.2338  -14.1961   20.3098 N   0  0  0  0  0  0  0  0  0  0  0  0
  -27.0543  -22.6101   22.1777 N   0  0  0  0  0  0  0  0  0  0  0  0
  -28.3594  -24.4573   21.8352 N   0  0  0  0  0  0  0  0  0  0  0  0
  -23.2895  -14.9451   19.9485 N   0  0  0  0  0  0  0  0  0  0  0  0
  -27.6588  -24.1373   20.7366 N   0  0  0  0  0  0  0  0  0  0  0  0
  -22.5912  -28.5490   21.1683 N   0  0  0  0  0  0  0  0  0  0  0  0
  -22.6088  -18.0999   17.9054 N   0  0  0  0  0  0  0  0  0  0  0  0
  -23.8983  -19.8855   18.8323 N   0  0  0  0  0  0  0  0  0  0  0  0
  -25.5207  -15.4754   20.5414 N   0  0  0  0  0  0  0  0  0  0  0  0
  -24.2877  -12.4852   23.6933 N   0  0  0  0  0  0  0  0  0  0  0  0
  -26.0818  -22.5389   19.9327 N   0  0  0  0  0  0  0  0  0  0  0  0
  -23.9438  -31.3138   23.1235 N   0  0  0  0  0  0  0  0  0  0  0  0
  -20.0062  -26.6387   20.1069 N   0  0  0  0  0  0  0  0  0  0  0  0
  -20.1435  -25.6072   16.6450 N   0  3  0  0  0  0  0  0  0  0  0  0
  -25.9994  -13.8285   22.9694 O   0  0  0  0  0  0  0  0  0  0  0  0
  -23.4602  -29.0699   23.5154 O   0  0  0  0  0  0  0  0  0  0  0  0
  -20.3569  -29.1803   21.3819 O   0  0  0  0  0  0  0  0  0  0  0  0
  -21.4971  -25.1922   19.0764 O   0  0  0  0  0  0  0  0  0  0  0  0
  -22.6070  -20.1994   16.9645 O   0  0  0  0  0  0  0  0  0  0  0  0
  -19.3309   -9.9736   24.0903 O   0  0  0  0  0  0  0  0  0  0  0  0
  -28.1793  -26.2830   19.8331 O   0  0  0  0  0  0  0  0  0  1  0  0
  -21.4677   -5.1195   25.5990 F   0  0  0  0  0  0  0  0  0  0  0  0
  -18.2600   -7.6014   23.1584 F   0  0  0  0  0  0  0  0  0  0  0  0
  1  2  1  0  0  0  0
  1  5  2  0  0  0  0
  2  6  2  0  0  0  0
  3  8  2  0  0  0  0
  3 15  1  0  0  0  0
  4  9  1  0  0  0  0
  4 15  2  0  0  0  0
  5 17  1  0  0  0  0
  6 19  1  0  0  0  0
  7 10  2  0  0  0  0
  7 18  1  0  0  0  0
  8 21  1  0  0  0  0
  9 21  2  0  0  0  0
 10 22  1  0  0  0  0
 11 12  2  0  0  0  0
 11 23  1  0  0  0  0
 12 24  1  0  0  0  0
 13 20  1  0  0  0  0
 13 22  2  0  0  0  0
 14 24  2  0  0  0  0
 14 25  1  0  0  0  0
 15 26  1  0  0  0  0
 16 26  1  0  0  0  0
 16 27  2  0  0  0  0
 16 30  1  0  0  0  0
 17 19  2  0  0  0  0
 17 35  1  0  0  0  0
 18 20  2  0  0  0  0
 18 36  1  0  0  0  0
 19 47  1  0  0  0  0
 20 37  1  0  0  0  0
 21 81  1  0  0  0  0
 22 82  1  0  0  0  0
 23 25  2  0  0  0  0
 23 81  1  0  0  0  0
 24 83  1  0  0  0  0
 25 84  1  0  0  0  0
 26 62  2  0  0  0  0
 27 65  1  0  0  0  0
 27 70  1  0  0  0  0
 28 51  1  0  0  0  0
 28 63  1  0  0  0  0
 28 64  2  0  0  0  0
 29 63  2  0  0  0  0
 29 66  1  0  0  0  0
 29 72  1  0  0  0  0
 30 71  1  0  0  0  0
 30 76  2  0  0  0  0
 31 48  1  0  0  0  0
 31 73  1  0  0  0  0
 31 77  2  0  0  0  0
 32 58  1  0  0  0  0
 32 67  1  0  0  0  0
 32 78  2  0  0  0  0
 33 59  1  0  0  0  0
 33 74  1  0  0  0  0
 33 79  2  0  0  0  0
 34 68  1  0  0  0  0
 34 69  1  0  0  0  0
 34 80  2  0  0  0  0
 35 38  1  0  0  0  0
 36 48  1  0  0  0  0
 37 67  1  0  0  0  0
 38 40  1  0  0  0  0
 39 41  1  0  0  0  0
 39 43  1  0  0  0  0
 40 47  1  0  0  0  0
 41 49  1  0  0  0  0
 42 44  1  0  0  0  0
 42 50  1  0  0  0  0
 43 68  1  0  0  0  0
 44 69  1  0  0  0  0
 45 49  1  0  0  0  0
 45 68  1  0  0  0  0
 46 50  1  0  0  0  0
 46 69  1  0  0  0  0
 47 73  1  0  0  0  0
 48 67  1  0  0  0  0
 49 65  1  0  0  0  0
 50 72  1  0  0  0  0
 52 59  1  0  0  0  0
 53 60  1  0  0  0  0
 54 61  1  0  0  0  0
 55 61  1  0  0  0  0
 56 61  1  0  0  0  0
 57 75  1  0  0  0  0
 58 61  1  0  0  0  0
 58 74  1  0  0  0  0
 59 75  1  0  0  0  0
 60 66  1  0  0  0  0
 60 82  1  0  0  0  0
 62 65  1  0  0  0  0
 64 66  1  0  0  0  0
M  CHG  1  75   1
M  ISO  4  34 100  60 101  69 100  82 101
M  END
> <Batch ID>
0188

> <Smiles>
CNC(C)C(=O)NC(C(=O)N1Cc2cc([101O:1][101CH:1](C)n3nc(C)nc3NC3CC[100N:0]([100C:0](=O)N4CCCC(n5nc(-c6ccc(Oc7ccc(F)cc7F)cc6)c(C(N)=O)c5N)C4)C3)ccc2CC1C(=O)NC1CCCc2ccccc21)C(C)(C)C

> <Shape>
0.211

> <Color>
0.102

> <Negative vol penalty>
0.000

$$$$

  -OEChem-04052323193D

 86 96  0     1  0  0  0  0  0999 V2000
  -25.1882  -37.5760   23.8765 C   0  0  0  0  0  0  0  0  0  0  0  0
  -25.9829  -36.8115   23.0284 C   0  0  0  0  0  0  0  0  0  0  0  0
  -24.7034   -9.6382   21.6186 C   0  0  0  0  0  0  0  0  0  0  0  0
  -22.8673  -10.7611   20.5209 C   0  0  0  0  0  0  0  0  0  0  0  0
  -24.4238  -36.9537   24.8626 C   0  0  0  0  0  0  0  0  0  0  0  0
  -26.0145  -35.4243   23.1665 C   0  0  0  0  0  0  0  0  0  0  0  0
  -26.7109  -29.4421   19.2879 C   0  0  0  0  0  0  0  0  0  0  0  0
  -23.8011   -8.9785   22.4530 C   0  0  0  0  0  0  0  0  0  0  0  0
  -21.9650  -10.1013   21.3552 C   0  0  0  0  0  0  0  0  0  0  0  0
  -27.4638  -28.2695   19.2423 C   0  0  0  0  0  0  0  0  0  0  0  0
  -21.9584   -6.7258   24.6312 C   0  0  0  0  0  0  0  0  0  0  0  0
  -22.1483   -5.3599   24.8407 C   0  0  0  0  0  0  0  0  0  0  0  0
  -26.0406  -27.2973   20.9300 C   0  0  0  0  0  0  0  0  0  0  0  0
  -21.8993   -4.9618   22.4707 C   0  0  0  0  0  0  0  0  0  0  0  0
  -31.4651  -23.3794   19.6667 C   0  0  0  0  0  0  0  0  0  0  0  0
  -24.2365  -10.5296   20.6526 C   0  0  0  0  0  0  0  0  0  0  0  0
  -25.6474  -10.7747   18.5414 C   0  0  0  0  0  0  0  0  0  0  0  0
  -24.4386  -35.5574   25.0067 C   0  0  0  0  0  0  0  0  0  0  0  0
  -25.6220  -29.5552   20.1642 C   0  0  0  0  0  0  0  0  0  0  0  0
  -25.2506  -34.7829   24.1563 C   0  0  0  0  0  0  0  0  0  0  0  0
  -25.2739  -28.4714   20.9830 C   0  0  0  0  0  0  0  0  0  0  0  0
  -28.8851  -23.4795   18.9294 C   0  0  0  0  0  0  0  0  0  0  0  0
  -22.4319   -9.2099   22.3213 C   0  0  0  0  0  0  0  0  0  0  0  0
  -27.1304  -27.1979   20.0655 C   0  0  0  0  0  0  0  0  0  0  0  0
  -21.7388   -7.2097   23.3415 C   0  0  0  0  0  0  0  0  0  0  0  0
  -22.1188   -4.4779   23.7605 C   0  0  0  0  0  0  0  0  0  0  0  0
  -21.7093   -6.3277   22.2613 C   0  0  0  0  0  0  0  0  0  0  0  0
  -25.1681  -11.2119   19.7908 C   0  0  0  0  0  0  0  0  0  0  0  0
  -29.6125  -24.6168   19.2153 C   0  0  0  0  0  0  0  0  0  0  0  0
  -29.5702  -22.2874   19.0471 C   0  0  0  0  0  0  0  0  0  0  0  0
  -26.4999  -11.7711   18.1329 C   0  0  0  0  0  0  0  0  0  0  0  0
  -25.3486   -9.5751   17.8151 C   0  0  0  0  0  0  0  0  0  0  0  0
  -24.9079  -31.4385   22.6232 C   0  0  0  0  0  0  0  0  0  0  0  0
  -22.0535  -29.9054   22.4666 C   0  0  0  0  0  0  0  0  0  0  0  0
  -20.2998  -27.1382   21.5106 C   0  0  0  0  0  0  0  0  0  0  0  0
  -27.1156  -17.3120   18.1214 C   0  0  0  0  0  0  0  0  0  0  0  0
  -23.6319  -34.9337   26.1179 C   0  0  0  0  0  0  0  0  0  0  0  0
  -24.8036  -30.8171   20.1821 C   0  0  0  0  0  0  0  0  0  0  0  0
  -24.1018  -28.5348   21.9267 C   0  0  0  0  0  0  0  0  0  0  0  0
  -23.4326  -33.4290   25.9554 C   0  0  0  0  0  0  0  0  0  0  0  0
  -28.9832  -15.3902   20.3926 C   0  0  0  0  0  0  0  0  0  0  0  0
  -27.0297  -22.9004   17.2276 C   0  0  0  0  0  0  0  0  0  0  0  0
  -27.0645  -24.3926   17.3389 C   0  0  0  0  0  0  0  0  0  0  0  0
  -24.7511  -32.7517   25.5952 C   0  0  0  0  0  0  0  0  0  0  0  0
  -28.2341  -14.0586   20.3517 C   0  0  0  0  0  0  0  0  0  0  0  0
  -28.0290  -16.5854   20.3704 C   0  0  0  0  0  0  0  0  0  0  0  0
  -29.3727  -20.2232   17.6950 C   0  0  0  0  0  0  0  0  0  0  0  0
  -28.1704  -20.4466   19.8746 C   0  0  0  0  0  0  0  0  0  0  0  0
  -28.2704  -19.2888   17.2036 C   0  0  0  0  0  0  0  0  0  0  0  0
  -27.0842  -19.5194   19.3405 C   0  0  0  0  0  0  0  0  0  0  0  0
  -26.3169  -15.2327   19.2057 C   0  0  0  0  0  0  0  0  0  0  0  0
  -27.4525  -23.5447   18.5221 C   0  0  0  0  0  0  0  0  0  0  0  0
  -25.2924  -33.2737   24.2588 C   0  0  1  0  0  0  0  0  0  0  0  0
  -24.0293  -31.0087   21.4826 C   0  0  1  0  0  0  0  0  0  0  0  0
  -27.2517  -14.0137   19.1679 C   0  0  2  0  0  0  0  0  0  0  0  0
  -17.9897  -26.1588   21.5511 C   0  0  0  0  0  0  0  0  0  0  0  0
  -22.3899  -29.2407   25.4255 C   0  0  0  0  0  0  0  0  0  0  0  0
  -20.5977  -27.5114   25.1692 C   0  0  0  0  0  0  0  0  0  0  0  0
  -20.0745  -29.9167   24.7648 C   0  0  0  0  0  0  0  0  0  0  0  0
  -20.1666  -27.0337   18.5559 C   0  0  0  0  0  0  0  0  0  0  0  0
  -28.9785  -25.9661   19.1244 C   0  0  0  0  0  0  0  0  0  1  0  0
  -21.4772  -28.6535   23.0828 C   0  0  1  0  0  0  0  0  0  0  0  0
  -18.9899  -26.9859   20.7585 C   0  0  2  0  0  0  0  0  0  0  0  0
  -21.1582  -28.8297   24.5943 C   0  0  0  0  0  0  0  0  0  0  0  0
  -30.9090  -24.6034   19.5883 N   0  0  0  0  0  0  0  0  0  0  0  0
  -30.8654  -22.2003   19.4146 N   0  0  0  0  0  0  0  0  0  0  0  0
  -25.6742  -12.3939   20.1523 N   0  0  0  0  0  0  0  0  0  0  0  0
  -26.4804  -12.7079   19.1239 N   0  0  0  0  0  0  0  0  0  0  0  0
  -28.8870  -21.0967   18.7687 N   0  0  0  0  0  0  0  0  0  0  0  0
  -23.3364  -29.7923   21.9122 N   0  0  0  0  0  0  0  0  0  0  0  0
  -27.0860  -16.4781   19.2492 N   0  0  0  0  0  0  0  0  0  0  0  0
  -27.5994  -18.6162   18.3094 N   0  0  0  0  0  0  0  0  0  0  0  0
  -27.2568  -11.9284   17.0262 N   0  0  0  0  0  0  0  0  0  0  0  0
  -24.4514   -8.6582   18.3795 N   0  0  0  0  0  0  0  0  0  0  0  0
  -24.5779  -32.6709   23.1541 N   0  0  0  0  0  0  0  0  0  0  0  0
  -20.3234  -28.2909   22.2669 N   0  0  0  0  0  0  0  0  0  0  0  0
  -19.2202  -26.3154   19.4477 N   0  3  0  0  0  0  0  0  0  0  0  0
  -25.8747   -9.3161   16.7062 O   0  0  0  0  0  0  0  0  0  0  0  0
  -25.8169  -30.7057   22.9952 O   0  0  0  0  0  0  0  0  0  0  0  0
  -21.3871  -30.9434   22.4705 O   0  0  0  0  0  0  0  0  0  0  0  0
  -21.2094  -26.3150   21.4375 O   0  0  0  0  0  0  0  0  0  0  0  0
  -26.7362  -16.9164   17.0121 O   0  0  0  0  0  0  0  0  0  0  0  0
  -21.5512   -8.5661   23.1351 O   0  0  0  0  0  0  0  0  0  0  0  0
  -27.8785  -26.0299   20.0227 O   0  0  0  0  0  0  0  0  0  1  0  0
  -22.3028   -3.1665   23.9616 F   0  0  0  0  0  0  0  0  0  0  0  0
  -21.4999   -6.7869   21.0199 F   0  0  0  0  0  0  0  0  0  0  0  0
  1  2  1  0  0  0  0
  1  5  2  0  0  0  0
  2  6  2  0  0  0  0
  3  8  2  0  0  0  0
  3 16  1  0  0  0  0
  4  9  1  0  0  0  0
  4 16  2  0  0  0  0
  5 18  1  0  0  0  0
  6 20  1  0  0  0  0
  7 10  2  0  0  0  0
  7 19  1  0  0  0  0
  8 23  1  0  0  0  0
  9 23  2  0  0  0  0
 10 24  1  0  0  0  0
 11 12  2  0  0  0  0
 11 25  1  0  0  0  0
 12 26  1  0  0  0  0
 13 21  1  0  0  0  0
 13 24  2  0  0  0  0
 14 26  2  0  0  0  0
 14 27  1  0  0  0  0
 15 65  2  0  0  0  0
 15 66  1  0  0  0  0
 16 28  1  0  0  0  0
 17 28  1  0  0  0  0
 17 31  2  0  0  0  0
 17 32  1  0  0  0  0
 18 20  2  0  0  0  0
 18 37  1  0  0  0  0
 19 21  2  0  0  0  0
 19 38  1  0  0  0  0
 20 53  1  0  0  0  0
 21 39  1  0  0  0  0
 22 29  2  0  0  0  0
 22 30  1  0  0  0  0
 22 52  1  0  0  0  0
 23 83  1  0  0  0  0
 24 84  1  0  0  0  0
 25 27  2  0  0  0  0
 25 83  1  0  0  0  0
 26 85  1  0  0  0  0
 27 86  1  0  0  0  0
 28 67  2  0  0  0  0
 29 61  1  0  0  0  0
 29 65  1  0  0  0  0
 30 66  2  0  0  0  0
 30 69  1  0  0  0  0
 31 68  1  0  0  0  0
 31 73  1  0  0  0  0
 32 74  1  0  0  0  0
 32 78  2  0  0  0  0
 33 54  1  0  0  0  0
 33 75  1  0  0  0  0
 33 79  2  0  0  0  0
 34 62  1  0  0  0  0
 34 70  1  0  0  0  0
 34 80  2  0  0  0  0
 35 63  1  0  0  0  0
 35 76  1  0  0  0  0
 35 81  2  0  0  0  0
 36 71  1  0  0  0  0
 36 72  1  0  0  0  0
 36 82  2  0  0  0  0
 37 40  1  0  0  0  0
 38 54  1  0  0  0  0
 39 70  1  0  0  0  0
 40 44  1  0  0  0  0
 41 45  1  0  0  0  0
 41 46  1  0  0  0  0
 42 43  1  0  0  0  0
 42 52  1  0  0  0  0
 43 52  1  0  0  0  0
 44 53  1  0  0  0  0
 45 55  1  0  0  0  0
 46 71  1  0  0  0  0
 47 49  1  0  0  0  0
 47 69  1  0  0  0  0
 48 50  1  0  0  0  0
 48 69  1  0  0  0  0
 49 72  1  0  0  0  0
 50 72  1  0  0  0  0
 51 55  1  0  0  0  0
 51 71  1  0  0  0  0
 53 75  1  0  0  0  0
 54 70  1  0  0  0  0
 55 68  1  0  0  0  0
 56 63  1  0  0  0  0
 57 64  1  0  0  0  0
 58 64  1  0  0  0  0
 59 64  1  0  0  0  0
 60 77  1  0  0  0  0
 61 84  1  0  0  0  0
 62 64  1  0  0  0  0
 62 76  1  0  0  0  0
 63 77  1  0  0  0  0
 67 68  1  0  0  0  0
M  CHG  1  77   1
M  ISO  4  36 100  61 101  72 100  84 101
M  END
> <Batch ID>
0188

> <Smiles>
CNC(C)C(=O)NC(C(=O)N1Cc2cc([101O:1][101CH2:1]c3ncnc(N4CC[100N:0]([100C:0](=O)N5CCCC(n6nc(-c7ccc(Oc8ccc(F)cc8F)cc7)c(C(N)=O)c6N)C5)CC4)c3C3CC3)ccc2CC1C(=O)NC1CCCc2ccccc21)C(C)(C)C

> <Shape>
0.356

> <Color>
0.089

> <Negative vol penalty>
0.000

$$$$

  -OEChem-04052323193D

 79 88  0     1  0  0  0  0  0999 V2000
  -27.9774  -34.4080   22.9453 C   0  0  0  0  0  0  0  0  0  0  0  0
  -28.0839  -33.0411   22.7092 C   0  0  0  0  0  0  0  0  0  0  0  0
  -26.6186  -13.7199   19.5490 C   0  0  0  0  0  0  0  0  0  0  0  0
  -26.7799  -12.6686   21.7183 C   0  0  0  0  0  0  0  0  0  0  0  0
  -26.8184  -34.9266   23.5212 C   0  0  0  0  0  0  0  0  0  0  0  0
  -27.0317  -32.1918   23.0499 C   0  0  0  0  0  0  0  0  0  0  0  0
  -26.0001  -28.8214   19.4138 C   0  0  0  0  0  0  0  0  0  0  0  0
  -25.2839  -13.3255   19.4570 C   0  0  0  0  0  0  0  0  0  0  0  0
  -25.4451  -12.2742   21.6263 C   0  0  0  0  0  0  0  0  0  0  0  0
  -26.8467  -27.7187   19.3090 C   0  0  0  0  0  0  0  0  0  0  0  0
  -23.6647   -9.8482   20.0849 C   0  0  0  0  0  0  0  0  0  0  0  0
  -23.3499   -8.5378   20.4446 C   0  0  0  0  0  0  0  0  0  0  0  0
  -25.2343  -26.3754   20.4985 C   0  0  0  0  0  0  0  0  0  0  0  0
  -21.8689   -9.3657   22.1646 C   0  0  0  0  0  0  0  0  0  0  0  0
  -27.3667  -13.3914   20.6796 C   0  0  0  0  0  0  0  0  0  0  0  0
  -29.7963  -13.4513   19.9046 C   0  0  0  0  0  0  0  0  0  0  0  0
  -25.7476  -34.0845   23.8602 C   0  0  0  0  0  0  0  0  0  0  0  0
  -24.7669  -28.7120   20.0724 C   0  0  0  0  0  0  0  0  0  0  0  0
  -25.8578  -32.6995   23.6321 C   0  0  0  0  0  0  0  0  0  0  0  0
  -24.3728  -27.4775   20.6080 C   0  0  0  0  0  0  0  0  0  0  0  0
  -24.6971  -12.6026   20.4957 C   0  0  0  0  0  0  0  0  0  0  0  0
  -26.4652  -26.4962   19.8539 C   0  0  0  0  0  0  0  0  0  0  0  0
  -23.0817  -10.9174   20.7652 C   0  0  0  0  0  0  0  0  0  0  0  0
  -22.4520   -8.2966   21.4844 C   0  0  0  0  0  0  0  0  0  0  0  0
  -22.1838  -10.6761   21.8050 C   0  0  0  0  0  0  0  0  0  0  0  0
  -28.7457  -13.7981   20.7750 C   0  0  0  0  0  0  0  0  0  0  0  0
  -30.8974  -14.0859   20.4256 C   0  0  0  0  0  0  0  0  0  0  0  0
  -29.7786  -12.6291   18.7301 C   0  0  0  0  0  0  0  0  0  0  0  0
  -23.4676  -30.0621   22.6399 C   0  0  0  0  0  0  0  0  0  0  0  0
  -20.8288  -28.4398   21.6770 C   0  0  0  0  0  0  0  0  0  0  0  0
  -19.5170  -25.8136   19.9366 C   0  0  0  0  0  0  0  0  0  0  0  0
  -31.3741  -18.9558   24.0043 C   0  0  0  0  0  0  0  0  0  0  0  0
  -24.5338  -34.6850   24.5241 C   0  0  0  0  0  0  0  0  0  0  0  0
  -23.8534  -29.9041   20.1535 C   0  0  0  0  0  0  0  0  0  0  0  0
  -23.0503  -27.3024   21.3072 C   0  0  0  0  0  0  0  0  0  0  0  0
  -23.3152  -33.7657   24.5113 C   0  0  0  0  0  0  0  0  0  0  0  0
  -32.7369  -15.6679   24.5235 C   0  0  0  0  0  0  0  0  0  0  0  0
  -23.7069  -32.3540   24.9360 C   0  0  0  0  0  0  0  0  0  0  0  0
  -31.9276  -14.7735   23.5902 C   0  0  0  0  0  0  0  0  0  0  0  0
  -31.8756  -16.7931   25.0813 C   0  0  0  0  0  0  0  0  0  0  0  0
  -30.4500  -16.7749   23.0506 C   0  0  0  0  0  0  0  0  0  0  0  0
  -29.5084  -19.4873   22.2437 C   0  0  0  0  0  0  0  0  0  0  0  0
  -30.8083  -21.0999   22.7370 C   0  0  0  0  0  0  0  0  0  0  0  0
  -29.1051  -23.1275   21.0372 C   0  0  0  0  0  0  0  0  0  0  0  0
  -27.5920  -21.7323   20.6994 C   0  0  0  0  0  0  0  0  0  0  0  0
  -24.7281  -31.7491   23.9650 C   0  0  1  0  0  0  0  0  0  0  0  0
  -22.8464  -29.8085   21.2955 C   0  0  1  0  0  0  0  0  0  0  0  0
  -27.8803  -23.1235   20.1011 C   0  0  0  0  0  0  0  0  0  0  0  0
  -31.2781  -15.6080   22.4770 C   0  0  2  0  0  0  0  0  0  0  0  0
  -29.3303  -21.0087   22.3407 C   0  0  0  0  0  0  0  0  0  0  0  0
  -17.3292  -24.7257   19.3644 C   0  0  0  0  0  0  0  0  0  0  0  0
  -20.6886  -27.2512   24.4837 C   0  0  0  0  0  0  0  0  0  0  0  0
  -19.1256  -25.5101   23.5928 C   0  0  0  0  0  0  0  0  0  0  0  0
  -18.4786  -27.9182   23.5217 C   0  0  0  0  0  0  0  0  0  0  0  0
  -19.9217  -26.2573   17.0386 C   0  0  0  0  0  0  0  0  0  0  0  0
  -26.8383  -24.1968   20.3332 C   0  0  0  0  0  0  0  0  0  1  0  0
  -20.2614  -27.0666   21.9441 C   0  0  1  0  0  0  0  0  0  0  0  0
  -18.3800  -25.7372   18.9337 C   0  0  2  0  0  0  0  0  0  0  0  0
  -19.6644  -26.9400   23.3742 C   0  0  0  0  0  0  0  0  0  0  0  0
  -29.1435  -14.5913   21.7732 N   0  0  0  0  0  0  0  0  0  0  0  0
  -30.4565  -14.7482   21.5334 N   0  0  0  0  0  0  0  0  0  0  0  0
  -22.1948  -28.4991   21.3664 N   0  0  0  0  0  0  0  0  0  0  0  0
  -31.2206  -17.5650   24.0209 N   0  0  0  0  0  0  0  0  0  0  0  0
  -30.7249  -19.6697   23.0236 N   0  0  0  0  0  0  0  0  0  0  0  0
  -32.1900  -14.1364   20.0396 N   0  0  0  0  0  0  0  0  0  0  0  0
  -30.0149  -11.2550   18.8729 N   0  0  0  0  0  0  0  0  0  0  0  0
  -24.0714  -31.2996   22.7563 N   0  0  0  0  0  0  0  0  0  0  0  0
  -19.3067  -26.8039   20.8727 N   0  0  0  0  0  0  0  0  0  0  0  0
  -29.0290  -21.6471   21.0542 N   0  3  0  0  0  0  0  0  0  0  0  0
  -18.8966  -25.3368   17.5944 N   0  3  0  0  0  0  0  0  0  0  0  0
  -29.5760  -13.1016   17.5859 O   0  0  0  0  0  0  0  0  0  0  0  0
  -23.4025  -29.1996   23.5079 O   0  0  0  0  0  0  0  0  0  0  0  0
  -20.0859  -29.4228   21.7346 O   0  0  0  0  0  0  0  0  0  0  0  0
  -20.4923  -25.0668   19.8960 O   0  0  0  0  0  0  0  0  0  0  0  0
  -32.0460  -19.5492   24.8583 O   0  0  0  0  0  0  0  0  0  0  0  0
  -23.3946  -12.2178   20.4064 O   0  0  0  0  0  0  0  0  0  0  0  0
  -27.2960  -25.4105   19.7528 O   0  0  0  0  0  0  0  0  0  1  0  0
  -22.1486   -7.0381   21.8287 F   0  0  0  0  0  0  0  0  0  0  0  0
  -21.6195  -11.6992   22.4613 F   0  0  0  0  0  0  0  0  0  0  0  0
  1  2  1  0  0  0  0
  1  5  2  0  0  0  0
  2  6  2  0  0  0  0
  3  8  2  0  0  0  0
  3 15  1  0  0  0  0
  4  9  1  0  0  0  0
  4 15  2  0  0  0  0
  5 17  1  0  0  0  0
  6 19  1  0  0  0  0
  7 10  2  0  0  0  0
  7 18  1  0  0  0  0
  8 21  1  0  0  0  0
  9 21  2  0  0  0  0
 10 22  1  0  0  0  0
 11 12  2  0  0  0  0
 11 23  1  0  0  0  0
 12 24  1  0  0  0  0
 13 20  1  0  0  0  0
 13 22  2  0  0  0  0
 14 24  2  0  0  0  0
 14 25  1  0  0  0  0
 15 26  1  0  0  0  0
 16 26  1  0  0  0  0
 16 27  2  0  0  0  0
 16 28  1  0  0  0  0
 17 19  2  0  0  0  0
 17 33  1  0  0  0  0
 18 20  2  0  0  0  0
 18 34  1  0  0  0  0
 19 46  1  0  0  0  0
 20 35  1  0  0  0  0
 21 76  1  0  0  0  0
 22 77  1  0  0  0  0
 23 25  2  0  0  0  0
 23 76  1  0  0  0  0
 24 78  1  0  0  0  0
 25 79  1  0  0  0  0
 26 60  2  0  0  0  0
 27 61  1  0  0  0  0
 27 65  1  0  0  0  0
 28 66  1  0  0  0  0
 28 71  2  0  0  0  0
 29 47  1  0  0  0  0
 29 67  1  0  0  0  0
 29 72  2  0  0  0  0
 30 57  1  0  0  0  0
 30 62  1  0  0  0  0
 30 73  2  0  0  0  0
 31 58  1  0  0  0  0
 31 68  1  0  0  0  0
 31 74  2  0  0  0  0
 32 63  1  0  0  0  0
 32 64  1  0  0  0  0
 32 75  2  0  0  0  0
 33 36  1  0  0  0  0
 34 47  1  0  0  0  0
 35 62  1  0  0  0  0
 36 38  1  0  0  0  0
 37 39  1  0  0  0  0
 37 40  1  0  0  0  0
 38 46  1  0  0  0  0
 39 49  1  0  0  0  0
 40 63  1  0  0  0  0
 41 49  1  0  0  0  0
 41 63  1  0  0  0  0
 42 50  1  0  0  0  0
 42 64  1  0  0  0  0
 43 50  1  0  0  0  0
 43 64  1  0  0  0  0
 44 48  1  0  0  0  0
 44 69  1  0  0  0  0
 45 48  1  0  0  0  0
 45 69  1  0  0  0  0
 46 67  1  0  0  0  0
 47 62  1  0  0  0  0
 48 56  1  0  0  0  0
 49 61  1  0  0  0  0
 50 69  1  0  0  0  0
 51 58  1  0  0  0  0
 52 59  1  0  0  0  0
 53 59  1  0  0  0  0
 54 59  1  0  0  0  0
 55 70  1  0  0  0  0
 56 77  1  0  0  0  0
 57 59  1  0  0  0  0
 57 68  1  0  0  0  0
 58 70  1  0  0  0  0
 60 61  1  0  0  0  0
M  CHG  2  69   1  70   1
M  ISO  4  32 100  56 101  64 100  77 101
M  END
> <Batch ID>
0188

> <Smiles>
CNC(C)C(=O)NC(C(=O)N1Cc2cc([101O:1][101CH2:1]C3CN(C4C[100N:0]([100C:0](=O)N5CCCC(n6nc(-c7ccc(Oc8ccc(F)cc8F)cc7)c(C(N)=O)c6N)C5)C4)C3)ccc2CC1C(=O)NC1CCCc2ccccc21)C(C)(C)C

> <Shape>
0.327

> <Color>
0.062

> <Negative vol penalty>
0.000

$$$$

  -OEChem-04052323193D

 83 92  0     1  0  0  0  0  0999 V2000
  -24.1410   -8.4490   21.5543 C   0  0  0  0  0  0  0  0  0  0  0  0
  -24.8081   -9.6222   21.2167 C   0  0  0  0  0  0  0  0  0  0  0  0
  -31.1378  -18.3235   18.4682 C   0  0  0  0  0  0  0  0  0  0  0  0
  -23.1933  -26.3514   21.5564 C   0  0  0  0  0  0  0  0  0  0  0  0
  -23.0573  -28.7099   22.0625 C   0  0  0  0  0  0  0  0  0  0  0  0
  -22.7488   -8.4367   21.6283 C   0  0  0  0  0  0  0  0  0  0  0  0
  -24.0833  -10.7836   20.9517 C   0  0  0  0  0  0  0  0  0  0  0  0
  -26.0672  -14.8665   23.1965 C   0  0  0  0  0  0  0  0  0  0  0  0
  -22.0694  -26.1166   22.3485 C   0  0  0  0  0  0  0  0  0  0  0  0
  -21.9333  -28.4751   22.8545 C   0  0  0  0  0  0  0  0  0  0  0  0
  -27.1894  -15.4392   22.5994 C   0  0  0  0  0  0  0  0  0  0  0  0
  -18.8135  -28.5470   24.7199 C   0  0  0  0  0  0  0  0  0  0  0  0
  -17.7270  -29.4100   24.5773 C   0  0  0  0  0  0  0  0  0  0  0  0
  -29.9347  -17.8727   18.9995 C   0  0  0  0  0  0  0  0  0  0  0  0
  -31.5865  -19.6053   18.7669 C   0  0  0  0  0  0  0  0  0  0  0  0
  -25.7873  -17.1279   21.5984 C   0  0  0  0  0  0  0  0  0  0  0  0
  -17.5418  -28.7923   22.2490 C   0  0  0  0  0  0  0  0  0  0  0  0
  -23.6873  -27.6480   21.4135 C   0  0  0  0  0  0  0  0  0  0  0  0
  -24.8725  -28.1879   19.2200 C   0  0  0  0  0  0  0  0  0  0  0  0
  -22.0070   -9.6010   21.3736 C   0  0  0  0  0  0  0  0  0  0  0  0
  -24.7932  -15.4146   22.9899 C   0  0  0  0  0  0  0  0  0  0  0  0
  -22.6797  -10.7865   21.0211 C   0  0  0  0  0  0  0  0  0  0  0  0
  -24.6509  -16.5617   22.1961 C   0  0  0  0  0  0  0  0  0  0  0  0
  -21.4394  -27.1784   22.9975 C   0  0  0  0  0  0  0  0  0  0  0  0
  -27.0491  -16.5684   21.7979 C   0  0  0  0  0  0  0  0  0  0  0  0
  -19.2642  -27.8067   23.6269 C   0  0  0  0  0  0  0  0  0  0  0  0
  -17.0911  -29.5326   23.3419 C   0  0  0  0  0  0  0  0  0  0  0  0
  -18.6284  -27.9293   22.3915 C   0  0  0  0  0  0  0  0  0  0  0  0
  -24.8486  -27.8911   20.5959 C   0  0  0  0  0  0  0  0  0  0  0  0
  -29.2232  -18.7354   19.8177 C   0  0  0  0  0  0  0  0  0  0  0  0
  -30.8010  -20.3905   19.5953 C   0  0  0  0  0  0  0  0  0  0  0  0
  -26.2059  -28.3296   18.9224 C   0  0  0  0  0  0  0  0  0  0  0  0
  -23.7865  -28.3236   18.2937 C   0  0  0  0  0  0  0  0  0  0  0  0
  -22.0865  -14.3718   21.6897 C   0  0  0  0  0  0  0  0  0  0  0  0
  -20.9261  -17.1934   22.7917 C   0  0  0  0  0  0  0  0  0  0  0  0
  -21.5553  -20.4050   23.7592 C   0  0  0  0  0  0  0  0  0  0  0  0
  -31.0737  -26.0981   21.8090 C   0  0  0  0  0  0  0  0  0  0  0  0
  -20.5013   -9.5270   21.4197 C   0  0  0  0  0  0  0  0  0  0  0  0
  -23.5962  -14.8007   23.6628 C   0  0  0  0  0  0  0  0  0  0  0  0
  -23.3078  -17.2006   21.9593 C   0  0  0  0  0  0  0  0  0  0  0  0
  -19.8262  -10.8943   21.4904 C   0  0  0  0  0  0  0  0  0  0  0  0
  -30.3794  -29.5859   20.9003 C   0  0  0  0  0  0  0  0  0  0  0  0
  -20.4397  -11.8462   20.4685 C   0  0  0  0  0  0  0  0  0  0  0  0
  -28.8715  -29.5759   20.6458 C   0  0  0  0  0  0  0  0  0  0  0  0
  -29.4731  -23.3500   19.9643 C   0  0  0  0  0  0  0  0  0  0  0  0
  -30.7905  -28.5462   21.9402 C   0  0  0  0  0  0  0  0  0  0  0  0
  -29.2508  -24.5772   20.8423 C   0  0  0  0  0  0  0  0  0  0  0  0
  -28.8169  -27.1713   21.4037 C   0  0  0  0  0  0  0  0  0  0  0  0
  -31.4674  -23.7277   21.2028 C   0  0  0  0  0  0  0  0  0  0  0  0
  -21.9298  -12.0729   20.7509 C   0  0  1  0  0  0  0  0  0  0  0  0
  -22.2811  -15.1385   22.9672 C   0  0  1  0  0  0  0  0  0  0  0  0
  -28.3738  -28.1568   20.3134 C   0  0  1  0  0  0  0  0  0  0  0  0
  -30.5622  -22.6021   20.7254 C   0  0  2  0  0  0  0  0  0  0  0  0
  -21.0934  -22.6896   24.6891 C   0  0  0  0  0  0  0  0  0  0  0  0
  -19.9356  -17.7488   19.9596 C   0  0  0  0  0  0  0  0  0  0  0  0
  -19.6643  -20.1536   20.6009 C   0  0  0  0  0  0  0  0  0  0  0  0
  -18.3358  -18.3954   21.7698 C   0  0  0  0  0  0  0  0  0  0  0  0
  -22.1250  -19.5212   26.5256 C   0  0  0  0  0  0  0  0  0  0  0  0
  -27.9274  -18.2842   20.4049 C   0  0  0  0  0  0  0  0  0  1  0  0
  -20.8128  -18.5927   22.2366 C   0  0  1  0  0  0  0  0  0  0  0  0
  -21.1096  -21.1962   24.9757 C   0  0  2  0  0  0  0  0  0  0  0  0
  -19.7124  -18.7097   21.1444 C   0  0  0  0  0  0  0  0  0  0  0  0
  -26.0697  -27.8464   21.1351 N   0  0  0  0  0  0  0  0  0  0  0  0
  -29.6268  -19.9872   20.1304 N   0  0  0  0  0  0  0  0  0  0  0  0
  -26.8735  -28.1169   20.0925 N   0  0  0  0  0  0  0  0  0  0  0  0
  -22.1668  -16.5597   22.6338 N   0  0  0  0  0  0  0  0  0  0  0  0
  -30.2705  -27.2233   21.5935 N   0  0  0  0  0  0  0  0  0  0  0  0
  -30.5682  -24.8587   21.4185 N   0  0  0  0  0  0  0  0  0  0  0  0
  -26.8606  -28.6139   17.7766 N   0  0  0  0  0  0  0  0  0  0  0  0
  -22.4791  -28.1460   18.7663 N   0  0  0  0  0  0  0  0  0  0  0  0
  -31.2624  -21.6675   19.8845 N   0  0  0  0  0  0  0  0  0  0  0  0
  -22.1008  -12.9993   21.8495 N   0  0  0  0  0  0  0  0  0  0  0  0
  -20.6123  -19.4718   23.3834 N   0  0  0  0  0  0  0  0  0  0  0  0
  -22.0302  -20.9475   26.1210 N   0  3  0  0  0  0  0  0  0  0  0  0
  -23.9711  -28.5781   17.0793 O   0  0  0  0  0  0  0  0  0  0  0  0
  -21.9333  -14.9804   20.6372 O   0  0  0  0  0  0  0  0  0  0  0  0
  -19.9518  -16.6841   23.3512 O   0  0  0  0  0  0  0  0  0  0  0  0
  -22.6305  -20.5983   23.1962 O   0  0  0  0  0  0  0  0  0  0  0  0
  -32.2118  -26.2009   22.2857 O   0  0  0  0  0  0  0  0  0  0  0  0
  -20.3426  -26.9497   23.7703 O   0  0  0  0  0  0  0  0  0  0  0  0
  -28.1503  -17.1330   21.2092 O   0  0  0  0  0  0  0  0  0  1  0  0
  -16.0468  -30.3602   23.2056 F   0  0  0  0  0  0  0  0  0  0  0  0
  -19.0561  -27.2198   21.3382 F   0  0  0  0  0  0  0  0  0  0  0  0
  1  2  1  0  0  0  0
  1  6  2  0  0  0  0
  2  7  2  0  0  0  0
  3 14  2  0  0  0  0
  3 15  1  0  0  0  0
  4  9  2  0  0  0  0
  4 18  1  0  0  0  0
  5 10  1  0  0  0  0
  5 18  2  0  0  0  0
  6 20  1  0  0  0  0
  7 22  1  0  0  0  0
  8 11  2  0  0  0  0
  8 21  1  0  0  0  0
  9 24  1  0  0  0  0
 10 24  2  0  0  0  0
 11 25  1  0  0  0  0
 12 13  2  0  0  0  0
 12 26  1  0  0  0  0
 13 27  1  0  0  0  0
 14 30  1  0  0  0  0
 15 31  2  0  0  0  0
 16 23  1  0  0  0  0
 16 25  2  0  0  0  0
 17 27  2  0  0  0  0
 17 28  1  0  0  0  0
 18 29  1  0  0  0  0
 19 29  1  0  0  0  0
 19 32  2  0  0  0  0
 19 33  1  0  0  0  0
 20 22  2  0  0  0  0
 20 38  1  0  0  0  0
 21 23  2  0  0  0  0
 21 39  1  0  0  0  0
 22 50  1  0  0  0  0
 23 40  1  0  0  0  0
 24 80  1  0  0  0  0
 25 81  1  0  0  0  0
 26 28  2  0  0  0  0
 26 80  1  0  0  0  0
 27 82  1  0  0  0  0
 28 83  1  0  0  0  0
 29 63  2  0  0  0  0
 30 59  1  0  0  0  0
 30 64  2  0  0  0  0
 31 64  1  0  0  0  0
 31 71  1  0  0  0  0
 32 65  1  0  0  0  0
 32 69  1  0  0  0  0
 33 70  1  0  0  0  0
 33 75  2  0  0  0  0
 34 51  1  0  0  0  0
 34 72  1  0  0  0  0
 34 76  2  0  0  0  0
 35 60  1  0  0  0  0
 35 66  1  0  0  0  0
 35 77  2  0  0  0  0
 36 61  1  0  0  0  0
 36 73  1  0  0  0  0
 36 78  2  0  0  0  0
 37 67  1  0  0  0  0
 37 68  1  0  0  0  0
 37 79  2  0  0  0  0
 38 41  1  0  0  0  0
 39 51  1  0  0  0  0
 40 66  1  0  0  0  0
 41 43  1  0  0  0  0
 42 44  1  0  0  0  0
 42 46  1  0  0  0  0
 43 50  1  0  0  0  0
 44 52  1  0  0  0  0
 45 47  1  0  0  0  0
 45 53  1  0  0  0  0
 46 67  1  0  0  0  0
 47 68  1  0  0  0  0
 48 52  1  0  0  0  0
 48 67  1  0  0  0  0
 49 53  1  0  0  0  0
 49 68  1  0  0  0  0
 50 72  1  0  0  0  0
 51 66  1  0  0  0  0
 52 65  1  0  0  0  0
 53 71  1  0  0  0  0
 54 61  1  0  0  0  0
 55 62  1  0  0  0  0
 56 62  1  0  0  0  0
 57 62  1  0  0  0  0
 58 74  1  0  0  0  0
 59 81  1  0  0  0  0
 60 62  1  0  0  0  0
 60 73  1  0  0  0  0
 61 74  1  0  0  0  0
 63 65  1  0  0  0  0
M  CHG  1  74   1
M  ISO  4  37 100  59 101  68 100  81 101
M  END
> <Batch ID>
0188

> <Smiles>
CNC(C)C(=O)NC(C(=O)N1Cc2cc([101O:1][101CH2:1]c3cccc(NC4CC[100N:0]([100C:0](=O)N5CCCC(n6nc(-c7ccc(Oc8ccc(F)cc8F)cc7)c(C(N)=O)c6N)C5)C4)n3)ccc2CC1C(=O)NC1CCCc2ccccc21)C(C)(C)C

> <Shape>
0.216

> <Color>
0.090

> <Negative vol penalty>
0.000

$$$$

  -OEChem-04052323193D

 85 95  0     1  0  0  0  0  0999 V2000
  -27.3701  -21.2552   28.9287 C   0  0  0  0  0  0  0  0  0  0  0  0
  -27.5089  -21.5181   27.5697 C   0  0  0  0  0  0  0  0  0  0  0  0
  -23.5776   -9.8299   22.1905 C   0  0  0  0  0  0  0  0  0  0  0  0
  -24.0227  -11.3147   24.0436 C   0  0  0  0  0  0  0  0  0  0  0  0
  -26.1571  -21.5110   29.5668 C   0  0  0  0  0  0  0  0  0  0  0  0
  -26.4343  -22.0360   26.8476 C   0  0  0  0  0  0  0  0  0  0  0  0
  -27.8015  -25.8260   23.7797 C   0  0  0  0  0  0  0  0  0  0  0  0
  -22.9665   -8.9271   23.0606 C   0  0  0  0  0  0  0  0  0  0  0  0
  -23.4116  -10.4119   24.9138 C   0  0  0  0  0  0  0  0  0  0  0  0
  -28.4300  -25.4819   22.5838 C   0  0  0  0  0  0  0  0  0  0  0  0
  -19.9849   -8.6014   24.6218 C   0  0  0  0  0  0  0  0  0  0  0  0
  -18.7706   -8.0407   24.2262 C   0  0  0  0  0  0  0  0  0  0  0  0
  -26.3435  -25.7764   21.4095 C   0  0  0  0  0  0  0  0  0  0  0  0
  -28.7306  -18.8809   19.9075 C   0  0  0  0  0  0  0  0  0  0  0  0
  -19.7508   -5.8355   24.3435 C   0  0  0  0  0  0  0  0  0  0  0  0
  -24.1058  -11.0237   22.6820 C   0  0  0  0  0  0  0  0  0  0  0  0
  -24.1234  -13.0129   21.0851 C   0  0  0  0  0  0  0  0  0  0  0  0
  -25.0701  -22.0413   28.8542 C   0  0  0  0  0  0  0  0  0  0  0  0
  -26.4345  -26.1378   23.8014 C   0  0  0  0  0  0  0  0  0  0  0  0
  -25.2052  -22.2979   27.4764 C   0  0  0  0  0  0  0  0  0  0  0  0
  -25.7006  -26.1266   22.6067 C   0  0  0  0  0  0  0  0  0  0  0  0
  -29.0088  -20.1756   19.5217 C   0  0  0  0  0  0  0  0  0  0  0  0
  -30.2482  -20.5081   18.9793 C   0  0  0  0  0  0  0  0  0  0  0  0
  -22.8834   -9.2181   24.4222 C   0  0  0  0  0  0  0  0  0  0  0  0
  -27.7004  -25.4543   21.3989 C   0  0  0  0  0  0  0  0  0  0  0  0
  -21.0823   -7.7793   24.8781 C   0  0  0  0  0  0  0  0  0  0  0  0
  -18.6535   -6.6577   24.0871 C   0  0  0  0  0  0  0  0  0  0  0  0
  -20.9651   -6.3963   24.7390 C   0  0  0  0  0  0  0  0  0  0  0  0
  -24.7377  -11.9564   21.7838 C   0  0  0  0  0  0  0  0  0  0  0  0
  -31.1973  -19.5252   18.8320 C   0  0  0  0  0  0  0  0  0  0  0  0
  -29.7501  -17.9571   19.7278 C   0  0  0  0  0  0  0  0  0  0  0  0
  -25.1449  -13.5946   20.3747 C   0  0  0  0  0  0  0  0  0  0  0  0
  -22.7520  -13.4312   21.0788 C   0  0  0  0  0  0  0  0  0  0  0  0
  -23.8704  -24.8873   25.2034 C   0  0  0  0  0  0  0  0  0  0  0  0
  -22.4007  -27.5013   23.9667 C   0  0  0  0  0  0  0  0  0  0  0  0
  -22.3684  -29.9576   21.5977 C   0  0  0  0  0  0  0  0  0  0  0  0
  -30.3544  -15.5307   20.0336 C   0  0  0  0  0  0  0  0  0  0  0  0
  -23.7640  -22.2570   29.5769 C   0  0  0  0  0  0  0  0  0  0  0  0
  -25.7774  -26.5329   25.0954 C   0  0  0  0  0  0  0  0  0  0  0  0
  -24.2352  -26.4729   22.5729 C   0  0  0  0  0  0  0  0  0  0  0  0
  -28.1212  -21.3731   19.5691 C   0  0  0  0  0  0  0  0  0  0  0  0
  -30.3047  -21.9489   18.6152 C   0  0  0  0  0  0  0  0  0  0  0  0
  -22.7906  -23.1572   28.8203 C   0  0  0  0  0  0  0  0  0  0  0  0
  -29.8890  -12.0340   19.5502 C   0  0  0  0  0  0  0  0  0  0  0  0
  -22.7084  -22.7419   27.3549 C   0  0  0  0  0  0  0  0  0  0  0  0
  -32.6899  -19.8403   16.7471 C   0  0  0  0  0  0  0  0  0  0  0  0
  -33.3157  -18.7561   17.5675 C   0  0  0  0  0  0  0  0  0  0  0  0
  -28.4568  -11.7890   20.0307 C   0  0  0  0  0  0  0  0  0  0  0  0
  -30.6004  -13.0852   20.4002 C   0  0  0  0  0  0  0  0  0  0  0  0
  -28.4500  -14.1131   21.0233 C   0  0  0  0  0  0  0  0  0  0  0  0
  -24.0702  -22.8831   26.6642 C   0  0  1  0  0  0  0  0  0  0  0  0
  -32.5288  -19.8477   18.2451 C   0  0  0  0  0  0  0  0  0  0  0  0
  -24.2651  -26.3321   25.0833 C   0  0  1  0  0  0  0  0  0  0  0  0
  -27.6714  -13.1091   20.1577 C   0  0  2  0  0  0  0  0  0  0  0  0
  -21.0198  -31.9252   20.8185 C   0  0  0  0  0  0  0  0  0  0  0  0
  -20.3745  -25.6063   22.6964 C   0  0  0  0  0  0  0  0  0  0  0  0
  -19.6590  -27.4842   21.2031 C   0  0  0  0  0  0  0  0  0  0  0  0
  -19.3876  -27.6856   23.6746 C   0  0  0  0  0  0  0  0  0  0  0  0
  -24.6011  -31.8342   22.0999 C   0  0  0  0  0  0  0  0  0  0  0  0
  -28.3843  -23.6007   18.3662 C   0  0  0  0  0  0  0  0  0  0  0  0
  -27.5088  -24.4788   19.2384 C   0  0  0  0  0  0  0  0  0  1  0  0
  -21.7024  -27.8204   22.6669 C   0  0  1  0  0  0  0  0  0  0  0  0
  -22.1636  -31.4579   21.7050 C   0  0  2  0  0  0  0  0  0  0  0  0
  -20.3080  -27.1407   22.5609 C   0  0  0  0  0  0  0  0  0  0  0  0
  -26.0479  -11.8695   21.5393 N   0  0  0  0  0  0  0  0  0  0  0  0
  -30.9725  -18.2436   19.2024 N   0  0  0  0  0  0  0  0  0  0  0  0
  -26.2653  -12.8788   20.6790 N   0  0  0  0  0  0  0  0  0  0  0  0
  -23.6364  -26.8466   23.8650 N   0  0  0  0  0  0  0  0  0  0  0  0
  -29.7999  -14.3095   20.4720 N   0  0  0  0  0  0  0  0  0  0  0  0
  -25.1851  -14.6434   19.5257 N   0  0  0  0  0  0  0  0  0  0  0  0
  -21.8338  -12.7229   21.8659 N   0  0  0  0  0  0  0  0  0  0  0  0
  -29.4887  -16.6206   20.1192 N   0  0  0  0  0  0  0  0  0  0  0  0
  -24.3356  -24.2704   26.3490 N   0  0  0  0  0  0  0  0  0  0  0  0
  -21.6668  -29.2756   22.5692 N   0  0  0  0  0  0  0  0  0  0  0  0
  -29.0267  -22.5596   19.2075 N   0  3  1  0  0  0  0  0  0  0  0  0
  -23.4011  -32.1802   21.2953 N   0  3  0  0  0  0  0  0  0  0  0  0
  -22.3496  -14.3941   20.3827 O   0  0  0  0  0  0  0  0  0  0  0  0
  -23.1928  -24.3708   24.3226 O   0  0  0  0  0  0  0  0  0  0  0  0
  -21.8728  -27.8274   25.0328 O   0  0  0  0  0  0  0  0  0  0  0  0
  -23.0767  -29.4419   20.7357 O   0  0  0  0  0  0  0  0  0  0  0  0
  -31.5027  -15.5991   19.5879 O   0  0  0  0  0  0  0  0  0  0  0  0
  -22.2870   -8.3375   25.2715 O   0  0  0  0  0  0  0  0  0  0  0  0
  -28.3112  -25.1182   20.2302 O   0  0  0  0  0  0  0  0  0  1  0  0
  -17.4869   -6.1192   23.7087 F   0  0  0  0  0  0  0  0  0  0  0  0
  -22.0155   -5.6013   24.9850 F   0  0  0  0  0  0  0  0  0  0  0  0
  1  2  1  0  0  0  0
  1  5  2  0  0  0  0
  2  6  2  0  0  0  0
  3  8  2  0  0  0  0
  3 16  1  0  0  0  0
  4  9  1  0  0  0  0
  4 16  2  0  0  0  0
  5 18  1  0  0  0  0
  6 20  1  0  0  0  0
  7 10  2  0  0  0  0
  7 19  1  0  0  0  0
  8 24  1  0  0  0  0
  9 24  2  0  0  0  0
 10 25  1  0  0  0  0
 11 12  2  0  0  0  0
 11 26  1  0  0  0  0
 12 27  1  0  0  0  0
 13 21  1  0  0  0  0
 13 25  2  0  0  0  0
 14 22  1  0  0  0  0
 14 31  2  0  0  0  0
 15 27  2  0  0  0  0
 15 28  1  0  0  0  0
 16 29  1  0  0  0  0
 17 29  1  0  0  0  0
 17 32  2  0  0  0  0
 17 33  1  0  0  0  0
 18 20  2  0  0  0  0
 18 38  1  0  0  0  0
 19 21  2  0  0  0  0
 19 39  1  0  0  0  0
 20 51  1  0  0  0  0
 21 40  1  0  0  0  0
 22 23  2  0  0  0  0
 22 41  1  0  0  0  0
 23 30  1  0  0  0  0
 23 42  1  0  0  0  0
 24 82  1  0  0  0  0
 25 83  1  0  0  0  0
 26 28  2  0  0  0  0
 26 82  1  0  0  0  0
 27 84  1  0  0  0  0
 28 85  1  0  0  0  0
 29 65  2  0  0  0  0
 30 52  1  0  0  0  0
 30 66  2  0  0  0  0
 31 66  1  0  0  0  0
 31 72  1  0  0  0  0
 32 67  1  0  0  0  0
 32 70  1  0  0  0  0
 33 71  1  0  0  0  0
 33 77  2  0  0  0  0
 34 53  1  0  0  0  0
 34 73  1  0  0  0  0
 34 78  2  0  0  0  0
 35 62  1  0  0  0  0
 35 68  1  0  0  0  0
 35 79  2  0  0  0  0
 36 63  1  0  0  0  0
 36 74  1  0  0  0  0
 36 80  2  0  0  0  0
 37 69  1  0  0  0  0
 37 72  1  0  0  0  0
 37 81  2  0  0  0  0
 38 43  1  0  0  0  0
 39 53  1  0  0  0  0
 40 68  1  0  0  0  0
 41 75  1  0  0  0  0
 42 75  1  0  0  0  0
 43 45  1  0  0  0  0
 44 48  1  0  0  0  0
 44 49  1  0  0  0  0
 45 51  1  0  0  0  0
 46 47  1  0  0  0  0
 46 52  1  0  0  0  0
 47 52  1  0  0  0  0
 48 54  1  0  0  0  0
 49 69  1  0  0  0  0
 50 54  1  0  0  0  0
 50 69  1  0  0  0  0
 51 73  1  0  0  0  0
 53 68  1  0  0  0  0
 54 67  1  0  0  0  0
 55 63  1  0  0  0  0
 56 64  1  0  0  0  0
 57 64  1  0  0  0  0
 58 64  1  0  0  0  0
 59 76  1  0  0  0  0
 60 61  1  0  0  0  0
 60 75  1  0  0  0  0
 61 83  1  0  0  0  0
 62 64  1  0  0  0  0
 62 74  1  0  0  0  0
 63 76  1  0  0  0  0
 65 67  1  0  0  0  0
M  CHG  2  75   1  76   1
M  ISO  4  37 100  61 101  72 100  83 101
M  END
> <Batch ID>
0188

> <Smiles>
CNC(C)C(=O)NC(C(=O)N1Cc2cc([101O:1][101CH2:1]CN3Cc4cc([100NH:0][100C:0](=O)N5CCCC(n6nc(-c7ccc(Oc8ccc(F)cc8F)cc7)c(C(N)=O)c6N)C5)nc(C5CC5)c4C3)ccc2CC1C(=O)NC1CCCc2ccccc21)C(C)(C)C

> <Shape>
0.232

> <Color>
0.112

> <Negative vol penalty>
0.000

$$$$

  -OEChem-04052323193D

 80 89  0     1  0  0  0  0  0999 V2000
  -32.6621  -25.9491   18.6489 C   0  0  0  0  0  0  0  0  0  0  0  0
  -31.3170  -25.7934   18.9683 C   0  0  0  0  0  0  0  0  0  0  0  0
  -24.2625   -9.3077   22.0116 C   0  0  0  0  0  0  0  0  0  0  0  0
  -23.0338   -9.8698   20.0088 C   0  0  0  0  0  0  0  0  0  0  0  0
  -33.4737  -26.7668   19.4341 C   0  0  0  0  0  0  0  0  0  0  0  0
  -30.7831  -26.4545   20.0739 C   0  0  0  0  0  0  0  0  0  0  0  0
  -26.3137  -28.6152   19.0735 C   0  0  0  0  0  0  0  0  0  0  0  0
  -23.4760   -8.1673   22.1741 C   0  0  0  0  0  0  0  0  0  0  0  0
  -22.2473   -8.7294   20.1712 C   0  0  0  0  0  0  0  0  0  0  0  0
  -25.1965  -27.7817   19.0415 C   0  0  0  0  0  0  0  0  0  0  0  0
  -20.3863   -7.4154   23.3198 C   0  0  0  0  0  0  0  0  0  0  0  0
  -19.8963   -7.1436   24.5971 C   0  0  0  0  0  0  0  0  0  0  0  0
  -24.6174  -28.4819   21.2761 C   0  0  0  0  0  0  0  0  0  0  0  0
  -21.0630   -5.0279   24.5944 C   0  0  0  0  0  0  0  0  0  0  0  0
  -24.0414  -10.1590   20.9290 C   0  0  0  0  0  0  0  0  0  0  0  0
  -26.0626  -11.4422   20.0481 C   0  0  0  0  0  0  0  0  0  0  0  0
  -32.9472  -27.4458   20.5441 C   0  0  0  0  0  0  0  0  0  0  0  0
  -26.5976  -29.3813   20.2132 C   0  0  0  0  0  0  0  0  0  0  0  0
  -31.5887  -27.2809   20.8754 C   0  0  0  0  0  0  0  0  0  0  0  0
  -25.7374  -29.3262   21.3191 C   0  0  0  0  0  0  0  0  0  0  0  0
  -22.4684   -7.8781   21.2539 C   0  0  0  0  0  0  0  0  0  0  0  0
  -24.3498  -27.7128   20.1439 C   0  0  0  0  0  0  0  0  0  0  0  0
  -21.2146   -6.4935   22.6797 C   0  0  0  0  0  0  0  0  0  0  0  0
  -20.2346   -5.9499   25.2344 C   0  0  0  0  0  0  0  0  0  0  0  0
  -21.5530   -5.2998   23.3171 C   0  0  0  0  0  0  0  0  0  0  0  0
  -24.8532  -11.3376   20.7610 C   0  0  0  0  0  0  0  0  0  0  0  0
  -26.4319  -12.7575   20.1897 C   0  0  0  0  0  0  0  0  0  0  0  0
  -26.7874  -10.4401   19.3228 C   0  0  0  0  0  0  0  0  0  0  0  0
  -29.0015  -29.5083   22.2890 C   0  0  0  0  0  0  0  0  0  0  0  0
  -27.3674  -32.0675   23.4303 C   0  0  0  0  0  0  0  0  0  0  0  0
  -24.3837  -33.6936   23.7463 C   0  0  0  0  0  0  0  0  0  0  0  0
  -23.1073  -17.6015   21.2795 C   0  0  0  0  0  0  0  0  0  0  0  0
  -33.8745  -28.2814   21.3908 C   0  0  0  0  0  0  0  0  0  0  0  0
  -27.7919  -30.2956   20.2219 C   0  0  0  0  0  0  0  0  0  0  0  0
  -25.9867  -30.1439   22.5592 C   0  0  0  0  0  0  0  0  0  0  0  0
  -33.1452  -29.2429   22.3256 C   0  0  0  0  0  0  0  0  0  0  0  0
  -26.0240  -16.4627   23.1875 C   0  0  0  0  0  0  0  0  0  0  0  0
  -32.0085  -28.5263   23.0477 C   0  0  0  0  0  0  0  0  0  0  0  0
  -26.1463  -15.0117   22.7195 C   0  0  0  0  0  0  0  0  0  0  0  0
  -24.5637  -16.8936   23.2521 C   0  0  0  0  0  0  0  0  0  0  0  0
  -22.2162  -19.9938   21.2873 C   0  0  0  0  0  0  0  0  0  0  0  0
  -23.6944  -19.6643   22.7810 C   0  0  0  0  0  0  0  0  0  0  0  0
  -23.9335  -15.2834   21.4997 C   0  0  0  0  0  0  0  0  0  0  0  0
  -23.0909  -23.8064   20.8801 C   0  0  0  0  0  0  0  0  0  0  0  0
  -21.6596  -24.2387   22.3391 C   0  0  0  0  0  0  0  0  0  0  0  0
  -30.9670  -28.0011   22.0523 C   0  0  1  0  0  0  0  0  0  0  0  0
  -28.2690  -30.6420   21.6289 C   0  0  1  0  0  0  0  0  0  0  0  0
  -23.3138  -20.8750   21.9079 C   0  0  0  0  0  0  0  0  0  0  0  0
  -22.1587  -25.0161   21.1026 C   0  0  0  0  0  0  0  0  0  0  0  0
  -25.3872  -14.7856   21.3991 C   0  0  2  0  0  0  0  0  0  0  0  0
  -23.3557  -35.7434   24.7657 C   0  0  0  0  0  0  0  0  0  0  0  0
  -27.4690  -30.7482   26.1797 C   0  0  0  0  0  0  0  0  0  0  0  0
  -25.6617  -32.3142   26.9209 C   0  0  0  0  0  0  0  0  0  0  0  0
  -27.8700  -33.2167   26.1916 C   0  0  0  0  0  0  0  0  0  0  0  0
  -23.5464  -34.7295   21.1035 C   0  0  0  0  0  0  0  0  0  0  0  0
  -22.8489  -22.1186   22.6386 C   0  0  0  0  0  0  0  0  0  0  0  0
  -22.8219  -26.3529   21.3573 C   0  0  0  0  0  0  0  0  0  1  0  0
  -26.2855  -32.2711   24.4632 C   0  0  1  0  0  0  0  0  0  0  0  0
  -23.9993  -35.1453   23.5243 C   0  0  2  0  0  0  0  0  0  0  0  0
  -26.8176  -32.1206   25.9164 C   0  0  0  0  0  0  0  0  0  0  0  0
  -24.4791  -12.4942   21.3144 N   0  0  0  0  0  0  0  0  0  0  0  0
  -25.4593  -13.3380   20.9495 N   0  0  0  0  0  0  0  0  0  0  0  0
  -27.1708  -31.0180   22.5216 N   0  0  0  0  0  0  0  0  0  0  0  0
  -23.8960  -16.6737   21.9653 N   0  0  0  0  0  0  0  0  0  0  0  0
  -22.9545  -18.8544   21.8250 N   0  0  0  0  0  0  0  0  0  0  0  0
  -27.4905  -13.4625   19.7373 N   0  0  0  0  0  0  0  0  0  0  0  0
  -26.2665   -9.1397   19.2783 N   0  0  0  0  0  0  0  0  0  0  0  0
  -30.1165  -29.0790   21.5948 N   0  0  0  0  0  0  0  0  0  0  0  0
  -25.6877  -33.5708   24.1774 N   0  0  0  0  0  0  0  0  0  0  0  0
  -22.1459  -23.0073   21.6854 N   0  3  0  0  0  0  0  0  0  0  0  0
  -23.0348  -35.2587   22.3939 N   0  3  0  0  0  0  0  0  0  0  0  0
  -27.8734  -10.6865   18.7454 O   0  0  0  0  0  0  0  0  0  0  0  0
  -28.5867  -29.0574   23.3503 O   0  0  0  0  0  0  0  0  0  0  0  0
  -28.3474  -32.8167   23.4252 O   0  0  0  0  0  0  0  0  0  0  0  0
  -23.6040  -32.7621   23.5598 O   0  0  0  0  0  0  0  0  0  0  0  0
  -22.5785  -17.3314   20.1930 O   0  0  0  0  0  0  0  0  0  0  0  0
  -21.7009   -6.7652   21.4119 O   0  0  0  0  0  0  0  0  0  0  0  0
  -23.2510  -26.8936   20.1152 O   0  0  0  0  0  0  0  0  0  1  0  0
  -19.7652   -5.6896   26.4617 F   0  0  0  0  0  0  0  0  0  0  0  0
  -22.3493   -4.4108   22.7077 F   0  0  0  0  0  0  0  0  0  0  0  0
  1  2  1  0  0  0  0
  1  5  2  0  0  0  0
  2  6  2  0  0  0  0
  3  8  2  0  0  0  0
  3 15  1  0  0  0  0
  4  9  1  0  0  0  0
  4 15  2  0  0  0  0
  5 17  1  0  0  0  0
  6 19  1  0  0  0  0
  7 10  2  0  0  0  0
  7 18  1  0  0  0  0
  8 21  1  0  0  0  0
  9 21  2  0  0  0  0
 10 22  1  0  0  0  0
 11 12  2  0  0  0  0
 11 23  1  0  0  0  0
 12 24  1  0  0  0  0
 13 20  1  0  0  0  0
 13 22  2  0  0  0  0
 14 24  2  0  0  0  0
 14 25  1  0  0  0  0
 15 26  1  0  0  0  0
 16 26  1  0  0  0  0
 16 27  2  0  0  0  0
 16 28  1  0  0  0  0
 17 19  2  0  0  0  0
 17 33  1  0  0  0  0
 18 20  2  0  0  0  0
 18 34  1  0  0  0  0
 19 46  1  0  0  0  0
 20 35  1  0  0  0  0
 21 77  1  0  0  0  0
 22 78  1  0  0  0  0
 23 25  2  0  0  0  0
 23 77  1  0  0  0  0
 24 79  1  0  0  0  0
 25 80  1  0  0  0  0
 26 61  2  0  0  0  0
 27 62  1  0  0  0  0
 27 66  1  0  0  0  0
 28 67  1  0  0  0  0
 28 72  2  0  0  0  0
 29 47  1  0  0  0  0
 29 68  1  0  0  0  0
 29 73  2  0  0  0  0
 30 58  1  0  0  0  0
 30 63  1  0  0  0  0
 30 74  2  0  0  0  0
 31 59  1  0  0  0  0
 31 69  1  0  0  0  0
 31 75  2  0  0  0  0
 32 64  1  0  0  0  0
 32 65  1  0  0  0  0
 32 76  2  0  0  0  0
 33 36  1  0  0  0  0
 34 47  1  0  0  0  0
 35 63  1  0  0  0  0
 36 38  1  0  0  0  0
 37 39  1  0  0  0  0
 37 40  1  0  0  0  0
 38 46  1  0  0  0  0
 39 50  1  0  0  0  0
 40 64  1  0  0  0  0
 41 48  1  0  0  0  0
 41 65  1  0  0  0  0
 42 48  1  0  0  0  0
 42 65  1  0  0  0  0
 43 50  1  0  0  0  0
 43 64  1  0  0  0  0
 44 49  1  0  0  0  0
 44 70  1  0  0  0  0
 45 49  1  0  0  0  0
 45 70  1  0  0  0  0
 46 68  1  0  0  0  0
 47 63  1  0  0  0  0
 48 56  1  0  0  0  0
 49 57  1  0  0  0  0
 50 62  1  0  0  0  0
 51 59  1  0  0  0  0
 52 60  1  0  0  0  0
 53 60  1  0  0  0  0
 54 60  1  0  0  0  0
 55 71  1  0  0  0  0
 56 70  1  0  0  0  0
 57 78  1  0  0  0  0
 58 60  1  0  0  0  0
 58 69  1  0  0  0  0
 59 71  1  0  0  0  0
 61 62  1  0  0  0  0
M  CHG  2  70   1  71   1
M  ISO  4  32 100  57 101  65 100  78 101
M  END
> <Batch ID>
0188

> <Smiles>
CNC(C)C(=O)NC(C(=O)N1Cc2cc([101O:1][101CH2:1]C3CN(CC4C[100N:0]([100C:0](=O)N5CCCC(n6nc(-c7ccc(Oc8ccc(F)cc8F)cc7)c(C(N)=O)c6N)C5)C4)C3)ccc2CC1C(=O)NC1CCCc2ccccc21)C(C)(C)C

> <Shape>
0.253

> <Color>
0.107

> <Negative vol penalty>
0.000

$$$$

  -OEChem-04052323193D

 86 95  0     1  0  0  0  0  0999 V2000
  -16.8305  -28.2775   23.9884 C   0  0  0  0  0  0  0  0  0  0  0  0
  -17.5091  -27.5618   23.0072 C   0  0  0  0  0  0  0  0  0  0  0  0
  -23.8114   -9.9081   22.4045 C   0  0  0  0  0  0  0  0  0  0  0  0
  -22.8341  -10.1783   20.2116 C   0  0  0  0  0  0  0  0  0  0  0  0
  -17.2346  -29.5725   24.3101 C   0  0  0  0  0  0  0  0  0  0  0  0
  -18.5916  -28.1413   22.3463 C   0  0  0  0  0  0  0  0  0  0  0  0
  -23.6339  -25.2990   20.3459 C   0  0  0  0  0  0  0  0  0  0  0  0
  -22.8743   -8.9182   22.7002 C   0  0  0  0  0  0  0  0  0  0  0  0
  -21.8969   -9.1884   20.5073 C   0  0  0  0  0  0  0  0  0  0  0  0
  -24.0065  -24.8231   19.0895 C   0  0  0  0  0  0  0  0  0  0  0  0
  -22.4105   -5.6409   22.0095 C   0  0  0  0  0  0  0  0  0  0  0  0
  -22.8704   -4.4748   22.6213 C   0  0  0  0  0  0  0  0  0  0  0  0
  -25.2175  -26.8689   18.6804 C   0  0  0  0  0  0  0  0  0  0  0  0
  -21.4267   -4.8974   24.5119 C   0  0  0  0  0  0  0  0  0  0  0  0
  -26.7755  -25.7610   15.3699 C   0  0  0  0  0  0  0  0  0  0  0  0
  -23.7913  -10.5382   21.1602 C   0  0  0  0  0  0  0  0  0  0  0  0
  -26.0261  -11.3845   20.2675 C   0  0  0  0  0  0  0  0  0  0  0  0
  -18.3287  -30.1646   23.6595 C   0  0  0  0  0  0  0  0  0  0  0  0
  -24.0420  -26.5700   20.7753 C   0  0  0  0  0  0  0  0  0  0  0  0
  -19.0099  -29.4460   22.6586 C   0  0  0  0  0  0  0  0  0  0  0  0
  -24.8508  -27.3576   19.9437 C   0  0  0  0  0  0  0  0  0  0  0  0
  -21.9170   -8.5583   21.7517 C   0  0  0  0  0  0  0  0  0  0  0  0
  -24.7960  -25.6093   18.2554 C   0  0  0  0  0  0  0  0  0  0  0  0
  -21.4587   -6.4353   22.6489 C   0  0  0  0  0  0  0  0  0  0  0  0
  -22.3785   -4.1030   23.8725 C   0  0  0  0  0  0  0  0  0  0  0  0
  -20.9668   -6.0635   23.9000 C   0  0  0  0  0  0  0  0  0  0  0  0
  -24.7587  -11.5612   20.8543 C   0  0  0  0  0  0  0  0  0  0  0  0
  -29.0047  -25.6414   15.8669 C   0  0  0  0  0  0  0  0  0  0  0  0
  -28.6987  -25.1862   17.1305 C   0  0  0  0  0  0  0  0  0  0  0  0
  -26.4694  -25.3059   16.6337 C   0  0  0  0  0  0  0  0  0  1  0  0
  -26.5484  -12.6525   20.1901 C   0  0  0  0  0  0  0  0  0  0  0  0
  -26.6733  -10.1818   19.8313 C   0  0  0  0  0  0  0  0  0  0  0  0
  -22.5415  -29.2513   21.5897 C   0  0  0  0  0  0  0  0  0  0  0  0
  -25.5328  -30.2243   22.3820 C   0  0  0  0  0  0  0  0  0  0  0  0
  -28.9003  -29.8892   21.9413 C   0  0  0  0  0  0  0  0  0  0  0  0
  -25.8396  -17.9614   18.7992 C   0  0  0  0  0  0  0  0  0  0  0  0
  -18.6990  -31.5845   24.0080 C   0  0  0  0  0  0  0  0  0  0  0  0
  -23.6539  -27.0578   22.1442 C   0  0  0  0  0  0  0  0  0  0  0  0
  -25.3321  -28.7209   20.3659 C   0  0  0  0  0  0  0  0  0  0  0  0
  -20.0896  -31.9875   23.5244 C   0  0  0  0  0  0  0  0  0  0  0  0
  -24.9653  -17.0007   22.2280 C   0  0  0  0  0  0  0  0  0  0  0  0
  -20.2973  -31.5553   22.0763 C   0  0  0  0  0  0  0  0  0  0  0  0
  -24.9218  -15.4760   22.1153 C   0  0  0  0  0  0  0  0  0  0  0  0
  -24.4836  -17.6567   20.9397 C   0  0  0  0  0  0  0  0  0  0  0  0
  -26.9821  -20.1935   18.3198 C   0  0  0  0  0  0  0  0  0  0  0  0
  -26.7023  -19.8452   20.3996 C   0  0  0  0  0  0  0  0  0  0  0  0
  -25.1896  -15.7160   19.5995 C   0  0  0  0  0  0  0  0  0  0  0  0
  -20.2044  -30.0311   21.9368 C   0  0  1  0  0  0  0  0  0  0  0  0
  -23.6983  -28.5774   22.2718 C   0  0  1  0  0  0  0  0  0  0  0  0
  -27.7923  -20.5569   19.5760 C   0  0  0  0  0  0  0  0  0  0  0  0
  -25.6769  -14.9873   20.8655 C   0  0  2  0  0  0  0  0  0  0  0  0
  -30.4170  -25.8318   15.4302 C   0  0  0  0  0  0  0  0  0  0  0  0
  -31.0914  -30.8497   22.6989 C   0  0  0  0  0  0  0  0  0  0  0  0
  -25.0742  -32.6637   20.6075 C   0  0  0  0  0  0  0  0  0  0  0  0
  -27.5454  -33.0645   20.6392 C   0  0  0  0  0  0  0  0  0  0  0  0
  -26.2427  -33.1479   22.7650 C   0  0  0  0  0  0  0  0  0  0  0  0
  -29.7828  -27.2954   23.0604 C   0  0  0  0  0  0  0  0  0  0  0  0
  -30.1359  -24.2576   20.5148 C   0  0  0  0  0  0  0  0  0  0  0  0
  -29.7727  -24.8606   18.1263 C   0  0  0  0  0  0  0  0  0  0  0  0
  -27.9909  -22.0345   19.8476 C   0  0  0  0  0  0  0  0  0  0  0  0
  -29.0829  -22.6190   18.9630 C   0  0  0  0  0  0  0  0  0  0  0  0
  -26.6602  -30.9156   21.6539 C   0  0  1  0  0  0  0  0  0  0  0  0
  -30.0403  -29.7768   22.9374 C   0  0  2  0  0  0  0  0  0  0  0  0
  -26.3701  -32.4231   21.4074 C   0  0  0  0  0  0  0  0  0  0  0  0
  -28.0486  -25.9371   14.9638 N   0  0  0  0  0  0  0  0  0  0  0  0
  -24.4921  -12.8406   21.1303 N   0  0  0  0  0  0  0  0  0  0  0  0
  -27.4256  -25.0102   17.5366 N   0  0  0  0  0  0  0  0  0  0  0  0
  -25.5992  -13.4793   20.7151 N   0  0  0  0  0  0  0  0  0  0  0  0
  -24.9209  -29.1562   21.7108 N   0  0  0  0  0  0  0  0  0  0  0  0
  -25.2479  -17.1695   19.7871 N   0  0  0  0  0  0  0  0  0  0  0  0
  -26.3036  -19.2059   19.1546 N   0  0  0  0  0  0  0  0  0  0  0  0
  -27.7224  -13.1296   19.7248 N   0  0  0  0  0  0  0  0  0  0  0  0
  -25.9952   -8.9648   19.9844 N   0  0  0  0  0  0  0  0  0  0  0  0
  -21.4276  -29.4063   22.3926 N   0  0  0  0  0  0  0  0  0  0  0  0
  -27.8670  -30.6588   22.4324 N   0  0  0  0  0  0  0  0  0  0  0  0
  -30.6962  -28.4433   22.8257 N   0  3  0  0  0  0  0  0  0  0  0  0
  -29.2685  -24.0516   19.2967 N   0  3  1  0  0  0  0  0  0  0  0  0
  -27.8258  -10.1843   19.3360 O   0  0  0  0  0  0  0  0  0  0  0  0
  -22.6519  -29.6057   20.4218 O   0  0  0  0  0  0  0  0  0  0  0  0
  -25.2118  -30.6129   23.5079 O   0  0  0  0  0  0  0  0  0  0  0  0
  -28.9257  -29.3514   20.8365 O   0  0  0  0  0  0  0  0  0  0  0  0
  -25.9800  -17.5579   17.6370 O   0  0  0  0  0  0  0  0  0  0  0  0
  -21.0025   -7.5923   22.0398 O   0  0  0  0  0  0  0  0  0  0  0  0
  -25.1663  -25.1402   17.0088 O   0  0  0  0  0  0  0  0  0  1  0  0
  -22.8191   -2.9824   24.4592 F   0  0  0  0  0  0  0  0  0  0  0  0
  -20.0515   -6.8220   24.5187 F   0  0  0  0  0  0  0  0  0  0  0  0
  1  2  1  0  0  0  0
  1  5  2  0  0  0  0
  2  6  2  0  0  0  0
  3  8  2  0  0  0  0
  3 16  1  0  0  0  0
  4  9  1  0  0  0  0
  4 16  2  0  0  0  0
  5 18  1  0  0  0  0
  6 20  1  0  0  0  0
  7 10  2  0  0  0  0
  7 19  1  0  0  0  0
  8 22  1  0  0  0  0
  9 22  2  0  0  0  0
 10 23  1  0  0  0  0
 11 12  2  0  0  0  0
 11 24  1  0  0  0  0
 12 25  1  0  0  0  0
 13 21  1  0  0  0  0
 13 23  2  0  0  0  0
 14 25  2  0  0  0  0
 14 26  1  0  0  0  0
 15 30  1  0  0  0  0
 15 65  2  0  0  0  0
 16 27  1  0  0  0  0
 17 27  1  0  0  0  0
 17 31  2  0  0  0  0
 17 32  1  0  0  0  0
 18 20  2  0  0  0  0
 18 37  1  0  0  0  0
 19 21  2  0  0  0  0
 19 38  1  0  0  0  0
 20 48  1  0  0  0  0
 21 39  1  0  0  0  0
 22 83  1  0  0  0  0
 23 84  1  0  0  0  0
 24 26  2  0  0  0  0
 24 83  1  0  0  0  0
 25 85  1  0  0  0  0
 26 86  1  0  0  0  0
 27 66  2  0  0  0  0
 28 29  2  0  0  0  0
 28 52  1  0  0  0  0
 28 65  1  0  0  0  0
 29 59  1  0  0  0  0
 29 67  1  0  0  0  0
 30 67  2  0  0  0  0
 30 84  1  0  0  0  0
 31 68  1  0  0  0  0
 31 72  1  0  0  0  0
 32 73  1  0  0  0  0
 32 78  2  0  0  0  0
 33 49  1  0  0  0  0
 33 74  1  0  0  0  0
 33 79  2  0  0  0  0
 34 62  1  0  0  0  0
 34 69  1  0  0  0  0
 34 80  2  0  0  0  0
 35 63  1  0  0  0  0
 35 75  1  0  0  0  0
 35 81  2  0  0  0  0
 36 70  1  0  0  0  0
 36 71  1  0  0  0  0
 36 82  2  0  0  0  0
 37 40  1  0  0  0  0
 38 49  1  0  0  0  0
 39 69  1  0  0  0  0
 40 42  1  0  0  0  0
 41 43  1  0  0  0  0
 41 44  1  0  0  0  0
 42 48  1  0  0  0  0
 43 51  1  0  0  0  0
 44 70  1  0  0  0  0
 45 50  1  0  0  0  0
 45 71  1  0  0  0  0
 46 50  1  0  0  0  0
 46 71  1  0  0  0  0
 47 51  1  0  0  0  0
 47 70  1  0  0  0  0
 48 74  1  0  0  0  0
 49 69  1  0  0  0  0
 50 60  1  0  0  0  0
 51 68  1  0  0  0  0
 53 63  1  0  0  0  0
 54 64  1  0  0  0  0
 55 64  1  0  0  0  0
 56 64  1  0  0  0  0
 57 76  1  0  0  0  0
 58 77  1  0  0  0  0
 59 77  1  0  0  0  0
 60 61  1  0  0  0  0
 61 77  1  0  0  0  0
 62 64  1  0  0  0  0
 62 75  1  0  0  0  0
 63 76  1  0  0  0  0
 66 68  1  0  0  0  0
M  CHG  2  76   1  77   1
M  ISO  4  30 101  36 100  71 100  84 101
M  END
> <Batch ID>
0188

> <Smiles>
CNC(C)C(=O)NC(C(=O)N1Cc2cc([101O:1][101c:1]3cnc(C)c(CN(C)CCC4C[100N:0]([100C:0](=O)N5CCCC(n6nc(-c7ccc(Oc8ccc(F)cc8F)cc7)c(C(N)=O)c6N)C5)C4)n3)ccc2CC1C(=O)NC1CCCc2ccccc21)C(C)(C)C

> <Shape>
0.297

> <Color>
0.085

> <Negative vol penalty>
0.000

$$$$

  -OEChem-04052323193D

 81 90  0     1  0  0  0  0  0999 V2000
  -27.7677  -34.8008   24.4922 C   0  0  0  0  0  0  0  0  0  0  0  0
  -28.5626  -33.7247   24.1108 C   0  0  0  0  0  0  0  0  0  0  0  0
  -23.0846  -10.3849   19.8871 C   0  0  0  0  0  0  0  0  0  0  0  0
  -23.9021   -9.5365   21.9964 C   0  0  0  0  0  0  0  0  0  0  0  0
  -26.3940  -34.6275   24.6564 C   0  0  0  0  0  0  0  0  0  0  0  0
  -27.9844  -32.4743   23.8945 C   0  0  0  0  0  0  0  0  0  0  0  0
  -28.6977  -26.6225   19.8247 C   0  0  0  0  0  0  0  0  0  0  0  0
  -22.2766   -9.2567   19.7465 C   0  0  0  0  0  0  0  0  0  0  0  0
  -23.0940   -8.4083   21.8558 C   0  0  0  0  0  0  0  0  0  0  0  0
  -28.8066  -25.2373   19.9396 C   0  0  0  0  0  0  0  0  0  0  0  0
  -19.8388   -7.6088   22.2854 C   0  0  0  0  0  0  0  0  0  0  0  0
  -19.1111   -7.1917   23.3999 C   0  0  0  0  0  0  0  0  0  0  0  0
  -26.4115  -25.0747   20.1766 C   0  0  0  0  0  0  0  0  0  0  0  0
  -20.2471   -5.0602   23.3438 C   0  0  0  0  0  0  0  0  0  0  0  0
  -23.8974  -10.5248   21.0121 C   0  0  0  0  0  0  0  0  0  0  0  0
  -24.3937  -12.9067   21.7788 C   0  0  0  0  0  0  0  0  0  0  0  0
  -25.7973  -33.3768   24.4326 C   0  0  0  0  0  0  0  0  0  0  0  0
  -27.4437  -27.2462   19.8958 C   0  0  0  0  0  0  0  0  0  0  0  0
  -26.6017  -32.2839   24.0572 C   0  0  0  0  0  0  0  0  0  0  0  0
  -26.2891  -26.4677   20.0597 C   0  0  0  0  0  0  0  0  0  0  0  0
  -22.2812   -8.2684   20.7308 C   0  0  0  0  0  0  0  0  0  0  0  0
  -27.6637  -24.4634   20.1185 C   0  0  0  0  0  0  0  0  0  0  0  0
  -20.7705   -6.7516   21.7000 C   0  0  0  0  0  0  0  0  0  0  0  0
  -19.3153   -5.9174   23.9291 C   0  0  0  0  0  0  0  0  0  0  0  0
  -20.9747   -5.4773   22.2292 C   0  0  0  0  0  0  0  0  0  0  0  0
  -24.7328  -11.6898   21.1577 C   0  0  0  0  0  0  0  0  0  0  0  0
  -28.8495  -18.4283   20.4631 C   0  0  0  0  0  0  0  0  0  0  0  0
  -29.0935  -19.0464   19.2524 C   0  0  0  0  0  0  0  0  0  0  0  0
  -28.7478  -20.4439   21.4762 C   0  0  0  0  0  0  0  0  0  0  0  0
  -28.9956  -21.0654   20.2595 C   0  0  0  0  0  0  0  0  0  0  0  0
  -25.5210  -13.6815   21.6545 C   0  0  0  0  0  0  0  0  0  0  0  0
  -23.1693  -13.3015   22.4117 C   0  0  0  0  0  0  0  0  0  0  0  0
  -26.1003  -29.3658   21.8467 C   0  0  0  0  0  0  0  0  0  0  0  0
  -23.6863  -29.2448   19.6833 C   0  0  0  0  0  0  0  0  0  0  0  0
  -22.0717  -27.4943   17.2388 C   0  0  0  0  0  0  0  0  0  0  0  0
  -29.6109  -15.5716   18.2788 C   0  0  0  0  0  0  0  0  0  0  0  0
  -24.3153  -33.2268   24.6687 C   0  0  0  0  0  0  0  0  0  0  0  0
  -27.3406  -28.7390   19.7433 C   0  0  0  0  0  0  0  0  0  0  0  0
  -24.9175  -27.0868   20.1223 C   0  0  0  0  0  0  0  0  0  0  0  0
  -28.7945  -16.9416   20.2969 C   0  0  0  0  0  0  0  0  0  0  0  0
  -29.2595  -18.0336   18.1667 C   0  0  0  0  0  0  0  0  0  0  0  0
  -23.7261  -31.9589   24.0560 C   0  0  0  0  0  0  0  0  0  0  0  0
  -30.2085  -12.4861   20.1675 C   0  0  0  0  0  0  0  0  0  0  0  0
  -24.6023  -30.7528   24.3794 C   0  0  0  0  0  0  0  0  0  0  0  0
  -28.7994  -12.0855   20.6091 C   0  0  0  0  0  0  0  0  0  0  0  0
  -30.2006  -13.2403   18.8394 C   0  0  0  0  0  0  0  0  0  0  0  0
  -27.8874  -13.9890   19.2311 C   0  0  0  0  0  0  0  0  0  0  0  0
  -26.0079  -30.9180   23.7891 C   0  0  1  0  0  0  0  0  0  0  0  0
  -26.0625  -29.3143   20.3455 C   0  0  1  0  0  0  0  0  0  0  0  0
  -27.8451  -13.2955   20.5992 C   0  0  1  0  0  0  0  0  0  0  0  0
  -28.5535  -21.2421   22.7212 C   0  0  0  0  0  0  0  0  0  0  0  0
  -20.1090  -27.6385   15.6817 C   0  0  0  0  0  0  0  0  0  0  0  0
  -21.8022  -28.6412   22.0061 C   0  0  0  0  0  0  0  0  0  0  0  0
  -20.1030  -27.8708   20.3365 C   0  0  0  0  0  0  0  0  0  0  0  0
  -20.8902  -30.2378   20.3109 C   0  0  0  0  0  0  0  0  0  0  0  0
  -23.8076  -27.3190   14.8482 C   0  0  0  0  0  0  0  0  0  0  0  0
  -29.0772  -22.5513   20.1583 C   0  0  0  0  0  0  0  0  0  1  0  0
  -22.4418  -28.4068   19.5158 C   0  0  1  0  0  0  0  0  0  0  0  0
  -21.5970  -27.9004   15.8552 C   0  0  2  0  0  0  0  0  0  0  0  0
  -21.3352  -28.7774   20.5431 C   0  0  0  0  0  0  0  0  0  0  0  0
  -25.9780  -11.6869   20.6744 N   0  0  0  0  0  0  0  0  0  0  0  0
  -28.6667  -19.1007   21.6058 N   0  0  0  0  0  0  0  0  0  0  0  0
  -29.1754  -20.3748   19.1112 N   0  0  0  0  0  0  0  0  0  0  0  0
  -26.4312  -12.9116   20.9919 N   0  0  0  0  0  0  0  0  0  0  0  0
  -24.8693  -28.5508   19.9744 N   0  0  0  0  0  0  0  0  0  0  0  0
  -29.1349  -16.7440   18.8703 N   0  0  0  0  0  0  0  0  0  0  0  0
  -29.2622  -14.3605   18.8846 N   0  0  0  0  0  0  0  0  0  0  0  0
  -25.8126  -14.9394   22.0483 N   0  0  0  0  0  0  0  0  0  0  0  0
  -22.1113  -12.3831   22.4515 N   0  0  0  0  0  0  0  0  0  0  0  0
  -25.9954  -30.6409   22.3688 N   0  0  0  0  0  0  0  0  0  0  0  0
  -22.0362  -28.5525   18.1220 N   0  0  0  0  0  0  0  0  0  0  0  0
  -22.3338  -27.1357   14.8096 N   0  3  0  0  0  0  0  0  0  0  0  0
  -23.0122  -14.4410   22.9122 O   0  0  0  0  0  0  0  0  0  0  0  0
  -26.2145  -28.3255   22.4843 O   0  0  0  0  0  0  0  0  0  0  0  0
  -23.6129  -30.4693   19.5533 O   0  0  0  0  0  0  0  0  0  0  0  0
  -22.4340  -26.3516   17.5099 O   0  0  0  0  0  0  0  0  0  0  0  0
  -30.3566  -15.6061   17.2916 O   0  0  0  0  0  0  0  0  0  0  0  0
  -21.4927   -7.1675   20.5940 O   0  0  0  0  0  0  0  0  0  0  0  0
  -27.7680  -23.1019   20.2325 O   0  0  0  0  0  0  0  0  0  1  0  0
  -18.6176   -5.5176   25.0003 F   0  0  0  0  0  0  0  0  0  0  0  0
  -21.8694   -4.6498   21.6719 F   0  0  0  0  0  0  0  0  0  0  0  0
  1  2  1  0  0  0  0
  1  5  2  0  0  0  0
  2  6  2  0  0  0  0
  3  8  2  0  0  0  0
  3 15  1  0  0  0  0
  4  9  1  0  0  0  0
  4 15  2  0  0  0  0
  5 17  1  0  0  0  0
  6 19  1  0  0  0  0
  7 10  2  0  0  0  0
  7 18  1  0  0  0  0
  8 21  1  0  0  0  0
  9 21  2  0  0  0  0
 10 22  1  0  0  0  0
 11 12  2  0  0  0  0
 11 23  1  0  0  0  0
 12 24  1  0  0  0  0
 13 20  1  0  0  0  0
 13 22  2  0  0  0  0
 14 24  2  0  0  0  0
 14 25  1  0  0  0  0
 15 26  1  0  0  0  0
 16 26  1  0  0  0  0
 16 31  2  0  0  0  0
 16 32  1  0  0  0  0
 17 19  2  0  0  0  0
 17 37  1  0  0  0  0
 18 20  2  0  0  0  0
 18 38  1  0  0  0  0
 19 48  1  0  0  0  0
 20 39  1  0  0  0  0
 21 78  1  0  0  0  0
 22 79  1  0  0  0  0
 23 25  2  0  0  0  0
 23 78  1  0  0  0  0
 24 80  1  0  0  0  0
 25 81  1  0  0  0  0
 26 61  2  0  0  0  0
 27 28  1  0  0  0  0
 27 40  1  0  0  0  0
 27 62  2  0  0  0  0
 28 41  1  0  0  0  0
 28 63  2  0  0  0  0
 29 30  2  0  0  0  0
 29 51  1  0  0  0  0
 29 62  1  0  0  0  0
 30 57  1  0  0  0  0
 30 63  1  0  0  0  0
 31 64  1  0  0  0  0
 31 68  1  0  0  0  0
 32 69  1  0  0  0  0
 32 73  2  0  0  0  0
 33 49  1  0  0  0  0
 33 70  1  0  0  0  0
 33 74  2  0  0  0  0
 34 58  1  0  0  0  0
 34 65  1  0  0  0  0
 34 75  2  0  0  0  0
 35 59  1  0  0  0  0
 35 71  1  0  0  0  0
 35 76  2  0  0  0  0
 36 66  1  0  0  0  0
 36 67  1  0  0  0  0
 36 77  2  0  0  0  0
 37 42  1  0  0  0  0
 38 49  1  0  0  0  0
 39 65  1  0  0  0  0
 40 66  1  0  0  0  0
 41 66  1  0  0  0  0
 42 44  1  0  0  0  0
 43 45  1  0  0  0  0
 43 46  1  0  0  0  0
 44 48  1  0  0  0  0
 45 50  1  0  0  0  0
 46 67  1  0  0  0  0
 47 50  1  0  0  0  0
 47 67  1  0  0  0  0
 48 70  1  0  0  0  0
 49 65  1  0  0  0  0
 50 64  1  0  0  0  0
 52 59  1  0  0  0  0
 53 60  1  0  0  0  0
 54 60  1  0  0  0  0
 55 60  1  0  0  0  0
 56 72  1  0  0  0  0
 57 79  1  0  0  0  0
 58 60  1  0  0  0  0
 58 71  1  0  0  0  0
 59 72  1  0  0  0  0
 61 64  1  0  0  0  0
M  CHG  1  72   1
M  ISO  4  36 100  57 101  66 100  79 101
M  END
> <Batch ID>
0188

> <Smiles>
CNC(C)C(=O)NC(C(=O)N1Cc2cc([101O:1][101CH2:1]c3nc4c(nc3C)C[100N:0]([100C:0](=O)N3CCCC(n5nc(-c6ccc(Oc7ccc(F)cc7F)cc6)c(C(N)=O)c5N)C3)C4)ccc2CC1C(=O)NC1CCCc2ccccc21)C(C)(C)C

> <Shape>
0.338

> <Color>
0.119

> <Negative vol penalty>
0.000

$$$$

  -OEChem-04052323193D

 84 93  0     1  0  0  0  0  0999 V2000
  -25.5006  -29.0038   19.9602 C   0  0  0  0  0  0  0  0  0  0  0  0
  -25.1088  -27.7713   19.4476 C   0  0  0  0  0  0  0  0  0  0  0  0
  -20.2165  -25.1540   21.7797 C   0  0  0  0  0  0  0  0  0  0  0  0
  -19.5397  -25.2486   24.0971 C   0  0  0  0  0  0  0  0  0  0  0  0
  -26.8421  -29.2388   20.2587 C   0  0  0  0  0  0  0  0  0  0  0  0
  -26.0586  -26.7733   19.2322 C   0  0  0  0  0  0  0  0  0  0  0  0
  -25.2670  -20.7355   19.8830 C   0  0  0  0  0  0  0  0  0  0  0  0
  -19.2476  -26.1044   21.4579 C   0  0  0  0  0  0  0  0  0  0  0  0
  -18.5708  -26.1991   23.7753 C   0  0  0  0  0  0  0  0  0  0  0  0
  -25.0007  -19.7201   18.9655 C   0  0  0  0  0  0  0  0  0  0  0  0
  -16.1604  -28.9166   23.6240 C   0  0  0  0  0  0  0  0  0  0  0  0
  -16.0425  -30.0306   24.4551 C   0  0  0  0  0  0  0  0  0  0  0  0
  -27.3566  -19.2150   18.8496 C   0  0  0  0  0  0  0  0  0  0  0  0
  -18.3321  -30.6327   23.9729 C   0  0  0  0  0  0  0  0  0  0  0  0
  -20.3625  -24.7260   23.0993 C   0  0  0  0  0  0  0  0  0  0  0  0
  -22.6968  -23.9842   23.8123 C   0  0  0  0  0  0  0  0  0  0  0  0
  -27.8073  -28.2399   20.0559 C   0  0  0  0  0  0  0  0  0  0  0  0
  -26.5836  -21.0059   20.2831 C   0  0  0  0  0  0  0  0  0  0  0  0
  -27.4145  -26.9956   19.5270 C   0  0  0  0  0  0  0  0  0  0  0  0
  -27.6368  -20.2326   19.7743 C   0  0  0  0  0  0  0  0  0  0  0  0
  -18.4248  -26.6270   22.4557 C   0  0  0  0  0  0  0  0  0  0  0  0
  -26.0458  -18.9616   18.4464 C   0  0  0  0  0  0  0  0  0  0  0  0
  -17.3642  -28.6606   22.9674 C   0  0  0  0  0  0  0  0  0  0  0  0
  -17.1283  -30.8887   24.6295 C   0  0  0  0  0  0  0  0  0  0  0  0
  -18.4500  -29.5186   23.1419 C   0  0  0  0  0  0  0  0  0  0  0  0
  -21.3628  -23.7439   23.4323 C   0  0  0  0  0  0  0  0  0  0  0  0
  -23.2257  -22.7335   24.0187 C   0  0  0  0  0  0  0  0  0  0  0  0
  -25.7622  -14.5548   17.9028 C   0  0  0  0  0  0  0  0  0  0  0  0
  -25.9184  -15.6348   17.1289 C   0  0  0  0  0  0  0  0  0  0  0  0
  -23.3954  -25.2269   23.9651 C   0  0  0  0  0  0  0  0  0  0  0  0
  -28.5257  -23.5123   20.0605 C   0  0  0  0  0  0  0  0  0  0  0  0
  -30.4678  -21.6785   21.9010 C   0  0  0  0  0  0  0  0  0  0  0  0
  -31.3667  -18.5576   22.9491 C   0  0  0  0  0  0  0  0  0  0  0  0
  -24.0340  -17.6010   22.5631 C   0  0  0  0  0  0  0  0  0  0  0  0
  -29.2525  -28.5567   20.3490 C   0  0  0  0  0  0  0  0  0  0  0  0
  -26.8515  -22.0870   21.2939 C   0  0  0  0  0  0  0  0  0  0  0  0
  -29.0658  -20.4695   20.1869 C   0  0  0  0  0  0  0  0  0  0  0  0
  -25.0344  -13.3088   17.4802 C   0  0  0  0  0  0  0  0  0  0  0  0
  -30.1404  -27.3186   20.4435 C   0  0  0  0  0  0  0  0  0  0  0  0
  -24.9985  -12.4635   18.7520 C   0  0  0  0  0  0  0  0  0  0  0  0
  -21.0033  -18.2127   24.3191 C   0  0  0  0  0  0  0  0  0  0  0  0
  -29.8633  -26.3728   19.2792 C   0  0  0  0  0  0  0  0  0  0  0  0
  -20.9230  -19.7368   24.2596 C   0  0  0  0  0  0  0  0  0  0  0  0
  -21.5364  -17.6109   23.0174 C   0  0  0  0  0  0  0  0  0  0  0  0
  -25.0923  -15.3778   22.7745 C   0  0  0  0  0  0  0  0  0  0  0  0
  -23.2347  -15.6272   21.1751 C   0  0  0  0  0  0  0  0  0  0  0  0
  -22.7452  -19.7139   22.5184 C   0  0  0  0  0  0  0  0  0  0  0  0
  -26.1224  -15.0465   21.6989 C   0  0  0  0  0  0  0  0  0  0  0  0
  -24.0583  -14.6629   20.3191 C   0  0  0  0  0  0  0  0  0  0  0  0
  -28.4115  -25.8795   19.3027 C   0  0  1  0  0  0  0  0  0  0  0  0
  -26.3256  -14.4016   19.2906 C   0  0  2  0  0  0  0  0  0  0  0  0
  -28.2821  -22.6141   21.2401 C   0  0  1  0  0  0  0  0  0  0  0  0
  -26.2408  -12.8884   19.5449 C   0  0  2  0  0  0  0  0  0  0  0  0
  -22.2738  -20.3402   23.8391 C   0  0  1  0  0  0  0  0  0  0  0  0
  -27.4955  -12.1592   19.0549 C   0  0  0  0  0  0  0  0  0  0  0  0
  -33.0144  -17.3741   24.4263 C   0  0  0  0  0  0  0  0  0  0  0  0
  -32.6484  -22.1108   19.8110 C   0  0  0  0  0  0  0  0  0  0  0  0
  -33.8992  -20.1911   20.8202 C   0  0  0  0  0  0  0  0  0  0  0  0
  -33.4370  -22.2298   22.1813 C   0  0  0  0  0  0  0  0  0  0  0  0
  -29.2164  -17.4350   24.6446 C   0  0  0  0  0  0  0  0  0  0  0  0
  -26.6742  -16.8535   17.5425 C   0  0  0  0  0  0  0  0  0  1  0  0
  -31.5405  -20.6514   21.6300 C   0  0  1  0  0  0  0  0  0  0  0  0
  -31.6302  -17.9975   24.3352 C   0  0  2  0  0  0  0  0  0  0  0  0
  -32.8547  -21.2923   21.1012 C   0  0  0  0  0  0  0  0  0  0  0  0
  -21.0627  -22.4428   23.3983 N   0  0  0  0  0  0  0  0  0  0  0  0
  -22.2157  -21.8543   23.7595 N   0  0  0  0  0  0  0  0  0  0  0  0
  -29.2773  -21.5420   21.1731 N   0  0  0  0  0  0  0  0  0  0  0  0
  -22.7940  -18.2529   22.6141 N   0  0  0  0  0  0  0  0  0  0  0  0
  -24.0299  -16.2316   22.2544 N   0  0  0  0  0  0  0  0  0  0  0  0
  -24.4515  -22.3111   24.3947 N   0  0  0  0  0  0  0  0  0  0  0  0
  -22.7021  -26.4185   23.7132 N   0  0  0  0  0  0  0  0  0  0  0  0
  -28.2457  -24.8441   20.3001 N   0  0  0  0  0  0  0  0  0  0  0  0
  -31.7008  -19.8928   22.8657 N   0  0  0  0  0  0  0  0  0  0  0  0
  -25.4974  -15.1154   20.3195 N   0  3  0  0  0  0  0  0  0  0  0  0
  -30.6215  -16.9536   24.6724 N   0  3  0  0  0  0  0  0  0  0  0  0
  -24.6035  -25.2783   24.2988 O   0  0  0  0  0  0  0  0  0  0  0  0
  -28.9386  -23.0328   19.0110 O   0  0  0  0  0  0  0  0  0  0  0  0
  -30.6758  -22.5649   22.7332 O   0  0  0  0  0  0  0  0  0  0  0  0
  -30.9136  -17.8776   22.0310 O   0  0  0  0  0  0  0  0  0  0  0  0
  -25.0913  -18.2138   22.7606 O   0  0  0  0  0  0  0  0  0  0  0  0
  -17.4794  -27.5546   22.1421 O   0  0  0  0  0  0  0  0  0  0  0  0
  -25.7867  -17.9630   17.5436 O   0  0  0  0  0  0  0  0  0  1  0  0
  -17.0144  -31.9593   25.4264 F   0  0  0  0  0  0  0  0  0  0  0  0
  -19.6086  -29.2784   22.5128 F   0  0  0  0  0  0  0  0  0  0  0  0
  1  2  1  0  0  0  0
  1  5  2  0  0  0  0
  2  6  2  0  0  0  0
  3  8  2  0  0  0  0
  3 15  1  0  0  0  0
  4  9  1  0  0  0  0
  4 15  2  0  0  0  0
  5 17  1  0  0  0  0
  6 19  1  0  0  0  0
  7 10  2  0  0  0  0
  7 18  1  0  0  0  0
  8 21  1  0  0  0  0
  9 21  2  0  0  0  0
 10 22  1  0  0  0  0
 11 12  2  0  0  0  0
 11 23  1  0  0  0  0
 12 24  1  0  0  0  0
 13 20  1  0  0  0  0
 13 22  2  0  0  0  0
 14 24  2  0  0  0  0
 14 25  1  0  0  0  0
 15 26  1  0  0  0  0
 16 26  1  0  0  0  0
 16 27  2  0  0  0  0
 16 30  1  0  0  0  0
 17 19  2  0  0  0  0
 17 35  1  0  0  0  0
 18 20  2  0  0  0  0
 18 36  1  0  0  0  0
 19 50  1  0  0  0  0
 20 37  1  0  0  0  0
 21 81  1  0  0  0  0
 22 82  1  0  0  0  0
 23 25  2  0  0  0  0
 23 81  1  0  0  0  0
 24 83  1  0  0  0  0
 25 84  1  0  0  0  0
 26 65  2  0  0  0  0
 27 66  1  0  0  0  0
 27 70  1  0  0  0  0
 28 29  2  0  0  0  0
 28 38  1  0  0  0  0
 28 51  1  0  0  0  0
 29 61  1  0  0  0  0
 30 71  1  0  0  0  0
 30 76  2  0  0  0  0
 31 52  1  0  0  0  0
 31 72  1  0  0  0  0
 31 77  2  0  0  0  0
 32 62  1  0  0  0  0
 32 67  1  0  0  0  0
 32 78  2  0  0  0  0
 33 63  1  0  0  0  0
 33 73  1  0  0  0  0
 33 79  2  0  0  0  0
 34 68  1  0  0  0  0
 34 69  1  0  0  0  0
 34 80  2  0  0  0  0
 35 39  1  0  0  0  0
 36 52  1  0  0  0  0
 37 67  1  0  0  0  0
 38 40  1  0  0  0  0
 39 42  1  0  0  0  0
 40 53  1  0  0  0  0
 41 43  1  0  0  0  0
 41 44  1  0  0  0  0
 42 50  1  0  0  0  0
 43 54  1  0  0  0  0
 44 68  1  0  0  0  0
 45 48  1  0  0  0  0
 45 69  1  0  0  0  0
 46 49  1  0  0  0  0
 46 69  1  0  0  0  0
 47 54  1  0  0  0  0
 47 68  1  0  0  0  0
 48 74  1  0  0  0  0
 49 74  1  0  0  0  0
 50 72  1  0  0  0  0
 51 53  1  0  0  0  0
 51 74  1  0  0  0  0
 52 67  1  0  0  0  0
 53 55  1  0  0  0  0
 54 66  1  0  0  0  0
 56 63  1  0  0  0  0
 57 64  1  0  0  0  0
 58 64  1  0  0  0  0
 59 64  1  0  0  0  0
 60 75  1  0  0  0  0
 61 82  1  0  0  0  0
 62 64  1  0  0  0  0
 62 73  1  0  0  0  0
 63 75  1  0  0  0  0
 65 66  1  0  0  0  0
M  CHG  2  74   1  75   1
M  ISO  4  34 100  61 101  69 100  82 101
M  END
> <Batch ID>
0188

> <Smiles>
CNC(C)C(=O)NC(C(=O)N1Cc2cc([101O:1][101CH2:1]C=C3CCC(C)C3N3CC[100N:0]([100C:0](=O)N4CCCC(n5nc(-c6ccc(Oc7ccc(F)cc7F)cc6)c(C(N)=O)c5N)C4)CC3)ccc2CC1C(=O)NC1CCCc2ccccc21)C(C)(C)C

> <Shape>
0.204

> <Color>
0.061

> <Negative vol penalty>
0.000

$$$$

  -OEChem-04052323193D

 84 93  0     1  0  0  0  0  0999 V2000
  -36.8351  -15.6823   24.3945 C   0  0  0  0  0  0  0  0  0  0  0  0
  -36.0558  -16.3435   23.4505 C   0  0  0  0  0  0  0  0  0  0  0  0
  -19.8975  -27.0720   21.7767 C   0  0  0  0  0  0  0  0  0  0  0  0
  -19.5029  -28.6780   23.5380 C   0  0  0  0  0  0  0  0  0  0  0  0
  -36.5886  -14.3410   24.6841 C   0  0  0  0  0  0  0  0  0  0  0  0
  -35.0303  -15.6633   22.7948 C   0  0  0  0  0  0  0  0  0  0  0  0
  -30.7559  -18.3674   22.5437 C   0  0  0  0  0  0  0  0  0  0  0  0
  -30.8980  -23.1039   16.4259 C   0  0  0  0  0  0  0  0  0  0  0  0
  -18.8431  -26.2921   22.2517 C   0  0  0  0  0  0  0  0  0  0  0  0
  -18.4485  -27.8981   24.0130 C   0  0  0  0  0  0  0  0  0  0  0  0
  -30.6947  -19.3735   21.5806 C   0  0  0  0  0  0  0  0  0  0  0  0
  -15.4655  -26.3079   22.0951 C   0  0  0  0  0  0  0  0  0  0  0  0
  -14.5633  -25.7993   21.1609 C   0  0  0  0  0  0  0  0  0  0  0  0
  -29.9751  -24.1265   16.6154 C   0  0  0  0  0  0  0  0  0  0  0  0
  -29.4188  -17.9135   20.1453 C   0  0  0  0  0  0  0  0  0  0  0  0
  -15.1194  -23.5508   21.8478 C   0  0  0  0  0  0  0  0  0  0  0  0
  -20.2274  -28.2650   22.4199 C   0  0  0  0  0  0  0  0  0  0  0  0
  -21.2485  -30.1023   20.9745 C   0  0  0  0  0  0  0  0  0  0  0  0
  -35.5532  -13.6466   24.0387 C   0  0  0  0  0  0  0  0  0  0  0  0
  -30.1574  -17.1209   22.3101 C   0  0  0  0  0  0  0  0  0  0  0  0
  -34.7705  -14.3110   23.0751 C   0  0  0  0  0  0  0  0  0  0  0  0
  -29.4717  -16.8941   21.1082 C   0  0  0  0  0  0  0  0  0  0  0  0
  -31.1235  -22.1814   17.4416 C   0  0  0  0  0  0  0  0  0  0  0  0
  -18.1186  -26.7051   23.3698 C   0  0  0  0  0  0  0  0  0  0  0  0
  -30.0285  -19.1457   20.3800 C   0  0  0  0  0  0  0  0  0  0  0  0
  -16.1948  -25.4379   22.9057 C   0  0  0  0  0  0  0  0  0  0  0  0
  -14.3902  -24.4208   21.0372 C   0  0  0  0  0  0  0  0  0  0  0  0
  -16.0217  -24.0593   22.7821 C   0  0  0  0  0  0  0  0  0  0  0  0
  -21.3168  -29.0708   21.9301 C   0  0  0  0  0  0  0  0  0  0  0  0
  -30.4062  -22.3242   18.6184 C   0  0  0  0  0  0  0  0  0  0  0  0
  -29.3091  -24.1821   17.8291 C   0  0  0  0  0  0  0  0  0  0  0  0
  -22.5421  -30.5489   20.8583 C   0  0  0  0  0  0  0  0  0  0  0  0
  -20.1168  -30.6114   20.2563 C   0  0  0  0  0  0  0  0  0  0  0  0
  -31.2145  -14.1315   22.0874 C   0  0  0  0  0  0  0  0  0  0  0  0
  -28.0501  -13.4378   21.9212 C   0  0  0  0  0  0  0  0  0  0  0  0
  -24.8895  -14.4865   21.1748 C   0  0  0  0  0  0  0  0  0  0  0  0
  -27.7558  -27.6757   22.1115 C   0  0  0  0  0  0  0  0  0  0  0  0
  -35.3551  -12.1844   24.3505 C   0  0  0  0  0  0  0  0  0  0  0  0
  -30.2096  -16.0552   23.3702 C   0  0  0  0  0  0  0  0  0  0  0  0
  -28.7952  -15.5804   20.8169 C   0  0  0  0  0  0  0  0  0  0  0  0
  -34.0078  -11.6392   23.8840 C   0  0  0  0  0  0  0  0  0  0  0  0
  -26.6146  -30.9400   23.3424 C   0  0  0  0  0  0  0  0  0  0  0  0
  -33.7171  -12.0859   22.4548 C   0  0  0  0  0  0  0  0  0  0  0  0
  -25.1094  -30.8951   23.0760 C   0  0  0  0  0  0  0  0  0  0  0  0
  -26.4186  -26.3103   18.9708 C   0  0  0  0  0  0  0  0  0  0  0  0
  -27.1891  -29.5512   23.6122 C   0  0  0  0  0  0  0  0  0  0  0  0
  -26.0883  -26.7755   20.3852 C   0  0  0  0  0  0  0  0  0  0  0  0
  -25.3726  -28.5049   22.3165 C   0  0  0  0  0  0  0  0  0  0  0  0
  -28.4033  -26.1486   20.2703 C   0  0  0  0  0  0  0  0  0  0  0  0
  -33.6329  -13.6142   22.3608 C   0  0  1  0  0  0  0  0  0  0  0  0
  -30.0057  -14.6491   22.8144 C   0  0  1  0  0  0  0  0  0  0  0  0
  -24.7708  -29.8746   21.9733 C   0  0  1  0  0  0  0  0  0  0  0  0
  -27.6194  -25.3998   19.2030 C   0  0  2  0  0  0  0  0  0  0  0  0
  -32.1112  -21.0841   17.2443 C   0  0  0  0  0  0  0  0  0  0  0  0
  -22.5131  -13.6834   21.1023 C   0  0  0  0  0  0  0  0  0  0  0  0
  -28.6487  -11.9061   19.3511 C   0  0  0  0  0  0  0  0  0  0  0  0
  -26.1989  -11.9503   18.8366 C   0  0  0  0  0  0  0  0  0  0  0  0
  -27.0213  -10.7811   20.8810 C   0  0  0  0  0  0  0  0  0  0  0  0
  -24.0270  -16.4976   23.1674 C   0  0  0  0  0  0  0  0  0  0  0  0
  -30.6076  -21.3629   19.7438 C   0  0  0  0  0  0  0  0  0  1  0  0
  -27.0412  -13.3082   20.8058 C   0  0  1  0  0  0  0  0  0  0  0  0
  -23.5826  -14.3692   21.9382 C   0  0  2  0  0  0  0  0  0  0  0  0
  -27.2418  -12.0106   19.9730 C   0  0  0  0  0  0  0  0  0  0  0  0
  -22.5559  -28.8736   22.3882 N   0  0  0  0  0  0  0  0  0  0  0  0
  -29.5015  -23.3042   18.8391 N   0  0  0  0  0  0  0  0  0  0  0  0
  -23.2781  -29.7872   21.7176 N   0  0  0  0  0  0  0  0  0  0  0  0
  -28.8794  -14.5676   21.8822 N   0  0  0  0  0  0  0  0  0  0  0  0
  -26.8162  -28.6142   22.5521 N   0  0  0  0  0  0  0  0  0  0  0  0
  -27.3855  -26.8333   21.0640 N   0  0  0  0  0  0  0  0  0  0  0  0
  -23.1106  -31.5149   20.1058 N   0  0  0  0  0  0  0  0  0  0  0  0
  -18.8604  -30.0385   20.4961 N   0  0  0  0  0  0  0  0  0  0  0  0
  -28.3905  -25.2084   18.0031 N   0  0  0  0  0  0  0  0  0  0  0  0
  -32.3582  -14.0819   22.8615 N   0  0  0  0  0  0  0  0  0  0  0  0
  -25.7269  -13.4210   21.4290 N   0  0  0  0  0  0  0  0  0  0  0  0
  -23.0843  -15.7200   22.3227 N   0  3  0  0  0  0  0  0  0  0  0  0
  -20.2196  -31.5355   19.4142 O   0  0  0  0  0  0  0  0  0  0  0  0
  -31.1166  -13.8002   20.9117 O   0  0  0  0  0  0  0  0  0  0  0  0
  -28.0958  -12.5722   22.7989 O   0  0  0  0  0  0  0  0  0  0  0  0
  -25.1407  -15.4273   20.4248 O   0  0  0  0  0  0  0  0  0  0  0  0
  -28.8922  -27.6238   22.6002 O   0  0  0  0  0  0  0  0  0  0  0  0
  -17.0896  -25.9443   23.8334 O   0  0  0  0  0  0  0  0  0  0  0  0
  -29.9674  -20.1328   19.4311 O   0  0  0  0  0  0  0  0  0  1  0  0
  -13.5226  -23.9326   20.1410 F   0  0  0  0  0  0  0  0  0  0  0  0
  -16.7185  -23.2186   23.5589 F   0  0  0  0  0  0  0  0  0  0  0  0
  1  2  1  0  0  0  0
  1  5  2  0  0  0  0
  2  6  2  0  0  0  0
  3  9  2  0  0  0  0
  3 17  1  0  0  0  0
  4 10  1  0  0  0  0
  4 17  2  0  0  0  0
  5 19  1  0  0  0  0
  6 21  1  0  0  0  0
  7 11  2  0  0  0  0
  7 20  1  0  0  0  0
  8 14  2  0  0  0  0
  8 23  1  0  0  0  0
  9 24  1  0  0  0  0
 10 24  2  0  0  0  0
 11 25  1  0  0  0  0
 12 13  2  0  0  0  0
 12 26  1  0  0  0  0
 13 27  1  0  0  0  0
 14 31  1  0  0  0  0
 15 22  1  0  0  0  0
 15 25  2  0  0  0  0
 16 27  2  0  0  0  0
 16 28  1  0  0  0  0
 17 29  1  0  0  0  0
 18 29  1  0  0  0  0
 18 32  2  0  0  0  0
 18 33  1  0  0  0  0
 19 21  2  0  0  0  0
 19 38  1  0  0  0  0
 20 22  2  0  0  0  0
 20 39  1  0  0  0  0
 21 50  1  0  0  0  0
 22 40  1  0  0  0  0
 23 30  2  0  0  0  0
 23 54  1  0  0  0  0
 24 81  1  0  0  0  0
 25 82  1  0  0  0  0
 26 28  2  0  0  0  0
 26 81  1  0  0  0  0
 27 83  1  0  0  0  0
 28 84  1  0  0  0  0
 29 64  2  0  0  0  0
 30 60  1  0  0  0  0
 30 65  1  0  0  0  0
 31 65  2  0  0  0  0
 31 72  1  0  0  0  0
 32 66  1  0  0  0  0
 32 70  1  0  0  0  0
 33 71  1  0  0  0  0
 33 76  2  0  0  0  0
 34 51  1  0  0  0  0
 34 73  1  0  0  0  0
 34 77  2  0  0  0  0
 35 61  1  0  0  0  0
 35 67  1  0  0  0  0
 35 78  2  0  0  0  0
 36 62  1  0  0  0  0
 36 74  1  0  0  0  0
 36 79  2  0  0  0  0
 37 68  1  0  0  0  0
 37 69  1  0  0  0  0
 37 80  2  0  0  0  0
 38 41  1  0  0  0  0
 39 51  1  0  0  0  0
 40 67  1  0  0  0  0
 41 43  1  0  0  0  0
 42 44  1  0  0  0  0
 42 46  1  0  0  0  0
 43 50  1  0  0  0  0
 44 52  1  0  0  0  0
 45 47  1  0  0  0  0
 45 53  1  0  0  0  0
 46 68  1  0  0  0  0
 47 69  1  0  0  0  0
 48 52  1  0  0  0  0
 48 68  1  0  0  0  0
 49 53  1  0  0  0  0
 49 69  1  0  0  0  0
 50 73  1  0  0  0  0
 51 67  1  0  0  0  0
 52 66  1  0  0  0  0
 53 72  1  0  0  0  0
 55 62  1  0  0  0  0
 56 63  1  0  0  0  0
 57 63  1  0  0  0  0
 58 63  1  0  0  0  0
 59 75  1  0  0  0  0
 60 82  1  0  0  0  0
 61 63  1  0  0  0  0
 61 74  1  0  0  0  0
 62 75  1  0  0  0  0
 64 66  1  0  0  0  0
M  CHG  1  75   1
M  ISO  4  37 100  60 101  69 100  82 101
M  END
> <Batch ID>
0188

> <Smiles>
CNC(C)C(=O)NC(C(=O)N1Cc2cc([101O:1][101CH2:1]c3nc(NC4CC[100N:0]([100C:0](=O)N5CCCC(n6nc(-c7ccc(Oc8ccc(F)cc8F)cc7)c(C(N)=O)c6N)C5)C4)ccc3C)ccc2CC1C(=O)NC1CCCc2ccccc21)C(C)(C)C

> <Shape>
0.260

> <Color>
0.063

> <Negative vol penalty>
0.000

$$$$

  -OEChem-04052323193D

 86 95  0     1  0  0  0  0  0999 V2000
  -18.8741  -32.7368   25.2442 C   0  0  0  0  0  0  0  0  0  0  0  0
  -20.1959  -32.8529   24.8263 C   0  0  0  0  0  0  0  0  0  0  0  0
  -24.6708  -14.4827   21.1130 C   0  0  0  0  0  0  0  0  0  0  0  0
  -26.6800  -14.1410   19.8155 C   0  0  0  0  0  0  0  0  0  0  0  0
  -18.2713  -31.4811   25.3053 C   0  0  0  0  0  0  0  0  0  0  0  0
  -20.9161  -31.7132   24.4703 C   0  0  0  0  0  0  0  0  0  0  0  0
  -26.0560  -29.5328   19.9820 C   0  0  0  0  0  0  0  0  0  0  0  0
  -24.6376  -13.1224   21.4199 C   0  0  0  0  0  0  0  0  0  0  0  0
  -26.6468  -12.7807   20.1224 C   0  0  0  0  0  0  0  0  0  0  0  0
  -27.2770  -28.8600   19.9882 C   0  0  0  0  0  0  0  0  0  0  0  0
  -23.7062  -10.2492   19.9027 C   0  0  0  0  0  0  0  0  0  0  0  0
  -22.4798   -9.5926   19.8019 C   0  0  0  0  0  0  0  0  0  0  0  0
  -26.1078  -26.7511   20.0571 C   0  0  0  0  0  0  0  0  0  0  0  0
  -30.0236  -21.1096   15.8989 C   0  0  0  0  0  0  0  0  0  0  0  0
  -22.5936   -9.0199   22.1462 C   0  0  0  0  0  0  0  0  0  0  0  0
  -29.1653  -23.6918   15.3980 C   0  0  0  0  0  0  0  0  0  0  0  0
  -25.6920  -14.9920   20.3108 C   0  0  0  0  0  0  0  0  0  0  0  0
  -26.3693  -17.4173   20.7193 C   0  0  0  0  0  0  0  0  0  0  0  0
  -18.9814  -30.3264   24.9406 C   0  0  0  0  0  0  0  0  0  0  0  0
  -24.8497  -28.8190   20.0245 C   0  0  0  0  0  0  0  0  0  0  0  0
  -20.3227  -30.4407   24.5278 C   0  0  0  0  0  0  0  0  0  0  0  0
  -24.8727  -27.4172   20.0488 C   0  0  0  0  0  0  0  0  0  0  0  0
  -30.4789  -22.1594   16.6703 C   0  0  0  0  0  0  0  0  0  0  0  0
  -30.0508  -23.4656   16.4259 C   0  0  0  0  0  0  0  0  0  0  0  0
  -25.6256  -12.2714   20.9246 C   0  0  0  0  0  0  0  0  0  0  0  0
  -27.3031  -27.4690   20.0286 C   0  0  0  0  0  0  0  0  0  0  0  0
  -24.3765  -10.2911   21.1253 C   0  0  0  0  0  0  0  0  0  0  0  0
  -21.9234   -8.9780   20.9236 C   0  0  0  0  0  0  0  0  0  0  0  0
  -23.8201   -9.6765   22.2471 C   0  0  0  0  0  0  0  0  0  0  0  0
  -25.7265  -16.3969   19.9930 C   0  0  0  0  0  0  0  0  0  0  0  0
  -29.1226  -21.4332   14.8950 C   0  0  0  0  0  0  0  0  0  0  0  0
  -26.1061  -18.5627   20.0086 C   0  0  0  0  0  0  0  0  0  0  0  0
  -27.1358  -17.3368   21.9283 C   0  0  0  0  0  0  0  0  0  0  0  0
  -22.4095  -28.6567   22.0549 C   0  0  0  0  0  0  0  0  0  0  0  0
  -21.1121  -26.7925   19.7388 C   0  0  0  0  0  0  0  0  0  0  0  0
  -21.6049  -24.7376   17.0590 C   0  0  0  0  0  0  0  0  0  0  0  0
  -24.7898  -19.5806   14.2568 C   0  0  0  0  0  0  0  0  0  0  0  0
  -18.3022  -28.9858   25.0681 C   0  0  0  0  0  0  0  0  0  0  0  0
  -23.5406  -29.5588   19.9902 C   0  0  0  0  0  0  0  0  0  0  0  0
  -31.4727  -22.1259   17.7895 C   0  0  0  0  0  0  0  0  0  0  0  0
  -23.6055  -26.6036   20.0748 C   0  0  0  0  0  0  0  0  0  0  0  0
  -19.0174  -27.8666   24.3157 C   0  0  0  0  0  0  0  0  0  0  0  0
  -31.1964  -23.4791   18.4683 C   0  0  0  0  0  0  0  0  0  0  0  0
  -22.8406  -20.4934   17.0931 C   0  0  0  0  0  0  0  0  0  0  0  0
  -20.5167  -27.9102   24.5930 C   0  0  0  0  0  0  0  0  0  0  0  0
  -23.4172  -19.6391   18.2234 C   0  0  0  0  0  0  0  0  0  0  0  0
  -22.8309  -19.7399   15.7649 C   0  0  0  0  0  0  0  0  0  0  0  0
  -24.7097  -18.3212   16.4938 C   0  0  0  0  0  0  0  0  0  0  0  0
  -21.1291  -29.2304   24.1097 C   0  0  1  0  0  0  0  0  0  0  0  0
  -30.7239  -24.4249   17.3495 C   0  0  2  0  0  0  0  0  0  0  0  0
  -22.3799  -28.7459   20.5553 C   0  0  1  0  0  0  0  0  0  0  0  0
  -24.7919  -19.0579   17.8418 C   0  0  2  0  0  0  0  0  0  0  0  0
  -21.0172  -23.3039   15.0851 C   0  0  0  0  0  0  0  0  0  0  0  0
  -20.6636  -24.6637   21.8782 C   0  0  0  0  0  0  0  0  0  0  0  0
  -20.3178  -22.9938   20.0451 C   0  0  0  0  0  0  0  0  0  0  0  0
  -18.7709  -24.9382   20.2667 C   0  0  0  0  0  0  0  0  0  0  0  0
  -21.6466  -27.0539   15.2173 C   0  0  0  0  0  0  0  0  0  0  0  0
  -27.7103  -20.5589   13.0332 C   0  0  0  0  0  0  0  0  0  0  0  0
  -26.8270  -19.3325   12.8614 C   0  0  0  0  0  0  0  0  0  0  0  0
  -30.5592  -26.3824   18.8807 C   0  0  0  0  0  0  0  0  0  0  0  0
  -29.5881  -27.4387   19.3698 C   0  0  0  0  0  0  0  0  0  1  0  0
  -21.1240  -25.3163   19.4230 C   0  0  1  0  0  0  0  0  0  0  0  0
  -20.9574  -24.6994   15.6865 C   0  0  2  0  0  0  0  0  0  0  0  0
  -20.2432  -24.4931   20.4047 C   0  0  0  0  0  0  0  0  0  0  0  0
  -28.6821  -22.6919   14.6250 N   0  0  0  0  0  0  0  0  0  0  0  0
  -25.1019  -16.8539   18.9044 N   0  0  0  0  0  0  0  0  0  0  0  0
  -25.3509  -18.1741   18.9415 N   0  0  0  0  0  0  0  0  0  0  0  0
  -22.3507  -27.3732   20.0464 N   0  0  0  0  0  0  0  0  0  0  0  0
  -24.1646  -19.2157   15.4606 N   0  0  0  0  0  0  0  0  0  0  0  0
  -26.4494  -19.8544   20.1986 N   0  0  0  0  0  0  0  0  0  0  0  0
  -27.3085  -16.0817   22.5277 N   0  0  0  0  0  0  0  0  0  0  0  0
  -28.6393  -20.3648   14.0974 N   0  0  0  0  0  0  0  0  0  0  0  0
  -21.3046  -29.2101   22.6733 N   0  0  0  0  0  0  0  0  0  0  0  0
  -20.7317  -25.1953   18.0231 N   0  0  0  0  0  0  0  0  0  0  0  0
  -26.0549  -19.0447   14.0496 N   0  0  0  0  0  0  0  0  0  0  0  0
  -29.8660  -25.4858   17.9217 N   0  3  0  0  0  0  0  0  0  0  0  0
  -21.6496  -25.6401   14.7609 N   0  3  0  0  0  0  0  0  0  0  0  0
  -27.6385  -18.3503   22.4702 O   0  0  0  0  0  0  0  0  0  0  0  0
  -23.3634  -28.1239   22.6097 O   0  0  0  0  0  0  0  0  0  0  0  0
  -20.0443  -27.4092   19.7067 O   0  0  0  0  0  0  0  0  0  0  0  0
  -22.7677  -24.3922   17.2569 O   0  0  0  0  0  0  0  0  0  0  0  0
  -24.2619  -20.3327   13.4306 O   0  0  0  0  0  0  0  0  0  0  0  0
  -25.5937  -10.9441   21.2241 O   0  0  0  0  0  0  0  0  0  0  0  0
  -28.4936  -26.8098   20.0354 O   0  0  0  0  0  0  0  0  0  1  0  0
  -20.7449   -8.3488   20.8269 F   0  0  0  0  0  0  0  0  0  0  0  0
  -24.4587   -9.7144   23.4246 F   0  0  0  0  0  0  0  0  0  0  0  0
  1  2  1  0  0  0  0
  1  5  2  0  0  0  0
  2  6  2  0  0  0  0
  3  8  2  0  0  0  0
  3 17  1  0  0  0  0
  4  9  1  0  0  0  0
  4 17  2  0  0  0  0
  5 19  1  0  0  0  0
  6 21  1  0  0  0  0
  7 10  2  0  0  0  0
  7 20  1  0  0  0  0
  8 25  1  0  0  0  0
  9 25  2  0  0  0  0
 10 26  1  0  0  0  0
 11 12  2  0  0  0  0
 11 27  1  0  0  0  0
 12 28  1  0  0  0  0
 13 22  1  0  0  0  0
 13 26  2  0  0  0  0
 14 23  1  0  0  0  0
 14 31  2  0  0  0  0
 15 28  2  0  0  0  0
 15 29  1  0  0  0  0
 16 24  1  0  0  0  0
 16 65  2  0  0  0  0
 17 30  1  0  0  0  0
 18 30  1  0  0  0  0
 18 32  2  0  0  0  0
 18 33  1  0  0  0  0
 19 21  2  0  0  0  0
 19 38  1  0  0  0  0
 20 22  2  0  0  0  0
 20 39  1  0  0  0  0
 21 49  1  0  0  0  0
 22 41  1  0  0  0  0
 23 24  2  0  0  0  0
 23 40  1  0  0  0  0
 24 50  1  0  0  0  0
 25 83  1  0  0  0  0
 26 84  1  0  0  0  0
 27 29  2  0  0  0  0
 27 83  1  0  0  0  0
 28 85  1  0  0  0  0
 29 86  1  0  0  0  0
 30 66  2  0  0  0  0
 31 65  1  0  0  0  0
 31 72  1  0  0  0  0
 32 67  1  0  0  0  0
 32 70  1  0  0  0  0
 33 71  1  0  0  0  0
 33 78  2  0  0  0  0
 34 51  1  0  0  0  0
 34 73  1  0  0  0  0
 34 79  2  0  0  0  0
 35 62  1  0  0  0  0
 35 68  1  0  0  0  0
 35 80  2  0  0  0  0
 36 63  1  0  0  0  0
 36 74  1  0  0  0  0
 36 81  2  0  0  0  0
 37 69  1  0  0  0  0
 37 75  1  0  0  0  0
 37 82  2  0  0  0  0
 38 42  1  0  0  0  0
 39 51  1  0  0  0  0
 40 43  1  0  0  0  0
 41 68  1  0  0  0  0
 42 45  1  0  0  0  0
 43 50  1  0  0  0  0
 44 46  1  0  0  0  0
 44 47  1  0  0  0  0
 45 49  1  0  0  0  0
 46 52  1  0  0  0  0
 47 69  1  0  0  0  0
 48 52  1  0  0  0  0
 48 69  1  0  0  0  0
 49 73  1  0  0  0  0
 50 76  1  0  0  0  0
 51 68  1  0  0  0  0
 52 67  1  0  0  0  0
 53 63  1  0  0  0  0
 54 64  1  0  0  0  0
 55 64  1  0  0  0  0
 56 64  1  0  0  0  0
 57 77  1  0  0  0  0
 58 59  1  0  0  0  0
 58 72  1  0  0  0  0
 59 75  1  0  0  0  0
 60 61  1  0  0  0  0
 60 76  1  0  0  0  0
 61 84  1  0  0  0  0
 62 64  1  0  0  0  0
 62 74  1  0  0  0  0
 63 77  1  0  0  0  0
 66 67  1  0  0  0  0
M  CHG  2  76   1  77   1
M  ISO  4  37 100  61 101  75 100  84 101
M  END
> <Batch ID>
0188

> <Smiles>
CNC(C)C(=O)NC(C(=O)N1Cc2cc([101O:1][101CH2:1]CNC3CCc4cc(NCC[100NH:0][100C:0](=O)N5CCCC(n6nc(-c7ccc(Oc8ccc(F)cc8F)cc7)c(C(N)=O)c6N)C5)ncc43)ccc2CC1C(=O)NC1CCCc2ccccc21)C(C)(C)C

> <Shape>
0.209

> <Color>
0.087

> <Negative vol penalty>
0.000

$$$$

  -OEChem-04052323193D

 83 92  0     1  0  0  0  0  0999 V2000
  -25.1862  -35.1467   20.7199 C   0  0  0  0  0  0  0  0  0  0  0  0
  -25.8254  -33.9146   20.6268 C   0  0  0  0  0  0  0  0  0  0  0  0
  -21.3467  -14.2083   21.6606 C   0  0  0  0  0  0  0  0  0  0  0  0
  -21.3942  -14.2501   19.2454 C   0  0  0  0  0  0  0  0  0  0  0  0
  -24.1041  -35.3058   21.5846 C   0  0  0  0  0  0  0  0  0  0  0  0
  -25.3835  -32.8410   21.3991 C   0  0  0  0  0  0  0  0  0  0  0  0
  -25.0785  -28.5366   18.7488 C   0  0  0  0  0  0  0  0  0  0  0  0
  -19.9899  -14.5311   21.6395 C   0  0  0  0  0  0  0  0  0  0  0  0
  -20.0374  -14.5729   19.2243 C   0  0  0  0  0  0  0  0  0  0  0  0
  -26.2699  -27.8570   18.4989 C   0  0  0  0  0  0  0  0  0  0  0  0
  -18.1232  -17.3220   19.6816 C   0  0  0  0  0  0  0  0  0  0  0  0
  -17.7121  -18.3378   18.8186 C   0  0  0  0  0  0  0  0  0  0  0  0
  -25.7792  -26.3425   20.3112 C   0  0  0  0  0  0  0  0  0  0  0  0
  -16.2596  -16.7805   17.6774 C   0  0  0  0  0  0  0  0  0  0  0  0
  -22.0489  -14.0678   20.4635 C   0  0  0  0  0  0  0  0  0  0  0  0
  -24.0188  -12.4469   20.4733 C   0  0  0  0  0  0  0  0  0  0  0  0
  -23.6426  -34.2310   22.3607 C   0  0  0  0  0  0  0  0  0  0  0  0
  -24.2324  -28.1302   19.7906 C   0  0  0  0  0  0  0  0  0  0  0  0
  -24.2950  -32.9862   22.2760 C   0  0  0  0  0  0  0  0  0  0  0  0
  -24.5764  -27.0170   20.5706 C   0  0  0  0  0  0  0  0  0  0  0  0
  -19.3352  -14.7134   20.4214 C   0  0  0  0  0  0  0  0  0  0  0  0
  -26.6218  -26.7615   19.2819 C   0  0  0  0  0  0  0  0  0  0  0  0
  -17.6026  -16.0354   19.5424 C   0  0  0  0  0  0  0  0  0  0  0  0
  -16.7803  -18.0671   17.8166 C   0  0  0  0  0  0  0  0  0  0  0  0
  -16.6708  -15.7647   18.5404 C   0  0  0  0  0  0  0  0  0  0  0  0
  -23.4506  -13.7349   20.4847 C   0  0  0  0  0  0  0  0  0  0  0  0
  -25.3738  -12.6691   20.5030 C   0  0  0  0  0  0  0  0  0  0  0  0
  -31.6207  -24.6366   19.2352 C   0  0  0  0  0  0  0  0  0  0  0  0
  -29.4044  -24.4066   19.5027 C   0  0  0  0  0  0  0  0  0  0  0  0
  -30.6338  -22.6722   18.7835 C   0  0  0  0  0  0  0  0  0  0  0  0
  -23.3788  -11.1644   20.4390 C   0  0  0  0  0  0  0  0  0  0  0  0
  -23.1612  -29.4745   22.4644 C   0  0  0  0  0  0  0  0  0  0  0  0
  -21.3703  -26.7757   22.6422 C   0  0  0  0  0  0  0  0  0  0  0  0
  -20.9708  -23.5010   21.7686 C   0  0  0  0  0  0  0  0  0  0  0  0
  -28.5648  -17.3145   18.6746 C   0  0  0  0  0  0  0  0  0  0  0  0
  -22.4990  -34.4639   23.3162 C   0  0  0  0  0  0  0  0  0  0  0  0
  -22.9377  -28.8575   20.0302 C   0  0  0  0  0  0  0  0  0  0  0  0
  -23.6928  -26.5281   21.6881 C   0  0  0  0  0  0  0  0  0  0  0  0
  -21.8561  -33.1751   23.8223 C   0  0  0  0  0  0  0  0  0  0  0  0
  -28.6358  -15.7974   22.0103 C   0  0  0  0  0  0  0  0  0  0  0  0
  -22.9268  -32.1792   24.2565 C   0  0  0  0  0  0  0  0  0  0  0  0
  -27.3228  -15.0215   22.0067 C   0  0  0  0  0  0  0  0  0  0  0  0
  -28.5427  -17.1017   21.2175 C   0  0  0  0  0  0  0  0  0  0  0  0
  -26.7255  -16.1400   19.8304 C   0  0  0  0  0  0  0  0  0  0  0  0
  -29.9726  -19.1357   17.5668 C   0  0  0  0  0  0  0  0  0  0  0  0
  -29.3771  -19.6481   19.5441 C   0  0  0  0  0  0  0  0  0  0  0  0
  -23.8293  -31.7911   23.0791 C   0  0  1  0  0  0  0  0  0  0  0  0
  -22.4014  -28.6721   21.4463 C   0  0  1  0  0  0  0  0  0  0  0  0
  -26.8337  -14.7980   20.5679 C   0  0  2  0  0  0  0  0  0  0  0  0
  -29.6159  -20.4550   18.2608 C   0  0  0  0  0  0  0  0  0  0  0  0
  -32.8491  -25.4781   19.3057 C   0  0  0  0  0  0  0  0  0  0  0  0
  -19.4286  -21.5487   22.0968 C   0  0  0  0  0  0  0  0  0  0  0  0
  -22.4836  -26.3721   25.4543 C   0  0  0  0  0  0  0  0  0  0  0  0
  -21.6886  -24.0001   25.3532 C   0  0  0  0  0  0  0  0  0  0  0  0
  -20.0449  -25.8715   25.2160 C   0  0  0  0  0  0  0  0  0  0  0  0
  -20.3927  -23.3221   18.8716 C   0  0  0  0  0  0  0  0  0  0  0  0
  -28.0829  -24.9833   19.8812 C   0  0  0  0  0  0  0  0  0  1  0  0
  -21.5594  -25.4050   23.2459 C   0  0  1  0  0  0  0  0  0  0  0  0
  -19.7746  -22.7432   21.2214 C   0  0  2  0  0  0  0  0  0  0  0  0
  -21.4620  -25.4223   24.7976 C   0  0  0  0  0  0  0  0  0  0  0  0
  -24.3696  -14.7036   20.5190 N   0  0  0  0  0  0  0  0  0  0  0  0
  -30.4664  -25.2233   19.5911 N   0  0  0  0  0  0  0  0  0  0  0  0
  -31.7809  -23.3689   18.8222 N   0  0  0  0  0  0  0  0  0  0  0  0
  -29.4114  -23.1231   19.1081 N   0  0  0  0  0  0  0  0  0  0  0  0
  -25.5290  -14.0239   20.5296 N   0  0  0  0  0  0  0  0  0  0  0  0
  -22.4405  -27.2762   21.8872 N   0  0  0  0  0  0  0  0  0  0  0  0
  -27.9872  -16.8886   19.8756 N   0  0  0  0  0  0  0  0  0  0  0  0
  -29.3048  -18.4740   18.6853 N   0  0  0  0  0  0  0  0  0  0  0  0
  -26.4359  -11.8358   20.5087 N   0  0  0  0  0  0  0  0  0  0  0  0
  -21.9783  -11.1170   20.4114 N   0  0  0  0  0  0  0  0  0  0  0  0
  -30.7210  -21.3410   18.3622 N   0  0  0  0  0  0  0  0  0  0  0  0
  -23.1602  -30.8351   22.2231 N   0  0  0  0  0  0  0  0  0  0  0  0
  -20.5856  -24.5348   22.5958 N   0  0  0  0  0  0  0  0  0  0  0  0
  -20.0598  -22.2498   19.8444 N   0  3  0  0  0  0  0  0  0  0  0  0
  -24.0293  -10.0919   20.4496 O   0  0  0  0  0  0  0  0  0  0  0  0
  -23.7067  -28.9018   23.4004 O   0  0  0  0  0  0  0  0  0  0  0  0
  -20.3093  -27.3771   22.8276 O   0  0  0  0  0  0  0  0  0  0  0  0
  -22.1309  -23.2031   21.4931 O   0  0  0  0  0  0  0  0  0  0  0  0
  -28.4001  -16.6958   17.6148 O   0  0  0  0  0  0  0  0  0  0  0  0
  -18.0112  -15.0282   20.4004 O   0  0  0  0  0  0  0  0  0  0  0  0
  -27.7924  -26.0923   19.0389 O   0  0  0  0  0  0  0  0  0  1  0  0
  -16.3844  -19.0430   16.9889 F   0  0  0  0  0  0  0  0  0  0  0  0
  -16.1663  -14.5309   18.4026 F   0  0  0  0  0  0  0  0  0  0  0  0
  1  2  1  0  0  0  0
  1  5  2  0  0  0  0
  2  6  2  0  0  0  0
  3  8  2  0  0  0  0
  3 15  1  0  0  0  0
  4  9  1  0  0  0  0
  4 15  2  0  0  0  0
  5 17  1  0  0  0  0
  6 19  1  0  0  0  0
  7 10  2  0  0  0  0
  7 18  1  0  0  0  0
  8 21  1  0  0  0  0
  9 21  2  0  0  0  0
 10 22  1  0  0  0  0
 11 12  2  0  0  0  0
 11 23  1  0  0  0  0
 12 24  1  0  0  0  0
 13 20  1  0  0  0  0
 13 22  2  0  0  0  0
 14 24  2  0  0  0  0
 14 25  1  0  0  0  0
 15 26  1  0  0  0  0
 16 26  1  0  0  0  0
 16 27  2  0  0  0  0
 16 31  1  0  0  0  0
 17 19  2  0  0  0  0
 17 36  1  0  0  0  0
 18 20  2  0  0  0  0
 18 37  1  0  0  0  0
 19 47  1  0  0  0  0
 20 38  1  0  0  0  0
 21 80  1  0  0  0  0
 22 81  1  0  0  0  0
 23 25  2  0  0  0  0
 23 80  1  0  0  0  0
 24 82  1  0  0  0  0
 25 83  1  0  0  0  0
 26 61  2  0  0  0  0
 27 65  1  0  0  0  0
 27 69  1  0  0  0  0
 28 51  1  0  0  0  0
 28 62  2  0  0  0  0
 28 63  1  0  0  0  0
 29 57  1  0  0  0  0
 29 62  1  0  0  0  0
 29 64  2  0  0  0  0
 30 63  2  0  0  0  0
 30 64  1  0  0  0  0
 30 71  1  0  0  0  0
 31 70  1  0  0  0  0
 31 75  2  0  0  0  0
 32 48  1  0  0  0  0
 32 72  1  0  0  0  0
 32 76  2  0  0  0  0
 33 58  1  0  0  0  0
 33 66  1  0  0  0  0
 33 77  2  0  0  0  0
 34 59  1  0  0  0  0
 34 73  1  0  0  0  0
 34 78  2  0  0  0  0
 35 67  1  0  0  0  0
 35 68  1  0  0  0  0
 35 79  2  0  0  0  0
 36 39  1  0  0  0  0
 37 48  1  0  0  0  0
 38 66  1  0  0  0  0
 39 41  1  0  0  0  0
 40 42  1  0  0  0  0
 40 43  1  0  0  0  0
 41 47  1  0  0  0  0
 42 49  1  0  0  0  0
 43 67  1  0  0  0  0
 44 49  1  0  0  0  0
 44 67  1  0  0  0  0
 45 50  1  0  0  0  0
 45 68  1  0  0  0  0
 46 50  1  0  0  0  0
 46 68  1  0  0  0  0
 47 72  1  0  0  0  0
 48 66  1  0  0  0  0
 49 65  1  0  0  0  0
 50 71  1  0  0  0  0
 52 59  1  0  0  0  0
 53 60  1  0  0  0  0
 54 60  1  0  0  0  0
 55 60  1  0  0  0  0
 56 74  1  0  0  0  0
 57 81  1  0  0  0  0
 58 60  1  0  0  0  0
 58 73  1  0  0  0  0
 59 74  1  0  0  0  0
 61 65  1  0  0  0  0
M  CHG  1  74   1
M  ISO  4  35 100  57 101  68 100  81 101
M  END
> <Batch ID>
0188

> <Smiles>
CNC(C)C(=O)NC(C(=O)N1Cc2cc([101O:1][101CH2:1]c3nc(C)nc(NC4C[100N:0]([100C:0](=O)N5CCCC(n6nc(-c7ccc(Oc8ccc(F)cc8F)cc7)c(C(N)=O)c6N)C5)C4)n3)ccc2CC1C(=O)NC1CCCc2ccccc21)C(C)(C)C

> <Shape>
0.215

> <Color>
0.080

> <Negative vol penalty>
0.000

$$$$

  -OEChem-04052323193D

 86 95  0     1  0  0  0  0  0999 V2000
  -26.8866  -29.6750   18.2695 C   0  0  0  0  0  0  0  0  0  0  0  0
  -26.5636  -28.4125   18.7564 C   0  0  0  0  0  0  0  0  0  0  0  0
  -23.0511   -9.6601   20.1235 C   0  0  0  0  0  0  0  0  0  0  0  0
  -24.2766   -9.5927   22.2045 C   0  0  0  0  0  0  0  0  0  0  0  0
  -26.5391  -30.8118   18.9981 C   0  0  0  0  0  0  0  0  0  0  0  0
  -25.8938  -28.2860   19.9729 C   0  0  0  0  0  0  0  0  0  0  0  0
  -22.1042  -24.9333   19.7647 C   0  0  0  0  0  0  0  0  0  0  0  0
  -22.4381   -8.4492   20.4452 C   0  0  0  0  0  0  0  0  0  0  0  0
  -23.6635   -8.3819   22.5264 C   0  0  0  0  0  0  0  0  0  0  0  0
  -22.4452  -23.5826   19.8203 C   0  0  0  0  0  0  0  0  0  0  0  0
  -20.6815   -7.3445   23.7313 C   0  0  0  0  0  0  0  0  0  0  0  0
  -20.1919   -7.1924   25.0285 C   0  0  0  0  0  0  0  0  0  0  0  0
  -21.8635  -23.5383   22.1610 C   0  0  0  0  0  0  0  0  0  0  0  0
  -21.6603   -5.3028   25.3611 C   0  0  0  0  0  0  0  0  0  0  0  0
  -23.9704  -10.2319   21.0031 C   0  0  0  0  0  0  0  0  0  0  0  0
  -23.9739  -12.7179   20.4313 C   0  0  0  0  0  0  0  0  0  0  0  0
  -25.8562  -30.6996   20.2195 C   0  0  0  0  0  0  0  0  0  0  0  0
  -21.6498  -25.6005   20.9114 C   0  0  0  0  0  0  0  0  0  0  0  0
  -25.5381  -29.4223   20.7192 C   0  0  0  0  0  0  0  0  0  0  0  0
  -21.5149  -24.8968   22.1167 C   0  0  0  0  0  0  0  0  0  0  0  0
  -22.7442   -7.8101   21.6467 C   0  0  0  0  0  0  0  0  0  0  0  0
  -22.3277  -22.8856   21.0192 C   0  0  0  0  0  0  0  0  0  0  0  0
  -21.6604   -6.4758   23.2489 C   0  0  0  0  0  0  0  0  0  0  0  0
  -20.6813   -6.1716   25.8434 C   0  0  0  0  0  0  0  0  0  0  0  0
  -22.1498   -5.4550   24.0638 C   0  0  0  0  0  0  0  0  0  0  0  0
  -24.6045  -11.4824   20.6710 C   0  0  0  0  0  0  0  0  0  0  0  0
  -25.0056  -13.5831   20.1600 C   0  0  0  0  0  0  0  0  0  0  0  0
  -22.5801  -13.0536   20.4520 C   0  0  0  0  0  0  0  0  0  0  0  0
  -22.6965  -28.0520   22.6430 C   0  0  0  0  0  0  0  0  0  0  0  0
  -19.8747  -27.6580   24.1937 C   0  0  0  0  0  0  0  0  0  0  0  0
  -17.8808  -24.8911   25.3708 C   0  0  0  0  0  0  0  0  0  0  0  0
  -30.0732  -15.6226   21.2738 C   0  0  0  0  0  0  0  0  0  0  0  0
  -25.5435  -31.9551   20.9944 C   0  0  0  0  0  0  0  0  0  0  0  0
  -21.2606  -27.0510   20.8285 C   0  0  0  0  0  0  0  0  0  0  0  0
  -21.0127  -25.5618   23.3713 C   0  0  0  0  0  0  0  0  0  0  0  0
  -24.5031  -31.7499   22.0925 C   0  0  0  0  0  0  0  0  0  0  0  0
  -29.9066  -12.6899   19.2780 C   0  0  0  0  0  0  0  0  0  0  0  0
  -24.8237  -30.4991   22.9046 C   0  0  0  0  0  0  0  0  0  0  0  0
  -28.4622  -12.2141   19.4433 C   0  0  0  0  0  0  0  0  0  0  0  0
  -28.8844  -21.2276   19.3124 C   0  0  0  0  0  0  0  0  0  0  0  0
  -30.4582  -13.2798   20.5741 C   0  0  0  0  0  0  0  0  0  0  0  0
  -28.0371  -22.4505   18.9672 C   0  0  0  0  0  0  0  0  0  0  0  0
  -28.1918  -13.8721   21.3350 C   0  0  0  0  0  0  0  0  0  0  0  0
  -28.3609  -18.9115   22.2329 C   0  0  0  0  0  0  0  0  0  0  0  0
  -29.7772  -18.7892   20.7148 C   0  0  0  0  0  0  0  0  0  0  0  0
  -24.7900  -29.2451   22.0227 C   0  0  1  0  0  0  0  0  0  0  0  0
  -21.2977  -27.7578   22.1800 C   0  0  1  0  0  0  0  0  0  0  0  0
  -27.5715  -13.3208   20.0397 C   0  0  2  0  0  0  0  0  0  0  0  0
  -28.1628  -20.5790   20.4892 C   0  0  2  0  0  0  0  0  0  0  0  0
  -29.5426  -17.9490   21.9884 C   0  0  0  0  0  0  0  0  0  0  0  0
  -27.4066  -21.7504   21.1224 C   0  0  2  0  0  0  0  0  0  0  0  0
  -15.4066  -24.7071   25.7478 C   0  0  0  0  0  0  0  0  0  0  0  0
  -23.5735  -18.7833   21.3445 C   0  0  0  0  0  0  0  0  0  0  0  0
  -20.5480  -28.4300   27.0678 C   0  0  0  0  0  0  0  0  0  0  0  0
  -18.7975  -26.8142   27.8382 C   0  0  0  0  0  0  0  0  0  0  0  0
  -18.1539  -28.7700   26.4298 C   0  0  0  0  0  0  0  0  0  0  0  0
  -26.4032  -23.7756   20.1677 C   0  0  0  0  0  0  0  0  0  0  0  0
  -17.6716  -22.5215   23.6102 C   0  0  0  0  0  0  0  0  0  0  0  0
  -26.2882  -21.2907   22.0526 C   0  0  0  0  0  0  0  0  0  0  0  0
  -23.1533  -21.0753   22.3219 C   0  0  0  0  0  0  0  0  0  1  0  0
  -19.4098  -26.8447   25.3774 C   0  0  1  0  0  0  0  0  0  0  0  0
  -16.5579  -24.4157   24.7978 C   0  0  2  0  0  0  0  0  0  0  0  0
  -24.1718  -19.9647   22.0909 C   0  0  2  0  0  0  0  0  0  0  0  0
  -19.2488  -27.7060   26.6618 C   0  0  0  0  0  0  0  0  0  0  0  0
  -25.9338  -11.5521   20.5615 N   0  0  0  0  0  0  0  0  0  0  0  0
  -26.1469  -12.8419   20.2499 N   0  0  0  0  0  0  0  0  0  0  0  0
  -20.6509  -26.9830   23.2410 N   0  0  0  0  0  0  0  0  0  0  0  0
  -29.5681  -14.3270   21.0818 N   0  0  0  0  0  0  0  0  0  0  0  0
  -29.0824  -19.9081   21.4010 N   0  0  0  0  0  0  0  0  0  0  0  0
  -26.9149  -22.4348   19.9156 N   0  0  1  0  0  0  0  0  0  0  0  0
  -25.0387  -14.8979   19.8556 N   0  0  0  0  0  0  0  0  0  0  0  0
  -22.0148  -13.4855   21.6596 N   0  0  0  0  0  0  0  0  0  0  0  0
  -23.4234  -28.8405   21.7715 N   0  0  0  0  0  0  0  0  0  0  0  0
  -18.1881  -26.1690   24.9540 N   0  0  0  0  0  0  0  0  0  0  0  0
  -29.1673  -16.5650   21.7494 N   0  0  0  0  0  0  0  0  0  0  0  0
  -16.6000  -22.9473   24.5468 N   0  3  0  0  0  0  0  0  0  0  0  0
  -25.2923  -20.5126   21.2728 N   0  3  0  0  0  0  0  0  0  0  0  0
  -21.8537  -12.9574   19.4339 O   0  0  0  0  0  0  0  0  0  0  0  0
  -23.0870  -27.5985   23.7123 O   0  0  0  0  0  0  0  0  0  0  0  0
  -19.5548  -28.8467   24.1136 O   0  0  0  0  0  0  0  0  0  0  0  0
  -18.5706  -24.1996   26.1168 O   0  0  0  0  0  0  0  0  0  0  0  0
  -31.2463  -15.9277   21.0328 O   0  0  0  0  0  0  0  0  0  0  0  0
  -22.1460   -6.6287   21.9611 O   0  0  0  0  0  0  0  0  0  0  0  0
  -22.6605  -21.5673   21.0764 O   0  0  0  0  0  0  0  0  0  1  0  0
  -20.2122   -6.0265   27.0896 F   0  0  0  0  0  0  0  0  0  0  0  0
  -23.0912   -4.6181   23.6064 F   0  0  0  0  0  0  0  0  0  0  0  0
  1  2  1  0  0  0  0
  1  5  2  0  0  0  0
  2  6  2  0  0  0  0
  3  8  2  0  0  0  0
  3 15  1  0  0  0  0
  4  9  1  0  0  0  0
  4 15  2  0  0  0  0
  5 17  1  0  0  0  0
  6 19  1  0  0  0  0
  7 10  2  0  0  0  0
  7 18  1  0  0  0  0
  8 21  1  0  0  0  0
  9 21  2  0  0  0  0
 10 22  1  0  0  0  0
 11 12  2  0  0  0  0
 11 23  1  0  0  0  0
 12 24  1  0  0  0  0
 13 20  1  0  0  0  0
 13 22  2  0  0  0  0
 14 24  2  0  0  0  0
 14 25  1  0  0  0  0
 15 26  1  0  0  0  0
 16 26  1  0  0  0  0
 16 27  2  0  0  0  0
 16 28  1  0  0  0  0
 17 19  2  0  0  0  0
 17 33  1  0  0  0  0
 18 20  2  0  0  0  0
 18 34  1  0  0  0  0
 19 46  1  0  0  0  0
 20 35  1  0  0  0  0
 21 83  1  0  0  0  0
 22 84  1  0  0  0  0
 23 25  2  0  0  0  0
 23 83  1  0  0  0  0
 24 85  1  0  0  0  0
 25 86  1  0  0  0  0
 26 65  2  0  0  0  0
 27 66  1  0  0  0  0
 27 71  1  0  0  0  0
 28 72  1  0  0  0  0
 28 78  2  0  0  0  0
 29 47  1  0  0  0  0
 29 73  1  0  0  0  0
 29 79  2  0  0  0  0
 30 61  1  0  0  0  0
 30 67  1  0  0  0  0
 30 80  2  0  0  0  0
 31 62  1  0  0  0  0
 31 74  1  0  0  0  0
 31 81  2  0  0  0  0
 32 68  1  0  0  0  0
 32 75  1  0  0  0  0
 32 82  2  0  0  0  0
 33 36  1  0  0  0  0
 34 47  1  0  0  0  0
 35 67  1  0  0  0  0
 36 38  1  0  0  0  0
 37 39  1  0  0  0  0
 37 41  1  0  0  0  0
 38 46  1  0  0  0  0
 39 48  1  0  0  0  0
 40 42  1  0  0  0  0
 40 49  1  0  0  0  0
 41 68  1  0  0  0  0
 42 70  1  0  0  0  0
 43 48  1  0  0  0  0
 43 68  1  0  0  0  0
 44 50  1  0  0  0  0
 44 69  1  0  0  0  0
 45 50  1  0  0  0  0
 45 69  1  0  0  0  0
 46 73  1  0  0  0  0
 47 67  1  0  0  0  0
 48 66  1  0  0  0  0
 49 51  1  0  0  0  0
 49 69  1  0  0  0  0
 50 75  1  0  0  0  0
 51 59  1  0  0  0  0
 51 70  1  0  0  0  0
 52 62  1  0  0  0  0
 53 63  1  0  0  0  0
 54 64  1  0  0  0  0
 55 64  1  0  0  0  0
 56 64  1  0  0  0  0
 57 70  1  0  0  0  0
 58 76  1  0  0  0  0
 59 77  1  0  0  0  0
 60 63  1  0  0  0  0
 60 84  1  0  0  0  0
 61 64  1  0  0  0  0
 61 74  1  0  0  0  0
 62 76  1  0  0  0  0
 63 77  1  0  0  0  0
 65 66  1  0  0  0  0
M  CHG  2  76   1  77   1
M  ISO  4  32 100  60 101  75 100  84 101
M  END
> <Batch ID>
0188

> <Smiles>
CNC(C)C(=O)NC(C(=O)N1Cc2cc([101O:1][101CH2:1]C(C)NCC3C(N4CC([100NH:0][100C:0](=O)N5CCCC(n6nc(-c7ccc(Oc8ccc(F)cc8F)cc7)c(C(N)=O)c6N)C5)C4)CCN3C)ccc2CC1C(=O)NC1CCCc2ccccc21)C(C)(C)C

> <Shape>
0.293

> <Color>
0.125

> <Negative vol penalty>
0.000

$$$$

  -OEChem-04052323193D

 83 92  0     1  0  0  0  0  0999 V2000
  -27.4585  -37.3086   19.1736 C   0  0  0  0  0  0  0  0  0  0  0  0
  -27.8896  -36.0024   18.9652 C   0  0  0  0  0  0  0  0  0  0  0  0
  -23.4149  -10.1115   22.5233 C   0  0  0  0  0  0  0  0  0  0  0  0
  -24.2771   -9.5689   20.3325 C   0  0  0  0  0  0  0  0  0  0  0  0
  -26.7108  -37.6221   20.3079 C   0  0  0  0  0  0  0  0  0  0  0  0
  -27.5740  -35.0090   19.8915 C   0  0  0  0  0  0  0  0  0  0  0  0
  -26.3717  -29.1213   18.7102 C   0  0  0  0  0  0  0  0  0  0  0  0
  -22.5500   -9.0194   22.4534 C   0  0  0  0  0  0  0  0  0  0  0  0
  -23.4122   -8.4768   20.2627 C   0  0  0  0  0  0  0  0  0  0  0  0
  -27.1572  -27.9715   18.7789 C   0  0  0  0  0  0  0  0  0  0  0  0
  -22.7319   -5.6677   22.8610 C   0  0  0  0  0  0  0  0  0  0  0  0
  -22.6301   -4.8485   23.9853 C   0  0  0  0  0  0  0  0  0  0  0  0
  -26.2895  -27.5179   20.9836 C   0  0  0  0  0  0  0  0  0  0  0  0
  -20.2693   -5.3411   24.1304 C   0  0  0  0  0  0  0  0  0  0  0  0
  -30.7674  -22.1795   19.5725 C   0  0  0  0  0  0  0  0  0  0  0  0
  -24.2784  -10.3863   21.4628 C   0  0  0  0  0  0  0  0  0  0  0  0
  -26.4829  -11.5297   22.0463 C   0  0  0  0  0  0  0  0  0  0  0  0
  -26.3776  -36.6301   21.2437 C   0  0  0  0  0  0  0  0  0  0  0  0
  -25.5461  -29.4846   19.7839 C   0  0  0  0  0  0  0  0  0  0  0  0
  -26.8222  -35.3098   21.0400 C   0  0  0  0  0  0  0  0  0  0  0  0
  -25.4927  -28.6714   20.9250 C   0  0  0  0  0  0  0  0  0  0  0  0
  -22.5487   -8.2020   21.3231 C   0  0  0  0  0  0  0  0  0  0  0  0
  -27.1183  -27.1711   19.9169 C   0  0  0  0  0  0  0  0  0  0  0  0
  -21.6025   -6.3238   22.3714 C   0  0  0  0  0  0  0  0  0  0  0  0
  -21.3988   -4.6851   24.6200 C   0  0  0  0  0  0  0  0  0  0  0  0
  -20.3712   -6.1604   23.0061 C   0  0  0  0  0  0  0  0  0  0  0  0
  -25.1717  -11.5146   21.5342 C   0  0  0  0  0  0  0  0  0  0  0  0
  -31.1225  -23.3673   20.1787 C   0  0  0  0  0  0  0  0  0  0  0  0
  -29.6879  -22.2459   18.7156 C   0  0  0  0  0  0  0  0  0  0  0  0
  -26.8987  -12.8291   21.8872 C   0  0  0  0  0  0  0  0  0  0  0  0
  -29.4441  -24.4705   19.1141 C   0  0  0  0  0  0  0  0  0  0  0  0
  -27.2560  -10.4645   22.6148 C   0  0  0  0  0  0  0  0  0  0  0  0
  -25.3873  -31.9791   21.7475 C   0  0  0  0  0  0  0  0  0  0  0  0
  -22.6922  -30.4991   22.7812 C   0  0  0  0  0  0  0  0  0  0  0  0
  -20.9234  -27.5991   23.1089 C   0  0  0  0  0  0  0  0  0  0  0  0
  -27.4007  -17.2322   18.6032 C   0  0  0  0  0  0  0  0  0  0  0  0
  -25.6076  -37.0264   22.4785 C   0  0  0  0  0  0  0  0  0  0  0  0
  -24.6848  -30.7136   19.6833 C   0  0  0  0  0  0  0  0  0  0  0  0
  -24.6077  -29.0065   22.0967 C   0  0  0  0  0  0  0  0  0  0  0  0
  -24.9966  -35.8412   23.2217 C   0  0  0  0  0  0  0  0  0  0  0  0
  -24.3394  -16.9934   20.6647 C   0  0  0  0  0  0  0  0  0  0  0  0
  -26.0218  -34.7223   23.3767 C   0  0  0  0  0  0  0  0  0  0  0  0
  -24.3706  -15.5214   21.0631 C   0  0  0  0  0  0  0  0  0  0  0  0
  -24.9244  -17.2254   19.2720 C   0  0  0  0  0  0  0  0  0  0  0  0
  -26.3294  -15.1941   19.5059 C   0  0  0  0  0  0  0  0  0  0  0  0
  -29.4352  -19.7457   18.5903 C   0  0  0  0  0  0  0  0  0  0  0  0
  -28.0604  -20.8269   17.4239 C   0  0  0  0  0  0  0  0  0  0  0  0
  -26.4789  -34.1996   22.0095 C   0  0  1  0  0  0  0  0  0  0  0  0
  -24.2686  -31.2645   21.0437 C   0  0  1  0  0  0  0  0  0  0  0  0
  -25.7910  -14.9538   20.9243 C   0  0  2  0  0  0  0  0  0  0  0  0
  -28.3467  -19.3280   17.5915 C   0  0  0  0  0  0  0  0  0  0  0  0
  -32.2776  -23.3948   21.1224 C   0  0  0  0  0  0  0  0  0  0  0  0
  -18.7699  -26.6985   24.0304 C   0  0  0  0  0  0  0  0  0  0  0  0
  -23.8336  -30.6668   25.6059 C   0  0  0  0  0  0  0  0  0  0  0  0
  -22.1473  -28.9571   26.3139 C   0  0  0  0  0  0  0  0  0  0  0  0
  -21.3889  -31.1659   25.4373 C   0  0  0  0  0  0  0  0  0  0  0  0
  -20.0263  -26.6902   20.4391 C   0  0  0  0  0  0  0  0  0  0  0  0
  -28.7048  -25.7508   18.8578 C   0  0  0  0  0  0  0  0  0  1  0  0
  -22.3762  -29.4719   23.8413 C   0  0  1  0  0  0  0  0  0  0  0  0
  -19.4741  -27.2635   22.8066 C   0  0  2  0  0  0  0  0  0  0  0  0
  -22.4547  -30.0599   25.2785 C   0  0  0  0  0  0  0  0  0  0  0  0
  -24.7803  -12.7095   21.0836 N   0  0  0  0  0  0  0  0  0  0  0  0
  -30.4805  -24.5358   19.9715 N   0  0  0  0  0  0  0  0  0  0  0  0
  -29.0004  -23.3789   18.4623 N   0  0  0  0  0  0  0  0  0  0  0  0
  -25.8519  -13.4877   21.3122 N   0  0  0  0  0  0  0  0  0  0  0  0
  -29.2910  -21.0478   18.0726 N   0  0  0  0  0  0  0  0  0  0  0  0
  -23.7891  -30.2217   21.9531 N   0  0  0  0  0  0  0  0  0  0  0  0
  -26.2542  -16.6113   19.1303 N   0  0  0  0  0  0  0  0  0  0  0  0
  -28.0539  -13.4611   22.1845 N   0  0  0  0  0  0  0  0  0  0  0  0
  -26.6763   -9.1915   22.7028 N   0  0  0  0  0  0  0  0  0  0  0  0
  -25.4761  -33.3239   21.4422 N   0  0  0  0  0  0  0  0  0  0  0  0
  -21.0734  -28.9145   23.4941 N   0  0  0  0  0  0  0  0  0  0  0  0
  -27.2375  -18.5462   18.1753 N   0  0  0  0  0  0  0  0  0  0  0  0
  -19.3933  -26.2564   21.7111 N   0  3  0  0  0  0  0  0  0  0  0  0
  -28.4202  -10.6401   23.0475 O   0  0  0  0  0  0  0  0  0  0  0  0
  -26.1152  -31.3569   22.5122 O   0  0  0  0  0  0  0  0  0  0  0  0
  -21.9874  -31.5071   22.6866 O   0  0  0  0  0  0  0  0  0  0  0  0
  -21.8310  -26.7755   23.0165 O   0  0  0  0  0  0  0  0  0  0  0  0
  -28.4923  -16.6605   18.5107 O   0  0  0  0  0  0  0  0  0  0  0  0
  -21.7050   -7.1362   21.2547 O   0  0  0  0  0  0  0  0  0  0  0  0
  -27.8845  -26.0486   19.9868 O   0  0  0  0  0  0  0  0  0  1  0  0
  -21.3009   -3.8971   25.6987 F   0  0  0  0  0  0  0  0  0  0  0  0
  -19.2823   -6.7870   22.5397 F   0  0  0  0  0  0  0  0  0  0  0  0
  1  2  1  0  0  0  0
  1  5  2  0  0  0  0
  2  6  2  0  0  0  0
  3  8  2  0  0  0  0
  3 16  1  0  0  0  0
  4  9  1  0  0  0  0
  4 16  2  0  0  0  0
  5 18  1  0  0  0  0
  6 20  1  0  0  0  0
  7 10  2  0  0  0  0
  7 19  1  0  0  0  0
  8 22  1  0  0  0  0
  9 22  2  0  0  0  0
 10 23  1  0  0  0  0
 11 12  2  0  0  0  0
 11 24  1  0  0  0  0
 12 25  1  0  0  0  0
 13 21  1  0  0  0  0
 13 23  2  0  0  0  0
 14 25  2  0  0  0  0
 14 26  1  0  0  0  0
 15 28  1  0  0  0  0
 15 29  2  0  0  0  0
 16 27  1  0  0  0  0
 17 27  1  0  0  0  0
 17 30  2  0  0  0  0
 17 32  1  0  0  0  0
 18 20  2  0  0  0  0
 18 37  1  0  0  0  0
 19 21  2  0  0  0  0
 19 38  1  0  0  0  0
 20 48  1  0  0  0  0
 21 39  1  0  0  0  0
 22 80  1  0  0  0  0
 23 81  1  0  0  0  0
 24 26  2  0  0  0  0
 24 80  1  0  0  0  0
 25 82  1  0  0  0  0
 26 83  1  0  0  0  0
 27 62  2  0  0  0  0
 28 52  1  0  0  0  0
 28 63  2  0  0  0  0
 29 64  1  0  0  0  0
 29 66  1  0  0  0  0
 30 65  1  0  0  0  0
 30 69  1  0  0  0  0
 31 58  1  0  0  0  0
 31 63  1  0  0  0  0
 31 64  2  0  0  0  0
 32 70  1  0  0  0  0
 32 75  2  0  0  0  0
 33 49  1  0  0  0  0
 33 71  1  0  0  0  0
 33 76  2  0  0  0  0
 34 59  1  0  0  0  0
 34 67  1  0  0  0  0
 34 77  2  0  0  0  0
 35 60  1  0  0  0  0
 35 72  1  0  0  0  0
 35 78  2  0  0  0  0
 36 68  1  0  0  0  0
 36 73  1  0  0  0  0
 36 79  2  0  0  0  0
 37 40  1  0  0  0  0
 38 49  1  0  0  0  0
 39 67  1  0  0  0  0
 40 42  1  0  0  0  0
 41 43  1  0  0  0  0
 41 44  1  0  0  0  0
 42 48  1  0  0  0  0
 43 50  1  0  0  0  0
 44 68  1  0  0  0  0
 45 50  1  0  0  0  0
 45 68  1  0  0  0  0
 46 51  1  0  0  0  0
 46 66  1  0  0  0  0
 47 51  1  0  0  0  0
 47 66  1  0  0  0  0
 48 71  1  0  0  0  0
 49 67  1  0  0  0  0
 50 65  1  0  0  0  0
 51 73  1  0  0  0  0
 53 60  1  0  0  0  0
 54 61  1  0  0  0  0
 55 61  1  0  0  0  0
 56 61  1  0  0  0  0
 57 74  1  0  0  0  0
 58 81  1  0  0  0  0
 59 61  1  0  0  0  0
 59 72  1  0  0  0  0
 60 74  1  0  0  0  0
 62 65  1  0  0  0  0
M  CHG  1  74   1
M  ISO  4  36 100  58 101  73 100  81 101
M  END
> <Batch ID>
0188

> <Smiles>
CNC(C)C(=O)NC(C(=O)N1Cc2cc([101O:1][101CH2:1]c3nc(C)cc(N4CC([100NH:0][100C:0](=O)N5CCCC(n6nc(-c7ccc(Oc8ccc(F)cc8F)cc7)c(C(N)=O)c6N)C5)C4)n3)ccc2CC1C(=O)NC1CCCc2ccccc21)C(C)(C)C

> <Shape>
0.299

> <Color>
0.133

> <Negative vol penalty>
0.000

$$$$

  -OEChem-04052323193D

 82 91  0     1  0  0  0  0  0999 V2000
  -17.5904  -26.1562   22.6525 C   0  0  0  0  0  0  0  0  0  0  0  0
  -18.9006  -25.6900   22.6906 C   0  0  0  0  0  0  0  0  0  0  0  0
  -28.1788  -13.8997   19.6358 C   0  0  0  0  0  0  0  0  0  0  0  0
  -29.7605  -12.4236   20.7112 C   0  0  0  0  0  0  0  0  0  0  0  0
  -17.3240  -27.4471   22.1980 C   0  0  0  0  0  0  0  0  0  0  0  0
  -19.9451  -26.5141   22.2732 C   0  0  0  0  0  0  0  0  0  0  0  0
  -25.6150  -26.7244   24.5784 C   0  0  0  0  0  0  0  0  0  0  0  0
  -28.3065  -13.1738   18.4516 C   0  0  0  0  0  0  0  0  0  0  0  0
  -29.8881  -11.6976   19.5270 C   0  0  0  0  0  0  0  0  0  0  0  0
  -26.8176  -26.1530   24.1646 C   0  0  0  0  0  0  0  0  0  0  0  0
  -28.4893  -11.9246   15.0414 C   0  0  0  0  0  0  0  0  0  0  0  0
  -28.6312  -12.6401   13.8524 C   0  0  0  0  0  0  0  0  0  0  0  0
  -27.3964  -28.2044   23.0349 C   0  0  0  0  0  0  0  0  0  0  0  0
  -30.6497  -13.6573   14.7055 C   0  0  0  0  0  0  0  0  0  0  0  0
  -28.9059  -13.5246   20.7656 C   0  0  0  0  0  0  0  0  0  0  0  0
  -27.8554  -14.0478   23.0307 C   0  0  0  0  0  0  0  0  0  0  0  0
  -18.3667  -28.2909   21.7840 C   0  0  0  0  0  0  0  0  0  0  0  0
  -25.2887  -28.0385   24.2138 C   0  0  0  0  0  0  0  0  0  0  0  0
  -19.6923  -27.8171   21.8115 C   0  0  0  0  0  0  0  0  0  0  0  0
  -26.1903  -28.7909   23.4475 C   0  0  0  0  0  0  0  0  0  0  0  0
  -29.1611  -12.0727   18.3972 C   0  0  0  0  0  0  0  0  0  0  0  0
  -27.7072  -26.8920   23.3903 C   0  0  0  0  0  0  0  0  0  0  0  0
  -29.4276  -12.0756   16.0624 C   0  0  0  0  0  0  0  0  0  0  0  0
  -29.7114  -13.5064   13.6844 C   0  0  0  0  0  0  0  0  0  0  0  0
  -30.5078  -12.9419   15.8944 C   0  0  0  0  0  0  0  0  0  0  0  0
  -28.7749  -14.2745   21.9890 C   0  0  0  0  0  0  0  0  0  0  0  0
  -28.1376  -15.0229   23.9559 C   0  0  0  0  0  0  0  0  0  0  0  0
  -26.8374  -13.0455   23.1512 C   0  0  0  0  0  0  0  0  0  0  0  0
  -22.9650  -29.3829   22.5117 C   0  0  0  0  0  0  0  0  0  0  0  0
  -24.3396  -32.1369   23.5354 C   0  0  0  0  0  0  0  0  0  0  0  0
  -27.1292  -33.7276   24.6906 C   0  0  0  0  0  0  0  0  0  0  0  0
  -28.3094  -18.8467   21.5231 C   0  0  0  0  0  0  0  0  0  0  0  0
  -18.0251  -29.6617   21.2560 C   0  0  0  0  0  0  0  0  0  0  0  0
  -23.9995  -28.6494   24.6906 C   0  0  0  0  0  0  0  0  0  0  0  0
  -25.8963  -30.2126   23.0464 C   0  0  0  0  0  0  0  0  0  0  0  0
  -19.2245  -30.6033   21.1847 C   0  0  0  0  0  0  0  0  0  0  0  0
  -31.6250  -17.7659   22.3724 C   0  0  0  0  0  0  0  0  0  0  0  0
  -20.4200  -29.8979   20.5521 C   0  0  0  0  0  0  0  0  0  0  0  0
  -31.3633  -17.1462   23.7468 C   0  0  0  0  0  0  0  0  0  0  0  0
  -27.7030  -21.0575   18.6183 C   0  0  0  0  0  0  0  0  0  0  0  0
  -30.8344  -26.0426   19.7726 C   0  0  0  0  0  0  0  0  0  0  0  0
  -30.7796  -19.0100   22.1048 C   0  0  0  0  0  0  0  0  0  0  0  0
  -27.3036  -19.9026   19.5235 C   0  0  0  0  0  0  0  0  0  0  0  0
  -29.3459  -20.8693   20.3308 C   0  0  0  0  0  0  0  0  0  0  0  0
  -29.1260  -18.2737   23.7833 C   0  0  0  0  0  0  0  0  0  0  0  0
  -31.1873  -24.7076   19.1374 C   0  0  0  0  0  0  0  0  0  0  0  0
  -29.3630  -24.4643   20.7457 C   0  0  0  0  0  0  0  0  0  0  0  0
  -20.8547  -28.6898   21.3905 C   0  0  1  0  0  0  0  0  0  0  0  0
  -23.5391  -29.8213   23.8292 C   0  0  1  0  0  0  0  0  0  0  0  0
  -28.5696  -21.9198   19.5368 C   0  0  1  0  0  0  0  0  0  0  0  0
  -30.2210  -25.6627   21.1130 C   0  0  2  0  0  0  0  0  0  0  0  0
  -29.8647  -16.9494   24.0615 C   0  0  1  0  0  0  0  0  0  0  0  0
  -27.9554  -35.9874   25.4035 C   0  0  0  0  0  0  0  0  0  0  0  0
  -24.4911  -33.0008   20.6129 C   0  0  0  0  0  0  0  0  0  0  0  0
  -26.1354  -34.7626   21.2914 C   0  0  0  0  0  0  0  0  0  0  0  0
  -23.8134  -34.8095   22.2016 C   0  0  0  0  0  0  0  0  0  0  0  0
  -27.7444  -32.7693   27.4223 C   0  0  0  0  0  0  0  0  0  0  0  0
  -29.4635  -22.8876   18.7824 C   0  0  0  0  0  0  0  0  0  0  0  0
  -29.4257  -26.7887   21.7497 C   0  0  0  0  0  0  0  0  0  1  0  0
  -25.4292  -33.0446   23.0179 C   0  0  1  0  0  0  0  0  0  0  0  0
  -27.3379  -34.6743   25.8588 C   0  0  2  0  0  0  0  0  0  0  0  0
  -24.9722  -33.8770   21.7867 C   0  0  0  0  0  0  0  0  0  0  0  0
  -29.5807  -15.3122   22.2293 N   0  0  0  0  0  0  0  0  0  0  0  0
  -29.1685  -15.7463   23.4325 N   0  0  0  0  0  0  0  0  0  0  0  0
  -24.6201  -30.7632   23.5318 N   0  0  0  0  0  0  0  0  0  0  0  0
  -29.3712  -18.7783   22.4311 N   0  0  0  0  0  0  0  0  0  0  0  0
  -28.4047  -19.7554   20.4705 N   0  0  0  0  0  0  0  0  0  0  0  0
  -27.6019  -15.3235   25.1580 N   0  0  0  0  0  0  0  0  0  0  0  0
  -26.6827  -12.1215   22.1087 N   0  0  0  0  0  0  0  0  0  0  0  0
  -21.6084  -29.1225   22.5477 N   0  0  0  0  0  0  0  0  0  0  0  0
  -25.8646  -33.8489   24.1546 N   0  0  0  0  0  0  0  0  0  0  0  0
  -30.2264  -23.6997   19.7564 N   0  3  1  0  0  0  0  0  0  0  0  0
  -28.2404  -34.0566   26.8712 N   0  3  0  0  0  0  0  0  0  0  0  0
  -26.0762  -12.9815   24.1462 O   0  0  0  0  0  0  0  0  0  0  0  0
  -23.6984  -29.2892   21.5343 O   0  0  0  0  0  0  0  0  0  0  0  0
  -23.2815  -32.6292   23.9349 O   0  0  0  0  0  0  0  0  0  0  0  0
  -28.0021  -32.9601   24.2910 O   0  0  0  0  0  0  0  0  0  0  0  0
  -27.2933  -18.1537   21.6696 O   0  0  0  0  0  0  0  0  0  0  0  0
  -29.2857  -11.3640   17.2419 O   0  0  0  0  0  0  0  0  0  0  0  0
  -28.8911  -26.3320   22.9812 O   0  0  0  0  0  0  0  0  0  1  0  0
  -29.8484  -14.1922   12.5420 F   0  0  0  0  0  0  0  0  0  0  0  0
  -31.4131  -13.0901   16.8713 F   0  0  0  0  0  0  0  0  0  0  0  0
  1  2  1  0  0  0  0
  1  5  2  0  0  0  0
  2  6  2  0  0  0  0
  3  8  2  0  0  0  0
  3 15  1  0  0  0  0
  4  9  1  0  0  0  0
  4 15  2  0  0  0  0
  5 17  1  0  0  0  0
  6 19  1  0  0  0  0
  7 10  2  0  0  0  0
  7 18  1  0  0  0  0
  8 21  1  0  0  0  0
  9 21  2  0  0  0  0
 10 22  1  0  0  0  0
 11 12  2  0  0  0  0
 11 23  1  0  0  0  0
 12 24  1  0  0  0  0
 13 20  1  0  0  0  0
 13 22  2  0  0  0  0
 14 24  2  0  0  0  0
 14 25  1  0  0  0  0
 15 26  1  0  0  0  0
 16 26  1  0  0  0  0
 16 27  2  0  0  0  0
 16 28  1  0  0  0  0
 17 19  2  0  0  0  0
 17 33  1  0  0  0  0
 18 20  2  0  0  0  0
 18 34  1  0  0  0  0
 19 48  1  0  0  0  0
 20 35  1  0  0  0  0
 21 79  1  0  0  0  0
 22 80  1  0  0  0  0
 23 25  2  0  0  0  0
 23 79  1  0  0  0  0
 24 81  1  0  0  0  0
 25 82  1  0  0  0  0
 26 63  2  0  0  0  0
 27 64  1  0  0  0  0
 27 68  1  0  0  0  0
 28 69  1  0  0  0  0
 28 74  2  0  0  0  0
 29 49  1  0  0  0  0
 29 70  1  0  0  0  0
 29 75  2  0  0  0  0
 30 60  1  0  0  0  0
 30 65  1  0  0  0  0
 30 76  2  0  0  0  0
 31 61  1  0  0  0  0
 31 71  1  0  0  0  0
 31 77  2  0  0  0  0
 32 66  1  0  0  0  0
 32 67  1  0  0  0  0
 32 78  2  0  0  0  0
 33 36  1  0  0  0  0
 34 49  1  0  0  0  0
 35 65  1  0  0  0  0
 36 38  1  0  0  0  0
 37 39  1  0  0  0  0
 37 42  1  0  0  0  0
 38 48  1  0  0  0  0
 39 52  1  0  0  0  0
 40 43  1  0  0  0  0
 40 50  1  0  0  0  0
 41 46  1  0  0  0  0
 41 51  1  0  0  0  0
 42 66  1  0  0  0  0
 43 67  1  0  0  0  0
 44 50  1  0  0  0  0
 44 67  1  0  0  0  0
 45 52  1  0  0  0  0
 45 66  1  0  0  0  0
 46 72  1  0  0  0  0
 47 51  1  0  0  0  0
 47 72  1  0  0  0  0
 48 70  1  0  0  0  0
 49 65  1  0  0  0  0
 50 58  1  0  0  0  0
 51 59  1  0  0  0  0
 52 64  1  0  0  0  0
 53 61  1  0  0  0  0
 54 62  1  0  0  0  0
 55 62  1  0  0  0  0
 56 62  1  0  0  0  0
 57 73  1  0  0  0  0
 58 72  1  0  0  0  0
 59 80  1  0  0  0  0
 60 62  1  0  0  0  0
 60 71  1  0  0  0  0
 61 73  1  0  0  0  0
 63 64  1  0  0  0  0
M  CHG  2  72   1  73   1
M  ISO  4  32 100  59 101  67 100  80 101
M  END
> <Batch ID>
0188

> <Smiles>
CNC(C)C(=O)NC(C(=O)N1Cc2cc([101O:1][101CH2:1]C3CCN(CC4CC[100N:0]([100C:0](=O)N5CCCC(n6nc(-c7ccc(Oc8ccc(F)cc8F)cc7)c(C(N)=O)c6N)C5)C4)C3)ccc2CC1C(=O)NC1CCCc2ccccc21)C(C)(C)C

> <Shape>
0.265

> <Color>
0.075

> <Negative vol penalty>
0.000

$$$$

  -OEChem-04052323193D

 78 86  0     1  0  0  0  0  0999 V2000
  -19.3064  -24.2309   23.9521 C   0  0  0  0  0  0  0  0  0  0  0  0
  -20.6196  -24.1532   23.4996 C   0  0  0  0  0  0  0  0  0  0  0  0
  -24.3171  -15.4346   20.0072 C   0  0  0  0  0  0  0  0  0  0  0  0
  -26.1182  -13.8267   19.9209 C   0  0  0  0  0  0  0  0  0  0  0  0
  -18.5811  -25.4098   23.7844 C   0  0  0  0  0  0  0  0  0  0  0  0
  -21.2080  -25.2540   22.8781 C   0  0  0  0  0  0  0  0  0  0  0  0
  -27.0762  -26.9729   23.2186 C   0  0  0  0  0  0  0  0  0  0  0  0
  -23.3892  -14.4029   19.8655 C   0  0  0  0  0  0  0  0  0  0  0  0
  -25.1903  -12.7949   19.7791 C   0  0  0  0  0  0  0  0  0  0  0  0
  -28.1610  -26.7808   22.3641 C   0  0  0  0  0  0  0  0  0  0  0  0
  -23.2811   -9.7010   19.7567 C   0  0  0  0  0  0  0  0  0  0  0  0
  -23.4647   -8.5524   20.5265 C   0  0  0  0  0  0  0  0  0  0  0  0
  -27.7703  -28.9528   21.3898 C   0  0  0  0  0  0  0  0  0  0  0  0
  -23.2930   -9.8751   22.5410 C   0  0  0  0  0  0  0  0  0  0  0  0
  -25.6816  -15.1465   20.0349 C   0  0  0  0  0  0  0  0  0  0  0  0
  -27.1604  -16.7293   21.3824 C   0  0  0  0  0  0  0  0  0  0  0  0
  -19.1641  -26.5289   23.1692 C   0  0  0  0  0  0  0  0  0  0  0  0
  -26.3224  -28.1538   23.1576 C   0  0  0  0  0  0  0  0  0  0  0  0
  -20.4895  -26.4486   22.7008 C   0  0  0  0  0  0  0  0  0  0  0  0
  -26.6781  -29.1585   22.2464 C   0  0  0  0  0  0  0  0  0  0  0  0
  -23.8258  -13.0830   19.7515 C   0  0  0  0  0  0  0  0  0  0  0  0
  -28.5064  -27.7696   21.4476 C   0  0  0  0  0  0  0  0  0  0  0  0
  -23.1035  -10.9367   20.3790 C   0  0  0  0  0  0  0  0  0  0  0  0
  -23.4706   -8.6394   21.9186 C   0  0  0  0  0  0  0  0  0  0  0  0
  -23.1095  -11.0237   21.7711 C   0  0  0  0  0  0  0  0  0  0  0  0
  -26.6406  -16.2120   20.1807 C   0  0  0  0  0  0  0  0  0  0  0  0
  -28.0258  -17.7188   20.9844 C   0  0  0  0  0  0  0  0  0  0  0  0
  -26.8855  -16.3493   22.7373 C   0  0  0  0  0  0  0  0  0  0  0  0
  -23.2915  -28.8487   22.4984 C   0  0  0  0  0  0  0  0  0  0  0  0
  -24.1938  -31.8388   23.3744 C   0  0  0  0  0  0  0  0  0  0  0  0
  -26.7126  -34.1092   23.7587 C   0  0  0  0  0  0  0  0  0  0  0  0
  -28.9796  -22.1682   17.8786 C   0  0  0  0  0  0  0  0  0  0  0  0
  -18.3251  -27.7659   22.9677 C   0  0  0  0  0  0  0  0  0  0  0  0
  -25.1716  -28.3569   24.1045 C   0  0  0  0  0  0  0  0  0  0  0  0
  -25.9135  -30.4529   22.1549 C   0  0  0  0  0  0  0  0  0  0  0  0
  -19.1446  -29.0102   22.6353 C   0  0  0  0  0  0  0  0  0  0  0  0
  -29.8419  -18.8865   16.4296 C   0  0  0  0  0  0  0  0  0  0  0  0
  -20.1804  -28.6958   21.5605 C   0  0  0  0  0  0  0  0  0  0  0  0
  -29.0761  -17.9464   17.3558 C   0  0  0  0  0  0  0  0  0  0  0  0
  -31.0184  -25.0412   16.4060 C   0  0  0  0  0  0  0  0  0  0  0  0
  -29.1089  -20.2114   16.2235 C   0  0  0  0  0  0  0  0  0  0  0  0
  -27.9977  -19.9635   18.4253 C   0  0  0  0  0  0  0  0  0  0  0  0
  -21.1707  -27.6294   22.0439 C   0  0  1  0  0  0  0  0  0  0  0  0
  -24.1591  -29.3820   23.6032 C   0  0  1  0  0  0  0  0  0  0  0  0
  -28.7431  -18.6450   18.6831 C   0  0  1  0  0  0  0  0  0  0  0  0
  -29.9178  -24.3453   17.1630 C   0  0  2  0  0  0  0  0  0  0  0  0
  -31.1825  -24.7557   17.8704 C   0  0  2  0  0  0  0  0  0  0  0  0
  -27.1363  -36.4821   24.4567 C   0  0  0  0  0  0  0  0  0  0  0  0
  -31.9101  -27.5988   21.1677 C   0  0  0  0  0  0  0  0  0  0  0  0
  -23.0910  -32.8188   20.7035 C   0  0  0  0  0  0  0  0  0  0  0  0
  -24.3667  -34.9471   21.0369 C   0  0  0  0  0  0  0  0  0  0  0  0
  -22.5778  -34.3013   22.6511 C   0  0  0  0  0  0  0  0  0  0  0  0
  -28.4643  -33.2627   25.9890 C   0  0  0  0  0  0  0  0  0  0  0  0
  -30.7482  -25.5337   20.2038 C   0  0  0  0  0  0  0  0  0  0  0  0
  -24.7668  -33.0363   22.6555 C   0  0  1  0  0  0  0  0  0  0  0  0
  -27.0700  -35.0319   24.9099 C   0  0  2  0  0  0  0  0  0  0  0  0
  -30.6345  -26.7702   21.0895 C   0  0  2  0  0  0  0  0  0  1  0  0
  -23.7140  -33.7508   21.7619 C   0  0  0  0  0  0  0  0  0  0  0  0
  -27.1345  -16.8224   19.1002 N   0  0  0  0  0  0  0  0  0  0  0  0
  -27.9735  -17.7337   19.6215 N   0  0  0  0  0  0  0  0  0  0  0  0
  -24.7926  -30.6016   23.0977 N   0  0  0  0  0  0  0  0  0  0  0  0
  -28.7428  -20.8326   17.5061 N   0  0  0  0  0  0  0  0  0  0  0  0
  -28.8186  -18.5690   21.6706 N   0  0  0  0  0  0  0  0  0  0  0  0
  -25.9705  -15.3131   22.9681 N   0  0  0  0  0  0  0  0  0  0  0  0
  -22.1459  -28.2141   22.9393 N   0  0  0  0  0  0  0  0  0  0  0  0
  -25.3537  -33.8878   23.6846 N   0  0  0  0  0  0  0  0  0  0  0  0
  -29.6150  -22.9587   16.9277 N   0  0  0  0  0  0  0  0  0  0  0  0
  -31.1044  -25.9055   18.8119 N   0  3  0  0  0  0  0  0  0  0  0  0
  -28.3941  -34.6574   25.4822 N   0  3  0  0  0  0  0  0  0  0  0  0
  -27.4227  -16.9231   23.7149 O   0  0  0  0  0  0  0  0  0  0  0  0
  -23.6353  -29.0028   21.3324 O   0  0  0  0  0  0  0  0  0  0  0  0
  -23.2543  -31.9965   24.1581 O   0  0  0  0  0  0  0  0  0  0  0  0
  -27.5544  -33.6353   22.9989 O   0  0  0  0  0  0  0  0  0  0  0  0
  -28.6446  -22.6268   18.9764 O   0  0  0  0  0  0  0  0  0  0  0  0
  -22.9206  -12.0760   19.6134 O   0  0  0  0  0  0  0  0  0  0  0  0
  -29.5644  -27.5844   20.6119 O   0  0  0  0  0  0  0  0  0  1  0  0
  -23.6454   -7.5361   22.6578 F   0  0  0  0  0  0  0  0  0  0  0  0
  -22.9382  -12.2079   22.3747 F   0  0  0  0  0  0  0  0  0  0  0  0
  1  2  1  0  0  0  0
  1  5  2  0  0  0  0
  2  6  2  0  0  0  0
  3  8  2  0  0  0  0
  3 15  1  0  0  0  0
  4  9  1  0  0  0  0
  4 15  2  0  0  0  0
  5 17  1  0  0  0  0
  6 19  1  0  0  0  0
  7 10  2  0  0  0  0
  7 18  1  0  0  0  0
  8 21  1  0  0  0  0
  9 21  2  0  0  0  0
 10 22  1  0  0  0  0
 11 12  2  0  0  0  0
 11 23  1  0  0  0  0
 12 24  1  0  0  0  0
 13 20  1  0  0  0  0
 13 22  2  0  0  0  0
 14 24  2  0  0  0  0
 14 25  1  0  0  0  0
 15 26  1  0  0  0  0
 16 26  1  0  0  0  0
 16 27  2  0  0  0  0
 16 28  1  0  0  0  0
 17 19  2  0  0  0  0
 17 33  1  0  0  0  0
 18 20  2  0  0  0  0
 18 34  1  0  0  0  0
 19 43  1  0  0  0  0
 20 35  1  0  0  0  0
 21 75  1  0  0  0  0
 22 76  1  0  0  0  0
 23 25  2  0  0  0  0
 23 75  1  0  0  0  0
 24 77  1  0  0  0  0
 25 78  1  0  0  0  0
 26 59  2  0  0  0  0
 27 60  1  0  0  0  0
 27 63  1  0  0  0  0
 28 64  1  0  0  0  0
 28 70  2  0  0  0  0
 29 44  1  0  0  0  0
 29 65  1  0  0  0  0
 29 71  2  0  0  0  0
 30 55  1  0  0  0  0
 30 61  1  0  0  0  0
 30 72  2  0  0  0  0
 31 56  1  0  0  0  0
 31 66  1  0  0  0  0
 31 73  2  0  0  0  0
 32 62  1  0  0  0  0
 32 67  1  0  0  0  0
 32 74  2  0  0  0  0
 33 36  1  0  0  0  0
 34 44  1  0  0  0  0
 35 61  1  0  0  0  0
 36 38  1  0  0  0  0
 37 39  1  0  0  0  0
 37 41  1  0  0  0  0
 38 43  1  0  0  0  0
 39 45  1  0  0  0  0
 40 46  1  0  0  0  0
 40 47  1  0  0  0  0
 41 62  1  0  0  0  0
 42 45  1  0  0  0  0
 42 62  1  0  0  0  0
 43 65  1  0  0  0  0
 44 61  1  0  0  0  0
 45 60  1  0  0  0  0
 46 47  1  0  0  0  0
 46 67  1  0  0  0  0
 47 68  1  0  0  0  0
 48 56  1  0  0  0  0
 49 57  1  0  0  0  0
 50 58  1  0  0  0  0
 51 58  1  0  0  0  0
 52 58  1  0  0  0  0
 53 69  1  0  0  0  0
 54 57  1  0  0  0  0
 54 68  1  0  0  0  0
 55 58  1  0  0  0  0
 55 66  1  0  0  0  0
 56 69  1  0  0  0  0
 57 76  1  0  0  0  0
 59 60  1  0  0  0  0
M  CHG  2  68   1  69   1
M  ISO  4  32 100  57 101  67 100  76 101
M  END
> <Batch ID>
0188

> <Smiles>
CNC(C)C(=O)NC(C(=O)N1Cc2cc([101O:1][101CH:1](C)CNC3CC3[100NH:0][100C:0](=O)N3CCCC(n4nc(-c5ccc(Oc6ccc(F)cc6F)cc5)c(C(N)=O)c4N)C3)ccc2CC1C(=O)NC1CCCc2ccccc21)C(C)(C)C

> <Shape>
0.296

> <Color>
0.082

> <Negative vol penalty>
0.000

$$$$

  -OEChem-04052323193D

 84 93  0     1  0  0  0  0  0999 V2000
  -28.4435  -35.6851   24.8133 C   0  0  0  0  0  0  0  0  0  0  0  0
  -28.7590  -34.4760   24.2018 C   0  0  0  0  0  0  0  0  0  0  0  0
  -25.1309  -10.0599   23.7919 C   0  0  0  0  0  0  0  0  0  0  0  0
  -25.1435   -8.5206   21.9299 C   0  0  0  0  0  0  0  0  0  0  0  0
  -27.2107  -35.8447   25.4448 C   0  0  0  0  0  0  0  0  0  0  0  0
  -27.8423  -33.4254   24.2224 C   0  0  0  0  0  0  0  0  0  0  0  0
  -26.9048  -29.2709   19.8216 C   0  0  0  0  0  0  0  0  0  0  0  0
  -23.8442   -9.6408   24.1298 C   0  0  0  0  0  0  0  0  0  0  0  0
  -23.8567   -8.1013   22.2678 C   0  0  0  0  0  0  0  0  0  0  0  0
  -27.3559  -27.9622   19.6557 C   0  0  0  0  0  0  0  0  0  0  0  0
  -22.4235   -6.0461   24.5354 C   0  0  0  0  0  0  0  0  0  0  0  0
  -22.1692   -4.6747   24.5344 C   0  0  0  0  0  0  0  0  0  0  0  0
  -25.3029  -27.1389   20.6182 C   0  0  0  0  0  0  0  0  0  0  0  0
  -20.4627   -4.9923   22.8539 C   0  0  0  0  0  0  0  0  0  0  0  0
  -27.7785  -22.9082   19.2014 C   0  0  0  0  0  0  0  0  0  0  0  0
  -25.7806   -9.4999   22.6919 C   0  0  0  0  0  0  0  0  0  0  0  0
  -28.3271   -9.3923   22.7970 C   0  0  0  0  0  0  0  0  0  0  0  0
  -26.2746  -34.7988   25.4648 C   0  0  0  0  0  0  0  0  0  0  0  0
  -25.6518  -29.5242   20.3981 C   0  0  0  0  0  0  0  0  0  0  0  0
  -26.5964  -33.5708   24.8559 C   0  0  0  0  0  0  0  0  0  0  0  0
  -24.8371  -28.4517   20.7880 C   0  0  0  0  0  0  0  0  0  0  0  0
  -23.2071   -8.6615   23.3677 C   0  0  0  0  0  0  0  0  0  0  0  0
  -26.5561  -26.8960   20.0566 C   0  0  0  0  0  0  0  0  0  0  0  0
  -21.6974   -6.8907   23.6957 C   0  0  0  0  0  0  0  0  0  0  0  0
  -21.1888   -4.1477   23.6937 C   0  0  0  0  0  0  0  0  0  0  0  0
  -20.7170   -6.3638   22.8549 C   0  0  0  0  0  0  0  0  0  0  0  0
  -27.1095   -9.9329   22.3420 C   0  0  0  0  0  0  0  0  0  0  0  0
  -28.5909  -24.0143   19.1455 C   0  0  0  0  0  0  0  0  0  0  0  0
  -28.6446  -21.8233   18.9678 C   0  0  0  0  0  0  0  0  0  0  0  0
  -29.2916  -10.1486   22.1771 C   0  0  0  0  0  0  0  0  0  0  0  0
  -28.5651   -8.3036   23.6992 C   0  0  0  0  0  0  0  0  0  0  0  0
  -24.6479  -31.0308   23.0108 C   0  0  0  0  0  0  0  0  0  0  0  0
  -21.7170  -30.4431   21.7511 C   0  0  0  0  0  0  0  0  0  0  0  0
  -19.7782  -28.5321   19.6930 C   0  0  0  0  0  0  0  0  0  0  0  0
  -29.4724  -15.5716   20.1899 C   0  0  0  0  0  0  0  0  0  0  0  0
  -24.9740  -35.0026   26.2006 C   0  0  0  0  0  0  0  0  0  0  0  0
  -25.1684  -30.9409   20.5456 C   0  0  0  0  0  0  0  0  0  0  0  0
  -23.4753  -28.6695   21.3935 C   0  0  0  0  0  0  0  0  0  0  0  0
  -23.9088  -33.9658   25.8534 C   0  0  0  0  0  0  0  0  0  0  0  0
  -30.0784  -12.7234   18.2278 C   0  0  0  0  0  0  0  0  0  0  0  0
  -24.5030  -32.5612   25.8776 C   0  0  0  0  0  0  0  0  0  0  0  0
  -29.4996  -11.6181   19.1107 C   0  0  0  0  0  0  0  0  0  0  0  0
  -28.1681  -18.1941   18.2383 C   0  0  0  0  0  0  0  0  0  0  0  0
  -29.7874  -19.0163   19.9903 C   0  0  0  0  0  0  0  0  0  0  0  0
  -29.2054  -13.9796   18.2361 C   0  0  0  0  0  0  0  0  0  0  0  0
  -29.0000  -16.9164   18.0935 C   0  0  0  0  0  0  0  0  0  0  0  0
  -30.5999  -17.7398   19.7912 C   0  0  0  0  0  0  0  0  0  0  0  0
  -28.3320  -13.3912   20.4743 C   0  0  0  0  0  0  0  0  0  0  0  0
  -25.6186  -32.4161   24.8355 C   0  0  1  0  0  0  0  0  0  0  0  0
  -24.0927  -31.0967   21.6161 C   0  0  1  0  0  0  0  0  0  0  0  0
  -29.2178  -12.1370   20.5319 C   0  0  1  0  0  0  0  0  0  0  0  0
  -29.0234  -19.3715   18.7121 C   0  0  0  0  0  0  0  0  0  0  0  0
  -17.4123  -28.2701   18.8986 C   0  0  0  0  0  0  0  0  0  0  0  0
  -20.9668  -29.1606   24.4161 C   0  0  0  0  0  0  0  0  0  0  0  0
  -19.0057  -28.1020   23.2752 C   0  0  0  0  0  0  0  0  0  0  0  0
  -19.1788  -30.5871   23.4049 C   0  0  0  0  0  0  0  0  0  0  0  0
  -31.0519  -24.3229   18.7416 C   0  0  0  0  0  0  0  0  0  0  0  0
  -20.5450  -29.0333   16.8788 C   0  0  0  0  0  0  0  0  0  0  0  0
  -28.2879  -25.4480   19.3083 C   0  0  0  0  0  0  0  0  0  1  0  0
  -20.7166  -29.3170   21.8512 C   0  0  1  0  0  0  0  0  0  0  0  0
  -18.7653  -28.9090   18.6270 C   0  0  2  0  0  0  0  0  0  0  0  0
  -19.9934  -29.2873   23.2273 C   0  0  0  0  0  0  0  0  0  0  0  0
  -27.2820  -10.9540   21.4984 N   0  0  0  0  0  0  0  0  0  0  0  0
  -29.9102  -22.2055   18.7775 N   0  0  0  0  0  0  0  0  0  0  0  0
  -29.8453  -23.5430   18.8913 N   0  0  0  0  0  0  0  0  0  0  0  0
  -28.6192  -11.0610   21.4184 N   0  0  0  0  0  0  0  0  0  0  0  0
  -23.0499  -30.0730   21.5228 N   0  0  0  0  0  0  0  0  0  0  0  0
  -28.9306  -14.4132   19.6130 N   0  0  0  0  0  0  0  0  0  0  0  0
  -29.7511  -16.6419   19.3269 N   0  0  0  0  0  0  0  0  0  0  0  0
  -30.6407  -10.1157   22.2126 N   0  0  0  0  0  0  0  0  0  0  0  0
  -27.4610   -7.6350   24.2454 N   0  0  0  0  0  0  0  0  0  0  0  0
  -28.1779  -20.5209   18.9488 N   0  0  0  0  0  0  0  0  0  0  0  0
  -25.0558  -32.2520   23.5123 N   0  0  0  0  0  0  0  0  0  0  0  0
  -19.8213  -29.4637   20.7087 N   0  0  0  0  0  0  0  0  0  0  0  0
  -19.2351  -28.4623   17.2851 N   0  3  0  0  0  0  0  0  0  0  0  0
  -29.7224   -7.9453   24.0245 O   0  0  0  0  0  0  0  0  0  0  0  0
  -24.7009  -29.9519   23.5896 O   0  0  0  0  0  0  0  0  0  0  0  0
  -21.3290  -31.6086   21.8641 O   0  0  0  0  0  0  0  0  0  0  0  0
  -20.4601  -27.5114   19.6328 O   0  0  0  0  0  0  0  0  0  0  0  0
  -29.6941  -15.6455   21.4050 O   0  0  0  0  0  0  0  0  0  0  0  0
  -21.9516   -8.2520   23.6973 O   0  0  0  0  0  0  0  0  0  0  0  0
  -26.9965  -25.6113   19.8956 O   0  0  0  0  0  0  0  0  0  1  0  0
  -20.9458   -2.8305   23.6917 F   0  0  0  0  0  0  0  0  0  0  0  0
  -20.0170   -7.1701   22.0451 F   0  0  0  0  0  0  0  0  0  0  0  0
  1  2  1  0  0  0  0
  1  5  2  0  0  0  0
  2  6  2  0  0  0  0
  3  8  2  0  0  0  0
  3 16  1  0  0  0  0
  4  9  1  0  0  0  0
  4 16  2  0  0  0  0
  5 18  1  0  0  0  0
  6 20  1  0  0  0  0
  7 10  2  0  0  0  0
  7 19  1  0  0  0  0
  8 22  1  0  0  0  0
  9 22  2  0  0  0  0
 10 23  1  0  0  0  0
 11 12  2  0  0  0  0
 11 24  1  0  0  0  0
 12 25  1  0  0  0  0
 13 21  1  0  0  0  0
 13 23  2  0  0  0  0
 14 25  2  0  0  0  0
 14 26  1  0  0  0  0
 15 28  2  0  0  0  0
 15 29  1  0  0  0  0
 16 27  1  0  0  0  0
 17 27  1  0  0  0  0
 17 30  2  0  0  0  0
 17 31  1  0  0  0  0
 18 20  2  0  0  0  0
 18 36  1  0  0  0  0
 19 21  2  0  0  0  0
 19 37  1  0  0  0  0
 20 49  1  0  0  0  0
 21 38  1  0  0  0  0
 22 81  1  0  0  0  0
 23 82  1  0  0  0  0
 24 26  2  0  0  0  0
 24 81  1  0  0  0  0
 25 83  1  0  0  0  0
 26 84  1  0  0  0  0
 27 63  2  0  0  0  0
 28 59  1  0  0  0  0
 28 65  1  0  0  0  0
 29 64  2  0  0  0  0
 29 72  1  0  0  0  0
 30 66  1  0  0  0  0
 30 70  1  0  0  0  0
 31 71  1  0  0  0  0
 31 76  2  0  0  0  0
 32 50  1  0  0  0  0
 32 73  1  0  0  0  0
 32 77  2  0  0  0  0
 33 60  1  0  0  0  0
 33 67  1  0  0  0  0
 33 78  2  0  0  0  0
 34 61  1  0  0  0  0
 34 74  1  0  0  0  0
 34 79  2  0  0  0  0
 35 68  1  0  0  0  0
 35 69  1  0  0  0  0
 35 80  2  0  0  0  0
 36 39  1  0  0  0  0
 37 50  1  0  0  0  0
 38 67  1  0  0  0  0
 39 41  1  0  0  0  0
 40 42  1  0  0  0  0
 40 45  1  0  0  0  0
 41 49  1  0  0  0  0
 42 51  1  0  0  0  0
 43 46  1  0  0  0  0
 43 52  1  0  0  0  0
 44 47  1  0  0  0  0
 44 52  1  0  0  0  0
 45 68  1  0  0  0  0
 46 69  1  0  0  0  0
 47 69  1  0  0  0  0
 48 51  1  0  0  0  0
 48 68  1  0  0  0  0
 49 73  1  0  0  0  0
 50 67  1  0  0  0  0
 51 66  1  0  0  0  0
 52 72  1  0  0  0  0
 53 61  1  0  0  0  0
 54 62  1  0  0  0  0
 55 62  1  0  0  0  0
 56 62  1  0  0  0  0
 57 65  1  0  0  0  0
 58 75  1  0  0  0  0
 59 82  1  0  0  0  0
 60 62  1  0  0  0  0
 60 74  1  0  0  0  0
 61 75  1  0  0  0  0
 63 66  1  0  0  0  0
 64 65  1  0  0  0  0
M  CHG  1  75   1
M  ISO  4  35 100  59 101  69 100  82 101
M  END
> <Batch ID>
0188

> <Smiles>
CNC(C)C(=O)NC(C(=O)N1Cc2cc([101O:1][101CH2:1]c3cc(NC4CC[100N:0]([100C:0](=O)N5CCCC(n6nc(-c7ccc(Oc8ccc(F)cc8F)cc7)c(C(N)=O)c6N)C5)CC4)nn3C)ccc2CC1C(=O)NC1CCCc2ccccc21)C(C)(C)C

> <Shape>
0.320

> <Color>
0.075

> <Negative vol penalty>
0.000

$$$$

  -OEChem-04052323193D

 87 97  0     1  0  0  0  0  0999 V2000
  -37.6315  -23.5443   33.2397 C   0  0  0  0  0  0  0  0  0  0  0  0
  -36.8063  -22.6749   32.5336 C   0  0  0  0  0  0  0  0  0  0  0  0
  -23.0682   -9.8821   19.9722 C   0  0  0  0  0  0  0  0  0  0  0  0
  -23.9452   -9.8816   22.2234 C   0  0  0  0  0  0  0  0  0  0  0  0
  -37.3794  -24.9154   33.2174 C   0  0  0  0  0  0  0  0  0  0  0  0
  -35.7278  -23.1761   31.8055 C   0  0  0  0  0  0  0  0  0  0  0  0
  -35.3626  -21.1037   27.1993 C   0  0  0  0  0  0  0  0  0  0  0  0
  -22.3583   -8.7137   20.2485 C   0  0  0  0  0  0  0  0  0  0  0  0
  -23.2352   -8.7132   22.4997 C   0  0  0  0  0  0  0  0  0  0  0  0
  -34.8137  -19.8247   27.1183 C   0  0  0  0  0  0  0  0  0  0  0  0
  -20.0567   -7.8527   23.2594 C   0  0  0  0  0  0  0  0  0  0  0  0
  -19.3620   -7.7887   24.4673 C   0  0  0  0  0  0  0  0  0  0  0  0
  -32.7016  -20.7801   26.4509 C   0  0  0  0  0  0  0  0  0  0  0  0
  -20.6730   -5.8669   25.1194 C   0  0  0  0  0  0  0  0  0  0  0  0
  -23.8618  -10.4660   20.9596 C   0  0  0  0  0  0  0  0  0  0  0  0
  -24.1534  -12.9978   20.8475 C   0  0  0  0  0  0  0  0  0  0  0  0
  -36.3030  -25.4345   32.4808 C   0  0  0  0  0  0  0  0  0  0  0  0
  -34.5808  -22.2331   26.9169 C   0  0  0  0  0  0  0  0  0  0  0  0
  -35.4603  -24.5552   31.7744 C   0  0  0  0  0  0  0  0  0  0  0  0
  -33.2436  -22.0721   26.5266 C   0  0  0  0  0  0  0  0  0  0  0  0
  -22.4417   -8.1292   21.5122 C   0  0  0  0  0  0  0  0  0  0  0  0
  -33.4822  -19.6629   26.7468 C   0  0  0  0  0  0  0  0  0  0  0  0
  -21.0595   -6.9238   22.9815 C   0  0  0  0  0  0  0  0  0  0  0  0
  -19.6701   -6.7958   25.3973 C   0  0  0  0  0  0  0  0  0  0  0  0
  -21.3677   -5.9310   23.9115 C   0  0  0  0  0  0  0  0  0  0  0  0
  -24.5959  -11.6726   20.6746 C   0  0  0  0  0  0  0  0  0  0  0  0
  -25.2122  -13.7698   20.4361 C   0  0  0  0  0  0  0  0  0  0  0  0
  -30.3185  -18.9055   22.7170 C   0  0  0  0  0  0  0  0  0  0  0  0
  -22.8975  -13.4872   21.3364 C   0  0  0  0  0  0  0  0  0  0  0  0
  -33.6264  -24.7722   28.5739 C   0  0  0  0  0  0  0  0  0  0  0  0
  -32.4609  -25.7235   25.7001 C   0  0  0  0  0  0  0  0  0  0  0  0
  -31.3596  -24.8549   22.5890 C   0  0  0  0  0  0  0  0  0  0  0  0
  -30.7821  -14.6354   20.7395 C   0  0  0  0  0  0  0  0  0  0  0  0
  -36.0421  -26.9193   32.5251 C   0  0  0  0  0  0  0  0  0  0  0  0
  -35.1952  -23.6044   26.9830 C   0  0  0  0  0  0  0  0  0  0  0  0
  -32.3675  -23.2510   26.1933 C   0  0  0  0  0  0  0  0  0  0  0  0
  -35.1018  -27.4056   31.4253 C   0  0  0  0  0  0  0  0  0  0  0  0
  -29.4692  -12.5306   18.0070 C   0  0  0  0  0  0  0  0  0  0  0  0
  -33.8837  -26.4932   31.3224 C   0  0  0  0  0  0  0  0  0  0  0  0
  -28.0669  -12.1830   18.5095 C   0  0  0  0  0  0  0  0  0  0  0  0
  -26.8379  -18.5112   21.4729 C   0  0  0  0  0  0  0  0  0  0  0  0
  -26.6327  -18.5887   22.9550 C   0  0  0  0  0  0  0  0  0  0  0  0
  -30.4446  -12.7708   19.1565 C   0  0  0  0  0  0  0  0  0  0  0  0
  -28.5878  -13.4096   20.6505 C   0  0  0  0  0  0  0  0  0  0  0  0
  -28.8345  -16.1084   21.5042 C   0  0  0  0  0  0  0  0  0  0  0  0
  -34.2953  -25.0630   30.9528 C   0  0  1  0  0  0  0  0  0  0  0  0
  -34.1641  -24.7127   27.1721 C   0  0  1  0  0  0  0  0  0  0  0  0
  -27.5648  -13.2312   19.5202 C   0  0  2  0  0  0  0  0  0  0  0  0
  -28.7369  -17.1141   22.6400 C   0  0  2  0  0  0  0  0  0  0  0  0
  -31.0454  -16.4801   22.3983 C   0  0  2  0  0  0  0  0  0  0  0  0
  -28.0288  -18.4266   22.3984 C   0  0  0  0  0  0  0  0  0  0  0  0
  -28.5489  -21.5753   23.6006 C   0  0  0  0  0  0  0  0  0  0  0  0
  -30.4362  -25.8483   20.4776 C   0  0  0  0  0  0  0  0  0  0  0  0
  -29.7557  -26.0963   27.0614 C   0  0  0  0  0  0  0  0  0  0  0  0
  -28.6999  -26.1537   24.7920 C   0  0  0  0  0  0  0  0  0  0  0  0
  -30.3629  -27.8978   25.4365 C   0  0  0  0  0  0  0  0  0  0  0  0
  -33.6377  -23.8560   20.9854 C   0  0  0  0  0  0  0  0  0  0  0  0
  -31.6656  -15.7868   23.6024 C   0  0  0  0  0  0  0  0  0  0  0  0
  -28.7755  -20.8680   22.3079 C   0  0  0  0  0  0  0  0  0  0  0  0
  -33.0473  -16.2435   25.6324 C   0  0  0  0  0  0  0  0  0  0  0  0
  -33.8235  -17.3478   26.3225 C   0  0  0  0  0  0  0  0  0  1  0  0
  -31.1555  -25.5440   24.9634 C   0  0  1  0  0  0  0  0  0  0  0  0
  -31.6910  -25.4044   21.2133 C   0  0  2  0  0  0  0  0  0  0  0  0
  -30.0092  -26.4006   25.5714 C   0  0  0  0  0  0  0  0  0  0  0  0
  -25.8389  -11.6031   20.1909 N   0  0  0  0  0  0  0  0  0  0  0  0
  -26.1865  -12.8943   20.0562 N   0  0  0  0  0  0  0  0  0  0  0  0
  -30.1206  -17.5158   22.8035 N   0  0  0  0  0  0  0  0  0  0  0  0
  -29.0362  -19.4638   22.5211 N   0  0  0  0  0  0  0  0  0  0  0  0
  -33.0125  -24.5717   26.2788 N   0  0  0  0  0  0  0  0  0  0  0  0
  -29.9084  -13.7441   20.1063 N   0  0  0  0  0  0  0  0  0  0  0  0
  -30.2087  -15.5681   21.6071 N   0  0  0  0  0  0  0  0  0  0  0  0
  -25.3956  -15.1054   20.3657 N   0  0  0  0  0  0  0  0  0  0  0  0
  -21.9201  -12.5571   21.7161 N   0  0  0  0  0  0  0  0  0  0  0  0
  -34.5943  -24.9723   29.5397 N   0  0  0  0  0  0  0  0  0  0  0  0
  -31.4358  -25.8303   23.5606 N   0  0  0  0  0  0  0  0  0  0  0  0
  -32.3750  -24.3660   20.3917 N   0  3  0  0  0  0  0  0  0  0  0  0
  -32.4306  -16.7804   24.3864 N   0  3  0  0  0  0  0  0  0  0  0  0
  -31.3904  -19.4952   22.7406 O   0  0  0  0  0  0  0  0  0  0  0  0
  -22.6433  -14.7128   21.4182 O   0  0  0  0  0  0  0  0  0  0  0  0
  -32.4225  -24.6473   28.7651 O   0  0  0  0  0  0  0  0  0  0  0  0
  -32.9759  -26.8431   25.7540 O   0  0  0  0  0  0  0  0  0  0  0  0
  -31.0591  -23.6788   22.7818 O   0  0  0  0  0  0  0  0  0  0  0  0
  -31.9986  -14.6205   20.5156 O   0  0  0  0  0  0  0  0  0  0  0  0
  -21.7489   -6.9892   21.7823 O   0  0  0  0  0  0  0  0  0  0  0  0
  -32.9399  -18.4067   26.6669 O   0  0  0  0  0  0  0  0  0  1  0  0
  -19.0039   -6.7354   26.5577 F   0  0  0  0  0  0  0  0  0  0  0  0
  -22.3309   -5.0365   23.6507 F   0  0  0  0  0  0  0  0  0  0  0  0
  1  2  1  0  0  0  0
  1  5  2  0  0  0  0
  2  6  2  0  0  0  0
  3  8  2  0  0  0  0
  3 15  1  0  0  0  0
  4  9  1  0  0  0  0
  4 15  2  0  0  0  0
  5 17  1  0  0  0  0
  6 19  1  0  0  0  0
  7 10  2  0  0  0  0
  7 18  1  0  0  0  0
  8 21  1  0  0  0  0
  9 21  2  0  0  0  0
 10 22  1  0  0  0  0
 11 12  2  0  0  0  0
 11 23  1  0  0  0  0
 12 24  1  0  0  0  0
 13 20  1  0  0  0  0
 13 22  2  0  0  0  0
 14 24  2  0  0  0  0
 14 25  1  0  0  0  0
 15 26  1  0  0  0  0
 16 26  1  0  0  0  0
 16 27  2  0  0  0  0
 16 29  1  0  0  0  0
 17 19  2  0  0  0  0
 17 34  1  0  0  0  0
 18 20  2  0  0  0  0
 18 35  1  0  0  0  0
 19 46  1  0  0  0  0
 20 36  1  0  0  0  0
 21 84  1  0  0  0  0
 22 85  1  0  0  0  0
 23 25  2  0  0  0  0
 23 84  1  0  0  0  0
 24 86  1  0  0  0  0
 25 87  1  0  0  0  0
 26 65  2  0  0  0  0
 27 66  1  0  0  0  0
 27 72  1  0  0  0  0
 28 67  1  0  0  0  0
 28 68  1  0  0  0  0
 28 78  2  0  0  0  0
 29 73  1  0  0  0  0
 29 79  2  0  0  0  0
 30 47  1  0  0  0  0
 30 74  1  0  0  0  0
 30 80  2  0  0  0  0
 31 62  1  0  0  0  0
 31 69  1  0  0  0  0
 31 81  2  0  0  0  0
 32 63  1  0  0  0  0
 32 75  1  0  0  0  0
 32 82  2  0  0  0  0
 33 70  1  0  0  0  0
 33 71  1  0  0  0  0
 33 83  2  0  0  0  0
 34 37  1  0  0  0  0
 35 47  1  0  0  0  0
 36 69  1  0  0  0  0
 37 39  1  0  0  0  0
 38 40  1  0  0  0  0
 38 43  1  0  0  0  0
 39 46  1  0  0  0  0
 40 48  1  0  0  0  0
 41 42  1  0  0  0  0
 41 51  1  0  0  0  0
 42 51  1  0  0  0  0
 43 70  1  0  0  0  0
 44 48  1  0  0  0  0
 44 70  1  0  0  0  0
 45 49  1  0  0  0  0
 45 71  1  0  0  0  0
 46 74  1  0  0  0  0
 47 69  1  0  0  0  0
 48 66  1  0  0  0  0
 49 51  1  0  0  0  0
 49 67  1  0  0  0  0
 50 58  1  0  0  0  0
 50 67  1  0  0  0  0
 50 71  1  0  0  0  0
 51 68  1  0  0  0  0
 52 59  1  0  0  0  0
 53 63  1  0  0  0  0
 54 64  1  0  0  0  0
 55 64  1  0  0  0  0
 56 64  1  0  0  0  0
 57 76  1  0  0  0  0
 58 77  1  0  0  0  0
 59 68  1  0  0  0  0
 60 61  1  0  0  0  0
 60 77  1  0  0  0  0
 61 85  1  0  0  0  0
 62 64  1  0  0  0  0
 62 75  1  0  0  0  0
 63 76  1  0  0  0  0
 65 66  1  0  0  0  0
M  CHG  2  76   1  77   1
M  ISO  4  33 100  61 101  71 100  85 101
M  END
> <Batch ID>
0188

> <Smiles>
CCN1C(=O)N2C(CNC[101CH2:1][101O:1]c3ccc4c(c3)CN(C(=O)C(NC(=O)C(C)NC)C(C)(C)C)C(C(=O)NC3CCCc5ccccc53)C4)[100N:0]([100C:0](=O)N3CCCC(n4nc(-c5ccc(Oc6ccc(F)cc6F)cc5)c(C(N)=O)c4N)C3)CC2C12CC2

> <Shape>
0.191

> <Color>
0.179

> <Negative vol penalty>
0.000

$$$$

  -OEChem-04052323193D

 83 92  0     1  0  0  0  0  0999 V2000
  -27.0870  -37.8679   22.2436 C   0  0  0  0  0  0  0  0  0  0  0  0
  -27.7003  -36.8530   21.5161 C   0  0  0  0  0  0  0  0  0  0  0  0
  -26.7679   -7.6431   17.4380 C   0  0  0  0  0  0  0  0  0  0  0  0
  -27.8753   -6.9881   19.4829 C   0  0  0  0  0  0  0  0  0  0  0  0
  -26.3002  -37.5528   23.3507 C   0  0  0  0  0  0  0  0  0  0  0  0
  -27.5280  -35.5224   21.8960 C   0  0  0  0  0  0  0  0  0  0  0  0
  -27.0549  -28.9385   19.1130 C   0  0  0  0  0  0  0  0  0  0  0  0
  -26.8812   -6.3381   16.9586 C   0  0  0  0  0  0  0  0  0  0  0  0
  -27.9885   -5.6830   19.0036 C   0  0  0  0  0  0  0  0  0  0  0  0
  -27.6151  -27.6691   19.2485 C   0  0  0  0  0  0  0  0  0  0  0  0
  -26.0022   -2.9679   18.6829 C   0  0  0  0  0  0  0  0  0  0  0  0
  -25.6809   -1.9283   19.5556 C   0  0  0  0  0  0  0  0  0  0  0  0
  -29.9998  -21.3057   20.2217 C   0  0  0  0  0  0  0  0  0  0  0  0
  -26.1693  -27.2386   21.1310 C   0  0  0  0  0  0  0  0  0  0  0  0
  -27.9238   -1.0559   19.3422 C   0  0  0  0  0  0  0  0  0  0  0  0
  -30.3687  -22.3652   21.0252 C   0  0  0  0  0  0  0  0  0  0  0  0
  -27.2650   -7.9681   18.7001 C   0  0  0  0  0  0  0  0  0  0  0  0
  -26.0870   -9.8580   19.9445 C   0  0  0  0  0  0  0  0  0  0  0  0
  -26.1103  -36.2171   23.7385 C   0  0  0  0  0  0  0  0  0  0  0  0
  -26.0536  -29.3724   19.9937 C   0  0  0  0  0  0  0  0  0  0  0  0
  -26.7390  -35.1892   23.0101 C   0  0  0  0  0  0  0  0  0  0  0  0
  -25.5962  -28.5131   21.0029 C   0  0  0  0  0  0  0  0  0  0  0  0
  -27.4914   -5.3581   17.7414 C   0  0  0  0  0  0  0  0  0  0  0  0
  -27.1744  -26.8200   20.2594 C   0  0  0  0  0  0  0  0  0  0  0  0
  -27.2843   -3.0514   18.1397 C   0  0  0  0  0  0  0  0  0  0  0  0
  -26.6416   -0.9724   19.8853 C   0  0  0  0  0  0  0  0  0  0  0  0
  -28.2450   -2.0955   18.4694 C   0  0  0  0  0  0  0  0  0  0  0  0
  -27.1488   -9.3161   19.1957 C   0  0  0  0  0  0  0  0  0  0  0  0
  -29.1870  -21.6221   19.1524 C   0  0  0  0  0  0  0  0  0  0  0  0
  -26.4534  -11.1631   20.1651 C   0  0  0  0  0  0  0  0  0  0  0  0
  -29.1891  -23.8190   19.7360 C   0  0  0  0  0  0  0  0  0  0  0  0
  -24.8776   -9.2370   20.3999 C   0  0  0  0  0  0  0  0  0  0  0  0
  -25.7926  -31.7341   22.1051 C   0  0  0  0  0  0  0  0  0  0  0  0
  -22.7332  -30.6782   22.3233 C   0  0  0  0  0  0  0  0  0  0  0  0
  -20.5200  -28.1098   21.9341 C   0  0  0  0  0  0  0  0  0  0  0  0
  -28.3330  -15.9253   18.2084 C   0  0  0  0  0  0  0  0  0  0  0  0
  -25.2894  -35.9286   24.9705 C   0  0  0  0  0  0  0  0  0  0  0  0
  -25.4407  -30.7346   19.8174 C   0  0  0  0  0  0  0  0  0  0  0  0
  -24.5095  -28.9235   21.9616 C   0  0  0  0  0  0  0  0  0  0  0  0
  -24.8525  -34.4703   25.0835 C   0  0  0  0  0  0  0  0  0  0  0  0
  -30.8332  -13.5392   19.4313 C   0  0  0  0  0  0  0  0  0  0  0  0
  -26.0264  -33.5379   24.8020 C   0  0  0  0  0  0  0  0  0  0  0  0
  -30.0125  -12.2548   19.4801 C   0  0  0  0  0  0  0  0  0  0  0  0
  -29.2142  -18.3332   16.0393 C   0  0  0  0  0  0  0  0  0  0  0  0
  -30.4153  -14.4529   18.2785 C   0  0  0  0  0  0  0  0  0  0  0  0
  -29.9073  -17.0254   16.4339 C   0  0  0  0  0  0  0  0  0  0  0  0
  -28.1399  -13.4655   18.3091 C   0  0  0  0  0  0  0  0  0  0  0  0
  -26.5558  -33.7323   23.3760 C   0  0  1  0  0  0  0  0  0  0  0  0
  -24.7885  -31.2656   21.0902 C   0  0  1  0  0  0  0  0  0  0  0  0
  -28.5109  -12.5767   19.5045 C   0  0  1  0  0  0  0  0  0  0  0  0
  -28.5471  -18.3478   17.4232 C   0  0  2  0  0  0  0  0  0  0  0  0
  -18.0945  -27.5377   22.2291 C   0  0  0  0  0  0  0  0  0  0  0  0
  -23.1500  -30.4770   25.3393 C   0  0  0  0  0  0  0  0  0  0  0  0
  -21.1018  -29.0420   25.4563 C   0  0  0  0  0  0  0  0  0  0  0  0
  -20.9283  -31.3970   24.6523 C   0  0  0  0  0  0  0  0  0  0  0  0
  -20.1862  -27.5309   19.0510 C   0  0  0  0  0  0  0  0  0  0  0  0
  -28.7397  -25.2149   19.4660 C   0  0  0  0  0  0  0  0  0  1  0  0
  -29.1762  -19.2149   18.4958 C   0  0  0  0  0  0  0  0  0  0  0  0
  -22.0122  -29.6582   23.1711 C   0  0  1  0  0  0  0  0  0  0  0  0
  -19.1575  -28.0464   21.2678 C   0  0  2  0  0  0  0  0  0  0  0  0
  -21.8199  -30.1362   24.6380 C   0  0  0  0  0  0  0  0  0  0  0  0
  -29.9801  -23.6393   20.8109 N   0  0  0  0  0  0  0  0  0  0  0  0
  -28.1171  -10.2044   18.9565 N   0  0  0  0  0  0  0  0  0  0  0  0
  -28.7609  -22.8727   18.8788 N   0  0  0  0  0  0  0  0  0  0  0  0
  -27.6651  -11.3178   19.5584 N   0  0  0  0  0  0  0  0  0  0  0  0
  -23.9461  -30.2674   21.7524 N   0  0  0  0  0  0  0  0  0  0  0  0
  -28.9651  -14.6780   18.2555 N   0  0  0  0  0  0  0  0  0  0  0  0
  -28.9691  -16.9505   17.5443 N   0  0  0  0  0  0  0  0  0  0  0  0
  -25.8541  -12.1822   20.8169 N   0  0  0  0  0  0  0  0  0  0  0  0
  -24.6593   -7.8888   20.0854 N   0  0  0  0  0  0  0  0  0  0  0  0
  -28.7930  -20.5786   18.3152 N   0  0  0  0  0  0  0  0  0  0  0  0
  -25.6892  -33.0753   22.4212 N   0  0  0  0  0  0  0  0  0  0  0  0
  -20.7674  -29.3544   22.4736 N   0  0  0  0  0  0  0  0  0  0  0  0
  -19.1992  -27.1360   20.0887 N   0  3  0  0  0  0  0  0  0  0  0  0
  -24.0084   -9.8638   21.0521 O   0  0  0  0  0  0  0  0  0  0  0  0
  -26.6004  -30.9374   22.5681 O   0  0  0  0  0  0  0  0  0  0  0  0
  -22.2350  -31.7959   22.1675 O   0  0  0  0  0  0  0  0  0  0  0  0
  -21.2866  -27.1500   21.9753 O   0  0  0  0  0  0  0  0  0  0  0  0
  -27.2197  -16.1136   18.7163 O   0  0  0  0  0  0  0  0  0  0  0  0
  -27.6019   -4.0845   17.2740 O   0  0  0  0  0  0  0  0  0  0  0  0
  -27.7238  -25.5721   20.3953 O   0  0  0  0  0  0  0  0  0  1  0  0
  -26.3334    0.0250   20.7247 F   0  0  0  0  0  0  0  0  0  0  0  0
  -29.4788   -2.1712   17.9517 F   0  0  0  0  0  0  0  0  0  0  0  0
  1  2  1  0  0  0  0
  1  5  2  0  0  0  0
  2  6  2  0  0  0  0
  3  8  2  0  0  0  0
  3 17  1  0  0  0  0
  4  9  1  0  0  0  0
  4 17  2  0  0  0  0
  5 19  1  0  0  0  0
  6 21  1  0  0  0  0
  7 10  2  0  0  0  0
  7 20  1  0  0  0  0
  8 23  1  0  0  0  0
  9 23  2  0  0  0  0
 10 24  1  0  0  0  0
 11 12  2  0  0  0  0
 11 25  1  0  0  0  0
 12 26  1  0  0  0  0
 13 16  1  0  0  0  0
 13 29  2  0  0  0  0
 14 22  1  0  0  0  0
 14 24  2  0  0  0  0
 15 26  2  0  0  0  0
 15 27  1  0  0  0  0
 16 62  2  0  0  0  0
 17 28  1  0  0  0  0
 18 28  1  0  0  0  0
 18 30  2  0  0  0  0
 18 32  1  0  0  0  0
 19 21  2  0  0  0  0
 19 37  1  0  0  0  0
 20 22  2  0  0  0  0
 20 38  1  0  0  0  0
 21 48  1  0  0  0  0
 22 39  1  0  0  0  0
 23 80  1  0  0  0  0
 24 81  1  0  0  0  0
 25 27  2  0  0  0  0
 25 80  1  0  0  0  0
 26 82  1  0  0  0  0
 27 83  1  0  0  0  0
 28 63  2  0  0  0  0
 29 64  1  0  0  0  0
 29 71  1  0  0  0  0
 30 65  1  0  0  0  0
 30 69  1  0  0  0  0
 31 57  1  0  0  0  0
 31 62  1  0  0  0  0
 31 64  2  0  0  0  0
 32 70  1  0  0  0  0
 32 75  2  0  0  0  0
 33 49  1  0  0  0  0
 33 72  1  0  0  0  0
 33 76  2  0  0  0  0
 34 59  1  0  0  0  0
 34 66  1  0  0  0  0
 34 77  2  0  0  0  0
 35 60  1  0  0  0  0
 35 73  1  0  0  0  0
 35 78  2  0  0  0  0
 36 67  1  0  0  0  0
 36 68  1  0  0  0  0
 36 79  2  0  0  0  0
 37 40  1  0  0  0  0
 38 49  1  0  0  0  0
 39 66  1  0  0  0  0
 40 42  1  0  0  0  0
 41 43  1  0  0  0  0
 41 45  1  0  0  0  0
 42 48  1  0  0  0  0
 43 50  1  0  0  0  0
 44 46  1  0  0  0  0
 44 51  1  0  0  0  0
 45 67  1  0  0  0  0
 46 68  1  0  0  0  0
 47 50  1  0  0  0  0
 47 67  1  0  0  0  0
 48 72  1  0  0  0  0
 49 66  1  0  0  0  0
 50 65  1  0  0  0  0
 51 58  1  0  0  0  0
 51 68  1  0  0  0  0
 52 60  1  0  0  0  0
 53 61  1  0  0  0  0
 54 61  1  0  0  0  0
 55 61  1  0  0  0  0
 56 74  1  0  0  0  0
 57 81  1  0  0  0  0
 58 71  1  0  0  0  0
 59 61  1  0  0  0  0
 59 73  1  0  0  0  0
 60 74  1  0  0  0  0
 63 65  1  0  0  0  0
M  CHG  1  74   1
M  ISO  4  36 100  57 101  68 100  81 101
M  END
> <Batch ID>
0188

> <Smiles>
CNC(C)C(=O)NC(C(=O)N1Cc2cc([101O:1][101CH2:1]c3nccc(NCC4CC[100N:0]4[100C:0](=O)N4CCCC(n5nc(-c6ccc(Oc7ccc(F)cc7F)cc6)c(C(N)=O)c5N)C4)n3)ccc2CC1C(=O)NC1CCCc2ccccc21)C(C)(C)C

> <Shape>
0.265

> <Color>
0.083

> <Negative vol penalty>
0.000

$$$$

  -OEChem-04052323193D

 88 98  0     1  0  0  0  0  0999 V2000
  -13.6874  -28.5828   16.6979 C   0  0  0  0  0  0  0  0  0  0  0  0
  -14.5642  -27.6096   17.1663 C   0  0  0  0  0  0  0  0  0  0  0  0
  -22.6643  -10.1386   20.1888 C   0  0  0  0  0  0  0  0  0  0  0  0
  -24.3936   -9.2690   21.6346 C   0  0  0  0  0  0  0  0  0  0  0  0
  -14.0417  -29.9296   16.7658 C   0  0  0  0  0  0  0  0  0  0  0  0
  -15.7965  -27.9825   17.7018 C   0  0  0  0  0  0  0  0  0  0  0  0
  -18.7825  -25.2666   22.3076 C   0  0  0  0  0  0  0  0  0  0  0  0
  -21.9463   -8.9515   20.3336 C   0  0  0  0  0  0  0  0  0  0  0  0
  -23.6756   -8.0819   21.7795 C   0  0  0  0  0  0  0  0  0  0  0  0
  -19.8278  -24.3444   22.3333 C   0  0  0  0  0  0  0  0  0  0  0  0
  -21.0172   -6.9812   23.5521 C   0  0  0  0  0  0  0  0  0  0  0  0
  -20.8967   -6.4511   24.8367 C   0  0  0  0  0  0  0  0  0  0  0  0
  -21.4044  -26.1483   22.6157 C   0  0  0  0  0  0  0  0  0  0  0  0
  -22.0056   -4.4322   24.1075 C   0  0  0  0  0  0  0  0  0  0  0  0
  -24.4062  -20.2829   23.6459 C   0  0  0  0  0  0  0  0  0  0  0  0
  -24.9806  -20.9373   21.4784 C   0  0  0  0  0  0  0  0  0  0  0  0
  -30.3820  -17.7152   24.4204 C   0  0  0  0  0  0  0  0  0  0  0  0
  -23.8880  -10.2973   20.8393 C   0  0  0  0  0  0  0  0  0  0  0  0
  -24.2085  -12.8203   21.0373 C   0  0  0  0  0  0  0  0  0  0  0  0
  -15.2749  -30.3198   17.3113 C   0  0  0  0  0  0  0  0  0  0  0  0
  -19.0418  -26.6398   22.4250 C   0  0  0  0  0  0  0  0  0  0  0  0
  -16.1683  -29.3356   17.7758 C   0  0  0  0  0  0  0  0  0  0  0  0
  -20.3604  -27.0857   22.5938 C   0  0  0  0  0  0  0  0  0  0  0  0
  -25.3058  -20.2057   22.6023 C   0  0  0  0  0  0  0  0  0  0  0  0
  -22.4519   -7.9232   21.1289 C   0  0  0  0  0  0  0  0  0  0  0  0
  -21.1392  -24.7854   22.4845 C   0  0  0  0  0  0  0  0  0  0  0  0
  -21.6318   -6.2368   22.5452 C   0  0  0  0  0  0  0  0  0  0  0  0
  -21.3909   -5.1766   25.1144 C   0  0  0  0  0  0  0  0  0  0  0  0
  -22.1260   -4.9623   22.8229 C   0  0  0  0  0  0  0  0  0  0  0  0
  -24.6304  -11.5231   20.6896 C   0  0  0  0  0  0  0  0  0  0  0  0
  -30.1056  -17.4093   23.1172 C   0  0  0  0  0  0  0  0  0  0  0  0
  -25.2673  -13.6276   20.7002 C   0  0  0  0  0  0  0  0  0  0  0  0
  -28.3960  -18.5656   23.9282 C   0  0  0  0  0  0  0  0  0  0  0  0
  -23.0685  -21.6831   22.4555 C   0  0  0  0  0  0  0  0  0  0  0  0
  -22.9703  -13.2566   21.6136 C   0  0  0  0  0  0  0  0  0  0  0  0
  -18.5903  -29.1751   20.5617 C   0  0  0  0  0  0  0  0  0  0  0  0
  -19.6247  -30.7936   23.1756 C   0  0  0  0  0  0  0  0  0  0  0  0
  -21.4069  -30.7610   26.0859 C   0  0  0  0  0  0  0  0  0  0  0  0
  -30.7452  -14.6916   20.6246 C   0  0  0  0  0  0  0  0  0  0  0  0
  -15.6338  -31.7846   17.3202 C   0  0  0  0  0  0  0  0  0  0  0  0
  -17.9007  -27.6197   22.4222 C   0  0  0  0  0  0  0  0  0  0  0  0
  -20.6900  -28.5476   22.7443 C   0  0  0  0  0  0  0  0  0  0  0  0
  -27.0823  -19.2537   24.0017 C   0  0  0  0  0  0  0  0  0  0  0  0
  -16.8007  -32.1203   18.2455 C   0  0  0  0  0  0  0  0  0  0  0  0
  -29.4446  -12.6336   18.0265 C   0  0  0  0  0  0  0  0  0  0  0  0
  -17.9437  -31.1306   18.0437 C   0  0  0  0  0  0  0  0  0  0  0  0
  -28.0446  -12.2635   18.5193 C   0  0  0  0  0  0  0  0  0  0  0  0
  -28.1206  -17.9071   21.5986 C   0  0  0  0  0  0  0  0  0  0  0  0
  -30.4473  -12.7041   19.1762 C   0  0  0  0  0  0  0  0  0  0  0  0
  -27.2637  -19.1652   21.4639 C   0  0  0  0  0  0  0  0  0  0  0  0
  -28.6503  -13.2143   20.7838 C   0  0  0  0  0  0  0  0  0  0  0  0
  -17.5036  -29.7021   18.3863 C   0  0  1  0  0  0  0  0  0  0  0  0
  -18.3271  -29.0322   22.0341 C   0  0  1  0  0  0  0  0  0  0  0  0
  -27.5923  -13.1856   19.6675 C   0  0  2  0  0  0  0  0  0  0  0  0
  -22.1018  -32.2444   27.9869 C   0  0  0  0  0  0  0  0  0  0  0  0
  -21.7003  -32.1224   21.3767 C   0  0  0  0  0  0  0  0  0  0  0  0
  -22.9329  -32.8287   23.4383 C   0  0  0  0  0  0  0  0  0  0  0  0
  -20.6157  -33.6562   23.0277 C   0  0  0  0  0  0  0  0  0  0  0  0
  -20.0125  -29.0657   28.0710 C   0  0  0  0  0  0  0  0  0  0  0  0
  -30.8929  -16.6569   22.1329 C   0  0  0  0  0  0  0  0  0  0  0  0
  -21.8182  -22.5088   22.3751 C   0  0  0  0  0  0  0  0  0  1  0  0
  -20.9704  -31.2426   23.6917 C   0  0  1  0  0  0  0  0  0  0  0  0
  -21.0661  -31.2522   27.4813 C   0  0  2  0  0  0  0  0  0  0  0  0
  -21.5491  -32.4350   22.8789 C   0  0  0  0  0  0  0  0  0  0  0  0
  -23.2733  -21.0146   23.6064 N   0  0  0  0  0  0  0  0  0  0  0  0
  -23.8658  -21.6895   21.3702 N   0  0  0  0  0  0  0  0  0  0  0  0
  -25.8612  -11.5027   20.1712 N   0  0  0  0  0  0  0  0  0  0  0  0
  -28.8701  -17.9517   22.8361 N   0  0  0  0  0  0  0  0  0  0  0  0
  -26.2217  -12.7972   20.1905 N   0  0  0  0  0  0  0  0  0  0  0  0
  -29.3097  -18.4294   24.8968 N   0  3  0  0  0  0  0  0  0  0  0  0
  -26.4744  -19.4318   22.6786 N   0  0  2  0  0  0  0  0  0  0  0  0
  -19.5404  -29.4673   22.7289 N   0  0  0  0  0  0  0  0  0  0  0  0
  -29.9593  -13.5960   20.2309 N   0  0  0  0  0  0  0  0  0  0  0  0
  -25.4657  -14.9597   20.7928 N   0  0  0  0  0  0  0  0  0  0  0  0
  -22.8659  -13.3113   23.0102 N   0  0  0  0  0  0  0  0  0  0  0  0
  -17.4738  -29.5128   19.8208 N   0  0  0  0  0  0  0  0  0  0  0  0
  -20.7910  -31.5194   25.1129 N   0  0  0  0  0  0  0  0  0  0  0  0
  -30.2060  -15.4898   21.6259 N   0  0  0  0  0  0  0  0  0  0  0  0
  -21.0078  -30.1074   28.4336 N   0  3  0  0  0  0  0  0  0  0  0  0
  -21.9802  -13.5724   20.9111 O   0  0  0  0  0  0  0  0  0  0  0  0
  -19.7227  -28.9939   20.1300 O   0  0  0  0  0  0  0  0  0  0  0  0
  -18.6812  -31.5882   23.1757 O   0  0  0  0  0  0  0  0  0  0  0  0
  -22.1484  -29.8028   25.8796 O   0  0  0  0  0  0  0  0  0  0  0  0
  -31.8436  -14.9429   20.1173 O   0  0  0  0  0  0  0  0  0  0  0  0
  -21.7514   -6.7648   21.2706 O   0  0  0  0  0  0  0  0  0  0  0  0
  -22.1614  -23.8874   22.5093 O   0  0  0  0  0  0  0  0  0  1  0  0
  -21.2765   -4.6683   26.3483 F   0  0  0  0  0  0  0  0  0  0  0  0
  -22.7185   -4.2429   21.8600 F   0  0  0  0  0  0  0  0  0  0  0  0
  1  2  1  0  0  0  0
  1  5  2  0  0  0  0
  2  6  2  0  0  0  0
  3  8  2  0  0  0  0
  3 18  1  0  0  0  0
  4  9  1  0  0  0  0
  4 18  2  0  0  0  0
  5 20  1  0  0  0  0
  6 22  1  0  0  0  0
  7 10  2  0  0  0  0
  7 21  1  0  0  0  0
  8 25  1  0  0  0  0
  9 25  2  0  0  0  0
 10 26  1  0  0  0  0
 11 12  2  0  0  0  0
 11 27  1  0  0  0  0
 12 28  1  0  0  0  0
 13 23  1  0  0  0  0
 13 26  2  0  0  0  0
 14 28  2  0  0  0  0
 14 29  1  0  0  0  0
 15 24  1  0  0  0  0
 15 65  2  0  0  0  0
 16 24  2  0  0  0  0
 16 66  1  0  0  0  0
 17 31  2  0  0  0  0
 17 70  1  0  0  0  0
 18 30  1  0  0  0  0
 19 30  1  0  0  0  0
 19 32  2  0  0  0  0
 19 35  1  0  0  0  0
 20 22  2  0  0  0  0
 20 40  1  0  0  0  0
 21 23  2  0  0  0  0
 21 41  1  0  0  0  0
 22 52  1  0  0  0  0
 23 42  1  0  0  0  0
 24 71  1  0  0  0  0
 25 85  1  0  0  0  0
 26 86  1  0  0  0  0
 27 29  2  0  0  0  0
 27 85  1  0  0  0  0
 28 87  1  0  0  0  0
 29 88  1  0  0  0  0
 30 67  2  0  0  0  0
 31 60  1  0  0  0  0
 31 68  1  0  0  0  0
 32 69  1  0  0  0  0
 32 74  1  0  0  0  0
 33 43  1  0  0  0  0
 33 68  1  0  0  0  0
 33 70  2  0  0  0  0
 34 61  1  0  0  0  0
 34 65  1  0  0  0  0
 34 66  2  0  0  0  0
 35 75  1  0  0  0  0
 35 80  2  0  0  0  0
 36 53  1  0  0  0  0
 36 76  1  0  0  0  0
 36 81  2  0  0  0  0
 37 62  1  0  0  0  0
 37 72  1  0  0  0  0
 37 82  2  0  0  0  0
 38 63  1  0  0  0  0
 38 77  1  0  0  0  0
 38 83  2  0  0  0  0
 39 73  1  0  0  0  0
 39 78  1  0  0  0  0
 39 84  2  0  0  0  0
 40 44  1  0  0  0  0
 41 53  1  0  0  0  0
 42 72  1  0  0  0  0
 43 71  1  0  0  0  0
 44 46  1  0  0  0  0
 45 47  1  0  0  0  0
 45 49  1  0  0  0  0
 46 52  1  0  0  0  0
 47 54  1  0  0  0  0
 48 50  1  0  0  0  0
 48 68  1  0  0  0  0
 49 73  1  0  0  0  0
 50 71  1  0  0  0  0
 51 54  1  0  0  0  0
 51 73  1  0  0  0  0
 52 76  1  0  0  0  0
 53 72  1  0  0  0  0
 54 69  1  0  0  0  0
 55 63  1  0  0  0  0
 56 64  1  0  0  0  0
 57 64  1  0  0  0  0
 58 64  1  0  0  0  0
 59 79  1  0  0  0  0
 60 78  1  0  0  0  0
 61 86  1  0  0  0  0
 62 64  1  0  0  0  0
 62 77  1  0  0  0  0
 63 79  1  0  0  0  0
 67 69  1  0  0  0  0
M  CHG  2  70   1  79   1
M  ISO  4  39 100  61 101  78 100  86 101
M  END
> <Batch ID>
0188

> <Smiles>
CNC(C)C(=O)NC(C(=O)N1Cc2cc([101O:1][101CH2:1]c3ncc(N4CCn5c(C[100NH:0][100C:0](=O)N6CCCC(n7nc(-c8ccc(Oc9ccc(F)cc9F)cc8)c(C(N)=O)c7N)C6)cnc5C4)cn3)ccc2CC1C(=O)NC1CCCc2ccccc21)C(C)(C)C

> <Shape>
0.260

> <Color>
0.180

> <Negative vol penalty>
0.000

$$$$

  -OEChem-04052323193D

 83 92  0     1  0  0  0  0  0999 V2000
  -27.7293  -35.2722   24.7059 C   0  0  0  0  0  0  0  0  0  0  0  0
  -28.2951  -34.0217   24.4788 C   0  0  0  0  0  0  0  0  0  0  0  0
  -23.0645   -9.8236   19.9141 C   0  0  0  0  0  0  0  0  0  0  0  0
  -23.8789   -9.7557   22.1876 C   0  0  0  0  0  0  0  0  0  0  0  0
  -26.3558  -35.4534   24.5493 C   0  0  0  0  0  0  0  0  0  0  0  0
  -27.4874  -32.9514   24.0960 C   0  0  0  0  0  0  0  0  0  0  0  0
  -28.9825  -28.3848   20.2991 C   0  0  0  0  0  0  0  0  0  0  0  0
  -22.3356   -8.6561   20.1403 C   0  0  0  0  0  0  0  0  0  0  0  0
  -23.1500   -8.5882   22.4139 C   0  0  0  0  0  0  0  0  0  0  0  0
  -29.4177  -27.0800   20.5268 C   0  0  0  0  0  0  0  0  0  0  0  0
  -19.9433   -7.7424   23.0637 C   0  0  0  0  0  0  0  0  0  0  0  0
  -19.2148   -7.6546   24.2499 C   0  0  0  0  0  0  0  0  0  0  0  0
  -27.1506  -26.2895   20.2927 C   0  0  0  0  0  0  0  0  0  0  0  0
  -20.4881   -5.7028   24.8874 C   0  0  0  0  0  0  0  0  0  0  0  0
  -29.8777  -20.6821   20.3256 C   0  0  0  0  0  0  0  0  0  0  0  0
  -23.8363  -10.3734   20.9377 C   0  0  0  0  0  0  0  0  0  0  0  0
  -24.1560  -12.9040   20.8997 C   0  0  0  0  0  0  0  0  0  0  0  0
  -25.5323  -34.3871   24.1550 C   0  0  0  0  0  0  0  0  0  0  0  0
  -27.6243  -28.6536   20.0769 C   0  0  0  0  0  0  0  0  0  0  0  0
  -26.1014  -33.1182   23.9353 C   0  0  0  0  0  0  0  0  0  0  0  0
  -26.7012  -27.5983   20.0598 C   0  0  0  0  0  0  0  0  0  0  0  0
  -29.7564  -20.0561   21.5495 C   0  0  0  0  0  0  0  0  0  0  0  0
  -22.3783   -8.0384   21.3902 C   0  0  0  0  0  0  0  0  0  0  0  0
  -28.5013  -26.0325   20.5265 C   0  0  0  0  0  0  0  0  0  0  0  0
  -20.9441   -6.8103   22.7892 C   0  0  0  0  0  0  0  0  0  0  0  0
  -19.4873   -6.6349   25.1618 C   0  0  0  0  0  0  0  0  0  0  0  0
  -21.2165   -5.7906   23.7010 C   0  0  0  0  0  0  0  0  0  0  0  0
  -24.5899  -11.5791   20.7045 C   0  0  0  0  0  0  0  0  0  0  0  0
  -28.9932  -20.7214   22.4872 C   0  0  0  0  0  0  0  0  0  0  0  0
  -25.2334  -13.6751   20.5377 C   0  0  0  0  0  0  0  0  0  0  0  0
  -28.5837  -22.4144   21.0267 C   0  0  0  0  0  0  0  0  0  0  0  0
  -22.8920  -13.3939   21.3666 C   0  0  0  0  0  0  0  0  0  0  0  0
  -25.4021  -30.3641   21.5734 C   0  0  0  0  0  0  0  0  0  0  0  0
  -23.6103  -29.5786   18.9859 C   0  0  0  0  0  0  0  0  0  0  0  0
  -23.0509  -27.4314   16.3930 C   0  0  0  0  0  0  0  0  0  0  0  0
  -30.7122  -14.7330   20.6327 C   0  0  0  0  0  0  0  0  0  0  0  0
  -24.0462  -34.6199   24.0447 C   0  0  0  0  0  0  0  0  0  0  0  0
  -27.1748  -30.0632   19.8062 C   0  0  0  0  0  0  0  0  0  0  0  0
  -25.2350  -27.8313   19.8061 C   0  0  0  0  0  0  0  0  0  0  0  0
  -23.3139  -33.5252   23.2729 C   0  0  0  0  0  0  0  0  0  0  0  0
  -29.5360  -12.4250   18.1901 C   0  0  0  0  0  0  0  0  0  0  0  0
  -23.7635  -32.1465   23.7460 C   0  0  0  0  0  0  0  0  0  0  0  0
  -28.1116  -12.1040   18.6461 C   0  0  0  0  0  0  0  0  0  0  0  0
  -30.4799  -12.6109   19.3761 C   0  0  0  0  0  0  0  0  0  0  0  0
  -28.6063  -13.2763   20.8323 C   0  0  0  0  0  0  0  0  0  0  0  0
  -29.9011  -17.8279   22.7092 C   0  0  0  0  0  0  0  0  0  0  0  0
  -30.9013  -17.9235   20.8625 C   0  0  0  0  0  0  0  0  0  0  0  0
  -25.2619  -31.9386   23.4949 C   0  0  1  0  0  0  0  0  0  0  0  0
  -25.6947  -30.2856   20.1017 C   0  0  1  0  0  0  0  0  0  0  0  0
  -27.6057  -13.1353   19.6725 C   0  0  2  0  0  0  0  0  0  0  0  0
  -30.7913  -16.8389   21.9435 C   0  0  0  0  0  0  0  0  0  0  0  0
  -21.4893  -27.0292   14.4703 C   0  0  0  0  0  0  0  0  0  0  0  0
  -21.5010  -28.5251   20.9226 C   0  0  0  0  0  0  0  0  0  0  0  0
  -20.4469  -27.3099   19.0042 C   0  0  0  0  0  0  0  0  0  0  0  0
  -20.5856  -29.8004   18.9758 C   0  0  0  0  0  0  0  0  0  0  0  0
  -25.2351  -27.6939   14.4133 C   0  0  0  0  0  0  0  0  0  0  0  0
  -27.9303  -23.7332   20.7349 C   0  0  0  0  0  0  0  0  0  1  0  0
  -22.6873  -28.4380   18.6311 C   0  0  1  0  0  0  0  0  0  0  0  0
  -22.7890  -27.6793   14.9185 C   0  0  2  0  0  0  0  0  0  0  0  0
  -21.3325  -28.5139   19.3902 C   0  0  0  0  0  0  0  0  0  0  0  0
  -29.3027  -21.8659   20.0288 N   0  0  0  0  0  0  0  0  0  0  0  0
  -25.8451  -11.5088   20.2533 N   0  0  0  0  0  0  0  0  0  0  0  0
  -28.3904  -21.9066   22.2589 N   0  0  0  0  0  0  0  0  0  0  0  0
  -26.2091  -12.7992   20.1619 N   0  0  0  0  0  0  0  0  0  0  0  0
  -30.3694  -18.8284   21.8179 N   0  0  0  0  0  0  0  0  0  0  0  0
  -24.8437  -29.2278   19.5530 N   0  0  0  0  0  0  0  0  0  0  0  0
  -29.9429  -13.6027   20.3109 N   0  0  0  0  0  0  0  0  0  0  0  0
  -25.4319  -15.0100   20.5072 N   0  0  0  0  0  0  0  0  0  0  0  0
  -21.8953  -12.4649   21.6951 N   0  0  0  0  0  0  0  0  0  0  0  0
  -25.5036  -31.6376   22.1001 N   0  0  0  0  0  0  0  0  0  0  0  0
  -22.5596  -28.4531   17.1779 N   0  0  0  0  0  0  0  0  0  0  0  0
  -30.1263  -15.6263   21.5212 N   0  0  0  0  0  0  0  0  0  0  0  0
  -23.9003  -27.1250   14.0946 N   0  3  0  0  0  0  0  0  0  0  0  0
  -22.6479  -14.6197   21.4733 O   0  0  0  0  0  0  0  0  0  0  0  0
  -25.1046  -29.3450   22.1855 O   0  0  0  0  0  0  0  0  0  0  0  0
  -23.2532  -30.7378   18.7615 O   0  0  0  0  0  0  0  0  0  0  0  0
  -23.6298  -26.4296   16.8075 O   0  0  0  0  0  0  0  0  0  0  0  0
  -31.8356  -14.9340   20.1589 O   0  0  0  0  0  0  0  0  0  0  0  0
  -21.6669   -6.8993   21.6113 O   0  0  0  0  0  0  0  0  0  0  0  0
  -28.9233  -24.7580   20.7492 O   0  0  0  0  0  0  0  0  0  1  0  0
  -18.7887   -6.5516   26.3017 F   0  0  0  0  0  0  0  0  0  0  0  0
  -22.1776   -4.8930   23.4434 F   0  0  0  0  0  0  0  0  0  0  0  0
  -28.8310  -20.1762   23.7037 F   0  0  0  0  0  0  0  0  0  0  0  0
  1  2  1  0  0  0  0
  1  5  2  0  0  0  0
  2  6  2  0  0  0  0
  3  8  2  0  0  0  0
  3 16  1  0  0  0  0
  4  9  1  0  0  0  0
  4 16  2  0  0  0  0
  5 18  1  0  0  0  0
  6 20  1  0  0  0  0
  7 10  2  0  0  0  0
  7 19  1  0  0  0  0
  8 23  1  0  0  0  0
  9 23  2  0  0  0  0
 10 24  1  0  0  0  0
 11 12  2  0  0  0  0
 11 25  1  0  0  0  0
 12 26  1  0  0  0  0
 13 21  1  0  0  0  0
 13 24  2  0  0  0  0
 14 26  2  0  0  0  0
 14 27  1  0  0  0  0
 15 22  1  0  0  0  0
 15 61  2  0  0  0  0
 16 28  1  0  0  0  0
 17 28  1  0  0  0  0
 17 30  2  0  0  0  0
 17 32  1  0  0  0  0
 18 20  2  0  0  0  0
 18 37  1  0  0  0  0
 19 21  2  0  0  0  0
 19 38  1  0  0  0  0
 20 48  1  0  0  0  0
 21 39  1  0  0  0  0
 22 29  2  0  0  0  0
 22 65  1  0  0  0  0
 23 79  1  0  0  0  0
 24 80  1  0  0  0  0
 25 27  2  0  0  0  0
 25 79  1  0  0  0  0
 26 81  1  0  0  0  0
 27 82  1  0  0  0  0
 28 62  2  0  0  0  0
 29 63  1  0  0  0  0
 29 83  1  0  0  0  0
 30 64  1  0  0  0  0
 30 68  1  0  0  0  0
 31 57  1  0  0  0  0
 31 61  1  0  0  0  0
 31 63  2  0  0  0  0
 32 69  1  0  0  0  0
 32 74  2  0  0  0  0
 33 49  1  0  0  0  0
 33 70  1  0  0  0  0
 33 75  2  0  0  0  0
 34 58  1  0  0  0  0
 34 66  1  0  0  0  0
 34 76  2  0  0  0  0
 35 59  1  0  0  0  0
 35 71  1  0  0  0  0
 35 77  2  0  0  0  0
 36 67  1  0  0  0  0
 36 72  1  0  0  0  0
 36 78  2  0  0  0  0
 37 40  1  0  0  0  0
 38 49  1  0  0  0  0
 39 66  1  0  0  0  0
 40 42  1  0  0  0  0
 41 43  1  0  0  0  0
 41 44  1  0  0  0  0
 42 48  1  0  0  0  0
 43 50  1  0  0  0  0
 44 67  1  0  0  0  0
 45 50  1  0  0  0  0
 45 67  1  0  0  0  0
 46 51  1  0  0  0  0
 46 65  1  0  0  0  0
 47 51  1  0  0  0  0
 47 65  1  0  0  0  0
 48 70  1  0  0  0  0
 49 66  1  0  0  0  0
 50 64  1  0  0  0  0
 51 72  1  0  0  0  0
 52 59  1  0  0  0  0
 53 60  1  0  0  0  0
 54 60  1  0  0  0  0
 55 60  1  0  0  0  0
 56 73  1  0  0  0  0
 57 80  1  0  0  0  0
 58 60  1  0  0  0  0
 58 71  1  0  0  0  0
 59 73  1  0  0  0  0
 62 64  1  0  0  0  0
M  CHG  1  73   1
M  ISO  4  36 100  57 101  72 100  80 101
M  END
> <Batch ID>
0188

> <Smiles>
CNC(C)C(=O)NC(C(=O)N1Cc2cc([101O:1][101CH2:1]c3ncc(N4CC([100NH:0][100C:0](=O)N5CCCC(n6nc(-c7ccc(Oc8ccc(F)cc8F)cc7)c(C(N)=O)c6N)C5)C4)c(F)n3)ccc2CC1C(=O)NC1CCCc2ccccc21)C(C)(C)C

> <Shape>
0.376

> <Color>
0.205

> <Negative vol penalty>
0.000

$$$$

  -OEChem-04052323193D

 85 94  0     1  0  0  0  0  0999 V2000
  -28.8145  -37.4486   20.9645 C   0  0  0  0  0  0  0  0  0  0  0  0
  -29.1188  -36.1473   20.5779 C   0  0  0  0  0  0  0  0  0  0  0  0
  -24.6277   -9.7410   21.1182 C   0  0  0  0  0  0  0  0  0  0  0  0
  -22.2157   -9.8277   21.2270 C   0  0  0  0  0  0  0  0  0  0  0  0
  -27.9465  -37.6723   22.0324 C   0  0  0  0  0  0  0  0  0  0  0  0
  -28.5561  -35.0689   21.2597 C   0  0  0  0  0  0  0  0  0  0  0  0
  -26.8754  -29.6816   18.8812 C   0  0  0  0  0  0  0  0  0  0  0  0
  -24.6348   -8.7311   22.0802 C   0  0  0  0  0  0  0  0  0  0  0  0
  -22.2228   -8.8177   22.1891 C   0  0  0  0  0  0  0  0  0  0  0  0
  -27.5043  -28.4380   18.8384 C   0  0  0  0  0  0  0  0  0  0  0  0
  -22.5518   -5.4552   22.2657 C   0  0  0  0  0  0  0  0  0  0  0  0
  -21.6330   -4.4160   22.1189 C   0  0  0  0  0  0  0  0  0  0  0  0
  -26.2702  -27.7533   20.7948 C   0  0  0  0  0  0  0  0  0  0  0  0
  -20.6639   -4.9702   24.2615 C   0  0  0  0  0  0  0  0  0  0  0  0
  -28.8600  -23.6943   17.9041 C   0  0  0  0  0  0  0  0  0  0  0  0
  -23.4181  -10.2894   20.6916 C   0  0  0  0  0  0  0  0  0  0  0  0
  -23.3413  -11.1762   18.3009 C   0  0  0  0  0  0  0  0  0  0  0  0
  -27.3653  -36.5962   22.7215 C   0  0  0  0  0  0  0  0  0  0  0  0
  -25.9457  -29.9747   19.8892 C   0  0  0  0  0  0  0  0  0  0  0  0
  -27.6806  -35.2785   22.3387 C   0  0  0  0  0  0  0  0  0  0  0  0
  -25.6290  -29.0005   20.8466 C   0  0  0  0  0  0  0  0  0  0  0  0
  -23.4324   -8.2694   22.6157 C   0  0  0  0  0  0  0  0  0  0  0  0
  -27.2039  -27.4747   19.7969 C   0  0  0  0  0  0  0  0  0  0  0  0
  -22.5266   -6.2519   23.4104 C   0  0  0  0  0  0  0  0  0  0  0  0
  -20.6891   -4.1735   23.1168 C   0  0  0  0  0  0  0  0  0  0  0  0
  -21.5827   -6.0094   24.4083 C   0  0  0  0  0  0  0  0  0  0  0  0
  -23.4102  -11.3330   19.6982 C   0  0  0  0  0  0  0  0  0  0  0  0
  -29.4108  -22.4385   18.0588 C   0  0  0  0  0  0  0  0  0  0  0  0
  -29.2951  -24.6512   18.7981 C   0  0  0  0  0  0  0  0  0  0  0  0
  -23.3644  -12.4587   17.8099 C   0  0  0  0  0  0  0  0  0  0  0  0
  -30.6609  -23.1485   19.8196 C   0  0  0  0  0  0  0  0  0  0  0  0
  -23.2633   -9.9783   17.5169 C   0  0  0  0  0  0  0  0  0  0  0  0
  -25.7828  -32.1097   22.2385 C   0  0  0  0  0  0  0  0  0  0  0  0
  -22.8113  -30.8701   22.6335 C   0  0  0  0  0  0  0  0  0  0  0  0
  -20.6918  -28.2308   22.1991 C   0  0  0  0  0  0  0  0  0  0  0  0
  -25.2718  -17.4737   17.6311 C   0  0  0  0  0  0  0  0  0  0  0  0
  -26.4699  -36.8873   23.8997 C   0  0  0  0  0  0  0  0  0  0  0  0
  -25.2562  -31.3114   19.9058 C   0  0  0  0  0  0  0  0  0  0  0  0
  -24.6231  -29.2582   21.9376 C   0  0  0  0  0  0  0  0  0  0  0  0
  -25.6225  -35.6929   24.3304 C   0  0  0  0  0  0  0  0  0  0  0  0
  -22.9010  -16.9055   20.1609 C   0  0  0  0  0  0  0  0  0  0  0  0
  -26.4774  -34.4320   24.4079 C   0  0  0  0  0  0  0  0  0  0  0  0
  -22.8137  -15.3796   20.1574 C   0  0  0  0  0  0  0  0  0  0  0  0
  -24.3387  -17.3981   19.9867 C   0  0  0  0  0  0  0  0  0  0  0  0
  -26.2151  -19.4239   18.9468 C   0  0  0  0  0  0  0  0  0  0  0  0
  -25.5998  -19.6873   16.5720 C   0  0  0  0  0  0  0  0  0  0  0  0
  -24.9373  -15.3138   18.7963 C   0  0  0  0  0  0  0  0  0  0  0  0
  -27.6366  -19.8836   18.6393 C   0  0  0  0  0  0  0  0  0  0  0  0
  -27.0134  -20.1252   16.2247 C   0  0  0  0  0  0  0  0  0  0  0  0
  -27.0708  -34.0828   23.0377 C   0  0  1  0  0  0  0  0  0  0  0  0
  -24.7073  -31.6836   21.2796 C   0  0  1  0  0  0  0  0  0  0  0  0
  -23.4973  -14.7902   18.9109 C   0  0  1  0  0  0  0  0  0  0  0  0
  -31.6638  -22.8471   20.8813 C   0  0  0  0  0  0  0  0  0  0  0  0
  -18.3356  -27.5000   22.6593 C   0  0  0  0  0  0  0  0  0  0  0  0
  -23.5288  -30.4101   25.5633 C   0  0  0  0  0  0  0  0  0  0  0  0
  -21.5702  -28.8591   25.7271 C   0  0  0  0  0  0  0  0  0  0  0  0
  -21.2105  -31.2660   25.1789 C   0  0  0  0  0  0  0  0  0  0  0  0
  -20.1059  -27.9075   19.3162 C   0  0  0  0  0  0  0  0  0  0  0  0
  -28.9999  -21.3317   17.1330 C   0  0  0  0  0  0  0  0  0  0  0  0
  -28.7568  -26.0399   18.7080 C   0  0  0  0  0  0  0  0  0  1  0  0
  -22.2242  -29.7367   23.4395 C   0  0  1  0  0  0  0  0  0  0  0  0
  -19.2752  -28.1549   21.6587 C   0  0  2  0  0  0  0  0  0  0  0  0
  -22.1539  -30.0635   24.9579 C   0  0  0  0  0  0  0  0  0  0  0  0
  -23.4726  -12.6142   20.0708 N   0  0  0  0  0  0  0  0  0  0  0  0
  -30.3172  -22.1294   19.0092 N   0  0  0  0  0  0  0  0  0  0  0  0
  -30.1977  -24.4121   19.7720 N   0  0  0  0  0  0  0  0  0  0  0  0
  -23.4430  -13.2740   18.9004 N   0  0  0  0  0  0  0  0  0  0  0  0
  -23.9804  -30.5826   21.9151 N   0  0  0  0  0  0  0  0  0  0  0  0
  -24.9625  -16.7780   18.8094 N   0  0  0  0  0  0  0  0  0  0  0  0
  -25.5854  -18.8350   17.7588 N   0  0  0  0  0  0  0  0  0  0  0  0
  -23.3251  -12.9573   16.5560 N   0  0  0  0  0  0  0  0  0  0  0  0
  -23.2497   -8.7445   18.1816 N   0  0  0  0  0  0  0  0  0  0  0  0
  -26.0702  -33.4607   22.1973 N   0  0  0  0  0  0  0  0  0  0  0  0
  -20.9327  -29.4311   22.8336 N   0  0  0  0  0  0  0  0  0  0  0  0
  -27.6298  -20.7912   17.4328 N   0  3  0  0  0  0  0  0  0  0  0  0
  -19.2440  -27.3629   20.3967 N   0  3  0  0  0  0  0  0  0  0  0  0
  -23.2239  -10.0007   16.2633 O   0  0  0  0  0  0  0  0  0  0  0  0
  -26.3116  -31.2749   22.9631 O   0  0  0  0  0  0  0  0  0  0  0  0
  -22.2491  -31.9681   22.6355 O   0  0  0  0  0  0  0  0  0  0  0  0
  -21.5023  -27.3154   22.0743 O   0  0  0  0  0  0  0  0  0  0  0  0
  -25.2685  -16.9110   16.5289 O   0  0  0  0  0  0  0  0  0  0  0  0
  -23.4389   -7.2838   23.5543 O   0  0  0  0  0  0  0  0  0  0  0  0
  -27.8210  -26.2518   19.7576 O   0  0  0  0  0  0  0  0  0  1  0  0
  -19.8059   -3.1765   22.9750 F   0  0  0  0  0  0  0  0  0  0  0  0
  -21.5529   -6.7722   25.5097 F   0  0  0  0  0  0  0  0  0  0  0  0
  1  2  1  0  0  0  0
  1  5  2  0  0  0  0
  2  6  2  0  0  0  0
  3  8  2  0  0  0  0
  3 16  1  0  0  0  0
  4  9  1  0  0  0  0
  4 16  2  0  0  0  0
  5 18  1  0  0  0  0
  6 20  1  0  0  0  0
  7 10  2  0  0  0  0
  7 19  1  0  0  0  0
  8 22  1  0  0  0  0
  9 22  2  0  0  0  0
 10 23  1  0  0  0  0
 11 12  2  0  0  0  0
 11 24  1  0  0  0  0
 12 25  1  0  0  0  0
 13 21  1  0  0  0  0
 13 23  2  0  0  0  0
 14 25  2  0  0  0  0
 14 26  1  0  0  0  0
 15 28  2  0  0  0  0
 15 29  1  0  0  0  0
 16 27  1  0  0  0  0
 17 27  1  0  0  0  0
 17 30  2  0  0  0  0
 17 32  1  0  0  0  0
 18 20  2  0  0  0  0
 18 37  1  0  0  0  0
 19 21  2  0  0  0  0
 19 38  1  0  0  0  0
 20 50  1  0  0  0  0
 21 39  1  0  0  0  0
 22 82  1  0  0  0  0
 23 83  1  0  0  0  0
 24 26  2  0  0  0  0
 24 82  1  0  0  0  0
 25 84  1  0  0  0  0
 26 85  1  0  0  0  0
 27 64  2  0  0  0  0
 28 59  1  0  0  0  0
 28 65  1  0  0  0  0
 29 60  1  0  0  0  0
 29 66  2  0  0  0  0
 30 67  1  0  0  0  0
 30 71  1  0  0  0  0
 31 53  1  0  0  0  0
 31 65  2  0  0  0  0
 31 66  1  0  0  0  0
 32 72  1  0  0  0  0
 32 77  2  0  0  0  0
 33 51  1  0  0  0  0
 33 73  1  0  0  0  0
 33 78  2  0  0  0  0
 34 61  1  0  0  0  0
 34 68  1  0  0  0  0
 34 79  2  0  0  0  0
 35 62  1  0  0  0  0
 35 74  1  0  0  0  0
 35 80  2  0  0  0  0
 36 69  1  0  0  0  0
 36 70  1  0  0  0  0
 36 81  2  0  0  0  0
 37 40  1  0  0  0  0
 38 51  1  0  0  0  0
 39 68  1  0  0  0  0
 40 42  1  0  0  0  0
 41 43  1  0  0  0  0
 41 44  1  0  0  0  0
 42 50  1  0  0  0  0
 43 52  1  0  0  0  0
 44 69  1  0  0  0  0
 45 48  1  0  0  0  0
 45 70  1  0  0  0  0
 46 49  1  0  0  0  0
 46 70  1  0  0  0  0
 47 52  1  0  0  0  0
 47 69  1  0  0  0  0
 48 75  1  0  0  0  0
 49 75  1  0  0  0  0
 50 73  1  0  0  0  0
 51 68  1  0  0  0  0
 52 67  1  0  0  0  0
 54 62  1  0  0  0  0
 55 63  1  0  0  0  0
 56 63  1  0  0  0  0
 57 63  1  0  0  0  0
 58 76  1  0  0  0  0
 59 75  1  0  0  0  0
 60 83  1  0  0  0  0
 61 63  1  0  0  0  0
 61 74  1  0  0  0  0
 62 76  1  0  0  0  0
 64 67  1  0  0  0  0
M  CHG  2  75   1  76   1
M  ISO  4  36 100  60 101  70 100  83 101
M  END
> <Batch ID>
0188

> <Smiles>
CNC(C)C(=O)NC(C(=O)N1Cc2cc([101O:1][101CH2:1]c3cc(CN4CC[100N:0]([100C:0](=O)N5CCCC(n6nc(-c7ccc(Oc8ccc(F)cc8F)cc7)c(C(N)=O)c6N)C5)CC4)nc(C)n3)ccc2CC1C(=O)NC1CCCc2ccccc21)C(C)(C)C

> <Shape>
0.269

> <Color>
0.088

> <Negative vol penalty>
0.000

$$$$

  -OEChem-04052323193D

 84 93  0     1  0  0  0  0  0999 V2000
  -19.5368  -26.1274   25.3278 C   0  0  0  0  0  0  0  0  0  0  0  0
  -20.5056  -25.8396   24.3718 C   0  0  0  0  0  0  0  0  0  0  0  0
  -24.6418   -9.2200   22.0568 C   0  0  0  0  0  0  0  0  0  0  0  0
  -23.7309   -9.4435   19.8303 C   0  0  0  0  0  0  0  0  0  0  0  0
  -18.7627  -27.2809   25.2087 C   0  0  0  0  0  0  0  0  0  0  0  0
  -20.7002  -26.7046   23.2956 C   0  0  0  0  0  0  0  0  0  0  0  0
  -25.6003  -27.6050   22.3882 C   0  0  0  0  0  0  0  0  0  0  0  0
  -23.4616   -8.6075   22.4782 C   0  0  0  0  0  0  0  0  0  0  0  0
  -22.5507   -8.8309   20.2517 C   0  0  0  0  0  0  0  0  0  0  0  0
  -26.3151  -26.6163   21.7135 C   0  0  0  0  0  0  0  0  0  0  0  0
  -22.0298   -5.5514   22.2711 C   0  0  0  0  0  0  0  0  0  0  0  0
  -22.1396   -4.4043   23.0571 C   0  0  0  0  0  0  0  0  0  0  0  0
  -26.0868  -27.8612   19.6599 C   0  0  0  0  0  0  0  0  0  0  0  0
  -20.9362   -5.5088   24.8372 C   0  0  0  0  0  0  0  0  0  0  0  0
  -24.7764   -9.6381   20.7329 C   0  0  0  0  0  0  0  0  0  0  0  0
  -27.1373   -9.6425   19.7665 C   0  0  0  0  0  0  0  0  0  0  0  0
  -18.9545  -28.1655   24.1357 C   0  0  0  0  0  0  0  0  0  0  0  0
  -25.1132  -28.7258   21.7005 C   0  0  0  0  0  0  0  0  0  0  0  0
  -19.9271  -27.8703   23.1613 C   0  0  0  0  0  0  0  0  0  0  0  0
  -25.3684  -28.8640   20.3287 C   0  0  0  0  0  0  0  0  0  0  0  0
  -22.4161   -8.4129   21.5756 C   0  0  0  0  0  0  0  0  0  0  0  0
  -26.5560  -26.7429   20.3485 C   0  0  0  0  0  0  0  0  0  0  0  0
  -21.3733   -6.6773   22.7682 C   0  0  0  0  0  0  0  0  0  0  0  0
  -21.5928   -4.3830   24.3401 C   0  0  0  0  0  0  0  0  0  0  0  0
  -20.8265   -6.6559   24.0513 C   0  0  0  0  0  0  0  0  0  0  0  0
  -25.9951  -10.2714   20.2971 C   0  0  0  0  0  0  0  0  0  0  0  0
  -28.0095  -10.6725   19.5122 C   0  0  0  0  0  0  0  0  0  0  0  0
  -30.2227  -23.3477   18.2192 C   0  0  0  0  0  0  0  0  0  0  0  0
  -28.4825  -23.7365   19.5820 C   0  0  0  0  0  0  0  0  0  0  0  0
  -28.7625  -21.7044   18.6715 C   0  0  0  0  0  0  0  0  0  0  0  0
  -27.3875   -8.2515   19.5251 C   0  0  0  0  0  0  0  0  0  0  0  0
  -22.2259  -29.9232   21.1231 C   0  0  0  0  0  0  0  0  0  0  0  0
  -23.9249  -32.3725   19.8438 C   0  0  0  0  0  0  0  0  0  0  0  0
  -26.8396  -33.4514   18.4341 C   0  0  0  0  0  0  0  0  0  0  0  0
  -27.3422  -16.2775   18.2606 C   0  0  0  0  0  0  0  0  0  0  0  0
  -18.0613  -29.3756   24.0239 C   0  0  0  0  0  0  0  0  0  0  0  0
  -24.3670  -29.7966   22.4482 C   0  0  0  0  0  0  0  0  0  0  0  0
  -24.8845  -30.0579   19.5484 C   0  0  0  0  0  0  0  0  0  0  0  0
  -18.5861  -30.4326   23.0556 C   0  0  0  0  0  0  0  0  0  0  0  0
  -29.1698  -15.0618   21.0031 C   0  0  0  0  0  0  0  0  0  0  0  0
  -19.0370  -29.7843   21.7505 C   0  0  0  0  0  0  0  0  0  0  0  0
  -28.6706  -13.6196   21.0855 C   0  0  0  0  0  0  0  0  0  0  0  0
  -28.0395  -16.0421   20.6852 C   0  0  0  0  0  0  0  0  0  0  0  0
  -29.1104  -19.4786   17.6454 C   0  0  0  0  0  0  0  0  0  0  0  0
  -27.5926  -19.7597   19.6110 C   0  0  0  0  0  0  0  0  0  0  0  0
  -28.2629  -18.2963   17.1833 C   0  0  0  0  0  0  0  0  0  0  0  0
  -26.7656  -18.5818   19.1077 C   0  0  0  0  0  0  0  0  0  0  0  0
  -26.7630  -14.2482   19.5580 C   0  0  0  0  0  0  0  0  0  0  0  0
  -20.1849  -28.7968   21.9929 C   0  0  1  0  0  0  0  0  0  0  0  0
  -23.4746  -30.6438   21.5463 C   0  0  1  0  0  0  0  0  0  0  0  0
  -27.8868  -13.2332   19.8187 C   0  0  2  0  0  0  0  0  0  0  0  0
  -31.4498  -23.8287   17.5230 C   0  0  0  0  0  0  0  0  0  0  0  0
  -27.9162  -35.4964   17.4562 C   0  0  0  0  0  0  0  0  0  0  0  0
  -22.2831  -32.0158   17.2967 C   0  0  0  0  0  0  0  0  0  0  0  0
  -23.9953  -33.3826   16.0849 C   0  0  0  0  0  0  0  0  0  0  0  0
  -22.6877  -34.3950   17.9525 C   0  0  0  0  0  0  0  0  0  0  0  0
  -28.9795  -33.4443   20.4786 C   0  0  0  0  0  0  0  0  0  0  0  0
  -27.7078  -24.6648   20.4538 C   0  0  0  0  0  0  0  0  0  1  0  0
  -24.4791  -32.6894   18.4758 C   0  0  1  0  0  0  0  0  0  0  0  0
  -27.7039  -34.6676   18.7136 C   0  0  2  0  0  0  0  0  0  0  0  0
  -23.3689  -33.0972   17.4665 C   0  0  0  0  0  0  0  0  0  0  0  0
  -26.1268  -11.5982   20.3759 N   0  0  0  0  0  0  0  0  0  0  0  0
  -29.5763  -24.2394   18.9876 N   0  0  0  0  0  0  0  0  0  0  0  0
  -29.8758  -22.0667   18.0141 N   0  0  0  0  0  0  0  0  0  0  0  0
  -28.0153  -22.4826   19.4710 N   0  0  0  0  0  0  0  0  0  0  0  0
  -27.3621  -11.8114   19.8915 N   0  0  0  0  0  0  0  0  0  0  0  0
  -28.3372  -20.3800   18.5065 N   0  0  0  0  0  0  0  0  0  0  0  0
  -24.1541  -31.0749   20.3229 N   0  0  0  0  0  0  0  0  0  0  0  0
  -27.2959  -15.6107   19.4940 N   0  0  0  0  0  0  0  0  0  0  0  0
  -27.5665  -17.6627   18.2964 N   0  0  0  0  0  0  0  0  0  0  0  0
  -29.2595  -10.7061   19.0034 N   0  0  0  0  0  0  0  0  0  0  0  0
  -26.3836   -7.3269   19.8438 N   0  0  0  0  0  0  0  0  0  0  0  0
  -21.4325  -29.5071   22.1753 N   0  0  0  0  0  0  0  0  0  0  0  0
  -25.5063  -33.7056   18.6769 N   0  0  0  0  0  0  0  0  0  0  0  0
  -29.0372  -34.2479   19.2304 N   0  3  0  0  0  0  0  0  0  0  0  0
  -28.4755   -7.8392   19.0563 O   0  0  0  0  0  0  0  0  0  0  0  0
  -21.9982  -29.7583   19.9304 O   0  0  0  0  0  0  0  0  0  0  0  0
  -23.3173  -33.2463   20.4674 O   0  0  0  0  0  0  0  0  0  0  0  0
  -27.3006  -32.3837   18.0364 O   0  0  0  0  0  0  0  0  0  0  0  0
  -27.1956  -15.6735   17.1908 O   0  0  0  0  0  0  0  0  0  0  0  0
  -21.2644   -7.8150   21.9864 O   0  0  0  0  0  0  0  0  0  0  0  0
  -27.2575  -25.7724   19.6829 O   0  0  0  0  0  0  0  0  0  1  0  0
  -21.6970   -3.2809   25.0941 F   0  0  0  0  0  0  0  0  0  0  0  0
  -20.1935   -7.7341   24.5338 F   0  0  0  0  0  0  0  0  0  0  0  0
  1  2  1  0  0  0  0
  1  5  2  0  0  0  0
  2  6  2  0  0  0  0
  3  8  2  0  0  0  0
  3 15  1  0  0  0  0
  4  9  1  0  0  0  0
  4 15  2  0  0  0  0
  5 17  1  0  0  0  0
  6 19  1  0  0  0  0
  7 10  2  0  0  0  0
  7 18  1  0  0  0  0
  8 21  1  0  0  0  0
  9 21  2  0  0  0  0
 10 22  1  0  0  0  0
 11 12  2  0  0  0  0
 11 23  1  0  0  0  0
 12 24  1  0  0  0  0
 13 20  1  0  0  0  0
 13 22  2  0  0  0  0
 14 24  2  0  0  0  0
 14 25  1  0  0  0  0
 15 26  1  0  0  0  0
 16 26  1  0  0  0  0
 16 27  2  0  0  0  0
 16 31  1  0  0  0  0
 17 19  2  0  0  0  0
 17 36  1  0  0  0  0
 18 20  2  0  0  0  0
 18 37  1  0  0  0  0
 19 49  1  0  0  0  0
 20 38  1  0  0  0  0
 21 81  1  0  0  0  0
 22 82  1  0  0  0  0
 23 25  2  0  0  0  0
 23 81  1  0  0  0  0
 24 83  1  0  0  0  0
 25 84  1  0  0  0  0
 26 62  2  0  0  0  0
 27 66  1  0  0  0  0
 27 71  1  0  0  0  0
 28 52  1  0  0  0  0
 28 63  2  0  0  0  0
 28 64  1  0  0  0  0
 29 58  1  0  0  0  0
 29 63  1  0  0  0  0
 29 65  2  0  0  0  0
 30 64  2  0  0  0  0
 30 65  1  0  0  0  0
 30 67  1  0  0  0  0
 31 72  1  0  0  0  0
 31 76  2  0  0  0  0
 32 50  1  0  0  0  0
 32 73  1  0  0  0  0
 32 77  2  0  0  0  0
 33 59  1  0  0  0  0
 33 68  1  0  0  0  0
 33 78  2  0  0  0  0
 34 60  1  0  0  0  0
 34 74  1  0  0  0  0
 34 79  2  0  0  0  0
 35 69  1  0  0  0  0
 35 70  1  0  0  0  0
 35 80  2  0  0  0  0
 36 39  1  0  0  0  0
 37 50  1  0  0  0  0
 38 68  1  0  0  0  0
 39 41  1  0  0  0  0
 40 42  1  0  0  0  0
 40 43  1  0  0  0  0
 41 49  1  0  0  0  0
 42 51  1  0  0  0  0
 43 69  1  0  0  0  0
 44 46  1  0  0  0  0
 44 67  1  0  0  0  0
 45 47  1  0  0  0  0
 45 67  1  0  0  0  0
 46 70  1  0  0  0  0
 47 70  1  0  0  0  0
 48 51  1  0  0  0  0
 48 69  1  0  0  0  0
 49 73  1  0  0  0  0
 50 68  1  0  0  0  0
 51 66  1  0  0  0  0
 53 60  1  0  0  0  0
 54 61  1  0  0  0  0
 55 61  1  0  0  0  0
 56 61  1  0  0  0  0
 57 75  1  0  0  0  0
 58 82  1  0  0  0  0
 59 61  1  0  0  0  0
 59 74  1  0  0  0  0
 60 75  1  0  0  0  0
 62 66  1  0  0  0  0
M  CHG  1  75   1
M  ISO  4  35 100  58 101  70 100  82 101
M  END
> <Batch ID>
0188

> <Smiles>
CNC(C)C(=O)NC(C(=O)N1Cc2cc([101O:1][101CH2:1]c3nc(C)nc(N4CC[100N:0]([100C:0](=O)N5CCCC(n6nc(-c7ccc(Oc8ccc(F)cc8F)cc7)c(C(N)=O)c6N)C5)CC4)n3)ccc2CC1C(=O)NC1CCCc2ccccc21)C(C)(C)C

> <Shape>
0.273

> <Color>
0.116

> <Negative vol penalty>
0.000

$$$$

  -OEChem-04052323193D

 82 91  0     1  0  0  0  0  0999 V2000
  -21.0707  -28.4025   25.9175 C   0  0  0  0  0  0  0  0  0  0  0  0
  -22.1883  -27.9398   25.2302 C   0  0  0  0  0  0  0  0  0  0  0  0
  -26.4349  -13.1190   20.5984 C   0  0  0  0  0  0  0  0  0  0  0  0
  -24.0381  -13.3922   20.7330 C   0  0  0  0  0  0  0  0  0  0  0  0
  -19.8189  -28.3829   25.3039 C   0  0  0  0  0  0  0  0  0  0  0  0
  -22.0545  -27.4562   23.9292 C   0  0  0  0  0  0  0  0  0  0  0  0
  -25.6609  -29.1967   20.8293 C   0  0  0  0  0  0  0  0  0  0  0  0
  -26.3091  -11.8003   21.0350 C   0  0  0  0  0  0  0  0  0  0  0  0
  -23.9123  -12.0734   21.1696 C   0  0  0  0  0  0  0  0  0  0  0  0
  -26.9172  -28.5984   20.9148 C   0  0  0  0  0  0  0  0  0  0  0  0
  -23.9326   -8.9848   19.7983 C   0  0  0  0  0  0  0  0  0  0  0  0
  -22.9310   -8.2051   19.2201 C   0  0  0  0  0  0  0  0  0  0  0  0
  -26.4074  -27.2642   18.9707 C   0  0  0  0  0  0  0  0  0  0  0  0
  -21.9241   -7.8870   21.3931 C   0  0  0  0  0  0  0  0  0  0  0  0
  -25.2994  -13.9150   20.4475 C   0  0  0  0  0  0  0  0  0  0  0  0
  -25.4064  -15.7391   18.6673 C   0  0  0  0  0  0  0  0  0  0  0  0
  -19.6713  -27.9079   23.9912 C   0  0  0  0  0  0  0  0  0  0  0  0
  -24.7627  -28.8248   19.8186 C   0  0  0  0  0  0  0  0  0  0  0  0
  -20.7993  -27.4290   23.2979 C   0  0  0  0  0  0  0  0  0  0  0  0
  -25.1413  -27.8612   18.8730 C   0  0  0  0  0  0  0  0  0  0  0  0
  -25.0479  -11.2774   21.3206 C   0  0  0  0  0  0  0  0  0  0  0  0
  -27.2896  -27.6299   19.9871 C   0  0  0  0  0  0  0  0  0  0  0  0
  -23.9301   -9.2156   21.1740 C   0  0  0  0  0  0  0  0  0  0  0  0
  -21.9267   -7.6562   20.0175 C   0  0  0  0  0  0  0  0  0  0  0  0
  -22.9258   -8.6667   21.9714 C   0  0  0  0  0  0  0  0  0  0  0  0
  -25.4287  -15.2776   19.9971 C   0  0  0  0  0  0  0  0  0  0  0  0
  -25.5665  -17.0991   18.7731 C   0  0  0  0  0  0  0  0  0  0  0  0
  -32.6720  -26.2640   20.7753 C   0  0  0  0  0  0  0  0  0  0  0  0
  -30.6730  -26.7978   21.0515 C   0  0  0  0  0  0  0  0  0  0  0  0
  -25.2545  -15.0041   17.4456 C   0  0  0  0  0  0  0  0  0  0  0  0
  -21.8674  -27.5141   19.7617 C   0  0  0  0  0  0  0  0  0  0  0  0
  -22.0901  -28.1021   16.5794 C   0  0  0  0  0  0  0  0  0  0  0  0
  -24.0883  -28.6206   13.8618 C   0  0  0  0  0  0  0  0  0  0  0  0
  -28.1199  -21.4307   20.8106 C   0  0  0  0  0  0  0  0  0  0  0  0
  -18.2903  -27.8623   23.3867 C   0  0  0  0  0  0  0  0  0  0  0  0
  -23.4214  -29.4990   19.7241 C   0  0  0  0  0  0  0  0  0  0  0  0
  -24.2214  -27.4413   17.7568 C   0  0  0  0  0  0  0  0  0  0  0  0
  -18.2946  -27.6826   21.8708 C   0  0  0  0  0  0  0  0  0  0  0  0
  -25.3924  -20.1495   22.7820 C   0  0  0  0  0  0  0  0  0  0  0  0
  -19.2618  -26.5742   21.4673 C   0  0  0  0  0  0  0  0  0  0  0  0
  -25.1829  -18.7790   22.1443 C   0  0  0  0  0  0  0  0  0  0  0  0
  -30.4168  -23.4360   22.8620 C   0  0  0  0  0  0  0  0  0  0  0  0
  -26.8690  -20.5467   22.8379 C   0  0  0  0  0  0  0  0  0  0  0  0
  -29.3091  -22.3893   22.8704 C   0  0  0  0  0  0  0  0  0  0  0  0
  -27.3456  -19.0855   20.8920 C   0  0  0  0  0  0  0  0  0  0  0  0
  -29.1481  -23.6839   20.8528 C   0  0  0  0  0  0  0  0  0  0  0  0
  -20.6987  -26.9199   21.8764 C   0  0  1  0  0  0  0  0  0  0  0  0
  -22.3901  -28.6733   18.9612 C   0  0  1  0  0  0  0  0  0  0  0  0
  -25.8618  -18.7128   20.7670 C   0  0  1  0  0  0  0  0  0  0  0  0
  -29.8475  -24.5146   21.9317 C   0  0  2  0  0  0  0  0  0  0  0  0
  -34.0945  -26.3727   20.4310 C   0  0  0  0  0  0  0  0  0  0  0  0
  -23.9822  -29.0349   11.3891 C   0  0  0  0  0  0  0  0  0  0  0  0
  -21.4342  -25.1583   16.1167 C   0  0  0  0  0  0  0  0  0  0  0  0
  -22.2651  -25.4142   13.7688 C   0  0  0  0  0  0  0  0  0  0  0  0
  -20.2997  -26.7393   14.5458 C   0  0  0  0  0  0  0  0  0  0  0  0
  -25.4424  -31.2390   14.1252 C   0  0  0  0  0  0  0  0  0  0  0  0
  -29.3665  -27.4747   21.1353 C   0  0  0  0  0  0  0  0  0  1  0  0
  -22.6082  -27.3382   15.3848 C   0  0  1  0  0  0  0  0  0  0  0  0
  -24.0483  -29.6726   12.7681 C   0  0  2  0  0  0  0  0  0  0  0  0
  -21.6686  -26.1688   14.9761 C   0  0  0  0  0  0  0  0  0  0  0  0
  -25.5904  -16.2643   20.8826 N   0  0  0  0  0  0  0  0  0  0  0  0
  -31.8089  -27.3138   20.6430 N   0  0  0  0  0  0  0  0  0  0  0  0
  -32.1416  -25.1307   21.2399 N   0  0  0  0  0  0  0  0  0  0  0  0
  -25.6713  -17.3594   20.1078 N   0  0  0  0  0  0  0  0  0  0  0  0
  -30.8625  -25.4991   21.4084 N   0  0  0  0  0  0  0  0  0  0  0  0
  -22.9183  -28.1249   17.7105 N   0  0  0  0  0  0  0  0  0  0  0  0
  -27.5190  -20.3930   21.5316 N   0  0  0  0  0  0  0  0  0  0  0  0
  -28.7215  -22.4620   21.5309 N   0  0  0  0  0  0  0  0  0  0  0  0
  -25.6267  -18.0857   17.8537 N   0  0  0  0  0  0  0  0  0  0  0  0
  -25.1007  -13.6129   17.5176 N   0  0  0  0  0  0  0  0  0  0  0  0
  -21.2703  -27.8773   20.9538 N   0  0  0  0  0  0  0  0  0  0  0  0
  -22.8264  -28.3250   14.3326 N   0  0  0  0  0  0  0  0  0  0  0  0
  -25.2644  -30.5316   12.8310 N   0  3  0  0  0  0  0  0  0  0  0  0
  -25.2716  -15.5626   16.3225 O   0  0  0  0  0  0  0  0  0  0  0  0
  -21.9950  -26.3747   19.3291 O   0  0  0  0  0  0  0  0  0  0  0  0
  -20.9942  -28.6640   16.5090 O   0  0  0  0  0  0  0  0  0  0  0  0
  -25.1340  -28.1092   14.2562 O   0  0  0  0  0  0  0  0  0  0  0  0
  -28.1559  -21.4162   19.5727 O   0  0  0  0  0  0  0  0  0  0  0  0
  -24.9247   -9.9905   21.7464 O   0  0  0  0  0  0  0  0  0  0  0  0
  -28.5211  -27.0409   20.0691 O   0  0  0  0  0  0  0  0  0  1  0  0
  -20.9640   -6.9087   19.4619 F   0  0  0  0  0  0  0  0  0  0  0  0
  -22.9174   -8.8859   23.2934 F   0  0  0  0  0  0  0  0  0  0  0  0
  1  2  1  0  0  0  0
  1  5  2  0  0  0  0
  2  6  2  0  0  0  0
  3  8  2  0  0  0  0
  3 15  1  0  0  0  0
  4  9  1  0  0  0  0
  4 15  2  0  0  0  0
  5 17  1  0  0  0  0
  6 19  1  0  0  0  0
  7 10  2  0  0  0  0
  7 18  1  0  0  0  0
  8 21  1  0  0  0  0
  9 21  2  0  0  0  0
 10 22  1  0  0  0  0
 11 12  2  0  0  0  0
 11 23  1  0  0  0  0
 12 24  1  0  0  0  0
 13 20  1  0  0  0  0
 13 22  2  0  0  0  0
 14 24  2  0  0  0  0
 14 25  1  0  0  0  0
 15 26  1  0  0  0  0
 16 26  1  0  0  0  0
 16 27  2  0  0  0  0
 16 30  1  0  0  0  0
 17 19  2  0  0  0  0
 17 35  1  0  0  0  0
 18 20  2  0  0  0  0
 18 36  1  0  0  0  0
 19 47  1  0  0  0  0
 20 37  1  0  0  0  0
 21 79  1  0  0  0  0
 22 80  1  0  0  0  0
 23 25  2  0  0  0  0
 23 79  1  0  0  0  0
 24 81  1  0  0  0  0
 25 82  1  0  0  0  0
 26 61  2  0  0  0  0
 27 64  1  0  0  0  0
 27 69  1  0  0  0  0
 28 51  1  0  0  0  0
 28 62  1  0  0  0  0
 28 63  2  0  0  0  0
 29 57  1  0  0  0  0
 29 62  2  0  0  0  0
 29 65  1  0  0  0  0
 30 70  1  0  0  0  0
 30 74  2  0  0  0  0
 31 48  1  0  0  0  0
 31 71  1  0  0  0  0
 31 75  2  0  0  0  0
 32 58  1  0  0  0  0
 32 66  1  0  0  0  0
 32 76  2  0  0  0  0
 33 59  1  0  0  0  0
 33 72  1  0  0  0  0
 33 77  2  0  0  0  0
 34 67  1  0  0  0  0
 34 68  1  0  0  0  0
 34 78  2  0  0  0  0
 35 38  1  0  0  0  0
 36 48  1  0  0  0  0
 37 66  1  0  0  0  0
 38 40  1  0  0  0  0
 39 41  1  0  0  0  0
 39 43  1  0  0  0  0
 40 47  1  0  0  0  0
 41 49  1  0  0  0  0
 42 44  1  0  0  0  0
 42 50  1  0  0  0  0
 43 67  1  0  0  0  0
 44 68  1  0  0  0  0
 45 49  1  0  0  0  0
 45 67  1  0  0  0  0
 46 50  1  0  0  0  0
 46 68  1  0  0  0  0
 47 71  1  0  0  0  0
 48 66  1  0  0  0  0
 49 64  1  0  0  0  0
 50 65  1  0  0  0  0
 52 59  1  0  0  0  0
 53 60  1  0  0  0  0
 54 60  1  0  0  0  0
 55 60  1  0  0  0  0
 56 73  1  0  0  0  0
 57 80  1  0  0  0  0
 58 60  1  0  0  0  0
 58 72  1  0  0  0  0
 59 73  1  0  0  0  0
 61 64  1  0  0  0  0
 63 65  1  0  0  0  0
M  CHG  1  73   1
M  ISO  4  34 100  57 101  68 100  80 101
M  END
> <Batch ID>
0188

> <Smiles>
CNC(C)C(=O)NC(C(=O)N1Cc2cc([101O:1][101CH2:1]c3nc(C)nn3C3CC[100N:0]([100C:0](=O)N4CCCC(n5nc(-c6ccc(Oc7ccc(F)cc7F)cc6)c(C(N)=O)c5N)C4)C3)ccc2CC1C(=O)NC1CCCc2ccccc21)C(C)(C)C

> <Shape>
0.220

> <Color>
0.086

> <Negative vol penalty>
0.000

$$$$

  -OEChem-04052323193D

 83 92  0     1  0  0  0  0  0999 V2000
  -28.5613  -33.5293   10.6445 C   0  0  0  0  0  0  0  0  0  0  0  0
  -29.5074  -32.9939   11.5126 C   0  0  0  0  0  0  0  0  0  0  0  0
  -23.0713   -9.8383   20.1181 C   0  0  0  0  0  0  0  0  0  0  0  0
  -23.7999  -10.0345   22.4132 C   0  0  0  0  0  0  0  0  0  0  0  0
  -27.2090  -33.2423   10.8260 C   0  0  0  0  0  0  0  0  0  0  0  0
  -29.1016  -32.1721   12.5635 C   0  0  0  0  0  0  0  0  0  0  0  0
  -31.2832  -26.5310   16.4021 C   0  0  0  0  0  0  0  0  0  0  0  0
  -22.3135   -8.7167   20.4545 C   0  0  0  0  0  0  0  0  0  0  0  0
  -23.0421   -8.9129   22.7497 C   0  0  0  0  0  0  0  0  0  0  0  0
  -31.4644  -26.1344   17.7264 C   0  0  0  0  0  0  0  0  0  0  0  0
  -19.7988   -8.1953   23.3715 C   0  0  0  0  0  0  0  0  0  0  0  0
  -19.0256   -8.2613   24.5306 C   0  0  0  0  0  0  0  0  0  0  0  0
  -29.1086  -25.6434   17.8953 C   0  0  0  0  0  0  0  0  0  0  0  0
  -20.2390   -6.3837   25.4469 C   0  0  0  0  0  0  0  0  0  0  0  0
  -23.8146  -10.4973   21.0974 C   0  0  0  0  0  0  0  0  0  0  0  0
  -24.1813  -13.0002   20.7679 C   0  0  0  0  0  0  0  0  0  0  0  0
  -26.7874  -32.4087   11.8738 C   0  0  0  0  0  0  0  0  0  0  0  0
  -30.0094  -26.4970   15.8169 C   0  0  0  0  0  0  0  0  0  0  0  0
  -27.7423  -31.8748   12.7600 C   0  0  0  0  0  0  0  0  0  0  0  0
  -28.9144  -26.0376   16.5626 C   0  0  0  0  0  0  0  0  0  0  0  0
  -22.2988   -8.2540   21.7703 C   0  0  0  0  0  0  0  0  0  0  0  0
  -30.3765  -25.6933   18.4741 C   0  0  0  0  0  0  0  0  0  0  0  0
  -20.7920   -7.2234   23.2501 C   0  0  0  0  0  0  0  0  0  0  0  0
  -19.2458   -7.3556   25.5683 C   0  0  0  0  0  0  0  0  0  0  0  0
  -21.0121   -6.3177   24.2878 C   0  0  0  0  0  0  0  0  0  0  0  0
  -24.5980  -11.6556   20.7504 C   0  0  0  0  0  0  0  0  0  0  0  0
  -25.2851  -13.7072   20.3579 C   0  0  0  0  0  0  0  0  0  0  0  0
  -22.9100  -13.5600   21.1232 C   0  0  0  0  0  0  0  0  0  0  0  0
  -28.0512  -28.6729   14.5781 C   0  0  0  0  0  0  0  0  0  0  0  0
  -26.2920  -26.0674   13.7787 C   0  0  0  0  0  0  0  0  0  0  0  0
  -25.4995  -22.8060   14.3964 C   0  0  0  0  0  0  0  0  0  0  0  0
  -30.7681  -14.7033   20.5191 C   0  0  0  0  0  0  0  0  0  0  0  0
  -25.3104  -32.1653   12.0584 C   0  0  0  0  0  0  0  0  0  0  0  0
  -29.8353  -26.9028   14.3790 C   0  0  0  0  0  0  0  0  0  0  0  0
  -27.5298  -25.9629   15.9747 C   0  0  0  0  0  0  0  0  0  0  0  0
  -24.9974  -30.9829   12.9718 C   0  0  0  0  0  0  0  0  0  0  0  0
  -29.6502  -12.1242   18.3488 C   0  0  0  0  0  0  0  0  0  0  0  0
  -25.8504  -31.0437   14.2350 C   0  0  0  0  0  0  0  0  0  0  0  0
  -28.2033  -11.8808   18.7816 C   0  0  0  0  0  0  0  0  0  0  0  0
  -29.1260  -20.9431   21.6393 C   0  0  0  0  0  0  0  0  0  0  0  0
  -30.3541  -20.7020   19.4402 C   0  0  0  0  0  0  0  0  0  0  0  0
  -30.5503  -12.4399   19.5415 C   0  0  0  0  0  0  0  0  0  0  0  0
  -28.6361  -13.3013   20.8299 C   0  0  0  0  0  0  0  0  0  0  0  0
  -30.1570  -21.9710   22.0910 C   0  0  0  0  0  0  0  0  0  0  0  0
  -31.3753  -21.7319   19.9092 C   0  0  0  0  0  0  0  0  0  0  0  0
  -29.9560  -18.0933   22.1361 C   0  0  0  0  0  0  0  0  0  0  0  0
  -30.9970  -17.9323   20.3344 C   0  0  0  0  0  0  0  0  0  0  0  0
  -27.3437  -30.9590   13.8969 C   0  0  1  0  0  0  0  0  0  0  0  0
  -28.4051  -27.3141   14.0432 C   0  0  1  0  0  0  0  0  0  0  0  0
  -27.6775  -13.0348   19.6566 C   0  0  2  0  0  0  0  0  0  0  0  0
  -30.8567  -16.9936   21.5461 C   0  0  0  0  0  0  0  0  0  0  0  0
  -29.6643  -19.9712   20.5908 C   0  0  0  0  0  0  0  0  0  0  0  0
  -23.9986  -20.9587   13.6011 C   0  0  0  0  0  0  0  0  0  0  0  0
  -23.9252  -27.3916   15.1770 C   0  0  0  0  0  0  0  0  0  0  0  0
  -22.7770  -25.1668   15.1889 C   0  0  0  0  0  0  0  0  0  0  0  0
  -23.3611  -26.2553   13.0217 C   0  0  0  0  0  0  0  0  0  0  0  0
  -27.8003  -21.0858   13.6851 C   0  0  0  0  0  0  0  0  0  0  0  0
  -31.6502  -23.7956   21.2807 C   0  0  0  0  0  0  0  0  0  0  0  0
  -31.8173  -24.7480   20.1131 C   0  0  0  0  0  0  0  0  0  1  0  0
  -25.2003  -25.2681   14.4482 C   0  0  1  0  0  0  0  0  0  0  0  0
  -25.3673  -21.6090   13.4722 C   0  0  2  0  0  0  0  0  0  0  0  0
  -23.8415  -26.0236   14.4709 C   0  0  0  0  0  0  0  0  0  0  0  0
  -25.8675  -11.5143   20.3599 N   0  0  0  0  0  0  0  0  0  0  0  0
  -26.2580  -12.7793   20.1283 N   0  0  0  0  0  0  0  0  0  0  0  0
  -27.4096  -26.3765   14.5668 N   0  0  0  0  0  0  0  0  0  0  0  0
  -29.9961  -13.5471   20.3247 N   0  0  0  0  0  0  0  0  0  0  0  0
  -25.5088  -15.0259   20.1749 N   0  0  0  0  0  0  0  0  0  0  0  0
  -21.8853  -12.6910   21.5220 N   0  0  0  0  0  0  0  0  0  0  0  0
  -27.7184  -29.5926   13.6020 N   0  0  0  0  0  0  0  0  0  0  0  0
  -25.1571  -23.9814   13.7621 N   0  0  0  0  0  0  0  0  0  0  0  0
  -30.1723  -15.7149   21.2651 N   0  0  0  0  0  0  0  0  0  0  0  0
  -30.6344  -19.0394   21.2347 N   0  3  0  0  0  0  0  0  0  0  0  0
  -30.7206  -22.6818   20.8837 N   0  3  0  0  0  0  0  0  0  0  0  0
  -26.4046  -20.5887   13.7944 N   0  3  0  0  0  0  0  0  0  0  0  0
  -22.6844  -14.7929   21.0722 O   0  0  0  0  0  0  0  0  0  0  0  0
  -28.0766  -28.8717   15.7870 O   0  0  0  0  0  0  0  0  0  0  0  0
  -26.1612  -26.3990   12.5978 O   0  0  0  0  0  0  0  0  0  0  0  0
  -25.8660  -22.7076   15.5654 O   0  0  0  0  0  0  0  0  0  0  0  0
  -31.9065  -14.8353   20.0565 O   0  0  0  0  0  0  0  0  0  0  0  0
  -21.5593   -7.1596   22.0990 O   0  0  0  0  0  0  0  0  0  0  0  0
  -30.5504  -25.3063   19.7671 O   0  0  0  0  0  0  0  0  0  1  0  0
  -18.5043   -7.4201   26.6819 F   0  0  0  0  0  0  0  0  0  0  0  0
  -21.9656   -5.3826   24.1774 F   0  0  0  0  0  0  0  0  0  0  0  0
  1  2  1  0  0  0  0
  1  5  2  0  0  0  0
  2  6  2  0  0  0  0
  3  8  2  0  0  0  0
  3 15  1  0  0  0  0
  4  9  1  0  0  0  0
  4 15  2  0  0  0  0
  5 17  1  0  0  0  0
  6 19  1  0  0  0  0
  7 10  2  0  0  0  0
  7 18  1  0  0  0  0
  8 21  1  0  0  0  0
  9 21  2  0  0  0  0
 10 22  1  0  0  0  0
 11 12  2  0  0  0  0
 11 23  1  0  0  0  0
 12 24  1  0  0  0  0
 13 20  1  0  0  0  0
 13 22  2  0  0  0  0
 14 24  2  0  0  0  0
 14 25  1  0  0  0  0
 15 26  1  0  0  0  0
 16 26  1  0  0  0  0
 16 27  2  0  0  0  0
 16 28  1  0  0  0  0
 17 19  2  0  0  0  0
 17 33  1  0  0  0  0
 18 20  2  0  0  0  0
 18 34  1  0  0  0  0
 19 48  1  0  0  0  0
 20 35  1  0  0  0  0
 21 80  1  0  0  0  0
 22 81  1  0  0  0  0
 23 25  2  0  0  0  0
 23 80  1  0  0  0  0
 24 82  1  0  0  0  0
 25 83  1  0  0  0  0
 26 63  2  0  0  0  0
 27 64  1  0  0  0  0
 27 67  1  0  0  0  0
 28 68  1  0  0  0  0
 28 75  2  0  0  0  0
 29 49  1  0  0  0  0
 29 69  1  0  0  0  0
 29 76  2  0  0  0  0
 30 60  1  0  0  0  0
 30 65  1  0  0  0  0
 30 77  2  0  0  0  0
 31 61  1  0  0  0  0
 31 70  1  0  0  0  0
 31 78  2  0  0  0  0
 32 66  1  0  0  0  0
 32 71  1  0  0  0  0
 32 79  2  0  0  0  0
 33 36  1  0  0  0  0
 34 49  1  0  0  0  0
 35 65  1  0  0  0  0
 36 38  1  0  0  0  0
 37 39  1  0  0  0  0
 37 42  1  0  0  0  0
 38 48  1  0  0  0  0
 39 50  1  0  0  0  0
 40 44  1  0  0  0  0
 40 52  1  0  0  0  0
 41 45  1  0  0  0  0
 41 52  1  0  0  0  0
 42 66  1  0  0  0  0
 43 50  1  0  0  0  0
 43 66  1  0  0  0  0
 44 73  1  0  0  0  0
 45 73  1  0  0  0  0
 46 51  1  0  0  0  0
 46 72  1  0  0  0  0
 47 51  1  0  0  0  0
 47 72  1  0  0  0  0
 48 69  1  0  0  0  0
 49 65  1  0  0  0  0
 50 64  1  0  0  0  0
 51 71  1  0  0  0  0
 52 72  1  0  0  0  0
 53 61  1  0  0  0  0
 54 62  1  0  0  0  0
 55 62  1  0  0  0  0
 56 62  1  0  0  0  0
 57 74  1  0  0  0  0
 58 59  1  0  0  0  0
 58 73  1  0  0  0  0
 59 81  1  0  0  0  0
 60 62  1  0  0  0  0
 60 70  1  0  0  0  0
 61 74  1  0  0  0  0
 63 64  1  0  0  0  0
M  CHG  3  72   1  73   1  74   1
M  ISO  4  32 100  59 101  71 100  81 101
M  END
> <Batch ID>
0188

> <Smiles>
CNC(C)C(=O)NC(C(=O)N1Cc2cc([101O:1][101CH2:1]CN3CCC(N4CC([100NH:0][100C:0](=O)N5CCCC(n6nc(-c7ccc(Oc8ccc(F)cc8F)cc7)c(C(N)=O)c6N)C5)C4)CC3)ccc2CC1C(=O)NC1CCCc2ccccc21)C(C)(C)C

> <Shape>
0.218

> <Color>
0.192

> <Negative vol penalty>
0.000

$$$$
