
  -OEChem-04052323223D

 79 87  0     1  0  0  0  0  0999 V2000
  -28.1812  -23.9626   12.1444 C   0  0  0  0  0  0  0  0  0  0  0  0
  -27.3916  -24.9618   12.7043 C   0  0  0  0  0  0  0  0  0  0  0  0
  -25.6996  -14.5040   22.1851 C   0  0  0  0  0  0  0  0  0  0  0  0
  -25.3828  -13.8135   19.8917 C   0  0  0  0  0  0  0  0  0  0  0  0
  -28.6240  -22.9016   12.9332 C   0  0  0  0  0  0  0  0  0  0  0  0
  -27.0434  -24.9001   14.0531 C   0  0  0  0  0  0  0  0  0  0  0  0
  -25.7336  -29.1352   19.6803 C   0  0  0  0  0  0  0  0  0  0  0  0
  -25.6359  -13.1722   22.5949 C   0  0  0  0  0  0  0  0  0  0  0  0
  -25.3192  -12.4817   20.3014 C   0  0  0  0  0  0  0  0  0  0  0  0
  -24.7663  -29.3566   20.6596 C   0  0  0  0  0  0  0  0  0  0  0  0
  -23.0443  -10.4142   21.7090 C   0  0  0  0  0  0  0  0  0  0  0  0
  -22.0343   -9.6178   21.1695 C   0  0  0  0  0  0  0  0  0  0  0  0
  -25.6547  -27.5182   21.9442 C   0  0  0  0  0  0  0  0  0  0  0  0
  -23.6999   -8.1329   20.2433 C   0  0  0  0  0  0  0  0  0  0  0  0
  -25.5730  -14.8247   20.8335 C   0  0  0  0  0  0  0  0  0  0  0  0
  -26.7878  -16.9205   20.0339 C   0  0  0  0  0  0  0  0  0  0  0  0
  -28.2891  -22.8319   14.2947 C   0  0  0  0  0  0  0  0  0  0  0  0
  -26.6634  -28.0949   19.8206 C   0  0  0  0  0  0  0  0  0  0  0  0
  -27.4811  -23.8365   14.8606 C   0  0  0  0  0  0  0  0  0  0  0  0
  -26.6344  -27.2873   20.9665 C   0  0  0  0  0  0  0  0  0  0  0  0
  -25.4457  -12.1611   21.6530 C   0  0  0  0  0  0  0  0  0  0  0  0
  -24.7249  -28.5463   21.7904 C   0  0  0  0  0  0  0  0  0  0  0  0
  -24.3822  -10.0701   21.5156 C   0  0  0  0  0  0  0  0  0  0  0  0
  -22.3620   -8.4771   20.4367 C   0  0  0  0  0  0  0  0  0  0  0  0
  -24.7099   -8.9294   20.7827 C   0  0  0  0  0  0  0  0  0  0  0  0
  -25.6381  -16.2003   20.4097 C   0  0  0  0  0  0  0  0  0  0  0  0
  -26.3208  -18.1735   19.7203 C   0  0  0  0  0  0  0  0  0  0  0  0
  -28.1556  -16.4949   19.9736 C   0  0  0  0  0  0  0  0  0  0  0  0
  -27.3502  -25.4632   18.1757 C   0  0  0  0  0  0  0  0  0  0  0  0
  -29.7993  -25.2485   20.2919 C   0  0  0  0  0  0  0  0  0  0  0  0
  -31.0563  -26.0565   23.3601 C   0  0  0  0  0  0  0  0  0  0  0  0
  -23.0927  -22.4643   21.2890 C   0  0  0  0  0  0  0  0  0  0  0  0
  -28.7520  -21.6410   15.0961 C   0  0  0  0  0  0  0  0  0  0  0  0
  -27.7174  -27.8860   18.7680 C   0  0  0  0  0  0  0  0  0  0  0  0
  -27.6228  -26.1700   21.1744 C   0  0  0  0  0  0  0  0  0  0  0  0
  -28.6504  -21.8457   16.6054 C   0  0  0  0  0  0  0  0  0  0  0  0
  -21.6025  -19.8750   19.0913 C   0  0  0  0  0  0  0  0  0  0  0  0
  -27.2950  -22.4410   16.9733 C   0  0  0  0  0  0  0  0  0  0  0  0
  -22.6069  -18.7326   19.2497 C   0  0  0  0  0  0  0  0  0  0  0  0
  -20.3815  -24.8259   20.5253 C   0  0  0  0  0  0  0  0  0  0  0  0
  -21.5228  -20.7106   20.3623 C   0  0  0  0  0  0  0  0  0  0  0  0
  -20.8093  -23.3618   20.5444 C   0  0  0  0  0  0  0  0  0  0  0  0
  -23.8395  -20.1326   20.9751 C   0  0  0  0  0  0  0  0  0  0  0  0
  -22.1428  -24.6000   22.1153 C   0  0  0  0  0  0  0  0  0  0  0  0
  -27.1029  -23.8177   16.3258 C   0  0  1  0  0  0  0  0  0  0  0  0
  -28.2915  -26.4726   18.7695 C   0  0  1  0  0  0  0  0  0  0  0  0
  -23.9770  -19.2567   19.7172 C   0  0  1  0  0  0  0  0  0  0  0  0
  -20.8073  -25.2910   21.9099 C   0  0  1  0  0  0  0  0  0  0  0  0
  -33.0667  -25.7047   24.8202 C   0  0  0  0  0  0  0  0  0  0  0  0
  -28.8503  -22.4157   20.9118 C   0  0  0  0  0  0  0  0  0  0  0  0
  -30.2508  -22.4753   22.9863 C   0  0  0  0  0  0  0  0  0  0  0  0
  -31.3326  -22.6717   20.7471 C   0  0  0  0  0  0  0  0  0  0  0  0
  -31.6452  -28.9556   23.4465 C   0  0  0  0  0  0  0  0  0  0  0  0
  -21.4339  -28.8147   23.2553 C   0  0  0  0  0  0  0  0  0  0  0  0
  -21.3040  -27.2999   23.3083 C   0  0  0  0  0  0  0  0  0  0  0  0
  -22.5337  -29.3034   22.3208 C   0  0  0  0  0  0  0  0  0  1  0  0
  -29.9875  -24.6135   21.6484 C   0  0  1  0  0  0  0  0  0  0  0  0
  -32.4087  -26.6013   23.7830 C   0  0  2  0  0  0  0  0  0  0  0  0
  -30.0853  -23.0638   21.5689 C   0  0  0  0  0  0  0  0  0  0  0  0
  -24.5245  -16.9346   20.3419 N   0  0  0  0  0  0  0  0  0  0  0  0
  -24.9723  -18.1294   19.9199 N   0  0  0  0  0  0  0  0  0  0  0  0
  -28.6301  -26.0016   20.1140 N   0  0  0  0  0  0  0  0  0  0  0  0
  -22.8479  -21.1898   20.7654 N   0  0  0  0  0  0  0  0  0  0  0  0
  -22.0137  -23.3422   21.3811 N   0  0  0  0  0  0  0  0  0  0  0  0
  -26.9362  -19.2977   19.2961 N   0  0  0  0  0  0  0  0  0  0  0  0
  -28.4607  -15.1742   20.3298 N   0  0  0  0  0  0  0  0  0  0  0  0
  -27.8436  -24.8261   17.0531 N   0  0  0  0  0  0  0  0  0  0  0  0
  -31.1552  -25.2562   22.2416 N   0  0  0  0  0  0  0  0  0  0  0  0
  -20.9432  -26.7557   21.9656 N   0  3  0  0  0  0  0  0  0  0  0  0
  -32.2584  -27.9640   24.3672 N   0  3  0  0  0  0  0  0  0  0  0  0
  -29.0820  -17.2678   19.6302 O   0  0  0  0  0  0  0  0  0  0  0  0
  -26.2579  -25.2750   18.6982 O   0  0  0  0  0  0  0  0  0  0  0  0
  -30.6616  -25.0885   19.4243 O   0  0  0  0  0  0  0  0  0  0  0  0
  -30.0168  -26.3120   23.9639 O   0  0  0  0  0  0  0  0  0  0  0  0
  -24.2334  -22.8192   21.6143 O   0  0  0  0  0  0  0  0  0  0  0  0
  -25.3838  -10.8614   22.0525 O   0  0  0  0  0  0  0  0  0  0  0  0
  -23.7748  -28.7613   22.7542 O   0  0  0  0  0  0  0  0  0  1  0  0
  -21.3919   -7.7115   19.9200 F   0  0  0  0  0  0  0  0  0  0  0  0
  -25.9934   -8.5930   20.5946 F   0  0  0  0  0  0  0  0  0  0  0  0
  1  2  1  0  0  0  0
  1  5  2  0  0  0  0
  2  6  2  0  0  0  0
  3  8  2  0  0  0  0
  3 15  1  0  0  0  0
  4  9  1  0  0  0  0
  4 15  2  0  0  0  0
  5 17  1  0  0  0  0
  6 19  1  0  0  0  0
  7 10  2  0  0  0  0
  7 18  1  0  0  0  0
  8 21  1  0  0  0  0
  9 21  2  0  0  0  0
 10 22  1  0  0  0  0
 11 12  2  0  0  0  0
 11 23  1  0  0  0  0
 12 24  1  0  0  0  0
 13 20  1  0  0  0  0
 13 22  2  0  0  0  0
 14 24  2  0  0  0  0
 14 25  1  0  0  0  0
 15 26  1  0  0  0  0
 16 26  1  0  0  0  0
 16 27  2  0  0  0  0
 16 28  1  0  0  0  0
 17 19  2  0  0  0  0
 17 33  1  0  0  0  0
 18 20  2  0  0  0  0
 18 34  1  0  0  0  0
 19 45  1  0  0  0  0
 20 35  1  0  0  0  0
 21 76  1  0  0  0  0
 22 77  1  0  0  0  0
 23 25  2  0  0  0  0
 23 76  1  0  0  0  0
 24 78  1  0  0  0  0
 25 79  1  0  0  0  0
 26 60  2  0  0  0  0
 27 61  1  0  0  0  0
 27 65  1  0  0  0  0
 28 66  1  0  0  0  0
 28 71  2  0  0  0  0
 29 46  1  0  0  0  0
 29 67  1  0  0  0  0
 29 72  2  0  0  0  0
 30 57  1  0  0  0  0
 30 62  1  0  0  0  0
 30 73  2  0  0  0  0
 31 58  1  0  0  0  0
 31 68  1  0  0  0  0
 31 74  2  0  0  0  0
 32 63  1  0  0  0  0
 32 64  1  0  0  0  0
 32 75  2  0  0  0  0
 33 36  1  0  0  0  0
 34 46  1  0  0  0  0
 35 62  1  0  0  0  0
 36 38  1  0  0  0  0
 37 39  1  0  0  0  0
 37 41  1  0  0  0  0
 38 45  1  0  0  0  0
 39 47  1  0  0  0  0
 40 42  1  0  0  0  0
 40 48  1  0  0  0  0
 41 63  1  0  0  0  0
 42 64  1  0  0  0  0
 43 47  1  0  0  0  0
 43 63  1  0  0  0  0
 44 48  1  0  0  0  0
 44 64  1  0  0  0  0
 45 67  1  0  0  0  0
 46 62  1  0  0  0  0
 47 61  1  0  0  0  0
 48 69  1  0  0  0  0
 49 58  1  0  0  0  0
 50 59  1  0  0  0  0
 51 59  1  0  0  0  0
 52 59  1  0  0  0  0
 53 70  1  0  0  0  0
 54 55  1  0  0  0  0
 54 56  1  0  0  0  0
 55 69  1  0  0  0  0
 56 77  1  0  0  0  0
 57 59  1  0  0  0  0
 57 68  1  0  0  0  0
 58 70  1  0  0  0  0
 60 61  1  0  0  0  0
M  CHG  2  69   1  70   1
M  ISO  4  32 100  56 101  64 100  77 101
M  END
> <Batch ID>
0189

> <Smiles>
CNC(C)C(=O)NC(C(=O)N1Cc2cc([101O:1][101CH2:1]CCNC3CC[100N:0]([100C:0](=O)N4CCCC(n5nc(-c6ccc(Oc7ccc(F)cc7F)cc6)c(C(N)=O)c5N)C4)C3)ccc2CC1C(=O)NC1CCCc2ccccc21)C(C)(C)C

> <Shape>
0.175

> <Color>
0.071

> <Negative vol penalty>
0.000

$$$$

  -OEChem-04052323223D

 87 96  0     1  0  0  0  0  0999 V2000
  -19.5924  -31.6488   16.4847 C   0  0  0  0  0  0  0  0  0  0  0  0
  -19.9025  -30.3643   16.9196 C   0  0  0  0  0  0  0  0  0  0  0  0
  -24.6061   -9.8177   21.6876 C   0  0  0  0  0  0  0  0  0  0  0  0
  -24.7350  -11.0530   23.7600 C   0  0  0  0  0  0  0  0  0  0  0  0
  -20.3924  -32.7250   16.8665 C   0  0  0  0  0  0  0  0  0  0  0  0
  -21.0135  -30.1550   17.7359 C   0  0  0  0  0  0  0  0  0  0  0  0
  -21.5537  -26.0331   22.2329 C   0  0  0  0  0  0  0  0  0  0  0  0
  -24.2892   -8.6597   22.3975 C   0  0  0  0  0  0  0  0  0  0  0  0
  -24.4180   -9.8949   24.4699 C   0  0  0  0  0  0  0  0  0  0  0  0
  -22.1421  -24.7700   22.2819 C   0  0  0  0  0  0  0  0  0  0  0  0
  -23.0919   -5.4592   23.6379 C   0  0  0  0  0  0  0  0  0  0  0  0
  -22.0499   -4.6674   23.1553 C   0  0  0  0  0  0  0  0  0  0  0  0
  -24.1539  -25.7488   23.1841 C   0  0  0  0  0  0  0  0  0  0  0  0
  -20.5240   -6.5240   23.4038 C   0  0  0  0  0  0  0  0  0  0  0  0
  -27.1446  -20.1550   20.9187 C   0  0  0  0  0  0  0  0  0  0  0  0
  -24.8291  -11.0144   22.3688 C   0  0  0  0  0  0  0  0  0  0  0  0
  -24.2595  -13.1662   21.1226 C   0  0  0  0  0  0  0  0  0  0  0  0
  -21.5082  -32.5302   17.6957 C   0  0  0  0  0  0  0  0  0  0  0  0
  -22.2661  -27.1668   22.6496 C   0  0  0  0  0  0  0  0  0  0  0  0
  -21.8299  -31.2294   18.1281 C   0  0  0  0  0  0  0  0  0  0  0  0
  -23.5714  -27.0248   23.1418 C   0  0  0  0  0  0  0  0  0  0  0  0
  -24.1951   -8.6982   23.7887 C   0  0  0  0  0  0  0  0  0  0  0  0
  -23.4433  -24.6281   22.7548 C   0  0  0  0  0  0  0  0  0  0  0  0
  -22.8499   -6.7834   24.0035 C   0  0  0  0  0  0  0  0  0  0  0  0
  -20.7659   -5.1998   23.0382 C   0  0  0  0  0  0  0  0  0  0  0  0
  -21.5660   -7.3158   23.8865 C   0  0  0  0  0  0  0  0  0  0  0  0
  -25.1571  -12.2109   21.6360 C   0  0  0  0  0  0  0  0  0  0  0  0
  -28.3485  -19.5651   20.5918 C   0  0  0  0  0  0  0  0  0  0  0  0
  -27.0819  -21.5220   20.7409 C   0  0  0  0  0  0  0  0  0  0  0  0
  -25.0627  -14.1010   20.5165 C   0  0  0  0  0  0  0  0  0  0  0  0
  -29.2290  -21.5744   19.9965 C   0  0  0  0  0  0  0  0  0  0  0  0
  -22.8278  -13.2052   21.1879 C   0  0  0  0  0  0  0  0  0  0  0  0
  -23.2578  -29.8368   21.2385 C   0  0  0  0  0  0  0  0  0  0  0  0
  -24.1440  -30.6391   24.2540 C   0  0  0  0  0  0  0  0  0  0  0  0
  -25.0156  -29.6087   27.3886 C   0  0  0  0  0  0  0  0  0  0  0  0
  -29.5731  -17.3658   20.4913 C   0  0  0  0  0  0  0  0  0  0  0  0
  -22.3704  -33.7177   18.0434 C   0  0  0  0  0  0  0  0  0  0  0  0
  -21.6078  -28.5187   22.6155 C   0  0  0  0  0  0  0  0  0  0  0  0
  -24.3716  -28.2077   23.6201 C   0  0  0  0  0  0  0  0  0  0  0  0
  -23.3135  -33.4631   19.2164 C   0  0  0  0  0  0  0  0  0  0  0  0
  -30.0070  -13.9927   19.4373 C   0  0  0  0  0  0  0  0  0  0  0  0
  -24.0202  -32.1213   19.0518 C   0  0  0  0  0  0  0  0  0  0  0  0
  -28.7101  -13.3070   19.8731 C   0  0  0  0  0  0  0  0  0  0  0  0
  -31.3689  -24.2479   18.3927 C   0  0  0  0  0  0  0  0  0  0  0  0
  -30.4597  -15.0448   20.4482 C   0  0  0  0  0  0  0  0  0  0  0  0
  -28.1469  -15.3593   21.2363 C   0  0  0  0  0  0  0  0  0  0  0  0
  -31.3831  -25.7329   18.6839 C   0  0  0  0  0  0  0  0  0  0  0  0
  -30.4977  -24.5164   20.6109 C   0  0  0  0  0  0  0  0  0  0  0  0
  -23.0125  -30.9655   19.0347 C   0  0  1  0  0  0  0  0  0  0  0  0
  -22.6083  -29.6699   22.5832 C   0  0  1  0  0  0  0  0  0  0  0  0
  -27.6164  -14.3369   20.2179 C   0  0  2  0  0  0  0  0  0  0  0  0
  -30.2759  -23.7413   19.3188 C   0  0  2  0  0  0  0  0  0  0  0  0
  -25.7223  -30.4940   29.6278 C   0  0  0  0  0  0  0  0  0  0  0  0
  -26.9368  -31.1864   23.1535 C   0  0  0  0  0  0  0  0  0  0  0  0
  -27.7977  -31.1323   25.5039 C   0  0  0  0  0  0  0  0  0  0  0  0
  -26.1291  -32.8591   24.8281 C   0  0  0  0  0  0  0  0  0  0  0  0
  -30.5464  -27.0483   20.6631 C   0  0  0  0  0  0  0  0  0  0  0  0
  -22.6518  -28.4352   28.7281 C   0  0  0  0  0  0  0  0  0  0  0  0
  -24.7268  -21.4594   21.5627 C   0  0  0  0  0  0  0  0  0  0  0  0
  -23.5999  -22.4437   21.8275 C   0  0  0  0  0  0  0  0  0  1  0  0
  -25.3896  -30.4553   25.0869 C   0  0  1  0  0  0  0  0  0  0  0  0
  -24.5506  -30.0576   28.7621 C   0  0  2  0  0  0  0  0  0  0  0  0
  -26.5492  -31.3860   24.6323 C   0  0  0  0  0  0  0  0  0  0  0  0
  -26.4328  -12.5111   21.3784 N   0  0  0  0  0  0  0  0  0  0  0  0
  -29.4155  -20.2471   20.1262 N   0  0  0  0  0  0  0  0  0  0  0  0
  -28.1088  -22.2660   20.2802 N   0  0  0  0  0  0  0  0  0  0  0  0
  -26.3427  -13.6656   20.6963 N   0  0  0  0  0  0  0  0  0  0  0  0
  -23.6864  -29.5094   23.5611 N   0  0  0  0  0  0  0  0  0  0  0  0
  -29.3738  -15.9883   20.7227 N   0  0  0  0  0  0  0  0  0  0  0  0
  -24.7920  -15.2448   19.8524 N   0  0  0  0  0  0  0  0  0  0  0  0
  -22.1605  -12.1647   21.8486 N   0  0  0  0  0  0  0  0  0  0  0  0
  -28.4597  -18.1622   20.7572 N   0  0  0  0  0  0  0  0  0  0  0  0
  -25.8907  -22.1526   21.0599 N   0  0  0  0  0  0  0  0  0  0  0  0
  -30.3252  -22.3200   19.5112 N   0  0  0  0  0  0  0  0  0  0  0  0
  -22.5642  -30.6660   20.3778 N   0  0  0  0  0  0  0  0  0  0  0  0
  -24.9833  -30.6415   26.4756 N   0  0  0  0  0  0  0  0  0  0  0  0
  -31.2012  -25.7929   20.1841 N   0  3  2  0  0  0  0  0  0  0  0  0
  -23.8407  -28.9469   29.4573 N   0  3  0  0  0  0  0  0  0  0  0  0
  -22.1591  -14.1266   20.6612 O   0  0  0  0  0  0  0  0  0  0  0  0
  -24.3109  -29.2574   21.0001 O   0  0  0  0  0  0  0  0  0  0  0  0
  -23.5932  -31.7425   24.2252 O   0  0  0  0  0  0  0  0  0  0  0  0
  -25.3753  -28.4579   27.1503 O   0  0  0  0  0  0  0  0  0  0  0  0
  -30.6434  -17.8034   20.0610 O   0  0  0  0  0  0  0  0  0  0  0  0
  -23.8856   -7.5684   24.4818 O   0  0  0  0  0  0  0  0  0  0  0  0
  -24.0202  -23.3966   22.8031 O   0  0  0  0  0  0  0  0  0  1  0  0
  -19.7657   -4.4398   22.5733 F   0  0  0  0  0  0  0  0  0  0  0  0
  -21.3277   -8.5876   24.2351 F   0  0  0  0  0  0  0  0  0  0  0  0
  1  2  1  0  0  0  0
  1  5  2  0  0  0  0
  2  6  2  0  0  0  0
  3  8  2  0  0  0  0
  3 16  1  0  0  0  0
  4  9  1  0  0  0  0
  4 16  2  0  0  0  0
  5 18  1  0  0  0  0
  6 20  1  0  0  0  0
  7 10  2  0  0  0  0
  7 19  1  0  0  0  0
  8 22  1  0  0  0  0
  9 22  2  0  0  0  0
 10 23  1  0  0  0  0
 11 12  2  0  0  0  0
 11 24  1  0  0  0  0
 12 25  1  0  0  0  0
 13 21  1  0  0  0  0
 13 23  2  0  0  0  0
 14 25  2  0  0  0  0
 14 26  1  0  0  0  0
 15 28  2  0  0  0  0
 15 29  1  0  0  0  0
 16 27  1  0  0  0  0
 17 27  1  0  0  0  0
 17 30  2  0  0  0  0
 17 32  1  0  0  0  0
 18 20  2  0  0  0  0
 18 37  1  0  0  0  0
 19 21  2  0  0  0  0
 19 38  1  0  0  0  0
 20 49  1  0  0  0  0
 21 39  1  0  0  0  0
 22 84  1  0  0  0  0
 23 85  1  0  0  0  0
 24 26  2  0  0  0  0
 24 84  1  0  0  0  0
 25 86  1  0  0  0  0
 26 87  1  0  0  0  0
 27 64  2  0  0  0  0
 28 65  1  0  0  0  0
 28 72  1  0  0  0  0
 29 66  2  0  0  0  0
 29 73  1  0  0  0  0
 30 67  1  0  0  0  0
 30 70  1  0  0  0  0
 31 65  2  0  0  0  0
 31 66  1  0  0  0  0
 31 74  1  0  0  0  0
 32 71  1  0  0  0  0
 32 79  2  0  0  0  0
 33 50  1  0  0  0  0
 33 75  1  0  0  0  0
 33 80  2  0  0  0  0
 34 61  1  0  0  0  0
 34 68  1  0  0  0  0
 34 81  2  0  0  0  0
 35 62  1  0  0  0  0
 35 76  1  0  0  0  0
 35 82  2  0  0  0  0
 36 69  1  0  0  0  0
 36 72  1  0  0  0  0
 36 83  2  0  0  0  0
 37 40  1  0  0  0  0
 38 50  1  0  0  0  0
 39 68  1  0  0  0  0
 40 42  1  0  0  0  0
 41 43  1  0  0  0  0
 41 45  1  0  0  0  0
 42 49  1  0  0  0  0
 43 51  1  0  0  0  0
 44 47  1  0  0  0  0
 44 52  1  0  0  0  0
 45 69  1  0  0  0  0
 46 51  1  0  0  0  0
 46 69  1  0  0  0  0
 47 77  1  0  0  0  0
 48 52  1  0  0  0  0
 48 77  1  0  0  0  0
 49 75  1  0  0  0  0
 50 68  1  0  0  0  0
 51 67  1  0  0  0  0
 52 74  1  0  0  0  0
 53 62  1  0  0  0  0
 54 63  1  0  0  0  0
 55 63  1  0  0  0  0
 56 63  1  0  0  0  0
 57 77  1  0  0  0  0
 58 78  1  0  0  0  0
 59 60  1  0  0  0  0
 59 73  1  0  0  0  0
 60 85  1  0  0  0  0
 61 63  1  0  0  0  0
 61 76  1  0  0  0  0
 62 78  1  0  0  0  0
 64 67  1  0  0  0  0
M  CHG  2  77   1  78   1
M  ISO  4  36 100  60 101  72 100  85 101
M  END
> <Batch ID>
0189

> <Smiles>
CNC(C)C(=O)NC(C(=O)N1Cc2cc([101O:1][101CH2:1]CNc3cc([100NH:0][100C:0](=O)N4CCCC(n5nc(-c6ccc(Oc7ccc(F)cc7F)cc6)c(C(N)=O)c5N)C4)nc(NC4CCN(C)C4)n3)ccc2CC1C(=O)NC1CCCc2ccccc21)C(C)(C)C

> <Shape>
0.305

> <Color>
0.126

> <Negative vol penalty>
0.000

$$$$

  -OEChem-04052323223D

 84 93  0     1  0  0  0  0  0999 V2000
  -25.5906  -38.5942   21.0557 C   0  0  0  0  0  0  0  0  0  0  0  0
  -25.9829  -37.6102   20.1538 C   0  0  0  0  0  0  0  0  0  0  0  0
  -23.4084  -10.1736   22.1181 C   0  0  0  0  0  0  0  0  0  0  0  0
  -24.4672   -8.8205   20.4196 C   0  0  0  0  0  0  0  0  0  0  0  0
  -25.5847  -38.3224   22.4231 C   0  0  0  0  0  0  0  0  0  0  0  0
  -26.3705  -36.3542   20.6190 C   0  0  0  0  0  0  0  0  0  0  0  0
  -26.2330  -29.4324   18.7788 C   0  0  0  0  0  0  0  0  0  0  0  0
  -22.2100   -9.4890   21.9166 C   0  0  0  0  0  0  0  0  0  0  0  0
  -23.2688   -8.1358   20.2181 C   0  0  0  0  0  0  0  0  0  0  0  0
  -27.0843  -28.3365   18.6445 C   0  0  0  0  0  0  0  0  0  0  0  0
  -20.5846   -5.7881   19.5097 C   0  0  0  0  0  0  0  0  0  0  0  0
  -20.6401   -4.3980   19.4089 C   0  0  0  0  0  0  0  0  0  0  0  0
  -26.9588  -27.9552   21.0232 C   0  0  0  0  0  0  0  0  0  0  0  0
  -21.5813   -4.2744   21.6306 C   0  0  0  0  0  0  0  0  0  0  0  0
  -28.5110  -24.1712   19.2752 C   0  0  0  0  0  0  0  0  0  0  0  0
  -24.5370   -9.8395   21.3696 C   0  0  0  0  0  0  0  0  0  0  0  0
  -26.8023  -10.2156   22.4807 C   0  0  0  0  0  0  0  0  0  0  0  0
  -25.9632  -37.0593   22.9047 C   0  0  0  0  0  0  0  0  0  0  0  0
  -25.7461  -29.8051   20.0399 C   0  0  0  0  0  0  0  0  0  0  0  0
  -26.3709  -36.0657   21.9943 C   0  0  0  0  0  0  0  0  0  0  0  0
  -26.0994  -29.0547   21.1704 C   0  0  0  0  0  0  0  0  0  0  0  0
  -22.1402   -8.4700   20.9666 C   0  0  0  0  0  0  0  0  0  0  0  0
  -27.4497  -27.5995   19.7672 C   0  0  0  0  0  0  0  0  0  0  0  0
  -21.0275   -6.4214   20.6710 C   0  0  0  0  0  0  0  0  0  0  0  0
  -21.1384   -3.6412   20.4693 C   0  0  0  0  0  0  0  0  0  0  0  0
  -21.5258   -5.6645   21.7314 C   0  0  0  0  0  0  0  0  0  0  0  0
  -25.7751  -10.5468   21.5769 C   0  0  0  0  0  0  0  0  0  0  0  0
  -25.8508  -24.0127   19.1147 C   0  0  0  0  0  0  0  0  0  0  0  0
  -26.6394  -22.8917   18.9761 C   0  0  0  0  0  0  0  0  0  0  0  0
  -27.7224  -25.2923   19.4136 C   0  0  0  0  0  0  0  0  0  1  0  0
  -27.7514  -11.1908   22.2942 C   0  0  0  0  0  0  0  0  0  0  0  0
  -26.8907   -9.1240   23.4061 C   0  0  0  0  0  0  0  0  0  0  0  0
  -26.0061  -32.3908   21.8703 C   0  0  0  0  0  0  0  0  0  0  0  0
  -23.8649  -30.8139   23.7279 C   0  0  0  0  0  0  0  0  0  0  0  0
  -22.4946  -27.8370   24.6804 C   0  0  0  0  0  0  0  0  0  0  0  0
  -27.5551  -16.6903   20.5263 C   0  0  0  0  0  0  0  0  0  0  0  0
  -25.9860  -36.8275   24.3948 C   0  0  0  0  0  0  0  0  0  0  0  0
  -24.8073  -30.9737   20.1642 C   0  0  0  0  0  0  0  0  0  0  0  0
  -25.5877  -29.4012   22.5439 C   0  0  0  0  0  0  0  0  0  0  0  0
  -26.0525  -35.3520   24.7807 C   0  0  0  0  0  0  0  0  0  0  0  0
  -29.4615  -14.1777   18.9784 C   0  0  0  0  0  0  0  0  0  0  0  0
  -27.1121  -34.6311   23.9535 C   0  0  0  0  0  0  0  0  0  0  0  0
  -28.8280  -12.9145   19.5606 C   0  0  0  0  0  0  0  0  0  0  0  0
  -28.4141  -15.2383   18.6345 C   0  0  0  0  0  0  0  0  0  0  0  0
  -27.6673  -18.0842   18.4123 C   0  0  0  0  0  0  0  0  0  0  0  0
  -28.2647  -19.0611   20.5979 C   0  0  0  0  0  0  0  0  0  0  0  0
  -26.8793  -14.3147   20.3406 C   0  0  0  0  0  0  0  0  0  0  0  0
  -26.6150  -19.1687   18.2045 C   0  0  0  0  0  0  0  0  0  0  0  0
  -27.2081  -20.1418   20.4357 C   0  0  0  0  0  0  0  0  0  0  0  0
  -26.7746  -34.6830   22.4586 C   0  0  1  0  0  0  0  0  0  0  0  0
  -24.7824  -31.5735   21.5667 C   0  0  1  0  0  0  0  0  0  0  0  0
  -27.9125  -13.2538   20.7503 C   0  0  1  0  0  0  0  0  0  0  0  0
  -24.3651  -23.9336   19.0266 C   0  0  0  0  0  0  0  0  0  0  0  0
  -20.7919  -26.8633   26.2458 C   0  0  0  0  0  0  0  0  0  0  0  0
  -25.7908  -31.2047   26.0620 C   0  0  0  0  0  0  0  0  0  0  0  0
  -24.5268  -29.4402   27.3098 C   0  0  0  0  0  0  0  0  0  0  0  0
  -23.3797  -31.5486   26.6302 C   0  0  0  0  0  0  0  0  0  0  0  0
  -20.9018  -26.7303   22.4449 C   0  0  0  0  0  0  0  0  0  0  0  0
  -26.0395  -21.5388   18.7299 C   0  0  0  0  0  0  0  0  0  0  0  0
  -23.9598  -29.8300   24.8689 C   0  0  1  0  0  0  0  0  0  0  0  0
  -21.0502  -27.4003   24.8466 C   0  0  2  0  0  0  0  0  0  0  0  0
  -24.4256  -30.5002   26.1922 C   0  0  0  0  0  0  0  0  0  0  0  0
  -27.9836  -22.9507   19.0541 N   0  0  0  0  0  0  0  0  0  0  0  0
  -26.0460  -11.6465   20.8689 N   0  0  0  0  0  0  0  0  0  0  0  0
  -26.3782  -25.2332   19.3359 N   0  0  0  0  0  0  0  0  0  0  0  0
  -27.2542  -12.0149   21.3279 N   0  0  0  0  0  0  0  0  0  0  0  0
  -24.6775  -30.5562   22.6148 N   0  0  0  0  0  0  0  0  0  0  0  0
  -27.5392  -15.4987   19.7862 N   0  0  0  0  0  0  0  0  0  0  0  0
  -27.9153  -17.8605   19.8417 N   0  0  0  0  0  0  0  0  0  0  0  0
  -28.9543  -11.4152   22.8643 N   0  0  0  0  0  0  0  0  0  0  0  0
  -25.8269   -8.2137   23.4692 N   0  0  0  0  0  0  0  0  0  0  0  0
  -25.7422  -33.7202   22.1398 N   0  0  0  0  0  0  0  0  0  0  0  0
  -22.6574  -29.1783   24.9554 N   0  0  0  0  0  0  0  0  0  0  0  0
  -27.0085  -20.4135   18.9629 N   0  3  0  0  0  0  0  0  0  0  0  0
  -20.7161  -26.3310   23.8637 N   0  3  0  0  0  0  0  0  0  0  0  0
  -27.8764   -8.9699   24.1665 O   0  0  0  0  0  0  0  0  0  0  0  0
  -27.1080  -31.8547   21.8621 O   0  0  0  0  0  0  0  0  0  0  0  0
  -23.0927  -31.7716   23.8179 O   0  0  0  0  0  0  0  0  0  0  0  0
  -23.3895  -27.0646   24.3442 O   0  0  0  0  0  0  0  0  0  0  0  0
  -27.2637  -16.7078   21.7289 O   0  0  0  0  0  0  0  0  0  0  0  0
  -20.9710   -7.8015   20.7699 O   0  0  0  0  0  0  0  0  0  0  0  0
  -28.2942  -26.5127   19.6370 O   0  0  0  0  0  0  0  0  0  1  0  0
  -21.1903   -2.3062   20.3729 F   0  0  0  0  0  0  0  0  0  0  0  0
  -21.9517   -6.2672   22.8500 F   0  0  0  0  0  0  0  0  0  0  0  0
  1  2  1  0  0  0  0
  1  5  2  0  0  0  0
  2  6  2  0  0  0  0
  3  8  2  0  0  0  0
  3 16  1  0  0  0  0
  4  9  1  0  0  0  0
  4 16  2  0  0  0  0
  5 18  1  0  0  0  0
  6 20  1  0  0  0  0
  7 10  2  0  0  0  0
  7 19  1  0  0  0  0
  8 22  1  0  0  0  0
  9 22  2  0  0  0  0
 10 23  1  0  0  0  0
 11 12  2  0  0  0  0
 11 24  1  0  0  0  0
 12 25  1  0  0  0  0
 13 21  1  0  0  0  0
 13 23  2  0  0  0  0
 14 25  2  0  0  0  0
 14 26  1  0  0  0  0
 15 30  1  0  0  0  0
 15 63  2  0  0  0  0
 16 27  1  0  0  0  0
 17 27  1  0  0  0  0
 17 31  2  0  0  0  0
 17 32  1  0  0  0  0
 18 20  2  0  0  0  0
 18 37  1  0  0  0  0
 19 21  2  0  0  0  0
 19 38  1  0  0  0  0
 20 50  1  0  0  0  0
 21 39  1  0  0  0  0
 22 81  1  0  0  0  0
 23 82  1  0  0  0  0
 24 26  2  0  0  0  0
 24 81  1  0  0  0  0
 25 83  1  0  0  0  0
 26 84  1  0  0  0  0
 27 64  2  0  0  0  0
 28 29  2  0  0  0  0
 28 53  1  0  0  0  0
 28 65  1  0  0  0  0
 29 59  1  0  0  0  0
 29 63  1  0  0  0  0
 30 65  2  0  0  0  0
 30 82  1  0  0  0  0
 31 66  1  0  0  0  0
 31 70  1  0  0  0  0
 32 71  1  0  0  0  0
 32 76  2  0  0  0  0
 33 51  1  0  0  0  0
 33 72  1  0  0  0  0
 33 77  2  0  0  0  0
 34 60  1  0  0  0  0
 34 67  1  0  0  0  0
 34 78  2  0  0  0  0
 35 61  1  0  0  0  0
 35 73  1  0  0  0  0
 35 79  2  0  0  0  0
 36 68  1  0  0  0  0
 36 69  1  0  0  0  0
 36 80  2  0  0  0  0
 37 40  1  0  0  0  0
 38 51  1  0  0  0  0
 39 67  1  0  0  0  0
 40 42  1  0  0  0  0
 41 43  1  0  0  0  0
 41 44  1  0  0  0  0
 42 50  1  0  0  0  0
 43 52  1  0  0  0  0
 44 68  1  0  0  0  0
 45 48  1  0  0  0  0
 45 69  1  0  0  0  0
 46 49  1  0  0  0  0
 46 69  1  0  0  0  0
 47 52  1  0  0  0  0
 47 68  1  0  0  0  0
 48 74  1  0  0  0  0
 49 74  1  0  0  0  0
 50 72  1  0  0  0  0
 51 67  1  0  0  0  0
 52 66  1  0  0  0  0
 54 61  1  0  0  0  0
 55 62  1  0  0  0  0
 56 62  1  0  0  0  0
 57 62  1  0  0  0  0
 58 75  1  0  0  0  0
 59 74  1  0  0  0  0
 60 62  1  0  0  0  0
 60 73  1  0  0  0  0
 61 75  1  0  0  0  0
 64 66  1  0  0  0  0
M  CHG  2  74   1  75   1
M  ISO  4  30 101  36 100  69 100  82 101
M  END
> <Batch ID>
0189

> <Smiles>
CNC(C)C(=O)NC(C(=O)N1Cc2cc([101O:1][101c:1]3cnc(CN4CC[100N:0]([100C:0](=O)N5CCCC(n6nc(-c7ccc(Oc8ccc(F)cc8F)cc7)c(C(N)=O)c6N)C5)CC4)c(C)n3)ccc2CC1C(=O)NC1CCCc2ccccc21)C(C)(C)C

> <Shape>
0.264

> <Color>
0.100

> <Negative vol penalty>
0.000

$$$$

  -OEChem-04052323223D

 86 96  0     1  0  0  0  0  0999 V2000
  -31.1681  -33.4714   21.5739 C   0  0  0  0  0  0  0  0  0  0  0  0
  -31.2402  -32.1917   21.0332 C   0  0  0  0  0  0  0  0  0  0  0  0
  -23.1743  -10.0314   19.8468 C   0  0  0  0  0  0  0  0  0  0  0  0
  -23.7318   -9.9145   22.1947 C   0  0  0  0  0  0  0  0  0  0  0  0
  -30.2452  -33.7505   22.5810 C   0  0  0  0  0  0  0  0  0  0  0  0
  -30.3902  -31.1898   21.5002 C   0  0  0  0  0  0  0  0  0  0  0  0
  -27.9246  -26.6346   18.2326 C   0  0  0  0  0  0  0  0  0  0  0  0
  -22.3793   -8.8930   19.9789 C   0  0  0  0  0  0  0  0  0  0  0  0
  -22.9368   -8.7760   22.3268 C   0  0  0  0  0  0  0  0  0  0  0  0
  -28.2832  -25.2975   18.0680 C   0  0  0  0  0  0  0  0  0  0  0  0
  -19.6472   -8.0568   22.6134 C   0  0  0  0  0  0  0  0  0  0  0  0
  -18.7905   -7.9904   23.7121 C   0  0  0  0  0  0  0  0  0  0  0  0
  -26.7121  -24.6706   19.7878 C   0  0  0  0  0  0  0  0  0  0  0  0
  -19.9080   -5.9840   24.4622 C   0  0  0  0  0  0  0  0  0  0  0  0
  -23.8507  -10.5422   20.9548 C   0  0  0  0  0  0  0  0  0  0  0  0
  -24.2728  -13.0579   20.9808 C   0  0  0  0  0  0  0  0  0  0  0  0
  -29.3769  -32.7540   23.0539 C   0  0  0  0  0  0  0  0  0  0  0  0
  -26.9632  -27.0016   19.1852 C   0  0  0  0  0  0  0  0  0  0  0  0
  -29.4558  -31.4554   22.5156 C   0  0  0  0  0  0  0  0  0  0  0  0
  -26.3411  -26.0129   19.9608 C   0  0  0  0  0  0  0  0  0  0  0  0
  -30.3514  -20.7106   17.0288 C   0  0  0  0  0  0  0  0  0  0  0  0
  -22.2605   -8.2653   21.2188 C   0  0  0  0  0  0  0  0  0  0  0  0
  -27.6791  -24.3155   18.8477 C   0  0  0  0  0  0  0  0  0  0  0  0
  -20.6343   -7.0868   22.4390 C   0  0  0  0  0  0  0  0  0  0  0  0
  -18.9209   -6.9540   24.6365 C   0  0  0  0  0  0  0  0  0  0  0  0
  -20.7647   -6.0504   23.3634 C   0  0  0  0  0  0  0  0  0  0  0  0
  -24.6725  -11.7178   20.8189 C   0  0  0  0  0  0  0  0  0  0  0  0
  -30.4572  -19.3348   17.0494 C   0  0  0  0  0  0  0  0  0  0  0  0
  -29.2431  -21.2337   17.6632 C   0  0  0  0  0  0  0  0  0  0  0  0
  -25.4131  -13.7870   20.7472 C   0  0  0  0  0  0  0  0  0  0  0  0
  -28.5203  -19.1532   18.2253 C   0  0  0  0  0  0  0  0  0  0  0  0
  -22.9857  -13.5955   21.3127 C   0  0  0  0  0  0  0  0  0  0  0  0
  -26.9691  -28.8197   21.7926 C   0  0  0  0  0  0  0  0  0  0  0  0
  -23.7801  -28.2283   21.7389 C   0  0  0  0  0  0  0  0  0  0  0  0
  -21.2271  -26.1944   20.7427 C   0  0  0  0  0  0  0  0  0  0  0  0
  -29.7923  -14.7816   17.5558 C   0  0  0  0  0  0  0  0  0  0  0  0
  -28.4283  -33.0909   24.1770 C   0  0  0  0  0  0  0  0  0  0  0  0
  -26.5681  -28.4455   19.3319 C   0  0  0  0  0  0  0  0  0  0  0  0
  -25.2887  -26.3524   20.9832 C   0  0  0  0  0  0  0  0  0  0  0  0
  -27.3074  -32.0699   24.3545 C   0  0  0  0  0  0  0  0  0  0  0  0
  -30.2224  -12.3472   20.2946 C   0  0  0  0  0  0  0  0  0  0  0  0
  -30.9203  -22.5516   15.3081 C   0  0  0  0  0  0  0  0  0  0  0  0
  -31.6992  -21.3356   14.9143 C   0  0  0  0  0  0  0  0  0  0  0  0
  -27.8679  -30.6515   24.3261 C   0  0  0  0  0  0  0  0  0  0  0  0
  -28.7695  -12.0419   20.6466 C   0  0  0  0  0  0  0  0  0  0  0  0
  -33.0588  -16.4649   16.5169 C   0  0  0  0  0  0  0  0  0  0  0  0
  -30.4051  -12.6243   18.8030 C   0  0  0  0  0  0  0  0  0  0  0  0
  -28.0538  -13.3908   18.6358 C   0  0  0  0  0  0  0  0  0  0  0  0
  -31.3670  -21.5744   16.3649 C   0  0  0  0  0  0  0  0  0  0  0  0
  -28.5337  -30.3483   22.9785 C   0  0  1  0  0  0  0  0  0  0  0  0
  -25.9496  -28.7607   20.6904 C   0  0  1  0  0  0  0  0  0  0  0  0
  -31.9764  -17.3405   17.0820 C   0  0  2  0  0  0  0  0  0  0  0  0
  -27.8426  -13.1574   20.1396 C   0  0  1  0  0  0  0  0  0  0  0  0
  -31.6199  -16.0244   16.4388 C   0  0  2  0  0  0  0  0  0  0  0  0
  -27.5032  -18.2883   18.8893 C   0  0  0  0  0  0  0  0  0  0  0  0
  -18.7332  -25.9516   20.8811 C   0  0  0  0  0  0  0  0  0  0  0  0
  -24.0360  -27.2703   24.6245 C   0  0  0  0  0  0  0  0  0  0  0  0
  -21.7937  -26.1818   24.3885 C   0  0  0  0  0  0  0  0  0  0  0  0
  -22.0068  -28.6569   24.1616 C   0  0  0  0  0  0  0  0  0  0  0  0
  -20.9315  -26.3596   17.8025 C   0  0  0  0  0  0  0  0  0  0  0  0
  -31.6140  -18.6535   16.3948 C   0  0  0  0  0  0  0  0  0  0  0  0
  -29.0197  -22.7168   17.7064 C   0  0  0  0  0  0  0  0  0  1  0  0
  -22.8804  -27.1634   22.3181 C   0  0  1  0  0  0  0  0  0  0  0  0
  -19.8993  -26.4990   20.0728 C   0  0  2  0  0  0  0  0  0  0  0  0
  -22.7004  -27.3116   23.8554 C   0  0  0  0  0  0  0  0  0  0  0  0
  -25.9658  -11.5997   20.5064 N   0  0  0  0  0  0  0  0  0  0  0  0
  -29.5566  -18.5225   17.6406 N   0  0  0  0  0  0  0  0  0  0  0  0
  -28.3041  -20.4815   18.2737 N   0  0  0  0  0  0  0  0  0  0  0  0
  -26.3885  -12.8749   20.4700 N   0  0  0  0  0  0  0  0  0  0  0  0
  -24.9410  -27.7788   21.0938 N   0  0  0  0  0  0  0  0  0  0  0  0
  -29.4648  -13.6497   18.3239 N   0  0  0  0  0  0  0  0  0  0  0  0
  -25.6665  -15.1129   20.7538 N   0  0  0  0  0  0  0  0  0  0  0  0
  -21.9231  -12.7055   21.5199 N   0  0  0  0  0  0  0  0  0  0  0  0
  -27.5325  -30.0687   21.9716 N   0  0  0  0  0  0  0  0  0  0  0  0
  -21.6344  -27.2261   21.5618 N   0  0  0  0  0  0  0  0  0  0  0  0
  -31.1355  -14.9213   17.2249 N   0  0  0  0  0  0  0  0  0  0  0  0
  -19.8542  -25.8921   18.7124 N   0  3  0  0  0  0  0  0  0  0  0  0
  -22.7802  -14.8294   21.4062 O   0  0  0  0  0  0  0  0  0  0  0  0
  -27.2246  -27.8074   22.4342 O   0  0  0  0  0  0  0  0  0  0  0  0
  -23.4610  -29.4148   21.8482 O   0  0  0  0  0  0  0  0  0  0  0  0
  -21.8397  -25.1446   20.5606 O   0  0  0  0  0  0  0  0  0  0  0  0
  -28.9496  -15.6065   17.1855 O   0  0  0  0  0  0  0  0  0  0  0  0
  -21.4846   -7.1545   21.3481 O   0  0  0  0  0  0  0  0  0  0  0  0
  -28.0278  -23.0097   18.6896 O   0  0  0  0  0  0  0  0  0  1  0  0
  -18.0991   -6.8912   25.6924 F   0  0  0  0  0  0  0  0  0  0  0  0
  -21.7118   -5.1162   23.2018 F   0  0  0  0  0  0  0  0  0  0  0  0
  1  2  1  0  0  0  0
  1  5  2  0  0  0  0
  2  6  2  0  0  0  0
  3  8  2  0  0  0  0
  3 15  1  0  0  0  0
  4  9  1  0  0  0  0
  4 15  2  0  0  0  0
  5 17  1  0  0  0  0
  6 19  1  0  0  0  0
  7 10  2  0  0  0  0
  7 18  1  0  0  0  0
  8 22  1  0  0  0  0
  9 22  2  0  0  0  0
 10 23  1  0  0  0  0
 11 12  2  0  0  0  0
 11 24  1  0  0  0  0
 12 25  1  0  0  0  0
 13 20  1  0  0  0  0
 13 23  2  0  0  0  0
 14 25  2  0  0  0  0
 14 26  1  0  0  0  0
 15 27  1  0  0  0  0
 16 27  1  0  0  0  0
 16 30  2  0  0  0  0
 16 32  1  0  0  0  0
 17 19  2  0  0  0  0
 17 37  1  0  0  0  0
 18 20  2  0  0  0  0
 18 38  1  0  0  0  0
 19 50  1  0  0  0  0
 20 39  1  0  0  0  0
 21 28  1  0  0  0  0
 21 29  2  0  0  0  0
 21 49  1  0  0  0  0
 22 83  1  0  0  0  0
 23 84  1  0  0  0  0
 24 26  2  0  0  0  0
 24 83  1  0  0  0  0
 25 85  1  0  0  0  0
 26 86  1  0  0  0  0
 27 66  2  0  0  0  0
 28 61  1  0  0  0  0
 28 67  2  0  0  0  0
 29 62  1  0  0  0  0
 29 68  1  0  0  0  0
 30 69  1  0  0  0  0
 30 72  1  0  0  0  0
 31 55  1  0  0  0  0
 31 67  1  0  0  0  0
 31 68  2  0  0  0  0
 32 73  1  0  0  0  0
 32 78  2  0  0  0  0
 33 51  1  0  0  0  0
 33 74  1  0  0  0  0
 33 79  2  0  0  0  0
 34 63  1  0  0  0  0
 34 70  1  0  0  0  0
 34 80  2  0  0  0  0
 35 64  1  0  0  0  0
 35 75  1  0  0  0  0
 35 81  2  0  0  0  0
 36 71  1  0  0  0  0
 36 76  1  0  0  0  0
 36 82  2  0  0  0  0
 37 40  1  0  0  0  0
 38 51  1  0  0  0  0
 39 70  1  0  0  0  0
 40 44  1  0  0  0  0
 41 45  1  0  0  0  0
 41 47  1  0  0  0  0
 42 43  1  0  0  0  0
 42 49  1  0  0  0  0
 43 49  1  0  0  0  0
 44 50  1  0  0  0  0
 45 53  1  0  0  0  0
 46 52  1  0  0  0  0
 46 54  1  0  0  0  0
 47 71  1  0  0  0  0
 48 53  1  0  0  0  0
 48 71  1  0  0  0  0
 50 74  1  0  0  0  0
 51 70  1  0  0  0  0
 52 54  1  0  0  0  0
 52 61  1  0  0  0  0
 53 69  1  0  0  0  0
 54 76  1  0  0  0  0
 56 64  1  0  0  0  0
 57 65  1  0  0  0  0
 58 65  1  0  0  0  0
 59 65  1  0  0  0  0
 60 77  1  0  0  0  0
 62 84  1  0  0  0  0
 63 65  1  0  0  0  0
 63 75  1  0  0  0  0
 64 77  1  0  0  0  0
 66 69  1  0  0  0  0
M  CHG  1  77   1
M  ISO  4  36 100  62 101  76 100  84 101
M  END
> <Batch ID>
0189

> <Smiles>
CNC(C)C(=O)NC(C(=O)N1Cc2cc([101O:1][101CH2:1]c3nc(C)nc(CC4CC4[100NH:0][100C:0](=O)N4CCCC(n5nc(-c6ccc(Oc7ccc(F)cc7F)cc6)c(C(N)=O)c5N)C4)c3C3CC3)ccc2CC1C(=O)NC1CCCc2ccccc21)C(C)(C)C

> <Shape>
0.261

> <Color>
0.183

> <Negative vol penalty>
0.000

$$$$

  -OEChem-04052323223D

 84 93  0     1  0  0  0  0  0999 V2000
  -17.3413  -27.1138   19.6791 C   0  0  0  0  0  0  0  0  0  0  0  0
  -18.5224  -27.7097   19.2487 C   0  0  0  0  0  0  0  0  0  0  0  0
  -25.4896  -14.6894   21.8801 C   0  0  0  0  0  0  0  0  0  0  0  0
  -26.3728  -13.1657   20.2263 C   0  0  0  0  0  0  0  0  0  0  0  0
  -17.2056  -26.7189   21.0094 C   0  0  0  0  0  0  0  0  0  0  0  0
  -19.5682  -27.9120   20.1485 C   0  0  0  0  0  0  0  0  0  0  0  0
  -25.5664  -27.6071   18.9508 C   0  0  0  0  0  0  0  0  0  0  0  0
  -24.2779  -13.9987   21.8695 C   0  0  0  0  0  0  0  0  0  0  0  0
  -25.1611  -12.4748   20.2157 C   0  0  0  0  0  0  0  0  0  0  0  0
  -26.5210  -28.5880   18.6855 C   0  0  0  0  0  0  0  0  0  0  0  0
  -23.5850  -10.1838   22.1359 C   0  0  0  0  0  0  0  0  0  0  0  0
  -23.6349   -8.7903   22.1708 C   0  0  0  0  0  0  0  0  0  0  0  0
  -27.1693  -28.5770   21.0090 C   0  0  0  0  0  0  0  0  0  0  0  0
  -22.4738   -8.6958   20.0542 C   0  0  0  0  0  0  0  0  0  0  0  0
  -30.5080  -30.5537   18.8340 C   0  0  0  0  0  0  0  0  0  0  0  0
  -26.5371  -14.2730   21.0585 C   0  0  0  0  0  0  0  0  0  0  0  0
  -28.9027  -14.7374   21.8927 C   0  0  0  0  0  0  0  0  0  0  0  0
  -18.2539  -26.9077   21.9238 C   0  0  0  0  0  0  0  0  0  0  0  0
  -25.3984  -27.1108   20.2515 C   0  0  0  0  0  0  0  0  0  0  0  0
  -19.4460  -27.5204   21.4926 C   0  0  0  0  0  0  0  0  0  0  0  0
  -26.2137  -27.5880   21.2877 C   0  0  0  0  0  0  0  0  0  0  0  0
  -24.1136  -12.8914   21.0373 C   0  0  0  0  0  0  0  0  0  0  0  0
  -27.3207  -29.0752   19.7152 C   0  0  0  0  0  0  0  0  0  0  0  0
  -22.9794  -10.8333   21.0603 C   0  0  0  0  0  0  0  0  0  0  0  0
  -23.0793   -8.0463   21.1299 C   0  0  0  0  0  0  0  0  0  0  0  0
  -22.4238  -10.0894   20.0194 C   0  0  0  0  0  0  0  0  0  0  0  0
  -27.7888  -14.9865   21.0686 C   0  0  0  0  0  0  0  0  0  0  0  0
  -31.9812  -28.8539   18.4202 C   0  0  0  0  0  0  0  0  0  0  0  0
  -30.9941  -27.9322   18.6917 C   0  0  0  0  0  0  0  0  0  0  0  0
  -29.5209  -29.6320   19.1057 C   0  0  0  0  0  0  0  0  0  1  0  0
  -29.8267  -15.6810   21.5156 C   0  0  0  0  0  0  0  0  0  0  0  0
  -29.0857  -13.7420   22.9083 C   0  0  0  0  0  0  0  0  0  0  0  0
  -23.0132  -27.0865   22.3525 C   0  0  0  0  0  0  0  0  0  0  0  0
  -25.0469  -25.2165   24.0523 C   0  0  0  0  0  0  0  0  0  0  0  0
  -28.3143  -24.3166   25.2900 C   0  0  0  0  0  0  0  0  0  0  0  0
  -29.1014  -21.0319   19.0724 C   0  0  0  0  0  0  0  0  0  0  0  0
  -18.0431  -26.5075   23.3625 C   0  0  0  0  0  0  0  0  0  0  0  0
  -24.3826  -26.0336   20.5161 C   0  0  0  0  0  0  0  0  0  0  0  0
  -26.0868  -27.0736   22.6976 C   0  0  0  0  0  0  0  0  0  0  0  0
  -19.3382  -26.4165   24.1655 C   0  0  0  0  0  0  0  0  0  0  0  0
  -31.2019  -18.3141   17.7913 C   0  0  0  0  0  0  0  0  0  0  0  0
  -20.2117  -27.6407   23.9102 C   0  0  0  0  0  0  0  0  0  0  0  0
  -30.6136  -17.1166   18.5300 C   0  0  0  0  0  0  0  0  0  0  0  0
  -28.1388  -23.5256   17.0391 C   0  0  0  0  0  0  0  0  0  0  0  0
  -30.1434  -19.3630   17.4482 C   0  0  0  0  0  0  0  0  0  0  0  0
  -28.6832  -22.1265   16.7348 C   0  0  0  0  0  0  0  0  0  0  0  0
  -28.7582  -18.6035   19.3607 C   0  0  0  0  0  0  0  0  0  0  0  0
  -20.6122  -27.7343   22.4329 C   0  0  1  0  0  0  0  0  0  0  0  0
  -23.9457  -25.9700   21.9764 C   0  0  1  0  0  0  0  0  0  0  0  0
  -29.8282  -17.5800   19.7658 C   0  0  1  0  0  0  0  0  0  0  0  0
  -28.8933  -23.4821   18.3767 C   0  0  2  0  0  0  0  0  0  0  0  0
  -33.3574  -28.4288   18.0369 C   0  0  0  0  0  0  0  0  0  0  0  0
  -29.0470  -22.3735   26.6987 C   0  0  0  0  0  0  0  0  0  0  0  0
  -24.6618  -27.1390   26.3902 C   0  0  0  0  0  0  0  0  0  0  0  0
  -26.7001  -26.1461   27.4519 C   0  0  0  0  0  0  0  0  0  0  0  0
  -24.6987  -24.7200   27.0239 C   0  0  0  0  0  0  0  0  0  0  0  0
  -30.3403  -23.4874   23.2984 C   0  0  0  0  0  0  0  0  0  0  0  0
  -31.2581  -26.4573   18.6143 C   0  0  0  0  0  0  0  0  0  0  0  0
  -30.2346  -24.1849   18.4483 C   0  0  0  0  0  0  0  0  0  0  0  0
  -26.1271  -25.4678   25.0765 C   0  0  1  0  0  0  0  0  0  0  0  0
  -28.9370  -22.9322   25.2886 C   0  0  2  0  0  0  0  0  0  0  0  0
  -25.5482  -25.8795   26.4595 C   0  0  0  0  0  0  0  0  0  0  0  0
  -31.7559  -30.1813   18.4865 N   0  0  0  0  0  0  0  0  0  0  0  0
  -27.9852  -16.0084   20.2313 N   0  0  0  0  0  0  0  0  0  0  0  0
  -29.7462  -28.3046   19.0393 N   0  0  0  0  0  0  0  0  0  0  0  0
  -29.2331  -16.4098   20.5273 N   0  0  0  0  0  0  0  0  0  0  0  0
  -25.0749  -26.0250   22.9071 N   0  0  0  0  0  0  0  0  0  0  0  0
  -29.3358  -19.7297   18.6177 N   0  0  0  0  0  0  0  0  0  0  0  0
  -29.0503  -22.0451   18.1410 N   0  0  0  0  0  0  0  0  0  0  0  0
  -31.0809  -15.9502   21.9363 N   0  0  0  0  0  0  0  0  0  0  0  0
  -28.0349  -12.8517   23.1684 N   0  0  0  0  0  0  0  0  0  0  0  0
  -21.6783  -26.8010   22.1382 N   0  0  0  0  0  0  0  0  0  0  0  0
  -26.9486  -24.2625   25.1074 N   0  0  0  0  0  0  0  0  0  0  0  0
  -30.3026  -22.9790   24.6937 N   0  3  0  0  0  0  0  0  0  0  0  0
  -30.0118  -25.6418   18.5897 N   0  3  0  0  0  0  0  0  0  0  0  0
  -30.1435  -13.6553   23.5769 O   0  0  0  0  0  0  0  0  0  0  0  0
  -23.4709  -28.1294   22.8049 O   0  0  0  0  0  0  0  0  0  0  0  0
  -24.2134  -24.3306   24.2574 O   0  0  0  0  0  0  0  0  0  0  0  0
  -28.9729  -25.3431   25.4418 O   0  0  0  0  0  0  0  0  0  0  0  0
  -28.9121  -21.2820   20.2701 O   0  0  0  0  0  0  0  0  0  0  0  0
  -22.9314  -12.2169   21.0268 O   0  0  0  0  0  0  0  0  0  0  0  0
  -28.2675  -30.0483   19.4550 O   0  0  0  0  0  0  0  0  0  1  0  0
  -23.1286   -6.7081   21.1627 F   0  0  0  0  0  0  0  0  0  0  0  0
  -21.8418  -10.7078   18.9828 F   0  0  0  0  0  0  0  0  0  0  0  0
  1  2  1  0  0  0  0
  1  5  2  0  0  0  0
  2  6  2  0  0  0  0
  3  8  2  0  0  0  0
  3 16  1  0  0  0  0
  4  9  1  0  0  0  0
  4 16  2  0  0  0  0
  5 18  1  0  0  0  0
  6 20  1  0  0  0  0
  7 10  2  0  0  0  0
  7 19  1  0  0  0  0
  8 22  1  0  0  0  0
  9 22  2  0  0  0  0
 10 23  1  0  0  0  0
 11 12  2  0  0  0  0
 11 24  1  0  0  0  0
 12 25  1  0  0  0  0
 13 21  1  0  0  0  0
 13 23  2  0  0  0  0
 14 25  2  0  0  0  0
 14 26  1  0  0  0  0
 15 30  1  0  0  0  0
 15 63  2  0  0  0  0
 16 27  1  0  0  0  0
 17 27  1  0  0  0  0
 17 31  2  0  0  0  0
 17 32  1  0  0  0  0
 18 20  2  0  0  0  0
 18 37  1  0  0  0  0
 19 21  2  0  0  0  0
 19 38  1  0  0  0  0
 20 48  1  0  0  0  0
 21 39  1  0  0  0  0
 22 81  1  0  0  0  0
 23 82  1  0  0  0  0
 24 26  2  0  0  0  0
 24 81  1  0  0  0  0
 25 83  1  0  0  0  0
 26 84  1  0  0  0  0
 27 64  2  0  0  0  0
 28 29  2  0  0  0  0
 28 52  1  0  0  0  0
 28 63  1  0  0  0  0
 29 58  1  0  0  0  0
 29 65  1  0  0  0  0
 30 65  2  0  0  0  0
 30 82  1  0  0  0  0
 31 66  1  0  0  0  0
 31 70  1  0  0  0  0
 32 71  1  0  0  0  0
 32 76  2  0  0  0  0
 33 49  1  0  0  0  0
 33 72  1  0  0  0  0
 33 77  2  0  0  0  0
 34 60  1  0  0  0  0
 34 67  1  0  0  0  0
 34 78  2  0  0  0  0
 35 61  1  0  0  0  0
 35 73  1  0  0  0  0
 35 79  2  0  0  0  0
 36 68  1  0  0  0  0
 36 69  1  0  0  0  0
 36 80  2  0  0  0  0
 37 40  1  0  0  0  0
 38 49  1  0  0  0  0
 39 67  1  0  0  0  0
 40 42  1  0  0  0  0
 41 43  1  0  0  0  0
 41 45  1  0  0  0  0
 42 48  1  0  0  0  0
 43 50  1  0  0  0  0
 44 46  1  0  0  0  0
 44 51  1  0  0  0  0
 45 68  1  0  0  0  0
 46 69  1  0  0  0  0
 47 50  1  0  0  0  0
 47 68  1  0  0  0  0
 48 72  1  0  0  0  0
 49 67  1  0  0  0  0
 50 66  1  0  0  0  0
 51 59  1  0  0  0  0
 51 69  1  0  0  0  0
 53 61  1  0  0  0  0
 54 62  1  0  0  0  0
 55 62  1  0  0  0  0
 56 62  1  0  0  0  0
 57 74  1  0  0  0  0
 58 75  1  0  0  0  0
 59 75  1  0  0  0  0
 60 62  1  0  0  0  0
 60 73  1  0  0  0  0
 61 74  1  0  0  0  0
 64 66  1  0  0  0  0
M  CHG  2  74   1  75   1
M  ISO  4  30 101  36 100  69 100  82 101
M  END
> <Batch ID>
0189

> <Smiles>
CNC(C)C(=O)NC(C(=O)N1Cc2cc([101O:1][101c:1]3cnc(C)c(CNCC4CC[100N:0]4[100C:0](=O)N4CCCC(n5nc(-c6ccc(Oc7ccc(F)cc7F)cc6)c(C(N)=O)c5N)C4)n3)ccc2CC1C(=O)NC1CCCc2ccccc21)C(C)(C)C

> <Shape>
0.246

> <Color>
0.068

> <Negative vol penalty>
0.000

$$$$

  -OEChem-04052323223D

 81 90  0     1  0  0  0  0  0999 V2000
  -22.1107  -24.3995   21.2924 C   0  0  0  0  0  0  0  0  0  0  0  0
  -23.1535  -23.5548   20.9258 C   0  0  0  0  0  0  0  0  0  0  0  0
  -22.4345  -28.3194   21.1016 C   0  0  0  0  0  0  0  0  0  0  0  0
  -23.6460  -28.1177   23.1821 C   0  0  0  0  0  0  0  0  0  0  0  0
  -21.2328  -24.0214   22.3073 C   0  0  0  0  0  0  0  0  0  0  0  0
  -23.3196  -22.3318   21.5749 C   0  0  0  0  0  0  0  0  0  0  0  0
  -24.2476  -18.5343   18.3558 C   0  0  0  0  0  0  0  0  0  0  0  0
  -21.2322  -28.1319   21.7834 C   0  0  0  0  0  0  0  0  0  0  0  0
  -22.4437  -27.9303   23.8640 C   0  0  0  0  0  0  0  0  0  0  0  0
  -25.5419  -18.4322   17.8476 C   0  0  0  0  0  0  0  0  0  0  0  0
  -17.8169  -28.0663   23.0270 C   0  0  0  0  0  0  0  0  0  0  0  0
  -16.7542  -28.9133   22.7126 C   0  0  0  0  0  0  0  0  0  0  0  0
  -30.7272  -19.0541   21.0991 C   0  0  0  0  0  0  0  0  0  0  0  0
  -26.0290  -16.6989   19.4532 C   0  0  0  0  0  0  0  0  0  0  0  0
  -18.0763  -30.8211   23.3831 C   0  0  0  0  0  0  0  0  0  0  0  0
  -30.3873  -17.6945   20.9659 C   0  0  0  0  0  0  0  0  0  0  0  0
  -23.6414  -28.3122   21.8009 C   0  0  0  0  0  0  0  0  0  0  0  0
  -25.5329  -29.7272   20.8377 C   0  0  0  0  0  0  0  0  0  0  0  0
  -21.3824  -22.7890   22.9625 C   0  0  0  0  0  0  0  0  0  0  0  0
  -23.8370  -17.7257   19.4254 C   0  0  0  0  0  0  0  0  0  0  0  0
  -22.4437  -21.9375   22.6005 C   0  0  0  0  0  0  0  0  0  0  0  0
  -24.7282  -16.7909   19.9713 C   0  0  0  0  0  0  0  0  0  0  0  0
  -21.2368  -27.9374   23.1647 C   0  0  0  0  0  0  0  0  0  0  0  0
  -26.4337  -17.5165   18.3982 C   0  0  0  0  0  0  0  0  0  0  0  0
  -19.0093  -28.5967   23.5195 C   0  0  0  0  0  0  0  0  0  0  0  0
  -16.8838  -30.2906   22.8907 C   0  0  0  0  0  0  0  0  0  0  0  0
  -19.1390  -29.9741   23.6975 C   0  0  0  0  0  0  0  0  0  0  0  0
  -24.8837  -28.5053   21.0970 C   0  0  0  0  0  0  0  0  0  0  0  0
  -30.5432  -19.5788   19.8432 C   0  0  0  0  0  0  0  0  0  0  0  0
  -26.6652  -29.3743   20.1451 C   0  0  0  0  0  0  0  0  0  0  0  0
  -25.1469  -31.0620   21.1913 C   0  0  0  0  0  0  0  0  0  0  0  0
  -22.8368  -18.2693   22.3932 C   0  0  0  0  0  0  0  0  0  0  0  0
  -22.3166  -15.0675   22.3885 C   0  0  0  0  0  0  0  0  0  0  0  0
  -23.0824  -12.0098   21.0805 C   0  0  0  0  0  0  0  0  0  0  0  0
  -29.7306  -24.2762   20.1360 C   0  0  0  0  0  0  0  0  0  0  0  0
  -20.4369  -22.4445   24.0859 C   0  0  0  0  0  0  0  0  0  0  0  0
  -22.4291  -17.8293   19.9445 C   0  0  0  0  0  0  0  0  0  0  0  0
  -24.3303  -15.8855   21.1073 C   0  0  0  0  0  0  0  0  0  0  0  0
  -20.4574  -20.9667   24.4678 C   0  0  0  0  0  0  0  0  0  0  0  0
  -28.3970  -26.0543   17.2077 C   0  0  0  0  0  0  0  0  0  0  0  0
  -21.8934  -20.4685   24.5967 C   0  0  0  0  0  0  0  0  0  0  0  0
  -27.3458  -26.9450   17.8603 C   0  0  0  0  0  0  0  0  0  0  0  0
  -28.5541  -24.7139   17.9261 C   0  0  0  0  0  0  0  0  0  0  0  0
  -29.5553  -21.9453   19.0022 C   0  0  0  0  0  0  0  0  0  0  0  0
  -31.0736  -22.1472   20.4747 C   0  0  0  0  0  0  0  0  0  0  0  0
  -27.7496  -25.7493   20.0388 C   0  0  0  0  0  0  0  0  0  0  0  0
  -22.6418  -20.5919   23.2640 C   0  0  1  0  0  0  0  0  0  0  0  0
  -30.7767  -21.0830   19.3981 C   0  0  0  0  0  0  0  0  0  0  0  0
  -22.2800  -17.3165   21.3735 C   0  0  1  0  0  0  0  0  0  0  0  0
  -27.6463  -27.1197   19.3560 C   0  0  2  0  0  0  0  0  0  0  0  0
  -22.5206   -9.5744   21.3052 C   0  0  0  0  0  0  0  0  0  0  0  0
  -23.9967  -14.9171   24.9311 C   0  0  0  0  0  0  0  0  0  0  0  0
  -24.1939  -12.4473   24.5714 C   0  0  0  0  0  0  0  0  0  0  0  0
  -21.9524  -13.4765   24.9448 C   0  0  0  0  0  0  0  0  0  0  0  0
  -22.0977  -11.8606   18.2935 C   0  0  0  0  0  0  0  0  0  0  0  0
  -29.7793  -18.6000   17.5952 C   0  0  0  0  0  0  0  0  0  0  0  0
  -28.2745  -18.5963   17.3488 C   0  0  0  0  0  0  0  0  0  1  0  0
  -23.1369  -13.8506   22.7427 C   0  0  1  0  0  0  0  0  0  0  0  0
  -22.2017  -10.8762   20.5867 C   0  0  2  0  0  0  0  0  0  0  0  0
  -23.3284  -13.6912   24.2774 C   0  0  0  0  0  0  0  0  0  0  0  0
  -30.0154  -17.3754   19.7233 N   0  0  0  0  0  0  0  0  0  0  0  0
  -25.5483  -27.4546   20.6087 N   0  0  0  0  0  0  0  0  0  0  0  0
  -30.1205  -18.5420   19.0644 N   0  0  0  0  0  0  0  0  0  0  0  0
  -26.6268  -28.0153   20.0356 N   0  0  0  0  0  0  0  0  0  0  0  0
  -22.9449  -16.0290   21.5843 N   0  0  0  0  0  0  0  0  0  0  0  0
  -28.7232  -24.8769   19.3737 N   0  0  0  0  0  0  0  0  0  0  0  0
  -30.1881  -23.0383   19.7305 N   0  0  0  0  0  0  0  0  0  0  0  0
  -27.6800  -30.0969   19.6250 N   0  0  0  0  0  0  0  0  0  0  0  0
  -23.9537  -31.2460   21.9031 N   0  0  0  0  0  0  0  0  0  0  0  0
  -22.2568  -19.5233   22.3673 N   0  0  0  0  0  0  0  0  0  0  0  0
  -22.4816  -12.7159   22.1012 N   0  0  0  0  0  0  0  0  0  0  0  0
  -22.3986  -10.6665   19.1245 N   0  3  0  0  0  0  0  0  0  0  0  0
  -25.8313  -32.0632   20.8709 O   0  0  0  0  0  0  0  0  0  0  0  0
  -23.7259  -17.8942   23.1485 O   0  0  0  0  0  0  0  0  0  0  0  0
  -21.1587  -15.1582   22.8040 O   0  0  0  0  0  0  0  0  0  0  0  0
  -24.1937  -12.2431   20.6104 O   0  0  0  0  0  0  0  0  0  0  0  0
  -30.1841  -24.8048   21.1590 O   0  0  0  0  0  0  0  0  0  0  0  0
  -20.0638  -27.7546   23.8304 O   0  0  0  0  0  0  0  0  0  0  0  0
  -27.6978  -17.4152   17.9046 O   0  0  0  0  0  0  0  0  0  1  0  0
  -15.8637  -31.1040   22.5873 F   0  0  0  0  0  0  0  0  0  0  0  0
  -20.2825  -30.4896   24.1692 F   0  0  0  0  0  0  0  0  0  0  0  0
  1  2  1  0  0  0  0
  1  5  2  0  0  0  0
  2  6  2  0  0  0  0
  3  8  2  0  0  0  0
  3 17  1  0  0  0  0
  4  9  1  0  0  0  0
  4 17  2  0  0  0  0
  5 19  1  0  0  0  0
  6 21  1  0  0  0  0
  7 10  2  0  0  0  0
  7 20  1  0  0  0  0
  8 23  1  0  0  0  0
  9 23  2  0  0  0  0
 10 24  1  0  0  0  0
 11 12  2  0  0  0  0
 11 25  1  0  0  0  0
 12 26  1  0  0  0  0
 13 16  1  0  0  0  0
 13 29  2  0  0  0  0
 14 22  1  0  0  0  0
 14 24  2  0  0  0  0
 15 26  2  0  0  0  0
 15 27  1  0  0  0  0
 16 61  2  0  0  0  0
 17 28  1  0  0  0  0
 18 28  1  0  0  0  0
 18 30  2  0  0  0  0
 18 31  1  0  0  0  0
 19 21  2  0  0  0  0
 19 36  1  0  0  0  0
 20 22  2  0  0  0  0
 20 37  1  0  0  0  0
 21 47  1  0  0  0  0
 22 38  1  0  0  0  0
 23 78  1  0  0  0  0
 24 79  1  0  0  0  0
 25 27  2  0  0  0  0
 25 78  1  0  0  0  0
 26 80  1  0  0  0  0
 27 81  1  0  0  0  0
 28 62  2  0  0  0  0
 29 48  1  0  0  0  0
 29 63  1  0  0  0  0
 30 64  1  0  0  0  0
 30 68  1  0  0  0  0
 31 69  1  0  0  0  0
 31 73  2  0  0  0  0
 32 49  1  0  0  0  0
 32 70  1  0  0  0  0
 32 74  2  0  0  0  0
 33 58  1  0  0  0  0
 33 65  1  0  0  0  0
 33 75  2  0  0  0  0
 34 59  1  0  0  0  0
 34 71  1  0  0  0  0
 34 76  2  0  0  0  0
 35 66  1  0  0  0  0
 35 67  1  0  0  0  0
 35 77  2  0  0  0  0
 36 39  1  0  0  0  0
 37 49  1  0  0  0  0
 38 65  1  0  0  0  0
 39 41  1  0  0  0  0
 40 42  1  0  0  0  0
 40 43  1  0  0  0  0
 41 47  1  0  0  0  0
 42 50  1  0  0  0  0
 43 66  1  0  0  0  0
 44 48  1  0  0  0  0
 44 67  1  0  0  0  0
 45 48  1  0  0  0  0
 45 67  1  0  0  0  0
 46 50  1  0  0  0  0
 46 66  1  0  0  0  0
 47 70  1  0  0  0  0
 49 65  1  0  0  0  0
 50 64  1  0  0  0  0
 51 59  1  0  0  0  0
 52 60  1  0  0  0  0
 53 60  1  0  0  0  0
 54 60  1  0  0  0  0
 55 72  1  0  0  0  0
 56 57  1  0  0  0  0
 56 63  1  0  0  0  0
 57 79  1  0  0  0  0
 58 60  1  0  0  0  0
 58 71  1  0  0  0  0
 59 72  1  0  0  0  0
 61 63  1  0  0  0  0
 62 64  1  0  0  0  0
M  CHG  1  72   1
M  ISO  4  35 100  57 101  67 100  79 101
M  END
> <Batch ID>
0189

> <Smiles>
CNC(C)C(=O)NC(C(=O)N1Cc2cc([101O:1][101CH2:1]Cn3nccc3C3C[100N:0]([100C:0](=O)N4CCCC(n5nc(-c6ccc(Oc7ccc(F)cc7F)cc6)c(C(N)=O)c5N)C4)C3)ccc2CC1C(=O)NC1CCCc2ccccc21)C(C)(C)C

> <Shape>
0.225

> <Color>
0.064

> <Negative vol penalty>
0.000

$$$$

  -OEChem-04052323223D

 85 94  0     1  0  0  0  0  0999 V2000
  -24.2203   -9.1029   23.4961 C   0  0  0  0  0  0  0  0  0  0  0  0
  -25.0589  -10.1572   23.8433 C   0  0  0  0  0  0  0  0  0  0  0  0
  -19.4314  -28.5619   21.8038 C   0  0  0  0  0  0  0  0  0  0  0  0
  -20.2885  -27.3018   23.6785 C   0  0  0  0  0  0  0  0  0  0  0  0
  -23.6131   -9.0807   22.2413 C   0  0  0  0  0  0  0  0  0  0  0  0
  -25.2917  -11.1895   22.9352 C   0  0  0  0  0  0  0  0  0  0  0  0
  -26.5689  -18.2343   22.6985 C   0  0  0  0  0  0  0  0  0  0  0  0
  -18.2570  -27.8100   21.8354 C   0  0  0  0  0  0  0  0  0  0  0  0
  -19.1141  -26.5500   23.7101 C   0  0  0  0  0  0  0  0  0  0  0  0
  -27.4732  -19.1474   22.1578 C   0  0  0  0  0  0  0  0  0  0  0  0
  -17.2296  -24.7524   20.8255 C   0  0  0  0  0  0  0  0  0  0  0  0
  -16.7302  -24.2804   19.6116 C   0  0  0  0  0  0  0  0  0  0  0  0
  -26.3075  -19.0436   20.0484 C   0  0  0  0  0  0  0  0  0  0  0  0
  -14.6816  -25.5078   19.9771 C   0  0  0  0  0  0  0  0  0  0  0  0
  -20.4472  -28.3078   22.7253 C   0  0  0  0  0  0  0  0  0  0  0  0
  -21.9211  -30.2840   23.3809 C   0  0  0  0  0  0  0  0  0  0  0  0
  -23.8309  -10.1182   21.3210 C   0  0  0  0  0  0  0  0  0  0  0  0
  -25.5319  -17.7098   21.9137 C   0  0  0  0  0  0  0  0  0  0  0  0
  -24.6879  -11.1805   21.6663 C   0  0  0  0  0  0  0  0  0  0  0  0
  -25.3899  -18.1259   20.5822 C   0  0  0  0  0  0  0  0  0  0  0  0
  -18.0983  -26.8041   22.7885 C   0  0  0  0  0  0  0  0  0  0  0  0
  -27.3443  -19.5500   20.8317 C   0  0  0  0  0  0  0  0  0  0  0  0
  -16.4549  -25.6020   21.6153 C   0  0  0  0  0  0  0  0  0  0  0  0
  -31.0479  -23.4859   17.8069 C   0  0  0  0  0  0  0  0  0  0  0  0
  -15.4563  -24.6582   19.1874 C   0  0  0  0  0  0  0  0  0  0  0  0
  -15.1809  -25.9798   21.1911 C   0  0  0  0  0  0  0  0  0  0  0  0
  -21.6608  -29.0837   22.6929 C   0  0  0  0  0  0  0  0  0  0  0  0
  -29.9889  -23.8658   18.6061 C   0  0  0  0  0  0  0  0  0  0  0  0
  -31.0489  -22.1658   17.4050 C   0  0  0  0  0  0  0  0  0  0  0  0
  -23.2037  -30.6162   23.0188 C   0  0  0  0  0  0  0  0  0  0  0  0
  -29.1153  -21.7686   18.5321 C   0  0  0  0  0  0  0  0  0  0  0  0
  -21.0788  -31.0318   24.2680 C   0  0  0  0  0  0  0  0  0  0  0  0
  -24.7182  -14.8003   20.9254 C   0  0  0  0  0  0  0  0  0  0  0  0
  -22.1007  -16.3427   19.7888 C   0  0  0  0  0  0  0  0  0  0  0  0
  -20.6923  -19.2652   18.7295 C   0  0  0  0  0  0  0  0  0  0  0  0
  -27.6890  -27.1722   21.1731 C   0  0  0  0  0  0  0  0  0  0  0  0
  -23.1900  -10.0267   19.9588 C   0  0  0  0  0  0  0  0  0  0  0  0
  -24.5488  -16.7461   22.5196 C   0  0  0  0  0  0  0  0  0  0  0  0
  -24.2817  -17.6080   19.7034 C   0  0  0  0  0  0  0  0  0  0  0  0
  -23.1921  -11.3482   19.1947 C   0  0  0  0  0  0  0  0  0  0  0  0
  -26.3543  -30.1512   19.4822 C   0  0  0  0  0  0  0  0  0  0  0  0
  -24.5668  -12.0052   19.2682 C   0  0  0  0  0  0  0  0  0  0  0  0
  -24.9830  -30.2698   20.1380 C   0  0  0  0  0  0  0  0  0  0  0  0
  -26.8103  -28.6988   19.3410 C   0  0  0  0  0  0  0  0  0  0  0  0
  -28.4506  -26.0557   18.9544 C   0  0  0  0  0  0  0  0  0  0  0  0
  -29.5651  -25.5312   20.6855 C   0  0  0  0  0  0  0  0  0  0  0  0
  -25.3861  -28.0609   21.2768 C   0  0  0  0  0  0  0  0  0  0  0  0
  -24.9455  -12.3313   20.7179 C   0  0  1  0  0  0  0  0  0  0  0  0
  -29.8012  -25.3347   19.1737 C   0  0  0  0  0  0  0  0  0  0  0  0
  -23.8383  -15.8847   21.4800 C   0  0  1  0  0  0  0  0  0  0  0  0
  -24.9650  -29.5227   21.4793 C   0  0  2  0  0  0  0  0  0  0  0  0
  -31.9895  -22.0733   15.0826 C   0  0  0  0  0  0  0  0  0  0  0  0
  -18.5480  -20.2046   17.8258 C   0  0  0  0  0  0  0  0  0  0  0  0
  -22.7108  -15.1092   17.0655 C   0  0  0  0  0  0  0  0  0  0  0  0
  -21.1640  -16.7875   16.0365 C   0  0  0  0  0  0  0  0  0  0  0  0
  -20.2871  -15.1301   17.6818 C   0  0  0  0  0  0  0  0  0  0  0  0
  -20.3903  -21.0998   21.0321 C   0  0  0  0  0  0  0  0  0  0  0  0
  -33.1564  -24.4678   18.3031 C   0  0  0  0  0  0  0  0  0  0  0  0
  -32.1489  -21.6464   16.5388 C   0  0  0  0  0  0  0  0  0  0  0  0
  -28.0346  -20.8093   18.9361 C   0  0  0  0  0  0  0  0  0  1  0  0
  -21.7437  -17.0307   18.4933 C   0  0  1  0  0  0  0  0  0  0  0  0
  -19.3719  -19.9301   19.0742 C   0  0  2  0  0  0  0  0  0  0  0  0
  -21.4985  -16.0228   17.3350 C   0  0  0  0  0  0  0  0  0  0  0  0
  -22.6950  -28.6807   21.9498 N   0  0  0  0  0  0  0  0  0  0  0  0
  -29.0015  -23.0301   18.9893 N   0  0  0  0  0  0  0  0  0  0  0  0
  -30.0951  -21.2762   17.7503 N   0  0  0  0  0  0  0  0  0  0  0  0
  -23.6175  -29.6332   22.1688 N   0  0  0  0  0  0  0  0  0  0  0  0
  -23.3495  -16.6628   20.3399 N   0  0  0  0  0  0  0  0  0  0  0  0
  -26.6809  -27.9522   20.5966 N   0  0  0  0  0  0  0  0  0  0  0  0
  -28.5757  -26.5420   20.3231 N   0  0  0  0  0  0  0  0  0  0  0  0
  -24.0066  -31.6504   23.3477 N   0  0  0  0  0  0  0  0  0  0  0  0
  -19.7899  -30.5485   24.5315 N   0  0  0  0  0  0  0  0  0  0  0  0
  -24.2540  -13.5212   21.1655 N   0  0  0  0  0  0  0  0  0  0  0  0
  -20.6027  -17.8906   18.7887 N   0  0  0  0  0  0  0  0  0  0  0  0
  -19.6106  -21.2242   19.7737 N   0  3  0  0  0  0  0  0  0  0  0  0
  -21.4520  -32.1057   24.7981 O   0  0  0  0  0  0  0  0  0  0  0  0
  -25.7418  -15.1019   20.3228 O   0  0  0  0  0  0  0  0  0  0  0  0
  -21.2979  -15.5558   20.2968 O   0  0  0  0  0  0  0  0  0  0  0  0
  -21.7012  -19.9016   18.4334 O   0  0  0  0  0  0  0  0  0  0  0  0
  -27.7781  -27.0139   22.3973 O   0  0  0  0  0  0  0  0  0  0  0  0
  -16.9523  -26.0704   22.8198 O   0  0  0  0  0  0  0  0  0  0  0  0
  -32.0170  -24.3573   17.4449 O   0  0  0  0  0  0  0  0  0  0  0  0
  -28.2259  -20.4406   20.3013 O   0  0  0  0  0  0  0  0  0  1  0  0
  -14.9775  -24.2061   18.0210 F   0  0  0  0  0  0  0  0  0  0  0  0
  -14.4325  -26.7967   21.9449 F   0  0  0  0  0  0  0  0  0  0  0  0
  1  2  1  0  0  0  0
  1  5  2  0  0  0  0
  2  6  2  0  0  0  0
  3  8  2  0  0  0  0
  3 15  1  0  0  0  0
  4  9  1  0  0  0  0
  4 15  2  0  0  0  0
  5 17  1  0  0  0  0
  6 19  1  0  0  0  0
  7 10  2  0  0  0  0
  7 18  1  0  0  0  0
  8 21  1  0  0  0  0
  9 21  2  0  0  0  0
 10 22  1  0  0  0  0
 11 12  2  0  0  0  0
 11 23  1  0  0  0  0
 12 25  1  0  0  0  0
 13 20  1  0  0  0  0
 13 22  2  0  0  0  0
 14 25  2  0  0  0  0
 14 26  1  0  0  0  0
 15 27  1  0  0  0  0
 16 27  1  0  0  0  0
 16 30  2  0  0  0  0
 16 32  1  0  0  0  0
 17 19  2  0  0  0  0
 17 37  1  0  0  0  0
 18 20  2  0  0  0  0
 18 38  1  0  0  0  0
 19 48  1  0  0  0  0
 20 39  1  0  0  0  0
 21 81  1  0  0  0  0
 22 83  1  0  0  0  0
 23 26  2  0  0  0  0
 23 81  1  0  0  0  0
 24 28  1  0  0  0  0
 24 29  2  0  0  0  0
 24 82  1  0  0  0  0
 25 84  1  0  0  0  0
 26 85  1  0  0  0  0
 27 64  2  0  0  0  0
 28 49  1  0  0  0  0
 28 65  2  0  0  0  0
 29 59  1  0  0  0  0
 29 66  1  0  0  0  0
 30 67  1  0  0  0  0
 30 71  1  0  0  0  0
 31 60  1  0  0  0  0
 31 65  1  0  0  0  0
 31 66  2  0  0  0  0
 32 72  1  0  0  0  0
 32 76  2  0  0  0  0
 33 50  1  0  0  0  0
 33 73  1  0  0  0  0
 33 77  2  0  0  0  0
 34 61  1  0  0  0  0
 34 68  1  0  0  0  0
 34 78  2  0  0  0  0
 35 62  1  0  0  0  0
 35 74  1  0  0  0  0
 35 79  2  0  0  0  0
 36 69  1  0  0  0  0
 36 70  1  0  0  0  0
 36 80  2  0  0  0  0
 37 40  1  0  0  0  0
 38 50  1  0  0  0  0
 39 68  1  0  0  0  0
 40 42  1  0  0  0  0
 41 43  1  0  0  0  0
 41 44  1  0  0  0  0
 42 48  1  0  0  0  0
 43 51  1  0  0  0  0
 44 69  1  0  0  0  0
 45 49  1  0  0  0  0
 45 70  1  0  0  0  0
 46 49  1  0  0  0  0
 46 70  1  0  0  0  0
 47 51  1  0  0  0  0
 47 69  1  0  0  0  0
 48 73  1  0  0  0  0
 50 68  1  0  0  0  0
 51 67  1  0  0  0  0
 52 59  1  0  0  0  0
 53 62  1  0  0  0  0
 54 63  1  0  0  0  0
 55 63  1  0  0  0  0
 56 63  1  0  0  0  0
 57 75  1  0  0  0  0
 58 82  1  0  0  0  0
 60 83  1  0  0  0  0
 61 63  1  0  0  0  0
 61 74  1  0  0  0  0
 62 75  1  0  0  0  0
 64 67  1  0  0  0  0
M  CHG  1  75   1
M  ISO  4  36 100  60 101  70 100  83 101
M  END
> <Batch ID>
0189

> <Smiles>
CCc1nc([101CH2:1][101O:1]c2ccc3c(c2)CN(C(=O)C(NC(=O)C(C)NC)C(C)(C)C)C(C(=O)NC2CCCc4ccccc42)C3)nc(C2C[100N:0]([100C:0](=O)N3CCCC(n4nc(-c5ccc(Oc6ccc(F)cc6F)cc5)c(C(N)=O)c4N)C3)C2)c1OC

> <Shape>
0.224

> <Color>
0.081

> <Negative vol penalty>
0.000

$$$$

  -OEChem-04052323223D

 86 95  0     1  0  0  0  0  0999 V2000
  -28.6755  -32.0447   16.1154 C   0  0  0  0  0  0  0  0  0  0  0  0
  -29.0730  -31.3030   17.2232 C   0  0  0  0  0  0  0  0  0  0  0  0
  -22.6678  -10.2001   20.1652 C   0  0  0  0  0  0  0  0  0  0  0  0
  -24.3232   -9.4121   21.7387 C   0  0  0  0  0  0  0  0  0  0  0  0
  -27.3189  -32.2107   15.8393 C   0  0  0  0  0  0  0  0  0  0  0  0
  -28.1141  -30.7277   18.0563 C   0  0  0  0  0  0  0  0  0  0  0  0
  -29.2289  -25.9438   19.2878 C   0  0  0  0  0  0  0  0  0  0  0  0
  -21.9328   -9.0295   20.3522 C   0  0  0  0  0  0  0  0  0  0  0  0
  -23.5881   -8.2415   21.9257 C   0  0  0  0  0  0  0  0  0  0  0  0
  -30.1934  -25.7488   20.2754 C   0  0  0  0  0  0  0  0  0  0  0  0
  -20.8437   -7.2732   23.6436 C   0  0  0  0  0  0  0  0  0  0  0  0
  -20.6616   -6.8262   24.9523 C   0  0  0  0  0  0  0  0  0  0  0  0
  -28.4480  -25.3694   21.8967 C   0  0  0  0  0  0  0  0  0  0  0  0
  -21.7821   -4.7578   24.4018 C   0  0  0  0  0  0  0  0  0  0  0  0
  -30.3469  -18.6512   23.4018 C   0  0  0  0  0  0  0  0  0  0  0  0
  -23.8631  -10.3914   20.8584 C   0  0  0  0  0  0  0  0  0  0  0  0
  -24.1987  -12.9197   20.9115 C   0  0  0  0  0  0  0  0  0  0  0  0
  -26.3431  -31.6291   16.6640 C   0  0  0  0  0  0  0  0  0  0  0  0
  -27.8641  -25.8637   19.6001 C   0  0  0  0  0  0  0  0  0  0  0  0
  -26.7432  -30.8872   17.7918 C   0  0  0  0  0  0  0  0  0  0  0  0
  -27.4682  -25.5613   20.9107 C   0  0  0  0  0  0  0  0  0  0  0  0
  -31.5817  -19.1464   23.0348 C   0  0  0  0  0  0  0  0  0  0  0  0
  -22.3929   -8.0502   21.2325 C   0  0  0  0  0  0  0  0  0  0  0  0
  -29.8031  -25.4644   21.5807 C   0  0  0  0  0  0  0  0  0  0  0  0
  -21.4950   -6.4624   22.7140 C   0  0  0  0  0  0  0  0  0  0  0  0
  -21.1308   -5.5686   25.3314 C   0  0  0  0  0  0  0  0  0  0  0  0
  -21.9642   -5.2047   23.0931 C   0  0  0  0  0  0  0  0  0  0  0  0
  -24.6231  -11.6002   20.6653 C   0  0  0  0  0  0  0  0  0  0  0  0
  -32.2936  -18.3726   22.1411 C   0  0  0  0  0  0  0  0  0  0  0  0
  -25.2790  -13.6969   20.5718 C   0  0  0  0  0  0  0  0  0  0  0  0
  -30.6267  -16.8287   22.0725 C   0  0  0  0  0  0  0  0  0  0  0  0
  -22.9404  -13.3999   21.4033 C   0  0  0  0  0  0  0  0  0  0  0  0
  -25.4167  -27.8893   19.4965 C   0  0  0  0  0  0  0  0  0  0  0  0
  -23.7053  -25.2532   20.2991 C   0  0  0  0  0  0  0  0  0  0  0  0
  -24.0821  -22.4503   22.5394 C   0  0  0  0  0  0  0  0  0  0  0  0
  -30.7469  -14.7442   20.6630 C   0  0  0  0  0  0  0  0  0  0  0  0
  -24.8882  -31.8757   16.3521 C   0  0  0  0  0  0  0  0  0  0  0  0
  -26.8365  -26.0503   18.5177 C   0  0  0  0  0  0  0  0  0  0  0  0
  -26.0161  -25.4443   21.2934 C   0  0  0  0  0  0  0  0  0  0  0  0
  -23.9404  -30.9201   17.0722 C   0  0  0  0  0  0  0  0  0  0  0  0
  -29.5664  -12.5043   18.1597 C   0  0  0  0  0  0  0  0  0  0  0  0
  -24.3202  -30.8003   18.5447 C   0  0  0  0  0  0  0  0  0  0  0  0
  -28.1402  -12.1779   18.6086 C   0  0  0  0  0  0  0  0  0  0  0  0
  -31.5796  -20.8684   24.9787 C   0  0  0  0  0  0  0  0  0  0  0  0
  -30.5159  -12.6485   19.3477 C   0  0  0  0  0  0  0  0  0  0  0  0
  -28.6493  -13.2653   20.8325 C   0  0  0  0  0  0  0  0  0  0  0  0
  -32.0046  -22.3181   25.0762 C   0  0  0  0  0  0  0  0  0  0  0  0
  -31.7268  -21.6745   22.7366 C   0  0  0  0  0  0  0  0  0  0  0  0
  -32.0888  -20.4572   23.5965 C   0  0  2  0  0  0  0  0  0  0  0  0
  -25.7333  -30.2269   18.7051 C   0  0  1  0  0  0  0  0  0  0  0  0
  -25.4674  -26.4535   19.0567 C   0  0  1  0  0  0  0  0  0  0  0  0
  -27.6427  -13.1746   19.6739 C   0  0  2  0  0  0  0  0  0  0  0  0
  -23.1404  -20.1274   22.4190 C   0  0  0  0  0  0  0  0  0  0  0  0
  -21.4700  -26.3807   22.0433 C   0  0  0  0  0  0  0  0  0  0  0  0
  -21.4425  -24.2098   23.2901 C   0  0  0  0  0  0  0  0  0  0  0  0
  -20.8960  -24.2555   20.8566 C   0  0  0  0  0  0  0  0  0  0  0  0
  -34.6237  -17.9421   21.3597 C   0  0  0  0  0  0  0  0  0  0  0  0
  -26.7687  -21.2258   22.7432 C   0  0  0  0  0  0  0  0  0  0  0  0
  -32.6264  -23.9769   23.2884 C   0  0  0  0  0  0  0  0  0  0  0  0
  -31.9971  -24.7330   22.1351 C   0  0  0  0  0  0  0  0  0  1  0  0
  -23.2884  -24.6033   21.5963 C   0  0  1  0  0  0  0  0  0  0  0  0
  -24.3517  -21.0074   22.1524 C   0  0  2  0  0  0  0  0  0  0  0  0
  -21.7982  -24.8776   21.9446 C   0  0  0  0  0  0  0  0  0  0  0  0
  -29.8365  -17.4915   22.9384 N   0  0  0  0  0  0  0  0  0  0  0  0
  -25.8753  -11.5388   20.2046 N   0  0  0  0  0  0  0  0  0  0  0  0
  -31.8449  -17.2040   21.6379 N   0  0  0  0  0  0  0  0  0  0  0  0
  -26.2470  -12.8294   20.1586 N   0  0  0  0  0  0  0  0  0  0  0  0
  -25.0490  -25.6414   20.2010 N   0  0  0  0  0  0  0  0  0  0  0  0
  -29.9817  -13.6115   20.3131 N   0  0  0  0  0  0  0  0  0  0  0  0
  -25.4859  -15.0308   20.5892 N   0  0  0  0  0  0  0  0  0  0  0  0
  -22.7750  -13.5436   22.7876 N   0  0  0  0  0  0  0  0  0  0  0  0
  -33.5689  -18.8298   21.7270 N   0  0  0  0  0  0  0  0  0  0  0  0
  -30.1228  -15.6056   21.5646 N   0  0  0  0  0  0  0  0  0  0  0  0
  -25.7240  -28.7946   18.4987 N   0  0  0  0  0  0  0  0  0  0  0  0
  -23.6219  -23.1886   21.4697 N   0  0  0  0  0  0  0  0  0  0  0  0
  -31.7254  -22.8542   23.6927 N   0  3  2  0  0  0  0  0  0  0  0  0
  -25.5038  -20.4693   22.9295 N   0  3  0  0  0  0  0  0  0  0  0  0
  -21.9854  -13.6774   20.6388 O   0  0  0  0  0  0  0  0  0  0  0  0
  -25.1193  -28.1563   20.6549 O   0  0  0  0  0  0  0  0  0  0  0  0
  -22.8711  -25.4043   19.4030 O   0  0  0  0  0  0  0  0  0  0  0  0
  -24.2583  -22.8787   23.6778 O   0  0  0  0  0  0  0  0  0  0  0  0
  -31.8617  -14.9497   20.1762 O   0  0  0  0  0  0  0  0  0  0  0  0
  -21.6758   -6.9079   21.4153 O   0  0  0  0  0  0  0  0  0  0  0  0
  -30.7425  -25.2743   22.5467 O   0  0  0  0  0  0  0  0  0  1  0  0
  -20.9571   -5.1401   26.5886 F   0  0  0  0  0  0  0  0  0  0  0  0
  -22.5918   -4.4218   22.2048 F   0  0  0  0  0  0  0  0  0  0  0  0
  1  2  1  0  0  0  0
  1  5  2  0  0  0  0
  2  6  2  0  0  0  0
  3  8  2  0  0  0  0
  3 16  1  0  0  0  0
  4  9  1  0  0  0  0
  4 16  2  0  0  0  0
  5 18  1  0  0  0  0
  6 20  1  0  0  0  0
  7 10  2  0  0  0  0
  7 19  1  0  0  0  0
  8 23  1  0  0  0  0
  9 23  2  0  0  0  0
 10 24  1  0  0  0  0
 11 12  2  0  0  0  0
 11 25  1  0  0  0  0
 12 26  1  0  0  0  0
 13 21  1  0  0  0  0
 13 24  2  0  0  0  0
 14 26  2  0  0  0  0
 14 27  1  0  0  0  0
 15 22  1  0  0  0  0
 15 64  2  0  0  0  0
 16 28  1  0  0  0  0
 17 28  1  0  0  0  0
 17 30  2  0  0  0  0
 17 32  1  0  0  0  0
 18 20  2  0  0  0  0
 18 37  1  0  0  0  0
 19 21  2  0  0  0  0
 19 38  1  0  0  0  0
 20 50  1  0  0  0  0
 21 39  1  0  0  0  0
 22 29  2  0  0  0  0
 22 49  1  0  0  0  0
 23 83  1  0  0  0  0
 24 84  1  0  0  0  0
 25 27  2  0  0  0  0
 25 83  1  0  0  0  0
 26 85  1  0  0  0  0
 27 86  1  0  0  0  0
 28 65  2  0  0  0  0
 29 66  1  0  0  0  0
 29 72  1  0  0  0  0
 30 67  1  0  0  0  0
 30 70  1  0  0  0  0
 31 64  1  0  0  0  0
 31 66  2  0  0  0  0
 31 73  1  0  0  0  0
 32 71  1  0  0  0  0
 32 78  2  0  0  0  0
 33 51  1  0  0  0  0
 33 74  1  0  0  0  0
 33 79  2  0  0  0  0
 34 61  1  0  0  0  0
 34 68  1  0  0  0  0
 34 80  2  0  0  0  0
 35 62  1  0  0  0  0
 35 75  1  0  0  0  0
 35 81  2  0  0  0  0
 36 69  1  0  0  0  0
 36 73  1  0  0  0  0
 36 82  2  0  0  0  0
 37 40  1  0  0  0  0
 38 51  1  0  0  0  0
 39 68  1  0  0  0  0
 40 42  1  0  0  0  0
 41 43  1  0  0  0  0
 41 45  1  0  0  0  0
 42 50  1  0  0  0  0
 43 52  1  0  0  0  0
 44 47  1  0  0  0  0
 44 49  1  0  0  0  0
 45 69  1  0  0  0  0
 46 52  1  0  0  0  0
 46 69  1  0  0  0  0
 47 76  1  0  0  0  0
 48 49  1  0  0  0  0
 48 76  1  0  0  0  0
 50 74  1  0  0  0  0
 51 68  1  0  0  0  0
 52 67  1  0  0  0  0
 53 62  1  0  0  0  0
 54 63  1  0  0  0  0
 55 63  1  0  0  0  0
 56 63  1  0  0  0  0
 57 72  1  0  0  0  0
 58 77  1  0  0  0  0
 59 60  1  0  0  0  0
 59 76  1  0  0  0  0
 60 84  1  0  0  0  0
 61 63  1  0  0  0  0
 61 75  1  0  0  0  0
 62 77  1  0  0  0  0
 65 67  1  0  0  0  0
M  CHG  2  76   1  77   1
M  ISO  4  36 100  60 101  73 100  84 101
M  END
> <Batch ID>
0189

> <Smiles>
CNc1nc([100NH:0][100C:0](=O)N2CCCC(n3nc(-c4ccc(Oc5ccc(F)cc5F)cc4)c(C(N)=O)c3N)C2)ncc1C1CCN(C[101CH2:1][101O:1]c2ccc3c(c2)CN(C(=O)C(NC(=O)C(C)NC)C(C)(C)C)C(C(=O)NC2CCCc4ccccc42)C3)C1

> <Shape>
0.250

> <Color>
0.165

> <Negative vol penalty>
0.000

$$$$

  -OEChem-04052323223D

 84 93  0     1  0  0  0  0  0999 V2000
  -28.6833  -30.6937   13.1194 C   0  0  0  0  0  0  0  0  0  0  0  0
  -28.6211  -29.3132   13.2795 C   0  0  0  0  0  0  0  0  0  0  0  0
  -23.0936   -9.8648   19.9388 C   0  0  0  0  0  0  0  0  0  0  0  0
  -23.6953   -9.9570   22.2768 C   0  0  0  0  0  0  0  0  0  0  0  0
  -29.7652  -31.4061   13.6350 C   0  0  0  0  0  0  0  0  0  0  0  0
  -29.6416  -28.6441   13.9544 C   0  0  0  0  0  0  0  0  0  0  0  0
  -29.0673  -23.7120   17.5393 C   0  0  0  0  0  0  0  0  0  0  0  0
  -22.3365   -8.7182   20.1788 C   0  0  0  0  0  0  0  0  0  0  0  0
  -22.9381   -8.8104   22.5169 C   0  0  0  0  0  0  0  0  0  0  0  0
  -29.2703  -22.3529   17.3043 C   0  0  0  0  0  0  0  0  0  0  0  0
  -23.2723   -5.4719   22.1005 C   0  0  0  0  0  0  0  0  0  0  0  0
  -23.8392   -4.4755   22.8951 C   0  0  0  0  0  0  0  0  0  0  0  0
  -31.4954  -22.5333   18.2184 C   0  0  0  0  0  0  0  0  0  0  0  0
  -22.0251   -4.7028   24.4744 C   0  0  0  0  0  0  0  0  0  0  0  0
  -23.7731  -10.4842   20.9878 C   0  0  0  0  0  0  0  0  0  0  0  0
  -24.1178  -13.0049   20.8006 C   0  0  0  0  0  0  0  0  0  0  0  0
  -30.7946  -30.7466   14.3249 C   0  0  0  0  0  0  0  0  0  0  0  0
  -30.0825  -24.4957   18.1065 C   0  0  0  0  0  0  0  0  0  0  0  0
  -30.7390  -29.3481   14.4785 C   0  0  0  0  0  0  0  0  0  0  0  0
  -31.3019  -23.9016   18.4619 C   0  0  0  0  0  0  0  0  0  0  0  0
  -22.2587   -8.1910   21.4678 C   0  0  0  0  0  0  0  0  0  0  0  0
  -30.4855  -21.7639   17.6412 C   0  0  0  0  0  0  0  0  0  0  0  0
  -22.0818   -6.0838   22.4929 C   0  0  0  0  0  0  0  0  0  0  0  0
  -23.2156   -4.0910   24.0820 C   0  0  0  0  0  0  0  0  0  0  0  0
  -21.4582   -5.6993   23.6798 C   0  0  0  0  0  0  0  0  0  0  0  0
  -24.5558  -11.6684   20.7403 C   0  0  0  0  0  0  0  0  0  0  0  0
  -25.2308  -13.7455   20.4858 C   0  0  0  0  0  0  0  0  0  0  0  0
  -22.8208  -13.5300   21.1132 C   0  0  0  0  0  0  0  0  0  0  0  0
  -31.7691  -27.0153   17.1524 C   0  0  0  0  0  0  0  0  0  0  0  0
  -32.9070  -26.9135   20.1884 C   0  0  0  0  0  0  0  0  0  0  0  0
  -33.5085  -25.0699   22.9966 C   0  0  0  0  0  0  0  0  0  0  0  0
  -30.0142  -12.3496   17.2767 C   0  0  0  0  0  0  0  0  0  0  0  0
  -31.9674  -31.5533   14.8233 C   0  0  0  0  0  0  0  0  0  0  0  0
  -29.8382  -25.9548   18.3783 C   0  0  0  0  0  0  0  0  0  0  0  0
  -32.4165  -24.6947   19.0920 C   0  0  0  0  0  0  0  0  0  0  0  0
  -32.8210  -30.8158   15.8518 C   0  0  0  0  0  0  0  0  0  0  0  0
  -29.9889  -13.6540   20.7027 C   0  0  0  0  0  0  0  0  0  0  0  0
  -33.1105  -29.3932   15.3837 C   0  0  0  0  0  0  0  0  0  0  0  0
  -28.5532  -13.3532   21.1197 C   0  0  0  0  0  0  0  0  0  0  0  0
  -32.7313  -10.7729   16.0890 C   0  0  0  0  0  0  0  0  0  0  0  0
  -31.2974  -16.7139   14.5993 C   0  0  0  0  0  0  0  0  0  0  0  0
  -32.9422  -16.2424   16.4633 C   0  0  0  0  0  0  0  0  0  0  0  0
  -30.5547  -12.5928   19.7581 C   0  0  0  0  0  0  0  0  0  0  0  0
  -32.2935  -11.0916   17.5218 C   0  0  0  0  0  0  0  0  0  0  0  0
  -28.2615  -12.0423   18.9889 C   0  0  0  0  0  0  0  0  0  0  0  0
  -30.2541  -17.1166   15.6352 C   0  0  0  0  0  0  0  0  0  0  0  0
  -31.8860  -16.6490   17.4845 C   0  0  0  0  0  0  0  0  0  0  0  0
  -31.8140  -28.5896   15.2262 C   0  0  1  0  0  0  0  0  0  0  0  0
  -31.1256  -26.7660   18.4871 C   0  0  1  0  0  0  0  0  0  0  0  0
  -27.6676  -13.1397   19.8832 C   0  0  1  0  0  0  0  0  0  0  0  0
  -32.3470  -15.7481   15.1461 C   0  0  0  0  0  0  0  0  0  0  0  0
  -31.9233  -11.9911   15.6161 C   0  0  2  0  0  0  0  0  0  0  0  0
  -34.4829  -25.2528   25.3020 C   0  0  0  0  0  0  0  0  0  0  0  0
  -35.7174  -26.8779   19.0007 C   0  0  0  0  0  0  0  0  0  0  0  0
  -36.5728  -26.1132   21.2259 C   0  0  0  0  0  0  0  0  0  0  0  0
  -35.4554  -28.3337   21.0173 C   0  0  0  0  0  0  0  0  0  0  0  0
  -30.9345  -24.3502   24.2676 C   0  0  0  0  0  0  0  0  0  0  0  0
  -32.6800  -13.2812   15.3685 C   0  0  0  0  0  0  0  0  0  0  0  0
  -29.9614  -18.1866   17.8679 C   0  0  0  0  0  0  0  0  0  0  0  0
  -29.5431  -19.5874   17.4665 C   0  0  0  0  0  0  0  0  0  1  0  0
  -34.0640  -26.2276   20.8740 C   0  0  1  0  0  0  0  0  0  0  0  0
  -33.2185  -25.3422   24.4616 C   0  0  2  0  0  0  0  0  0  0  0  0
  -35.4323  -26.8733   20.5158 C   0  0  0  0  0  0  0  0  0  0  0  0
  -25.8464  -11.5630   20.4128 N   0  0  0  0  0  0  0  0  0  0  0  0
  -26.2289  -12.8427   20.2644 N   0  0  0  0  0  0  0  0  0  0  0  0
  -32.1316  -26.1191   19.3319 N   0  0  0  0  0  0  0  0  0  0  0  0
  -29.6552  -12.3287   18.6288 N   0  0  0  0  0  0  0  0  0  0  0  0
  -31.2974  -11.9796   16.9402 N   0  0  0  0  0  0  0  0  0  0  0  0
  -25.4434  -15.0744   20.3794 N   0  0  0  0  0  0  0  0  0  0  0  0
  -21.7898  -12.6292   21.4133 N   0  0  0  0  0  0  0  0  0  0  0  0
  -31.3252  -28.1604   16.5189 N   0  0  0  0  0  0  0  0  0  0  0  0
  -33.7553  -26.2339   22.2999 N   0  0  0  0  0  0  0  0  0  0  0  0
  -30.9473  -17.6559   16.8636 N   0  3  0  0  0  0  0  0  0  0  0  0
  -31.7226  -14.4106   15.3588 N   0  3  0  0  0  0  0  0  0  0  0  0
  -32.2341  -24.3544   24.9872 N   0  3  0  0  0  0  0  0  0  0  0  0
  -22.5790  -14.7609   21.1100 O   0  0  0  0  0  0  0  0  0  0  0  0
  -32.6075  -26.2280   16.7293 O   0  0  0  0  0  0  0  0  0  0  0  0
  -32.6947  -28.1082   20.4102 O   0  0  0  0  0  0  0  0  0  0  0  0
  -33.5190  -23.9375   22.5190 O   0  0  0  0  0  0  0  0  0  0  0  0
  -29.2068  -12.6591   16.3906 O   0  0  0  0  0  0  0  0  0  0  0  0
  -21.5198   -7.0723   21.7025 O   0  0  0  0  0  0  0  0  0  0  0  0
  -30.6879  -20.4281   17.4106 O   0  0  0  0  0  0  0  0  0  1  0  0
  -23.7593   -3.1330   24.8442 F   0  0  0  0  0  0  0  0  0  0  0  0
  -20.3137   -6.2827   24.0614 F   0  0  0  0  0  0  0  0  0  0  0  0
  1  2  1  0  0  0  0
  1  5  2  0  0  0  0
  2  6  2  0  0  0  0
  3  8  2  0  0  0  0
  3 15  1  0  0  0  0
  4  9  1  0  0  0  0
  4 15  2  0  0  0  0
  5 17  1  0  0  0  0
  6 19  1  0  0  0  0
  7 10  2  0  0  0  0
  7 18  1  0  0  0  0
  8 21  1  0  0  0  0
  9 21  2  0  0  0  0
 10 22  1  0  0  0  0
 11 12  2  0  0  0  0
 11 23  1  0  0  0  0
 12 24  1  0  0  0  0
 13 20  1  0  0  0  0
 13 22  2  0  0  0  0
 14 24  2  0  0  0  0
 14 25  1  0  0  0  0
 15 26  1  0  0  0  0
 16 26  1  0  0  0  0
 16 27  2  0  0  0  0
 16 28  1  0  0  0  0
 17 19  2  0  0  0  0
 17 33  1  0  0  0  0
 18 20  2  0  0  0  0
 18 34  1  0  0  0  0
 19 48  1  0  0  0  0
 20 35  1  0  0  0  0
 21 81  1  0  0  0  0
 22 82  1  0  0  0  0
 23 25  2  0  0  0  0
 23 81  1  0  0  0  0
 24 83  1  0  0  0  0
 25 84  1  0  0  0  0
 26 64  2  0  0  0  0
 27 65  1  0  0  0  0
 27 69  1  0  0  0  0
 28 70  1  0  0  0  0
 28 76  2  0  0  0  0
 29 49  1  0  0  0  0
 29 71  1  0  0  0  0
 29 77  2  0  0  0  0
 30 61  1  0  0  0  0
 30 66  1  0  0  0  0
 30 78  2  0  0  0  0
 31 62  1  0  0  0  0
 31 72  1  0  0  0  0
 31 79  2  0  0  0  0
 32 67  1  0  0  0  0
 32 68  1  0  0  0  0
 32 80  2  0  0  0  0
 33 36  1  0  0  0  0
 34 49  1  0  0  0  0
 35 66  1  0  0  0  0
 36 38  1  0  0  0  0
 37 39  1  0  0  0  0
 37 43  1  0  0  0  0
 38 48  1  0  0  0  0
 39 50  1  0  0  0  0
 40 44  1  0  0  0  0
 40 52  1  0  0  0  0
 41 46  1  0  0  0  0
 41 51  1  0  0  0  0
 42 47  1  0  0  0  0
 42 51  1  0  0  0  0
 43 67  1  0  0  0  0
 44 68  1  0  0  0  0
 45 50  1  0  0  0  0
 45 67  1  0  0  0  0
 46 73  1  0  0  0  0
 47 73  1  0  0  0  0
 48 71  1  0  0  0  0
 49 66  1  0  0  0  0
 50 65  1  0  0  0  0
 51 74  1  0  0  0  0
 52 58  1  0  0  0  0
 52 68  1  0  0  0  0
 53 62  1  0  0  0  0
 54 63  1  0  0  0  0
 55 63  1  0  0  0  0
 56 63  1  0  0  0  0
 57 75  1  0  0  0  0
 58 74  1  0  0  0  0
 59 60  1  0  0  0  0
 59 73  1  0  0  0  0
 60 82  1  0  0  0  0
 61 63  1  0  0  0  0
 61 72  1  0  0  0  0
 62 75  1  0  0  0  0
 64 65  1  0  0  0  0
M  CHG  3  73   1  74   1  75   1
M  ISO  4  32 100  60 101  68 100  82 101
M  END
> <Batch ID>
0189

> <Smiles>
CNC(C)C(=O)NC(C(=O)N1Cc2cc([101O:1][101CH2:1]CN3CCC(NCC4CC[100N:0]4[100C:0](=O)N4CCCC(n5nc(-c6ccc(Oc7ccc(F)cc7F)cc6)c(C(N)=O)c5N)C4)CC3)ccc2CC1C(=O)NC1CCCc2ccccc21)C(C)(C)C

> <Shape>
0.205

> <Color>
0.169

> <Negative vol penalty>
0.000

$$$$

  -OEChem-04052323223D

 79 87  0     1  0  0  0  0  0999 V2000
  -31.2976  -32.6298   28.1736 C   0  0  0  0  0  0  0  0  0  0  0  0
  -31.7360  -31.3108   28.2317 C   0  0  0  0  0  0  0  0  0  0  0  0
  -23.0055   -9.8857   19.9781 C   0  0  0  0  0  0  0  0  0  0  0  0
  -23.7292   -9.9392   22.2825 C   0  0  0  0  0  0  0  0  0  0  0  0
  -30.3731  -33.0137   27.2031 C   0  0  0  0  0  0  0  0  0  0  0  0
  -31.2493  -30.3746   27.3200 C   0  0  0  0  0  0  0  0  0  0  0  0
  -33.2545  -24.5026   23.7403 C   0  0  0  0  0  0  0  0  0  0  0  0
  -22.2419   -8.7492   20.2443 C   0  0  0  0  0  0  0  0  0  0  0  0
  -22.9656   -8.8027   22.5487 C   0  0  0  0  0  0  0  0  0  0  0  0
  -32.8415  -23.1923   23.5029 C   0  0  0  0  0  0  0  0  0  0  0  0
  -23.2193   -5.4644   22.0778 C   0  0  0  0  0  0  0  0  0  0  0  0
  -23.8092   -4.4490   22.8305 C   0  0  0  0  0  0  0  0  0  0  0  0
  -31.3070  -23.9874   21.8199 C   0  0  0  0  0  0  0  0  0  0  0  0
  -22.0838   -4.6876   24.5048 C   0  0  0  0  0  0  0  0  0  0  0  0
  -32.2580  -18.4328   21.8822 C   0  0  0  0  0  0  0  0  0  0  0  0
  -23.7492  -10.4807   20.9972 C   0  0  0  0  0  0  0  0  0  0  0  0
  -24.1277  -12.9973   20.8207 C   0  0  0  0  0  0  0  0  0  0  0  0
  -29.8821  -32.0840   26.2730 C   0  0  0  0  0  0  0  0  0  0  0  0
  -32.6881  -25.5679   23.0258 C   0  0  0  0  0  0  0  0  0  0  0  0
  -30.3164  -30.7462   26.3371 C   0  0  0  0  0  0  0  0  0  0  0  0
  -31.7165  -25.3100   22.0483 C   0  0  0  0  0  0  0  0  0  0  0  0
  -31.5215  -19.2996   22.6637 C   0  0  0  0  0  0  0  0  0  0  0  0
  -22.2219   -8.2077   21.5296 C   0  0  0  0  0  0  0  0  0  0  0  0
  -31.8655  -22.9348   22.5446 C   0  0  0  0  0  0  0  0  0  0  0  0
  -22.0617   -6.0915   22.5386 C   0  0  0  0  0  0  0  0  0  0  0  0
  -23.2415   -4.0606   24.0440 C   0  0  0  0  0  0  0  0  0  0  0  0
  -21.4939   -5.7031   23.7520 C   0  0  0  0  0  0  0  0  0  0  0  0
  -24.5386  -11.6544   20.7226 C   0  0  0  0  0  0  0  0  0  0  0  0
  -30.2632  -18.8595   23.0203 C   0  0  0  0  0  0  0  0  0  0  0  0
  -25.2357  -13.7228   20.4567 C   0  0  0  0  0  0  0  0  0  0  0  0
  -30.5683  -16.9122   21.8880 C   0  0  0  0  0  0  0  0  0  0  0  0
  -22.8581  -13.5403   21.2064 C   0  0  0  0  0  0  0  0  0  0  0  0
  -30.9939  -28.1422   23.8047 C   0  0  0  0  0  0  0  0  0  0  0  0
  -31.3644  -28.8574   20.6625 C   0  0  0  0  0  0  0  0  0  0  0  0
  -31.9437  -27.7481   17.4875 C   0  0  0  0  0  0  0  0  0  0  0  0
  -30.7124  -14.6990   20.6934 C   0  0  0  0  0  0  0  0  0  0  0  0
  -28.8481  -32.5353   25.2721 C   0  0  0  0  0  0  0  0  0  0  0  0
  -33.1638  -26.9730   23.2749 C   0  0  0  0  0  0  0  0  0  0  0  0
  -31.0917  -26.4165   21.2398 C   0  0  0  0  0  0  0  0  0  0  0  0
  -28.6649  -31.5665   24.1067 C   0  0  0  0  0  0  0  0  0  0  0  0
  -29.6021  -12.2424   18.3675 C   0  0  0  0  0  0  0  0  0  0  0  0
  -28.5529  -30.1332   24.6165 C   0  0  0  0  0  0  0  0  0  0  0  0
  -28.1520  -11.9809   18.7810 C   0  0  0  0  0  0  0  0  0  0  0  0
  -30.5013  -12.4886   19.5777 C   0  0  0  0  0  0  0  0  0  0  0  0
  -28.5830  -13.2726   20.9100 C   0  0  0  0  0  0  0  0  0  0  0  0
  -29.8304  -29.7072   25.3500 C   0  0  1  0  0  0  0  0  0  0  0  0
  -32.1497  -28.0310   22.8511 C   0  0  1  0  0  0  0  0  0  0  0  0
  -27.6266  -13.0833   19.7213 C   0  0  2  0  0  0  0  0  0  0  0  0
  -29.3762  -19.7148   23.8636 C   0  0  0  0  0  0  0  0  0  0  0  0
  -32.1515  -28.5633   15.1232 C   0  0  0  0  0  0  0  0  0  0  0  0
  -28.3321  -29.1571   20.5019 C   0  0  0  0  0  0  0  0  0  0  0  0
  -28.5207  -29.0227   18.0090 C   0  0  0  0  0  0  0  0  0  0  0  0
  -29.6201  -30.8917   19.2422 C   0  0  0  0  0  0  0  0  0  0  0  0
  -34.7348  -26.7863   17.2784 C   0  0  0  0  0  0  0  0  0  0  0  0
  -32.0769  -20.6284   23.0847 C   0  0  0  0  0  0  0  0  0  1  0  0
  -30.5902  -28.5624   19.4004 C   0  0  1  0  0  0  0  0  0  0  0  0
  -32.8946  -28.2340   16.4085 C   0  0  2  0  0  0  0  0  0  0  0  0
  -29.2760  -29.3876   19.3048 C   0  0  0  0  0  0  0  0  0  0  0  0
  -31.8107  -17.2269   21.4746 N   0  0  0  0  0  0  0  0  0  0  0  0
  -25.8084  -11.5313   20.3272 N   0  0  0  0  0  0  0  0  0  0  0  0
  -29.7528  -17.6672   22.6486 N   0  0  0  0  0  0  0  0  0  0  0  0
  -26.2050  -12.8061   20.1735 N   0  0  0  0  0  0  0  0  0  0  0  0
  -31.5855  -27.7739   21.5245 N   0  0  0  0  0  0  0  0  0  0  0  0
  -29.9429  -13.5482   20.4205 N   0  0  0  0  0  0  0  0  0  0  0  0
  -25.4656  -15.0491   20.3544 N   0  0  0  0  0  0  0  0  0  0  0  0
  -21.8285  -12.6535   21.5496 N   0  0  0  0  0  0  0  0  0  0  0  0
  -30.0651  -15.6526   21.4784 N   0  0  0  0  0  0  0  0  0  0  0  0
  -30.8738  -29.3830   24.4009 N   0  0  0  0  0  0  0  0  0  0  0  0
  -31.5152  -28.7814   18.2937 N   0  0  0  0  0  0  0  0  0  0  0  0
  -33.9139  -27.1893   16.1076 N   0  3  0  0  0  0  0  0  0  0  0  0
  -22.6380  -14.7751   21.2297 O   0  0  0  0  0  0  0  0  0  0  0  0
  -30.2643  -27.1743   23.9851 O   0  0  0  0  0  0  0  0  0  0  0  0
  -31.7644  -30.0052   20.8722 O   0  0  0  0  0  0  0  0  0  0  0  0
  -31.6112  -26.5704   17.6012 O   0  0  0  0  0  0  0  0  0  0  0  0
  -31.8509  -14.8409   20.2400 O   0  0  0  0  0  0  0  0  0  0  0  0
  -21.4768   -7.0988   21.7898 O   0  0  0  0  0  0  0  0  0  0  0  0
  -31.4601  -21.6569   22.3114 O   0  0  0  0  0  0  0  0  0  1  0  0
  -23.8072   -3.0844   24.7659 F   0  0  0  0  0  0  0  0  0  0  0  0
  -20.3811   -6.3010   24.1993 F   0  0  0  0  0  0  0  0  0  0  0  0
  1  2  1  0  0  0  0
  1  5  2  0  0  0  0
  2  6  2  0  0  0  0
  3  8  2  0  0  0  0
  3 16  1  0  0  0  0
  4  9  1  0  0  0  0
  4 16  2  0  0  0  0
  5 18  1  0  0  0  0
  6 20  1  0  0  0  0
  7 10  2  0  0  0  0
  7 19  1  0  0  0  0
  8 23  1  0  0  0  0
  9 23  2  0  0  0  0
 10 24  1  0  0  0  0
 11 12  2  0  0  0  0
 11 25  1  0  0  0  0
 12 26  1  0  0  0  0
 13 21  1  0  0  0  0
 13 24  2  0  0  0  0
 14 26  2  0  0  0  0
 14 27  1  0  0  0  0
 15 22  1  0  0  0  0
 15 59  2  0  0  0  0
 16 28  1  0  0  0  0
 17 28  1  0  0  0  0
 17 30  2  0  0  0  0
 17 32  1  0  0  0  0
 18 20  2  0  0  0  0
 18 37  1  0  0  0  0
 19 21  2  0  0  0  0
 19 38  1  0  0  0  0
 20 46  1  0  0  0  0
 21 39  1  0  0  0  0
 22 29  2  0  0  0  0
 22 55  1  0  0  0  0
 23 76  1  0  0  0  0
 24 77  1  0  0  0  0
 25 27  2  0  0  0  0
 25 76  1  0  0  0  0
 26 78  1  0  0  0  0
 27 79  1  0  0  0  0
 28 60  2  0  0  0  0
 29 49  1  0  0  0  0
 29 61  1  0  0  0  0
 30 62  1  0  0  0  0
 30 65  1  0  0  0  0
 31 59  1  0  0  0  0
 31 61  2  0  0  0  0
 31 67  1  0  0  0  0
 32 66  1  0  0  0  0
 32 71  2  0  0  0  0
 33 47  1  0  0  0  0
 33 68  1  0  0  0  0
 33 72  2  0  0  0  0
 34 56  1  0  0  0  0
 34 63  1  0  0  0  0
 34 73  2  0  0  0  0
 35 57  1  0  0  0  0
 35 69  1  0  0  0  0
 35 74  2  0  0  0  0
 36 64  1  0  0  0  0
 36 67  1  0  0  0  0
 36 75  2  0  0  0  0
 37 40  1  0  0  0  0
 38 47  1  0  0  0  0
 39 63  1  0  0  0  0
 40 42  1  0  0  0  0
 41 43  1  0  0  0  0
 41 44  1  0  0  0  0
 42 46  1  0  0  0  0
 43 48  1  0  0  0  0
 44 64  1  0  0  0  0
 45 48  1  0  0  0  0
 45 64  1  0  0  0  0
 46 68  1  0  0  0  0
 47 63  1  0  0  0  0
 48 62  1  0  0  0  0
 50 57  1  0  0  0  0
 51 58  1  0  0  0  0
 52 58  1  0  0  0  0
 53 58  1  0  0  0  0
 54 70  1  0  0  0  0
 55 77  1  0  0  0  0
 56 58  1  0  0  0  0
 56 69  1  0  0  0  0
 57 70  1  0  0  0  0
 60 62  1  0  0  0  0
M  CHG  1  70   1
M  ISO  4  36 100  55 101  67 100  77 101
M  END
> <Batch ID>
0189

> <Smiles>
CNC(C)C(=O)NC(C(=O)N1Cc2cc([101O:1][101CH2:1]c3cnc([100NH:0][100C:0](=O)N4CCCC(n5nc(-c6ccc(Oc7ccc(F)cc7F)cc6)c(C(N)=O)c5N)C4)nc3C)ccc2CC1C(=O)NC1CCCc2ccccc21)C(C)(C)C

> <Shape>
0.220

> <Color>
0.198

> <Negative vol penalty>
0.000

$$$$

  -OEChem-04052323223D

 83 92  0     1  0  0  0  0  0999 V2000
  -26.7070  -37.8758   19.0417 C   0  0  0  0  0  0  0  0  0  0  0  0
  -27.2684  -36.6158   18.8605 C   0  0  0  0  0  0  0  0  0  0  0  0
  -24.9741   -9.2451   18.5814 C   0  0  0  0  0  0  0  0  0  0  0  0
  -24.4689   -8.6748   20.8742 C   0  0  0  0  0  0  0  0  0  0  0  0
  -25.8989  -38.1247   20.1502 C   0  0  0  0  0  0  0  0  0  0  0  0
  -27.0228  -35.6044   19.7884 C   0  0  0  0  0  0  0  0  0  0  0  0
  -26.4314  -29.6181   18.6390 C   0  0  0  0  0  0  0  0  0  0  0  0
  -24.9613   -7.8922   18.2421 C   0  0  0  0  0  0  0  0  0  0  0  0
  -24.4560   -7.3219   20.5348 C   0  0  0  0  0  0  0  0  0  0  0  0
  -27.3219  -28.5505   18.7433 C   0  0  0  0  0  0  0  0  0  0  0  0
  -22.3342   -5.1464   19.0565 C   0  0  0  0  0  0  0  0  0  0  0  0
  -21.2904   -4.3653   19.5524 C   0  0  0  0  0  0  0  0  0  0  0  0
  -26.4367  -28.0334   20.9269 C   0  0  0  0  0  0  0  0  0  0  0  0
  -22.8869   -2.9583   20.6964 C   0  0  0  0  0  0  0  0  0  0  0  0
  -31.6071  -24.2640   19.7790 C   0  0  0  0  0  0  0  0  0  0  0  0
  -29.5031  -24.0324   19.1834 C   0  0  0  0  0  0  0  0  0  0  0  0
  -24.7279   -9.6364   19.8975 C   0  0  0  0  0  0  0  0  0  0  0  0
  -23.6524  -11.9255   20.2308 C   0  0  0  0  0  0  0  0  0  0  0  0
  -25.6354  -37.1130   21.0871 C   0  0  0  0  0  0  0  0  0  0  0  0
  -25.5428  -29.9086   19.6842 C   0  0  0  0  0  0  0  0  0  0  0  0
  -26.2115  -35.8404   20.9113 C   0  0  0  0  0  0  0  0  0  0  0  0
  -25.5342  -29.1037   20.8323 C   0  0  0  0  0  0  0  0  0  0  0  0
  -30.6053  -23.3011   19.5534 C   0  0  0  0  0  0  0  0  0  0  0  0
  -24.7023   -6.9306   19.2187 C   0  0  0  0  0  0  0  0  0  0  0  0
  -27.3267  -27.7597   19.8886 C   0  0  0  0  0  0  0  0  0  0  0  0
  -23.6544   -4.8335   19.3804 C   0  0  0  0  0  0  0  0  0  0  0  0
  -21.5668   -3.2713   20.3724 C   0  0  0  0  0  0  0  0  0  0  0  0
  -23.9307   -3.7395   20.2004 C   0  0  0  0  0  0  0  0  0  0  0  0
  -24.7415  -11.0337   20.2488 C   0  0  0  0  0  0  0  0  0  0  0  0
  -24.1819  -13.1227   20.6462 C   0  0  0  0  0  0  0  0  0  0  0  0
  -22.2842  -11.6923   19.8709 C   0  0  0  0  0  0  0  0  0  0  0  0
  -25.0849  -32.3923   21.6143 C   0  0  0  0  0  0  0  0  0  0  0  0
  -22.5159  -30.6666   22.5861 C   0  0  0  0  0  0  0  0  0  0  0  0
  -21.0268  -27.6115   22.8951 C   0  0  0  0  0  0  0  0  0  0  0  0
  -28.3346  -16.8257   20.0669 C   0  0  0  0  0  0  0  0  0  0  0  0
  -24.7941  -37.4430   22.2946 C   0  0  0  0  0  0  0  0  0  0  0  0
  -24.5701  -31.0474   19.5450 C   0  0  0  0  0  0  0  0  0  0  0  0
  -24.5863  -29.3611   21.9742 C   0  0  0  0  0  0  0  0  0  0  0  0
  -24.2787  -36.2105   23.0331 C   0  0  0  0  0  0  0  0  0  0  0  0
  -28.6804  -14.2141   22.6775 C   0  0  0  0  0  0  0  0  0  0  0  0
  -25.4022  -35.1977   23.2302 C   0  0  0  0  0  0  0  0  0  0  0  0
  -27.6143  -13.2088   22.2394 C   0  0  0  0  0  0  0  0  0  0  0  0
  -29.5432  -19.3833   22.4141 C   0  0  0  0  0  0  0  0  0  0  0  0
  -29.2677  -14.9438   21.4765 C   0  0  0  0  0  0  0  0  0  0  0  0
  -29.3499  -17.8905   22.1668 C   0  0  0  0  0  0  0  0  0  0  0  0
  -27.1900  -14.6419   20.1845 C   0  0  0  0  0  0  0  0  0  0  0  0
  -29.4515  -19.0390   20.0573 C   0  0  0  0  0  0  0  0  0  0  0  0
  -25.9483  -34.7103   21.8827 C   0  0  1  0  0  0  0  0  0  0  0  0
  -24.0621  -31.5666   20.8865 C   0  0  1  0  0  0  0  0  0  0  0  0
  -26.5463  -13.8793   21.3561 C   0  0  1  0  0  0  0  0  0  0  0  0
  -30.1982  -19.8301   21.1156 C   0  0  1  0  0  0  0  0  0  0  0  0
  -18.9439  -26.5141   23.7639 C   0  0  0  0  0  0  0  0  0  0  0  0
  -23.5508  -30.9678   25.4406 C   0  0  0  0  0  0  0  0  0  0  0  0
  -22.0173  -29.1085   26.1186 C   0  0  0  0  0  0  0  0  0  0  0  0
  -21.0754  -31.2260   25.1958 C   0  0  0  0  0  0  0  0  0  0  0  0
  -20.3020  -26.5975   20.2108 C   0  0  0  0  0  0  0  0  0  0  0  0
  -30.7150  -21.8105   19.6841 C   0  0  0  0  0  0  0  0  0  0  0  0
  -29.0791  -26.4848   18.8928 C   0  0  0  0  0  0  0  0  0  1  0  0
  -22.2692  -29.6224   23.6481 C   0  0  1  0  0  0  0  0  0  0  0  0
  -19.6264  -27.1344   22.5547 C   0  0  2  0  0  0  0  0  0  0  0  0
  -22.2475  -30.2273   25.0803 C   0  0  0  0  0  0  0  0  0  0  0  0
  -31.1793  -25.5119   19.5697 N   0  0  0  0  0  0  0  0  0  0  0  0
  -25.8773  -11.6149   20.6442 N   0  0  0  0  0  0  0  0  0  0  0  0
  -29.8965  -25.3380   19.2086 N   0  0  0  0  0  0  0  0  0  0  0  0
  -25.5047  -12.8847   20.8784 N   0  0  0  0  0  0  0  0  0  0  0  0
  -23.6587  -30.4899   21.7933 N   0  0  0  0  0  0  0  0  0  0  0  0
  -28.2157  -15.5681   20.6693 N   0  0  0  0  0  0  0  0  0  0  0  0
  -29.1008  -17.7866   20.7252 N   0  0  0  0  0  0  0  0  0  0  0  0
  -23.6406  -14.3454   20.8318 N   0  0  0  0  0  0  0  0  0  0  0  0
  -21.9099  -10.4035   19.4670 N   0  0  0  0  0  0  0  0  0  0  0  0
  -25.0523  -33.7367   21.2966 N   0  0  0  0  0  0  0  0  0  0  0  0
  -21.0374  -28.9384   23.2696 N   0  0  0  0  0  0  0  0  0  0  0  0
  -30.0492  -21.2802   20.9109 N   0  3  0  0  0  0  0  0  0  0  0  0
  -19.6761  -26.1150   21.4687 N   0  3  0  0  0  0  0  0  0  0  0  0
  -21.4228  -12.6040   19.8906 O   0  0  0  0  0  0  0  0  0  0  0  0
  -25.8464  -31.8500   22.4066 O   0  0  0  0  0  0  0  0  0  0  0  0
  -21.7201  -31.6006   22.4599 O   0  0  0  0  0  0  0  0  0  0  0  0
  -22.0122  -26.8791   22.8383 O   0  0  0  0  0  0  0  0  0  0  0  0
  -27.7431  -17.0939   19.0128 O   0  0  0  0  0  0  0  0  0  0  0  0
  -24.6895   -5.6104   18.8879 O   0  0  0  0  0  0  0  0  0  0  0  0
  -28.2010  -26.7107   19.9939 O   0  0  0  0  0  0  0  0  0  1  0  0
  -20.5642   -2.5222   20.8498 F   0  0  0  0  0  0  0  0  0  0  0  0
  -25.1969   -3.4346   20.5161 F   0  0  0  0  0  0  0  0  0  0  0  0
  1  2  1  0  0  0  0
  1  5  2  0  0  0  0
  2  6  2  0  0  0  0
  3  8  2  0  0  0  0
  3 17  1  0  0  0  0
  4  9  1  0  0  0  0
  4 17  2  0  0  0  0
  5 19  1  0  0  0  0
  6 21  1  0  0  0  0
  7 10  2  0  0  0  0
  7 20  1  0  0  0  0
  8 24  1  0  0  0  0
  9 24  2  0  0  0  0
 10 25  1  0  0  0  0
 11 12  2  0  0  0  0
 11 26  1  0  0  0  0
 12 27  1  0  0  0  0
 13 22  1  0  0  0  0
 13 25  2  0  0  0  0
 14 27  2  0  0  0  0
 14 28  1  0  0  0  0
 15 23  1  0  0  0  0
 15 62  2  0  0  0  0
 16 23  2  0  0  0  0
 16 64  1  0  0  0  0
 17 29  1  0  0  0  0
 18 29  1  0  0  0  0
 18 30  2  0  0  0  0
 18 31  1  0  0  0  0
 19 21  2  0  0  0  0
 19 36  1  0  0  0  0
 20 22  2  0  0  0  0
 20 37  1  0  0  0  0
 21 48  1  0  0  0  0
 22 38  1  0  0  0  0
 23 57  1  0  0  0  0
 24 80  1  0  0  0  0
 25 81  1  0  0  0  0
 26 28  2  0  0  0  0
 26 80  1  0  0  0  0
 27 82  1  0  0  0  0
 28 83  1  0  0  0  0
 29 63  2  0  0  0  0
 30 65  1  0  0  0  0
 30 69  1  0  0  0  0
 31 70  1  0  0  0  0
 31 75  2  0  0  0  0
 32 49  1  0  0  0  0
 32 71  1  0  0  0  0
 32 76  2  0  0  0  0
 33 59  1  0  0  0  0
 33 66  1  0  0  0  0
 33 77  2  0  0  0  0
 34 60  1  0  0  0  0
 34 72  1  0  0  0  0
 34 78  2  0  0  0  0
 35 67  1  0  0  0  0
 35 68  1  0  0  0  0
 35 79  2  0  0  0  0
 36 39  1  0  0  0  0
 37 49  1  0  0  0  0
 38 66  1  0  0  0  0
 39 41  1  0  0  0  0
 40 42  1  0  0  0  0
 40 44  1  0  0  0  0
 41 48  1  0  0  0  0
 42 50  1  0  0  0  0
 43 45  1  0  0  0  0
 43 51  1  0  0  0  0
 44 67  1  0  0  0  0
 45 68  1  0  0  0  0
 46 50  1  0  0  0  0
 46 67  1  0  0  0  0
 47 51  1  0  0  0  0
 47 68  1  0  0  0  0
 48 71  1  0  0  0  0
 49 66  1  0  0  0  0
 50 65  1  0  0  0  0
 51 73  1  0  0  0  0
 52 60  1  0  0  0  0
 53 61  1  0  0  0  0
 54 61  1  0  0  0  0
 55 61  1  0  0  0  0
 56 74  1  0  0  0  0
 57 73  1  0  0  0  0
 58 64  1  0  0  0  0
 58 81  1  0  0  0  0
 59 61  1  0  0  0  0
 59 72  1  0  0  0  0
 60 74  1  0  0  0  0
 62 64  1  0  0  0  0
 63 65  1  0  0  0  0
M  CHG  2  73   1  74   1
M  ISO  4  35 100  58 101  68 100  81 101
M  END
> <Batch ID>
0189

> <Smiles>
CNC(C)C(=O)NC(C(=O)N1Cc2cc([101O:1][101CH2:1]n3cc(CNC4CC[100N:0]([100C:0](=O)N5CCCC(n6nc(-c7ccc(Oc8ccc(F)cc8F)cc7)c(C(N)=O)c6N)C5)C4)cn3)ccc2CC1C(=O)NC1CCCc2ccccc21)C(C)(C)C

> <Shape>
0.276

> <Color>
0.105

> <Negative vol penalty>
0.000

$$$$

  -OEChem-04052323223D

 86 96  0     1  0  0  0  0  0999 V2000
  -24.1267  -19.5079   23.6084 C   0  0  0  0  0  0  0  0  0  0  0  0
  -25.0034  -20.5869   23.5997 C   0  0  0  0  0  0  0  0  0  0  0  0
  -23.6527   -9.9526   21.9901 C   0  0  0  0  0  0  0  0  0  0  0  0
  -24.1375   -8.9606   19.8411 C   0  0  0  0  0  0  0  0  0  0  0  0
  -22.8459  -19.6511   23.0790 C   0  0  0  0  0  0  0  0  0  0  0  0
  -24.5957  -21.8127   23.0726 C   0  0  0  0  0  0  0  0  0  0  0  0
  -27.6679  -25.6155   23.6237 C   0  0  0  0  0  0  0  0  0  0  0  0
  -22.7041   -8.9596   22.2345 C   0  0  0  0  0  0  0  0  0  0  0  0
  -23.1889   -7.9676   20.0855 C   0  0  0  0  0  0  0  0  0  0  0  0
  -28.8613  -25.7296   22.9120 C   0  0  0  0  0  0  0  0  0  0  0  0
  -22.6810   -5.7249   23.2187 C   0  0  0  0  0  0  0  0  0  0  0  0
  -22.6821   -5.1229   24.4770 C   0  0  0  0  0  0  0  0  0  0  0  0
  -27.8369  -27.3690   21.4689 C   0  0  0  0  0  0  0  0  0  0  0  0
  -20.4144   -5.8739   24.8382 C   0  0  0  0  0  0  0  0  0  0  0  0
  -30.6334  -24.2341   17.9558 C   0  0  0  0  0  0  0  0  0  0  0  0
  -24.3694   -9.9531   20.7934 C   0  0  0  0  0  0  0  0  0  0  0  0
  -26.7186  -10.9452   20.8644 C   0  0  0  0  0  0  0  0  0  0  0  0
  -22.4273  -20.8761   22.5340 C   0  0  0  0  0  0  0  0  0  0  0  0
  -26.5449  -26.3706   23.2559 C   0  0  0  0  0  0  0  0  0  0  0  0
  -23.2988  -21.9840   22.5554 C   0  0  0  0  0  0  0  0  0  0  0  0
  -26.6312  -27.2645   22.1792 C   0  0  0  0  0  0  0  0  0  0  0  0
  -22.4722   -7.9671   21.2822 C   0  0  0  0  0  0  0  0  0  0  0  0
  -28.9451  -26.6043   21.8326 C   0  0  0  0  0  0  0  0  0  0  0  0
  -21.5466   -6.4014   22.7702 C   0  0  0  0  0  0  0  0  0  0  0  0
  -21.5488   -5.1974   25.2867 C   0  0  0  0  0  0  0  0  0  0  0  0
  -20.4133   -6.4759   23.5800 C   0  0  0  0  0  0  0  0  0  0  0  0
  -25.3491  -10.9789   20.5401 C   0  0  0  0  0  0  0  0  0  0  0  0
  -31.5882  -25.1592   18.3258 C   0  0  0  0  0  0  0  0  0  0  0  0
  -29.4942  -24.2082   18.7340 C   0  0  0  0  0  0  0  0  0  0  0  0
  -27.2069  -12.1488   20.4180 C   0  0  0  0  0  0  0  0  0  0  0  0
  -30.2963  -25.8768   20.0529 C   0  0  0  0  0  0  0  0  0  1  0  0
  -27.4811   -9.9177   21.5112 C   0  0  0  0  0  0  0  0  0  0  0  0
  -23.6119  -25.6809   22.2431 C   0  0  0  0  0  0  0  0  0  0  0  0
  -23.1834  -28.8843   22.5215 C   0  0  0  0  0  0  0  0  0  0  0  0
  -24.5777  -31.9983   22.5937 C   0  0  0  0  0  0  0  0  0  0  0  0
  -26.4936  -17.6952   20.2739 C   0  0  0  0  0  0  0  0  0  0  0  0
  -21.0275  -20.9779   21.9813 C   0  0  0  0  0  0  0  0  0  0  0  0
  -25.2729  -26.2557   24.0505 C   0  0  0  0  0  0  0  0  0  0  0  0
  -25.4604  -28.1126   21.7567 C   0  0  0  0  0  0  0  0  0  0  0  0
  -20.8410  -22.1718   21.0508 C   0  0  0  0  0  0  0  0  0  0  0  0
  -25.0940  -15.6855   17.4888 C   0  0  0  0  0  0  0  0  0  0  0  0
  -21.3787  -23.4333   21.7097 C   0  0  0  0  0  0  0  0  0  0  0  0
  -33.6874  -24.0133   17.3489 C   0  0  0  0  0  0  0  0  0  0  0  0
  -34.1708  -25.1097   18.2458 C   0  0  0  0  0  0  0  0  0  0  0  0
  -25.1154  -14.2804   18.0923 C   0  0  0  0  0  0  0  0  0  0  0  0
  -27.7937  -20.1676   17.8846 C   0  0  0  0  0  0  0  0  0  0  0  0
  -24.8879  -16.7394   18.5689 C   0  0  0  0  0  0  0  0  0  0  0  0
  -26.9041  -18.9426   18.0717 C   0  0  0  0  0  0  0  0  0  0  0  0
  -25.9202  -15.2944   20.2787 C   0  0  0  0  0  0  0  0  0  0  0  0
  -27.1297  -20.0893   20.1725 C   0  0  0  0  0  0  0  0  0  0  0  0
  -22.8877  -23.3183   21.9595 C   0  0  1  0  0  0  0  0  0  0  0  0
  -32.8501  -25.2512   17.5358 C   0  0  0  0  0  0  0  0  0  0  0  0
  -24.0383  -26.6932   23.2684 C   0  0  1  0  0  0  0  0  0  0  0  0
  -26.1393  -14.1821   19.2379 C   0  0  1  0  0  0  0  0  0  0  0  0
  -27.3326  -21.0622   19.0255 C   0  0  1  0  0  0  0  0  0  0  0  0
  -23.9698  -34.4246   22.7960 C   0  0  0  0  0  0  0  0  0  0  0  0
  -22.2113  -28.8794   19.6292 C   0  0  0  0  0  0  0  0  0  0  0  0
  -22.5296  -31.3624   19.5913 C   0  0  0  0  0  0  0  0  0  0  0  0
  -20.8914  -30.3407   21.1709 C   0  0  0  0  0  0  0  0  0  0  0  0
  -26.1598  -32.3074   25.0757 C   0  0  0  0  0  0  0  0  0  0  0  0
  -28.3991  -23.2352   18.4097 C   0  0  0  0  0  0  0  0  0  0  0  0
  -23.3672  -30.0710   21.6066 C   0  0  1  0  0  0  0  0  0  0  0  0
  -24.3844  -33.1668   23.5434 C   0  0  2  0  0  0  0  0  0  0  0  0
  -22.2715  -30.1461   20.5060 C   0  0  0  0  0  0  0  0  0  0  0  0
  -24.9904  -12.1141   19.9346 N   0  0  0  0  0  0  0  0  0  0  0  0
  -31.4520  -25.9994   19.3726 N   0  0  0  0  0  0  0  0  0  0  0  0
  -29.2916  -25.0183   19.7938 N   0  0  0  0  0  0  0  0  0  0  0  0
  -26.1416  -12.8049   19.8749 N   0  0  0  0  0  0  0  0  0  0  0  0
  -24.2368  -27.9599   22.5610 N   0  0  0  0  0  0  0  0  0  0  0  0
  -25.8863  -16.6089   19.6339 N   0  0  0  0  0  0  0  0  0  0  0  0
  -26.7078  -18.8497   19.5222 N   0  0  0  0  0  0  0  0  0  0  0  0
  -28.4392  -12.6994   20.4410 N   0  0  0  0  0  0  0  0  0  0  0  0
  -26.8228   -8.7447   21.9050 N   0  0  0  0  0  0  0  0  0  0  0  0
  -23.3189  -24.4370   22.7686 N   0  0  0  0  0  0  0  0  0  0  0  0
  -23.4290  -31.2458   22.4694 N   0  0  0  0  0  0  0  0  0  0  0  0
  -28.3456  -22.0790   19.3529 N   0  3  0  0  0  0  0  0  0  0  0  0
  -25.6493  -33.4519   24.2780 N   0  3  0  0  0  0  0  0  0  0  0  0
  -28.7066  -10.0430   21.7482 O   0  0  0  0  0  0  0  0  0  0  0  0
  -23.5517  -26.0050   21.0628 O   0  0  0  0  0  0  0  0  0  0  0  0
  -22.1465  -28.7850   23.1822 O   0  0  0  0  0  0  0  0  0  0  0  0
  -25.6402  -31.7776   22.0168 O   0  0  0  0  0  0  0  0  0  0  0  0
  -26.8722  -17.6208   21.4504 O   0  0  0  0  0  0  0  0  0  0  0  0
  -21.5468   -6.9979   21.5205 O   0  0  0  0  0  0  0  0  0  0  0  0
  -30.1233  -26.7185   21.1270 O   0  0  0  0  0  0  0  0  0  1  0  0
  -21.5494   -4.6180   26.4944 F   0  0  0  0  0  0  0  0  0  0  0  0
  -19.3201   -7.1235   23.1540 F   0  0  0  0  0  0  0  0  0  0  0  0
  1  2  1  0  0  0  0
  1  5  2  0  0  0  0
  2  6  2  0  0  0  0
  3  8  2  0  0  0  0
  3 16  1  0  0  0  0
  4  9  1  0  0  0  0
  4 16  2  0  0  0  0
  5 18  1  0  0  0  0
  6 20  1  0  0  0  0
  7 10  2  0  0  0  0
  7 19  1  0  0  0  0
  8 22  1  0  0  0  0
  9 22  2  0  0  0  0
 10 23  1  0  0  0  0
 11 12  2  0  0  0  0
 11 24  1  0  0  0  0
 12 25  1  0  0  0  0
 13 21  1  0  0  0  0
 13 23  2  0  0  0  0
 14 25  2  0  0  0  0
 14 26  1  0  0  0  0
 15 28  2  0  0  0  0
 15 29  1  0  0  0  0
 16 27  1  0  0  0  0
 17 27  1  0  0  0  0
 17 30  2  0  0  0  0
 17 32  1  0  0  0  0
 18 20  2  0  0  0  0
 18 37  1  0  0  0  0
 19 21  2  0  0  0  0
 19 38  1  0  0  0  0
 20 51  1  0  0  0  0
 21 39  1  0  0  0  0
 22 83  1  0  0  0  0
 23 84  1  0  0  0  0
 24 26  2  0  0  0  0
 24 83  1  0  0  0  0
 25 85  1  0  0  0  0
 26 86  1  0  0  0  0
 27 65  2  0  0  0  0
 28 52  1  0  0  0  0
 28 66  1  0  0  0  0
 29 61  1  0  0  0  0
 29 67  2  0  0  0  0
 30 68  1  0  0  0  0
 30 72  1  0  0  0  0
 31 66  2  0  0  0  0
 31 67  1  0  0  0  0
 31 84  1  0  0  0  0
 32 73  1  0  0  0  0
 32 78  2  0  0  0  0
 33 53  1  0  0  0  0
 33 74  1  0  0  0  0
 33 79  2  0  0  0  0
 34 62  1  0  0  0  0
 34 69  1  0  0  0  0
 34 80  2  0  0  0  0
 35 63  1  0  0  0  0
 35 75  1  0  0  0  0
 35 81  2  0  0  0  0
 36 70  1  0  0  0  0
 36 71  1  0  0  0  0
 36 82  2  0  0  0  0
 37 40  1  0  0  0  0
 38 53  1  0  0  0  0
 39 69  1  0  0  0  0
 40 42  1  0  0  0  0
 41 45  1  0  0  0  0
 41 47  1  0  0  0  0
 42 51  1  0  0  0  0
 43 44  1  0  0  0  0
 43 52  1  0  0  0  0
 44 52  1  0  0  0  0
 45 54  1  0  0  0  0
 46 48  1  0  0  0  0
 46 55  1  0  0  0  0
 47 70  1  0  0  0  0
 48 71  1  0  0  0  0
 49 54  1  0  0  0  0
 49 70  1  0  0  0  0
 50 55  1  0  0  0  0
 50 71  1  0  0  0  0
 51 74  1  0  0  0  0
 53 69  1  0  0  0  0
 54 68  1  0  0  0  0
 55 76  1  0  0  0  0
 56 63  1  0  0  0  0
 57 64  1  0  0  0  0
 58 64  1  0  0  0  0
 59 64  1  0  0  0  0
 60 77  1  0  0  0  0
 61 76  1  0  0  0  0
 62 64  1  0  0  0  0
 62 75  1  0  0  0  0
 63 77  1  0  0  0  0
 65 68  1  0  0  0  0
M  CHG  2  76   1  77   1
M  ISO  4  31 101  36 100  71 100  84 101
M  END
> <Batch ID>
0189

> <Smiles>
CNC(C)C(=O)NC(C(=O)N1Cc2cc([101O:1][101c:1]3nc(CNC4CC[100N:0]([100C:0](=O)N5CCCC(n6nc(-c7ccc(Oc8ccc(F)cc8F)cc7)c(C(N)=O)c6N)C5)C4)cc(C4CC4)n3)ccc2CC1C(=O)NC1CCCc2ccccc21)C(C)(C)C

> <Shape>
0.246

> <Color>
0.082

> <Negative vol penalty>
0.000

$$$$

  -OEChem-04052323223D

 86 95  0     1  0  0  0  0  0999 V2000
  -23.8870  -29.8669   27.4953 C   0  0  0  0  0  0  0  0  0  0  0  0
  -24.6563  -29.1900   26.5543 C   0  0  0  0  0  0  0  0  0  0  0  0
  -24.0652  -10.7421   20.8844 C   0  0  0  0  0  0  0  0  0  0  0  0
  -25.6087  -11.2623   22.6688 C   0  0  0  0  0  0  0  0  0  0  0  0
  -22.4973  -29.7574   27.4667 C   0  0  0  0  0  0  0  0  0  0  0  0
  -24.0364  -28.4023   25.5849 C   0  0  0  0  0  0  0  0  0  0  0  0
  -25.9790  -29.1218   20.9639 C   0  0  0  0  0  0  0  0  0  0  0  0
  -23.9833   -9.4259   21.3390 C   0  0  0  0  0  0  0  0  0  0  0  0
  -25.5268   -9.9462   23.1234 C   0  0  0  0  0  0  0  0  0  0  0  0
  -27.1947  -28.5010   20.6805 C   0  0  0  0  0  0  0  0  0  0  0  0
  -22.4034   -7.7360   23.8049 C   0  0  0  0  0  0  0  0  0  0  0  0
  -21.1373   -7.1567   23.8886 C   0  0  0  0  0  0  0  0  0  0  0  0
  -26.0203  -26.7487   19.5103 C   0  0  0  0  0  0  0  0  0  0  0  0
  -21.8193   -5.4411   22.3302 C   0  0  0  0  0  0  0  0  0  0  0  0
  -24.8780  -11.6603   21.5493 C   0  0  0  0  0  0  0  0  0  0  0  0
  -23.9100  -13.9462   20.9617 C   0  0  0  0  0  0  0  0  0  0  0  0
  -21.8596  -28.9758   26.4905 C   0  0  0  0  0  0  0  0  0  0  0  0
  -24.7720  -28.5540   20.5312 C   0  0  0  0  0  0  0  0  0  0  0  0
  -22.6370  -28.2813   25.5441 C   0  0  0  0  0  0  0  0  0  0  0  0
  -24.7908  -27.3656   19.7872 C   0  0  0  0  0  0  0  0  0  0  0  0
  -24.7141   -9.0280   22.4585 C   0  0  0  0  0  0  0  0  0  0  0  0
  -27.2154  -27.3127   19.9561 C   0  0  0  0  0  0  0  0  0  0  0  0
  -23.3775   -7.1679   22.9838 C   0  0  0  0  0  0  0  0  0  0  0  0
  -20.8453   -6.0092   23.1513 C   0  0  0  0  0  0  0  0  0  0  0  0
  -23.0854   -6.0205   22.2465 C   0  0  0  0  0  0  0  0  0  0  0  0
  -24.9634  -13.0199   21.0799 C   0  0  0  0  0  0  0  0  0  0  0  0
  -24.5060  -15.0835   20.4740 C   0  0  0  0  0  0  0  0  0  0  0  0
  -22.5173  -13.7924   21.2655 C   0  0  0  0  0  0  0  0  0  0  0  0
  -22.1799  -27.4202   21.9800 C   0  0  0  0  0  0  0  0  0  0  0  0
  -21.0650  -27.1772   18.9435 C   0  0  0  0  0  0  0  0  0  0  0  0
  -22.3598  -26.1460   15.7376 C   0  0  0  0  0  0  0  0  0  0  0  0
  -30.1070  -17.1841   20.7340 C   0  0  0  0  0  0  0  0  0  0  0  0
  -20.3571  -28.8501   26.5287 C   0  0  0  0  0  0  0  0  0  0  0  0
  -23.4707  -29.2501   20.8220 C   0  0  0  0  0  0  0  0  0  0  0  0
  -23.5241  -26.7260   19.2824 C   0  0  0  0  0  0  0  0  0  0  0  0
  -19.7593  -28.2951   25.2384 C   0  0  0  0  0  0  0  0  0  0  0  0
  -28.2031  -16.5212   17.7992 C   0  0  0  0  0  0  0  0  0  0  0  0
  -20.5427  -27.0731   24.7695 C   0  0  0  0  0  0  0  0  0  0  0  0
  -27.0619  -15.6323   18.2965 C   0  0  0  0  0  0  0  0  0  0  0  0
  -32.1231  -22.9457   19.1803 C   0  0  0  0  0  0  0  0  0  0  0  0
  -32.5827  -21.5045   19.5019 C   0  0  0  0  0  0  0  0  0  0  0  0
  -30.5300  -20.9444   26.0909 C   0  0  0  0  0  0  0  0  0  0  0  0
  -29.5104  -16.2230   18.5301 C   0  0  0  0  0  0  0  0  0  0  0  0
  -29.8800  -21.2953   24.7386 C   0  0  0  0  0  0  0  0  0  0  0  0
  -30.7372  -19.5504   25.4681 C   0  0  0  0  0  0  0  0  0  0  0  0
  -28.2830  -15.3912   20.4987 C   0  0  0  0  0  0  0  0  0  0  0  0
  -22.0002  -27.4370   24.4616 C   0  0  1  0  0  0  0  0  0  0  0  0
  -22.2680  -28.3128   20.7745 C   0  0  1  0  0  0  0  0  0  0  0  0
  -26.9310  -15.6936   19.8303 C   0  0  2  0  0  0  0  0  0  0  0  0
  -31.0888  -22.7819   20.3172 C   0  0  2  0  0  0  0  0  0  0  0  0
  -31.1600  -21.2576   20.0615 C   0  0  2  0  0  0  0  0  0  0  0  0
  -21.6890  -26.8175   13.4146 C   0  0  0  0  0  0  0  0  0  0  0  0
  -19.2878  -24.6994   19.0523 C   0  0  0  0  0  0  0  0  0  0  0  0
  -19.8507  -24.2756   16.6499 C   0  0  0  0  0  0  0  0  0  0  0  0
  -18.6505  -26.3641   17.2982 C   0  0  0  0  0  0  0  0  0  0  0  0
  -25.1178  -26.9752   15.0560 C   0  0  0  0  0  0  0  0  0  0  0  0
  -29.7497  -24.7440   19.9654 C   0  0  0  0  0  0  0  0  0  0  0  0
  -30.5819  -18.0606   23.0067 C   0  0  0  0  0  0  0  0  0  0  0  0
  -29.8069  -20.2459   21.9014 C   0  0  0  0  0  0  0  0  0  0  0  0
  -28.3877  -25.2827   19.5553 C   0  0  0  0  0  0  0  0  0  1  0  0
  -21.0993  -26.1122   17.8741 C   0  0  1  0  0  0  0  0  0  0  0  0
  -22.6722  -27.0422   14.5528 C   0  0  2  0  0  0  0  0  0  0  0  0
  -29.9150  -19.4308   23.1943 C   0  0  2  0  0  0  0  0  0  0  0  0
  -19.7426  -25.3650   17.7381 C   0  0  0  0  0  0  0  0  0  0  0  0
  -26.1395  -13.5249   20.6980 N   0  0  0  0  0  0  0  0  0  0  0  0
  -25.8286  -14.7809   20.3349 N   0  0  0  0  0  0  0  0  0  0  0  0
  -22.2766  -27.4414   19.5978 N   0  0  0  0  0  0  0  0  0  0  0  0
  -29.3183  -16.2992   19.9804 N   0  0  0  0  0  0  0  0  0  0  0  0
  -30.7038  -20.2134   24.1388 N   0  0  0  0  0  0  0  0  0  0  0  0
  -24.0224  -16.3028   20.1549 N   0  0  0  0  0  0  0  0  0  0  0  0
  -22.0733  -12.5577   21.7582 N   0  0  0  0  0  0  0  0  0  0  0  0
  -22.0952  -28.1013   23.1794 N   0  0  0  0  0  0  0  0  0  0  0  0
  -21.5415  -26.7750   16.6520 N   0  0  0  0  0  0  0  0  0  0  0  0
  -29.8562  -17.1985   22.1006 N   0  0  0  0  0  0  0  0  0  0  0  0
  -29.7953  -23.2912   19.8772 N   0  0  0  0  0  0  0  0  0  0  0  0
  -31.1561  -20.4607   21.2947 N   0  3  0  0  0  0  0  0  0  0  0  0
  -24.0473  -26.7708   14.0464 N   0  3  0  0  0  0  0  0  0  0  0  0
  -21.6882  -14.7171   21.0894 O   0  0  0  0  0  0  0  0  0  0  0  0
  -22.1866  -26.2037   21.8328 O   0  0  0  0  0  0  0  0  0  0  0  0
  -20.0040  -27.7583   19.1844 O   0  0  0  0  0  0  0  0  0  0  0  0
  -22.7949  -25.0011   15.8398 O   0  0  0  0  0  0  0  0  0  0  0  0
  -30.9669  -17.9115   20.2258 O   0  0  0  0  0  0  0  0  0  0  0  0
  -24.6342   -7.7438   22.9025 O   0  0  0  0  0  0  0  0  0  0  0  0
  -28.4006  -26.7043   19.6788 O   0  0  0  0  0  0  0  0  0  1  0  0
  -19.6299   -5.4522   23.2329 F   0  0  0  0  0  0  0  0  0  0  0  0
  -24.0175   -5.4695   21.4569 F   0  0  0  0  0  0  0  0  0  0  0  0
  1  2  1  0  0  0  0
  1  5  2  0  0  0  0
  2  6  2  0  0  0  0
  3  8  2  0  0  0  0
  3 15  1  0  0  0  0
  4  9  1  0  0  0  0
  4 15  2  0  0  0  0
  5 17  1  0  0  0  0
  6 19  1  0  0  0  0
  7 10  2  0  0  0  0
  7 18  1  0  0  0  0
  8 21  1  0  0  0  0
  9 21  2  0  0  0  0
 10 22  1  0  0  0  0
 11 12  2  0  0  0  0
 11 23  1  0  0  0  0
 12 24  1  0  0  0  0
 13 20  1  0  0  0  0
 13 22  2  0  0  0  0
 14 24  2  0  0  0  0
 14 25  1  0  0  0  0
 15 26  1  0  0  0  0
 16 26  1  0  0  0  0
 16 27  2  0  0  0  0
 16 28  1  0  0  0  0
 17 19  2  0  0  0  0
 17 33  1  0  0  0  0
 18 20  2  0  0  0  0
 18 34  1  0  0  0  0
 19 47  1  0  0  0  0
 20 35  1  0  0  0  0
 21 83  1  0  0  0  0
 22 84  1  0  0  0  0
 23 25  2  0  0  0  0
 23 83  1  0  0  0  0
 24 85  1  0  0  0  0
 25 86  1  0  0  0  0
 26 65  2  0  0  0  0
 27 66  1  0  0  0  0
 27 70  1  0  0  0  0
 28 71  1  0  0  0  0
 28 78  2  0  0  0  0
 29 48  1  0  0  0  0
 29 72  1  0  0  0  0
 29 79  2  0  0  0  0
 30 61  1  0  0  0  0
 30 67  1  0  0  0  0
 30 80  2  0  0  0  0
 31 62  1  0  0  0  0
 31 73  1  0  0  0  0
 31 81  2  0  0  0  0
 32 68  1  0  0  0  0
 32 74  1  0  0  0  0
 32 82  2  0  0  0  0
 33 36  1  0  0  0  0
 34 48  1  0  0  0  0
 35 67  1  0  0  0  0
 36 38  1  0  0  0  0
 37 39  1  0  0  0  0
 37 43  1  0  0  0  0
 38 47  1  0  0  0  0
 39 49  1  0  0  0  0
 40 41  1  0  0  0  0
 40 50  1  0  0  0  0
 41 51  1  0  0  0  0
 42 44  1  0  0  0  0
 42 45  1  0  0  0  0
 43 68  1  0  0  0  0
 44 69  1  0  0  0  0
 45 69  1  0  0  0  0
 46 49  1  0  0  0  0
 46 68  1  0  0  0  0
 47 72  1  0  0  0  0
 48 67  1  0  0  0  0
 49 66  1  0  0  0  0
 50 51  1  0  0  0  0
 50 75  1  0  0  0  0
 51 76  1  0  0  0  0
 52 62  1  0  0  0  0
 53 64  1  0  0  0  0
 54 64  1  0  0  0  0
 55 64  1  0  0  0  0
 56 77  1  0  0  0  0
 57 60  1  0  0  0  0
 57 75  1  0  0  0  0
 58 63  1  0  0  0  0
 58 74  1  0  0  0  0
 59 63  1  0  0  0  0
 59 76  1  0  0  0  0
 60 84  1  0  0  0  0
 61 64  1  0  0  0  0
 61 73  1  0  0  0  0
 62 77  1  0  0  0  0
 63 69  1  0  0  0  0
 65 66  1  0  0  0  0
M  CHG  2  76   1  77   1
M  ISO  4  32 100  60 101  74 100  84 101
M  END
> <Batch ID>
0189

> <Smiles>
CNC(C)C(=O)NC(C(=O)N1Cc2cc([101O:1][101CH2:1]CNC3CCC3NCC(C[100NH:0][100C:0](=O)N3CCCC(n4nc(-c5ccc(Oc6ccc(F)cc6F)cc5)c(C(N)=O)c4N)C3)N3CCC3)ccc2CC1C(=O)NC1CCCc2ccccc21)C(C)(C)C

> <Shape>
0.227

> <Color>
0.076

> <Negative vol penalty>
0.000

$$$$

  -OEChem-04052323223D

 83 92  0     1  0  0  0  0  0999 V2000
  -25.4653  -30.5950   29.2503 C   0  0  0  0  0  0  0  0  0  0  0  0
  -26.0799  -29.6886   28.3924 C   0  0  0  0  0  0  0  0  0  0  0  0
  -23.3839   -9.9270   21.8673 C   0  0  0  0  0  0  0  0  0  0  0  0
  -24.0791  -11.1652   23.8219 C   0  0  0  0  0  0  0  0  0  0  0  0
  -24.1703  -31.0375   28.9837 C   0  0  0  0  0  0  0  0  0  0  0  0
  -25.3993  -29.2233   27.2677 C   0  0  0  0  0  0  0  0  0  0  0  0
  -27.8157  -27.8403   21.8130 C   0  0  0  0  0  0  0  0  0  0  0  0
  -22.7454   -8.9947   22.6850 C   0  0  0  0  0  0  0  0  0  0  0  0
  -23.4405  -10.2329   24.6396 C   0  0  0  0  0  0  0  0  0  0  0  0
  -28.1928  -26.6295   21.2339 C   0  0  0  0  0  0  0  0  0  0  0  0
  -19.8479   -8.7678   24.4130 C   0  0  0  0  0  0  0  0  0  0  0  0
  -18.5644   -8.3593   24.0507 C   0  0  0  0  0  0  0  0  0  0  0  0
  -26.0586  -26.5061   20.1164 C   0  0  0  0  0  0  0  0  0  0  0  0
  -19.3389   -6.0772   23.8801 C   0  0  0  0  0  0  0  0  0  0  0  0
  -24.0508  -11.0123   22.4358 C   0  0  0  0  0  0  0  0  0  0  0  0
  -24.1567  -13.1487   21.0458 C   0  0  0  0  0  0  0  0  0  0  0  0
  -23.4772  -30.5848   27.8500 C   0  0  0  0  0  0  0  0  0  0  0  0
  -26.5509  -28.3887   21.5563 C   0  0  0  0  0  0  0  0  0  0  0  0
  -24.0934  -29.6591   26.9864 C   0  0  0  0  0  0  0  0  0  0  0  0
  -25.6688  -27.7253   20.6914 C   0  0  0  0  0  0  0  0  0  0  0  0
  -22.7737   -9.1476   24.0711 C   0  0  0  0  0  0  0  0  0  0  0  0
  -27.3132  -25.9607   20.3878 C   0  0  0  0  0  0  0  0  0  0  0  0
  -20.8770   -7.8311   24.5088 C   0  0  0  0  0  0  0  0  0  0  0  0
  -18.3099   -7.0140   23.7843 C   0  0  0  0  0  0  0  0  0  0  0  0
  -20.6225   -6.4857   24.2424 C   0  0  0  0  0  0  0  0  0  0  0  0
  -24.7110  -11.9755   21.5917 C   0  0  0  0  0  0  0  0  0  0  0  0
  -25.1828  -13.7106   20.3260 C   0  0  0  0  0  0  0  0  0  0  0  0
  -22.8328  -13.6830   21.1776 C   0  0  0  0  0  0  0  0  0  0  0  0
  -24.0159  -29.1097   23.3333 C   0  0  0  0  0  0  0  0  0  0  0  0
  -22.9180  -30.3793   20.5575 C   0  0  0  0  0  0  0  0  0  0  0  0
  -23.0276  -30.4193   17.1468 C   0  0  0  0  0  0  0  0  0  0  0  0
  -30.5669  -15.2223   20.0005 C   0  0  0  0  0  0  0  0  0  0  0  0
  -22.0614  -31.0553   27.6289 C   0  0  0  0  0  0  0  0  0  0  0  0
  -26.1694  -29.7090   22.1675 C   0  0  0  0  0  0  0  0  0  0  0  0
  -24.3073  -28.2818   20.3675 C   0  0  0  0  0  0  0  0  0  0  0  0
  -21.5492  -30.8013   26.2135 C   0  0  0  0  0  0  0  0  0  0  0  0
  -29.7024  -11.8576   19.0133 C   0  0  0  0  0  0  0  0  0  0  0  0
  -21.8810  -29.3791   25.7729 C   0  0  0  0  0  0  0  0  0  0  0  0
  -28.2905  -11.6743   19.5728 C   0  0  0  0  0  0  0  0  0  0  0  0
  -30.5587  -12.7537   19.9066 C   0  0  0  0  0  0  0  0  0  0  0  0
  -28.5087  -16.8360   20.1452 C   0  0  0  0  0  0  0  0  0  0  0  0
  -30.4228  -17.7615   20.2224 C   0  0  0  0  0  0  0  0  0  0  0  0
  -28.5508  -13.8681   20.7903 C   0  0  0  0  0  0  0  0  0  0  0  0
  -30.2882  -20.8401   19.2389 C   0  0  0  0  0  0  0  0  0  0  0  0
  -28.1624  -21.9033   19.8246 C   0  0  0  0  0  0  0  0  0  0  0  0
  -23.3970  -29.1504   25.7429 C   0  0  1  0  0  0  0  0  0  0  0  0
  -24.6602  -29.9186   22.2433 C   0  0  1  0  0  0  0  0  0  0  0  0
  -29.0605  -18.1851   19.6471 C   0  0  0  0  0  0  0  0  0  0  0  0
  -30.5040  -22.2621   19.7484 C   0  0  2  0  0  0  0  0  0  0  0  0
  -29.1824  -22.9545   19.4115 C   0  0  2  0  0  0  0  0  0  0  0  0
  -27.6343  -13.0325   19.8844 C   0  0  2  0  0  0  0  0  0  0  0  0
  -31.7259  -22.9194   19.1255 C   0  0  0  0  0  0  0  0  0  0  0  0
  -21.9871  -31.5369   15.1554 C   0  0  0  0  0  0  0  0  0  0  0  0
  -26.9186  -19.3425   20.3147 C   0  0  0  0  0  0  0  0  0  0  0  0
  -20.4080  -28.6827   20.9200 C   0  0  0  0  0  0  0  0  0  0  0  0
  -19.8653  -29.0958   18.5110 C   0  0  0  0  0  0  0  0  0  0  0  0
  -19.9858  -31.0096   20.1064 C   0  0  0  0  0  0  0  0  0  0  0  0
  -25.6274  -31.5225   16.2618 C   0  0  0  0  0  0  0  0  0  0  0  0
  -28.9728  -24.2764   20.1332 C   0  0  0  0  0  0  0  0  0  1  0  0
  -22.1193  -29.8598   19.3865 C   0  0  1  0  0  0  0  0  0  0  0  0
  -23.1322  -31.5644   16.1557 C   0  0  2  0  0  0  0  0  0  0  0  0
  -28.4360  -19.4327   20.2386 C   0  0  2  0  0  0  0  0  0  0  0  0
  -20.6194  -29.6503   19.7384 C   0  0  0  0  0  0  0  0  0  0  0  0
  -25.9899  -11.8010   21.2479 N   0  0  0  0  0  0  0  0  0  0  0  0
  -26.2477  -12.8721   20.4783 N   0  0  0  0  0  0  0  0  0  0  0  0
  -23.9781  -29.5725   20.9946 N   0  0  0  0  0  0  0  0  0  0  0  0
  -29.8757  -14.0211   20.1784 N   0  0  0  0  0  0  0  0  0  0  0  0
  -29.8946  -16.4000   20.2283 N   0  0  0  0  0  0  0  0  0  0  0  0
  -25.2689  -14.8350   19.5840 N   0  0  0  0  0  0  0  0  0  0  0  0
  -21.9023  -12.9787   21.9538 N   0  0  0  0  0  0  0  0  0  0  0  0
  -23.9749  -29.7479   24.5582 N   0  0  0  0  0  0  0  0  0  0  0  0
  -22.3508  -30.7924   18.2887 N   0  0  0  0  0  0  0  0  0  0  0  0
  -28.7947  -20.6014   19.3774 N   0  3  2  0  0  0  0  0  0  0  0  0
  -24.4158  -31.4824   15.4030 N   0  3  0  0  0  0  0  0  0  0  0  0
  -22.4805  -14.7448   20.6102 O   0  0  0  0  0  0  0  0  0  0  0  0
  -23.5864  -27.9900   23.0813 O   0  0  0  0  0  0  0  0  0  0  0  0
  -22.6169  -31.4644   21.0611 O   0  0  0  0  0  0  0  0  0  0  0  0
  -23.4960  -29.3043   16.9281 O   0  0  0  0  0  0  0  0  0  0  0  0
  -31.7444  -15.2465   19.6184 O   0  0  0  0  0  0  0  0  0  0  0  0
  -22.1505   -8.2381   24.8693 O   0  0  0  0  0  0  0  0  0  0  0  0
  -27.6816  -24.7682   19.8170 O   0  0  0  0  0  0  0  0  0  1  0  0
  -17.0769   -6.6216   23.4379 F   0  0  0  0  0  0  0  0  0  0  0  0
  -21.6068   -5.5810   24.3339 F   0  0  0  0  0  0  0  0  0  0  0  0
  1  2  1  0  0  0  0
  1  5  2  0  0  0  0
  2  6  2  0  0  0  0
  3  8  2  0  0  0  0
  3 15  1  0  0  0  0
  4  9  1  0  0  0  0
  4 15  2  0  0  0  0
  5 17  1  0  0  0  0
  6 19  1  0  0  0  0
  7 10  2  0  0  0  0
  7 18  1  0  0  0  0
  8 21  1  0  0  0  0
  9 21  2  0  0  0  0
 10 22  1  0  0  0  0
 11 12  2  0  0  0  0
 11 23  1  0  0  0  0
 12 24  1  0  0  0  0
 13 20  1  0  0  0  0
 13 22  2  0  0  0  0
 14 24  2  0  0  0  0
 14 25  1  0  0  0  0
 15 26  1  0  0  0  0
 16 26  1  0  0  0  0
 16 27  2  0  0  0  0
 16 28  1  0  0  0  0
 17 19  2  0  0  0  0
 17 33  1  0  0  0  0
 18 20  2  0  0  0  0
 18 34  1  0  0  0  0
 19 46  1  0  0  0  0
 20 35  1  0  0  0  0
 21 80  1  0  0  0  0
 22 81  1  0  0  0  0
 23 25  2  0  0  0  0
 23 80  1  0  0  0  0
 24 82  1  0  0  0  0
 25 83  1  0  0  0  0
 26 64  2  0  0  0  0
 27 65  1  0  0  0  0
 27 69  1  0  0  0  0
 28 70  1  0  0  0  0
 28 75  2  0  0  0  0
 29 47  1  0  0  0  0
 29 71  1  0  0  0  0
 29 76  2  0  0  0  0
 30 60  1  0  0  0  0
 30 66  1  0  0  0  0
 30 77  2  0  0  0  0
 31 61  1  0  0  0  0
 31 72  1  0  0  0  0
 31 78  2  0  0  0  0
 32 67  1  0  0  0  0
 32 68  1  0  0  0  0
 32 79  2  0  0  0  0
 33 36  1  0  0  0  0
 34 47  1  0  0  0  0
 35 66  1  0  0  0  0
 36 38  1  0  0  0  0
 37 39  1  0  0  0  0
 37 40  1  0  0  0  0
 38 46  1  0  0  0  0
 39 51  1  0  0  0  0
 40 67  1  0  0  0  0
 41 48  1  0  0  0  0
 41 68  1  0  0  0  0
 42 48  1  0  0  0  0
 42 68  1  0  0  0  0
 43 51  1  0  0  0  0
 43 67  1  0  0  0  0
 44 49  1  0  0  0  0
 44 73  1  0  0  0  0
 45 50  1  0  0  0  0
 45 73  1  0  0  0  0
 46 71  1  0  0  0  0
 47 66  1  0  0  0  0
 48 62  1  0  0  0  0
 49 50  1  0  0  0  0
 49 52  1  0  0  0  0
 50 59  1  0  0  0  0
 51 65  1  0  0  0  0
 53 61  1  0  0  0  0
 54 62  1  0  0  0  0
 55 63  1  0  0  0  0
 56 63  1  0  0  0  0
 57 63  1  0  0  0  0
 58 74  1  0  0  0  0
 59 81  1  0  0  0  0
 60 63  1  0  0  0  0
 60 72  1  0  0  0  0
 61 74  1  0  0  0  0
 62 73  1  0  0  0  0
 64 65  1  0  0  0  0
M  CHG  2  73   1  74   1
M  ISO  4  32 100  59 101  68 100  81 101
M  END
> <Batch ID>
0189

> <Smiles>
CNC(C)C(=O)NC(C(=O)N1Cc2cc([101O:1][101CH2:1]C3CN(C(C)C4C[100N:0]([100C:0](=O)N5CCCC(n6nc(-c7ccc(Oc8ccc(F)cc8F)cc7)c(C(N)=O)c6N)C5)C4)CC3C)ccc2CC1C(=O)NC1CCCc2ccccc21)C(C)(C)C

> <Shape>
0.266

> <Color>
0.134

> <Negative vol penalty>
0.000

$$$$

  -OEChem-04052323223D

 85 94  0     1  0  0  0  0  0999 V2000
  -29.5810  -31.9350   24.3038 C   0  0  0  0  0  0  0  0  0  0  0  0
  -29.2037  -31.0624   23.2882 C   0  0  0  0  0  0  0  0  0  0  0  0
  -31.3860  -21.6929   18.9778 C   0  0  0  0  0  0  0  0  0  0  0  0
  -23.8725  -14.0758   21.6099 C   0  0  0  0  0  0  0  0  0  0  0  0
  -26.2262  -14.0862   21.0649 C   0  0  0  0  0  0  0  0  0  0  0  0
  -28.7589  -32.1044   25.4171 C   0  0  0  0  0  0  0  0  0  0  0  0
  -28.0044  -30.3577   23.3858 C   0  0  0  0  0  0  0  0  0  0  0  0
  -25.3724  -30.3936   19.0596 C   0  0  0  0  0  0  0  0  0  0  0  0
  -23.7365  -12.8292   20.9991 C   0  0  0  0  0  0  0  0  0  0  0  0
  -26.0902  -12.8395   20.4541 C   0  0  0  0  0  0  0  0  0  0  0  0
  -25.7918  -29.5261   18.0519 C   0  0  0  0  0  0  0  0  0  0  0  0
  -22.8438   -9.4808   19.9006 C   0  0  0  0  0  0  0  0  0  0  0  0
  -22.1063   -8.5063   20.5728 C   0  0  0  0  0  0  0  0  0  0  0  0
  -31.4387  -23.0283   18.5942 C   0  0  0  0  0  0  0  0  0  0  0  0
  -30.1700  -21.1290   19.3474 C   0  0  0  0  0  0  0  0  0  0  0  0
  -24.0485  -27.9769   18.6684 C   0  0  0  0  0  0  0  0  0  0  0  0
  -23.6457   -8.6231   22.4312 C   0  0  0  0  0  0  0  0  0  0  0  0
  -25.1173  -14.7043   21.6428 C   0  0  0  0  0  0  0  0  0  0  0  0
  -25.5696  -16.2493   23.6217 C   0  0  0  0  0  0  0  0  0  0  0  0
  -27.5443  -31.4087   25.5238 C   0  0  0  0  0  0  0  0  0  0  0  0
  -24.2930  -30.0538   19.8877 C   0  0  0  0  0  0  0  0  0  0  0  0
  -27.1659  -30.5168   24.5022 C   0  0  0  0  0  0  0  0  0  0  0  0
  -23.6157  -28.8429   19.6842 C   0  0  0  0  0  0  0  0  0  0  0  0
  -24.8454  -12.2110   20.4212 C   0  0  0  0  0  0  0  0  0  0  0  0
  -25.1316  -28.3163   17.8581 C   0  0  0  0  0  0  0  0  0  0  0  0
  -23.9824  -10.0265   20.4936 C   0  0  0  0  0  0  0  0  0  0  0  0
  -22.5072   -8.0774   21.8381 C   0  0  0  0  0  0  0  0  0  0  0  0
  -24.3833   -9.5976   21.7589 C   0  0  0  0  0  0  0  0  0  0  0  0
  -25.2583  -15.9923   22.2731 C   0  0  0  0  0  0  0  0  0  0  0  0
  -30.2566  -23.7510   18.5972 C   0  0  0  0  0  0  0  0  0  0  0  0
  -29.0447  -21.9368   19.3168 C   0  0  0  0  0  0  0  0  0  0  0  0
  -25.5861  -17.6195   23.7153 C   0  0  0  0  0  0  0  0  0  0  0  0
  -25.8214  -15.3314   24.6940 C   0  0  0  0  0  0  0  0  0  0  0  0
  -23.9287  -29.5511   23.0051 C   0  0  0  0  0  0  0  0  0  0  0  0
  -20.7900  -29.3532   22.2106 C   0  0  0  0  0  0  0  0  0  0  0  0
  -18.4418  -28.7352   19.8125 C   0  0  0  0  0  0  0  0  0  0  0  0
  -26.5612  -21.9712   19.7383 C   0  0  0  0  0  0  0  0  0  0  0  0
  -26.7115  -31.5887   26.7683 C   0  0  0  0  0  0  0  0  0  0  0  0
  -23.8360  -31.0124   20.9528 C   0  0  0  0  0  0  0  0  0  0  0  0
  -22.4384  -28.4404   20.5329 C   0  0  0  0  0  0  0  0  0  0  0  0
  -25.2773  -31.0877   26.6193 C   0  0  0  0  0  0  0  0  0  0  0  0
  -23.6517  -21.5312   21.7428 C   0  0  0  0  0  0  0  0  0  0  0  0
  -25.2587  -29.7077   25.9697 C   0  0  0  0  0  0  0  0  0  0  0  0
  -23.7649  -20.0862   22.2339 C   0  0  0  0  0  0  0  0  0  0  0  0
  -31.1585  -26.1322   18.9959 C   0  0  0  0  0  0  0  0  0  0  0  0
  -29.6694  -26.2036   19.1278 C   0  0  0  0  0  0  0  0  0  0  0  0
  -24.1600  -21.6848   20.3104 C   0  0  0  0  0  0  0  0  0  0  0  0
  -25.6267  -19.7217   20.5642 C   0  0  0  0  0  0  0  0  0  0  0  0
  -25.8606  -29.7533   24.5601 C   0  0  1  0  0  0  0  0  0  0  0  0
  -23.0502  -30.3336   22.0705 C   0  0  1  0  0  0  0  0  0  0  0  0
  -25.1870  -19.5297   22.0248 C   0  0  2  0  0  0  0  0  0  0  0  0
  -30.2895  -25.1839   18.1896 C   0  0  0  0  0  0  0  0  0  0  0  0
  -15.9585  -28.6132   19.4722 C   0  0  0  0  0  0  0  0  0  0  0  0
  -20.7317  -26.6493   23.6231 C   0  0  0  0  0  0  0  0  0  0  0  0
  -18.5704  -26.1645   22.4561 C   0  0  0  0  0  0  0  0  0  0  0  0
  -18.7277  -28.0866   24.0384 C   0  0  0  0  0  0  0  0  0  0  0  0
  -18.4931  -30.9100   17.8058 C   0  0  0  0  0  0  0  0  0  0  0  0
  -30.1692  -25.4302   16.6944 C   0  0  0  0  0  0  0  0  0  0  0  0
  -28.8433  -24.9157   16.1572 C   0  0  0  0  0  0  0  0  0  0  0  0
  -26.3785  -25.2806   16.3315 C   0  0  0  0  0  0  0  0  0  0  0  0
  -25.3371  -26.0723   17.0975 C   0  0  0  0  0  0  0  0  0  1  0  0
  -19.8631  -28.2404   21.7847 C   0  0  1  0  0  0  0  0  0  0  0  0
  -17.1940  -29.4974   19.4045 C   0  0  2  0  0  0  0  0  0  0  0  0
  -19.4966  -27.2916   22.9607 C   0  0  0  0  0  0  0  0  0  0  0  0
  -25.0890  -17.1096   21.5610 N   0  0  0  0  0  0  0  0  0  0  0  0
  -29.0567  -23.2379   18.9498 N   0  0  0  0  0  0  0  0  0  0  0  0
  -25.2946  -18.0819   22.4657 N   0  0  0  0  0  0  0  0  0  0  0  0
  -22.0335  -29.4087   21.5654 N   0  0  0  0  0  0  0  0  0  0  0  0
  -25.5140  -21.1399   20.1889 N   0  0  0  0  0  0  0  0  0  0  0  0
  -25.8212  -18.4618   24.7437 N   0  0  0  0  0  0  0  0  0  0  0  0
  -25.7643  -13.9572   24.4245 N   0  0  0  0  0  0  0  0  0  0  0  0
  -27.8102  -21.3526   19.6945 N   0  0  0  0  0  0  0  0  0  0  0  0
  -24.9081  -30.3065   23.6214 N   0  0  0  0  0  0  0  0  0  0  0  0
  -18.7146  -28.8838   21.1559 N   0  0  0  0  0  0  0  0  0  0  0  0
  -17.3310  -30.0074   18.0109 N   0  3  0  0  0  0  0  0  0  0  0  0
  -27.7315  -25.6521   16.8170 N   0  3  0  0  0  0  0  0  0  0  0  0
  -26.0730  -15.7183   25.8604 O   0  0  0  0  0  0  0  0  0  0  0  0
  -23.7317  -28.3512   23.1571 O   0  0  0  0  0  0  0  0  0  0  0  0
  -20.4213  -30.1484   23.0786 O   0  0  0  0  0  0  0  0  0  0  0  0
  -19.1058  -28.0712   19.0196 O   0  0  0  0  0  0  0  0  0  0  0  0
  -26.3695  -23.1531   19.4410 O   0  0  0  0  0  0  0  0  0  0  0  0
  -24.7131  -10.9945   19.8253 O   0  0  0  0  0  0  0  0  0  0  0  0
  -25.5393  -27.4674   16.8757 O   0  0  0  0  0  0  0  0  0  1  0  0
  -21.7979   -7.1427   22.4841 F   0  0  0  0  0  0  0  0  0  0  0  0
  -25.4755  -10.1190   22.3343 F   0  0  0  0  0  0  0  0  0  0  0  0
  1  2  1  0  0  0  0
  1  6  2  0  0  0  0
  2  7  2  0  0  0  0
  3 14  2  0  0  0  0
  3 15  1  0  0  0  0
  4  9  2  0  0  0  0
  4 18  1  0  0  0  0
  5 10  1  0  0  0  0
  5 18  2  0  0  0  0
  6 20  1  0  0  0  0
  7 22  1  0  0  0  0
  8 11  2  0  0  0  0
  8 21  1  0  0  0  0
  9 24  1  0  0  0  0
 10 24  2  0  0  0  0
 11 25  1  0  0  0  0
 12 13  2  0  0  0  0
 12 26  1  0  0  0  0
 13 27  1  0  0  0  0
 14 30  1  0  0  0  0
 15 31  2  0  0  0  0
 16 23  1  0  0  0  0
 16 25  2  0  0  0  0
 17 27  2  0  0  0  0
 17 28  1  0  0  0  0
 18 29  1  0  0  0  0
 19 29  1  0  0  0  0
 19 32  2  0  0  0  0
 19 33  1  0  0  0  0
 20 22  2  0  0  0  0
 20 38  1  0  0  0  0
 21 23  2  0  0  0  0
 21 39  1  0  0  0  0
 22 49  1  0  0  0  0
 23 40  1  0  0  0  0
 24 82  1  0  0  0  0
 25 83  1  0  0  0  0
 26 28  2  0  0  0  0
 26 82  1  0  0  0  0
 27 84  1  0  0  0  0
 28 85  1  0  0  0  0
 29 65  2  0  0  0  0
 30 52  1  0  0  0  0
 30 66  2  0  0  0  0
 31 66  1  0  0  0  0
 31 72  1  0  0  0  0
 32 67  1  0  0  0  0
 32 70  1  0  0  0  0
 33 71  1  0  0  0  0
 33 77  2  0  0  0  0
 34 50  1  0  0  0  0
 34 73  1  0  0  0  0
 34 78  2  0  0  0  0
 35 62  1  0  0  0  0
 35 68  1  0  0  0  0
 35 79  2  0  0  0  0
 36 63  1  0  0  0  0
 36 74  1  0  0  0  0
 36 80  2  0  0  0  0
 37 69  1  0  0  0  0
 37 72  1  0  0  0  0
 37 81  2  0  0  0  0
 38 41  1  0  0  0  0
 39 50  1  0  0  0  0
 40 68  1  0  0  0  0
 41 43  1  0  0  0  0
 42 44  1  0  0  0  0
 42 47  1  0  0  0  0
 43 49  1  0  0  0  0
 44 51  1  0  0  0  0
 45 46  1  0  0  0  0
 45 52  1  0  0  0  0
 46 52  1  0  0  0  0
 47 69  1  0  0  0  0
 48 51  1  0  0  0  0
 48 69  1  0  0  0  0
 49 73  1  0  0  0  0
 50 68  1  0  0  0  0
 51 67  1  0  0  0  0
 52 58  1  0  0  0  0
 53 63  1  0  0  0  0
 54 64  1  0  0  0  0
 55 64  1  0  0  0  0
 56 64  1  0  0  0  0
 57 75  1  0  0  0  0
 58 59  1  0  0  0  0
 59 76  1  0  0  0  0
 60 61  1  0  0  0  0
 60 76  1  0  0  0  0
 61 83  1  0  0  0  0
 62 64  1  0  0  0  0
 62 74  1  0  0  0  0
 63 75  1  0  0  0  0
 65 67  1  0  0  0  0
M  CHG  2  75   1  76   1
M  ISO  4  37 100  61 101  72 100  83 101
M  END
> <Batch ID>
0189

> <Smiles>
CNC(C)C(=O)NC(C(=O)N1Cc2cc([101O:1][101CH2:1]CNCCC3(c4cccc([100NH:0][100C:0](=O)N5CCCC(n6nc(-c7ccc(Oc8ccc(F)cc8F)cc7)c(C(N)=O)c6N)C5)n4)CC3)ccc2CC1C(=O)NC1CCCc2ccccc21)C(C)(C)C

> <Shape>
0.279

> <Color>
0.060

> <Negative vol penalty>
0.000

$$$$

  -OEChem-04052323223D

 85 94  0     1  0  0  0  0  0999 V2000
  -26.4814  -36.9229   17.2230 C   0  0  0  0  0  0  0  0  0  0  0  0
  -26.8989  -35.5992   17.1276 C   0  0  0  0  0  0  0  0  0  0  0  0
  -23.3120  -10.8900   21.9715 C   0  0  0  0  0  0  0  0  0  0  0  0
  -23.9595   -9.2681   20.3019 C   0  0  0  0  0  0  0  0  0  0  0  0
  -26.2026  -37.4763   18.4720 C   0  0  0  0  0  0  0  0  0  0  0  0
  -27.0389  -34.8286   18.2812 C   0  0  0  0  0  0  0  0  0  0  0  0
  -25.9322  -28.8331   18.8601 C   0  0  0  0  0  0  0  0  0  0  0  0
  -21.9696  -10.5834   21.7487 C   0  0  0  0  0  0  0  0  0  0  0  0
  -22.6171   -8.9615   20.0791 C   0  0  0  0  0  0  0  0  0  0  0  0
  -26.7700  -27.7188   18.8444 C   0  0  0  0  0  0  0  0  0  0  0  0
  -20.2023   -7.1267   21.5700 C   0  0  0  0  0  0  0  0  0  0  0  0
  -19.8532   -5.7793   21.4798 C   0  0  0  0  0  0  0  0  0  0  0  0
  -26.8491  -27.7519   21.2552 C   0  0  0  0  0  0  0  0  0  0  0  0
  -19.0286   -6.1429   19.2382 C   0  0  0  0  0  0  0  0  0  0  0  0
  -24.3070  -10.2324   21.2480 C   0  0  0  0  0  0  0  0  0  0  0  0
  -26.5625   -9.9418   22.4038 C   0  0  0  0  0  0  0  0  0  0  0  0
  -26.3299  -36.7092   19.6407 C   0  0  0  0  0  0  0  0  0  0  0  0
  -25.5547  -29.4227   20.0751 C   0  0  0  0  0  0  0  0  0  0  0  0
  -26.7628  -35.3727   19.5471 C   0  0  0  0  0  0  0  0  0  0  0  0
  -26.0043  -28.8720   21.2836 C   0  0  0  0  0  0  0  0  0  0  0  0
  -21.6222   -9.6192   20.8026 C   0  0  0  0  0  0  0  0  0  0  0  0
  -27.2309  -27.1798   20.0420 C   0  0  0  0  0  0  0  0  0  0  0  0
  -19.9645   -7.9823   20.4943 C   0  0  0  0  0  0  0  0  0  0  0  0
  -19.2664   -5.2874   20.3140 C   0  0  0  0  0  0  0  0  0  0  0  0
  -19.3777   -7.4904   19.3284 C   0  0  0  0  0  0  0  0  0  0  0  0
  -25.6938  -10.5491   21.4773 C   0  0  0  0  0  0  0  0  0  0  0  0
  -27.7585  -10.5949   22.2320 C   0  0  0  0  0  0  0  0  0  0  0  0
  -31.2493  -23.4428   19.4257 C   0  0  0  0  0  0  0  0  0  0  0  0
  -29.2574  -24.3514   18.9325 C   0  0  0  0  0  0  0  0  0  0  0  0
  -29.5115  -22.1217   18.9043 C   0  0  0  0  0  0  0  0  0  0  0  0
  -26.3108   -8.8822   23.3362 C   0  0  0  0  0  0  0  0  0  0  0  0
  -25.9679  -32.2797   21.4058 C   0  0  0  0  0  0  0  0  0  0  0  0
  -23.9953  -31.0733   23.6808 C   0  0  0  0  0  0  0  0  0  0  0  0
  -22.7146  -28.3224   25.2426 C   0  0  0  0  0  0  0  0  0  0  0  0
  -29.2143  -15.8903   20.4350 C   0  0  0  0  0  0  0  0  0  0  0  0
  -26.0626  -37.3650   20.9723 C   0  0  0  0  0  0  0  0  0  0  0  0
  -24.6288  -30.6081   20.0759 C   0  0  0  0  0  0  0  0  0  0  0  0
  -25.6118  -29.4555   22.6156 C   0  0  0  0  0  0  0  0  0  0  0  0
  -25.8754  -36.3700   22.1147 C   0  0  0  0  0  0  0  0  0  0  0  0
  -30.3275  -12.9161   18.9369 C   0  0  0  0  0  0  0  0  0  0  0  0
  -26.9645  -35.3027   22.0769 C   0  0  0  0  0  0  0  0  0  0  0  0
  -29.3421  -11.8992   19.5123 C   0  0  0  0  0  0  0  0  0  0  0  0
  -29.0662  -18.5075   18.0863 C   0  0  0  0  0  0  0  0  0  0  0  0
  -29.8813  -19.2891   20.3430 C   0  0  0  0  0  0  0  0  0  0  0  0
  -29.6417  -14.2324   18.5663 C   0  0  0  0  0  0  0  0  0  0  0  0
  -29.7693  -17.1664   18.3160 C   0  0  0  0  0  0  0  0  0  0  0  0
  -30.5892  -17.9481   20.5152 C   0  0  0  0  0  0  0  0  0  0  0  0
  -27.8739  -13.8160   20.2456 C   0  0  0  0  0  0  0  0  0  0  0  0
  -26.9026  -34.4972   20.7735 C   0  0  1  0  0  0  0  0  0  0  0  0
  -24.7235  -31.4394   21.3516 C   0  0  1  0  0  0  0  0  0  0  0  0
  -28.5442  -12.5038   20.6814 C   0  0  1  0  0  0  0  0  0  0  0  0
  -29.7479  -19.6394   18.8587 C   0  0  0  0  0  0  0  0  0  0  0  0
  -32.6796  -23.6009   19.8147 C   0  0  0  0  0  0  0  0  0  0  0  0
  -21.1533  -27.6544   27.0901 C   0  0  0  0  0  0  0  0  0  0  0  0
  -26.1137  -31.8314   25.7418 C   0  0  0  0  0  0  0  0  0  0  0  0
  -24.9629  -30.3239   27.3763 C   0  0  0  0  0  0  0  0  0  0  0  0
  -23.7597  -32.3004   26.4443 C   0  0  0  0  0  0  0  0  0  0  0  0
  -20.9374  -26.8715   23.3731 C   0  0  0  0  0  0  0  0  0  0  0  0
  -28.3960  -25.5548   18.7543 C   0  0  0  0  0  0  0  0  0  1  0  0
  -24.1886  -30.2980   24.9616 C   0  0  1  0  0  0  0  0  0  0  0  0
  -21.2903  -27.9404   25.6028 C   0  0  2  0  0  0  0  0  0  0  0  0
  -24.7654  -31.1784   26.1060 C   0  0  0  0  0  0  0  0  0  0  0  0
  -26.2874  -11.5138   20.7696 N   0  0  0  0  0  0  0  0  0  0  0  0
  -30.5347  -24.5708   19.2834 N   0  0  0  0  0  0  0  0  0  0  0  0
  -30.8064  -22.1868   19.2533 N   0  0  0  0  0  0  0  0  0  0  0  0
  -28.6769  -23.1584   18.7258 N   0  0  0  0  0  0  0  0  0  0  0  0
  -27.5419  -11.5178   21.2516 N   0  0  0  0  0  0  0  0  0  0  0  0
  -24.7099  -30.6179   22.5637 N   0  0  0  0  0  0  0  0  0  0  0  0
  -28.8611  -14.7493   19.6990 N   0  0  0  0  0  0  0  0  0  0  0  0
  -29.9165  -16.8953   19.7532 N   0  0  0  0  0  0  0  0  0  0  0  0
  -28.9639  -10.4640   22.8257 N   0  0  0  0  0  0  0  0  0  0  0  0
  -25.0263   -8.3234   23.3819 N   0  0  0  0  0  0  0  0  0  0  0  0
  -28.9834  -20.8580   18.7087 N   0  0  0  0  0  0  0  0  0  0  0  0
  -25.8296  -33.5277   20.8289 N   0  0  0  0  0  0  0  0  0  0  0  0
  -22.8990  -29.6887   25.2685 N   0  0  0  0  0  0  0  0  0  0  0  0
  -20.8742  -26.7234   24.8499 N   0  3  0  0  0  0  0  0  0  0  0  0
  -27.1943   -8.4549   24.1175 O   0  0  0  0  0  0  0  0  0  0  0  0
  -26.9784  -31.8297   21.9332 O   0  0  0  0  0  0  0  0  0  0  0  0
  -23.2327  -32.0429   23.6700 O   0  0  0  0  0  0  0  0  0  0  0  0
  -23.5783  -27.4918   24.9695 O   0  0  0  0  0  0  0  0  0  0  0  0
  -28.9195  -16.0046   21.6313 O   0  0  0  0  0  0  0  0  0  0  0  0
  -20.3124   -9.3196   20.5851 O   0  0  0  0  0  0  0  0  0  0  0  0
  -28.0549  -26.0852   20.0294 O   0  0  0  0  0  0  0  0  0  1  0  0
  -18.9326   -3.9931   20.2269 F   0  0  0  0  0  0  0  0  0  0  0  0
  -19.1479   -8.3073   18.2913 F   0  0  0  0  0  0  0  0  0  0  0  0
  1  2  1  0  0  0  0
  1  5  2  0  0  0  0
  2  6  2  0  0  0  0
  3  8  2  0  0  0  0
  3 15  1  0  0  0  0
  4  9  1  0  0  0  0
  4 15  2  0  0  0  0
  5 17  1  0  0  0  0
  6 19  1  0  0  0  0
  7 10  2  0  0  0  0
  7 18  1  0  0  0  0
  8 21  1  0  0  0  0
  9 21  2  0  0  0  0
 10 22  1  0  0  0  0
 11 12  2  0  0  0  0
 11 23  1  0  0  0  0
 12 24  1  0  0  0  0
 13 20  1  0  0  0  0
 13 22  2  0  0  0  0
 14 24  2  0  0  0  0
 14 25  1  0  0  0  0
 15 26  1  0  0  0  0
 16 26  1  0  0  0  0
 16 27  2  0  0  0  0
 16 31  1  0  0  0  0
 17 19  2  0  0  0  0
 17 36  1  0  0  0  0
 18 20  2  0  0  0  0
 18 37  1  0  0  0  0
 19 49  1  0  0  0  0
 20 38  1  0  0  0  0
 21 82  1  0  0  0  0
 22 83  1  0  0  0  0
 23 25  2  0  0  0  0
 23 82  1  0  0  0  0
 24 84  1  0  0  0  0
 25 85  1  0  0  0  0
 26 63  2  0  0  0  0
 27 67  1  0  0  0  0
 27 71  1  0  0  0  0
 28 53  1  0  0  0  0
 28 64  2  0  0  0  0
 28 65  1  0  0  0  0
 29 59  1  0  0  0  0
 29 64  1  0  0  0  0
 29 66  2  0  0  0  0
 30 65  2  0  0  0  0
 30 66  1  0  0  0  0
 30 73  1  0  0  0  0
 31 72  1  0  0  0  0
 31 77  2  0  0  0  0
 32 50  1  0  0  0  0
 32 74  1  0  0  0  0
 32 78  2  0  0  0  0
 33 60  1  0  0  0  0
 33 68  1  0  0  0  0
 33 79  2  0  0  0  0
 34 61  1  0  0  0  0
 34 75  1  0  0  0  0
 34 80  2  0  0  0  0
 35 69  1  0  0  0  0
 35 70  1  0  0  0  0
 35 81  2  0  0  0  0
 36 39  1  0  0  0  0
 37 50  1  0  0  0  0
 38 68  1  0  0  0  0
 39 41  1  0  0  0  0
 40 42  1  0  0  0  0
 40 45  1  0  0  0  0
 41 49  1  0  0  0  0
 42 51  1  0  0  0  0
 43 46  1  0  0  0  0
 43 52  1  0  0  0  0
 44 47  1  0  0  0  0
 44 52  1  0  0  0  0
 45 69  1  0  0  0  0
 46 70  1  0  0  0  0
 47 70  1  0  0  0  0
 48 51  1  0  0  0  0
 48 69  1  0  0  0  0
 49 74  1  0  0  0  0
 50 68  1  0  0  0  0
 51 67  1  0  0  0  0
 52 73  1  0  0  0  0
 54 61  1  0  0  0  0
 55 62  1  0  0  0  0
 56 62  1  0  0  0  0
 57 62  1  0  0  0  0
 58 76  1  0  0  0  0
 59 83  1  0  0  0  0
 60 62  1  0  0  0  0
 60 75  1  0  0  0  0
 61 76  1  0  0  0  0
 63 67  1  0  0  0  0
M  CHG  1  76   1
M  ISO  4  35 100  59 101  70 100  83 101
M  END
> <Batch ID>
0189

> <Smiles>
CNC(C)C(=O)NC(C(=O)N1Cc2cc([101O:1][101CH2:1]c3nc(C)nc(NC4CC[100N:0]([100C:0](=O)N5CCCC(n6nc(-c7ccc(Oc8ccc(F)cc8F)cc7)c(C(N)=O)c6N)C5)CC4)n3)ccc2CC1C(=O)NC1CCCc2ccccc21)C(C)(C)C

> <Shape>
0.264

> <Color>
0.129

> <Negative vol penalty>
0.000

$$$$

  -OEChem-04052323223D

 84 93  0     1  0  0  0  0  0999 V2000
  -36.8259  -15.6774   24.3902 C   0  0  0  0  0  0  0  0  0  0  0  0
  -36.0458  -16.3419   23.4494 C   0  0  0  0  0  0  0  0  0  0  0  0
  -19.9229  -27.0610   21.7756 C   0  0  0  0  0  0  0  0  0  0  0  0
  -19.5283  -28.6613   23.5420 C   0  0  0  0  0  0  0  0  0  0  0  0
  -36.5805  -14.3346   24.6743 C   0  0  0  0  0  0  0  0  0  0  0  0
  -35.0203  -15.6638   22.7913 C   0  0  0  0  0  0  0  0  0  0  0  0
  -30.7440  -18.3659   22.5537 C   0  0  0  0  0  0  0  0  0  0  0  0
  -18.8677  -26.2802   22.2472 C   0  0  0  0  0  0  0  0  0  0  0  0
  -18.4730  -27.8806   24.0136 C   0  0  0  0  0  0  0  0  0  0  0  0
  -30.6815  -19.3760   21.5948 C   0  0  0  0  0  0  0  0  0  0  0  0
  -15.4902  -26.2991   22.0884 C   0  0  0  0  0  0  0  0  0  0  0  0
  -14.5882  -25.7943   21.1518 C   0  0  0  0  0  0  0  0  0  0  0  0
  -29.4060  -17.9212   20.1541 C   0  0  0  0  0  0  0  0  0  0  0  0
  -15.1421  -23.5431   21.8316 C   0  0  0  0  0  0  0  0  0  0  0  0
  -31.1100  -22.1918   17.4824 C   0  0  0  0  0  0  0  0  0  0  0  0
  -20.2533  -28.2516   22.4230 C   0  0  0  0  0  0  0  0  0  0  0  0
  -21.2767  -30.0930   20.9845 C   0  0  0  0  0  0  0  0  0  0  0  0
  -35.5453  -13.6423   24.0265 C   0  0  0  0  0  0  0  0  0  0  0  0
  -30.1462  -17.1200   22.3151 C   0  0  0  0  0  0  0  0  0  0  0  0
  -34.7617  -14.3102   23.0661 C   0  0  0  0  0  0  0  0  0  0  0  0
  -29.4601  -16.8978   21.1127 C   0  0  0  0  0  0  0  0  0  0  0  0
  -18.1427  -26.6900   23.3662 C   0  0  0  0  0  0  0  0  0  0  0  0
  -30.0150  -19.1528   20.3936 C   0  0  0  0  0  0  0  0  0  0  0  0
  -16.2182  -25.4258   22.8966 C   0  0  0  0  0  0  0  0  0  0  0  0
  -14.4141  -24.4164   21.0234 C   0  0  0  0  0  0  0  0  0  0  0  0
  -16.0442  -24.0478   22.7682 C   0  0  0  0  0  0  0  0  0  0  0  0
  -21.3436  -29.0582   21.9366 C   0  0  0  0  0  0  0  0  0  0  0  0
  -30.8591  -23.1304   16.5023 C   0  0  0  0  0  0  0  0  0  0  0  0
  -30.3893  -22.3404   18.6498 C   0  0  0  0  0  0  0  0  0  0  0  0
  -22.5708  -30.5390   20.8706 C   0  0  0  0  0  0  0  0  0  0  0  0
  -29.3350  -24.1773   17.8246 C   0  0  0  0  0  0  0  0  0  0  0  0
  -20.1459  -30.6053   20.2672 C   0  0  0  0  0  0  0  0  0  0  0  0
  -31.2053  -14.1323   22.0794 C   0  0  0  0  0  0  0  0  0  0  0  0
  -28.0413  -13.4370   21.9119 C   0  0  0  0  0  0  0  0  0  0  0  0
  -24.8796  -14.4867   21.1714 C   0  0  0  0  0  0  0  0  0  0  0  0
  -27.7814  -27.6577   22.1176 C   0  0  0  0  0  0  0  0  0  0  0  0
  -35.3484  -12.1786   24.3323 C   0  0  0  0  0  0  0  0  0  0  0  0
  -30.1996  -16.0499   23.3707 C   0  0  0  0  0  0  0  0  0  0  0  0
  -28.7843  -15.5848   20.8162 C   0  0  0  0  0  0  0  0  0  0  0  0
  -34.0012  -11.6344   23.8641 C   0  0  0  0  0  0  0  0  0  0  0  0
  -26.6419  -30.9187   23.3588 C   0  0  0  0  0  0  0  0  0  0  0  0
  -33.7095  -12.0869   22.4369 C   0  0  0  0  0  0  0  0  0  0  0  0
  -25.1368  -30.8758   23.0912 C   0  0  0  0  0  0  0  0  0  0  0  0
  -26.4453  -26.3038   18.9714 C   0  0  0  0  0  0  0  0  0  0  0  0
  -27.2151  -29.5285   23.6242 C   0  0  0  0  0  0  0  0  0  0  0  0
  -26.1145  -26.7646   20.3872 C   0  0  0  0  0  0  0  0  0  0  0  0
  -25.3987  -28.4880   22.3239 C   0  0  0  0  0  0  0  0  0  0  0  0
  -28.4290  -26.1363   20.2717 C   0  0  0  0  0  0  0  0  0  0  0  0
  -33.6242  -13.6155   22.3494 C   0  0  1  0  0  0  0  0  0  0  0  0
  -29.9965  -14.6460   22.8092 C   0  0  1  0  0  0  0  0  0  0  0  0
  -24.7982  -29.8593   21.9848 C   0  0  1  0  0  0  0  0  0  0  0  0
  -27.6453  -25.3917   19.2014 C   0  0  2  0  0  0  0  0  0  0  0  0
  -31.5907  -23.0518   15.2046 C   0  0  0  0  0  0  0  0  0  0  0  0
  -22.5037  -13.6822   21.0967 C   0  0  0  0  0  0  0  0  0  0  0  0
  -28.6397  -11.9166   19.3350 C   0  0  0  0  0  0  0  0  0  0  0  0
  -26.1896  -11.9612   18.8220 C   0  0  0  0  0  0  0  0  0  0  0  0
  -27.0138  -10.7841   20.8610 C   0  0  0  0  0  0  0  0  0  0  0  0
  -24.0167  -16.4888   23.1729 C   0  0  0  0  0  0  0  0  0  0  0  0
  -30.5926  -21.3732   19.7674 C   0  0  0  0  0  0  0  0  0  1  0  0
  -27.0319  -13.3114   20.7964 C   0  0  1  0  0  0  0  0  0  0  0  0
  -23.5732  -14.3652   21.9349 C   0  0  2  0  0  0  0  0  0  0  0  0
  -27.2330  -12.0175   19.9581 C   0  0  0  0  0  0  0  0  0  0  0  0
  -22.5822  -28.8585   22.3949 N   0  0  0  0  0  0  0  0  0  0  0  0
  -29.9749  -24.1401   16.6403 N   0  0  0  0  0  0  0  0  0  0  0  0
  -29.4905  -23.3252   18.8557 N   0  0  0  0  0  0  0  0  0  0  0  0
  -23.3056  -29.7739   21.7278 N   0  0  0  0  0  0  0  0  0  0  0  0
  -28.8698  -14.5676   21.8772 N   0  0  0  0  0  0  0  0  0  0  0  0
  -26.8423  -28.5954   22.5608 N   0  0  0  0  0  0  0  0  0  0  0  0
  -27.4113  -26.8191   21.0670 N   0  0  0  0  0  0  0  0  0  0  0  0
  -23.1404  -31.5071   20.1218 N   0  0  0  0  0  0  0  0  0  0  0  0
  -18.8889  -30.0325   20.5043 N   0  0  0  0  0  0  0  0  0  0  0  0
  -28.4171  -25.2038   18.0014 N   0  0  0  0  0  0  0  0  0  0  0  0
  -32.3494  -14.0802   22.8527 N   0  0  0  0  0  0  0  0  0  0  0  0
  -25.7179  -13.4207   21.4207 N   0  0  0  0  0  0  0  0  0  0  0  0
  -23.0741  -15.7141   22.3254 N   0  3  0  0  0  0  0  0  0  0  0  0
  -20.2499  -31.5321   19.4283 O   0  0  0  0  0  0  0  0  0  0  0  0
  -31.1070  -13.8059   20.9023 O   0  0  0  0  0  0  0  0  0  0  0  0
  -28.0880  -12.5678   22.7859 O   0  0  0  0  0  0  0  0  0  0  0  0
  -25.1297  -15.4307   20.4253 O   0  0  0  0  0  0  0  0  0  0  0  0
  -28.9175  -27.6033   22.6069 O   0  0  0  0  0  0  0  0  0  0  0  0
  -17.1128  -25.9285   23.8265 O   0  0  0  0  0  0  0  0  0  0  0  0
  -29.9526  -20.1436   19.4491 O   0  0  0  0  0  0  0  0  0  1  0  0
  -13.5468  -23.9318   20.1250 F   0  0  0  0  0  0  0  0  0  0  0  0
  -16.7399  -23.2040   23.5426 F   0  0  0  0  0  0  0  0  0  0  0  0
  1  2  1  0  0  0  0
  1  5  2  0  0  0  0
  2  6  2  0  0  0  0
  3  8  2  0  0  0  0
  3 16  1  0  0  0  0
  4  9  1  0  0  0  0
  4 16  2  0  0  0  0
  5 18  1  0  0  0  0
  6 20  1  0  0  0  0
  7 10  2  0  0  0  0
  7 19  1  0  0  0  0
  8 22  1  0  0  0  0
  9 22  2  0  0  0  0
 10 23  1  0  0  0  0
 11 12  2  0  0  0  0
 11 24  1  0  0  0  0
 12 25  1  0  0  0  0
 13 21  1  0  0  0  0
 13 23  2  0  0  0  0
 14 25  2  0  0  0  0
 14 26  1  0  0  0  0
 15 28  2  0  0  0  0
 15 29  1  0  0  0  0
 16 27  1  0  0  0  0
 17 27  1  0  0  0  0
 17 30  2  0  0  0  0
 17 32  1  0  0  0  0
 18 20  2  0  0  0  0
 18 37  1  0  0  0  0
 19 21  2  0  0  0  0
 19 38  1  0  0  0  0
 20 49  1  0  0  0  0
 21 39  1  0  0  0  0
 22 81  1  0  0  0  0
 23 82  1  0  0  0  0
 24 26  2  0  0  0  0
 24 81  1  0  0  0  0
 25 83  1  0  0  0  0
 26 84  1  0  0  0  0
 27 63  2  0  0  0  0
 28 53  1  0  0  0  0
 28 64  1  0  0  0  0
 29 59  1  0  0  0  0
 29 65  2  0  0  0  0
 30 66  1  0  0  0  0
 30 70  1  0  0  0  0
 31 64  2  0  0  0  0
 31 65  1  0  0  0  0
 31 72  1  0  0  0  0
 32 71  1  0  0  0  0
 32 76  2  0  0  0  0
 33 50  1  0  0  0  0
 33 73  1  0  0  0  0
 33 77  2  0  0  0  0
 34 60  1  0  0  0  0
 34 67  1  0  0  0  0
 34 78  2  0  0  0  0
 35 61  1  0  0  0  0
 35 74  1  0  0  0  0
 35 79  2  0  0  0  0
 36 68  1  0  0  0  0
 36 69  1  0  0  0  0
 36 80  2  0  0  0  0
 37 40  1  0  0  0  0
 38 50  1  0  0  0  0
 39 67  1  0  0  0  0
 40 42  1  0  0  0  0
 41 43  1  0  0  0  0
 41 45  1  0  0  0  0
 42 49  1  0  0  0  0
 43 51  1  0  0  0  0
 44 46  1  0  0  0  0
 44 52  1  0  0  0  0
 45 68  1  0  0  0  0
 46 69  1  0  0  0  0
 47 51  1  0  0  0  0
 47 68  1  0  0  0  0
 48 52  1  0  0  0  0
 48 69  1  0  0  0  0
 49 73  1  0  0  0  0
 50 67  1  0  0  0  0
 51 66  1  0  0  0  0
 52 72  1  0  0  0  0
 54 61  1  0  0  0  0
 55 62  1  0  0  0  0
 56 62  1  0  0  0  0
 57 62  1  0  0  0  0
 58 75  1  0  0  0  0
 59 82  1  0  0  0  0
 60 62  1  0  0  0  0
 60 74  1  0  0  0  0
 61 75  1  0  0  0  0
 63 66  1  0  0  0  0
M  CHG  1  75   1
M  ISO  4  36 100  59 101  69 100  82 101
M  END
> <Batch ID>
0189

> <Smiles>
CNC(C)C(=O)NC(C(=O)N1Cc2cc([101O:1][101CH2:1]c3cc(C)nc(NC4CC[100N:0]([100C:0](=O)N5CCCC(n6nc(-c7ccc(Oc8ccc(F)cc8F)cc7)c(C(N)=O)c6N)C5)C4)n3)ccc2CC1C(=O)NC1CCCc2ccccc21)C(C)(C)C

> <Shape>
0.261

> <Color>
0.062

> <Negative vol penalty>
0.000

$$$$

  -OEChem-04052323223D

 92103  0     1  0  0  0  0  0999 V2000
  -17.1633  -27.3610   23.7015 C   0  0  0  0  0  0  0  0  0  0  0  0
  -18.4246  -26.8114   23.9077 C   0  0  0  0  0  0  0  0  0  0  0  0
  -25.1441  -18.1487   21.9539 C   0  0  0  0  0  0  0  0  0  0  0  0
  -24.7978  -18.4238   19.5788 C   0  0  0  0  0  0  0  0  0  0  0  0
  -16.9975  -28.3978   22.7842 C   0  0  0  0  0  0  0  0  0  0  0  0
  -19.5207  -27.2976   23.1959 C   0  0  0  0  0  0  0  0  0  0  0  0
  -26.5666  -28.4041   23.8645 C   0  0  0  0  0  0  0  0  0  0  0  0
  -24.7684  -19.4757   22.1625 C   0  0  0  0  0  0  0  0  0  0  0  0
  -24.4221  -19.7509   19.7873 C   0  0  0  0  0  0  0  0  0  0  0  0
  -27.7672  -28.1252   23.2131 C   0  0  0  0  0  0  0  0  0  0  0  0
  -24.2460  -22.8962   23.2809 C   0  0  0  0  0  0  0  0  0  0  0  0
  -25.0264  -23.6647   24.1446 C   0  0  0  0  0  0  0  0  0  0  0  0
  -27.3752  -29.9727   21.7123 C   0  0  0  0  0  0  0  0  0  0  0  0
  -30.3642  -26.5588   18.6829 C   0  0  0  0  0  0  0  0  0  0  0  0
  -26.9485  -23.3084   22.7248 C   0  0  0  0  0  0  0  0  0  0  0  0
  -25.1589  -17.6227   20.6621 C   0  0  0  0  0  0  0  0  0  0  0  0
  -24.7082  -15.1220   20.4372 C   0  0  0  0  0  0  0  0  0  0  0  0
  -18.0937  -28.9035   22.0678 C   0  0  0  0  0  0  0  0  0  0  0  0
  -25.7545  -29.4645   23.4371 C   0  0  0  0  0  0  0  0  0  0  0  0
  -19.3691  -28.3412   22.2671 C   0  0  0  0  0  0  0  0  0  0  0  0
  -26.1660  -30.2646   22.3616 C   0  0  0  0  0  0  0  0  0  0  0  0
  -30.4678  -27.4446   19.7410 C   0  0  0  0  0  0  0  0  0  0  0  0
  -24.4074  -20.2768   21.0792 C   0  0  0  0  0  0  0  0  0  0  0  0
  -28.1703  -28.9077   22.1350 C   0  0  0  0  0  0  0  0  0  0  0  0
  -24.8168  -22.3337   22.1392 C   0  0  0  0  0  0  0  0  0  0  0  0
  -26.3776  -23.8708   23.8666 C   0  0  0  0  0  0  0  0  0  0  0  0
  -26.1680  -22.5399   21.8611 C   0  0  0  0  0  0  0  0  0  0  0  0
  -25.5474  -16.2522   20.4460 C   0  0  0  0  0  0  0  0  0  0  0  0
  -29.1158  -26.0500   18.3861 C   0  0  0  0  0  0  0  0  0  0  0  0
  -29.3161  -27.7631   20.4321 C   0  0  0  0  0  0  0  0  0  1  0  0
  -25.5540  -14.0682   20.1909 C   0  0  0  0  0  0  0  0  0  0  0  0
  -23.2908  -15.0326   20.6339 C   0  0  0  0  0  0  0  0  0  0  0  0
  -22.8031  -29.7050   22.2816 C   0  0  0  0  0  0  0  0  0  0  0  0
  -23.3864  -32.8869   22.5223 C   0  0  0  0  0  0  0  0  0  0  0  0
  -25.6804  -35.4104   22.6491 C   0  0  0  0  0  0  0  0  0  0  0  0
  -30.2328  -16.9021   19.4580 C   0  0  0  0  0  0  0  0  0  0  0  0
  -17.8571  -29.9932   21.0523 C   0  0  0  0  0  0  0  0  0  0  0  0
  -24.4753  -29.7689   24.1673 C   0  0  0  0  0  0  0  0  0  0  0  0
  -25.3402  -31.4271   21.8767 C   0  0  0  0  0  0  0  0  0  0  0  0
  -19.1345  -30.7041   20.6129 C   0  0  0  0  0  0  0  0  0  0  0  0
  -29.5259  -14.3474   21.8541 C   0  0  0  0  0  0  0  0  0  0  0  0
  -31.4487  -17.3818   16.0756 C   0  0  0  0  0  0  0  0  0  0  0  0
  -32.9392  -27.0991   20.4091 C   0  0  0  0  0  0  0  0  0  0  0  0
  -32.2944  -27.8686   21.5192 C   0  0  0  0  0  0  0  0  0  0  0  0
  -20.2277  -29.6891   20.2944 C   0  0  0  0  0  0  0  0  0  0  0  0
  -28.7146  -13.3077   21.0888 C   0  0  0  0  0  0  0  0  0  0  0  0
  -30.6877  -18.6895   16.2426 C   0  0  0  0  0  0  0  0  0  0  0  0
  -30.5825  -14.9705   20.9550 C   0  0  0  0  0  0  0  0  0  0  0  0
  -30.6935  -16.4376   16.9981 C   0  0  0  0  0  0  0  0  0  0  0  0
  -30.0613  -23.1134   18.0702 C   0  0  0  0  0  0  0  0  0  0  0  0
  -28.0812  -22.9060   16.6979 C   0  0  0  0  0  0  0  0  0  0  0  0
  -29.1373  -14.6570   18.9552 C   0  0  0  0  0  0  0  0  0  0  0  0
  -29.8841  -21.6952   18.6021 C   0  0  0  0  0  0  0  0  0  0  0  0
  -27.8465  -21.4818   17.1899 C   0  0  0  0  0  0  0  0  0  0  0  0
  -31.7892  -28.0255   20.1079 C   0  0  0  0  0  0  0  0  0  0  0  0
  -20.5868  -28.8583   21.5323 C   0  0  1  0  0  0  0  0  0  0  0  0
  -23.4771  -30.5541   23.3220 C   0  0  1  0  0  0  0  0  0  0  0  0
  -28.1043  -13.8715   19.7957 C   0  0  2  0  0  0  0  0  0  0  0  0
  -30.3302  -18.7003   17.7314 C   0  0  1  0  0  0  0  0  0  0  0  0
  -25.8538  -37.9088   22.8086 C   0  0  0  0  0  0  0  0  0  0  0  0
  -22.5963  -33.1269   19.5850 C   0  0  0  0  0  0  0  0  0  0  0  0
  -23.6771  -35.3849   19.5508 C   0  0  0  0  0  0  0  0  0  0  0  0
  -21.7304  -34.9585   21.0512 C   0  0  0  0  0  0  0  0  0  0  0  0
  -27.1635  -35.2603   25.2059 C   0  0  0  0  0  0  0  0  0  0  0  0
  -28.9483  -25.0857   17.2476 C   0  0  0  0  0  0  0  0  0  0  0  0
  -29.0212  -19.4327   17.9970 C   0  0  0  0  0  0  0  0  0  0  0  0
  -23.9744  -33.9379   21.6120 C   0  0  1  0  0  0  0  0  0  0  0  0
  -25.8189  -36.5999   23.5821 C   0  0  2  0  0  0  0  0  0  0  0  0
  -23.0094  -34.3290   20.4574 C   0  0  0  0  0  0  0  0  0  0  0  0
  -26.8281  -15.9452   20.2232 N   0  0  0  0  0  0  0  0  0  0  0  0
  -28.0055  -26.3794   19.0796 N   0  0  0  0  0  0  0  0  0  0  0  0
  -28.1073  -27.2500   20.1195 N   0  0  0  0  0  0  0  0  0  0  0  0
  -26.7999  -14.6101   20.0722 N   0  0  0  0  0  0  0  0  0  0  0  0
  -24.0946  -31.6807   22.6193 N   0  0  0  0  0  0  0  0  0  0  0  0
  -29.9991  -15.5489   19.7444 N   0  0  0  0  0  0  0  0  0  0  0  0
  -30.2727  -17.2846   18.1153 N   0  0  0  0  0  0  0  0  0  0  0  0
  -28.7676  -23.7120   17.7160 N   0  0  0  0  0  0  0  0  0  0  0  0
  -25.3461  -12.7401   20.0667 N   0  0  0  0  0  0  0  0  0  0  0  0
  -22.5742  -16.2126   20.8758 N   0  0  0  0  0  0  0  0  0  0  0  0
  -21.4314  -29.6217   22.4257 N   0  0  0  0  0  0  0  0  0  0  0  0
  -24.3610  -35.0519   22.4710 N   0  0  0  0  0  0  0  0  0  0  0  0
  -29.1698  -20.8642   17.5662 N   0  3  0  0  0  0  0  0  0  0  0  0
  -27.0742  -36.4906   24.3779 N   0  3  0  0  0  0  0  0  0  0  0  0
  -22.6803  -13.9370   20.6126 O   0  0  0  0  0  0  0  0  0  0  0  0
  -23.4776  -29.1666   21.4116 O   0  0  0  0  0  0  0  0  0  0  0  0
  -22.3412  -33.1299   23.1306 O   0  0  0  0  0  0  0  0  0  0  0  0
  -26.6459  -34.8571   22.1274 O   0  0  0  0  0  0  0  0  0  0  0  0
  -30.4084  -17.7305   20.3614 O   0  0  0  0  0  0  0  0  0  0  0  0
  -24.0405  -21.5716   21.2823 O   0  0  0  0  0  0  0  0  0  0  0  0
  -29.3593  -28.6331   21.4873 O   0  0  0  0  0  0  0  0  0  1  0  0
  -27.1265  -24.6101   24.6952 F   0  0  0  0  0  0  0  0  0  0  0  0
  -26.7218  -22.0031   20.7652 F   0  0  0  0  0  0  0  0  0  0  0  0
  1  2  1  0  0  0  0
  1  5  2  0  0  0  0
  2  6  2  0  0  0  0
  3  8  2  0  0  0  0
  3 16  1  0  0  0  0
  4  9  1  0  0  0  0
  4 16  2  0  0  0  0
  5 18  1  0  0  0  0
  6 20  1  0  0  0  0
  7 10  2  0  0  0  0
  7 19  1  0  0  0  0
  8 23  1  0  0  0  0
  9 23  2  0  0  0  0
 10 24  1  0  0  0  0
 11 12  2  0  0  0  0
 11 25  1  0  0  0  0
 12 26  1  0  0  0  0
 13 21  1  0  0  0  0
 13 24  2  0  0  0  0
 14 22  1  0  0  0  0
 14 29  2  0  0  0  0
 15 26  2  0  0  0  0
 15 27  1  0  0  0  0
 16 28  1  0  0  0  0
 17 28  1  0  0  0  0
 17 31  2  0  0  0  0
 17 32  1  0  0  0  0
 18 20  2  0  0  0  0
 18 37  1  0  0  0  0
 19 21  2  0  0  0  0
 19 38  1  0  0  0  0
 20 56  1  0  0  0  0
 21 39  1  0  0  0  0
 22 30  2  0  0  0  0
 22 55  1  0  0  0  0
 23 89  1  0  0  0  0
 24 90  1  0  0  0  0
 25 27  2  0  0  0  0
 25 89  1  0  0  0  0
 26 91  1  0  0  0  0
 27 92  1  0  0  0  0
 28 70  2  0  0  0  0
 29 65  1  0  0  0  0
 29 71  1  0  0  0  0
 30 72  1  0  0  0  0
 30 90  1  0  0  0  0
 31 73  1  0  0  0  0
 31 78  1  0  0  0  0
 32 79  1  0  0  0  0
 32 84  2  0  0  0  0
 33 57  1  0  0  0  0
 33 80  1  0  0  0  0
 33 85  2  0  0  0  0
 34 67  1  0  0  0  0
 34 74  1  0  0  0  0
 34 86  2  0  0  0  0
 35 68  1  0  0  0  0
 35 81  1  0  0  0  0
 35 87  2  0  0  0  0
 36 75  1  0  0  0  0
 36 76  1  0  0  0  0
 36 88  2  0  0  0  0
 37 40  1  0  0  0  0
 38 57  1  0  0  0  0
 39 74  1  0  0  0  0
 40 45  1  0  0  0  0
 41 46  1  0  0  0  0
 41 48  1  0  0  0  0
 42 47  1  0  0  0  0
 42 49  1  0  0  0  0
 43 44  1  0  0  0  0
 43 55  1  0  0  0  0
 44 55  1  0  0  0  0
 45 56  1  0  0  0  0
 46 58  1  0  0  0  0
 47 59  1  0  0  0  0
 48 75  1  0  0  0  0
 49 76  1  0  0  0  0
 50 53  1  0  0  0  0
 50 77  1  0  0  0  0
 51 54  1  0  0  0  0
 51 77  1  0  0  0  0
 52 58  1  0  0  0  0
 52 75  1  0  0  0  0
 53 82  1  0  0  0  0
 54 82  1  0  0  0  0
 56 80  1  0  0  0  0
 57 74  1  0  0  0  0
 58 73  1  0  0  0  0
 59 66  1  0  0  0  0
 59 76  1  0  0  0  0
 60 68  1  0  0  0  0
 61 69  1  0  0  0  0
 62 69  1  0  0  0  0
 63 69  1  0  0  0  0
 64 83  1  0  0  0  0
 65 77  1  0  0  0  0
 66 82  1  0  0  0  0
 67 69  1  0  0  0  0
 67 81  1  0  0  0  0
 68 83  1  0  0  0  0
 70 73  1  0  0  0  0
 71 72  2  0  0  0  0
M  CHG  2  82   1  83   1
M  ISO  4  30 101  36 100  76 100  90 101
M  END
> <Batch ID>
0189

> <Smiles>
CNC(C)C(=O)NC(C(=O)N1Cc2cc([101O:1][101c:1]3nnc(CN4CCN(CC5CCC[100N:0]5[100C:0](=O)N5CCCC(n6nc(-c7ccc(Oc8ccc(F)cc8F)cc7)c(C(N)=O)c6N)C5)CC4)cc3C3CC3)ccc2CC1C(=O)NC1CCCc2ccccc21)C(C)(C)C

> <Shape>
0.274

> <Color>
0.101

> <Negative vol penalty>
0.000

$$$$

  -OEChem-04052323223D

 79 87  0     1  0  0  0  0  0999 V2000
  -17.1215  -26.5928   22.4497 C   0  0  0  0  0  0  0  0  0  0  0  0
  -18.3844  -26.0128   22.5132 C   0  0  0  0  0  0  0  0  0  0  0  0
  -25.6189  -14.2739   20.7463 C   0  0  0  0  0  0  0  0  0  0  0  0
  -26.8186  -12.2294   20.2798 C   0  0  0  0  0  0  0  0  0  0  0  0
  -16.9801  -27.9050   22.0004 C   0  0  0  0  0  0  0  0  0  0  0  0
  -19.5067  -26.7444   22.1264 C   0  0  0  0  0  0  0  0  0  0  0  0
  -25.1184  -26.4397   24.5597 C   0  0  0  0  0  0  0  0  0  0  0  0
  -24.4082  -13.5966   20.6015 C   0  0  0  0  0  0  0  0  0  0  0  0
  -25.6079  -11.5520   20.1350 C   0  0  0  0  0  0  0  0  0  0  0  0
  -26.2754  -25.7674   24.1681 C   0  0  0  0  0  0  0  0  0  0  0  0
  -23.2393  -10.2291   22.1499 C   0  0  0  0  0  0  0  0  0  0  0  0
  -23.1169   -8.9844   22.7675 C   0  0  0  0  0  0  0  0  0  0  0  0
  -27.0581  -27.7671   23.0692 C   0  0  0  0  0  0  0  0  0  0  0  0
  -22.7138   -7.9575   20.6180 C   0  0  0  0  0  0  0  0  0  0  0  0
  -26.8241  -13.5903   20.5854 C   0  0  0  0  0  0  0  0  0  0  0  0
  -28.8201  -14.4566   21.9171 C   0  0  0  0  0  0  0  0  0  0  0  0
  -18.1022  -28.6564   21.6170 C   0  0  0  0  0  0  0  0  0  0  0  0
  -24.9174  -27.7798   24.1991 C   0  0  0  0  0  0  0  0  0  0  0  0
  -19.3800  -28.0675   21.6703 C   0  0  0  0  0  0  0  0  0  0  0  0
  -25.8990  -28.4548   23.4596 C   0  0  0  0  0  0  0  0  0  0  0  0
  -24.4027  -12.2356   20.2958 C   0  0  0  0  0  0  0  0  0  0  0  0
  -27.2441  -26.4302   23.4203 C   0  0  0  0  0  0  0  0  0  0  0  0
  -23.0989  -10.3380   20.7664 C   0  0  0  0  0  0  0  0  0  0  0  0
  -22.8542   -7.8486   22.0016 C   0  0  0  0  0  0  0  0  0  0  0  0
  -22.8362   -9.2022   20.0005 C   0  0  0  0  0  0  0  0  0  0  0  0
  -28.0751  -14.2896   20.7343 C   0  0  0  0  0  0  0  0  0  0  0  0
  -29.9173  -15.1874   21.5315 C   0  0  0  0  0  0  0  0  0  0  0  0
  -28.5450  -13.9926   23.2455 C   0  0  0  0  0  0  0  0  0  0  0  0
  -22.7607  -29.3345   22.4568 C   0  0  0  0  0  0  0  0  0  0  0  0
  -24.3480  -31.9501   23.5345 C   0  0  0  0  0  0  0  0  0  0  0  0
  -27.2392  -33.2815   24.7654 C   0  0  0  0  0  0  0  0  0  0  0  0
  -32.1497  -19.4221   18.6724 C   0  0  0  0  0  0  0  0  0  0  0  0
  -17.8947  -30.0554   21.0932 C   0  0  0  0  0  0  0  0  0  0  0  0
  -23.6762  -28.4986   24.6521 C   0  0  0  0  0  0  0  0  0  0  0  0
  -25.7404  -29.8994   23.0641 C   0  0  0  0  0  0  0  0  0  0  0  0
  -19.1735  -30.8881   21.0568 C   0  0  0  0  0  0  0  0  0  0  0  0
  -31.6596  -16.3752   16.9537 C   0  0  0  0  0  0  0  0  0  0  0  0
  -20.3167  -30.0844   20.4452 C   0  0  0  0  0  0  0  0  0  0  0  0
  -30.7191  -15.5809   17.8558 C   0  0  0  0  0  0  0  0  0  0  0  0
  -31.7484  -22.3455   20.9063 C   0  0  0  0  0  0  0  0  0  0  0  0
  -31.2981  -17.8544   16.9645 C   0  0  0  0  0  0  0  0  0  0  0  0
  -32.5851  -21.4820   19.9751 C   0  0  0  0  0  0  0  0  0  0  0  0
  -30.3572  -20.5963   20.0848 C   0  0  0  0  0  0  0  0  0  0  0  0
  -30.3995  -17.6771   19.2690 C   0  0  0  0  0  0  0  0  0  0  0  0
  -20.6241  -28.8372   21.2828 C   0  0  1  0  0  0  0  0  0  0  0  0
  -23.3405  -29.7121   23.7906 C   0  0  1  0  0  0  0  0  0  0  0  0
  -30.3239  -22.0888   20.4132 C   0  0  1  0  0  0  0  0  0  0  0  0
  -30.7093  -16.1659   19.2766 C   0  0  1  0  0  0  0  0  0  0  0  0
  -28.2440  -35.4551   25.5158 C   0  0  0  0  0  0  0  0  0  0  0  0
  -24.6421  -32.8163   20.6236 C   0  0  0  0  0  0  0  0  0  0  0  0
  -26.4188  -34.4221   21.3537 C   0  0  0  0  0  0  0  0  0  0  0  0
  -24.0895  -34.6673   22.2120 C   0  0  0  0  0  0  0  0  0  0  0  0
  -27.7047  -32.2550   27.5019 C   0  0  0  0  0  0  0  0  0  0  0  0
  -29.2666  -23.9583   21.7429 C   0  0  0  0  0  0  0  0  0  0  0  0
  -28.2696  -24.3700   22.8205 C   0  0  0  0  0  0  0  0  0  1  0  0
  -25.5248  -32.7617   23.0493 C   0  0  1  0  0  0  0  0  0  0  0  0
  -27.5033  -34.1985   25.9460 C   0  0  2  0  0  0  0  0  0  0  0  0
  -29.2612  -22.4583   21.4326 C   0  0  1  0  0  0  0  0  0  0  0  0
  -25.1712  -33.6391   21.8153 C   0  0  0  0  0  0  0  0  0  0  0  0
  -28.6503  -14.8679   19.6766 N   0  0  0  0  0  0  0  0  0  0  0  0
  -29.7684  -15.4054   20.1934 N   0  0  0  0  0  0  0  0  0  0  0  0
  -24.5066  -30.5571   23.5255 N   0  0  0  0  0  0  0  0  0  0  0  0
  -31.2642  -18.3960   18.3243 N   0  0  0  0  0  0  0  0  0  0  0  0
  -31.7232  -20.3622   19.6095 N   0  0  0  0  0  0  0  0  0  0  0  0
  -30.9851  -15.6583   22.2099 N   0  0  0  0  0  0  0  0  0  0  0  0
  -27.3735  -13.2556   23.4666 N   0  0  0  0  0  0  0  0  0  0  0  0
  -21.3860  -29.1943   22.4603 N   0  0  0  0  0  0  0  0  0  0  0  0
  -26.0028  -33.5171   24.2022 N   0  0  0  0  0  0  0  0  0  0  0  0
  -27.9330  -22.0645   20.8815 N   0  3  0  0  0  0  0  0  0  0  0  0
  -28.3244  -33.4973   26.9731 N   0  3  0  0  0  0  0  0  0  0  0  0
  -29.3069  -14.2386   24.2111 O   0  0  0  0  0  0  0  0  0  0  0  0
  -23.5053  -29.1831   21.4954 O   0  0  0  0  0  0  0  0  0  0  0  0
  -23.3282  -32.5310   23.9144 O   0  0  0  0  0  0  0  0  0  0  0  0
  -28.0502  -32.4428   24.3790 O   0  0  0  0  0  0  0  0  0  0  0  0
  -33.2619  -19.5206   18.1366 O   0  0  0  0  0  0  0  0  0  0  0  0
  -23.2214  -11.5743   20.1547 O   0  0  0  0  0  0  0  0  0  0  0  0
  -28.3818  -25.7717   23.0336 O   0  0  0  0  0  0  0  0  0  1  0  0
  -22.7382   -6.6532   22.5946 F   0  0  0  0  0  0  0  0  0  0  0  0
  -22.7015   -9.3005   18.6708 F   0  0  0  0  0  0  0  0  0  0  0  0
  1  2  1  0  0  0  0
  1  5  2  0  0  0  0
  2  6  2  0  0  0  0
  3  8  2  0  0  0  0
  3 15  1  0  0  0  0
  4  9  1  0  0  0  0
  4 15  2  0  0  0  0
  5 17  1  0  0  0  0
  6 19  1  0  0  0  0
  7 10  2  0  0  0  0
  7 18  1  0  0  0  0
  8 21  1  0  0  0  0
  9 21  2  0  0  0  0
 10 22  1  0  0  0  0
 11 12  2  0  0  0  0
 11 23  1  0  0  0  0
 12 24  1  0  0  0  0
 13 20  1  0  0  0  0
 13 22  2  0  0  0  0
 14 24  2  0  0  0  0
 14 25  1  0  0  0  0
 15 26  1  0  0  0  0
 16 26  1  0  0  0  0
 16 27  2  0  0  0  0
 16 28  1  0  0  0  0
 17 19  2  0  0  0  0
 17 33  1  0  0  0  0
 18 20  2  0  0  0  0
 18 34  1  0  0  0  0
 19 45  1  0  0  0  0
 20 35  1  0  0  0  0
 21 76  1  0  0  0  0
 22 77  1  0  0  0  0
 23 25  2  0  0  0  0
 23 76  1  0  0  0  0
 24 78  1  0  0  0  0
 25 79  1  0  0  0  0
 26 60  2  0  0  0  0
 27 61  1  0  0  0  0
 27 65  1  0  0  0  0
 28 66  1  0  0  0  0
 28 71  2  0  0  0  0
 29 46  1  0  0  0  0
 29 67  1  0  0  0  0
 29 72  2  0  0  0  0
 30 56  1  0  0  0  0
 30 62  1  0  0  0  0
 30 73  2  0  0  0  0
 31 57  1  0  0  0  0
 31 68  1  0  0  0  0
 31 74  2  0  0  0  0
 32 63  1  0  0  0  0
 32 64  1  0  0  0  0
 32 75  2  0  0  0  0
 33 36  1  0  0  0  0
 34 46  1  0  0  0  0
 35 62  1  0  0  0  0
 36 38  1  0  0  0  0
 37 39  1  0  0  0  0
 37 41  1  0  0  0  0
 38 45  1  0  0  0  0
 39 48  1  0  0  0  0
 40 42  1  0  0  0  0
 40 47  1  0  0  0  0
 41 63  1  0  0  0  0
 42 64  1  0  0  0  0
 43 47  1  0  0  0  0
 43 64  1  0  0  0  0
 44 48  1  0  0  0  0
 44 63  1  0  0  0  0
 45 67  1  0  0  0  0
 46 62  1  0  0  0  0
 47 58  1  0  0  0  0
 48 61  1  0  0  0  0
 49 57  1  0  0  0  0
 50 59  1  0  0  0  0
 51 59  1  0  0  0  0
 52 59  1  0  0  0  0
 53 70  1  0  0  0  0
 54 55  1  0  0  0  0
 54 58  1  0  0  0  0
 55 77  1  0  0  0  0
 56 59  1  0  0  0  0
 56 68  1  0  0  0  0
 57 70  1  0  0  0  0
 58 69  1  0  0  0  0
 60 61  1  0  0  0  0
M  CHG  2  69   1  70   1
M  ISO  4  32 100  55 101  64 100  77 101
M  END
> <Batch ID>
0189

> <Smiles>
CNC(C)C(=O)NC(C(=O)N1Cc2cc([101O:1][101CH2:1]CC(N)C3CC[100N:0]([100C:0](=O)N4CCCC(n5nc(-c6ccc(Oc7ccc(F)cc7F)cc6)c(C(N)=O)c5N)C4)C3)ccc2CC1C(=O)NC1CCCc2ccccc21)C(C)(C)C

> <Shape>
0.261

> <Color>
0.088

> <Negative vol penalty>
0.000

$$$$

  -OEChem-04052323223D

 84 92  0     1  0  0  0  0  0999 V2000
  -18.2529  -32.5865   20.3269 C   0  0  0  0  0  0  0  0  0  0  0  0
  -19.5911  -32.4536   19.9709 C   0  0  0  0  0  0  0  0  0  0  0  0
  -22.9722  -13.0977   21.3501 C   0  0  0  0  0  0  0  0  0  0  0  0
  -22.5425  -15.3460   22.1232 C   0  0  0  0  0  0  0  0  0  0  0  0
  -17.7996  -32.0640   21.5375 C   0  0  0  0  0  0  0  0  0  0  0  0
  -20.4772  -31.7990   20.8258 C   0  0  0  0  0  0  0  0  0  0  0  0
  -25.2459  -28.3096   19.2165 C   0  0  0  0  0  0  0  0  0  0  0  0
  -22.1904  -12.5913   22.3883 C   0  0  0  0  0  0  0  0  0  0  0  0
  -21.7607  -14.8396   23.1614 C   0  0  0  0  0  0  0  0  0  0  0  0
  -26.6117  -28.5730   19.1231 C   0  0  0  0  0  0  0  0  0  0  0  0
  -18.9010  -12.2093   23.0715 C   0  0  0  0  0  0  0  0  0  0  0  0
  -17.9851  -11.2037   22.7623 C   0  0  0  0  0  0  0  0  0  0  0  0
  -26.9311  -27.6704   21.3373 C   0  0  0  0  0  0  0  0  0  0  0  0
  -19.0939   -9.7175   24.3110 C   0  0  0  0  0  0  0  0  0  0  0  0
  -29.4142  -23.4287   17.8333 C   0  0  0  0  0  0  0  0  0  0  0  0
  -23.1483  -14.4751   21.2176 C   0  0  0  0  0  0  0  0  0  0  0  0
  -23.5256  -15.3605   18.8551 C   0  0  0  0  0  0  0  0  0  0  0  0
  -18.6785  -31.3942   22.4032 C   0  0  0  0  0  0  0  0  0  0  0  0
  -24.7098  -27.7336   20.3772 C   0  0  0  0  0  0  0  0  0  0  0  0
  -20.0355  -31.2682   22.0497 C   0  0  0  0  0  0  0  0  0  0  0  0
  -25.5584  -27.3982   21.4419 C   0  0  0  0  0  0  0  0  0  0  0  0
  -21.5846  -13.4622   23.2940 C   0  0  0  0  0  0  0  0  0  0  0  0
  -27.4541  -28.2561   20.1847 C   0  0  0  0  0  0  0  0  0  0  0  0
  -19.9134  -11.9689   24.0005 C   0  0  0  0  0  0  0  0  0  0  0  0
  -18.0815   -9.9579   23.3820 C   0  0  0  0  0  0  0  0  0  0  0  0
  -20.0098  -10.7230   24.6203 C   0  0  0  0  0  0  0  0  0  0  0  0
  -23.9563  -14.9988   20.1456 C   0  0  0  0  0  0  0  0  0  0  0  0
  -29.8868  -25.5801   17.2191 C   0  0  0  0  0  0  0  0  0  0  0  0
  -29.9055  -23.6809   19.0952 C   0  0  0  0  0  0  0  0  0  0  0  0
  -30.3775  -25.8327   18.4812 C   0  0  0  0  0  0  0  0  0  0  0  0
  -24.6643  -15.7964   18.2227 C   0  0  0  0  0  0  0  0  0  0  0  0
  -22.2136  -15.3073   18.2793 C   0  0  0  0  0  0  0  0  0  0  0  0
  -22.5902  -28.6484   22.5622 C   0  0  0  0  0  0  0  0  0  0  0  0
  -22.9969  -25.6226   23.6586 C   0  0  0  0  0  0  0  0  0  0  0  0
  -24.9848  -22.8558   23.8575 C   0  0  0  0  0  0  0  0  0  0  0  0
  -29.8226  -18.0803   20.2296 C   0  0  0  0  0  0  0  0  0  0  0  0
  -18.1521  -30.8876   23.7227 C   0  0  0  0  0  0  0  0  0  0  0  0
  -23.2383  -27.4311   20.4517 C   0  0  0  0  0  0  0  0  0  0  0  0
  -25.0357  -26.7598   22.7019 C   0  0  0  0  0  0  0  0  0  0  0  0
  -19.0767  -29.8798   24.4008 C   0  0  0  0  0  0  0  0  0  0  0  0
  -29.4087  -15.1791   18.2075 C   0  0  0  0  0  0  0  0  0  0  0  0
  -20.5182  -30.3781   24.3779 C   0  0  0  0  0  0  0  0  0  0  0  0
  -27.9256  -14.8366   18.3585 C   0  0  0  0  0  0  0  0  0  0  0  0
  -29.9991  -15.7167   19.5092 C   0  0  0  0  0  0  0  0  0  0  0  0
  -27.7869  -16.5143   20.2465 C   0  0  0  0  0  0  0  0  0  0  0  0
  -21.0221  -30.5430   22.9390 C   0  0  1  0  0  0  0  0  0  0  0  0
  -22.7239  -27.3147   21.8832 C   0  0  1  0  0  0  0  0  0  0  0  0
  -27.1334  -16.0208   18.9443 C   0  0  2  0  0  0  0  0  0  0  0  0
  -29.8691  -26.6284   16.1583 C   0  0  0  0  0  0  0  0  0  0  0  0
  -25.0630  -20.5539   24.8536 C   0  0  0  0  0  0  0  0  0  0  0  0
  -23.6083  -26.8295   26.3935 C   0  0  0  0  0  0  0  0  0  0  0  0
  -24.5849  -24.6257   27.0702 C   0  0  0  0  0  0  0  0  0  0  0  0
  -22.1728  -24.7825   26.4538 C   0  0  0  0  0  0  0  0  0  0  0  0
  -25.1632  -21.5824   21.1919 C   0  0  0  0  0  0  0  0  0  0  0  0
  -29.3837  -21.3297   19.7472 C   0  0  0  0  0  0  0  0  0  0  0  0
  -29.4845  -20.4259   20.9665 C   0  0  0  0  0  0  0  0  0  0  0  0
  -31.0146  -27.6015   20.1218 C   0  0  0  0  0  0  0  0  0  0  0  0
  -29.6646  -27.6484   20.8177 C   0  0  0  0  0  0  0  0  0  1  0  0
  -23.9287  -24.9585   24.6433 C   0  0  1  0  0  0  0  0  0  0  0  0
  -24.6875  -21.3838   23.6358 C   0  0  2  0  0  0  0  0  0  0  0  0
  -23.5835  -25.3128   26.1174 C   0  0  0  0  0  0  0  0  0  0  0  0
  -29.3960  -24.3737   16.8726 N   0  0  0  0  0  0  0  0  0  0  0  0
  -25.2663  -15.1884   20.3241 N   0  0  0  0  0  0  0  0  0  0  0  0
  -30.3960  -24.8875   19.4419 N   0  0  0  0  0  0  0  0  0  0  0  0
  -25.6687  -15.6738   19.1373 N   0  0  0  0  0  0  0  0  0  0  0  0
  -23.5887  -26.4896   22.7292 N   0  0  0  0  0  0  0  0  0  0  0  0
  -29.2025  -16.8390   20.0110 N   0  0  0  0  0  0  0  0  0  0  0  0
  -24.8944  -16.2688   16.9792 N   0  0  0  0  0  0  0  0  0  0  0  0
  -21.1566  -14.8332   19.0682 N   0  0  0  0  0  0  0  0  0  0  0  0
  -29.8880  -22.6336   20.0431 N   0  0  0  0  0  0  0  0  0  0  0  0
  -30.8684  -27.0937   18.7769 N   0  0  0  0  0  0  0  0  0  0  0  0
  -21.3637  -29.2559   22.3725 N   0  0  0  0  0  0  0  0  0  0  0  0
  -23.8863  -23.5308   24.3463 N   0  0  0  0  0  0  0  0  0  0  0  0
  -28.9942  -19.0920   20.6997 N   0  0  0  0  0  0  0  0  0  0  0  0
  -25.4524  -20.8716   22.4639 N   0  3  0  0  0  0  0  0  0  0  0  0
  -21.9883  -15.6539   17.0950 O   0  0  0  0  0  0  0  0  0  0  0  0
  -23.5298  -29.0926   23.2115 O   0  0  0  0  0  0  0  0  0  0  0  0
  -21.7893  -25.3756   23.7076 O   0  0  0  0  0  0  0  0  0  0  0  0
  -26.0829  -23.3561   23.6241 O   0  0  0  0  0  0  0  0  0  0  0  0
  -31.0242  -18.2741   20.0162 O   0  0  0  0  0  0  0  0  0  0  0  0
  -20.8214  -12.9684   24.3070 O   0  0  0  0  0  0  0  0  0  0  0  0
  -28.7876  -28.5128   20.0965 O   0  0  0  0  0  0  0  0  0  1  0  0
  -17.2010   -8.9928   23.0861 F   0  0  0  0  0  0  0  0  0  0  0  0
  -20.9795  -10.4865   25.5144 F   0  0  0  0  0  0  0  0  0  0  0  0
  1  2  1  0  0  0  0
  1  5  2  0  0  0  0
  2  6  2  0  0  0  0
  3  8  2  0  0  0  0
  3 16  1  0  0  0  0
  4  9  1  0  0  0  0
  4 16  2  0  0  0  0
  5 18  1  0  0  0  0
  6 20  1  0  0  0  0
  7 10  2  0  0  0  0
  7 19  1  0  0  0  0
  8 22  1  0  0  0  0
  9 22  2  0  0  0  0
 10 23  1  0  0  0  0
 11 12  2  0  0  0  0
 11 24  1  0  0  0  0
 12 25  1  0  0  0  0
 13 21  1  0  0  0  0
 13 23  2  0  0  0  0
 14 25  2  0  0  0  0
 14 26  1  0  0  0  0
 15 29  1  0  0  0  0
 15 62  2  0  0  0  0
 16 27  1  0  0  0  0
 17 27  1  0  0  0  0
 17 31  2  0  0  0  0
 17 32  1  0  0  0  0
 18 20  2  0  0  0  0
 18 37  1  0  0  0  0
 19 21  2  0  0  0  0
 19 38  1  0  0  0  0
 20 46  1  0  0  0  0
 21 39  1  0  0  0  0
 22 81  1  0  0  0  0
 23 82  1  0  0  0  0
 24 26  2  0  0  0  0
 24 81  1  0  0  0  0
 25 83  1  0  0  0  0
 26 84  1  0  0  0  0
 27 63  2  0  0  0  0
 28 30  2  0  0  0  0
 28 49  1  0  0  0  0
 28 62  1  0  0  0  0
 29 64  2  0  0  0  0
 29 70  1  0  0  0  0
 30 64  1  0  0  0  0
 30 71  1  0  0  0  0
 31 65  1  0  0  0  0
 31 68  1  0  0  0  0
 32 69  1  0  0  0  0
 32 76  2  0  0  0  0
 33 47  1  0  0  0  0
 33 72  1  0  0  0  0
 33 77  2  0  0  0  0
 34 59  1  0  0  0  0
 34 66  1  0  0  0  0
 34 78  2  0  0  0  0
 35 60  1  0  0  0  0
 35 73  1  0  0  0  0
 35 79  2  0  0  0  0
 36 67  1  0  0  0  0
 36 74  1  0  0  0  0
 36 80  2  0  0  0  0
 37 40  1  0  0  0  0
 38 47  1  0  0  0  0
 39 66  1  0  0  0  0
 40 42  1  0  0  0  0
 41 43  1  0  0  0  0
 41 44  1  0  0  0  0
 42 46  1  0  0  0  0
 43 48  1  0  0  0  0
 44 67  1  0  0  0  0
 45 48  1  0  0  0  0
 45 67  1  0  0  0  0
 46 72  1  0  0  0  0
 47 66  1  0  0  0  0
 48 65  1  0  0  0  0
 50 60  1  0  0  0  0
 51 61  1  0  0  0  0
 52 61  1  0  0  0  0
 53 61  1  0  0  0  0
 54 75  1  0  0  0  0
 55 56  1  0  0  0  0
 55 70  1  0  0  0  0
 56 74  1  0  0  0  0
 57 58  1  0  0  0  0
 57 71  1  0  0  0  0
 58 82  1  0  0  0  0
 59 61  1  0  0  0  0
 59 73  1  0  0  0  0
 60 75  1  0  0  0  0
 63 65  1  0  0  0  0
M  CHG  1  75   1
M  ISO  4  36 100  58 101  74 100  82 101
M  END
> <Batch ID>
0189

> <Smiles>
CNC(C)C(=O)NC(C(=O)N1Cc2cc([101O:1][101CH2:1]CNc3nc(NCC[100NH:0][100C:0](=O)N4CCCC(n5nc(-c6ccc(Oc7ccc(F)cc7F)cc6)c(C(N)=O)c5N)C4)cnc3C)ccc2CC1C(=O)NC1CCCc2ccccc21)C(C)(C)C

> <Shape>
0.197

> <Color>
0.094

> <Negative vol penalty>
0.000

$$$$

  -OEChem-04052323223D

 78 86  0     1  0  0  0  0  0999 V2000
  -26.9270  -33.9454   20.1234 C   0  0  0  0  0  0  0  0  0  0  0  0
  -26.9981  -32.5568   20.0771 C   0  0  0  0  0  0  0  0  0  0  0  0
  -26.6497  -13.7367   21.3807 C   0  0  0  0  0  0  0  0  0  0  0  0
  -25.3584  -13.3094   19.3839 C   0  0  0  0  0  0  0  0  0  0  0  0
  -26.0974  -34.5692   21.0543 C   0  0  0  0  0  0  0  0  0  0  0  0
  -26.2404  -31.7911   20.9625 C   0  0  0  0  0  0  0  0  0  0  0  0
  -23.6541  -26.3535   19.8447 C   0  0  0  0  0  0  0  0  0  0  0  0
  -25.7725  -12.9416   22.1182 C   0  0  0  0  0  0  0  0  0  0  0  0
  -24.4812  -12.5142   20.1214 C   0  0  0  0  0  0  0  0  0  0  0  0
  -24.0496  -25.0489   20.1369 C   0  0  0  0  0  0  0  0  0  0  0  0
  -24.4200   -9.3753   21.3720 C   0  0  0  0  0  0  0  0  0  0  0  0
  -24.0405   -8.1506   20.8229 C   0  0  0  0  0  0  0  0  0  0  0  0
  -22.6831  -25.0863   22.1245 C   0  0  0  0  0  0  0  0  0  0  0  0
  -21.7287   -8.8519   20.8563 C   0  0  0  0  0  0  0  0  0  0  0  0
  -26.4426  -13.9207   20.0136 C   0  0  0  0  0  0  0  0  0  0  0  0
  -28.5163  -14.3272   18.5845 C   0  0  0  0  0  0  0  0  0  0  0  0
  -25.3217  -33.8106   21.9451 C   0  0  0  0  0  0  0  0  0  0  0  0
  -22.7772  -27.0393   20.6974 C   0  0  0  0  0  0  0  0  0  0  0  0
  -25.4006  -32.4053   21.9071 C   0  0  0  0  0  0  0  0  0  0  0  0
  -22.2760  -26.3986   21.8395 C   0  0  0  0  0  0  0  0  0  0  0  0
  -24.6883  -12.3303   21.4885 C   0  0  0  0  0  0  0  0  0  0  0  0
  -23.5664  -24.4161   21.2785 C   0  0  0  0  0  0  0  0  0  0  0  0
  -23.4538  -10.3384   21.6634 C   0  0  0  0  0  0  0  0  0  0  0  0
  -22.6949   -7.8889   20.5650 C   0  0  0  0  0  0  0  0  0  0  0  0
  -22.1082  -10.0767   21.4055 C   0  0  0  0  0  0  0  0  0  0  0  0
  -27.3481  -14.7424   19.2513 C   0  0  0  0  0  0  0  0  0  0  0  0
  -29.0136  -15.4746   18.0164 C   0  0  0  0  0  0  0  0  0  0  0  0
  -29.0998  -13.0212   18.4872 C   0  0  0  0  0  0  0  0  0  0  0  0
  -22.9654  -29.6809   22.4553 C   0  0  0  0  0  0  0  0  0  0  0  0
  -19.8138  -29.1023   22.9601 C   0  0  0  0  0  0  0  0  0  0  0  0
  -17.2609  -26.8391   23.0450 C   0  0  0  0  0  0  0  0  0  0  0  0
  -28.3924  -21.2675   19.3806 C   0  0  0  0  0  0  0  0  0  0  0  0
  -24.4756  -34.5304   22.9652 C   0  0  0  0  0  0  0  0  0  0  0  0
  -22.3392  -28.4367   20.3539 C   0  0  0  0  0  0  0  0  0  0  0  0
  -21.3164  -27.0840   22.7765 C   0  0  0  0  0  0  0  0  0  0  0  0
  -23.4207  -33.6410   23.6183 C   0  0  0  0  0  0  0  0  0  0  0  0
  -27.6555  -19.7101   16.2984 C   0  0  0  0  0  0  0  0  0  0  0  0
  -24.0336  -32.3107   24.0444 C   0  0  0  0  0  0  0  0  0  0  0  0
  -27.5682  -18.2246   16.6375 C   0  0  0  0  0  0  0  0  0  0  0  0
  -28.7371  -22.0295   22.9874 C   0  0  0  0  0  0  0  0  0  0  0  0
  -27.0691  -20.5558   17.4206 C   0  0  0  0  0  0  0  0  0  0  0  0
  -29.0542  -22.3083   21.5252 C   0  0  0  0  0  0  0  0  0  0  0  0
  -27.6773  -18.8432   19.1077 C   0  0  0  0  0  0  0  0  0  0  0  0
  -27.4998  -20.4799   21.6556 C   0  0  0  0  0  0  0  0  0  0  0  0
  -24.5751  -31.5400   22.8344 C   0  0  1  0  0  0  0  0  0  0  0  0
  -21.8454  -29.2227   21.5646 C   0  0  1  0  0  0  0  0  0  0  0  0
  -28.2365  -17.9374   17.9911 C   0  0  1  0  0  0  0  0  0  0  0  0
  -27.3869  -21.3243   22.9191 C   0  0  2  0  0  0  0  0  0  0  0  0
  -14.8051  -26.6569   23.5276 C   0  0  0  0  0  0  0  0  0  0  0  0
  -20.3925  -29.2597   25.9519 C   0  0  0  0  0  0  0  0  0  0  0  0
  -18.1846  -28.1543   26.3663 C   0  0  0  0  0  0  0  0  0  0  0  0
  -18.2721  -30.3780   25.2392 C   0  0  0  0  0  0  0  0  0  0  0  0
  -16.6701  -25.9232   20.2934 C   0  0  0  0  0  0  0  0  0  0  0  0
  -24.0063  -22.7767   22.9442 C   0  0  0  0  0  0  0  0  0  1  0  0
  -25.0823  -21.7268   23.1424 C   0  0  0  0  0  0  0  0  0  0  0  0
  -19.0203  -28.3187   23.9776 C   0  0  1  0  0  0  0  0  0  0  0  0
  -15.8621  -26.8759   22.4564 C   0  0  2  0  0  0  0  0  0  0  0  0
  -18.9869  -29.0152   25.3673 C   0  0  0  0  0  0  0  0  0  0  0  0
  -27.1170  -16.0514   19.1201 N   0  0  0  0  0  0  0  0  0  0  0  0
  -28.1469  -16.4686   18.3642 N   0  0  0  0  0  0  0  0  0  0  0  0
  -20.9229  -28.4520   22.4009 N   0  0  0  0  0  0  0  0  0  0  0  0
  -27.6946  -20.2569   18.7101 N   0  0  0  0  0  0  0  0  0  0  0  0
  -28.3844  -21.2514   20.7751 N   0  0  0  0  0  0  0  0  0  0  0  0
  -30.1033  -15.7201   17.2583 N   0  0  0  0  0  0  0  0  0  0  0  0
  -28.4592  -11.9536   19.1309 N   0  0  0  0  0  0  0  0  0  0  0  0
  -23.4918  -30.9110   22.1097 N   0  0  0  0  0  0  0  0  0  0  0  0
  -17.7042  -28.0990   23.3876 N   0  0  0  0  0  0  0  0  0  0  0  0
  -15.7080  -25.8158   21.4203 N   0  3  0  0  0  0  0  0  0  0  0  0
  -30.1667  -12.8101   17.8622 O   0  0  0  0  0  0  0  0  0  0  0  0
  -23.3245  -28.9717   23.3880 O   0  0  0  0  0  0  0  0  0  0  0  0
  -19.4584  -30.2466   22.6670 O   0  0  0  0  0  0  0  0  0  0  0  0
  -17.8953  -25.7965   23.1900 O   0  0  0  0  0  0  0  0  0  0  0  0
  -28.9646  -22.1737   18.7599 O   0  0  0  0  0  0  0  0  0  0  0  0
  -23.8323  -11.5541   22.2078 O   0  0  0  0  0  0  0  0  0  0  0  0
  -23.9539  -23.1343   21.5684 O   0  0  0  0  0  0  0  0  0  1  0  0
  -26.3377  -22.2707   22.7589 O   0  0  0  0  0  0  0  0  0  0  0  0
  -22.3308   -6.7133   20.0363 F   0  0  0  0  0  0  0  0  0  0  0  0
  -21.1757  -10.9984   21.6821 F   0  0  0  0  0  0  0  0  0  0  0  0
  1  2  1  0  0  0  0
  1  5  2  0  0  0  0
  2  6  2  0  0  0  0
  3  8  2  0  0  0  0
  3 15  1  0  0  0  0
  4  9  1  0  0  0  0
  4 15  2  0  0  0  0
  5 17  1  0  0  0  0
  6 19  1  0  0  0  0
  7 10  2  0  0  0  0
  7 18  1  0  0  0  0
  8 21  1  0  0  0  0
  9 21  2  0  0  0  0
 10 22  1  0  0  0  0
 11 12  2  0  0  0  0
 11 23  1  0  0  0  0
 12 24  1  0  0  0  0
 13 20  1  0  0  0  0
 13 22  2  0  0  0  0
 14 24  2  0  0  0  0
 14 25  1  0  0  0  0
 15 26  1  0  0  0  0
 16 26  1  0  0  0  0
 16 27  2  0  0  0  0
 16 28  1  0  0  0  0
 17 19  2  0  0  0  0
 17 33  1  0  0  0  0
 18 20  2  0  0  0  0
 18 34  1  0  0  0  0
 19 45  1  0  0  0  0
 20 35  1  0  0  0  0
 21 74  1  0  0  0  0
 22 75  1  0  0  0  0
 23 25  2  0  0  0  0
 23 74  1  0  0  0  0
 24 77  1  0  0  0  0
 25 78  1  0  0  0  0
 26 59  2  0  0  0  0
 27 60  1  0  0  0  0
 27 64  1  0  0  0  0
 28 65  1  0  0  0  0
 28 69  2  0  0  0  0
 29 46  1  0  0  0  0
 29 66  1  0  0  0  0
 29 70  2  0  0  0  0
 30 56  1  0  0  0  0
 30 61  1  0  0  0  0
 30 71  2  0  0  0  0
 31 57  1  0  0  0  0
 31 67  1  0  0  0  0
 31 72  2  0  0  0  0
 32 62  1  0  0  0  0
 32 63  1  0  0  0  0
 32 73  2  0  0  0  0
 33 36  1  0  0  0  0
 34 46  1  0  0  0  0
 35 61  1  0  0  0  0
 36 38  1  0  0  0  0
 37 39  1  0  0  0  0
 37 41  1  0  0  0  0
 38 45  1  0  0  0  0
 39 47  1  0  0  0  0
 40 42  1  0  0  0  0
 40 48  1  0  0  0  0
 41 62  1  0  0  0  0
 42 63  1  0  0  0  0
 43 47  1  0  0  0  0
 43 62  1  0  0  0  0
 44 48  1  0  0  0  0
 44 63  1  0  0  0  0
 45 66  1  0  0  0  0
 46 61  1  0  0  0  0
 47 60  1  0  0  0  0
 48 76  1  0  0  0  0
 49 57  1  0  0  0  0
 50 58  1  0  0  0  0
 51 58  1  0  0  0  0
 52 58  1  0  0  0  0
 53 68  1  0  0  0  0
 54 55  1  0  0  0  0
 54 75  1  0  0  0  0
 55 76  1  0  0  0  0
 56 58  1  0  0  0  0
 56 67  1  0  0  0  0
 57 68  1  0  0  0  0
 59 60  1  0  0  0  0
M  CHG  1  68   1
M  ISO  4  32 100  54 101  63 100  75 101
M  END
> <Batch ID>
0189

> <Smiles>
CNC(C)C(=O)NC(C(=O)N1Cc2cc([101O:1][101CH2:1]COC3CC[100N:0]([100C:0](=O)N4CCCC(n5nc(-c6ccc(Oc7ccc(F)cc7F)cc6)c(C(N)=O)c5N)C4)C3)ccc2CC1C(=O)NC1CCCc2ccccc21)C(C)(C)C

> <Shape>
0.251

> <Color>
0.062

> <Negative vol penalty>
0.000

$$$$

  -OEChem-04052323223D

 81 90  0     1  0  0  0  0  0999 V2000
  -29.9804  -11.5974   19.9879 C   0  0  0  0  0  0  0  0  0  0  0  0
  -30.3337  -12.9347   19.8391 C   0  0  0  0  0  0  0  0  0  0  0  0
  -20.2607  -28.6857   23.8124 C   0  0  0  0  0  0  0  0  0  0  0  0
  -20.3514  -27.1815   21.9240 C   0  0  0  0  0  0  0  0  0  0  0  0
  -28.6740  -11.1890   19.7228 C   0  0  0  0  0  0  0  0  0  0  0  0
  -29.3809  -13.8643   19.4239 C   0  0  0  0  0  0  0  0  0  0  0  0
  -28.9474  -19.7198   21.1649 C   0  0  0  0  0  0  0  0  0  0  0  0
  -18.9453  -29.0158   23.4864 C   0  0  0  0  0  0  0  0  0  0  0  0
  -19.0360  -27.5115   21.5979 C   0  0  0  0  0  0  0  0  0  0  0  0
  -29.3627  -20.9092   20.5676 C   0  0  0  0  0  0  0  0  0  0  0  0
  -15.9309  -26.7056   22.6609 C   0  0  0  0  0  0  0  0  0  0  0  0
  -15.0650  -25.6625   22.3330 C   0  0  0  0  0  0  0  0  0  0  0  0
  -27.1543  -21.2096   19.6445 C   0  0  0  0  0  0  0  0  0  0  0  0
  -14.7145  -26.6394   20.1512 C   0  0  0  0  0  0  0  0  0  0  0  0
  -30.6265  -24.7774   17.3669 C   0  0  0  0  0  0  0  0  0  0  0  0
  -20.9638  -27.7687   23.0312 C   0  0  0  0  0  0  0  0  0  0  0  0
  -22.7543  -26.3897   24.2145 C   0  0  0  0  0  0  0  0  0  0  0  0
  -27.7022  -12.1157   19.3134 C   0  0  0  0  0  0  0  0  0  0  0  0
  -27.6333  -19.2601   20.9972 C   0  0  0  0  0  0  0  0  0  0  0  0
  -28.0605  -13.4677   19.1517 C   0  0  0  0  0  0  0  0  0  0  0  0
  -26.7241  -20.0154   20.2429 C   0  0  0  0  0  0  0  0  0  0  0  0
  -18.3329  -28.4286   22.3792 C   0  0  0  0  0  0  0  0  0  0  0  0
  -28.4669  -21.6528   19.8049 C   0  0  0  0  0  0  0  0  0  0  0  0
  -16.1886  -27.7157   21.7341 C   0  0  0  0  0  0  0  0  0  0  0  0
  -14.4568  -25.6293   21.0781 C   0  0  0  0  0  0  0  0  0  0  0  0
  -15.5804  -27.6826   20.4792 C   0  0  0  0  0  0  0  0  0  0  0  0
  -22.3229  -27.4278   23.3671 C   0  0  0  0  0  0  0  0  0  0  0  0
  -30.4643  -24.5186   18.7351 C   0  0  0  0  0  0  0  0  0  0  0  0
  -24.1245  -26.4846   24.2036 C   0  0  0  0  0  0  0  0  0  0  0  0
  -21.9853  -25.4257   24.9459 C   0  0  0  0  0  0  0  0  0  0  0  0
  -26.3090  -16.6730   19.7100 C   0  0  0  0  0  0  0  0  0  0  0  0
  -23.5811  -17.9440   20.9206 C   0  0  0  0  0  0  0  0  0  0  0  0
  -21.8982  -20.7178   21.9792 C   0  0  0  0  0  0  0  0  0  0  0  0
  -27.7736  -28.7508   20.0625 C   0  0  0  0  0  0  0  0  0  0  0  0
  -26.3148  -11.6189   18.9929 C   0  0  0  0  0  0  0  0  0  0  0  0
  -27.1935  -17.9888   21.6702 C   0  0  0  0  0  0  0  0  0  0  0  0
  -25.2967  -19.5758   20.0491 C   0  0  0  0  0  0  0  0  0  0  0  0
  -25.2717  -12.7310   18.9185 C   0  0  0  0  0  0  0  0  0  0  0  0
  -27.6673  -29.6241   23.6548 C   0  0  0  0  0  0  0  0  0  0  0  0
  -25.7953  -13.8995   18.0895 C   0  0  0  0  0  0  0  0  0  0  0  0
  -26.2837  -29.1094   24.0389 C   0  0  0  0  0  0  0  0  0  0  0  0
  -31.6799  -28.9763   17.7030 C   0  0  0  0  0  0  0  0  0  0  0  0
  -30.7466  -30.1279   18.1209 C   0  0  0  0  0  0  0  0  0  0  0  0
  -27.7106  -30.1410   22.2172 C   0  0  0  0  0  0  0  0  0  0  0  0
  -25.8407  -28.6315   21.6007 C   0  0  0  0  0  0  0  0  0  0  0  0
  -27.0490  -14.5103   18.7272 C   0  0  1  0  0  0  0  0  0  0  0  0
  -25.9753  -17.3526   21.0079 C   0  0  1  0  0  0  0  0  0  0  0  0
  -25.7964  -28.0620   23.0267 C   0  0  2  0  0  0  0  0  0  0  0  0
  -30.9412  -28.0859   18.7481 C   0  0  1  0  0  0  0  0  0  0  0  0
  -29.7265  -29.0477   18.5413 C   0  0  1  0  0  0  0  0  0  0  0  0
  -20.0415  -22.0707   22.9890 C   0  0  0  0  0  0  0  0  0  0  0  0
  -22.3813  -17.7137   18.1247 C   0  0  0  0  0  0  0  0  0  0  0  0
  -20.5732  -19.2878   18.8467 C   0  0  0  0  0  0  0  0  0  0  0  0
  -20.8296  -17.0810   19.9811 C   0  0  0  0  0  0  0  0  0  0  0  0
  -23.0097  -20.4222   24.7062 C   0  0  0  0  0  0  0  0  0  0  0  0
  -30.2244  -23.2105   19.4298 C   0  0  0  0  0  0  0  0  0  1  0  0
  -22.5303  -18.9013   20.4123 C   0  0  1  0  0  0  0  0  0  0  0  0
  -21.0758  -20.9817   23.2276 C   0  0  2  0  0  0  0  0  0  0  0  0
  -21.6060  -18.2535   19.3430 C   0  0  0  0  0  0  0  0  0  0  0  0
  -30.8192  -26.0851   17.1728 N   0  0  0  0  0  0  0  0  0  0  0  0
  -23.3368  -28.1307   22.8553 N   0  0  0  0  0  0  0  0  0  0  0  0
  -30.5536  -25.6589   19.4254 N   0  0  0  0  0  0  0  0  0  0  0  0
  -24.4190  -27.5332   23.3826 N   0  0  0  0  0  0  0  0  0  0  0  0
  -30.7633  -26.5406   18.4347 N   0  0  0  0  0  0  0  0  0  0  0  0
  -24.9164  -18.3228   20.7219 N   0  0  0  0  0  0  0  0  0  0  0  0
  -27.1710  -29.1552   21.2672 N   0  0  0  0  0  0  0  0  0  0  0  0
  -25.0941  -25.7727   24.8163 N   0  0  0  0  0  0  0  0  0  0  0  0
  -20.5881  -25.4698   24.8447 N   0  0  0  0  0  0  0  0  0  0  0  0
  -26.6874  -15.3511   19.8482 N   0  0  0  0  0  0  0  0  0  0  0  0
  -21.8259  -19.3970   21.5898 N   0  0  0  0  0  0  0  0  0  0  0  0
  -28.9880  -29.3575   19.7571 N   0  0  0  0  0  0  0  0  0  0  0  0
  -21.9592  -21.4101   24.3488 N   0  3  0  0  0  0  0  0  0  0  0  0
  -22.5207  -24.5616   25.6809 O   0  0  0  0  0  0  0  0  0  0  0  0
  -26.2277  -17.3009   18.6608 O   0  0  0  0  0  0  0  0  0  0  0  0
  -23.2302  -16.9021   21.4799 O   0  0  0  0  0  0  0  0  0  0  0  0
  -22.5375  -21.5963   21.4047 O   0  0  0  0  0  0  0  0  0  0  0  0
  -27.2678  -27.9154   19.3053 O   0  0  0  0  0  0  0  0  0  0  0  0
  -17.0492  -28.7502   22.0609 O   0  0  0  0  0  0  0  0  0  0  0  0
  -28.8698  -22.8137   19.2202 O   0  0  0  0  0  0  0  0  0  1  0  0
  -13.6264  -24.6267   20.7628 F   0  0  0  0  0  0  0  0  0  0  0  0
  -15.8250  -28.6495   19.5842 F   0  0  0  0  0  0  0  0  0  0  0  0
  1  2  1  0  0  0  0
  1  5  2  0  0  0  0
  2  6  2  0  0  0  0
  3  8  2  0  0  0  0
  3 16  1  0  0  0  0
  4  9  1  0  0  0  0
  4 16  2  0  0  0  0
  5 18  1  0  0  0  0
  6 20  1  0  0  0  0
  7 10  2  0  0  0  0
  7 19  1  0  0  0  0
  8 22  1  0  0  0  0
  9 22  2  0  0  0  0
 10 23  1  0  0  0  0
 11 12  2  0  0  0  0
 11 24  1  0  0  0  0
 12 25  1  0  0  0  0
 13 21  1  0  0  0  0
 13 23  2  0  0  0  0
 14 25  2  0  0  0  0
 14 26  1  0  0  0  0
 15 28  1  0  0  0  0
 15 60  2  0  0  0  0
 16 27  1  0  0  0  0
 17 27  1  0  0  0  0
 17 29  2  0  0  0  0
 17 30  1  0  0  0  0
 18 20  2  0  0  0  0
 18 35  1  0  0  0  0
 19 21  2  0  0  0  0
 19 36  1  0  0  0  0
 20 46  1  0  0  0  0
 21 37  1  0  0  0  0
 22 78  1  0  0  0  0
 23 79  1  0  0  0  0
 24 26  2  0  0  0  0
 24 78  1  0  0  0  0
 25 80  1  0  0  0  0
 26 81  1  0  0  0  0
 27 61  2  0  0  0  0
 28 56  1  0  0  0  0
 28 62  2  0  0  0  0
 29 63  1  0  0  0  0
 29 67  1  0  0  0  0
 30 68  1  0  0  0  0
 30 73  2  0  0  0  0
 31 47  1  0  0  0  0
 31 69  1  0  0  0  0
 31 74  2  0  0  0  0
 32 57  1  0  0  0  0
 32 65  1  0  0  0  0
 32 75  2  0  0  0  0
 33 58  1  0  0  0  0
 33 70  1  0  0  0  0
 33 76  2  0  0  0  0
 34 66  1  0  0  0  0
 34 71  1  0  0  0  0
 34 77  2  0  0  0  0
 35 38  1  0  0  0  0
 36 47  1  0  0  0  0
 37 65  1  0  0  0  0
 38 40  1  0  0  0  0
 39 41  1  0  0  0  0
 39 44  1  0  0  0  0
 40 46  1  0  0  0  0
 41 48  1  0  0  0  0
 42 43  1  0  0  0  0
 42 49  1  0  0  0  0
 43 50  1  0  0  0  0
 44 66  1  0  0  0  0
 45 48  1  0  0  0  0
 45 66  1  0  0  0  0
 46 69  1  0  0  0  0
 47 65  1  0  0  0  0
 48 63  1  0  0  0  0
 49 50  1  0  0  0  0
 49 64  1  0  0  0  0
 50 71  1  0  0  0  0
 51 58  1  0  0  0  0
 52 59  1  0  0  0  0
 53 59  1  0  0  0  0
 54 59  1  0  0  0  0
 55 72  1  0  0  0  0
 56 79  1  0  0  0  0
 57 59  1  0  0  0  0
 57 70  1  0  0  0  0
 58 72  1  0  0  0  0
 60 64  1  0  0  0  0
 61 63  1  0  0  0  0
 62 64  1  0  0  0  0
M  CHG  1  72   1
M  ISO  4  34 100  56 101  71 100  79 101
M  END
> <Batch ID>
0189

> <Smiles>
CNC(C)C(=O)NC(C(=O)N1Cc2cc([101O:1][101CH2:1]c3cnn(C4CCC4[100NH:0][100C:0](=O)N4CCCC(n5nc(-c6ccc(Oc7ccc(F)cc7F)cc6)c(C(N)=O)c5N)C4)n3)ccc2CC1C(=O)NC1CCCc2ccccc21)C(C)(C)C

> <Shape>
0.207

> <Color>
0.077

> <Negative vol penalty>
0.000

$$$$

  -OEChem-04052323223D

 82 90  0     1  0  0  0  0  0999 V2000
  -19.4473  -18.1482   28.6234 C   0  0  0  0  0  0  0  0  0  0  0  0
  -20.4114  -18.5227   27.6930 C   0  0  0  0  0  0  0  0  0  0  0  0
  -23.2005   -9.8533   19.9536 C   0  0  0  0  0  0  0  0  0  0  0  0
  -23.9011   -9.9364   22.2643 C   0  0  0  0  0  0  0  0  0  0  0  0
  -19.6545  -18.3982   29.9793 C   0  0  0  0  0  0  0  0  0  0  0  0
  -21.5829  -19.1485   28.1179 C   0  0  0  0  0  0  0  0  0  0  0  0
  -25.7156  -17.2584   25.8834 C   0  0  0  0  0  0  0  0  0  0  0  0
  -22.5048   -8.6712   20.2070 C   0  0  0  0  0  0  0  0  0  0  0  0
  -23.2054   -8.7543   22.5178 C   0  0  0  0  0  0  0  0  0  0  0  0
  -25.9780  -17.6701   24.5775 C   0  0  0  0  0  0  0  0  0  0  0  0
  -19.5609   -7.7634   21.6007 C   0  0  0  0  0  0  0  0  0  0  0  0
  -18.2702   -7.6475   21.0847 C   0  0  0  0  0  0  0  0  0  0  0  0
  -27.6009  -19.2499   25.4079 C   0  0  0  0  0  0  0  0  0  0  0  0
  -18.9526   -5.7096   19.8134 C   0  0  0  0  0  0  0  0  0  0  0  0
  -23.8987  -10.4859   20.9822 C   0  0  0  0  0  0  0  0  0  0  0  0
  -24.1261  -13.0217   20.8230 C   0  0  0  0  0  0  0  0  0  0  0  0
  -20.8333  -19.0187   30.4220 C   0  0  0  0  0  0  0  0  0  0  0  0
  -26.3872  -17.8481   26.9641 C   0  0  0  0  0  0  0  0  0  0  0  0
  -21.8054  -19.4083   29.4809 C   0  0  0  0  0  0  0  0  0  0  0  0
  -27.3471  -18.8421   26.7264 C   0  0  0  0  0  0  0  0  0  0  0  0
  -22.5072   -8.1217   21.4891 C   0  0  0  0  0  0  0  0  0  0  0  0
  -26.9187  -18.6679   24.3398 C   0  0  0  0  0  0  0  0  0  0  0  0
  -20.5475   -6.8524   21.2230 C   0  0  0  0  0  0  0  0  0  0  0  0
  -17.9660   -6.6206   20.1911 C   0  0  0  0  0  0  0  0  0  0  0  0
  -20.2433   -5.8256   20.3294 C   0  0  0  0  0  0  0  0  0  0  0  0
  -24.6181  -11.7067   20.7209 C   0  0  0  0  0  0  0  0  0  0  0  0
  -25.1912  -13.8149   20.4724 C   0  0  0  0  0  0  0  0  0  0  0  0
  -22.8230  -13.4849   21.2010 C   0  0  0  0  0  0  0  0  0  0  0  0
  -25.4981  -19.5365   29.5062 C   0  0  0  0  0  0  0  0  0  0  0  0
  -28.6281  -19.2476   30.3074 C   0  0  0  0  0  0  0  0  0  0  0  0
  -31.8450  -18.7406   29.2871 C   0  0  0  0  0  0  0  0  0  0  0  0
  -30.9332  -14.0335   20.9665 C   0  0  0  0  0  0  0  0  0  0  0  0
  -20.9915  -19.3108   31.8932 C   0  0  0  0  0  0  0  0  0  0  0  0
  -26.1122  -17.3741   28.3648 C   0  0  0  0  0  0  0  0  0  0  0  0
  -28.1101  -19.4926   27.8503 C   0  0  0  0  0  0  0  0  0  0  0  0
  -22.4261  -19.6402   32.2979 C   0  0  0  0  0  0  0  0  0  0  0  0
  -29.3657  -13.1502   17.9403 C   0  0  0  0  0  0  0  0  0  0  0  0
  -23.0385  -20.6429   31.3251 C   0  0  0  0  0  0  0  0  0  0  0  0
  -27.9399  -12.7880   18.3487 C   0  0  0  0  0  0  0  0  0  0  0  0
  -30.9189  -15.4394   24.4028 C   0  0  0  0  0  0  0  0  0  0  0  0
  -30.3665  -12.6698   18.9831 C   0  0  0  0  0  0  0  0  0  0  0  0
  -28.6773  -12.8754   20.7854 C   0  0  0  0  0  0  0  0  0  0  0  0
  -29.7745  -13.7239   23.2164 C   0  0  0  0  0  0  0  0  0  0  0  0
  -23.1001  -20.0669   29.9052 C   0  0  1  0  0  0  0  0  0  0  0  0
  -26.4824  -18.4040   29.4276 C   0  0  1  0  0  0  0  0  0  0  0  0
  -27.6228  -13.3253   19.7535 C   0  0  2  0  0  0  0  0  0  0  0  0
  -30.4652  -13.9945   24.5416 C   0  0  2  0  0  0  0  0  0  0  0  0
  -31.3872  -15.4952   22.9423 C   0  0  2  0  0  0  0  0  0  0  0  0
  -34.1909  -18.5957   30.1665 C   0  0  0  0  0  0  0  0  0  0  0  0
  -28.7062  -22.2844   30.5928 C   0  0  0  0  0  0  0  0  0  0  0  0
  -31.2057  -22.1567   30.5263 C   0  0  0  0  0  0  0  0  0  0  0  0
  -29.9499  -21.0374   32.3683 C   0  0  0  0  0  0  0  0  0  0  0  0
  -28.9979  -12.4478   25.8429 C   0  0  0  0  0  0  0  0  0  0  0  0
  -32.1482  -15.9504   28.3482 C   0  0  0  0  0  0  0  0  0  0  0  0
  -31.2002  -16.8807   22.3380 C   0  0  0  0  0  0  0  0  0  0  0  0
  -27.9983  -18.4104   20.9079 C   0  0  0  0  0  0  0  0  0  0  0  0
  -29.4563  -18.3642   21.3397 C   0  0  0  0  0  0  0  0  0  0  0  0
  -27.0161  -18.1033   22.0316 C   0  0  0  0  0  0  0  0  0  1  0  0
  -29.8782  -20.0509   30.0416 C   0  0  1  0  0  0  0  0  0  0  0  0
  -32.9335  -17.8193   29.8075 C   0  0  2  0  0  0  0  0  0  0  0  0
  -29.9194  -21.3717   30.8610 C   0  0  0  0  0  0  0  0  0  0  0  0
  -25.8962  -11.6627   20.3355 N   0  0  0  0  0  0  0  0  0  0  0  0
  -26.2163  -12.9601   20.1922 N   0  0  0  0  0  0  0  0  0  0  0  0
  -27.8012  -18.9993   29.2026 N   0  0  0  0  0  0  0  0  0  0  0  0
  -30.0380  -13.1733   20.3178 N   0  0  0  0  0  0  0  0  0  0  0  0
  -30.5964  -14.4640   22.2524 N   0  0  0  0  0  0  0  0  0  0  0  0
  -25.3415  -15.1533   20.3795 N   0  0  0  0  0  0  0  0  0  0  0  0
  -21.8460  -12.5355   21.5306 N   0  0  0  0  0  0  0  0  0  0  0  0
  -24.2041  -19.1390   29.7837 N   0  0  0  0  0  0  0  0  0  0  0  0
  -31.0011  -19.1548   30.2958 N   0  0  0  0  0  0  0  0  0  0  0  0
  -29.5407  -13.8286   25.6753 N   0  3  0  0  0  0  0  0  0  0  0  0
  -33.2873  -16.8020   28.7774 N   0  3  0  0  0  0  0  0  0  0  0  0
  -29.7951  -17.0261   21.9021 N   0  3  0  0  0  0  0  0  0  0  0  0
  -22.5286  -14.7039   21.2294 O   0  0  0  0  0  0  0  0  0  0  0  0
  -25.8843  -20.6860   29.3296 O   0  0  0  0  0  0  0  0  0  0  0  0
  -28.3974  -18.8487   31.4517 O   0  0  0  0  0  0  0  0  0  0  0  0
  -31.7549  -19.0638   28.1047 O   0  0  0  0  0  0  0  0  0  0  0  0
  -31.9969  -14.3773   20.4349 O   0  0  0  0  0  0  0  0  0  0  0  0
  -21.8282   -6.9684   21.7368 O   0  0  0  0  0  0  0  0  0  0  0  0
  -27.1780  -19.0749   23.0572 O   0  0  0  0  0  0  0  0  0  1  0  0
  -16.7262   -6.5085   19.6968 F   0  0  0  0  0  0  0  0  0  0  0  0
  -21.1866   -4.9467   19.9637 F   0  0  0  0  0  0  0  0  0  0  0  0
  1  2  1  0  0  0  0
  1  5  2  0  0  0  0
  2  6  2  0  0  0  0
  3  8  2  0  0  0  0
  3 15  1  0  0  0  0
  4  9  1  0  0  0  0
  4 15  2  0  0  0  0
  5 17  1  0  0  0  0
  6 19  1  0  0  0  0
  7 10  2  0  0  0  0
  7 18  1  0  0  0  0
  8 21  1  0  0  0  0
  9 21  2  0  0  0  0
 10 22  1  0  0  0  0
 11 12  2  0  0  0  0
 11 23  1  0  0  0  0
 12 24  1  0  0  0  0
 13 20  1  0  0  0  0
 13 22  2  0  0  0  0
 14 24  2  0  0  0  0
 14 25  1  0  0  0  0
 15 26  1  0  0  0  0
 16 26  1  0  0  0  0
 16 27  2  0  0  0  0
 16 28  1  0  0  0  0
 17 19  2  0  0  0  0
 17 33  1  0  0  0  0
 18 20  2  0  0  0  0
 18 34  1  0  0  0  0
 19 44  1  0  0  0  0
 20 35  1  0  0  0  0
 21 79  1  0  0  0  0
 22 80  1  0  0  0  0
 23 25  2  0  0  0  0
 23 79  1  0  0  0  0
 24 81  1  0  0  0  0
 25 82  1  0  0  0  0
 26 62  2  0  0  0  0
 27 63  1  0  0  0  0
 27 67  1  0  0  0  0
 28 68  1  0  0  0  0
 28 74  2  0  0  0  0
 29 45  1  0  0  0  0
 29 69  1  0  0  0  0
 29 75  2  0  0  0  0
 30 59  1  0  0  0  0
 30 64  1  0  0  0  0
 30 76  2  0  0  0  0
 31 60  1  0  0  0  0
 31 70  1  0  0  0  0
 31 77  2  0  0  0  0
 32 65  1  0  0  0  0
 32 66  1  0  0  0  0
 32 78  2  0  0  0  0
 33 36  1  0  0  0  0
 34 45  1  0  0  0  0
 35 64  1  0  0  0  0
 36 38  1  0  0  0  0
 37 39  1  0  0  0  0
 37 41  1  0  0  0  0
 38 44  1  0  0  0  0
 39 46  1  0  0  0  0
 40 47  1  0  0  0  0
 40 48  1  0  0  0  0
 41 65  1  0  0  0  0
 42 46  1  0  0  0  0
 42 65  1  0  0  0  0
 43 47  1  0  0  0  0
 43 66  1  0  0  0  0
 44 69  1  0  0  0  0
 45 64  1  0  0  0  0
 46 63  1  0  0  0  0
 47 71  1  0  0  0  0
 48 55  1  0  0  0  0
 48 66  1  0  0  0  0
 49 60  1  0  0  0  0
 50 61  1  0  0  0  0
 51 61  1  0  0  0  0
 52 61  1  0  0  0  0
 53 71  1  0  0  0  0
 54 72  1  0  0  0  0
 55 73  1  0  0  0  0
 56 57  1  0  0  0  0
 56 58  1  0  0  0  0
 57 73  1  0  0  0  0
 58 80  1  0  0  0  0
 59 61  1  0  0  0  0
 59 70  1  0  0  0  0
 60 72  1  0  0  0  0
 62 63  1  0  0  0  0
M  CHG  3  71   1  72   1  73   1
M  ISO  4  32 100  58 101  66 100  80 101
M  END
> <Batch ID>
0189

> <Smiles>
CNC1CC(CNCC[101CH2:1][101O:1]c2ccc3c(c2)CN(C(=O)C(NC(=O)C(C)NC)C(C)(C)C)C(C(=O)NC2CCCc4ccccc42)C3)[100N:0]([100C:0](=O)N2CCCC(n3nc(-c4ccc(Oc5ccc(F)cc5F)cc4)c(C(N)=O)c3N)C2)C1

> <Shape>
0.160

> <Color>
0.183

> <Negative vol penalty>
0.000

$$$$

  -OEChem-04052323223D

 79 87  0     1  0  0  0  0  0999 V2000
  -27.8040  -37.5425   23.5878 C   0  0  0  0  0  0  0  0  0  0  0  0
  -28.5632  -36.3867   23.4353 C   0  0  0  0  0  0  0  0  0  0  0  0
  -24.5359   -9.1605   21.4547 C   0  0  0  0  0  0  0  0  0  0  0  0
  -22.6884  -10.4493   20.5813 C   0  0  0  0  0  0  0  0  0  0  0  0
  -26.5784  -37.4878   24.2502 C   0  0  0  0  0  0  0  0  0  0  0  0
  -28.0976  -35.1757   23.9462 C   0  0  0  0  0  0  0  0  0  0  0  0
  -28.2029  -28.1401   22.6023 C   0  0  0  0  0  0  0  0  0  0  0  0
  -23.7006   -8.0511   21.5847 C   0  0  0  0  0  0  0  0  0  0  0  0
  -21.8531   -9.3398   20.7112 C   0  0  0  0  0  0  0  0  0  0  0  0
  -28.5040  -26.9292   23.2242 C   0  0  0  0  0  0  0  0  0  0  0  0
  -21.3345   -6.9534   23.7344 C   0  0  0  0  0  0  0  0  0  0  0  0
  -21.4064   -6.2245   24.9215 C   0  0  0  0  0  0  0  0  0  0  0  0
  -26.3353  -26.9395   24.2807 C   0  0  0  0  0  0  0  0  0  0  0  0
  -22.0390   -4.2548   23.6736 C   0  0  0  0  0  0  0  0  0  0  0  0
  -24.0299  -10.3597   20.9531 C   0  0  0  0  0  0  0  0  0  0  0  0
  -25.6682  -11.8601   19.6991 C   0  0  0  0  0  0  0  0  0  0  0  0
  -26.0931  -36.2737   24.7610 C   0  0  0  0  0  0  0  0  0  0  0  0
  -26.9679  -28.7664   22.8239 C   0  0  0  0  0  0  0  0  0  0  0  0
  -26.8650  -35.1050   24.6173 C   0  0  0  0  0  0  0  0  0  0  0  0
  -26.0200  -28.1571   23.6584 C   0  0  0  0  0  0  0  0  0  0  0  0
  -22.3592   -8.1407   21.2129 C   0  0  0  0  0  0  0  0  0  0  0  0
  -27.5713  -26.3301   24.0658 C   0  0  0  0  0  0  0  0  0  0  0  0
  -21.6148   -6.3330   22.5169 C   0  0  0  0  0  0  0  0  0  0  0  0
  -21.7587   -4.8752   24.8911 C   0  0  0  0  0  0  0  0  0  0  0  0
  -21.9671   -4.9837   22.4866 C   0  0  0  0  0  0  0  0  0  0  0  0
  -24.8921  -11.5063   20.8191 C   0  0  0  0  0  0  0  0  0  0  0  0
  -26.3004  -13.0209   20.0724 C   0  0  0  0  0  0  0  0  0  0  0  0
  -25.8053  -11.1986   18.4345 C   0  0  0  0  0  0  0  0  0  0  0  0
  -26.0526  -31.5414   24.0749 C   0  0  0  0  0  0  0  0  0  0  0  0
  -23.1207  -30.5817   23.0721 C   0  0  0  0  0  0  0  0  0  0  0  0
  -21.0482  -28.0062   22.2247 C   0  0  0  0  0  0  0  0  0  0  0  0
  -26.2771  -17.8830   22.5842 C   0  0  0  0  0  0  0  0  0  0  0  0
  -24.7846  -36.2730   25.5110 C   0  0  0  0  0  0  0  0  0  0  0  0
  -26.6481  -30.0590   22.1245 C   0  0  0  0  0  0  0  0  0  0  0  0
  -24.6719  -28.7784   23.9133 C   0  0  0  0  0  0  0  0  0  0  0  0
  -24.1884  -34.8797   25.6944 C   0  0  0  0  0  0  0  0  0  0  0  0
  -25.2272  -14.7982   24.5229 C   0  0  0  0  0  0  0  0  0  0  0  0
  -25.2569  -33.9001   26.1691 C   0  0  0  0  0  0  0  0  0  0  0  0
  -26.3234  -14.0937   23.7247 C   0  0  0  0  0  0  0  0  0  0  0  0
  -25.2802  -16.3169   24.3285 C   0  0  0  0  0  0  0  0  0  0  0  0
  -25.3861  -15.6726   21.9428 C   0  0  0  0  0  0  0  0  0  0  0  0
  -24.9943  -19.4148   24.2134 C   0  0  0  0  0  0  0  0  0  0  0  0
  -27.0821  -20.1252   23.2573 C   0  0  0  0  0  0  0  0  0  0  0  0
  -26.3823  -33.7677   25.1359 C   0  0  1  0  0  0  0  0  0  0  0  0
  -25.5598  -30.8651   22.8269 C   0  0  1  0  0  0  0  0  0  0  0  0
  -26.2831  -14.4540   22.2217 C   0  0  2  0  0  0  0  0  0  0  0  0
  -25.1340  -20.9281   24.3226 C   0  0  2  0  0  0  0  0  0  0  0  0
  -26.6466  -21.1310   24.3212 C   0  0  2  0  0  0  0  0  0  0  0  0
  -18.6982  -27.5308   21.4837 C   0  0  0  0  0  0  0  0  0  0  0  0
  -22.1298  -31.0558   25.9187 C   0  0  0  0  0  0  0  0  0  0  0  0
  -20.1013  -29.6970   25.3645 C   0  0  0  0  0  0  0  0  0  0  0  0
  -20.5583  -31.8143   24.1271 C   0  0  0  0  0  0  0  0  0  0  0  0
  -21.9698  -26.8007   19.6838 C   0  0  0  0  0  0  0  0  0  0  0  0
  -28.4511  -22.8308   24.3876 C   0  0  0  0  0  0  0  0  0  0  0  0
  -28.7453  -24.2634   23.9884 C   0  0  0  0  0  0  0  0  0  1  0  0
  -21.9928  -29.7815   23.6774 C   0  0  1  0  0  0  0  0  0  0  0  0
  -20.1255  -27.8050   21.0361 C   0  0  2  0  0  0  0  0  0  0  0  0
  -21.2216  -30.5761   24.7689 C   0  0  0  0  0  0  0  0  0  0  0  0
  -25.0184  -12.3721   21.8283 N   0  0  0  0  0  0  0  0  0  0  0  0
  -25.8812  -13.2815   21.3438 N   0  0  0  0  0  0  0  0  0  0  0  0
  -24.4088  -30.0456   23.2114 N   0  0  0  0  0  0  0  0  0  0  0  0
  -25.6003  -16.7119   22.9512 N   0  0  0  0  0  0  0  0  0  0  0  0
  -26.1361  -19.0145   23.3833 N   0  0  0  0  0  0  0  0  0  0  0  0
  -27.1685  -13.8339   19.4338 N   0  0  0  0  0  0  0  0  0  0  0  0
  -25.0844  -10.0165   18.2171 N   0  0  0  0  0  0  0  0  0  0  0  0
  -24.5189  -21.4318   25.5641 N   0  0  0  0  0  0  0  0  0  0  0  0
  -25.9648  -32.9200   24.0397 N   0  0  0  0  0  0  0  0  0  0  0  0
  -21.1628  -29.3381   22.5626 N   0  0  0  0  0  0  0  0  0  0  0  0
  -27.0460  -22.4944   24.0151 N   0  3  0  0  0  0  0  0  0  0  0  0
  -20.5884  -26.6541   20.2101 N   0  3  0  0  0  0  0  0  0  0  0  0
  -26.5578  -11.6339   17.5302 O   0  0  0  0  0  0  0  0  0  0  0  0
  -26.4793  -30.8627   25.0016 O   0  0  0  0  0  0  0  0  0  0  0  0
  -22.8675  -31.6397   22.4906 O   0  0  0  0  0  0  0  0  0  0  0  0
  -21.6081  -27.0746   22.7985 O   0  0  0  0  0  0  0  0  0  0  0  0
  -26.9819  -17.9223   21.5653 O   0  0  0  0  0  0  0  0  0  0  0  0
  -21.5438   -7.0582   21.3394 O   0  0  0  0  0  0  0  0  0  0  0  0
  -27.8649  -25.1400   24.6790 O   0  0  0  0  0  0  0  0  0  1  0  0
  -21.8291   -4.1758   26.0313 F   0  0  0  0  0  0  0  0  0  0  0  0
  -22.2387   -4.3825   21.3201 F   0  0  0  0  0  0  0  0  0  0  0  0
  1  2  1  0  0  0  0
  1  5  2  0  0  0  0
  2  6  2  0  0  0  0
  3  8  2  0  0  0  0
  3 15  1  0  0  0  0
  4  9  1  0  0  0  0
  4 15  2  0  0  0  0
  5 17  1  0  0  0  0
  6 19  1  0  0  0  0
  7 10  2  0  0  0  0
  7 18  1  0  0  0  0
  8 21  1  0  0  0  0
  9 21  2  0  0  0  0
 10 22  1  0  0  0  0
 11 12  2  0  0  0  0
 11 23  1  0  0  0  0
 12 24  1  0  0  0  0
 13 20  1  0  0  0  0
 13 22  2  0  0  0  0
 14 24  2  0  0  0  0
 14 25  1  0  0  0  0
 15 26  1  0  0  0  0
 16 26  1  0  0  0  0
 16 27  2  0  0  0  0
 16 28  1  0  0  0  0
 17 19  2  0  0  0  0
 17 33  1  0  0  0  0
 18 20  2  0  0  0  0
 18 34  1  0  0  0  0
 19 44  1  0  0  0  0
 20 35  1  0  0  0  0
 21 76  1  0  0  0  0
 22 77  1  0  0  0  0
 23 25  2  0  0  0  0
 23 76  1  0  0  0  0
 24 78  1  0  0  0  0
 25 79  1  0  0  0  0
 26 59  2  0  0  0  0
 27 60  1  0  0  0  0
 27 64  1  0  0  0  0
 28 65  1  0  0  0  0
 28 71  2  0  0  0  0
 29 45  1  0  0  0  0
 29 67  1  0  0  0  0
 29 72  2  0  0  0  0
 30 56  1  0  0  0  0
 30 61  1  0  0  0  0
 30 73  2  0  0  0  0
 31 57  1  0  0  0  0
 31 68  1  0  0  0  0
 31 74  2  0  0  0  0
 32 62  1  0  0  0  0
 32 63  1  0  0  0  0
 32 75  2  0  0  0  0
 33 36  1  0  0  0  0
 34 45  1  0  0  0  0
 35 61  1  0  0  0  0
 36 38  1  0  0  0  0
 37 39  1  0  0  0  0
 37 40  1  0  0  0  0
 38 44  1  0  0  0  0
 39 46  1  0  0  0  0
 40 62  1  0  0  0  0
 41 46  1  0  0  0  0
 41 62  1  0  0  0  0
 42 47  1  0  0  0  0
 42 63  1  0  0  0  0
 43 48  1  0  0  0  0
 43 63  1  0  0  0  0
 44 67  1  0  0  0  0
 45 61  1  0  0  0  0
 46 60  1  0  0  0  0
 47 48  1  0  0  0  0
 47 66  1  0  0  0  0
 48 69  1  0  0  0  0
 49 57  1  0  0  0  0
 50 58  1  0  0  0  0
 51 58  1  0  0  0  0
 52 58  1  0  0  0  0
 53 70  1  0  0  0  0
 54 55  1  0  0  0  0
 54 69  1  0  0  0  0
 55 77  1  0  0  0  0
 56 58  1  0  0  0  0
 56 68  1  0  0  0  0
 57 70  1  0  0  0  0
 59 60  1  0  0  0  0
M  CHG  2  69   1  70   1
M  ISO  4  32 100  55 101  63 100  77 101
M  END
> <Batch ID>
0189

> <Smiles>
CNC(C)C(=O)NC(C(=O)N1Cc2cc([101O:1][101CH2:1]CNC3C[100N:0]([100C:0](=O)N4CCCC(n5nc(-c6ccc(Oc7ccc(F)cc7F)cc6)c(C(N)=O)c5N)C4)CC3N)ccc2CC1C(=O)NC1CCCc2ccccc21)C(C)(C)C

> <Shape>
0.257

> <Color>
0.097

> <Negative vol penalty>
0.000

$$$$

  -OEChem-04052323223D

 84 94  0     1  0  0  0  0  0999 V2000
  -33.5976  -29.6246   14.4248 C   0  0  0  0  0  0  0  0  0  0  0  0
  -33.2120  -28.2881   14.4470 C   0  0  0  0  0  0  0  0  0  0  0  0
  -23.5932   -9.6158   20.4648 C   0  0  0  0  0  0  0  0  0  0  0  0
  -24.1983  -10.1469   22.7427 C   0  0  0  0  0  0  0  0  0  0  0  0
  -33.6788  -30.3454   15.6156 C   0  0  0  0  0  0  0  0  0  0  0  0
  -32.9086  -27.6712   15.6601 C   0  0  0  0  0  0  0  0  0  0  0  0
  -28.6246  -22.6560   18.4552 C   0  0  0  0  0  0  0  0  0  0  0  0
  -23.0417   -8.4082   20.8928 C   0  0  0  0  0  0  0  0  0  0  0  0
  -23.6468   -8.9393   23.1708 C   0  0  0  0  0  0  0  0  0  0  0  0
  -28.6829  -21.5049   19.2396 C   0  0  0  0  0  0  0  0  0  0  0  0
  -20.5698   -7.6944   23.8057 C   0  0  0  0  0  0  0  0  0  0  0  0
  -19.7600   -7.7198   24.9411 C   0  0  0  0  0  0  0  0  0  0  0  0
  -28.7816  -22.8707   21.2256 C   0  0  0  0  0  0  0  0  0  0  0  0
  -21.2643   -6.1875   26.0483 C   0  0  0  0  0  0  0  0  0  0  0  0
  -28.4731  -17.4628   24.5142 C   0  0  0  0  0  0  0  0  0  0  0  0
  -24.1716  -10.4851   21.3898 C   0  0  0  0  0  0  0  0  0  0  0  0
  -24.0869  -12.9732   20.8331 C   0  0  0  0  0  0  0  0  0  0  0  0
  -33.3668  -29.7397   16.8429 C   0  0  0  0  0  0  0  0  0  0  0  0
  -28.6554  -23.9253   19.0504 C   0  0  0  0  0  0  0  0  0  0  0  0
  -32.9870  -28.3841   16.8686 C   0  0  0  0  0  0  0  0  0  0  0  0
  -28.7209  -24.0363   20.4467 C   0  0  0  0  0  0  0  0  0  0  0  0
  -23.0685   -8.0700   22.2458 C   0  0  0  0  0  0  0  0  0  0  0  0
  -28.7644  -21.6122   20.6249 C   0  0  0  0  0  0  0  0  0  0  0  0
  -21.7269   -6.9154   23.7915 C   0  0  0  0  0  0  0  0  0  0  0  0
  -20.1073   -6.9664   26.0624 C   0  0  0  0  0  0  0  0  0  0  0  0
  -22.0741   -6.1620   24.9129 C   0  0  0  0  0  0  0  0  0  0  0  0
  -24.7419  -11.7324   20.9482 C   0  0  0  0  0  0  0  0  0  0  0  0
  -27.9548  -18.6677   24.1068 C   0  0  0  0  0  0  0  0  0  0  0  0
  -29.8021  -17.4764   24.0499 C   0  0  0  0  0  0  0  0  0  0  0  0
  -25.0564  -13.8322   20.3762 C   0  0  0  0  0  0  0  0  0  0  0  0
  -22.7240  -13.3185   21.1142 C   0  0  0  0  0  0  0  0  0  0  0  0
  -30.6235  -26.4178   18.9181 C   0  0  0  0  0  0  0  0  0  0  0  0
  -28.3285  -27.8307   20.7234 C   0  0  0  0  0  0  0  0  0  0  0  0
  -25.7235  -27.4716   22.8986 C   0  0  0  0  0  0  0  0  0  0  0  0
  -31.0318  -13.8100   20.7564 C   0  0  0  0  0  0  0  0  0  0  0  0
  -33.5149  -30.5461   18.1088 C   0  0  0  0  0  0  0  0  0  0  0  0
  -28.5647  -25.1570   18.1918 C   0  0  0  0  0  0  0  0  0  0  0  0
  -28.7365  -25.3754   21.1359 C   0  0  0  0  0  0  0  0  0  0  0  0
  -32.8146  -29.9228   19.3135 C   0  0  0  0  0  0  0  0  0  0  0  0
  -29.0762  -13.9030   17.7826 C   0  0  0  0  0  0  0  0  0  0  0  0
  -33.1306  -28.4331   19.4029 C   0  0  0  0  0  0  0  0  0  0  0  0
  -25.3636  -18.3379   23.8858 C   0  0  0  0  0  0  0  0  0  0  0  0
  -25.6970  -19.6011   23.1554 C   0  0  0  0  0  0  0  0  0  0  0  0
  -27.6845  -13.4692   18.2463 C   0  0  0  0  0  0  0  0  0  0  0  0
  -30.1784  -13.1516   18.5260 C   0  0  0  0  0  0  0  0  0  0  0  0
  -28.6967  -12.7823   20.4604 C   0  0  0  0  0  0  0  0  0  0  0  0
  -32.1256  -16.5932   24.4151 C   0  0  0  0  0  0  0  0  0  0  0  0
  -32.6259  -27.6867   18.1621 C   0  0  1  0  0  0  0  0  0  0  0  0
  -26.5379  -19.1806   24.3458 C   0  0  0  0  0  0  0  0  0  0  0  0
  -29.1217  -26.4029   18.8736 C   0  0  1  0  0  0  0  0  0  0  0  0
  -27.5528  -13.5526   19.7789 C   0  0  2  0  0  0  0  0  0  0  0  0
  -31.5678  -15.8995   23.2217 C   0  0  1  0  0  0  0  0  0  0  0  0
  -24.0699  -28.8099   24.2298 C   0  0  0  0  0  0  0  0  0  0  0  0
  -30.5159  -28.5307   22.7323 C   0  0  0  0  0  0  0  0  0  0  0  0
  -28.7233  -28.9896   24.4188 C   0  0  0  0  0  0  0  0  0  0  0  0
  -28.8470  -30.3496   22.3312 C   0  0  0  0  0  0  0  0  0  0  0  0
  -23.4256  -26.2553   21.4848 C   0  0  0  0  0  0  0  0  0  0  0  0
  -31.7403  -14.4314   23.0522 C   0  0  0  0  0  0  0  0  0  0  0  0
  -28.9046  -20.6669   22.8100 C   0  0  0  0  0  0  0  0  0  1  0  0
  -28.0560  -27.9516   22.2033 C   0  0  1  0  0  0  0  0  0  0  0  0
  -24.3358  -28.0867   22.9187 C   0  0  2  0  0  0  0  0  0  0  0  0
  -29.0372  -28.9300   22.9086 C   0  0  0  0  0  0  0  0  0  0  0  0
  -26.0280  -11.7934   20.5929 N   0  0  0  0  0  0  0  0  0  0  0  0
  -30.1089  -18.6007   23.3974 N   0  0  0  0  0  0  0  0  0  0  0  0
  -28.9653  -19.3048   23.4486 N   0  0  0  0  0  0  0  0  0  0  0  0
  -26.1889  -13.0828   20.2500 N   0  0  0  0  0  0  0  0  0  0  0  0
  -30.6752  -16.3840   24.2808 N   0  0  2  0  0  0  0  0  0  0  0  0
  -28.6522  -26.5503   20.2527 N   0  0  0  0  0  0  0  0  0  0  0  0
  -29.9964  -13.2717   19.9746 N   0  0  0  0  0  0  0  0  0  0  0  0
  -25.0420  -15.1478   20.0741 N   0  0  0  0  0  0  0  0  0  0  0  0
  -21.8621  -12.3146   21.5764 N   0  0  0  0  0  0  0  0  0  0  0  0
  -31.1959  -27.4796   18.2439 N   0  0  0  0  0  0  0  0  0  0  0  0
  -26.6502  -28.3201   22.3307 N   0  0  0  0  0  0  0  0  0  0  0  0
  -30.7750  -13.8942   22.1193 N   0  0  0  0  0  0  0  0  0  0  0  0
  -23.2986  -27.0307   22.7456 N   0  3  0  0  0  0  0  0  0  0  0  0
  -22.2794  -14.4791   20.9444 O   0  0  0  0  0  0  0  0  0  0  0  0
  -31.2189  -25.5325   19.5209 O   0  0  0  0  0  0  0  0  0  0  0  0
  -28.2500  -28.8340   20.0101 O   0  0  0  0  0  0  0  0  0  0  0  0
  -25.9624  -26.3520   23.3458 O   0  0  0  0  0  0  0  0  0  0  0  0
  -32.1036  -14.1925   20.2747 O   0  0  0  0  0  0  0  0  0  0  0  0
  -22.5302   -6.8918   22.6638 O   0  0  0  0  0  0  0  0  0  0  0  0
  -28.8221  -20.4902   21.3929 O   0  0  0  0  0  0  0  0  0  1  0  0
  -19.3304   -6.9922   27.1532 F   0  0  0  0  0  0  0  0  0  0  0  0
  -23.1851   -5.4126   24.9057 F   0  0  0  0  0  0  0  0  0  0  0  0
  1  2  1  0  0  0  0
  1  5  2  0  0  0  0
  2  6  2  0  0  0  0
  3  8  2  0  0  0  0
  3 16  1  0  0  0  0
  4  9  1  0  0  0  0
  4 16  2  0  0  0  0
  5 18  1  0  0  0  0
  6 20  1  0  0  0  0
  7 10  2  0  0  0  0
  7 19  1  0  0  0  0
  8 22  1  0  0  0  0
  9 22  2  0  0  0  0
 10 23  1  0  0  0  0
 11 12  2  0  0  0  0
 11 24  1  0  0  0  0
 12 25  1  0  0  0  0
 13 21  1  0  0  0  0
 13 23  2  0  0  0  0
 14 25  2  0  0  0  0
 14 26  1  0  0  0  0
 15 28  2  0  0  0  0
 15 29  1  0  0  0  0
 16 27  1  0  0  0  0
 17 27  1  0  0  0  0
 17 30  2  0  0  0  0
 17 31  1  0  0  0  0
 18 20  2  0  0  0  0
 18 36  1  0  0  0  0
 19 21  2  0  0  0  0
 19 37  1  0  0  0  0
 20 48  1  0  0  0  0
 21 38  1  0  0  0  0
 22 81  1  0  0  0  0
 23 82  1  0  0  0  0
 24 26  2  0  0  0  0
 24 81  1  0  0  0  0
 25 83  1  0  0  0  0
 26 84  1  0  0  0  0
 27 63  2  0  0  0  0
 28 49  1  0  0  0  0
 28 65  1  0  0  0  0
 29 64  2  0  0  0  0
 29 67  1  0  0  0  0
 30 66  1  0  0  0  0
 30 70  1  0  0  0  0
 31 71  1  0  0  0  0
 31 76  2  0  0  0  0
 32 50  1  0  0  0  0
 32 72  1  0  0  0  0
 32 77  2  0  0  0  0
 33 60  1  0  0  0  0
 33 68  1  0  0  0  0
 33 78  2  0  0  0  0
 34 61  1  0  0  0  0
 34 73  1  0  0  0  0
 34 79  2  0  0  0  0
 35 69  1  0  0  0  0
 35 74  1  0  0  0  0
 35 80  2  0  0  0  0
 36 39  1  0  0  0  0
 37 50  1  0  0  0  0
 38 68  1  0  0  0  0
 39 41  1  0  0  0  0
 40 44  1  0  0  0  0
 40 45  1  0  0  0  0
 41 48  1  0  0  0  0
 42 43  1  0  0  0  0
 42 49  1  0  0  0  0
 43 49  1  0  0  0  0
 44 51  1  0  0  0  0
 45 69  1  0  0  0  0
 46 51  1  0  0  0  0
 46 69  1  0  0  0  0
 47 52  1  0  0  0  0
 47 67  1  0  0  0  0
 48 72  1  0  0  0  0
 50 68  1  0  0  0  0
 51 66  1  0  0  0  0
 52 58  1  0  0  0  0
 52 67  1  0  0  0  0
 53 61  1  0  0  0  0
 54 62  1  0  0  0  0
 55 62  1  0  0  0  0
 56 62  1  0  0  0  0
 57 75  1  0  0  0  0
 58 74  1  0  0  0  0
 59 65  1  0  0  0  0
 59 82  1  0  0  0  0
 60 62  1  0  0  0  0
 60 73  1  0  0  0  0
 61 75  1  0  0  0  0
 63 66  1  0  0  0  0
 64 65  1  0  0  0  0
M  CHG  1  75   1
M  ISO  4  35 100  59 101  74 100  82 101
M  END
> <Batch ID>
0189

> <Smiles>
CNC(C)C(=O)NC(C(=O)N1Cc2cc([101O:1][101CH2:1]n3nc(N4CC4C[100NH:0][100C:0](=O)N4CCCC(n5nc(-c6ccc(Oc7ccc(F)cc7F)cc6)c(C(N)=O)c5N)C4)cc3C3CC3)ccc2CC1C(=O)NC1CCCc2ccccc21)C(C)(C)C

> <Shape>
0.253

> <Color>
0.166

> <Negative vol penalty>
0.000

$$$$

  -OEChem-04052323223D

 83 92  0     1  0  0  0  0  0999 V2000
  -26.8841  -24.2721   17.2455 C   0  0  0  0  0  0  0  0  0  0  0  0
  -25.7436  -24.7112   17.9103 C   0  0  0  0  0  0  0  0  0  0  0  0
  -26.9660  -14.3248   22.3987 C   0  0  0  0  0  0  0  0  0  0  0  0
  -26.0603  -14.1541   20.1654 C   0  0  0  0  0  0  0  0  0  0  0  0
  -28.1464  -24.5806   17.7508 C   0  0  0  0  0  0  0  0  0  0  0  0
  -25.8649  -25.4582   19.0815 C   0  0  0  0  0  0  0  0  0  0  0  0
  -22.7576  -29.4560   19.1662 C   0  0  0  0  0  0  0  0  0  0  0  0
  -26.7252  -12.9658   22.6003 C   0  0  0  0  0  0  0  0  0  0  0  0
  -25.8196  -12.7950   20.3669 C   0  0  0  0  0  0  0  0  0  0  0  0
  -21.4178  -29.2148   19.4673 C   0  0  0  0  0  0  0  0  0  0  0  0
  -23.5156  -10.8782   21.9315 C   0  0  0  0  0  0  0  0  0  0  0  0
  -22.2801  -10.3720   21.5276 C   0  0  0  0  0  0  0  0  0  0  0  0
  -21.8046  -29.9340   21.7371 C   0  0  0  0  0  0  0  0  0  0  0  0
  -23.3965   -8.8525   20.0171 C   0  0  0  0  0  0  0  0  0  0  0  0
  -26.6335  -14.9190   21.1813 C   0  0  0  0  0  0  0  0  0  0  0  0
  -28.0499  -16.9120   20.4537 C   0  0  0  0  0  0  0  0  0  0  0  0
  -28.2832  -25.3399   18.9235 C   0  0  0  0  0  0  0  0  0  0  0  0
  -23.6349  -29.9285   20.1529 C   0  0  0  0  0  0  0  0  0  0  0  0
  -27.1302  -25.7760   19.6037 C   0  0  0  0  0  0  0  0  0  0  0  0
  -23.1545  -30.1829   21.4454 C   0  0  0  0  0  0  0  0  0  0  0  0
  -26.1521  -12.2009   21.5844 C   0  0  0  0  0  0  0  0  0  0  0  0
  -20.9418  -29.4511   20.7536 C   0  0  0  0  0  0  0  0  0  0  0  0
  -24.6915  -10.3716   21.3780 C   0  0  0  0  0  0  0  0  0  0  0  0
  -22.2206   -9.3591   20.5705 C   0  0  0  0  0  0  0  0  0  0  0  0
  -24.6319   -9.3587   20.4209 C   0  0  0  0  0  0  0  0  0  0  0  0
  -26.8814  -16.3230   20.9727 C   0  0  0  0  0  0  0  0  0  0  0  0
  -27.7856  -18.2598   20.4569 C   0  0  0  0  0  0  0  0  0  0  0  0
  -17.9917  -26.6109   22.7451 C   0  0  0  0  0  0  0  0  0  0  0  0
  -19.6741  -25.7437   21.5392 C   0  0  0  0  0  0  0  0  0  0  0  0
  -19.2927  -27.9550   21.5051 C   0  0  0  0  0  0  0  0  0  1  0  0
  -29.2655  -16.2959   20.0083 C   0  0  0  0  0  0  0  0  0  0  0  0
  -26.2769  -28.8146   21.5250 C   0  0  0  0  0  0  0  0  0  0  0  0
  -26.3200  -31.7430   22.9197 C   0  0  0  0  0  0  0  0  0  0  0  0
  -24.5781  -34.5035   23.9158 C   0  0  0  0  0  0  0  0  0  0  0  0
  -22.9437  -21.3992   20.0996 C   0  0  0  0  0  0  0  0  0  0  0  0
  -29.6681  -25.6081   19.4572 C   0  0  0  0  0  0  0  0  0  0  0  0
  -25.0711  -30.2090   19.8052 C   0  0  0  0  0  0  0  0  0  0  0  0
  -24.0508  -30.7094   22.5352 C   0  0  0  0  0  0  0  0  0  0  0  0
  -29.7140  -26.7228   20.4992 C   0  0  0  0  0  0  0  0  0  0  0  0
  -25.2309  -21.5773   22.7597 C   0  0  0  0  0  0  0  0  0  0  0  0
  -28.6017  -26.5392   21.5267 C   0  0  0  0  0  0  0  0  0  0  0  0
  -26.0367  -20.2951   22.5538 C   0  0  0  0  0  0  0  0  0  0  0  0
  -23.7380  -21.3630   22.5054 C   0  0  0  0  0  0  0  0  0  0  0  0
  -21.5407  -24.8307   20.1938 C   0  0  0  0  0  0  0  0  0  0  0  0
  -20.5064  -23.4851   22.0284 C   0  0  0  0  0  0  0  0  0  0  0  0
  -21.8872  -23.5355   19.4641 C   0  0  0  0  0  0  0  0  0  0  0  0
  -20.8595  -22.2159   21.2611 C   0  0  0  0  0  0  0  0  0  0  0  0
  -24.2393  -19.4806   20.9812 C   0  0  0  0  0  0  0  0  0  0  0  0
  -27.2209  -26.6096   20.8634 C   0  0  1  0  0  0  0  0  0  0  0  0
  -25.9927  -30.2013   21.0209 C   0  0  1  0  0  0  0  0  0  0  0  0
  -25.7510  -19.6789   21.1728 C   0  0  2  0  0  0  0  0  0  0  0  0
  -16.8475  -26.4280   23.6831 C   0  0  0  0  0  0  0  0  0  0  0  0
  -24.8797  -36.7157   25.0616 C   0  0  0  0  0  0  0  0  0  0  0  0
  -26.5110  -30.3199   25.6120 C   0  0  0  0  0  0  0  0  0  0  0  0
  -25.8570  -32.4696   26.7161 C   0  0  0  0  0  0  0  0  0  0  0  0
  -27.9686  -32.3403   25.3943 C   0  0  0  0  0  0  0  0  0  0  0  0
  -23.6567  -35.9951   21.5315 C   0  0  0  0  0  0  0  0  0  0  0  0
  -25.7477  -32.3325   24.1862 C   0  0  1  0  0  0  0  0  0  0  0  0
  -24.8462  -35.9858   23.7278 C   0  0  2  0  0  0  0  0  0  0  0  0
  -26.5044  -31.8538   25.4573 C   0  0  0  0  0  0  0  0  0  0  0  0
  -25.9445  -17.2229   21.2833 N   0  0  0  0  0  0  0  0  0  0  0  0
  -18.6585  -25.5027   22.3840 N   0  0  0  0  0  0  0  0  0  0  0  0
  -18.2507  -27.8670   22.3473 N   0  0  0  0  0  0  0  0  0  0  0  0
  -20.0493  -26.9398   21.0580 N   0  0  0  0  0  0  0  0  0  0  0  0
  -26.5241  -18.3911   20.9585 N   0  0  0  0  0  0  0  0  0  0  0  0
  -20.4178  -24.6343   21.1170 N   0  0  0  0  0  0  0  0  0  0  0  0
  -25.4485  -30.9620   22.1476 N   0  0  0  0  0  0  0  0  0  0  0  0
  -23.5177  -20.7368   21.1949 N   0  0  0  0  0  0  0  0  0  0  0  0
  -22.0171  -22.4139   20.3864 N   0  0  0  0  0  0  0  0  0  0  0  0
  -28.5116  -19.3336   20.0797 N   0  0  0  0  0  0  0  0  0  0  0  0
  -29.3698  -14.8997   20.0735 N   0  0  0  0  0  0  0  0  0  0  0  0
  -26.8620  -27.9843   20.5881 N   0  0  0  0  0  0  0  0  0  0  0  0
  -25.7485  -33.7794   23.9997 N   0  0  0  0  0  0  0  0  0  0  0  0
  -23.7846  -36.6010   22.8819 N   0  3  0  0  0  0  0  0  0  0  0  0
  -30.2368  -16.9648   19.5810 O   0  0  0  0  0  0  0  0  0  0  0  0
  -25.9883  -28.5203   22.6790 O   0  0  0  0  0  0  0  0  0  0  0  0
  -27.4949  -31.9731   22.6227 O   0  0  0  0  0  0  0  0  0  0  0  0
  -23.4439  -34.0353   23.9854 O   0  0  0  0  0  0  0  0  0  0  0  0
  -23.2419  -21.1059   18.9351 O   0  0  0  0  0  0  0  0  0  0  0  0
  -25.9173  -10.8746   21.7806 O   0  0  0  0  0  0  0  0  0  0  0  0
  -19.6180  -29.2129   21.0541 O   0  0  0  0  0  0  0  0  0  1  0  0
  -21.0342   -8.8721   20.1839 F   0  0  0  0  0  0  0  0  0  0  0  0
  -25.7583   -8.8672   19.8865 F   0  0  0  0  0  0  0  0  0  0  0  0
  1  2  1  0  0  0  0
  1  5  2  0  0  0  0
  2  6  2  0  0  0  0
  3  8  2  0  0  0  0
  3 15  1  0  0  0  0
  4  9  1  0  0  0  0
  4 15  2  0  0  0  0
  5 17  1  0  0  0  0
  6 19  1  0  0  0  0
  7 10  2  0  0  0  0
  7 18  1  0  0  0  0
  8 21  1  0  0  0  0
  9 21  2  0  0  0  0
 10 22  1  0  0  0  0
 11 12  2  0  0  0  0
 11 23  1  0  0  0  0
 12 24  1  0  0  0  0
 13 20  1  0  0  0  0
 13 22  2  0  0  0  0
 14 24  2  0  0  0  0
 14 25  1  0  0  0  0
 15 26  1  0  0  0  0
 16 26  1  0  0  0  0
 16 27  2  0  0  0  0
 16 31  1  0  0  0  0
 17 19  2  0  0  0  0
 17 36  1  0  0  0  0
 18 20  2  0  0  0  0
 18 37  1  0  0  0  0
 19 49  1  0  0  0  0
 20 38  1  0  0  0  0
 21 80  1  0  0  0  0
 22 81  1  0  0  0  0
 23 25  2  0  0  0  0
 23 80  1  0  0  0  0
 24 82  1  0  0  0  0
 25 83  1  0  0  0  0
 26 61  2  0  0  0  0
 27 65  1  0  0  0  0
 27 70  1  0  0  0  0
 28 52  1  0  0  0  0
 28 62  1  0  0  0  0
 28 63  2  0  0  0  0
 29 62  2  0  0  0  0
 29 64  1  0  0  0  0
 29 66  1  0  0  0  0
 30 63  1  0  0  0  0
 30 64  2  0  0  0  0
 30 81  1  0  0  0  0
 31 71  1  0  0  0  0
 31 75  2  0  0  0  0
 32 50  1  0  0  0  0
 32 72  1  0  0  0  0
 32 76  2  0  0  0  0
 33 58  1  0  0  0  0
 33 67  1  0  0  0  0
 33 77  2  0  0  0  0
 34 59  1  0  0  0  0
 34 73  1  0  0  0  0
 34 78  2  0  0  0  0
 35 68  1  0  0  0  0
 35 69  1  0  0  0  0
 35 79  2  0  0  0  0
 36 39  1  0  0  0  0
 37 50  1  0  0  0  0
 38 67  1  0  0  0  0
 39 41  1  0  0  0  0
 40 42  1  0  0  0  0
 40 43  1  0  0  0  0
 41 49  1  0  0  0  0
 42 51  1  0  0  0  0
 43 68  1  0  0  0  0
 44 46  1  0  0  0  0
 44 66  1  0  0  0  0
 45 47  1  0  0  0  0
 45 66  1  0  0  0  0
 46 69  1  0  0  0  0
 47 69  1  0  0  0  0
 48 51  1  0  0  0  0
 48 68  1  0  0  0  0
 49 72  1  0  0  0  0
 50 67  1  0  0  0  0
 51 65  1  0  0  0  0
 53 59  1  0  0  0  0
 54 60  1  0  0  0  0
 55 60  1  0  0  0  0
 56 60  1  0  0  0  0
 57 74  1  0  0  0  0
 58 60  1  0  0  0  0
 58 73  1  0  0  0  0
 59 74  1  0  0  0  0
 61 65  1  0  0  0  0
M  CHG  1  74   1
M  ISO  4  30 101  35 100  69 100  81 101
M  END
> <Batch ID>
0189

> <Smiles>
CNC(C)C(=O)NC(C(=O)N1Cc2cc([101O:1][101c:1]3nc(C)nc(N4CC[100N:0]([100C:0](=O)N5CCCC(n6nc(-c7ccc(Oc8ccc(F)cc8F)cc7)c(C(N)=O)c6N)C5)CC4)n3)ccc2CC1C(=O)NC1CCCc2ccccc21)C(C)(C)C

> <Shape>
0.311

> <Color>
0.082

> <Negative vol penalty>
0.000

$$$$

  -OEChem-04052323223D

 78 86  0     1  0  0  0  0  0999 V2000
  -27.8982  -37.7337   24.1018 C   0  0  0  0  0  0  0  0  0  0  0  0
  -28.4405  -36.6390   23.4363 C   0  0  0  0  0  0  0  0  0  0  0  0
  -24.8696  -14.4150   21.9673 C   0  0  0  0  0  0  0  0  0  0  0  0
  -26.4005  -12.7738   21.0730 C   0  0  0  0  0  0  0  0  0  0  0  0
  -26.8662  -37.5482   25.0207 C   0  0  0  0  0  0  0  0  0  0  0  0
  -27.9518  -35.3579   23.6902 C   0  0  0  0  0  0  0  0  0  0  0  0
  -27.4259  -30.7570   19.6826 C   0  0  0  0  0  0  0  0  0  0  0  0
  -23.7906  -13.6305   21.5601 C   0  0  0  0  0  0  0  0  0  0  0  0
  -25.3214  -11.9892   20.6658 C   0  0  0  0  0  0  0  0  0  0  0  0
  -28.2296  -29.6496   19.4151 C   0  0  0  0  0  0  0  0  0  0  0  0
  -23.1357   -9.8353   22.0813 C   0  0  0  0  0  0  0  0  0  0  0  0
  -23.1975   -8.4662   22.3407 C   0  0  0  0  0  0  0  0  0  0  0  0
  -26.8477  -28.3043   20.8642 C   0  0  0  0  0  0  0  0  0  0  0  0
  -23.0368   -8.0105   19.9735 C   0  0  0  0  0  0  0  0  0  0  0  0
  -26.1746  -13.9867   21.7237 C   0  0  0  0  0  0  0  0  0  0  0  0
  -27.9588  -14.7465   23.3811 C   0  0  0  0  0  0  0  0  0  0  0  0
  -26.3580  -36.2653   25.2789 C   0  0  0  0  0  0  0  0  0  0  0  0
  -26.3317  -30.6487   20.5529 C   0  0  0  0  0  0  0  0  0  0  0  0
  -26.9129  -35.1549   24.6145 C   0  0  0  0  0  0  0  0  0  0  0  0
  -26.0302  -29.4111   21.1390 C   0  0  0  0  0  0  0  0  0  0  0  0
  -24.0165  -12.4176   20.9094 C   0  0  0  0  0  0  0  0  0  0  0  0
  -27.9423  -28.4237   20.0082 C   0  0  0  0  0  0  0  0  0  0  0  0
  -23.0243  -10.2921   20.7681 C   0  0  0  0  0  0  0  0  0  0  0  0
  -23.1481   -7.5538   21.2868 C   0  0  0  0  0  0  0  0  0  0  0  0
  -22.9749   -9.3797   19.7141 C   0  0  0  0  0  0  0  0  0  0  0  0
  -27.2896  -14.7970   22.1436 C   0  0  0  0  0  0  0  0  0  0  0  0
  -28.9343  -15.7084   23.2834 C   0  0  0  0  0  0  0  0  0  0  0  0
  -27.7200  -13.9053   24.5173 C   0  0  0  0  0  0  0  0  0  0  0  0
  -25.5316  -31.9790   23.3267 C   0  0  0  0  0  0  0  0  0  0  0  0
  -22.7476  -30.3861   22.8427 C   0  0  0  0  0  0  0  0  0  0  0  0
  -21.1185  -27.7890   21.3434 C   0  0  0  0  0  0  0  0  0  0  0  0
  -29.1011  -20.5692   19.6973 C   0  0  0  0  0  0  0  0  0  0  0  0
  -25.2739  -36.1090   26.3157 C   0  0  0  0  0  0  0  0  0  0  0  0
  -25.4587  -31.8463   20.8102 C   0  0  0  0  0  0  0  0  0  0  0  0
  -24.8549  -29.2374   22.0648 C   0  0  0  0  0  0  0  0  0  0  0  0
  -24.5584  -34.7621   26.2505 C   0  0  0  0  0  0  0  0  0  0  0  0
  -31.6915  -17.9424   20.0781 C   0  0  0  0  0  0  0  0  0  0  0  0
  -25.5692  -33.6259   26.1318 C   0  0  0  0  0  0  0  0  0  0  0  0
  -30.8845  -16.8170   20.7271 C   0  0  0  0  0  0  0  0  0  0  0  0
  -31.6736  -23.1868   19.9033 C   0  0  0  0  0  0  0  0  0  0  0  0
  -30.8128  -18.7850   19.1628 C   0  0  0  0  0  0  0  0  0  0  0  0
  -31.4056  -21.6907   19.7727 C   0  0  0  0  0  0  0  0  0  0  0  0
  -28.7992  -18.2476   20.4794 C   0  0  0  0  0  0  0  0  0  0  0  0
  -29.4899  -22.9127   18.9880 C   0  0  0  0  0  0  0  0  0  0  0  0
  -26.3928  -33.7525   24.8445 C   0  0  1  0  0  0  0  0  0  0  0  0
  -24.6747  -31.7449   22.1149 C   0  0  1  0  0  0  0  0  0  0  0  0
  -29.6289  -17.3656   21.4292 C   0  0  1  0  0  0  0  0  0  0  0  0
  -30.7401  -23.7618   18.8485 C   0  0  1  0  0  0  0  0  0  0  0  0
  -18.8535  -26.7230   21.1670 C   0  0  0  0  0  0  0  0  0  0  0  0
  -23.1081  -29.1670   25.6164 C   0  0  0  0  0  0  0  0  0  0  0  0
  -21.3939  -27.4470   25.0069 C   0  0  0  0  0  0  0  0  0  0  0  0
  -20.7663  -29.8603   25.0779 C   0  0  0  0  0  0  0  0  0  0  0  0
  -20.9948  -28.2625   18.4246 C   0  0  0  0  0  0  0  0  0  0  0  0
  -29.5918  -25.8411   18.0763 C   0  0  0  0  0  0  0  0  0  0  0  0
  -29.3566  -27.2855   18.4719 C   0  0  0  0  0  0  0  0  0  1  0  0
  -22.2257  -29.0140   23.1948 C   0  0  1  0  0  0  0  0  0  0  0  0
  -19.8178  -27.7319   20.5628 C   0  0  2  0  0  0  0  0  0  0  0  0
  -21.8969  -28.8755   24.7081 C   0  0  0  0  0  0  0  0  0  0  0  0
  -27.7970  -15.7181   21.3202 N   0  0  0  0  0  0  0  0  0  0  0  0
  -28.7954  -16.2555   22.0418 N   0  0  0  0  0  0  0  0  0  0  0  0
  -24.0350  -30.4394   22.2900 N   0  0  0  0  0  0  0  0  0  0  0  0
  -29.6345  -19.2876   19.8747 N   0  0  0  0  0  0  0  0  0  0  0  0
  -29.9893  -21.6025   19.4022 N   0  0  0  0  0  0  0  0  0  0  0  0
  -29.8888  -16.1313   24.1393 N   0  0  0  0  0  0  0  0  0  0  0  0
  -26.6775  -12.9710   24.4496 N   0  0  0  0  0  0  0  0  0  0  0  0
  -25.6213  -33.3050   23.7048 N   0  0  0  0  0  0  0  0  0  0  0  0
  -21.0903  -28.7701   22.3118 N   0  0  0  0  0  0  0  0  0  0  0  0
  -30.4574  -25.1843   19.1005 N   0  3  0  0  0  0  0  0  0  0  0  0
  -20.0794  -27.3430   19.1481 N   0  3  0  0  0  0  0  0  0  0  0  0
  -28.4000  -13.9913   25.5679 O   0  0  0  0  0  0  0  0  0  0  0  0
  -26.0703  -31.0268   23.8788 O   0  0  0  0  0  0  0  0  0  0  0  0
  -22.0362  -31.3736   23.0437 O   0  0  0  0  0  0  0  0  0  0  0  0
  -22.0635  -27.0359   21.1192 O   0  0  0  0  0  0  0  0  0  0  0  0
  -27.8917  -20.7900   19.8441 O   0  0  0  0  0  0  0  0  0  0  0  0
  -22.9638  -11.6517   20.5122 O   0  0  0  0  0  0  0  0  0  0  0  0
  -28.7311  -27.3336   19.7474 O   0  0  0  0  0  0  0  0  0  1  0  0
  -23.2090   -6.2391   21.5359 F   0  0  0  0  0  0  0  0  0  0  0  0
  -22.8692   -9.8125   18.4503 F   0  0  0  0  0  0  0  0  0  0  0  0
  1  2  1  0  0  0  0
  1  5  2  0  0  0  0
  2  6  2  0  0  0  0
  3  8  2  0  0  0  0
  3 15  1  0  0  0  0
  4  9  1  0  0  0  0
  4 15  2  0  0  0  0
  5 17  1  0  0  0  0
  6 19  1  0  0  0  0
  7 10  2  0  0  0  0
  7 18  1  0  0  0  0
  8 21  1  0  0  0  0
  9 21  2  0  0  0  0
 10 22  1  0  0  0  0
 11 12  2  0  0  0  0
 11 23  1  0  0  0  0
 12 24  1  0  0  0  0
 13 20  1  0  0  0  0
 13 22  2  0  0  0  0
 14 24  2  0  0  0  0
 14 25  1  0  0  0  0
 15 26  1  0  0  0  0
 16 26  1  0  0  0  0
 16 27  2  0  0  0  0
 16 28  1  0  0  0  0
 17 19  2  0  0  0  0
 17 33  1  0  0  0  0
 18 20  2  0  0  0  0
 18 34  1  0  0  0  0
 19 45  1  0  0  0  0
 20 35  1  0  0  0  0
 21 75  1  0  0  0  0
 22 76  1  0  0  0  0
 23 25  2  0  0  0  0
 23 75  1  0  0  0  0
 24 77  1  0  0  0  0
 25 78  1  0  0  0  0
 26 59  2  0  0  0  0
 27 60  1  0  0  0  0
 27 64  1  0  0  0  0
 28 65  1  0  0  0  0
 28 70  2  0  0  0  0
 29 46  1  0  0  0  0
 29 66  1  0  0  0  0
 29 71  2  0  0  0  0
 30 56  1  0  0  0  0
 30 61  1  0  0  0  0
 30 72  2  0  0  0  0
 31 57  1  0  0  0  0
 31 67  1  0  0  0  0
 31 73  2  0  0  0  0
 32 62  1  0  0  0  0
 32 63  1  0  0  0  0
 32 74  2  0  0  0  0
 33 36  1  0  0  0  0
 34 46  1  0  0  0  0
 35 61  1  0  0  0  0
 36 38  1  0  0  0  0
 37 39  1  0  0  0  0
 37 41  1  0  0  0  0
 38 45  1  0  0  0  0
 39 47  1  0  0  0  0
 40 42  1  0  0  0  0
 40 48  1  0  0  0  0
 41 62  1  0  0  0  0
 42 63  1  0  0  0  0
 43 47  1  0  0  0  0
 43 62  1  0  0  0  0
 44 48  1  0  0  0  0
 44 63  1  0  0  0  0
 45 66  1  0  0  0  0
 46 61  1  0  0  0  0
 47 60  1  0  0  0  0
 48 68  1  0  0  0  0
 49 57  1  0  0  0  0
 50 58  1  0  0  0  0
 51 58  1  0  0  0  0
 52 58  1  0  0  0  0
 53 69  1  0  0  0  0
 54 55  1  0  0  0  0
 54 68  1  0  0  0  0
 55 76  1  0  0  0  0
 56 58  1  0  0  0  0
 56 67  1  0  0  0  0
 57 69  1  0  0  0  0
 59 60  1  0  0  0  0
M  CHG  2  68   1  69   1
M  ISO  4  32 100  55 101  63 100  76 101
M  END
> <Batch ID>
0189

> <Smiles>
CNC(C)C(=O)NC(C(=O)N1Cc2cc([101O:1][101CH2:1]CNC3CC[100N:0]([100C:0](=O)N4CCCC(n5nc(-c6ccc(Oc7ccc(F)cc7F)cc6)c(C(N)=O)c5N)C4)C3)ccc2CC1C(=O)NC1CCCc2ccccc21)C(C)(C)C

> <Shape>
0.327

> <Color>
0.075

> <Negative vol penalty>
0.000

$$$$

  -OEChem-04052323223D

 83 92  0     1  0  0  0  0  0999 V2000
  -26.8841  -24.2721   17.2455 C   0  0  0  0  0  0  0  0  0  0  0  0
  -25.7436  -24.7112   17.9103 C   0  0  0  0  0  0  0  0  0  0  0  0
  -26.9660  -14.3248   22.3987 C   0  0  0  0  0  0  0  0  0  0  0  0
  -26.0603  -14.1541   20.1654 C   0  0  0  0  0  0  0  0  0  0  0  0
  -28.1464  -24.5806   17.7508 C   0  0  0  0  0  0  0  0  0  0  0  0
  -25.8649  -25.4582   19.0815 C   0  0  0  0  0  0  0  0  0  0  0  0
  -22.7576  -29.4560   19.1662 C   0  0  0  0  0  0  0  0  0  0  0  0
  -26.7252  -12.9658   22.6003 C   0  0  0  0  0  0  0  0  0  0  0  0
  -25.8196  -12.7950   20.3669 C   0  0  0  0  0  0  0  0  0  0  0  0
  -21.4178  -29.2148   19.4673 C   0  0  0  0  0  0  0  0  0  0  0  0
  -23.5156  -10.8782   21.9315 C   0  0  0  0  0  0  0  0  0  0  0  0
  -22.2801  -10.3720   21.5276 C   0  0  0  0  0  0  0  0  0  0  0  0
  -21.8046  -29.9340   21.7371 C   0  0  0  0  0  0  0  0  0  0  0  0
  -23.3965   -8.8525   20.0171 C   0  0  0  0  0  0  0  0  0  0  0  0
  -26.6335  -14.9190   21.1813 C   0  0  0  0  0  0  0  0  0  0  0  0
  -28.0499  -16.9120   20.4537 C   0  0  0  0  0  0  0  0  0  0  0  0
  -28.2832  -25.3399   18.9235 C   0  0  0  0  0  0  0  0  0  0  0  0
  -23.6349  -29.9285   20.1529 C   0  0  0  0  0  0  0  0  0  0  0  0
  -27.1302  -25.7760   19.6037 C   0  0  0  0  0  0  0  0  0  0  0  0
  -23.1545  -30.1829   21.4454 C   0  0  0  0  0  0  0  0  0  0  0  0
  -26.1521  -12.2009   21.5844 C   0  0  0  0  0  0  0  0  0  0  0  0
  -20.9418  -29.4511   20.7536 C   0  0  0  0  0  0  0  0  0  0  0  0
  -24.6915  -10.3716   21.3780 C   0  0  0  0  0  0  0  0  0  0  0  0
  -22.2206   -9.3591   20.5705 C   0  0  0  0  0  0  0  0  0  0  0  0
  -24.6319   -9.3587   20.4209 C   0  0  0  0  0  0  0  0  0  0  0  0
  -26.8814  -16.3230   20.9727 C   0  0  0  0  0  0  0  0  0  0  0  0
  -27.7856  -18.2598   20.4569 C   0  0  0  0  0  0  0  0  0  0  0  0
  -17.9917  -26.6109   22.7451 C   0  0  0  0  0  0  0  0  0  0  0  0
  -19.6741  -25.7437   21.5392 C   0  0  0  0  0  0  0  0  0  0  0  0
  -19.2927  -27.9550   21.5051 C   0  0  0  0  0  0  0  0  0  1  0  0
  -29.2655  -16.2959   20.0083 C   0  0  0  0  0  0  0  0  0  0  0  0
  -26.2769  -28.8146   21.5250 C   0  0  0  0  0  0  0  0  0  0  0  0
  -26.3200  -31.7430   22.9197 C   0  0  0  0  0  0  0  0  0  0  0  0
  -24.5781  -34.5035   23.9158 C   0  0  0  0  0  0  0  0  0  0  0  0
  -22.9437  -21.3992   20.0996 C   0  0  0  0  0  0  0  0  0  0  0  0
  -29.6681  -25.6081   19.4572 C   0  0  0  0  0  0  0  0  0  0  0  0
  -25.0711  -30.2090   19.8052 C   0  0  0  0  0  0  0  0  0  0  0  0
  -24.0508  -30.7094   22.5352 C   0  0  0  0  0  0  0  0  0  0  0  0
  -29.7140  -26.7228   20.4992 C   0  0  0  0  0  0  0  0  0  0  0  0
  -25.2309  -21.5773   22.7597 C   0  0  0  0  0  0  0  0  0  0  0  0
  -28.6017  -26.5392   21.5267 C   0  0  0  0  0  0  0  0  0  0  0  0
  -26.0367  -20.2951   22.5538 C   0  0  0  0  0  0  0  0  0  0  0  0
  -23.7380  -21.3630   22.5054 C   0  0  0  0  0  0  0  0  0  0  0  0
  -21.5407  -24.8307   20.1938 C   0  0  0  0  0  0  0  0  0  0  0  0
  -20.5064  -23.4851   22.0284 C   0  0  0  0  0  0  0  0  0  0  0  0
  -21.8872  -23.5355   19.4641 C   0  0  0  0  0  0  0  0  0  0  0  0
  -20.8595  -22.2159   21.2611 C   0  0  0  0  0  0  0  0  0  0  0  0
  -24.2393  -19.4806   20.9812 C   0  0  0  0  0  0  0  0  0  0  0  0
  -27.2209  -26.6096   20.8634 C   0  0  1  0  0  0  0  0  0  0  0  0
  -25.9927  -30.2013   21.0209 C   0  0  1  0  0  0  0  0  0  0  0  0
  -25.7510  -19.6789   21.1728 C   0  0  2  0  0  0  0  0  0  0  0  0
  -16.8475  -26.4280   23.6831 C   0  0  0  0  0  0  0  0  0  0  0  0
  -24.8797  -36.7157   25.0616 C   0  0  0  0  0  0  0  0  0  0  0  0
  -26.5110  -30.3199   25.6120 C   0  0  0  0  0  0  0  0  0  0  0  0
  -25.8570  -32.4696   26.7161 C   0  0  0  0  0  0  0  0  0  0  0  0
  -27.9686  -32.3403   25.3943 C   0  0  0  0  0  0  0  0  0  0  0  0
  -23.6567  -35.9951   21.5315 C   0  0  0  0  0  0  0  0  0  0  0  0
  -25.7477  -32.3325   24.1862 C   0  0  1  0  0  0  0  0  0  0  0  0
  -24.8462  -35.9858   23.7278 C   0  0  2  0  0  0  0  0  0  0  0  0
  -26.5044  -31.8538   25.4573 C   0  0  0  0  0  0  0  0  0  0  0  0
  -25.9445  -17.2229   21.2833 N   0  0  0  0  0  0  0  0  0  0  0  0
  -18.6585  -25.5027   22.3840 N   0  0  0  0  0  0  0  0  0  0  0  0
  -18.2507  -27.8670   22.3473 N   0  0  0  0  0  0  0  0  0  0  0  0
  -20.0493  -26.9398   21.0580 N   0  0  0  0  0  0  0  0  0  0  0  0
  -26.5241  -18.3911   20.9585 N   0  0  0  0  0  0  0  0  0  0  0  0
  -20.4178  -24.6343   21.1170 N   0  0  0  0  0  0  0  0  0  0  0  0
  -25.4485  -30.9620   22.1476 N   0  0  0  0  0  0  0  0  0  0  0  0
  -23.5177  -20.7368   21.1949 N   0  0  0  0  0  0  0  0  0  0  0  0
  -22.0171  -22.4139   20.3864 N   0  0  0  0  0  0  0  0  0  0  0  0
  -28.5116  -19.3336   20.0797 N   0  0  0  0  0  0  0  0  0  0  0  0
  -29.3698  -14.8997   20.0735 N   0  0  0  0  0  0  0  0  0  0  0  0
  -26.8620  -27.9843   20.5881 N   0  0  0  0  0  0  0  0  0  0  0  0
  -25.7485  -33.7794   23.9997 N   0  0  0  0  0  0  0  0  0  0  0  0
  -23.7846  -36.6010   22.8819 N   0  3  0  0  0  0  0  0  0  0  0  0
  -30.2368  -16.9648   19.5810 O   0  0  0  0  0  0  0  0  0  0  0  0
  -25.9883  -28.5203   22.6790 O   0  0  0  0  0  0  0  0  0  0  0  0
  -27.4949  -31.9731   22.6227 O   0  0  0  0  0  0  0  0  0  0  0  0
  -23.4439  -34.0353   23.9854 O   0  0  0  0  0  0  0  0  0  0  0  0
  -23.2419  -21.1059   18.9351 O   0  0  0  0  0  0  0  0  0  0  0  0
  -25.9173  -10.8746   21.7806 O   0  0  0  0  0  0  0  0  0  0  0  0
  -19.6180  -29.2129   21.0541 O   0  0  0  0  0  0  0  0  0  1  0  0
  -21.0342   -8.8721   20.1839 F   0  0  0  0  0  0  0  0  0  0  0  0
  -25.7583   -8.8672   19.8865 F   0  0  0  0  0  0  0  0  0  0  0  0
  1  2  1  0  0  0  0
  1  5  2  0  0  0  0
  2  6  2  0  0  0  0
  3  8  2  0  0  0  0
  3 15  1  0  0  0  0
  4  9  1  0  0  0  0
  4 15  2  0  0  0  0
  5 17  1  0  0  0  0
  6 19  1  0  0  0  0
  7 10  2  0  0  0  0
  7 18  1  0  0  0  0
  8 21  1  0  0  0  0
  9 21  2  0  0  0  0
 10 22  1  0  0  0  0
 11 12  2  0  0  0  0
 11 23  1  0  0  0  0
 12 24  1  0  0  0  0
 13 20  1  0  0  0  0
 13 22  2  0  0  0  0
 14 24  2  0  0  0  0
 14 25  1  0  0  0  0
 15 26  1  0  0  0  0
 16 26  1  0  0  0  0
 16 27  2  0  0  0  0
 16 31  1  0  0  0  0
 17 19  2  0  0  0  0
 17 36  1  0  0  0  0
 18 20  2  0  0  0  0
 18 37  1  0  0  0  0
 19 49  1  0  0  0  0
 20 38  1  0  0  0  0
 21 80  1  0  0  0  0
 22 81  1  0  0  0  0
 23 25  2  0  0  0  0
 23 80  1  0  0  0  0
 24 82  1  0  0  0  0
 25 83  1  0  0  0  0
 26 61  2  0  0  0  0
 27 65  1  0  0  0  0
 27 70  1  0  0  0  0
 28 52  1  0  0  0  0
 28 62  1  0  0  0  0
 28 63  2  0  0  0  0
 29 62  2  0  0  0  0
 29 64  1  0  0  0  0
 29 66  1  0  0  0  0
 30 63  1  0  0  0  0
 30 64  2  0  0  0  0
 30 81  1  0  0  0  0
 31 71  1  0  0  0  0
 31 75  2  0  0  0  0
 32 50  1  0  0  0  0
 32 72  1  0  0  0  0
 32 76  2  0  0  0  0
 33 58  1  0  0  0  0
 33 67  1  0  0  0  0
 33 77  2  0  0  0  0
 34 59  1  0  0  0  0
 34 73  1  0  0  0  0
 34 78  2  0  0  0  0
 35 68  1  0  0  0  0
 35 69  1  0  0  0  0
 35 79  2  0  0  0  0
 36 39  1  0  0  0  0
 37 50  1  0  0  0  0
 38 67  1  0  0  0  0
 39 41  1  0  0  0  0
 40 42  1  0  0  0  0
 40 43  1  0  0  0  0
 41 49  1  0  0  0  0
 42 51  1  0  0  0  0
 43 68  1  0  0  0  0
 44 46  1  0  0  0  0
 44 66  1  0  0  0  0
 45 47  1  0  0  0  0
 45 66  1  0  0  0  0
 46 69  1  0  0  0  0
 47 69  1  0  0  0  0
 48 51  1  0  0  0  0
 48 68  1  0  0  0  0
 49 72  1  0  0  0  0
 50 67  1  0  0  0  0
 51 65  1  0  0  0  0
 53 59  1  0  0  0  0
 54 60  1  0  0  0  0
 55 60  1  0  0  0  0
 56 60  1  0  0  0  0
 57 74  1  0  0  0  0
 58 60  1  0  0  0  0
 58 73  1  0  0  0  0
 59 74  1  0  0  0  0
 61 65  1  0  0  0  0
M  CHG  1  74   1
M  ISO  4  30 101  35 100  69 100  81 101
M  END
> <Batch ID>
0189

> <Smiles>
CNC(C)C(=O)NC(C(=O)N1Cc2cc([101O:1][101c:1]3nc(C)nc(N4CC[100N:0]([100C:0](=O)N5CCCC(n6nc(-c7ccc(Oc8ccc(F)cc8F)cc7)c(C(N)=O)c6N)C5)CC4)n3)ccc2CC1C(=O)NC1CCCc2ccccc21)C(C)(C)C

> <Shape>
0.311

> <Color>
0.082

> <Negative vol penalty>
0.000

$$$$

  -OEChem-04052323223D

 80 89  0     1  0  0  0  0  0999 V2000
  -26.0837  -36.7982   16.4901 C   0  0  0  0  0  0  0  0  0  0  0  0
  -26.7311  -35.5816   16.6803 C   0  0  0  0  0  0  0  0  0  0  0  0
  -23.6818   -9.9487   22.1444 C   0  0  0  0  0  0  0  0  0  0  0  0
  -23.6886   -9.4175   19.7875 C   0  0  0  0  0  0  0  0  0  0  0  0
  -25.2466  -37.3040   17.4838 C   0  0  0  0  0  0  0  0  0  0  0  0
  -26.5426  -34.8706   17.8649 C   0  0  0  0  0  0  0  0  0  0  0  0
  -26.3713  -28.7836   18.5174 C   0  0  0  0  0  0  0  0  0  0  0  0
  -22.7499   -8.9358   22.3700 C   0  0  0  0  0  0  0  0  0  0  0  0
  -22.7567   -8.4045   20.0132 C   0  0  0  0  0  0  0  0  0  0  0  0
  -27.3305  -27.8563   18.9220 C   0  0  0  0  0  0  0  0  0  0  0  0
  -22.7552   -5.5678   22.6699 C   0  0  0  0  0  0  0  0  0  0  0  0
  -22.9705   -4.7190   23.7556 C   0  0  0  0  0  0  0  0  0  0  0  0
  -26.4546  -27.9395   21.1682 C   0  0  0  0  0  0  0  0  0  0  0  0
  -20.8573   -5.4006   24.7078 C   0  0  0  0  0  0  0  0  0  0  0  0
  -24.1511  -10.1897   20.8531 C   0  0  0  0  0  0  0  0  0  0  0  0
  -26.5163  -11.1234   20.6485 C   0  0  0  0  0  0  0  0  0  0  0  0
  -25.0402  -36.5941   18.6772 C   0  0  0  0  0  0  0  0  0  0  0  0
  -25.4520  -29.3049   19.4391 C   0  0  0  0  0  0  0  0  0  0  0  0
  -25.7030  -35.3679   18.8761 C   0  0  0  0  0  0  0  0  0  0  0  0
  -25.4831  -28.8714   20.7722 C   0  0  0  0  0  0  0  0  0  0  0  0
  -22.2873   -8.1636   21.3045 C   0  0  0  0  0  0  0  0  0  0  0  0
  -27.3741  -27.4362   20.2482 C   0  0  0  0  0  0  0  0  0  0  0  0
  -21.5909   -6.3332   22.6032 C   0  0  0  0  0  0  0  0  0  0  0  0
  -22.0216   -4.6353   24.7745 C   0  0  0  0  0  0  0  0  0  0  0  0
  -20.6419   -6.2495   23.6221 C   0  0  0  0  0  0  0  0  0  0  0  0
  -25.1134  -11.2363   20.6192 C   0  0  0  0  0  0  0  0  0  0  0  0
  -26.9686  -12.3886   20.3638 C   0  0  0  0  0  0  0  0  0  0  0  0
  -27.3372   -9.9773   20.9097 C   0  0  0  0  0  0  0  0  0  0  0  0
  -24.8030  -32.2064   20.5635 C   0  0  0  0  0  0  0  0  0  0  0  0
  -22.3443  -30.6680   22.0163 C   0  0  0  0  0  0  0  0  0  0  0  0
  -21.0610  -27.7417   23.2148 C   0  0  0  0  0  0  0  0  0  0  0  0
  -26.5223  -17.8517   21.4808 C   0  0  0  0  0  0  0  0  0  0  0  0
  -24.1633  -37.2037   19.7421 C   0  0  0  0  0  0  0  0  0  0  0  0
  -24.4064  -30.2844   18.9809 C   0  0  0  0  0  0  0  0  0  0  0  0
  -24.5057  -29.3853   21.7963 C   0  0  0  0  0  0  0  0  0  0  0  0
  -23.7229  -36.2080   20.8122 C   0  0  0  0  0  0  0  0  0  0  0  0
  -24.5078  -16.4739   18.6882 C   0  0  0  0  0  0  0  0  0  0  0  0
  -24.9096  -35.3759   21.2878 C   0  0  0  0  0  0  0  0  0  0  0  0
  -24.5752  -14.9743   18.9808 C   0  0  0  0  0  0  0  0  0  0  0  0
  -27.4561  -20.7518   19.4244 C   0  0  0  0  0  0  0  0  0  0  0  0
  -24.5694  -17.2839   19.9766 C   0  0  0  0  0  0  0  0  0  0  0  0
  -26.5591  -19.5230   19.5368 C   0  0  0  0  0  0  0  0  0  0  0  0
  -25.8402  -15.5072   21.1192 C   0  0  0  0  0  0  0  0  0  0  0  0
  -27.2466  -20.2089   21.7359 C   0  0  0  0  0  0  0  0  0  0  0  0
  -28.1019  -23.1305   22.3070 C   0  0  0  0  0  0  0  0  0  0  0  0
  -28.3438  -23.5359   20.2720 C   0  0  0  0  0  0  0  0  0  0  0  0
  -25.5045  -34.5552   20.1371 C   0  0  1  0  0  0  0  0  0  0  0  0
  -23.8475  -31.1365   20.1162 C   0  0  1  0  0  0  0  0  0  0  0  0
  -28.6770  -24.3431   21.5447 C   0  0  0  0  0  0  0  0  0  0  0  0
  -25.7961  -14.6318   19.8541 C   0  0  1  0  0  0  0  0  0  0  0  0
  -27.2715  -21.3958   20.7904 C   0  0  1  0  0  0  0  0  0  0  0  0
  -19.0462  -26.8059   24.3819 C   0  0  0  0  0  0  0  0  0  0  0  0
  -23.3202  -31.8588   24.6506 C   0  0  0  0  0  0  0  0  0  0  0  0
  -21.9073  -30.1780   25.8534 C   0  0  0  0  0  0  0  0  0  0  0  0
  -20.8363  -31.8647   24.3598 C   0  0  0  0  0  0  0  0  0  0  0  0
  -20.4405  -25.9418   20.9490 C   0  0  0  0  0  0  0  0  0  0  0  0
  -27.9611  -25.6651   21.7228 C   0  0  0  0  0  0  0  0  0  1  0  0
  -22.1551  -29.9648   23.3386 C   0  0  1  0  0  0  0  0  0  0  0  0
  -19.7005  -27.0916   23.0392 C   0  0  2  0  0  0  0  0  0  0  0  0
  -22.0745  -30.9581   24.5320 C   0  0  0  0  0  0  0  0  0  0  0  0
  -24.7016  -12.4755   20.3382 N   0  0  0  0  0  0  0  0  0  0  0  0
  -25.8526  -13.1528   20.1884 N   0  0  0  0  0  0  0  0  0  0  0  0
  -23.5063  -30.3462   21.3008 N   0  0  0  0  0  0  0  0  0  0  0  0
  -25.7479  -16.9268   20.7713 N   0  0  0  0  0  0  0  0  0  0  0  0
  -26.6442  -19.1344   20.9485 N   0  0  0  0  0  0  0  0  0  0  0  0
  -28.2082  -12.9109   20.2489 N   0  0  0  0  0  0  0  0  0  0  0  0
  -26.7096   -8.7545   21.1843 N   0  0  0  0  0  0  0  0  0  0  0  0
  -24.6837  -33.3941   19.8675 N   0  0  0  0  0  0  0  0  0  0  0  0
  -20.9772  -29.1177   23.1856 N   0  0  0  0  0  0  0  0  0  0  0  0
  -28.3788  -22.3133   21.1049 N   0  3  0  0  0  0  0  0  0  0  0  0
  -19.8327  -25.8057   22.2977 N   0  3  0  0  0  0  0  0  0  0  0  0
  -28.5900  -10.0393   20.9160 O   0  0  0  0  0  0  0  0  0  0  0  0
  -25.5893  -31.9721   21.4738 O   0  0  0  0  0  0  0  0  0  0  0  0
  -21.4888  -31.4679   21.6290 O   0  0  0  0  0  0  0  0  0  0  0  0
  -22.0942  -27.0937   23.3668 O   0  0  0  0  0  0  0  0  0  0  0  0
  -27.1182  -17.5323   22.5181 O   0  0  0  0  0  0  0  0  0  0  0  0
  -21.3781   -7.1748   21.5243 O   0  0  0  0  0  0  0  0  0  0  0  0
  -28.3166  -26.5251   20.6489 O   0  0  0  0  0  0  0  0  0  1  0  0
  -22.2279   -3.8190   25.8162 F   0  0  0  0  0  0  0  0  0  0  0  0
  -19.5209   -6.9814   23.5630 F   0  0  0  0  0  0  0  0  0  0  0  0
  1  2  1  0  0  0  0
  1  5  2  0  0  0  0
  2  6  2  0  0  0  0
  3  8  2  0  0  0  0
  3 15  1  0  0  0  0
  4  9  1  0  0  0  0
  4 15  2  0  0  0  0
  5 17  1  0  0  0  0
  6 19  1  0  0  0  0
  7 10  2  0  0  0  0
  7 18  1  0  0  0  0
  8 21  1  0  0  0  0
  9 21  2  0  0  0  0
 10 22  1  0  0  0  0
 11 12  2  0  0  0  0
 11 23  1  0  0  0  0
 12 24  1  0  0  0  0
 13 20  1  0  0  0  0
 13 22  2  0  0  0  0
 14 24  2  0  0  0  0
 14 25  1  0  0  0  0
 15 26  1  0  0  0  0
 16 26  1  0  0  0  0
 16 27  2  0  0  0  0
 16 28  1  0  0  0  0
 17 19  2  0  0  0  0
 17 33  1  0  0  0  0
 18 20  2  0  0  0  0
 18 34  1  0  0  0  0
 19 47  1  0  0  0  0
 20 35  1  0  0  0  0
 21 77  1  0  0  0  0
 22 78  1  0  0  0  0
 23 25  2  0  0  0  0
 23 77  1  0  0  0  0
 24 79  1  0  0  0  0
 25 80  1  0  0  0  0
 26 61  2  0  0  0  0
 27 62  1  0  0  0  0
 27 66  1  0  0  0  0
 28 67  1  0  0  0  0
 28 72  2  0  0  0  0
 29 48  1  0  0  0  0
 29 68  1  0  0  0  0
 29 73  2  0  0  0  0
 30 58  1  0  0  0  0
 30 63  1  0  0  0  0
 30 74  2  0  0  0  0
 31 59  1  0  0  0  0
 31 69  1  0  0  0  0
 31 75  2  0  0  0  0
 32 64  1  0  0  0  0
 32 65  1  0  0  0  0
 32 76  2  0  0  0  0
 33 36  1  0  0  0  0
 34 48  1  0  0  0  0
 35 63  1  0  0  0  0
 36 38  1  0  0  0  0
 37 39  1  0  0  0  0
 37 41  1  0  0  0  0
 38 47  1  0  0  0  0
 39 50  1  0  0  0  0
 40 42  1  0  0  0  0
 40 51  1  0  0  0  0
 41 64  1  0  0  0  0
 42 65  1  0  0  0  0
 43 50  1  0  0  0  0
 43 64  1  0  0  0  0
 44 51  1  0  0  0  0
 44 65  1  0  0  0  0
 45 49  1  0  0  0  0
 45 70  1  0  0  0  0
 46 49  1  0  0  0  0
 46 70  1  0  0  0  0
 47 68  1  0  0  0  0
 48 63  1  0  0  0  0
 49 57  1  0  0  0  0
 50 62  1  0  0  0  0
 51 70  1  0  0  0  0
 52 59  1  0  0  0  0
 53 60  1  0  0  0  0
 54 60  1  0  0  0  0
 55 60  1  0  0  0  0
 56 71  1  0  0  0  0
 57 78  1  0  0  0  0
 58 60  1  0  0  0  0
 58 69  1  0  0  0  0
 59 71  1  0  0  0  0
 61 62  1  0  0  0  0
M  CHG  2  70   1  71   1
M  ISO  4  32 100  57 101  65 100  78 101
M  END
> <Batch ID>
0189

> <Smiles>
CNC(C)C(=O)NC(C(=O)N1Cc2cc([101O:1][101CH2:1]C3CN(C4CC[100N:0]([100C:0](=O)N5CCCC(n6nc(-c7ccc(Oc8ccc(F)cc8F)cc7)c(C(N)=O)c6N)C5)C4)C3)ccc2CC1C(=O)NC1CCCc2ccccc21)C(C)(C)C

> <Shape>
0.263

> <Color>
0.116

> <Negative vol penalty>
0.000

$$$$

  -OEChem-04052323223D

 84 93  0     1  0  0  0  0  0999 V2000
  -19.5378  -26.1253   25.3303 C   0  0  0  0  0  0  0  0  0  0  0  0
  -20.5070  -25.8378   24.3746 C   0  0  0  0  0  0  0  0  0  0  0  0
  -24.6416   -9.2232   22.0586 C   0  0  0  0  0  0  0  0  0  0  0  0
  -23.7338   -9.4465   19.8308 C   0  0  0  0  0  0  0  0  0  0  0  0
  -18.7628  -27.2781   25.2107 C   0  0  0  0  0  0  0  0  0  0  0  0
  -20.7010  -26.7025   23.2979 C   0  0  0  0  0  0  0  0  0  0  0  0
  -25.6005  -27.6065   22.3908 C   0  0  0  0  0  0  0  0  0  0  0  0
  -23.4607   -8.6109   22.4784 C   0  0  0  0  0  0  0  0  0  0  0  0
  -22.5529   -8.8341   20.2506 C   0  0  0  0  0  0  0  0  0  0  0  0
  -26.3161  -26.6181   21.7166 C   0  0  0  0  0  0  0  0  0  0  0  0
  -22.0289   -5.5549   22.2698 C   0  0  0  0  0  0  0  0  0  0  0  0
  -22.1375   -4.4079   23.0560 C   0  0  0  0  0  0  0  0  0  0  0  0
  -26.0871  -27.8619   19.6624 C   0  0  0  0  0  0  0  0  0  0  0  0
  -20.9318   -5.5129   24.8344 C   0  0  0  0  0  0  0  0  0  0  0  0
  -24.7781   -9.6411   20.7348 C   0  0  0  0  0  0  0  0  0  0  0  0
  -27.1403   -9.6450   19.7716 C   0  0  0  0  0  0  0  0  0  0  0  0
  -18.9540  -28.1623   24.1372 C   0  0  0  0  0  0  0  0  0  0  0  0
  -25.1125  -28.7266   21.7025 C   0  0  0  0  0  0  0  0  0  0  0  0
  -19.9270  -27.8675   23.1631 C   0  0  0  0  0  0  0  0  0  0  0  0
  -25.3677  -28.8644   20.3307 C   0  0  0  0  0  0  0  0  0  0  0  0
  -22.4164   -8.4163   21.5745 C   0  0  0  0  0  0  0  0  0  0  0  0
  -26.5571  -26.7442   20.3516 C   0  0  0  0  0  0  0  0  0  0  0  0
  -21.3718   -6.6809   22.7659 C   0  0  0  0  0  0  0  0  0  0  0  0
  -21.5889   -4.3869   24.3383 C   0  0  0  0  0  0  0  0  0  0  0  0
  -20.8232   -6.6599   24.0482 C   0  0  0  0  0  0  0  0  0  0  0  0
  -25.9974  -10.2742   20.3006 C   0  0  0  0  0  0  0  0  0  0  0  0
  -28.0130  -10.6750   19.5183 C   0  0  0  0  0  0  0  0  0  0  0  0
  -28.4860  -23.7391   19.5862 C   0  0  0  0  0  0  0  0  0  0  0  0
  -28.7684  -21.7067   18.6772 C   0  0  0  0  0  0  0  0  0  0  0  0
  -30.2278  -23.3506   18.2251 C   0  0  0  0  0  0  0  0  0  0  0  0
  -27.3906   -8.2540   19.5307 C   0  0  0  0  0  0  0  0  0  0  0  0
  -22.2243  -29.9213   21.1243 C   0  0  0  0  0  0  0  0  0  0  0  0
  -23.9214  -32.3715   19.8440 C   0  0  0  0  0  0  0  0  0  0  0  0
  -26.8354  -33.4521   18.4342 C   0  0  0  0  0  0  0  0  0  0  0  0
  -27.3480  -16.2799   18.2651 C   0  0  0  0  0  0  0  0  0  0  0  0
  -18.0599  -29.3716   24.0248 C   0  0  0  0  0  0  0  0  0  0  0  0
  -24.3653  -29.7971   22.4496 C   0  0  0  0  0  0  0  0  0  0  0  0
  -24.8830  -30.0576   19.5498 C   0  0  0  0  0  0  0  0  0  0  0  0
  -18.5839  -30.4287   23.0561 C   0  0  0  0  0  0  0  0  0  0  0  0
  -29.1717  -15.0643   21.0103 C   0  0  0  0  0  0  0  0  0  0  0  0
  -19.0354  -29.7801   21.7514 C   0  0  0  0  0  0  0  0  0  0  0  0
  -28.6723  -13.6222   21.0922 C   0  0  0  0  0  0  0  0  0  0  0  0
  -28.0420  -16.0447   20.6906 C   0  0  0  0  0  0  0  0  0  0  0  0
  -29.1174  -19.4807   17.6519 C   0  0  0  0  0  0  0  0  0  0  0  0
  -27.5970  -19.7622   19.6153 C   0  0  0  0  0  0  0  0  0  0  0  0
  -28.2704  -18.2984   17.1887 C   0  0  0  0  0  0  0  0  0  0  0  0
  -26.7706  -18.5844   19.1111 C   0  0  0  0  0  0  0  0  0  0  0  0
  -26.7668  -14.2508   19.5620 C   0  0  0  0  0  0  0  0  0  0  0  0
  -20.1841  -28.7937   21.9943 C   0  0  1  0  0  0  0  0  0  0  0  0
  -23.4724  -30.6432   21.5472 C   0  0  1  0  0  0  0  0  0  0  0  0
  -27.8901  -13.2357   19.8243 C   0  0  2  0  0  0  0  0  0  0  0  0
  -27.9104  -35.4976   17.4555 C   0  0  0  0  0  0  0  0  0  0  0  0
  -22.2803  -32.0123   17.2969 C   0  0  0  0  0  0  0  0  0  0  0  0
  -23.9914  -33.3800   16.0847 C   0  0  0  0  0  0  0  0  0  0  0  0
  -22.6828  -34.3922   17.9517 C   0  0  0  0  0  0  0  0  0  0  0  0
  -28.9751  -33.4478   20.4789 C   0  0  0  0  0  0  0  0  0  0  0  0
  -27.7106  -24.6672   20.4579 C   0  0  0  0  0  0  0  0  0  1  0  0
  -24.4755  -32.6882   18.4760 C   0  0  1  0  0  0  0  0  0  0  0  0
  -27.6987  -34.6692   18.7132 C   0  0  2  0  0  0  0  0  0  0  0  0
  -23.3651  -33.0946   17.4664 C   0  0  0  0  0  0  0  0  0  0  0  0
  -26.1291  -11.6010   20.3794 N   0  0  0  0  0  0  0  0  0  0  0  0
  -28.0199  -22.4845   19.4756 N   0  0  0  0  0  0  0  0  0  0  0  0
  -29.5803  -24.2423   18.9923 N   0  0  0  0  0  0  0  0  0  0  0  0
  -29.8820  -22.0694   18.0205 N   0  0  0  0  0  0  0  0  0  0  0  0
  -27.3651  -11.8140   19.8966 N   0  0  0  0  0  0  0  0  0  0  0  0
  -28.3432  -20.3823   18.5118 N   0  0  0  0  0  0  0  0  0  0  0  0
  -24.1517  -31.0743   20.3237 N   0  0  0  0  0  0  0  0  0  0  0  0
  -27.2999  -15.6132   19.4985 N   0  0  0  0  0  0  0  0  0  0  0  0
  -27.5725  -17.6651   18.3010 N   0  0  0  0  0  0  0  0  0  0  0  0
  -29.2636  -10.7083   19.0113 N   0  0  0  0  0  0  0  0  0  0  0  0
  -31.3901  -23.8068   17.5665 N   0  0  0  0  0  0  0  0  0  0  0  0
  -26.3862   -7.3296   19.8482 N   0  0  0  0  0  0  0  0  0  0  0  0
  -21.4312  -29.5051   22.1765 N   0  0  0  0  0  0  0  0  0  0  0  0
  -25.5019  -33.7054   18.6767 N   0  0  0  0  0  0  0  0  0  0  0  0
  -29.0323  -34.2508   19.2304 N   0  3  0  0  0  0  0  0  0  0  0  0
  -28.4792   -7.8415   19.0635 O   0  0  0  0  0  0  0  0  0  0  0  0
  -21.9969  -29.7557   19.9316 O   0  0  0  0  0  0  0  0  0  0  0  0
  -23.3130  -33.2451   20.4672 O   0  0  0  0  0  0  0  0  0  0  0  0
  -27.2973  -32.3847   18.0370 O   0  0  0  0  0  0  0  0  0  0  0  0
  -27.2028  -15.6757   17.1951 O   0  0  0  0  0  0  0  0  0  0  0  0
  -21.2641   -7.8186   21.9837 O   0  0  0  0  0  0  0  0  0  0  0  0
  -27.2595  -25.7740   19.6864 O   0  0  0  0  0  0  0  0  0  1  0  0
  -21.6919   -3.2848   25.0927 F   0  0  0  0  0  0  0  0  0  0  0  0
  -20.1898   -7.7381   24.5297 F   0  0  0  0  0  0  0  0  0  0  0  0
  1  2  1  0  0  0  0
  1  5  2  0  0  0  0
  2  6  2  0  0  0  0
  3  8  2  0  0  0  0
  3 15  1  0  0  0  0
  4  9  1  0  0  0  0
  4 15  2  0  0  0  0
  5 17  1  0  0  0  0
  6 19  1  0  0  0  0
  7 10  2  0  0  0  0
  7 18  1  0  0  0  0
  8 21  1  0  0  0  0
  9 21  2  0  0  0  0
 10 22  1  0  0  0  0
 11 12  2  0  0  0  0
 11 23  1  0  0  0  0
 12 24  1  0  0  0  0
 13 20  1  0  0  0  0
 13 22  2  0  0  0  0
 14 24  2  0  0  0  0
 14 25  1  0  0  0  0
 15 26  1  0  0  0  0
 16 26  1  0  0  0  0
 16 27  2  0  0  0  0
 16 31  1  0  0  0  0
 17 19  2  0  0  0  0
 17 36  1  0  0  0  0
 18 20  2  0  0  0  0
 18 37  1  0  0  0  0
 19 49  1  0  0  0  0
 20 38  1  0  0  0  0
 21 81  1  0  0  0  0
 22 82  1  0  0  0  0
 23 25  2  0  0  0  0
 23 81  1  0  0  0  0
 24 83  1  0  0  0  0
 25 84  1  0  0  0  0
 26 61  2  0  0  0  0
 27 65  1  0  0  0  0
 27 70  1  0  0  0  0
 28 57  1  0  0  0  0
 28 62  2  0  0  0  0
 28 63  1  0  0  0  0
 29 62  1  0  0  0  0
 29 64  2  0  0  0  0
 29 66  1  0  0  0  0
 30 63  2  0  0  0  0
 30 64  1  0  0  0  0
 30 71  1  0  0  0  0
 31 72  1  0  0  0  0
 31 76  2  0  0  0  0
 32 50  1  0  0  0  0
 32 73  1  0  0  0  0
 32 77  2  0  0  0  0
 33 58  1  0  0  0  0
 33 67  1  0  0  0  0
 33 78  2  0  0  0  0
 34 59  1  0  0  0  0
 34 74  1  0  0  0  0
 34 79  2  0  0  0  0
 35 68  1  0  0  0  0
 35 69  1  0  0  0  0
 35 80  2  0  0  0  0
 36 39  1  0  0  0  0
 37 50  1  0  0  0  0
 38 67  1  0  0  0  0
 39 41  1  0  0  0  0
 40 42  1  0  0  0  0
 40 43  1  0  0  0  0
 41 49  1  0  0  0  0
 42 51  1  0  0  0  0
 43 68  1  0  0  0  0
 44 46  1  0  0  0  0
 44 66  1  0  0  0  0
 45 47  1  0  0  0  0
 45 66  1  0  0  0  0
 46 69  1  0  0  0  0
 47 69  1  0  0  0  0
 48 51  1  0  0  0  0
 48 68  1  0  0  0  0
 49 73  1  0  0  0  0
 50 67  1  0  0  0  0
 51 65  1  0  0  0  0
 52 59  1  0  0  0  0
 53 60  1  0  0  0  0
 54 60  1  0  0  0  0
 55 60  1  0  0  0  0
 56 75  1  0  0  0  0
 57 82  1  0  0  0  0
 58 60  1  0  0  0  0
 58 74  1  0  0  0  0
 59 75  1  0  0  0  0
 61 65  1  0  0  0  0
M  CHG  1  75   1
M  ISO  4  35 100  57 101  69 100  82 101
M  END
> <Batch ID>
0189

> <Smiles>
CNC(C)C(=O)NC(C(=O)N1Cc2cc([101O:1][101CH2:1]c3nc(N)nc(N4CC[100N:0]([100C:0](=O)N5CCCC(n6nc(-c7ccc(Oc8ccc(F)cc8F)cc7)c(C(N)=O)c6N)C5)CC4)n3)ccc2CC1C(=O)NC1CCCc2ccccc21)C(C)(C)C

> <Shape>
0.274

> <Color>
0.112

> <Negative vol penalty>
0.000

$$$$

  -OEChem-04052323223D

 83 92  0     1  0  0  0  0  0999 V2000
  -30.5843  -11.4114   18.5005 C   0  0  0  0  0  0  0  0  0  0  0  0
  -30.4646  -12.7974   18.4928 C   0  0  0  0  0  0  0  0  0  0  0  0
  -20.8861  -27.8090   23.0462 C   0  0  0  0  0  0  0  0  0  0  0  0
  -19.2907  -26.7500   21.5730 C   0  0  0  0  0  0  0  0  0  0  0  0
  -29.4816  -10.6195   18.8179 C   0  0  0  0  0  0  0  0  0  0  0  0
  -29.2418  -13.3923   18.8015 C   0  0  0  0  0  0  0  0  0  0  0  0
  -29.7337  -17.3163   21.9645 C   0  0  0  0  0  0  0  0  0  0  0  0
  -19.8754  -28.6249   23.5544 C   0  0  0  0  0  0  0  0  0  0  0  0
  -18.2799  -27.5659   22.0813 C   0  0  0  0  0  0  0  0  0  0  0  0
  -30.1744  -18.5217   21.4200 C   0  0  0  0  0  0  0  0  0  0  0  0
  -16.3289  -27.6871   24.8380 C   0  0  0  0  0  0  0  0  0  0  0  0
  -15.1115  -27.0856   25.1567 C   0  0  0  0  0  0  0  0  0  0  0  0
  -27.8998  -19.3234   21.3691 C   0  0  0  0  0  0  0  0  0  0  0  0
  -13.9883  -28.5166   23.5669 C   0  0  0  0  0  0  0  0  0  0  0  0
  -20.5938  -26.8716   22.0555 C   0  0  0  0  0  0  0  0  0  0  0  0
  -22.0329  -24.7658   22.0092 C   0  0  0  0  0  0  0  0  0  0  0  0
  -28.2471  -11.2052   19.1400 C   0  0  0  0  0  0  0  0  0  0  0  0
  -28.3692  -17.1009   22.2057 C   0  0  0  0  0  0  0  0  0  0  0  0
  -28.1212  -12.6074   19.1222 C   0  0  0  0  0  0  0  0  0  0  0  0
  -27.4446  -18.1154   21.9191 C   0  0  0  0  0  0  0  0  0  0  0  0
  -29.2916  -23.3139   18.3789 C   0  0  0  0  0  0  0  0  0  0  0  0
  -18.5723  -28.5033   23.0720 C   0  0  0  0  0  0  0  0  0  0  0  0
  -29.2571  -19.5244   21.1195 C   0  0  0  0  0  0  0  0  0  0  0  0
  -16.3761  -28.7034   23.8838 C   0  0  0  0  0  0  0  0  0  0  0  0
  -13.9411  -27.5003   24.5211 C   0  0  0  0  0  0  0  0  0  0  0  0
  -15.2057  -29.1182   23.2482 C   0  0  0  0  0  0  0  0  0  0  0  0
  -21.6376  -26.0289   21.5296 C   0  0  0  0  0  0  0  0  0  0  0  0
  -30.0469  -24.5015   18.4097 C   0  0  0  0  0  0  0  0  0  0  0  0
  -29.2945  -22.8714   19.6792 C   0  0  0  0  0  0  0  0  0  0  0  0
  -23.0550  -24.3859   21.1740 C   0  0  0  0  0  0  0  0  0  0  0  0
  -21.5219  -24.0039   23.1111 C   0  0  0  0  0  0  0  0  0  0  0  0
  -26.2001  -15.0390   21.1345 C   0  0  0  0  0  0  0  0  0  0  0  0
  -24.3225  -16.4506   23.3715 C   0  0  0  0  0  0  0  0  0  0  0  0
  -23.6745  -19.1910   25.2995 C   0  0  0  0  0  0  0  0  0  0  0  0
  -27.4977  -26.7673   18.4891 C   0  0  0  0  0  0  0  0  0  0  0  0
  -27.0711  -10.3067   19.4304 C   0  0  0  0  0  0  0  0  0  0  0  0
  -27.9129  -15.8052   22.8184 C   0  0  0  0  0  0  0  0  0  0  0  0
  -25.9711  -17.9416   22.1780 C   0  0  0  0  0  0  0  0  0  0  0  0
  -25.9091  -11.0253   20.1113 C   0  0  0  0  0  0  0  0  0  0  0  0
  -24.5314  -25.6438   16.6511 C   0  0  0  0  0  0  0  0  0  0  0  0
  -25.6120  -12.3457   19.4076 C   0  0  0  0  0  0  0  0  0  0  0  0
  -23.5027  -25.5678   17.7742 C   0  0  0  0  0  0  0  0  0  0  0  0
  -29.8122  -27.7681   16.2707 C   0  0  0  0  0  0  0  0  0  0  0  0
  -25.5359  -26.7781   16.8582 C   0  0  0  0  0  0  0  0  0  0  0  0
  -28.3281  -27.4297   16.0996 C   0  0  0  0  0  0  0  0  0  0  0  0
  -25.1707  -26.6656   19.3092 C   0  0  0  0  0  0  0  0  0  0  0  0
  -26.8179  -13.2905   19.4756 C   0  0  1  0  0  0  0  0  0  0  0  0
  -26.4437  -15.4993   22.5440 C   0  0  1  0  0  0  0  0  0  0  0  0
  -24.2019  -25.4871   19.1393 C   0  0  1  0  0  0  0  0  0  0  0  0
  -29.8451  -26.8214   17.4802 C   0  0  2  0  0  0  0  0  0  0  0  0
  -28.6432  -22.6841   17.2157 C   0  0  0  0  0  0  0  0  0  0  0  0
  -22.0494  -20.0625   27.0016 C   0  0  0  0  0  0  0  0  0  0  0  0
  -22.2772  -16.9451   21.1620 C   0  0  0  0  0  0  0  0  0  0  0  0
  -21.1584  -18.6057   22.6651 C   0  0  0  0  0  0  0  0  0  0  0  0
  -21.2994  -16.2092   23.3430 C   0  0  0  0  0  0  0  0  0  0  0  0
  -30.3146  -23.7601   21.7969 C   0  0  0  0  0  0  0  0  0  0  0  0
  -25.7922  -19.4724   27.3478 C   0  0  0  0  0  0  0  0  0  0  0  0
  -30.3756  -25.4186   17.2586 C   0  0  0  0  0  0  0  0  0  0  0  0
  -28.6829  -21.6838   20.3052 C   0  0  0  0  0  0  0  0  0  1  0  0
  -23.3867  -17.6351   23.3889 C   0  0  1  0  0  0  0  0  0  0  0  0
  -23.3642  -19.3313   26.7789 C   0  0  2  0  0  0  0  0  0  0  0  0
  -22.0579  -17.3516   22.6329 C   0  0  0  0  0  0  0  0  0  0  0  0
  -22.3506  -26.4251   20.4719 N   0  0  0  0  0  0  0  0  0  0  0  0
  -30.4967  -24.7949   19.6327 N   0  0  0  0  0  0  0  0  0  0  0  0
  -30.0226  -23.7854   20.3824 N   0  0  0  0  0  0  0  0  0  0  0  0
  -23.2042  -25.4050   20.2800 N   0  0  0  0  0  0  0  0  0  0  0  0
  -25.5736  -16.6546   22.7723 N   0  0  0  0  0  0  0  0  0  0  0  0
  -26.1289  -26.7467   18.2004 N   0  0  0  0  0  0  0  0  0  0  0  0
  -28.3815  -26.8566   17.4366 N   0  0  0  0  0  0  0  0  0  0  0  0
  -23.8317  -23.2829   21.1245 N   0  0  0  0  0  0  0  0  0  0  0  0
  -20.4699  -24.5421   23.8647 N   0  0  0  0  0  0  0  0  0  0  0  0
  -26.9061  -13.9042   20.7833 N   0  0  0  0  0  0  0  0  0  0  0  0
  -23.2109  -17.9960   24.7915 N   0  0  0  0  0  0  0  0  0  0  0  0
  -24.4468  -20.0913   27.4654 N   0  3  0  0  0  0  0  0  0  0  0  0
  -21.9953  -22.8865   23.4283 O   0  0  0  0  0  0  0  0  0  0  0  0
  -25.4278  -15.6661   20.4191 O   0  0  0  0  0  0  0  0  0  0  0  0
  -23.9597  -15.3858   23.8776 O   0  0  0  0  0  0  0  0  0  0  0  0
  -24.2655  -20.0568   24.6579 O   0  0  0  0  0  0  0  0  0  0  0  0
  -27.9212  -26.7381   19.6522 O   0  0  0  0  0  0  0  0  0  0  0  0
  -17.5857  -29.2991   23.5679 O   0  0  0  0  0  0  0  0  0  0  0  0
  -29.6867  -20.7076   20.5846 O   0  0  0  0  0  0  0  0  0  1  0  0
  -12.7723  -26.9216   24.8262 F   0  0  0  0  0  0  0  0  0  0  0  0
  -15.2449  -30.0932   22.3298 F   0  0  0  0  0  0  0  0  0  0  0  0
  1  2  1  0  0  0  0
  1  5  2  0  0  0  0
  2  6  2  0  0  0  0
  3  8  2  0  0  0  0
  3 15  1  0  0  0  0
  4  9  1  0  0  0  0
  4 15  2  0  0  0  0
  5 17  1  0  0  0  0
  6 19  1  0  0  0  0
  7 10  2  0  0  0  0
  7 18  1  0  0  0  0
  8 22  1  0  0  0  0
  9 22  2  0  0  0  0
 10 23  1  0  0  0  0
 11 12  2  0  0  0  0
 11 24  1  0  0  0  0
 12 25  1  0  0  0  0
 13 20  1  0  0  0  0
 13 23  2  0  0  0  0
 14 25  2  0  0  0  0
 14 26  1  0  0  0  0
 15 27  1  0  0  0  0
 16 27  1  0  0  0  0
 16 30  2  0  0  0  0
 16 31  1  0  0  0  0
 17 19  2  0  0  0  0
 17 36  1  0  0  0  0
 18 20  2  0  0  0  0
 18 37  1  0  0  0  0
 19 47  1  0  0  0  0
 20 38  1  0  0  0  0
 21 28  1  0  0  0  0
 21 29  2  0  0  0  0
 21 51  1  0  0  0  0
 22 80  1  0  0  0  0
 23 81  1  0  0  0  0
 24 26  2  0  0  0  0
 24 80  1  0  0  0  0
 25 82  1  0  0  0  0
 26 83  1  0  0  0  0
 27 63  2  0  0  0  0
 28 58  1  0  0  0  0
 28 64  2  0  0  0  0
 29 59  1  0  0  0  0
 29 65  1  0  0  0  0
 30 66  1  0  0  0  0
 30 70  1  0  0  0  0
 31 71  1  0  0  0  0
 31 75  2  0  0  0  0
 32 48  1  0  0  0  0
 32 72  1  0  0  0  0
 32 76  2  0  0  0  0
 33 60  1  0  0  0  0
 33 67  1  0  0  0  0
 33 77  2  0  0  0  0
 34 61  1  0  0  0  0
 34 73  1  0  0  0  0
 34 78  2  0  0  0  0
 35 68  1  0  0  0  0
 35 69  1  0  0  0  0
 35 79  2  0  0  0  0
 36 39  1  0  0  0  0
 37 48  1  0  0  0  0
 38 67  1  0  0  0  0
 39 41  1  0  0  0  0
 40 42  1  0  0  0  0
 40 44  1  0  0  0  0
 41 47  1  0  0  0  0
 42 49  1  0  0  0  0
 43 45  1  0  0  0  0
 43 50  1  0  0  0  0
 44 68  1  0  0  0  0
 45 69  1  0  0  0  0
 46 49  1  0  0  0  0
 46 68  1  0  0  0  0
 47 72  1  0  0  0  0
 48 67  1  0  0  0  0
 49 66  1  0  0  0  0
 50 58  1  0  0  0  0
 50 69  1  0  0  0  0
 52 61  1  0  0  0  0
 53 62  1  0  0  0  0
 54 62  1  0  0  0  0
 55 62  1  0  0  0  0
 56 65  1  0  0  0  0
 57 74  1  0  0  0  0
 59 81  1  0  0  0  0
 60 62  1  0  0  0  0
 60 73  1  0  0  0  0
 61 74  1  0  0  0  0
 63 66  1  0  0  0  0
 64 65  1  0  0  0  0
M  CHG  1  74   1
M  ISO  4  35 100  59 101  69 100  81 101
M  END
> <Batch ID>
0189

> <Smiles>
CNC(C)C(=O)NC(C(=O)N1Cc2cc([101O:1][101CH2:1]c3c(C)c(CC4CC[100N:0]4[100C:0](=O)N4CCCC(n5nc(-c6ccc(Oc7ccc(F)cc7F)cc6)c(C(N)=O)c5N)C4)nn3C)ccc2CC1C(=O)NC1CCCc2ccccc21)C(C)(C)C

> <Shape>
0.219

> <Color>
0.078

> <Negative vol penalty>
0.000

$$$$

  -OEChem-04052323223D

 80 88  0     1  0  0  0  0  0999 V2000
  -27.6412  -32.3849   26.8409 C   0  0  0  0  0  0  0  0  0  0  0  0
  -27.9634  -31.1167   26.3684 C   0  0  0  0  0  0  0  0  0  0  0  0
  -24.3323  -15.6713   22.2758 C   0  0  0  0  0  0  0  0  0  0  0  0
  -23.3414  -15.6141   20.0731 C   0  0  0  0  0  0  0  0  0  0  0  0
  -26.4111  -32.9562   26.5179 C   0  0  0  0  0  0  0  0  0  0  0  0
  -27.0551  -30.4186   25.5734 C   0  0  0  0  0  0  0  0  0  0  0  0
  -28.3675  -26.6259   20.9475 C   0  0  0  0  0  0  0  0  0  0  0  0
  -23.6766  -16.8738   22.5396 C   0  0  0  0  0  0  0  0  0  0  0  0
  -22.6856  -16.8167   20.3369 C   0  0  0  0  0  0  0  0  0  0  0  0
  -28.4500  -25.2364   20.8684 C   0  0  0  0  0  0  0  0  0  0  0  0
  -21.0348  -20.0544   20.2961 C   0  0  0  0  0  0  0  0  0  0  0  0
  -21.0527  -21.0339   19.3032 C   0  0  0  0  0  0  0  0  0  0  0  0
  -26.1814  -25.1541   20.0525 C   0  0  0  0  0  0  0  0  0  0  0  0
  -23.4660  -21.0904   19.4024 C   0  0  0  0  0  0  0  0  0  0  0  0
  -24.1647  -15.0414   21.0426 C   0  0  0  0  0  0  0  0  0  0  0  0
  -24.3652  -12.4985   21.0174 C   0  0  0  0  0  0  0  0  0  0  0  0
  -25.4912  -32.2688   25.7105 C   0  0  0  0  0  0  0  0  0  0  0  0
  -27.1856  -27.2902   20.5895 C   0  0  0  0  0  0  0  0  0  0  0  0
  -25.8110  -30.9807   25.2403 C   0  0  0  0  0  0  0  0  0  0  0  0
  -26.0873  -26.5522   20.1255 C   0  0  0  0  0  0  0  0  0  0  0  0
  -22.8533  -17.4465   21.5702 C   0  0  0  0  0  0  0  0  0  0  0  0
  -27.3560  -24.5000   20.4236 C   0  0  0  0  0  0  0  0  0  0  0  0
  -22.2325  -19.5929   20.8422 C   0  0  0  0  0  0  0  0  0  0  0  0
  -22.2683  -21.5519   18.8564 C   0  0  0  0  0  0  0  0  0  0  0  0
  -23.4481  -20.1109   20.3953 C   0  0  0  0  0  0  0  0  0  0  0  0
  -24.8422  -13.7995   20.7693 C   0  0  0  0  0  0  0  0  0  0  0  0
  -25.3747  -11.6742   20.5838 C   0  0  0  0  0  0  0  0  0  0  0  0
  -23.1209  -12.0731   21.5888 C   0  0  0  0  0  0  0  0  0  0  0  0
  -25.0982  -29.1360   22.1191 C   0  0  0  0  0  0  0  0  0  0  0  0
  -28.6411  -20.6300   19.6887 C   0  0  0  0  0  0  0  0  0  0  0  0
  -23.8199  -29.4763   19.1573 C   0  0  0  0  0  0  0  0  0  0  0  0
  -23.4225  -28.2157   16.0109 C   0  0  0  0  0  0  0  0  0  0  0  0
  -28.8859  -15.4074   18.2342 C   0  0  0  0  0  0  0  0  0  0  0  0
  -24.1547  -32.9076   25.4270 C   0  0  0  0  0  0  0  0  0  0  0  0
  -27.1216  -28.7915   20.6551 C   0  0  0  0  0  0  0  0  0  0  0  0
  -24.8024  -27.2191   19.7099 C   0  0  0  0  0  0  0  0  0  0  0  0
  -23.4017  -32.2566   24.2697 C   0  0  0  0  0  0  0  0  0  0  0  0
  -29.3555  -13.1286   21.1649 C   0  0  0  0  0  0  0  0  0  0  0  0
  -23.4261  -30.7373   24.4043 C   0  0  0  0  0  0  0  0  0  0  0  0
  -28.7499  -11.8344   20.6256 C   0  0  0  0  0  0  0  0  0  0  0  0
  -29.9182  -13.9786   20.0342 C   0  0  0  0  0  0  0  0  0  0  0  0
  -29.0318  -18.8584   18.0120 C   0  0  0  0  0  0  0  0  0  0  0  0
  -28.0681  -18.2104   20.2040 C   0  0  0  0  0  0  0  0  0  0  0  0
  -29.9441  -17.6400   18.0674 C   0  0  0  0  0  0  0  0  0  0  0  0
  -28.9677  -16.9731   20.2273 C   0  0  0  0  0  0  0  0  0  0  0  0
  -28.2753  -13.0243   18.4412 C   0  0  0  0  0  0  0  0  0  0  0  0
  -24.8623  -30.2022   24.3548 C   0  0  1  0  0  0  0  0  0  0  0  0
  -25.6957  -29.3251   20.7535 C   0  0  1  0  0  0  0  0  0  0  0  0
  -27.7005  -12.0913   19.5259 C   0  0  2  0  0  0  0  0  0  0  0  0
  -22.2927  -28.6996   13.8231 C   0  0  0  0  0  0  0  0  0  0  0  0
  -21.1488  -28.6037   20.3464 C   0  0  0  0  0  0  0  0  0  0  0  0
  -20.3265  -28.1908   18.0180 C   0  0  0  0  0  0  0  0  0  0  0  0
  -20.9967  -30.4910   18.7126 C   0  0  0  0  0  0  0  0  0  0  0  0
  -26.0055  -28.3381   14.5716 C   0  0  0  0  0  0  0  0  0  0  0  0
  -28.2070  -20.9883   21.0878 C   0  0  0  0  0  0  0  0  0  0  0  0
  -28.2941  -22.4876   21.2755 C   0  0  0  0  0  0  0  0  0  1  0  0
  -22.7807  -28.7366   18.3500 C   0  0  1  0  0  0  0  0  0  0  0  0
  -23.5636  -28.8585   14.6430 C   0  0  2  0  0  0  0  0  0  0  0  0
  -21.3366  -28.9925   18.8663 C   0  0  0  0  0  0  0  0  0  0  0  0
  -26.0600  -13.8063   20.2207 N   0  0  0  0  0  0  0  0  0  0  0  0
  -26.3568  -12.4994   20.1206 N   0  0  0  0  0  0  0  0  0  0  0  0
  -24.7869  -28.6887   19.7979 N   0  0  0  0  0  0  0  0  0  0  0  0
  -28.6177  -19.2749   19.3544 N   0  0  0  0  0  0  0  0  0  0  0  0
  -28.9166  -14.2227   18.9898 N   0  0  0  0  0  0  0  0  0  0  0  0
  -29.3421  -16.5744   18.8655 N   0  0  0  0  0  0  0  0  0  0  0  0
  -25.5091  -10.3312   20.5574 N   0  0  0  0  0  0  0  0  0  0  0  0
  -22.1964  -13.0510   21.9801 N   0  0  0  0  0  0  0  0  0  0  0  0
  -25.3463  -30.1788   22.9911 N   0  0  0  0  0  0  0  0  0  0  0  0
  -22.9947  -29.1209   16.9590 N   0  0  0  0  0  0  0  0  0  0  0  0
  -24.6890  -28.2346   13.8911 N   0  3  0  0  0  0  0  0  0  0  0  0
  -22.8441  -10.8620   21.7626 O   0  0  0  0  0  0  0  0  0  0  0  0
  -24.4582  -28.1198   22.3631 O   0  0  0  0  0  0  0  0  0  0  0  0
  -28.9936  -21.5271   18.9187 O   0  0  0  0  0  0  0  0  0  0  0  0
  -23.7796  -30.7080   19.2115 O   0  0  0  0  0  0  0  0  0  0  0  0
  -23.6636  -27.0283   16.2171 O   0  0  0  0  0  0  0  0  0  0  0  0
  -28.4642  -15.4208   17.0711 O   0  0  0  0  0  0  0  0  0  0  0  0
  -22.2132  -18.6198   21.8273 O   0  0  0  0  0  0  0  0  0  0  0  0
  -27.4342  -23.1342   20.3455 O   0  0  0  0  0  0  0  0  0  1  0  0
  -22.2854  -22.4915   17.9018 F   0  0  0  0  0  0  0  0  0  0  0  0
  -24.6021  -19.6706   20.9154 F   0  0  0  0  0  0  0  0  0  0  0  0
  1  2  1  0  0  0  0
  1  5  2  0  0  0  0
  2  6  2  0  0  0  0
  3  8  2  0  0  0  0
  3 15  1  0  0  0  0
  4  9  1  0  0  0  0
  4 15  2  0  0  0  0
  5 17  1  0  0  0  0
  6 19  1  0  0  0  0
  7 10  2  0  0  0  0
  7 18  1  0  0  0  0
  8 21  1  0  0  0  0
  9 21  2  0  0  0  0
 10 22  1  0  0  0  0
 11 12  2  0  0  0  0
 11 23  1  0  0  0  0
 12 24  1  0  0  0  0
 13 20  1  0  0  0  0
 13 22  2  0  0  0  0
 14 24  2  0  0  0  0
 14 25  1  0  0  0  0
 15 26  1  0  0  0  0
 16 26  1  0  0  0  0
 16 27  2  0  0  0  0
 16 28  1  0  0  0  0
 17 19  2  0  0  0  0
 17 34  1  0  0  0  0
 18 20  2  0  0  0  0
 18 35  1  0  0  0  0
 19 47  1  0  0  0  0
 20 36  1  0  0  0  0
 21 77  1  0  0  0  0
 22 78  1  0  0  0  0
 23 25  2  0  0  0  0
 23 77  1  0  0  0  0
 24 79  1  0  0  0  0
 25 80  1  0  0  0  0
 26 60  2  0  0  0  0
 27 61  1  0  0  0  0
 27 66  1  0  0  0  0
 28 67  1  0  0  0  0
 28 71  2  0  0  0  0
 29 48  1  0  0  0  0
 29 68  1  0  0  0  0
 29 72  2  0  0  0  0
 30 55  1  0  0  0  0
 30 63  1  0  0  0  0
 30 73  2  0  0  0  0
 31 57  1  0  0  0  0
 31 62  1  0  0  0  0
 31 74  2  0  0  0  0
 32 58  1  0  0  0  0
 32 69  1  0  0  0  0
 32 75  2  0  0  0  0
 33 64  1  0  0  0  0
 33 65  1  0  0  0  0
 33 76  2  0  0  0  0
 34 37  1  0  0  0  0
 35 48  1  0  0  0  0
 36 62  1  0  0  0  0
 37 39  1  0  0  0  0
 38 40  1  0  0  0  0
 38 41  1  0  0  0  0
 39 47  1  0  0  0  0
 40 49  1  0  0  0  0
 41 64  1  0  0  0  0
 42 44  1  0  0  0  0
 42 63  1  0  0  0  0
 43 45  1  0  0  0  0
 43 63  1  0  0  0  0
 44 65  1  0  0  0  0
 45 65  1  0  0  0  0
 46 49  1  0  0  0  0
 46 64  1  0  0  0  0
 47 68  1  0  0  0  0
 48 62  1  0  0  0  0
 49 61  1  0  0  0  0
 50 58  1  0  0  0  0
 51 59  1  0  0  0  0
 52 59  1  0  0  0  0
 53 59  1  0  0  0  0
 54 70  1  0  0  0  0
 55 56  1  0  0  0  0
 56 78  1  0  0  0  0
 57 59  1  0  0  0  0
 57 69  1  0  0  0  0
 58 70  1  0  0  0  0
 60 61  1  0  0  0  0
M  CHG  1  70   1
M  ISO  4  33 100  56 101  65 100  78 101
M  END
> <Batch ID>
0189

> <Smiles>
CNC(C)C(=O)NC(C(=O)N1Cc2cc([101O:1][101CH2:1]CC(=O)N3CC[100N:0]([100C:0](=O)N4CCCC(n5nc(-c6ccc(Oc7ccc(F)cc7F)cc6)c(C(N)=O)c5N)C4)CC3)ccc2CC1C(=O)NC1CCCc2ccccc21)C(C)(C)C

> <Shape>
0.264

> <Color>
0.083

> <Negative vol penalty>
0.000

$$$$

  -OEChem-04052323223D

 83 92  0     1  0  0  0  0  0999 V2000
  -28.0785  -36.1039   23.4641 C   0  0  0  0  0  0  0  0  0  0  0  0
  -28.4993  -34.8281   23.1023 C   0  0  0  0  0  0  0  0  0  0  0  0
  -23.1790   -9.9160   21.4108 C   0  0  0  0  0  0  0  0  0  0  0  0
  -23.8891  -10.8672   23.5150 C   0  0  0  0  0  0  0  0  0  0  0  0
  -26.8337  -36.2814   24.0663 C   0  0  0  0  0  0  0  0  0  0  0  0
  -27.6759  -33.7290   23.3436 C   0  0  0  0  0  0  0  0  0  0  0  0
  -27.1182  -28.7142   19.8729 C   0  0  0  0  0  0  0  0  0  0  0  0
  -22.4622   -8.9351   22.0960 C   0  0  0  0  0  0  0  0  0  0  0  0
  -23.1723   -9.8863   24.2003 C   0  0  0  0  0  0  0  0  0  0  0  0
  -27.6805  -27.4418   19.9659 C   0  0  0  0  0  0  0  0  0  0  0  0
  -19.5068   -8.6870   23.7199 C   0  0  0  0  0  0  0  0  0  0  0  0
  -18.2124   -8.4058   23.2829 C   0  0  0  0  0  0  0  0  0  0  0  0
  -25.7010  -26.6565   21.0990 C   0  0  0  0  0  0  0  0  0  0  0  0
  -18.8540   -6.1160   22.8562 C   0  0  0  0  0  0  0  0  0  0  0  0
  -28.4899  -22.5438   19.7354 C   0  0  0  0  0  0  0  0  0  0  0  0
  -30.6946  -22.0190   21.1465 C   0  0  0  0  0  0  0  0  0  0  0  0
  -23.8925  -10.8821   22.1202 C   0  0  0  0  0  0  0  0  0  0  0  0
  -24.1666  -13.1575   21.0001 C   0  0  0  0  0  0  0  0  0  0  0  0
  -25.9905  -35.1851   24.3064 C   0  0  0  0  0  0  0  0  0  0  0  0
  -25.8455  -28.9704   20.4028 C   0  0  0  0  0  0  0  0  0  0  0  0
  -26.4191  -33.8919   23.9509 C   0  0  0  0  0  0  0  0  0  0  0  0
  -25.1237  -27.9323   21.0091 C   0  0  0  0  0  0  0  0  0  0  0  0
  -22.4588   -8.9203   23.4908 C   0  0  0  0  0  0  0  0  0  0  0  0
  -26.9731  -26.4134   20.5816 C   0  0  0  0  0  0  0  0  0  0  0  0
  -20.4749   -7.6828   23.7250 C   0  0  0  0  0  0  0  0  0  0  0  0
  -17.8860   -7.1203   22.8511 C   0  0  0  0  0  0  0  0  0  0  0  0
  -20.1485   -6.3972   23.2931 C   0  0  0  0  0  0  0  0  0  0  0  0
  -24.6336  -11.8953   21.4129 C   0  0  0  0  0  0  0  0  0  0  0  0
  -29.2351  -23.5591   20.2936 C   0  0  0  0  0  0  0  0  0  0  0  0
  -29.9491  -21.0037   20.5890 C   0  0  0  0  0  0  0  0  0  0  0  0
  -25.2451  -13.7353   20.3759 C   0  0  0  0  0  0  0  0  0  0  0  0
  -22.8736  -13.7545   21.1661 C   0  0  0  0  0  0  0  0  0  0  0  0
  -24.7040  -30.8783   22.6745 C   0  0  0  0  0  0  0  0  0  0  0  0
  -21.8401  -29.8042   21.5943 C   0  0  0  0  0  0  0  0  0  0  0  0
  -20.0817  -27.3628   19.9835 C   0  0  0  0  0  0  0  0  0  0  0  0
  -30.6931  -14.9303   20.1861 C   0  0  0  0  0  0  0  0  0  0  0  0
  -24.6737  -35.4209   25.0029 C   0  0  0  0  0  0  0  0  0  0  0  0
  -25.2419  -30.3417   20.2706 C   0  0  0  0  0  0  0  0  0  0  0  0
  -23.7455  -28.1505   21.5759 C   0  0  0  0  0  0  0  0  0  0  0  0
  -23.7028  -34.2490   24.8830 C   0  0  0  0  0  0  0  0  0  0  0  0
  -29.6735  -11.7520   18.9470 C   0  0  0  0  0  0  0  0  0  0  0  0
  -24.4150  -32.9331   25.1797 C   0  0  0  0  0  0  0  0  0  0  0  0
  -28.2358  -11.6076   19.4492 C   0  0  0  0  0  0  0  0  0  0  0  0
  -31.4353  -17.8180   21.7056 C   0  0  0  0  0  0  0  0  0  0  0  0
  -30.5582  -12.4666   19.9661 C   0  0  0  0  0  0  0  0  0  0  0  0
  -31.5624  -19.3316   21.5348 C   0  0  0  0  0  0  0  0  0  0  0  0
  -28.6077  -13.6269   20.9267 C   0  0  0  0  0  0  0  0  0  0  0  0
  -29.6637  -18.5307   20.2653 C   0  0  0  0  0  0  0  0  0  0  0  0
  -25.5438  -32.6777   24.1737 C   0  0  1  0  0  0  0  0  0  0  0  0
  -24.1518  -30.6167   21.3018 C   0  0  1  0  0  0  0  0  0  0  0  0
  -27.6642  -12.9620   19.9099 C   0  0  2  0  0  0  0  0  0  0  0  0
  -30.6728  -17.3972   20.4568 C   0  0  2  0  0  0  0  0  0  0  0  0
  -17.7507  -26.7476   19.2870 C   0  0  0  0  0  0  0  0  0  0  0  0
  -21.1898  -29.0215   24.4708 C   0  0  0  0  0  0  0  0  0  0  0  0
  -19.3320  -27.5937   23.5888 C   0  0  0  0  0  0  0  0  0  0  0  0
  -19.2911  -30.0602   23.2176 C   0  0  0  0  0  0  0  0  0  0  0  0
  -20.8161  -27.3543   17.1165 C   0  0  0  0  0  0  0  0  0  0  0  0
  -28.8221  -24.9910   20.1194 C   0  0  0  0  0  0  0  0  0  1  0  0
  -20.9393  -28.6401   21.9296 C   0  0  1  0  0  0  0  0  0  0  0  0
  -19.0454  -27.4317   18.8764 C   0  0  2  0  0  0  0  0  0  0  0  0
  -20.2148  -28.8249   23.2929 C   0  0  0  0  0  0  0  0  0  0  0  0
  -30.3510  -23.3149   21.0088 N   0  0  0  0  0  0  0  0  0  0  0  0
  -28.8334  -21.2479   19.8734 N   0  0  0  0  0  0  0  0  0  0  0  0
  -25.9093  -11.6829   21.0789 N   0  0  0  0  0  0  0  0  0  0  0  0
  -26.2531  -12.8195   20.4496 N   0  0  0  0  0  0  0  0  0  0  0  0
  -30.3694  -19.7042   20.7772 N   0  0  3  0  0  0  0  0  0  0  0  0
  -23.2009  -29.5103   21.4278 N   0  0  0  0  0  0  0  0  0  0  0  0
  -29.9605  -13.7446   20.3603 N   0  0  0  0  0  0  0  0  0  0  0  0
  -25.4199  -14.9322   19.7766 N   0  0  0  0  0  0  0  0  0  0  0  0
  -21.8803  -13.0228   21.8312 N   0  0  0  0  0  0  0  0  0  0  0  0
  -25.0034  -32.2053   22.9170 N   0  0  0  0  0  0  0  0  0  0  0  0
  -20.0401  -28.4789   20.7921 N   0  0  0  0  0  0  0  0  0  0  0  0
  -30.0505  -16.0977   20.5796 N   0  0  0  0  0  0  0  0  0  0  0  0
  -19.5580  -26.7671   17.6449 N   0  3  0  0  0  0  0  0  0  0  0  0
  -22.6021  -14.8961   20.7228 O   0  0  0  0  0  0  0  0  0  0  0  0
  -24.8464  -29.9454   23.4563 O   0  0  0  0  0  0  0  0  0  0  0  0
  -21.3532  -30.9315   21.4771 O   0  0  0  0  0  0  0  0  0  0  0  0
  -20.8488  -26.4123   20.1197 O   0  0  0  0  0  0  0  0  0  0  0  0
  -31.8332  -14.9478   19.7098 O   0  0  0  0  0  0  0  0  0  0  0  0
  -21.7593   -7.9634   24.1599 O   0  0  0  0  0  0  0  0  0  0  0  0
  -27.5198  -25.1707   20.6744 O   0  0  0  0  0  0  0  0  0  1  0  0
  -16.6425   -6.8500   22.4329 F   0  0  0  0  0  0  0  0  0  0  0  0
  -21.0739   -5.4280   23.2968 F   0  0  0  0  0  0  0  0  0  0  0  0
  1  2  1  0  0  0  0
  1  5  2  0  0  0  0
  2  6  2  0  0  0  0
  3  8  2  0  0  0  0
  3 17  1  0  0  0  0
  4  9  1  0  0  0  0
  4 17  2  0  0  0  0
  5 19  1  0  0  0  0
  6 21  1  0  0  0  0
  7 10  2  0  0  0  0
  7 20  1  0  0  0  0
  8 23  1  0  0  0  0
  9 23  2  0  0  0  0
 10 24  1  0  0  0  0
 11 12  2  0  0  0  0
 11 25  1  0  0  0  0
 12 26  1  0  0  0  0
 13 22  1  0  0  0  0
 13 24  2  0  0  0  0
 14 26  2  0  0  0  0
 14 27  1  0  0  0  0
 15 29  1  0  0  0  0
 15 63  2  0  0  0  0
 16 30  2  0  0  0  0
 16 62  1  0  0  0  0
 17 28  1  0  0  0  0
 18 28  1  0  0  0  0
 18 31  2  0  0  0  0
 18 32  1  0  0  0  0
 19 21  2  0  0  0  0
 19 37  1  0  0  0  0
 20 22  2  0  0  0  0
 20 38  1  0  0  0  0
 21 49  1  0  0  0  0
 22 39  1  0  0  0  0
 23 80  1  0  0  0  0
 24 81  1  0  0  0  0
 25 27  2  0  0  0  0
 25 80  1  0  0  0  0
 26 82  1  0  0  0  0
 27 83  1  0  0  0  0
 28 64  2  0  0  0  0
 29 58  1  0  0  0  0
 29 62  2  0  0  0  0
 30 63  1  0  0  0  0
 30 66  1  0  0  0  0
 31 65  1  0  0  0  0
 31 69  1  0  0  0  0
 32 70  1  0  0  0  0
 32 75  2  0  0  0  0
 33 50  1  0  0  0  0
 33 71  1  0  0  0  0
 33 76  2  0  0  0  0
 34 59  1  0  0  0  0
 34 67  1  0  0  0  0
 34 77  2  0  0  0  0
 35 60  1  0  0  0  0
 35 72  1  0  0  0  0
 35 78  2  0  0  0  0
 36 68  1  0  0  0  0
 36 73  1  0  0  0  0
 36 79  2  0  0  0  0
 37 40  1  0  0  0  0
 38 50  1  0  0  0  0
 39 67  1  0  0  0  0
 40 42  1  0  0  0  0
 41 43  1  0  0  0  0
 41 45  1  0  0  0  0
 42 49  1  0  0  0  0
 43 51  1  0  0  0  0
 44 46  1  0  0  0  0
 44 52  1  0  0  0  0
 45 68  1  0  0  0  0
 46 66  1  0  0  0  0
 47 51  1  0  0  0  0
 47 68  1  0  0  0  0
 48 52  1  0  0  0  0
 48 66  1  0  0  0  0
 49 71  1  0  0  0  0
 50 67  1  0  0  0  0
 51 65  1  0  0  0  0
 52 73  1  0  0  0  0
 53 60  1  0  0  0  0
 54 61  1  0  0  0  0
 55 61  1  0  0  0  0
 56 61  1  0  0  0  0
 57 74  1  0  0  0  0
 58 81  1  0  0  0  0
 59 61  1  0  0  0  0
 59 72  1  0  0  0  0
 60 74  1  0  0  0  0
 64 65  1  0  0  0  0
M  CHG  1  74   1
M  ISO  4  36 100  58 101  73 100  81 101
M  END
> <Batch ID>
0189

> <Smiles>
CNC(C)C(=O)NC(C(=O)N1Cc2cc([101O:1][101CH2:1]c3cnc(N4CCC([100NH:0][100C:0](=O)N5CCCC(n6nc(-c7ccc(Oc8ccc(F)cc8F)cc7)c(C(N)=O)c6N)C5)C4)cn3)ccc2CC1C(=O)NC1CCCc2ccccc21)C(C)(C)C

> <Shape>
0.364

> <Color>
0.164

> <Negative vol penalty>
0.000

$$$$

  -OEChem-04052323223D

 80 89  0     1  0  0  0  0  0999 V2000
  -29.7378  -17.9929   16.4444 C   0  0  0  0  0  0  0  0  0  0  0  0
  -29.8692  -18.6525   17.6623 C   0  0  0  0  0  0  0  0  0  0  0  0
  -23.0664   -9.8731   19.9559 C   0  0  0  0  0  0  0  0  0  0  0  0
  -23.8785   -9.8743   22.2313 C   0  0  0  0  0  0  0  0  0  0  0  0
  -30.5607  -18.3387   15.3734 C   0  0  0  0  0  0  0  0  0  0  0  0
  -30.8243  -19.6576   17.8101 C   0  0  0  0  0  0  0  0  0  0  0  0
  -29.0006  -23.7351   20.1961 C   0  0  0  0  0  0  0  0  0  0  0  0
  -22.3355   -8.7142   20.2173 C   0  0  0  0  0  0  0  0  0  0  0  0
  -23.1475   -8.7154   22.4928 C   0  0  0  0  0  0  0  0  0  0  0  0
  -28.8767  -23.6590   21.5827 C   0  0  0  0  0  0  0  0  0  0  0  0
  -21.2104   -5.9599   23.8614 C   0  0  0  0  0  0  0  0  0  0  0  0
  -20.4814   -5.9063   25.0494 C   0  0  0  0  0  0  0  0  0  0  0  0
  -30.9346  -24.8933   21.8284 C   0  0  0  0  0  0  0  0  0  0  0  0
  -19.2086   -7.8392   24.3556 C   0  0  0  0  0  0  0  0  0  0  0  0
  -23.8380  -10.4531   20.9629 C   0  0  0  0  0  0  0  0  0  0  0  0
  -24.1616  -12.9808   20.8470 C   0  0  0  0  0  0  0  0  0  0  0  0
  -31.5198  -19.3552   15.5052 C   0  0  0  0  0  0  0  0  0  0  0  0
  -30.1000  -24.3825   19.6143 C   0  0  0  0  0  0  0  0  0  0  0  0
  -31.6617  -20.0164   16.7401 C   0  0  0  0  0  0  0  0  0  0  0  0
  -31.0689  -24.9784   20.4342 C   0  0  0  0  0  0  0  0  0  0  0  0
  -22.3760   -8.1354   21.4857 C   0  0  0  0  0  0  0  0  0  0  0  0
  -29.8452  -24.2356   22.3991 C   0  0  0  0  0  0  0  0  0  0  0  0
  -20.9386   -6.9532   22.9205 C   0  0  0  0  0  0  0  0  0  0  0  0
  -19.4805   -6.8459   25.2964 C   0  0  0  0  0  0  0  0  0  0  0  0
  -19.9377   -7.8928   23.1676 C   0  0  0  0  0  0  0  0  0  0  0  0
  -24.5937  -11.6499   20.6933 C   0  0  0  0  0  0  0  0  0  0  0  0
  -25.2406  -13.7387   20.4624 C   0  0  0  0  0  0  0  0  0  0  0  0
  -22.8979  -13.4868   21.2972 C   0  0  0  0  0  0  0  0  0  0  0  0
  -32.4866  -23.4831   17.7171 C   0  0  0  0  0  0  0  0  0  0  0  0
  -33.1543  -26.6575   17.7028 C   0  0  0  0  0  0  0  0  0  0  0  0
  -32.8908  -29.6806   19.2642 C   0  0  0  0  0  0  0  0  0  0  0  0
  -30.7502  -14.7259   20.6835 C   0  0  0  0  0  0  0  0  0  0  0  0
  -32.4186  -19.6616   14.3334 C   0  0  0  0  0  0  0  0  0  0  0  0
  -30.2053  -24.4791   18.1169 C   0  0  0  0  0  0  0  0  0  0  0  0
  -32.2578  -25.7025   19.8591 C   0  0  0  0  0  0  0  0  0  0  0  0
  -33.1513  -20.9948   14.4601 C   0  0  0  0  0  0  0  0  0  0  0  0
  -29.5534  -12.4266   18.1687 C   0  0  0  0  0  0  0  0  0  0  0  0
  -33.7578  -21.1405   15.8521 C   0  0  0  0  0  0  0  0  0  0  0  0
  -28.1290  -12.1081   18.6268 C   0  0  0  0  0  0  0  0  0  0  0  0
  -29.4233  -22.6553   25.7362 C   0  0  0  0  0  0  0  0  0  0  0  0
  -30.4937  -12.6624   19.3497 C   0  0  0  0  0  0  0  0  0  0  0  0
  -28.8648  -16.2133   21.7293 C   0  0  0  0  0  0  0  0  0  0  0  0
  -30.8621  -16.7978   22.1709 C   0  0  0  0  0  0  0  0  0  0  0  0
  -28.6063  -13.3412   20.7750 C   0  0  0  0  0  0  0  0  0  0  0  0
  -32.6693  -21.1291   16.9321 C   0  0  1  0  0  0  0  0  0  0  0  0
  -31.6323  -24.7163   17.6323 C   0  0  1  0  0  0  0  0  0  0  0  0
  -29.5507  -17.5732   21.9586 C   0  0  0  0  0  0  0  0  0  0  0  0
  -27.6123  -13.1689   19.6170 C   0  0  2  0  0  0  0  0  0  0  0  0
  -29.9109  -21.8127   24.5923 C   0  0  2  0  0  0  0  0  0  0  0  0
  -29.0526  -23.0183   24.3247 C   0  0  2  0  0  0  0  0  0  1  0  0
  -33.5703  -32.0848   19.0295 C   0  0  0  0  0  0  0  0  0  0  0  0
  -35.9913  -25.9372   18.5644 C   0  0  0  0  0  0  0  0  0  0  0  0
  -36.3240  -28.3297   19.2231 C   0  0  0  0  0  0  0  0  0  0  0  0
  -35.8513  -27.7470   16.8441 C   0  0  0  0  0  0  0  0  0  0  0  0
  -30.0753  -30.5883   19.1756 C   0  0  0  0  0  0  0  0  0  0  0  0
  -29.0537  -18.3937   23.1318 C   0  0  0  0  0  0  0  0  0  0  0  0
  -29.7821  -19.7269   23.2242 C   0  0  0  0  0  0  0  0  0  0  0  0
  -33.9967  -27.5766   18.5539 C   0  0  1  0  0  0  0  0  0  0  0  0
  -32.4920  -31.0506   18.7461 C   0  0  2  0  0  0  0  0  0  0  0  0
  -35.5196  -27.3824   18.3075 C   0  0  0  0  0  0  0  0  0  0  0  0
  -25.8492  -11.5638   20.2458 N   0  0  0  0  0  0  0  0  0  0  0  0
  -26.2153  -12.8502   20.1149 N   0  0  0  0  0  0  0  0  0  0  0  0
  -32.3194  -25.7646   18.3895 N   0  0  0  0  0  0  0  0  0  0  0  0
  -29.9413  -13.6680   20.2608 N   0  0  0  0  0  0  0  0  0  0  0  0
  -30.1995  -15.6763   21.5107 N   0  0  0  0  0  0  0  0  0  0  0  0
  -25.4411  -15.0718   20.3909 N   0  0  0  0  0  0  0  0  0  0  0  0
  -21.8995  -12.5699   21.6532 N   0  0  0  0  0  0  0  0  0  0  0  0
  -32.0021  -22.4121   16.9908 N   0  0  0  0  0  0  0  0  0  0  0  0
  -33.5168  -28.9292   18.2922 N   0  0  0  0  0  0  0  0  0  0  0  0
  -29.2925  -20.4708   24.4095 N   0  3  0  0  0  0  0  0  0  0  0  0
  -31.2272  -31.5010   19.3928 N   0  3  0  0  0  0  0  0  0  0  0  0
  -22.6555  -14.7157   21.3658 O   0  0  0  0  0  0  0  0  0  0  0  0
  -33.5104  -23.5024   18.3903 O   0  0  0  0  0  0  0  0  0  0  0  0
  -33.2288  -26.7340   16.4739 O   0  0  0  0  0  0  0  0  0  0  0  0
  -32.6723  -29.3150   20.4171 O   0  0  0  0  0  0  0  0  0  0  0  0
  -31.9250  -14.8383   20.3089 O   0  0  0  0  0  0  0  0  0  0  0  0
  -21.6627   -7.0047   21.7413 O   0  0  0  0  0  0  0  0  0  0  0  0
  -29.7253  -24.1612   23.7725 O   0  0  0  0  0  0  0  0  0  1  0  0
  -18.7794   -6.7933   26.4366 F   0  0  0  0  0  0  0  0  0  0  0  0
  -19.6712   -8.8487   22.2670 F   0  0  0  0  0  0  0  0  0  0  0  0
  1  2  1  0  0  0  0
  1  5  2  0  0  0  0
  2  6  2  0  0  0  0
  3  8  2  0  0  0  0
  3 15  1  0  0  0  0
  4  9  1  0  0  0  0
  4 15  2  0  0  0  0
  5 17  1  0  0  0  0
  6 19  1  0  0  0  0
  7 10  2  0  0  0  0
  7 18  1  0  0  0  0
  8 21  1  0  0  0  0
  9 21  2  0  0  0  0
 10 22  1  0  0  0  0
 11 12  2  0  0  0  0
 11 23  1  0  0  0  0
 12 24  1  0  0  0  0
 13 20  1  0  0  0  0
 13 22  2  0  0  0  0
 14 24  2  0  0  0  0
 14 25  1  0  0  0  0
 15 26  1  0  0  0  0
 16 26  1  0  0  0  0
 16 27  2  0  0  0  0
 16 28  1  0  0  0  0
 17 19  2  0  0  0  0
 17 33  1  0  0  0  0
 18 20  2  0  0  0  0
 18 34  1  0  0  0  0
 19 45  1  0  0  0  0
 20 35  1  0  0  0  0
 21 77  1  0  0  0  0
 22 78  1  0  0  0  0
 23 25  2  0  0  0  0
 23 77  1  0  0  0  0
 24 79  1  0  0  0  0
 25 80  1  0  0  0  0
 26 61  2  0  0  0  0
 27 62  1  0  0  0  0
 27 66  1  0  0  0  0
 28 67  1  0  0  0  0
 28 72  2  0  0  0  0
 29 46  1  0  0  0  0
 29 68  1  0  0  0  0
 29 73  2  0  0  0  0
 30 58  1  0  0  0  0
 30 63  1  0  0  0  0
 30 74  2  0  0  0  0
 31 59  1  0  0  0  0
 31 69  1  0  0  0  0
 31 75  2  0  0  0  0
 32 64  1  0  0  0  0
 32 65  1  0  0  0  0
 32 76  2  0  0  0  0
 33 36  1  0  0  0  0
 34 46  1  0  0  0  0
 35 63  1  0  0  0  0
 36 38  1  0  0  0  0
 37 39  1  0  0  0  0
 37 41  1  0  0  0  0
 38 45  1  0  0  0  0
 39 48  1  0  0  0  0
 40 49  1  0  0  0  0
 40 50  1  0  0  0  0
 41 64  1  0  0  0  0
 42 47  1  0  0  0  0
 42 65  1  0  0  0  0
 43 47  1  0  0  0  0
 43 65  1  0  0  0  0
 44 48  1  0  0  0  0
 44 64  1  0  0  0  0
 45 68  1  0  0  0  0
 46 63  1  0  0  0  0
 47 56  1  0  0  0  0
 48 62  1  0  0  0  0
 49 50  1  0  0  0  0
 49 70  1  0  0  0  0
 50 78  1  0  0  0  0
 51 59  1  0  0  0  0
 52 60  1  0  0  0  0
 53 60  1  0  0  0  0
 54 60  1  0  0  0  0
 55 71  1  0  0  0  0
 56 57  1  0  0  0  0
 57 70  1  0  0  0  0
 58 60  1  0  0  0  0
 58 69  1  0  0  0  0
 59 71  1  0  0  0  0
 61 62  1  0  0  0  0
M  CHG  2  70   1  71   1
M  ISO  4  32 100  50 101  65 100  78 101
M  END
> <Batch ID>
0189

> <Smiles>
CNC(C)C(=O)NC(C(=O)N1Cc2cc([101O:1][101CH:1]3CC3NCCC3C[100N:0]([100C:0](=O)N4CCCC(n5nc(-c6ccc(Oc7ccc(F)cc7F)cc6)c(C(N)=O)c5N)C4)C3)ccc2CC1C(=O)NC1CCCc2ccccc21)C(C)(C)C

> <Shape>
0.217

> <Color>
0.194

> <Negative vol penalty>
0.000

$$$$

  -OEChem-04052323223D

 82 90  0     1  0  0  0  0  0999 V2000
  -22.8658  -23.6649   21.6467 C   0  0  0  0  0  0  0  0  0  0  0  0
  -24.0446  -22.9277   21.6949 C   0  0  0  0  0  0  0  0  0  0  0  0
  -24.6978  -29.2444   22.5273 C   0  0  0  0  0  0  0  0  0  0  0  0
  -24.8960  -30.7365   20.6375 C   0  0  0  0  0  0  0  0  0  0  0  0
  -21.6572  -23.0691   22.0048 C   0  0  0  0  0  0  0  0  0  0  0  0
  -24.0156  -21.5944   22.1022 C   0  0  0  0  0  0  0  0  0  0  0  0
  -26.8031  -18.5925   19.1249 C   0  0  0  0  0  0  0  0  0  0  0  0
  -24.3035  -30.3142   23.3307 C   0  0  0  0  0  0  0  0  0  0  0  0
  -24.5017  -31.8064   21.4409 C   0  0  0  0  0  0  0  0  0  0  0  0
  -28.1842  -18.6129   19.3144 C   0  0  0  0  0  0  0  0  0  0  0  0
  -23.8950  -34.9938   23.0787 C   0  0  0  0  0  0  0  0  0  0  0  0
  -24.6167  -36.1829   22.9750 C   0  0  0  0  0  0  0  0  0  0  0  0
  -28.0319  -16.5764   20.5985 C   0  0  0  0  0  0  0  0  0  0  0  0
  -26.6249  -35.0231   23.6527 C   0  0  0  0  0  0  0  0  0  0  0  0
  -24.9941  -29.4555   21.1806 C   0  0  0  0  0  0  0  0  0  0  0  0
  -24.5704  -27.5035   19.5939 C   0  0  0  0  0  0  0  0  0  0  0  0
  -21.6120  -21.7250   22.4074 C   0  0  0  0  0  0  0  0  0  0  0  0
  -26.0234  -17.5682   19.6809 C   0  0  0  0  0  0  0  0  0  0  0  0
  -22.8055  -20.9804   22.4672 C   0  0  0  0  0  0  0  0  0  0  0  0
  -26.6414  -16.5440   20.4124 C   0  0  0  0  0  0  0  0  0  0  0  0
  -24.2054  -31.5952   22.7875 C   0  0  0  0  0  0  0  0  0  0  0  0
  -28.7985  -17.6063   20.0537 C   0  0  0  0  0  0  0  0  0  0  0  0
  -24.5382  -33.8193   23.4694 C   0  0  0  0  0  0  0  0  0  0  0  0
  -25.9817  -36.1975   23.2620 C   0  0  0  0  0  0  0  0  0  0  0  0
  -25.9031  -33.8340   23.7564 C   0  0  0  0  0  0  0  0  0  0  0  0
  -25.4021  -28.3508   20.3504 C   0  0  0  0  0  0  0  0  0  0  0  0
  -25.4351  -26.6242   18.9892 C   0  0  0  0  0  0  0  0  0  0  0  0
  -23.1439  -27.5107   19.4505 C   0  0  0  0  0  0  0  0  0  0  0  0
  -23.6639  -17.4476   21.8075 C   0  0  0  0  0  0  0  0  0  0  0  0
  -23.5780  -14.3191   20.9544 C   0  0  0  0  0  0  0  0  0  0  0  0
  -25.2206  -11.6238   19.6568 C   0  0  0  0  0  0  0  0  0  0  0  0
  -30.4004  -23.9407   20.4630 C   0  0  0  0  0  0  0  0  0  0  0  0
  -20.2887  -21.1380   22.8303 C   0  0  0  0  0  0  0  0  0  0  0  0
  -24.5380  -17.5460   19.4448 C   0  0  0  0  0  0  0  0  0  0  0  0
  -25.8518  -15.4108   21.0131 C   0  0  0  0  0  0  0  0  0  0  0  0
  -20.2907  -19.6127   22.8916 C   0  0  0  0  0  0  0  0  0  0  0  0
  -30.2604  -26.6444   17.9280 C   0  0  0  0  0  0  0  0  0  0  0  0
  -21.5334  -19.1093   23.6190 C   0  0  0  0  0  0  0  0  0  0  0  0
  -28.9212  -27.3019   18.2643 C   0  0  0  0  0  0  0  0  0  0  0  0
  -32.4882  -21.9028   18.2269 C   0  0  0  0  0  0  0  0  0  0  0  0
  -30.9082  -26.0583   19.1758 C   0  0  0  0  0  0  0  0  0  0  0  0
  -31.8672  -23.2752   18.4681 C   0  0  0  0  0  0  0  0  0  0  0  0
  -28.7139  -25.7304   20.2502 C   0  0  0  0  0  0  0  0  0  0  0  0
  -32.0789  -22.1191   20.5652 C   0  0  0  0  0  0  0  0  0  0  0  0
  -22.8113  -19.5245   22.8800 C   0  0  1  0  0  0  0  0  0  0  0  0
  -23.7789  -16.7344   20.4900 C   0  0  1  0  0  0  0  0  0  0  0  0
  -28.0002  -26.3316   19.0264 C   0  0  1  0  0  0  0  0  0  0  0  0
  -33.1132  -21.6035   19.5813 C   0  0  1  0  0  0  0  0  0  0  0  0
  -24.9011   -9.1934   19.1197 C   0  0  0  0  0  0  0  0  0  0  0  0
  -35.3574  -17.7237   20.3595 C   0  0  0  0  0  0  0  0  0  0  0  0
  -23.8317  -13.6336   23.9168 C   0  0  0  0  0  0  0  0  0  0  0  0
  -24.4569  -11.3022   23.2522 C   0  0  0  0  0  0  0  0  0  0  0  0
  -22.2120  -12.2089   22.6513 C   0  0  0  0  0  0  0  0  0  0  0  0
  -25.7230  -12.0751   16.7753 C   0  0  0  0  0  0  0  0  0  0  0  0
  -31.9376  -17.7463   21.8343 C   0  0  0  0  0  0  0  0  0  0  0  0
  -34.0170  -19.7874   21.0385 C   0  0  0  0  0  0  0  0  0  0  0  0
  -30.6435  -17.0475   21.4463 C   0  0  0  0  0  0  0  0  0  1  0  0
  -24.2588  -13.0606   21.4358 C   0  0  1  0  0  0  0  0  0  0  0  0
  -24.8216  -10.6176   18.5924 C   0  0  2  0  0  0  0  0  0  0  0  0
  -34.1799  -18.2726   21.1594 C   0  0  1  0  0  0  0  0  0  0  0  0
  -23.7048  -12.5736   22.8044 C   0  0  0  0  0  0  0  0  0  0  0  0
  -26.6957  -28.0379   20.2383 N   0  0  0  0  0  0  0  0  0  0  0  0
  -26.6835  -26.9841   19.4044 N   0  0  0  0  0  0  0  0  0  0  0  0
  -24.4018  -15.4369   20.7598 N   0  0  0  0  0  0  0  0  0  0  0  0
  -29.9971  -25.1396   19.8642 N   0  0  0  0  0  0  0  0  0  0  0  0
  -31.4618  -23.2520   19.8774 N   0  0  0  0  0  0  0  0  0  0  0  0
  -25.2418  -25.5860   18.1483 N   0  0  0  0  0  0  0  0  0  0  0  0
  -22.4078  -28.4826   20.1417 N   0  0  0  0  0  0  0  0  0  0  0  0
  -23.0297  -18.6729   21.7305 N   0  0  0  0  0  0  0  0  0  0  0  0
  -24.1270  -12.0871   20.3572 N   0  0  0  0  0  0  0  0  0  0  0  0
  -32.9600  -17.5865   20.8029 N   0  0  0  0  0  0  0  0  0  0  0  0
  -33.3516  -20.1613   19.7551 N   0  3  0  0  0  0  0  0  0  0  0  0
  -25.7203  -10.7315   17.4091 N   0  3  0  0  0  0  0  0  0  0  0  0
  -22.5385  -26.6695   18.7438 O   0  0  0  0  0  0  0  0  0  0  0  0
  -24.1158  -16.9243   22.8192 O   0  0  0  0  0  0  0  0  0  0  0  0
  -22.3613  -14.3087   20.7515 O   0  0  0  0  0  0  0  0  0  0  0  0
  -26.3863  -11.9619   19.8502 O   0  0  0  0  0  0  0  0  0  0  0  0
  -29.8076  -23.4809   21.4479 O   0  0  0  0  0  0  0  0  0  0  0  0
  -23.8205  -32.6394   23.5711 O   0  0  0  0  0  0  0  0  0  0  0  0
  -30.1559  -17.6243   20.2421 O   0  0  0  0  0  0  0  0  0  1  0  0
  -26.6749  -37.3392   23.1609 F   0  0  0  0  0  0  0  0  0  0  0  0
  -26.5268  -32.7086   24.1311 F   0  0  0  0  0  0  0  0  0  0  0  0
  1  2  1  0  0  0  0
  1  5  2  0  0  0  0
  2  6  2  0  0  0  0
  3  8  2  0  0  0  0
  3 15  1  0  0  0  0
  4  9  1  0  0  0  0
  4 15  2  0  0  0  0
  5 17  1  0  0  0  0
  6 19  1  0  0  0  0
  7 10  2  0  0  0  0
  7 18  1  0  0  0  0
  8 21  1  0  0  0  0
  9 21  2  0  0  0  0
 10 22  1  0  0  0  0
 11 12  2  0  0  0  0
 11 23  1  0  0  0  0
 12 24  1  0  0  0  0
 13 20  1  0  0  0  0
 13 22  2  0  0  0  0
 14 24  2  0  0  0  0
 14 25  1  0  0  0  0
 15 26  1  0  0  0  0
 16 26  1  0  0  0  0
 16 27  2  0  0  0  0
 16 28  1  0  0  0  0
 17 19  2  0  0  0  0
 17 33  1  0  0  0  0
 18 20  2  0  0  0  0
 18 34  1  0  0  0  0
 19 45  1  0  0  0  0
 20 35  1  0  0  0  0
 21 79  1  0  0  0  0
 22 80  1  0  0  0  0
 23 25  2  0  0  0  0
 23 79  1  0  0  0  0
 24 81  1  0  0  0  0
 25 82  1  0  0  0  0
 26 62  2  0  0  0  0
 27 63  1  0  0  0  0
 27 67  1  0  0  0  0
 28 68  1  0  0  0  0
 28 74  2  0  0  0  0
 29 46  1  0  0  0  0
 29 69  1  0  0  0  0
 29 75  2  0  0  0  0
 30 58  1  0  0  0  0
 30 64  1  0  0  0  0
 30 76  2  0  0  0  0
 31 59  1  0  0  0  0
 31 70  1  0  0  0  0
 31 77  2  0  0  0  0
 32 65  1  0  0  0  0
 32 66  1  0  0  0  0
 32 78  2  0  0  0  0
 33 36  1  0  0  0  0
 34 46  1  0  0  0  0
 35 64  1  0  0  0  0
 36 38  1  0  0  0  0
 37 39  1  0  0  0  0
 37 41  1  0  0  0  0
 38 45  1  0  0  0  0
 39 47  1  0  0  0  0
 40 42  1  0  0  0  0
 40 48  1  0  0  0  0
 41 65  1  0  0  0  0
 42 66  1  0  0  0  0
 43 47  1  0  0  0  0
 43 65  1  0  0  0  0
 44 48  1  0  0  0  0
 44 66  1  0  0  0  0
 45 69  1  0  0  0  0
 46 64  1  0  0  0  0
 47 63  1  0  0  0  0
 48 72  1  0  0  0  0
 49 59  1  0  0  0  0
 50 60  1  0  0  0  0
 51 61  1  0  0  0  0
 52 61  1  0  0  0  0
 53 61  1  0  0  0  0
 54 73  1  0  0  0  0
 55 57  1  0  0  0  0
 55 71  1  0  0  0  0
 56 60  1  0  0  0  0
 56 72  1  0  0  0  0
 57 80  1  0  0  0  0
 58 61  1  0  0  0  0
 58 70  1  0  0  0  0
 59 73  1  0  0  0  0
 60 71  1  0  0  0  0
 62 63  1  0  0  0  0
M  CHG  2  72   1  73   1
M  ISO  4  32 100  57 101  66 100  80 101
M  END
> <Batch ID>
0189

> <Smiles>
CNC(C)C(=O)NC(C(=O)N1Cc2cc([101O:1][101CH2:1]CNC(C)CNC3CC[100N:0]([100C:0](=O)N4CCCC(n5nc(-c6ccc(Oc7ccc(F)cc7F)cc6)c(C(N)=O)c5N)C4)C3)ccc2CC1C(=O)NC1CCCc2ccccc21)C(C)(C)C

> <Shape>
0.238

> <Color>
0.069

> <Negative vol penalty>
0.000

$$$$

  -OEChem-04052323223D

 85 95  0     1  0  0  0  0  0999 V2000
  -28.8771  -37.2018   23.7623 C   0  0  0  0  0  0  0  0  0  0  0  0
  -29.2527  -36.0333   23.1073 C   0  0  0  0  0  0  0  0  0  0  0  0
  -22.8740  -10.3526   21.5858 C   0  0  0  0  0  0  0  0  0  0  0  0
  -24.5899   -8.7952   20.9022 C   0  0  0  0  0  0  0  0  0  0  0  0
  -27.8706  -37.1664   24.7265 C   0  0  0  0  0  0  0  0  0  0  0  0
  -28.6228  -34.8285   23.4171 C   0  0  0  0  0  0  0  0  0  0  0  0
  -27.3678  -30.2342   19.5669 C   0  0  0  0  0  0  0  0  0  0  0  0
  -21.9029   -9.5386   21.0028 C   0  0  0  0  0  0  0  0  0  0  0  0
  -23.6188   -7.9811   20.3193 C   0  0  0  0  0  0  0  0  0  0  0  0
  -28.0181  -29.0304   19.2994 C   0  0  0  0  0  0  0  0  0  0  0  0
  -21.5538   -5.3126   18.9655 C   0  0  0  0  0  0  0  0  0  0  0  0
  -21.6314   -3.9397   19.1999 C   0  0  0  0  0  0  0  0  0  0  0  0
  -26.5461  -27.8998   20.8402 C   0  0  0  0  0  0  0  0  0  0  0  0
  -21.4124   -4.3326   21.5737 C   0  0  0  0  0  0  0  0  0  0  0  0
  -24.2175   -9.9810   21.5354 C   0  0  0  0  0  0  0  0  0  0  0  0
  -25.6965  -10.7641   23.4608 C   0  0  0  0  0  0  0  0  0  0  0  0
  -27.2213  -35.9622   25.0413 C   0  0  0  0  0  0  0  0  0  0  0  0
  -26.3070  -30.2820   20.4828 C   0  0  0  0  0  0  0  0  0  0  0  0
  -27.6076  -34.7767   24.3873 C   0  0  0  0  0  0  0  0  0  0  0  0
  -25.8823  -29.1050   21.1156 C   0  0  0  0  0  0  0  0  0  0  0  0
  -22.2753   -8.3528   20.3696 C   0  0  0  0  0  0  0  0  0  0  0  0
  -27.6092  -27.8634   19.9383 C   0  0  0  0  0  0  0  0  0  0  0  0
  -21.4056   -6.1954   20.0352 C   0  0  0  0  0  0  0  0  0  0  0  0
  -21.5607   -3.4498   20.5039 C   0  0  0  0  0  0  0  0  0  0  0  0
  -21.3349   -5.7055   21.3393 C   0  0  0  0  0  0  0  0  0  0  0  0
  -25.2212  -10.8217   22.1369 C   0  0  0  0  0  0  0  0  0  0  0  0
  -26.6346  -11.7648   23.5327 C   0  0  0  0  0  0  0  0  0  0  0  0
  -26.0796  -24.0749   19.1919 C   0  0  0  0  0  0  0  0  0  0  0  0
  -27.5173  -25.5634   19.4649 C   0  0  0  0  0  0  0  0  0  1  0  0
  -25.3235   -9.8846   24.5299 C   0  0  0  0  0  0  0  0  0  0  0  0
  -25.7951  -31.7654   23.2470 C   0  0  0  0  0  0  0  0  0  0  0  0
  -22.8194  -30.5163   22.9199 C   0  0  0  0  0  0  0  0  0  0  0  0
  -20.8228  -28.1049   21.5616 C   0  0  0  0  0  0  0  0  0  0  0  0
  -27.1402  -16.7217   20.1139 C   0  0  0  0  0  0  0  0  0  0  0  0
  -26.1718  -35.9650   26.1244 C   0  0  0  0  0  0  0  0  0  0  0  0
  -25.5985  -31.5836   20.7402 C   0  0  0  0  0  0  0  0  0  0  0  0
  -24.7355  -29.0991   22.0920 C   0  0  0  0  0  0  0  0  0  0  0  0
  -25.2953  -34.7152   26.1263 C   0  0  0  0  0  0  0  0  0  0  0  0
  -29.7502  -14.1864   20.8318 C   0  0  0  0  0  0  0  0  0  0  0  0
  -26.1539  -33.4608   26.0000 C   0  0  0  0  0  0  0  0  0  0  0  0
  -23.5390  -24.0633   19.8379 C   0  0  0  0  0  0  0  0  0  0  0  0
  -24.1082  -22.7658   20.3206 C   0  0  0  0  0  0  0  0  0  0  0  0
  -28.9018  -13.0143   21.3270 C   0  0  0  0  0  0  0  0  0  0  0  0
  -29.5402  -19.4291   20.7632 C   0  0  0  0  0  0  0  0  0  0  0  0
  -28.9861  -15.0189   19.8105 C   0  0  0  0  0  0  0  0  0  0  0  0
  -29.3578  -17.9279   20.5628 C   0  0  0  0  0  0  0  0  0  0  0  0
  -26.8203  -14.3703   20.7932 C   0  0  0  0  0  0  0  0  0  0  0  0
  -27.5338  -19.0963   19.5201 C   0  0  0  0  0  0  0  0  0  0  0  0
  -26.9307  -33.4548   24.6779 C   0  0  1  0  0  0  0  0  0  0  0  0
  -24.6868  -23.4259   19.0918 C   0  0  0  0  0  0  0  0  0  0  0  0
  -24.8647  -31.6102   22.0775 C   0  0  1  0  0  0  0  0  0  0  0  0
  -27.5325  -13.4958   21.8404 C   0  0  1  0  0  0  0  0  0  0  0  0
  -28.7542  -19.9958   19.5903 C   0  0  1  0  0  0  0  0  0  0  0  0
  -18.4392  -27.3218   21.5060 C   0  0  0  0  0  0  0  0  0  0  0  0
  -23.1474  -29.3277   25.7108 C   0  0  0  0  0  0  0  0  0  0  0  0
  -21.2116  -27.8179   25.2195 C   0  0  0  0  0  0  0  0  0  0  0  0
  -20.8867  -30.2910   25.2463 C   0  0  0  0  0  0  0  0  0  0  0  0
  -20.6324  -28.5212   18.6376 C   0  0  0  0  0  0  0  0  0  0  0  0
  -27.5472  -22.0117   18.7367 C   0  0  0  0  0  0  0  0  0  0  0  0
  -22.1497  -29.2276   23.3316 C   0  0  1  0  0  0  0  0  0  0  0  0
  -19.4925  -28.1899   20.8353 C   0  0  2  0  0  0  0  0  0  0  0  0
  -21.8718  -29.1662   24.8602 C   0  0  0  0  0  0  0  0  0  0  0  0
  -25.8087  -11.7831   21.4195 N   0  0  0  0  0  0  0  0  0  0  0  0
  -26.2139  -25.4063   19.4642 N   0  0  0  0  0  0  0  0  0  0  0  0
  -28.1220  -24.3734   19.2039 N   0  0  0  0  0  0  0  0  0  0  0  0
  -26.6628  -12.3388   22.2958 N   0  0  0  0  0  0  0  0  0  0  0  0
  -27.2179  -23.3984   19.0242 N   0  0  0  0  0  0  0  0  0  0  0  0
  -24.0788  -30.3977   22.3151 N   0  0  0  0  0  0  0  0  0  0  0  0
  -27.6935  -15.4571   20.3444 N   0  0  0  0  0  0  0  0  0  0  0  0
  -28.0189  -17.7956   19.9788 N   0  0  0  0  0  0  0  0  0  0  0  0
  -27.4298  -12.2009   24.5326 N   0  0  0  0  0  0  0  0  0  0  0  0
  -24.3433   -8.9133   24.2849 N   0  0  0  0  0  0  0  0  0  0  0  0
  -26.0621  -33.0789   23.5831 N   0  0  0  0  0  0  0  0  0  0  0  0
  -20.9561  -29.1045   22.5019 N   0  0  0  0  0  0  0  0  0  0  0  0
  -28.3774  -21.3993   19.8251 N   0  3  0  0  0  0  0  0  0  0  0  0
  -19.6436  -27.7386   19.4230 N   0  3  0  0  0  0  0  0  0  0  0  0
  -25.8322   -9.9686   25.6734 O   0  0  0  0  0  0  0  0  0  0  0  0
  -26.2369  -30.7674   23.8043 O   0  0  0  0  0  0  0  0  0  0  0  0
  -22.2431  -31.5883   23.1207 O   0  0  0  0  0  0  0  0  0  0  0  0
  -21.6584  -27.2361   21.3216 O   0  0  0  0  0  0  0  0  0  0  0  0
  -25.9144  -16.8923   20.0789 O   0  0  0  0  0  0  0  0  0  0  0  0
  -21.3279   -7.5581   19.8009 O   0  0  0  0  0  0  0  0  0  0  0  0
  -28.2590  -26.6569   19.6729 O   0  0  0  0  0  0  0  0  0  1  0  0
  -21.6337   -2.1313   20.7287 F   0  0  0  0  0  0  0  0  0  0  0  0
  -21.1914   -6.5486   22.3709 F   0  0  0  0  0  0  0  0  0  0  0  0
  1  2  1  0  0  0  0
  1  5  2  0  0  0  0
  2  6  2  0  0  0  0
  3  8  2  0  0  0  0
  3 15  1  0  0  0  0
  4  9  1  0  0  0  0
  4 15  2  0  0  0  0
  5 17  1  0  0  0  0
  6 19  1  0  0  0  0
  7 10  2  0  0  0  0
  7 18  1  0  0  0  0
  8 21  1  0  0  0  0
  9 21  2  0  0  0  0
 10 22  1  0  0  0  0
 11 12  2  0  0  0  0
 11 23  1  0  0  0  0
 12 24  1  0  0  0  0
 13 20  1  0  0  0  0
 13 22  2  0  0  0  0
 14 24  2  0  0  0  0
 14 25  1  0  0  0  0
 15 26  1  0  0  0  0
 16 26  1  0  0  0  0
 16 27  2  0  0  0  0
 16 30  1  0  0  0  0
 17 19  2  0  0  0  0
 17 35  1  0  0  0  0
 18 20  2  0  0  0  0
 18 36  1  0  0  0  0
 19 49  1  0  0  0  0
 20 37  1  0  0  0  0
 21 82  1  0  0  0  0
 22 83  1  0  0  0  0
 23 25  2  0  0  0  0
 23 82  1  0  0  0  0
 24 84  1  0  0  0  0
 25 85  1  0  0  0  0
 26 63  2  0  0  0  0
 27 66  1  0  0  0  0
 27 71  1  0  0  0  0
 28 50  1  0  0  0  0
 28 64  2  0  0  0  0
 28 67  1  0  0  0  0
 29 64  1  0  0  0  0
 29 65  2  0  0  0  0
 29 83  1  0  0  0  0
 30 72  1  0  0  0  0
 30 77  2  0  0  0  0
 31 51  1  0  0  0  0
 31 73  1  0  0  0  0
 31 78  2  0  0  0  0
 32 60  1  0  0  0  0
 32 68  1  0  0  0  0
 32 79  2  0  0  0  0
 33 61  1  0  0  0  0
 33 74  1  0  0  0  0
 33 80  2  0  0  0  0
 34 69  1  0  0  0  0
 34 70  1  0  0  0  0
 34 81  2  0  0  0  0
 35 38  1  0  0  0  0
 36 51  1  0  0  0  0
 37 68  1  0  0  0  0
 38 40  1  0  0  0  0
 39 43  1  0  0  0  0
 39 45  1  0  0  0  0
 40 49  1  0  0  0  0
 41 42  1  0  0  0  0
 41 50  1  0  0  0  0
 42 50  1  0  0  0  0
 43 52  1  0  0  0  0
 44 46  1  0  0  0  0
 44 53  1  0  0  0  0
 45 69  1  0  0  0  0
 46 70  1  0  0  0  0
 47 52  1  0  0  0  0
 47 69  1  0  0  0  0
 48 53  1  0  0  0  0
 48 70  1  0  0  0  0
 49 73  1  0  0  0  0
 51 68  1  0  0  0  0
 52 66  1  0  0  0  0
 53 75  1  0  0  0  0
 54 61  1  0  0  0  0
 55 62  1  0  0  0  0
 56 62  1  0  0  0  0
 57 62  1  0  0  0  0
 58 76  1  0  0  0  0
 59 67  1  0  0  0  0
 59 75  1  0  0  0  0
 60 62  1  0  0  0  0
 60 74  1  0  0  0  0
 61 76  1  0  0  0  0
 63 66  1  0  0  0  0
 65 67  1  0  0  0  0
M  CHG  2  75   1  76   1
M  ISO  4  29 101  34 100  70 100  83 101
M  END
> <Batch ID>
0189

> <Smiles>
CNC(C)C(=O)NC(C(=O)N1Cc2cc([101O:1][101c:1]3nc(C4CC4)n(CNC4CC[100N:0]([100C:0](=O)N5CCCC(n6nc(-c7ccc(Oc8ccc(F)cc8F)cc7)c(C(N)=O)c6N)C5)C4)n3)ccc2CC1C(=O)NC1CCCc2ccccc21)C(C)(C)C

> <Shape>
0.288

> <Color>
0.080

> <Negative vol penalty>
0.000

$$$$

  -OEChem-04052323223D

 86 96  0     1  0  0  0  0  0999 V2000
  -29.4908  -35.2682   23.7768 C   0  0  0  0  0  0  0  0  0  0  0  0
  -29.8699  -34.4508   22.7169 C   0  0  0  0  0  0  0  0  0  0  0  0
  -22.8408  -15.3204   19.9683 C   0  0  0  0  0  0  0  0  0  0  0  0
  -22.5266  -13.3052   18.6733 C   0  0  0  0  0  0  0  0  0  0  0  0
  -28.7209  -34.7478   24.8162 C   0  0  0  0  0  0  0  0  0  0  0  0
  -29.4802  -33.1121   22.6963 C   0  0  0  0  0  0  0  0  0  0  0  0
  -27.6727  -27.8932   18.1342 C   0  0  0  0  0  0  0  0  0  0  0  0
  -21.7555  -15.9076   19.3180 C   0  0  0  0  0  0  0  0  0  0  0  0
  -21.4412  -13.8923   18.0230 C   0  0  0  0  0  0  0  0  0  0  0  0
  -28.0002  -26.5746   17.8217 C   0  0  0  0  0  0  0  0  0  0  0  0
  -21.1369  -17.3821   16.3402 C   0  0  0  0  0  0  0  0  0  0  0  0
  -21.2840  -18.6944   15.8909 C   0  0  0  0  0  0  0  0  0  0  0  0
  -26.6043  -25.8051   19.6323 C   0  0  0  0  0  0  0  0  0  0  0  0
  -19.4390  -19.3808   17.2915 C   0  0  0  0  0  0  0  0  0  0  0  0
  -27.1957  -21.3328   17.4706 C   0  0  0  0  0  0  0  0  0  0  0  0
  -23.2264  -14.0192   19.6459 C   0  0  0  0  0  0  0  0  0  0  0  0
  -24.3203  -12.6544   21.5029 C   0  0  0  0  0  0  0  0  0  0  0  0
  -28.3134  -33.4045   24.8036 C   0  0  0  0  0  0  0  0  0  0  0  0
  -26.8156  -28.1787   19.2068 C   0  0  0  0  0  0  0  0  0  0  0  0
  -28.7053  -32.5729   23.7372 C   0  0  0  0  0  0  0  0  0  0  0  0
  -26.2654  -27.1280   19.9548 C   0  0  0  0  0  0  0  0  0  0  0  0
  -21.0557  -15.1935   18.3454 C   0  0  0  0  0  0  0  0  0  0  0  0
  -27.4683  -25.5304   18.5726 C   0  0  0  0  0  0  0  0  0  0  0  0
  -20.1407  -17.0692   17.2651 C   0  0  0  0  0  0  0  0  0  0  0  0
  -20.4351  -19.6938   16.3666 C   0  0  0  0  0  0  0  0  0  0  0  0
  -19.2918  -18.0685   17.7408 C   0  0  0  0  0  0  0  0  0  0  0  0
  -24.3479  -13.4124   20.3169 C   0  0  0  0  0  0  0  0  0  0  0  0
  -27.7031  -20.0951   17.1317 C   0  0  0  0  0  0  0  0  0  0  0  0
  -27.6957  -21.8853   18.6321 C   0  0  0  0  0  0  0  0  0  0  0  0
  -25.6318  -12.3092   21.7203 C   0  0  0  0  0  0  0  0  0  0  0  0
  -29.0359  -20.0813   18.9730 C   0  0  0  0  0  0  0  0  0  0  0  0
  -23.2086  -12.2944   22.3336 C   0  0  0  0  0  0  0  0  0  0  0  0
  -27.1012  -29.7681   21.9446 C   0  0  0  0  0  0  0  0  0  0  0  0
  -23.9175  -29.1863   22.1637 C   0  0  0  0  0  0  0  0  0  0  0  0
  -21.2580  -27.2470   21.2622 C   0  0  0  0  0  0  0  0  0  0  0  0
  -30.7959  -14.8804   19.8537 C   0  0  0  0  0  0  0  0  0  0  0  0
  -27.5217  -32.8751   25.9730 C   0  0  0  0  0  0  0  0  0  0  0  0
  -26.4510  -29.6052   19.5143 C   0  0  0  0  0  0  0  0  0  0  0  0
  -25.3244  -27.3803   21.1035 C   0  0  0  0  0  0  0  0  0  0  0  0
  -26.8346  -31.5417   25.6896 C   0  0  0  0  0  0  0  0  0  0  0  0
  -29.7268  -11.4725   19.4361 C   0  0  0  0  0  0  0  0  0  0  0  0
  -27.8033  -30.5743   25.0170 C   0  0  0  0  0  0  0  0  0  0  0  0
  -28.2194  -11.5197   19.6633 C   0  0  0  0  0  0  0  0  0  0  0  0
  -25.7642  -19.1645   15.4695 C   0  0  0  0  0  0  0  0  0  0  0  0
  -30.2148  -12.7465   18.7597 C   0  0  0  0  0  0  0  0  0  0  0  0
  -28.3793  -14.0575   19.7930 C   0  0  0  0  0  0  0  0  0  0  0  0
  -31.2869  -17.3548   20.2280 C   0  0  0  0  0  0  0  0  0  0  0  0
  -29.3807  -17.0211   19.3435 C   0  0  0  0  0  0  0  0  0  0  0  0
  -26.0969  -17.7001   15.1666 C   0  0  0  0  0  0  0  0  0  0  0  0
  -28.2813  -31.1219   23.6667 C   0  0  1  0  0  0  0  0  0  0  0  0
  -27.2560  -19.3034   15.8431 C   0  0  2  0  0  0  0  0  0  0  0  0
  -25.9755  -29.8041   20.9501 C   0  0  1  0  0  0  0  0  0  0  0  0
  -27.8353  -12.7767   20.4569 C   0  0  1  0  0  0  0  0  0  0  0  0
  -30.4082  -18.1606   19.2625 C   0  0  0  0  0  0  0  0  0  0  0  0
  -18.7885  -26.9956   21.6310 C   0  0  0  0  0  0  0  0  0  0  0  0
  -24.4534  -27.9859   24.9172 C   0  0  0  0  0  0  0  0  0  0  0  0
  -22.1885  -26.9235   24.8180 C   0  0  0  0  0  0  0  0  0  0  0  0
  -22.4012  -29.4087   24.7809 C   0  0  0  0  0  0  0  0  0  0  0  0
  -20.6695  -27.6622   18.3916 C   0  0  0  0  0  0  0  0  0  0  0  0
  -27.2066  -23.2217   19.0801 C   0  0  0  0  0  0  0  0  0  1  0  0
  -23.0706  -28.0769   22.7388 C   0  0  1  0  0  0  0  0  0  0  0  0
  -19.8725  -27.6088   20.7582 C   0  0  2  0  0  0  0  0  0  0  0  0
  -23.0477  -28.0938   24.2934 C   0  0  0  0  0  0  0  0  0  0  0  0
  -25.5793  -13.5416   19.8161 N   0  0  0  0  0  0  0  0  0  0  0  0
  -28.6275  -19.4381   17.8626 N   0  0  0  0  0  0  0  0  0  0  0  0
  -28.6197  -21.2849   19.4106 N   0  0  0  0  0  0  0  0  0  0  0  0
  -26.3377  -12.8603   20.6916 N   0  0  0  0  0  0  0  0  0  0  0  0
  -25.0033  -28.7923   21.3689 N   0  0  0  0  0  0  0  0  0  0  0  0
  -29.8142  -13.9500   19.4948 N   0  0  0  0  0  0  0  0  0  0  0  0
  -30.4421  -16.2087   19.9142 N   0  0  0  0  0  0  0  0  0  0  0  0
  -26.2385  -11.5911   22.6892 N   0  0  0  0  0  0  0  0  0  0  0  0
  -21.9293  -12.7320   21.9644 N   0  0  0  0  0  0  0  0  0  0  0  0
  -27.2597  -30.9411   22.6578 N   0  0  0  0  0  0  0  0  0  0  0  0
  -21.7555  -28.2048   22.1204 N   0  0  0  0  0  0  0  0  0  0  0  0
  -27.2544  -17.8330   16.0651 N   0  3  0  0  0  0  0  0  0  0  0  0
  -19.6849  -27.1199   19.3629 N   0  3  0  0  0  0  0  0  0  0  0  0
  -23.3477  -11.6189   23.3815 O   0  0  0  0  0  0  0  0  0  0  0  0
  -27.7752  -28.7510   22.0577 O   0  0  0  0  0  0  0  0  0  0  0  0
  -23.6223  -30.3595   22.4048 O   0  0  0  0  0  0  0  0  0  0  0  0
  -21.8391  -26.2160   20.9310 O   0  0  0  0  0  0  0  0  0  0  0  0
  -31.9644  -14.5412   20.0835 O   0  0  0  0  0  0  0  0  0  0  0  0
  -19.9964  -15.7660   17.7108 O   0  0  0  0  0  0  0  0  0  0  0  0
  -27.7891  -24.2335   18.2679 O   0  0  0  0  0  0  0  0  0  1  0  0
  -29.9697  -19.4455   19.7360 O   0  0  0  0  0  0  0  0  0  0  0  0
  -20.5775  -20.9542   15.9362 F   0  0  0  0  0  0  0  0  0  0  0  0
  -18.3337  -17.7741   18.6303 F   0  0  0  0  0  0  0  0  0  0  0  0
  1  2  1  0  0  0  0
  1  5  2  0  0  0  0
  2  6  2  0  0  0  0
  3  8  2  0  0  0  0
  3 16  1  0  0  0  0
  4  9  1  0  0  0  0
  4 16  2  0  0  0  0
  5 18  1  0  0  0  0
  6 20  1  0  0  0  0
  7 10  2  0  0  0  0
  7 19  1  0  0  0  0
  8 22  1  0  0  0  0
  9 22  2  0  0  0  0
 10 23  1  0  0  0  0
 11 12  2  0  0  0  0
 11 24  1  0  0  0  0
 12 25  1  0  0  0  0
 13 21  1  0  0  0  0
 13 23  2  0  0  0  0
 14 25  2  0  0  0  0
 14 26  1  0  0  0  0
 15 28  2  0  0  0  0
 15 29  1  0  0  0  0
 16 27  1  0  0  0  0
 17 27  1  0  0  0  0
 17 30  2  0  0  0  0
 17 32  1  0  0  0  0
 18 20  2  0  0  0  0
 18 37  1  0  0  0  0
 19 21  2  0  0  0  0
 19 38  1  0  0  0  0
 20 50  1  0  0  0  0
 21 39  1  0  0  0  0
 22 82  1  0  0  0  0
 23 83  1  0  0  0  0
 24 26  2  0  0  0  0
 24 82  1  0  0  0  0
 25 85  1  0  0  0  0
 26 86  1  0  0  0  0
 27 64  2  0  0  0  0
 28 51  1  0  0  0  0
 28 65  1  0  0  0  0
 29 60  1  0  0  0  0
 29 66  2  0  0  0  0
 30 67  1  0  0  0  0
 30 71  1  0  0  0  0
 31 65  2  0  0  0  0
 31 66  1  0  0  0  0
 31 84  1  0  0  0  0
 32 72  1  0  0  0  0
 32 77  2  0  0  0  0
 33 52  1  0  0  0  0
 33 73  1  0  0  0  0
 33 78  2  0  0  0  0
 34 61  1  0  0  0  0
 34 68  1  0  0  0  0
 34 79  2  0  0  0  0
 35 62  1  0  0  0  0
 35 74  1  0  0  0  0
 35 80  2  0  0  0  0
 36 69  1  0  0  0  0
 36 70  1  0  0  0  0
 36 81  2  0  0  0  0
 37 40  1  0  0  0  0
 38 52  1  0  0  0  0
 39 68  1  0  0  0  0
 40 42  1  0  0  0  0
 41 43  1  0  0  0  0
 41 45  1  0  0  0  0
 42 50  1  0  0  0  0
 43 53  1  0  0  0  0
 44 49  1  0  0  0  0
 44 51  1  0  0  0  0
 45 69  1  0  0  0  0
 46 53  1  0  0  0  0
 46 69  1  0  0  0  0
 47 54  1  0  0  0  0
 47 70  1  0  0  0  0
 48 54  1  0  0  0  0
 48 70  1  0  0  0  0
 49 75  1  0  0  0  0
 50 73  1  0  0  0  0
 51 75  1  0  0  0  0
 52 68  1  0  0  0  0
 53 67  1  0  0  0  0
 54 84  1  0  0  0  0
 55 62  1  0  0  0  0
 56 63  1  0  0  0  0
 57 63  1  0  0  0  0
 58 63  1  0  0  0  0
 59 76  1  0  0  0  0
 60 83  1  0  0  0  0
 61 63  1  0  0  0  0
 61 74  1  0  0  0  0
 62 76  1  0  0  0  0
 64 67  1  0  0  0  0
M  CHG  2  75   1  76   1
M  ISO  4  36 100  60 101  70 100  83 101
M  END
> <Batch ID>
0189

> <Smiles>
CNC(C)C(=O)NC(C(=O)N1Cc2cc([101O:1][101CH2:1]c3cc(C4CCN4)nc(OC4C[100N:0]([100C:0](=O)N5CCCC(n6nc(-c7ccc(Oc8ccc(F)cc8F)cc7)c(C(N)=O)c6N)C5)C4)n3)ccc2CC1C(=O)NC1CCCc2ccccc21)C(C)(C)C

> <Shape>
0.249

> <Color>
0.104

> <Negative vol penalty>
0.000

$$$$

  -OEChem-04052323223D

 80 88  0     1  0  0  0  0  0999 V2000
  -22.3922  -10.6513   19.1323 C   0  0  0  0  0  0  0  0  0  0  0  0
  -22.1255  -11.9442   18.6933 C   0  0  0  0  0  0  0  0  0  0  0  0
  -25.3598  -27.7294   22.1469 C   0  0  0  0  0  0  0  0  0  0  0  0
  -24.9968  -28.9588   20.0990 C   0  0  0  0  0  0  0  0  0  0  0  0
  -23.4625  -10.4159   19.9942 C   0  0  0  0  0  0  0  0  0  0  0  0
  -22.9283  -13.0027   19.1169 C   0  0  0  0  0  0  0  0  0  0  0  0
  -24.4875  -17.9643   15.8832 C   0  0  0  0  0  0  0  0  0  0  0  0
  -26.5580  -27.2312   21.6354 C   0  0  0  0  0  0  0  0  0  0  0  0
  -26.1951  -28.4606   19.5875 C   0  0  0  0  0  0  0  0  0  0  0  0
  -23.9821  -19.2634   15.8563 C   0  0  0  0  0  0  0  0  0  0  0  0
  -27.5336  -24.8135   19.4843 C   0  0  0  0  0  0  0  0  0  0  0  0
  -27.7930  -23.4532   19.6515 C   0  0  0  0  0  0  0  0  0  0  0  0
  -25.6979  -19.9564   17.4039 C   0  0  0  0  0  0  0  0  0  0  0  0
  -29.7937  -23.9877   20.8959 C   0  0  0  0  0  0  0  0  0  0  0  0
  -24.5791  -28.5932   21.3786 C   0  0  0  0  0  0  0  0  0  0  0  0
  -23.1592  -30.2902   22.6480 C   0  0  0  0  0  0  0  0  0  0  0  0
  -24.2847  -11.4707   20.4210 C   0  0  0  0  0  0  0  0  0  0  0  0
  -25.5971  -17.6486   16.6804 C   0  0  0  0  0  0  0  0  0  0  0  0
  -24.0098  -12.7814   19.9865 C   0  0  0  0  0  0  0  0  0  0  0  0
  -26.2170  -18.6532   17.4371 C   0  0  0  0  0  0  0  0  0  0  0  0
  -26.9757  -27.5968   20.3558 C   0  0  0  0  0  0  0  0  0  0  0  0
  -24.5855  -20.2591   16.6190 C   0  0  0  0  0  0  0  0  0  0  0  0
  -28.4043  -25.7609   20.0227 C   0  0  0  0  0  0  0  0  0  0  0  0
  -28.9230  -23.0403   20.3573 C   0  0  0  0  0  0  0  0  0  0  0  0
  -29.5343  -25.3480   20.7286 C   0  0  0  0  0  0  0  0  0  0  0  0
  -23.3409  -29.1077   21.9061 C   0  0  0  0  0  0  0  0  0  0  0  0
  -21.8112  -30.3282   22.9088 C   0  0  0  0  0  0  0  0  0  0  0  0
  -24.1227  -31.2670   23.0642 C   0  0  0  0  0  0  0  0  0  0  0  0
  -26.1116  -15.6995   19.1380 C   0  0  0  0  0  0  0  0  0  0  0  0
  -29.1930  -16.6249   18.7246 C   0  0  0  0  0  0  0  0  0  0  0  0
  -31.3827  -18.9674   17.5565 C   0  0  0  0  0  0  0  0  0  0  0  0
  -20.2794  -25.8581   20.0570 C   0  0  0  0  0  0  0  0  0  0  0  0
  -25.4012  -11.1741   21.3906 C   0  0  0  0  0  0  0  0  0  0  0  0
  -26.1465  -16.2484   16.6776 C   0  0  0  0  0  0  0  0  0  0  0  0
  -27.4230  -18.3704   18.2939 C   0  0  0  0  0  0  0  0  0  0  0  0
  -26.4313  -12.2959   21.4950 C   0  0  0  0  0  0  0  0  0  0  0  0
  -19.8563  -26.5335   23.5401 C   0  0  0  0  0  0  0  0  0  0  0  0
  -18.6655  -26.3295   16.8442 C   0  0  0  0  0  0  0  0  0  0  0  0
  -25.7369  -13.6470   21.6338 C   0  0  0  0  0  0  0  0  0  0  0  0
  -19.4674  -28.0061   23.6082 C   0  0  0  0  0  0  0  0  0  0  0  0
  -20.0978  -26.1390   16.3653 C   0  0  0  0  0  0  0  0  0  0  0  0
  -19.2588  -25.8779   22.3047 C   0  0  0  0  0  0  0  0  0  0  0  0
  -18.8551  -26.9186   18.2334 C   0  0  0  0  0  0  0  0  0  0  0  0
  -19.3730  -28.0226   21.0504 C   0  0  0  0  0  0  0  0  0  0  0  0
  -24.8729  -13.9522   20.4042 C   0  0  1  0  0  0  0  0  0  0  0  0
  -26.9663  -15.9258   17.9231 C   0  0  1  0  0  0  0  0  0  0  0  0
  -19.8282  -28.7709   22.3246 C   0  0  2  0  0  0  0  0  0  0  0  0
  -20.8347  -25.6908   17.6305 C   0  0  1  0  0  0  0  0  0  0  0  0
  -33.8376  -19.4629   17.3968 C   0  0  0  0  0  0  0  0  0  0  0  0
  -29.2280  -17.3906   21.6780 C   0  0  0  0  0  0  0  0  0  0  0  0
  -31.3032  -18.7201   21.2370 C   0  0  0  0  0  0  0  0  0  0  0  0
  -31.3035  -16.2526   20.8707 C   0  0  0  0  0  0  0  0  0  0  0  0
  -31.3027  -18.9960   14.5982 C   0  0  0  0  0  0  0  0  0  0  0  0
  -22.2899  -26.1411   17.6312 C   0  0  0  0  0  0  0  0  0  0  0  0
  -23.0305  -25.5995   16.4203 C   0  0  0  0  0  0  0  0  0  0  0  0
  -23.5883  -23.4627   15.2533 C   0  0  0  0  0  0  0  0  0  0  0  0
  -23.4624  -21.9583   15.3914 C   0  0  0  0  0  0  0  0  0  1  0  0
  -30.0536  -17.7449   19.2575 C   0  0  1  0  0  0  0  0  0  0  0  0
  -32.6338  -18.8413   16.7060 C   0  0  2  0  0  0  0  0  0  0  0  0
  -30.4482  -17.5323   20.7463 C   0  0  0  0  0  0  0  0  0  0  0  0
  -22.1997  -28.4424   21.7085 N   0  0  0  0  0  0  0  0  0  0  0  0
  -21.2879  -29.2095   22.3300 N   0  0  0  0  0  0  0  0  0  0  0  0
  -27.9191  -16.9846   18.2626 N   0  0  0  0  0  0  0  0  0  0  0  0
  -19.6381  -26.5770   21.0767 N   0  0  0  0  0  0  0  0  0  0  0  0
  -20.0649  -26.2680   18.7392 N   0  0  0  0  0  0  0  0  0  0  0  0
  -21.0343  -31.2090   23.5744 N   0  0  0  0  0  0  0  0  0  0  0  0
  -25.4652  -31.0739   22.7112 N   0  0  0  0  0  0  0  0  0  0  0  0
  -25.7007  -14.3903   19.3009 N   0  0  0  0  0  0  0  0  0  0  0  0
  -31.1891  -17.8552   18.3482 N   0  0  0  0  0  0  0  0  0  0  0  0
  -32.4401  -19.5234   15.3952 N   0  3  0  0  0  0  0  0  0  0  0  0
  -22.9467  -24.1192   16.4254 N   0  3  0  0  0  0  0  0  0  0  0  0
  -23.8050  -32.2726   23.7435 O   0  0  0  0  0  0  0  0  0  0  0  0
  -25.8459  -16.6426   19.8740 O   0  0  0  0  0  0  0  0  0  0  0  0
  -29.6375  -15.4743   18.7121 O   0  0  0  0  0  0  0  0  0  0  0  0
  -30.6524  -19.9554   17.5246 O   0  0  0  0  0  0  0  0  0  0  0  0
  -21.0038  -24.8867   20.3115 O   0  0  0  0  0  0  0  0  0  0  0  0
  -28.1450  -27.1110   19.8565 O   0  0  0  0  0  0  0  0  0  0  0  0
  -24.0903  -21.5369   16.5950 O   0  0  0  0  0  0  0  0  0  1  0  0
  -29.1711  -21.7340   20.5192 F   0  0  0  0  0  0  0  0  0  0  0  0
  -30.3739  -26.2536   21.2492 F   0  0  0  0  0  0  0  0  0  0  0  0
  1  2  1  0  0  0  0
  1  5  2  0  0  0  0
  2  6  2  0  0  0  0
  3  8  2  0  0  0  0
  3 15  1  0  0  0  0
  4  9  1  0  0  0  0
  4 15  2  0  0  0  0
  5 17  1  0  0  0  0
  6 19  1  0  0  0  0
  7 10  2  0  0  0  0
  7 18  1  0  0  0  0
  8 21  1  0  0  0  0
  9 21  2  0  0  0  0
 10 22  1  0  0  0  0
 11 12  2  0  0  0  0
 11 23  1  0  0  0  0
 12 24  1  0  0  0  0
 13 20  1  0  0  0  0
 13 22  2  0  0  0  0
 14 24  2  0  0  0  0
 14 25  1  0  0  0  0
 15 26  1  0  0  0  0
 16 26  1  0  0  0  0
 16 27  2  0  0  0  0
 16 28  1  0  0  0  0
 17 19  2  0  0  0  0
 17 33  1  0  0  0  0
 18 20  2  0  0  0  0
 18 34  1  0  0  0  0
 19 45  1  0  0  0  0
 20 35  1  0  0  0  0
 21 77  1  0  0  0  0
 22 78  1  0  0  0  0
 23 25  2  0  0  0  0
 23 77  1  0  0  0  0
 24 79  1  0  0  0  0
 25 80  1  0  0  0  0
 26 61  2  0  0  0  0
 27 62  1  0  0  0  0
 27 66  1  0  0  0  0
 28 67  1  0  0  0  0
 28 72  2  0  0  0  0
 29 46  1  0  0  0  0
 29 68  1  0  0  0  0
 29 73  2  0  0  0  0
 30 58  1  0  0  0  0
 30 63  1  0  0  0  0
 30 74  2  0  0  0  0
 31 59  1  0  0  0  0
 31 69  1  0  0  0  0
 31 75  2  0  0  0  0
 32 64  1  0  0  0  0
 32 65  1  0  0  0  0
 32 76  2  0  0  0  0
 33 36  1  0  0  0  0
 34 46  1  0  0  0  0
 35 63  1  0  0  0  0
 36 39  1  0  0  0  0
 37 40  1  0  0  0  0
 37 42  1  0  0  0  0
 38 41  1  0  0  0  0
 38 43  1  0  0  0  0
 39 45  1  0  0  0  0
 40 47  1  0  0  0  0
 41 48  1  0  0  0  0
 42 64  1  0  0  0  0
 43 65  1  0  0  0  0
 44 47  1  0  0  0  0
 44 64  1  0  0  0  0
 45 68  1  0  0  0  0
 46 63  1  0  0  0  0
 47 62  1  0  0  0  0
 48 54  1  0  0  0  0
 48 65  1  0  0  0  0
 49 59  1  0  0  0  0
 50 60  1  0  0  0  0
 51 60  1  0  0  0  0
 52 60  1  0  0  0  0
 53 70  1  0  0  0  0
 54 55  1  0  0  0  0
 55 71  1  0  0  0  0
 56 57  1  0  0  0  0
 56 71  1  0  0  0  0
 57 78  1  0  0  0  0
 58 60  1  0  0  0  0
 58 69  1  0  0  0  0
 59 70  1  0  0  0  0
 61 62  1  0  0  0  0
M  CHG  2  70   1  71   1
M  ISO  4  32 100  57 101  65 100  78 101
M  END
> <Batch ID>
0189

> <Smiles>
CNC(C)C(=O)NC(C(=O)N1Cc2cc([101O:1][101CH2:1]CNCCC3CCC[100N:0]3[100C:0](=O)N3CCCC(n4nc(-c5ccc(Oc6ccc(F)cc6F)cc5)c(C(N)=O)c4N)C3)ccc2CC1C(=O)NC1CCCc2ccccc21)C(C)(C)C

> <Shape>
0.228

> <Color>
0.083

> <Negative vol penalty>
0.000

$$$$

  -OEChem-04052323223D

 78 86  0     1  0  0  0  0  0999 V2000
  -16.4714  -29.6282   24.0225 C   0  0  0  0  0  0  0  0  0  0  0  0
  -16.8120  -28.9448   22.8595 C   0  0  0  0  0  0  0  0  0  0  0  0
  -24.1101  -15.5329   20.7447 C   0  0  0  0  0  0  0  0  0  0  0  0
  -26.0008  -14.1000   21.2023 C   0  0  0  0  0  0  0  0  0  0  0  0
  -17.3917  -30.4896   24.6183 C   0  0  0  0  0  0  0  0  0  0  0  0
  -18.0727  -29.1234   22.2910 C   0  0  0  0  0  0  0  0  0  0  0  0
  -21.4229  -24.9121   19.3675 C   0  0  0  0  0  0  0  0  0  0  0  0
  -23.4024  -14.4397   20.2452 C   0  0  0  0  0  0  0  0  0  0  0  0
  -25.2930  -13.0067   20.7028 C   0  0  0  0  0  0  0  0  0  0  0  0
  -21.6111  -24.6377   18.0136 C   0  0  0  0  0  0  0  0  0  0  0  0
  -23.8530   -9.7711   19.8812 C   0  0  0  0  0  0  0  0  0  0  0  0
  -23.8927   -8.5834   20.6115 C   0  0  0  0  0  0  0  0  0  0  0  0
  -23.6255  -25.9648   18.0308 C   0  0  0  0  0  0  0  0  0  0  0  0
  -22.9120   -9.7160   22.5068 C   0  0  0  0  0  0  0  0  0  0  0  0
  -25.4093  -15.3631   21.2232 C   0  0  0  0  0  0  0  0  0  0  0  0
  -26.1680  -16.9521   23.0690 C   0  0  0  0  0  0  0  0  0  0  0  0
  -18.6677  -30.6715   24.0622 C   0  0  0  0  0  0  0  0  0  0  0  0
  -22.3302  -25.7253   20.0618 C   0  0  0  0  0  0  0  0  0  0  0  0
  -19.0104  -29.9891   22.8792 C   0  0  0  0  0  0  0  0  0  0  0  0
  -23.4479  -26.2460   19.3941 C   0  0  0  0  0  0  0  0  0  0  0  0
  -23.9938  -13.1766   20.2242 C   0  0  0  0  0  0  0  0  0  0  0  0
  -22.7109  -25.1664   17.3444 C   0  0  0  0  0  0  0  0  0  0  0  0
  -23.3429  -10.9313   20.4637 C   0  0  0  0  0  0  0  0  0  0  0  0
  -23.4221   -8.5558   21.9243 C   0  0  0  0  0  0  0  0  0  0  0  0
  -22.8723  -10.9038   21.7765 C   0  0  0  0  0  0  0  0  0  0  0  0
  -26.1411  -16.4922   21.7388 C   0  0  0  0  0  0  0  0  0  0  0  0
  -27.0028  -18.0424   23.0385 C   0  0  0  0  0  0  0  0  0  0  0  0
  -25.4984  -16.4396   24.2286 C   0  0  0  0  0  0  0  0  0  0  0  0
  -22.1380  -28.5105   21.5815 C   0  0  0  0  0  0  0  0  0  0  0  0
  -25.2031  -27.8327   22.3991 C   0  0  0  0  0  0  0  0  0  0  0  0
  -28.0882  -26.1548   21.6869 C   0  0  0  0  0  0  0  0  0  0  0  0
  -28.5798  -21.7335   18.4941 C   0  0  0  0  0  0  0  0  0  0  0  0
  -19.6118  -31.6493   24.7158 C   0  0  0  0  0  0  0  0  0  0  0  0
  -22.1274  -25.9899   21.5285 C   0  0  0  0  0  0  0  0  0  0  0  0
  -24.4621  -27.1080   20.0989 C   0  0  0  0  0  0  0  0  0  0  0  0
  -21.0601  -31.4962   24.2583 C   0  0  0  0  0  0  0  0  0  0  0  0
  -30.7258  -19.8615   20.6899 C   0  0  0  0  0  0  0  0  0  0  0  0
  -21.1305  -31.3787   22.7391 C   0  0  0  0  0  0  0  0  0  0  0  0
  -29.8158  -18.7920   21.2849 C   0  0  0  0  0  0  0  0  0  0  0  0
  -30.3327  -20.1710   19.2516 C   0  0  0  0  0  0  0  0  0  0  0  0
  -27.9693  -19.5766   19.7171 C   0  0  0  0  0  0  0  0  0  0  0  0
  -26.8436  -22.9039   17.0381 C   0  0  0  0  0  0  0  0  0  0  0  0
  -26.4950  -20.8119   17.2095 C   0  0  0  0  0  0  0  0  0  0  0  0
  -20.3769  -30.1375   22.2462 C   0  0  1  0  0  0  0  0  0  0  0  0
  -22.8363  -27.2515   22.0116 C   0  0  1  0  0  0  0  0  0  0  0  0
  -28.3441  -19.2137   21.1680 C   0  0  1  0  0  0  0  0  0  0  0  0
  -26.2187  -21.8518   16.1126 C   0  0  0  0  0  0  0  0  0  0  0  0
  -30.4341  -25.8297   22.5166 C   0  0  0  0  0  0  0  0  0  0  0  0
  -25.9724  -30.5684   21.2884 C   0  0  0  0  0  0  0  0  0  0  0  0
  -28.3584  -29.8102   21.2641 C   0  0  0  0  0  0  0  0  0  0  0  0
  -27.1178  -29.9498   23.4238 C   0  0  0  0  0  0  0  0  0  0  0  0
  -27.6641  -23.2550   22.0997 C   0  0  0  0  0  0  0  0  0  0  0  0
  -23.2506  -23.1852   14.3582 C   0  0  0  0  0  0  0  0  0  0  0  0
  -22.4085  -23.6532   15.5348 C   0  0  0  0  0  0  0  0  0  1  0  0
  -24.7142  -23.0199   14.7362 C   0  0  0  0  0  0  0  0  0  0  0  0
  -26.5572  -28.1041   21.7894 C   0  0  1  0  0  0  0  0  0  0  0  0
  -29.0045  -25.3126   22.5561 C   0  0  2  0  0  0  0  0  0  0  0  0
  -26.9815  -29.5935   21.9274 C   0  0  0  0  0  0  0  0  0  0  0  0
  -26.8985  -17.2300   20.9227 N   0  0  0  0  0  0  0  0  0  0  0  0
  -27.4090  -18.1647   21.7423 N   0  0  0  0  0  0  0  0  0  0  0  0
  -24.2166  -27.3433   21.5313 N   0  0  0  0  0  0  0  0  0  0  0  0
  -28.9175  -20.5349   19.1323 N   0  0  0  0  0  0  0  0  0  0  0  0
  -27.3913  -21.7900   17.8030 N   0  0  0  0  0  0  0  0  0  0  0  0
  -27.4215  -18.8989   23.9943 N   0  0  0  0  0  0  0  0  0  0  0  0
  -24.6783  -15.3124   24.0829 N   0  0  0  0  0  0  0  0  0  0  0  0
  -21.1684  -28.9458   22.4646 N   0  0  0  0  0  0  0  0  0  0  0  0
  -27.4806  -27.1598   22.4093 N   0  0  0  0  0  0  0  0  0  0  0  0
  -29.0037  -23.8970   22.0901 N   0  3  0  0  0  0  0  0  0  0  0  0
  -25.6105  -16.9755   25.3572 O   0  0  0  0  0  0  0  0  0  0  0  0
  -22.4564  -29.0480   20.5273 O   0  0  0  0  0  0  0  0  0  0  0  0
  -25.0291  -28.0402   23.6026 O   0  0  0  0  0  0  0  0  0  0  0  0
  -27.9304  -25.9445   20.4863 O   0  0  0  0  0  0  0  0  0  0  0  0
  -29.3311  -22.7176   18.5125 O   0  0  0  0  0  0  0  0  0  0  0  0
  -23.3035  -12.1095   19.7371 O   0  0  0  0  0  0  0  0  0  0  0  0
  -22.8980  -24.8988   16.0131 O   0  0  0  0  0  0  0  0  0  1  0  0
  -24.8383  -22.0593   15.7679 O   0  0  0  0  0  0  0  0  0  0  0  0
  -23.4589   -7.4148   22.6250 F   0  0  0  0  0  0  0  0  0  0  0  0
  -22.3800  -12.0149   22.3411 F   0  0  0  0  0  0  0  0  0  0  0  0
  1  2  1  0  0  0  0
  1  5  2  0  0  0  0
  2  6  2  0  0  0  0
  3  8  2  0  0  0  0
  3 15  1  0  0  0  0
  4  9  1  0  0  0  0
  4 15  2  0  0  0  0
  5 17  1  0  0  0  0
  6 19  1  0  0  0  0
  7 10  2  0  0  0  0
  7 18  1  0  0  0  0
  8 21  1  0  0  0  0
  9 21  2  0  0  0  0
 10 22  1  0  0  0  0
 11 12  2  0  0  0  0
 11 23  1  0  0  0  0
 12 24  1  0  0  0  0
 13 20  1  0  0  0  0
 13 22  2  0  0  0  0
 14 24  2  0  0  0  0
 14 25  1  0  0  0  0
 15 26  1  0  0  0  0
 16 26  1  0  0  0  0
 16 27  2  0  0  0  0
 16 28  1  0  0  0  0
 17 19  2  0  0  0  0
 17 33  1  0  0  0  0
 18 20  2  0  0  0  0
 18 34  1  0  0  0  0
 19 44  1  0  0  0  0
 20 35  1  0  0  0  0
 21 74  1  0  0  0  0
 22 75  1  0  0  0  0
 23 25  2  0  0  0  0
 23 74  1  0  0  0  0
 24 77  1  0  0  0  0
 25 78  1  0  0  0  0
 26 59  2  0  0  0  0
 27 60  1  0  0  0  0
 27 64  1  0  0  0  0
 28 65  1  0  0  0  0
 28 69  2  0  0  0  0
 29 45  1  0  0  0  0
 29 66  1  0  0  0  0
 29 70  2  0  0  0  0
 30 56  1  0  0  0  0
 30 61  1  0  0  0  0
 30 71  2  0  0  0  0
 31 57  1  0  0  0  0
 31 67  1  0  0  0  0
 31 72  2  0  0  0  0
 32 62  1  0  0  0  0
 32 63  1  0  0  0  0
 32 73  2  0  0  0  0
 33 36  1  0  0  0  0
 34 45  1  0  0  0  0
 35 61  1  0  0  0  0
 36 38  1  0  0  0  0
 37 39  1  0  0  0  0
 37 40  1  0  0  0  0
 38 44  1  0  0  0  0
 39 46  1  0  0  0  0
 40 62  1  0  0  0  0
 41 46  1  0  0  0  0
 41 62  1  0  0  0  0
 42 47  1  0  0  0  0
 42 63  1  0  0  0  0
 43 47  1  0  0  0  0
 43 63  1  0  0  0  0
 44 66  1  0  0  0  0
 45 61  1  0  0  0  0
 46 60  1  0  0  0  0
 47 76  1  0  0  0  0
 48 57  1  0  0  0  0
 49 58  1  0  0  0  0
 50 58  1  0  0  0  0
 51 58  1  0  0  0  0
 52 68  1  0  0  0  0
 53 54  1  0  0  0  0
 53 55  1  0  0  0  0
 54 75  1  0  0  0  0
 55 76  1  0  0  0  0
 56 58  1  0  0  0  0
 56 67  1  0  0  0  0
 57 68  1  0  0  0  0
 59 60  1  0  0  0  0
M  CHG  1  68   1
M  ISO  4  32 100  54 101  63 100  75 101
M  END
> <Batch ID>
0189

> <Smiles>
CNC(C)C(=O)NC(C(=O)N1Cc2cc([101O:1][101CH2:1]CCOC3C[100N:0]([100C:0](=O)N4CCCC(n5nc(-c6ccc(Oc7ccc(F)cc7F)cc6)c(C(N)=O)c5N)C4)C3)ccc2CC1C(=O)NC1CCCc2ccccc21)C(C)(C)C

> <Shape>
0.211

> <Color>
0.070

> <Negative vol penalty>
0.000

$$$$

  -OEChem-04052323223D

 85 95  0     1  0  0  0  0  0999 V2000
  -17.4582  -25.5955   21.4345 C   0  0  0  0  0  0  0  0  0  0  0  0
  -18.7697  -25.2099   21.1763 C   0  0  0  0  0  0  0  0  0  0  0  0
  -24.0840  -10.6893   23.4387 C   0  0  0  0  0  0  0  0  0  0  0  0
  -24.1398  -12.9303   24.3396 C   0  0  0  0  0  0  0  0  0  0  0  0
  -17.2004  -26.8256   22.0380 C   0  0  0  0  0  0  0  0  0  0  0  0
  -19.8242  -26.0548   21.5205 C   0  0  0  0  0  0  0  0  0  0  0  0
  -23.6286  -23.5921   23.7804 C   0  0  0  0  0  0  0  0  0  0  0  0
  -23.5915  -10.2131   24.6537 C   0  0  0  0  0  0  0  0  0  0  0  0
  -23.6473  -12.4541   25.5546 C   0  0  0  0  0  0  0  0  0  0  0  0
  -24.4899  -22.8625   22.9622 C   0  0  0  0  0  0  0  0  0  0  0  0
  -20.6252  -10.1187   26.2738 C   0  0  0  0  0  0  0  0  0  0  0  0
  -19.5579   -9.2215   26.2337 C   0  0  0  0  0  0  0  0  0  0  0  0
  -26.0922  -24.6634   23.0530 C   0  0  0  0  0  0  0  0  0  0  0  0
  -20.9079   -7.5652   27.3613 C   0  0  0  0  0  0  0  0  0  0  0  0
  -29.1876  -21.2622   21.0855 C   0  0  0  0  0  0  0  0  0  0  0  0
  -24.3583  -12.0479   23.2817 C   0  0  0  0  0  0  0  0  0  0  0  0
  -24.1188  -13.0012   20.9276 C   0  0  0  0  0  0  0  0  0  0  0  0
  -18.2528  -27.6818   22.3986 C   0  0  0  0  0  0  0  0  0  0  0  0
  -23.9886  -24.8696   24.2329 C   0  0  0  0  0  0  0  0  0  0  0  0
  -19.5802  -27.2982   22.1282 C   0  0  0  0  0  0  0  0  0  0  0  0
  -25.2348  -25.4062   23.8790 C   0  0  0  0  0  0  0  0  0  0  0  0
  -23.3731  -11.0955   25.7116 C   0  0  0  0  0  0  0  0  0  0  0  0
  -25.7206  -23.3993   22.5959 C   0  0  0  0  0  0  0  0  0  0  0  0
  -21.8338   -9.7391   26.8576 C   0  0  0  0  0  0  0  0  0  0  0  0
  -19.6992   -7.9448   26.7775 C   0  0  0  0  0  0  0  0  0  0  0  0
  -21.9752   -8.4624   27.4013 C   0  0  0  0  0  0  0  0  0  0  0  0
  -24.8676  -12.5404   22.0270 C   0  0  0  0  0  0  0  0  0  0  0  0
  -28.5760  -22.3808   20.5572 C   0  0  0  0  0  0  0  0  0  0  0  0
  -29.8716  -20.4735   20.1830 C   0  0  0  0  0  0  0  0  0  0  0  0
  -25.0618  -13.3542   19.9935 C   0  0  0  0  0  0  0  0  0  0  0  0
  -29.3201  -21.8649   18.4722 C   0  0  0  0  0  0  0  0  0  0  0  0
  -22.6977  -13.1014   20.7653 C   0  0  0  0  0  0  0  0  0  0  0  0
  -22.8021  -27.7958   23.8675 C   0  0  0  0  0  0  0  0  0  0  0  0
  -25.1042  -28.5758   26.0155 C   0  0  0  0  0  0  0  0  0  0  0  0
  -28.1068  -27.8159   27.4487 C   0  0  0  0  0  0  0  0  0  0  0  0
  -30.7844  -15.0420   20.4008 C   0  0  0  0  0  0  0  0  0  0  0  0
  -17.9224  -29.0223   23.0058 C   0  0  0  0  0  0  0  0  0  0  0  0
  -23.0597  -25.6328   25.1368 C   0  0  0  0  0  0  0  0  0  0  0  0
  -25.6772  -26.7650   24.3548 C   0  0  0  0  0  0  0  0  0  0  0  0
  -19.1147  -29.6958   23.6805 C   0  0  0  0  0  0  0  0  0  0  0  0
  -29.5032  -12.2836   18.5674 C   0  0  0  0  0  0  0  0  0  0  0  0
  -20.3447  -29.6296   22.7808 C   0  0  0  0  0  0  0  0  0  0  0  0
  -28.1149  -22.3990   16.2504 C   0  0  0  0  0  0  0  0  0  0  0  0
  -28.9456  -21.1775   16.0093 C   0  0  0  0  0  0  0  0  0  0  0  0
  -28.1004  -12.0796   19.1423 C   0  0  0  0  0  0  0  0  0  0  0  0
  -30.4997  -12.7019   19.6463 C   0  0  0  0  0  0  0  0  0  0  0  0
  -28.6968  -13.6734   21.0144 C   0  0  0  0  0  0  0  0  0  0  0  0
  -30.0952  -18.5531   21.7933 C   0  0  0  0  0  0  0  0  0  0  0  0
  -30.9856  -18.2333   19.9159 C   0  0  0  0  0  0  0  0  0  0  0  0
  -20.7522  -28.1763   22.5095 C   0  0  1  0  0  0  0  0  0  0  0  0
  -29.3938  -22.1998   17.0201 C   0  0  0  0  0  0  0  0  0  0  0  0
  -23.3107  -27.1375   25.1187 C   0  0  1  0  0  0  0  0  0  0  0  0
  -27.6432  -13.3059   19.9554 C   0  0  2  0  0  0  0  0  0  0  0  0
  -30.9444  -17.4133   21.2131 C   0  0  0  0  0  0  0  0  0  0  0  0
  -29.7489  -28.6615   29.1474 C   0  0  0  0  0  0  0  0  0  0  0  0
  -26.0587  -30.6922   24.0357 C   0  0  0  0  0  0  0  0  0  0  0  0
  -28.2011  -30.8308   25.3238 C   0  0  0  0  0  0  0  0  0  0  0  0
  -26.0446  -31.4299   26.4253 C   0  0  0  0  0  0  0  0  0  0  0  0
  -27.8124  -25.3867   29.1132 C   0  0  0  0  0  0  0  0  0  0  0  0
  -27.8081  -23.3001   21.4608 C   0  0  0  0  0  0  0  0  0  1  0  0
  -26.5492  -29.0034   25.9260 C   0  0  1  0  0  0  0  0  0  0  0  0
  -28.5455  -27.7649   28.9010 C   0  0  2  0  0  0  0  0  0  0  0  0
  -26.7046  -30.4643   25.4170 C   0  0  0  0  0  0  0  0  0  0  0  0
  -26.1848  -12.5943   21.8126 N   0  0  0  0  0  0  0  0  0  0  0  0
  -28.6221  -22.7137   19.2505 N   0  0  0  0  0  0  0  0  0  0  0  0
  -29.9585  -20.7459   18.8645 N   0  0  0  0  0  0  0  0  0  0  0  0
  -26.2711  -13.0931   20.5677 N   0  0  0  0  0  0  0  0  0  0  0  0
  -30.5138  -19.3151   20.6849 N   0  0  0  0  0  0  0  0  0  0  0  0
  -24.7312  -27.4749   25.2315 N   0  0  0  0  0  0  0  0  0  0  0  0
  -30.0068  -13.8735   20.3748 N   0  0  0  0  0  0  0  0  0  0  0  0
  -24.9664  -13.8591   18.7452 N   0  0  0  0  0  0  0  0  0  0  0  0
  -21.8740  -12.6954   21.8241 N   0  0  0  0  0  0  0  0  0  0  0  0
  -21.4478  -27.6247   23.6524 N   0  0  0  0  0  0  0  0  0  0  0  0
  -27.1278  -28.7651   27.2439 N   0  0  0  0  0  0  0  0  0  0  0  0
  -30.2474  -16.1152   21.1043 N   0  0  0  0  0  0  0  0  0  0  0  0
  -28.9114  -26.3717   29.2830 N   0  3  0  0  0  0  0  0  0  0  0  0
  -22.1736  -13.5226   19.7064 O   0  0  0  0  0  0  0  0  0  0  0  0
  -23.5803  -28.4144   23.1510 O   0  0  0  0  0  0  0  0  0  0  0  0
  -24.3364  -29.1914   26.7593 O   0  0  0  0  0  0  0  0  0  0  0  0
  -28.5873  -27.0892   26.5818 O   0  0  0  0  0  0  0  0  0  0  0  0
  -31.8781  -15.1326   19.8325 O   0  0  0  0  0  0  0  0  0  0  0  0
  -22.8922  -10.6312   26.8973 O   0  0  0  0  0  0  0  0  0  0  0  0
  -26.5629  -22.6894   21.7968 O   0  0  0  0  0  0  0  0  0  1  0  0
  -18.6737   -7.0839   26.7403 F   0  0  0  0  0  0  0  0  0  0  0  0
  -23.1335   -8.0924   27.9645 F   0  0  0  0  0  0  0  0  0  0  0  0
  1  2  1  0  0  0  0
  1  5  2  0  0  0  0
  2  6  2  0  0  0  0
  3  8  2  0  0  0  0
  3 16  1  0  0  0  0
  4  9  1  0  0  0  0
  4 16  2  0  0  0  0
  5 18  1  0  0  0  0
  6 20  1  0  0  0  0
  7 10  2  0  0  0  0
  7 19  1  0  0  0  0
  8 22  1  0  0  0  0
  9 22  2  0  0  0  0
 10 23  1  0  0  0  0
 11 12  2  0  0  0  0
 11 24  1  0  0  0  0
 12 25  1  0  0  0  0
 13 21  1  0  0  0  0
 13 23  2  0  0  0  0
 14 25  2  0  0  0  0
 14 26  1  0  0  0  0
 15 28  1  0  0  0  0
 15 29  2  0  0  0  0
 16 27  1  0  0  0  0
 17 27  1  0  0  0  0
 17 30  2  0  0  0  0
 17 32  1  0  0  0  0
 18 20  2  0  0  0  0
 18 37  1  0  0  0  0
 19 21  2  0  0  0  0
 19 38  1  0  0  0  0
 20 50  1  0  0  0  0
 21 39  1  0  0  0  0
 22 82  1  0  0  0  0
 23 83  1  0  0  0  0
 24 26  2  0  0  0  0
 24 82  1  0  0  0  0
 25 84  1  0  0  0  0
 26 85  1  0  0  0  0
 27 64  2  0  0  0  0
 28 60  1  0  0  0  0
 28 65  2  0  0  0  0
 29 66  1  0  0  0  0
 29 68  1  0  0  0  0
 30 67  1  0  0  0  0
 30 71  1  0  0  0  0
 31 51  1  0  0  0  0
 31 65  1  0  0  0  0
 31 66  2  0  0  0  0
 32 72  1  0  0  0  0
 32 77  2  0  0  0  0
 33 52  1  0  0  0  0
 33 73  1  0  0  0  0
 33 78  2  0  0  0  0
 34 61  1  0  0  0  0
 34 69  1  0  0  0  0
 34 79  2  0  0  0  0
 35 62  1  0  0  0  0
 35 74  1  0  0  0  0
 35 80  2  0  0  0  0
 36 70  1  0  0  0  0
 36 75  1  0  0  0  0
 36 81  2  0  0  0  0
 37 40  1  0  0  0  0
 38 52  1  0  0  0  0
 39 69  1  0  0  0  0
 40 42  1  0  0  0  0
 41 45  1  0  0  0  0
 41 46  1  0  0  0  0
 42 50  1  0  0  0  0
 43 44  1  0  0  0  0
 43 51  1  0  0  0  0
 44 51  1  0  0  0  0
 45 53  1  0  0  0  0
 46 70  1  0  0  0  0
 47 53  1  0  0  0  0
 47 70  1  0  0  0  0
 48 54  1  0  0  0  0
 48 68  1  0  0  0  0
 49 54  1  0  0  0  0
 49 68  1  0  0  0  0
 50 73  1  0  0  0  0
 52 69  1  0  0  0  0
 53 67  1  0  0  0  0
 54 75  1  0  0  0  0
 55 62  1  0  0  0  0
 56 63  1  0  0  0  0
 57 63  1  0  0  0  0
 58 63  1  0  0  0  0
 59 76  1  0  0  0  0
 60 83  1  0  0  0  0
 61 63  1  0  0  0  0
 61 74  1  0  0  0  0
 62 76  1  0  0  0  0
 64 67  1  0  0  0  0
M  CHG  1  76   1
M  ISO  4  36 100  60 101  75 100  83 101
M  END
> <Batch ID>
0189

> <Smiles>
CNC(C)C(=O)NC(C(=O)N1Cc2cc([101O:1][101CH2:1]c3cc(N4CC([100NH:0][100C:0](=O)N5CCCC(n6nc(-c7ccc(Oc8ccc(F)cc8F)cc7)c(C(N)=O)c6N)C5)C4)nc(C4CC4)n3)ccc2CC1C(=O)NC1CCCc2ccccc21)C(C)(C)C

> <Shape>
0.241

> <Color>
0.129

> <Negative vol penalty>
0.000

$$$$

  -OEChem-04052323223D

 82 91  0     1  0  0  0  0  0999 V2000
  -30.0113  -35.5991   20.4455 C   0  0  0  0  0  0  0  0  0  0  0  0
  -30.2033  -34.4088   19.7516 C   0  0  0  0  0  0  0  0  0  0  0  0
  -23.4204  -10.3105   22.0160 C   0  0  0  0  0  0  0  0  0  0  0  0
  -24.8532   -8.4381   21.4886 C   0  0  0  0  0  0  0  0  0  0  0  0
  -29.3365  -35.5924   21.6656 C   0  0  0  0  0  0  0  0  0  0  0  0
  -29.7217  -33.2107   20.2779 C   0  0  0  0  0  0  0  0  0  0  0  0
  -27.0237  -26.8983   18.2307 C   0  0  0  0  0  0  0  0  0  0  0  0
  -22.3003   -9.4886   21.8913 C   0  0  0  0  0  0  0  0  0  0  0  0
  -23.7331   -7.6161   21.3640 C   0  0  0  0  0  0  0  0  0  0  0  0
  -27.2190  -25.5310   18.4206 C   0  0  0  0  0  0  0  0  0  0  0  0
  -21.6032   -5.9830   23.4176 C   0  0  0  0  0  0  0  0  0  0  0  0
  -21.6539   -4.7256   24.0191 C   0  0  0  0  0  0  0  0  0  0  0  0
  -25.9988  -25.6514   20.4981 C   0  0  0  0  0  0  0  0  0  0  0  0
  -28.0176  -21.1596   21.0029 C   0  0  0  0  0  0  0  0  0  0  0  0
  -21.3249   -3.6819   21.8652 C   0  0  0  0  0  0  0  0  0  0  0  0
  -24.6968   -9.7853   21.8146 C   0  0  0  0  0  0  0  0  0  0  0  0
  -26.6038  -10.8790   23.1087 C   0  0  0  0  0  0  0  0  0  0  0  0
  -28.8379  -34.3950   22.2024 C   0  0  0  0  0  0  0  0  0  0  0  0
  -26.3227  -27.6558   19.1801 C   0  0  0  0  0  0  0  0  0  0  0  0
  -29.0408  -33.1877   21.5070 C   0  0  0  0  0  0  0  0  0  0  0  0
  -25.7938  -27.0277   20.3166 C   0  0  0  0  0  0  0  0  0  0  0  0
  -28.3092  -19.7953   21.0638 C   0  0  0  0  0  0  0  0  0  0  0  0
  -27.2561  -18.8692   21.0786 C   0  0  0  0  0  0  0  0  0  0  0  0
  -22.4567   -8.1414   21.5654 C   0  0  0  0  0  0  0  0  0  0  0  0
  -26.7090  -24.9078   19.5558 C   0  0  0  0  0  0  0  0  0  0  0  0
  -21.4133   -6.0899   22.0398 C   0  0  0  0  0  0  0  0  0  0  0  0
  -21.5148   -3.5750   23.2429 C   0  0  0  0  0  0  0  0  0  0  0  0
  -21.2742   -4.9393   21.2636 C   0  0  0  0  0  0  0  0  0  0  0  0
  -25.8541  -10.6340   21.9426 C   0  0  0  0  0  0  0  0  0  0  0  0
  -26.6873  -21.5468   20.9863 C   0  0  0  0  0  0  0  0  0  0  0  0
  -25.9580  -19.3711   21.0667 C   0  0  0  0  0  0  0  0  0  0  0  0
  -27.5904  -11.7460   22.7068 C   0  0  0  0  0  0  0  0  0  0  0  0
  -26.4245  -10.3684   24.4364 C   0  0  0  0  0  0  0  0  0  0  0  0
  -27.0429  -30.1108   21.0663 C   0  0  0  0  0  0  0  0  0  0  0  0
  -23.8753  -30.0062   21.7576 C   0  0  0  0  0  0  0  0  0  0  0  0
  -20.9986  -28.1751   21.8938 C   0  0  0  0  0  0  0  0  0  0  0  0
  -29.3442  -16.1497   19.9054 C   0  0  0  0  0  0  0  0  0  0  0  0
  -28.1563  -34.4308   23.5474 C   0  0  0  0  0  0  0  0  0  0  0  0
  -26.0976  -29.1247   18.9473 C   0  0  0  0  0  0  0  0  0  0  0  0
  -29.7434  -19.3310   21.0602 C   0  0  0  0  0  0  0  0  0  0  0  0
  -25.0164  -27.7922   21.3557 C   0  0  0  0  0  0  0  0  0  0  0  0
  -27.4991  -17.3828   21.1456 C   0  0  0  0  0  0  0  0  0  0  0  0
  -27.3491  -33.1721   23.8549 C   0  0  0  0  0  0  0  0  0  0  0  0
  -29.0323  -13.2002   18.0918 C   0  0  0  0  0  0  0  0  0  0  0  0
  -28.1609  -31.9235   23.5252 C   0  0  0  0  0  0  0  0  0  0  0  0
  -28.2343  -12.2816   19.0159 C   0  0  0  0  0  0  0  0  0  0  0  0
  -29.8765  -17.8994   21.5718 C   0  0  0  0  0  0  0  0  0  0  0  0
  -28.4978  -14.6262   18.1481 C   0  0  0  0  0  0  0  0  0  0  0  0
  -27.6947  -14.3021   20.4663 C   0  0  0  0  0  0  0  0  0  0  0  0
  -28.5114  -31.8713   22.0332 C   0  0  1  0  0  0  0  0  0  0  0  0
  -25.8118  -29.8962   20.2320 C   0  0  1  0  0  0  0  0  0  0  0  0
  -28.1932  -12.8426   20.4479 C   0  0  1  0  0  0  0  0  0  0  0  0
  -24.7822  -18.4493   21.1126 C   0  0  0  0  0  0  0  0  0  0  0  0
  -18.5793  -28.3523   22.5365 C   0  0  0  0  0  0  0  0  0  0  0  0
  -24.6509  -29.8697   24.7055 C   0  0  0  0  0  0  0  0  0  0  0  0
  -22.3218  -29.1026   25.2108 C   0  0  0  0  0  0  0  0  0  0  0  0
  -22.7012  -31.3547   24.2073 C   0  0  0  0  0  0  0  0  0  0  0  0
  -20.1023  -27.5503   19.1434 C   0  0  0  0  0  0  0  0  0  0  0  0
  -26.3496  -22.9993   20.9285 C   0  0  0  0  0  0  0  0  0  1  0  0
  -23.0278  -29.2919   22.7825 C   0  0  1  0  0  0  0  0  0  0  0  0
  -19.5915  -28.4722   21.4078 C   0  0  2  0  0  0  0  0  0  0  0  0
  -23.1917  -29.8904   24.2081 C   0  0  0  0  0  0  0  0  0  0  0  0
  -26.3241  -11.2923   20.8797 N   0  0  0  0  0  0  0  0  0  0  0  0
  -25.6476  -20.6860   21.0203 N   0  0  0  0  0  0  0  0  0  0  0  0
  -27.3796  -11.9595   21.3763 N   0  0  0  0  0  0  0  0  0  0  0  0
  -24.8284  -29.2273   21.0862 N   0  0  0  0  0  0  0  0  0  0  0  0
  -28.9076  -17.0300   20.9071 N   0  0  0  0  0  0  0  0  0  0  0  0
  -28.4648  -15.1266   19.5226 N   0  0  0  0  0  0  0  0  0  0  0  0
  -28.6088  -12.3390   23.3652 N   0  0  0  0  0  0  0  0  0  0  0  0
  -25.3607   -9.4879   24.6757 N   0  0  0  0  0  0  0  0  0  0  0  0
  -27.3666  -31.4402   21.2599 N   0  0  0  0  0  0  0  0  0  0  0  0
  -21.6604  -29.3232   22.2749 N   0  0  0  0  0  0  0  0  0  0  0  0
  -19.2052  -27.5215   20.3271 N   0  3  0  0  0  0  0  0  0  0  0  0
  -27.1754  -10.6965   25.3862 O   0  0  0  0  0  0  0  0  0  0  0  0
  -27.6530  -29.1421   21.5032 O   0  0  0  0  0  0  0  0  0  0  0  0
  -23.6934  -31.2093   21.5549 O   0  0  0  0  0  0  0  0  0  0  0  0
  -21.4628  -27.0379   21.9351 O   0  0  0  0  0  0  0  0  0  0  0  0
  -30.4554  -16.2769   19.3756 O   0  0  0  0  0  0  0  0  0  0  0  0
  -21.3640   -7.3390   21.4439 O   0  0  0  0  0  0  0  0  0  0  0  0
  -26.9000  -23.5642   19.7453 O   0  0  0  0  0  0  0  0  0  1  0  0
  -21.5650   -2.3675   23.8205 F   0  0  0  0  0  0  0  0  0  0  0  0
  -21.0927   -5.0356   19.9394 F   0  0  0  0  0  0  0  0  0  0  0  0
  1  2  1  0  0  0  0
  1  5  2  0  0  0  0
  2  6  2  0  0  0  0
  3  8  2  0  0  0  0
  3 16  1  0  0  0  0
  4  9  1  0  0  0  0
  4 16  2  0  0  0  0
  5 18  1  0  0  0  0
  6 20  1  0  0  0  0
  7 10  2  0  0  0  0
  7 19  1  0  0  0  0
  8 24  1  0  0  0  0
  9 24  2  0  0  0  0
 10 25  1  0  0  0  0
 11 12  2  0  0  0  0
 11 26  1  0  0  0  0
 12 27  1  0  0  0  0
 13 21  1  0  0  0  0
 13 25  2  0  0  0  0
 14 22  2  0  0  0  0
 14 30  1  0  0  0  0
 15 27  2  0  0  0  0
 15 28  1  0  0  0  0
 16 29  1  0  0  0  0
 17 29  1  0  0  0  0
 17 32  2  0  0  0  0
 17 33  1  0  0  0  0
 18 20  2  0  0  0  0
 18 38  1  0  0  0  0
 19 21  2  0  0  0  0
 19 39  1  0  0  0  0
 20 50  1  0  0  0  0
 21 41  1  0  0  0  0
 22 23  1  0  0  0  0
 22 40  1  0  0  0  0
 23 31  2  0  0  0  0
 23 42  1  0  0  0  0
 24 79  1  0  0  0  0
 25 80  1  0  0  0  0
 26 28  2  0  0  0  0
 26 79  1  0  0  0  0
 27 81  1  0  0  0  0
 28 82  1  0  0  0  0
 29 63  2  0  0  0  0
 30 59  1  0  0  0  0
 30 64  2  0  0  0  0
 31 53  1  0  0  0  0
 31 64  1  0  0  0  0
 32 65  1  0  0  0  0
 32 69  1  0  0  0  0
 33 70  1  0  0  0  0
 33 74  2  0  0  0  0
 34 51  1  0  0  0  0
 34 71  1  0  0  0  0
 34 75  2  0  0  0  0
 35 60  1  0  0  0  0
 35 66  1  0  0  0  0
 35 76  2  0  0  0  0
 36 61  1  0  0  0  0
 36 72  1  0  0  0  0
 36 77  2  0  0  0  0
 37 67  1  0  0  0  0
 37 68  1  0  0  0  0
 37 78  2  0  0  0  0
 38 43  1  0  0  0  0
 39 51  1  0  0  0  0
 40 47  1  0  0  0  0
 41 66  1  0  0  0  0
 42 67  1  0  0  0  0
 43 45  1  0  0  0  0
 44 46  1  0  0  0  0
 44 48  1  0  0  0  0
 45 50  1  0  0  0  0
 46 52  1  0  0  0  0
 47 67  1  0  0  0  0
 48 68  1  0  0  0  0
 49 52  1  0  0  0  0
 49 68  1  0  0  0  0
 50 71  1  0  0  0  0
 51 66  1  0  0  0  0
 52 65  1  0  0  0  0
 54 61  1  0  0  0  0
 55 62  1  0  0  0  0
 56 62  1  0  0  0  0
 57 62  1  0  0  0  0
 58 73  1  0  0  0  0
 59 80  1  0  0  0  0
 60 62  1  0  0  0  0
 60 72  1  0  0  0  0
 61 73  1  0  0  0  0
 63 65  1  0  0  0  0
M  CHG  1  73   1
M  ISO  4  37 100  59 101  67 100  80 101
M  END
> <Batch ID>
0189

> <Smiles>
CNC(C)C(=O)NC(C(=O)N1Cc2cc([101O:1][101CH2:1]c3cc4c(c(C)n3)C[100N:0]([100C:0](=O)N3CCCC(n5nc(-c6ccc(Oc7ccc(F)cc7F)cc6)c(C(N)=O)c5N)C3)CC4)ccc2CC1C(=O)NC1CCCc2ccccc21)C(C)(C)C

> <Shape>
0.272

> <Color>
0.089

> <Negative vol penalty>
0.000

$$$$

  -OEChem-04052323223D

 81 90  0     1  0  0  0  0  0999 V2000
  -26.1514  -13.6457   18.5958 C   0  0  0  0  0  0  0  0  0  0  0  0
  -26.0863  -14.9782   18.2014 C   0  0  0  0  0  0  0  0  0  0  0  0
  -28.9985  -23.8307   21.3740 C   0  0  0  0  0  0  0  0  0  0  0  0
  -29.4171  -23.9752   18.9990 C   0  0  0  0  0  0  0  0  0  0  0  0
  -25.4287  -13.2126   19.7067 C   0  0  0  0  0  0  0  0  0  0  0  0
  -25.2974  -15.8782   18.9171 C   0  0  0  0  0  0  0  0  0  0  0  0
  -25.0650  -22.7639   20.8792 C   0  0  0  0  0  0  0  0  0  0  0  0
  -29.0067  -22.4383   21.2908 C   0  0  0  0  0  0  0  0  0  0  0  0
  -29.4254  -22.5828   18.9157 C   0  0  0  0  0  0  0  0  0  0  0  0
  -24.2090  -23.8639   20.8495 C   0  0  0  0  0  0  0  0  0  0  0  0
  -29.2765  -18.8445   21.7668 C   0  0  0  0  0  0  0  0  0  0  0  0
  -29.9878  -18.1409   22.7387 C   0  0  0  0  0  0  0  0  0  0  0  0
  -23.0664  -23.0199   22.7991 C   0  0  0  0  0  0  0  0  0  0  0  0
  -32.0184  -19.2633   22.0652 C   0  0  0  0  0  0  0  0  0  0  0  0
  -29.2036  -24.5991   20.2281 C   0  0  0  0  0  0  0  0  0  0  0  0
  -30.2945  -26.8814   20.5584 C   0  0  0  0  0  0  0  0  0  0  0  0
  -24.6382  -14.1098   20.4421 C   0  0  0  0  0  0  0  0  0  0  0  0
  -24.9209  -21.7763   21.8643 C   0  0  0  0  0  0  0  0  0  0  0  0
  -24.5624  -15.4564   20.0380 C   0  0  0  0  0  0  0  0  0  0  0  0
  -23.9234  -21.9095   22.8407 C   0  0  0  0  0  0  0  0  0  0  0  0
  -29.2202  -21.8144   20.0616 C   0  0  0  0  0  0  0  0  0  0  0  0
  -23.2077  -23.9906   21.8078 C   0  0  0  0  0  0  0  0  0  0  0  0
  -29.9362  -19.7575   20.9440 C   0  0  0  0  0  0  0  0  0  0  0  0
  -31.3587  -18.3503   22.8880 C   0  0  0  0  0  0  0  0  0  0  0  0
  -31.3072  -19.9669   21.0933 C   0  0  0  0  0  0  0  0  0  0  0  0
  -29.1947  -26.0374   20.3134 C   0  0  0  0  0  0  0  0  0  0  0  0
  -29.7653  -28.1487   20.5414 C   0  0  0  0  0  0  0  0  0  0  0  0
  -19.0497  -27.7519   22.1161 C   0  0  0  0  0  0  0  0  0  0  0  0
  -20.5341  -26.3586   22.5771 C   0  0  0  0  0  0  0  0  0  0  0  0
  -31.6714  -26.5494   20.7813 C   0  0  0  0  0  0  0  0  0  0  0  0
  -24.2637  -18.6664   21.8435 C   0  0  0  0  0  0  0  0  0  0  0  0
  -24.8729  -18.9133   25.0200 C   0  0  0  0  0  0  0  0  0  0  0  0
  -25.0212  -20.8924   27.7963 C   0  0  0  0  0  0  0  0  0  0  0  0
  -24.1005  -30.1079   21.5072 C   0  0  0  0  0  0  0  0  0  0  0  0
  -23.8376  -13.5850   21.6075 C   0  0  0  0  0  0  0  0  0  0  0  0
  -25.8693  -20.6093   21.8985 C   0  0  0  0  0  0  0  0  0  0  0  0
  -23.7398  -20.8873   23.9314 C   0  0  0  0  0  0  0  0  0  0  0  0
  -23.3207  -14.6821   22.5347 C   0  0  0  0  0  0  0  0  0  0  0  0
  -26.2228  -30.7176   18.6611 C   0  0  0  0  0  0  0  0  0  0  0  0
  -22.6999  -15.8163   21.7254 C   0  0  0  0  0  0  0  0  0  0  0  0
  -27.2883  -29.6301   18.7460 C   0  0  0  0  0  0  0  0  0  0  0  0
  -24.8818  -30.2058   19.1696 C   0  0  0  0  0  0  0  0  0  0  0  0
  -26.0151  -28.6204   20.7061 C   0  0  0  0  0  0  0  0  0  0  0  0
  -22.7810  -29.4722   23.5921 C   0  0  0  0  0  0  0  0  0  0  0  0
  -23.6409  -27.7828   22.6121 C   0  0  0  0  0  0  0  0  0  0  0  0
  -23.7374  -16.4682   20.8034 C   0  0  1  0  0  0  0  0  0  0  0  0
  -25.3043  -19.4017   22.6399 C   0  0  1  0  0  0  0  0  0  0  0  0
  -27.3865  -29.0867   20.1786 C   0  0  1  0  0  0  0  0  0  0  0  0
  -22.3882  -27.9845   23.4915 C   0  0  0  0  0  0  0  0  0  0  0  0
  -17.7703  -28.3028   21.6548 C   0  0  0  0  0  0  0  0  0  0  0  0
  -25.5129  -20.8027   30.2555 C   0  0  0  0  0  0  0  0  0  0  0  0
  -22.1514  -17.6253   25.5147 C   0  0  0  0  0  0  0  0  0  0  0  0
  -22.2841  -18.4198   27.8852 C   0  0  0  0  0  0  0  0  0  0  0  0
  -23.9793  -16.8103   27.0144 C   0  0  0  0  0  0  0  0  0  0  0  0
  -27.2804  -22.7858   27.5317 C   0  0  0  0  0  0  0  0  0  0  0  0
  -21.3670  -25.1293   22.7931 C   0  0  0  0  0  0  0  0  0  1  0  0
  -24.0470  -19.2182   26.2464 C   0  0  1  0  0  0  0  0  0  0  0  0
  -26.0854  -21.0465   28.8678 C   0  0  2  0  0  0  0  0  0  0  0  0
  -23.1174  -18.0368   26.6436 C   0  0  0  0  0  0  0  0  0  0  0  0
  -28.0530  -26.7118   20.1527 N   0  0  0  0  0  0  0  0  0  0  0  0
  -19.3167  -26.4130   22.0888 N   0  0  0  0  0  0  0  0  0  0  0  0
  -20.0254  -28.5293   22.5905 N   0  0  0  0  0  0  0  0  0  0  0  0
  -28.4325  -27.9929   20.2971 N   0  0  0  0  0  0  0  0  0  0  0  0
  -20.9630  -27.6137   22.8780 N   0  0  0  0  0  0  0  0  0  0  0  0
  -24.6880  -19.7611   23.9187 N   0  0  0  0  0  0  0  0  0  0  0  0
  -24.9793  -29.6461   20.5211 N   0  0  0  0  0  0  0  0  0  0  0  0
  -23.7077  -29.2300   22.4923 N   0  0  0  0  0  0  0  0  0  0  0  0
  -30.3146  -29.3700   20.7118 N   0  0  0  0  0  0  0  0  0  0  0  0
  -32.0439  -25.1984   20.7655 N   0  0  0  0  0  0  0  0  0  0  0  0
  -24.5964  -17.3561   21.5571 N   0  0  0  0  0  0  0  0  0  0  0  0
  -24.9911  -19.6115   27.2868 N   0  0  0  0  0  0  0  0  0  0  0  0
  -26.6616  -22.4204   28.8319 N   0  3  0  0  0  0  0  0  0  0  0  0
  -32.5425  -27.4239   21.0046 O   0  0  0  0  0  0  0  0  0  0  0  0
  -23.2346  -19.2445   21.5145 O   0  0  0  0  0  0  0  0  0  0  0  0
  -25.6584  -17.9624   25.0409 O   0  0  0  0  0  0  0  0  0  0  0  0
  -24.2873  -21.8151   27.4489 O   0  0  0  0  0  0  0  0  0  0  0  0
  -23.6507  -31.2615   21.4928 O   0  0  0  0  0  0  0  0  0  0  0  0
  -29.2285  -20.4558   19.9801 O   0  0  0  0  0  0  0  0  0  0  0  0
  -22.3705  -25.0631   21.7807 O   0  0  0  0  0  0  0  0  0  1  0  0
  -32.0413  -17.6757   23.8224 F   0  0  0  0  0  0  0  0  0  0  0  0
  -31.9462  -20.8436   20.3065 F   0  0  0  0  0  0  0  0  0  0  0  0
  1  2  1  0  0  0  0
  1  5  2  0  0  0  0
  2  6  2  0  0  0  0
  3  8  2  0  0  0  0
  3 15  1  0  0  0  0
  4  9  1  0  0  0  0
  4 15  2  0  0  0  0
  5 17  1  0  0  0  0
  6 19  1  0  0  0  0
  7 10  2  0  0  0  0
  7 18  1  0  0  0  0
  8 21  1  0  0  0  0
  9 21  2  0  0  0  0
 10 22  1  0  0  0  0
 11 12  2  0  0  0  0
 11 23  1  0  0  0  0
 12 24  1  0  0  0  0
 13 20  1  0  0  0  0
 13 22  2  0  0  0  0
 14 24  2  0  0  0  0
 14 25  1  0  0  0  0
 15 26  1  0  0  0  0
 16 26  1  0  0  0  0
 16 27  2  0  0  0  0
 16 30  1  0  0  0  0
 17 19  2  0  0  0  0
 17 35  1  0  0  0  0
 18 20  2  0  0  0  0
 18 36  1  0  0  0  0
 19 46  1  0  0  0  0
 20 37  1  0  0  0  0
 21 78  1  0  0  0  0
 22 79  1  0  0  0  0
 23 25  2  0  0  0  0
 23 78  1  0  0  0  0
 24 80  1  0  0  0  0
 25 81  1  0  0  0  0
 26 60  2  0  0  0  0
 27 63  1  0  0  0  0
 27 68  1  0  0  0  0
 28 50  1  0  0  0  0
 28 61  1  0  0  0  0
 28 62  2  0  0  0  0
 29 56  1  0  0  0  0
 29 61  2  0  0  0  0
 29 64  1  0  0  0  0
 30 69  1  0  0  0  0
 30 73  2  0  0  0  0
 31 47  1  0  0  0  0
 31 70  1  0  0  0  0
 31 74  2  0  0  0  0
 32 57  1  0  0  0  0
 32 65  1  0  0  0  0
 32 75  2  0  0  0  0
 33 58  1  0  0  0  0
 33 71  1  0  0  0  0
 33 76  2  0  0  0  0
 34 66  1  0  0  0  0
 34 67  1  0  0  0  0
 34 77  2  0  0  0  0
 35 38  1  0  0  0  0
 36 47  1  0  0  0  0
 37 65  1  0  0  0  0
 38 40  1  0  0  0  0
 39 41  1  0  0  0  0
 39 42  1  0  0  0  0
 40 46  1  0  0  0  0
 41 48  1  0  0  0  0
 42 66  1  0  0  0  0
 43 48  1  0  0  0  0
 43 66  1  0  0  0  0
 44 49  1  0  0  0  0
 44 67  1  0  0  0  0
 45 49  1  0  0  0  0
 45 67  1  0  0  0  0
 46 70  1  0  0  0  0
 47 65  1  0  0  0  0
 48 63  1  0  0  0  0
 49 64  1  0  0  0  0
 51 58  1  0  0  0  0
 52 59  1  0  0  0  0
 53 59  1  0  0  0  0
 54 59  1  0  0  0  0
 55 72  1  0  0  0  0
 56 79  1  0  0  0  0
 57 59  1  0  0  0  0
 57 71  1  0  0  0  0
 58 72  1  0  0  0  0
 60 63  1  0  0  0  0
 62 64  1  0  0  0  0
M  CHG  1  72   1
M  ISO  4  34 100  56 101  67 100  79 101
M  END
> <Batch ID>
0189

> <Smiles>
CNC(C)C(=O)NC(C(=O)N1Cc2cc([101O:1][101CH2:1]c3nc(C)nn3C3C[100N:0]([100C:0](=O)N4CCCC(n5nc(-c6ccc(Oc7ccc(F)cc7F)cc6)c(C(N)=O)c5N)C4)C3)ccc2CC1C(=O)NC1CCCc2ccccc21)C(C)(C)C

> <Shape>
0.203

> <Color>
0.049

> <Negative vol penalty>
0.000

$$$$

  -OEChem-04052323223D

 87 96  0     1  0  0  0  0  0999 V2000
  -17.0135  -29.2979   24.5806 C   0  0  0  0  0  0  0  0  0  0  0  0
  -17.6743  -28.1924   24.0547 C   0  0  0  0  0  0  0  0  0  0  0  0
  -26.3367  -13.1887   21.4505 C   0  0  0  0  0  0  0  0  0  0  0  0
  -28.3242  -12.0654   20.6599 C   0  0  0  0  0  0  0  0  0  0  0  0
  -17.3231  -30.5773   24.1211 C   0  0  0  0  0  0  0  0  0  0  0  0
  -18.6445  -28.3656   23.0682 C   0  0  0  0  0  0  0  0  0  0  0  0
  -22.7988  -25.5984   23.9219 C   0  0  0  0  0  0  0  0  0  0  0  0
  -25.5459  -12.1922   20.8785 C   0  0  0  0  0  0  0  0  0  0  0  0
  -27.5333  -11.0688   20.0879 C   0  0  0  0  0  0  0  0  0  0  0  0
  -22.7348  -24.2410   23.6104 C   0  0  0  0  0  0  0  0  0  0  0  0
  -24.5989   -9.0319   21.6192 C   0  0  0  0  0  0  0  0  0  0  0  0
  -23.5520   -8.5167   22.3834 C   0  0  0  0  0  0  0  0  0  0  0  0
  -23.8941  -24.6679   21.5384 C   0  0  0  0  0  0  0  0  0  0  0  0
  -21.9716   -9.2361   20.7035 C   0  0  0  0  0  0  0  0  0  0  0  0
  -27.7259  -13.1253   21.3412 C   0  0  0  0  0  0  0  0  0  0  0  0
  -29.0741  -14.1757   23.2350 C   0  0  0  0  0  0  0  0  0  0  0  0
  -18.3044  -30.7671   23.1354 C   0  0  0  0  0  0  0  0  0  0  0  0
  -23.4023  -26.5039   23.0374 C   0  0  0  0  0  0  0  0  0  0  0  0
  -18.9666  -29.6487   22.5942 C   0  0  0  0  0  0  0  0  0  0  0  0
  -23.9667  -26.0360   21.8422 C   0  0  0  0  0  0  0  0  0  0  0  0
  -26.1442  -11.1323   20.1972 C   0  0  0  0  0  0  0  0  0  0  0  0
  -23.2799  -23.7759   22.4172 C   0  0  0  0  0  0  0  0  0  0  0  0
  -24.3322   -9.6493   20.3971 C   0  0  0  0  0  0  0  0  0  0  0  0
  -22.2383   -8.6188   21.9256 C   0  0  0  0  0  0  0  0  0  0  0  0
  -23.0186   -9.7514   19.9392 C   0  0  0  0  0  0  0  0  0  0  0  0
  -28.5433  -14.1547   21.9313 C   0  0  0  0  0  0  0  0  0  0  0  0
  -29.7703  -15.3576   23.3033 C   0  0  0  0  0  0  0  0  0  0  0  0
  -25.2437  -19.6297   22.6542 C   0  0  0  0  0  0  0  0  0  0  0  0
  -26.2344  -21.4222   23.5718 C   0  0  0  0  0  0  0  0  0  0  0  0
  -24.2617  -21.6436   22.5249 C   0  0  0  0  0  0  0  0  0  1  0  0
  -28.9490  -13.2128   24.2900 C   0  0  0  0  0  0  0  0  0  0  0  0
  -22.4059  -29.0341   21.3915 C   0  0  0  0  0  0  0  0  0  0  0  0
  -25.5535  -29.3078   20.6565 C   0  0  0  0  0  0  0  0  0  0  0  0
  -28.5925  -27.7919   20.3202 C   0  0  0  0  0  0  0  0  0  0  0  0
  -28.9850  -20.3282   19.8811 C   0  0  0  0  0  0  0  0  0  0  0  0
  -18.5713  -32.1652   22.6365 C   0  0  0  0  0  0  0  0  0  0  0  0
  -23.4870  -27.9611   23.4005 C   0  0  0  0  0  0  0  0  0  0  0  0
  -24.6437  -26.9641   20.8681 C   0  0  0  0  0  0  0  0  0  0  0  0
  -19.8774  -32.2947   21.8570 C   0  0  0  0  0  0  0  0  0  0  0  0
  -32.1599  -18.4735   20.5899 C   0  0  0  0  0  0  0  0  0  0  0  0
  -20.0082  -31.1630   20.8427 C   0  0  0  0  0  0  0  0  0  0  0  0
  -31.6099  -17.1256   21.0539 C   0  0  0  0  0  0  0  0  0  0  0  0
  -31.2005  -19.1603   19.6252 C   0  0  0  0  0  0  0  0  0  0  0  0
  -28.9098  -22.4762   18.6775 C   0  0  0  0  0  0  0  0  0  0  0  0
  -29.2649  -17.9946   20.6369 C   0  0  0  0  0  0  0  0  0  0  0  0
  -29.8823  -23.3527   17.9081 C   0  0  0  0  0  0  0  0  0  0  0  0
  -31.5679  -23.0653   19.7203 C   0  0  0  0  0  0  0  0  0  0  0  0
  -20.0426  -29.7979   21.5406 C   0  0  1  0  0  0  0  0  0  0  0  0
  -23.6691  -28.8693   22.1883 C   0  0  1  0  0  0  0  0  0  0  0  0
  -30.1932  -17.2803   21.6326 C   0  0  1  0  0  0  0  0  0  0  0  0
  -30.5977  -22.1795   20.5014 C   0  0  1  0  0  0  0  0  0  0  0  0
  -25.2405  -18.1694   22.3534 C   0  0  0  0  0  0  0  0  0  0  0  0
  -30.9690  -28.2661   19.6681 C   0  0  0  0  0  0  0  0  0  0  0  0
  -24.7343  -29.3594   17.7177 C   0  0  0  0  0  0  0  0  0  0  0  0
  -27.1164  -28.8765   17.1173 C   0  0  0  0  0  0  0  0  0  0  0  0
  -26.5387  -30.9805   18.3263 C   0  0  0  0  0  0  0  0  0  0  0  0
  -29.6025  -27.0156   22.9916 C   0  0  0  0  0  0  0  0  0  0  0  0
  -27.3789  -22.0278   24.3296 C   0  0  0  0  0  0  0  0  0  0  0  0
  -29.9032  -22.9422   21.6381 C   0  0  0  0  0  0  0  0  0  0  0  0
  -28.9814  -22.0235   22.4137 C   0  0  0  0  0  0  0  0  0  0  0  0
  -26.4456  -28.7761   19.5609 C   0  0  1  0  0  0  0  0  0  0  0  0
  -29.9734  -28.1830   20.8148 C   0  0  2  0  0  0  0  0  0  0  0  0
  -26.1943  -29.4807   18.1978 C   0  0  0  0  0  0  0  0  0  0  0  0
  -28.8739  -15.2374   21.2225 N   0  0  0  0  0  0  0  0  0  0  0  0
  -26.2996  -20.1019   23.3363 N   0  0  0  0  0  0  0  0  0  0  0  0
  -24.1905  -20.3386   22.2168 N   0  0  0  0  0  0  0  0  0  0  0  0
  -25.2497  -22.2551   23.1979 N   0  0  0  0  0  0  0  0  0  0  0  0
  -29.6198  -15.9499   22.0839 N   0  0  0  0  0  0  0  0  0  0  0  0
  -24.6955  -28.3808   21.2652 N   0  0  0  0  0  0  0  0  0  0  0  0
  -29.8454  -19.2599   20.1838 N   0  0  0  0  0  0  0  0  0  0  0  0
  -29.5942  -21.5655   19.5993 N   0  0  0  0  0  0  0  0  0  0  0  0
  -30.4904  -15.9378   24.2868 N   0  0  0  0  0  0  0  0  0  0  0  0
  -28.1980  -12.0538   24.0511 N   0  0  0  0  0  0  0  0  0  0  0  0
  -21.3494  -29.5559   22.1134 N   0  0  0  0  0  0  0  0  0  0  0  0
  -27.8135  -28.8979   20.0532 N   0  0  0  0  0  0  0  0  0  0  0  0
  -30.8108  -24.0232   18.8624 N   0  3  0  0  0  0  0  0  0  0  0  0
  -30.4734  -27.1825   21.7997 N   0  3  0  0  0  0  0  0  0  0  0  0
  -28.2992  -22.8161   23.4647 N   0  3  0  0  0  0  0  0  0  0  0  0
  -29.4736  -13.3831   25.4166 O   0  0  0  0  0  0  0  0  0  0  0  0
  -22.3912  -28.7130   20.2090 O   0  0  0  0  0  0  0  0  0  0  0  0
  -25.6206  -30.5000   20.9659 O   0  0  0  0  0  0  0  0  0  0  0  0
  -28.2414  -26.6224   20.1808 O   0  0  0  0  0  0  0  0  0  0  0  0
  -27.7560  -20.1896   19.8641 O   0  0  0  0  0  0  0  0  0  0  0  0
  -25.3728  -10.1596   19.6392 O   0  0  0  0  0  0  0  0  0  0  0  0
  -23.2174  -22.4346   22.1064 O   0  0  0  0  0  0  0  0  0  1  0  0
  -21.2332   -8.1226   22.6588 F   0  0  0  0  0  0  0  0  0  0  0  0
  -22.7564  -10.3423   18.7654 F   0  0  0  0  0  0  0  0  0  0  0  0
  1  2  1  0  0  0  0
  1  5  2  0  0  0  0
  2  6  2  0  0  0  0
  3  8  2  0  0  0  0
  3 15  1  0  0  0  0
  4  9  1  0  0  0  0
  4 15  2  0  0  0  0
  5 17  1  0  0  0  0
  6 19  1  0  0  0  0
  7 10  2  0  0  0  0
  7 18  1  0  0  0  0
  8 21  1  0  0  0  0
  9 21  2  0  0  0  0
 10 22  1  0  0  0  0
 11 12  2  0  0  0  0
 11 23  1  0  0  0  0
 12 24  1  0  0  0  0
 13 20  1  0  0  0  0
 13 22  2  0  0  0  0
 14 24  2  0  0  0  0
 14 25  1  0  0  0  0
 15 26  1  0  0  0  0
 16 26  1  0  0  0  0
 16 27  2  0  0  0  0
 16 31  1  0  0  0  0
 17 19  2  0  0  0  0
 17 36  1  0  0  0  0
 18 20  2  0  0  0  0
 18 37  1  0  0  0  0
 19 48  1  0  0  0  0
 20 38  1  0  0  0  0
 21 84  1  0  0  0  0
 22 85  1  0  0  0  0
 23 25  2  0  0  0  0
 23 84  1  0  0  0  0
 24 86  1  0  0  0  0
 25 87  1  0  0  0  0
 26 64  2  0  0  0  0
 27 68  1  0  0  0  0
 27 72  1  0  0  0  0
 28 52  1  0  0  0  0
 28 65  1  0  0  0  0
 28 66  2  0  0  0  0
 29 58  1  0  0  0  0
 29 65  2  0  0  0  0
 29 67  1  0  0  0  0
 30 66  1  0  0  0  0
 30 67  2  0  0  0  0
 30 85  1  0  0  0  0
 31 73  1  0  0  0  0
 31 79  2  0  0  0  0
 32 49  1  0  0  0  0
 32 74  1  0  0  0  0
 32 80  2  0  0  0  0
 33 61  1  0  0  0  0
 33 69  1  0  0  0  0
 33 81  2  0  0  0  0
 34 62  1  0  0  0  0
 34 75  1  0  0  0  0
 34 82  2  0  0  0  0
 35 70  1  0  0  0  0
 35 71  1  0  0  0  0
 35 83  2  0  0  0  0
 36 39  1  0  0  0  0
 37 49  1  0  0  0  0
 38 69  1  0  0  0  0
 39 41  1  0  0  0  0
 40 42  1  0  0  0  0
 40 43  1  0  0  0  0
 41 48  1  0  0  0  0
 42 50  1  0  0  0  0
 43 70  1  0  0  0  0
 44 46  1  0  0  0  0
 44 71  1  0  0  0  0
 45 50  1  0  0  0  0
 45 70  1  0  0  0  0
 46 76  1  0  0  0  0
 47 51  1  0  0  0  0
 47 76  1  0  0  0  0
 48 74  1  0  0  0  0
 49 69  1  0  0  0  0
 50 68  1  0  0  0  0
 51 59  1  0  0  0  0
 51 71  1  0  0  0  0
 53 62  1  0  0  0  0
 54 63  1  0  0  0  0
 55 63  1  0  0  0  0
 56 63  1  0  0  0  0
 57 77  1  0  0  0  0
 58 78  1  0  0  0  0
 59 60  1  0  0  0  0
 60 78  1  0  0  0  0
 61 63  1  0  0  0  0
 61 75  1  0  0  0  0
 62 77  1  0  0  0  0
 64 68  1  0  0  0  0
M  CHG  3  76   1  77   1  78   1
M  ISO  4  30 101  35 100  71 100  85 101
M  END
> <Batch ID>
0189

> <Smiles>
CNC(C)C(=O)NC(C(=O)N1Cc2cc([101O:1][101c:1]3nc(C)nc(CNCCC4CNCC[100N:0]4[100C:0](=O)N4CCCC(n5nc(-c6ccc(Oc7ccc(F)cc7F)cc6)c(C(N)=O)c5N)C4)n3)ccc2CC1C(=O)NC1CCCc2ccccc21)C(C)(C)C

> <Shape>
0.265

> <Color>
0.068

> <Negative vol penalty>
0.000

$$$$

  -OEChem-04052323223D

 81 90  0     1  0  0  0  0  0999 V2000
  -28.9942  -31.3426   26.7422 C   0  0  0  0  0  0  0  0  0  0  0  0
  -28.8608  -30.3288   25.7989 C   0  0  0  0  0  0  0  0  0  0  0  0
  -26.1883  -12.3262   21.6880 C   0  0  0  0  0  0  0  0  0  0  0  0
  -25.3999  -12.5956   19.4202 C   0  0  0  0  0  0  0  0  0  0  0  0
  -27.8585  -31.9456   27.2812 C   0  0  0  0  0  0  0  0  0  0  0  0
  -27.5914  -29.9167   25.3947 C   0  0  0  0  0  0  0  0  0  0  0  0
  -27.2392  -29.3516   20.3746 C   0  0  0  0  0  0  0  0  0  0  0  0
  -24.9147  -11.9160   22.0820 C   0  0  0  0  0  0  0  0  0  0  0  0
  -24.1263  -12.1854   19.8142 C   0  0  0  0  0  0  0  0  0  0  0  0
  -27.7830  -28.1915   19.8248 C   0  0  0  0  0  0  0  0  0  0  0  0
  -20.7563  -10.8633   20.1505 C   0  0  0  0  0  0  0  0  0  0  0  0
  -20.0916   -9.9419   19.3413 C   0  0  0  0  0  0  0  0  0  0  0  0
  -25.5791  -27.2166   19.7175 C   0  0  0  0  0  0  0  0  0  0  0  0
  -21.8795   -8.3530   19.6819 C   0  0  0  0  0  0  0  0  0  0  0  0
  -29.9563  -23.5372   16.2535 C   0  0  0  0  0  0  0  0  0  0  0  0
  -26.4309  -12.6661   20.3571 C   0  0  0  0  0  0  0  0  0  0  0  0
  -28.7971  -12.2758   19.4872 C   0  0  0  0  0  0  0  0  0  0  0  0
  -26.5747  -31.5474   26.8762 C   0  0  0  0  0  0  0  0  0  0  0  0
  -25.8603  -29.4489   20.6105 C   0  0  0  0  0  0  0  0  0  0  0  0
  -26.4375  -30.5141   25.9297 C   0  0  0  0  0  0  0  0  0  0  0  0
  -25.0200  -28.3799   20.2680 C   0  0  0  0  0  0  0  0  0  0  0  0
  -29.9986  -22.3750   16.9762 C   0  0  0  0  0  0  0  0  0  0  0  0
  -23.8837  -11.8456   21.1452 C   0  0  0  0  0  0  0  0  0  0  0  0
  -26.9533  -27.1227   19.4988 C   0  0  0  0  0  0  0  0  0  0  0  0
  -21.9826  -10.5296   20.7254 C   0  0  0  0  0  0  0  0  0  0  0  0
  -20.6532   -8.6868   19.1070 C   0  0  0  0  0  0  0  0  0  0  0  0
  -22.5442   -9.2744   20.4911 C   0  0  0  0  0  0  0  0  0  0  0  0
  -27.7462  -13.0905   19.9495 C   0  0  0  0  0  0  0  0  0  0  0  0
  -29.6520  -22.4602   18.3124 C   0  0  0  0  0  0  0  0  0  0  0  0
  -29.8242  -13.1515   19.2333 C   0  0  0  0  0  0  0  0  0  0  0  0
  -29.2871  -24.6679   18.1320 C   0  0  0  0  0  0  0  0  0  0  0  0
  -28.8408  -10.8545   19.3036 C   0  0  0  0  0  0  0  0  0  0  0  0
  -24.0485  -29.8393   23.1929 C   0  0  0  0  0  0  0  0  0  0  0  0
  -21.6608  -30.0526   21.0075 C   0  0  0  0  0  0  0  0  0  0  0  0
  -20.5224  -29.3059   17.8781 C   0  0  0  0  0  0  0  0  0  0  0  0
  -29.8687  -18.8337   17.7982 C   0  0  0  0  0  0  0  0  0  0  0  0
  -25.3760  -32.1962   27.5219 C   0  0  0  0  0  0  0  0  0  0  0  0
  -25.2860  -30.7173   21.1795 C   0  0  0  0  0  0  0  0  0  0  0  0
  -23.5305  -28.4419   20.4827 C   0  0  0  0  0  0  0  0  0  0  0  0
  -29.7738  -21.1159   18.9658 C   0  0  0  0  0  0  0  0  0  0  0  0
  -24.0728  -31.9593   26.7632 C   0  0  0  0  0  0  0  0  0  0  0  0
  -31.5947  -17.3651   20.5959 C   0  0  0  0  0  0  0  0  0  0  0  0
  -23.9387  -30.4893   26.3784 C   0  0  0  0  0  0  0  0  0  0  0  0
  -30.8650  -16.0318   20.7303 C   0  0  0  0  0  0  0  0  0  0  0  0
  -30.6588  -18.5035   20.1847 C   0  0  0  0  0  0  0  0  0  0  0  0
  -29.1337  -16.8690   19.1062 C   0  0  0  0  0  0  0  0  0  0  0  0
  -25.0779  -30.0565   25.4476 C   0  0  1  0  0  0  0  0  0  0  0  0
  -30.3397  -20.9756   16.5919 C   0  0  1  0  0  0  0  0  0  0  0  0
  -23.9331  -30.5108   21.8537 C   0  0  1  0  0  0  0  0  0  0  0  0
  -30.0823  -15.7118   19.4470 C   0  0  2  0  0  0  0  0  0  0  0  0
  -31.7814  -20.8278   16.1212 C   0  0  0  0  0  0  0  0  0  0  0  0
  -18.5180  -29.5810   16.3934 C   0  0  0  0  0  0  0  0  0  0  0  0
  -20.2120  -27.8628   22.5618 C   0  0  0  0  0  0  0  0  0  0  0  0
  -18.7362  -27.5211   20.5684 C   0  0  0  0  0  0  0  0  0  0  0  0
  -18.7404  -29.7162   21.7532 C   0  0  0  0  0  0  0  0  0  0  0  0
  -22.0700  -30.8438   15.8784 C   0  0  0  0  0  0  0  0  0  0  0  0
  -28.8933  -25.9621   18.7606 C   0  0  0  0  0  0  0  0  0  1  0  0
  -20.7328  -29.0676   20.3384 C   0  0  1  0  0  0  0  0  0  0  0  0
  -19.8574  -30.1638   16.8168 C   0  0  2  0  0  0  0  0  0  0  0  0
  -19.6336  -28.5397   21.3031 C   0  0  0  0  0  0  0  0  0  0  0  0
  -29.6002  -24.7141   16.8131 N   0  0  0  0  0  0  0  0  0  0  0  0
  -28.0755  -14.3843   19.9882 N   0  0  0  0  0  0  0  0  0  0  0  0
  -29.2917  -23.5873   18.9403 N   0  0  0  0  0  0  0  0  0  0  0  0
  -29.3449  -14.3893   19.5470 N   0  0  0  0  0  0  0  0  0  0  0  0
  -23.0175  -29.7010   21.0474 N   0  0  0  0  0  0  0  0  0  0  0  0
  -30.1003  -20.2125   17.8409 N   0  0  0  0  0  0  0  0  0  0  0  0
  -29.8498  -18.1440   19.0157 N   0  0  0  0  0  0  0  0  0  0  0  0
  -31.0817  -12.9759   18.7745 N   0  0  0  0  0  0  0  0  0  0  0  0
  -27.6974  -10.1054   19.6130 N   0  0  0  0  0  0  0  0  0  0  0  0
  -24.8346  -30.5241   24.0998 N   0  0  0  0  0  0  0  0  0  0  0  0
  -20.2140  -29.7376   19.1508 N   0  0  0  0  0  0  0  0  0  0  0  0
  -20.7282  -30.2646   15.6117 N   0  3  0  0  0  0  0  0  0  0  0  0
  -29.8690  -10.2644   18.8935 O   0  0  0  0  0  0  0  0  0  0  0  0
  -23.4661  -28.7792   23.3893 O   0  0  0  0  0  0  0  0  0  0  0  0
  -21.2000  -31.0987   21.4711 O   0  0  0  0  0  0  0  0  0  0  0  0
  -21.2403  -28.3464   17.6053 O   0  0  0  0  0  0  0  0  0  0  0  0
  -29.6448  -18.2541   16.7276 O   0  0  0  0  0  0  0  0  0  0  0  0
  -22.6409  -11.4451   21.5293 O   0  0  0  0  0  0  0  0  0  0  0  0
  -27.4851  -25.9811   18.9589 O   0  0  0  0  0  0  0  0  0  1  0  0
  -20.0141   -7.8015   18.3311 F   0  0  0  0  0  0  0  0  0  0  0  0
  -23.7215   -8.9477   21.0416 F   0  0  0  0  0  0  0  0  0  0  0  0
  1  2  1  0  0  0  0
  1  5  2  0  0  0  0
  2  6  2  0  0  0  0
  3  8  2  0  0  0  0
  3 16  1  0  0  0  0
  4  9  1  0  0  0  0
  4 16  2  0  0  0  0
  5 18  1  0  0  0  0
  6 20  1  0  0  0  0
  7 10  2  0  0  0  0
  7 19  1  0  0  0  0
  8 23  1  0  0  0  0
  9 23  2  0  0  0  0
 10 24  1  0  0  0  0
 11 12  2  0  0  0  0
 11 25  1  0  0  0  0
 12 26  1  0  0  0  0
 13 21  1  0  0  0  0
 13 24  2  0  0  0  0
 14 26  2  0  0  0  0
 14 27  1  0  0  0  0
 15 22  1  0  0  0  0
 15 61  2  0  0  0  0
 16 28  1  0  0  0  0
 17 28  1  0  0  0  0
 17 30  2  0  0  0  0
 17 32  1  0  0  0  0
 18 20  2  0  0  0  0
 18 37  1  0  0  0  0
 19 21  2  0  0  0  0
 19 38  1  0  0  0  0
 20 47  1  0  0  0  0
 21 39  1  0  0  0  0
 22 29  2  0  0  0  0
 22 48  1  0  0  0  0
 23 78  1  0  0  0  0
 24 79  1  0  0  0  0
 25 27  2  0  0  0  0
 25 78  1  0  0  0  0
 26 80  1  0  0  0  0
 27 81  1  0  0  0  0
 28 62  2  0  0  0  0
 29 40  1  0  0  0  0
 29 63  1  0  0  0  0
 30 64  1  0  0  0  0
 30 68  1  0  0  0  0
 31 57  1  0  0  0  0
 31 61  1  0  0  0  0
 31 63  2  0  0  0  0
 32 69  1  0  0  0  0
 32 73  2  0  0  0  0
 33 49  1  0  0  0  0
 33 70  1  0  0  0  0
 33 74  2  0  0  0  0
 34 58  1  0  0  0  0
 34 65  1  0  0  0  0
 34 75  2  0  0  0  0
 35 59  1  0  0  0  0
 35 71  1  0  0  0  0
 35 76  2  0  0  0  0
 36 66  1  0  0  0  0
 36 67  1  0  0  0  0
 36 77  2  0  0  0  0
 37 41  1  0  0  0  0
 38 49  1  0  0  0  0
 39 65  1  0  0  0  0
 40 66  1  0  0  0  0
 41 43  1  0  0  0  0
 42 44  1  0  0  0  0
 42 45  1  0  0  0  0
 43 47  1  0  0  0  0
 44 50  1  0  0  0  0
 45 67  1  0  0  0  0
 46 50  1  0  0  0  0
 46 67  1  0  0  0  0
 47 70  1  0  0  0  0
 48 51  1  0  0  0  0
 48 66  1  0  0  0  0
 49 65  1  0  0  0  0
 50 64  1  0  0  0  0
 52 59  1  0  0  0  0
 53 60  1  0  0  0  0
 54 60  1  0  0  0  0
 55 60  1  0  0  0  0
 56 72  1  0  0  0  0
 57 79  1  0  0  0  0
 58 60  1  0  0  0  0
 58 71  1  0  0  0  0
 59 72  1  0  0  0  0
 62 64  1  0  0  0  0
M  CHG  1  72   1
M  ISO  4  36 100  57 101  66 100  79 101
M  END
> <Batch ID>
0189

> <Smiles>
CNC(C)C(=O)NC(C(=O)N1Cc2cc([101O:1][101CH2:1]c3ncc4c(n3)C[100N:0]([100C:0](=O)N3CCCC(n5nc(-c6ccc(Oc7ccc(F)cc7F)cc6)c(C(N)=O)c5N)C3)C4C)ccc2CC1C(=O)NC1CCCc2ccccc21)C(C)(C)C

> <Shape>
0.317

> <Color>
0.091

> <Negative vol penalty>
0.000

$$$$

  -OEChem-04052323223D

 85 94  0     1  0  0  0  0  0999 V2000
  -27.1427  -37.6315   20.2175 C   0  0  0  0  0  0  0  0  0  0  0  0
  -27.6307  -36.3876   19.8303 C   0  0  0  0  0  0  0  0  0  0  0  0
  -22.9364  -14.3690   18.1331 C   0  0  0  0  0  0  0  0  0  0  0  0
  -22.2764  -13.5913   20.3232 C   0  0  0  0  0  0  0  0  0  0  0  0
  -26.4332  -37.7601   21.4108 C   0  0  0  0  0  0  0  0  0  0  0  0
  -27.4104  -35.2716   20.6368 C   0  0  0  0  0  0  0  0  0  0  0  0
  -26.4612  -29.5146   18.7765 C   0  0  0  0  0  0  0  0  0  0  0  0
  -21.9776  -13.5406   17.5500 C   0  0  0  0  0  0  0  0  0  0  0  0
  -21.3176  -12.7629   19.7401 C   0  0  0  0  0  0  0  0  0  0  0  0
  -27.3075  -28.4118   18.6695 C   0  0  0  0  0  0  0  0  0  0  0  0
  -18.2196  -13.0810   18.4279 C   0  0  0  0  0  0  0  0  0  0  0  0
  -16.9481  -13.0607   19.0009 C   0  0  0  0  0  0  0  0  0  0  0  0
  -26.5680  -27.6420   20.8328 C   0  0  0  0  0  0  0  0  0  0  0  0
  -17.1768  -10.6932   19.4248 C   0  0  0  0  0  0  0  0  0  0  0  0
  -30.4596  -24.2152   20.9696 C   0  0  0  0  0  0  0  0  0  0  0  0
  -23.0859  -14.3943   19.5197 C   0  0  0  0  0  0  0  0  0  0  0  0
  -23.9062  -16.5816   20.5446 C   0  0  0  0  0  0  0  0  0  0  0  0
  -26.1958  -36.6433   22.2276 C   0  0  0  0  0  0  0  0  0  0  0  0
  -25.6687  -29.6954   19.9191 C   0  0  0  0  0  0  0  0  0  0  0  0
  -26.6982  -35.3856   21.8428 C   0  0  0  0  0  0  0  0  0  0  0  0
  -25.7105  -28.7465   20.9506 C   0  0  0  0  0  0  0  0  0  0  0  0
  -21.1682  -12.7375   18.3535 C   0  0  0  0  0  0  0  0  0  0  0  0
  -27.3631  -27.4768   19.6990 C   0  0  0  0  0  0  0  0  0  0  0  0
  -18.9698  -11.9073   18.3533 C   0  0  0  0  0  0  0  0  0  0  0  0
  -16.4267  -11.8669   19.4994 C   0  0  0  0  0  0  0  0  0  0  0  0
  -18.4484  -10.7135   18.8517 C   0  0  0  0  0  0  0  0  0  0  0  0
  -24.0765  -15.2494   20.1226 C   0  0  0  0  0  0  0  0  0  0  0  0
  -29.1824  -24.3879   20.4033 C   0  0  0  0  0  0  0  0  0  0  0  0
  -30.9458  -23.0746   20.3788 C   0  0  0  0  0  0  0  0  0  0  0  0
  -25.1336  -16.9432   21.0438 C   0  0  0  0  0  0  0  0  0  0  0  0
  -22.7425  -17.4174   20.4903 C   0  0  0  0  0  0  0  0  0  0  0  0
  -25.4723  -31.9167   22.1843 C   0  0  0  0  0  0  0  0  0  0  0  0
  -22.9085  -30.1693   23.1307 C   0  0  0  0  0  0  0  0  0  0  0  0
  -21.3094  -27.1545   23.1628 C   0  0  0  0  0  0  0  0  0  0  0  0
  -30.6018  -17.1438   20.4030 C   0  0  0  0  0  0  0  0  0  0  0  0
  -25.4645  -36.8402   23.5319 C   0  0  0  0  0  0  0  0  0  0  0  0
  -24.7411  -30.8762   20.0074 C   0  0  0  0  0  0  0  0  0  0  0  0
  -24.8648  -28.8840   22.1893 C   0  0  0  0  0  0  0  0  0  0  0  0
  -24.9510  -35.5398   24.1446 C   0  0  0  0  0  0  0  0  0  0  0  0
  -29.2135  -14.1811   22.1082 C   0  0  0  0  0  0  0  0  0  0  0  0
  -26.0388  -34.4708   24.1175 C   0  0  0  0  0  0  0  0  0  0  0  0
  -27.7402  -14.2857   21.7253 C   0  0  0  0  0  0  0  0  0  0  0  0
  -34.2180  -17.8824   21.3828 C   0  0  0  0  0  0  0  0  0  0  0  0
  -30.1320  -14.6924   20.9992 C   0  0  0  0  0  0  0  0  0  0  0  0
  -28.3339  -16.1823   20.1678 C   0  0  0  0  0  0  0  0  0  0  0  0
  -26.4583  -34.1470   22.6785 C   0  0  1  0  0  0  0  0  0  0  0  0
  -24.3606  -31.2311   21.4415 C   0  0  1  0  0  0  0  0  0  0  0  0
  -33.1824  -18.9170   21.7217 C   0  0  2  0  0  0  0  0  0  0  0  0
  -27.3932  -15.7178   21.2902 C   0  0  1  0  0  0  0  0  0  0  0  0
  -32.9362  -17.9479   20.5934 C   0  0  2  0  0  0  0  0  0  0  0  0
  -19.2507  -26.0260   24.0490 C   0  0  0  0  0  0  0  0  0  0  0  0
  -24.1697  -30.0538   25.9067 C   0  0  0  0  0  0  0  0  0  0  0  0
  -22.6090  -28.1764   26.4614 C   0  0  0  0  0  0  0  0  0  0  0  0
  -21.6972  -30.4292   25.8990 C   0  0  0  0  0  0  0  0  0  0  0  0
  -30.0066  -21.4856   18.6736 C   0  0  0  0  0  0  0  0  0  0  0  0
  -20.3375  -26.5306   20.4379 C   0  0  0  0  0  0  0  0  0  0  0  0
  -31.5408  -21.3470   22.7124 C   0  0  0  0  0  0  0  0  0  0  0  0
  -28.1957  -25.4814   20.6895 C   0  0  0  0  0  0  0  0  0  1  0  0
  -32.2285  -22.3677   20.5477 C   0  0  0  0  0  0  0  0  0  0  0  0
  -33.4411  -20.3783   21.4269 C   0  0  0  0  0  0  0  0  0  0  0  0
  -22.6957  -29.0032   24.0656 C   0  0  1  0  0  0  0  0  0  0  0  0
  -19.8670  -26.7763   22.8786 C   0  0  2  0  0  0  0  0  0  0  0  0
  -22.8104  -29.4138   25.5608 C   0  0  0  0  0  0  0  0  0  0  0  0
  -25.3146  -14.7955   20.3351 N   0  0  0  0  0  0  0  0  0  0  0  0
  -28.8765  -23.4335   19.5204 N   0  0  0  0  0  0  0  0  0  0  0  0
  -29.9684  -22.6502   19.5274 N   0  0  0  0  0  0  0  0  0  0  0  0
  -25.9334  -15.8484   20.8959 N   0  0  0  0  0  0  0  0  0  0  0  0
  -23.9786  -30.0589   22.2315 N   0  0  0  0  0  0  0  0  0  0  0  0
  -29.7434  -16.0396   20.5528 N   0  0  0  0  0  0  0  0  0  0  0  0
  -25.5960  -18.0878   21.5903 N   0  0  0  0  0  0  0  0  0  0  0  0
  -21.5643  -16.8879   19.9464 N   0  0  0  0  0  0  0  0  0  0  0  0
  -25.4770  -33.2916   22.0463 N   0  0  0  0  0  0  0  0  0  0  0  0
  -21.4089  -28.4191   23.7033 N   0  0  0  0  0  0  0  0  0  0  0  0
  -31.9397  -16.9163   20.7051 N   0  0  0  0  0  0  0  0  0  0  0  0
  -19.7876  -25.9084   21.6697 N   0  3  0  0  0  0  0  0  0  0  0  0
  -32.1277  -21.1079   21.3480 N   0  3  1  0  0  0  0  0  0  0  0  0
  -22.7519  -18.6042   20.8966 O   0  0  0  0  0  0  0  0  0  0  0  0
  -26.2662  -31.2479   22.8355 O   0  0  0  0  0  0  0  0  0  0  0  0
  -22.1487  -31.1392   23.1911 O   0  0  0  0  0  0  0  0  0  0  0  0
  -22.2532  -26.4019   22.9321 O   0  0  0  0  0  0  0  0  0  0  0  0
  -30.2078  -18.2517   20.0222 O   0  0  0  0  0  0  0  0  0  0  0  0
  -20.2323  -11.9292   17.7848 O   0  0  0  0  0  0  0  0  0  0  0  0
  -28.1888  -26.3999   19.5974 O   0  0  0  0  0  0  0  0  0  1  0  0
  -15.2062  -11.8479   20.0510 F   0  0  0  0  0  0  0  0  0  0  0  0
  -19.1648   -9.5830   18.7839 F   0  0  0  0  0  0  0  0  0  0  0  0
  1  2  1  0  0  0  0
  1  5  2  0  0  0  0
  2  6  2  0  0  0  0
  3  8  2  0  0  0  0
  3 16  1  0  0  0  0
  4  9  1  0  0  0  0
  4 16  2  0  0  0  0
  5 18  1  0  0  0  0
  6 20  1  0  0  0  0
  7 10  2  0  0  0  0
  7 19  1  0  0  0  0
  8 22  1  0  0  0  0
  9 22  2  0  0  0  0
 10 23  1  0  0  0  0
 11 12  2  0  0  0  0
 11 24  1  0  0  0  0
 12 25  1  0  0  0  0
 13 21  1  0  0  0  0
 13 23  2  0  0  0  0
 14 25  2  0  0  0  0
 14 26  1  0  0  0  0
 15 28  1  0  0  0  0
 15 29  2  0  0  0  0
 16 27  1  0  0  0  0
 17 27  1  0  0  0  0
 17 30  2  0  0  0  0
 17 31  1  0  0  0  0
 18 20  2  0  0  0  0
 18 36  1  0  0  0  0
 19 21  2  0  0  0  0
 19 37  1  0  0  0  0
 20 46  1  0  0  0  0
 21 38  1  0  0  0  0
 22 82  1  0  0  0  0
 23 83  1  0  0  0  0
 24 26  2  0  0  0  0
 24 82  1  0  0  0  0
 25 84  1  0  0  0  0
 26 85  1  0  0  0  0
 27 64  2  0  0  0  0
 28 58  1  0  0  0  0
 28 65  2  0  0  0  0
 29 59  1  0  0  0  0
 29 66  1  0  0  0  0
 30 67  1  0  0  0  0
 30 70  1  0  0  0  0
 31 71  1  0  0  0  0
 31 77  2  0  0  0  0
 32 47  1  0  0  0  0
 32 72  1  0  0  0  0
 32 78  2  0  0  0  0
 33 61  1  0  0  0  0
 33 68  1  0  0  0  0
 33 79  2  0  0  0  0
 34 62  1  0  0  0  0
 34 73  1  0  0  0  0
 34 80  2  0  0  0  0
 35 69  1  0  0  0  0
 35 74  1  0  0  0  0
 35 81  2  0  0  0  0
 36 39  1  0  0  0  0
 37 47  1  0  0  0  0
 38 68  1  0  0  0  0
 39 41  1  0  0  0  0
 40 42  1  0  0  0  0
 40 44  1  0  0  0  0
 41 46  1  0  0  0  0
 42 49  1  0  0  0  0
 43 48  1  0  0  0  0
 43 50  1  0  0  0  0
 44 69  1  0  0  0  0
 45 49  1  0  0  0  0
 45 69  1  0  0  0  0
 46 72  1  0  0  0  0
 47 68  1  0  0  0  0
 48 50  1  0  0  0  0
 48 60  1  0  0  0  0
 49 67  1  0  0  0  0
 50 74  1  0  0  0  0
 51 62  1  0  0  0  0
 52 63  1  0  0  0  0
 53 63  1  0  0  0  0
 54 63  1  0  0  0  0
 55 66  1  0  0  0  0
 56 75  1  0  0  0  0
 57 76  1  0  0  0  0
 58 83  1  0  0  0  0
 59 76  1  0  0  0  0
 60 76  1  0  0  0  0
 61 63  1  0  0  0  0
 61 73  1  0  0  0  0
 62 75  1  0  0  0  0
 64 67  1  0  0  0  0
 65 66  1  0  0  0  0
M  CHG  2  75   1  76   1
M  ISO  4  35 100  58 101  74 100  83 101
M  END
> <Batch ID>
0189

> <Smiles>
CNC(C)C(=O)NC(C(=O)N1Cc2cc([101O:1][101CH2:1]c3cc(CN(C)CC4CC4[100NH:0][100C:0](=O)N4CCCC(n5nc(-c6ccc(Oc7ccc(F)cc7F)cc6)c(C(N)=O)c5N)C4)n(C)n3)ccc2CC1C(=O)NC1CCCc2ccccc21)C(C)(C)C

> <Shape>
0.228

> <Color>
0.086

> <Negative vol penalty>
0.000

$$$$

  -OEChem-04052323223D

 86 95  0     1  0  0  0  0  0999 V2000
  -29.6448  -31.5300   26.1509 C   0  0  0  0  0  0  0  0  0  0  0  0
  -29.3053  -30.4200   25.3841 C   0  0  0  0  0  0  0  0  0  0  0  0
  -22.4200  -10.3943   20.8262 C   0  0  0  0  0  0  0  0  0  0  0  0
  -24.2754   -9.4380   22.0428 C   0  0  0  0  0  0  0  0  0  0  0  0
  -28.6465  -32.3803   26.6247 C   0  0  0  0  0  0  0  0  0  0  0  0
  -27.9671  -30.1591   25.0914 C   0  0  0  0  0  0  0  0  0  0  0  0
  -27.2484  -28.9076   20.2373 C   0  0  0  0  0  0  0  0  0  0  0  0
  -21.8407   -9.1302   20.7161 C   0  0  0  0  0  0  0  0  0  0  0  0
  -23.6961   -8.1740   21.9328 C   0  0  0  0  0  0  0  0  0  0  0  0
  -27.5772  -27.6064   19.8598 C   0  0  0  0  0  0  0  0  0  0  0  0
  -22.5284   -4.7491   22.2858 C   0  0  0  0  0  0  0  0  0  0  0  0
  -22.5045   -3.9444   23.4249 C   0  0  0  0  0  0  0  0  0  0  0  0
  -25.2482  -26.9896   19.9793 C   0  0  0  0  0  0  0  0  0  0  0  0
  -21.2031   -5.6197   24.5811 C   0  0  0  0  0  0  0  0  0  0  0  0
  -23.6374  -10.5482   21.4895 C   0  0  0  0  0  0  0  0  0  0  0  0
  -24.0431  -12.7910   22.6354 C   0  0  0  0  0  0  0  0  0  0  0  0
  -27.2962  -32.1350   26.3295 C   0  0  0  0  0  0  0  0  0  0  0  0
  -25.9160  -29.2574   20.4996 C   0  0  0  0  0  0  0  0  0  0  0  0
  -26.9497  -31.0061   25.5627 C   0  0  0  0  0  0  0  0  0  0  0  0
  -24.9048  -28.2966   20.3574 C   0  0  0  0  0  0  0  0  0  0  0  0
  -26.9123  -24.5272   15.3867 C   0  0  0  0  0  0  0  0  0  0  0  0
  -22.4787   -8.0201   21.2694 C   0  0  0  0  0  0  0  0  0  0  0  0
  -26.5774  -26.6464   19.7336 C   0  0  0  0  0  0  0  0  0  0  0  0
  -21.8896   -5.9891   22.2943 C   0  0  0  0  0  0  0  0  0  0  0  0
  -21.8419   -4.3797   24.5725 C   0  0  0  0  0  0  0  0  0  0  0  0
  -21.2270   -6.4244   23.4420 C   0  0  0  0  0  0  0  0  0  0  0  0
  -24.2367  -11.8536   21.6031 C   0  0  0  0  0  0  0  0  0  0  0  0
  -26.6035  -25.7807   15.8742 C   0  0  0  0  0  0  0  0  0  0  0  0
  -27.2162  -23.5749   16.3380 C   0  0  0  0  0  0  0  0  0  0  0  0
  -24.8284  -13.8603   22.2799 C   0  0  0  0  0  0  0  0  0  0  0  0
  -26.9029  -25.0772   18.0149 C   0  0  0  0  0  0  0  0  0  1  0  0
  -23.2265  -12.7029   23.8106 C   0  0  0  0  0  0  0  0  0  0  0  0
  -24.3343  -30.3156   23.0456 C   0  0  0  0  0  0  0  0  0  0  0  0
  -21.8867  -30.5744   20.9327 C   0  0  0  0  0  0  0  0  0  0  0  0
  -20.4720  -29.5557   17.9989 C   0  0  0  0  0  0  0  0  0  0  0  0
  -26.3327  -17.3759   18.1971 C   0  0  0  0  0  0  0  0  0  0  0  0
  -26.2488  -33.0560   26.9035 C   0  0  0  0  0  0  0  0  0  0  0  0
  -25.5746  -30.6721   20.8799 C   0  0  0  0  0  0  0  0  0  0  0  0
  -23.4567  -28.6264   20.6079 C   0  0  0  0  0  0  0  0  0  0  0  0
  -24.8837  -32.9180   26.2343 C   0  0  0  0  0  0  0  0  0  0  0  0
  -28.3624  -14.3118   18.6938 C   0  0  0  0  0  0  0  0  0  0  0  0
  -24.5059  -31.4471   26.0907 C   0  0  0  0  0  0  0  0  0  0  0  0
  -27.4212  -13.4642   19.5510 C   0  0  0  0  0  0  0  0  0  0  0  0
  -29.3892  -19.3861   17.8383 C   0  0  0  0  0  0  0  0  0  0  0  0
  -27.5766  -15.2181   17.7551 C   0  0  0  0  0  0  0  0  0  0  0  0
  -28.8105  -17.9774   17.9275 C   0  0  0  0  0  0  0  0  0  0  0  0
  -25.6551  -15.2734   19.2984 C   0  0  0  0  0  0  0  0  0  0  0  0
  -27.1072  -19.4890   17.1573 C   0  0  0  0  0  0  0  0  0  0  0  0
  -25.5113  -30.7034   25.2033 C   0  0  1  0  0  0  0  0  0  0  0  0
  -24.2466  -30.7875   21.6218 C   0  0  1  0  0  0  0  0  0  0  0  0
  -26.3892  -14.3433   20.2806 C   0  0  1  0  0  0  0  0  0  0  0  0
  -28.4802  -20.0291   16.8015 C   0  0  1  0  0  0  0  0  0  0  0  0
  -26.9195  -24.2222   13.9307 C   0  0  0  0  0  0  0  0  0  0  0  0
  -26.2569  -26.8919   14.9383 C   0  0  0  0  0  0  0  0  0  0  0  0
  -18.4518  -29.9194   16.5553 C   0  0  0  0  0  0  0  0  0  0  0  0
  -20.2122  -28.9025   22.8591 C   0  0  0  0  0  0  0  0  0  0  0  0
  -18.5908  -28.5036   20.9935 C   0  0  0  0  0  0  0  0  0  0  0  0
  -18.9962  -30.8233   21.8167 C   0  0  0  0  0  0  0  0  0  0  0  0
  -22.1195  -30.5088   15.7325 C   0  0  0  0  0  0  0  0  0  0  0  0
  -29.9194  -22.0603   16.7427 C   0  0  0  0  0  0  0  0  0  0  0  0
  -27.5693  -22.1757   15.9274 C   0  0  0  0  0  0  0  0  0  0  0  0
  -20.7831  -29.6603   20.4579 C   0  0  1  0  0  0  0  0  0  0  0  0
  -19.8861  -30.3388   16.8378 C   0  0  2  0  0  0  0  0  0  0  0  0
  -19.6730  -29.4654   21.5289 C   0  0  0  0  0  0  0  0  0  0  0  0
  -25.0787  -12.2893   20.6622 N   0  0  0  0  0  0  0  0  0  0  0  0
  -26.5890  -26.0919   17.1870 N   0  0  0  0  0  0  0  0  0  0  0  0
  -27.2212  -23.8162   17.6654 N   0  0  0  0  0  0  0  0  0  0  0  0
  -25.4212  -13.5121   21.1020 N   0  0  0  0  0  0  0  0  0  0  0  0
  -23.1742  -30.0216   20.9835 N   0  0  0  0  0  0  0  0  0  0  0  0
  -26.6114  -16.0370   18.4938 N   0  0  0  0  0  0  0  0  0  0  0  0
  -27.3735  -18.1556   17.6945 N   0  0  0  0  0  0  0  0  0  0  0  0
  -25.0627  -15.0550   22.8631 N   0  0  0  0  0  0  0  0  0  0  0  0
  -22.4840  -11.5332   24.0222 N   0  0  0  0  0  0  0  0  0  0  0  0
  -25.2658  -30.9953   23.8072 N   0  0  0  0  0  0  0  0  0  0  0  0
  -20.3057  -30.2176   19.1970 N   0  0  0  0  0  0  0  0  0  0  0  0
  -20.6922  -30.1170   15.6042 N   0  3  0  0  0  0  0  0  0  0  0  0
  -28.5217  -21.4980   16.8889 N   0  3  1  0  0  0  0  0  0  0  0  0
  -23.1447  -13.6405   24.6399 O   0  0  0  0  0  0  0  0  0  0  0  0
  -23.6095  -29.4035   23.4256 O   0  0  0  0  0  0  0  0  0  0  0  0
  -21.6175  -31.7383   21.2403 O   0  0  0  0  0  0  0  0  0  0  0  0
  -21.0190  -28.4642   17.8576 O   0  0  0  0  0  0  0  0  0  0  0  0
  -25.2172  -17.8662   18.4170 O   0  0  0  0  0  0  0  0  0  0  0  0
  -21.9136   -6.7865   21.1624 O   0  0  0  0  0  0  0  0  0  0  0  0
  -26.8997  -25.3593   19.3613 O   0  0  0  0  0  0  0  0  0  1  0  0
  -21.8177   -3.6062   25.6658 F   0  0  0  0  0  0  0  0  0  0  0  0
  -20.6106   -7.6142   23.4558 F   0  0  0  0  0  0  0  0  0  0  0  0
  1  2  1  0  0  0  0
  1  5  2  0  0  0  0
  2  6  2  0  0  0  0
  3  8  2  0  0  0  0
  3 15  1  0  0  0  0
  4  9  1  0  0  0  0
  4 15  2  0  0  0  0
  5 17  1  0  0  0  0
  6 19  1  0  0  0  0
  7 10  2  0  0  0  0
  7 18  1  0  0  0  0
  8 22  1  0  0  0  0
  9 22  2  0  0  0  0
 10 23  1  0  0  0  0
 11 12  2  0  0  0  0
 11 24  1  0  0  0  0
 12 25  1  0  0  0  0
 13 20  1  0  0  0  0
 13 23  2  0  0  0  0
 14 25  2  0  0  0  0
 14 26  1  0  0  0  0
 15 27  1  0  0  0  0
 16 27  1  0  0  0  0
 16 30  2  0  0  0  0
 16 32  1  0  0  0  0
 17 19  2  0  0  0  0
 17 37  1  0  0  0  0
 18 20  2  0  0  0  0
 18 38  1  0  0  0  0
 19 49  1  0  0  0  0
 20 39  1  0  0  0  0
 21 28  1  0  0  0  0
 21 29  2  0  0  0  0
 21 53  1  0  0  0  0
 22 83  1  0  0  0  0
 23 84  1  0  0  0  0
 24 26  2  0  0  0  0
 24 83  1  0  0  0  0
 25 85  1  0  0  0  0
 26 86  1  0  0  0  0
 27 65  2  0  0  0  0
 28 54  1  0  0  0  0
 28 66  2  0  0  0  0
 29 61  1  0  0  0  0
 29 67  1  0  0  0  0
 30 68  1  0  0  0  0
 30 72  1  0  0  0  0
 31 66  1  0  0  0  0
 31 67  2  0  0  0  0
 31 84  1  0  0  0  0
 32 73  1  0  0  0  0
 32 78  2  0  0  0  0
 33 50  1  0  0  0  0
 33 74  1  0  0  0  0
 33 79  2  0  0  0  0
 34 62  1  0  0  0  0
 34 69  1  0  0  0  0
 34 80  2  0  0  0  0
 35 63  1  0  0  0  0
 35 75  1  0  0  0  0
 35 81  2  0  0  0  0
 36 70  1  0  0  0  0
 36 71  1  0  0  0  0
 36 82  2  0  0  0  0
 37 40  1  0  0  0  0
 38 50  1  0  0  0  0
 39 69  1  0  0  0  0
 40 42  1  0  0  0  0
 41 43  1  0  0  0  0
 41 45  1  0  0  0  0
 42 49  1  0  0  0  0
 43 51  1  0  0  0  0
 44 46  1  0  0  0  0
 44 52  1  0  0  0  0
 45 70  1  0  0  0  0
 46 71  1  0  0  0  0
 47 51  1  0  0  0  0
 47 70  1  0  0  0  0
 48 52  1  0  0  0  0
 48 71  1  0  0  0  0
 49 74  1  0  0  0  0
 50 69  1  0  0  0  0
 51 68  1  0  0  0  0
 52 77  1  0  0  0  0
 55 63  1  0  0  0  0
 56 64  1  0  0  0  0
 57 64  1  0  0  0  0
 58 64  1  0  0  0  0
 59 76  1  0  0  0  0
 60 77  1  0  0  0  0
 61 77  1  0  0  0  0
 62 64  1  0  0  0  0
 62 75  1  0  0  0  0
 63 76  1  0  0  0  0
 65 68  1  0  0  0  0
M  CHG  2  76   1  77   1
M  ISO  4  31 101  36 100  71 100  84 101
M  END
> <Batch ID>
0189

> <Smiles>
CNC(C)C(=O)NC(C(=O)N1Cc2cc([101O:1][101c:1]3nc(C)c(C)c(CN(C)C4CC[100N:0]([100C:0](=O)N5CCCC(n6nc(-c7ccc(Oc8ccc(F)cc8F)cc7)c(C(N)=O)c6N)C5)C4)n3)ccc2CC1C(=O)NC1CCCc2ccccc21)C(C)(C)C

> <Shape>
0.281

> <Color>
0.108

> <Negative vol penalty>
0.000

$$$$

  -OEChem-04052323223D

 83 92  0     1  0  0  0  0  0999 V2000
  -29.4462  -32.6468   25.9788 C   0  0  0  0  0  0  0  0  0  0  0  0
  -29.2602  -31.4629   25.2722 C   0  0  0  0  0  0  0  0  0  0  0  0
  -22.5437   -9.5247   20.0256 C   0  0  0  0  0  0  0  0  0  0  0  0
  -23.7189   -9.3711   22.1309 C   0  0  0  0  0  0  0  0  0  0  0  0
  -28.3420  -33.3857   26.4016 C   0  0  0  0  0  0  0  0  0  0  0  0
  -27.9699  -31.0167   24.9890 C   0  0  0  0  0  0  0  0  0  0  0  0
  -27.4705  -29.4251   20.2075 C   0  0  0  0  0  0  0  0  0  0  0  0
  -28.6381  -19.8359   18.0768 C   0  0  0  0  0  0  0  0  0  0  0  0
  -22.3027   -8.1513   20.0599 C   0  0  0  0  0  0  0  0  0  0  0  0
  -23.4778   -7.9976   22.1653 C   0  0  0  0  0  0  0  0  0  0  0  0
  -27.9676  -28.1587   19.9028 C   0  0  0  0  0  0  0  0  0  0  0  0
  -20.9107   -5.9396   22.9366 C   0  0  0  0  0  0  0  0  0  0  0  0
  -20.4747   -5.3896   24.1420 C   0  0  0  0  0  0  0  0  0  0  0  0
  -28.5681  -21.2194   17.9704 C   0  0  0  0  0  0  0  0  0  0  0  0
  -25.7358  -27.2546   20.0466 C   0  0  0  0  0  0  0  0  0  0  0  0
  -22.4222   -3.9607   24.1946 C   0  0  0  0  0  0  0  0  0  0  0  0
  -23.2519  -10.1346   21.0611 C   0  0  0  0  0  0  0  0  0  0  0  0
  -22.6881  -12.5731   21.5547 C   0  0  0  0  0  0  0  0  0  0  0  0
  -27.0376  -32.9533   26.1150 C   0  0  0  0  0  0  0  0  0  0  0  0
  -26.1015  -29.6141   20.4452 C   0  0  0  0  0  0  0  0  0  0  0  0
  -26.8472  -31.7498   25.4095 C   0  0  0  0  0  0  0  0  0  0  0  0
  -28.9608  -19.2425   19.3000 C   0  0  0  0  0  0  0  0  0  0  0  0
  -25.2234  -28.5249   20.3516 C   0  0  0  0  0  0  0  0  0  0  0  0
  -22.7697   -7.3877   21.1298 C   0  0  0  0  0  0  0  0  0  0  0  0
  -27.1006  -27.0727   19.8251 C   0  0  0  0  0  0  0  0  0  0  0  0
  -22.1025   -5.5000   22.3601 C   0  0  0  0  0  0  0  0  0  0  0  0
  -21.2304   -4.4002   24.7710 C   0  0  0  0  0  0  0  0  0  0  0  0
  -22.8582   -4.5107   22.9891 C   0  0  0  0  0  0  0  0  0  0  0  0
  -23.5018  -11.5532   21.0259 C   0  0  0  0  0  0  0  0  0  0  0  0
  -29.2239  -20.0873   20.3836 C   0  0  0  0  0  0  0  0  0  0  0  0
  -28.8309  -21.9689   19.1026 C   0  0  0  0  0  0  0  0  0  0  0  0
  -23.3613  -13.7346   21.2646 C   0  0  0  0  0  0  0  0  0  0  0  0
  -21.4357  -12.4789   22.2464 C   0  0  0  0  0  0  0  0  0  0  0  0
  -24.3695  -30.5947   22.9236 C   0  0  0  0  0  0  0  0  0  0  0  0
  -21.9320  -30.4230   20.7902 C   0  0  0  0  0  0  0  0  0  0  0  0
  -20.6917  -29.0751   17.9107 C   0  0  0  0  0  0  0  0  0  0  0  0
  -28.3254  -16.3565   21.4092 C   0  0  0  0  0  0  0  0  0  0  0  0
  -25.8745  -33.7612   26.6338 C   0  0  0  0  0  0  0  0  0  0  0  0
  -25.5773  -30.9914   20.7465 C   0  0  0  0  0  0  0  0  0  0  0  0
  -29.0605  -17.7414   19.4099 C   0  0  0  0  0  0  0  0  0  0  0  0
  -23.7424  -28.6785   20.5781 C   0  0  0  0  0  0  0  0  0  0  0  0
  -29.5591  -19.5129   21.7354 C   0  0  0  0  0  0  0  0  0  0  0  0
  -24.5458  -33.4130   25.9679 C   0  0  0  0  0  0  0  0  0  0  0  0
  -27.3335  -14.5924   18.2681 C   0  0  0  0  0  0  0  0  0  0  0  0
  -24.3613  -31.9002   25.9031 C   0  0  0  0  0  0  0  0  0  0  0  0
  -26.2194  -13.6823   18.7833 C   0  0  0  0  0  0  0  0  0  0  0  0
  -30.0830  -18.0850   21.6317 C   0  0  0  0  0  0  0  0  0  0  0  0
  -28.3582  -14.8807   19.3587 C   0  0  0  0  0  0  0  0  0  0  0  0
  -26.6565  -14.5591   21.1235 C   0  0  0  0  0  0  0  0  0  0  0  0
  -25.4634  -31.2456   25.0615 C   0  0  1  0  0  0  0  0  0  0  0  0
  -24.2375  -30.9745   21.4758 C   0  0  1  0  0  0  0  0  0  0  0  0
  -25.5857  -14.2568   20.0619 C   0  0  2  0  0  0  0  0  0  0  0  0
  -18.6573  -29.0980   16.4416 C   0  0  0  0  0  0  0  0  0  0  0  0
  -20.4650  -28.6550   22.7982 C   0  0  0  0  0  0  0  0  0  0  0  0
  -18.9286  -27.9515   20.9508 C   0  0  0  0  0  0  0  0  0  0  0  0
  -19.0240  -30.3447   21.6480 C   0  0  0  0  0  0  0  0  0  0  0  0
  -22.2278  -30.1096   15.6022 C   0  0  0  0  0  0  0  0  0  0  0  0
  -28.9186  -25.5435   19.9377 C   0  0  0  0  0  0  0  0  0  1  0  0
  -29.0451  -24.0586   20.2176 C   0  0  0  0  0  0  0  0  0  0  0  0
  -20.9601  -29.3503   20.3615 C   0  0  1  0  0  0  0  0  0  0  0  0
  -20.0228  -29.7129   16.7064 C   0  0  2  0  0  0  0  0  0  0  0  0
  -19.8725  -29.0718   21.4372 C   0  0  0  0  0  0  0  0  0  0  0  0
  -24.6073  -12.0253   20.4438 N   0  0  0  0  0  0  0  0  0  0  0  0
  -29.1536  -21.4392   20.3031 N   0  0  0  0  0  0  0  0  0  0  0  0
  -24.4931  -13.3546   20.6051 N   0  0  0  0  0  0  0  0  0  0  0  0
  -23.2792  -30.0439   20.8760 N   0  0  0  0  0  0  0  0  0  0  0  0
  -29.1880  -17.2813   20.8009 N   0  0  0  0  0  0  0  0  0  0  0  0
  -27.7217  -15.4017   20.5754 N   0  0  0  0  0  0  0  0  0  0  0  0
  -23.0897  -15.0336   21.5119 N   0  0  0  0  0  0  0  0  0  0  0  0
  -20.8846  -11.2082   22.4605 N   0  0  0  0  0  0  0  0  0  0  0  0
  -25.1977  -31.4283   23.6506 N   0  0  0  0  0  0  0  0  0  0  0  0
  -20.4288  -29.7733   19.0703 N   0  0  0  0  0  0  0  0  0  0  0  0
  -20.8641  -29.5311   15.4898 N   0  3  0  0  0  0  0  0  0  0  0  0
  -20.8155  -13.4926   22.6478 O   0  0  0  0  0  0  0  0  0  0  0  0
  -23.7636  -29.6186   23.3498 O   0  0  0  0  0  0  0  0  0  0  0  0
  -21.5124  -31.5573   21.0329 O   0  0  0  0  0  0  0  0  0  0  0  0
  -21.3757  -28.0571   17.8312 O   0  0  0  0  0  0  0  0  0  0  0  0
  -28.0949  -16.3896   22.6247 O   0  0  0  0  0  0  0  0  0  0  0  0
  -22.5344   -6.0476   21.1637 O   0  0  0  0  0  0  0  0  0  0  0  0
  -27.5866  -25.8270   19.5265 O   0  0  0  0  0  0  0  0  0  1  0  0
  -28.7660  -23.3354   19.0247 O   0  0  0  0  0  0  0  0  0  0  0  0
  -20.8124   -3.8733   25.9293 F   0  0  0  0  0  0  0  0  0  0  0  0
  -24.0045   -4.0852   22.4407 F   0  0  0  0  0  0  0  0  0  0  0  0
  1  2  1  0  0  0  0
  1  5  2  0  0  0  0
  2  6  2  0  0  0  0
  3  9  2  0  0  0  0
  3 17  1  0  0  0  0
  4 10  1  0  0  0  0
  4 17  2  0  0  0  0
  5 19  1  0  0  0  0
  6 21  1  0  0  0  0
  7 11  2  0  0  0  0
  7 20  1  0  0  0  0
  8 14  2  0  0  0  0
  8 22  1  0  0  0  0
  9 24  1  0  0  0  0
 10 24  2  0  0  0  0
 11 25  1  0  0  0  0
 12 13  2  0  0  0  0
 12 26  1  0  0  0  0
 13 27  1  0  0  0  0
 14 31  1  0  0  0  0
 15 23  1  0  0  0  0
 15 25  2  0  0  0  0
 16 27  2  0  0  0  0
 16 28  1  0  0  0  0
 17 29  1  0  0  0  0
 18 29  1  0  0  0  0
 18 32  2  0  0  0  0
 18 33  1  0  0  0  0
 19 21  2  0  0  0  0
 19 38  1  0  0  0  0
 20 23  2  0  0  0  0
 20 39  1  0  0  0  0
 21 50  1  0  0  0  0
 22 30  2  0  0  0  0
 22 40  1  0  0  0  0
 23 41  1  0  0  0  0
 24 79  1  0  0  0  0
 25 80  1  0  0  0  0
 26 28  2  0  0  0  0
 26 79  1  0  0  0  0
 27 82  1  0  0  0  0
 28 83  1  0  0  0  0
 29 63  2  0  0  0  0
 30 42  1  0  0  0  0
 30 64  1  0  0  0  0
 31 64  2  0  0  0  0
 31 81  1  0  0  0  0
 32 65  1  0  0  0  0
 32 69  1  0  0  0  0
 33 70  1  0  0  0  0
 33 74  2  0  0  0  0
 34 51  1  0  0  0  0
 34 71  1  0  0  0  0
 34 75  2  0  0  0  0
 35 60  1  0  0  0  0
 35 66  1  0  0  0  0
 35 76  2  0  0  0  0
 36 61  1  0  0  0  0
 36 72  1  0  0  0  0
 36 77  2  0  0  0  0
 37 67  1  0  0  0  0
 37 68  1  0  0  0  0
 37 78  2  0  0  0  0
 38 43  1  0  0  0  0
 39 51  1  0  0  0  0
 40 67  1  0  0  0  0
 41 66  1  0  0  0  0
 42 47  1  0  0  0  0
 43 45  1  0  0  0  0
 44 46  1  0  0  0  0
 44 48  1  0  0  0  0
 45 50  1  0  0  0  0
 46 52  1  0  0  0  0
 47 67  1  0  0  0  0
 48 68  1  0  0  0  0
 49 52  1  0  0  0  0
 49 68  1  0  0  0  0
 50 71  1  0  0  0  0
 51 66  1  0  0  0  0
 52 65  1  0  0  0  0
 53 61  1  0  0  0  0
 54 62  1  0  0  0  0
 55 62  1  0  0  0  0
 56 62  1  0  0  0  0
 57 73  1  0  0  0  0
 58 59  1  0  0  0  0
 58 80  1  0  0  0  0
 59 81  1  0  0  0  0
 60 62  1  0  0  0  0
 60 72  1  0  0  0  0
 61 73  1  0  0  0  0
 63 65  1  0  0  0  0
M  CHG  1  73   1
M  ISO  4  37 100  58 101  67 100  80 101
M  END
> <Batch ID>
0189

> <Smiles>
CNC(C)C(=O)NC(C(=O)N1Cc2cc([101O:1][101CH2:1]COc3ccc4c(n3)CC[100N:0]([100C:0](=O)N3CCCC(n5nc(-c6ccc(Oc7ccc(F)cc7F)cc6)c(C(N)=O)c5N)C3)C4)ccc2CC1C(=O)NC1CCCc2ccccc21)C(C)(C)C

> <Shape>
0.373

> <Color>
0.115

> <Negative vol penalty>
0.000

$$$$

  -OEChem-04052323223D

 86 96  0     1  0  0  0  0  0999 V2000
  -29.2578  -37.4457   23.8752 C   0  0  0  0  0  0  0  0  0  0  0  0
  -29.7111  -36.1614   23.5916 C   0  0  0  0  0  0  0  0  0  0  0  0
  -24.3342  -10.6427   23.1968 C   0  0  0  0  0  0  0  0  0  0  0  0
  -24.4678   -9.2075   21.2578 C   0  0  0  0  0  0  0  0  0  0  0  0
  -28.0476  -37.6248   24.5441 C   0  0  0  0  0  0  0  0  0  0  0  0
  -28.9549  -35.0552   23.9776 C   0  0  0  0  0  0  0  0  0  0  0  0
  -28.3998  -29.7461   20.9759 C   0  0  0  0  0  0  0  0  0  0  0  0
  -23.2329   -9.9201   23.6558 C   0  0  0  0  0  0  0  0  0  0  0  0
  -23.3665   -8.4849   21.7169 C   0  0  0  0  0  0  0  0  0  0  0  0
  -29.0233  -28.5092   21.1346 C   0  0  0  0  0  0  0  0  0  0  0  0
  -20.8128   -6.0379   22.5591 C   0  0  0  0  0  0  0  0  0  0  0  0
  -20.8816   -4.6458   22.5055 C   0  0  0  0  0  0  0  0  0  0  0  0
  -27.1580  -27.7458   22.4602 C   0  0  0  0  0  0  0  0  0  0  0  0
  -22.8138   -4.6853   23.9553 C   0  0  0  0  0  0  0  0  0  0  0  0
  -24.9516  -10.2864   21.9978 C   0  0  0  0  0  0  0  0  0  0  0  0
  -27.4461  -10.7828   21.8010 C   0  0  0  0  0  0  0  0  0  0  0  0
  -27.2715  -36.5205   24.9300 C   0  0  0  0  0  0  0  0  0  0  0  0
  -27.1537  -29.9962   21.5683 C   0  0  0  0  0  0  0  0  0  0  0  0
  -27.7338  -35.2197   24.6535 C   0  0  0  0  0  0  0  0  0  0  0  0
  -26.5197  -28.9858   22.3053 C   0  0  0  0  0  0  0  0  0  0  0  0
  -22.7491   -8.8412   22.9159 C   0  0  0  0  0  0  0  0  0  0  0  0
  -28.4038  -27.5098   21.8792 C   0  0  0  0  0  0  0  0  0  0  0  0
  -21.7446   -6.7538   23.3107 C   0  0  0  0  0  0  0  0  0  0  0  0
  -21.8820   -3.9695   23.2036 C   0  0  0  0  0  0  0  0  0  0  0  0
  -22.7451   -6.0775   24.0089 C   0  0  0  0  0  0  0  0  0  0  0  0
  -26.0889  -11.0327   21.5228 C   0  0  0  0  0  0  0  0  0  0  0  0
  -28.1227  -11.7649   21.1197 C   0  0  0  0  0  0  0  0  0  0  0  0
  -27.6796  -24.6671   19.2345 C   0  0  0  0  0  0  0  0  0  0  0  0
  -29.0340  -23.2380   20.3114 C   0  0  0  0  0  0  0  0  0  0  0  0
  -28.7440  -25.3192   21.0996 C   0  0  0  0  0  0  0  0  0  1  0  0
  -28.0419   -9.7549   22.6035 C   0  0  0  0  0  0  0  0  0  0  0  0
  -26.0766  -32.0437   23.7481 C   0  0  0  0  0  0  0  0  0  0  0  0
  -23.2001  -30.7703   22.9567 C   0  0  0  0  0  0  0  0  0  0  0  0
  -21.4526  -28.1341   21.6748 C   0  0  0  0  0  0  0  0  0  0  0  0
  -28.8858  -16.8452   19.5659 C   0  0  0  0  0  0  0  0  0  0  0  0
  -25.9932  -36.7627   25.6927 C   0  0  0  0  0  0  0  0  0  0  0  0
  -26.4820  -31.3267   21.3653 C   0  0  0  0  0  0  0  0  0  0  0  0
  -25.1724  -29.1971   22.9447 C   0  0  0  0  0  0  0  0  0  0  0  0
  -25.0700  -35.5477   25.7355 C   0  0  0  0  0  0  0  0  0  0  0  0
  -26.5322  -15.0766   17.6524 C   0  0  0  0  0  0  0  0  0  0  0  0
  -25.8580  -34.2907   26.0901 C   0  0  0  0  0  0  0  0  0  0  0  0
  -25.3631  -25.4629   18.4133 C   0  0  0  0  0  0  0  0  0  0  0  0
  -25.5557  -24.0752   17.8865 C   0  0  0  0  0  0  0  0  0  0  0  0
  -26.3109  -13.8348   18.5156 C   0  0  0  0  0  0  0  0  0  0  0  0
  -28.0374  -20.2547   19.7736 C   0  0  0  0  0  0  0  0  0  0  0  0
  -30.5254  -19.8975   19.5508 C   0  0  0  0  0  0  0  0  0  0  0  0
  -26.6430  -16.3483   18.4954 C   0  0  0  0  0  0  0  0  0  0  0  0
  -27.7994  -19.0315   18.8832 C   0  0  0  0  0  0  0  0  0  0  0  0
  -30.2396  -18.7028   18.6452 C   0  0  0  0  0  0  0  0  0  0  0  0
  -27.4400  -15.0291   20.4302 C   0  0  0  0  0  0  0  0  0  0  0  0
  -26.9299  -33.9953   25.0341 C   0  0  1  0  0  0  0  0  0  0  0  0
  -26.7509  -24.9650   18.1061 C   0  0  0  0  0  0  0  0  0  0  0  0
  -25.4494  -31.6452   22.4422 C   0  0  1  0  0  0  0  0  0  0  0  0
  -27.3829  -13.7280   19.6148 C   0  0  1  0  0  0  0  0  0  0  0  0
  -29.3848  -20.9155   19.4730 C   0  0  0  0  0  0  0  0  0  0  0  0
  -19.1114  -27.3710   21.1911 C   0  0  0  0  0  0  0  0  0  0  0  0
  -22.7722  -30.2096   25.9253 C   0  0  0  0  0  0  0  0  0  0  0  0
  -20.9271  -28.6404   25.2916 C   0  0  0  0  0  0  0  0  0  0  0  0
  -20.7520  -31.0629   24.7230 C   0  0  0  0  0  0  0  0  0  0  0  0
  -22.0004  -27.9112   18.7749 C   0  0  0  0  0  0  0  0  0  0  0  0
  -22.3757  -29.6045   23.4468 C   0  0  1  0  0  0  0  0  0  0  0  0
  -20.3451  -28.0680   20.6387 C   0  0  2  0  0  0  0  0  0  0  0  0
  -21.7330  -29.8757   24.8364 C   0  0  0  0  0  0  0  0  0  0  0  0
  -25.9120  -12.0907   20.7269 N   0  0  0  0  0  0  0  0  0  0  0  0
  -28.2098  -23.4340   19.2696 N   0  0  0  0  0  0  0  0  0  0  0  0
  -27.8998  -25.6591   20.1123 N   0  0  0  0  0  0  0  0  0  0  0  0
  -29.3480  -24.1312   21.2636 N   0  0  0  0  0  0  0  0  0  0  0  0
  -27.1669  -12.5143   20.4992 N   0  0  0  0  0  0  0  0  0  0  0  0
  -24.5591  -30.5170   22.7228 N   0  0  0  0  0  0  0  0  0  0  0  0
  -27.6483  -16.1844   19.5547 N   0  0  0  0  0  0  0  0  0  0  0  0
  -28.9395  -18.1064   18.9540 N   0  0  0  0  0  0  0  0  0  0  0  0
  -29.4361  -12.0519   20.9968 N   0  0  0  0  0  0  0  0  0  0  0  0
  -27.2009   -8.8272   23.2332 N   0  0  0  0  0  0  0  0  0  0  0  0
  -29.6193  -21.9885   20.4141 N   0  0  0  0  0  0  0  0  0  0  0  0
  -26.3314  -33.3972   23.8600 N   0  0  0  0  0  0  0  0  0  0  0  0
  -21.4133  -29.3122   22.3901 N   0  0  0  0  0  0  0  0  0  0  0  0
  -20.8065  -27.3220   19.4340 N   0  3  0  0  0  0  0  0  0  0  0  0
  -29.2823   -9.6716   22.7709 O   0  0  0  0  0  0  0  0  0  0  0  0
  -26.3107  -31.1868   24.5923 O   0  0  0  0  0  0  0  0  0  0  0  0
  -22.6567  -31.8637   22.7808 O   0  0  0  0  0  0  0  0  0  0  0  0
  -22.2687  -27.2293   21.8361 O   0  0  0  0  0  0  0  0  0  0  0  0
  -29.8845  -16.3382   20.0920 O   0  0  0  0  0  0  0  0  0  0  0  0
  -21.6746   -8.1358   23.3636 O   0  0  0  0  0  0  0  0  0  0  0  0
  -29.0182  -26.2865   22.0382 O   0  0  0  0  0  0  0  0  0  1  0  0
  -21.9469   -2.6325   23.1533 F   0  0  0  0  0  0  0  0  0  0  0  0
  -23.6423   -6.7597   24.7337 F   0  0  0  0  0  0  0  0  0  0  0  0
  1  2  1  0  0  0  0
  1  5  2  0  0  0  0
  2  6  2  0  0  0  0
  3  8  2  0  0  0  0
  3 15  1  0  0  0  0
  4  9  1  0  0  0  0
  4 15  2  0  0  0  0
  5 17  1  0  0  0  0
  6 19  1  0  0  0  0
  7 10  2  0  0  0  0
  7 18  1  0  0  0  0
  8 21  1  0  0  0  0
  9 21  2  0  0  0  0
 10 22  1  0  0  0  0
 11 12  2  0  0  0  0
 11 23  1  0  0  0  0
 12 24  1  0  0  0  0
 13 20  1  0  0  0  0
 13 22  2  0  0  0  0
 14 24  2  0  0  0  0
 14 25  1  0  0  0  0
 15 26  1  0  0  0  0
 16 26  1  0  0  0  0
 16 27  2  0  0  0  0
 16 31  1  0  0  0  0
 17 19  2  0  0  0  0
 17 36  1  0  0  0  0
 18 20  2  0  0  0  0
 18 37  1  0  0  0  0
 19 51  1  0  0  0  0
 20 38  1  0  0  0  0
 21 83  1  0  0  0  0
 22 84  1  0  0  0  0
 23 25  2  0  0  0  0
 23 83  1  0  0  0  0
 24 85  1  0  0  0  0
 25 86  1  0  0  0  0
 26 64  2  0  0  0  0
 27 68  1  0  0  0  0
 27 72  1  0  0  0  0
 28 52  1  0  0  0  0
 28 65  2  0  0  0  0
 28 66  1  0  0  0  0
 29 65  1  0  0  0  0
 29 67  2  0  0  0  0
 29 74  1  0  0  0  0
 30 66  2  0  0  0  0
 30 67  1  0  0  0  0
 30 84  1  0  0  0  0
 31 73  1  0  0  0  0
 31 78  2  0  0  0  0
 32 53  1  0  0  0  0
 32 75  1  0  0  0  0
 32 79  2  0  0  0  0
 33 61  1  0  0  0  0
 33 69  1  0  0  0  0
 33 80  2  0  0  0  0
 34 62  1  0  0  0  0
 34 76  1  0  0  0  0
 34 81  2  0  0  0  0
 35 70  1  0  0  0  0
 35 71  1  0  0  0  0
 35 82  2  0  0  0  0
 36 39  1  0  0  0  0
 37 53  1  0  0  0  0
 38 69  1  0  0  0  0
 39 41  1  0  0  0  0
 40 44  1  0  0  0  0
 40 47  1  0  0  0  0
 41 51  1  0  0  0  0
 42 43  1  0  0  0  0
 42 52  1  0  0  0  0
 43 52  1  0  0  0  0
 44 54  1  0  0  0  0
 45 48  1  0  0  0  0
 45 55  1  0  0  0  0
 46 49  1  0  0  0  0
 46 55  1  0  0  0  0
 47 70  1  0  0  0  0
 48 71  1  0  0  0  0
 49 71  1  0  0  0  0
 50 54  1  0  0  0  0
 50 70  1  0  0  0  0
 51 75  1  0  0  0  0
 53 69  1  0  0  0  0
 54 68  1  0  0  0  0
 55 74  1  0  0  0  0
 56 62  1  0  0  0  0
 57 63  1  0  0  0  0
 58 63  1  0  0  0  0
 59 63  1  0  0  0  0
 60 77  1  0  0  0  0
 61 63  1  0  0  0  0
 61 76  1  0  0  0  0
 62 77  1  0  0  0  0
 64 68  1  0  0  0  0
M  CHG  1  77   1
M  ISO  4  30 101  35 100  71 100  84 101
M  END
> <Batch ID>
0189

> <Smiles>
CNC(C)C(=O)NC(C(=O)N1Cc2cc([101O:1][101c:1]3nc(NC4CC[100N:0]([100C:0](=O)N5CCCC(n6nc(-c7ccc(Oc8ccc(F)cc8F)cc7)c(C(N)=O)c6N)C5)CC4)nc(C4CC4)n3)ccc2CC1C(=O)NC1CCCc2ccccc21)C(C)(C)C

> <Shape>
0.320

> <Color>
0.077

> <Negative vol penalty>
0.000

$$$$

  -OEChem-04052323222D

  0  0  0     0  0  0  0  0  0999 V2000
M  END
$$$$

  -OEChem-04052323223D

 81 90  0     1  0  0  0  0  0999 V2000
  -30.1507  -35.5742   22.1668 C   0  0  0  0  0  0  0  0  0  0  0  0
  -30.4799  -34.4266   21.4525 C   0  0  0  0  0  0  0  0  0  0  0  0
  -24.6010   -8.7056   21.4509 C   0  0  0  0  0  0  0  0  0  0  0  0
  -22.8126  -10.3014   21.1476 C   0  0  0  0  0  0  0  0  0  0  0  0
  -29.2520  -35.4983   23.2300 C   0  0  0  0  0  0  0  0  0  0  0  0
  -29.9113  -33.2022   21.8019 C   0  0  0  0  0  0  0  0  0  0  0  0
  -27.6940  -27.0434   18.8918 C   0  0  0  0  0  0  0  0  0  0  0  0
  -23.8410   -8.0359   22.4097 C   0  0  0  0  0  0  0  0  0  0  0  0
  -22.0525   -9.6317   22.1065 C   0  0  0  0  0  0  0  0  0  0  0  0
  -27.8556  -25.6658   19.0329 C   0  0  0  0  0  0  0  0  0  0  0  0
  -22.2281   -5.6959   24.6764 C   0  0  0  0  0  0  0  0  0  0  0  0
  -22.1785   -4.3036   24.6081 C   0  0  0  0  0  0  0  0  0  0  0  0
  -26.2548  -25.6688   20.8375 C   0  0  0  0  0  0  0  0  0  0  0  0
  -28.8772  -21.0509   20.6628 C   0  0  0  0  0  0  0  0  0  0  0  0
  -21.2207   -4.4464   22.3946 C   0  0  0  0  0  0  0  0  0  0  0  0
  -24.0869   -9.8384   20.8198 C   0  0  0  0  0  0  0  0  0  0  0  0
  -24.8934  -10.2918   18.4426 C   0  0  0  0  0  0  0  0  0  0  0  0
  -28.6647  -34.2741   23.5864 C   0  0  0  0  0  0  0  0  0  0  0  0
  -26.8182  -27.7469   19.7311 C   0  0  0  0  0  0  0  0  0  0  0  0
  -29.0049  -33.1097   22.8718 C   0  0  0  0  0  0  0  0  0  0  0  0
  -26.0819  -27.0549   20.7033 C   0  0  0  0  0  0  0  0  0  0  0  0
  -28.8532  -19.6839   20.8578 C   0  0  0  0  0  0  0  0  0  0  0  0
  -28.1945  -18.8481   19.9631 C   0  0  0  0  0  0  0  0  0  0  0  0
  -22.5667   -8.4990   22.7375 C   0  0  0  0  0  0  0  0  0  0  0  0
  -27.1381  -24.9787   20.0077 C   0  0  0  0  0  0  0  0  0  0  0  0
  -21.7740   -6.4635   23.6039 C   0  0  0  0  0  0  0  0  0  0  0  0
  -21.6748   -3.6789   23.4672 C   0  0  0  0  0  0  0  0  0  0  0  0
  -21.2703   -5.8387   22.4630 C   0  0  0  0  0  0  0  0  0  0  0  0
  -24.8718  -10.5309   19.8297 C   0  0  0  0  0  0  0  0  0  0  0  0
  -28.2219  -21.5221   19.5355 C   0  0  0  0  0  0  0  0  0  0  0  0
  -27.5658  -19.4035   18.8708 C   0  0  0  0  0  0  0  0  0  0  0  0
  -25.7920  -11.2066   17.9504 C   0  0  0  0  0  0  0  0  0  0  0  0
  -24.1662   -9.3290   17.6681 C   0  0  0  0  0  0  0  0  0  0  0  0
  -27.1461  -30.0787   21.8663 C   0  0  0  0  0  0  0  0  0  0  0  0
  -23.9052  -29.9540   21.9222 C   0  0  0  0  0  0  0  0  0  0  0  0
  -21.0661  -28.1376   21.3866 C   0  0  0  0  0  0  0  0  0  0  0  0
  -27.5085  -16.4661   19.8724 C   0  0  0  0  0  0  0  0  0  0  0  0
  -27.7349  -34.2333   24.7732 C   0  0  0  0  0  0  0  0  0  0  0  0
  -26.6352  -29.2286   19.5485 C   0  0  0  0  0  0  0  0  0  0  0  0
  -29.4114  -18.9130   22.0094 C   0  0  0  0  0  0  0  0  0  0  0  0
  -25.1138  -27.7606   21.6162 C   0  0  0  0  0  0  0  0  0  0  0  0
  -26.8897  -32.9639   24.8414 C   0  0  0  0  0  0  0  0  0  0  0  0
  -29.6772  -13.6876   19.1670 C   0  0  0  0  0  0  0  0  0  0  0  0
  -27.7564  -31.7320   24.6006 C   0  0  0  0  0  0  0  0  0  0  0  0
  -28.6874  -12.5262   19.1685 C   0  0  0  0  0  0  0  0  0  0  0  0
  -29.2133  -17.4645   21.5384 C   0  0  0  0  0  0  0  0  0  0  0  0
  -29.3379  -14.7448   20.2198 C   0  0  0  0  0  0  0  0  0  0  0  0
  -26.9512  -14.0684   20.1397 C   0  0  0  0  0  0  0  0  0  0  0  0
  -28.3901  -31.7676   23.2047 C   0  0  1  0  0  0  0  0  0  0  0  0
  -26.1015  -29.9232   20.7976 C   0  0  1  0  0  0  0  0  0  0  0  0
  -27.2462  -13.0435   19.0358 C   0  0  2  0  0  0  0  0  0  0  0  0
  -26.9521  -18.6016   17.7768 C   0  0  0  0  0  0  0  0  0  0  0  0
  -18.5672  -28.2921   21.5570 C   0  0  0  0  0  0  0  0  0  0  0  0
  -24.0945  -29.6346   24.9508 C   0  0  0  0  0  0  0  0  0  0  0  0
  -21.7156  -28.8542   24.9472 C   0  0  0  0  0  0  0  0  0  0  0  0
  -22.2711  -31.1601   24.1746 C   0  0  0  0  0  0  0  0  0  0  0  0
  -20.7239  -27.6861   18.4817 C   0  0  0  0  0  0  0  0  0  0  0  0
  -28.2094  -22.9901   19.2637 C   0  0  0  0  0  0  0  0  0  1  0  0
  -22.8785  -29.1849   22.7180 C   0  0  1  0  0  0  0  0  0  0  0  0
  -19.7786  -28.4731   20.6556 C   0  0  2  0  0  0  0  0  0  0  0  0
  -22.7595  -29.6951   24.1819 C   0  0  0  0  0  0  0  0  0  0  0  0
  -25.6917  -11.5199   20.1953 N   0  0  0  0  0  0  0  0  0  0  0  0
  -27.5689  -20.7374   18.6375 N   0  0  0  0  0  0  0  0  0  0  0  0
  -26.2370  -11.9104   19.0307 N   0  0  0  0  0  0  0  0  0  0  0  0
  -28.3059  -17.5011   20.3638 N   0  0  0  0  0  0  0  0  0  0  0  0
  -24.9744  -29.2106   21.4026 N   0  0  0  0  0  0  0  0  0  0  0  0
  -27.9328  -15.1563   20.1393 N   0  0  0  0  0  0  0  0  0  0  0  0
  -26.2371  -11.4696   16.7034 N   0  0  0  0  0  0  0  0  0  0  0  0
  -23.2843   -8.4658   18.3325 N   0  0  0  0  0  0  0  0  0  0  0  0
  -27.4194  -31.3917   22.1992 N   0  0  0  0  0  0  0  0  0  0  0  0
  -21.6355  -29.2561   21.9575 N   0  0  0  0  0  0  0  0  0  0  0  0
  -19.6142  -27.5920   19.4650 N   0  3  0  0  0  0  0  0  0  0  0  0
  -24.3069   -9.2259   16.4259 O   0  0  0  0  0  0  0  0  0  0  0  0
  -27.6648  -29.0812   22.3539 O   0  0  0  0  0  0  0  0  0  0  0  0
  -23.7600  -31.1683   21.7613 O   0  0  0  0  0  0  0  0  0  0  0  0
  -21.5192  -26.9968   21.4482 O   0  0  0  0  0  0  0  0  0  0  0  0
  -26.4377  -16.6759   19.2891 O   0  0  0  0  0  0  0  0  0  0  0  0
  -21.8246   -7.8456   23.6729 O   0  0  0  0  0  0  0  0  0  0  0  0
  -27.2956  -23.6247   20.1489 O   0  0  0  0  0  0  0  0  0  1  0  0
  -21.6287   -2.3418   23.4011 F   0  0  0  0  0  0  0  0  0  0  0  0
  -20.8337   -6.5708   21.4289 F   0  0  0  0  0  0  0  0  0  0  0  0
  1  2  1  0  0  0  0
  1  5  2  0  0  0  0
  2  6  2  0  0  0  0
  3  8  2  0  0  0  0
  3 16  1  0  0  0  0
  4  9  1  0  0  0  0
  4 16  2  0  0  0  0
  5 18  1  0  0  0  0
  6 20  1  0  0  0  0
  7 10  2  0  0  0  0
  7 19  1  0  0  0  0
  8 24  1  0  0  0  0
  9 24  2  0  0  0  0
 10 25  1  0  0  0  0
 11 12  2  0  0  0  0
 11 26  1  0  0  0  0
 12 27  1  0  0  0  0
 13 21  1  0  0  0  0
 13 25  2  0  0  0  0
 14 22  2  0  0  0  0
 14 30  1  0  0  0  0
 15 27  2  0  0  0  0
 15 28  1  0  0  0  0
 16 29  1  0  0  0  0
 17 29  1  0  0  0  0
 17 32  2  0  0  0  0
 17 33  1  0  0  0  0
 18 20  2  0  0  0  0
 18 38  1  0  0  0  0
 19 21  2  0  0  0  0
 19 39  1  0  0  0  0
 20 49  1  0  0  0  0
 21 41  1  0  0  0  0
 22 23  1  0  0  0  0
 22 40  1  0  0  0  0
 23 31  2  0  0  0  0
 23 65  1  0  0  0  0
 24 78  1  0  0  0  0
 25 79  1  0  0  0  0
 26 28  2  0  0  0  0
 26 78  1  0  0  0  0
 27 80  1  0  0  0  0
 28 81  1  0  0  0  0
 29 62  2  0  0  0  0
 30 58  1  0  0  0  0
 30 63  2  0  0  0  0
 31 52  1  0  0  0  0
 31 63  1  0  0  0  0
 32 64  1  0  0  0  0
 32 68  1  0  0  0  0
 33 69  1  0  0  0  0
 33 73  2  0  0  0  0
 34 50  1  0  0  0  0
 34 70  1  0  0  0  0
 34 74  2  0  0  0  0
 35 59  1  0  0  0  0
 35 66  1  0  0  0  0
 35 75  2  0  0  0  0
 36 60  1  0  0  0  0
 36 71  1  0  0  0  0
 36 76  2  0  0  0  0
 37 65  1  0  0  0  0
 37 67  1  0  0  0  0
 37 77  2  0  0  0  0
 38 42  1  0  0  0  0
 39 50  1  0  0  0  0
 40 46  1  0  0  0  0
 41 66  1  0  0  0  0
 42 44  1  0  0  0  0
 43 45  1  0  0  0  0
 43 47  1  0  0  0  0
 44 49  1  0  0  0  0
 45 51  1  0  0  0  0
 46 65  1  0  0  0  0
 47 67  1  0  0  0  0
 48 51  1  0  0  0  0
 48 67  1  0  0  0  0
 49 70  1  0  0  0  0
 50 66  1  0  0  0  0
 51 64  1  0  0  0  0
 53 60  1  0  0  0  0
 54 61  1  0  0  0  0
 55 61  1  0  0  0  0
 56 61  1  0  0  0  0
 57 72  1  0  0  0  0
 58 79  1  0  0  0  0
 59 61  1  0  0  0  0
 59 71  1  0  0  0  0
 60 72  1  0  0  0  0
 62 64  1  0  0  0  0
M  CHG  1  72   1
M  ISO  4  37 100  58 101  65 100  79 101
M  END
> <Batch ID>
0189

> <Smiles>
CNC(C)C(=O)NC(C(=O)N1Cc2cc([101O:1][101CH2:1]c3cc4c(c(C)n3)[100N:0]([100C:0](=O)N3CCCC(n5nc(-c6ccc(Oc7ccc(F)cc7F)cc6)c(C(N)=O)c5N)C3)CC4)ccc2CC1C(=O)NC1CCCc2ccccc21)C(C)(C)C

> <Shape>
0.297

> <Color>
0.083

> <Negative vol penalty>
0.000

$$$$

  -OEChem-04052323223D

 82 91  0     1  0  0  0  0  0999 V2000
  -16.5548  -29.7653   24.5392 C   0  0  0  0  0  0  0  0  0  0  0  0
  -17.3258  -28.6206   24.3645 C   0  0  0  0  0  0  0  0  0  0  0  0
  -23.3372   -9.4951   20.1770 C   0  0  0  0  0  0  0  0  0  0  0  0
  -23.6623  -10.1160   22.4891 C   0  0  0  0  0  0  0  0  0  0  0  0
  -16.9096  -30.9487   23.8931 C   0  0  0  0  0  0  0  0  0  0  0  0
  -18.4516  -28.6584   23.5426 C   0  0  0  0  0  0  0  0  0  0  0  0
  -23.6904  -25.5860   24.3312 C   0  0  0  0  0  0  0  0  0  0  0  0
  -22.5912   -8.3873   20.5794 C   0  0  0  0  0  0  0  0  0  0  0  0
  -22.9163   -9.0082   22.8915 C   0  0  0  0  0  0  0  0  0  0  0  0
  -24.1764  -24.4027   23.7769 C   0  0  0  0  0  0  0  0  0  0  0  0
  -19.4489   -7.7588   21.6582 C   0  0  0  0  0  0  0  0  0  0  0  0
  -18.2551   -7.5017   20.9841 C   0  0  0  0  0  0  0  0  0  0  0  0
  -25.3856  -25.6798   22.1258 C   0  0  0  0  0  0  0  0  0  0  0  0
  -19.1001   -5.3402   20.3123 C   0  0  0  0  0  0  0  0  0  0  0  0
  -25.4433  -20.3340   20.8608 C   0  0  0  0  0  0  0  0  0  0  0  0
  -23.8728  -10.3594   21.1319 C   0  0  0  0  0  0  0  0  0  0  0  0
  -24.1632  -12.7968   20.4374 C   0  0  0  0  0  0  0  0  0  0  0  0
  -18.0458  -31.0036   23.0705 C   0  0  0  0  0  0  0  0  0  0  0  0
  -24.0403  -26.8268   23.7793 C   0  0  0  0  0  0  0  0  0  0  0  0
  -18.8212  -29.8433   22.8838 C   0  0  0  0  0  0  0  0  0  0  0  0
  -24.9048  -26.8775   22.6766 C   0  0  0  0  0  0  0  0  0  0  0  0
  -22.3807   -8.1439   21.9366 C   0  0  0  0  0  0  0  0  0  0  0  0
  -25.0218  -24.4493   22.6722 C   0  0  0  0  0  0  0  0  0  0  0  0
  -20.4683   -6.8067   21.6593 C   0  0  0  0  0  0  0  0  0  0  0  0
  -18.0807   -6.2924   20.3112 C   0  0  0  0  0  0  0  0  0  0  0  0
  -20.2939   -5.5974   20.9864 C   0  0  0  0  0  0  0  0  0  0  0  0
  -24.6440  -11.5036   20.7169 C   0  0  0  0  0  0  0  0  0  0  0  0
  -25.7265  -20.9236   22.1007 C   0  0  0  0  0  0  0  0  0  0  0  0
  -25.2830  -13.5116   20.0888 C   0  0  0  0  0  0  0  0  0  0  0  0
  -22.8240  -13.3065   20.4884 C   0  0  0  0  0  0  0  0  0  0  0  0
  -22.4339  -29.2146   22.4296 C   0  0  0  0  0  0  0  0  0  0  0  0
  -25.3309  -30.6732   22.4764 C   0  0  0  0  0  0  0  0  0  0  0  0
  -28.7286  -30.3651   22.5628 C   0  0  0  0  0  0  0  0  0  0  0  0
  -30.5112  -14.9744   20.7506 C   0  0  0  0  0  0  0  0  0  0  0  0
  -18.3627  -32.2931   22.3554 C   0  0  0  0  0  0  0  0  0  0  0  0
  -23.5290  -28.0953   24.4054 C   0  0  0  0  0  0  0  0  0  0  0  0
  -25.3268  -28.1849   22.0592 C   0  0  0  0  0  0  0  0  0  0  0  0
  -19.7831  -32.3479   21.7989 C   0  0  0  0  0  0  0  0  0  0  0  0
  -29.9933  -11.9951   19.0736 C   0  0  0  0  0  0  0  0  0  0  0  0
  -20.1205  -31.0521   21.0681 C   0  0  0  0  0  0  0  0  0  0  0  0
  -28.5152  -11.6929   19.3204 C   0  0  0  0  0  0  0  0  0  0  0  0
  -29.2256  -18.4385   20.9463 C   0  0  0  0  0  0  0  0  0  0  0  0
  -27.5727  -16.8821   22.0627 C   0  0  0  0  0  0  0  0  0  0  0  0
  -30.6580  -12.5374   20.3340 C   0  0  0  0  0  0  0  0  0  0  0  0
  -30.3212  -17.3992   21.1714 C   0  0  0  0  0  0  0  0  0  0  0  0
  -28.7053  -15.8796   22.2645 C   0  0  0  0  0  0  0  0  0  0  0  0
  -28.5135  -13.4650   21.1436 C   0  0  0  0  0  0  0  0  0  0  0  0
  -20.0637  -29.8511   22.0199 C   0  0  1  0  0  0  0  0  0  0  0  0
  -23.5386  -29.2813   23.4459 C   0  0  1  0  0  0  0  0  0  0  0  0
  -27.7895  -12.9222   19.8954 C   0  0  2  0  0  0  0  0  0  0  0  0
  -28.1116  -18.3222   22.0011 C   0  0  0  0  0  0  0  0  0  0  0  0
  -30.8316  -31.7343   22.5527 C   0  0  0  0  0  0  0  0  0  0  0  0
  -24.9875  -31.1741   19.4863 C   0  0  0  0  0  0  0  0  0  0  0  0
  -27.4403  -31.6590   19.3566 C   0  0  0  0  0  0  0  0  0  0  0  0
  -25.9596  -33.0938   20.7607 C   0  0  0  0  0  0  0  0  0  0  0  0
  -29.5528  -29.3307   25.2104 C   0  0  0  0  0  0  0  0  0  0  0  0
  -25.0822  -22.0731   22.7497 C   0  0  0  0  0  0  0  0  0  1  0  0
  -26.5054  -30.7484   21.5309 C   0  0  1  0  0  0  0  0  0  0  0  0
  -29.7810  -31.0517   23.4146 C   0  0  2  0  0  0  0  0  0  0  0  0
  -26.2139  -31.6439   20.2938 C   0  0  0  0  0  0  0  0  0  0  0  0
  -26.2699  -19.3061   20.6486 N   0  0  0  0  0  0  0  0  0  0  0  0
  -25.9663  -11.3999   20.5593 N   0  0  0  0  0  0  0  0  0  0  0  0
  -26.7352  -20.2760   22.6904 N   0  0  0  0  0  0  0  0  0  0  0  0
  -26.3259  -12.6371   20.1770 N   0  0  0  0  0  0  0  0  0  0  0  0
  -27.0039  -19.3335   21.7726 N   0  0  0  0  0  0  0  0  0  0  0  0
  -24.7954  -29.3974   22.7034 N   0  0  0  0  0  0  0  0  0  0  0  0
  -29.9358  -13.6988   20.8530 N   0  0  0  0  0  0  0  0  0  0  0  0
  -29.7654  -16.0495   21.2615 N   0  0  0  0  0  0  0  0  0  0  0  0
  -25.4675  -14.7966   19.7185 N   0  0  0  0  0  0  0  0  0  0  0  0
  -21.7921  -12.4366   20.8663 N   0  0  0  0  0  0  0  0  0  0  0  0
  -21.2532  -29.8017   22.8428 N   0  0  0  0  0  0  0  0  0  0  0  0
  -27.6452  -31.1855   22.3298 N   0  0  0  0  0  0  0  0  0  0  0  0
  -30.4648  -30.0601   24.2922 N   0  3  0  0  0  0  0  0  0  0  0  0
  -22.5484  -14.4936   20.1913 O   0  0  0  0  0  0  0  0  0  0  0  0
  -22.6381  -28.6721   21.3500 O   0  0  0  0  0  0  0  0  0  0  0  0
  -24.9089  -31.7073   23.0000 O   0  0  0  0  0  0  0  0  0  0  0  0
  -28.8567  -29.2172   22.1428 O   0  0  0  0  0  0  0  0  0  0  0  0
  -31.6204  -15.1460   20.2299 O   0  0  0  0  0  0  0  0  0  0  0  0
  -21.6526   -7.0631   22.3296 O   0  0  0  0  0  0  0  0  0  0  0  0
  -25.4991  -23.2907   22.1264 O   0  0  0  0  0  0  0  0  0  1  0  0
  -16.9337   -6.0449   19.6652 F   0  0  0  0  0  0  0  0  0  0  0  0
  -21.2692   -4.6783   20.9849 F   0  0  0  0  0  0  0  0  0  0  0  0
  1  2  1  0  0  0  0
  1  5  2  0  0  0  0
  2  6  2  0  0  0  0
  3  8  2  0  0  0  0
  3 16  1  0  0  0  0
  4  9  1  0  0  0  0
  4 16  2  0  0  0  0
  5 18  1  0  0  0  0
  6 20  1  0  0  0  0
  7 10  2  0  0  0  0
  7 19  1  0  0  0  0
  8 22  1  0  0  0  0
  9 22  2  0  0  0  0
 10 23  1  0  0  0  0
 11 12  2  0  0  0  0
 11 24  1  0  0  0  0
 12 25  1  0  0  0  0
 13 21  1  0  0  0  0
 13 23  2  0  0  0  0
 14 25  2  0  0  0  0
 14 26  1  0  0  0  0
 15 28  1  0  0  0  0
 15 61  2  0  0  0  0
 16 27  1  0  0  0  0
 17 27  1  0  0  0  0
 17 29  2  0  0  0  0
 17 30  1  0  0  0  0
 18 20  2  0  0  0  0
 18 35  1  0  0  0  0
 19 21  2  0  0  0  0
 19 36  1  0  0  0  0
 20 48  1  0  0  0  0
 21 37  1  0  0  0  0
 22 79  1  0  0  0  0
 23 80  1  0  0  0  0
 24 26  2  0  0  0  0
 24 79  1  0  0  0  0
 25 81  1  0  0  0  0
 26 82  1  0  0  0  0
 27 62  2  0  0  0  0
 28 57  1  0  0  0  0
 28 63  2  0  0  0  0
 29 64  1  0  0  0  0
 29 69  1  0  0  0  0
 30 70  1  0  0  0  0
 30 74  2  0  0  0  0
 31 49  1  0  0  0  0
 31 71  1  0  0  0  0
 31 75  2  0  0  0  0
 32 58  1  0  0  0  0
 32 66  1  0  0  0  0
 32 76  2  0  0  0  0
 33 59  1  0  0  0  0
 33 72  1  0  0  0  0
 33 77  2  0  0  0  0
 34 67  1  0  0  0  0
 34 68  1  0  0  0  0
 34 78  2  0  0  0  0
 35 38  1  0  0  0  0
 36 49  1  0  0  0  0
 37 66  1  0  0  0  0
 38 40  1  0  0  0  0
 39 41  1  0  0  0  0
 39 44  1  0  0  0  0
 40 48  1  0  0  0  0
 41 50  1  0  0  0  0
 42 45  1  0  0  0  0
 42 51  1  0  0  0  0
 43 46  1  0  0  0  0
 43 51  1  0  0  0  0
 44 67  1  0  0  0  0
 45 68  1  0  0  0  0
 46 68  1  0  0  0  0
 47 50  1  0  0  0  0
 47 67  1  0  0  0  0
 48 71  1  0  0  0  0
 49 66  1  0  0  0  0
 50 64  1  0  0  0  0
 51 65  1  0  0  0  0
 52 59  1  0  0  0  0
 53 60  1  0  0  0  0
 54 60  1  0  0  0  0
 55 60  1  0  0  0  0
 56 73  1  0  0  0  0
 57 80  1  0  0  0  0
 58 60  1  0  0  0  0
 58 72  1  0  0  0  0
 59 73  1  0  0  0  0
 61 65  1  0  0  0  0
 62 64  1  0  0  0  0
 63 65  1  0  0  0  0
M  CHG  1  73   1
M  ISO  4  34 100  57 101  68 100  80 101
M  END
> <Batch ID>
0189

> <Smiles>
CNC(C)C(=O)NC(C(=O)N1Cc2cc([101O:1][101CH2:1]c3cnn(C4CC[100N:0]([100C:0](=O)N5CCCC(n6nc(-c7ccc(Oc8ccc(F)cc8F)cc7)c(C(N)=O)c6N)C5)CC4)n3)ccc2CC1C(=O)NC1CCCc2ccccc21)C(C)(C)C

> <Shape>
0.260

> <Color>
0.171

> <Negative vol penalty>
0.000

$$$$

  -OEChem-04052323223D

 83 92  0     1  0  0  0  0  0999 V2000
  -16.6669  -28.7504   23.1825 C   0  0  0  0  0  0  0  0  0  0  0  0
  -17.6212  -28.3579   22.2493 C   0  0  0  0  0  0  0  0  0  0  0  0
  -26.4145  -12.3917   21.6055 C   0  0  0  0  0  0  0  0  0  0  0  0
  -25.6911  -13.4944   19.5812 C   0  0  0  0  0  0  0  0  0  0  0  0
  -16.9588  -29.7670   24.0909 C   0  0  0  0  0  0  0  0  0  0  0  0
  -18.8676  -28.9827   22.2234 C   0  0  0  0  0  0  0  0  0  0  0  0
  -24.2523  -26.4004   20.8659 C   0  0  0  0  0  0  0  0  0  0  0  0
  -25.1920  -11.7241   21.6787 C   0  0  0  0  0  0  0  0  0  0  0  0
  -24.4686  -12.8267   19.6543 C   0  0  0  0  0  0  0  0  0  0  0  0
  -25.0107  -26.3722   19.6964 C   0  0  0  0  0  0  0  0  0  0  0  0
  -23.7203   -9.0544   20.2158 C   0  0  0  0  0  0  0  0  0  0  0  0
  -23.7432   -7.6901   20.5049 C   0  0  0  0  0  0  0  0  0  0  0  0
  -26.3135  -28.2351   20.5034 C   0  0  0  0  0  0  0  0  0  0  0  0
  -28.1632  -21.1822   17.7952 C   0  0  0  0  0  0  0  0  0  0  0  0
  -22.4224   -8.0884   22.4884 C   0  0  0  0  0  0  0  0  0  0  0  0
  -26.6640  -13.2769   20.5568 C   0  0  0  0  0  0  0  0  0  0  0  0
  -29.0949  -13.5332   19.8267 C   0  0  0  0  0  0  0  0  0  0  0  0
  -18.2128  -30.3979   24.0824 C   0  0  0  0  0  0  0  0  0  0  0  0
  -24.5122  -27.3549   21.8599 C   0  0  0  0  0  0  0  0  0  0  0  0
  -19.1760  -30.0096   23.1317 C   0  0  0  0  0  0  0  0  0  0  0  0
  -25.5586  -28.2718   21.6857 C   0  0  0  0  0  0  0  0  0  0  0  0
  -28.0700  -22.2316   16.8876 C   0  0  0  0  0  0  0  0  0  0  0  0
  -24.2191  -11.9415   20.7031 C   0  0  0  0  0  0  0  0  0  0  0  0
  -26.0396  -27.2914   19.5137 C   0  0  0  0  0  0  0  0  0  0  0  0
  -23.0486   -9.9358   21.0629 C   0  0  0  0  0  0  0  0  0  0  0  0
  -23.0942   -7.2071   21.6412 C   0  0  0  0  0  0  0  0  0  0  0  0
  -22.3996   -9.4528   22.1992 C   0  0  0  0  0  0  0  0  0  0  0  0
  -27.9264  -13.9674   20.4810 C   0  0  0  0  0  0  0  0  0  0  0  0
  -28.5748  -23.4751   17.2661 C   0  0  0  0  0  0  0  0  0  0  0  0
  -28.7743  -21.4189   19.0081 C   0  0  0  0  0  0  0  0  0  0  0  0
  -30.0053  -14.5376   20.0474 C   0  0  0  0  0  0  0  0  0  0  0  0
  -29.3357  -12.3297   19.0857 C   0  0  0  0  0  0  0  0  0  0  0  0
  -22.8602  -29.7308   23.1750 C   0  0  0  0  0  0  0  0  0  0  0  0
  -25.4374  -29.9179   25.1359 C   0  0  0  0  0  0  0  0  0  0  0  0
  -28.7588  -29.3024   25.6220 C   0  0  0  0  0  0  0  0  0  0  0  0
  -29.4457  -20.3740   21.1998 C   0  0  0  0  0  0  0  0  0  0  0  0
  -18.4654  -31.5242   25.0531 C   0  0  0  0  0  0  0  0  0  0  0  0
  -23.7023  -27.3550   23.1274 C   0  0  0  0  0  0  0  0  0  0  0  0
  -25.8912  -29.3035   22.7313 C   0  0  0  0  0  0  0  0  0  0  0  0
  -27.3987  -22.0267   15.5635 C   0  0  0  0  0  0  0  0  0  0  0  0
  -19.9426  -31.8786   25.2039 C   0  0  0  0  0  0  0  0  0  0  0  0
  -31.1155  -17.9569   23.2114 C   0  0  0  0  0  0  0  0  0  0  0  0
  -20.6086  -31.9838   23.8356 C   0  0  0  0  0  0  0  0  0  0  0  0
  -30.5981  -16.6198   22.6759 C   0  0  0  0  0  0  0  0  0  0  0  0
  -30.0272  -19.0290   23.2067 C   0  0  0  0  0  0  0  0  0  0  0  0
  -28.8320  -17.8829   21.3826 C   0  0  0  0  0  0  0  0  0  0  0  0
  -27.4939  -24.4830   15.2057 C   0  0  0  0  0  0  0  0  0  0  0  0
  -20.5482  -30.6462   23.0882 C   0  0  1  0  0  0  0  0  0  0  0  0
  -28.5443  -24.6527   16.3097 C   0  0  1  0  0  0  0  0  0  0  0  0
  -23.7209  -28.6995   23.8481 C   0  0  1  0  0  0  0  0  0  0  0  0
  -29.9099  -16.7892   21.3072 C   0  0  2  0  0  0  0  0  0  0  0  0
  -30.5914  -29.6023   27.3099 C   0  0  0  0  0  0  0  0  0  0  0  0
  -25.6161  -32.8768   24.4126 C   0  0  0  0  0  0  0  0  0  0  0  0
  -27.9447  -32.8894   25.3323 C   0  0  0  0  0  0  0  0  0  0  0  0
  -26.0177  -32.3672   26.8278 C   0  0  0  0  0  0  0  0  0  0  0  0
  -29.1937  -26.3831   25.8404 C   0  0  0  0  0  0  0  0  0  0  0  0
  -28.2986  -25.9805   17.0325 C   0  0  0  0  0  0  0  0  0  0  0  0
  -26.9500  -26.0009   17.7356 C   0  0  0  0  0  0  0  0  0  1  0  0
  -26.7496  -30.6640   25.1087 C   0  0  1  0  0  0  0  0  0  0  0  0
  -29.5074  -28.6745   26.7838 C   0  0  2  0  0  0  0  0  0  0  0  0
  -26.5747  -32.1813   25.3996 C   0  0  0  0  0  0  0  0  0  0  0  0
  -28.0780  -15.1550   21.0731 N   0  0  0  0  0  0  0  0  0  0  0  0
  -29.1845  -23.6536   18.4625 N   0  0  0  0  0  0  0  0  0  0  0  0
  -29.2798  -22.6195   19.3460 N   0  0  0  0  0  0  0  0  0  0  0  0
  -29.3524  -15.4756   20.7918 N   0  0  0  0  0  0  0  0  0  0  0  0
  -25.0667  -29.2673   23.9505 N   0  0  0  0  0  0  0  0  0  0  0  0
  -29.4232  -19.1363   21.8769 N   0  0  0  0  0  0  0  0  0  0  0  0
  -31.2927  -14.7010   19.6756 N   0  0  0  0  0  0  0  0  0  0  0  0
  -28.2908  -11.4045   18.9560 N   0  0  0  0  0  0  0  0  0  0  0  0
  -28.8706  -20.3470   19.9297 N   0  0  0  0  0  0  0  0  0  0  0  0
  -21.5465  -29.7338   23.6034 N   0  0  0  0  0  0  0  0  0  0  0  0
  -27.6309  -29.9738   26.0443 N   0  0  0  0  0  0  0  0  0  0  0  0
  -27.6555  -23.1336   14.5896 N   0  3  0  0  0  0  0  0  0  0  0  0
  -30.1474  -27.3977   26.3582 N   0  3  0  0  0  0  0  0  0  0  0  0
  -30.4494  -12.0744   18.5681 O   0  0  0  0  0  0  0  0  0  0  0  0
  -23.3520  -30.4702   22.3305 O   0  0  0  0  0  0  0  0  0  0  0  0
  -24.7695  -29.9067   26.1729 O   0  0  0  0  0  0  0  0  0  0  0  0
  -29.1388  -29.2099   24.4569 O   0  0  0  0  0  0  0  0  0  0  0  0
  -29.9630  -21.3770   21.6981 O   0  0  0  0  0  0  0  0  0  0  0  0
  -23.0262  -11.2899   20.7741 O   0  0  0  0  0  0  0  0  0  0  0  0
  -26.7810  -27.2665   18.3728 O   0  0  0  0  0  0  0  0  0  1  0  0
  -23.1149   -5.8966   21.9180 F   0  0  0  0  0  0  0  0  0  0  0  0
  -21.7516  -10.2945   23.0162 F   0  0  0  0  0  0  0  0  0  0  0  0
  1  2  1  0  0  0  0
  1  5  2  0  0  0  0
  2  6  2  0  0  0  0
  3  8  2  0  0  0  0
  3 16  1  0  0  0  0
  4  9  1  0  0  0  0
  4 16  2  0  0  0  0
  5 18  1  0  0  0  0
  6 20  1  0  0  0  0
  7 10  2  0  0  0  0
  7 19  1  0  0  0  0
  8 23  1  0  0  0  0
  9 23  2  0  0  0  0
 10 24  1  0  0  0  0
 11 12  2  0  0  0  0
 11 25  1  0  0  0  0
 12 26  1  0  0  0  0
 13 21  1  0  0  0  0
 13 24  2  0  0  0  0
 14 22  1  0  0  0  0
 14 30  2  0  0  0  0
 15 26  2  0  0  0  0
 15 27  1  0  0  0  0
 16 28  1  0  0  0  0
 17 28  1  0  0  0  0
 17 31  2  0  0  0  0
 17 32  1  0  0  0  0
 18 20  2  0  0  0  0
 18 37  1  0  0  0  0
 19 21  2  0  0  0  0
 19 38  1  0  0  0  0
 20 48  1  0  0  0  0
 21 39  1  0  0  0  0
 22 29  2  0  0  0  0
 22 40  1  0  0  0  0
 23 80  1  0  0  0  0
 24 81  1  0  0  0  0
 25 27  2  0  0  0  0
 25 80  1  0  0  0  0
 26 82  1  0  0  0  0
 27 83  1  0  0  0  0
 28 62  2  0  0  0  0
 29 49  1  0  0  0  0
 29 63  1  0  0  0  0
 30 64  1  0  0  0  0
 30 70  1  0  0  0  0
 31 65  1  0  0  0  0
 31 68  1  0  0  0  0
 32 69  1  0  0  0  0
 32 75  2  0  0  0  0
 33 50  1  0  0  0  0
 33 71  1  0  0  0  0
 33 76  2  0  0  0  0
 34 59  1  0  0  0  0
 34 66  1  0  0  0  0
 34 77  2  0  0  0  0
 35 60  1  0  0  0  0
 35 72  1  0  0  0  0
 35 78  2  0  0  0  0
 36 67  1  0  0  0  0
 36 70  1  0  0  0  0
 36 79  2  0  0  0  0
 37 41  1  0  0  0  0
 38 50  1  0  0  0  0
 39 66  1  0  0  0  0
 40 73  1  0  0  0  0
 41 43  1  0  0  0  0
 42 44  1  0  0  0  0
 42 45  1  0  0  0  0
 43 48  1  0  0  0  0
 44 51  1  0  0  0  0
 45 67  1  0  0  0  0
 46 51  1  0  0  0  0
 46 67  1  0  0  0  0
 47 49  1  0  0  0  0
 47 73  1  0  0  0  0
 48 71  1  0  0  0  0
 49 57  1  0  0  0  0
 50 66  1  0  0  0  0
 51 65  1  0  0  0  0
 52 60  1  0  0  0  0
 53 61  1  0  0  0  0
 54 61  1  0  0  0  0
 55 61  1  0  0  0  0
 56 74  1  0  0  0  0
 57 58  1  0  0  0  0
 58 81  1  0  0  0  0
 59 61  1  0  0  0  0
 59 72  1  0  0  0  0
 60 74  1  0  0  0  0
 62 65  1  0  0  0  0
 63 64  2  0  0  0  0
M  CHG  2  73   1  74   1
M  ISO  4  36 100  58 101  70 100  81 101
M  END
> <Batch ID>
0189

> <Smiles>
CNC(C)C(=O)NC(C(=O)N1Cc2cc([101O:1][101CH2:1]CC3CNCc4cc([100NH:0][100C:0](=O)N5CCCC(n6nc(-c7ccc(Oc8ccc(F)cc8F)cc7)c(C(N)=O)c6N)C5)nnc43)ccc2CC1C(=O)NC1CCCc2ccccc21)C(C)(C)C

> <Shape>
0.327

> <Color>
0.093

> <Negative vol penalty>
0.000

$$$$

  -OEChem-04052323223D

 86 95  0     1  0  0  0  0  0999 V2000
  -28.2175  -36.4218   22.4317 C   0  0  0  0  0  0  0  0  0  0  0  0
  -28.4880  -35.0620   22.3176 C   0  0  0  0  0  0  0  0  0  0  0  0
  -24.3519   -8.8933   21.4693 C   0  0  0  0  0  0  0  0  0  0  0  0
  -24.3688  -10.3933   23.3632 C   0  0  0  0  0  0  0  0  0  0  0  0
  -27.0235  -36.8476   23.0122 C   0  0  0  0  0  0  0  0  0  0  0  0
  -27.5650  -34.1270   22.7851 C   0  0  0  0  0  0  0  0  0  0  0  0
  -26.8396  -30.3175   19.5283 C   0  0  0  0  0  0  0  0  0  0  0  0
  -24.0078   -7.8352   22.3104 C   0  0  0  0  0  0  0  0  0  0  0  0
  -24.0246   -9.3351   24.2043 C   0  0  0  0  0  0  0  0  0  0  0  0
  -27.8150  -29.3223   19.4851 C   0  0  0  0  0  0  0  0  0  0  0  0
  -21.2235   -6.6668   23.8321 C   0  0  0  0  0  0  0  0  0  0  0  0
  -20.2098   -5.8067   23.4102 C   0  0  0  0  0  0  0  0  0  0  0  0
  -26.4299  -27.9132   20.8691 C   0  0  0  0  0  0  0  0  0  0  0  0
  -21.7544   -3.9504   23.4829 C   0  0  0  0  0  0  0  0  0  0  0  0
  -29.0437  -20.3464   18.4519 C   0  0  0  0  0  0  0  0  0  0  0  0
  -24.5325  -10.1724   21.9957 C   0  0  0  0  0  0  0  0  0  0  0  0
  -27.8657  -21.0499   18.5997 C   0  0  0  0  0  0  0  0  0  0  0  0
  -24.0114  -12.1328   20.4489 C   0  0  0  0  0  0  0  0  0  0  0  0
  -26.0811  -35.9173   23.4782 C   0  0  0  0  0  0  0  0  0  0  0  0
  -25.6547  -30.1220   20.2525 C   0  0  0  0  0  0  0  0  0  0  0  0
  -26.3579  -34.5408   23.3735 C   0  0  0  0  0  0  0  0  0  0  0  0
  -25.4399  -28.9065   20.9178 C   0  0  0  0  0  0  0  0  0  0  0  0
  -23.8441   -8.0561   23.6779 C   0  0  0  0  0  0  0  0  0  0  0  0
  -27.6115  -28.1210   20.1579 C   0  0  0  0  0  0  0  0  0  0  0  0
  -22.5028   -6.1687   24.0793 C   0  0  0  0  0  0  0  0  0  0  0  0
  -20.4752   -4.4485   23.2356 C   0  0  0  0  0  0  0  0  0  0  0  0
  -22.7682   -4.8105   23.9048 C   0  0  0  0  0  0  0  0  0  0  0  0
  -24.8886  -11.2658   21.1275 C   0  0  0  0  0  0  0  0  0  0  0  0
  -26.8042  -20.3350   19.1159 C   0  0  0  0  0  0  0  0  0  0  0  0
  -24.8375  -12.9899   19.7638 C   0  0  0  0  0  0  0  0  0  0  0  0
  -28.0785  -18.4592   19.2729 C   0  0  0  0  0  0  0  0  0  0  0  0
  -27.7812  -22.4887   18.2159 C   0  0  0  0  0  0  0  0  0  0  0  0
  -22.5779  -12.1610   20.4388 C   0  0  0  0  0  0  0  0  0  0  0  0
  -24.2876  -31.5457   22.7440 C   0  0  0  0  0  0  0  0  0  0  0  0
  -21.8432  -29.5253   22.0619 C   0  0  0  0  0  0  0  0  0  0  0  0
  -20.8136  -26.6009   20.6355 C   0  0  0  0  0  0  0  0  0  0  0  0
  -29.3214  -16.2825   19.5247 C   0  0  0  0  0  0  0  0  0  0  0  0
  -24.8255  -36.4259   24.1412 C   0  0  0  0  0  0  0  0  0  0  0  0
  -24.6008  -31.1950   20.2671 C   0  0  0  0  0  0  0  0  0  0  0  0
  -24.1763  -28.6391   21.6926 C   0  0  0  0  0  0  0  0  0  0  0  0
  -23.7338  -35.3669   24.2715 C   0  0  0  0  0  0  0  0  0  0  0  0
  -29.8301  -12.8057   18.9499 C   0  0  0  0  0  0  0  0  0  0  0  0
  -24.3165  -34.0622   24.8052 C   0  0  0  0  0  0  0  0  0  0  0  0
  -25.2369  -21.7645   20.5904 C   0  0  0  0  0  0  0  0  0  0  0  0
  -24.5410  -20.4600   20.3571 C   0  0  0  0  0  0  0  0  0  0  0  0
  -28.5176  -12.1665   19.4094 C   0  0  0  0  0  0  0  0  0  0  0  0
  -30.2246  -13.9881   19.8331 C   0  0  0  0  0  0  0  0  0  0  0  0
  -27.8733  -14.3732   20.4592 C   0  0  0  0  0  0  0  0  0  0  0  0
  -25.3707  -33.4958   23.8463 C   0  0  1  0  0  0  0  0  0  0  0  0
  -25.4822  -21.0028   19.3162 C   0  0  0  0  0  0  0  0  0  0  0  0
  -23.6557  -31.0880   21.4599 C   0  0  1  0  0  0  0  0  0  0  0  0
  -27.4012  -13.2182   19.5609 C   0  0  2  0  0  0  0  0  0  0  0  0
  -18.7624  -25.2019   20.2713 C   0  0  0  0  0  0  0  0  0  0  0  0
  -21.9559  -28.6075   24.9696 C   0  0  0  0  0  0  0  0  0  0  0  0
  -20.5955  -26.6090   24.3187 C   0  0  0  0  0  0  0  0  0  0  0  0
  -19.6460  -28.9009   24.0571 C   0  0  0  0  0  0  0  0  0  0  0  0
  -21.0543  -26.8068   17.6929 C   0  0  0  0  0  0  0  0  0  0  0  0
  -29.0263  -23.3387   18.3246 C   0  0  0  0  0  0  0  0  0  0  0  0
  -29.8542  -25.6580   18.7422 C   0  0  0  0  0  0  0  0  0  0  0  0
  -29.3742  -27.0814   18.9464 C   0  0  0  0  0  0  0  0  0  1  0  0
  -21.4646  -28.1254   22.4812 C   0  0  1  0  0  0  0  0  0  0  0  0
  -19.6602  -26.2881   19.6994 C   0  0  2  0  0  0  0  0  0  0  0  0
  -20.9403  -28.0662   23.9437 C   0  0  0  0  0  0  0  0  0  0  0  0
  -29.1859  -19.0454   18.7795 N   0  0  0  0  0  0  0  0  0  0  0  0
  -26.1735  -11.5463   20.8945 N   0  0  0  0  0  0  0  0  0  0  0  0
  -26.8755  -19.0335   19.4644 N   0  0  0  0  0  0  0  0  0  0  0  0
  -26.1098  -12.5992   20.0618 N   0  0  0  0  0  0  0  0  0  0  0  0
  -23.1785  -29.7216   21.6822 N   0  0  0  0  0  0  0  0  0  0  0  0
  -29.1200  -14.9451   19.9269 N   0  0  0  0  0  0  0  0  0  0  0  0
  -24.5925  -14.0321   18.9415 N   0  0  0  0  0  0  0  0  0  0  0  0
  -21.8855  -11.2083   21.1985 N   0  0  0  0  0  0  0  0  0  0  0  0
  -28.1907  -17.0921   19.6282 N   0  0  0  0  0  0  0  0  0  0  0  0
  -24.7333  -32.8534   22.7169 N   0  0  0  0  0  0  0  0  0  0  0  0
  -20.5131  -27.6443   21.4854 N   0  0  0  0  0  0  0  0  0  0  0  0
  -20.1750  -25.8258   18.3795 N   0  3  0  0  0  0  0  0  0  0  0  0
  -28.6807  -24.7660   18.5639 N   0  3  0  0  0  0  0  0  0  0  0  0
  -26.7104  -22.9471   17.8244 O   0  0  0  0  0  0  0  0  0  0  0  0
  -21.9301  -12.9957   19.7626 O   0  0  0  0  0  0  0  0  0  0  0  0
  -24.3638  -30.7703   23.6899 O   0  0  0  0  0  0  0  0  0  0  0  0
  -20.9841  -30.4105   22.0642 O   0  0  0  0  0  0  0  0  0  0  0  0
  -21.8737  -25.9793   20.6172 O   0  0  0  0  0  0  0  0  0  0  0  0
  -30.4088  -16.6735   19.0927 O   0  0  0  0  0  0  0  0  0  0  0  0
  -23.5081   -7.0238   24.4989 O   0  0  0  0  0  0  0  0  0  0  0  0
  -28.5622  -27.1482   20.1180 O   0  0  0  0  0  0  0  0  0  1  0  0
  -19.5011   -3.6223   22.8320 F   0  0  0  0  0  0  0  0  0  0  0  0
  -23.9950   -4.3260   24.1418 F   0  0  0  0  0  0  0  0  0  0  0  0
  1  2  1  0  0  0  0
  1  5  2  0  0  0  0
  2  6  2  0  0  0  0
  3  8  2  0  0  0  0
  3 16  1  0  0  0  0
  4  9  1  0  0  0  0
  4 16  2  0  0  0  0
  5 19  1  0  0  0  0
  6 21  1  0  0  0  0
  7 10  2  0  0  0  0
  7 20  1  0  0  0  0
  8 23  1  0  0  0  0
  9 23  2  0  0  0  0
 10 24  1  0  0  0  0
 11 12  2  0  0  0  0
 11 25  1  0  0  0  0
 12 26  1  0  0  0  0
 13 22  1  0  0  0  0
 13 24  2  0  0  0  0
 14 26  2  0  0  0  0
 14 27  1  0  0  0  0
 15 17  1  0  0  0  0
 15 64  2  0  0  0  0
 16 28  1  0  0  0  0
 17 29  2  0  0  0  0
 17 32  1  0  0  0  0
 18 28  1  0  0  0  0
 18 30  2  0  0  0  0
 18 33  1  0  0  0  0
 19 21  2  0  0  0  0
 19 38  1  0  0  0  0
 20 22  2  0  0  0  0
 20 39  1  0  0  0  0
 21 49  1  0  0  0  0
 22 40  1  0  0  0  0
 23 83  1  0  0  0  0
 24 84  1  0  0  0  0
 25 27  2  0  0  0  0
 25 83  1  0  0  0  0
 26 85  1  0  0  0  0
 27 86  1  0  0  0  0
 28 65  2  0  0  0  0
 29 50  1  0  0  0  0
 29 66  1  0  0  0  0
 30 67  1  0  0  0  0
 30 70  1  0  0  0  0
 31 64  1  0  0  0  0
 31 66  2  0  0  0  0
 31 72  1  0  0  0  0
 32 58  1  0  0  0  0
 32 77  2  0  0  0  0
 33 71  1  0  0  0  0
 33 78  2  0  0  0  0
 34 51  1  0  0  0  0
 34 73  1  0  0  0  0
 34 79  2  0  0  0  0
 35 61  1  0  0  0  0
 35 68  1  0  0  0  0
 35 80  2  0  0  0  0
 36 62  1  0  0  0  0
 36 74  1  0  0  0  0
 36 81  2  0  0  0  0
 37 69  1  0  0  0  0
 37 72  1  0  0  0  0
 37 82  2  0  0  0  0
 38 41  1  0  0  0  0
 39 51  1  0  0  0  0
 40 68  1  0  0  0  0
 41 43  1  0  0  0  0
 42 46  1  0  0  0  0
 42 47  1  0  0  0  0
 43 49  1  0  0  0  0
 44 45  1  0  0  0  0
 44 50  1  0  0  0  0
 45 50  1  0  0  0  0
 46 52  1  0  0  0  0
 47 69  1  0  0  0  0
 48 52  1  0  0  0  0
 48 69  1  0  0  0  0
 49 73  1  0  0  0  0
 51 68  1  0  0  0  0
 52 67  1  0  0  0  0
 53 62  1  0  0  0  0
 54 63  1  0  0  0  0
 55 63  1  0  0  0  0
 56 63  1  0  0  0  0
 57 75  1  0  0  0  0
 58 76  1  0  0  0  0
 59 60  1  0  0  0  0
 59 76  1  0  0  0  0
 60 84  1  0  0  0  0
 61 63  1  0  0  0  0
 61 74  1  0  0  0  0
 62 75  1  0  0  0  0
 65 67  1  0  0  0  0
M  CHG  2  75   1  76   1
M  ISO  4  37 100  60 101  72 100  84 101
M  END
> <Batch ID>
0189

> <Smiles>
CNC(C)C(=O)NC(C(=O)N1Cc2cc([101O:1][101CH2:1]CNCC(=O)c3cnc([100NH:0][100C:0](=O)N4CCCC(n5nc(-c6ccc(Oc7ccc(F)cc7F)cc6)c(C(N)=O)c5N)C4)nc3C3CC3)ccc2CC1C(=O)NC1CCCc2ccccc21)C(C)(C)C

> <Shape>
0.354

> <Color>
0.103

> <Negative vol penalty>
0.000

$$$$

  -OEChem-04052323223D

 80 89  0     1  0  0  0  0  0999 V2000
  -16.8414  -27.6319   20.9363 C   0  0  0  0  0  0  0  0  0  0  0  0
  -17.9628  -26.8555   21.2103 C   0  0  0  0  0  0  0  0  0  0  0  0
  -23.9006   -9.6671   22.2771 C   0  0  0  0  0  0  0  0  0  0  0  0
  -23.0738   -9.7433   20.0082 C   0  0  0  0  0  0  0  0  0  0  0  0
  -16.9934  -28.9662   20.5613 C   0  0  0  0  0  0  0  0  0  0  0  0
  -19.2370  -27.4127   21.1085 C   0  0  0  0  0  0  0  0  0  0  0  0
  -24.1083  -26.1220   24.5884 C   0  0  0  0  0  0  0  0  0  0  0  0
  -22.9904   -8.6529   22.5747 C   0  0  0  0  0  0  0  0  0  0  0  0
  -22.1636   -8.7291   20.3059 C   0  0  0  0  0  0  0  0  0  0  0  0
  -25.2086  -25.2890   24.3900 C   0  0  0  0  0  0  0  0  0  0  0  0
  -22.7274   -5.3182   22.0815 C   0  0  0  0  0  0  0  0  0  0  0  0
  -23.1942   -4.2194   22.8029 C   0  0  0  0  0  0  0  0  0  0  0  0
  -26.4916  -27.1786   23.6137 C   0  0  0  0  0  0  0  0  0  0  0  0
  -21.5992   -4.6922   24.5550 C   0  0  0  0  0  0  0  0  0  0  0  0
  -23.9423  -10.2123   20.9938 C   0  0  0  0  0  0  0  0  0  0  0  0
  -26.1953  -11.1094   20.2021 C   0  0  0  0  0  0  0  0  0  0  0  0
  -18.2696  -29.5427   20.4642 C   0  0  0  0  0  0  0  0  0  0  0  0
  -24.1882  -27.4899   24.2901 C   0  0  0  0  0  0  0  0  0  0  0  0
  -19.4062  -28.7556   20.7306 C   0  0  0  0  0  0  0  0  0  0  0  0
  -25.3917  -28.0272   23.8116 C   0  0  0  0  0  0  0  0  0  0  0  0
  -22.1219   -8.1839   21.5891 C   0  0  0  0  0  0  0  0  0  0  0  0
  -26.3995  -25.8167   23.8998 C   0  0  0  0  0  0  0  0  0  0  0  0
  -21.6966   -6.1040   22.5969 C   0  0  0  0  0  0  0  0  0  0  0  0
  -22.6301   -3.9064   24.0396 C   0  0  0  0  0  0  0  0  0  0  0  0
  -21.1325   -5.7910   23.8336 C   0  0  0  0  0  0  0  0  0  0  0  0
  -24.8819  -11.2603   20.6859 C   0  0  0  0  0  0  0  0  0  0  0  0
  -26.6637  -12.3941   20.0736 C   0  0  0  0  0  0  0  0  0  0  0  0
  -26.9265   -9.9147   19.8960 C   0  0  0  0  0  0  0  0  0  0  0  0
  -22.6981  -29.4349   22.2653 C   0  0  0  0  0  0  0  0  0  0  0  0
  -24.3958  -31.7200   23.8204 C   0  0  0  0  0  0  0  0  0  0  0  0
  -27.1313  -32.5240   25.6959 C   0  0  0  0  0  0  0  0  0  0  0  0
  -25.8172  -17.5579   18.2734 C   0  0  0  0  0  0  0  0  0  0  0  0
  -18.3860  -30.9759   20.0093 C   0  0  0  0  0  0  0  0  0  0  0  0
  -23.0007  -28.3799   24.5349 C   0  0  0  0  0  0  0  0  0  0  0  0
  -25.5354  -29.4927   23.4951 C   0  0  0  0  0  0  0  0  0  0  0  0
  -19.7535  -31.5944   20.2884 C   0  0  0  0  0  0  0  0  0  0  0  0
  -24.7408  -16.7818   21.6915 C   0  0  0  0  0  0  0  0  0  0  0  0
  -20.8668  -30.6423   19.8630 C   0  0  0  0  0  0  0  0  0  0  0  0
  -24.7749  -15.2527   21.6816 C   0  0  0  0  0  0  0  0  0  0  0  0
  -29.1012  -23.7738   22.1855 C   0  0  0  0  0  0  0  0  0  0  0  0
  -27.1699  -24.1220   21.3452 C   0  0  0  0  0  0  0  0  0  0  0  0
  -24.3246  -17.3268   20.3306 C   0  0  0  0  0  0  0  0  0  0  0  0
  -26.8889  -19.8083   17.7215 C   0  0  0  0  0  0  0  0  0  0  0  0
  -26.4749  -19.5837   19.7959 C   0  0  0  0  0  0  0  0  0  0  0  0
  -25.2136  -15.3401   19.1799 C   0  0  0  0  0  0  0  0  0  0  0  0
  -20.8039  -29.3309   20.6553 C   0  0  1  0  0  0  0  0  0  0  0  0
  -23.0362  -29.6636   23.7113 C   0  0  1  0  0  0  0  0  0  0  0  0
  -27.5884  -20.2937   19.0027 C   0  0  0  0  0  0  0  0  0  0  0  0
  -25.6402  -14.7215   20.5240 C   0  0  2  0  0  0  0  0  0  0  0  0
  -28.4745  -23.5041   20.8021 C   0  0  0  0  0  0  0  0  0  0  0  0
  -28.0367  -24.8799   22.3795 C   0  0  0  0  0  0  0  0  0  1  0  0
  -28.2687  -34.4787   26.7835 C   0  0  0  0  0  0  0  0  0  0  0  0
  -25.4164  -32.6391   21.0957 C   0  0  0  0  0  0  0  0  0  0  0  0
  -27.2198  -33.9111   22.2780 C   0  0  0  0  0  0  0  0  0  0  0  0
  -24.8254  -34.4922   22.6677 C   0  0  0  0  0  0  0  0  0  0  0  0
  -26.8576  -31.3322   28.3910 C   0  0  0  0  0  0  0  0  0  0  0  0
  -27.6994  -21.7940   19.1847 C   0  0  0  0  0  0  0  0  0  0  0  0
  -25.7552  -32.3511   23.6390 C   0  0  1  0  0  0  0  0  0  0  0  0
  -27.2763  -33.3411   26.9670 C   0  0  2  0  0  0  0  0  0  0  0  0
  -25.8012  -33.3204   22.4241 C   0  0  0  0  0  0  0  0  0  0  0  0
  -24.5381  -12.5400   20.8536 N   0  0  0  0  0  0  0  0  0  0  0  0
  -25.6423  -13.2049   20.4731 N   0  0  0  0  0  0  0  0  0  0  0  0
  -24.3442  -30.3209   23.7452 N   0  0  0  0  0  0  0  0  0  0  0  0
  -25.1919  -16.8039   19.2702 N   0  0  0  0  0  0  0  0  0  0  0  0
  -26.1971  -18.8448   18.5734 N   0  0  0  0  0  0  0  0  0  0  0  0
  -27.8454  -12.8981   19.6592 N   0  0  0  0  0  0  0  0  0  0  0  0
  -26.2950   -8.6778   20.0854 N   0  0  0  0  0  0  0  0  0  0  0  0
  -21.3477  -29.5162   21.9836 N   0  0  0  0  0  0  0  0  0  0  0  0
  -26.0888  -32.9756   24.9146 N   0  0  0  0  0  0  0  0  0  0  0  0
  -28.3574  -22.0784   20.4804 N   0  3  0  0  0  0  0  0  0  0  0  0
  -27.7516  -32.4787   28.0857 N   0  3  0  0  0  0  0  0  0  0  0  0
  -28.1105   -9.9425   19.4828 O   0  0  0  0  0  0  0  0  0  0  0  0
  -23.5960  -29.2034   21.4642 O   0  0  0  0  0  0  0  0  0  0  0  0
  -23.4171  -32.4414   24.0284 O   0  0  0  0  0  0  0  0  0  0  0  0
  -27.8714  -31.5819   25.4215 O   0  0  0  0  0  0  0  0  0  0  0  0
  -26.0599  -17.0865   17.1545 O   0  0  0  0  0  0  0  0  0  0  0  0
  -21.2338   -7.1941   21.8792 O   0  0  0  0  0  0  0  0  0  0  0  0
  -27.4871  -24.9964   23.7024 O   0  0  0  0  0  0  0  0  0  1  0  0
  -23.0774   -2.8503   24.7315 F   0  0  0  0  0  0  0  0  0  0  0  0
  -20.1411   -6.5415   24.3333 F   0  0  0  0  0  0  0  0  0  0  0  0
  1  2  1  0  0  0  0
  1  5  2  0  0  0  0
  2  6  2  0  0  0  0
  3  8  2  0  0  0  0
  3 15  1  0  0  0  0
  4  9  1  0  0  0  0
  4 15  2  0  0  0  0
  5 17  1  0  0  0  0
  6 19  1  0  0  0  0
  7 10  2  0  0  0  0
  7 18  1  0  0  0  0
  8 21  1  0  0  0  0
  9 21  2  0  0  0  0
 10 22  1  0  0  0  0
 11 12  2  0  0  0  0
 11 23  1  0  0  0  0
 12 24  1  0  0  0  0
 13 20  1  0  0  0  0
 13 22  2  0  0  0  0
 14 24  2  0  0  0  0
 14 25  1  0  0  0  0
 15 26  1  0  0  0  0
 16 26  1  0  0  0  0
 16 27  2  0  0  0  0
 16 28  1  0  0  0  0
 17 19  2  0  0  0  0
 17 33  1  0  0  0  0
 18 20  2  0  0  0  0
 18 34  1  0  0  0  0
 19 46  1  0  0  0  0
 20 35  1  0  0  0  0
 21 77  1  0  0  0  0
 22 78  1  0  0  0  0
 23 25  2  0  0  0  0
 23 77  1  0  0  0  0
 24 79  1  0  0  0  0
 25 80  1  0  0  0  0
 26 61  2  0  0  0  0
 27 62  1  0  0  0  0
 27 66  1  0  0  0  0
 28 67  1  0  0  0  0
 28 72  2  0  0  0  0
 29 47  1  0  0  0  0
 29 68  1  0  0  0  0
 29 73  2  0  0  0  0
 30 58  1  0  0  0  0
 30 63  1  0  0  0  0
 30 74  2  0  0  0  0
 31 59  1  0  0  0  0
 31 69  1  0  0  0  0
 31 75  2  0  0  0  0
 32 64  1  0  0  0  0
 32 65  1  0  0  0  0
 32 76  2  0  0  0  0
 33 36  1  0  0  0  0
 34 47  1  0  0  0  0
 35 63  1  0  0  0  0
 36 38  1  0  0  0  0
 37 39  1  0  0  0  0
 37 42  1  0  0  0  0
 38 46  1  0  0  0  0
 39 49  1  0  0  0  0
 40 50  1  0  0  0  0
 40 51  1  0  0  0  0
 41 50  1  0  0  0  0
 41 51  1  0  0  0  0
 42 64  1  0  0  0  0
 43 48  1  0  0  0  0
 43 65  1  0  0  0  0
 44 48  1  0  0  0  0
 44 65  1  0  0  0  0
 45 49  1  0  0  0  0
 45 64  1  0  0  0  0
 46 68  1  0  0  0  0
 47 63  1  0  0  0  0
 48 57  1  0  0  0  0
 49 62  1  0  0  0  0
 50 70  1  0  0  0  0
 51 78  1  0  0  0  0
 52 59  1  0  0  0  0
 53 60  1  0  0  0  0
 54 60  1  0  0  0  0
 55 60  1  0  0  0  0
 56 71  1  0  0  0  0
 57 70  1  0  0  0  0
 58 60  1  0  0  0  0
 58 69  1  0  0  0  0
 59 71  1  0  0  0  0
 61 62  1  0  0  0  0
M  CHG  2  70   1  71   1
M  ISO  4  32 100  51 101  65 100  78 101
M  END
> <Batch ID>
0189

> <Smiles>
CNC(C)C(=O)NC(C(=O)N1Cc2cc([101O:1][101CH:1]3CC(NCC4C[100N:0]([100C:0](=O)N5CCCC(n6nc(-c7ccc(Oc8ccc(F)cc8F)cc7)c(C(N)=O)c6N)C5)C4)C3)ccc2CC1C(=O)NC1CCCc2ccccc21)C(C)(C)C

> <Shape>
0.258

> <Color>
0.096

> <Negative vol penalty>
0.000

$$$$

  -OEChem-04052323223D

 88 97  0     1  0  0  0  0  0999 V2000
  -25.7617  -22.4638   26.5280 C   0  0  0  0  0  0  0  0  0  0  0  0
  -27.1479  -22.4211   26.4183 C   0  0  0  0  0  0  0  0  0  0  0  0
  -23.0086   -9.8513   19.9488 C   0  0  0  0  0  0  0  0  0  0  0  0
  -23.7571   -9.8498   22.2459 C   0  0  0  0  0  0  0  0  0  0  0  0
  -24.9788  -22.6489   25.3893 C   0  0  0  0  0  0  0  0  0  0  0  0
  -27.7520  -22.5624   25.1695 C   0  0  0  0  0  0  0  0  0  0  0  0
  -33.0918  -25.3028   23.9520 C   0  0  0  0  0  0  0  0  0  0  0  0
  -22.2541   -8.7040   20.1939 C   0  0  0  0  0  0  0  0  0  0  0  0
  -23.0027   -8.7025   22.4910 C   0  0  0  0  0  0  0  0  0  0  0  0
  -34.3778  -24.8036   23.7506 C   0  0  0  0  0  0  0  0  0  0  0  0
  -21.5591   -5.5675   23.6301 C   0  0  0  0  0  0  0  0  0  0  0  0
  -22.1612   -4.5378   24.3532 C   0  0  0  0  0  0  0  0  0  0  0  0
  -34.0167  -24.8525   21.3659 C   0  0  0  0  0  0  0  0  0  0  0  0
  -23.8721   -4.3478   22.6579 C   0  0  0  0  0  0  0  0  0  0  0  0
  -29.7407  -17.6364   22.7671 C   0  0  0  0  0  0  0  0  0  0  0  0
  -23.7601  -10.4242   20.9748 C   0  0  0  0  0  0  0  0  0  0  0  0
  -24.1230  -12.9466   20.8591 C   0  0  0  0  0  0  0  0  0  0  0  0
  -25.5740  -22.8023   24.1272 C   0  0  0  0  0  0  0  0  0  0  0  0
  -32.2532  -25.5709   22.8605 C   0  0  0  0  0  0  0  0  0  0  0  0
  -26.9763  -22.7484   24.0126 C   0  0  0  0  0  0  0  0  0  0  0  0
  -32.7214  -25.3576   21.5561 C   0  0  0  0  0  0  0  0  0  0  0  0
  -22.2512   -8.1296   21.4650 C   0  0  0  0  0  0  0  0  0  0  0  0
  -34.8395  -24.5756   22.4575 C   0  0  0  0  0  0  0  0  0  0  0  0
  -22.1134   -5.9873   22.4209 C   0  0  0  0  0  0  0  0  0  0  0  0
  -23.3177   -3.9280   23.8671 C   0  0  0  0  0  0  0  0  0  0  0  0
  -23.2699   -5.3775   21.9348 C   0  0  0  0  0  0  0  0  0  0  0  0
  -24.5401  -11.6091   20.7221 C   0  0  0  0  0  0  0  0  0  0  0  0
  -30.2695  -18.8457   23.1700 C   0  0  0  0  0  0  0  0  0  0  0  0
  -30.5535  -16.8696   21.9573 C   0  0  0  0  0  0  0  0  0  0  0  0
  -25.2230  -13.6876   20.5020 C   0  0  0  0  0  0  0  0  0  0  0  0
  -32.1913  -18.4446   22.0242 C   0  0  0  0  0  0  0  0  0  0  0  0
  -22.8547  -13.4723   21.2723 C   0  0  0  0  0  0  0  0  0  0  0  0
  -29.4451  -24.4638   21.8643 C   0  0  0  0  0  0  0  0  0  0  0  0
  -29.7433  -26.8151   19.6496 C   0  0  0  0  0  0  0  0  0  0  0  0
  -31.8007  -28.8865   17.8823 C   0  0  0  0  0  0  0  0  0  0  0  0
  -30.6966  -14.6886   20.7047 C   0  0  0  0  0  0  0  0  0  0  0  0
  -24.6845  -22.9528   22.9186 C   0  0  0  0  0  0  0  0  0  0  0  0
  -30.8782  -26.1343   23.0937 C   0  0  0  0  0  0  0  0  0  0  0  0
  -31.8678  -25.6482   20.3497 C   0  0  0  0  0  0  0  0  0  0  0  0
  -25.4177  -23.4692   21.6832 C   0  0  0  0  0  0  0  0  0  0  0  0
  -29.5743  -12.2863   18.3285 C   0  0  0  0  0  0  0  0  0  0  0  0
  -26.7286  -22.7146   21.4861 C   0  0  0  0  0  0  0  0  0  0  0  0
  -28.1302  -12.0060   18.7507 C   0  0  0  0  0  0  0  0  0  0  0  0
  -33.4659  -20.1983   20.8049 C   0  0  0  0  0  0  0  0  0  0  0  0
  -34.4492  -19.0839   22.8488 C   0  0  0  0  0  0  0  0  0  0  0  0
  -30.4853  -12.5064   19.5349 C   0  0  0  0  0  0  0  0  0  0  0  0
  -28.5775  -13.2450   20.9075 C   0  0  0  0  0  0  0  0  0  0  0  0
  -34.8473  -20.7268   20.4403 C   0  0  0  0  0  0  0  0  0  0  0  0
  -35.8232  -19.6206   22.4685 C   0  0  0  0  0  0  0  0  0  0  0  0
  -27.6697  -22.9226   22.6789 C   0  0  1  0  0  0  0  0  0  0  0  0
  -33.5562  -18.8933   21.6122 C   0  0  0  0  0  0  0  0  0  0  0  0
  -29.9253  -25.8861   21.9285 C   0  0  1  0  0  0  0  0  0  0  0  0
  -27.6091  -13.0808   19.7247 C   0  0  2  0  0  0  0  0  0  0  0  0
  -29.4637  -19.7455   24.0460 C   0  0  0  0  0  0  0  0  0  0  0  0
  -31.7566  -30.6714   16.1189 C   0  0  0  0  0  0  0  0  0  0  0  0
  -38.9552  -22.8611   22.3548 C   0  0  0  0  0  0  0  0  0  0  0  0
  -29.2807  -24.6880   17.5115 C   0  0  0  0  0  0  0  0  0  0  0  0
  -30.1764  -26.2973   15.8157 C   0  0  0  0  0  0  0  0  0  0  0  0
  -28.1095  -26.8579   17.0948 C   0  0  0  0  0  0  0  0  0  0  0  0
  -32.9862  -30.8870   19.7130 C   0  0  0  0  0  0  0  0  0  0  0  0
  -36.9931  -21.5490   21.4068 C   0  0  0  0  0  0  0  0  0  0  0  0
  -36.6312  -23.2420   23.2742 C   0  0  0  0  0  0  0  0  0  1  0  0
  -30.3475  -26.9136   18.2696 C   0  0  1  0  0  0  0  0  0  0  0  0
  -31.7362  -30.3787   17.6112 C   0  0  2  0  0  0  0  0  0  0  0  0
  -37.5917  -22.2243   22.6461 C   0  0  2  0  0  0  0  0  0  0  0  0
  -29.4942  -26.1818   17.1955 C   0  0  0  0  0  0  0  0  0  0  0  0
  -25.8062  -11.5034   20.3100 N   0  0  0  0  0  0  0  0  0  0  0  0
  -31.4958  -19.2829   22.8161 N   0  0  0  0  0  0  0  0  0  0  0  0
  -31.7888  -17.2443   21.5649 N   0  0  0  0  0  0  0  0  0  0  0  0
  -26.1941  -12.7840   20.1848 N   0  0  0  0  0  0  0  0  0  0  0  0
  -30.5287  -26.1921   20.6298 N   0  0  0  0  0  0  0  0  0  0  0  0
  -29.9304  -13.5409   20.4106 N   0  0  0  0  0  0  0  0  0  0  0  0
  -25.4445  -15.0174   20.4314 N   0  0  0  0  0  0  0  0  0  0  0  0
  -21.8338  -12.5711   21.6036 N   0  0  0  0  0  0  0  0  0  0  0  0
  -30.0527  -15.6181   21.5209 N   0  0  0  0  0  0  0  0  0  0  0  0
  -28.3024  -24.2220   22.6027 N   0  0  0  0  0  0  0  0  0  0  0  0
  -30.5431  -28.3358   18.0102 N   0  0  0  0  0  0  0  0  0  0  0  0
  -35.6828  -20.9183   21.6932 N   0  3  0  0  0  0  0  0  0  0  0  0
  -32.8961  -31.0704   18.2416 N   0  3  0  0  0  0  0  0  0  0  0  0
  -22.6282  -14.7048   21.3297 O   0  0  0  0  0  0  0  0  0  0  0  0
  -30.0644  -23.6467   21.1932 O   0  0  0  0  0  0  0  0  0  0  0  0
  -28.6190  -27.2804   19.8521 O   0  0  0  0  0  0  0  0  0  0  0  0
  -32.8606  -28.2703   17.9682 O   0  0  0  0  0  0  0  0  0  0  0  0
  -31.8293  -14.8486   20.2429 O   0  0  0  0  0  0  0  0  0  0  0  0
  -21.5149   -7.0102   21.7046 O   0  0  0  0  0  0  0  0  0  0  0  0
  -36.0941  -24.0878   22.2580 O   0  0  0  0  0  0  0  0  0  1  0  0
  -23.8967   -2.9403   24.5624 F   0  0  0  0  0  0  0  0  0  0  0  0
  -23.8077   -5.7772   20.7743 F   0  0  0  0  0  0  0  0  0  0  0  0
  1  2  1  0  0  0  0
  1  5  2  0  0  0  0
  2  6  2  0  0  0  0
  3  8  2  0  0  0  0
  3 16  1  0  0  0  0
  4  9  1  0  0  0  0
  4 16  2  0  0  0  0
  5 18  1  0  0  0  0
  6 20  1  0  0  0  0
  7 10  2  0  0  0  0
  7 19  1  0  0  0  0
  8 22  1  0  0  0  0
  9 22  2  0  0  0  0
 10 23  1  0  0  0  0
 11 12  2  0  0  0  0
 11 24  1  0  0  0  0
 12 25  1  0  0  0  0
 13 21  1  0  0  0  0
 13 23  2  0  0  0  0
 14 25  2  0  0  0  0
 14 26  1  0  0  0  0
 15 28  1  0  0  0  0
 15 29  2  0  0  0  0
 16 27  1  0  0  0  0
 17 27  1  0  0  0  0
 17 30  2  0  0  0  0
 17 32  1  0  0  0  0
 18 20  2  0  0  0  0
 18 37  1  0  0  0  0
 19 21  2  0  0  0  0
 19 38  1  0  0  0  0
 20 50  1  0  0  0  0
 21 39  1  0  0  0  0
 22 85  1  0  0  0  0
 23 86  1  0  0  0  0
 24 26  2  0  0  0  0
 24 85  1  0  0  0  0
 25 87  1  0  0  0  0
 26 88  1  0  0  0  0
 27 67  2  0  0  0  0
 28 54  1  0  0  0  0
 28 68  2  0  0  0  0
 29 69  1  0  0  0  0
 29 75  1  0  0  0  0
 30 70  1  0  0  0  0
 30 73  1  0  0  0  0
 31 51  1  0  0  0  0
 31 68  1  0  0  0  0
 31 69  2  0  0  0  0
 32 74  1  0  0  0  0
 32 80  2  0  0  0  0
 33 52  1  0  0  0  0
 33 76  1  0  0  0  0
 33 81  2  0  0  0  0
 34 63  1  0  0  0  0
 34 71  1  0  0  0  0
 34 82  2  0  0  0  0
 35 64  1  0  0  0  0
 35 77  1  0  0  0  0
 35 83  2  0  0  0  0
 36 72  1  0  0  0  0
 36 75  1  0  0  0  0
 36 84  2  0  0  0  0
 37 40  1  0  0  0  0
 38 52  1  0  0  0  0
 39 71  1  0  0  0  0
 40 42  1  0  0  0  0
 41 43  1  0  0  0  0
 41 46  1  0  0  0  0
 42 50  1  0  0  0  0
 43 53  1  0  0  0  0
 44 48  1  0  0  0  0
 44 51  1  0  0  0  0
 45 49  1  0  0  0  0
 45 51  1  0  0  0  0
 46 72  1  0  0  0  0
 47 53  1  0  0  0  0
 47 72  1  0  0  0  0
 48 78  1  0  0  0  0
 49 78  1  0  0  0  0
 50 76  1  0  0  0  0
 52 71  1  0  0  0  0
 53 70  1  0  0  0  0
 55 64  1  0  0  0  0
 56 65  1  0  0  0  0
 57 66  1  0  0  0  0
 58 66  1  0  0  0  0
 59 66  1  0  0  0  0
 60 79  1  0  0  0  0
 61 65  1  0  0  0  0
 61 78  1  0  0  0  0
 62 65  1  0  0  0  0
 62 86  1  0  0  0  0
 63 66  1  0  0  0  0
 63 77  1  0  0  0  0
 64 79  1  0  0  0  0
 67 70  1  0  0  0  0
M  CHG  2  78   1  79   1
M  ISO  4  36 100  62 101  75 100  86 101
M  END
> <Batch ID>
0189

> <Smiles>
CNC(C)C(=O)NC(C(=O)N1Cc2cc([101O:1][101CH2:1]C(C)CN3CCC(c4nc(C)cc([100NH:0][100C:0](=O)N5CCCC(n6nc(-c7ccc(Oc8ccc(F)cc8F)cc7)c(C(N)=O)c6N)C5)n4)CC3)ccc2CC1C(=O)NC1CCCc2ccccc21)C(C)(C)C

> <Shape>
0.223

> <Color>
0.197

> <Negative vol penalty>
0.000

$$$$

  -OEChem-04052323223D

 81 89  0     1  0  0  0  0  0999 V2000
  -29.6200  -30.7213   14.0344 C   0  0  0  0  0  0  0  0  0  0  0  0
  -29.5173  -29.6727   14.9429 C   0  0  0  0  0  0  0  0  0  0  0  0
  -22.9377  -10.1283   19.9192 C   0  0  0  0  0  0  0  0  0  0  0  0
  -23.9345   -9.7776   22.0918 C   0  0  0  0  0  0  0  0  0  0  0  0
  -29.0852  -31.9698   14.3494 C   0  0  0  0  0  0  0  0  0  0  0  0
  -28.8807  -29.8723   16.1674 C   0  0  0  0  0  0  0  0  0  0  0  0
  -25.7167  -26.0994   17.3500 C   0  0  0  0  0  0  0  0  0  0  0  0
  -22.1825   -8.9664   20.0781 C   0  0  0  0  0  0  0  0  0  0  0  0
  -23.1793   -8.6157   22.2508 C   0  0  0  0  0  0  0  0  0  0  0  0
  -26.2827  -24.9249   17.8439 C   0  0  0  0  0  0  0  0  0  0  0  0
  -20.0055   -7.8038   23.0803 C   0  0  0  0  0  0  0  0  0  0  0  0
  -19.3751   -7.6053   24.3086 C   0  0  0  0  0  0  0  0  0  0  0  0
  -25.7207  -25.6054   20.0890 C   0  0  0  0  0  0  0  0  0  0  0  0
  -20.6153   -5.5545   24.6138 C   0  0  0  0  0  0  0  0  0  0  0  0
  -29.2536  -21.0540   19.4078 C   0  0  0  0  0  0  0  0  0  0  0  0
  -27.1153  -20.6136   20.2385 C   0  0  0  0  0  0  0  0  0  0  0  0
  -23.8137  -10.5339   20.9261 C   0  0  0  0  0  0  0  0  0  0  0  0
  -24.2333  -13.0412   21.1393 C   0  0  0  0  0  0  0  0  0  0  0  0
  -28.4333  -32.1822   15.5743 C   0  0  0  0  0  0  0  0  0  0  0  0
  -25.1572  -27.0423   18.2242 C   0  0  0  0  0  0  0  0  0  0  0  0
  -28.3380  -31.1252   16.4996 C   0  0  0  0  0  0  0  0  0  0  0  0
  -25.1459  -26.7898   19.6034 C   0  0  0  0  0  0  0  0  0  0  0  0
  -27.9254  -21.4235   19.4691 C   0  0  0  0  0  0  0  0  0  0  0  0
  -22.3033   -8.2101   21.2439 C   0  0  0  0  0  0  0  0  0  0  0  0
  -26.2874  -24.6791   19.2138 C   0  0  0  0  0  0  0  0  0  0  0  0
  -20.9408   -6.8775   22.6187 C   0  0  0  0  0  0  0  0  0  0  0  0
  -19.6800   -6.4807   25.0754 C   0  0  0  0  0  0  0  0  0  0  0  0
  -21.2457   -5.7530   23.3855 C   0  0  0  0  0  0  0  0  0  0  0  0
  -24.5945  -11.7338   20.7623 C   0  0  0  0  0  0  0  0  0  0  0  0
  -25.3078  -13.8137   20.7719 C   0  0  0  0  0  0  0  0  0  0  0  0
  -28.8717  -19.2693   20.7629 C   0  0  0  0  0  0  0  0  0  0  0  0
  -23.0337  -13.5148   21.7656 C   0  0  0  0  0  0  0  0  0  0  0  0
  -25.7741  -30.0761   18.9447 C   0  0  0  0  0  0  0  0  0  0  0  0
  -23.0630  -29.8026   20.7047 C   0  0  0  0  0  0  0  0  0  0  0  0
  -20.8789  -27.7726   22.3646 C   0  0  0  0  0  0  0  0  0  0  0  0
  -30.8146  -14.6799   20.5052 C   0  0  0  0  0  0  0  0  0  0  0  0
  -27.9127  -33.5621   15.8899 C   0  0  0  0  0  0  0  0  0  0  0  0
  -24.5267  -28.2919   17.6734 C   0  0  0  0  0  0  0  0  0  0  0  0
  -24.5399  -27.7608   20.5824 C   0  0  0  0  0  0  0  0  0  0  0  0
  -26.9242  -33.5889   17.0528 C   0  0  0  0  0  0  0  0  0  0  0  0
  -29.3455  -12.7019   17.9350 C   0  0  0  0  0  0  0  0  0  0  0  0
  -27.4542  -32.7666   18.2231 C   0  0  0  0  0  0  0  0  0  0  0  0
  -27.9518  -12.3766   18.4752 C   0  0  0  0  0  0  0  0  0  0  0  0
  -30.3914  -12.7222   19.0475 C   0  0  0  0  0  0  0  0  0  0  0  0
  -28.6742  -13.2775   20.7258 C   0  0  0  0  0  0  0  0  0  0  0  0
  -27.6330  -31.2958   17.8277 C   0  0  1  0  0  0  0  0  0  0  0  0
  -24.4450  -29.4208   18.6963 C   0  0  1  0  0  0  0  0  0  0  0  0
  -27.5758  -13.3006   19.6492 C   0  0  2  0  0  0  0  0  0  0  0  0
  -18.7790  -27.8423   23.7369 C   0  0  0  0  0  0  0  0  0  0  0  0
  -24.6631  -30.8155   23.0972 C   0  0  0  0  0  0  0  0  0  0  0  0
  -22.8356  -29.9738   24.5872 C   0  0  0  0  0  0  0  0  0  0  0  0
  -22.3541  -31.7582   22.9118 C   0  0  0  0  0  0  0  0  0  0  0  0
  -19.4077  -26.1077   20.4095 C   0  0  0  0  0  0  0  0  0  0  0  0
  -27.3969  -22.6279   18.7471 C   0  0  0  0  0  0  0  0  0  1  0  0
  -31.0890  -16.6202   22.0281 C   0  0  0  0  0  0  0  0  0  0  0  0
  -30.7420  -17.8937   21.2778 C   0  0  0  0  0  0  0  0  0  0  0  0
  -22.7452  -29.3888   22.1213 C   0  0  1  0  0  0  0  0  0  0  0  0
  -19.3632  -27.6907   22.3410 C   0  0  2  0  0  0  0  0  0  0  0  0
  -23.1627  -30.4665   23.1613 C   0  0  0  0  0  0  0  0  0  0  0  0
  -29.7627  -19.9789   20.0446 N   0  0  0  0  0  0  0  0  0  0  0  0
  -27.5566  -19.5245   20.9014 N   0  0  0  0  0  0  0  0  0  0  0  0
  -25.8039  -11.6753   20.1985 N   0  0  0  0  0  0  0  0  0  0  0  0
  -26.2120  -12.9556   20.2184 N   0  0  0  0  0  0  0  0  0  0  0  0
  -23.9412  -28.9710   19.9955 N   0  0  0  0  0  0  0  0  0  0  0  0
  -29.9752  -13.6183   20.1290 N   0  0  0  0  0  0  0  0  0  0  0  0
  -25.5580  -15.1366   20.8714 N   0  0  0  0  0  0  0  0  0  0  0  0
  -22.0303  -12.5866   22.0753 N   0  0  0  0  0  0  0  0  0  0  0  0
  -26.3548  -30.6173   17.8136 N   0  0  0  0  0  0  0  0  0  0  0  0
  -21.3244  -29.0582   22.1409 N   0  0  0  0  0  0  0  0  0  0  0  0
  -30.3418  -15.4850   21.5343 N   0  0  0  0  0  0  0  0  0  0  0  0
  -18.9240  -26.3784   21.7878 N   0  3  0  0  0  0  0  0  0  0  0  0
  -22.8500  -14.7278   22.0275 O   0  0  0  0  0  0  0  0  0  0  0  0
  -26.2377  -30.0911   20.0790 O   0  0  0  0  0  0  0  0  0  0  0  0
  -22.5453  -30.8222   20.2420 O   0  0  0  0  0  0  0  0  0  0  0  0
  -21.5958  -26.7947   22.5654 O   0  0  0  0  0  0  0  0  0  0  0  0
  -31.9021  -14.8976   19.9604 O   0  0  0  0  0  0  0  0  0  0  0  0
  -21.5664   -7.0764   21.3993 O   0  0  0  0  0  0  0  0  0  0  0  0
  -26.8398  -23.5338   19.6986 O   0  0  0  0  0  0  0  0  0  1  0  0
  -29.3556  -18.1648   21.4246 O   0  0  0  0  0  0  0  0  0  0  0  0
  -19.0757   -6.2911   26.2556 F   0  0  0  0  0  0  0  0  0  0  0  0
  -22.1443   -4.8603   22.9478 F   0  0  0  0  0  0  0  0  0  0  0  0
  1  2  1  0  0  0  0
  1  5  2  0  0  0  0
  2  6  2  0  0  0  0
  3  8  2  0  0  0  0
  3 17  1  0  0  0  0
  4  9  1  0  0  0  0
  4 17  2  0  0  0  0
  5 19  1  0  0  0  0
  6 21  1  0  0  0  0
  7 10  2  0  0  0  0
  7 20  1  0  0  0  0
  8 24  1  0  0  0  0
  9 24  2  0  0  0  0
 10 25  1  0  0  0  0
 11 12  2  0  0  0  0
 11 26  1  0  0  0  0
 12 27  1  0  0  0  0
 13 22  1  0  0  0  0
 13 25  2  0  0  0  0
 14 27  2  0  0  0  0
 14 28  1  0  0  0  0
 15 23  1  0  0  0  0
 15 60  2  0  0  0  0
 16 23  2  0  0  0  0
 16 61  1  0  0  0  0
 17 29  1  0  0  0  0
 18 29  1  0  0  0  0
 18 30  2  0  0  0  0
 18 32  1  0  0  0  0
 19 21  2  0  0  0  0
 19 37  1  0  0  0  0
 20 22  2  0  0  0  0
 20 38  1  0  0  0  0
 21 46  1  0  0  0  0
 22 39  1  0  0  0  0
 23 54  1  0  0  0  0
 24 77  1  0  0  0  0
 25 78  1  0  0  0  0
 26 28  2  0  0  0  0
 26 77  1  0  0  0  0
 27 80  1  0  0  0  0
 28 81  1  0  0  0  0
 29 62  2  0  0  0  0
 30 63  1  0  0  0  0
 30 66  1  0  0  0  0
 31 60  1  0  0  0  0
 31 61  2  0  0  0  0
 31 79  1  0  0  0  0
 32 67  1  0  0  0  0
 32 72  2  0  0  0  0
 33 47  1  0  0  0  0
 33 68  1  0  0  0  0
 33 73  2  0  0  0  0
 34 57  1  0  0  0  0
 34 64  1  0  0  0  0
 34 74  2  0  0  0  0
 35 58  1  0  0  0  0
 35 69  1  0  0  0  0
 35 75  2  0  0  0  0
 36 65  1  0  0  0  0
 36 70  1  0  0  0  0
 36 76  2  0  0  0  0
 37 40  1  0  0  0  0
 38 47  1  0  0  0  0
 39 64  1  0  0  0  0
 40 42  1  0  0  0  0
 41 43  1  0  0  0  0
 41 44  1  0  0  0  0
 42 46  1  0  0  0  0
 43 48  1  0  0  0  0
 44 65  1  0  0  0  0
 45 48  1  0  0  0  0
 45 65  1  0  0  0  0
 46 68  1  0  0  0  0
 47 64  1  0  0  0  0
 48 63  1  0  0  0  0
 49 58  1  0  0  0  0
 50 59  1  0  0  0  0
 51 59  1  0  0  0  0
 52 59  1  0  0  0  0
 53 71  1  0  0  0  0
 54 78  1  0  0  0  0
 55 56  1  0  0  0  0
 55 70  1  0  0  0  0
 56 79  1  0  0  0  0
 57 59  1  0  0  0  0
 57 69  1  0  0  0  0
 58 71  1  0  0  0  0
 62 63  1  0  0  0  0
M  CHG  1  71   1
M  ISO  4  36 100  54 101  70 100  78 101
M  END
> <Batch ID>
0189

> <Smiles>
CNC(C)C(=O)NC(C(=O)N1Cc2cc([101O:1][101CH2:1]c3cnc(OCC[100NH:0][100C:0](=O)N4CCCC(n5nc(-c6ccc(Oc7ccc(F)cc7F)cc6)c(C(N)=O)c5N)C4)nc3)ccc2CC1C(=O)NC1CCCc2ccccc21)C(C)(C)C

> <Shape>
0.346

> <Color>
0.210

> <Negative vol penalty>
0.000

$$$$

  -OEChem-04052323223D

 83 92  0     1  0  0  0  0  0999 V2000
  -20.9098  -23.2458   18.7268 C   0  0  0  0  0  0  0  0  0  0  0  0
  -22.2667  -22.9388   18.7193 C   0  0  0  0  0  0  0  0  0  0  0  0
  -21.9782  -28.0515   20.8341 C   0  0  0  0  0  0  0  0  0  0  0  0
  -23.0043  -26.7501   22.5921 C   0  0  0  0  0  0  0  0  0  0  0  0
  -20.0357  -22.5162   19.5316 C   0  0  0  0  0  0  0  0  0  0  0  0
  -22.7505  -21.9028   19.5175 C   0  0  0  0  0  0  0  0  0  0  0  0
  -27.3445  -18.0748   18.1960 C   0  0  0  0  0  0  0  0  0  0  0  0
  -20.7467  -27.9559   21.4820 C   0  0  0  0  0  0  0  0  0  0  0  0
  -21.7727  -26.6545   23.2401 C   0  0  0  0  0  0  0  0  0  0  0  0
  -28.6893  -18.0612   18.5635 C   0  0  0  0  0  0  0  0  0  0  0  0
  -19.1870  -29.4266   24.0968 C   0  0  0  0  0  0  0  0  0  0  0  0
  -18.4197  -30.5864   24.2051 C   0  0  0  0  0  0  0  0  0  0  0  0
  -28.1766  -16.5357   20.3605 C   0  0  0  0  0  0  0  0  0  0  0  0
  -16.6380  -29.5233   22.9672 C   0  0  0  0  0  0  0  0  0  0  0  0
  -23.1070  -27.4486   21.3891 C   0  0  0  0  0  0  0  0  0  0  0  0
  -25.3551  -28.5467   20.8912 C   0  0  0  0  0  0  0  0  0  0  0  0
  -20.5075  -21.4644   20.3327 C   0  0  0  0  0  0  0  0  0  0  0  0
  -26.4023  -17.3262   18.9159 C   0  0  0  0  0  0  0  0  0  0  0  0
  -21.8820  -21.1594   20.3347 C   0  0  0  0  0  0  0  0  0  0  0  0
  -26.8208  -16.5395   19.9985 C   0  0  0  0  0  0  0  0  0  0  0  0
  -20.6440  -27.2574   22.6850 C   0  0  0  0  0  0  0  0  0  0  0  0
  -29.1051  -17.2939   19.6477 C   0  0  0  0  0  0  0  0  0  0  0  0
  -18.6798  -28.3151   23.4236 C   0  0  0  0  0  0  0  0  0  0  0  0
  -17.1452  -30.6347   23.6403 C   0  0  0  0  0  0  0  0  0  0  0  0
  -17.4053  -28.3634   22.8589 C   0  0  0  0  0  0  0  0  0  0  0  0
  -24.3793  -27.5465   20.7200 C   0  0  0  0  0  0  0  0  0  0  0  0
  -26.3681  -28.1881   20.0357 C   0  0  0  0  0  0  0  0  0  0  0  0
  -29.9528  -20.8314   22.0652 C   0  0  0  0  0  0  0  0  0  0  0  0
  -29.9726  -20.7799   24.1519 C   0  0  0  0  0  0  0  0  0  0  0  0
  -25.3466  -29.6969   21.7470 C   0  0  0  0  0  0  0  0  0  0  0  0
  -23.8164  -18.0248   20.6272 C   0  0  0  0  0  0  0  0  0  0  0  0
  -23.4970  -14.7987   20.7404 C   0  0  0  0  0  0  0  0  0  0  0  0
  -24.9818  -11.7319   20.5487 C   0  0  0  0  0  0  0  0  0  0  0  0
  -28.8916  -23.2856   18.0388 C   0  0  0  0  0  0  0  0  0  0  0  0
  -19.5317  -20.7351   21.2218 C   0  0  0  0  0  0  0  0  0  0  0  0
  -24.9597  -17.3306   18.4902 C   0  0  0  0  0  0  0  0  0  0  0  0
  -25.8522  -15.7021   20.7915 C   0  0  0  0  0  0  0  0  0  0  0  0
  -20.0672  -19.4085   21.7545 C   0  0  0  0  0  0  0  0  0  0  0  0
  -26.7327  -25.3474   16.0336 C   0  0  0  0  0  0  0  0  0  0  0  0
  -21.4879  -19.5799   22.2830 C   0  0  0  0  0  0  0  0  0  0  0  0
  -25.9570  -26.1804   17.0487 C   0  0  0  0  0  0  0  0  0  0  0  0
  -27.0189  -23.9544   16.5782 C   0  0  0  0  0  0  0  0  0  0  0  0
  -28.4018  -22.3078   20.4187 C   0  0  0  0  0  0  0  0  0  0  0  0
  -30.3988  -22.1152   19.7345 C   0  0  0  0  0  0  0  0  0  0  0  0
  -27.0376  -24.8139   18.9051 C   0  0  0  0  0  0  0  0  0  0  0  0
  -22.4411  -20.0266   21.1679 C   0  0  1  0  0  0  0  0  0  0  0  0
  -29.4853  -21.2174   20.6005 C   0  0  0  0  0  0  0  0  0  0  0  0
  -24.0046  -16.9336   19.6116 C   0  0  1  0  0  0  0  0  0  0  0  0
  -26.7055  -26.2278   18.3885 C   0  0  2  0  0  0  0  0  0  0  0  0
  -29.7008  -20.9653   25.5746 C   0  0  0  0  0  0  0  0  0  0  0  0
  -24.4696   -9.2812   20.7197 C   0  0  0  0  0  0  0  0  0  0  0  0
  -23.3371  -15.0465   23.7774 C   0  0  0  0  0  0  0  0  0  0  0  0
  -23.7833  -12.5878   23.9317 C   0  0  0  0  0  0  0  0  0  0  0  0
  -21.7305  -13.4111   22.7781 C   0  0  0  0  0  0  0  0  0  0  0  0
  -25.8545  -11.2369   17.7644 C   0  0  0  0  0  0  0  0  0  0  0  0
  -32.0168  -17.7766   21.7265 C   0  0  0  0  0  0  0  0  0  0  0  0
  -31.9804  -19.2827   21.4580 C   0  0  0  0  0  0  0  0  0  0  0  0
  -30.7080  -17.0713   21.3904 C   0  0  0  0  0  0  0  0  0  1  0  0
  -23.9812  -13.7083   21.6654 C   0  0  1  0  0  0  0  0  0  0  0  0
  -24.6023  -10.4749   19.7868 C   0  0  2  0  0  0  0  0  0  0  0  0
  -23.2262  -13.7056   23.0246 C   0  0  0  0  0  0  0  0  0  0  0  0
  -24.7399  -26.6220   19.8259 N   0  0  0  0  0  0  0  0  0  0  0  0
  -29.2988  -21.3167   23.1613 N   0  0  0  0  0  0  0  0  0  0  0  0
  -30.9800  -20.0118   23.6569 N   0  0  0  0  0  0  0  0  0  0  0  0
  -25.9535  -27.0399   19.4275 N   0  0  0  0  0  0  0  0  0  0  0  0
  -30.9889  -20.0281   22.3153 N   0  0  0  0  0  0  0  0  0  0  0  0
  -24.4515  -15.7446   20.3402 N   0  0  0  0  0  0  0  0  0  0  0  0
  -27.6982  -23.9981   17.8766 N   0  0  0  0  0  0  0  0  0  0  0  0
  -29.1782  -22.7704   19.2810 N   0  0  0  0  0  0  0  0  0  0  0  0
  -27.5641  -28.7462   19.7519 N   0  0  0  0  0  0  0  0  0  0  0  0
  -24.2271  -29.9156   22.5613 N   0  0  0  0  0  0  0  0  0  0  0  0
  -22.7942  -18.9043   20.3252 N   0  0  0  0  0  0  0  0  0  0  0  0
  -23.8707  -12.4602   20.9181 N   0  0  0  0  0  0  0  0  0  0  0  0
  -25.6370  -10.1580   18.7623 N   0  3  0  0  0  0  0  0  0  0  0  0
  -26.2965  -30.5157   21.7764 O   0  0  0  0  0  0  0  0  0  0  0  0
  -24.5437  -18.0650   21.6126 O   0  0  0  0  0  0  0  0  0  0  0  0
  -22.3172  -14.8067   20.3804 O   0  0  0  0  0  0  0  0  0  0  0  0
  -26.1470  -12.0352   20.7950 O   0  0  0  0  0  0  0  0  0  0  0  0
  -29.6677  -23.0879   17.0945 O   0  0  0  0  0  0  0  0  0  0  0  0
  -19.4425  -27.1641   23.3177 O   0  0  0  0  0  0  0  0  0  0  0  0
  -30.4170  -17.2793   20.0090 O   0  0  0  0  0  0  0  0  0  1  0  0
  -16.4079  -31.7480   23.7457 F   0  0  0  0  0  0  0  0  0  0  0  0
  -16.9122  -27.2984   22.2120 F   0  0  0  0  0  0  0  0  0  0  0  0
  1  2  1  0  0  0  0
  1  5  2  0  0  0  0
  2  6  2  0  0  0  0
  3  8  2  0  0  0  0
  3 15  1  0  0  0  0
  4  9  1  0  0  0  0
  4 15  2  0  0  0  0
  5 17  1  0  0  0  0
  6 19  1  0  0  0  0
  7 10  2  0  0  0  0
  7 18  1  0  0  0  0
  8 21  1  0  0  0  0
  9 21  2  0  0  0  0
 10 22  1  0  0  0  0
 11 12  2  0  0  0  0
 11 23  1  0  0  0  0
 12 24  1  0  0  0  0
 13 20  1  0  0  0  0
 13 22  2  0  0  0  0
 14 24  2  0  0  0  0
 14 25  1  0  0  0  0
 15 26  1  0  0  0  0
 16 26  1  0  0  0  0
 16 27  2  0  0  0  0
 16 30  1  0  0  0  0
 17 19  2  0  0  0  0
 17 35  1  0  0  0  0
 18 20  2  0  0  0  0
 18 36  1  0  0  0  0
 19 46  1  0  0  0  0
 20 37  1  0  0  0  0
 21 80  1  0  0  0  0
 22 81  1  0  0  0  0
 23 25  2  0  0  0  0
 23 80  1  0  0  0  0
 24 82  1  0  0  0  0
 25 83  1  0  0  0  0
 26 62  2  0  0  0  0
 27 65  1  0  0  0  0
 27 70  1  0  0  0  0
 28 47  1  0  0  0  0
 28 63  2  0  0  0  0
 28 66  1  0  0  0  0
 29 50  1  0  0  0  0
 29 63  1  0  0  0  0
 29 64  2  0  0  0  0
 30 71  1  0  0  0  0
 30 75  2  0  0  0  0
 31 48  1  0  0  0  0
 31 72  1  0  0  0  0
 31 76  2  0  0  0  0
 32 59  1  0  0  0  0
 32 67  1  0  0  0  0
 32 77  2  0  0  0  0
 33 60  1  0  0  0  0
 33 73  1  0  0  0  0
 33 78  2  0  0  0  0
 34 68  1  0  0  0  0
 34 69  1  0  0  0  0
 34 79  2  0  0  0  0
 35 38  1  0  0  0  0
 36 48  1  0  0  0  0
 37 67  1  0  0  0  0
 38 40  1  0  0  0  0
 39 41  1  0  0  0  0
 39 42  1  0  0  0  0
 40 46  1  0  0  0  0
 41 49  1  0  0  0  0
 42 68  1  0  0  0  0
 43 47  1  0  0  0  0
 43 69  1  0  0  0  0
 44 47  1  0  0  0  0
 44 69  1  0  0  0  0
 45 49  1  0  0  0  0
 45 68  1  0  0  0  0
 46 72  1  0  0  0  0
 48 67  1  0  0  0  0
 49 65  1  0  0  0  0
 51 60  1  0  0  0  0
 52 61  1  0  0  0  0
 53 61  1  0  0  0  0
 54 61  1  0  0  0  0
 55 74  1  0  0  0  0
 56 57  1  0  0  0  0
 56 58  1  0  0  0  0
 57 66  1  0  0  0  0
 58 81  1  0  0  0  0
 59 61  1  0  0  0  0
 59 73  1  0  0  0  0
 60 74  1  0  0  0  0
 62 65  1  0  0  0  0
 64 66  1  0  0  0  0
M  CHG  1  74   1
M  ISO  4  34 100  58 101  69 100  81 101
M  END
> <Batch ID>
0189

> <Smiles>
CNC(C)C(=O)NC(C(=O)N1Cc2cc([101O:1][101CH2:1]CCn3nc(C)nc3C3C[100N:0]([100C:0](=O)N4CCCC(n5nc(-c6ccc(Oc7ccc(F)cc7F)cc6)c(C(N)=O)c5N)C4)C3)ccc2CC1C(=O)NC1CCCc2ccccc21)C(C)(C)C

> <Shape>
0.242

> <Color>
0.076

> <Negative vol penalty>
0.000

$$$$

  -OEChem-04052323223D

 85 94  0     1  0  0  0  0  0999 V2000
  -39.4158  -26.5423   27.5063 C   0  0  0  0  0  0  0  0  0  0  0  0
  -38.4958  -25.5305   27.2511 C   0  0  0  0  0  0  0  0  0  0  0  0
  -23.2863   -9.7935   19.9082 C   0  0  0  0  0  0  0  0  0  0  0  0
  -23.7147   -9.9357   22.2817 C   0  0  0  0  0  0  0  0  0  0  0  0
  -39.5202  -27.6245   26.6334 C   0  0  0  0  0  0  0  0  0  0  0  0
  -37.6788  -25.6008   26.1233 C   0  0  0  0  0  0  0  0  0  0  0  0
  -35.7166  -20.9164   22.7009 C   0  0  0  0  0  0  0  0  0  0  0  0
  -22.5529   -8.6244   20.1106 C   0  0  0  0  0  0  0  0  0  0  0  0
  -22.9812   -8.7667   22.4841 C   0  0  0  0  0  0  0  0  0  0  0  0
  -34.5147  -20.2102   22.6782 C   0  0  0  0  0  0  0  0  0  0  0  0
  -19.7283   -7.8700   22.6713 C   0  0  0  0  0  0  0  0  0  0  0  0
  -18.8156   -7.8538   23.7260 C   0  0  0  0  0  0  0  0  0  0  0  0
  -33.7303  -21.6151   20.8809 C   0  0  0  0  0  0  0  0  0  0  0  0
  -30.7803  -18.7490   19.0913 C   0  0  0  0  0  0  0  0  0  0  0  0
  -20.0038   -6.0029   24.7258 C   0  0  0  0  0  0  0  0  0  0  0  0
  -32.0439  -16.8859   19.1397 C   0  0  0  0  0  0  0  0  0  0  0  0
  -23.8673  -10.4491   20.9937 C   0  0  0  0  0  0  0  0  0  0  0  0
  -24.1395  -12.9777   20.7939 C   0  0  0  0  0  0  0  0  0  0  0  0
  -38.7108  -27.7033   25.4892 C   0  0  0  0  0  0  0  0  0  0  0  0
  -35.9304  -21.9861   21.8197 C   0  0  0  0  0  0  0  0  0  0  0  0
  -37.7715  -26.6857   25.2350 C   0  0  0  0  0  0  0  0  0  0  0  0
  -34.9367  -22.3316   20.8928 C   0  0  0  0  0  0  0  0  0  0  0  0
  -31.3652  -17.7776   19.9407 C   0  0  0  0  0  0  0  0  0  0  0  0
  -22.4003   -8.1110   21.3986 C   0  0  0  0  0  0  0  0  0  0  0  0
  -33.5202  -20.5613   21.7701 C   0  0  0  0  0  0  0  0  0  0  0  0
  -20.7787   -6.9525   22.6439 C   0  0  0  0  0  0  0  0  0  0  0  0
  -18.9533   -6.9203   24.7532 C   0  0  0  0  0  0  0  0  0  0  0  0
  -20.9165   -6.0191   23.6711 C   0  0  0  0  0  0  0  0  0  0  0  0
  -24.6255  -11.6565   20.7852 C   0  0  0  0  0  0  0  0  0  0  0  0
  -31.1192  -18.4211   17.7970 C   0  0  0  0  0  0  0  0  0  0  0  0
  -25.2467  -13.7524   20.5485 C   0  0  0  0  0  0  0  0  0  0  0  0
  -22.8064  -13.4614   21.0051 C   0  0  0  0  0  0  0  0  0  0  0  0
  -36.4725  -25.0995   22.1610 C   0  0  0  0  0  0  0  0  0  0  0  0
  -36.8880  -24.9831   18.9460 C   0  0  0  0  0  0  0  0  0  0  0  0
  -36.2414  -23.3922   15.9968 C   0  0  0  0  0  0  0  0  0  0  0  0
  -29.7282  -14.7542   17.5563 C   0  0  0  0  0  0  0  0  0  0  0  0
  -38.8267  -28.9160   24.6001 C   0  0  0  0  0  0  0  0  0  0  0  0
  -37.2428  -22.7207   21.8389 C   0  0  0  0  0  0  0  0  0  0  0  0
  -35.1247  -23.4589   19.9119 C   0  0  0  0  0  0  0  0  0  0  0  0
  -38.1859  -28.7284   23.2274 C   0  0  0  0  0  0  0  0  0  0  0  0
  -30.1480  -12.5943   20.4886 C   0  0  0  0  0  0  0  0  0  0  0  0
  -36.8013  -28.1033   23.3656 C   0  0  0  0  0  0  0  0  0  0  0  0
  -28.6998  -12.2202   20.7861 C   0  0  0  0  0  0  0  0  0  0  0  0
  -31.9496  -14.6379   15.0401 C   0  0  0  0  0  0  0  0  0  0  0  0
  -30.4105  -12.7580   18.9911 C   0  0  0  0  0  0  0  0  0  0  0  0
  -31.6569  -13.6530   16.1762 C   0  0  0  0  0  0  0  0  0  0  0  0
  -28.0230  -13.3233   18.6254 C   0  0  0  0  0  0  0  0  0  0  0  0
  -36.8850  -26.7138   24.0088 C   0  0  1  0  0  0  0  0  0  0  0  0
  -37.1517  -24.1224   21.2436 C   0  0  1  0  0  0  0  0  0  0  0  0
  -27.7396  -13.2239   20.1309 C   0  0  1  0  0  0  0  0  0  0  0  0
  -31.4313  -15.7677   15.9430 C   0  0  2  0  0  0  0  0  0  0  0  0
  -29.2604  -19.2057   16.2731 C   0  0  0  0  0  0  0  0  0  0  0  0
  -36.6859  -23.5544   13.5324 C   0  0  0  0  0  0  0  0  0  0  0  0
  -34.8287  -27.2236   18.7244 C   0  0  0  0  0  0  0  0  0  0  0  0
  -34.6138  -26.6907   16.2876 C   0  0  0  0  0  0  0  0  0  0  0  0
  -36.8004  -27.4651   17.2051 C   0  0  0  0  0  0  0  0  0  0  0  0
  -37.6430  -20.7858   15.9604 C   0  0  0  0  0  0  0  0  0  0  0  0
  -31.2668  -17.7292   21.4119 C   0  0  0  0  0  0  0  0  0  0  0  0
  -32.4587  -16.5987   16.6861 C   0  0  0  0  0  0  0  0  0  0  0  0
  -32.3884  -18.5005   22.1280 C   0  0  0  0  0  0  0  0  0  1  0  0
  -30.7751  -19.0942   16.5275 C   0  0  1  0  0  0  0  0  0  0  0  0
  -35.9855  -25.1335   17.7452 C   0  0  1  0  0  0  0  0  0  0  0  0
  -37.1529  -22.9727   14.8576 C   0  0  2  0  0  0  0  0  0  0  0  0
  -35.5525  -26.6082   17.5103 C   0  0  0  0  0  0  0  0  0  0  0  0
  -25.9391  -11.5918   20.5525 N   0  0  0  0  0  0  0  0  0  0  0  0
  -31.8871  -17.2868   17.8386 N   0  0  0  0  0  0  0  0  0  0  0  0
  -26.2880  -12.8821   20.4126 N   0  0  0  0  0  0  0  0  0  0  0  0
  -36.4227  -24.1510   19.9740 N   0  0  0  0  0  0  0  0  0  0  0  0
  -29.4292  -13.6461   18.3565 N   0  0  0  0  0  0  0  0  0  0  0  0
  -30.8741  -14.7136   16.7936 N   0  0  0  0  0  0  0  0  0  0  0  0
  -25.4215  -15.0864   20.4377 N   0  0  0  0  0  0  0  0  0  0  0  0
  -21.7875  -12.5292   21.2441 N   0  0  0  0  0  0  0  0  0  0  0  0
  -37.3288  -25.7344   23.0403 N   0  0  0  0  0  0  0  0  0  0  0  0
  -36.6973  -24.5335   16.6219 N   0  0  0  0  0  0  0  0  0  0  0  0
  -31.3402  -20.4875   16.4021 N   0  3  0  0  0  0  0  0  0  0  0  0
  -37.1798  -21.4877   14.7357 N   0  3  0  0  0  0  0  0  0  0  0  0
  -22.5242  -14.6830   20.9662 O   0  0  0  0  0  0  0  0  0  0  0  0
  -35.2614  -25.2663   22.0763 O   0  0  0  0  0  0  0  0  0  0  0  0
  -37.9694  -25.5763   18.9678 O   0  0  0  0  0  0  0  0  0  0  0  0
  -35.2245  -22.7717   16.2993 O   0  0  0  0  0  0  0  0  0  0  0  0
  -28.9807  -15.7395   17.4984 O   0  0  0  0  0  0  0  0  0  0  0  0
  -21.6845   -6.9704   21.5965 O   0  0  0  0  0  0  0  0  0  0  0  0
  -32.3377  -19.8692   21.7460 O   0  0  0  0  0  0  0  0  0  1  0  0
  -18.0777   -6.9059   25.7667 F   0  0  0  0  0  0  0  0  0  0  0  0
  -21.9242   -5.1360   23.6508 F   0  0  0  0  0  0  0  0  0  0  0  0
  1  2  1  0  0  0  0
  1  5  2  0  0  0  0
  2  6  2  0  0  0  0
  3  8  2  0  0  0  0
  3 17  1  0  0  0  0
  4  9  1  0  0  0  0
  4 17  2  0  0  0  0
  5 19  1  0  0  0  0
  6 21  1  0  0  0  0
  7 10  2  0  0  0  0
  7 20  1  0  0  0  0
  8 24  1  0  0  0  0
  9 24  2  0  0  0  0
 10 25  1  0  0  0  0
 11 12  2  0  0  0  0
 11 26  1  0  0  0  0
 12 27  1  0  0  0  0
 13 22  1  0  0  0  0
 13 25  2  0  0  0  0
 14 23  1  0  0  0  0
 14 30  2  0  0  0  0
 15 27  2  0  0  0  0
 15 28  1  0  0  0  0
 16 23  2  0  0  0  0
 16 66  1  0  0  0  0
 17 29  1  0  0  0  0
 18 29  1  0  0  0  0
 18 31  2  0  0  0  0
 18 32  1  0  0  0  0
 19 21  2  0  0  0  0
 19 37  1  0  0  0  0
 20 22  2  0  0  0  0
 20 38  1  0  0  0  0
 21 48  1  0  0  0  0
 22 39  1  0  0  0  0
 23 58  1  0  0  0  0
 24 82  1  0  0  0  0
 25 83  1  0  0  0  0
 26 28  2  0  0  0  0
 26 82  1  0  0  0  0
 27 84  1  0  0  0  0
 28 85  1  0  0  0  0
 29 65  2  0  0  0  0
 30 61  1  0  0  0  0
 30 66  1  0  0  0  0
 31 67  1  0  0  0  0
 31 71  1  0  0  0  0
 32 72  1  0  0  0  0
 32 77  2  0  0  0  0
 33 49  1  0  0  0  0
 33 73  1  0  0  0  0
 33 78  2  0  0  0  0
 34 62  1  0  0  0  0
 34 68  1  0  0  0  0
 34 79  2  0  0  0  0
 35 63  1  0  0  0  0
 35 74  1  0  0  0  0
 35 80  2  0  0  0  0
 36 69  1  0  0  0  0
 36 70  1  0  0  0  0
 36 81  2  0  0  0  0
 37 40  1  0  0  0  0
 38 49  1  0  0  0  0
 39 68  1  0  0  0  0
 40 42  1  0  0  0  0
 41 43  1  0  0  0  0
 41 45  1  0  0  0  0
 42 48  1  0  0  0  0
 43 50  1  0  0  0  0
 44 46  1  0  0  0  0
 44 51  1  0  0  0  0
 45 69  1  0  0  0  0
 46 70  1  0  0  0  0
 47 50  1  0  0  0  0
 47 69  1  0  0  0  0
 48 73  1  0  0  0  0
 49 68  1  0  0  0  0
 50 67  1  0  0  0  0
 51 59  1  0  0  0  0
 51 70  1  0  0  0  0
 52 61  1  0  0  0  0
 53 63  1  0  0  0  0
 54 64  1  0  0  0  0
 55 64  1  0  0  0  0
 56 64  1  0  0  0  0
 57 76  1  0  0  0  0
 58 60  1  0  0  0  0
 59 66  1  0  0  0  0
 60 83  1  0  0  0  0
 61 75  1  0  0  0  0
 62 64  1  0  0  0  0
 62 74  1  0  0  0  0
 63 76  1  0  0  0  0
 65 67  1  0  0  0  0
M  CHG  2  75   1  76   1
M  ISO  4  36 100  60 101  70 100  83 101
M  END
> <Batch ID>
0189

> <Smiles>
CNC(C)C(=O)NC(C(=O)N1Cc2cc([101O:1][101CH2:1]Cc3cc(C(C)N)n(CC4CC[100N:0]4[100C:0](=O)N4CCCC(n5nc(-c6ccc(Oc7ccc(F)cc7F)cc6)c(C(N)=O)c5N)C4)c3)ccc2CC1C(=O)NC1CCCc2ccccc21)C(C)(C)C

> <Shape>
0.145

> <Color>
0.173

> <Negative vol penalty>
0.000

$$$$

  -OEChem-04052323223D

 86 95  0     1  0  0  0  0  0999 V2000
  -18.9464  -32.4940   25.5645 C   0  0  0  0  0  0  0  0  0  0  0  0
  -20.2976  -32.5948   25.2490 C   0  0  0  0  0  0  0  0  0  0  0  0
  -23.7809  -17.6015   21.1014 C   0  0  0  0  0  0  0  0  0  0  0  0
  -23.0323  -16.6281   19.0207 C   0  0  0  0  0  0  0  0  0  0  0  0
  -18.2766  -31.2853   25.3788 C   0  0  0  0  0  0  0  0  0  0  0  0
  -20.9801  -31.4865   24.7487 C   0  0  0  0  0  0  0  0  0  0  0  0
  -26.2903  -29.7581   20.2619 C   0  0  0  0  0  0  0  0  0  0  0  0
  -23.1999  -18.8175   20.7416 C   0  0  0  0  0  0  0  0  0  0  0  0
  -22.4512  -17.8441   18.6609 C   0  0  0  0  0  0  0  0  0  0  0  0
  -27.4717  -29.0187   20.2254 C   0  0  0  0  0  0  0  0  0  0  0  0
  -20.4593  -20.5902   17.3537 C   0  0  0  0  0  0  0  0  0  0  0  0
  -19.1727  -20.5610   16.8156 C   0  0  0  0  0  0  0  0  0  0  0  0
  -26.1928  -27.0042   19.8714 C   0  0  0  0  0  0  0  0  0  0  0  0
  -18.3475  -19.5408   18.8442 C   0  0  0  0  0  0  0  0  0  0  0  0
  -23.6971  -16.5068   20.2409 C   0  0  0  0  0  0  0  0  0  0  0  0
  -23.6931  -14.1964   21.3223 C   0  0  0  0  0  0  0  0  0  0  0  0
  -18.9490  -30.1644   24.8669 C   0  0  0  0  0  0  0  0  0  0  0  0
  -25.0486  -29.1235   20.1142 C   0  0  0  0  0  0  0  0  0  0  0  0
  -20.3190  -30.2613   24.5572 C   0  0  0  0  0  0  0  0  0  0  0  0
  -24.9973  -27.7381   19.9039 C   0  0  0  0  0  0  0  0  0  0  0  0
  -22.5350  -18.9388   19.5214 C   0  0  0  0  0  0  0  0  0  0  0  0
  -27.4230  -27.6411   20.0330 C   0  0  0  0  0  0  0  0  0  0  0  0
  -20.6900  -20.0946   18.6370 C   0  0  0  0  0  0  0  0  0  0  0  0
  -18.1168  -20.0363   17.5609 C   0  0  0  0  0  0  0  0  0  0  0  0
  -19.6341  -19.5700   19.3823 C   0  0  0  0  0  0  0  0  0  0  0  0
  -24.2976  -15.2506   20.6118 C   0  0  0  0  0  0  0  0  0  0  0  0
  -24.6735  -13.2391   21.4164 C   0  0  0  0  0  0  0  0  0  0  0  0
  -22.3641  -14.0916   21.8500 C   0  0  0  0  0  0  0  0  0  0  0  0
  -22.4722  -28.7818   21.9443 C   0  0  0  0  0  0  0  0  0  0  0  0
  -21.2388  -27.4082   19.2770 C   0  0  0  0  0  0  0  0  0  0  0  0
  -21.8035  -25.7953   16.3230 C   0  0  0  0  0  0  0  0  0  0  0  0
  -30.6468  -13.5289   21.2475 C   0  0  0  0  0  0  0  0  0  0  0  0
  -18.1942  -28.8660   24.7280 C   0  0  0  0  0  0  0  0  0  0  0  0
  -23.7848  -29.9390   20.1293 C   0  0  0  0  0  0  0  0  0  0  0  0
  -23.6908  -27.0118   19.7197 C   0  0  0  0  0  0  0  0  0  0  0  0
  -18.8994  -27.8434   23.8407 C   0  0  0  0  0  0  0  0  0  0  0  0
  -28.5439  -11.5902   19.1747 C   0  0  0  0  0  0  0  0  0  0  0  0
  -20.3770  -27.7474   24.2074 C   0  0  0  0  0  0  0  0  0  0  0  0
  -27.1649  -12.2230   19.3400 C   0  0  0  0  0  0  0  0  0  0  0  0
  -32.0958  -16.2706   23.2678 C   0  0  0  0  0  0  0  0  0  0  0  0
  -30.9934  -21.4112   19.5530 C   0  0  0  0  0  0  0  0  0  0  0  0
  -29.6312  -12.6564   19.1723 C   0  0  0  0  0  0  0  0  0  0  0  0
  -32.0579  -14.8171   22.8221 C   0  0  0  0  0  0  0  0  0  0  0  0
  -31.0490  -22.8793   19.1285 C   0  0  0  0  0  0  0  0  0  0  0  0
  -30.3805  -16.0526   21.6306 C   0  0  0  0  0  0  0  0  0  0  0  0
  -28.2614  -14.1386   20.6132 C   0  0  0  0  0  0  0  0  0  0  0  0
  -29.4357  -22.7367   20.8140 C   0  0  0  0  0  0  0  0  0  0  0  0
  -21.0880  -29.0883   23.9889 C   0  0  1  0  0  0  0  0  0  0  0  0
  -22.5482  -29.1180   20.4818 C   0  0  1  0  0  0  0  0  0  0  0  0
  -31.4924  -17.0051   22.0700 C   0  0  1  0  0  0  0  0  0  0  0  0
  -27.1197  -13.1012   20.6000 C   0  0  1  0  0  0  0  0  0  0  0  0
  -29.7313  -21.3097   20.3975 C   0  0  2  0  0  0  0  0  0  0  0  0
  -20.5965  -24.7644   14.3793 C   0  0  0  0  0  0  0  0  0  0  0  0
  -20.5377  -24.9887   20.9988 C   0  0  0  0  0  0  0  0  0  0  0  0
  -20.2300  -23.6678   18.8943 C   0  0  0  0  0  0  0  0  0  0  0  0
  -18.7745  -25.6418   19.3499 C   0  0  0  0  0  0  0  0  0  0  0  0
  -23.0511  -27.6713   14.4039 C   0  0  0  0  0  0  0  0  0  0  0  0
  -28.7260  -20.4460   22.4712 C   0  0  0  0  0  0  0  0  0  0  0  0
  -30.9935  -18.3980   22.4104 C   0  0  0  0  0  0  0  0  0  0  0  0
  -29.8412  -24.8902   19.7653 C   0  0  0  0  0  0  0  0  0  0  0  0
  -30.3669  -19.0714   21.1990 C   0  0  0  0  0  0  0  0  0  0  0  0
  -28.4528  -25.5105   19.7971 C   0  0  0  0  0  0  0  0  0  1  0  0
  -21.1954  -26.0062   18.7188 C   0  0  1  0  0  0  0  0  0  0  0  0
  -21.2487  -26.0236   14.9285 C   0  0  2  0  0  0  0  0  0  0  0  0
  -20.2091  -25.0893   19.4958 C   0  0  0  0  0  0  0  0  0  0  0  0
  -25.5641  -14.9882   20.2783 N   0  0  0  0  0  0  0  0  0  0  0  0
  -25.7634  -13.7582   20.7815 N   0  0  0  0  0  0  0  0  0  0  0  0
  -22.4823  -27.8522   19.7486 N   0  0  0  0  0  0  0  0  0  0  0  0
  -29.5628  -13.5056   20.3630 N   0  0  0  0  0  0  0  0  0  0  0  0
  -30.9115  -14.7190   21.9240 N   0  0  0  0  0  0  0  0  0  0  0  0
  -29.7749  -23.4487   19.5795 N   0  0  1  0  0  0  0  0  0  0  0  0
  -24.7012  -12.0125   21.9795 N   0  0  0  0  0  0  0  0  0  0  0  0
  -21.4847  -15.1671   21.6641 N   0  0  0  0  0  0  0  0  0  0  0  0
  -21.3584  -29.2937   22.5821 N   0  0  0  0  0  0  0  0  0  0  0  0
  -20.8924  -26.1417   17.2982 N   0  0  0  0  0  0  0  0  0  0  0  0
  -22.3386  -26.4325   13.9980 N   0  3  0  0  0  0  0  0  0  0  0  0
  -29.9374  -20.4409   21.5706 N   0  3  1  0  0  0  0  0  0  0  0  0
  -21.9732  -13.0812   22.4823 O   0  0  0  0  0  0  0  0  0  0  0  0
  -23.3578  -28.1066   22.4558 O   0  0  0  0  0  0  0  0  0  0  0  0
  -20.2089  -28.0871   19.2874 O   0  0  0  0  0  0  0  0  0  0  0  0
  -22.9309  -25.3504   16.5267 O   0  0  0  0  0  0  0  0  0  0  0  0
  -31.3765  -12.5393   21.3963 O   0  0  0  0  0  0  0  0  0  0  0  0
  -21.9677  -20.1251   19.1701 O   0  0  0  0  0  0  0  0  0  0  0  0
  -28.5828  -26.9118   19.9973 O   0  0  0  0  0  0  0  0  0  1  0  0
  -16.8811  -20.0098   17.0447 F   0  0  0  0  0  0  0  0  0  0  0  0
  -19.8494  -19.0935   20.6161 F   0  0  0  0  0  0  0  0  0  0  0  0
  1  2  1  0  0  0  0
  1  5  2  0  0  0  0
  2  6  2  0  0  0  0
  3  8  2  0  0  0  0
  3 15  1  0  0  0  0
  4  9  1  0  0  0  0
  4 15  2  0  0  0  0
  5 17  1  0  0  0  0
  6 19  1  0  0  0  0
  7 10  2  0  0  0  0
  7 18  1  0  0  0  0
  8 21  1  0  0  0  0
  9 21  2  0  0  0  0
 10 22  1  0  0  0  0
 11 12  2  0  0  0  0
 11 23  1  0  0  0  0
 12 24  1  0  0  0  0
 13 20  1  0  0  0  0
 13 22  2  0  0  0  0
 14 24  2  0  0  0  0
 14 25  1  0  0  0  0
 15 26  1  0  0  0  0
 16 26  1  0  0  0  0
 16 27  2  0  0  0  0
 16 28  1  0  0  0  0
 17 19  2  0  0  0  0
 17 33  1  0  0  0  0
 18 20  2  0  0  0  0
 18 34  1  0  0  0  0
 19 48  1  0  0  0  0
 20 35  1  0  0  0  0
 21 83  1  0  0  0  0
 22 84  1  0  0  0  0
 23 25  2  0  0  0  0
 23 83  1  0  0  0  0
 24 85  1  0  0  0  0
 25 86  1  0  0  0  0
 26 66  2  0  0  0  0
 27 67  1  0  0  0  0
 27 72  1  0  0  0  0
 28 73  1  0  0  0  0
 28 78  2  0  0  0  0
 29 49  1  0  0  0  0
 29 74  1  0  0  0  0
 29 79  2  0  0  0  0
 30 63  1  0  0  0  0
 30 68  1  0  0  0  0
 30 80  2  0  0  0  0
 31 64  1  0  0  0  0
 31 75  1  0  0  0  0
 31 81  2  0  0  0  0
 32 69  1  0  0  0  0
 32 70  1  0  0  0  0
 32 82  2  0  0  0  0
 33 36  1  0  0  0  0
 34 49  1  0  0  0  0
 35 68  1  0  0  0  0
 36 38  1  0  0  0  0
 37 39  1  0  0  0  0
 37 42  1  0  0  0  0
 38 48  1  0  0  0  0
 39 51  1  0  0  0  0
 40 43  1  0  0  0  0
 40 50  1  0  0  0  0
 41 44  1  0  0  0  0
 41 52  1  0  0  0  0
 42 69  1  0  0  0  0
 43 70  1  0  0  0  0
 44 71  1  0  0  0  0
 45 50  1  0  0  0  0
 45 70  1  0  0  0  0
 46 51  1  0  0  0  0
 46 69  1  0  0  0  0
 47 52  1  0  0  0  0
 47 71  1  0  0  0  0
 48 74  1  0  0  0  0
 49 68  1  0  0  0  0
 50 59  1  0  0  0  0
 51 67  1  0  0  0  0
 52 77  1  0  0  0  0
 53 64  1  0  0  0  0
 54 65  1  0  0  0  0
 55 65  1  0  0  0  0
 56 65  1  0  0  0  0
 57 76  1  0  0  0  0
 58 77  1  0  0  0  0
 59 61  1  0  0  0  0
 60 62  1  0  0  0  0
 60 71  1  0  0  0  0
 61 77  1  0  0  0  0
 62 84  1  0  0  0  0
 63 65  1  0  0  0  0
 63 75  1  0  0  0  0
 64 76  1  0  0  0  0
 66 67  1  0  0  0  0
M  CHG  2  76   1  77   1
M  ISO  4  32 100  62 101  70 100  84 101
M  END
> <Batch ID>
0189

> <Smiles>
CNC(C)C(=O)NC(C(=O)N1Cc2cc([101O:1][101CH2:1]CN3CCC(N(C)CCC4CC[100N:0]([100C:0](=O)N5CCCC(n6nc(-c7ccc(Oc8ccc(F)cc8F)cc7)c(C(N)=O)c6N)C5)C4)C3)ccc2CC1C(=O)NC1CCCc2ccccc21)C(C)(C)C

> <Shape>
0.254

> <Color>
0.091

> <Negative vol penalty>
0.000

$$$$

  -OEChem-04052323223D

 84 93  0     1  0  0  0  0  0999 V2000
  -27.3541  -21.5814   13.6858 C   0  0  0  0  0  0  0  0  0  0  0  0
  -27.1426  -21.2851   15.0285 C   0  0  0  0  0  0  0  0  0  0  0  0
  -23.0461   -9.9215   19.9339 C   0  0  0  0  0  0  0  0  0  0  0  0
  -23.9042   -9.8450   22.1910 C   0  0  0  0  0  0  0  0  0  0  0  0
  -27.4709  -22.9089   13.2760 C   0  0  0  0  0  0  0  0  0  0  0  0
  -27.0490  -22.3163   15.9625 C   0  0  0  0  0  0  0  0  0  0  0  0
  -23.2124  -21.6606   19.2022 C   0  0  0  0  0  0  0  0  0  0  0  0
  -22.3193   -8.7548   20.1706 C   0  0  0  0  0  0  0  0  0  0  0  0
  -23.1773   -8.6783   22.4278 C   0  0  0  0  0  0  0  0  0  0  0  0
  -23.4035  -20.7485   20.2392 C   0  0  0  0  0  0  0  0  0  0  0  0
  -19.9820   -7.8371   23.1370 C   0  0  0  0  0  0  0  0  0  0  0  0
  -19.2765   -7.7472   24.3369 C   0  0  0  0  0  0  0  0  0  0  0  0
  -23.8786  -22.5709   21.7466 C   0  0  0  0  0  0  0  0  0  0  0  0
  -20.5578   -5.7909   24.9437 C   0  0  0  0  0  0  0  0  0  0  0  0
  -26.6349  -18.4830   23.8751 C   0  0  0  0  0  0  0  0  0  0  0  0
  -27.3836  -19.7724   22.0767 C   0  0  0  0  0  0  0  0  0  0  0  0
  -23.8387  -10.4666   20.9441 C   0  0  0  0  0  0  0  0  0  0  0  0
  -24.1629  -12.9967   20.9075 C   0  0  0  0  0  0  0  0  0  0  0  0
  -27.3690  -23.9573   14.2040 C   0  0  0  0  0  0  0  0  0  0  0  0
  -23.3639  -23.0364   19.4275 C   0  0  0  0  0  0  0  0  0  0  0  0
  -27.1659  -23.6591   15.5650 C   0  0  0  0  0  0  0  0  0  0  0  0
  -23.6864  -23.4986   20.7114 C   0  0  0  0  0  0  0  0  0  0  0  0
  -27.6898  -18.8676   23.0728 C   0  0  0  0  0  0  0  0  0  0  0  0
  -22.3848   -8.1333   21.4176 C   0  0  0  0  0  0  0  0  0  0  0  0
  -23.7395  -21.2034   21.5109 C   0  0  0  0  0  0  0  0  0  0  0  0
  -20.9754   -6.9039   22.8404 C   0  0  0  0  0  0  0  0  0  0  0  0
  -19.5644   -6.7242   25.2403 C   0  0  0  0  0  0  0  0  0  0  0  0
  -21.2633   -5.8808   23.7438 C   0  0  0  0  0  0  0  0  0  0  0  0
  -24.5902  -11.6715   20.6999 C   0  0  0  0  0  0  0  0  0  0  0  0
  -25.2348  -13.7666   20.5270 C   0  0  0  0  0  0  0  0  0  0  0  0
  -25.2036  -19.8179   22.7190 C   0  0  0  0  0  0  0  0  0  1  0  0
  -22.9093  -13.4878   21.4002 C   0  0  0  0  0  0  0  0  0  0  0  0
  -25.2971  -25.2943   18.3011 C   0  0  0  0  0  0  0  0  0  0  0  0
  -23.3868  -27.2527   20.0440 C   0  0  0  0  0  0  0  0  0  0  0  0
  -21.2235  -27.6145   22.6586 C   0  0  0  0  0  0  0  0  0  0  0  0
  -30.7490  -14.7428   20.6693 C   0  0  0  0  0  0  0  0  0  0  0  0
  -27.5490  -25.3746   13.7208 C   0  0  0  0  0  0  0  0  0  0  0  0
  -23.1282  -24.0091   18.3047 C   0  0  0  0  0  0  0  0  0  0  0  0
  -23.8410  -24.9667   21.0101 C   0  0  0  0  0  0  0  0  0  0  0  0
  -27.0639  -26.4242   14.7174 C   0  0  0  0  0  0  0  0  0  0  0  0
  -29.4986  -12.5309   18.1028 C   0  0  0  0  0  0  0  0  0  0  0  0
  -27.5707  -26.1033   16.1198 C   0  0  0  0  0  0  0  0  0  0  0  0
  -28.0834  -12.1978   18.5786 C   0  0  0  0  0  0  0  0  0  0  0  0
  -30.4629  -12.7260   19.2717 C   0  0  0  0  0  0  0  0  0  0  0  0
  -28.8870  -16.1949   21.8030 C   0  0  0  0  0  0  0  0  0  0  0  0
  -30.8936  -16.7630   22.2235 C   0  0  0  0  0  0  0  0  0  0  0  0
  -28.6057  -13.3569   20.7574 C   0  0  0  0  0  0  0  0  0  0  0  0
  -27.0340  -24.7510   16.6044 C   0  0  1  0  0  0  0  0  0  0  0  0
  -23.8126  -25.3544   18.5259 C   0  0  1  0  0  0  0  0  0  0  0  0
  -29.5791  -17.5459   22.0644 C   0  0  0  0  0  0  0  0  0  0  0  0
  -27.5881  -13.2245   19.6146 C   0  0  2  0  0  0  0  0  0  0  0  0
  -19.8556  -29.3423   23.8590 C   0  0  0  0  0  0  0  0  0  0  0  0
  -25.9129  -28.3192   21.3824 C   0  0  0  0  0  0  0  0  0  0  0  0
  -24.4657  -29.2980   23.1756 C   0  0  0  0  0  0  0  0  0  0  0  0
  -24.2156  -30.0662   20.8156 C   0  0  0  0  0  0  0  0  0  0  0  0
  -30.6688  -21.1647   25.3519 C   0  0  0  0  0  0  0  0  0  0  0  0
  -18.6934  -26.2091   22.0401 C   0  0  0  0  0  0  0  0  0  0  0  0
  -30.1081  -19.4406   23.6338 C   0  0  0  0  0  0  0  0  0  0  0  0
  -29.1070  -18.3263   23.2746 C   0  0  1  0  0  0  0  0  0  0  0  0
  -23.3924  -27.7654   21.4639 C   0  0  1  0  0  0  0  0  0  0  0  0
  -19.8689  -28.2924   22.7588 C   0  0  2  0  0  0  0  0  0  0  0  0
  -24.4957  -28.8344   21.7036 C   0  0  0  0  0  0  0  0  0  0  0  0
  -25.3743  -18.9400   23.7258 N   0  0  0  0  0  0  0  0  0  0  0  0
  -26.1467  -20.2701   21.8706 N   0  0  0  0  0  0  0  0  0  0  0  0
  -25.8363  -11.6000   20.2243 N   0  0  0  0  0  0  0  0  0  0  0  0
  -26.2012  -12.8900   20.1297 N   0  0  0  0  0  0  0  0  0  0  0  0
  -23.6064  -25.8779   19.8778 N   0  0  0  0  0  0  0  0  0  0  0  0
  -29.9303  -13.7004   20.2274 N   0  0  0  0  0  0  0  0  0  0  0  0
  -30.2163  -15.6649   21.5393 N   0  0  0  0  0  0  0  0  0  0  0  0
  -25.4355  -15.1012   20.4966 N   0  0  0  0  0  0  0  0  0  0  0  0
  -21.9172  -12.5598   21.7451 N   0  0  0  0  0  0  0  0  0  0  0  0
  -25.6578  -24.8780   17.0338 N   0  0  0  0  0  0  0  0  0  0  0  0
  -22.0375  -28.2340   21.7341 N   0  0  0  0  0  0  0  0  0  0  0  0
  -29.7087  -20.1269   24.8894 N   0  3  0  0  0  0  0  0  0  0  0  0
  -18.8079  -27.2886   23.0543 N   0  3  0  0  0  0  0  0  0  0  0  0
  -22.6698  -14.7137   21.5153 O   0  0  0  0  0  0  0  0  0  0  0  0
  -26.0588  -25.6041   19.2097 O   0  0  0  0  0  0  0  0  0  0  0  0
  -23.1875  -28.0417   19.1170 O   0  0  0  0  0  0  0  0  0  0  0  0
  -21.5302  -26.6356   23.3356 O   0  0  0  0  0  0  0  0  0  0  0  0
  -31.9161  -14.8672   20.2748 O   0  0  0  0  0  0  0  0  0  0  0  0
  -21.6755   -6.9949   21.6491 O   0  0  0  0  0  0  0  0  0  0  0  0
  -23.9296  -20.3039   22.5376 O   0  0  0  0  0  0  0  0  0  1  0  0
  -18.8879   -6.6389   26.3932 F   0  0  0  0  0  0  0  0  0  0  0  0
  -22.2173   -4.9820   23.4649 F   0  0  0  0  0  0  0  0  0  0  0  0
  1  2  1  0  0  0  0
  1  5  2  0  0  0  0
  2  6  2  0  0  0  0
  3  8  2  0  0  0  0
  3 17  1  0  0  0  0
  4  9  1  0  0  0  0
  4 17  2  0  0  0  0
  5 19  1  0  0  0  0
  6 21  1  0  0  0  0
  7 10  2  0  0  0  0
  7 20  1  0  0  0  0
  8 24  1  0  0  0  0
  9 24  2  0  0  0  0
 10 25  1  0  0  0  0
 11 12  2  0  0  0  0
 11 26  1  0  0  0  0
 12 27  1  0  0  0  0
 13 22  1  0  0  0  0
 13 25  2  0  0  0  0
 14 27  2  0  0  0  0
 14 28  1  0  0  0  0
 15 23  1  0  0  0  0
 15 63  2  0  0  0  0
 16 23  2  0  0  0  0
 16 64  1  0  0  0  0
 17 29  1  0  0  0  0
 18 29  1  0  0  0  0
 18 30  2  0  0  0  0
 18 32  1  0  0  0  0
 19 21  2  0  0  0  0
 19 37  1  0  0  0  0
 20 22  2  0  0  0  0
 20 38  1  0  0  0  0
 21 48  1  0  0  0  0
 22 39  1  0  0  0  0
 23 59  1  0  0  0  0
 24 81  1  0  0  0  0
 25 82  1  0  0  0  0
 26 28  2  0  0  0  0
 26 81  1  0  0  0  0
 27 83  1  0  0  0  0
 28 84  1  0  0  0  0
 29 65  2  0  0  0  0
 30 66  1  0  0  0  0
 30 70  1  0  0  0  0
 31 63  1  0  0  0  0
 31 64  2  0  0  0  0
 31 82  1  0  0  0  0
 32 71  1  0  0  0  0
 32 76  2  0  0  0  0
 33 49  1  0  0  0  0
 33 72  1  0  0  0  0
 33 77  2  0  0  0  0
 34 60  1  0  0  0  0
 34 67  1  0  0  0  0
 34 78  2  0  0  0  0
 35 61  1  0  0  0  0
 35 73  1  0  0  0  0
 35 79  2  0  0  0  0
 36 68  1  0  0  0  0
 36 69  1  0  0  0  0
 36 80  2  0  0  0  0
 37 40  1  0  0  0  0
 38 49  1  0  0  0  0
 39 67  1  0  0  0  0
 40 42  1  0  0  0  0
 41 43  1  0  0  0  0
 41 44  1  0  0  0  0
 42 48  1  0  0  0  0
 43 51  1  0  0  0  0
 44 68  1  0  0  0  0
 45 50  1  0  0  0  0
 45 69  1  0  0  0  0
 46 50  1  0  0  0  0
 46 69  1  0  0  0  0
 47 51  1  0  0  0  0
 47 68  1  0  0  0  0
 48 72  1  0  0  0  0
 49 67  1  0  0  0  0
 50 59  1  0  0  0  0
 51 66  1  0  0  0  0
 52 61  1  0  0  0  0
 53 62  1  0  0  0  0
 54 62  1  0  0  0  0
 55 62  1  0  0  0  0
 56 74  1  0  0  0  0
 57 75  1  0  0  0  0
 58 59  1  0  0  0  0
 58 74  1  0  0  0  0
 60 62  1  0  0  0  0
 60 73  1  0  0  0  0
 61 75  1  0  0  0  0
 65 66  1  0  0  0  0
M  CHG  2  74   1  75   1
M  ISO  4  31 101  36 100  69 100  82 101
M  END
> <Batch ID>
0189

> <Smiles>
CNCC(c1cn[101c:1]([101O:1]c2ccc3c(c2)CN(C(=O)C(NC(=O)C(C)NC)C(C)(C)C)C(C(=O)NC2CCCc4ccccc42)C3)nc1)C1C[100N:0]([100C:0](=O)N2CCCC(n3nc(-c4ccc(Oc5ccc(F)cc5F)cc4)c(C(N)=O)c3N)C2)C1

> <Shape>
0.259

> <Color>
0.184

> <Negative vol penalty>
0.000

$$$$

  -OEChem-04052323223D

 77 85  0     1  0  0  0  0  0999 V2000
  -30.4621  -24.1848   17.2314 C   0  0  0  0  0  0  0  0  0  0  0  0
  -29.5580  -23.8737   18.2420 C   0  0  0  0  0  0  0  0  0  0  0  0
  -25.1859  -12.0179   20.2583 C   0  0  0  0  0  0  0  0  0  0  0  0
  -25.4385  -12.7199   22.5562 C   0  0  0  0  0  0  0  0  0  0  0  0
  -31.1589  -25.3919   17.2682 C   0  0  0  0  0  0  0  0  0  0  0  0
  -29.3509  -24.7692   19.2906 C   0  0  0  0  0  0  0  0  0  0  0  0
  -24.4443  -25.3755   20.3872 C   0  0  0  0  0  0  0  0  0  0  0  0
  -25.6227  -10.7383   20.6011 C   0  0  0  0  0  0  0  0  0  0  0  0
  -25.8752  -11.4403   22.8991 C   0  0  0  0  0  0  0  0  0  0  0  0
  -23.8298  -24.3708   21.1333 C   0  0  0  0  0  0  0  0  0  0  0  0
  -26.3268   -7.1880   20.9394 C   0  0  0  0  0  0  0  0  0  0  0  0
  -25.6152   -6.1018   20.4302 C   0  0  0  0  0  0  0  0  0  0  0  0
  -24.0603  -25.7156   23.1227 C   0  0  0  0  0  0  0  0  0  0  0  0
  -23.6209   -6.8848   21.5468 C   0  0  0  0  0  0  0  0  0  0  0  0
  -25.0939  -13.0087   21.2358 C   0  0  0  0  0  0  0  0  0  0  0  0
  -23.3183  -14.8059   20.8829 C   0  0  0  0  0  0  0  0  0  0  0  0
  -30.9531  -26.3069   18.3128 C   0  0  0  0  0  0  0  0  0  0  0  0
  -24.8820  -26.5552   21.0062 C   0  0  0  0  0  0  0  0  0  0  0  0
  -30.0466  -25.9891   19.3422 C   0  0  0  0  0  0  0  0  0  0  0  0
  -24.6778  -26.7348   22.3817 C   0  0  0  0  0  0  0  0  0  0  0  0
  -25.9673  -10.4495   21.9215 C   0  0  0  0  0  0  0  0  0  0  0  0
  -23.6403  -24.5395   22.5017 C   0  0  0  0  0  0  0  0  0  0  0  0
  -25.6855   -8.1226   21.7524 C   0  0  0  0  0  0  0  0  0  0  0  0
  -24.2623   -5.9502   20.7338 C   0  0  0  0  0  0  0  0  0  0  0  0
  -24.3326   -7.9710   22.0560 C   0  0  0  0  0  0  0  0  0  0  0  0
  -24.6434  -14.3309   20.8821 C   0  0  0  0  0  0  0  0  0  0  0  0
  -23.4218  -16.1128   20.4731 C   0  0  0  0  0  0  0  0  0  0  0  0
  -22.1024  -14.1267   21.2235 C   0  0  0  0  0  0  0  0  0  0  0  0
  -27.7018  -27.9682   21.4009 C   0  0  0  0  0  0  0  0  0  0  0  0
  -25.8945  -30.3502   22.6586 C   0  0  0  0  0  0  0  0  0  0  0  0
  -22.9761  -31.2899   24.1575 C   0  0  0  0  0  0  0  0  0  0  0  0
  -27.8656  -20.1190   20.7061 C   0  0  0  0  0  0  0  0  0  0  0  0
  -31.7643  -27.5782   18.3347 C   0  0  0  0  0  0  0  0  0  0  0  0
  -25.5191  -27.6407   20.1826 C   0  0  0  0  0  0  0  0  0  0  0  0
  -25.1112  -27.9911   23.0904 C   0  0  0  0  0  0  0  0  0  0  0  0
  -31.2101  -28.6381   19.2832 C   0  0  0  0  0  0  0  0  0  0  0  0
  -26.1484  -18.9932   17.7974 C   0  0  0  0  0  0  0  0  0  0  0  0
  -30.8624  -28.0176   20.6326 C   0  0  0  0  0  0  0  0  0  0  0  0
  -25.4484  -17.7135   18.2582 C   0  0  0  0  0  0  0  0  0  0  0  0
  -23.3860  -21.4196   24.4466 C   0  0  0  0  0  0  0  0  0  0  0  0
  -27.5191  -19.1535   18.4512 C   0  0  0  0  0  0  0  0  0  0  0  0
  -26.8154  -17.7973   20.3850 C   0  0  0  0  0  0  0  0  0  0  0  0
  -29.7762  -26.9455   20.4834 C   0  0  1  0  0  0  0  0  0  0  0  0
  -26.3890  -28.5841   21.0076 C   0  0  1  0  0  0  0  0  0  0  0  0
  -25.4057  -17.6201   19.7953 C   0  0  2  0  0  0  0  0  0  0  0  0
  -24.7273  -22.0810   24.3055 C   0  0  2  0  0  0  0  0  0  0  0  0
  -23.6758  -22.2821   23.2493 C   0  0  2  0  0  0  0  0  0  1  0  0
  -21.8040  -33.2979   25.1016 C   0  0  0  0  0  0  0  0  0  0  0  0
  -27.6661  -30.2150   25.1391 C   0  0  0  0  0  0  0  0  0  0  0  0
  -25.9177  -31.5142   26.3733 C   0  0  0  0  0  0  0  0  0  0  0  0
  -27.0696  -32.5311   24.4082 C   0  0  0  0  0  0  0  0  0  0  0  0
  -20.7550  -31.0506   22.2162 C   0  0  0  0  0  0  0  0  0  0  0  0
  -28.1348  -20.9566   23.0267 C   0  0  0  0  0  0  0  0  0  0  0  0
  -27.0267  -21.9447   23.3398 C   0  0  0  0  0  0  0  0  0  0  0  0
  -25.3797  -30.6877   24.0370 C   0  0  1  0  0  0  0  0  0  0  0  0
  -22.0182  -32.4319   23.8700 C   0  0  2  0  0  0  0  0  0  0  0  0
  -26.5017  -31.2124   24.9767 C   0  0  0  0  0  0  0  0  0  0  0  0
  -25.5242  -15.2602   20.5019 N   0  0  0  0  0  0  0  0  0  0  0  0
  -24.7509  -16.3324   20.2599 N   0  0  0  0  0  0  0  0  0  0  0  0
  -25.7351  -29.0207   22.2429 N   0  0  0  0  0  0  0  0  0  0  0  0
  -27.4087  -19.0567   19.9088 N   0  0  0  0  0  0  0  0  0  0  0  0
  -22.5047  -17.0840   20.2780 N   0  0  0  0  0  0  0  0  0  0  0  0
  -22.1760  -12.7857   21.6243 N   0  0  0  0  0  0  0  0  0  0  0  0
  -28.4756  -27.5616   20.3307 N   0  0  0  0  0  0  0  0  0  0  0  0
  -24.2767  -31.6227   23.8432 N   0  0  0  0  0  0  0  0  0  0  0  0
  -27.7179  -19.9489   22.0772 N   0  0  0  0  0  0  0  0  0  0  0  0
  -25.8747  -21.2299   23.9700 N   0  3  0  0  0  0  0  0  0  0  0  0
  -20.6960  -31.9014   23.4326 N   0  3  0  0  0  0  0  0  0  0  0  0
  -20.9822  -14.6874   21.1582 O   0  0  0  0  0  0  0  0  0  0  0  0
  -27.9920  -27.8705   22.5875 O   0  0  0  0  0  0  0  0  0  0  0  0
  -26.4124  -31.2353   21.9731 O   0  0  0  0  0  0  0  0  0  0  0  0
  -22.6078  -30.2117   24.6185 O   0  0  0  0  0  0  0  0  0  0  0  0
  -28.3631  -21.1455   20.2309 O   0  0  0  0  0  0  0  0  0  0  0  0
  -26.3932   -9.2009   22.2565 O   0  0  0  0  0  0  0  0  0  0  0  0
  -23.0413  -23.5602   23.2325 O   0  0  0  0  0  0  0  0  0  1  0  0
  -23.5787   -4.9079   20.2435 F   0  0  0  0  0  0  0  0  0  0  0  0
  -23.7108   -8.8663   22.8355 F   0  0  0  0  0  0  0  0  0  0  0  0
  1  2  1  0  0  0  0
  1  5  2  0  0  0  0
  2  6  2  0  0  0  0
  3  8  2  0  0  0  0
  3 15  1  0  0  0  0
  4  9  1  0  0  0  0
  4 15  2  0  0  0  0
  5 17  1  0  0  0  0
  6 19  1  0  0  0  0
  7 10  2  0  0  0  0
  7 18  1  0  0  0  0
  8 21  1  0  0  0  0
  9 21  2  0  0  0  0
 10 22  1  0  0  0  0
 11 12  2  0  0  0  0
 11 23  1  0  0  0  0
 12 24  1  0  0  0  0
 13 20  1  0  0  0  0
 13 22  2  0  0  0  0
 14 24  2  0  0  0  0
 14 25  1  0  0  0  0
 15 26  1  0  0  0  0
 16 26  1  0  0  0  0
 16 27  2  0  0  0  0
 16 28  1  0  0  0  0
 17 19  2  0  0  0  0
 17 33  1  0  0  0  0
 18 20  2  0  0  0  0
 18 34  1  0  0  0  0
 19 43  1  0  0  0  0
 20 35  1  0  0  0  0
 21 74  1  0  0  0  0
 22 75  1  0  0  0  0
 23 25  2  0  0  0  0
 23 74  1  0  0  0  0
 24 76  1  0  0  0  0
 25 77  1  0  0  0  0
 26 58  2  0  0  0  0
 27 59  1  0  0  0  0
 27 62  1  0  0  0  0
 28 63  1  0  0  0  0
 28 69  2  0  0  0  0
 29 44  1  0  0  0  0
 29 64  1  0  0  0  0
 29 70  2  0  0  0  0
 30 55  1  0  0  0  0
 30 60  1  0  0  0  0
 30 71  2  0  0  0  0
 31 56  1  0  0  0  0
 31 65  1  0  0  0  0
 31 72  2  0  0  0  0
 32 61  1  0  0  0  0
 32 66  1  0  0  0  0
 32 73  2  0  0  0  0
 33 36  1  0  0  0  0
 34 44  1  0  0  0  0
 35 60  1  0  0  0  0
 36 38  1  0  0  0  0
 37 39  1  0  0  0  0
 37 41  1  0  0  0  0
 38 43  1  0  0  0  0
 39 45  1  0  0  0  0
 40 46  1  0  0  0  0
 40 47  1  0  0  0  0
 41 61  1  0  0  0  0
 42 45  1  0  0  0  0
 42 61  1  0  0  0  0
 43 64  1  0  0  0  0
 44 60  1  0  0  0  0
 45 59  1  0  0  0  0
 46 47  1  0  0  0  0
 46 67  1  0  0  0  0
 47 75  1  0  0  0  0
 48 56  1  0  0  0  0
 49 57  1  0  0  0  0
 50 57  1  0  0  0  0
 51 57  1  0  0  0  0
 52 68  1  0  0  0  0
 53 54  1  0  0  0  0
 53 66  1  0  0  0  0
 54 67  1  0  0  0  0
 55 57  1  0  0  0  0
 55 65  1  0  0  0  0
 56 68  1  0  0  0  0
 58 59  1  0  0  0  0
M  CHG  2  67   1  68   1
M  ISO  4  32 100  47 101  66 100  75 101
M  END
> <Batch ID>
0189

> <Smiles>
CNC(C)C(=O)NC(C(=O)N1Cc2cc([101O:1][101CH:1]3CC3NCC[100NH:0][100C:0](=O)N3CCCC(n4nc(-c5ccc(Oc6ccc(F)cc6F)cc5)c(C(N)=O)c4N)C3)ccc2CC1C(=O)NC1CCCc2ccccc21)C(C)(C)C

> <Shape>
0.233

> <Color>
0.065

> <Negative vol penalty>
0.000

$$$$

  -OEChem-04052323223D

 82 91  0     1  0  0  0  0  0999 V2000
  -25.6792  -37.5348   22.9118 C   0  0  0  0  0  0  0  0  0  0  0  0
  -26.3506  -36.6769   22.0466 C   0  0  0  0  0  0  0  0  0  0  0  0
  -24.5416   -9.5124   22.2232 C   0  0  0  0  0  0  0  0  0  0  0  0
  -23.6176   -9.9877   20.0420 C   0  0  0  0  0  0  0  0  0  0  0  0
  -25.0657  -37.0284   24.0568 C   0  0  0  0  0  0  0  0  0  0  0  0
  -26.4098  -35.3122   22.3265 C   0  0  0  0  0  0  0  0  0  0  0  0
  -26.5869  -28.9439   19.0507 C   0  0  0  0  0  0  0  0  0  0  0  0
  -23.3913   -8.7964   22.5545 C   0  0  0  0  0  0  0  0  0  0  0  0
  -22.4673   -9.2716   20.3733 C   0  0  0  0  0  0  0  0  0  0  0  0
  -27.3329  -27.7663   19.0250 C   0  0  0  0  0  0  0  0  0  0  0  0
  -22.1000   -5.7328   21.9377 C   0  0  0  0  0  0  0  0  0  0  0  0
  -22.2634   -4.4978   22.5650 C   0  0  0  0  0  0  0  0  0  0  0  0
  -30.8928  -22.6272   19.5402 C   0  0  0  0  0  0  0  0  0  0  0  0
  -26.1685  -26.9929   20.9910 C   0  0  0  0  0  0  0  0  0  0  0  0
  -21.0140   -5.3005   24.4707 C   0  0  0  0  0  0  0  0  0  0  0  0
  -30.7138  -23.9887   19.5700 C   0  0  0  0  0  0  0  0  0  0  0  0
  -24.6547  -10.1081   20.9670 C   0  0  0  0  0  0  0  0  0  0  0  0
  -27.0113  -10.3479   20.0200 C   0  0  0  0  0  0  0  0  0  0  0  0
  -25.1092  -35.6554   24.3459 C   0  0  0  0  0  0  0  0  0  0  0  0
  -25.6322  -29.1599   20.0549 C   0  0  0  0  0  0  0  0  0  0  0  0
  -25.7975  -34.7871   23.4771 C   0  0  0  0  0  0  0  0  0  0  0  0
  -25.4100  -28.1729   21.0258 C   0  0  0  0  0  0  0  0  0  0  0  0
  -22.3542   -8.6759   21.6295 C   0  0  0  0  0  0  0  0  0  0  0  0
  -27.1258  -26.7918   19.9969 C   0  0  0  0  0  0  0  0  0  0  0  0
  -21.3937   -6.7518   22.5768 C   0  0  0  0  0  0  0  0  0  0  0  0
  -21.7204   -4.2816   23.8315 C   0  0  0  0  0  0  0  0  0  0  0  0
  -20.8506   -6.5356   23.8433 C   0  0  0  0  0  0  0  0  0  0  0  0
  -25.8425  -10.8483   20.6244 C   0  0  0  0  0  0  0  0  0  0  0  0
  -29.6843  -22.1246   19.0220 C   0  0  0  0  0  0  0  0  0  0  0  0
  -27.8351  -11.4412   19.9083 C   0  0  0  0  0  0  0  0  0  0  0  0
  -27.3242   -9.0141   19.5973 C   0  0  0  0  0  0  0  0  0  0  0  0
  -25.2616  -31.3014   22.3744 C   0  0  0  0  0  0  0  0  0  0  0  0
  -22.4231  -29.7866   22.7874 C   0  0  0  0  0  0  0  0  0  0  0  0
  -20.5686  -26.9494   22.3902 C   0  0  0  0  0  0  0  0  0  0  0  0
  -28.8250  -16.5761   18.6852 C   0  0  0  0  0  0  0  0  0  0  0  0
  -24.4715  -35.1613   25.6202 C   0  0  0  0  0  0  0  0  0  0  0  0
  -24.8170  -30.4239   20.0531 C   0  0  0  0  0  0  0  0  0  0  0  0
  -24.3827  -28.3475   22.1134 C   0  0  0  0  0  0  0  0  0  0  0  0
  -24.2603  -33.6497   25.6493 C   0  0  0  0  0  0  0  0  0  0  0  0
  -27.4602  -16.0752   21.8830 C   0  0  0  0  0  0  0  0  0  0  0  0
  -25.5187  -32.9258   25.1811 C   0  0  0  0  0  0  0  0  0  0  0  0
  -27.0056  -14.6187   21.7945 C   0  0  0  0  0  0  0  0  0  0  0  0
  -27.1769  -16.8435   20.5911 C   0  0  0  0  0  0  0  0  0  0  0  0
  -30.5572  -19.8147   19.1977 C   0  0  0  0  0  0  0  0  0  0  0  0
  -28.1092  -20.2421   18.9314 C   0  0  0  0  0  0  0  0  0  0  0  0
  -30.3829  -18.4776   18.4826 C   0  0  0  0  0  0  0  0  0  0  0  0
  -27.9808  -18.9047   18.2106 C   0  0  0  0  0  0  0  0  0  0  0  0
  -27.2715  -14.7431   19.2882 C   0  0  0  0  0  0  0  0  0  0  0  0
  -25.8625  -33.2971   23.7335 C   0  0  1  0  0  0  0  0  0  0  0  0
  -24.2332  -30.7604   21.4219 C   0  0  1  0  0  0  0  0  0  0  0  0
  -27.5963  -13.9303   20.5512 C   0  0  2  0  0  0  0  0  0  0  0  0
  -18.2934  -26.0012   22.8611 C   0  0  0  0  0  0  0  0  0  0  0  0
  -23.1785  -29.4385   25.7231 C   0  0  0  0  0  0  0  0  0  0  0  0
  -21.3786  -27.7082   25.9090 C   0  0  0  0  0  0  0  0  0  0  0  0
  -20.7890  -30.0613   25.3276 C   0  0  0  0  0  0  0  0  0  0  0  0
  -20.0196  -26.5313   19.5122 C   0  0  0  0  0  0  0  0  0  0  0  0
  -28.8153  -25.4926   18.9268 C   0  0  0  0  0  0  0  0  0  1  0  0
  -21.9473  -28.6130   23.6092 C   0  0  1  0  0  0  0  0  0  0  0  0
  -19.1665  -26.7297   21.8513 C   0  0  2  0  0  0  0  0  0  0  0  0
  -21.8441  -28.9525   25.1230 C   0  0  0  0  0  0  0  0  0  0  0  0
  -25.9136  -12.1576   20.8790 N   0  0  0  0  0  0  0  0  0  0  0  0
  -28.8026  -23.0882   18.7428 N   0  0  0  0  0  0  0  0  0  0  0  0
  -29.4576  -24.2101   19.0869 N   0  0  0  0  0  0  0  0  0  0  0  0
  -27.1371  -12.4891   20.4325 N   0  0  0  0  0  0  0  0  0  0  0  0
  -29.4850  -20.7500   18.8405 N   0  0  0  0  0  0  0  0  0  0  0  0
  -23.6153  -29.6033   22.0727 N   0  0  0  0  0  0  0  0  0  0  0  0
  -27.7233  -16.1288   19.4297 N   0  0  0  0  0  0  0  0  0  0  0  0
  -29.0255  -17.9640   18.6204 N   0  0  0  0  0  0  0  0  0  0  0  0
  -29.0814  -11.5987   19.4139 N   0  0  0  0  0  0  0  0  0  0  0  0
  -26.3641   -8.0107   19.7862 N   0  0  0  0  0  0  0  0  0  0  0  0
  -25.0025  -32.5864   22.8116 N   0  0  0  0  0  0  0  0  0  0  0  0
  -20.6919  -28.1760   23.0079 N   0  0  0  0  0  0  0  0  0  0  0  0
  -19.2131  -25.9211   20.6004 N   0  3  0  0  0  0  0  0  0  0  0  0
  -28.4291   -8.7175   19.0827 O   0  0  0  0  0  0  0  0  0  0  0  0
  -26.2185  -30.6042   22.6905 O   0  0  0  0  0  0  0  0  0  0  0  0
  -21.7577  -30.8252   22.7743 O   0  0  0  0  0  0  0  0  0  0  0  0
  -21.4637  -26.1148   22.2778 O   0  0  0  0  0  0  0  0  0  0  0  0
  -29.5864  -15.7853   18.1145 O   0  0  0  0  0  0  0  0  0  0  0  0
  -21.2317   -7.9771   21.9524 O   0  0  0  0  0  0  0  0  0  0  0  0
  -27.8576  -25.6344   19.9743 O   0  0  0  0  0  0  0  0  0  1  0  0
  -21.8760   -3.0951   24.4332 F   0  0  0  0  0  0  0  0  0  0  0  0
  -20.1700   -7.5103   24.4619 F   0  0  0  0  0  0  0  0  0  0  0  0
  1  2  1  0  0  0  0
  1  5  2  0  0  0  0
  2  6  2  0  0  0  0
  3  8  2  0  0  0  0
  3 17  1  0  0  0  0
  4  9  1  0  0  0  0
  4 17  2  0  0  0  0
  5 19  1  0  0  0  0
  6 21  1  0  0  0  0
  7 10  2  0  0  0  0
  7 20  1  0  0  0  0
  8 23  1  0  0  0  0
  9 23  2  0  0  0  0
 10 24  1  0  0  0  0
 11 12  2  0  0  0  0
 11 25  1  0  0  0  0
 12 26  1  0  0  0  0
 13 16  2  0  0  0  0
 13 29  1  0  0  0  0
 14 22  1  0  0  0  0
 14 24  2  0  0  0  0
 15 26  2  0  0  0  0
 15 27  1  0  0  0  0
 16 63  1  0  0  0  0
 17 28  1  0  0  0  0
 18 28  1  0  0  0  0
 18 30  2  0  0  0  0
 18 31  1  0  0  0  0
 19 21  2  0  0  0  0
 19 36  1  0  0  0  0
 20 22  2  0  0  0  0
 20 37  1  0  0  0  0
 21 49  1  0  0  0  0
 22 38  1  0  0  0  0
 23 79  1  0  0  0  0
 24 80  1  0  0  0  0
 25 27  2  0  0  0  0
 25 79  1  0  0  0  0
 26 81  1  0  0  0  0
 27 82  1  0  0  0  0
 28 61  2  0  0  0  0
 29 62  2  0  0  0  0
 29 65  1  0  0  0  0
 30 64  1  0  0  0  0
 30 69  1  0  0  0  0
 31 70  1  0  0  0  0
 31 74  2  0  0  0  0
 32 50  1  0  0  0  0
 32 71  1  0  0  0  0
 32 75  2  0  0  0  0
 33 58  1  0  0  0  0
 33 66  1  0  0  0  0
 33 76  2  0  0  0  0
 34 59  1  0  0  0  0
 34 72  1  0  0  0  0
 34 77  2  0  0  0  0
 35 67  1  0  0  0  0
 35 68  1  0  0  0  0
 35 78  2  0  0  0  0
 36 39  1  0  0  0  0
 37 50  1  0  0  0  0
 38 66  1  0  0  0  0
 39 41  1  0  0  0  0
 40 42  1  0  0  0  0
 40 43  1  0  0  0  0
 41 49  1  0  0  0  0
 42 51  1  0  0  0  0
 43 67  1  0  0  0  0
 44 46  1  0  0  0  0
 44 65  1  0  0  0  0
 45 47  1  0  0  0  0
 45 65  1  0  0  0  0
 46 68  1  0  0  0  0
 47 68  1  0  0  0  0
 48 51  1  0  0  0  0
 48 67  1  0  0  0  0
 49 71  1  0  0  0  0
 50 66  1  0  0  0  0
 51 64  1  0  0  0  0
 52 59  1  0  0  0  0
 53 60  1  0  0  0  0
 54 60  1  0  0  0  0
 55 60  1  0  0  0  0
 56 73  1  0  0  0  0
 57 63  1  0  0  0  0
 57 80  1  0  0  0  0
 58 60  1  0  0  0  0
 58 72  1  0  0  0  0
 59 73  1  0  0  0  0
 61 64  1  0  0  0  0
 62 63  1  0  0  0  0
M  CHG  1  73   1
M  ISO  4  35 100  57 101  68 100  80 101
M  END
> <Batch ID>
0189

> <Smiles>
CNC(C)C(=O)NC(C(=O)N1Cc2cc([101O:1][101CH2:1]n3ccc(N4CC[100N:0]([100C:0](=O)N5CCCC(n6nc(-c7ccc(Oc8ccc(F)cc8F)cc7)c(C(N)=O)c6N)C5)CC4)n3)ccc2CC1C(=O)NC1CCCc2ccccc21)C(C)(C)C

> <Shape>
0.380

> <Color>
0.106

> <Negative vol penalty>
0.000

$$$$

  -OEChem-04052323223D

 83 91  0     1  0  0  0  0  0999 V2000
  -18.7539  -21.3260   23.1194 C   0  0  0  0  0  0  0  0  0  0  0  0
  -20.0023  -21.1285   22.5380 C   0  0  0  0  0  0  0  0  0  0  0  0
  -24.3992  -13.1082   19.9028 C   0  0  0  0  0  0  0  0  0  0  0  0
  -25.8561  -13.3980   21.8081 C   0  0  0  0  0  0  0  0  0  0  0  0
  -18.1514  -22.5822   23.0645 C   0  0  0  0  0  0  0  0  0  0  0  0
  -20.6484  -22.1869   21.9003 C   0  0  0  0  0  0  0  0  0  0  0  0
  -26.6770  -23.2503   21.7237 C   0  0  0  0  0  0  0  0  0  0  0  0
  -24.4433  -11.7253   20.0794 C   0  0  0  0  0  0  0  0  0  0  0  0
  -25.9002  -12.0150   21.9848 C   0  0  0  0  0  0  0  0  0  0  0  0
  -27.6490  -22.9819   20.7609 C   0  0  0  0  0  0  0  0  0  0  0  0
  -23.8816   -8.1376   20.2477 C   0  0  0  0  0  0  0  0  0  0  0  0
  -22.6797   -7.4346   20.1650 C   0  0  0  0  0  0  0  0  0  0  0  0
  -27.4123  -25.2249   19.9054 C   0  0  0  0  0  0  0  0  0  0  0  0
  -21.8009   -8.7200   22.0124 C   0  0  0  0  0  0  0  0  0  0  0  0
  -31.3252  -19.6054   22.0945 C   0  0  0  0  0  0  0  0  0  0  0  0
  -25.1056  -13.9446   20.7671 C   0  0  0  0  0  0  0  0  0  0  0  0
  -24.1400  -16.2741   21.1523 C   0  0  0  0  0  0  0  0  0  0  0  0
  -18.7948  -23.6589   22.4342 C   0  0  0  0  0  0  0  0  0  0  0  0
  -26.0565  -24.5066   21.7777 C   0  0  0  0  0  0  0  0  0  0  0  0
  -20.0534  -23.4584   21.8357 C   0  0  0  0  0  0  0  0  0  0  0  0
  -26.4346  -25.5076   20.8714 C   0  0  0  0  0  0  0  0  0  0  0  0
  -25.1937  -11.1787   21.1204 C   0  0  0  0  0  0  0  0  0  0  0  0
  -28.0147  -23.9683   19.8497 C   0  0  0  0  0  0  0  0  0  0  0  0
  -24.0432   -9.1317   21.2128 C   0  0  0  0  0  0  0  0  0  0  0  0
  -21.6393   -7.7258   21.0473 C   0  0  0  0  0  0  0  0  0  0  0  0
  -23.0028   -9.4229   22.0951 C   0  0  0  0  0  0  0  0  0  0  0  0
  -25.0610  -15.3732   20.5849 C   0  0  0  0  0  0  0  0  0  0  0  0
  -33.0443  -21.0985   22.3064 C   0  0  0  0  0  0  0  0  0  0  0  0
  -32.8460  -21.5112   21.0072 C   0  0  0  0  0  0  0  0  0  0  0  0
  -31.1264  -20.0185   20.7956 C   0  0  0  0  0  0  0  0  0  0  0  0
  -24.5228  -17.5033   20.6737 C   0  0  0  0  0  0  0  0  0  0  0  0
  -23.0372  -16.0225   22.0333 C   0  0  0  0  0  0  0  0  0  0  0  0
  -23.0731  -25.5512   21.4431 C   0  0  0  0  0  0  0  0  0  0  0  0
  -24.3796  -28.3849   22.3295 C   0  0  0  0  0  0  0  0  0  0  0  0
  -27.1596  -30.3527   22.5437 C   0  0  0  0  0  0  0  0  0  0  0  0
  -29.7336  -19.6825   18.7234 C   0  0  0  0  0  0  0  0  0  0  0  0
  -18.0831  -24.9865   22.3589 C   0  0  0  0  0  0  0  0  0  0  0  0
  -25.0290  -24.7889   22.8393 C   0  0  0  0  0  0  0  0  0  0  0  0
  -25.8132  -26.8792   20.9002 C   0  0  0  0  0  0  0  0  0  0  0  0
  -19.0008  -26.1496   21.9911 C   0  0  0  0  0  0  0  0  0  0  0  0
  -26.6682  -19.5567   16.9167 C   0  0  0  0  0  0  0  0  0  0  0  0
  -19.8902  -25.7749   20.8098 C   0  0  0  0  0  0  0  0  0  0  0  0
  -25.8221  -18.5562   17.7074 C   0  0  0  0  0  0  0  0  0  0  0  0
  -28.1421  -19.1560   16.8891 C   0  0  0  0  0  0  0  0  0  0  0  0
  -27.8958  -17.9040   18.9964 C   0  0  0  0  0  0  0  0  0  0  0  0
  -20.7970  -24.5879   21.1566 C   0  0  1  0  0  0  0  0  0  0  0  0
  -24.0941  -25.9381   22.4754 C   0  0  1  0  0  0  0  0  0  0  0  0
  -26.4143  -18.2996   19.1071 C   0  0  2  0  0  0  0  0  0  0  0  0
  -34.1123  -21.6964   23.1571 C   0  0  0  0  0  0  0  0  0  0  0  0
  -27.9074  -32.6327   23.2786 C   0  0  0  0  0  0  0  0  0  0  0  0
  -23.1472  -29.5969   19.8151 C   0  0  0  0  0  0  0  0  0  0  0  0
  -24.6767  -31.5591   20.0955 C   0  0  0  0  0  0  0  0  0  0  0  0
  -22.9862  -31.0364   21.8538 C   0  0  0  0  0  0  0  0  0  0  0  0
  -29.0076  -29.2237   24.5609 C   0  0  0  0  0  0  0  0  0  0  0  0
  -33.6963  -22.5824   20.3877 C   0  0  0  0  0  0  0  0  0  0  0  0
  -33.1284  -23.1466   19.0893 C   0  0  0  0  0  0  0  0  0  0  0  0
  -31.1496  -24.3209   18.1178 C   0  0  0  0  0  0  0  0  0  0  0  0
  -29.7572  -24.8086   18.4664 C   0  0  0  0  0  0  0  0  0  1  0  0
  -25.0121  -29.5453   21.5999 C   0  0  1  0  0  0  0  0  0  0  0  0
  -27.7233  -31.1790   23.6856 C   0  0  2  0  0  0  0  0  0  0  0  0
  -23.9661  -30.4081   20.8390 C   0  0  0  0  0  0  0  0  0  0  0  0
  -32.2877  -20.1380   22.8733 N   0  0  0  0  0  0  0  0  0  0  0  0
  -25.9609  -15.9784   19.8053 N   0  0  0  0  0  0  0  0  0  0  0  0
  -31.8833  -20.9788   20.2285 N   0  0  0  0  0  0  0  0  0  0  0  0
  -25.6073  -17.2728   19.8794 N   0  0  0  0  0  0  0  0  0  0  0  0
  -24.8088  -27.1044   21.9529 N   0  0  0  0  0  0  0  0  0  0  0  0
  -28.6355  -18.9338   18.2500 N   0  0  0  0  0  0  0  0  0  0  0  0
  -24.0342  -18.7480   20.8590 N   0  0  0  0  0  0  0  0  0  0  0  0
  -22.7843  -14.7012   22.4267 N   0  0  0  0  0  0  0  0  0  0  0  0
  -30.0927  -19.4083   20.0427 N   0  0  0  0  0  0  0  0  0  0  0  0
  -21.9105  -25.0238   21.9718 N   0  0  0  0  0  0  0  0  0  0  0  0
  -25.7835  -30.2818   22.5954 N   0  0  0  0  0  0  0  0  0  0  0  0
  -29.0454  -30.6394   24.1121 N   0  3  0  0  0  0  0  0  0  0  0  0
  -31.7632  -23.6935   19.3153 N   0  3  0  0  0  0  0  0  0  0  0  0
  -22.2880  -16.9400   22.4460 O   0  0  0  0  0  0  0  0  0  0  0  0
  -23.3212  -25.7201   20.2550 O   0  0  0  0  0  0  0  0  0  0  0  0
  -23.5409  -28.6067   23.2065 O   0  0  0  0  0  0  0  0  0  0  0  0
  -27.8688  -29.8263   21.6890 O   0  0  0  0  0  0  0  0  0  0  0  0
  -30.2957  -20.5259   18.0200 O   0  0  0  0  0  0  0  0  0  0  0  0
  -25.2368   -9.8293   21.2931 O   0  0  0  0  0  0  0  0  0  0  0  0
  -28.9627  -23.7088   18.9085 O   0  0  0  0  0  0  0  0  0  1  0  0
  -20.4847   -7.0517   20.9668 F   0  0  0  0  0  0  0  0  0  0  0  0
  -23.1517  -10.3777   23.0236 F   0  0  0  0  0  0  0  0  0  0  0  0
  1  2  1  0  0  0  0
  1  5  2  0  0  0  0
  2  6  2  0  0  0  0
  3  8  2  0  0  0  0
  3 16  1  0  0  0  0
  4  9  1  0  0  0  0
  4 16  2  0  0  0  0
  5 18  1  0  0  0  0
  6 20  1  0  0  0  0
  7 10  2  0  0  0  0
  7 19  1  0  0  0  0
  8 22  1  0  0  0  0
  9 22  2  0  0  0  0
 10 23  1  0  0  0  0
 11 12  2  0  0  0  0
 11 24  1  0  0  0  0
 12 25  1  0  0  0  0
 13 21  1  0  0  0  0
 13 23  2  0  0  0  0
 14 25  2  0  0  0  0
 14 26  1  0  0  0  0
 15 30  1  0  0  0  0
 15 62  2  0  0  0  0
 16 27  1  0  0  0  0
 17 27  1  0  0  0  0
 17 31  2  0  0  0  0
 17 32  1  0  0  0  0
 18 20  2  0  0  0  0
 18 37  1  0  0  0  0
 19 21  2  0  0  0  0
 19 38  1  0  0  0  0
 20 46  1  0  0  0  0
 21 39  1  0  0  0  0
 22 80  1  0  0  0  0
 23 81  1  0  0  0  0
 24 26  2  0  0  0  0
 24 80  1  0  0  0  0
 25 82  1  0  0  0  0
 26 83  1  0  0  0  0
 27 63  2  0  0  0  0
 28 29  2  0  0  0  0
 28 49  1  0  0  0  0
 28 62  1  0  0  0  0
 29 55  1  0  0  0  0
 29 64  1  0  0  0  0
 30 64  2  0  0  0  0
 30 70  1  0  0  0  0
 31 65  1  0  0  0  0
 31 68  1  0  0  0  0
 32 69  1  0  0  0  0
 32 75  2  0  0  0  0
 33 47  1  0  0  0  0
 33 71  1  0  0  0  0
 33 76  2  0  0  0  0
 34 59  1  0  0  0  0
 34 66  1  0  0  0  0
 34 77  2  0  0  0  0
 35 60  1  0  0  0  0
 35 72  1  0  0  0  0
 35 78  2  0  0  0  0
 36 67  1  0  0  0  0
 36 70  1  0  0  0  0
 36 79  2  0  0  0  0
 37 40  1  0  0  0  0
 38 47  1  0  0  0  0
 39 66  1  0  0  0  0
 40 42  1  0  0  0  0
 41 43  1  0  0  0  0
 41 44  1  0  0  0  0
 42 46  1  0  0  0  0
 43 48  1  0  0  0  0
 44 67  1  0  0  0  0
 45 48  1  0  0  0  0
 45 67  1  0  0  0  0
 46 71  1  0  0  0  0
 47 66  1  0  0  0  0
 48 65  1  0  0  0  0
 50 60  1  0  0  0  0
 51 61  1  0  0  0  0
 52 61  1  0  0  0  0
 53 61  1  0  0  0  0
 54 73  1  0  0  0  0
 55 56  1  0  0  0  0
 56 74  1  0  0  0  0
 57 58  1  0  0  0  0
 57 74  1  0  0  0  0
 58 81  1  0  0  0  0
 59 61  1  0  0  0  0
 59 72  1  0  0  0  0
 60 73  1  0  0  0  0
 63 65  1  0  0  0  0
M  CHG  2  73   1  74   1
M  ISO  4  36 100  58 101  70 100  81 101
M  END
> <Batch ID>
0189

> <Smiles>
CNC(C)C(=O)NC(C(=O)N1Cc2cc([101O:1][101CH2:1]CNCCc3nc([100NH:0][100C:0](=O)N4CCCC(n5nc(-c6ccc(Oc7ccc(F)cc7F)cc6)c(C(N)=O)c5N)C4)cnc3C)ccc2CC1C(=O)NC1CCCc2ccccc21)C(C)(C)C

> <Shape>
0.200

> <Color>
0.059

> <Negative vol penalty>
0.000

$$$$

  -OEChem-04052323223D

 78 86  0     1  0  0  0  0  0999 V2000
  -19.3064  -24.2309   23.9521 C   0  0  0  0  0  0  0  0  0  0  0  0
  -20.6196  -24.1532   23.4996 C   0  0  0  0  0  0  0  0  0  0  0  0
  -24.3171  -15.4346   20.0072 C   0  0  0  0  0  0  0  0  0  0  0  0
  -26.1182  -13.8267   19.9209 C   0  0  0  0  0  0  0  0  0  0  0  0
  -18.5811  -25.4098   23.7844 C   0  0  0  0  0  0  0  0  0  0  0  0
  -21.2080  -25.2540   22.8781 C   0  0  0  0  0  0  0  0  0  0  0  0
  -27.0762  -26.9729   23.2186 C   0  0  0  0  0  0  0  0  0  0  0  0
  -23.3892  -14.4029   19.8655 C   0  0  0  0  0  0  0  0  0  0  0  0
  -25.1903  -12.7949   19.7791 C   0  0  0  0  0  0  0  0  0  0  0  0
  -28.1610  -26.7808   22.3641 C   0  0  0  0  0  0  0  0  0  0  0  0
  -23.2811   -9.7010   19.7567 C   0  0  0  0  0  0  0  0  0  0  0  0
  -23.4647   -8.5524   20.5265 C   0  0  0  0  0  0  0  0  0  0  0  0
  -27.7703  -28.9528   21.3898 C   0  0  0  0  0  0  0  0  0  0  0  0
  -23.2930   -9.8751   22.5410 C   0  0  0  0  0  0  0  0  0  0  0  0
  -25.6816  -15.1465   20.0349 C   0  0  0  0  0  0  0  0  0  0  0  0
  -27.1604  -16.7293   21.3824 C   0  0  0  0  0  0  0  0  0  0  0  0
  -19.1641  -26.5289   23.1692 C   0  0  0  0  0  0  0  0  0  0  0  0
  -26.3224  -28.1538   23.1576 C   0  0  0  0  0  0  0  0  0  0  0  0
  -20.4895  -26.4486   22.7008 C   0  0  0  0  0  0  0  0  0  0  0  0
  -26.6781  -29.1585   22.2464 C   0  0  0  0  0  0  0  0  0  0  0  0
  -23.8258  -13.0830   19.7515 C   0  0  0  0  0  0  0  0  0  0  0  0
  -28.5064  -27.7696   21.4476 C   0  0  0  0  0  0  0  0  0  0  0  0
  -23.1035  -10.9367   20.3790 C   0  0  0  0  0  0  0  0  0  0  0  0
  -23.4706   -8.6394   21.9186 C   0  0  0  0  0  0  0  0  0  0  0  0
  -23.1095  -11.0237   21.7711 C   0  0  0  0  0  0  0  0  0  0  0  0
  -26.6406  -16.2120   20.1807 C   0  0  0  0  0  0  0  0  0  0  0  0
  -28.0258  -17.7188   20.9844 C   0  0  0  0  0  0  0  0  0  0  0  0
  -26.8855  -16.3493   22.7373 C   0  0  0  0  0  0  0  0  0  0  0  0
  -23.2915  -28.8487   22.4984 C   0  0  0  0  0  0  0  0  0  0  0  0
  -24.1938  -31.8388   23.3744 C   0  0  0  0  0  0  0  0  0  0  0  0
  -26.7126  -34.1092   23.7587 C   0  0  0  0  0  0  0  0  0  0  0  0
  -28.9796  -22.1682   17.8786 C   0  0  0  0  0  0  0  0  0  0  0  0
  -18.3251  -27.7659   22.9677 C   0  0  0  0  0  0  0  0  0  0  0  0
  -25.1716  -28.3569   24.1045 C   0  0  0  0  0  0  0  0  0  0  0  0
  -25.9135  -30.4529   22.1549 C   0  0  0  0  0  0  0  0  0  0  0  0
  -19.1446  -29.0102   22.6353 C   0  0  0  0  0  0  0  0  0  0  0  0
  -29.8419  -18.8865   16.4296 C   0  0  0  0  0  0  0  0  0  0  0  0
  -20.1804  -28.6958   21.5605 C   0  0  0  0  0  0  0  0  0  0  0  0
  -29.0761  -17.9464   17.3558 C   0  0  0  0  0  0  0  0  0  0  0  0
  -31.0184  -25.0412   16.4060 C   0  0  0  0  0  0  0  0  0  0  0  0
  -29.1089  -20.2114   16.2235 C   0  0  0  0  0  0  0  0  0  0  0  0
  -27.9977  -19.9635   18.4253 C   0  0  0  0  0  0  0  0  0  0  0  0
  -21.1707  -27.6294   22.0439 C   0  0  1  0  0  0  0  0  0  0  0  0
  -24.1591  -29.3820   23.6032 C   0  0  1  0  0  0  0  0  0  0  0  0
  -28.7431  -18.6450   18.6831 C   0  0  1  0  0  0  0  0  0  0  0  0
  -29.9178  -24.3453   17.1630 C   0  0  2  0  0  0  0  0  0  0  0  0
  -31.1825  -24.7557   17.8704 C   0  0  2  0  0  0  0  0  0  0  0  0
  -27.1363  -36.4821   24.4567 C   0  0  0  0  0  0  0  0  0  0  0  0
  -31.9101  -27.5988   21.1677 C   0  0  0  0  0  0  0  0  0  0  0  0
  -23.0910  -32.8188   20.7035 C   0  0  0  0  0  0  0  0  0  0  0  0
  -24.3667  -34.9471   21.0369 C   0  0  0  0  0  0  0  0  0  0  0  0
  -22.5778  -34.3013   22.6511 C   0  0  0  0  0  0  0  0  0  0  0  0
  -28.4643  -33.2627   25.9890 C   0  0  0  0  0  0  0  0  0  0  0  0
  -30.7482  -25.5337   20.2038 C   0  0  0  0  0  0  0  0  0  0  0  0
  -24.7668  -33.0363   22.6555 C   0  0  1  0  0  0  0  0  0  0  0  0
  -27.0700  -35.0319   24.9099 C   0  0  2  0  0  0  0  0  0  0  0  0
  -30.6345  -26.7702   21.0895 C   0  0  2  0  0  0  0  0  0  1  0  0
  -23.7140  -33.7508   21.7619 C   0  0  0  0  0  0  0  0  0  0  0  0
  -27.1345  -16.8224   19.1002 N   0  0  0  0  0  0  0  0  0  0  0  0
  -27.9735  -17.7337   19.6215 N   0  0  0  0  0  0  0  0  0  0  0  0
  -24.7926  -30.6016   23.0977 N   0  0  0  0  0  0  0  0  0  0  0  0
  -28.7428  -20.8326   17.5061 N   0  0  0  0  0  0  0  0  0  0  0  0
  -28.8186  -18.5690   21.6706 N   0  0  0  0  0  0  0  0  0  0  0  0
  -25.9705  -15.3131   22.9681 N   0  0  0  0  0  0  0  0  0  0  0  0
  -22.1459  -28.2141   22.9393 N   0  0  0  0  0  0  0  0  0  0  0  0
  -25.3537  -33.8878   23.6846 N   0  0  0  0  0  0  0  0  0  0  0  0
  -29.6150  -22.9587   16.9277 N   0  0  0  0  0  0  0  0  0  0  0  0
  -31.1044  -25.9055   18.8119 N   0  3  0  0  0  0  0  0  0  0  0  0
  -28.3941  -34.6574   25.4822 N   0  3  0  0  0  0  0  0  0  0  0  0
  -27.4227  -16.9231   23.7149 O   0  0  0  0  0  0  0  0  0  0  0  0
  -23.6353  -29.0028   21.3324 O   0  0  0  0  0  0  0  0  0  0  0  0
  -23.2543  -31.9965   24.1581 O   0  0  0  0  0  0  0  0  0  0  0  0
  -27.5544  -33.6353   22.9989 O   0  0  0  0  0  0  0  0  0  0  0  0
  -28.6446  -22.6268   18.9764 O   0  0  0  0  0  0  0  0  0  0  0  0
  -22.9206  -12.0760   19.6134 O   0  0  0  0  0  0  0  0  0  0  0  0
  -29.5644  -27.5844   20.6119 O   0  0  0  0  0  0  0  0  0  1  0  0
  -23.6454   -7.5361   22.6578 F   0  0  0  0  0  0  0  0  0  0  0  0
  -22.9382  -12.2079   22.3747 F   0  0  0  0  0  0  0  0  0  0  0  0
  1  2  1  0  0  0  0
  1  5  2  0  0  0  0
  2  6  2  0  0  0  0
  3  8  2  0  0  0  0
  3 15  1  0  0  0  0
  4  9  1  0  0  0  0
  4 15  2  0  0  0  0
  5 17  1  0  0  0  0
  6 19  1  0  0  0  0
  7 10  2  0  0  0  0
  7 18  1  0  0  0  0
  8 21  1  0  0  0  0
  9 21  2  0  0  0  0
 10 22  1  0  0  0  0
 11 12  2  0  0  0  0
 11 23  1  0  0  0  0
 12 24  1  0  0  0  0
 13 20  1  0  0  0  0
 13 22  2  0  0  0  0
 14 24  2  0  0  0  0
 14 25  1  0  0  0  0
 15 26  1  0  0  0  0
 16 26  1  0  0  0  0
 16 27  2  0  0  0  0
 16 28  1  0  0  0  0
 17 19  2  0  0  0  0
 17 33  1  0  0  0  0
 18 20  2  0  0  0  0
 18 34  1  0  0  0  0
 19 43  1  0  0  0  0
 20 35  1  0  0  0  0
 21 75  1  0  0  0  0
 22 76  1  0  0  0  0
 23 25  2  0  0  0  0
 23 75  1  0  0  0  0
 24 77  1  0  0  0  0
 25 78  1  0  0  0  0
 26 59  2  0  0  0  0
 27 60  1  0  0  0  0
 27 63  1  0  0  0  0
 28 64  1  0  0  0  0
 28 70  2  0  0  0  0
 29 44  1  0  0  0  0
 29 65  1  0  0  0  0
 29 71  2  0  0  0  0
 30 55  1  0  0  0  0
 30 61  1  0  0  0  0
 30 72  2  0  0  0  0
 31 56  1  0  0  0  0
 31 66  1  0  0  0  0
 31 73  2  0  0  0  0
 32 62  1  0  0  0  0
 32 67  1  0  0  0  0
 32 74  2  0  0  0  0
 33 36  1  0  0  0  0
 34 44  1  0  0  0  0
 35 61  1  0  0  0  0
 36 38  1  0  0  0  0
 37 39  1  0  0  0  0
 37 41  1  0  0  0  0
 38 43  1  0  0  0  0
 39 45  1  0  0  0  0
 40 46  1  0  0  0  0
 40 47  1  0  0  0  0
 41 62  1  0  0  0  0
 42 45  1  0  0  0  0
 42 62  1  0  0  0  0
 43 65  1  0  0  0  0
 44 61  1  0  0  0  0
 45 60  1  0  0  0  0
 46 47  1  0  0  0  0
 46 67  1  0  0  0  0
 47 68  1  0  0  0  0
 48 56  1  0  0  0  0
 49 57  1  0  0  0  0
 50 58  1  0  0  0  0
 51 58  1  0  0  0  0
 52 58  1  0  0  0  0
 53 69  1  0  0  0  0
 54 57  1  0  0  0  0
 54 68  1  0  0  0  0
 55 58  1  0  0  0  0
 55 66  1  0  0  0  0
 56 69  1  0  0  0  0
 57 76  1  0  0  0  0
 59 60  1  0  0  0  0
M  CHG  2  68   1  69   1
M  ISO  4  32 100  57 101  67 100  76 101
M  END
> <Batch ID>
0189

> <Smiles>
CNC(C)C(=O)NC(C(=O)N1Cc2cc([101O:1][101CH:1](C)CNC3CC3[100NH:0][100C:0](=O)N3CCCC(n4nc(-c5ccc(Oc6ccc(F)cc6F)cc5)c(C(N)=O)c4N)C3)ccc2CC1C(=O)NC1CCCc2ccccc21)C(C)(C)C

> <Shape>
0.296

> <Color>
0.082

> <Negative vol penalty>
0.000

$$$$

  -OEChem-04052323223D

 83 92  0     1  0  0  0  0  0999 V2000
  -32.5825  -14.3212   20.2461 C   0  0  0  0  0  0  0  0  0  0  0  0
  -31.8222  -15.3953   19.7950 C   0  0  0  0  0  0  0  0  0  0  0  0
  -26.1300  -29.4148   21.5899 C   0  0  0  0  0  0  0  0  0  0  0  0
  -24.1462  -30.0497   20.3657 C   0  0  0  0  0  0  0  0  0  0  0  0
  -32.0047  -13.0571   20.3564 C   0  0  0  0  0  0  0  0  0  0  0  0
  -30.4837  -15.2057   19.4528 C   0  0  0  0  0  0  0  0  0  0  0  0
  -25.2528  -18.8959   22.7560 C   0  0  0  0  0  0  0  0  0  0  0  0
  -26.3694  -28.3925   20.6717 C   0  0  0  0  0  0  0  0  0  0  0  0
  -24.3857  -29.0274   19.4475 C   0  0  0  0  0  0  0  0  0  0  0  0
  -24.2121  -19.7153   23.1935 C   0  0  0  0  0  0  0  0  0  0  0  0
  -25.2102  -25.2782   20.0538 C   0  0  0  0  0  0  0  0  0  0  0  0
  -25.5622  -24.0257   20.5567 C   0  0  0  0  0  0  0  0  0  0  0  0
  -22.6379  -18.4383   21.8747 C   0  0  0  0  0  0  0  0  0  0  0  0
  -27.6563  -24.1321   19.3565 C   0  0  0  0  0  0  0  0  0  0  0  0
  -25.0183  -30.2434   21.4369 C   0  0  0  0  0  0  0  0  0  0  0  0
  -25.6134  -32.3850   22.6889 C   0  0  0  0  0  0  0  0  0  0  0  0
  -30.6559  -12.8539   20.0246 C   0  0  0  0  0  0  0  0  0  0  0  0
  -24.9874  -17.8338   21.8872 C   0  0  0  0  0  0  0  0  0  0  0  0
  -29.8877  -13.9374   19.5574 C   0  0  0  0  0  0  0  0  0  0  0  0
  -23.6745  -17.6065   21.4428 C   0  0  0  0  0  0  0  0  0  0  0  0
  -25.4973  -28.1988   19.6005 C   0  0  0  0  0  0  0  0  0  0  0  0
  -22.9079  -19.4872   22.7537 C   0  0  0  0  0  0  0  0  0  0  0  0
  -26.0813  -25.9577   19.2021 C   0  0  0  0  0  0  0  0  0  0  0  0
  -26.7852  -23.4527   20.2081 C   0  0  0  0  0  0  0  0  0  0  0  0
  -27.3043  -25.3846   18.8535 C   0  0  0  0  0  0  0  0  0  0  0  0
  -24.7701  -31.2993   22.3854 C   0  0  0  0  0  0  0  0  0  0  0  0
  -24.9281  -33.0955   23.6439 C   0  0  0  0  0  0  0  0  0  0  0  0
  -26.9009  -32.7212   22.1551 C   0  0  0  0  0  0  0  0  0  0  0  0
  -26.3493  -14.9305   19.9398 C   0  0  0  0  0  0  0  0  0  0  0  0
  -19.7470  -25.2337   21.9044 C   0  0  0  0  0  0  0  0  0  0  0  0
  -23.6704  -14.0268   21.1304 C   0  0  0  0  0  0  0  0  0  0  0  0
  -20.8905  -13.2883   22.9643 C   0  0  0  0  0  0  0  0  0  0  0  0
  -20.0092  -30.3412   23.7194 C   0  0  0  0  0  0  0  0  0  0  0  0
  -30.0882  -11.4596   20.1151 C   0  0  0  0  0  0  0  0  0  0  0  0
  -26.0868  -16.9634   21.3417 C   0  0  0  0  0  0  0  0  0  0  0  0
  -23.4412  -16.4735   20.4811 C   0  0  0  0  0  0  0  0  0  0  0  0
  -28.5624  -11.4203   20.0889 C   0  0  0  0  0  0  0  0  0  0  0  0
  -22.5992  -30.7792   26.3845 C   0  0  0  0  0  0  0  0  0  0  0  0
  -28.0245  -12.3139   18.9758 C   0  0  0  0  0  0  0  0  0  0  0  0
  -22.9223  -32.2643   26.2334 C   0  0  0  0  0  0  0  0  0  0  0  0
  -21.1696  -30.4865   25.9510 C   0  0  0  0  0  0  0  0  0  0  0  0
  -18.7618  -27.4750   22.2333 C   0  0  0  0  0  0  0  0  0  0  0  0
  -21.1705  -27.1641   22.7383 C   0  0  0  0  0  0  0  0  0  0  0  0
  -18.6162  -28.3055   23.5017 C   0  0  0  0  0  0  0  0  0  0  0  0
  -21.0137  -28.0286   23.9907 C   0  0  0  0  0  0  0  0  0  0  0  0
  -21.2118  -32.3966   24.3707 C   0  0  0  0  0  0  0  0  0  0  0  0
  -21.9285  -22.1621   21.4890 C   0  0  0  0  0  0  0  0  0  0  0  0
  -20.2094  -22.0997   22.6736 C   0  0  0  0  0  0  0  0  0  0  0  0
  -28.4260  -13.7768   19.2002 C   0  0  1  0  0  0  0  0  0  0  0  0
  -25.6547  -15.4996   21.1419 C   0  0  1  0  0  0  0  0  0  0  0  0
  -22.6379  -32.7847   24.8104 C   0  0  2  0  0  0  0  0  0  0  0  0
  -21.1741  -21.0094   22.1751 C   0  0  0  0  0  0  0  0  0  1  0  0
  -19.2786  -11.4231   23.4338 C   0  0  0  0  0  0  0  0  0  0  0  0
  -22.3331  -14.5083   18.4316 C   0  0  0  0  0  0  0  0  0  0  0  0
  -20.2836  -13.3824   19.3261 C   0  0  0  0  0  0  0  0  0  0  0  0
  -22.4219  -12.1113   19.1394 C   0  0  0  0  0  0  0  0  0  0  0  0
  -21.5924  -13.2497   25.8392 C   0  0  0  0  0  0  0  0  0  0  0  0
  -20.9554  -24.3404   22.0325 C   0  0  0  0  0  0  0  0  0  0  0  0
  -22.1832  -13.8790   20.9311 C   0  0  1  0  0  0  0  0  0  0  0  0
  -20.5623  -12.1133   23.8678 C   0  0  2  0  0  0  0  0  0  0  0  0
  -21.8165  -13.4928   19.4703 C   0  0  0  0  0  0  0  0  0  0  0  0
  -23.6359  -31.3145   23.0906 N   0  0  0  0  0  0  0  0  0  0  0  0
  -23.7617  -32.4184   23.8467 N   0  0  0  0  0  0  0  0  0  0  0  0
  -24.2171  -15.2944   20.8963 N   0  0  0  0  0  0  0  0  0  0  0  0
  -19.8988  -26.5555   22.3265 N   0  0  0  0  0  0  0  0  0  0  0  0
  -20.9022  -30.9817   24.5957 N   0  0  0  0  0  0  0  0  0  0  0  0
  -19.8803  -28.9503   23.8501 N   0  0  0  0  0  0  0  0  0  0  0  0
  -25.2156  -34.2271   24.3215 N   0  0  0  0  0  0  0  0  0  0  0  0
  -26.9604  -33.5447   21.0226 N   0  0  0  0  0  0  0  0  0  0  0  0
  -27.5875  -14.3814   20.2130 N   0  0  0  0  0  0  0  0  0  0  0  0
  -21.7302  -12.9213   21.9340 N   0  0  0  0  0  0  0  0  0  0  0  0
  -20.6906  -22.9586   21.5757 N   0  3  0  0  0  0  0  0  0  0  0  0
  -20.3959  -12.5731   25.2756 N   0  3  0  0  0  0  0  0  0  0  0  0
  -27.9665  -32.2903   22.6576 O   0  0  0  0  0  0  0  0  0  0  0  0
  -25.8024  -14.9837   18.8445 O   0  0  0  0  0  0  0  0  0  0  0  0
  -18.6999  -24.7690   21.4467 O   0  0  0  0  0  0  0  0  0  0  0  0
  -24.3328  -13.0453   21.4785 O   0  0  0  0  0  0  0  0  0  0  0  0
  -20.4434  -14.4177   23.1516 O   0  0  0  0  0  0  0  0  0  0  0  0
  -19.3768  -30.9746   22.8652 O   0  0  0  0  0  0  0  0  0  0  0  0
  -25.7308  -27.2014   18.7042 O   0  0  0  0  0  0  0  0  0  0  0  0
  -21.8936  -20.2900   23.1893 O   0  0  0  0  0  0  0  0  0  1  0  0
  -27.1237  -22.2506   20.6924 F   0  0  0  0  0  0  0  0  0  0  0  0
  -28.1458  -26.0331   18.0366 F   0  0  0  0  0  0  0  0  0  0  0  0
  1  2  1  0  0  0  0
  1  5  2  0  0  0  0
  2  6  2  0  0  0  0
  3  8  2  0  0  0  0
  3 15  1  0  0  0  0
  4  9  1  0  0  0  0
  4 15  2  0  0  0  0
  5 17  1  0  0  0  0
  6 19  1  0  0  0  0
  7 10  2  0  0  0  0
  7 18  1  0  0  0  0
  8 21  1  0  0  0  0
  9 21  2  0  0  0  0
 10 22  1  0  0  0  0
 11 12  2  0  0  0  0
 11 23  1  0  0  0  0
 12 24  1  0  0  0  0
 13 20  1  0  0  0  0
 13 22  2  0  0  0  0
 14 24  2  0  0  0  0
 14 25  1  0  0  0  0
 15 26  1  0  0  0  0
 16 26  1  0  0  0  0
 16 27  2  0  0  0  0
 16 28  1  0  0  0  0
 17 19  2  0  0  0  0
 17 34  1  0  0  0  0
 18 20  2  0  0  0  0
 18 35  1  0  0  0  0
 19 49  1  0  0  0  0
 20 36  1  0  0  0  0
 21 80  1  0  0  0  0
 22 81  1  0  0  0  0
 23 25  2  0  0  0  0
 23 80  1  0  0  0  0
 24 82  1  0  0  0  0
 25 83  1  0  0  0  0
 26 62  2  0  0  0  0
 27 63  1  0  0  0  0
 27 68  1  0  0  0  0
 28 69  1  0  0  0  0
 28 74  2  0  0  0  0
 29 50  1  0  0  0  0
 29 70  1  0  0  0  0
 29 75  2  0  0  0  0
 30 58  1  0  0  0  0
 30 65  1  0  0  0  0
 30 76  2  0  0  0  0
 31 59  1  0  0  0  0
 31 64  1  0  0  0  0
 31 77  2  0  0  0  0
 32 60  1  0  0  0  0
 32 71  1  0  0  0  0
 32 78  2  0  0  0  0
 33 66  1  0  0  0  0
 33 67  1  0  0  0  0
 33 79  2  0  0  0  0
 34 37  1  0  0  0  0
 35 50  1  0  0  0  0
 36 64  1  0  0  0  0
 37 39  1  0  0  0  0
 38 40  1  0  0  0  0
 38 41  1  0  0  0  0
 39 49  1  0  0  0  0
 40 51  1  0  0  0  0
 41 66  1  0  0  0  0
 42 44  1  0  0  0  0
 42 65  1  0  0  0  0
 43 45  1  0  0  0  0
 43 65  1  0  0  0  0
 44 67  1  0  0  0  0
 45 67  1  0  0  0  0
 46 51  1  0  0  0  0
 46 66  1  0  0  0  0
 47 52  1  0  0  0  0
 47 72  1  0  0  0  0
 48 52  1  0  0  0  0
 48 72  1  0  0  0  0
 49 70  1  0  0  0  0
 50 64  1  0  0  0  0
 51 63  1  0  0  0  0
 52 81  1  0  0  0  0
 53 60  1  0  0  0  0
 54 61  1  0  0  0  0
 55 61  1  0  0  0  0
 56 61  1  0  0  0  0
 57 73  1  0  0  0  0
 58 72  1  0  0  0  0
 59 61  1  0  0  0  0
 59 71  1  0  0  0  0
 60 73  1  0  0  0  0
 62 63  1  0  0  0  0
M  CHG  2  72   1  73   1
M  ISO  4  33 100  52 101  67 100  81 101
M  END
> <Batch ID>
0189

> <Smiles>
CNC(C)C(=O)NC(C(=O)N1Cc2cc([101O:1][101CH:1]3CN(CC(=O)N4CC[100N:0]([100C:0](=O)N5CCCC(n6nc(-c7ccc(Oc8ccc(F)cc8F)cc7)c(C(N)=O)c6N)C5)CC4)C3)ccc2CC1C(=O)NC1CCCc2ccccc21)C(C)(C)C

> <Shape>
0.248

> <Color>
0.075

> <Negative vol penalty>
0.000

$$$$

  -OEChem-04052323223D

 82 91  0     1  0  0  0  0  0999 V2000
  -22.7682   -6.5912   23.5329 C   0  0  0  0  0  0  0  0  0  0  0  0
  -23.9658   -7.2188   23.8604 C   0  0  0  0  0  0  0  0  0  0  0  0
  -23.6507  -29.6794   21.1234 C   0  0  0  0  0  0  0  0  0  0  0  0
  -25.8499  -29.9919   22.0736 C   0  0  0  0  0  0  0  0  0  0  0  0
  -22.0570   -6.9949   22.4037 C   0  0  0  0  0  0  0  0  0  0  0  0
  -24.4535   -8.2498   23.0582 C   0  0  0  0  0  0  0  0  0  0  0  0
  -28.1659  -14.3626   23.4675 C   0  0  0  0  0  0  0  0  0  0  0  0
  -23.1386  -30.6437   21.9914 C   0  0  0  0  0  0  0  0  0  0  0  0
  -25.3378  -30.9562   22.9417 C   0  0  0  0  0  0  0  0  0  0  0  0
  -29.2728  -14.9907   22.8982 C   0  0  0  0  0  0  0  0  0  0  0  0
  -24.4473  -34.2131   22.7982 C   0  0  0  0  0  0  0  0  0  0  0  0
  -25.1723  -35.3947   22.9521 C   0  0  0  0  0  0  0  0  0  0  0  0
  -27.9191  -15.6574   21.0162 C   0  0  0  0  0  0  0  0  0  0  0  0
  -25.4067  -34.9433   25.3140 C   0  0  0  0  0  0  0  0  0  0  0  0
  -34.5486  -16.9265   20.0635 C   0  0  0  0  0  0  0  0  0  0  0  0
  -34.4179  -18.2682   19.7803 C   0  0  0  0  0  0  0  0  0  0  0  0
  -25.0064  -29.3535   21.1645 C   0  0  0  0  0  0  0  0  0  0  0  0
  -26.0631  -28.5666   18.9800 C   0  0  0  0  0  0  0  0  0  0  0  0
  -22.5313   -8.0379   21.5926 C   0  0  0  0  0  0  0  0  0  0  0  0
  -26.9278  -14.3679   22.8091 C   0  0  0  0  0  0  0  0  0  0  0  0
  -23.7486   -8.6670   21.9163 C   0  0  0  0  0  0  0  0  0  0  0  0
  -26.7974  -15.0308   21.5804 C   0  0  0  0  0  0  0  0  0  0  0  0
  -23.9821  -31.2821   22.9005 C   0  0  0  0  0  0  0  0  0  0  0  0
  -29.1502  -15.6357   21.6710 C   0  0  0  0  0  0  0  0  0  0  0  0
  -24.2020  -33.3965   23.9022 C   0  0  0  0  0  0  0  0  0  0  0  0
  -25.6520  -35.7598   24.2100 C   0  0  0  0  0  0  0  0  0  0  0  0
  -24.6817  -33.7616   25.1600 C   0  0  0  0  0  0  0  0  0  0  0  0
  -25.5359  -28.3571   20.2685 C   0  0  0  0  0  0  0  0  0  0  0  0
  -32.5112  -16.9472   21.1018 C   0  0  0  0  0  0  0  0  0  0  0  0
  -32.3808  -18.2891   20.8193 C   0  0  0  0  0  0  0  0  0  0  0  0
  -26.4277  -27.3140   18.5504 C   0  0  0  0  0  0  0  0  0  0  0  0
  -26.2101  -29.7845   18.2380 C   0  0  0  0  0  0  0  0  0  0  0  0
  -25.0074  -12.1287   21.6251 C   0  0  0  0  0  0  0  0  0  0  0  0
  -23.0182  -14.6441   21.1369 C   0  0  0  0  0  0  0  0  0  0  0  0
  -22.6573  -18.0081   20.6898 C   0  0  0  0  0  0  0  0  0  0  0  0
  -28.9837  -22.5626   19.5051 C   0  0  0  0  0  0  0  0  0  0  0  0
  -21.7516   -8.4077   20.3557 C   0  0  0  0  0  0  0  0  0  0  0  0
  -25.7370  -13.7087   23.4492 C   0  0  0  0  0  0  0  0  0  0  0  0
  -25.4853  -15.0827   20.8427 C   0  0  0  0  0  0  0  0  0  0  0  0
  -22.1472   -9.7598   19.7679 C   0  0  0  0  0  0  0  0  0  0  0  0
  -25.4456  -22.7509   20.4435 C   0  0  0  0  0  0  0  0  0  0  0  0
  -23.6655   -9.8844   19.6900 C   0  0  0  0  0  0  0  0  0  0  0  0
  -25.2196  -24.2591   20.4307 C   0  0  0  0  0  0  0  0  0  0  0  0
  -26.8561  -22.3781   20.9021 C   0  0  0  0  0  0  0  0  0  0  0  0
  -27.6996  -24.5780   20.1275 C   0  0  0  0  0  0  0  0  0  0  0  0
  -30.6861  -20.6582   19.5304 C   0  0  0  0  0  0  0  0  0  0  0  0
  -29.5319  -20.7503   21.3154 C   0  0  0  0  0  0  0  0  0  0  0  0
  -24.2978   -9.8059   21.0848 C   0  0  1  0  0  0  0  0  0  0  0  0
  -24.6499  -13.3353   22.4461 C   0  0  1  0  0  0  0  0  0  0  0  0
  -26.3079  -24.9594   19.6036 C   0  0  2  0  0  0  0  0  0  0  0  0
  -30.9783  -20.3446   21.0019 C   0  0  0  0  0  0  0  0  0  0  0  0
  -20.9131  -19.7646   20.2773 C   0  0  0  0  0  0  0  0  0  0  0  0
  -22.8275  -13.7665   18.2208 C   0  0  0  0  0  0  0  0  0  0  0  0
  -21.8901  -16.0231   17.6756 C   0  0  0  0  0  0  0  0  0  0  0  0
  -20.6630  -14.5073   19.2310 C   0  0  0  0  0  0  0  0  0  0  0  0
  -23.3037  -19.4083   23.2157 C   0  0  0  0  0  0  0  0  0  0  0  0
  -31.4562  -16.1930   21.8384 C   0  0  0  0  0  0  0  0  0  1  0  0
  -22.7917  -15.6254   20.0123 C   0  0  1  0  0  0  0  0  0  0  0  0
  -21.7163  -19.0139   21.3281 C   0  0  2  0  0  0  0  0  0  0  0  0
  -22.0684  -14.9781   18.7976 C   0  0  0  0  0  0  0  0  0  0  0  0
  -33.5976  -16.2419   20.7293 N   0  0  0  0  0  0  0  0  0  0  0  0
  -33.3317  -18.9736   20.1532 N   0  0  0  0  0  0  0  0  0  0  0  0
  -25.5613  -27.0725   20.6334 N   0  0  0  0  0  0  0  0  0  0  0  0
  -26.1088  -26.4635   19.5678 N   0  0  0  0  0  0  0  0  0  0  0  0
  -24.3517  -14.4180   21.5065 N   0  0  0  0  0  0  0  0  0  0  0  0
  -27.8857  -23.1227   20.1671 N   0  0  0  0  0  0  0  0  0  0  0  0
  -29.5299  -21.4080   20.0159 N   0  0  0  0  0  0  0  0  0  0  0  0
  -26.9866  -26.8682   17.4053 N   0  0  0  0  0  0  0  0  0  0  0  0
  -25.7841  -30.9822   18.8283 N   0  0  0  0  0  0  0  0  0  0  0  0
  -31.2283  -18.9659   21.2328 N   0  0  0  0  0  0  0  0  0  0  0  0
  -24.1406  -11.0641   21.7825 N   0  0  0  0  0  0  0  0  0  0  0  0
  -22.0820  -16.7585   20.5960 N   0  0  0  0  0  0  0  0  0  0  0  0
  -22.4858  -20.0070   22.1296 N   0  3  0  0  0  0  0  0  0  0  0  0
  -26.6896  -29.8079   17.0791 O   0  0  0  0  0  0  0  0  0  0  0  0
  -25.9956  -12.1618   20.9012 O   0  0  0  0  0  0  0  0  0  0  0  0
  -22.0474  -14.1036   21.6726 O   0  0  0  0  0  0  0  0  0  0  0  0
  -23.7881  -18.3025   20.3088 O   0  0  0  0  0  0  0  0  0  0  0  0
  -29.4836  -23.0933   18.5044 O   0  0  0  0  0  0  0  0  0  0  0  0
  -23.4828  -32.2232   23.7476 O   0  0  0  0  0  0  0  0  0  0  0  0
  -30.2366  -16.2532   21.1090 O   0  0  0  0  0  0  0  0  0  1  0  0
  -26.3494  -36.8938   24.3574 F   0  0  0  0  0  0  0  0  0  0  0  0
  -24.4502  -32.9806   26.2241 F   0  0  0  0  0  0  0  0  0  0  0  0
  1  2  1  0  0  0  0
  1  5  2  0  0  0  0
  2  6  2  0  0  0  0
  3  8  2  0  0  0  0
  3 17  1  0  0  0  0
  4  9  1  0  0  0  0
  4 17  2  0  0  0  0
  5 19  1  0  0  0  0
  6 21  1  0  0  0  0
  7 10  2  0  0  0  0
  7 20  1  0  0  0  0
  8 23  1  0  0  0  0
  9 23  2  0  0  0  0
 10 24  1  0  0  0  0
 11 12  2  0  0  0  0
 11 25  1  0  0  0  0
 12 26  1  0  0  0  0
 13 22  1  0  0  0  0
 13 24  2  0  0  0  0
 14 26  2  0  0  0  0
 14 27  1  0  0  0  0
 15 16  1  0  0  0  0
 15 61  2  0  0  0  0
 16 62  2  0  0  0  0
 17 28  1  0  0  0  0
 18 28  1  0  0  0  0
 18 31  2  0  0  0  0
 18 32  1  0  0  0  0
 19 21  2  0  0  0  0
 19 37  1  0  0  0  0
 20 22  2  0  0  0  0
 20 38  1  0  0  0  0
 21 48  1  0  0  0  0
 22 39  1  0  0  0  0
 23 79  1  0  0  0  0
 24 80  1  0  0  0  0
 25 27  2  0  0  0  0
 25 79  1  0  0  0  0
 26 81  1  0  0  0  0
 27 82  1  0  0  0  0
 28 63  2  0  0  0  0
 29 30  2  0  0  0  0
 29 57  1  0  0  0  0
 29 61  1  0  0  0  0
 30 62  1  0  0  0  0
 30 70  1  0  0  0  0
 31 64  1  0  0  0  0
 31 68  1  0  0  0  0
 32 69  1  0  0  0  0
 32 74  2  0  0  0  0
 33 49  1  0  0  0  0
 33 71  1  0  0  0  0
 33 75  2  0  0  0  0
 34 58  1  0  0  0  0
 34 65  1  0  0  0  0
 34 76  2  0  0  0  0
 35 59  1  0  0  0  0
 35 72  1  0  0  0  0
 35 77  2  0  0  0  0
 36 66  1  0  0  0  0
 36 67  1  0  0  0  0
 36 78  2  0  0  0  0
 37 40  1  0  0  0  0
 38 49  1  0  0  0  0
 39 65  1  0  0  0  0
 40 42  1  0  0  0  0
 41 43  1  0  0  0  0
 41 44  1  0  0  0  0
 42 48  1  0  0  0  0
 43 50  1  0  0  0  0
 44 66  1  0  0  0  0
 45 50  1  0  0  0  0
 45 66  1  0  0  0  0
 46 51  1  0  0  0  0
 46 67  1  0  0  0  0
 47 51  1  0  0  0  0
 47 67  1  0  0  0  0
 48 71  1  0  0  0  0
 49 65  1  0  0  0  0
 50 64  1  0  0  0  0
 51 70  1  0  0  0  0
 52 59  1  0  0  0  0
 53 60  1  0  0  0  0
 54 60  1  0  0  0  0
 55 60  1  0  0  0  0
 56 73  1  0  0  0  0
 57 80  1  0  0  0  0
 58 60  1  0  0  0  0
 58 72  1  0  0  0  0
 59 73  1  0  0  0  0
 63 64  1  0  0  0  0
M  CHG  1  73   1
M  ISO  4  36 100  57 101  67 100  80 101
M  END
> <Batch ID>
0189

> <Smiles>
CNC(C)C(=O)NC(C(=O)N1Cc2cc([101O:1][101CH2:1]c3nccnc3NC3C[100N:0]([100C:0](=O)N4CCCC(n5nc(-c6ccc(Oc7ccc(F)cc7F)cc6)c(C(N)=O)c5N)C4)C3)ccc2CC1C(=O)NC1CCCc2ccccc21)C(C)(C)C

> <Shape>
0.252

> <Color>
0.080

> <Negative vol penalty>
0.000

$$$$

  -OEChem-04052323223D

 85 94  0     1  0  0  0  0  0999 V2000
  -29.3123  -36.5232   20.7229 C   0  0  0  0  0  0  0  0  0  0  0  0
  -29.0542  -35.5745   19.7386 C   0  0  0  0  0  0  0  0  0  0  0  0
  -23.1822  -10.1485   19.8456 C   0  0  0  0  0  0  0  0  0  0  0  0
  -24.0287   -9.7608   22.0750 C   0  0  0  0  0  0  0  0  0  0  0  0
  -29.3011  -36.1524   22.0669 C   0  0  0  0  0  0  0  0  0  0  0  0
  -28.7857  -34.2541   20.0978 C   0  0  0  0  0  0  0  0  0  0  0  0
  -24.9382  -28.5773   18.0276 C   0  0  0  0  0  0  0  0  0  0  0  0
  -22.5084   -8.9280   19.8891 C   0  0  0  0  0  0  0  0  0  0  0  0
  -23.3548   -8.5403   22.1186 C   0  0  0  0  0  0  0  0  0  0  0  0
  -25.0889  -27.2222   17.7363 C   0  0  0  0  0  0  0  0  0  0  0  0
  -20.1972   -7.4577   22.6461 C   0  0  0  0  0  0  0  0  0  0  0  0
  -19.4890   -7.1512   23.8080 C   0  0  0  0  0  0  0  0  0  0  0  0
  -25.0180  -26.7138   20.0933 C   0  0  0  0  0  0  0  0  0  0  0  0
  -20.8552   -5.1834   24.1217 C   0  0  0  0  0  0  0  0  0  0  0  0
  -23.9424  -10.5649   20.9386 C   0  0  0  0  0  0  0  0  0  0  0  0
  -24.1500  -13.0819   21.2984 C   0  0  0  0  0  0  0  0  0  0  0  0
  -29.0228  -34.8290   22.4432 C   0  0  0  0  0  0  0  0  0  0  0  0
  -24.8370  -29.0126   19.3567 C   0  0  0  0  0  0  0  0  0  0  0  0
  -28.7721  -33.8650   21.4481 C   0  0  0  0  0  0  0  0  0  0  0  0
  -24.8635  -28.0747   20.3987 C   0  0  0  0  0  0  0  0  0  0  0  0
  -22.5947   -8.1239   21.0256 C   0  0  0  0  0  0  0  0  0  0  0  0
  -25.1317  -26.2905   18.7694 C   0  0  0  0  0  0  0  0  0  0  0  0
  -21.2344   -6.6270   22.2219 C   0  0  0  0  0  0  0  0  0  0  0  0
  -19.8180   -6.0141   24.5459 C   0  0  0  0  0  0  0  0  0  0  0  0
  -21.5634   -5.4899   22.9597 C   0  0  0  0  0  0  0  0  0  0  0  0
  -24.6392  -11.8253   20.8940 C   0  0  0  0  0  0  0  0  0  0  0  0
  -24.5577  -22.2076   16.5513 C   0  0  0  0  0  0  0  0  0  0  0  0
  -25.4750  -23.1457   16.9625 C   0  0  0  0  0  0  0  0  0  0  0  0
  -25.1876  -13.9485   21.0561 C   0  0  0  0  0  0  0  0  0  0  0  0
  -26.3275  -21.1138   17.0006 C   0  0  0  0  0  0  0  0  0  0  0  0
  -22.8719  -13.4342   21.8445 C   0  0  0  0  0  0  0  0  0  0  0  0
  -26.5636  -30.9105   21.2331 C   0  0  0  0  0  0  0  0  0  0  0  0
  -24.1094  -30.4465   23.3029 C   0  0  0  0  0  0  0  0  0  0  0  0
  -21.5064  -28.4866   24.3177 C   0  0  0  0  0  0  0  0  0  0  0  0
  -29.1478  -15.6904   17.4284 C   0  0  0  0  0  0  0  0  0  0  0  0
  -29.0685  -34.4654   23.9062 C   0  0  0  0  0  0  0  0  0  0  0  0
  -24.6479  -30.4751   19.6529 C   0  0  0  0  0  0  0  0  0  0  0  0
  -24.7387  -28.4885   21.8415 C   0  0  0  0  0  0  0  0  0  0  0  0
  -28.4058  -33.1270   24.2222 C   0  0  0  0  0  0  0  0  0  0  0  0
  -30.0173  -13.0684   19.8455 C   0  0  0  0  0  0  0  0  0  0  0  0
  -28.8591  -32.0597   23.2311 C   0  0  0  0  0  0  0  0  0  0  0  0
  -28.6489  -12.5852   20.3280 C   0  0  0  0  0  0  0  0  0  0  0  0
  -26.4419  -18.0670   18.1677 C   0  0  0  0  0  0  0  0  0  0  0  0
  -29.9688  -13.5789   18.4072 C   0  0  0  0  0  0  0  0  0  0  0  0
  -26.8101  -16.6029   17.9516 C   0  0  0  0  0  0  0  0  0  0  0  0
  -27.5750  -14.1173   18.6372 C   0  0  0  0  0  0  0  0  0  0  0  0
  -28.4431  -18.0033   16.8852 C   0  0  0  0  0  0  0  0  0  0  0  0
  -28.4522  -32.4282   21.7992 C   0  0  1  0  0  0  0  0  0  0  0  0
  -25.0711  -30.8578   21.0678 C   0  0  1  0  0  0  0  0  0  0  0  0
  -27.5692  -13.6601   20.1025 C   0  0  1  0  0  0  0  0  0  0  0  0
  -27.1204  -18.7482   16.9843 C   0  0  2  0  0  0  0  0  0  0  0  0
  -23.1658  -22.4153   16.1206 C   0  0  0  0  0  0  0  0  0  0  0  0
  -28.0535  -22.7564   19.2107 C   0  0  0  0  0  0  0  0  0  0  0  0
  -19.7073  -28.3489   26.0617 C   0  0  0  0  0  0  0  0  0  0  0  0
  -26.1799  -29.5708   25.3660 C   0  0  0  0  0  0  0  0  0  0  0  0
  -24.3182  -28.5665   26.7054 C   0  0  0  0  0  0  0  0  0  0  0  0
  -24.3553  -31.0225   26.2704 C   0  0  0  0  0  0  0  0  0  0  0  0
  -19.3625  -28.5704   22.2791 C   0  0  0  0  0  0  0  0  0  0  0  0
  -25.3842  -24.6097   17.1060 C   0  0  0  0  0  0  0  0  0  1  0  0
  -27.8561  -22.9773   17.7208 C   0  0  0  0  0  0  0  0  0  0  0  0
  -23.7968  -29.4376   24.3815 C   0  0  1  0  0  0  0  0  0  0  0  0
  -20.0667  -28.8231   24.6622 C   0  0  2  0  0  0  0  0  0  0  0  0
  -24.6669  -29.6414   25.6538 C   0  0  0  0  0  0  0  0  0  0  0  0
  -25.8902  -11.8841   20.4298 N   0  0  0  0  0  0  0  0  0  0  0  0
  -25.0944  -20.9448   16.5776 N   0  0  0  0  0  0  0  0  0  0  0  0
  -26.6036  -22.4300   17.2473 N   0  0  0  0  0  0  0  0  0  0  0  0
  -26.1958  -13.1881   20.5410 N   0  0  0  0  0  0  0  0  0  0  0  0
  -24.5619  -29.9305   22.0803 N   0  0  0  0  0  0  0  0  0  0  0  0
  -28.9106  -14.5752   18.2395 N   0  0  0  0  0  0  0  0  0  0  0  0
  -28.1375  -16.6465   17.3327 N   0  0  0  0  0  0  0  0  0  0  0  0
  -25.3268  -15.2793   21.2355 N   0  0  0  0  0  0  0  0  0  0  0  0
  -21.9215  -12.4206   22.0282 N   0  0  0  0  0  0  0  0  0  0  0  0
  -27.3110  -20.1566   17.2100 N   0  0  0  0  0  0  0  0  0  0  0  0
  -27.0468  -32.1557   21.5872 N   0  0  0  0  0  0  0  0  0  0  0  0
  -22.3602  -29.5264   24.6195 N   0  0  0  0  0  0  0  0  0  0  0  0
  -19.1375  -28.1757   23.6935 N   0  3  0  0  0  0  0  0  0  0  0  0
  -22.5755  -14.6155   22.1448 O   0  0  0  0  0  0  0  0  0  0  0  0
  -27.2275  -29.8962   21.0540 O   0  0  0  0  0  0  0  0  0  0  0  0
  -23.9510  -31.6478   23.5343 O   0  0  0  0  0  0  0  0  0  0  0  0
  -21.8407  -27.4077   23.8330 O   0  0  0  0  0  0  0  0  0  0  0  0
  -30.2323  -15.8489   16.8524 O   0  0  0  0  0  0  0  0  0  0  0  0
  -21.9371   -6.9330   21.0685 O   0  0  0  0  0  0  0  0  0  0  0  0
  -25.2802  -24.9608   18.4865 O   0  0  0  0  0  0  0  0  0  1  0  0
  -19.1389   -5.7208   25.6625 F   0  0  0  0  0  0  0  0  0  0  0  0
  -22.5596   -4.6887   22.5579 F   0  0  0  0  0  0  0  0  0  0  0  0
  1  2  1  0  0  0  0
  1  5  2  0  0  0  0
  2  6  2  0  0  0  0
  3  8  2  0  0  0  0
  3 15  1  0  0  0  0
  4  9  1  0  0  0  0
  4 15  2  0  0  0  0
  5 17  1  0  0  0  0
  6 19  1  0  0  0  0
  7 10  2  0  0  0  0
  7 18  1  0  0  0  0
  8 21  1  0  0  0  0
  9 21  2  0  0  0  0
 10 22  1  0  0  0  0
 11 12  2  0  0  0  0
 11 23  1  0  0  0  0
 12 24  1  0  0  0  0
 13 20  1  0  0  0  0
 13 22  2  0  0  0  0
 14 24  2  0  0  0  0
 14 25  1  0  0  0  0
 15 26  1  0  0  0  0
 16 26  1  0  0  0  0
 16 29  2  0  0  0  0
 16 31  1  0  0  0  0
 17 19  2  0  0  0  0
 17 36  1  0  0  0  0
 18 20  2  0  0  0  0
 18 37  1  0  0  0  0
 19 48  1  0  0  0  0
 20 38  1  0  0  0  0
 21 82  1  0  0  0  0
 22 83  1  0  0  0  0
 23 25  2  0  0  0  0
 23 82  1  0  0  0  0
 24 84  1  0  0  0  0
 25 85  1  0  0  0  0
 26 64  2  0  0  0  0
 27 28  2  0  0  0  0
 27 52  1  0  0  0  0
 27 65  1  0  0  0  0
 28 59  1  0  0  0  0
 28 66  1  0  0  0  0
 29 67  1  0  0  0  0
 29 71  1  0  0  0  0
 30 65  2  0  0  0  0
 30 66  1  0  0  0  0
 30 73  1  0  0  0  0
 31 72  1  0  0  0  0
 31 77  2  0  0  0  0
 32 49  1  0  0  0  0
 32 74  1  0  0  0  0
 32 78  2  0  0  0  0
 33 61  1  0  0  0  0
 33 68  1  0  0  0  0
 33 79  2  0  0  0  0
 34 62  1  0  0  0  0
 34 75  1  0  0  0  0
 34 80  2  0  0  0  0
 35 69  1  0  0  0  0
 35 70  1  0  0  0  0
 35 81  2  0  0  0  0
 36 39  1  0  0  0  0
 37 49  1  0  0  0  0
 38 68  1  0  0  0  0
 39 41  1  0  0  0  0
 40 42  1  0  0  0  0
 40 44  1  0  0  0  0
 41 48  1  0  0  0  0
 42 50  1  0  0  0  0
 43 45  1  0  0  0  0
 43 51  1  0  0  0  0
 44 69  1  0  0  0  0
 45 70  1  0  0  0  0
 46 50  1  0  0  0  0
 46 69  1  0  0  0  0
 47 51  1  0  0  0  0
 47 70  1  0  0  0  0
 48 74  1  0  0  0  0
 49 68  1  0  0  0  0
 50 67  1  0  0  0  0
 51 73  1  0  0  0  0
 53 60  1  0  0  0  0
 54 62  1  0  0  0  0
 55 63  1  0  0  0  0
 56 63  1  0  0  0  0
 57 63  1  0  0  0  0
 58 76  1  0  0  0  0
 59 83  1  0  0  0  0
 60 66  1  0  0  0  0
 61 63  1  0  0  0  0
 61 75  1  0  0  0  0
 62 76  1  0  0  0  0
 64 67  1  0  0  0  0
M  CHG  1  76   1
M  ISO  4  35 100  59 101  70 100  83 101
M  END
> <Batch ID>
0189

> <Smiles>
CCn1c(NC2CC[100N:0]([100C:0](=O)N3CCCC(n4nc(-c5ccc(Oc6ccc(F)cc6F)cc5)c(C(N)=O)c4N)C3)C2)nc(C)c1[101CH2:1][101O:1]c1ccc2c(c1)CN(C(=O)C(NC(=O)C(C)NC)C(C)(C)C)C(C(=O)NC1CCCc3ccccc31)C2

> <Shape>
0.264

> <Color>
0.150

> <Negative vol penalty>
0.000

$$$$

  -OEChem-04052323223D

 81 90  0     1  0  0  0  0  0999 V2000
  -17.9964  -31.3997   19.5564 C   0  0  0  0  0  0  0  0  0  0  0  0
  -19.2473  -30.9537   19.1418 C   0  0  0  0  0  0  0  0  0  0  0  0
  -23.7965  -12.9618   18.9547 C   0  0  0  0  0  0  0  0  0  0  0  0
  -24.5728  -11.9468   21.0051 C   0  0  0  0  0  0  0  0  0  0  0  0
  -17.7442  -31.6025   20.9125 C   0  0  0  0  0  0  0  0  0  0  0  0
  -20.2470  -30.7111   20.0832 C   0  0  0  0  0  0  0  0  0  0  0  0
  -24.5472  -26.3570   19.8479 C   0  0  0  0  0  0  0  0  0  0  0  0
  -23.5091  -11.6985   18.4381 C   0  0  0  0  0  0  0  0  0  0  0  0
  -24.2854  -10.6834   20.4885 C   0  0  0  0  0  0  0  0  0  0  0  0
  -25.8838  -26.3791   19.4518 C   0  0  0  0  0  0  0  0  0  0  0  0
  -21.5572   -8.7413   20.0349 C   0  0  0  0  0  0  0  0  0  0  0  0
  -20.8963   -7.8376   20.8668 C   0  0  0  0  0  0  0  0  0  0  0  0
  -26.5543  -26.6623   21.7517 C   0  0  0  0  0  0  0  0  0  0  0  0
  -22.7564   -6.3069   20.6820 C   0  0  0  0  0  0  0  0  0  0  0  0
  -24.3284  -13.0860   20.2382 C   0  0  0  0  0  0  0  0  0  0  0  0
  -23.7645  -15.2237   21.5110 C   0  0  0  0  0  0  0  0  0  0  0  0
  -18.7383  -31.3530   21.8718 C   0  0  0  0  0  0  0  0  0  0  0  0
  -24.2031  -26.4986   21.1999 C   0  0  0  0  0  0  0  0  0  0  0  0
  -20.0082  -30.9120   21.4533 C   0  0  0  0  0  0  0  0  0  0  0  0
  -25.2128  -26.6391   22.1626 C   0  0  0  0  0  0  0  0  0  0  0  0
  -23.7536  -10.5592   19.2050 C   0  0  0  0  0  0  0  0  0  0  0  0
  -26.8874  -26.5347   20.4034 C   0  0  0  0  0  0  0  0  0  0  0  0
  -22.8178   -8.4278   19.5264 C   0  0  0  0  0  0  0  0  0  0  0  0
  -21.4958   -6.6205   21.1904 C   0  0  0  0  0  0  0  0  0  0  0  0
  -23.4173   -7.2106   19.8500 C   0  0  0  0  0  0  0  0  0  0  0  0
  -24.6260  -14.3907   20.7723 C   0  0  0  0  0  0  0  0  0  0  0  0
  -24.5156  -16.3414   21.7810 C   0  0  0  0  0  0  0  0  0  0  0  0
  -22.4067  -15.0063   21.9170 C   0  0  0  0  0  0  0  0  0  0  0  0
  -22.5271  -28.6146   22.8783 C   0  0  0  0  0  0  0  0  0  0  0  0
  -23.0203  -26.5063   25.2936 C   0  0  0  0  0  0  0  0  0  0  0  0
  -24.9220  -23.9927   26.6022 C   0  0  0  0  0  0  0  0  0  0  0  0
  -27.9397  -20.2564   19.7216 C   0  0  0  0  0  0  0  0  0  0  0  0
  -18.4336  -31.6319   23.3224 C   0  0  0  0  0  0  0  0  0  0  0  0
  -22.7580  -26.4458   21.6139 C   0  0  0  0  0  0  0  0  0  0  0  0
  -24.8971  -26.7746   23.6290 C   0  0  0  0  0  0  0  0  0  0  0  0
  -19.4290  -30.9932   24.2875 C   0  0  0  0  0  0  0  0  0  0  0  0
  -29.4607  -17.2140   21.2000 C   0  0  0  0  0  0  0  0  0  0  0  0
  -31.2558  -26.6252   20.5939 C   0  0  0  0  0  0  0  0  0  0  0  0
  -20.8598  -31.2437   23.8220 C   0  0  0  0  0  0  0  0  0  0  0  0
  -28.2607  -16.2666   21.2377 C   0  0  0  0  0  0  0  0  0  0  0  0
  -30.9882  -26.4894   19.1058 C   0  0  0  0  0  0  0  0  0  0  0  0
  -30.3980  -22.3708   21.4529 C   0  0  0  0  0  0  0  0  0  0  0  0
  -29.3542  -18.1819   20.0287 C   0  0  0  0  0  0  0  0  0  0  0  0
  -29.9994  -20.9452   21.0844 C   0  0  0  0  0  0  0  0  0  0  0  0
  -26.8929  -18.0443   20.0437 C   0  0  0  0  0  0  0  0  0  0  0  0
  -29.0235  -22.4759   19.5084 C   0  0  0  0  0  0  0  0  0  0  0  0
  -31.2756  -25.1883   21.0645 C   0  0  0  0  0  0  0  0  0  0  0  0
  -21.1106  -30.6141   22.4464 C   0  0  1  0  0  0  0  0  0  0  0  0
  -22.4973  -27.1146   22.9600 C   0  0  1  0  0  0  0  0  0  0  0  0
  -26.9340  -17.0474   21.2155 C   0  0  1  0  0  0  0  0  0  0  0  0
  -30.2761  -23.0824   20.1137 C   0  0  1  0  0  0  0  0  0  0  0  0
  -29.9879  -25.3396   18.9882 C   0  0  2  0  0  0  0  0  0  0  0  0
  -25.0979  -22.4958   28.6085 C   0  0  0  0  0  0  0  0  0  0  0  0
  -24.1373  -28.8296   26.9260 C   0  0  0  0  0  0  0  0  0  0  0  0
  -25.1450  -27.1547   28.4905 C   0  0  0  0  0  0  0  0  0  0  0  0
  -22.6688  -27.2640   28.2092 C   0  0  0  0  0  0  0  0  0  0  0  0
  -24.5922  -21.5549   24.9568 C   0  0  0  0  0  0  0  0  0  0  0  0
  -28.5458  -25.8094   18.8608 C   0  0  0  0  0  0  0  0  0  1  0  0
  -24.0873  -26.3146   26.3442 C   0  0  1  0  0  0  0  0  0  0  0  0
  -24.5431  -22.6502   27.2010 C   0  0  2  0  0  0  0  0  0  0  0  0
  -24.0158  -27.3901   27.4647 C   0  0  0  0  0  0  0  0  0  0  0  0
  -25.8321  -14.9331   20.5847 N   0  0  0  0  0  0  0  0  0  0  0  0
  -25.7338  -16.1189   21.2094 N   0  0  0  0  0  0  0  0  0  0  0  0
  -23.4690  -26.7233   23.9832 N   0  0  0  0  0  0  0  0  0  0  0  0
  -28.0788  -18.9036   20.0519 N   0  0  0  0  0  0  0  0  0  0  0  0
  -29.0041  -21.1061   20.0192 N   0  0  0  0  0  0  0  0  0  0  0  0
  -24.2462  -17.4832   22.4490 N   0  0  0  0  0  0  0  0  0  0  0  0
  -21.7857  -13.8030   21.5556 N   0  0  0  0  0  0  0  0  0  0  0  0
  -21.3065  -29.1858   22.5724 N   0  0  0  0  0  0  0  0  0  0  0  0
  -23.9478  -24.9434   26.8223 N   0  0  0  0  0  0  0  0  0  0  0  0
  -30.1382  -24.5610   20.2927 N   0  3  2  0  0  0  0  0  0  0  0  0
  -25.0753  -21.5398   26.3616 N   0  3  0  0  0  0  0  0  0  0  0  0
  -21.7578  -15.8611   22.5666 O   0  0  0  0  0  0  0  0  0  0  0  0
  -23.5792  -29.2099   23.0794 O   0  0  0  0  0  0  0  0  0  0  0  0
  -21.8323  -26.4580   25.6224 O   0  0  0  0  0  0  0  0  0  0  0  0
  -25.9783  -24.1803   26.0025 O   0  0  0  0  0  0  0  0  0  0  0  0
  -26.8924  -20.6948   19.2276 O   0  0  0  0  0  0  0  0  0  0  0  0
  -23.4730   -9.3263   18.7013 O   0  0  0  0  0  0  0  0  0  0  0  0
  -28.2034  -26.5575   20.0163 O   0  0  0  0  0  0  0  0  0  1  0  0
  -20.8616   -5.7534   21.9905 F   0  0  0  0  0  0  0  0  0  0  0  0
  -24.6286   -6.9043   19.3655 F   0  0  0  0  0  0  0  0  0  0  0  0
  1  2  1  0  0  0  0
  1  5  2  0  0  0  0
  2  6  2  0  0  0  0
  3  8  2  0  0  0  0
  3 15  1  0  0  0  0
  4  9  1  0  0  0  0
  4 15  2  0  0  0  0
  5 17  1  0  0  0  0
  6 19  1  0  0  0  0
  7 10  2  0  0  0  0
  7 18  1  0  0  0  0
  8 21  1  0  0  0  0
  9 21  2  0  0  0  0
 10 22  1  0  0  0  0
 11 12  2  0  0  0  0
 11 23  1  0  0  0  0
 12 24  1  0  0  0  0
 13 20  1  0  0  0  0
 13 22  2  0  0  0  0
 14 24  2  0  0  0  0
 14 25  1  0  0  0  0
 15 26  1  0  0  0  0
 16 26  1  0  0  0  0
 16 27  2  0  0  0  0
 16 28  1  0  0  0  0
 17 19  2  0  0  0  0
 17 33  1  0  0  0  0
 18 20  2  0  0  0  0
 18 34  1  0  0  0  0
 19 48  1  0  0  0  0
 20 35  1  0  0  0  0
 21 78  1  0  0  0  0
 22 79  1  0  0  0  0
 23 25  2  0  0  0  0
 23 78  1  0  0  0  0
 24 80  1  0  0  0  0
 25 81  1  0  0  0  0
 26 62  2  0  0  0  0
 27 63  1  0  0  0  0
 27 67  1  0  0  0  0
 28 68  1  0  0  0  0
 28 73  2  0  0  0  0
 29 49  1  0  0  0  0
 29 69  1  0  0  0  0
 29 74  2  0  0  0  0
 30 59  1  0  0  0  0
 30 64  1  0  0  0  0
 30 75  2  0  0  0  0
 31 60  1  0  0  0  0
 31 70  1  0  0  0  0
 31 76  2  0  0  0  0
 32 65  1  0  0  0  0
 32 66  1  0  0  0  0
 32 77  2  0  0  0  0
 33 36  1  0  0  0  0
 34 49  1  0  0  0  0
 35 64  1  0  0  0  0
 36 39  1  0  0  0  0
 37 40  1  0  0  0  0
 37 43  1  0  0  0  0
 38 41  1  0  0  0  0
 38 47  1  0  0  0  0
 39 48  1  0  0  0  0
 40 50  1  0  0  0  0
 41 52  1  0  0  0  0
 42 44  1  0  0  0  0
 42 51  1  0  0  0  0
 43 65  1  0  0  0  0
 44 66  1  0  0  0  0
 45 50  1  0  0  0  0
 45 65  1  0  0  0  0
 46 51  1  0  0  0  0
 46 66  1  0  0  0  0
 47 71  1  0  0  0  0
 48 69  1  0  0  0  0
 49 64  1  0  0  0  0
 50 63  1  0  0  0  0
 51 71  1  0  0  0  0
 52 58  1  0  0  0  0
 52 71  1  0  0  0  0
 53 60  1  0  0  0  0
 54 61  1  0  0  0  0
 55 61  1  0  0  0  0
 56 61  1  0  0  0  0
 57 72  1  0  0  0  0
 58 79  1  0  0  0  0
 59 61  1  0  0  0  0
 59 70  1  0  0  0  0
 60 72  1  0  0  0  0
 62 63  1  0  0  0  0
M  CHG  2  71   1  72   1
M  ISO  4  32 100  58 101  66 100  79 101
M  END
> <Batch ID>
0189

> <Smiles>
CNC(C)C(=O)NC(C(=O)N1Cc2cc([101O:1][101CH2:1]C3CCCN3C3CC[100N:0]([100C:0](=O)N4CCCC(n5nc(-c6ccc(Oc7ccc(F)cc7F)cc6)c(C(N)=O)c5N)C4)C3)ccc2CC1C(=O)NC1CCCc2ccccc21)C(C)(C)C

> <Shape>
0.209

> <Color>
0.073

> <Negative vol penalty>
0.000

$$$$

  -OEChem-04052323223D

 85 94  0     1  0  0  0  0  0999 V2000
  -19.8414  -24.1700   21.9778 C   0  0  0  0  0  0  0  0  0  0  0  0
  -20.3583  -25.3862   22.4097 C   0  0  0  0  0  0  0  0  0  0  0  0
  -27.0495  -12.9762   21.1156 C   0  0  0  0  0  0  0  0  0  0  0  0
  -26.7710  -13.5938   18.7965 C   0  0  0  0  0  0  0  0  0  0  0  0
  -20.5181  -23.4347   21.0070 C   0  0  0  0  0  0  0  0  0  0  0  0
  -21.5458  -25.8732   21.8624 C   0  0  0  0  0  0  0  0  0  0  0  0
  -22.9021  -30.4222   23.1550 C   0  0  0  0  0  0  0  0  0  0  0  0
  -26.3586  -11.7872   20.8819 C   0  0  0  0  0  0  0  0  0  0  0  0
  -26.0802  -12.4047   18.5628 C   0  0  0  0  0  0  0  0  0  0  0  0
  -23.3844  -30.7324   24.4258 C   0  0  0  0  0  0  0  0  0  0  0  0
  -23.1439  -10.8008   20.5399 C   0  0  0  0  0  0  0  0  0  0  0  0
  -22.1710  -10.4246   21.4660 C   0  0  0  0  0  0  0  0  0  0  0  0
  -25.6292  -30.8169   23.5466 C   0  0  0  0  0  0  0  0  0  0  0  0
  -23.3795   -8.3791   21.9048 C   0  0  0  0  0  0  0  0  0  0  0  0
  -27.2556  -13.8795   20.0729 C   0  0  0  0  0  0  0  0  0  0  0  0
  -29.3559  -15.3216   20.2038 C   0  0  0  0  0  0  0  0  0  0  0  0
  -21.7210  -23.9078   20.4570 C   0  0  0  0  0  0  0  0  0  0  0  0
  -23.7824  -30.2960   22.0708 C   0  0  0  0  0  0  0  0  0  0  0  0
  -22.2311  -25.1572   20.8643 C   0  0  0  0  0  0  0  0  0  0  0  0
  -25.1552  -30.5075   22.2625 C   0  0  0  0  0  0  0  0  0  0  0  0
  -25.8740  -11.5014   19.6055 C   0  0  0  0  0  0  0  0  0  0  0  0
  -24.7484  -30.9270   24.6223 C   0  0  0  0  0  0  0  0  0  0  0  0
  -24.2346   -9.9660   20.2962 C   0  0  0  0  0  0  0  0  0  0  0  0
  -22.2888   -9.2138   22.1484 C   0  0  0  0  0  0  0  0  0  0  0  0
  -24.3524   -8.7552   20.9787 C   0  0  0  0  0  0  0  0  0  0  0  0
  -27.9687  -15.1082   20.3137 C   0  0  0  0  0  0  0  0  0  0  0  0
  -29.5271  -16.6436   20.5345 C   0  0  0  0  0  0  0  0  0  0  0  0
  -28.2282  -30.4910   27.5274 C   0  0  0  0  0  0  0  0  0  0  0  0
  -27.6290  -28.7156   26.2922 C   0  0  0  0  0  0  0  0  0  0  0  0
  -26.3479  -30.5582   26.3041 C   0  0  0  0  0  0  0  0  0  1  0  0
  -30.3965  -14.4066   19.8357 C   0  0  0  0  0  0  0  0  0  0  0  0
  -24.5824  -27.9394   20.0934 C   0  0  0  0  0  0  0  0  0  0  0  0
  -26.2696  -30.2798   18.6109 C   0  0  0  0  0  0  0  0  0  0  0  0
  -27.8322  -33.3061   18.8275 C   0  0  0  0  0  0  0  0  0  0  0  0
  -27.9318  -21.9035   19.8942 C   0  0  0  0  0  0  0  0  0  0  0  0
  -22.4080  -23.0750   19.4036 C   0  0  0  0  0  0  0  0  0  0  0  0
  -23.2432  -29.9872   20.7010 C   0  0  0  0  0  0  0  0  0  0  0  0
  -26.1397  -30.4035   21.1275 C   0  0  0  0  0  0  0  0  0  0  0  0
  -23.8726  -23.4531   19.2086 C   0  0  0  0  0  0  0  0  0  0  0  0
  -26.3123  -19.9785   22.5617 C   0  0  0  0  0  0  0  0  0  0  0  0
  -24.0025  -24.9596   19.0406 C   0  0  0  0  0  0  0  0  0  0  0  0
  -26.7048  -18.5486   22.1866 C   0  0  0  0  0  0  0  0  0  0  0  0
  -26.1037  -20.8314   21.3162 C   0  0  0  0  0  0  0  0  0  0  0  0
  -28.5442  -24.3574   20.2423 C   0  0  0  0  0  0  0  0  0  0  0  0
  -27.7297  -23.4593   21.9901 C   0  0  0  0  0  0  0  0  0  0  0  0
  -27.6726  -19.4494   20.0163 C   0  0  0  0  0  0  0  0  0  0  0  0
  -23.5372  -25.6923   20.3054 C   0  0  1  0  0  0  0  0  0  0  0  0
  -24.2877  -29.3771   19.7713 C   0  0  1  0  0  0  0  0  0  0  0  0
  -28.7975  -24.5430   21.7482 C   0  0  0  0  0  0  0  0  0  0  0  0
  -27.9121  -18.5340   21.2311 C   0  0  2  0  0  0  0  0  0  0  0  0
  -29.1805  -31.1460   28.4693 C   0  0  0  0  0  0  0  0  0  0  0  0
  -29.1542  -34.9429   17.4598 C   0  0  0  0  0  0  0  0  0  0  0  0
  -28.7214  -28.4765   18.8270 C   0  0  0  0  0  0  0  0  0  0  0  0
  -30.1482  -30.4754   18.3405 C   0  0  0  0  0  0  0  0  0  0  0  0
  -28.5001  -29.6793   16.6456 C   0  0  0  0  0  0  0  0  0  0  0  0
  -25.8067  -35.4314   19.2010 C   0  0  0  0  0  0  0  0  0  0  0  0
  -27.8929  -27.3189   25.8120 C   0  0  0  0  0  0  0  0  0  0  0  0
  -28.5094  -25.9176   22.3172 C   0  0  0  0  0  0  0  0  0  0  0  0
  -28.3588  -25.8707   23.8310 C   0  0  0  0  0  0  0  0  0  0  0  0
  -27.6689  -30.8323   18.7364 C   0  0  1  0  0  0  0  0  0  0  0  0
  -27.7700  -34.5375   17.9420 C   0  0  2  0  0  0  0  0  0  0  0  0
  -28.7416  -29.8660   18.1594 C   0  0  0  0  0  0  0  0  0  0  0  0
  -27.3059  -16.2066   20.6853 N   0  0  0  0  0  0  0  0  0  0  0  0
  -28.5285  -29.2410   27.1396 N   0  0  0  0  0  0  0  0  0  0  0  0
  -27.1586  -31.2110   27.1523 N   0  0  0  0  0  0  0  0  0  0  0  0
  -26.5180  -29.3128   25.8318 N   0  0  0  0  0  0  0  0  0  0  0  0
  -28.2807  -17.1230   20.8119 N   0  0  0  0  0  0  0  0  0  0  0  0
  -25.5644  -30.0933   19.8083 N   0  0  0  0  0  0  0  0  0  0  0  0
  -27.2888  -20.7959   20.4534 N   0  0  0  0  0  0  0  0  0  0  0  0
  -27.9207  -23.0853   20.5969 N   0  0  0  0  0  0  0  0  0  0  0  0
  -30.6208  -17.4312   20.6122 N   0  0  0  0  0  0  0  0  0  0  0  0
  -30.0460  -13.0853   19.5267 N   0  0  0  0  0  0  0  0  0  0  0  0
  -23.4775  -27.1116   20.0337 N   0  0  0  0  0  0  0  0  0  0  0  0
  -27.6469  -32.1469   18.1041 N   0  0  0  0  0  0  0  0  0  0  0  0
  -27.1783  -35.6833   18.6889 N   0  3  0  0  0  0  0  0  0  0  0  0
  -28.0355  -27.2278   24.3329 N   0  3  0  0  0  0  0  0  0  0  0  0
  -31.6035  -14.7463   19.7983 O   0  0  0  0  0  0  0  0  0  0  0  0
  -25.7276  -27.6055   20.3738 O   0  0  0  0  0  0  0  0  0  0  0  0
  -25.8163  -30.0299   17.4912 O   0  0  0  0  0  0  0  0  0  0  0  0
  -28.0294  -33.3662   20.0391 O   0  0  0  0  0  0  0  0  0  0  0  0
  -28.5281  -21.8337   18.8112 O   0  0  0  0  0  0  0  0  0  0  0  0
  -25.2000  -10.3412   19.3771 O   0  0  0  0  0  0  0  0  0  0  0  0
  -25.2280  -31.2331   25.8776 O   0  0  0  0  0  0  0  0  0  1  0  0
  -21.3553   -8.8535   23.0388 F   0  0  0  0  0  0  0  0  0  0  0  0
  -25.3985   -7.9497   20.7496 F   0  0  0  0  0  0  0  0  0  0  0  0
  1  2  1  0  0  0  0
  1  5  2  0  0  0  0
  2  6  2  0  0  0  0
  3  8  2  0  0  0  0
  3 15  1  0  0  0  0
  4  9  1  0  0  0  0
  4 15  2  0  0  0  0
  5 17  1  0  0  0  0
  6 19  1  0  0  0  0
  7 10  2  0  0  0  0
  7 18  1  0  0  0  0
  8 21  1  0  0  0  0
  9 21  2  0  0  0  0
 10 22  1  0  0  0  0
 11 12  2  0  0  0  0
 11 23  1  0  0  0  0
 12 24  1  0  0  0  0
 13 20  1  0  0  0  0
 13 22  2  0  0  0  0
 14 24  2  0  0  0  0
 14 25  1  0  0  0  0
 15 26  1  0  0  0  0
 16 26  1  0  0  0  0
 16 27  2  0  0  0  0
 16 31  1  0  0  0  0
 17 19  2  0  0  0  0
 17 36  1  0  0  0  0
 18 20  2  0  0  0  0
 18 37  1  0  0  0  0
 19 47  1  0  0  0  0
 20 38  1  0  0  0  0
 21 82  1  0  0  0  0
 22 83  1  0  0  0  0
 23 25  2  0  0  0  0
 23 82  1  0  0  0  0
 24 84  1  0  0  0  0
 25 85  1  0  0  0  0
 26 63  2  0  0  0  0
 27 67  1  0  0  0  0
 27 71  1  0  0  0  0
 28 51  1  0  0  0  0
 28 64  1  0  0  0  0
 28 65  2  0  0  0  0
 29 57  1  0  0  0  0
 29 64  2  0  0  0  0
 29 66  1  0  0  0  0
 30 65  1  0  0  0  0
 30 66  2  0  0  0  0
 30 83  1  0  0  0  0
 31 72  1  0  0  0  0
 31 77  2  0  0  0  0
 32 48  1  0  0  0  0
 32 73  1  0  0  0  0
 32 78  2  0  0  0  0
 33 60  1  0  0  0  0
 33 68  1  0  0  0  0
 33 79  2  0  0  0  0
 34 61  1  0  0  0  0
 34 74  1  0  0  0  0
 34 80  2  0  0  0  0
 35 69  1  0  0  0  0
 35 70  1  0  0  0  0
 35 81  2  0  0  0  0
 36 39  1  0  0  0  0
 37 48  1  0  0  0  0
 38 68  1  0  0  0  0
 39 41  1  0  0  0  0
 40 42  1  0  0  0  0
 40 43  1  0  0  0  0
 41 47  1  0  0  0  0
 42 50  1  0  0  0  0
 43 69  1  0  0  0  0
 44 49  1  0  0  0  0
 44 70  1  0  0  0  0
 45 49  1  0  0  0  0
 45 70  1  0  0  0  0
 46 50  1  0  0  0  0
 46 69  1  0  0  0  0
 47 73  1  0  0  0  0
 48 68  1  0  0  0  0
 49 58  1  0  0  0  0
 50 67  1  0  0  0  0
 52 61  1  0  0  0  0
 53 62  1  0  0  0  0
 54 62  1  0  0  0  0
 55 62  1  0  0  0  0
 56 75  1  0  0  0  0
 57 76  1  0  0  0  0
 58 59  1  0  0  0  0
 59 76  1  0  0  0  0
 60 62  1  0  0  0  0
 60 74  1  0  0  0  0
 61 75  1  0  0  0  0
 63 67  1  0  0  0  0
M  CHG  2  75   1  76   1
M  ISO  4  30 101  35 100  70 100  83 101
M  END
> <Batch ID>
0189

> <Smiles>
CNC(C)C(=O)NC(C(=O)N1Cc2cc([101O:1][101c:1]3nc(C)nc(CNCCC4C[100N:0]([100C:0](=O)N5CCCC(n6nc(-c7ccc(Oc8ccc(F)cc8F)cc7)c(C(N)=O)c6N)C5)C4)n3)ccc2CC1C(=O)NC1CCCc2ccccc21)C(C)(C)C

> <Shape>
0.230

> <Color>
0.067

> <Negative vol penalty>
0.000

$$$$

  -OEChem-04052323223D

 84 93  0     1  0  0  0  0  0999 V2000
  -29.9161  -36.3440   18.9886 C   0  0  0  0  0  0  0  0  0  0  0  0
  -29.8363  -34.9834   18.7096 C   0  0  0  0  0  0  0  0  0  0  0  0
  -23.6763   -9.4834   19.8821 C   0  0  0  0  0  0  0  0  0  0  0  0
  -24.3842   -9.3814   22.1898 C   0  0  0  0  0  0  0  0  0  0  0  0
  -29.5434  -36.8198   20.2450 C   0  0  0  0  0  0  0  0  0  0  0  0
  -29.3847  -34.0977   19.6873 C   0  0  0  0  0  0  0  0  0  0  0  0
  -26.0761  -29.0195   18.8089 C   0  0  0  0  0  0  0  0  0  0  0  0
  -23.3697   -8.1231   19.9160 C   0  0  0  0  0  0  0  0  0  0  0  0
  -24.0776   -8.0211   22.2238 C   0  0  0  0  0  0  0  0  0  0  0  0
  -26.4278  -27.6726   18.7309 C   0  0  0  0  0  0  0  0  0  0  0  0
  -21.3138   -6.0990   22.5201 C   0  0  0  0  0  0  0  0  0  0  0  0
  -20.6138   -5.6215   23.6280 C   0  0  0  0  0  0  0  0  0  0  0  0
  -25.8871  -27.4025   21.0663 C   0  0  0  0  0  0  0  0  0  0  0  0
  -22.4401   -4.1237   24.1363 C   0  0  0  0  0  0  0  0  0  0  0  0
  -24.3460  -21.0620   16.2339 C   0  0  0  0  0  0  0  0  0  0  0  0
  -24.1836  -10.1126   21.0190 C   0  0  0  0  0  0  0  0  0  0  0  0
  -23.6442  -12.5906   21.2949 C   0  0  0  0  0  0  0  0  0  0  0  0
  -29.0778  -35.9406   21.2355 C   0  0  0  0  0  0  0  0  0  0  0  0
  -25.6369  -29.5715   20.0208 C   0  0  0  0  0  0  0  0  0  0  0  0
  -29.0066  -34.5620   20.9586 C   0  0  0  0  0  0  0  0  0  0  0  0
  -25.5280  -28.7561   21.1563 C   0  0  0  0  0  0  0  0  0  0  0  0
  -24.3373  -22.3362   16.7463 C   0  0  0  0  0  0  0  0  0  0  0  0
  -23.5703   -7.3919   21.0868 C   0  0  0  0  0  0  0  0  0  0  0  0
  -26.3361  -26.8646   19.8604 C   0  0  0  0  0  0  0  0  0  0  0  0
  -22.5770   -5.5889   22.2202 C   0  0  0  0  0  0  0  0  0  0  0  0
  -21.1769   -4.6339   24.4361 C   0  0  0  0  0  0  0  0  0  0  0  0
  -23.1401   -4.6012   23.0283 C   0  0  0  0  0  0  0  0  0  0  0  0
  -24.5010  -11.5176   20.9844 C   0  0  0  0  0  0  0  0  0  0  0  0
  -25.0372  -22.2310   17.9632 C   0  0  0  0  0  0  0  0  0  0  0  0
  -24.4160  -13.7113   21.1085 C   0  0  0  0  0  0  0  0  0  0  0  0
  -22.2733  -12.5756   21.7143 C   0  0  0  0  0  0  0  0  0  0  0  0
  -26.6957  -31.8578   21.9586 C   0  0  0  0  0  0  0  0  0  0  0  0
  -23.9041  -31.2945   23.5117 C   0  0  0  0  0  0  0  0  0  0  0  0
  -21.3584  -29.1288   24.2016 C   0  0  0  0  0  0  0  0  0  0  0  0
  -28.0549  -16.4446   17.7630 C   0  0  0  0  0  0  0  0  0  0  0  0
  -28.7311  -36.4958   22.5942 C   0  0  0  0  0  0  0  0  0  0  0  0
  -25.2358  -31.0199   20.0818 C   0  0  0  0  0  0  0  0  0  0  0  0
  -25.0428  -29.2953   22.4763 C   0  0  0  0  0  0  0  0  0  0  0  0
  -27.9081  -35.5378   23.4517 C   0  0  0  0  0  0  0  0  0  0  0  0
  -29.3905  -14.2133   20.3545 C   0  0  0  0  0  0  0  0  0  0  0  0
  -28.5077  -34.1358   23.4111 C   0  0  0  0  0  0  0  0  0  0  0  0
  -28.1731  -13.3703   20.7365 C   0  0  0  0  0  0  0  0  0  0  0  0
  -24.7425  -17.9781   18.1851 C   0  0  0  0  0  0  0  0  0  0  0  0
  -29.3366  -14.6670   18.8975 C   0  0  0  0  0  0  0  0  0  0  0  0
  -25.5184  -16.6737   18.0469 C   0  0  0  0  0  0  0  0  0  0  0  0
  -26.8769  -14.5130   18.8992 C   0  0  0  0  0  0  0  0  0  0  0  0
  -26.7893  -18.4512   17.0475 C   0  0  0  0  0  0  0  0  0  0  0  0
  -28.4982  -33.5728   21.9848 C   0  0  1  0  0  0  0  0  0  0  0  0
  -25.2912  -31.5963   21.4932 C   0  0  1  0  0  0  0  0  0  0  0  0
  -26.8619  -14.0933   20.3757 C   0  0  1  0  0  0  0  0  0  0  0  0
  -25.3045  -18.8229   17.0346 C   0  0  2  0  0  0  0  0  0  0  0  0
  -23.7238  -23.5304   16.1379 C   0  0  0  0  0  0  0  0  0  0  0  0
  -19.2404  -28.9386   25.5341 C   0  0  0  0  0  0  0  0  0  0  0  0
  -25.5426  -30.9085   26.0566 C   0  0  0  0  0  0  0  0  0  0  0  0
  -23.5441  -29.8143   27.0941 C   0  0  0  0  0  0  0  0  0  0  0  0
  -23.4219  -32.1972   26.3667 C   0  0  0  0  0  0  0  0  0  0  0  0
  -19.7254  -28.7267   21.7663 C   0  0  0  0  0  0  0  0  0  0  0  0
  -25.9530  -23.2657   20.0408 C   0  0  0  0  0  0  0  0  0  0  0  0
  -26.0015  -24.6511   20.6631 C   0  0  0  0  0  0  0  0  0  1  0  0
  -23.4656  -30.3690   24.6209 C   0  0  1  0  0  0  0  0  0  0  0  0
  -19.8512  -29.3099   24.1918 C   0  0  2  0  0  0  0  0  0  0  0  0
  -24.0046  -30.8122   26.0103 C   0  0  0  0  0  0  0  0  0  0  0  0
  -25.7235  -11.9205   20.6277 N   0  0  0  0  0  0  0  0  0  0  0  0
  -25.4597  -20.9880   18.2092 N   0  0  0  0  0  0  0  0  0  0  0  0
  -25.0239  -20.3005   17.1399 N   0  0  0  0  0  0  0  0  0  0  0  0
  -25.6404  -13.2591   20.7128 N   0  0  0  0  0  0  0  0  0  0  0  0
  -24.6685  -30.7192   22.4868 N   0  0  0  0  0  0  0  0  0  0  0  0
  -28.0630  -15.3223   18.5988 N   0  0  0  0  0  0  0  0  0  0  0  0
  -26.8319  -17.0769   17.5411 N   0  0  0  0  0  0  0  0  0  0  0  0
  -24.1600  -15.0296   21.2461 N   0  0  0  0  0  0  0  0  0  0  0  0
  -21.6314  -11.3377   21.8558 N   0  0  0  0  0  0  0  0  0  0  0  0
  -25.2380  -23.3060   18.7699 N   0  0  0  0  0  0  0  0  0  0  0  0
  -27.1721  -33.1131   21.6317 N   0  0  0  0  0  0  0  0  0  0  0  0
  -22.0108  -30.2954   24.5400 N   0  0  0  0  0  0  0  0  0  0  0  0
  -19.2333  -28.4526   23.1410 N   0  3  0  0  0  0  0  0  0  0  0  0
  -21.6315  -13.6293   21.9407 O   0  0  0  0  0  0  0  0  0  0  0  0
  -27.3017  -30.9860   22.5705 O   0  0  0  0  0  0  0  0  0  0  0  0
  -23.5743  -32.4825   23.5495 O   0  0  0  0  0  0  0  0  0  0  0  0
  -21.9024  -28.0584   23.9393 O   0  0  0  0  0  0  0  0  0  0  0  0
  -29.1015  -16.8907   17.2742 O   0  0  0  0  0  0  0  0  0  0  0  0
  -23.2711   -6.0646   21.1204 O   0  0  0  0  0  0  0  0  0  0  0  0
  -26.6818  -25.5406   19.7868 O   0  0  0  0  0  0  0  0  0  1  0  0
  -20.5052   -4.1765   25.5009 F   0  0  0  0  0  0  0  0  0  0  0  0
  -24.3538   -4.1081   22.7460 F   0  0  0  0  0  0  0  0  0  0  0  0
  1  2  1  0  0  0  0
  1  5  2  0  0  0  0
  2  6  2  0  0  0  0
  3  8  2  0  0  0  0
  3 16  1  0  0  0  0
  4  9  1  0  0  0  0
  4 16  2  0  0  0  0
  5 18  1  0  0  0  0
  6 20  1  0  0  0  0
  7 10  2  0  0  0  0
  7 19  1  0  0  0  0
  8 23  1  0  0  0  0
  9 23  2  0  0  0  0
 10 24  1  0  0  0  0
 11 12  2  0  0  0  0
 11 25  1  0  0  0  0
 12 26  1  0  0  0  0
 13 21  1  0  0  0  0
 13 24  2  0  0  0  0
 14 26  2  0  0  0  0
 14 27  1  0  0  0  0
 15 22  2  0  0  0  0
 15 65  1  0  0  0  0
 16 28  1  0  0  0  0
 17 28  1  0  0  0  0
 17 30  2  0  0  0  0
 17 31  1  0  0  0  0
 18 20  2  0  0  0  0
 18 36  1  0  0  0  0
 19 21  2  0  0  0  0
 19 37  1  0  0  0  0
 20 48  1  0  0  0  0
 21 38  1  0  0  0  0
 22 29  1  0  0  0  0
 22 52  1  0  0  0  0
 23 81  1  0  0  0  0
 24 82  1  0  0  0  0
 25 27  2  0  0  0  0
 25 81  1  0  0  0  0
 26 83  1  0  0  0  0
 27 84  1  0  0  0  0
 28 63  2  0  0  0  0
 29 64  2  0  0  0  0
 29 72  1  0  0  0  0
 30 66  1  0  0  0  0
 30 70  1  0  0  0  0
 31 71  1  0  0  0  0
 31 76  2  0  0  0  0
 32 49  1  0  0  0  0
 32 73  1  0  0  0  0
 32 77  2  0  0  0  0
 33 60  1  0  0  0  0
 33 67  1  0  0  0  0
 33 78  2  0  0  0  0
 34 61  1  0  0  0  0
 34 74  1  0  0  0  0
 34 79  2  0  0  0  0
 35 68  1  0  0  0  0
 35 69  1  0  0  0  0
 35 80  2  0  0  0  0
 36 39  1  0  0  0  0
 37 49  1  0  0  0  0
 38 67  1  0  0  0  0
 39 41  1  0  0  0  0
 40 42  1  0  0  0  0
 40 44  1  0  0  0  0
 41 48  1  0  0  0  0
 42 50  1  0  0  0  0
 43 45  1  0  0  0  0
 43 51  1  0  0  0  0
 44 68  1  0  0  0  0
 45 69  1  0  0  0  0
 46 50  1  0  0  0  0
 46 68  1  0  0  0  0
 47 51  1  0  0  0  0
 47 69  1  0  0  0  0
 48 73  1  0  0  0  0
 49 67  1  0  0  0  0
 50 66  1  0  0  0  0
 51 65  1  0  0  0  0
 53 61  1  0  0  0  0
 54 62  1  0  0  0  0
 55 62  1  0  0  0  0
 56 62  1  0  0  0  0
 57 75  1  0  0  0  0
 58 59  1  0  0  0  0
 58 72  1  0  0  0  0
 59 82  1  0  0  0  0
 60 62  1  0  0  0  0
 60 74  1  0  0  0  0
 61 75  1  0  0  0  0
 63 66  1  0  0  0  0
 64 65  1  0  0  0  0
M  CHG  1  75   1
M  ISO  4  35 100  59 101  69 100  82 101
M  END
> <Batch ID>
0189

> <Smiles>
CNC(C)C(=O)NC(C(=O)N1Cc2cc([101O:1][101CH2:1]CNc3nn(C4CC[100N:0]([100C:0](=O)N5CCCC(n6nc(-c7ccc(Oc8ccc(F)cc8F)cc7)c(C(N)=O)c6N)C5)C4)cc3C)ccc2CC1C(=O)NC1CCCc2ccccc21)C(C)(C)C

> <Shape>
0.247

> <Color>
0.120

> <Negative vol penalty>
0.000

$$$$

  -OEChem-04052323223D

 83 92  0     1  0  0  0  0  0999 V2000
  -30.5901  -34.0469   24.5735 C   0  0  0  0  0  0  0  0  0  0  0  0
  -30.4438  -32.7335   24.1387 C   0  0  0  0  0  0  0  0  0  0  0  0
  -22.4768  -13.4025   18.7623 C   0  0  0  0  0  0  0  0  0  0  0  0
  -22.5945  -11.0450   19.2776 C   0  0  0  0  0  0  0  0  0  0  0  0
  -29.4730  -34.7718   24.9865 C   0  0  0  0  0  0  0  0  0  0  0  0
  -29.1803  -32.1439   24.1177 C   0  0  0  0  0  0  0  0  0  0  0  0
  -27.0830  -28.0765   20.0479 C   0  0  0  0  0  0  0  0  0  0  0  0
  -21.3275  -13.1794   18.0041 C   0  0  0  0  0  0  0  0  0  0  0  0
  -21.4451  -10.8219   18.5194 C   0  0  0  0  0  0  0  0  0  0  0  0
  -26.9726  -26.6871   20.0819 C   0  0  0  0  0  0  0  0  0  0  0  0
  -18.1068  -11.1934   18.8912 C   0  0  0  0  0  0  0  0  0  0  0  0
  -17.1228  -10.3684   19.4360 C   0  0  0  0  0  0  0  0  0  0  0  0
  -24.6750  -26.8930   20.7876 C   0  0  0  0  0  0  0  0  0  0  0  0
  -17.3508   -8.8595   17.5629 C   0  0  0  0  0  0  0  0  0  0  0  0
  -23.1103  -12.3353   19.3991 C   0  0  0  0  0  0  0  0  0  0  0  0
  -24.3654  -12.8683   21.5550 C   0  0  0  0  0  0  0  0  0  0  0  0
  -28.1939  -34.1940   24.9614 C   0  0  0  0  0  0  0  0  0  0  0  0
  -25.9917  -28.8859   20.3946 C   0  0  0  0  0  0  0  0  0  0  0  0
  -28.0452  -32.8613   24.5320 C   0  0  0  0  0  0  0  0  0  0  0  0
  -24.7734  -28.2924   20.7547 C   0  0  0  0  0  0  0  0  0  0  0  0
  -20.8116  -11.8892   17.8826 C   0  0  0  0  0  0  0  0  0  0  0  0
  -25.7694  -26.0951   20.4546 C   0  0  0  0  0  0  0  0  0  0  0  0
  -18.7128  -10.8515   17.6822 C   0  0  0  0  0  0  0  0  0  0  0  0
  -16.7449   -9.2015   18.7719 C   0  0  0  0  0  0  0  0  0  0  0  0
  -18.3348   -9.6846   17.0181 C   0  0  0  0  0  0  0  0  0  0  0  0
  -24.2979  -12.5650   20.1820 C   0  0  0  0  0  0  0  0  0  0  0  0
  -25.7087  -12.9910   21.8139 C   0  0  0  0  0  0  0  0  0  0  0  0
  -23.3085  -13.0250   22.5110 C   0  0  0  0  0  0  0  0  0  0  0  0
  -25.4292  -31.0431   22.6603 C   0  0  0  0  0  0  0  0  0  0  0  0
  -22.6624  -31.4705   21.0219 C   0  0  0  0  0  0  0  0  0  0  0  0
  -26.4780  -22.6827   21.4615 C   0  0  0  0  0  0  0  0  0  0  0  0
  -20.3350  -30.1868   18.8813 C   0  0  0  0  0  0  0  0  0  0  0  0
  -30.7493  -14.9406   20.3737 C   0  0  0  0  0  0  0  0  0  0  0  0
  -27.0226  -35.0014   25.4622 C   0  0  0  0  0  0  0  0  0  0  0  0
  -26.1190  -30.3831   20.3270 C   0  0  0  0  0  0  0  0  0  0  0  0
  -23.5659  -29.1168   21.1163 C   0  0  0  0  0  0  0  0  0  0  0  0
  -25.6682  -34.4269   25.0551 C   0  0  0  0  0  0  0  0  0  0  0  0
  -29.7379  -11.8196   19.0241 C   0  0  0  0  0  0  0  0  0  0  0  0
  -25.6285  -32.9231   25.3076 C   0  0  0  0  0  0  0  0  0  0  0  0
  -28.2338  -11.7689   19.2764 C   0  0  0  0  0  0  0  0  0  0  0  0
  -28.8602  -20.1467   23.0591 C   0  0  0  0  0  0  0  0  0  0  0  0
  -27.6703  -19.4051   21.4504 C   0  0  0  0  0  0  0  0  0  0  0  0
  -30.1811  -13.2352   18.6806 C   0  0  0  0  0  0  0  0  0  0  0  0
  -31.1847  -16.2469   22.4319 C   0  0  0  0  0  0  0  0  0  0  0  0
  -28.3390  -14.1995   20.0345 C   0  0  0  0  0  0  0  0  0  0  0  0
  -30.4747  -17.3850   23.1394 C   0  0  0  0  0  0  0  0  0  0  0  0
  -29.2538  -16.8587   21.1587 C   0  0  0  0  0  0  0  0  0  0  0  0
  -26.6878  -32.1951   24.4713 C   0  0  1  0  0  0  0  0  0  0  0  0
  -25.0973  -31.1095   21.1964 C   0  0  1  0  0  0  0  0  0  0  0  0
  -27.8344  -12.7792   20.3625 C   0  0  1  0  0  0  0  0  0  0  0  0
  -27.5376  -20.6138   22.4067 C   0  0  0  0  0  0  0  0  0  0  0  0
  -28.5236  -18.7288   22.5463 C   0  0  0  0  0  0  0  0  0  0  0  0
  -18.1656  -30.7582   17.7568 C   0  0  0  0  0  0  0  0  0  0  0  0
  -21.1812  -31.0063   23.6487 C   0  0  0  0  0  0  0  0  0  0  0  0
  -19.0881  -30.6436   22.3238 C   0  0  0  0  0  0  0  0  0  0  0  0
  -20.2501  -32.8492   22.2376 C   0  0  0  0  0  0  0  0  0  0  0  0
  -21.5264  -29.9131   16.1861 C   0  0  0  0  0  0  0  0  0  0  0  0
  -26.8269  -23.9908   20.7855 C   0  0  0  0  0  0  0  0  0  1  0  0
  -21.2838  -30.8574   21.0732 C   0  0  1  0  0  0  0  0  0  0  0  0
  -19.6818  -30.7648   17.6389 C   0  0  2  0  0  0  0  0  0  0  0  0
  -20.4739  -31.3233   22.3160 C   0  0  0  0  0  0  0  0  0  0  0  0
  -25.5024  -12.4993   19.6086 N   0  0  0  0  0  0  0  0  0  0  0  0
  -26.3395  -12.7630   20.6263 N   0  0  0  0  0  0  0  0  0  0  0  0
  -23.7423  -30.5765   21.0412 N   0  0  0  0  0  0  0  0  0  0  0  0
  -29.7697  -14.1998   19.7026 N   0  0  0  0  0  0  0  0  0  0  0  0
  -30.3275  -15.8863   21.3074 N   0  0  0  0  0  0  0  0  0  0  0  0
  -26.4000  -13.2708   22.9392 N   0  0  0  0  0  0  0  0  0  0  0  0
  -21.9856  -12.8648   22.0767 N   0  0  0  0  0  0  0  0  0  0  0  0
  -26.2475  -32.0667   23.0987 N   0  0  0  0  0  0  0  0  0  0  0  0
  -27.6073  -21.9130   21.7567 N   0  0  0  0  0  0  0  0  0  0  0  0
  -20.6507  -31.1688   19.7963 N   0  0  0  0  0  0  0  0  0  0  0  0
  -29.6855  -18.0051   22.0207 N   0  3  1  0  0  0  0  0  0  0  0  0
  -20.0632  -29.9715   16.4364 N   0  3  0  0  0  0  0  0  0  0  0  0
  -23.5297  -13.3151   23.7112 O   0  0  0  0  0  0  0  0  0  0  0  0
  -24.9751  -30.1316   23.3421 O   0  0  0  0  0  0  0  0  0  0  0  0
  -22.7767  -32.6972   20.9595 O   0  0  0  0  0  0  0  0  0  0  0  0
  -25.3241  -22.3482   21.7161 O   0  0  0  0  0  0  0  0  0  0  0  0
  -20.5408  -28.9839   19.0273 O   0  0  0  0  0  0  0  0  0  0  0  0
  -31.9525  -14.7947   20.1189 O   0  0  0  0  0  0  0  0  0  0  0  0
  -19.6900  -11.6712   17.1430 O   0  0  0  0  0  0  0  0  0  0  0  0
  -25.6579  -24.7251   20.4896 O   0  0  0  0  0  0  0  0  0  1  0  0
  -15.8011   -8.4086   19.2960 F   0  0  0  0  0  0  0  0  0  0  0  0
  -18.9142   -9.3502   15.8569 F   0  0  0  0  0  0  0  0  0  0  0  0
  1  2  1  0  0  0  0
  1  5  2  0  0  0  0
  2  6  2  0  0  0  0
  3  8  2  0  0  0  0
  3 15  1  0  0  0  0
  4  9  1  0  0  0  0
  4 15  2  0  0  0  0
  5 17  1  0  0  0  0
  6 19  1  0  0  0  0
  7 10  2  0  0  0  0
  7 18  1  0  0  0  0
  8 21  1  0  0  0  0
  9 21  2  0  0  0  0
 10 22  1  0  0  0  0
 11 12  2  0  0  0  0
 11 23  1  0  0  0  0
 12 24  1  0  0  0  0
 13 20  1  0  0  0  0
 13 22  2  0  0  0  0
 14 24  2  0  0  0  0
 14 25  1  0  0  0  0
 15 26  1  0  0  0  0
 16 26  1  0  0  0  0
 16 27  2  0  0  0  0
 16 28  1  0  0  0  0
 17 19  2  0  0  0  0
 17 34  1  0  0  0  0
 18 20  2  0  0  0  0
 18 35  1  0  0  0  0
 19 48  1  0  0  0  0
 20 36  1  0  0  0  0
 21 80  1  0  0  0  0
 22 81  1  0  0  0  0
 23 25  2  0  0  0  0
 23 80  1  0  0  0  0
 24 82  1  0  0  0  0
 25 83  1  0  0  0  0
 26 62  2  0  0  0  0
 27 63  1  0  0  0  0
 27 67  1  0  0  0  0
 28 68  1  0  0  0  0
 28 74  2  0  0  0  0
 29 49  1  0  0  0  0
 29 69  1  0  0  0  0
 29 75  2  0  0  0  0
 30 59  1  0  0  0  0
 30 64  1  0  0  0  0
 30 76  2  0  0  0  0
 31 58  1  0  0  0  0
 31 70  1  0  0  0  0
 31 77  2  0  0  0  0
 32 60  1  0  0  0  0
 32 71  1  0  0  0  0
 32 78  2  0  0  0  0
 33 65  1  0  0  0  0
 33 66  1  0  0  0  0
 33 79  2  0  0  0  0
 34 37  1  0  0  0  0
 35 49  1  0  0  0  0
 36 64  1  0  0  0  0
 37 39  1  0  0  0  0
 38 40  1  0  0  0  0
 38 43  1  0  0  0  0
 39 48  1  0  0  0  0
 40 50  1  0  0  0  0
 41 51  1  0  0  0  0
 41 52  1  0  0  0  0
 42 51  1  0  0  0  0
 42 52  1  0  0  0  0
 43 65  1  0  0  0  0
 44 46  1  0  0  0  0
 44 66  1  0  0  0  0
 45 50  1  0  0  0  0
 45 65  1  0  0  0  0
 46 72  1  0  0  0  0
 47 66  1  0  0  0  0
 47 72  1  0  0  0  0
 48 69  1  0  0  0  0
 49 64  1  0  0  0  0
 50 63  1  0  0  0  0
 51 70  1  0  0  0  0
 52 72  1  0  0  0  0
 53 60  1  0  0  0  0
 54 61  1  0  0  0  0
 55 61  1  0  0  0  0
 56 61  1  0  0  0  0
 57 73  1  0  0  0  0
 58 81  1  0  0  0  0
 59 61  1  0  0  0  0
 59 71  1  0  0  0  0
 60 73  1  0  0  0  0
 62 63  1  0  0  0  0
M  CHG  2  72   1  73   1
M  ISO  4  33 100  58 101  66 100  81 101
M  END
> <Batch ID>
0189

> <Smiles>
CNC(C)C(=O)NC(C(=O)N1Cc2cc([101O:1][101CH2:1]C(=O)NC3CC(N4CC[100N:0]([100C:0](=O)N5CCCC(n6nc(-c7ccc(Oc8ccc(F)cc8F)cc7)c(C(N)=O)c6N)C5)C4)C3)ccc2CC1C(=O)NC1CCCc2ccccc21)C(C)(C)C

> <Shape>
0.238

> <Color>
0.102

> <Negative vol penalty>
0.000

$$$$

  -OEChem-04052323223D

 81 89  0     1  0  0  0  0  0999 V2000
  -20.1861  -34.3460   23.3707 C   0  0  0  0  0  0  0  0  0  0  0  0
  -21.4659  -33.9690   22.9766 C   0  0  0  0  0  0  0  0  0  0  0  0
  -26.9796  -14.9551   21.5326 C   0  0  0  0  0  0  0  0  0  0  0  0
  -27.0141  -15.8366   19.2834 C   0  0  0  0  0  0  0  0  0  0  0  0
  -19.3277  -33.4059   23.9393 C   0  0  0  0  0  0  0  0  0  0  0  0
  -21.8885  -32.6517   23.1518 C   0  0  0  0  0  0  0  0  0  0  0  0
  -25.6166  -29.4629   19.4860 C   0  0  0  0  0  0  0  0  0  0  0  0
  -25.8281  -14.2285   21.2302 C   0  0  0  0  0  0  0  0  0  0  0  0
  -25.8626  -15.1099   18.9809 C   0  0  0  0  0  0  0  0  0  0  0  0
  -26.9807  -29.1819   19.5507 C   0  0  0  0  0  0  0  0  0  0  0  0
  -25.0428  -11.3640   19.6142 C   0  0  0  0  0  0  0  0  0  0  0  0
  -24.9887  -10.0332   20.0283 C   0  0  0  0  0  0  0  0  0  0  0  0
  -26.4884  -27.0620   20.5914 C   0  0  0  0  0  0  0  0  0  0  0  0
  -23.0317  -10.5260   21.3566 C   0  0  0  0  0  0  0  0  0  0  0  0
  -30.3434  -25.7029   17.1656 C   0  0  0  0  0  0  0  0  0  0  0  0
  -27.5726  -15.7593   20.5592 C   0  0  0  0  0  0  0  0  0  0  0  0
  -30.0969  -16.0881   20.7259 C   0  0  0  0  0  0  0  0  0  0  0  0
  -19.7366  -32.0742   24.1128 C   0  0  0  0  0  0  0  0  0  0  0  0
  -24.6772  -28.5489   19.9843 C   0  0  0  0  0  0  0  0  0  0  0  0
  -21.0352  -31.6932   23.7245 C   0  0  0  0  0  0  0  0  0  0  0  0
  -25.1129  -27.3327   20.5295 C   0  0  0  0  0  0  0  0  0  0  0  0
  -25.2696  -14.3058   19.9544 C   0  0  0  0  0  0  0  0  0  0  0  0
  -27.4169  -27.9826   20.1061 C   0  0  0  0  0  0  0  0  0  0  0  0
  -24.0914  -12.2759   20.0714 C   0  0  0  0  0  0  0  0  0  0  0  0
  -23.9832   -9.6141   20.8994 C   0  0  0  0  0  0  0  0  0  0  0  0
  -23.0859  -11.8569   20.9425 C   0  0  0  0  0  0  0  0  0  0  0  0
  -28.7619  -16.5106   20.8712 C   0  0  0  0  0  0  0  0  0  0  0  0
  -30.4474  -25.9874   18.5119 C   0  0  0  0  0  0  0  0  0  0  0  0
  -30.0107  -24.4003   16.8547 C   0  0  0  0  0  0  0  0  0  0  0  0
  -30.8441  -17.1575   21.1556 C   0  0  0  0  0  0  0  0  0  0  0  0
  -29.9254  -23.8432   19.0568 C   0  0  0  0  0  0  0  0  0  0  0  0
  -30.6152  -14.8407   20.2454 C   0  0  0  0  0  0  0  0  0  0  0  0
  -22.4862  -28.6144   22.2862 C   0  0  0  0  0  0  0  0  0  0  0  0
  -21.6929  -25.7105   21.0778 C   0  0  0  0  0  0  0  0  0  0  0  0
  -22.6484  -22.9426   19.3248 C   0  0  0  0  0  0  0  0  0  0  0  0
  -29.7806  -23.0307   21.4370 C   0  0  0  0  0  0  0  0  0  0  0  0
  -18.7902  -31.1047   24.7754 C   0  0  0  0  0  0  0  0  0  0  0  0
  -23.2081  -28.8553   19.8827 C   0  0  0  0  0  0  0  0  0  0  0  0
  -24.1438  -26.3090   21.0599 C   0  0  0  0  0  0  0  0  0  0  0  0
  -19.1827  -29.6422   24.5824 C   0  0  0  0  0  0  0  0  0  0  0  0
  -30.6610  -20.8939   24.1455 C   0  0  0  0  0  0  0  0  0  0  0  0
  -20.6713  -29.4487   24.8538 C   0  0  0  0  0  0  0  0  0  0  0  0
  -30.4012  -19.4887   23.5979 C   0  0  0  0  0  0  0  0  0  0  0  0
  -29.6254  -21.8986   23.6437 C   0  0  0  0  0  0  0  0  0  0  0  0
  -29.1959  -20.5341   21.6380 C   0  0  0  0  0  0  0  0  0  0  0  0
  -21.5215  -30.2681   23.8754 C   0  0  1  0  0  0  0  0  0  0  0  0
  -22.3646  -28.0774   20.8882 C   0  0  1  0  0  0  0  0  0  0  0  0
  -30.2512  -19.5004   22.0640 C   0  0  2  0  0  0  0  0  0  0  0  0
  -21.7935  -20.7201   18.5331 C   0  0  0  0  0  0  0  0  0  0  0  0
  -21.9871  -24.5940   23.9021 C   0  0  0  0  0  0  0  0  0  0  0  0
  -22.0667  -22.2964   22.9106 C   0  0  0  0  0  0  0  0  0  0  0  0
  -20.0274  -23.7051   22.6278 C   0  0  0  0  0  0  0  0  0  0  0  0
  -29.5571  -22.7542   15.0352 C   0  0  0  0  0  0  0  0  0  0  0  0
  -23.0482  -23.6702   16.4841 C   0  0  0  0  0  0  0  0  0  0  0  0
  -30.8073  -27.3859   18.9512 C   0  0  0  0  0  0  0  0  0  0  0  0
  -29.5776  -28.2647   19.1534 C   0  0  0  0  0  0  0  0  0  1  0  0
  -22.1248  -24.2883   21.3421 C   0  0  1  0  0  0  0  0  0  0  0  0
  -21.9802  -22.1895   18.1887 C   0  0  2  0  0  0  0  0  0  0  0  0
  -21.5701  -23.7409   22.6875 C   0  0  0  0  0  0  0  0  0  0  0  0
  -28.6635  -17.7515   21.3555 N   0  0  0  0  0  0  0  0  0  0  0  0
  -30.2443  -25.0785   19.4880 N   0  0  0  0  0  0  0  0  0  0  0  0
  -29.7939  -23.4410   17.7784 N   0  0  0  0  0  0  0  0  0  0  0  0
  -29.9462  -18.1179   21.5183 N   0  0  0  0  0  0  0  0  0  0  0  0
  -22.7181  -26.6575   20.9439 N   0  0  0  0  0  0  0  0  0  0  0  0
  -29.5412  -21.8567   22.1821 N   0  0  0  0  0  0  0  0  0  0  0  0
  -32.1750  -17.3605   21.2548 N   0  0  0  0  0  0  0  0  0  0  0  0
  -29.7081  -13.8504   19.8442 N   0  0  0  0  0  0  0  0  0  0  0  0
  -29.8938  -24.0665   15.4831 N   0  0  0  0  0  0  0  0  0  0  0  0
  -29.7047  -22.8619   20.0549 N   0  0  0  0  0  0  0  0  0  0  0  0
  -21.5800  -29.6136   22.5859 N   0  0  0  0  0  0  0  0  0  0  0  0
  -21.7232  -23.5155   20.1716 N   0  0  0  0  0  0  0  0  0  0  0  0
  -22.8050  -22.2810   16.9509 N   0  3  0  0  0  0  0  0  0  0  0  0
  -31.8459  -14.6049   20.1894 O   0  0  0  0  0  0  0  0  0  0  0  0
  -23.3381  -28.1551   23.0379 O   0  0  0  0  0  0  0  0  0  0  0  0
  -20.4905  -25.9703   20.9861 O   0  0  0  0  0  0  0  0  0  0  0  0
  -23.8690  -23.0124   19.4508 O   0  0  0  0  0  0  0  0  0  0  0  0
  -30.0611  -24.1005   21.9838 O   0  0  0  0  0  0  0  0  0  0  0  0
  -24.1460  -13.5967   19.6588 O   0  0  0  0  0  0  0  0  0  0  0  0
  -28.7477  -27.7060   20.1711 O   0  0  0  0  0  0  0  0  0  1  0  0
  -23.9304   -8.3357   21.2957 F   0  0  0  0  0  0  0  0  0  0  0  0
  -22.1683  -12.7280   21.3842 F   0  0  0  0  0  0  0  0  0  0  0  0
  1  2  1  0  0  0  0
  1  5  2  0  0  0  0
  2  6  2  0  0  0  0
  3  8  2  0  0  0  0
  3 16  1  0  0  0  0
  4  9  1  0  0  0  0
  4 16  2  0  0  0  0
  5 18  1  0  0  0  0
  6 20  1  0  0  0  0
  7 10  2  0  0  0  0
  7 19  1  0  0  0  0
  8 22  1  0  0  0  0
  9 22  2  0  0  0  0
 10 23  1  0  0  0  0
 11 12  2  0  0  0  0
 11 24  1  0  0  0  0
 12 25  1  0  0  0  0
 13 21  1  0  0  0  0
 13 23  2  0  0  0  0
 14 25  2  0  0  0  0
 14 26  1  0  0  0  0
 15 28  2  0  0  0  0
 15 29  1  0  0  0  0
 16 27  1  0  0  0  0
 17 27  1  0  0  0  0
 17 30  2  0  0  0  0
 17 32  1  0  0  0  0
 18 20  2  0  0  0  0
 18 37  1  0  0  0  0
 19 21  2  0  0  0  0
 19 38  1  0  0  0  0
 20 46  1  0  0  0  0
 21 39  1  0  0  0  0
 22 78  1  0  0  0  0
 23 79  1  0  0  0  0
 24 26  2  0  0  0  0
 24 78  1  0  0  0  0
 25 80  1  0  0  0  0
 26 81  1  0  0  0  0
 27 60  2  0  0  0  0
 28 55  1  0  0  0  0
 28 61  1  0  0  0  0
 29 62  2  0  0  0  0
 29 68  1  0  0  0  0
 30 63  1  0  0  0  0
 30 66  1  0  0  0  0
 31 61  2  0  0  0  0
 31 62  1  0  0  0  0
 31 69  1  0  0  0  0
 32 67  1  0  0  0  0
 32 73  2  0  0  0  0
 33 47  1  0  0  0  0
 33 70  1  0  0  0  0
 33 74  2  0  0  0  0
 34 57  1  0  0  0  0
 34 64  1  0  0  0  0
 34 75  2  0  0  0  0
 35 58  1  0  0  0  0
 35 71  1  0  0  0  0
 35 76  2  0  0  0  0
 36 65  1  0  0  0  0
 36 69  1  0  0  0  0
 36 77  2  0  0  0  0
 37 40  1  0  0  0  0
 38 47  1  0  0  0  0
 39 64  1  0  0  0  0
 40 42  1  0  0  0  0
 41 43  1  0  0  0  0
 41 44  1  0  0  0  0
 42 46  1  0  0  0  0
 43 48  1  0  0  0  0
 44 65  1  0  0  0  0
 45 48  1  0  0  0  0
 45 65  1  0  0  0  0
 46 70  1  0  0  0  0
 47 64  1  0  0  0  0
 48 63  1  0  0  0  0
 49 58  1  0  0  0  0
 50 59  1  0  0  0  0
 51 59  1  0  0  0  0
 52 59  1  0  0  0  0
 53 68  1  0  0  0  0
 54 72  1  0  0  0  0
 55 56  1  0  0  0  0
 56 79  1  0  0  0  0
 57 59  1  0  0  0  0
 57 71  1  0  0  0  0
 58 72  1  0  0  0  0
 60 63  1  0  0  0  0
M  CHG  1  72   1
M  ISO  4  36 100  56 101  69 100  79 101
M  END
> <Batch ID>
0189

> <Smiles>
CNc1cc(C[101CH2:1][101O:1]c2ccc3c(c2)CN(C(=O)C(NC(=O)C(C)NC)C(C)(C)C)C(C(=O)NC2CCCc4ccccc42)C3)nc([100NH:0][100C:0](=O)N2CCCC(n3nc(-c4ccc(Oc5ccc(F)cc5F)cc4)c(C(N)=O)c3N)C2)n1

> <Shape>
0.254

> <Color>
0.089

> <Negative vol penalty>
0.000

$$$$

  -OEChem-04052323223D

 87 97  0     1  0  0  0  0  0999 V2000
  -28.1837  -37.1512   24.1419 C   0  0  0  0  0  0  0  0  0  0  0  0
  -28.6677  -36.0346   23.4679 C   0  0  0  0  0  0  0  0  0  0  0  0
  -24.7377  -10.0893   22.3955 C   0  0  0  0  0  0  0  0  0  0  0  0
  -23.0374   -9.3818   20.8318 C   0  0  0  0  0  0  0  0  0  0  0  0
  -27.1296  -37.0167   25.0444 C   0  0  0  0  0  0  0  0  0  0  0  0
  -28.0985  -34.7824   23.6970 C   0  0  0  0  0  0  0  0  0  0  0  0
  -27.3499  -30.2767   19.6173 C   0  0  0  0  0  0  0  0  0  0  0  0
  -24.1329   -9.3298   23.3969 C   0  0  0  0  0  0  0  0  0  0  0  0
  -22.4325   -8.6222   21.8332 C   0  0  0  0  0  0  0  0  0  0  0  0
  -28.0884  -29.1260   19.3445 C   0  0  0  0  0  0  0  0  0  0  0  0
  -22.9282   -5.6353   23.3342 C   0  0  0  0  0  0  0  0  0  0  0  0
  -22.5254   -4.3401   23.0090 C   0  0  0  0  0  0  0  0  0  0  0  0
  -26.6072  -27.8480   20.7559 C   0  0  0  0  0  0  0  0  0  0  0  0
  -20.2430   -4.9124   23.5572 C   0  0  0  0  0  0  0  0  0  0  0  0
  -24.1900  -10.1154   21.1129 C   0  0  0  0  0  0  0  0  0  0  0  0
  -25.8139  -10.4817   19.1800 C   0  0  0  0  0  0  0  0  0  0  0  0
  -26.5408  -35.7638   25.2775 C   0  0  0  0  0  0  0  0  0  0  0  0
  -26.2391  -30.2236   20.4715 C   0  0  0  0  0  0  0  0  0  0  0  0
  -27.0364  -34.6307   24.6045 C   0  0  0  0  0  0  0  0  0  0  0  0
  -25.8547  -28.9989   21.0359 C   0  0  0  0  0  0  0  0  0  0  0  0
  -22.9803   -8.5962   23.1158 C   0  0  0  0  0  0  0  0  0  0  0  0
  -27.7189  -27.9120   19.9161 C   0  0  0  0  0  0  0  0  0  0  0  0
  -21.9885   -6.5691   23.7709 C   0  0  0  0  0  0  0  0  0  0  0  0
  -21.1828   -3.9786   23.1205 C   0  0  0  0  0  0  0  0  0  0  0  0
  -20.6459   -6.2076   23.8824 C   0  0  0  0  0  0  0  0  0  0  0  0
  -24.8140  -10.9003   20.0782 C   0  0  0  0  0  0  0  0  0  0  0  0
  -30.2527  -24.3588   20.2124 C   0  0  0  0  0  0  0  0  0  0  0  0
  -28.9076  -24.4694   19.9497 C   0  0  0  0  0  0  0  0  0  0  0  0
  -26.0647  -11.5879   18.4055 C   0  0  0  0  0  0  0  0  0  0  0  0
  -29.4881  -22.5802   19.1596 C   0  0  0  0  0  0  0  0  0  0  0  0
  -26.4584   -9.2069   19.0567 C   0  0  0  0  0  0  0  0  0  0  0  0
  -25.4827  -31.5626   23.2534 C   0  0  0  0  0  0  0  0  0  0  0  0
  -22.6140  -30.1492   22.7101 C   0  0  0  0  0  0  0  0  0  0  0  0
  -20.8511  -27.6767   21.1525 C   0  0  0  0  0  0  0  0  0  0  0  0
  -26.9737  -16.8323   17.7152 C   0  0  0  0  0  0  0  0  0  0  0  0
  -25.4348  -35.6599   26.2976 C   0  0  0  0  0  0  0  0  0  0  0  0
  -25.4370  -31.4686   20.7345 C   0  0  0  0  0  0  0  0  0  0  0  0
  -24.6583  -28.8847   21.9435 C   0  0  0  0  0  0  0  0  0  0  0  0
  -24.6398  -34.3602   26.2038 C   0  0  0  0  0  0  0  0  0  0  0  0
  -23.5821  -15.9687   17.9990 C   0  0  0  0  0  0  0  0  0  0  0  0
  -25.5812  -33.1661   26.0820 C   0  0  0  0  0  0  0  0  0  0  0  0
  -31.9400  -24.9306   22.1353 C   0  0  0  0  0  0  0  0  0  0  0  0
  -30.7691  -25.8467   22.3085 C   0  0  0  0  0  0  0  0  0  0  0  0
  -23.6769  -14.5270   18.4978 C   0  0  0  0  0  0  0  0  0  0  0  0
  -27.5809  -20.0233   19.0705 C   0  0  0  0  0  0  0  0  0  0  0  0
  -28.9294  -19.5965   16.9807 C   0  0  0  0  0  0  0  0  0  0  0  0
  -24.6228  -16.8737   18.6610 C   0  0  0  0  0  0  0  0  0  0  0  0
  -26.4391  -19.1882   18.4835 C   0  0  0  0  0  0  0  0  0  0  0  0
  -27.7543  -18.7965   16.4254 C   0  0  0  0  0  0  0  0  0  0  0  0
  -26.1062  -14.9322   19.0466 C   0  0  0  0  0  0  0  0  0  0  0  0
  -26.4289  -33.2596   24.8076 C   0  0  1  0  0  0  0  0  0  0  0  0
  -31.1483  -25.3713   20.9185 C   0  0  0  0  0  0  0  0  0  0  0  0
  -24.6301  -31.3976   22.0272 C   0  0  1  0  0  0  0  0  0  0  0  0
  -25.1110  -13.9867   18.3562 C   0  0  1  0  0  0  0  0  0  0  0  0
  -28.4380  -20.6553   17.9712 C   0  0  0  0  0  0  0  0  0  0  0  0
  -18.5283  -26.7533   20.9312 C   0  0  0  0  0  0  0  0  0  0  0  0
  -22.8609  -28.8729   25.4706 C   0  0  0  0  0  0  0  0  0  0  0  0
  -21.0540  -27.2691   24.8140 C   0  0  0  0  0  0  0  0  0  0  0  0
  -20.5734  -29.7150   24.9114 C   0  0  0  0  0  0  0  0  0  0  0  0
  -31.9400  -22.5766   19.7347 C   0  0  0  0  0  0  0  0  0  0  0  0
  -20.7973  -28.1963   18.2394 C   0  0  0  0  0  0  0  0  0  0  0  0
  -27.9959  -25.5777   20.2771 C   0  0  0  0  0  0  0  0  0  1  0  0
  -22.0048  -28.8068   23.0357 C   0  0  1  0  0  0  0  0  0  0  0  0
  -19.5604  -27.7096   20.3541 C   0  0  2  0  0  0  0  0  0  0  0  0
  -21.6470  -28.6682   24.5424 C   0  0  0  0  0  0  0  0  0  0  0  0
  -24.4543  -12.1731   19.8927 N   0  0  0  0  0  0  0  0  0  0  0  0
  -28.4376  -23.3589   19.2944 N   0  0  0  0  0  0  0  0  0  0  0  0
  -30.6103  -23.1432   19.7009 N   0  0  0  0  0  0  0  0  0  0  0  0
  -25.2324  -12.5640   18.8691 N   0  0  0  0  0  0  0  0  0  0  0  0
  -23.9099  -30.1312   22.1752 N   0  0  0  0  0  0  0  0  0  0  0  0
  -25.9688  -16.2976   18.5352 N   0  0  0  0  0  0  0  0  0  0  0  0
  -26.9527  -18.2191   17.5049 N   0  0  0  0  0  0  0  0  0  0  0  0
  -26.9138  -11.8113   17.3801 N   0  0  0  0  0  0  0  0  0  0  0  0
  -26.0811   -8.1800   19.9327 N   0  0  0  0  0  0  0  0  0  0  0  0
  -29.5687  -21.3325   18.5670 N   0  0  0  0  0  0  0  0  0  0  0  0
  -25.6476  -32.8755   23.6516 N   0  0  0  0  0  0  0  0  0  0  0  0
  -20.8691  -28.6446   22.1344 N   0  0  0  0  0  0  0  0  0  0  0  0
  -19.8176  -27.3247   18.9376 N   0  3  0  0  0  0  0  0  0  0  0  0
  -27.3543   -8.9899   18.2060 O   0  0  0  0  0  0  0  0  0  0  0  0
  -25.9548  -30.5719   23.7988 O   0  0  0  0  0  0  0  0  0  0  0  0
  -21.9613  -31.1754   22.9159 O   0  0  0  0  0  0  0  0  0  0  0  0
  -21.7517  -26.8705   20.9300 O   0  0  0  0  0  0  0  0  0  0  0  0
  -27.8393  -16.1129   17.2011 O   0  0  0  0  0  0  0  0  0  0  0  0
  -22.3899   -7.8548   24.0926 O   0  0  0  0  0  0  0  0  0  0  0  0
  -28.4417  -26.7822   19.6508 O   0  0  0  0  0  0  0  0  0  1  0  0
  -20.7959   -2.7353   22.8067 F   0  0  0  0  0  0  0  0  0  0  0  0
  -19.7383   -7.1006   24.3002 F   0  0  0  0  0  0  0  0  0  0  0  0
  1  2  1  0  0  0  0
  1  5  2  0  0  0  0
  2  6  2  0  0  0  0
  3  8  2  0  0  0  0
  3 15  1  0  0  0  0
  4  9  1  0  0  0  0
  4 15  2  0  0  0  0
  5 17  1  0  0  0  0
  6 19  1  0  0  0  0
  7 10  2  0  0  0  0
  7 18  1  0  0  0  0
  8 21  1  0  0  0  0
  9 21  2  0  0  0  0
 10 22  1  0  0  0  0
 11 12  2  0  0  0  0
 11 23  1  0  0  0  0
 12 24  1  0  0  0  0
 13 20  1  0  0  0  0
 13 22  2  0  0  0  0
 14 24  2  0  0  0  0
 14 25  1  0  0  0  0
 15 26  1  0  0  0  0
 16 26  1  0  0  0  0
 16 29  2  0  0  0  0
 16 31  1  0  0  0  0
 17 19  2  0  0  0  0
 17 36  1  0  0  0  0
 18 20  2  0  0  0  0
 18 37  1  0  0  0  0
 19 51  1  0  0  0  0
 20 38  1  0  0  0  0
 21 84  1  0  0  0  0
 22 85  1  0  0  0  0
 23 25  2  0  0  0  0
 23 84  1  0  0  0  0
 24 86  1  0  0  0  0
 25 87  1  0  0  0  0
 26 66  2  0  0  0  0
 27 28  2  0  0  0  0
 27 52  1  0  0  0  0
 27 68  1  0  0  0  0
 28 62  1  0  0  0  0
 28 67  1  0  0  0  0
 29 69  1  0  0  0  0
 29 73  1  0  0  0  0
 30 67  2  0  0  0  0
 30 68  1  0  0  0  0
 30 75  1  0  0  0  0
 31 74  1  0  0  0  0
 31 79  2  0  0  0  0
 32 53  1  0  0  0  0
 32 76  1  0  0  0  0
 32 80  2  0  0  0  0
 33 63  1  0  0  0  0
 33 70  1  0  0  0  0
 33 81  2  0  0  0  0
 34 64  1  0  0  0  0
 34 77  1  0  0  0  0
 34 82  2  0  0  0  0
 35 71  1  0  0  0  0
 35 72  1  0  0  0  0
 35 83  2  0  0  0  0
 36 39  1  0  0  0  0
 37 53  1  0  0  0  0
 38 70  1  0  0  0  0
 39 41  1  0  0  0  0
 40 44  1  0  0  0  0
 40 47  1  0  0  0  0
 41 51  1  0  0  0  0
 42 43  1  0  0  0  0
 42 52  1  0  0  0  0
 43 52  1  0  0  0  0
 44 54  1  0  0  0  0
 45 48  1  0  0  0  0
 45 55  1  0  0  0  0
 46 49  1  0  0  0  0
 46 55  1  0  0  0  0
 47 71  1  0  0  0  0
 48 72  1  0  0  0  0
 49 72  1  0  0  0  0
 50 54  1  0  0  0  0
 50 71  1  0  0  0  0
 51 76  1  0  0  0  0
 53 70  1  0  0  0  0
 54 69  1  0  0  0  0
 55 75  1  0  0  0  0
 56 64  1  0  0  0  0
 57 65  1  0  0  0  0
 58 65  1  0  0  0  0
 59 65  1  0  0  0  0
 60 68  1  0  0  0  0
 61 78  1  0  0  0  0
 62 85  1  0  0  0  0
 63 65  1  0  0  0  0
 63 77  1  0  0  0  0
 64 78  1  0  0  0  0
 66 69  1  0  0  0  0
M  CHG  1  78   1
M  ISO  4  35 100  62 101  72 100  85 101
M  END
> <Batch ID>
0189

> <Smiles>
CNC(C)C(=O)NC(C(=O)N1Cc2cc([101O:1][101CH2:1]c3nc(NC4CC[100N:0]([100C:0](=O)N5CCCC(n6nc(-c7ccc(Oc8ccc(F)cc8F)cc7)c(C(N)=O)c6N)C5)CC4)n(C)c3C3CC3)ccc2CC1C(=O)NC1CCCc2ccccc21)C(C)(C)C

> <Shape>
0.286

> <Color>
0.085

> <Negative vol penalty>
0.000

$$$$

  -OEChem-04052323223D

 80 88  0     1  0  0  0  0  0999 V2000
  -17.1645  -29.5563   24.5347 C   0  0  0  0  0  0  0  0  0  0  0  0
  -17.2976  -28.2534   24.0655 C   0  0  0  0  0  0  0  0  0  0  0  0
  -22.8372  -10.3494   20.6262 C   0  0  0  0  0  0  0  0  0  0  0  0
  -24.4538   -9.3186   22.0962 C   0  0  0  0  0  0  0  0  0  0  0  0
  -17.9113  -30.5832   23.9586 C   0  0  0  0  0  0  0  0  0  0  0  0
  -18.1768  -27.9768   23.0191 C   0  0  0  0  0  0  0  0  0  0  0  0
  -22.5373  -22.8322   20.6034 C   0  0  0  0  0  0  0  0  0  0  0  0
  -22.1539   -9.1374   20.5277 C   0  0  0  0  0  0  0  0  0  0  0  0
  -23.7705   -8.1066   21.9978 C   0  0  0  0  0  0  0  0  0  0  0  0
  -22.8007  -22.0985   19.4475 C   0  0  0  0  0  0  0  0  0  0  0  0
  -21.0001   -6.6963   23.3231 C   0  0  0  0  0  0  0  0  0  0  0  0
  -20.7789   -5.9813   24.5002 C   0  0  0  0  0  0  0  0  0  0  0  0
  -24.0979  -23.9390   18.5821 C   0  0  0  0  0  0  0  0  0  0  0  0
  -22.0267   -4.1174   23.6024 C   0  0  0  0  0  0  0  0  0  0  0  0
  -23.9872  -10.4400   21.4104 C   0  0  0  0  0  0  0  0  0  0  0  0
  -24.4838  -12.7120   22.4588 C   0  0  0  0  0  0  0  0  0  0  0  0
  -18.8072  -30.3174   22.9111 C   0  0  0  0  0  0  0  0  0  0  0  0
  -23.0440  -24.1312   20.7528 C   0  0  0  0  0  0  0  0  0  0  0  0
  -18.9352  -29.0012   22.4276 C   0  0  0  0  0  0  0  0  0  0  0  0
  -23.8417  -24.6861   19.7419 C   0  0  0  0  0  0  0  0  0  0  0  0
  -22.6205   -8.0160   21.2136 C   0  0  0  0  0  0  0  0  0  0  0  0
  -23.5787  -22.6529   18.4354 C   0  0  0  0  0  0  0  0  0  0  0  0
  -21.7345   -6.1218   22.2856 C   0  0  0  0  0  0  0  0  0  0  0  0
  -21.2923   -4.6919   24.6398 C   0  0  0  0  0  0  0  0  0  0  0  0
  -22.2478   -4.8324   22.4253 C   0  0  0  0  0  0  0  0  0  0  0  0
  -24.6939  -11.6916   21.5120 C   0  0  0  0  0  0  0  0  0  0  0  0
  -25.4013  -13.6797   22.1299 C   0  0  0  0  0  0  0  0  0  0  0  0
  -23.5435  -12.7790   23.5391 C   0  0  0  0  0  0  0  0  0  0  0  0
  -21.7548  -27.0157   21.1006 C   0  0  0  0  0  0  0  0  0  0  0  0
  -24.8415  -27.9157   21.5305 C   0  0  0  0  0  0  0  0  0  0  0  0
  -28.1491  -27.2716   20.9906 C   0  0  0  0  0  0  0  0  0  0  0  0
  -28.1103  -16.7801   18.5142 C   0  0  0  0  0  0  0  0  0  0  0  0
  -19.5579  -31.4677   22.2885 C   0  0  0  0  0  0  0  0  0  0  0  0
  -22.7730  -24.8994   22.0173 C   0  0  0  0  0  0  0  0  0  0  0  0
  -24.4262  -26.0690   19.8623 C   0  0  0  0  0  0  0  0  0  0  0  0
  -20.7446  -31.0295   21.4341 C   0  0  0  0  0  0  0  0  0  0  0  0
  -29.3221  -13.5705   18.9477 C   0  0  0  0  0  0  0  0  0  0  0  0
  -20.3424  -29.8857   20.5084 C   0  0  0  0  0  0  0  0  0  0  0  0
  -28.2157  -12.8664   19.7325 C   0  0  0  0  0  0  0  0  0  0  0  0
  -28.7353  -14.4728   17.8684 C   0  0  0  0  0  0  0  0  0  0  0  0
  -26.6646  -14.8058   19.1800 C   0  0  0  0  0  0  0  0  0  0  0  0
  -25.8183  -17.4548   17.6744 C   0  0  0  0  0  0  0  0  0  0  0  0
  -27.0918  -20.0734   17.7515 C   0  0  0  0  0  0  0  0  0  0  0  0
  -19.8968  -28.6572   21.3108 C   0  0  1  0  0  0  0  0  0  0  0  0
  -22.9125  -26.4083   21.8412 C   0  0  1  0  0  0  0  0  0  0  0  0
  -27.2030  -13.8817   20.2911 C   0  0  1  0  0  0  0  0  0  0  0  0
  -27.2549  -19.0803   18.8993 C   0  0  1  0  0  0  0  0  0  0  0  0
  -25.6395  -18.4439   16.5134 C   0  0  1  0  0  0  0  0  0  0  0  0
  -26.3414  -19.3904   20.0887 C   0  0  0  0  0  0  0  0  0  0  0  0
  -24.2720  -18.2340   15.8656 C   0  0  0  0  0  0  0  0  0  0  0  0
  -30.4356  -28.2076   21.4302 C   0  0  0  0  0  0  0  0  0  0  0  0
  -24.4104  -29.9925   19.3371 C   0  0  0  0  0  0  0  0  0  0  0  0
  -26.8973  -30.2214   19.1616 C   0  0  0  0  0  0  0  0  0  0  0  0
  -25.7405  -30.8025   21.2939 C   0  0  0  0  0  0  0  0  0  0  0  0
  -28.9517  -24.8881   22.5506 C   0  0  0  0  0  0  0  0  0  0  0  0
  -25.5799  -20.9279   15.9875 C   0  0  0  0  0  0  0  0  0  0  0  0
  -25.0711  -22.1979   16.6405 C   0  0  0  0  0  0  0  0  0  1  0  0
  -25.9575  -28.3745   20.6233 C   0  0  1  0  0  0  0  0  0  0  0  0
  -29.3423  -27.2755   21.9290 C   0  0  2  0  0  0  0  0  0  0  0  0
  -25.7390  -29.8224   20.1006 C   0  0  0  0  0  0  0  0  0  0  0  0
  -25.6682  -11.9840   20.6464 N   0  0  0  0  0  0  0  0  0  0  0  0
  -26.0784  -13.1991   21.0479 N   0  0  0  0  0  0  0  0  0  0  0  0
  -24.1276  -26.7827   21.1149 N   0  0  0  0  0  0  0  0  0  0  0  0
  -27.7755  -15.4195   18.4362 N   0  0  0  0  0  0  0  0  0  0  0  0
  -27.0535  -17.7026   18.4295 N   0  0  0  0  0  0  0  0  0  0  0  0
  -25.6866  -14.8865   22.6634 N   0  0  0  0  0  0  0  0  0  0  0  0
  -22.6739  -11.6976   23.7360 N   0  0  0  0  0  0  0  0  0  0  0  0
  -21.0466  -27.9499   21.8323 N   0  0  0  0  0  0  0  0  0  0  0  0
  -27.1951  -28.1905   21.3736 N   0  0  0  0  0  0  0  0  0  0  0  0
  -25.7690  -19.8660   17.0435 N   0  3  2  0  0  0  0  0  0  0  0  0
  -29.9123  -25.9037   22.0479 N   0  3  0  0  0  0  0  0  0  0  0  0
  -23.4654  -13.7755   24.2970 O   0  0  0  0  0  0  0  0  0  0  0  0
  -21.5221  -26.6640   19.9500 O   0  0  0  0  0  0  0  0  0  0  0  0
  -24.6161  -28.5353   22.5730 O   0  0  0  0  0  0  0  0  0  0  0  0
  -28.0727  -26.5303   20.0133 O   0  0  0  0  0  0  0  0  0  0  0  0
  -29.2839  -17.1477   18.6506 O   0  0  0  0  0  0  0  0  0  0  0  0
  -21.9538   -6.8332   21.1180 O   0  0  0  0  0  0  0  0  0  0  0  0
  -23.8386  -21.9341   17.2978 O   0  0  0  0  0  0  0  0  0  1  0  0
  -21.0812   -4.0060   25.7708 F   0  0  0  0  0  0  0  0  0  0  0  0
  -22.9551   -4.2757   21.4325 F   0  0  0  0  0  0  0  0  0  0  0  0
  1  2  1  0  0  0  0
  1  5  2  0  0  0  0
  2  6  2  0  0  0  0
  3  8  2  0  0  0  0
  3 15  1  0  0  0  0
  4  9  1  0  0  0  0
  4 15  2  0  0  0  0
  5 17  1  0  0  0  0
  6 19  1  0  0  0  0
  7 10  2  0  0  0  0
  7 18  1  0  0  0  0
  8 21  1  0  0  0  0
  9 21  2  0  0  0  0
 10 22  1  0  0  0  0
 11 12  2  0  0  0  0
 11 23  1  0  0  0  0
 12 24  1  0  0  0  0
 13 20  1  0  0  0  0
 13 22  2  0  0  0  0
 14 24  2  0  0  0  0
 14 25  1  0  0  0  0
 15 26  1  0  0  0  0
 16 26  1  0  0  0  0
 16 27  2  0  0  0  0
 16 28  1  0  0  0  0
 17 19  2  0  0  0  0
 17 33  1  0  0  0  0
 18 20  2  0  0  0  0
 18 34  1  0  0  0  0
 19 44  1  0  0  0  0
 20 35  1  0  0  0  0
 21 77  1  0  0  0  0
 22 78  1  0  0  0  0
 23 25  2  0  0  0  0
 23 77  1  0  0  0  0
 24 79  1  0  0  0  0
 25 80  1  0  0  0  0
 26 61  2  0  0  0  0
 27 62  1  0  0  0  0
 27 66  1  0  0  0  0
 28 67  1  0  0  0  0
 28 72  2  0  0  0  0
 29 45  1  0  0  0  0
 29 68  1  0  0  0  0
 29 73  2  0  0  0  0
 30 58  1  0  0  0  0
 30 63  1  0  0  0  0
 30 74  2  0  0  0  0
 31 59  1  0  0  0  0
 31 69  1  0  0  0  0
 31 75  2  0  0  0  0
 32 64  1  0  0  0  0
 32 65  1  0  0  0  0
 32 76  2  0  0  0  0
 33 36  1  0  0  0  0
 34 45  1  0  0  0  0
 35 63  1  0  0  0  0
 36 38  1  0  0  0  0
 37 39  1  0  0  0  0
 37 40  1  0  0  0  0
 38 44  1  0  0  0  0
 39 46  1  0  0  0  0
 40 64  1  0  0  0  0
 41 46  1  0  0  0  0
 41 64  1  0  0  0  0
 42 48  1  0  0  0  0
 42 65  1  0  0  0  0
 43 47  1  0  0  0  0
 43 70  1  0  0  0  0
 44 68  1  0  0  0  0
 45 63  1  0  0  0  0
 46 62  1  0  0  0  0
 47 49  1  0  0  0  0
 47 65  1  0  0  0  0
 48 50  1  0  0  0  0
 48 70  1  0  0  0  0
 51 59  1  0  0  0  0
 52 60  1  0  0  0  0
 53 60  1  0  0  0  0
 54 60  1  0  0  0  0
 55 71  1  0  0  0  0
 56 57  1  0  0  0  0
 56 70  1  0  0  0  0
 57 78  1  0  0  0  0
 58 60  1  0  0  0  0
 58 69  1  0  0  0  0
 59 71  1  0  0  0  0
 61 62  1  0  0  0  0
M  CHG  2  70   1  71   1
M  ISO  4  32 100  57 101  65 100  78 101
M  END
> <Batch ID>
0189

> <Smiles>
CNC(C)C(=O)NC(C(=O)N1Cc2cc([101O:1][101CH2:1]CN3CC(C)[100N:0]([100C:0](=O)N4CCCC(n5nc(-c6ccc(Oc7ccc(F)cc7F)cc6)c(C(N)=O)c5N)C4)CC3C)ccc2CC1C(=O)NC1CCCc2ccccc21)C(C)(C)C

> <Shape>
0.254

> <Color>
0.126

> <Negative vol penalty>
0.000

$$$$

  -OEChem-04052323223D

 85 94  0     1  0  0  0  0  0999 V2000
  -32.5890  -13.7679   20.9423 C   0  0  0  0  0  0  0  0  0  0  0  0
  -31.8651  -14.9523   20.8498 C   0  0  0  0  0  0  0  0  0  0  0  0
  -28.6626  -27.6387   21.0090 C   0  0  0  0  0  0  0  0  0  0  0  0
  -27.0217  -25.9848   21.6485 C   0  0  0  0  0  0  0  0  0  0  0  0
  -31.9877  -12.5565   20.6032 C   0  0  0  0  0  0  0  0  0  0  0  0
  -30.5398  -14.9262   20.4170 C   0  0  0  0  0  0  0  0  0  0  0  0
  -25.9779  -18.5492   22.3062 C   0  0  0  0  0  0  0  0  0  0  0  0
  -29.6755  -26.8376   21.5361 C   0  0  0  0  0  0  0  0  0  0  0  0
  -28.0346  -25.1836   22.1756 C   0  0  0  0  0  0  0  0  0  0  0  0
  -25.4092  -19.7011   21.7645 C   0  0  0  0  0  0  0  0  0  0  0  0
  -30.2269  -22.5391   23.3665 C   0  0  0  0  0  0  0  0  0  0  0  0
  -30.1980  -21.1766   23.0695 C   0  0  0  0  0  0  0  0  0  0  0  0
  -23.6806  -18.3616   20.7462 C   0  0  0  0  0  0  0  0  0  0  0  0
  -30.3558  -21.6870   20.7132 C   0  0  0  0  0  0  0  0  0  0  0  0
  -27.3357  -27.2123   21.0652 C   0  0  0  0  0  0  0  0  0  0  0  0
  -25.7908  -28.0245   19.2048 C   0  0  0  0  0  0  0  0  0  0  0  0
  -30.6514  -12.5144   20.1753 C   0  0  0  0  0  0  0  0  0  0  0  0
  -25.4075  -17.2915   22.0625 C   0  0  0  0  0  0  0  0  0  0  0  0
  -29.9205  -13.7132   20.0706 C   0  0  0  0  0  0  0  0  0  0  0  0
  -24.2425  -17.1955   21.2881 C   0  0  0  0  0  0  0  0  0  0  0  0
  -29.3615  -25.6101   22.1194 C   0  0  0  0  0  0  0  0  0  0  0  0
  -24.2621  -19.6072   20.9820 C   0  0  0  0  0  0  0  0  0  0  0  0
  -30.3202  -23.4756   22.3370 C   0  0  0  0  0  0  0  0  0  0  0  0
  -30.2624  -20.7505   21.7428 C   0  0  0  0  0  0  0  0  0  0  0  0
  -30.3847  -23.0496   21.0104 C   0  0  0  0  0  0  0  0  0  0  0  0
  -26.2888  -28.0397   20.5214 C   0  0  0  0  0  0  0  0  0  0  0  0
  -24.8135  -28.9896   19.1962 C   0  0  0  0  0  0  0  0  0  0  0  0
  -22.9864  -24.2600   18.2957 C   0  0  0  0  0  0  0  0  0  0  0  0
  -23.5835  -23.0892   20.1148 C   0  0  0  0  0  0  0  0  0  0  0  0
  -22.1858  -24.8340   20.3123 C   0  0  0  0  0  0  0  0  0  0  0  0
  -26.1769  -27.2107   18.0892 C   0  0  0  0  0  0  0  0  0  0  0  0
  -26.3846  -14.6231   20.6383 C   0  0  0  0  0  0  0  0  0  0  0  0
  -23.5697  -13.4594   21.7539 C   0  0  0  0  0  0  0  0  0  0  0  0
  -20.3878  -14.0943   22.8118 C   0  0  0  0  0  0  0  0  0  0  0  0
  -21.9924  -28.4840   23.3855 C   0  0  0  0  0  0  0  0  0  0  0  0
  -30.0590  -11.1866   19.7744 C   0  0  0  0  0  0  0  0  0  0  0  0
  -26.0177  -16.0613   22.6761 C   0  0  0  0  0  0  0  0  0  0  0  0
  -23.5796  -15.8713   21.0135 C   0  0  0  0  0  0  0  0  0  0  0  0
  -28.5353  -11.2021   19.6828 C   0  0  0  0  0  0  0  0  0  0  0  0
  -24.6167  -30.9089   23.4040 C   0  0  0  0  0  0  0  0  0  0  0  0
  -18.5219  -28.0450   22.4303 C   0  0  0  0  0  0  0  0  0  0  0  0
  -28.0592  -12.4308   18.9144 C   0  0  0  0  0  0  0  0  0  0  0  0
  -24.6103  -31.5022   21.9995 C   0  0  0  0  0  0  0  0  0  0  0  0
  -18.9549  -26.5857   22.4314 C   0  0  0  0  0  0  0  0  0  0  0  0
  -23.2010  -30.5847   23.8552 C   0  0  0  0  0  0  0  0  0  0  0  0
  -19.8147  -28.7750   22.1003 C   0  0  0  0  0  0  0  0  0  0  0  0
  -22.5039  -30.1325   21.5109 C   0  0  0  0  0  0  0  0  0  0  0  0
  -28.4731  -13.7230   19.6290 C   0  0  1  0  0  0  0  0  0  0  0  0
  -25.6470  -14.7787   21.9380 C   0  0  1  0  0  0  0  0  0  0  0  0
  -23.8779  -30.6087   20.9856 C   0  0  2  0  0  0  0  0  0  0  0  0
  -20.3511  -26.6338   23.0581 C   0  0  1  0  0  0  0  0  0  0  0  0
  -23.0645  -24.4889   16.8248 C   0  0  0  0  0  0  0  0  0  0  0  0
  -18.3139  -12.9375   23.6231 C   0  0  0  0  0  0  0  0  0  0  0  0
  -22.9425  -12.5864   18.8983 C   0  0  0  0  0  0  0  0  0  0  0  0
  -20.5476  -12.3232   19.5789 C   0  0  0  0  0  0  0  0  0  0  0  0
  -22.3100  -10.9270   20.6592 C   0  0  0  0  0  0  0  0  0  0  0  0
  -20.4816  -15.5006   25.4142 C   0  0  0  0  0  0  0  0  0  0  0  0
  -24.3484  -21.9711   20.7369 C   0  0  0  0  0  0  0  0  0  1  0  0
  -21.2549  -25.5322   22.5194 C   0  0  0  0  0  0  0  0  0  0  0  0
  -22.1579  -13.3866   21.2243 C   0  0  1  0  0  0  0  0  0  0  0  0
  -19.6153  -13.6129   24.0267 C   0  0  2  0  0  0  0  0  0  0  0  0
  -22.0029  -12.3307   20.0936 C   0  0  0  0  0  0  0  0  0  0  0  0
  -25.6785  -28.9429   21.2932 N   0  0  0  0  0  0  0  0  0  0  0  0
  -23.7021  -23.2346   18.7854 N   0  0  0  0  0  0  0  0  0  0  0  0
  -22.2075  -25.1001   18.9963 N   0  0  0  0  0  0  0  0  0  0  0  0
  -22.8461  -23.8484   20.9412 N   0  0  0  0  0  0  0  0  0  0  0  0
  -24.7869  -29.5043   20.4590 N   0  0  0  0  0  0  0  0  0  0  0  0
  -24.2177  -14.6966   21.6304 N   0  0  0  0  0  0  0  0  0  0  0  0
  -22.5166  -29.6971   22.9149 N   0  0  0  0  0  0  0  0  0  0  0  0
  -20.8554  -27.9779   22.7515 N   0  0  0  0  0  0  0  0  0  0  0  0
  -23.9830  -29.4396   18.2318 N   0  0  0  0  0  0  0  0  0  0  0  0
  -27.1985  -26.2686   18.2713 N   0  0  0  0  0  0  0  0  0  0  0  0
  -21.3963  -25.6666   21.1073 N   0  0  0  0  0  0  0  0  0  0  0  0
  -27.6015  -13.9790   20.7555 N   0  0  0  0  0  0  0  0  0  0  0  0
  -21.2996  -13.1540   22.3808 N   0  0  0  0  0  0  0  0  0  0  0  0
  -19.2918  -14.7593   24.9224 N   0  3  0  0  0  0  0  0  0  0  0  0
  -25.6434  -27.3272   16.9599 O   0  0  0  0  0  0  0  0  0  0  0  0
  -25.8859  -15.0542   19.6052 O   0  0  0  0  0  0  0  0  0  0  0  0
  -24.0763  -12.4575   22.2650 O   0  0  0  0  0  0  0  0  0  0  0  0
  -20.1985  -15.1930   22.2944 O   0  0  0  0  0  0  0  0  0  0  0  0
  -22.5109  -27.8843   24.3366 O   0  0  0  0  0  0  0  0  0  0  0  0
  -30.3497  -24.8280   22.6336 O   0  0  0  0  0  0  0  0  0  0  0  0
  -23.7015  -20.7375   20.4479 O   0  0  0  0  0  0  0  0  0  1  0  0
  -30.2362  -19.4420   21.4578 F   0  0  0  0  0  0  0  0  0  0  0  0
  -30.4757  -23.9445   20.0171 F   0  0  0  0  0  0  0  0  0  0  0  0
  1  2  1  0  0  0  0
  1  5  2  0  0  0  0
  2  6  2  0  0  0  0
  3  8  2  0  0  0  0
  3 15  1  0  0  0  0
  4  9  1  0  0  0  0
  4 15  2  0  0  0  0
  5 17  1  0  0  0  0
  6 19  1  0  0  0  0
  7 10  2  0  0  0  0
  7 18  1  0  0  0  0
  8 21  1  0  0  0  0
  9 21  2  0  0  0  0
 10 22  1  0  0  0  0
 11 12  2  0  0  0  0
 11 23  1  0  0  0  0
 12 24  1  0  0  0  0
 13 20  1  0  0  0  0
 13 22  2  0  0  0  0
 14 24  2  0  0  0  0
 14 25  1  0  0  0  0
 15 26  1  0  0  0  0
 16 26  1  0  0  0  0
 16 27  2  0  0  0  0
 16 31  1  0  0  0  0
 17 19  2  0  0  0  0
 17 36  1  0  0  0  0
 18 20  2  0  0  0  0
 18 37  1  0  0  0  0
 19 48  1  0  0  0  0
 20 38  1  0  0  0  0
 21 82  1  0  0  0  0
 22 83  1  0  0  0  0
 23 25  2  0  0  0  0
 23 82  1  0  0  0  0
 24 84  1  0  0  0  0
 25 85  1  0  0  0  0
 26 63  2  0  0  0  0
 27 67  1  0  0  0  0
 27 71  1  0  0  0  0
 28 52  1  0  0  0  0
 28 64  2  0  0  0  0
 28 65  1  0  0  0  0
 29 58  1  0  0  0  0
 29 64  1  0  0  0  0
 29 66  2  0  0  0  0
 30 65  2  0  0  0  0
 30 66  1  0  0  0  0
 30 73  1  0  0  0  0
 31 72  1  0  0  0  0
 31 77  2  0  0  0  0
 32 49  1  0  0  0  0
 32 74  1  0  0  0  0
 32 78  2  0  0  0  0
 33 60  1  0  0  0  0
 33 68  1  0  0  0  0
 33 79  2  0  0  0  0
 34 61  1  0  0  0  0
 34 75  1  0  0  0  0
 34 80  2  0  0  0  0
 35 69  1  0  0  0  0
 35 70  1  0  0  0  0
 35 81  2  0  0  0  0
 36 39  1  0  0  0  0
 37 49  1  0  0  0  0
 38 68  1  0  0  0  0
 39 42  1  0  0  0  0
 40 43  1  0  0  0  0
 40 45  1  0  0  0  0
 41 44  1  0  0  0  0
 41 46  1  0  0  0  0
 42 48  1  0  0  0  0
 43 50  1  0  0  0  0
 44 51  1  0  0  0  0
 45 69  1  0  0  0  0
 46 70  1  0  0  0  0
 47 50  1  0  0  0  0
 47 69  1  0  0  0  0
 48 74  1  0  0  0  0
 49 68  1  0  0  0  0
 50 67  1  0  0  0  0
 51 59  1  0  0  0  0
 51 70  1  0  0  0  0
 53 61  1  0  0  0  0
 54 62  1  0  0  0  0
 55 62  1  0  0  0  0
 56 62  1  0  0  0  0
 57 76  1  0  0  0  0
 58 83  1  0  0  0  0
 59 73  1  0  0  0  0
 60 62  1  0  0  0  0
 60 75  1  0  0  0  0
 61 76  1  0  0  0  0
 63 67  1  0  0  0  0
M  CHG  1  76   1
M  ISO  4  35 100  58 101  70 100  83 101
M  END
> <Batch ID>
0189

> <Smiles>
CNC(C)C(=O)NC(C(=O)N1Cc2cc([101O:1][101CH2:1]c3nc(C)nc(NCC4CCC[100N:0]4[100C:0](=O)N4CCCC(n5nc(-c6ccc(Oc7ccc(F)cc7F)cc6)c(C(N)=O)c5N)C4)n3)ccc2CC1C(=O)NC1CCCc2ccccc21)C(C)(C)C

> <Shape>
0.250

> <Color>
0.060

> <Negative vol penalty>
0.000

$$$$

  -OEChem-04052323223D

 84 93  0     1  0  0  0  0  0999 V2000
  -16.8725  -30.3491   23.2976 C   0  0  0  0  0  0  0  0  0  0  0  0
  -18.1323  -30.9041   23.0970 C   0  0  0  0  0  0  0  0  0  0  0  0
  -25.6596  -11.6583   19.5509 C   0  0  0  0  0  0  0  0  0  0  0  0
  -23.7370  -11.8200   21.0050 C   0  0  0  0  0  0  0  0  0  0  0  0
  -16.7326  -28.9676   23.4235 C   0  0  0  0  0  0  0  0  0  0  0  0
  -19.2532  -30.0779   23.0233 C   0  0  0  0  0  0  0  0  0  0  0  0
  -25.6322  -29.5974   19.7992 C   0  0  0  0  0  0  0  0  0  0  0  0
  -25.8038  -10.3133   19.8910 C   0  0  0  0  0  0  0  0  0  0  0  0
  -23.8811  -10.4749   21.3451 C   0  0  0  0  0  0  0  0  0  0  0  0
  -26.9802  -29.4094   20.1013 C   0  0  0  0  0  0  0  0  0  0  0  0
  -25.8319   -8.6169   23.3880 C   0  0  0  0  0  0  0  0  0  0  0  0
  -25.7267   -8.2744   24.7360 C   0  0  0  0  0  0  0  0  0  0  0  0
  -26.6082  -27.0308   20.2534 C   0  0  0  0  0  0  0  0  0  0  0  0
  -23.8549   -6.8351   24.2242 C   0  0  0  0  0  0  0  0  0  0  0  0
  -30.9673  -26.9600   17.6924 C   0  0  0  0  0  0  0  0  0  0  0  0
  -24.6262  -12.4117   20.1080 C   0  0  0  0  0  0  0  0  0  0  0  0
  -23.7197  -14.3341   18.6972 C   0  0  0  0  0  0  0  0  0  0  0  0
  -17.8512  -28.1233   23.3416 C   0  0  0  0  0  0  0  0  0  0  0  0
  -24.7583  -28.5027   19.7326 C   0  0  0  0  0  0  0  0  0  0  0  0
  -19.1284  -28.6839   23.1496 C   0  0  0  0  0  0  0  0  0  0  0  0
  -25.2500  -27.2073   19.9478 C   0  0  0  0  0  0  0  0  0  0  0  0
  -24.9145   -9.7215   20.7881 C   0  0  0  0  0  0  0  0  0  0  0  0
  -27.4678  -28.1262   20.3313 C   0  0  0  0  0  0  0  0  0  0  0  0
  -24.9485   -8.0686   22.4580 C   0  0  0  0  0  0  0  0  0  0  0  0
  -24.7382   -7.3835   25.1541 C   0  0  0  0  0  0  0  0  0  0  0  0
  -23.9601   -7.1777   22.8762 C   0  0  0  0  0  0  0  0  0  0  0  0
  -24.4771  -13.8013   19.7575 C   0  0  0  0  0  0  0  0  0  0  0  0
  -23.9043  -15.6918   18.7917 C   0  0  0  0  0  0  0  0  0  0  0  0
  -30.9927  -24.9733   18.3324 C   0  0  0  0  0  0  0  0  0  0  0  0
  -22.9207  -13.6618   17.7147 C   0  0  0  0  0  0  0  0  0  0  0  0
  -22.1566  -27.6093   21.3254 C   0  0  0  0  0  0  0  0  0  0  0  0
  -22.0731  -25.2562   19.0942 C   0  0  0  0  0  0  0  0  0  0  0  0
  -23.7723  -23.3438   16.8353 C   0  0  0  0  0  0  0  0  0  0  0  0
  -26.9452  -20.0671   19.4481 C   0  0  0  0  0  0  0  0  0  0  0  0
  -17.6563  -26.6398   23.5309 C   0  0  0  0  0  0  0  0  0  0  0  0
  -23.3124  -28.7197   19.3794 C   0  0  0  0  0  0  0  0  0  0  0  0
  -24.3574  -25.9969   19.8682 C   0  0  0  0  0  0  0  0  0  0  0  0
  -18.8469  -25.8049   23.0666 C   0  0  0  0  0  0  0  0  0  0  0  0
  -25.9850  -18.4972   22.4409 C   0  0  0  0  0  0  0  0  0  0  0  0
  -20.1517  -26.4015   23.5846 C   0  0  0  0  0  0  0  0  0  0  0  0
  -25.4417  -17.1655   21.9240 C   0  0  0  0  0  0  0  0  0  0  0  0
  -27.2474  -18.9304   21.6935 C   0  0  0  0  0  0  0  0  0  0  0  0
  -28.9413  -21.0963   20.6231 C   0  0  0  0  0  0  0  0  0  0  0  0
  -27.4039  -22.4950   19.2934 C   0  0  0  0  0  0  0  0  0  0  0  0
  -26.5472  -17.6360   19.7052 C   0  0  0  0  0  0  0  0  0  0  0  0
  -30.1180  -21.5651   19.7732 C   0  0  0  0  0  0  0  0  0  0  0  0
  -28.5488  -22.9641   18.4104 C   0  0  0  0  0  0  0  0  0  0  0  0
  -20.3651  -27.8188   23.0393 C   0  0  1  0  0  0  0  0  0  0  0  0
  -22.4068  -27.5834   19.8440 C   0  0  1  0  0  0  0  0  0  0  0  0
  -25.2455  -17.2041   20.3980 C   0  0  1  0  0  0  0  0  0  0  0  0
  -23.4415  -21.4790   15.1891 C   0  0  0  0  0  0  0  0  0  0  0  0
  -21.9448  -23.2533   21.3925 C   0  0  0  0  0  0  0  0  0  0  0  0
  -22.5700  -21.4543   19.7675 C   0  0  0  0  0  0  0  0  0  0  0  0
  -20.4446  -22.7243   19.4628 C   0  0  0  0  0  0  0  0  0  0  0  0
  -24.6334  -25.0382   14.5667 C   0  0  0  0  0  0  0  0  0  0  0  0
  -30.9910  -23.4760   18.4275 C   0  0  0  0  0  0  0  0  0  0  0  0
  -31.0761  -28.2150   19.9080 C   0  0  0  0  0  0  0  0  0  0  0  0
  -29.7114  -28.8735   20.0783 C   0  0  0  0  0  0  0  0  0  1  0  0
  -22.6497  -23.8652   18.9853 C   0  0  1  0  0  0  0  0  0  0  0  0
  -23.4724  -22.9860   15.3909 C   0  0  2  0  0  0  0  0  0  0  0  0
  -21.9190  -22.8471   19.9055 C   0  0  0  0  0  0  0  0  0  0  0  0
  -30.9408  -25.6771   17.2254 N   0  0  0  0  0  0  0  0  0  0  0  0
  -25.0969  -14.7437   20.4730 N   0  0  0  0  0  0  0  0  0  0  0  0
  -31.0476  -25.8091   19.4039 N   0  0  0  0  0  0  0  0  0  0  0  0
  -31.0325  -27.0943   19.0187 N   0  0  0  0  0  0  0  0  0  0  0  0
  -24.7292  -15.8824   19.8610 N   0  0  0  0  0  0  0  0  0  0  0  0
  -22.9501  -26.2614   19.5258 N   0  0  0  0  0  0  0  0  0  0  0  0
  -27.0246  -18.9125   20.2410 N   0  0  0  0  0  0  0  0  0  0  0  0
  -27.6836  -21.1822   19.8710 N   0  0  0  0  0  0  0  0  0  0  0  0
  -23.4399  -16.7294   18.0636 N   0  0  0  0  0  0  0  0  0  0  0  0
  -22.8400  -12.2634   17.7622 N   0  0  0  0  0  0  0  0  0  0  0  0
  -20.8277  -27.7687   21.6689 N   0  0  0  0  0  0  0  0  0  0  0  0
  -22.6177  -23.5199   17.5682 N   0  0  0  0  0  0  0  0  0  0  0  0
  -29.8285  -22.9370   19.2132 N   0  3  0  0  0  0  0  0  0  0  0  0
  -24.5107  -23.5597   14.4888 N   0  3  0  0  0  0  0  0  0  0  0  0
  -22.3100  -14.2816   16.8112 O   0  0  0  0  0  0  0  0  0  0  0  0
  -23.0994  -27.4917   22.0995 O   0  0  0  0  0  0  0  0  0  0  0  0
  -20.8902  -25.4452   18.8001 O   0  0  0  0  0  0  0  0  0  0  0  0
  -24.9164  -23.4524   17.2709 O   0  0  0  0  0  0  0  0  0  0  0  0
  -26.2551  -20.0994   18.4214 O   0  0  0  0  0  0  0  0  0  0  0  0
  -25.0548   -8.4090   21.1199 O   0  0  0  0  0  0  0  0  0  0  0  0
  -28.7922  -27.9387   20.6290 O   0  0  0  0  0  0  0  0  0  1  0  0
  -24.6383   -7.0534   26.4484 F   0  0  0  0  0  0  0  0  0  0  0  0
  -23.1093   -6.6467   21.9872 F   0  0  0  0  0  0  0  0  0  0  0  0
  1  2  1  0  0  0  0
  1  5  2  0  0  0  0
  2  6  2  0  0  0  0
  3  8  2  0  0  0  0
  3 16  1  0  0  0  0
  4  9  1  0  0  0  0
  4 16  2  0  0  0  0
  5 18  1  0  0  0  0
  6 20  1  0  0  0  0
  7 10  2  0  0  0  0
  7 19  1  0  0  0  0
  8 22  1  0  0  0  0
  9 22  2  0  0  0  0
 10 23  1  0  0  0  0
 11 12  2  0  0  0  0
 11 24  1  0  0  0  0
 12 25  1  0  0  0  0
 13 21  1  0  0  0  0
 13 23  2  0  0  0  0
 14 25  2  0  0  0  0
 14 26  1  0  0  0  0
 15 62  2  0  0  0  0
 15 65  1  0  0  0  0
 16 27  1  0  0  0  0
 17 27  1  0  0  0  0
 17 28  2  0  0  0  0
 17 30  1  0  0  0  0
 18 20  2  0  0  0  0
 18 35  1  0  0  0  0
 19 21  2  0  0  0  0
 19 36  1  0  0  0  0
 20 48  1  0  0  0  0
 21 37  1  0  0  0  0
 22 81  1  0  0  0  0
 23 82  1  0  0  0  0
 24 26  2  0  0  0  0
 24 81  1  0  0  0  0
 25 83  1  0  0  0  0
 26 84  1  0  0  0  0
 27 63  2  0  0  0  0
 28 66  1  0  0  0  0
 28 70  1  0  0  0  0
 29 56  1  0  0  0  0
 29 62  1  0  0  0  0
 29 64  2  0  0  0  0
 30 71  1  0  0  0  0
 30 76  2  0  0  0  0
 31 49  1  0  0  0  0
 31 72  1  0  0  0  0
 31 77  2  0  0  0  0
 32 59  1  0  0  0  0
 32 67  1  0  0  0  0
 32 78  2  0  0  0  0
 33 60  1  0  0  0  0
 33 73  1  0  0  0  0
 33 79  2  0  0  0  0
 34 68  1  0  0  0  0
 34 69  1  0  0  0  0
 34 80  2  0  0  0  0
 35 38  1  0  0  0  0
 36 49  1  0  0  0  0
 37 67  1  0  0  0  0
 38 40  1  0  0  0  0
 39 41  1  0  0  0  0
 39 42  1  0  0  0  0
 40 48  1  0  0  0  0
 41 50  1  0  0  0  0
 42 68  1  0  0  0  0
 43 46  1  0  0  0  0
 43 69  1  0  0  0  0
 44 47  1  0  0  0  0
 44 69  1  0  0  0  0
 45 50  1  0  0  0  0
 45 68  1  0  0  0  0
 46 74  1  0  0  0  0
 47 74  1  0  0  0  0
 48 72  1  0  0  0  0
 49 67  1  0  0  0  0
 50 66  1  0  0  0  0
 51 60  1  0  0  0  0
 52 61  1  0  0  0  0
 53 61  1  0  0  0  0
 54 61  1  0  0  0  0
 55 75  1  0  0  0  0
 56 74  1  0  0  0  0
 57 58  1  0  0  0  0
 57 65  1  0  0  0  0
 58 82  1  0  0  0  0
 59 61  1  0  0  0  0
 59 73  1  0  0  0  0
 60 75  1  0  0  0  0
 63 66  1  0  0  0  0
 64 65  1  0  0  0  0
M  CHG  2  74   1  75   1
M  ISO  4  34 100  58 101  69 100  82 101
M  END
> <Batch ID>
0189

> <Smiles>
CNC(C)C(=O)NC(C(=O)N1Cc2cc([101O:1][101CH2:1]Cn3cnc(CN4CC[100N:0]([100C:0](=O)N5CCCC(n6nc(-c7ccc(Oc8ccc(F)cc8F)cc7)c(C(N)=O)c6N)C5)CC4)n3)ccc2CC1C(=O)NC1CCCc2ccccc21)C(C)(C)C

> <Shape>
0.242

> <Color>
0.076

> <Negative vol penalty>
0.000

$$$$

  -OEChem-04052323223D

 85 94  0     1  0  0  0  0  0999 V2000
  -30.2208  -24.7247   30.8194 C   0  0  0  0  0  0  0  0  0  0  0  0
  -29.6698  -24.1684   29.6694 C   0  0  0  0  0  0  0  0  0  0  0  0
  -23.0554   -9.8473   19.9536 C   0  0  0  0  0  0  0  0  0  0  0  0
  -23.8234   -9.8684   22.2442 C   0  0  0  0  0  0  0  0  0  0  0  0
  -30.3746  -26.1068   30.9190 C   0  0  0  0  0  0  0  0  0  0  0  0
  -29.2713  -24.9942   28.6188 C   0  0  0  0  0  0  0  0  0  0  0  0
  -30.7468  -23.2410   24.1028 C   0  0  0  0  0  0  0  0  0  0  0  0
  -22.3125   -8.6957   20.2132 C   0  0  0  0  0  0  0  0  0  0  0  0
  -23.0804   -8.7168   22.5038 C   0  0  0  0  0  0  0  0  0  0  0  0
  -30.0061  -22.1958   23.5526 C   0  0  0  0  0  0  0  0  0  0  0  0
  -19.3694   -7.9079   21.6797 C   0  0  0  0  0  0  0  0  0  0  0  0
  -18.0608   -7.8587   21.1994 C   0  0  0  0  0  0  0  0  0  0  0  0
  -28.8390  -23.7708   22.1467 C   0  0  0  0  0  0  0  0  0  0  0  0
  -18.6160   -5.9075   19.8871 C   0  0  0  0  0  0  0  0  0  0  0  0
  -23.8109  -10.4336   20.9690 C   0  0  0  0  0  0  0  0  0  0  0  0
  -24.1521  -12.9580   20.8323 C   0  0  0  0  0  0  0  0  0  0  0  0
  -29.9868  -26.9492   29.8652 C   0  0  0  0  0  0  0  0  0  0  0  0
  -30.5311  -24.5625   23.6861 C   0  0  0  0  0  0  0  0  0  0  0  0
  -29.4189  -26.3890   28.7050 C   0  0  0  0  0  0  0  0  0  0  0  0
  -29.5800  -24.8307   22.6913 C   0  0  0  0  0  0  0  0  0  0  0  0
  -30.1790  -19.9661   19.0978 C   0  0  0  0  0  0  0  0  0  0  0  0
  -22.3249   -8.1304   21.4883 C   0  0  0  0  0  0  0  0  0  0  0  0
  -29.0501  -22.4609   22.5765 C   0  0  0  0  0  0  0  0  0  0  0  0
  -20.3013   -6.9570   21.2637 C   0  0  0  0  0  0  0  0  0  0  0  0
  -17.6841   -6.8585   20.3031 C   0  0  0  0  0  0  0  0  0  0  0  0
  -19.9246   -5.9568   20.3675 C   0  0  0  0  0  0  0  0  0  0  0  0
  -24.5790  -11.6229   20.7013 C   0  0  0  0  0  0  0  0  0  0  0  0
  -31.3727  -19.2781   19.1747 C   0  0  0  0  0  0  0  0  0  0  0  0
  -29.2024  -19.5686   19.9880 C   0  0  0  0  0  0  0  0  0  0  0  0
  -25.2430  -13.7053   20.4606 C   0  0  0  0  0  0  0  0  0  0  0  0
  -30.5756  -17.9834   20.8645 C   0  0  0  0  0  0  0  0  0  0  0  0
  -22.8831  -13.4764   21.2525 C   0  0  0  0  0  0  0  0  0  0  0  0
  -29.5619  -27.2337   25.1107 C   0  0  0  0  0  0  0  0  0  0  0  0
  -30.2819  -28.5633   22.2408 C   0  0  0  0  0  0  0  0  0  0  0  0
  -30.7078  -28.1477   18.8804 C   0  0  0  0  0  0  0  0  0  0  0  0
  -30.7273  -14.7257   20.6233 C   0  0  0  0  0  0  0  0  0  0  0  0
  -30.1290  -28.4407   30.0381 C   0  0  0  0  0  0  0  0  0  0  0  0
  -31.3570  -25.6757   24.2703 C   0  0  0  0  0  0  0  0  0  0  0  0
  -29.3245  -26.2295   22.1949 C   0  0  0  0  0  0  0  0  0  0  0  0
  -30.0273  -29.2182   28.7283 C   0  0  0  0  0  0  0  0  0  0  0  0
  -29.5814  -12.3265   18.2553 C   0  0  0  0  0  0  0  0  0  0  0  0
  -28.8382  -28.7285   27.9078 C   0  0  0  0  0  0  0  0  0  0  0  0
  -32.2570  -19.6085   16.7699 C   0  0  0  0  0  0  0  0  0  0  0  0
  -33.1015  -18.5451   17.3992 C   0  0  0  0  0  0  0  0  0  0  0  0
  -28.1455  -12.0354   18.6951 C   0  0  0  0  0  0  0  0  0  0  0  0
  -30.5027  -12.5547   19.4515 C   0  0  0  0  0  0  0  0  0  0  0  0
  -28.6059  -13.2942   20.8403 C   0  0  0  0  0  0  0  0  0  0  0  0
  -28.9974  -27.2498   27.5339 C   0  0  1  0  0  0  0  0  0  0  0  0
  -32.4988  -19.6259   18.2545 C   0  0  0  0  0  0  0  0  0  0  0  0
  -30.6935  -27.0433   24.1407 C   0  0  1  0  0  0  0  0  0  0  0  0
  -27.6276  -13.1124   19.6672 C   0  0  2  0  0  0  0  0  0  0  0  0
  -31.2567  -29.4253   16.7914 C   0  0  0  0  0  0  0  0  0  0  0  0
  -27.4589  -29.7209   22.2099 C   0  0  0  0  0  0  0  0  0  0  0  0
  -27.7379  -30.1528   19.7596 C   0  0  0  0  0  0  0  0  0  0  0  0
  -29.2363  -31.2839   21.4022 C   0  0  0  0  0  0  0  0  0  0  0  0
  -30.7615  -22.1988   18.1482 C   0  0  0  0  0  0  0  0  0  0  0  0
  -33.1388  -26.5320   18.3921 C   0  0  0  0  0  0  0  0  0  0  0  0
  -27.8517  -20.2424   19.9968 C   0  0  0  0  0  0  0  0  0  0  0  0
  -30.7974  -16.8838   21.8468 C   0  0  0  0  0  0  0  0  0  0  0  0
  -27.8856  -21.6002   20.6899 C   0  0  0  0  0  0  0  0  0  1  0  0
  -29.5259  -28.8119   20.9580 C   0  0  1  0  0  0  0  0  0  0  0  0
  -31.8118  -28.5995   17.9415 C   0  0  2  0  0  0  0  0  0  0  0  0
  -28.4930  -29.9662   21.0929 C   0  0  0  0  0  0  0  0  0  0  0  0
  -25.8424  -11.5246   20.2791 N   0  0  0  0  0  0  0  0  0  0  0  0
  -31.6063  -18.2776   20.0492 N   0  0  0  0  0  0  0  0  0  0  0  0
  -29.3672  -18.5772   20.8882 N   0  0  0  0  0  0  0  0  0  0  0  0
  -26.2187  -12.8074   20.1416 N   0  0  0  0  0  0  0  0  0  0  0  0
  -30.1530  -27.2847   22.8013 N   0  0  0  0  0  0  0  0  0  0  0  0
  -29.9553  -13.5887   20.3331 N   0  0  0  0  0  0  0  0  0  0  0  0
  -25.4530  -15.0363   20.3787 N   0  0  0  0  0  0  0  0  0  0  0  0
  -21.8724  -12.5692   21.5989 N   0  0  0  0  0  0  0  0  0  0  0  0
  -29.9698  -21.0028   18.1770 N   0  0  0  0  0  0  0  0  0  0  0  0
  -29.9294  -27.1036   26.4364 N   0  0  0  0  0  0  0  0  0  0  0  0
  -30.5338  -29.0297   19.9259 N   0  0  0  0  0  0  0  0  0  0  0  0
  -30.1310  -15.6596   21.4618 N   0  0  0  0  0  0  0  0  0  0  0  0
  -32.5230  -27.4198   17.3726 N   0  3  0  0  0  0  0  0  0  0  0  0
  -22.6470  -14.7073   21.3032 O   0  0  0  0  0  0  0  0  0  0  0  0
  -28.4389  -27.4818   24.6877 O   0  0  0  0  0  0  0  0  0  0  0  0
  -30.9673  -29.4681   22.7239 O   0  0  0  0  0  0  0  0  0  0  0  0
  -30.0617  -27.1175   18.7020 O   0  0  0  0  0  0  0  0  0  0  0  0
  -31.8616  -14.8984   20.1646 O   0  0  0  0  0  0  0  0  0  0  0  0
  -21.5999   -7.0068   21.7421 O   0  0  0  0  0  0  0  0  0  0  0  0
  -28.3253  -21.4426   22.0383 O   0  0  0  0  0  0  0  0  0  1  0  0
  -16.4270   -6.8104   19.8431 F   0  0  0  0  0  0  0  0  0  0  0  0
  -20.8151   -5.0398   19.9651 F   0  0  0  0  0  0  0  0  0  0  0  0
  1  2  1  0  0  0  0
  1  5  2  0  0  0  0
  2  6  2  0  0  0  0
  3  8  2  0  0  0  0
  3 15  1  0  0  0  0
  4  9  1  0  0  0  0
  4 15  2  0  0  0  0
  5 17  1  0  0  0  0
  6 19  1  0  0  0  0
  7 10  2  0  0  0  0
  7 18  1  0  0  0  0
  8 22  1  0  0  0  0
  9 22  2  0  0  0  0
 10 23  1  0  0  0  0
 11 12  2  0  0  0  0
 11 24  1  0  0  0  0
 12 25  1  0  0  0  0
 13 20  1  0  0  0  0
 13 23  2  0  0  0  0
 14 25  2  0  0  0  0
 14 26  1  0  0  0  0
 15 27  1  0  0  0  0
 16 27  1  0  0  0  0
 16 30  2  0  0  0  0
 16 32  1  0  0  0  0
 17 19  2  0  0  0  0
 17 37  1  0  0  0  0
 18 20  2  0  0  0  0
 18 38  1  0  0  0  0
 19 48  1  0  0  0  0
 20 39  1  0  0  0  0
 21 28  2  0  0  0  0
 21 29  1  0  0  0  0
 21 72  1  0  0  0  0
 22 82  1  0  0  0  0
 23 83  1  0  0  0  0
 24 26  2  0  0  0  0
 24 82  1  0  0  0  0
 25 84  1  0  0  0  0
 26 85  1  0  0  0  0
 27 64  2  0  0  0  0
 28 49  1  0  0  0  0
 28 65  1  0  0  0  0
 29 58  1  0  0  0  0
 29 66  2  0  0  0  0
 30 67  1  0  0  0  0
 30 70  1  0  0  0  0
 31 59  1  0  0  0  0
 31 65  2  0  0  0  0
 31 66  1  0  0  0  0
 32 71  1  0  0  0  0
 32 77  2  0  0  0  0
 33 50  1  0  0  0  0
 33 73  1  0  0  0  0
 33 78  2  0  0  0  0
 34 61  1  0  0  0  0
 34 68  1  0  0  0  0
 34 79  2  0  0  0  0
 35 62  1  0  0  0  0
 35 74  1  0  0  0  0
 35 80  2  0  0  0  0
 36 69  1  0  0  0  0
 36 75  1  0  0  0  0
 36 81  2  0  0  0  0
 37 40  1  0  0  0  0
 38 50  1  0  0  0  0
 39 68  1  0  0  0  0
 40 42  1  0  0  0  0
 41 45  1  0  0  0  0
 41 46  1  0  0  0  0
 42 48  1  0  0  0  0
 43 44  1  0  0  0  0
 43 49  1  0  0  0  0
 44 49  1  0  0  0  0
 45 51  1  0  0  0  0
 46 69  1  0  0  0  0
 47 51  1  0  0  0  0
 47 69  1  0  0  0  0
 48 73  1  0  0  0  0
 50 68  1  0  0  0  0
 51 67  1  0  0  0  0
 52 62  1  0  0  0  0
 53 63  1  0  0  0  0
 54 63  1  0  0  0  0
 55 63  1  0  0  0  0
 56 72  1  0  0  0  0
 57 76  1  0  0  0  0
 58 60  1  0  0  0  0
 59 75  1  0  0  0  0
 60 83  1  0  0  0  0
 61 63  1  0  0  0  0
 61 74  1  0  0  0  0
 62 76  1  0  0  0  0
 64 67  1  0  0  0  0
M  CHG  1  76   1
M  ISO  4  36 100  60 101  75 100  83 101
M  END
> <Batch ID>
0189

> <Smiles>
CNc1c(C[101CH2:1][101O:1]c2ccc3c(c2)CN(C(=O)C(NC(=O)C(C)NC)C(C)(C)C)C(C(=O)NC2CCCc4ccccc42)C3)nc(C[100NH:0][100C:0](=O)N2CCCC(n3nc(-c4ccc(Oc5ccc(F)cc5F)cc4)c(C(N)=O)c3N)C2)nc1C1CC1

> <Shape>
0.226

> <Color>
0.193

> <Negative vol penalty>
0.000

$$$$

  -OEChem-04052323223D

 81 89  0     1  0  0  0  0  0999 V2000
  -24.1850  -30.0655   26.7020 C   0  0  0  0  0  0  0  0  0  0  0  0
  -25.2707  -29.1957   26.6916 C   0  0  0  0  0  0  0  0  0  0  0  0
  -22.9990   -9.8920   19.9847 C   0  0  0  0  0  0  0  0  0  0  0  0
  -23.7219   -9.9506   22.2893 C   0  0  0  0  0  0  0  0  0  0  0  0
  -23.2649  -30.0426   25.6548 C   0  0  0  0  0  0  0  0  0  0  0  0
  -25.4363  -28.3017   25.6343 C   0  0  0  0  0  0  0  0  0  0  0  0
  -30.7315  -26.4115   23.2066 C   0  0  0  0  0  0  0  0  0  0  0  0
  -22.2322   -8.7584   20.2540 C   0  0  0  0  0  0  0  0  0  0  0  0
  -22.9551   -8.8169   22.5586 C   0  0  0  0  0  0  0  0  0  0  0  0
  -31.4909  -25.2575   23.3952 C   0  0  0  0  0  0  0  0  0  0  0  0
  -23.2001   -5.4765   22.0979 C   0  0  0  0  0  0  0  0  0  0  0  0
  -23.7870   -4.4618   22.8539 C   0  0  0  0  0  0  0  0  0  0  0  0
  -30.4567  -24.2670   21.4538 C   0  0  0  0  0  0  0  0  0  0  0  0
  -29.7589  -17.7012   22.6580 C   0  0  0  0  0  0  0  0  0  0  0  0
  -22.0615   -4.7101   24.5266 C   0  0  0  0  0  0  0  0  0  0  0  0
  -23.7438  -10.4881   21.0023 C   0  0  0  0  0  0  0  0  0  0  0  0
  -24.1292  -13.0031   20.8185 C   0  0  0  0  0  0  0  0  0  0  0  0
  -23.4246  -29.1546   24.5793 C   0  0  0  0  0  0  0  0  0  0  0  0
  -29.8196  -26.4978   22.1448 C   0  0  0  0  0  0  0  0  0  0  0  0
  -24.5167  -28.2661   24.5723 C   0  0  0  0  0  0  0  0  0  0  0  0
  -29.6889  -25.4242   21.2525 C   0  0  0  0  0  0  0  0  0  0  0  0
  -30.2470  -18.9390   23.0617 C   0  0  0  0  0  0  0  0  0  0  0  0
  -31.5229  -19.3359   22.6775 C   0  0  0  0  0  0  0  0  0  0  0  0
  -22.2103   -8.2208   21.5410 C   0  0  0  0  0  0  0  0  0  0  0  0
  -31.3514  -24.1840   22.5204 C   0  0  0  0  0  0  0  0  0  0  0  0
  -22.0439   -6.1081   22.5563 C   0  0  0  0  0  0  0  0  0  0  0  0
  -23.2177   -4.0786   24.0682 C   0  0  0  0  0  0  0  0  0  0  0  0
  -21.4746   -5.7248   23.7706 C   0  0  0  0  0  0  0  0  0  0  0  0
  -24.5365  -11.6589   20.7246 C   0  0  0  0  0  0  0  0  0  0  0  0
  -32.2650  -18.4654   21.8956 C   0  0  0  0  0  0  0  0  0  0  0  0
  -30.5798  -16.9040   21.8768 C   0  0  0  0  0  0  0  0  0  0  0  0
  -25.2393  -13.7246   20.4528 C   0  0  0  0  0  0  0  0  0  0  0  0
  -22.8608  -13.5507   21.2020 C   0  0  0  0  0  0  0  0  0  0  0  0
  -26.6705  -26.8651   21.9169 C   0  0  0  0  0  0  0  0  0  0  0  0
  -27.3159  -27.0696   18.7445 C   0  0  0  0  0  0  0  0  0  0  0  0
  -29.4199  -26.3269   16.1622 C   0  0  0  0  0  0  0  0  0  0  0  0
  -30.7185  -14.6868   20.6889 C   0  0  0  0  0  0  0  0  0  0  0  0
  -22.3781  -29.1340   23.4934 C   0  0  0  0  0  0  0  0  0  0  0  0
  -29.0274  -27.7598   21.9394 C   0  0  0  0  0  0  0  0  0  0  0  0
  -28.7386  -25.4745   20.0850 C   0  0  0  0  0  0  0  0  0  0  0  0
  -22.8307  -28.4151   22.2250 C   0  0  0  0  0  0  0  0  0  0  0  0
  -29.6026  -12.2262   18.3700 C   0  0  0  0  0  0  0  0  0  0  0  0
  -23.4918  -27.0850   22.5723 C   0  0  0  0  0  0  0  0  0  0  0  0
  -28.1516  -11.9698   18.7835 C   0  0  0  0  0  0  0  0  0  0  0  0
  -30.5019  -12.4736   19.5798 C   0  0  0  0  0  0  0  0  0  0  0  0
  -28.5852  -13.2667   20.9089 C   0  0  0  0  0  0  0  0  0  0  0  0
  -24.7442  -27.2989   23.4308 C   0  0  1  0  0  0  0  0  0  0  0  0
  -27.7550  -27.5410   21.1266 C   0  0  1  0  0  0  0  0  0  0  0  0
  -27.6287  -13.0764   19.7204 C   0  0  2  0  0  0  0  0  0  0  0  0
  -29.3858  -19.8204   23.9047 C   0  0  0  0  0  0  0  0  0  0  0  0
  -33.6428  -18.8375   21.4535 C   0  0  0  0  0  0  0  0  0  0  0  0
  -29.6610  -26.5932   13.6786 C   0  0  0  0  0  0  0  0  0  0  0  0
  -25.2534  -24.8633   18.3101 C   0  0  0  0  0  0  0  0  0  0  0  0
  -26.2068  -24.5187   16.0209 C   0  0  0  0  0  0  0  0  0  0  0  0
  -25.1772  -26.7092   16.6245 C   0  0  0  0  0  0  0  0  0  0  0  0
  -31.9198  -27.8837   16.4550 C   0  0  0  0  0  0  0  0  0  0  0  0
  -32.0794  -20.6741   23.0994 C   0  0  0  0  0  0  0  0  0  0  0  0
  -31.5126  -21.8241   22.2739 C   0  0  0  0  0  0  0  0  0  1  0  0
  -27.4196  -26.0805   17.6087 C   0  0  1  0  0  0  0  0  0  0  0  0
  -29.9822  -27.1841   15.0426 C   0  0  2  0  0  0  0  0  0  0  0  0
  -26.0308  -25.5409   17.1641 C   0  0  0  0  0  0  0  0  0  0  0  0
  -25.8062  -11.5311   20.3301 N   0  0  0  0  0  0  0  0  0  0  0  0
  -31.8248  -17.2554   21.4839 N   0  0  0  0  0  0  0  0  0  0  0  0
  -26.2062  -12.8044   20.1727 N   0  0  0  0  0  0  0  0  0  0  0  0
  -27.9816  -26.7277   19.9301 N   0  0  0  0  0  0  0  0  0  0  0  0
  -29.9460  -13.5373   20.4191 N   0  0  0  0  0  0  0  0  0  0  0  0
  -25.4728  -15.0500   20.3466 N   0  0  0  0  0  0  0  0  0  0  0  0
  -21.8288  -12.6677   21.5474 N   0  0  0  0  0  0  0  0  0  0  0  0
  -30.0734  -15.6445   21.4707 N   0  0  0  0  0  0  0  0  0  0  0  0
  -25.8517  -27.7371   22.6087 N   0  0  0  0  0  0  0  0  0  0  0  0
  -28.1667  -26.7513   16.5503 N   0  0  0  0  0  0  0  0  0  0  0  0
  -31.4629  -27.2958   15.1695 N   0  3  0  0  0  0  0  0  0  0  0  0
  -22.6440  -14.7861   21.2215 O   0  0  0  0  0  0  0  0  0  0  0  0
  -26.5820  -25.6430   21.8990 O   0  0  0  0  0  0  0  0  0  0  0  0
  -26.6740  -28.1105   18.5832 O   0  0  0  0  0  0  0  0  0  0  0  0
  -30.0298  -25.3737   16.6418 O   0  0  0  0  0  0  0  0  0  0  0  0
  -31.8576  -14.8243   20.2356 O   0  0  0  0  0  0  0  0  0  0  0  0
  -21.4620   -7.1148   21.8042 O   0  0  0  0  0  0  0  0  0  0  0  0
  -32.0909  -23.0562   22.7026 O   0  0  0  0  0  0  0  0  0  1  0  0
  -23.7805   -3.1031   24.7934 F   0  0  0  0  0  0  0  0  0  0  0  0
  -20.3633   -6.3271   24.2156 F   0  0  0  0  0  0  0  0  0  0  0  0
  1  2  1  0  0  0  0
  1  5  2  0  0  0  0
  2  6  2  0  0  0  0
  3  8  2  0  0  0  0
  3 16  1  0  0  0  0
  4  9  1  0  0  0  0
  4 16  2  0  0  0  0
  5 18  1  0  0  0  0
  6 20  1  0  0  0  0
  7 10  2  0  0  0  0
  7 19  1  0  0  0  0
  8 24  1  0  0  0  0
  9 24  2  0  0  0  0
 10 25  1  0  0  0  0
 11 12  2  0  0  0  0
 11 26  1  0  0  0  0
 12 27  1  0  0  0  0
 13 21  1  0  0  0  0
 13 25  2  0  0  0  0
 14 22  2  0  0  0  0
 14 31  1  0  0  0  0
 15 27  2  0  0  0  0
 15 28  1  0  0  0  0
 16 29  1  0  0  0  0
 17 29  1  0  0  0  0
 17 32  2  0  0  0  0
 17 33  1  0  0  0  0
 18 20  2  0  0  0  0
 18 38  1  0  0  0  0
 19 21  2  0  0  0  0
 19 39  1  0  0  0  0
 20 47  1  0  0  0  0
 21 40  1  0  0  0  0
 22 23  1  0  0  0  0
 22 50  1  0  0  0  0
 23 30  2  0  0  0  0
 23 57  1  0  0  0  0
 24 78  1  0  0  0  0
 25 79  1  0  0  0  0
 26 28  2  0  0  0  0
 26 78  1  0  0  0  0
 27 80  1  0  0  0  0
 28 81  1  0  0  0  0
 29 62  2  0  0  0  0
 30 51  1  0  0  0  0
 30 63  1  0  0  0  0
 31 63  2  0  0  0  0
 31 69  1  0  0  0  0
 32 64  1  0  0  0  0
 32 67  1  0  0  0  0
 33 68  1  0  0  0  0
 33 73  2  0  0  0  0
 34 48  1  0  0  0  0
 34 70  1  0  0  0  0
 34 74  2  0  0  0  0
 35 59  1  0  0  0  0
 35 65  1  0  0  0  0
 35 75  2  0  0  0  0
 36 60  1  0  0  0  0
 36 71  1  0  0  0  0
 36 76  2  0  0  0  0
 37 66  1  0  0  0  0
 37 69  1  0  0  0  0
 37 77  2  0  0  0  0
 38 41  1  0  0  0  0
 39 48  1  0  0  0  0
 40 65  1  0  0  0  0
 41 43  1  0  0  0  0
 42 44  1  0  0  0  0
 42 45  1  0  0  0  0
 43 47  1  0  0  0  0
 44 49  1  0  0  0  0
 45 66  1  0  0  0  0
 46 49  1  0  0  0  0
 46 66  1  0  0  0  0
 47 70  1  0  0  0  0
 48 65  1  0  0  0  0
 49 64  1  0  0  0  0
 52 60  1  0  0  0  0
 53 61  1  0  0  0  0
 54 61  1  0  0  0  0
 55 61  1  0  0  0  0
 56 72  1  0  0  0  0
 57 58  1  0  0  0  0
 58 79  1  0  0  0  0
 59 61  1  0  0  0  0
 59 71  1  0  0  0  0
 60 72  1  0  0  0  0
 62 64  1  0  0  0  0
M  CHG  1  72   1
M  ISO  4  37 100  58 101  69 100  79 101
M  END
> <Batch ID>
0189

> <Smiles>
CNC(C)C(=O)NC(C(=O)N1Cc2cc([101O:1][101CH2:1]Cc3c(C)cc([100NH:0][100C:0](=O)N4CCCC(n5nc(-c6ccc(Oc7ccc(F)cc7F)cc6)c(C(N)=O)c5N)C4)nc3C)ccc2CC1C(=O)NC1CCCc2ccccc21)C(C)(C)C

> <Shape>
0.252

> <Color>
0.202

> <Negative vol penalty>
0.000

$$$$

  -OEChem-04052323223D

 80 89  0     1  0  0  0  0  0999 V2000
  -23.6194  -30.3089   21.3666 C   0  0  0  0  0  0  0  0  0  0  0  0
  -24.3767  -29.1677   21.1226 C   0  0  0  0  0  0  0  0  0  0  0  0
  -23.3660   -9.5975   20.9967 C   0  0  0  0  0  0  0  0  0  0  0  0
  -24.0071  -10.3887   23.1876 C   0  0  0  0  0  0  0  0  0  0  0  0
  -24.2407  -31.5552   21.4336 C   0  0  0  0  0  0  0  0  0  0  0  0
  -25.7557  -29.2723   20.9445 C   0  0  0  0  0  0  0  0  0  0  0  0
  -28.3191  -25.7334   23.5039 C   0  0  0  0  0  0  0  0  0  0  0  0
  -22.7121   -8.5122   21.5800 C   0  0  0  0  0  0  0  0  0  0  0  0
  -23.3531   -9.3035   23.7709 C   0  0  0  0  0  0  0  0  0  0  0  0
  -28.3530  -24.4514   22.9571 C   0  0  0  0  0  0  0  0  0  0  0  0
  -19.7741   -7.9229   23.1466 C   0  0  0  0  0  0  0  0  0  0  0  0
  -18.5019   -7.6021   22.6734 C   0  0  0  0  0  0  0  0  0  0  0  0
  -30.5582  -24.8891   22.0827 C   0  0  0  0  0  0  0  0  0  0  0  0
  -19.2912   -5.4087   22.0384 C   0  0  0  0  0  0  0  0  0  0  0  0
  -27.8538  -19.9825   20.2480 C   0  0  0  0  0  0  0  0  0  0  0  0
  -24.0135  -10.5357   21.8005 C   0  0  0  0  0  0  0  0  0  0  0  0
  -24.1434  -12.9199   20.9024 C   0  0  0  0  0  0  0  0  0  0  0  0
  -25.6294  -31.6740   21.2658 C   0  0  0  0  0  0  0  0  0  0  0  0
  -29.4019  -26.6082   23.3346 C   0  0  0  0  0  0  0  0  0  0  0  0
  -26.3960  -30.5215   21.0081 C   0  0  0  0  0  0  0  0  0  0  0  0
  -30.5366  -26.1808   22.6306 C   0  0  0  0  0  0  0  0  0  0  0  0
  -28.6053  -20.6141   21.2803 C   0  0  0  0  0  0  0  0  0  0  0  0
  -22.7056   -8.3652   22.9670 C   0  0  0  0  0  0  0  0  0  0  0  0
  -29.4714  -24.0300   22.2439 C   0  0  0  0  0  0  0  0  0  0  0  0
  -20.8050   -6.9867   23.0656 C   0  0  0  0  0  0  0  0  0  0  0  0
  -18.2604   -6.3449   22.1193 C   0  0  0  0  0  0  0  0  0  0  0  0
  -20.5635   -5.7296   22.5115 C   0  0  0  0  0  0  0  0  0  0  0  0
  -24.6897  -11.6567   21.1985 C   0  0  0  0  0  0  0  0  0  0  0  0
  -29.6002  -19.7157   21.5415 C   0  0  0  0  0  0  0  0  0  0  0  0
  -25.1841  -13.6220   20.3452 C   0  0  0  0  0  0  0  0  0  0  0  0
  -22.8141  -13.4144   21.1123 C   0  0  0  0  0  0  0  0  0  0  0  0
  -29.8021  -29.4399   21.9471 C   0  0  0  0  0  0  0  0  0  0  0  0
  -32.7619  -29.2277   23.2573 C   0  0  0  0  0  0  0  0  0  0  0  0
  -35.2575  -27.2412   24.4708 C   0  0  0  0  0  0  0  0  0  0  0  0
  -30.5442  -15.1758   20.3179 C   0  0  0  0  0  0  0  0  0  0  0  0
  -26.2498  -33.0483   21.2999 C   0  0  0  0  0  0  0  0  0  0  0  0
  -29.3607  -27.9785   23.9535 C   0  0  0  0  0  0  0  0  0  0  0  0
  -31.7335  -27.0745   22.4378 C   0  0  0  0  0  0  0  0  0  0  0  0
  -30.7971  -19.4888   22.3704 C   0  0  0  0  0  0  0  0  0  0  0  0
  -27.7664  -33.0277   21.4725 C   0  0  0  0  0  0  0  0  0  0  0  0
  -31.0426  -17.9657   22.1631 C   0  0  0  0  0  0  0  0  0  0  0  0
  -29.7355  -12.0704   18.7755 C   0  0  0  0  0  0  0  0  0  0  0  0
  -28.3973  -32.0085   20.5291 C   0  0  0  0  0  0  0  0  0  0  0  0
  -28.3087  -11.7874   19.2489 C   0  0  0  0  0  0  0  0  0  0  0  0
  -30.5693  -12.7404   19.8654 C   0  0  0  0  0  0  0  0  0  0  0  0
  -28.5451  -13.6773   20.9136 C   0  0  0  0  0  0  0  0  0  0  0  0
  -27.8977  -30.5912   20.8342 C   0  0  1  0  0  0  0  0  0  0  0  0
  -30.3082  -28.9668   23.2804 C   0  0  1  0  0  0  0  0  0  0  0  0
  -27.6494  -13.0527   19.8301 C   0  0  2  0  0  0  0  0  0  0  0  0
  -30.3638  -17.5996   20.8198 C   0  0  2  0  0  0  0  0  0  0  0  0
  -37.5715  -27.3532   25.4355 C   0  0  0  0  0  0  0  0  0  0  0  0
  -33.8953  -29.7453   20.4721 C   0  0  0  0  0  0  0  0  0  0  0  0
  -36.1093  -28.9147   21.2947 C   0  0  0  0  0  0  0  0  0  0  0  0
  -35.0809  -30.9430   22.3200 C   0  0  0  0  0  0  0  0  0  0  0  0
  -34.3816  -26.0102   27.0157 C   0  0  0  0  0  0  0  0  0  0  0  0
  -28.3633  -21.9515   21.9162 C   0  0  0  0  0  0  0  0  0  1  0  0
  -34.0912  -28.6688   22.8107 C   0  0  1  0  0  0  0  0  0  0  0  0
  -36.0823  -27.3238   25.7426 C   0  0  2  0  0  0  0  0  0  0  0  0
  -34.7710  -29.5516   21.7262 C   0  0  0  0  0  0  0  0  0  0  0  0
  -28.3423  -18.7818   19.8907 N   0  0  0  0  0  0  0  0  0  0  0  0
  -25.9774  -11.5590   20.8575 N   0  0  0  0  0  0  0  0  0  0  0  0
  -29.3804  -18.6663   20.7125 N   0  0  0  0  0  0  0  0  0  0  0  0
  -26.2489  -12.7697   20.3413 N   0  0  0  0  0  0  0  0  0  0  0  0
  -31.6428  -28.4074   23.0565 N   0  0  0  0  0  0  0  0  0  0  0  0
  -29.8891  -13.9345   20.3729 N   0  0  0  0  0  0  0  0  0  0  0  0
  -25.2831  -14.8790   19.8631 N   0  0  0  0  0  0  0  0  0  0  0  0
  -21.8682  -12.5610   21.6965 N   0  0  0  0  0  0  0  0  0  0  0  0
  -28.5680  -30.0593   22.0013 N   0  0  0  0  0  0  0  0  0  0  0  0
  -34.8865  -28.4906   24.0207 N   0  0  0  0  0  0  0  0  0  0  0  0
  -29.8264  -16.2572   20.8140 N   0  0  0  0  0  0  0  0  0  0  0  0
  -35.8058  -26.1487   26.6165 N   0  3  0  0  0  0  0  0  0  0  0  0
  -22.4708  -14.5732   20.7763 O   0  0  0  0  0  0  0  0  0  0  0  0
  -30.4816  -29.2578   20.9437 O   0  0  0  0  0  0  0  0  0  0  0  0
  -32.7191  -30.3479   23.7722 O   0  0  0  0  0  0  0  0  0  0  0  0
  -34.9741  -26.1752   23.9287 O   0  0  0  0  0  0  0  0  0  0  0  0
  -31.6821  -15.3112   19.8557 O   0  0  0  0  0  0  0  0  0  0  0  0
  -22.0674   -7.3065   23.5365 O   0  0  0  0  0  0  0  0  0  0  0  0
  -29.5069  -22.7794   21.7086 O   0  0  0  0  0  0  0  0  0  1  0  0
  -17.0382   -6.0364   21.6663 F   0  0  0  0  0  0  0  0  0  0  0  0
  -21.5496   -4.8256   22.4321 F   0  0  0  0  0  0  0  0  0  0  0  0
  1  2  1  0  0  0  0
  1  5  2  0  0  0  0
  2  6  2  0  0  0  0
  3  8  2  0  0  0  0
  3 16  1  0  0  0  0
  4  9  1  0  0  0  0
  4 16  2  0  0  0  0
  5 18  1  0  0  0  0
  6 20  1  0  0  0  0
  7 10  2  0  0  0  0
  7 19  1  0  0  0  0
  8 23  1  0  0  0  0
  9 23  2  0  0  0  0
 10 24  1  0  0  0  0
 11 12  2  0  0  0  0
 11 25  1  0  0  0  0
 12 26  1  0  0  0  0
 13 21  1  0  0  0  0
 13 24  2  0  0  0  0
 14 26  2  0  0  0  0
 14 27  1  0  0  0  0
 15 22  1  0  0  0  0
 15 60  2  0  0  0  0
 16 28  1  0  0  0  0
 17 28  1  0  0  0  0
 17 30  2  0  0  0  0
 17 31  1  0  0  0  0
 18 20  2  0  0  0  0
 18 36  1  0  0  0  0
 19 21  2  0  0  0  0
 19 37  1  0  0  0  0
 20 47  1  0  0  0  0
 21 38  1  0  0  0  0
 22 29  2  0  0  0  0
 22 56  1  0  0  0  0
 23 77  1  0  0  0  0
 24 78  1  0  0  0  0
 25 27  2  0  0  0  0
 25 77  1  0  0  0  0
 26 79  1  0  0  0  0
 27 80  1  0  0  0  0
 28 61  2  0  0  0  0
 29 39  1  0  0  0  0
 29 62  1  0  0  0  0
 30 63  1  0  0  0  0
 30 66  1  0  0  0  0
 31 67  1  0  0  0  0
 31 72  2  0  0  0  0
 32 48  1  0  0  0  0
 32 68  1  0  0  0  0
 32 73  2  0  0  0  0
 33 57  1  0  0  0  0
 33 64  1  0  0  0  0
 33 74  2  0  0  0  0
 34 58  1  0  0  0  0
 34 69  1  0  0  0  0
 34 75  2  0  0  0  0
 35 65  1  0  0  0  0
 35 70  1  0  0  0  0
 35 76  2  0  0  0  0
 36 40  1  0  0  0  0
 37 48  1  0  0  0  0
 38 64  1  0  0  0  0
 39 41  1  0  0  0  0
 40 43  1  0  0  0  0
 41 50  1  0  0  0  0
 42 44  1  0  0  0  0
 42 45  1  0  0  0  0
 43 47  1  0  0  0  0
 44 49  1  0  0  0  0
 45 65  1  0  0  0  0
 46 49  1  0  0  0  0
 46 65  1  0  0  0  0
 47 68  1  0  0  0  0
 48 64  1  0  0  0  0
 49 63  1  0  0  0  0
 50 62  1  0  0  0  0
 50 70  1  0  0  0  0
 51 58  1  0  0  0  0
 52 59  1  0  0  0  0
 53 59  1  0  0  0  0
 54 59  1  0  0  0  0
 55 71  1  0  0  0  0
 56 78  1  0  0  0  0
 57 59  1  0  0  0  0
 57 69  1  0  0  0  0
 58 71  1  0  0  0  0
 60 62  1  0  0  0  0
 61 63  1  0  0  0  0
M  CHG  1  71   1
M  ISO  4  35 100  56 101  70 100  78 101
M  END
> <Batch ID>
0189

> <Smiles>
CNC(C)C(=O)NC(C(=O)N1Cc2cc([101O:1][101CH2:1]c3cnn4c3CCC4[100NH:0][100C:0](=O)N3CCCC(n4nc(-c5ccc(Oc6ccc(F)cc6F)cc5)c(C(N)=O)c4N)C3)ccc2CC1C(=O)NC1CCCc2ccccc21)C(C)(C)C

> <Shape>
0.246

> <Color>
0.159

> <Negative vol penalty>
0.000

$$$$

  -OEChem-04052323223D

 81 89  0     1  0  0  0  0  0999 V2000
  -27.6148  -32.7694   27.0931 C   0  0  0  0  0  0  0  0  0  0  0  0
  -27.8862  -31.7308   26.2082 C   0  0  0  0  0  0  0  0  0  0  0  0
  -25.8541  -14.2830   21.1515 C   0  0  0  0  0  0  0  0  0  0  0  0
  -25.5144  -12.6458   19.4076 C   0  0  0  0  0  0  0  0  0  0  0  0
  -26.3012  -33.0251   27.4842 C   0  0  0  0  0  0  0  0  0  0  0  0
  -26.8442  -30.9466   25.7147 C   0  0  0  0  0  0  0  0  0  0  0  0
  -27.2163  -30.1344   20.7300 C   0  0  0  0  0  0  0  0  0  0  0  0
  -24.4732  -14.4092   21.3020 C   0  0  0  0  0  0  0  0  0  0  0  0
  -24.1335  -12.7719   19.5582 C   0  0  0  0  0  0  0  0  0  0  0  0
  -28.1315  -29.1708   20.3085 C   0  0  0  0  0  0  0  0  0  0  0  0
  -21.7493  -11.6630   21.6811 C   0  0  0  0  0  0  0  0  0  0  0  0
  -20.9933  -10.4915   21.7184 C   0  0  0  0  0  0  0  0  0  0  0  0
  -26.3341  -27.5815   20.0590 C   0  0  0  0  0  0  0  0  0  0  0  0
  -19.7652  -11.2219   19.7702 C   0  0  0  0  0  0  0  0  0  0  0  0
  -26.3748  -13.4013   20.2043 C   0  0  0  0  0  0  0  0  0  0  0  0
  -28.6520  -12.3752   20.7229 C   0  0  0  0  0  0  0  0  0  0  0  0
  -25.2415  -32.2497   26.9878 C   0  0  0  0  0  0  0  0  0  0  0  0
  -25.8522  -29.8250   20.8298 C   0  0  0  0  0  0  0  0  0  0  0  0
  -25.5153  -31.1912   26.1006 C   0  0  0  0  0  0  0  0  0  0  0  0
  -25.4033  -28.5436   20.4796 C   0  0  0  0  0  0  0  0  0  0  0  0
  -23.6128  -13.6537   20.5054 C   0  0  0  0  0  0  0  0  0  0  0  0
  -27.6909  -27.8933   19.9756 C   0  0  0  0  0  0  0  0  0  0  0  0
  -21.5133  -12.6141   20.6884 C   0  0  0  0  0  0  0  0  0  0  0  0
  -20.0013  -10.2708   20.7630 C   0  0  0  0  0  0  0  0  0  0  0  0
  -20.5213  -12.3935   19.7329 C   0  0  0  0  0  0  0  0  0  0  0  0
  -27.8012  -13.2709   20.0479 C   0  0  0  0  0  0  0  0  0  0  0  0
  -29.9023  -12.6467   20.2233 C   0  0  0  0  0  0  0  0  0  0  0  0
  -28.3400  -11.3861   21.7129 C   0  0  0  0  0  0  0  0  0  0  0  0
  -23.7379  -29.7451   23.2019 C   0  0  0  0  0  0  0  0  0  0  0  0
  -21.6426  -29.1652   20.7945 C   0  0  0  0  0  0  0  0  0  0  0  0
  -21.1168  -28.0093   17.6268 C   0  0  0  0  0  0  0  0  0  0  0  0
  -30.2527  -17.1601   20.4986 C   0  0  0  0  0  0  0  0  0  0  0  0
  -23.8432  -32.5338   27.4762 C   0  0  0  0  0  0  0  0  0  0  0  0
  -24.8742  -30.8835   21.2606 C   0  0  0  0  0  0  0  0  0  0  0  0
  -23.9467  -28.1669   20.5501 C   0  0  0  0  0  0  0  0  0  0  0  0
  -22.7559  -31.8947   26.6161 C   0  0  0  0  0  0  0  0  0  0  0  0
  -29.6455  -16.1672   17.1033 C   0  0  0  0  0  0  0  0  0  0  0  0
  -23.0999  -30.4394   26.3153 C   0  0  0  0  0  0  0  0  0  0  0  0
  -30.3975  -14.8348   17.0730 C   0  0  0  0  0  0  0  0  0  0  0  0
  -29.4195  -20.5689   21.6733 C   0  0  0  0  0  0  0  0  0  0  0  0
  -30.3382  -17.2273   17.9580 C   0  0  0  0  0  0  0  0  0  0  0  0
  -29.5122  -19.0667   21.8920 C   0  0  0  0  0  0  0  0  0  0  0  0
  -30.3336  -19.5982   19.7010 C   0  0  0  0  0  0  0  0  0  0  0  0
  -31.5203  -15.4669   19.2219 C   0  0  0  0  0  0  0  0  0  0  0  0
  -24.4093  -30.3341   25.5242 C   0  0  1  0  0  0  0  0  0  0  0  0
  -23.5764  -30.3067   21.8176 C   0  0  1  0  0  0  0  0  0  0  0  0
  -30.4870  -20.8194   20.6076 C   0  0  1  0  0  0  0  0  0  0  0  0
  -30.8081  -14.3243   18.4709 C   0  0  1  0  0  0  0  0  0  0  0  0
  -19.2920  -27.6259   15.9473 C   0  0  0  0  0  0  0  0  0  0  0  0
  -30.8931  -27.2740   18.9445 C   0  0  0  0  0  0  0  0  0  0  0  0
  -20.7386  -26.6970   22.3438 C   0  0  0  0  0  0  0  0  0  0  0  0
  -19.6513  -25.8651   20.2476 C   0  0  0  0  0  0  0  0  0  0  0  0
  -18.8855  -28.0006   21.2849 C   0  0  0  0  0  0  0  0  0  0  0  0
  -22.3533  -29.8700   15.6858 C   0  0  0  0  0  0  0  0  0  0  0  0
  -30.3072  -22.1385   19.8778 C   0  0  0  0  0  0  0  0  0  0  0  0
  -30.4114  -23.3169   20.8339 C   0  0  0  0  0  0  0  0  0  0  0  0
  -30.2051  -25.8046   20.9222 C   0  0  0  0  0  0  0  0  0  0  0  0
  -21.1210  -27.9270   20.1062 C   0  0  1  0  0  0  0  0  0  0  0  0
  -20.3485  -28.5945   16.4556 C   0  0  2  0  0  0  0  0  0  0  0  0
  -29.9099  -27.0448   20.0849 C   0  0  2  0  0  0  0  0  0  1  0  0
  -20.1269  -27.1286   20.9961 C   0  0  0  0  0  0  0  0  0  0  0  0
  -28.4557  -14.0531   19.1854 N   0  0  0  0  0  0  0  0  0  0  0  0
  -29.7310  -13.6497   19.3151 N   0  0  0  0  0  0  0  0  0  0  0  0
  -23.0302  -29.2347   20.9830 N   0  0  0  0  0  0  0  0  0  0  0  0
  -30.7202  -16.6921   19.2662 N   0  0  0  0  0  0  0  0  0  0  0  0
  -29.9556  -18.5170   20.6144 N   0  0  0  0  0  0  0  0  0  0  0  0
  -31.1204  -12.1230   20.4767 N   0  0  0  0  0  0  0  0  0  0  0  0
  -27.0048  -11.2386   22.1124 N   0  0  0  0  0  0  0  0  0  0  0  0
  -24.1868  -30.6627   24.1325 N   0  0  0  0  0  0  0  0  0  0  0  0
  -20.5602  -28.3721   18.8351 N   0  0  0  0  0  0  0  0  0  0  0  0
  -21.2765  -28.9094   15.3328 N   0  3  0  0  0  0  0  0  0  0  0  0
  -30.1851  -24.5751   20.0829 N   0  3  0  0  0  0  0  0  0  0  0  0
  -29.2216  -10.6660   22.2399 O   0  0  0  0  0  0  0  0  0  0  0  0
  -23.4733  -28.5669   23.4106 O   0  0  0  0  0  0  0  0  0  0  0  0
  -20.8488  -30.0419   21.1453 O   0  0  0  0  0  0  0  0  0  0  0  0
  -22.1090  -27.2982   17.4840 O   0  0  0  0  0  0  0  0  0  0  0  0
  -30.1452  -16.4042   21.4739 O   0  0  0  0  0  0  0  0  0  0  0  0
  -22.2653  -13.7764   20.6522 O   0  0  0  0  0  0  0  0  0  0  0  0
  -28.5873  -26.9452   19.5621 O   0  0  0  0  0  0  0  0  0  1  0  0
  -19.2764   -9.1450   20.7981 F   0  0  0  0  0  0  0  0  0  0  0  0
  -20.2907  -13.3029   18.7761 F   0  0  0  0  0  0  0  0  0  0  0  0
  1  2  1  0  0  0  0
  1  5  2  0  0  0  0
  2  6  2  0  0  0  0
  3  8  2  0  0  0  0
  3 15  1  0  0  0  0
  4  9  1  0  0  0  0
  4 15  2  0  0  0  0
  5 17  1  0  0  0  0
  6 19  1  0  0  0  0
  7 10  2  0  0  0  0
  7 18  1  0  0  0  0
  8 21  1  0  0  0  0
  9 21  2  0  0  0  0
 10 22  1  0  0  0  0
 11 12  2  0  0  0  0
 11 23  1  0  0  0  0
 12 24  1  0  0  0  0
 13 20  1  0  0  0  0
 13 22  2  0  0  0  0
 14 24  2  0  0  0  0
 14 25  1  0  0  0  0
 15 26  1  0  0  0  0
 16 26  1  0  0  0  0
 16 27  2  0  0  0  0
 16 28  1  0  0  0  0
 17 19  2  0  0  0  0
 17 33  1  0  0  0  0
 18 20  2  0  0  0  0
 18 34  1  0  0  0  0
 19 45  1  0  0  0  0
 20 35  1  0  0  0  0
 21 78  1  0  0  0  0
 22 79  1  0  0  0  0
 23 25  2  0  0  0  0
 23 78  1  0  0  0  0
 24 80  1  0  0  0  0
 25 81  1  0  0  0  0
 26 62  2  0  0  0  0
 27 63  1  0  0  0  0
 27 67  1  0  0  0  0
 28 68  1  0  0  0  0
 28 73  2  0  0  0  0
 29 46  1  0  0  0  0
 29 69  1  0  0  0  0
 29 74  2  0  0  0  0
 30 58  1  0  0  0  0
 30 64  1  0  0  0  0
 30 75  2  0  0  0  0
 31 59  1  0  0  0  0
 31 70  1  0  0  0  0
 31 76  2  0  0  0  0
 32 65  1  0  0  0  0
 32 66  1  0  0  0  0
 32 77  2  0  0  0  0
 33 36  1  0  0  0  0
 34 46  1  0  0  0  0
 35 64  1  0  0  0  0
 36 38  1  0  0  0  0
 37 39  1  0  0  0  0
 37 41  1  0  0  0  0
 38 45  1  0  0  0  0
 39 48  1  0  0  0  0
 40 42  1  0  0  0  0
 40 47  1  0  0  0  0
 41 65  1  0  0  0  0
 42 66  1  0  0  0  0
 43 47  1  0  0  0  0
 43 66  1  0  0  0  0
 44 48  1  0  0  0  0
 44 65  1  0  0  0  0
 45 69  1  0  0  0  0
 46 64  1  0  0  0  0
 47 55  1  0  0  0  0
 48 63  1  0  0  0  0
 49 59  1  0  0  0  0
 50 60  1  0  0  0  0
 51 61  1  0  0  0  0
 52 61  1  0  0  0  0
 53 61  1  0  0  0  0
 54 71  1  0  0  0  0
 55 56  1  0  0  0  0
 56 72  1  0  0  0  0
 57 60  1  0  0  0  0
 57 72  1  0  0  0  0
 58 61  1  0  0  0  0
 58 70  1  0  0  0  0
 59 71  1  0  0  0  0
 60 79  1  0  0  0  0
 62 63  1  0  0  0  0
M  CHG  2  71   1  72   1
M  ISO  4  32 100  60 101  66 100  79 101
M  END
> <Batch ID>
0189

> <Smiles>
CNC(C)C(=O)NC(C(=O)N1Cc2cc([101O:1][101CH:1](C)CNCCC3CC[100N:0]([100C:0](=O)N4CCCC(n5nc(-c6ccc(Oc7ccc(F)cc7F)cc6)c(C(N)=O)c5N)C4)C3)ccc2CC1C(=O)NC1CCCc2ccccc21)C(C)(C)C

> <Shape>
0.313

> <Color>
0.086

> <Negative vol penalty>
0.000

$$$$

  -OEChem-04052323223D

 84 93  0     1  0  0  0  0  0999 V2000
  -24.7097   -8.4154   21.7351 C   0  0  0  0  0  0  0  0  0  0  0  0
  -25.7455   -9.2000   21.2381 C   0  0  0  0  0  0  0  0  0  0  0  0
  -27.7378  -29.4273   21.2067 C   0  0  0  0  0  0  0  0  0  0  0  0
  -25.8365  -27.9718   21.5285 C   0  0  0  0  0  0  0  0  0  0  0  0
  -23.4403   -8.9660   21.9064 C   0  0  0  0  0  0  0  0  0  0  0  0
  -25.5122  -10.5353   20.9113 C   0  0  0  0  0  0  0  0  0  0  0  0
  -29.1603  -13.6149   22.6003 C   0  0  0  0  0  0  0  0  0  0  0  0
  -26.8970  -30.5386   21.2657 C   0  0  0  0  0  0  0  0  0  0  0  0
  -24.9957  -29.0832   21.5875 C   0  0  0  0  0  0  0  0  0  0  0  0
  -30.3493  -13.6521   21.8732 C   0  0  0  0  0  0  0  0  0  0  0  0
  -25.2994  -33.7760   21.6925 C   0  0  0  0  0  0  0  0  0  0  0  0
  -25.7114  -34.8604   22.4670 C   0  0  0  0  0  0  0  0  0  0  0  0
  -29.6286  -15.6945   20.8109 C   0  0  0  0  0  0  0  0  0  0  0  0
  -25.7517  -33.4463   24.4255 C   0  0  0  0  0  0  0  0  0  0  0  0
  -34.0787  -18.4762   20.4988 C   0  0  0  0  0  0  0  0  0  0  0  0
  -34.4768  -16.8744   21.8427 C   0  0  0  0  0  0  0  0  0  0  0  0
  -27.2075  -28.1438   21.3380 C   0  0  0  0  0  0  0  0  0  0  0  0
  -28.7356  -26.3702   22.3514 C   0  0  0  0  0  0  0  0  0  0  0  0
  -23.1936  -10.3113   21.5906 C   0  0  0  0  0  0  0  0  0  0  0  0
  -28.1902  -14.6129   22.4298 C   0  0  0  0  0  0  0  0  0  0  0  0
  -24.2380  -11.1040   21.0773 C   0  0  0  0  0  0  0  0  0  0  0  0
  -28.4292  -15.6690   21.5389 C   0  0  0  0  0  0  0  0  0  0  0  0
  -25.5260  -30.3666   21.4561 C   0  0  0  0  0  0  0  0  0  0  0  0
  -30.5824  -14.6905   20.9762 C   0  0  0  0  0  0  0  0  0  0  0  0
  -25.1135  -32.5267   22.2845 C   0  0  0  0  0  0  0  0  0  0  0  0
  -25.9375  -34.6956   23.8335 C   0  0  0  0  0  0  0  0  0  0  0  0
  -25.3397  -32.3619   23.6510 C   0  0  0  0  0  0  0  0  0  0  0  0
  -28.0754  -26.9953   21.2766 C   0  0  0  0  0  0  0  0  0  0  0  0
  -33.9241  -17.3282   19.7582 C   0  0  0  0  0  0  0  0  0  0  0  0
  -29.4291  -25.3351   21.7732 C   0  0  0  0  0  0  0  0  0  0  0  0
  -28.7231  -26.6960   23.7476 C   0  0  0  0  0  0  0  0  0  0  0  0
  -25.1734  -14.6612   21.4297 C   0  0  0  0  0  0  0  0  0  0  0  0
  -25.3349  -17.7743   22.3267 C   0  0  0  0  0  0  0  0  0  0  0  0
  -27.2713  -20.5196   22.9276 C   0  0  0  0  0  0  0  0  0  0  0  0
  -29.6208  -21.0496   18.3755 C   0  0  0  0  0  0  0  0  0  0  0  0
  -21.7934  -10.8491   21.7483 C   0  0  0  0  0  0  0  0  0  0  0  0
  -26.9244  -14.5727   23.2413 C   0  0  0  0  0  0  0  0  0  0  0  0
  -27.4285  -16.7758   21.3342 C   0  0  0  0  0  0  0  0  0  0  0  0
  -21.7210  -12.3738   21.7309 C   0  0  0  0  0  0  0  0  0  0  0  0
  -30.3247  -24.2816   16.9070 C   0  0  0  0  0  0  0  0  0  0  0  0
  -22.5505  -12.9346   20.5802 C   0  0  0  0  0  0  0  0  0  0  0  0
  -29.8521  -25.2274   18.0126 C   0  0  0  0  0  0  0  0  0  0  0  0
  -31.0188  -18.3392   16.1458 C   0  0  0  0  0  0  0  0  0  0  0  0
  -29.4135  -23.0628   16.7954 C   0  0  0  0  0  0  0  0  0  0  0  0
  -28.7779  -23.2407   19.1698 C   0  0  0  0  0  0  0  0  0  0  0  0
  -31.7321  -17.0750   16.5992 C   0  0  0  0  0  0  0  0  0  0  0  0
  -31.6236  -18.7223   18.4042 C   0  0  0  0  0  0  0  0  0  0  0  0
  -24.0303  -12.5633   20.7347 C   0  0  1  0  0  0  0  0  0  0  0  0
  -25.7838  -15.3643   22.6089 C   0  0  1  0  0  0  0  0  0  0  0  0
  -29.6710  -24.4820   19.3482 C   0  0  2  0  0  0  0  0  0  0  0  0
  -30.4766  -18.9313   17.4353 C   0  0  1  0  0  0  0  0  0  0  0  0
  -27.1149  -22.9292   23.6106 C   0  0  0  0  0  0  0  0  0  0  0  0
  -24.3567  -18.5013   19.5294 C   0  0  0  0  0  0  0  0  0  0  0  0
  -25.1196  -20.8487   19.9484 C   0  0  0  0  0  0  0  0  0  0  0  0
  -23.3351  -19.8460   21.3740 C   0  0  0  0  0  0  0  0  0  0  0  0
  -28.9016  -20.0579   25.3541 C   0  0  0  0  0  0  0  0  0  0  0  0
  -33.5659  -17.1156   18.3454 C   0  0  0  0  0  0  0  0  0  0  0  0
  -34.1536  -14.8308   20.3350 C   0  0  0  0  0  0  0  0  0  0  0  0
  -32.8975  -14.1556   20.8749 C   0  0  0  0  0  0  0  0  0  1  0  0
  -25.7241  -19.0643   21.6459 C   0  0  1  0  0  0  0  0  0  0  0  0
  -27.3001  -21.4974   24.0884 C   0  0  2  0  0  0  0  0  0  0  0  0
  -24.6521  -19.5433   20.6266 C   0  0  0  0  0  0  0  0  0  0  0  0
  -34.4230  -18.1869   21.7955 N   0  0  0  0  0  0  0  0  0  0  0  0
  -28.3270  -26.4067   20.1043 N   0  0  0  0  0  0  0  0  0  0  0  0
  -34.1829  -16.3103   20.6324 N   0  0  0  0  0  0  0  0  0  0  0  0
  -29.1531  -25.4009   20.4391 N   0  0  0  0  0  0  0  0  0  0  0  0
  -26.2035  -16.6886   22.1461 N   0  0  0  0  0  0  0  0  0  0  0  0
  -29.2982  -22.3879   18.0959 N   0  0  0  0  0  0  0  0  0  0  0  0
  -30.2419  -24.3844   22.2808 N   0  0  0  0  0  0  0  0  0  0  0  0
  -27.9576  -27.7908   24.1714 N   0  0  0  0  0  0  0  0  0  0  0  0
  -24.6635  -13.4107   21.7223 N   0  0  0  0  0  0  0  0  0  0  0  0
  -26.0043  -20.0201   22.7119 N   0  0  0  0  0  0  0  0  0  0  0  0
  -30.1004  -20.3084   17.3025 N   0  0  0  0  0  0  0  0  0  0  0  0
  -32.1184  -17.3364   18.0444 N   0  3  2  0  0  0  0  0  0  0  0  0
  -28.6011  -21.4071   24.8096 N   0  3  0  0  0  0  0  0  0  0  0  0
  -29.3846  -26.0457   24.5921 O   0  0  0  0  0  0  0  0  0  0  0  0
  -25.1642  -15.2131   20.3356 O   0  0  0  0  0  0  0  0  0  0  0  0
  -24.3021  -17.7336   23.0000 O   0  0  0  0  0  0  0  0  0  0  0  0
  -28.2718  -20.2308   22.2749 O   0  0  0  0  0  0  0  0  0  0  0  0
  -29.4958  -20.5529   19.5001 O   0  0  0  0  0  0  0  0  0  0  0  0
  -24.7053  -31.4509   21.5140 O   0  0  0  0  0  0  0  0  0  0  0  0
  -31.7418  -14.7289   20.2648 O   0  0  0  0  0  0  0  0  0  1  0  0
  -26.3346  -35.7367   24.5769 F   0  0  0  0  0  0  0  0  0  0  0  0
  -25.1639  -31.1638   24.2251 F   0  0  0  0  0  0  0  0  0  0  0  0
  1  2  1  0  0  0  0
  1  5  2  0  0  0  0
  2  6  2  0  0  0  0
  3  8  2  0  0  0  0
  3 17  1  0  0  0  0
  4  9  1  0  0  0  0
  4 17  2  0  0  0  0
  5 19  1  0  0  0  0
  6 21  1  0  0  0  0
  7 10  2  0  0  0  0
  7 20  1  0  0  0  0
  8 23  1  0  0  0  0
  9 23  2  0  0  0  0
 10 24  1  0  0  0  0
 11 12  2  0  0  0  0
 11 25  1  0  0  0  0
 12 26  1  0  0  0  0
 13 22  1  0  0  0  0
 13 24  2  0  0  0  0
 14 26  2  0  0  0  0
 14 27  1  0  0  0  0
 15 29  2  0  0  0  0
 15 63  1  0  0  0  0
 16 63  2  0  0  0  0
 16 65  1  0  0  0  0
 17 28  1  0  0  0  0
 18 28  1  0  0  0  0
 18 30  2  0  0  0  0
 18 31  1  0  0  0  0
 19 21  2  0  0  0  0
 19 36  1  0  0  0  0
 20 22  2  0  0  0  0
 20 37  1  0  0  0  0
 21 48  1  0  0  0  0
 22 38  1  0  0  0  0
 23 81  1  0  0  0  0
 24 82  1  0  0  0  0
 25 27  2  0  0  0  0
 25 81  1  0  0  0  0
 26 83  1  0  0  0  0
 27 84  1  0  0  0  0
 28 64  2  0  0  0  0
 29 57  1  0  0  0  0
 29 65  1  0  0  0  0
 30 66  1  0  0  0  0
 30 69  1  0  0  0  0
 31 70  1  0  0  0  0
 31 76  2  0  0  0  0
 32 49  1  0  0  0  0
 32 71  1  0  0  0  0
 32 77  2  0  0  0  0
 33 60  1  0  0  0  0
 33 67  1  0  0  0  0
 33 78  2  0  0  0  0
 34 61  1  0  0  0  0
 34 72  1  0  0  0  0
 34 79  2  0  0  0  0
 35 68  1  0  0  0  0
 35 73  1  0  0  0  0
 35 80  2  0  0  0  0
 36 39  1  0  0  0  0
 37 49  1  0  0  0  0
 38 67  1  0  0  0  0
 39 41  1  0  0  0  0
 40 42  1  0  0  0  0
 40 44  1  0  0  0  0
 41 48  1  0  0  0  0
 42 50  1  0  0  0  0
 43 46  1  0  0  0  0
 43 51  1  0  0  0  0
 44 68  1  0  0  0  0
 45 50  1  0  0  0  0
 45 68  1  0  0  0  0
 46 74  1  0  0  0  0
 47 51  1  0  0  0  0
 47 74  1  0  0  0  0
 48 71  1  0  0  0  0
 49 67  1  0  0  0  0
 50 66  1  0  0  0  0
 51 73  1  0  0  0  0
 52 61  1  0  0  0  0
 53 62  1  0  0  0  0
 54 62  1  0  0  0  0
 55 62  1  0  0  0  0
 56 75  1  0  0  0  0
 57 74  1  0  0  0  0
 58 59  1  0  0  0  0
 58 65  1  0  0  0  0
 59 82  1  0  0  0  0
 60 62  1  0  0  0  0
 60 72  1  0  0  0  0
 61 75  1  0  0  0  0
 64 66  1  0  0  0  0
M  CHG  2  74   1  75   1
M  ISO  4  35 100  59 101  73 100  82 101
M  END
> <Batch ID>
0189

> <Smiles>
CNC(C)C(=O)NC(C(=O)N1Cc2cc([101O:1][101CH2:1]Cn3cncc3CN3CCC([100NH:0][100C:0](=O)N4CCCC(n5nc(-c6ccc(Oc7ccc(F)cc7F)cc6)c(C(N)=O)c5N)C4)C3)ccc2CC1C(=O)NC1CCCc2ccccc21)C(C)(C)C

> <Shape>
0.225

> <Color>
0.069

> <Negative vol penalty>
0.000

$$$$

  -OEChem-04052323223D

 82 91  0     1  0  0  0  0  0999 V2000
  -28.0747  -36.2520   21.6814 C   0  0  0  0  0  0  0  0  0  0  0  0
  -28.8035  -35.1953   21.1451 C   0  0  0  0  0  0  0  0  0  0  0  0
  -23.3141  -15.6021   21.4002 C   0  0  0  0  0  0  0  0  0  0  0  0
  -22.3489  -14.4738   19.4943 C   0  0  0  0  0  0  0  0  0  0  0  0
  -27.0448  -35.9985   22.5863 C   0  0  0  0  0  0  0  0  0  0  0  0
  -28.5035  -33.8845   21.5142 C   0  0  0  0  0  0  0  0  0  0  0  0
  -28.4571  -27.2179   18.8931 C   0  0  0  0  0  0  0  0  0  0  0  0
  -22.3161  -16.5739   21.3304 C   0  0  0  0  0  0  0  0  0  0  0  0
  -21.3507  -15.4456   19.4245 C   0  0  0  0  0  0  0  0  0  0  0  0
  -28.9278  -25.9399   19.1915 C   0  0  0  0  0  0  0  0  0  0  0  0
  -21.6398  -19.3208   19.4806 C   0  0  0  0  0  0  0  0  0  0  0  0
  -22.0264  -20.6556   19.6012 C   0  0  0  0  0  0  0  0  0  0  0  0
  -27.0751  -25.6170   20.7023 C   0  0  0  0  0  0  0  0  0  0  0  0
  -20.6182  -20.8873   21.5506 C   0  0  0  0  0  0  0  0  0  0  0  0
  -29.6194  -19.8794   20.2502 C   0  0  0  0  0  0  0  0  0  0  0  0
  -31.6694  -20.6083   21.0999 C   0  0  0  0  0  0  0  0  0  0  0  0
  -23.3306  -14.5520   20.4821 C   0  0  0  0  0  0  0  0  0  0  0  0
  -24.3275  -12.3446   21.2829 C   0  0  0  0  0  0  0  0  0  0  0  0
  -26.7256  -34.6834   22.9594 C   0  0  0  0  0  0  0  0  0  0  0  0
  -27.2959  -27.7100   19.5063 C   0  0  0  0  0  0  0  0  0  0  0  0
  -27.4692  -33.6133   22.4260 C   0  0  0  0  0  0  0  0  0  0  0  0
  -26.5903  -26.9005   20.4080 C   0  0  0  0  0  0  0  0  0  0  0  0
  -21.3343  -16.4957   20.3426 C   0  0  0  0  0  0  0  0  0  0  0  0
  -28.2383  -25.1404   20.0984 C   0  0  0  0  0  0  0  0  0  0  0  0
  -20.7423  -18.7693   20.3949 C   0  0  0  0  0  0  0  0  0  0  0  0
  -30.8059  -19.5555   20.8760 C   0  0  0  0  0  0  0  0  0  0  0  0
  -21.5156  -21.4388   20.6362 C   0  0  0  0  0  0  0  0  0  0  0  0
  -20.2315  -19.5525   21.4300 C   0  0  0  0  0  0  0  0  0  0  0  0
  -24.3617  -13.5481   20.5533 C   0  0  0  0  0  0  0  0  0  0  0  0
  -25.5375  -11.7498   21.0211 C   0  0  0  0  0  0  0  0  0  0  0  0
  -30.2159  -22.0702   20.1422 C   0  0  0  0  0  0  0  0  0  0  0  0
  -23.2942  -11.8119   22.1221 C   0  0  0  0  0  0  0  0  0  0  0  0
  -26.6384  -30.1535   21.4300 C   0  0  0  0  0  0  0  0  0  0  0  0
  -23.5763  -29.1873   20.9690 C   0  0  0  0  0  0  0  0  0  0  0  0
  -21.4251  -26.6655   20.1567 C   0  0  0  0  0  0  0  0  0  0  0  0
  -30.8374  -14.1006   19.2470 C   0  0  0  0  0  0  0  0  0  0  0  0
  -25.6348  -34.4619   23.9771 C   0  0  0  0  0  0  0  0  0  0  0  0
  -26.7865  -29.0805   19.1534 C   0  0  0  0  0  0  0  0  0  0  0  0
  -25.3274  -27.3743   21.0781 C   0  0  0  0  0  0  0  0  0  0  0  0
  -25.1342  -33.0208   24.0295 C   0  0  0  0  0  0  0  0  0  0  0  0
  -28.9445  -11.4604   17.7052 C   0  0  0  0  0  0  0  0  0  0  0  0
  -26.3089  -32.0481   24.0537 C   0  0  0  0  0  0  0  0  0  0  0  0
  -27.5401  -11.6191   18.2783 C   0  0  0  0  0  0  0  0  0  0  0  0
  -29.6167  -12.8155   17.5304 C   0  0  0  0  0  0  0  0  0  0  0  0
  -28.3121  -13.7617   19.4168 C   0  0  0  0  0  0  0  0  0  0  0  0
  -31.9480  -16.0270   20.4958 C   0  0  0  0  0  0  0  0  0  0  0  0
  -29.9098  -16.4191   20.0278 C   0  0  0  0  0  0  0  0  0  0  0  0
  -27.1575  -32.1761   22.7829 C   0  0  1  0  0  0  0  0  0  0  0  0
  -25.8783  -29.6747   20.2255 C   0  0  1  0  0  0  0  0  0  0  0  0
  -27.5827  -12.4146   19.5909 C   0  0  1  0  0  0  0  0  0  0  0  0
  -31.1546  -17.3046   20.1924 C   0  0  0  0  0  0  0  0  0  0  0  0
  -18.9786  -26.1687   19.9020 C   0  0  0  0  0  0  0  0  0  0  0  0
  -23.2834  -29.0858   24.0044 C   0  0  0  0  0  0  0  0  0  0  0  0
  -21.2152  -27.7105   23.6891 C   0  0  0  0  0  0  0  0  0  0  0  0
  -21.3110  -30.0382   22.7973 C   0  0  0  0  0  0  0  0  0  0  0  0
  -21.7418  -25.9904   17.2926 C   0  0  0  0  0  0  0  0  0  0  0  0
  -29.8882  -23.4666   19.7347 C   0  0  0  0  0  0  0  0  0  1  0  0
  -22.6458  -28.2184   21.6577 C   0  0  1  0  0  0  0  0  0  0  0  0
  -20.2503  -26.6138   19.1967 C   0  0  2  0  0  0  0  0  0  0  0  0
  -22.1387  -28.7547   23.0262 C   0  0  0  0  0  0  0  0  0  0  0  0
  -29.2906  -21.1309   19.8682 N   0  0  0  0  0  0  0  0  0  0  0  0
  -31.4056  -21.8829   20.7446 N   0  0  0  0  0  0  0  0  0  0  0  0
  -25.5031  -13.7099   19.8788 N   0  0  0  0  0  0  0  0  0  0  0  0
  -26.1974  -12.6002   20.1835 N   0  0  0  0  0  0  0  0  0  0  0  0
  -24.8731  -28.7241   20.7051 N   0  0  0  0  0  0  0  0  0  0  0  0
  -29.6224  -13.5932   18.7732 N   0  0  0  0  0  0  0  0  0  0  0  0
  -30.8201  -15.2897   19.9392 N   0  0  0  0  0  0  0  0  0  0  0  0
  -26.0908  -10.5876   21.4280 N   0  0  0  0  0  0  0  0  0  0  0  0
  -22.1151  -12.5524   22.2819 N   0  0  0  0  0  0  0  0  0  0  0  0
  -26.5110  -31.5076   21.6740 N   0  0  0  0  0  0  0  0  0  0  0  0
  -21.5844  -27.9221   20.7016 N   0  0  0  0  0  0  0  0  0  0  0  0
  -20.5303  -25.6600   18.0864 N   0  3  0  0  0  0  0  0  0  0  0  0
  -23.4197  -10.7196   22.7259 O   0  0  0  0  0  0  0  0  0  0  0  0
  -27.2909  -29.3533   22.0900 O   0  0  0  0  0  0  0  0  0  0  0  0
  -23.1655  -30.3112   20.6696 O   0  0  0  0  0  0  0  0  0  0  0  0
  -22.1287  -25.6880   20.4017 O   0  0  0  0  0  0  0  0  0  0  0  0
  -31.9133  -13.5265   19.0321 O   0  0  0  0  0  0  0  0  0  0  0  0
  -20.3601  -17.4437   20.2743 O   0  0  0  0  0  0  0  0  0  0  0  0
  -31.1054  -18.2789   21.2487 O   0  0  0  0  0  0  0  0  0  0  0  0
  -28.6991  -23.8843   20.3940 O   0  0  0  0  0  0  0  0  0  1  0  0
  -21.8881  -22.7201   20.7528 F   0  0  0  0  0  0  0  0  0  0  0  0
  -19.3699  -19.0279   22.3121 F   0  0  0  0  0  0  0  0  0  0  0  0
  1  2  1  0  0  0  0
  1  5  2  0  0  0  0
  2  6  2  0  0  0  0
  3  8  2  0  0  0  0
  3 17  1  0  0  0  0
  4  9  1  0  0  0  0
  4 17  2  0  0  0  0
  5 19  1  0  0  0  0
  6 21  1  0  0  0  0
  7 10  2  0  0  0  0
  7 20  1  0  0  0  0
  8 23  1  0  0  0  0
  9 23  2  0  0  0  0
 10 24  1  0  0  0  0
 11 12  2  0  0  0  0
 11 25  1  0  0  0  0
 12 27  1  0  0  0  0
 13 22  1  0  0  0  0
 13 24  2  0  0  0  0
 14 27  2  0  0  0  0
 14 28  1  0  0  0  0
 15 26  1  0  0  0  0
 15 61  2  0  0  0  0
 16 26  2  0  0  0  0
 16 62  1  0  0  0  0
 17 29  1  0  0  0  0
 18 29  1  0  0  0  0
 18 30  2  0  0  0  0
 18 32  1  0  0  0  0
 19 21  2  0  0  0  0
 19 37  1  0  0  0  0
 20 22  2  0  0  0  0
 20 38  1  0  0  0  0
 21 48  1  0  0  0  0
 22 39  1  0  0  0  0
 23 78  1  0  0  0  0
 24 80  1  0  0  0  0
 25 28  2  0  0  0  0
 25 78  1  0  0  0  0
 26 79  1  0  0  0  0
 27 81  1  0  0  0  0
 28 82  1  0  0  0  0
 29 63  2  0  0  0  0
 30 64  1  0  0  0  0
 30 68  1  0  0  0  0
 31 57  1  0  0  0  0
 31 61  1  0  0  0  0
 31 62  2  0  0  0  0
 32 69  1  0  0  0  0
 32 73  2  0  0  0  0
 33 49  1  0  0  0  0
 33 70  1  0  0  0  0
 33 74  2  0  0  0  0
 34 58  1  0  0  0  0
 34 65  1  0  0  0  0
 34 75  2  0  0  0  0
 35 59  1  0  0  0  0
 35 71  1  0  0  0  0
 35 76  2  0  0  0  0
 36 66  1  0  0  0  0
 36 67  1  0  0  0  0
 36 77  2  0  0  0  0
 37 40  1  0  0  0  0
 38 49  1  0  0  0  0
 39 65  1  0  0  0  0
 40 42  1  0  0  0  0
 41 43  1  0  0  0  0
 41 44  1  0  0  0  0
 42 48  1  0  0  0  0
 43 50  1  0  0  0  0
 44 66  1  0  0  0  0
 45 50  1  0  0  0  0
 45 66  1  0  0  0  0
 46 51  1  0  0  0  0
 46 67  1  0  0  0  0
 47 51  1  0  0  0  0
 47 67  1  0  0  0  0
 48 70  1  0  0  0  0
 49 65  1  0  0  0  0
 50 64  1  0  0  0  0
 51 79  1  0  0  0  0
 52 59  1  0  0  0  0
 53 60  1  0  0  0  0
 54 60  1  0  0  0  0
 55 60  1  0  0  0  0
 56 72  1  0  0  0  0
 57 80  1  0  0  0  0
 58 60  1  0  0  0  0
 58 71  1  0  0  0  0
 59 72  1  0  0  0  0
 63 64  1  0  0  0  0
M  CHG  1  72   1
M  ISO  4  36 100  57 101  67 100  80 101
M  END
> <Batch ID>
0189

> <Smiles>
CNC(C)C(=O)NC(C(=O)N1Cc2cc([101O:1][101CH2:1]c3ncc(OC4C[100N:0]([100C:0](=O)N5CCCC(n6nc(-c7ccc(Oc8ccc(F)cc8F)cc7)c(C(N)=O)c6N)C5)C4)cn3)ccc2CC1C(=O)NC1CCCc2ccccc21)C(C)(C)C

> <Shape>
0.285

> <Color>
0.079

> <Negative vol penalty>
0.000

$$$$

  -OEChem-04052323223D

 82 91  0     1  0  0  0  0  0999 V2000
  -20.5126  -34.8777   22.0069 C   0  0  0  0  0  0  0  0  0  0  0  0
  -21.7189  -34.3074   21.6131 C   0  0  0  0  0  0  0  0  0  0  0  0
  -27.4071  -12.2927   21.4909 C   0  0  0  0  0  0  0  0  0  0  0  0
  -27.0846  -13.4427   19.3908 C   0  0  0  0  0  0  0  0  0  0  0  0
  -19.6935  -34.2132   22.9187 C   0  0  0  0  0  0  0  0  0  0  0  0
  -22.1073  -33.0727   22.1317 C   0  0  0  0  0  0  0  0  0  0  0  0
  -25.2317  -28.6782   19.2280 C   0  0  0  0  0  0  0  0  0  0  0  0
  -26.5530  -11.2754   21.0651 C   0  0  0  0  0  0  0  0  0  0  0  0
  -26.2305  -12.4255   18.9649 C   0  0  0  0  0  0  0  0  0  0  0  0
  -26.5813  -28.3283   19.2314 C   0  0  0  0  0  0  0  0  0  0  0  0
  -23.2220  -10.7734   20.7879 C   0  0  0  0  0  0  0  0  0  0  0  0
  -22.2608  -10.3156   21.6891 C   0  0  0  0  0  0  0  0  0  0  0  0
  -26.1361  -26.6517   20.9077 C   0  0  0  0  0  0  0  0  0  0  0  0
  -23.2103   -8.0969   21.5746 C   0  0  0  0  0  0  0  0  0  0  0  0
  -27.6729  -13.3764   20.6538 C   0  0  0  0  0  0  0  0  0  0  0  0
  -29.9496  -14.4968   20.9167 C   0  0  0  0  0  0  0  0  0  0  0  0
  -20.0675  -32.9652   23.4414 C   0  0  0  0  0  0  0  0  0  0  0  0
  -24.3246  -28.0238   20.0737 C   0  0  0  0  0  0  0  0  0  0  0  0
  -21.2930  -32.3915   23.0524 C   0  0  0  0  0  0  0  0  0  0  0  0
  -24.7751  -26.9934   20.9112 C   0  0  0  0  0  0  0  0  0  0  0  0
  -30.1369  -23.7293   19.7662 C   0  0  0  0  0  0  0  0  0  0  0  0
  -25.9648  -11.3418   19.8021 C   0  0  0  0  0  0  0  0  0  0  0  0
  -27.0342  -27.3169   20.0734 C   0  0  0  0  0  0  0  0  0  0  0  0
  -24.1774   -9.8930   20.2801 C   0  0  0  0  0  0  0  0  0  0  0  0
  -22.2550   -8.9774   22.0824 C   0  0  0  0  0  0  0  0  0  0  0  0
  -24.1715   -8.5548   20.6734 C   0  0  0  0  0  0  0  0  0  0  0  0
  -28.5546  -14.4277   21.0934 C   0  0  0  0  0  0  0  0  0  0  0  0
  -29.4339  -22.6154   19.3701 C   0  0  0  0  0  0  0  0  0  0  0  0
  -29.7714  -24.7223   18.8422 C   0  0  0  0  0  0  0  0  0  0  0  0
  -30.3124  -15.6817   21.5089 C   0  0  0  0  0  0  0  0  0  0  0  0
  -30.8379  -13.5724   20.2747 C   0  0  0  0  0  0  0  0  0  0  0  0
  -22.4349  -28.9268   22.4648 C   0  0  0  0  0  0  0  0  0  0  0  0
  -21.3861  -25.8630   22.2769 C   0  0  0  0  0  0  0  0  0  0  0  0
  -22.0106  -22.6387   21.3492 C   0  0  0  0  0  0  0  0  0  0  0  0
  -29.5565  -21.0323   22.5393 C   0  0  0  0  0  0  0  0  0  0  0  0
  -19.1713  -32.3068   24.4603 C   0  0  0  0  0  0  0  0  0  0  0  0
  -22.8674  -28.3948   20.0387 C   0  0  0  0  0  0  0  0  0  0  0  0
  -31.0349  -23.7192   20.9458 C   0  0  0  0  0  0  0  0  0  0  0  0
  -23.8383  -26.2462   21.8236 C   0  0  0  0  0  0  0  0  0  0  0  0
  -29.4633  -21.2734   20.0033 C   0  0  0  0  0  0  0  0  0  0  0  0
  -19.4793  -30.8275   24.6769 C   0  0  0  0  0  0  0  0  0  0  0  0
  -27.7047  -18.8255   24.4770 C   0  0  0  0  0  0  0  0  0  0  0  0
  -20.9810  -30.6126   24.8368 C   0  0  0  0  0  0  0  0  0  0  0  0
  -27.8639  -17.4848   23.7614 C   0  0  0  0  0  0  0  0  0  0  0  0
  -31.3529  -22.2630   21.3430 C   0  0  0  0  0  0  0  0  0  0  0  0
  -27.5314  -19.9602   23.4746 C   0  0  0  0  0  0  0  0  0  0  0  0
  -28.8236  -18.7302   21.7599 C   0  0  0  0  0  0  0  0  0  0  0  0
  -21.7373  -31.0421   23.5738 C   0  0  1  0  0  0  0  0  0  0  0  0
  -22.1227  -28.0124   21.3141 C   0  0  1  0  0  0  0  0  0  0  0  0
  -29.0031  -17.5435   22.7288 C   0  0  2  0  0  0  0  0  0  0  0  0
  -20.9784  -20.3514   21.3575 C   0  0  0  0  0  0  0  0  0  0  0  0
  -21.9781  -25.6094   25.2594 C   0  0  0  0  0  0  0  0  0  0  0  0
  -21.8452  -23.1224   25.0032 C   0  0  0  0  0  0  0  0  0  0  0  0
  -19.8440  -24.5325   24.5241 C   0  0  0  0  0  0  0  0  0  0  0  0
  -27.8335  -22.1578   17.4877 C   0  0  0  0  0  0  0  0  0  0  0  0
  -22.0895  -22.4655   18.3957 C   0  0  0  0  0  0  0  0  0  0  0  0
  -30.2227  -26.1233   18.7937 C   0  0  0  0  0  0  0  0  0  0  0  0
  -29.0728  -27.1442   18.8609 C   0  0  0  0  0  0  0  0  0  1  0  0
  -21.7904  -24.5539   22.9106 C   0  0  1  0  0  0  0  0  0  0  0  0
  -21.1796  -21.6361   20.5690 C   0  0  2  0  0  0  0  0  0  0  0  0
  -21.3827  -24.4698   24.4087 C   0  0  0  0  0  0  0  0  0  0  0  0
  -28.0647  -15.4846   21.7468 N   0  0  0  0  0  0  0  0  0  0  0  0
  -28.9054  -24.2734   17.9254 N   0  0  0  0  0  0  0  0  0  0  0  0
  -28.7194  -22.9843   18.2724 N   0  0  0  0  0  0  0  0  0  0  0  0
  -29.1578  -16.2289   21.9860 N   0  0  0  0  0  0  0  0  0  0  0  0
  -22.4240  -26.6498   21.7576 N   0  0  0  0  0  0  0  0  0  0  0  0
  -30.1425  -21.4094   21.3199 N   0  0  0  0  0  0  0  0  0  0  0  0
  -28.6269  -19.9828   22.5050 N   0  0  0  0  0  0  0  0  0  0  0  0
  -31.5034  -16.2985   21.6630 N   0  0  0  0  0  0  0  0  0  0  0  0
  -30.2988  -12.4043   19.7186 N   0  0  0  0  0  0  0  0  0  0  0  0
  -21.6122  -30.0343   22.5426 N   0  0  0  0  0  0  0  0  0  0  0  0
  -21.2189  -23.5026   22.0759 N   0  0  0  0  0  0  0  0  0  0  0  0
  -21.8503  -21.2974   19.2819 N   0  3  0  0  0  0  0  0  0  0  0  0
  -32.0752  -13.7685   20.2108 O   0  0  0  0  0  0  0  0  0  0  0  0
  -23.3533  -28.6474   23.2266 O   0  0  0  0  0  0  0  0  0  0  0  0
  -20.1927  -26.1727   22.2374 O   0  0  0  0  0  0  0  0  0  0  0  0
  -23.2392  -22.6517   21.3200 O   0  0  0  0  0  0  0  0  0  0  0  0
  -29.8414  -21.6083   23.5970 O   0  0  0  0  0  0  0  0  0  0  0  0
  -25.1315  -10.3493   19.3861 O   0  0  0  0  0  0  0  0  0  0  0  0
  -28.3603  -26.9714   20.0792 O   0  0  0  0  0  0  0  0  0  1  0  0
  -21.3328   -8.5382   22.9490 F   0  0  0  0  0  0  0  0  0  0  0  0
  -25.0875   -7.7045   20.1898 F   0  0  0  0  0  0  0  0  0  0  0  0
  1  2  1  0  0  0  0
  1  5  2  0  0  0  0
  2  6  2  0  0  0  0
  3  8  2  0  0  0  0
  3 15  1  0  0  0  0
  4  9  1  0  0  0  0
  4 15  2  0  0  0  0
  5 17  1  0  0  0  0
  6 19  1  0  0  0  0
  7 10  2  0  0  0  0
  7 18  1  0  0  0  0
  8 22  1  0  0  0  0
  9 22  2  0  0  0  0
 10 23  1  0  0  0  0
 11 12  2  0  0  0  0
 11 24  1  0  0  0  0
 12 25  1  0  0  0  0
 13 20  1  0  0  0  0
 13 23  2  0  0  0  0
 14 25  2  0  0  0  0
 14 26  1  0  0  0  0
 15 27  1  0  0  0  0
 16 27  1  0  0  0  0
 16 30  2  0  0  0  0
 16 31  1  0  0  0  0
 17 19  2  0  0  0  0
 17 36  1  0  0  0  0
 18 20  2  0  0  0  0
 18 37  1  0  0  0  0
 19 48  1  0  0  0  0
 20 39  1  0  0  0  0
 21 28  2  0  0  0  0
 21 29  1  0  0  0  0
 21 38  1  0  0  0  0
 22 79  1  0  0  0  0
 23 80  1  0  0  0  0
 24 26  2  0  0  0  0
 24 79  1  0  0  0  0
 25 81  1  0  0  0  0
 26 82  1  0  0  0  0
 27 62  2  0  0  0  0
 28 40  1  0  0  0  0
 28 64  1  0  0  0  0
 29 57  1  0  0  0  0
 29 63  2  0  0  0  0
 30 65  1  0  0  0  0
 30 69  1  0  0  0  0
 31 70  1  0  0  0  0
 31 74  2  0  0  0  0
 32 49  1  0  0  0  0
 32 71  1  0  0  0  0
 32 75  2  0  0  0  0
 33 59  1  0  0  0  0
 33 66  1  0  0  0  0
 33 76  2  0  0  0  0
 34 60  1  0  0  0  0
 34 72  1  0  0  0  0
 34 77  2  0  0  0  0
 35 67  1  0  0  0  0
 35 68  1  0  0  0  0
 35 78  2  0  0  0  0
 36 41  1  0  0  0  0
 37 49  1  0  0  0  0
 38 45  1  0  0  0  0
 39 66  1  0  0  0  0
 40 67  1  0  0  0  0
 41 43  1  0  0  0  0
 42 44  1  0  0  0  0
 42 46  1  0  0  0  0
 43 48  1  0  0  0  0
 44 50  1  0  0  0  0
 45 67  1  0  0  0  0
 46 68  1  0  0  0  0
 47 50  1  0  0  0  0
 47 68  1  0  0  0  0
 48 71  1  0  0  0  0
 49 66  1  0  0  0  0
 50 65  1  0  0  0  0
 51 60  1  0  0  0  0
 52 61  1  0  0  0  0
 53 61  1  0  0  0  0
 54 61  1  0  0  0  0
 55 64  1  0  0  0  0
 56 73  1  0  0  0  0
 57 58  1  0  0  0  0
 58 80  1  0  0  0  0
 59 61  1  0  0  0  0
 59 72  1  0  0  0  0
 60 73  1  0  0  0  0
 62 65  1  0  0  0  0
 63 64  1  0  0  0  0
M  CHG  1  73   1
M  ISO  4  35 100  58 101  67 100  80 101
M  END
> <Batch ID>
0189

> <Smiles>
CNC(C)C(=O)NC(C(=O)N1Cc2cc([101O:1][101CH2:1]Cc3nn(C)c4c3CC[100N:0]([100C:0](=O)N3CCCC(n5nc(-c6ccc(Oc7ccc(F)cc7F)cc6)c(C(N)=O)c5N)C3)C4)ccc2CC1C(=O)NC1CCCc2ccccc21)C(C)(C)C

> <Shape>
0.243

> <Color>
0.092

> <Negative vol penalty>
0.000

$$$$

  -OEChem-04052323223D

 81 89  0     1  0  0  0  0  0999 V2000
  -16.4119  -29.9343   23.4192 C   0  0  0  0  0  0  0  0  0  0  0  0
  -17.2943  -30.0366   22.3486 C   0  0  0  0  0  0  0  0  0  0  0  0
  -30.4720  -17.5596   19.7928 C   0  0  0  0  0  0  0  0  0  0  0  0
  -29.1979  -18.1640   21.7546 C   0  0  0  0  0  0  0  0  0  0  0  0
  -16.8145  -29.3025   24.5950 C   0  0  0  0  0  0  0  0  0  0  0  0
  -18.5804  -29.5080   22.4536 C   0  0  0  0  0  0  0  0  0  0  0  0
  -23.6782  -26.3977   18.4970 C   0  0  0  0  0  0  0  0  0  0  0  0
  -30.3644  -16.2125   20.1378 C   0  0  0  0  0  0  0  0  0  0  0  0
  -29.0903  -16.8167   22.0996 C   0  0  0  0  0  0  0  0  0  0  0  0
  -25.0331  -26.5237   18.1936 C   0  0  0  0  0  0  0  0  0  0  0  0
  -28.0386  -13.7667   19.9326 C   0  0  0  0  0  0  0  0  0  0  0  0
  -27.7081  -12.8633   18.9226 C   0  0  0  0  0  0  0  0  0  0  0  0
  -25.5922  -25.3839   20.2448 C   0  0  0  0  0  0  0  0  0  0  0  0
  -29.7835  -11.6847   19.2976 C   0  0  0  0  0  0  0  0  0  0  0  0
  -31.1888  -26.4998   16.7252 C   0  0  0  0  0  0  0  0  0  0  0  0
  -29.8735  -26.2441   16.4168 C   0  0  0  0  0  0  0  0  0  0  0  0
  -29.8888  -18.5354   20.6012 C   0  0  0  0  0  0  0  0  0  0  0  0
  -29.1165  -20.6728   19.4423 C   0  0  0  0  0  0  0  0  0  0  0  0
  -18.1029  -28.7573   24.7110 C   0  0  0  0  0  0  0  0  0  0  0  0
  -23.2697  -25.7724   19.6838 C   0  0  0  0  0  0  0  0  0  0  0  0
  -19.0011  -28.8694   23.6325 C   0  0  0  0  0  0  0  0  0  0  0  0
  -24.2314  -25.2490   20.5597 C   0  0  0  0  0  0  0  0  0  0  0  0
  -29.6735  -15.8410   21.2912 C   0  0  0  0  0  0  0  0  0  0  0  0
  -25.9904  -26.0193   19.0690 C   0  0  0  0  0  0  0  0  0  0  0  0
  -29.2417  -13.6292   20.6251 C   0  0  0  0  0  0  0  0  0  0  0  0
  -28.5805  -11.8222   18.6051 C   0  0  0  0  0  0  0  0  0  0  0  0
  -30.1141  -12.5882   20.3076 C   0  0  0  0  0  0  0  0  0  0  0  0
  -30.0002  -19.9273   20.2456 C   0  0  0  0  0  0  0  0  0  0  0  0
  -29.6623  -21.9328   19.4096 C   0  0  0  0  0  0  0  0  0  0  0  0
  -30.0548  -27.3754   18.2993 C   0  0  0  0  0  0  0  0  0  0  0  0
  -27.9102  -20.2630   18.7846 C   0  0  0  0  0  0  0  0  0  0  0  0
  -21.6519  -26.6911   22.2612 C   0  0  0  0  0  0  0  0  0  0  0  0
  -21.8636  -23.5481   23.0354 C   0  0  0  0  0  0  0  0  0  0  0  0
  -23.5121  -20.5812   22.6793 C   0  0  0  0  0  0  0  0  0  0  0  0
  -32.0625  -26.2650   21.9818 C   0  0  0  0  0  0  0  0  0  0  0  0
  -18.5087  -28.1253   26.0189 C   0  0  0  0  0  0  0  0  0  0  0  0
  -21.8035  -25.6208   19.9836 C   0  0  0  0  0  0  0  0  0  0  0  0
  -23.8444  -24.5510   21.8370 C   0  0  0  0  0  0  0  0  0  0  0  0
  -19.7626  -27.2610   25.9146 C   0  0  0  0  0  0  0  0  0  0  0  0
  -34.1848  -23.6025   20.9409 C   0  0  0  0  0  0  0  0  0  0  0  0
  -20.8507  -27.9909   25.1335 C   0  0  0  0  0  0  0  0  0  0  0  0
  -33.2131  -22.4692   20.6072 C   0  0  0  0  0  0  0  0  0  0  0  0
  -33.7081  -24.4202   22.1394 C   0  0  0  0  0  0  0  0  0  0  0  0
  -31.3626  -23.8111   21.6907 C   0  0  0  0  0  0  0  0  0  0  0  0
  -20.3961  -28.2866   23.6992 C   0  0  1  0  0  0  0  0  0  0  0  0
  -21.5146  -25.4221   21.4683 C   0  0  1  0  0  0  0  0  0  0  0  0
  -31.7723  -22.9928   20.4542 C   0  0  2  0  0  0  0  0  0  0  0  0
  -23.4726  -18.1988   23.4667 C   0  0  0  0  0  0  0  0  0  0  0  0
  -28.8807  -28.1061   22.3282 C   0  0  0  0  0  0  0  0  0  0  0  0
  -23.0448  -24.4156   25.7117 C   0  0  0  0  0  0  0  0  0  0  0  0
  -23.8461  -22.0665   26.0403 C   0  0  0  0  0  0  0  0  0  0  0  0
  -21.4028  -22.5348   25.8566 C   0  0  0  0  0  0  0  0  0  0  0  0
  -23.1080  -19.5581   19.9318 C   0  0  0  0  0  0  0  0  0  0  0  0
  -30.4575  -28.6527   20.4046 C   0  0  0  0  0  0  0  0  0  0  0  0
  -27.6581  -26.7984   17.5525 C   0  0  0  0  0  0  0  0  0  1  0  0
  -22.8547  -22.6982   23.7933 C   0  0  1  0  0  0  0  0  0  0  0  0
  -23.0091  -19.1768   22.3983 C   0  0  2  0  0  0  0  0  0  0  0  0
  -30.3014  -28.0023   21.7820 C   0  0  2  0  0  0  0  0  0  0  0  0
  -22.7948  -22.9436   25.3274 C   0  0  0  0  0  0  0  0  0  0  0  0
  -31.2949  -27.2040   17.8984 N   0  0  0  0  0  0  0  0  0  0  0  0
  -31.0292  -20.6531   20.6909 N   0  0  0  0  0  0  0  0  0  0  0  0
  -29.1590  -26.8107   17.4345 N   0  0  0  0  0  0  0  0  0  0  0  0
  -30.7956  -21.8678   20.1655 N   0  0  0  0  0  0  0  0  0  0  0  0
  -22.3986  -24.4332   22.0888 N   0  0  0  0  0  0  0  0  0  0  0  0
  -32.3358  -24.8882   21.9301 N   0  0  0  0  0  0  0  0  0  0  0  0
  -29.2785  -23.0788   18.8082 N   0  0  0  0  0  0  0  0  0  0  0  0
  -27.4930  -18.9321   18.9226 N   0  0  0  0  0  0  0  0  0  0  0  0
  -29.6039  -28.0110   19.4067 N   0  0  0  0  0  0  0  0  0  0  0  0
  -20.4863  -27.0940   22.8844 N   0  0  0  0  0  0  0  0  0  0  0  0
  -22.5948  -21.3180   23.3983 N   0  0  0  0  0  0  0  0  0  0  0  0
  -30.7375  -26.6237   21.7663 N   0  0  0  0  0  0  0  0  0  0  0  0
  -23.5098  -18.7019   21.0774 N   0  3  0  0  0  0  0  0  0  0  0  0
  -27.2315  -21.0494   18.0814 O   0  0  0  0  0  0  0  0  0  0  0  0
  -22.7356  -27.2615   22.3055 O   0  0  0  0  0  0  0  0  0  0  0  0
  -20.6587  -23.4260   23.2696 O   0  0  0  0  0  0  0  0  0  0  0  0
  -24.6106  -20.9832   22.3022 O   0  0  0  0  0  0  0  0  0  0  0  0
  -32.9356  -27.1123   22.1981 O   0  0  0  0  0  0  0  0  0  0  0  0
  -29.5680  -14.5265   21.6281 O   0  0  0  0  0  0  0  0  0  0  0  0
  -27.3136  -26.1415   18.7756 O   0  0  0  0  0  0  0  0  0  1  0  0
  -28.2623  -10.9538   17.6362 F   0  0  0  0  0  0  0  0  0  0  0  0
  -31.2707  -12.4502   20.9702 F   0  0  0  0  0  0  0  0  0  0  0  0
  1  2  1  0  0  0  0
  1  5  2  0  0  0  0
  2  6  2  0  0  0  0
  3  8  2  0  0  0  0
  3 17  1  0  0  0  0
  4  9  1  0  0  0  0
  4 17  2  0  0  0  0
  5 19  1  0  0  0  0
  6 21  1  0  0  0  0
  7 10  2  0  0  0  0
  7 20  1  0  0  0  0
  8 23  1  0  0  0  0
  9 23  2  0  0  0  0
 10 24  1  0  0  0  0
 11 12  2  0  0  0  0
 11 25  1  0  0  0  0
 12 26  1  0  0  0  0
 13 22  1  0  0  0  0
 13 24  2  0  0  0  0
 14 26  2  0  0  0  0
 14 27  1  0  0  0  0
 15 16  2  0  0  0  0
 15 60  1  0  0  0  0
 16 62  1  0  0  0  0
 17 28  1  0  0  0  0
 18 28  1  0  0  0  0
 18 29  2  0  0  0  0
 18 31  1  0  0  0  0
 19 21  2  0  0  0  0
 19 36  1  0  0  0  0
 20 22  2  0  0  0  0
 20 37  1  0  0  0  0
 21 45  1  0  0  0  0
 22 38  1  0  0  0  0
 23 78  1  0  0  0  0
 24 79  1  0  0  0  0
 25 27  2  0  0  0  0
 25 78  1  0  0  0  0
 26 80  1  0  0  0  0
 27 81  1  0  0  0  0
 28 61  2  0  0  0  0
 29 63  1  0  0  0  0
 29 66  1  0  0  0  0
 30 60  2  0  0  0  0
 30 62  1  0  0  0  0
 30 68  1  0  0  0  0
 31 67  1  0  0  0  0
 31 73  2  0  0  0  0
 32 46  1  0  0  0  0
 32 69  1  0  0  0  0
 32 74  2  0  0  0  0
 33 56  1  0  0  0  0
 33 64  1  0  0  0  0
 33 75  2  0  0  0  0
 34 57  1  0  0  0  0
 34 70  1  0  0  0  0
 34 76  2  0  0  0  0
 35 65  1  0  0  0  0
 35 71  1  0  0  0  0
 35 77  2  0  0  0  0
 36 39  1  0  0  0  0
 37 46  1  0  0  0  0
 38 64  1  0  0  0  0
 39 41  1  0  0  0  0
 40 42  1  0  0  0  0
 40 43  1  0  0  0  0
 41 45  1  0  0  0  0
 42 47  1  0  0  0  0
 43 65  1  0  0  0  0
 44 47  1  0  0  0  0
 44 65  1  0  0  0  0
 45 69  1  0  0  0  0
 46 64  1  0  0  0  0
 47 63  1  0  0  0  0
 48 57  1  0  0  0  0
 49 58  1  0  0  0  0
 50 59  1  0  0  0  0
 51 59  1  0  0  0  0
 52 59  1  0  0  0  0
 53 72  1  0  0  0  0
 54 58  1  0  0  0  0
 54 68  1  0  0  0  0
 55 62  1  0  0  0  0
 55 79  1  0  0  0  0
 56 59  1  0  0  0  0
 56 70  1  0  0  0  0
 57 72  1  0  0  0  0
 58 71  1  0  0  0  0
 61 63  1  0  0  0  0
M  CHG  1  72   1
M  ISO  4  35 100  55 101  71 100  79 101
M  END
> <Batch ID>
0189

> <Smiles>
CNC(C)C(=O)NC(C(=O)N1Cc2cc([101O:1][101CH2:1]n3ccnc3NCC(C)[100NH:0][100C:0](=O)N3CCCC(n4nc(-c5ccc(Oc6ccc(F)cc6F)cc5)c(C(N)=O)c4N)C3)ccc2CC1C(=O)NC1CCCc2ccccc21)C(C)(C)C

> <Shape>
0.206

> <Color>
0.055

> <Negative vol penalty>
0.000

$$$$

  -OEChem-04052323223D

 83 92  0     1  0  0  0  0  0999 V2000
  -24.0542  -10.7463   20.2504 C   0  0  0  0  0  0  0  0  0  0  0  0
  -23.6799  -12.0688   20.4662 C   0  0  0  0  0  0  0  0  0  0  0  0
  -26.0233  -28.7300   22.0372 C   0  0  0  0  0  0  0  0  0  0  0  0
  -24.8452  -28.2870   19.9750 C   0  0  0  0  0  0  0  0  0  0  0  0
  -25.3625  -10.3418   20.5123 C   0  0  0  0  0  0  0  0  0  0  0  0
  -24.6135  -12.9871   20.9451 C   0  0  0  0  0  0  0  0  0  0  0  0
  -24.4518  -17.3968   18.4604 C   0  0  0  0  0  0  0  0  0  0  0  0
  -27.1921  -28.2098   21.4814 C   0  0  0  0  0  0  0  0  0  0  0  0
  -26.0140  -27.7667   19.4191 C   0  0  0  0  0  0  0  0  0  0  0  0
  -23.4244  -18.2783   18.7939 C   0  0  0  0  0  0  0  0  0  0  0  0
  -29.6107  -29.2378   19.3539 C   0  0  0  0  0  0  0  0  0  0  0  0
  -30.7935  -29.9516   19.5462 C   0  0  0  0  0  0  0  0  0  0  0  0
  -24.9565  -19.5335   20.1709 C   0  0  0  0  0  0  0  0  0  0  0  0
  -31.7600  -28.0462   20.6742 C   0  0  0  0  0  0  0  0  0  0  0  0
  -24.8499  -28.7686   21.2841 C   0  0  0  0  0  0  0  0  0  0  0  0
  -23.4411  -30.6090   22.3497 C   0  0  0  0  0  0  0  0  0  0  0  0
  -26.3151  -11.2579   20.9854 C   0  0  0  0  0  0  0  0  0  0  0  0
  -25.7389  -17.5710   18.9892 C   0  0  0  0  0  0  0  0  0  0  0  0
  -25.9354  -12.5941   21.2148 C   0  0  0  0  0  0  0  0  0  0  0  0
  -25.9991  -18.6543   19.8406 C   0  0  0  0  0  0  0  0  0  0  0  0
  -27.1874  -27.7281   20.1723 C   0  0  0  0  0  0  0  0  0  0  0  0
  -23.6760  -19.3451   19.6516 C   0  0  0  0  0  0  0  0  0  0  0  0
  -29.5024  -27.9282   19.8219 C   0  0  0  0  0  0  0  0  0  0  0  0
  -31.8682  -29.3558   20.2063 C   0  0  0  0  0  0  0  0  0  0  0  0
  -30.5771  -27.3324   20.4820 C   0  0  0  0  0  0  0  0  0  0  0  0
  -23.6421  -29.3054   21.8579 C   0  0  0  0  0  0  0  0  0  0  0  0
  -22.1374  -30.6156   22.7820 C   0  0  0  0  0  0  0  0  0  0  0  0
  -24.3513  -31.7152   22.4103 C   0  0  0  0  0  0  0  0  0  0  0  0
  -27.6488  -15.8482   20.8567 C   0  0  0  0  0  0  0  0  0  0  0  0
  -29.7811  -18.1981   20.1830 C   0  0  0  0  0  0  0  0  0  0  0  0
  -29.7323  -21.7939   19.8919 C   0  0  0  0  0  0  0  0  0  0  0  0
  -18.4084  -26.5046   24.6841 C   0  0  0  0  0  0  0  0  0  0  0  0
  -27.7049  -10.7630   21.2990 C   0  0  0  0  0  0  0  0  0  0  0  0
  -26.8427  -16.6269   18.5985 C   0  0  0  0  0  0  0  0  0  0  0  0
  -27.3684  -18.8972   20.4190 C   0  0  0  0  0  0  0  0  0  0  0  0
  -28.7309  -11.8833   21.4489 C   0  0  0  0  0  0  0  0  0  0  0  0
  -18.5134  -24.5797   27.5622 C   0  0  0  0  0  0  0  0  0  0  0  0
  -17.8993  -28.5689   21.9600 C   0  0  0  0  0  0  0  0  0  0  0  0
  -28.1792  -12.9979   22.3321 C   0  0  0  0  0  0  0  0  0  0  0  0
  -19.2410  -23.3120   27.1203 C   0  0  0  0  0  0  0  0  0  0  0  0
  -19.2903  -29.1286   21.6630 C   0  0  0  0  0  0  0  0  0  0  0  0
  -19.1518  -25.8177   26.9434 C   0  0  0  0  0  0  0  0  0  0  0  0
  -17.9718  -27.0890   22.3180 C   0  0  0  0  0  0  0  0  0  0  0  0
  -19.9416  -24.5104   24.9984 C   0  0  0  0  0  0  0  0  0  0  0  0
  -20.2739  -27.3438   23.1857 C   0  0  0  0  0  0  0  0  0  0  0  0
  -19.9925  -20.1416   24.3199 C   0  0  0  0  0  0  0  0  0  0  0  0
  -26.9259  -13.6255   21.7100 C   0  0  1  0  0  0  0  0  0  0  0  0
  -27.9909  -16.6018   19.6027 C   0  0  1  0  0  0  0  0  0  0  0  0
  -19.3339  -23.2300   25.5919 C   0  0  1  0  0  0  0  0  0  0  0  0
  -20.2603  -28.8428   22.8233 C   0  0  1  0  0  0  0  0  0  0  0  0
  -20.0584  -21.5568   23.7309 C   0  0  1  0  0  0  0  0  0  0  0  0
  -20.1724  -22.0333   25.1917 C   0  0  2  0  0  0  0  0  0  0  0  0
  -31.1858  -23.3424   18.5551 C   0  0  0  0  0  0  0  0  0  0  0  0
  -31.4236  -18.4015   22.7464 C   0  0  0  0  0  0  0  0  0  0  0  0
  -31.7641  -20.8322   22.2527 C   0  0  0  0  0  0  0  0  0  0  0  0
  -32.6325  -19.1071   20.6740 C   0  0  0  0  0  0  0  0  0  0  0  0
  -27.3951  -23.0166   18.5498 C   0  0  0  0  0  0  0  0  0  0  0  0
  -21.3313  -21.1251   21.7440 C   0  0  0  0  0  0  0  0  0  0  0  0
  -22.7425  -20.8250   21.2623 C   0  0  0  0  0  0  0  0  0  1  0  0
  -30.1425  -19.5246   20.8064 C   0  0  1  0  0  0  0  0  0  0  0  0
  -29.8577  -22.6040   18.6142 C   0  0  2  0  0  0  0  0  0  0  0  0
  -31.4644  -19.4556   21.6220 C   0  0  0  0  0  0  0  0  0  0  0  0
  -22.5534  -28.5394   21.9673 N   0  0  0  0  0  0  0  0  0  0  0  0
  -21.6557  -29.3642   22.5329 N   0  0  0  0  0  0  0  0  0  0  0  0
  -28.4130  -17.9429   20.0121 N   0  0  0  0  0  0  0  0  0  0  0  0
  -19.2291  -25.6994   25.4876 N   0  0  0  0  0  0  0  0  0  0  0  0
  -18.9050  -26.8585   23.4206 N   0  0  0  0  0  0  0  0  0  0  0  0
  -21.3676  -31.5697   23.3473 N   0  0  0  0  0  0  0  0  0  0  0  0
  -24.4066  -32.5953   21.3211 N   0  0  0  0  0  0  0  0  0  0  0  0
  -27.2912  -14.5309   20.6417 N   0  0  0  0  0  0  0  0  0  0  0  0
  -30.1622  -20.4954   19.7176 N   0  0  0  0  0  0  0  0  0  0  0  0
  -21.3397  -21.7403   23.0639 N   0  0  0  0  0  0  0  0  0  0  0  0
  -19.5453  -20.7495   25.5896 N   0  3  0  0  0  0  0  0  0  0  0  0
  -28.7584  -23.6064   18.5264 N   0  3  0  0  0  0  0  0  0  0  0  0
  -25.1054  -31.9077   23.3941 O   0  0  0  0  0  0  0  0  0  0  0  0
  -27.7065  -16.4192   21.9395 O   0  0  0  0  0  0  0  0  0  0  0  0
  -30.6797  -17.4201   19.8531 O   0  0  0  0  0  0  0  0  0  0  0  0
  -29.3001  -22.2668   20.9407 O   0  0  0  0  0  0  0  0  0  0  0  0
  -17.2973  -26.8863   25.0725 O   0  0  0  0  0  0  0  0  0  0  0  0
  -28.3277  -27.2206   19.6295 O   0  0  0  0  0  0  0  0  0  0  0  0
  -22.6676  -20.2128   19.9816 O   0  0  0  0  0  0  0  0  0  1  0  0
  -33.0046  -30.0408   20.3895 F   0  0  0  0  0  0  0  0  0  0  0  0
  -30.4794  -26.0742   20.9327 F   0  0  0  0  0  0  0  0  0  0  0  0
  1  2  1  0  0  0  0
  1  5  2  0  0  0  0
  2  6  2  0  0  0  0
  3  8  2  0  0  0  0
  3 15  1  0  0  0  0
  4  9  1  0  0  0  0
  4 15  2  0  0  0  0
  5 17  1  0  0  0  0
  6 19  1  0  0  0  0
  7 10  2  0  0  0  0
  7 18  1  0  0  0  0
  8 21  1  0  0  0  0
  9 21  2  0  0  0  0
 10 22  1  0  0  0  0
 11 12  2  0  0  0  0
 11 23  1  0  0  0  0
 12 24  1  0  0  0  0
 13 20  1  0  0  0  0
 13 22  2  0  0  0  0
 14 24  2  0  0  0  0
 14 25  1  0  0  0  0
 15 26  1  0  0  0  0
 16 26  1  0  0  0  0
 16 27  2  0  0  0  0
 16 28  1  0  0  0  0
 17 19  2  0  0  0  0
 17 33  1  0  0  0  0
 18 20  2  0  0  0  0
 18 34  1  0  0  0  0
 19 47  1  0  0  0  0
 20 35  1  0  0  0  0
 21 80  1  0  0  0  0
 22 81  1  0  0  0  0
 23 25  2  0  0  0  0
 23 80  1  0  0  0  0
 24 82  1  0  0  0  0
 25 83  1  0  0  0  0
 26 63  2  0  0  0  0
 27 64  1  0  0  0  0
 27 68  1  0  0  0  0
 28 69  1  0  0  0  0
 28 75  2  0  0  0  0
 29 48  1  0  0  0  0
 29 70  1  0  0  0  0
 29 76  2  0  0  0  0
 30 60  1  0  0  0  0
 30 65  1  0  0  0  0
 30 77  2  0  0  0  0
 31 61  1  0  0  0  0
 31 71  1  0  0  0  0
 31 78  2  0  0  0  0
 32 66  1  0  0  0  0
 32 67  1  0  0  0  0
 32 79  2  0  0  0  0
 33 36  1  0  0  0  0
 34 48  1  0  0  0  0
 35 65  1  0  0  0  0
 36 39  1  0  0  0  0
 37 40  1  0  0  0  0
 37 42  1  0  0  0  0
 38 41  1  0  0  0  0
 38 43  1  0  0  0  0
 39 47  1  0  0  0  0
 40 49  1  0  0  0  0
 41 50  1  0  0  0  0
 42 66  1  0  0  0  0
 43 67  1  0  0  0  0
 44 49  1  0  0  0  0
 44 66  1  0  0  0  0
 45 50  1  0  0  0  0
 45 67  1  0  0  0  0
 46 51  1  0  0  0  0
 46 73  1  0  0  0  0
 47 70  1  0  0  0  0
 48 65  1  0  0  0  0
 49 52  1  0  0  0  0
 50 64  1  0  0  0  0
 51 52  1  0  0  0  0
 51 72  1  0  0  0  0
 52 73  1  0  0  0  0
 53 61  1  0  0  0  0
 54 62  1  0  0  0  0
 55 62  1  0  0  0  0
 56 62  1  0  0  0  0
 57 74  1  0  0  0  0
 58 59  1  0  0  0  0
 58 72  1  0  0  0  0
 59 81  1  0  0  0  0
 60 62  1  0  0  0  0
 60 71  1  0  0  0  0
 61 74  1  0  0  0  0
 63 64  1  0  0  0  0
M  CHG  2  73   1  74   1
M  ISO  4  32 100  59 101  66 100  81 101
M  END
> <Batch ID>
0189

> <Smiles>
CNC(C)C(=O)NC(C(=O)N1Cc2cc([101O:1][101CH2:1]CNC3CNC3C3CCC[100N:0]([100C:0](=O)N4CCCC(n5nc(-c6ccc(Oc7ccc(F)cc7F)cc6)c(C(N)=O)c5N)C4)C3)ccc2CC1C(=O)NC1CCCc2ccccc21)C(C)(C)C

> <Shape>
0.245

> <Color>
0.066

> <Negative vol penalty>
0.000

$$$$

  -OEChem-04052323223D

 83 92  0     1  0  0  0  0  0999 V2000
  -32.0867  -24.3285   18.0418 C   0  0  0  0  0  0  0  0  0  0  0  0
  -30.7384  -24.0907   18.2888 C   0  0  0  0  0  0  0  0  0  0  0  0
  -24.0095   -9.7582   21.9684 C   0  0  0  0  0  0  0  0  0  0  0  0
  -22.2733  -10.3443   20.3939 C   0  0  0  0  0  0  0  0  0  0  0  0
  -32.7992  -25.2068   18.8572 C   0  0  0  0  0  0  0  0  0  0  0  0
  -30.1022  -24.7302   19.3521 C   0  0  0  0  0  0  0  0  0  0  0  0
  -25.5679  -26.5857   18.0706 C   0  0  0  0  0  0  0  0  0  0  0  0
  -23.4992   -8.4626   22.0490 C   0  0  0  0  0  0  0  0  0  0  0  0
  -21.7630   -9.0487   20.4744 C   0  0  0  0  0  0  0  0  0  0  0  0
  -24.5095  -25.6817   17.9904 C   0  0  0  0  0  0  0  0  0  0  0  0
  -20.9417   -6.8851   23.5966 C   0  0  0  0  0  0  0  0  0  0  0  0
  -20.8151   -6.3168   24.8641 C   0  0  0  0  0  0  0  0  0  0  0  0
  -23.7622  -26.3718   20.1778 C   0  0  0  0  0  0  0  0  0  0  0  0
  -22.3103   -4.5338   24.2141 C   0  0  0  0  0  0  0  0  0  0  0  0
  -23.3965  -10.6991   21.1409 C   0  0  0  0  0  0  0  0  0  0  0  0
  -24.8974  -12.5139   20.1602 C   0  0  0  0  0  0  0  0  0  0  0  0
  -32.1690  -25.8648   19.9251 C   0  0  0  0  0  0  0  0  0  0  0  0
  -25.7379  -27.3831   19.2115 C   0  0  0  0  0  0  0  0  0  0  0  0
  -30.8073  -25.6171   20.1834 C   0  0  0  0  0  0  0  0  0  0  0  0
  -24.8221  -27.2870   20.2689 C   0  0  0  0  0  0  0  0  0  0  0  0
  -22.3759   -8.1078   21.3019 C   0  0  0  0  0  0  0  0  0  0  0  0
  -23.6081  -25.5726   19.0453 C   0  0  0  0  0  0  0  0  0  0  0  0
  -21.7525   -6.2777   22.6377 C   0  0  0  0  0  0  0  0  0  0  0  0
  -21.4994   -5.1412   25.1729 C   0  0  0  0  0  0  0  0  0  0  0  0
  -22.4368   -5.1021   22.9465 C   0  0  0  0  0  0  0  0  0  0  0  0
  -23.9229  -12.0378   21.0578 C   0  0  0  0  0  0  0  0  0  0  0  0
  -25.0470  -13.8395   20.4873 C   0  0  0  0  0  0  0  0  0  0  0  0
  -20.1291  -21.3143   18.2172 C   0  0  0  0  0  0  0  0  0  0  0  0
  -19.9467  -23.3517   17.8011 C   0  0  0  0  0  0  0  0  0  0  0  0
  -25.6040  -11.8200   19.1235 C   0  0  0  0  0  0  0  0  0  0  0  0
  -28.0083  -27.6912   21.4147 C   0  0  0  0  0  0  0  0  0  0  0  0
  -26.1532  -30.1544   22.4216 C   0  0  0  0  0  0  0  0  0  0  0  0
  -23.0592  -31.5891   22.5453 C   0  0  0  0  0  0  0  0  0  0  0  0
  -21.4327  -17.8237   23.1167 C   0  0  0  0  0  0  0  0  0  0  0  0
  -32.9922  -26.7691   20.8079 C   0  0  0  0  0  0  0  0  0  0  0  0
  -26.8693  -28.3724   19.2712 C   0  0  0  0  0  0  0  0  0  0  0  0
  -24.9487  -28.1349   21.5072 C   0  0  0  0  0  0  0  0  0  0  0  0
  -32.1518  -27.6936   21.6850 C   0  0  0  0  0  0  0  0  0  0  0  0
  -24.6836  -16.8465   24.1908 C   0  0  0  0  0  0  0  0  0  0  0  0
  -31.0242  -26.9147   22.3547 C   0  0  0  0  0  0  0  0  0  0  0  0
  -24.9452  -15.5463   23.4287 C   0  0  0  0  0  0  0  0  0  0  0  0
  -23.2195  -16.9723   24.6063 C   0  0  0  0  0  0  0  0  0  0  0  0
  -22.5101  -15.5222   22.7442 C   0  0  0  0  0  0  0  0  0  0  0  0
  -19.0825  -18.2451   20.1381 C   0  0  0  0  0  0  0  0  0  0  0  0
  -20.2586  -19.8035   20.8757 C   0  0  0  0  0  0  0  0  0  0  0  0
  -30.0758  -26.3107   21.3120 C   0  0  1  0  0  0  0  0  0  0  0  0
  -27.2435  -28.7669   20.6966 C   0  0  1  0  0  0  0  0  0  0  0  0
  -23.9613  -15.3763   22.2555 C   0  0  2  0  0  0  0  0  0  0  0  0
  -19.6645  -18.5440   21.5312 C   0  0  0  0  0  0  0  0  0  0  0  0
  -19.4883  -24.7211   17.5061 C   0  0  0  0  0  0  0  0  0  0  0  0
  -21.8472  -33.5813   23.4723 C   0  0  0  0  0  0  0  0  0  0  0  0
  -26.1835  -28.8799   25.1938 C   0  0  0  0  0  0  0  0  0  0  0  0
  -24.2415  -30.3357   25.8079 C   0  0  0  0  0  0  0  0  0  0  0  0
  -26.4255  -31.3690   25.1873 C   0  0  0  0  0  0  0  0  0  0  0  0
  -22.3077  -32.5348   19.8434 C   0  0  0  0  0  0  0  0  0  0  0  0
  -19.7525  -19.9208   18.4821 C   0  0  0  0  0  0  0  0  0  0  0  0
  -22.4675  -23.9031   17.7805 C   0  0  0  0  0  0  0  0  0  1  0  0
  -25.0041  -30.3012   23.3896 C   0  0  1  0  0  0  0  0  0  0  0  0
  -22.5963  -33.0100   22.2785 C   0  0  2  0  0  0  0  0  0  0  0  0
  -25.4621  -30.2040   24.8723 C   0  0  0  0  0  0  0  0  0  0  0  0
  -23.4846  -12.9840   21.8925 N   0  0  0  0  0  0  0  0  0  0  0  0
  -19.1998  -22.2885   17.9889 N   0  0  0  0  0  0  0  0  0  0  0  0
  -21.4039  -21.7079   18.1825 N   0  0  0  0  0  0  0  0  0  0  0  0
  -24.1869  -14.0678   21.5208 N   0  0  0  0  0  0  0  0  0  0  0  0
  -21.2594  -23.0147   17.9147 N   0  0  0  0  0  0  0  0  0  0  0  0
  -26.0751  -29.0828   21.5208 N   0  0  0  0  0  0  0  0  0  0  0  0
  -22.3392  -16.8030   23.4478 N   0  0  0  0  0  0  0  0  0  0  0  0
  -25.8292  -14.8203   19.9888 N   0  0  0  0  0  0  0  0  0  0  0  0
  -25.3289  -10.4605   18.9219 N   0  0  0  0  0  0  0  0  0  0  0  0
  -29.1856  -27.3257   20.7905 N   0  0  0  0  0  0  0  0  0  0  0  0
  -24.3419  -31.5560   23.0499 N   0  0  0  0  0  0  0  0  0  0  0  0
  -20.6401  -17.5855   22.0006 N   0  0  0  0  0  0  0  0  0  0  0  0
  -19.2062  -19.6824   19.8570 N   0  3  0  0  0  0  0  0  0  0  0  0
  -21.6918  -33.0465   21.0947 N   0  3  0  0  0  0  0  0  0  0  0  0
  -26.4660  -12.3846   18.4081 O   0  0  0  0  0  0  0  0  0  0  0  0
  -27.5639  -27.2283   22.4587 O   0  0  0  0  0  0  0  0  0  0  0  0
  -27.0823  -30.9650   22.4585 O   0  0  0  0  0  0  0  0  0  0  0  0
  -22.3520  -30.6069   22.3312 O   0  0  0  0  0  0  0  0  0  0  0  0
  -21.3407  -18.8720   23.7643 O   0  0  0  0  0  0  0  0  0  0  0  0
  -21.8778   -6.8435   21.3800 O   0  0  0  0  0  0  0  0  0  0  0  0
  -22.5746  -24.6906   18.9699 O   0  0  0  0  0  0  0  0  0  1  0  0
  -21.3789   -4.5965   26.3906 F   0  0  0  0  0  0  0  0  0  0  0  0
  -23.2182   -4.5147   22.0299 F   0  0  0  0  0  0  0  0  0  0  0  0
  1  2  1  0  0  0  0
  1  5  2  0  0  0  0
  2  6  2  0  0  0  0
  3  8  2  0  0  0  0
  3 15  1  0  0  0  0
  4  9  1  0  0  0  0
  4 15  2  0  0  0  0
  5 17  1  0  0  0  0
  6 19  1  0  0  0  0
  7 10  2  0  0  0  0
  7 18  1  0  0  0  0
  8 21  1  0  0  0  0
  9 21  2  0  0  0  0
 10 22  1  0  0  0  0
 11 12  2  0  0  0  0
 11 23  1  0  0  0  0
 12 24  1  0  0  0  0
 13 20  1  0  0  0  0
 13 22  2  0  0  0  0
 14 24  2  0  0  0  0
 14 25  1  0  0  0  0
 15 26  1  0  0  0  0
 16 26  1  0  0  0  0
 16 27  2  0  0  0  0
 16 30  1  0  0  0  0
 17 19  2  0  0  0  0
 17 35  1  0  0  0  0
 18 20  2  0  0  0  0
 18 36  1  0  0  0  0
 19 46  1  0  0  0  0
 20 37  1  0  0  0  0
 21 80  1  0  0  0  0
 22 81  1  0  0  0  0
 23 25  2  0  0  0  0
 23 80  1  0  0  0  0
 24 82  1  0  0  0  0
 25 83  1  0  0  0  0
 26 61  2  0  0  0  0
 27 64  1  0  0  0  0
 27 68  1  0  0  0  0
 28 56  1  0  0  0  0
 28 62  1  0  0  0  0
 28 63  2  0  0  0  0
 29 50  1  0  0  0  0
 29 62  2  0  0  0  0
 29 65  1  0  0  0  0
 30 69  1  0  0  0  0
 30 75  2  0  0  0  0
 31 47  1  0  0  0  0
 31 70  1  0  0  0  0
 31 76  2  0  0  0  0
 32 58  1  0  0  0  0
 32 66  1  0  0  0  0
 32 77  2  0  0  0  0
 33 59  1  0  0  0  0
 33 71  1  0  0  0  0
 33 78  2  0  0  0  0
 34 67  1  0  0  0  0
 34 72  1  0  0  0  0
 34 79  2  0  0  0  0
 35 38  1  0  0  0  0
 36 47  1  0  0  0  0
 37 66  1  0  0  0  0
 38 40  1  0  0  0  0
 39 41  1  0  0  0  0
 39 42  1  0  0  0  0
 40 46  1  0  0  0  0
 41 48  1  0  0  0  0
 42 67  1  0  0  0  0
 43 48  1  0  0  0  0
 43 67  1  0  0  0  0
 44 49  1  0  0  0  0
 44 73  1  0  0  0  0
 45 49  1  0  0  0  0
 45 73  1  0  0  0  0
 46 70  1  0  0  0  0
 47 66  1  0  0  0  0
 48 64  1  0  0  0  0
 49 72  1  0  0  0  0
 51 59  1  0  0  0  0
 52 60  1  0  0  0  0
 53 60  1  0  0  0  0
 54 60  1  0  0  0  0
 55 74  1  0  0  0  0
 56 73  1  0  0  0  0
 57 65  1  0  0  0  0
 57 81  1  0  0  0  0
 58 60  1  0  0  0  0
 58 71  1  0  0  0  0
 59 74  1  0  0  0  0
 61 64  1  0  0  0  0
 63 65  1  0  0  0  0
M  CHG  2  73   1  74   1
M  ISO  4  34 100  57 101  72 100  81 101
M  END
> <Batch ID>
0189

> <Smiles>
CNC(C)C(=O)NC(C(=O)N1Cc2cc([101O:1][101CH2:1]n3nc(CN4CC([100NH:0][100C:0](=O)N5CCCC(n6nc(-c7ccc(Oc8ccc(F)cc8F)cc7)c(C(N)=O)c6N)C5)C4)nc3C)ccc2CC1C(=O)NC1CCCc2ccccc21)C(C)(C)C

> <Shape>
0.242

> <Color>
0.094

> <Negative vol penalty>
0.000

$$$$

  -OEChem-04052323223D

 85 94  0     1  0  0  0  0  0999 V2000
  -27.0012  -37.7462   19.0379 C   0  0  0  0  0  0  0  0  0  0  0  0
  -27.3364  -36.5184   18.4760 C   0  0  0  0  0  0  0  0  0  0  0  0
  -23.5173  -10.4773   21.4746 C   0  0  0  0  0  0  0  0  0  0  0  0
  -24.9575   -8.6103   22.0013 C   0  0  0  0  0  0  0  0  0  0  0  0
  -26.6693  -37.8254   20.3898 C   0  0  0  0  0  0  0  0  0  0  0  0
  -27.3411  -35.3694   19.2660 C   0  0  0  0  0  0  0  0  0  0  0  0
  -26.0517  -28.3327   18.8928 C   0  0  0  0  0  0  0  0  0  0  0  0
  -22.4334   -9.6075   21.3553 C   0  0  0  0  0  0  0  0  0  0  0  0
  -23.8735   -7.7405   21.8821 C   0  0  0  0  0  0  0  0  0  0  0  0
  -26.6516  -27.1104   19.1925 C   0  0  0  0  0  0  0  0  0  0  0  0
  -21.4122   -5.0713   22.0706 C   0  0  0  0  0  0  0  0  0  0  0  0
  -21.2524   -4.0946   23.0535 C   0  0  0  0  0  0  0  0  0  0  0  0
  -25.9842  -27.3550   21.4977 C   0  0  0  0  0  0  0  0  0  0  0  0
  -29.9864  -22.1621   21.4029 C   0  0  0  0  0  0  0  0  0  0  0  0
  -21.0597   -5.8184   24.7353 C   0  0  0  0  0  0  0  0  0  0  0  0
  -24.7794   -9.9786   21.7976 C   0  0  0  0  0  0  0  0  0  0  0  0
  -26.3341  -11.5396   23.0837 C   0  0  0  0  0  0  0  0  0  0  0  0
  -26.6605  -36.6752   21.1945 C   0  0  0  0  0  0  0  0  0  0  0  0
  -25.4219  -29.0818   19.8971 C   0  0  0  0  0  0  0  0  0  0  0  0
  -27.0101  -35.4336   20.6302 C   0  0  0  0  0  0  0  0  0  0  0  0
  -25.3748  -28.5853   21.2076 C   0  0  0  0  0  0  0  0  0  0  0  0
  -29.5330  -23.3977   20.9755 C   0  0  0  0  0  0  0  0  0  0  0  0
  -22.6115   -8.2392   21.5591 C   0  0  0  0  0  0  0  0  0  0  0  0
  -26.6204  -26.6227   20.4957 C   0  0  0  0  0  0  0  0  0  0  0  0
  -21.3959   -6.4217   22.4201 C   0  0  0  0  0  0  0  0  0  0  0  0
  -21.0761   -4.4681   24.3858 C   0  0  0  0  0  0  0  0  0  0  0  0
  -21.2196   -6.7952   23.7524 C   0  0  0  0  0  0  0  0  0  0  0  0
  -25.8996  -10.8765   21.9203 C   0  0  0  0  0  0  0  0  0  0  0  0
  -28.3820  -23.4355   20.2143 C   0  0  0  0  0  0  0  0  0  0  0  0
  -29.2587  -21.0463   21.0412 C   0  0  0  0  0  0  0  0  0  0  0  0
  -27.4263  -12.2663   22.6770 C   0  0  0  0  0  0  0  0  0  0  0  0
  -25.7983  -11.5019   24.4130 C   0  0  0  0  0  0  0  0  0  0  0  0
  -25.8802  -31.9575   21.1716 C   0  0  0  0  0  0  0  0  0  0  0  0
  -23.1254  -31.2717   22.7410 C   0  0  0  0  0  0  0  0  0  0  0  0
  -20.9773  -28.8968   23.9210 C   0  0  0  0  0  0  0  0  0  0  0  0
  -29.6130  -15.7637   18.8217 C   0  0  0  0  0  0  0  0  0  0  0  0
  -26.3409  -36.8181   22.6615 C   0  0  0  0  0  0  0  0  0  0  0  0
  -24.7562  -30.3857   19.5522 C   0  0  0  0  0  0  0  0  0  0  0  0
  -24.6938  -29.3413   22.3181 C   0  0  0  0  0  0  0  0  0  0  0  0
  -26.0059  -35.4941   23.3436 C   0  0  0  0  0  0  0  0  0  0  0  0
  -30.0552  -12.1494   18.3595 C   0  0  0  0  0  0  0  0  0  0  0  0
  -27.0222  -34.4235   22.9594 C   0  0  0  0  0  0  0  0  0  0  0  0
  -29.0124  -11.5565   19.3081 C   0  0  0  0  0  0  0  0  0  0  0  0
  -29.5103  -17.4382   22.0931 C   0  0  0  0  0  0  0  0  0  0  0  0
  -29.6255  -13.5101   17.8160 C   0  0  0  0  0  0  0  0  0  0  0  0
  -29.1235  -16.1937   21.3009 C   0  0  0  0  0  0  0  0  0  0  0  0
  -28.2070  -13.8963   19.7938 C   0  0  0  0  0  0  0  0  0  0  0  0
  -29.4334  -18.0365   19.7931 C   0  0  0  0  0  0  0  0  0  0  0  0
  -27.0024  -34.1608   21.4488 C   0  0  1  0  0  0  0  0  0  0  0  0
  -24.5904  -31.3086   20.7556 C   0  0  1  0  0  0  0  0  0  0  0  0
  -28.6344  -12.5591   20.4144 C   0  0  1  0  0  0  0  0  0  0  0  0
  -29.0553  -18.5628   21.1694 C   0  0  2  0  0  0  0  0  0  0  0  0
  -30.0343  -25.0609   22.7834 C   0  0  0  0  0  0  0  0  0  0  0  0
  -18.8309  -28.6408   25.1957 C   0  0  0  0  0  0  0  0  0  0  0  0
  -24.5971  -31.8968   25.3397 C   0  0  0  0  0  0  0  0  0  0  0  0
  -22.7587  -30.7338   26.5791 C   0  0  0  0  0  0  0  0  0  0  0  0
  -22.2566  -32.7711   25.2301 C   0  0  0  0  0  0  0  0  0  0  0  0
  -19.6480  -27.5570   21.6413 C   0  0  0  0  0  0  0  0  0  0  0  0
  -30.2816  -24.6333   21.3383 C   0  0  0  0  0  0  0  0  0  0  0  0
  -27.8341  -24.7311   19.7181 C   0  0  0  0  0  0  0  0  0  1  0  0
  -22.7780  -30.5986   24.0468 C   0  0  1  0  0  0  0  0  0  0  0  0
  -19.4684  -28.7643   23.8205 C   0  0  2  0  0  0  0  0  0  0  0  0
  -23.1122  -31.4865   25.2786 C   0  0  0  0  0  0  0  0  0  0  0  0
  -26.6542  -11.1572   20.8546 N   0  0  0  0  0  0  0  0  0  0  0  0
  -27.6899  -22.3273   19.8752 N   0  0  0  0  0  0  0  0  0  0  0  0
  -28.1354  -21.1130   20.2957 N   0  0  0  0  0  0  0  0  0  0  0  0
  -27.5737  -12.0048   21.3466 N   0  0  0  0  0  0  0  0  0  0  0  0
  -24.0629  -30.6142   21.9319 N   0  0  0  0  0  0  0  0  0  0  0  0
  -29.2508  -14.4147   18.9031 N   0  0  0  0  0  0  0  0  0  0  0  0
  -29.2866  -16.5868   19.8988 N   0  0  0  0  0  0  0  0  0  0  0  0
  -28.2654  -13.0972   23.3313 N   0  0  0  0  0  0  0  0  0  0  0  0
  -24.6726  -10.7035   24.6573 N   0  0  0  0  0  0  0  0  0  0  0  0
  -29.7136  -19.8067   21.4700 N   0  0  0  0  0  0  0  0  0  0  0  0
  -25.8667  -33.3370   21.0939 N   0  0  0  0  0  0  0  0  0  0  0  0
  -21.3733  -30.2173   23.9485 N   0  0  0  0  0  0  0  0  0  0  0  0
  -19.1063  -27.5575   23.0246 N   0  3  0  0  0  0  0  0  0  0  0  0
  -26.2929  -12.1697   25.3527 O   0  0  0  0  0  0  0  0  0  0  0  0
  -26.8178  -31.2583   21.5374 O   0  0  0  0  0  0  0  0  0  0  0  0
  -22.5795  -32.3380   22.4464 O   0  0  0  0  0  0  0  0  0  0  0  0
  -21.7292  -27.9261   23.9737 O   0  0  0  0  0  0  0  0  0  0  0  0
  -30.2422  -16.2042   17.8505 O   0  0  0  0  0  0  0  0  0  0  0  0
  -21.5540   -7.3902   21.4431 O   0  0  0  0  0  0  0  0  0  0  0  0
  -27.2098  -25.4220   20.7931 O   0  0  0  0  0  0  0  0  0  1  0  0
  -20.9210   -3.5301   25.3293 F   0  0  0  0  0  0  0  0  0  0  0  0
  -21.2018   -8.0909   24.0940 F   0  0  0  0  0  0  0  0  0  0  0  0
  1  2  1  0  0  0  0
  1  5  2  0  0  0  0
  2  6  2  0  0  0  0
  3  8  2  0  0  0  0
  3 16  1  0  0  0  0
  4  9  1  0  0  0  0
  4 16  2  0  0  0  0
  5 18  1  0  0  0  0
  6 20  1  0  0  0  0
  7 10  2  0  0  0  0
  7 19  1  0  0  0  0
  8 23  1  0  0  0  0
  9 23  2  0  0  0  0
 10 24  1  0  0  0  0
 11 12  2  0  0  0  0
 11 25  1  0  0  0  0
 12 26  1  0  0  0  0
 13 21  1  0  0  0  0
 13 24  2  0  0  0  0
 14 22  1  0  0  0  0
 14 30  2  0  0  0  0
 15 26  2  0  0  0  0
 15 27  1  0  0  0  0
 16 28  1  0  0  0  0
 17 28  1  0  0  0  0
 17 31  2  0  0  0  0
 17 32  1  0  0  0  0
 18 20  2  0  0  0  0
 18 37  1  0  0  0  0
 19 21  2  0  0  0  0
 19 38  1  0  0  0  0
 20 49  1  0  0  0  0
 21 39  1  0  0  0  0
 22 29  2  0  0  0  0
 22 59  1  0  0  0  0
 23 82  1  0  0  0  0
 24 83  1  0  0  0  0
 25 27  2  0  0  0  0
 25 82  1  0  0  0  0
 26 84  1  0  0  0  0
 27 85  1  0  0  0  0
 28 64  2  0  0  0  0
 29 60  1  0  0  0  0
 29 65  1  0  0  0  0
 30 66  1  0  0  0  0
 30 73  1  0  0  0  0
 31 67  1  0  0  0  0
 31 71  1  0  0  0  0
 32 72  1  0  0  0  0
 32 77  2  0  0  0  0
 33 50  1  0  0  0  0
 33 74  1  0  0  0  0
 33 78  2  0  0  0  0
 34 61  1  0  0  0  0
 34 68  1  0  0  0  0
 34 79  2  0  0  0  0
 35 62  1  0  0  0  0
 35 75  1  0  0  0  0
 35 80  2  0  0  0  0
 36 69  1  0  0  0  0
 36 70  1  0  0  0  0
 36 81  2  0  0  0  0
 37 40  1  0  0  0  0
 38 50  1  0  0  0  0
 39 68  1  0  0  0  0
 40 42  1  0  0  0  0
 41 43  1  0  0  0  0
 41 45  1  0  0  0  0
 42 49  1  0  0  0  0
 43 51  1  0  0  0  0
 44 46  1  0  0  0  0
 44 52  1  0  0  0  0
 45 69  1  0  0  0  0
 46 70  1  0  0  0  0
 47 51  1  0  0  0  0
 47 69  1  0  0  0  0
 48 52  1  0  0  0  0
 48 70  1  0  0  0  0
 49 74  1  0  0  0  0
 50 68  1  0  0  0  0
 51 67  1  0  0  0  0
 52 73  1  0  0  0  0
 53 59  1  0  0  0  0
 54 62  1  0  0  0  0
 55 63  1  0  0  0  0
 56 63  1  0  0  0  0
 57 63  1  0  0  0  0
 58 76  1  0  0  0  0
 60 83  1  0  0  0  0
 61 63  1  0  0  0  0
 61 75  1  0  0  0  0
 62 76  1  0  0  0  0
 64 67  1  0  0  0  0
 65 66  2  0  0  0  0
M  CHG  1  76   1
M  ISO  4  36 100  60 101  70 100  83 101
M  END
> <Batch ID>
0189

> <Smiles>
CCc1cc(NC2CC[100N:0]([100C:0](=O)N3CCCC(n4nc(-c5ccc(Oc6ccc(F)cc6F)cc5)c(C(N)=O)c4N)C3)C2)nnc1[101CH2:1][101O:1]c1ccc2c(c1)CN(C(=O)C(NC(=O)C(C)NC)C(C)(C)C)C(C(=O)NC1CCCc3ccccc31)C2

> <Shape>
0.330

> <Color>
0.102

> <Negative vol penalty>
0.000

$$$$

  -OEChem-04052323223D

 80 88  0     1  0  0  0  0  0999 V2000
  -18.5364  -30.5266   23.9070 C   0  0  0  0  0  0  0  0  0  0  0  0
  -19.9142  -30.5852   23.7235 C   0  0  0  0  0  0  0  0  0  0  0  0
  -26.2590  -13.0871   20.1921 C   0  0  0  0  0  0  0  0  0  0  0  0
  -23.9973  -13.3458   21.0013 C   0  0  0  0  0  0  0  0  0  0  0  0
  -17.8506  -29.3391   23.6552 C   0  0  0  0  0  0  0  0  0  0  0  0
  -20.6072  -29.4558   23.2892 C   0  0  0  0  0  0  0  0  0  0  0  0
  -25.5082  -29.3291   19.6191 C   0  0  0  0  0  0  0  0  0  0  0  0
  -26.1954  -11.7181   20.4521 C   0  0  0  0  0  0  0  0  0  0  0  0
  -23.9337  -11.9768   21.2613 C   0  0  0  0  0  0  0  0  0  0  0  0
  -26.8732  -29.2179   19.8805 C   0  0  0  0  0  0  0  0  0  0  0  0
  -23.4558   -9.1293   19.5053 C   0  0  0  0  0  0  0  0  0  0  0  0
  -22.3039   -8.4490   19.1105 C   0  0  0  0  0  0  0  0  0  0  0  0
  -26.7477  -26.8403   19.4926 C   0  0  0  0  0  0  0  0  0  0  0  0
  -21.8939   -7.8118   21.4046 C   0  0  0  0  0  0  0  0  0  0  0  0
  -25.1599  -13.9009   20.4668 C   0  0  0  0  0  0  0  0  0  0  0  0
  -24.8727  -15.9713   19.0044 C   0  0  0  0  0  0  0  0  0  0  0  0
  -18.5342  -28.1973   23.2083 C   0  0  0  0  0  0  0  0  0  0  0  0
  -24.7493  -28.1932   19.3026 C   0  0  0  0  0  0  0  0  0  0  0  0
  -19.9301  -28.2515   23.0325 C   0  0  0  0  0  0  0  0  0  0  0  0
  -25.3738  -26.9401   19.2251 C   0  0  0  0  0  0  0  0  0  0  0  0
  -25.0328  -11.1630   20.9867 C   0  0  0  0  0  0  0  0  0  0  0  0
  -27.4925  -27.9730   19.8201 C   0  0  0  0  0  0  0  0  0  0  0  0
  -23.8268   -9.1507   20.8498 C   0  0  0  0  0  0  0  0  0  0  0  0
  -21.5229   -7.7903   20.0601 C   0  0  0  0  0  0  0  0  0  0  0  0
  -23.0459   -8.4920   21.7994 C   0  0  0  0  0  0  0  0  0  0  0  0
  -25.2252  -15.3152   20.1990 C   0  0  0  0  0  0  0  0  0  0  0  0
  -25.1144  -17.2994   19.2579 C   0  0  0  0  0  0  0  0  0  0  0  0
  -24.3714  -15.4288   17.7755 C   0  0  0  0  0  0  0  0  0  0  0  0
  -22.2786  -26.7032   20.6366 C   0  0  0  0  0  0  0  0  0  0  0  0
  -22.3983  -24.9134   17.9339 C   0  0  0  0  0  0  0  0  0  0  0  0
  -24.2459  -23.7404   15.3153 C   0  0  0  0  0  0  0  0  0  0  0  0
  -28.7176  -21.0707   21.2794 C   0  0  0  0  0  0  0  0  0  0  0  0
  -17.7566  -26.9228   22.9947 C   0  0  0  0  0  0  0  0  0  0  0  0
  -23.2833  -28.3339   18.9972 C   0  0  0  0  0  0  0  0  0  0  0  0
  -24.6077  -25.6930   18.8699 C   0  0  0  0  0  0  0  0  0  0  0  0
  -18.5122  -25.8780   22.1777 C   0  0  0  0  0  0  0  0  0  0  0  0
  -26.1573  -19.6968   23.5843 C   0  0  0  0  0  0  0  0  0  0  0  0
  -19.9438  -25.7366   22.6850 C   0  0  0  0  0  0  0  0  0  0  0  0
  -25.6928  -18.4600   22.8139 C   0  0  0  0  0  0  0  0  0  0  0  0
  -28.0969  -24.4623   22.5534 C   0  0  0  0  0  0  0  0  0  0  0  0
  -27.6207  -20.0024   23.2930 C   0  0  0  0  0  0  0  0  0  0  0  0
  -27.8279  -22.9736   22.7496 C   0  0  0  0  0  0  0  0  0  0  0  0
  -27.4741  -18.9488   21.0691 C   0  0  0  0  0  0  0  0  0  0  0  0
  -29.8662  -23.2559   21.5066 C   0  0  0  0  0  0  0  0  0  0  0  0
  -20.7137  -27.0546   22.5387 C   0  0  1  0  0  0  0  0  0  0  0  0
  -22.5057  -27.0354   19.1889 C   0  0  1  0  0  0  0  0  0  0  0  0
  -25.9961  -18.5940   21.3105 C   0  0  1  0  0  0  0  0  0  0  0  0
  -29.6062  -24.4817   22.3629 C   0  0  1  0  0  0  0  0  0  0  0  0
  -24.0795  -22.2674   13.2904 C   0  0  0  0  0  0  0  0  0  0  0  0
  -22.5123  -22.4447   19.7234 C   0  0  0  0  0  0  0  0  0  0  0  0
  -23.2904  -21.1291   17.7405 C   0  0  0  0  0  0  0  0  0  0  0  0
  -21.0422  -22.2096   17.7139 C   0  0  0  0  0  0  0  0  0  0  0  0
  -24.8927  -25.9788   13.4905 C   0  0  0  0  0  0  0  0  0  0  0  0
  -30.0969  -26.9224   22.5645 C   0  0  0  0  0  0  0  0  0  0  0  0
  -29.3908  -28.8022   20.9885 C   0  0  0  0  0  0  0  0  0  1  0  0
  -23.1115  -23.6490   17.5196 C   0  0  1  0  0  0  0  0  0  0  0  0
  -23.9603  -23.6860   13.8253 C   0  0  2  0  0  0  0  0  0  0  0  0
  -30.5382  -28.1480   21.7642 C   0  0  1  0  0  0  0  0  0  0  0  0
  -22.5034  -22.3811   18.1830 C   0  0  0  0  0  0  0  0  0  0  0  0
  -25.6581  -16.1570   21.1412 N   0  0  0  0  0  0  0  0  0  0  0  0
  -25.5792  -17.3558   20.5389 N   0  0  0  0  0  0  0  0  0  0  0  0
  -23.1754  -25.8812   18.5859 N   0  0  0  0  0  0  0  0  0  0  0  0
  -27.8600  -20.1247   21.8522 N   0  0  0  0  0  0  0  0  0  0  0  0
  -28.8325  -22.3061   21.9151 N   0  0  0  0  0  0  0  0  0  0  0  0
  -24.9726  -18.4128   18.5077 N   0  0  0  0  0  0  0  0  0  0  0  0
  -24.1814  -14.0431   17.6852 N   0  0  0  0  0  0  0  0  0  0  0  0
  -31.0954  -29.1280   22.7041 N   0  0  0  0  0  0  0  0  0  0  0  0
  -21.1248  -27.2500   21.1650 N   0  0  0  0  0  0  0  0  0  0  0  0
  -23.0916  -23.6282   16.0610 N   0  0  0  0  0  0  0  0  0  0  0  0
  -30.0459  -25.7142   21.6886 N   0  3  0  0  0  0  0  0  0  0  0  0
  -24.9198  -24.5507   13.0821 N   0  3  0  0  0  0  0  0  0  0  0  0
  -24.1156  -16.1496   16.7813 O   0  0  0  0  0  0  0  0  0  0  0  0
  -23.0893  -26.0015   21.2298 O   0  0  0  0  0  0  0  0  0  0  0  0
  -21.1976  -25.0408   17.6816 O   0  0  0  0  0  0  0  0  0  0  0  0
  -25.3800  -23.8657   15.7719 O   0  0  0  0  0  0  0  0  0  0  0  0
  -29.3164  -20.8401   20.2205 O   0  0  0  0  0  0  0  0  0  0  0  0
  -24.9703   -9.8272   21.2403 O   0  0  0  0  0  0  0  0  0  0  0  0
  -28.8329  -27.8609   20.0771 O   0  0  0  0  0  0  0  0  0  1  0  0
  -20.4159   -7.1383   19.6810 F   0  0  0  0  0  0  0  0  0  0  0  0
  -23.3966   -8.5102   23.0927 F   0  0  0  0  0  0  0  0  0  0  0  0
  1  2  1  0  0  0  0
  1  5  2  0  0  0  0
  2  6  2  0  0  0  0
  3  8  2  0  0  0  0
  3 15  1  0  0  0  0
  4  9  1  0  0  0  0
  4 15  2  0  0  0  0
  5 17  1  0  0  0  0
  6 19  1  0  0  0  0
  7 10  2  0  0  0  0
  7 18  1  0  0  0  0
  8 21  1  0  0  0  0
  9 21  2  0  0  0  0
 10 22  1  0  0  0  0
 11 12  2  0  0  0  0
 11 23  1  0  0  0  0
 12 24  1  0  0  0  0
 13 20  1  0  0  0  0
 13 22  2  0  0  0  0
 14 24  2  0  0  0  0
 14 25  1  0  0  0  0
 15 26  1  0  0  0  0
 16 26  1  0  0  0  0
 16 27  2  0  0  0  0
 16 28  1  0  0  0  0
 17 19  2  0  0  0  0
 17 33  1  0  0  0  0
 18 20  2  0  0  0  0
 18 34  1  0  0  0  0
 19 45  1  0  0  0  0
 20 35  1  0  0  0  0
 21 77  1  0  0  0  0
 22 78  1  0  0  0  0
 23 25  2  0  0  0  0
 23 77  1  0  0  0  0
 24 79  1  0  0  0  0
 25 80  1  0  0  0  0
 26 60  2  0  0  0  0
 27 61  1  0  0  0  0
 27 65  1  0  0  0  0
 28 66  1  0  0  0  0
 28 72  2  0  0  0  0
 29 46  1  0  0  0  0
 29 68  1  0  0  0  0
 29 73  2  0  0  0  0
 30 56  1  0  0  0  0
 30 62  1  0  0  0  0
 30 74  2  0  0  0  0
 31 57  1  0  0  0  0
 31 69  1  0  0  0  0
 31 75  2  0  0  0  0
 32 63  1  0  0  0  0
 32 64  1  0  0  0  0
 32 76  2  0  0  0  0
 33 36  1  0  0  0  0
 34 46  1  0  0  0  0
 35 62  1  0  0  0  0
 36 38  1  0  0  0  0
 37 39  1  0  0  0  0
 37 41  1  0  0  0  0
 38 45  1  0  0  0  0
 39 47  1  0  0  0  0
 40 42  1  0  0  0  0
 40 48  1  0  0  0  0
 41 63  1  0  0  0  0
 42 64  1  0  0  0  0
 43 47  1  0  0  0  0
 43 63  1  0  0  0  0
 44 48  1  0  0  0  0
 44 64  1  0  0  0  0
 45 68  1  0  0  0  0
 46 62  1  0  0  0  0
 47 61  1  0  0  0  0
 48 70  1  0  0  0  0
 49 57  1  0  0  0  0
 50 59  1  0  0  0  0
 51 59  1  0  0  0  0
 52 59  1  0  0  0  0
 53 71  1  0  0  0  0
 54 58  1  0  0  0  0
 54 70  1  0  0  0  0
 55 58  1  0  0  0  0
 55 78  1  0  0  0  0
 56 59  1  0  0  0  0
 56 69  1  0  0  0  0
 57 71  1  0  0  0  0
 58 67  1  0  0  0  0
 60 61  1  0  0  0  0
M  CHG  2  70   1  71   1
M  ISO  4  32 100  55 101  64 100  78 101
M  END
> <Batch ID>
0189

> <Smiles>
CNC(C)C(=O)NC(C(=O)N1Cc2cc([101O:1][101CH2:1]C(N)CNC3CC[100N:0]([100C:0](=O)N4CCCC(n5nc(-c6ccc(Oc7ccc(F)cc7F)cc6)c(C(N)=O)c5N)C4)C3)ccc2CC1C(=O)NC1CCCc2ccccc21)C(C)(C)C

> <Shape>
0.226

> <Color>
0.075

> <Negative vol penalty>
0.000

$$$$

  -OEChem-04052323223D

 86 95  0     1  0  0  0  0  0999 V2000
  -22.9036  -20.2224   21.0010 C   0  0  0  0  0  0  0  0  0  0  0  0
  -24.0967  -20.7288   21.5065 C   0  0  0  0  0  0  0  0  0  0  0  0
  -22.9858   -9.8786   19.9759 C   0  0  0  0  0  0  0  0  0  0  0  0
  -23.7340   -9.9005   22.2730 C   0  0  0  0  0  0  0  0  0  0  0  0
  -22.0059  -21.0709   20.3545 C   0  0  0  0  0  0  0  0  0  0  0  0
  -24.3933  -22.0839   21.3647 C   0  0  0  0  0  0  0  0  0  0  0  0
  -26.2076  -24.1316   25.6262 C   0  0  0  0  0  0  0  0  0  0  0  0
  -22.2129   -8.7475   20.2384 C   0  0  0  0  0  0  0  0  0  0  0  0
  -22.9611   -8.7694   22.5355 C   0  0  0  0  0  0  0  0  0  0  0  0
  -27.5434  -23.8791   25.9355 C   0  0  0  0  0  0  0  0  0  0  0  0
  -23.1742   -5.4336   22.0276 C   0  0  0  0  0  0  0  0  0  0  0  0
  -23.7610   -4.4043   22.7636 C   0  0  0  0  0  0  0  0  0  0  0  0
  -28.1472  -26.0496   25.0733 C   0  0  0  0  0  0  0  0  0  0  0  0
  -22.0557   -4.6437   24.4582 C   0  0  0  0  0  0  0  0  0  0  0  0
  -30.3711  -18.7425   23.0350 C   0  0  0  0  0  0  0  0  0  0  0  0
  -23.7464  -10.4551   20.9932 C   0  0  0  0  0  0  0  0  0  0  0  0
  -24.1499  -12.9692   20.8387 C   0  0  0  0  0  0  0  0  0  0  0  0
  -22.2872  -22.4390   20.2133 C   0  0  0  0  0  0  0  0  0  0  0  0
  -25.8324  -25.3427   25.0271 C   0  0  0  0  0  0  0  0  0  0  0  0
  -23.4991  -22.9513   20.7145 C   0  0  0  0  0  0  0  0  0  0  0  0
  -26.8057  -26.3161   24.7597 C   0  0  0  0  0  0  0  0  0  0  0  0
  -31.6304  -19.1727   22.6697 C   0  0  0  0  0  0  0  0  0  0  0  0
  -22.2005   -8.1929   21.5182 C   0  0  0  0  0  0  0  0  0  0  0  0
  -28.5138  -24.8369   25.6564 C   0  0  0  0  0  0  0  0  0  0  0  0
  -22.0282   -6.0681   22.5070 C   0  0  0  0  0  0  0  0  0  0  0  0
  -23.2018   -4.0093   23.9788 C   0  0  0  0  0  0  0  0  0  0  0  0
  -21.4689   -5.6731   23.7222 C   0  0  0  0  0  0  0  0  0  0  0  0
  -24.5454  -11.6232   20.7225 C   0  0  0  0  0  0  0  0  0  0  0  0
  -32.3490  -18.3064   21.8715 C   0  0  0  0  0  0  0  0  0  0  0  0
  -25.2617  -13.6868   20.4706 C   0  0  0  0  0  0  0  0  0  0  0  0
  -30.6428  -16.8045   21.8786 C   0  0  0  0  0  0  0  0  0  0  0  0
  -22.8902  -13.5216   21.2433 C   0  0  0  0  0  0  0  0  0  0  0  0
  -24.4864  -26.1567   22.2650 C   0  0  0  0  0  0  0  0  0  0  0  0
  -24.4830  -29.1191   23.5864 C   0  0  0  0  0  0  0  0  0  0  0  0
  -25.8423  -31.2849   25.8466 C   0  0  0  0  0  0  0  0  0  0  0  0
  -30.7507  -14.6024   20.6598 C   0  0  0  0  0  0  0  0  0  0  0  0
  -21.3077  -23.3081   19.4651 C   0  0  0  0  0  0  0  0  0  0  0  0
  -24.3837  -25.6107   24.7241 C   0  0  0  0  0  0  0  0  0  0  0  0
  -26.4521  -27.6406   24.1358 C   0  0  0  0  0  0  0  0  0  0  0  0
  -21.5264  -24.8025   19.6868 C   0  0  0  0  0  0  0  0  0  0  0  0
  -29.5901  -12.1821   18.3205 C   0  0  0  0  0  0  0  0  0  0  0  0
  -23.0049  -25.1518   19.5488 C   0  0  0  0  0  0  0  0  0  0  0  0
  -28.1417  -11.9317   18.7464 C   0  0  0  0  0  0  0  0  0  0  0  0
  -31.2664  -21.6323   22.5954 C   0  0  0  0  0  0  0  0  0  0  0  0
  -32.2372  -20.5398   24.6572 C   0  0  0  0  0  0  0  0  0  0  0  0
  -30.5044  -12.4061   19.5237 C   0  0  0  0  0  0  0  0  0  0  0  0
  -28.6086  -13.1964   20.8840 C   0  0  0  0  0  0  0  0  0  0  0  0
  -31.7296  -22.9898   23.1084 C   0  0  0  0  0  0  0  0  0  0  0  0
  -32.6933  -21.9057   25.1542 C   0  0  0  0  0  0  0  0  0  0  0  0
  -32.1576  -20.4961   23.1226 C   0  0  0  0  0  0  0  0  0  0  0  0
  -23.8453  -24.4202   20.6023 C   0  0  1  0  0  0  0  0  0  0  0  0
  -24.1851  -26.6702   23.6445 C   0  0  1  0  0  0  0  0  0  0  0  0
  -27.6379  -13.0297   19.7036 C   0  0  2  0  0  0  0  0  0  0  0  0
  -33.7247  -18.6662   21.4160 C   0  0  0  0  0  0  0  0  0  0  0  0
  -25.6552  -33.6485   26.6687 C   0  0  0  0  0  0  0  0  0  0  0  0
  -25.9211  -30.1017   21.0811 C   0  0  0  0  0  0  0  0  0  0  0  0
  -26.5399  -32.1783   22.3353 C   0  0  0  0  0  0  0  0  0  0  0  0
  -24.1388  -31.6367   21.9306 C   0  0  0  0  0  0  0  0  0  0  0  0
  -25.1580  -30.4004   28.5867 C   0  0  0  0  0  0  0  0  0  0  0  0
  -32.0958  -24.3258   25.1810 C   0  0  0  0  0  0  0  0  0  0  0  0
  -30.8549  -25.1961   25.1476 C   0  0  0  0  0  0  0  0  0  1  0  0
  -25.4491  -30.2788   23.6133 C   0  0  1  0  0  0  0  0  0  0  0  0
  -25.2023  -32.2101   26.8658 C   0  0  2  0  0  0  0  0  0  0  0  0
  -25.5195  -31.0233   22.2501 C   0  0  0  0  0  0  0  0  0  0  0  0
  -29.8437  -17.5599   22.6560 N   0  0  0  0  0  0  0  0  0  0  0  0
  -25.8097  -11.4907   20.3125 N   0  0  0  0  0  0  0  0  0  0  0  0
  -31.8844  -17.1098   21.4558 N   0  0  0  0  0  0  0  0  0  0  0  0
  -26.2182  -12.7628   20.1678 N   0  0  0  0  0  0  0  0  0  0  0  0
  -25.0231  -27.8529   23.8523 N   0  0  0  0  0  0  0  0  0  0  0  0
  -29.9662  -13.4628   20.3831 N   0  0  0  0  0  0  0  0  0  0  0  0
  -25.5047  -15.0116   20.3796 N   0  0  0  0  0  0  0  0  0  0  0  0
  -21.8549  -12.6422   21.5881 N   0  0  0  0  0  0  0  0  0  0  0  0
  -30.1218  -15.5546   21.4613 N   0  0  0  0  0  0  0  0  0  0  0  0
  -23.7199  -25.0700   21.8893 N   0  0  0  0  0  0  0  0  0  0  0  0
  -25.0447  -31.1210   24.7338 N   0  0  0  0  0  0  0  0  0  0  0  0
  -31.7712  -22.9880   24.6249 N   0  3  0  0  0  0  0  0  0  0  0  0
  -25.5655  -31.7883   28.2482 N   0  3  0  0  0  0  0  0  0  0  0  0
  -22.6836  -14.7583   21.2817 O   0  0  0  0  0  0  0  0  0  0  0  0
  -25.3492  -26.7066   21.5906 O   0  0  0  0  0  0  0  0  0  0  0  0
  -23.2917  -29.3299   23.3455 O   0  0  0  0  0  0  0  0  0  0  0  0
  -26.9416  -30.7628   26.0186 O   0  0  0  0  0  0  0  0  0  0  0  0
  -31.8859  -14.7370   20.1959 O   0  0  0  0  0  0  0  0  0  0  0  0
  -21.4463   -7.0894   21.7747 O   0  0  0  0  0  0  0  0  0  0  0  0
  -29.8184  -24.5926   25.9567 O   0  0  0  0  0  0  0  0  0  1  0  0
  -23.7645   -3.0197   24.6847 F   0  0  0  0  0  0  0  0  0  0  0  0
  -20.3673   -6.2781   24.1873 F   0  0  0  0  0  0  0  0  0  0  0  0
  1  2  1  0  0  0  0
  1  5  2  0  0  0  0
  2  6  2  0  0  0  0
  3  8  2  0  0  0  0
  3 16  1  0  0  0  0
  4  9  1  0  0  0  0
  4 16  2  0  0  0  0
  5 18  1  0  0  0  0
  6 20  1  0  0  0  0
  7 10  2  0  0  0  0
  7 19  1  0  0  0  0
  8 23  1  0  0  0  0
  9 23  2  0  0  0  0
 10 24  1  0  0  0  0
 11 12  2  0  0  0  0
 11 25  1  0  0  0  0
 12 26  1  0  0  0  0
 13 21  1  0  0  0  0
 13 24  2  0  0  0  0
 14 26  2  0  0  0  0
 14 27  1  0  0  0  0
 15 22  1  0  0  0  0
 15 65  2  0  0  0  0
 16 28  1  0  0  0  0
 17 28  1  0  0  0  0
 17 30  2  0  0  0  0
 17 32  1  0  0  0  0
 18 20  2  0  0  0  0
 18 37  1  0  0  0  0
 19 21  2  0  0  0  0
 19 38  1  0  0  0  0
 20 51  1  0  0  0  0
 21 39  1  0  0  0  0
 22 29  2  0  0  0  0
 22 50  1  0  0  0  0
 23 83  1  0  0  0  0
 24 84  1  0  0  0  0
 25 27  2  0  0  0  0
 25 83  1  0  0  0  0
 26 85  1  0  0  0  0
 27 86  1  0  0  0  0
 28 66  2  0  0  0  0
 29 54  1  0  0  0  0
 29 67  1  0  0  0  0
 30 68  1  0  0  0  0
 30 71  1  0  0  0  0
 31 65  1  0  0  0  0
 31 67  2  0  0  0  0
 31 73  1  0  0  0  0
 32 72  1  0  0  0  0
 32 78  2  0  0  0  0
 33 52  1  0  0  0  0
 33 74  1  0  0  0  0
 33 79  2  0  0  0  0
 34 62  1  0  0  0  0
 34 69  1  0  0  0  0
 34 80  2  0  0  0  0
 35 63  1  0  0  0  0
 35 75  1  0  0  0  0
 35 81  2  0  0  0  0
 36 70  1  0  0  0  0
 36 73  1  0  0  0  0
 36 82  2  0  0  0  0
 37 40  1  0  0  0  0
 38 52  1  0  0  0  0
 39 69  1  0  0  0  0
 40 42  1  0  0  0  0
 41 43  1  0  0  0  0
 41 46  1  0  0  0  0
 42 51  1  0  0  0  0
 43 53  1  0  0  0  0
 44 48  1  0  0  0  0
 44 50  1  0  0  0  0
 45 49  1  0  0  0  0
 45 50  1  0  0  0  0
 46 70  1  0  0  0  0
 47 53  1  0  0  0  0
 47 70  1  0  0  0  0
 48 76  1  0  0  0  0
 49 76  1  0  0  0  0
 51 74  1  0  0  0  0
 52 69  1  0  0  0  0
 53 68  1  0  0  0  0
 55 63  1  0  0  0  0
 56 64  1  0  0  0  0
 57 64  1  0  0  0  0
 58 64  1  0  0  0  0
 59 77  1  0  0  0  0
 60 61  1  0  0  0  0
 60 76  1  0  0  0  0
 61 84  1  0  0  0  0
 62 64  1  0  0  0  0
 62 75  1  0  0  0  0
 63 77  1  0  0  0  0
 66 68  1  0  0  0  0
M  CHG  2  76   1  77   1
M  ISO  4  36 100  61 101  73 100  84 101
M  END
> <Batch ID>
0189

> <Smiles>
CNC(C)C(=O)NC(C(=O)N1Cc2cc([101O:1][101CH2:1]CN3CCC(c4cnc([100NH:0][100C:0](=O)N5CCCC(n6nc(-c7ccc(Oc8ccc(F)cc8F)cc7)c(C(N)=O)c6N)C5)nc4C)CC3)ccc2CC1C(=O)NC1CCCc2ccccc21)C(C)(C)C

> <Shape>
0.254

> <Color>
0.203

> <Negative vol penalty>
0.000

$$$$

  -OEChem-04052323223D

 88 98  0     1  0  0  0  0  0999 V2000
  -17.4865  -25.6196   22.8856 C   0  0  0  0  0  0  0  0  0  0  0  0
  -18.8079  -25.3730   22.5272 C   0  0  0  0  0  0  0  0  0  0  0  0
  -31.1714  -14.5992   18.2551 C   0  0  0  0  0  0  0  0  0  0  0  0
  -30.6432  -15.6219   17.4821 C   0  0  0  0  0  0  0  0  0  0  0  0
  -23.9564   -8.8270   19.4687 C   0  0  0  0  0  0  0  0  0  0  0  0
  -23.8860   -9.7374   21.7055 C   0  0  0  0  0  0  0  0  0  0  0  0
  -16.9861  -26.9204   22.8469 C   0  0  0  0  0  0  0  0  0  0  0  0
  -19.6294  -26.4269   22.1288 C   0  0  0  0  0  0  0  0  0  0  0  0
  -24.2209  -26.2222   24.2551 C   0  0  0  0  0  0  0  0  0  0  0  0
  -31.0155  -14.6256   19.6393 C   0  0  0  0  0  0  0  0  0  0  0  0
  -29.9688  -16.6786   18.0945 C   0  0  0  0  0  0  0  0  0  0  0  0
  -22.9552   -7.9168   19.8076 C   0  0  0  0  0  0  0  0  0  0  0  0
  -22.8847   -8.8272   22.0444 C   0  0  0  0  0  0  0  0  0  0  0  0
  -25.1329  -25.3166   23.7150 C   0  0  0  0  0  0  0  0  0  0  0  0
  -22.6687   -5.5595   22.8847 C   0  0  0  0  0  0  0  0  0  0  0  0
  -22.7865   -4.8902   24.1028 C   0  0  0  0  0  0  0  0  0  0  0  0
  -26.1843  -27.1124   22.4949 C   0  0  0  0  0  0  0  0  0  0  0  0
  -20.6828   -5.8339   24.8247 C   0  0  0  0  0  0  0  0  0  0  0  0
  -24.4218   -9.7372   20.4177 C   0  0  0  0  0  0  0  0  0  0  0  0
  -25.4078  -11.6596   19.0613 C   0  0  0  0  0  0  0  0  0  0  0  0
  -17.8046  -27.9921   22.4570 C   0  0  0  0  0  0  0  0  0  0  0  0
  -24.2770  -27.5802   23.9102 C   0  0  0  0  0  0  0  0  0  0  0  0
  -19.1391  -27.7430   22.0835 C   0  0  0  0  0  0  0  0  0  0  0  0
  -25.2735  -28.0337   23.0340 C   0  0  0  0  0  0  0  0  0  0  0  0
  -30.3118  -15.6680   20.2699 C   0  0  0  0  0  0  0  0  0  0  0  0
  -29.7907  -16.7326   19.4927 C   0  0  0  0  0  0  0  0  0  0  0  0
  -22.4193   -7.9170   21.0954 C   0  0  0  0  0  0  0  0  0  0  0  0
  -26.1130  -25.7611   22.8325 C   0  0  0  0  0  0  0  0  0  0  0  0
  -21.5580   -6.3660   22.6365 C   0  0  0  0  0  0  0  0  0  0  0  0
  -21.7936   -5.0274   25.0728 C   0  0  0  0  0  0  0  0  0  0  0  0
  -20.5651   -6.5032   23.6065 C   0  0  0  0  0  0  0  0  0  0  0  0
  -25.4565  -10.6772   20.0684 C   0  0  0  0  0  0  0  0  0  0  0  0
  -26.6287  -12.2847   19.1321 C   0  0  0  0  0  0  0  0  0  0  0  0
  -24.3532  -11.9786   18.1439 C   0  0  0  0  0  0  0  0  0  0  0  0
  -22.3042  -29.6110   22.4654 C   0  0  0  0  0  0  0  0  0  0  0  0
  -24.5691  -31.7848   23.2822 C   0  0  0  0  0  0  0  0  0  0  0  0
  -27.3047  -22.8904   20.9619 C   0  0  0  0  0  0  0  0  0  0  0  0
  -27.8260  -32.4129   24.0852 C   0  0  0  0  0  0  0  0  0  0  0  0
  -30.4949  -14.6476   22.5617 C   0  0  0  0  0  0  0  0  0  0  0  0
  -17.2056  -29.3744   22.3853 C   0  0  0  0  0  0  0  0  0  0  0  0
  -23.3026  -28.5488   24.5223 C   0  0  0  0  0  0  0  0  0  0  0  0
  -25.3892  -29.4848   22.6475 C   0  0  0  0  0  0  0  0  0  0  0  0
  -18.2482  -30.4870   22.3112 C   0  0  0  0  0  0  0  0  0  0  0  0
  -30.8465  -11.0812   21.6239 C   0  0  0  0  0  0  0  0  0  0  0  0
  -19.3213  -30.1453   21.2824 C   0  0  0  0  0  0  0  0  0  0  0  0
  -29.4445  -10.7213   21.1363 C   0  0  0  0  0  0  0  0  0  0  0  0
  -27.0962  -19.2242   19.8183 C   0  0  0  0  0  0  0  0  0  0  0  0
  -28.9373  -20.2913   19.9377 C   0  0  0  0  0  0  0  0  0  0  0  0
  -30.8150  -12.1981   22.6627 C   0  0  0  0  0  0  0  0  0  0  0  0
  -29.8908  -17.0108   22.2684 C   0  0  0  0  0  0  0  0  0  0  0  0
  -28.7842  -17.7098   21.5040 C   0  0  0  0  0  0  0  0  0  0  0  0
  -28.7022  -13.0692   21.7016 C   0  0  0  0  0  0  0  0  0  0  0  0
  -20.0685  -28.8633   21.6695 C   0  0  1  0  0  0  0  0  0  0  0  0
  -23.1316  -29.8234   23.7015 C   0  0  1  0  0  0  0  0  0  0  0  0
  -28.7107  -11.9722   20.6263 C   0  0  2  0  0  0  0  0  0  0  0  0
  -28.5403  -18.9113   19.3692 C   0  0  0  0  0  0  0  0  0  0  0  0
  -27.4688  -20.7221   19.7096 C   0  0  0  0  0  0  0  0  0  0  0  0
  -29.3851  -34.2922   24.6638 C   0  0  0  0  0  0  0  0  0  0  0  0
  -24.6462  -32.6207   20.3487 C   0  0  0  0  0  0  0  0  0  0  0  0
  -26.8202  -33.7748   20.8069 C   0  0  0  0  0  0  0  0  0  0  0  0
  -24.7456  -34.5166   21.9767 C   0  0  0  0  0  0  0  0  0  0  0  0
  -28.4220  -31.2546   26.7427 C   0  0  0  0  0  0  0  0  0  0  0  0
  -26.5740  -23.5406   22.1164 C   0  0  0  0  0  0  0  0  0  1  0  0
  -25.8194  -32.3227   22.6292 C   0  0  1  0  0  0  0  0  0  0  0  0
  -28.4484  -33.2244   25.2070 C   0  0  2  0  0  0  0  0  0  0  0  0
  -25.5048  -33.2810   21.4460 C   0  0  0  0  0  0  0  0  0  0  0  0
  -26.6166  -10.6744   20.7304 N   0  0  0  0  0  0  0  0  0  0  0  0
  -27.3082  -11.6627   20.1379 N   0  0  0  0  0  0  0  0  0  0  0  0
  -30.1609  -15.6993   21.6956 N   0  0  0  0  0  0  0  0  0  0  0  0
  -29.1191  -17.8321   20.0859 N   0  0  3  0  0  0  0  0  0  0  0  0
  -24.4093  -30.3919   23.2676 N   0  0  0  0  0  0  0  0  0  0  0  0
  -30.0601  -13.3598   22.1907 N   0  0  0  0  0  0  0  0  0  0  0  0
  -27.1767  -13.3002   18.4314 N   0  0  0  0  0  0  0  0  0  0  0  0
  -23.4017  -12.9343   18.5257 N   0  0  0  0  0  0  0  0  0  0  0  0
  -21.0310  -29.1355   22.7154 N   0  0  0  0  0  0  0  0  0  0  0  0
  -26.9134  -21.5635   20.7575 N   0  0  0  0  0  0  0  0  0  0  0  0
  -26.6083  -32.9295   23.6960 N   0  0  0  0  0  0  0  0  0  0  0  0
  -29.2252  -32.3374   26.1186 N   0  3  0  0  0  0  0  0  0  0  0  0
  -24.2480  -11.4205   17.0254 O   0  0  0  0  0  0  0  0  0  0  0  0
  -22.7847  -29.8615   21.3663 O   0  0  0  0  0  0  0  0  0  0  0  0
  -23.7674  -32.5709   23.7928 O   0  0  0  0  0  0  0  0  0  0  0  0
  -28.1469  -23.4772   20.2877 O   0  0  0  0  0  0  0  0  0  0  0  0
  -28.3678  -31.4221   23.6000 O   0  0  0  0  0  0  0  0  0  0  0  0
  -31.0844  -14.8593   23.6287 O   0  0  0  0  0  0  0  0  0  0  0  0
  -21.4422   -7.0292   21.4264 O   0  0  0  0  0  0  0  0  0  0  0  0
  -27.0133  -24.8700   22.2978 O   0  0  0  0  0  0  0  0  0  1  0  0
  -21.9061   -4.3835   26.2419 F   0  0  0  0  0  0  0  0  0  0  0  0
  -19.4952   -7.2757   23.3735 F   0  0  0  0  0  0  0  0  0  0  0  0
  1  2  1  0  0  0  0
  1  7  2  0  0  0  0
  2  8  2  0  0  0  0
  3  4  1  0  0  0  0
  3 10  2  0  0  0  0
  4 11  2  0  0  0  0
  5 12  2  0  0  0  0
  5 19  1  0  0  0  0
  6 13  1  0  0  0  0
  6 19  2  0  0  0  0
  7 21  1  0  0  0  0
  8 23  1  0  0  0  0
  9 14  2  0  0  0  0
  9 22  1  0  0  0  0
 10 25  1  0  0  0  0
 11 26  1  0  0  0  0
 12 27  1  0  0  0  0
 13 27  2  0  0  0  0
 14 28  1  0  0  0  0
 15 16  2  0  0  0  0
 15 29  1  0  0  0  0
 16 30  1  0  0  0  0
 17 24  1  0  0  0  0
 17 28  2  0  0  0  0
 18 30  2  0  0  0  0
 18 31  1  0  0  0  0
 19 32  1  0  0  0  0
 20 32  1  0  0  0  0
 20 33  2  0  0  0  0
 20 34  1  0  0  0  0
 21 23  2  0  0  0  0
 21 40  1  0  0  0  0
 22 24  2  0  0  0  0
 22 41  1  0  0  0  0
 23 53  1  0  0  0  0
 24 42  1  0  0  0  0
 25 26  2  0  0  0  0
 25 69  1  0  0  0  0
 26 70  1  0  0  0  0
 27 85  1  0  0  0  0
 28 86  1  0  0  0  0
 29 31  2  0  0  0  0
 29 85  1  0  0  0  0
 30 87  1  0  0  0  0
 31 88  1  0  0  0  0
 32 67  2  0  0  0  0
 33 68  1  0  0  0  0
 33 73  1  0  0  0  0
 34 74  1  0  0  0  0
 34 79  2  0  0  0  0
 35 54  1  0  0  0  0
 35 75  1  0  0  0  0
 35 80  2  0  0  0  0
 36 64  1  0  0  0  0
 36 71  1  0  0  0  0
 36 81  2  0  0  0  0
 37 63  1  0  0  0  0
 37 76  1  0  0  0  0
 37 82  2  0  0  0  0
 38 65  1  0  0  0  0
 38 77  1  0  0  0  0
 38 83  2  0  0  0  0
 39 69  1  0  0  0  0
 39 72  1  0  0  0  0
 39 84  2  0  0  0  0
 40 43  1  0  0  0  0
 41 54  1  0  0  0  0
 42 71  1  0  0  0  0
 43 45  1  0  0  0  0
 44 46  1  0  0  0  0
 44 49  1  0  0  0  0
 45 53  1  0  0  0  0
 46 55  1  0  0  0  0
 47 56  1  0  0  0  0
 47 57  1  0  0  0  0
 48 56  1  0  0  0  0
 48 57  1  0  0  0  0
 49 72  1  0  0  0  0
 50 51  1  0  0  0  0
 50 69  1  0  0  0  0
 51 70  1  0  0  0  0
 52 55  1  0  0  0  0
 52 72  1  0  0  0  0
 53 75  1  0  0  0  0
 54 71  1  0  0  0  0
 55 68  1  0  0  0  0
 56 70  1  0  0  0  0
 57 76  1  0  0  0  0
 58 65  1  0  0  0  0
 59 66  1  0  0  0  0
 60 66  1  0  0  0  0
 61 66  1  0  0  0  0
 62 78  1  0  0  0  0
 63 86  1  0  0  0  0
 64 66  1  0  0  0  0
 64 77  1  0  0  0  0
 65 78  1  0  0  0  0
 67 68  1  0  0  0  0
M  CHG  1  78   1
M  ISO  4  39 100  63 101  69 100  86 101
M  END
> <Batch ID>
0189

> <Smiles>
CNC(C)C(=O)NC(C(=O)N1Cc2cc([101O:1][101CH2:1]C(=O)NC3CC(N4CC[100N:0]([100C:0](=O)N5CCCC(n6nc(-c7ccc(Oc8ccc(F)cc8F)cc7)c(C(N)=O)c6N)C5)c5ccccc54)C3)ccc2CC1C(=O)NC1CCCc2ccccc21)C(C)(C)C

> <Shape>
0.309

> <Color>
0.086

> <Negative vol penalty>
0.000

$$$$

  -OEChem-04052323223D

 82 90  0     1  0  0  0  0  0999 V2000
  -32.4368  -13.2671   21.1765 C   0  0  0  0  0  0  0  0  0  0  0  0
  -31.7831  -14.4208   21.5970 C   0  0  0  0  0  0  0  0  0  0  0  0
  -23.7062  -31.3933   23.5720 C   0  0  0  0  0  0  0  0  0  0  0  0
  -23.5352  -31.6234   21.1731 C   0  0  0  0  0  0  0  0  0  0  0  0
  -31.7800  -12.3574   20.3488 C   0  0  0  0  0  0  0  0  0  0  0  0
  -30.4724  -14.6661   21.1892 C   0  0  0  0  0  0  0  0  0  0  0  0
  -26.0627  -17.4165   24.4289 C   0  0  0  0  0  0  0  0  0  0  0  0
  -23.1505  -32.6624   23.7334 C   0  0  0  0  0  0  0  0  0  0  0  0
  -22.9794  -32.8926   21.3345 C   0  0  0  0  0  0  0  0  0  0  0  0
  -25.5759  -18.7230   24.4303 C   0  0  0  0  0  0  0  0  0  0  0  0
  -20.0759  -34.0662   23.6361 C   0  0  0  0  0  0  0  0  0  0  0  0
  -19.0794  -34.2198   24.5998 C   0  0  0  0  0  0  0  0  0  0  0  0
  -23.8078  -18.0593   22.9294 C   0  0  0  0  0  0  0  0  0  0  0  0
  -20.4437  -35.8477   25.7512 C   0  0  0  0  0  0  0  0  0  0  0  0
  -25.2527  -21.9495   19.8593 C   0  0  0  0  0  0  0  0  0  0  0  0
  -26.9997  -22.7060   20.9597 C   0  0  0  0  0  0  0  0  0  0  0  0
  -23.8986  -30.8738   22.2918 C   0  0  0  0  0  0  0  0  0  0  0  0
  -23.7861  -28.3363   22.0555 C   0  0  0  0  0  0  0  0  0  0  0  0
  -30.4573  -12.5869   19.9386 C   0  0  0  0  0  0  0  0  0  0  0  0
  -25.4310  -16.4224   23.6678 C   0  0  0  0  0  0  0  0  0  0  0  0
  -29.7977  -13.7593   20.3542 C   0  0  0  0  0  0  0  0  0  0  0  0
  -24.2870  -16.7405   22.9221 C   0  0  0  0  0  0  0  0  0  0  0  0
  -25.6635  -22.4300   21.1172 C   0  0  0  0  0  0  0  0  0  0  0  0
  -22.7871  -33.4121   22.6147 C   0  0  0  0  0  0  0  0  0  0  0  0
  -24.4500  -19.0452   23.6782 C   0  0  0  0  0  0  0  0  0  0  0  0
  -21.2564  -34.8034   23.7299 C   0  0  0  0  0  0  0  0  0  0  0  0
  -19.2632  -35.1105   25.6574 C   0  0  0  0  0  0  0  0  0  0  0  0
  -21.4403  -35.6942   24.7874 C   0  0  0  0  0  0  0  0  0  0  0  0
  -24.4731  -29.5631   22.1245 C   0  0  0  0  0  0  0  0  0  0  0  0
  -24.7755  -27.3973   21.8941 C   0  0  0  0  0  0  0  0  0  0  0  0
  -22.3794  -28.0693   22.1307 C   0  0  0  0  0  0  0  0  0  0  0  0
  -26.3019  -14.5619   21.2422 C   0  0  0  0  0  0  0  0  0  0  0  0
  -23.3936  -13.2143   21.7404 C   0  0  0  0  0  0  0  0  0  0  0  0
  -20.2207  -13.5370   22.9551 C   0  0  0  0  0  0  0  0  0  0  0  0
  -29.4970  -25.6698   19.4717 C   0  0  0  0  0  0  0  0  0  0  0  0
  -29.8047  -11.5981   19.0053 C   0  0  0  0  0  0  0  0  0  0  0  0
  -25.9528  -15.0120   23.6981 C   0  0  0  0  0  0  0  0  0  0  0  0
  -23.5604  -15.7053   22.1042 C   0  0  0  0  0  0  0  0  0  0  0  0
  -28.2878  -11.7478   18.9229 C   0  0  0  0  0  0  0  0  0  0  0  0
  -29.8006  -27.8058   22.3040 C   0  0  0  0  0  0  0  0  0  0  0  0
  -27.9046  -13.2145   18.7526 C   0  0  0  0  0  0  0  0  0  0  0  0
  -28.3870  -28.3566   22.4999 C   0  0  0  0  0  0  0  0  0  0  0  0
  -30.1424  -27.6419   20.8247 C   0  0  0  0  0  0  0  0  0  0  0  0
  -27.7596  -27.3957   20.2456 C   0  0  0  0  0  0  0  0  0  0  0  0
  -28.3674  -14.0485   19.9533 C   0  0  1  0  0  0  0  0  0  0  0  0
  -25.5343  -14.1938   22.4804 C   0  0  1  0  0  0  0  0  0  0  0  0
  -27.3487  -27.5257   21.7223 C   0  0  2  0  0  0  0  0  0  0  0  0
  -18.0617  -12.2787   23.1844 C   0  0  0  0  0  0  0  0  0  0  0  0
  -22.8700  -23.0320   23.4955 C   0  0  0  0  0  0  0  0  0  0  0  0
  -22.8074  -13.6863   18.7835 C   0  0  0  0  0  0  0  0  0  0  0  0
  -20.3817  -13.3101   19.2760 C   0  0  0  0  0  0  0  0  0  0  0  0
  -22.0296  -11.4776   19.6616 C   0  0  0  0  0  0  0  0  0  0  0  0
  -20.3120  -13.6880   25.9094 C   0  0  0  0  0  0  0  0  0  0  0  0
  -28.5852  -22.5076   19.0289 C   0  0  0  0  0  0  0  0  0  0  0  0
  -28.6945  -23.7395   18.1341 C   0  0  0  0  0  0  0  0  0  0  0  0
  -23.3116  -20.7648   22.4938 C   0  0  0  0  0  0  0  0  0  1  0  0
  -21.9970  -13.4644   21.2248 C   0  0  1  0  0  0  0  0  0  0  0  0
  -19.3855  -12.6329   23.8437 C   0  0  2  0  0  0  0  0  0  0  0  0
  -23.4879  -22.2728   22.3287 C   0  0  2  0  0  0  0  0  0  0  0  0
  -21.8185  -13.0047   19.7502 C   0  0  0  0  0  0  0  0  0  0  0  0
  -26.2474  -21.9208   18.9684 N   0  0  0  0  0  0  0  0  0  0  0  0
  -25.7966  -29.4197   22.0158 N   0  0  0  0  0  0  0  0  0  0  0  0
  -27.2964  -22.3868   19.6673 N   0  0  0  0  0  0  0  0  0  0  0  0
  -25.9492  -28.0917   21.8771 N   0  0  0  0  0  0  0  0  0  0  0  0
  -24.1129  -14.3419   22.1613 N   0  0  0  0  0  0  0  0  0  0  0  0
  -29.1195  -26.8431   20.1454 N   0  0  0  0  0  0  0  0  0  0  0  0
  -24.7472  -26.0537   21.7665 N   0  0  0  0  0  0  0  0  0  0  0  0
  -21.5023  -29.1496   22.2976 N   0  0  0  0  0  0  0  0  0  0  0  0
  -24.9000  -22.5912   22.2587 N   0  0  0  0  0  0  0  0  0  0  0  0
  -27.4769  -13.8536   21.0774 N   0  0  0  0  0  0  0  0  0  0  0  0
  -21.0917  -12.8151   22.1668 N   0  0  0  0  0  0  0  0  0  0  0  0
  -28.4649  -24.9687   18.8601 N   0  0  0  0  0  0  0  0  0  0  0  0
  -19.0987  -13.3049   25.1426 N   0  3  0  0  0  0  0  0  0  0  0  0
  -21.9153  -26.9055   22.0686 O   0  0  0  0  0  0  0  0  0  0  0  0
  -25.8601  -15.4235   20.4912 O   0  0  0  0  0  0  0  0  0  0  0  0
  -23.8277  -12.0602   21.7754 O   0  0  0  0  0  0  0  0  0  0  0  0
  -20.1089  -14.7609   22.9573 O   0  0  0  0  0  0  0  0  0  0  0  0
  -30.6664  -25.2734   19.4236 O   0  0  0  0  0  0  0  0  0  0  0  0
  -22.2445  -34.6504   22.7718 O   0  0  0  0  0  0  0  0  0  0  0  0
  -23.9731  -20.3198   23.6773 O   0  0  0  0  0  0  0  0  0  1  0  0
  -18.3055  -35.2590   26.5820 F   0  0  0  0  0  0  0  0  0  0  0  0
  -22.5717  -36.4060   24.8822 F   0  0  0  0  0  0  0  0  0  0  0  0
  1  2  1  0  0  0  0
  1  5  2  0  0  0  0
  2  6  2  0  0  0  0
  3  8  2  0  0  0  0
  3 17  1  0  0  0  0
  4  9  1  0  0  0  0
  4 17  2  0  0  0  0
  5 19  1  0  0  0  0
  6 21  1  0  0  0  0
  7 10  2  0  0  0  0
  7 20  1  0  0  0  0
  8 24  1  0  0  0  0
  9 24  2  0  0  0  0
 10 25  1  0  0  0  0
 11 12  2  0  0  0  0
 11 26  1  0  0  0  0
 12 27  1  0  0  0  0
 13 22  1  0  0  0  0
 13 25  2  0  0  0  0
 14 27  2  0  0  0  0
 14 28  1  0  0  0  0
 15 23  1  0  0  0  0
 15 61  2  0  0  0  0
 16 23  2  0  0  0  0
 16 63  1  0  0  0  0
 17 29  1  0  0  0  0
 18 29  1  0  0  0  0
 18 30  2  0  0  0  0
 18 31  1  0  0  0  0
 19 21  2  0  0  0  0
 19 36  1  0  0  0  0
 20 22  2  0  0  0  0
 20 37  1  0  0  0  0
 21 45  1  0  0  0  0
 22 38  1  0  0  0  0
 23 69  1  0  0  0  0
 24 79  1  0  0  0  0
 25 80  1  0  0  0  0
 26 28  2  0  0  0  0
 26 79  1  0  0  0  0
 27 81  1  0  0  0  0
 28 82  1  0  0  0  0
 29 62  2  0  0  0  0
 30 64  1  0  0  0  0
 30 67  1  0  0  0  0
 31 68  1  0  0  0  0
 31 74  2  0  0  0  0
 32 46  1  0  0  0  0
 32 70  1  0  0  0  0
 32 75  2  0  0  0  0
 33 57  1  0  0  0  0
 33 65  1  0  0  0  0
 33 76  2  0  0  0  0
 34 58  1  0  0  0  0
 34 71  1  0  0  0  0
 34 77  2  0  0  0  0
 35 66  1  0  0  0  0
 35 72  1  0  0  0  0
 35 78  2  0  0  0  0
 36 39  1  0  0  0  0
 37 46  1  0  0  0  0
 38 65  1  0  0  0  0
 39 41  1  0  0  0  0
 40 42  1  0  0  0  0
 40 43  1  0  0  0  0
 41 45  1  0  0  0  0
 42 47  1  0  0  0  0
 43 66  1  0  0  0  0
 44 47  1  0  0  0  0
 44 66  1  0  0  0  0
 45 70  1  0  0  0  0
 46 65  1  0  0  0  0
 47 64  1  0  0  0  0
 48 58  1  0  0  0  0
 49 59  1  0  0  0  0
 50 60  1  0  0  0  0
 51 60  1  0  0  0  0
 52 60  1  0  0  0  0
 53 73  1  0  0  0  0
 54 55  1  0  0  0  0
 54 63  1  0  0  0  0
 55 72  1  0  0  0  0
 56 59  1  0  0  0  0
 56 80  1  0  0  0  0
 57 60  1  0  0  0  0
 57 71  1  0  0  0  0
 58 73  1  0  0  0  0
 59 69  1  0  0  0  0
 61 63  1  0  0  0  0
 62 64  1  0  0  0  0
M  CHG  1  73   1
M  ISO  4  35 100  56 101  72 100  80 101
M  END
> <Batch ID>
0189

> <Smiles>
CNC(C)C(=O)NC(C(=O)N1Cc2cc([101O:1][101CH2:1]C(C)Nc3cnn(CC[100NH:0][100C:0](=O)N4CCCC(n5nc(-c6ccc(Oc7ccc(F)cc7F)cc6)c(C(N)=O)c5N)C4)c3)ccc2CC1C(=O)NC1CCCc2ccccc21)C(C)(C)C

> <Shape>
0.197

> <Color>
0.079

> <Negative vol penalty>
0.000

$$$$

  -OEChem-04052323223D

 82 91  0     1  0  0  0  0  0999 V2000
  -30.1998  -33.8244   16.0443 C   0  0  0  0  0  0  0  0  0  0  0  0
  -30.4639  -32.5733   16.5924 C   0  0  0  0  0  0  0  0  0  0  0  0
  -22.8053  -10.1146   20.1681 C   0  0  0  0  0  0  0  0  0  0  0  0
  -24.3614   -9.4827   21.9049 C   0  0  0  0  0  0  0  0  0  0  0  0
  -29.2720  -34.6688   16.6525 C   0  0  0  0  0  0  0  0  0  0  0  0
  -29.8009  -32.1663   17.7497 C   0  0  0  0  0  0  0  0  0  0  0  0
  -28.0186  -26.4808   19.1654 C   0  0  0  0  0  0  0  0  0  0  0  0
  -22.2392   -8.8406   20.2118 C   0  0  0  0  0  0  0  0  0  0  0  0
  -23.7951   -8.2087   21.9487 C   0  0  0  0  0  0  0  0  0  0  0  0
  -28.5849  -25.4933   19.9703 C   0  0  0  0  0  0  0  0  0  0  0  0
  -21.0441   -6.7512   23.2631 C   0  0  0  0  0  0  0  0  0  0  0  0
  -20.7769   -6.2051   24.5185 C   0  0  0  0  0  0  0  0  0  0  0  0
  -27.1843  -26.1942   21.8050 C   0  0  0  0  0  0  0  0  0  0  0  0
  -22.2555   -4.3579   24.0296 C   0  0  0  0  0  0  0  0  0  0  0  0
  -23.8665  -10.4356   21.0146 C   0  0  0  0  0  0  0  0  0  0  0  0
  -24.0701  -12.8781   21.7220 C   0  0  0  0  0  0  0  0  0  0  0  0
  -28.5902  -34.2682   17.8123 C   0  0  0  0  0  0  0  0  0  0  0  0
  -27.0370  -27.3409   19.6783 C   0  0  0  0  0  0  0  0  0  0  0  0
  -28.8640  -33.0068   18.3747 C   0  0  0  0  0  0  0  0  0  0  0  0
  -26.6052  -27.1900   21.0038 C   0  0  0  0  0  0  0  0  0  0  0  0
  -22.7340   -7.8876   21.1021 C   0  0  0  0  0  0  0  0  0  0  0  0
  -28.1699  -25.3518   21.2912 C   0  0  0  0  0  0  0  0  0  0  0  0
  -21.9169   -6.1006   22.3909 C   0  0  0  0  0  0  0  0  0  0  0  0
  -21.3827   -5.0085   24.9018 C   0  0  0  0  0  0  0  0  0  0  0  0
  -22.5226   -4.9040   22.7742 C   0  0  0  0  0  0  0  0  0  0  0  0
  -24.4521  -11.7513   20.9695 C   0  0  0  0  0  0  0  0  0  0  0  0
  -24.9286  -13.8700   21.3149 C   0  0  0  0  0  0  0  0  0  0  0  0
  -23.0321  -13.0159   22.7014 C   0  0  0  0  0  0  0  0  0  0  0  0
  -26.8193  -30.4796   20.1312 C   0  0  0  0  0  0  0  0  0  0  0  0
  -23.7684  -29.7550   20.9613 C   0  0  0  0  0  0  0  0  0  0  0  0
  -21.5530  -27.4256   22.1071 C   0  0  0  0  0  0  0  0  0  0  0  0
  -30.1997  -15.4620   20.0750 C   0  0  0  0  0  0  0  0  0  0  0  0
  -27.6308  -35.2344   18.4608 C   0  0  0  0  0  0  0  0  0  0  0  0
  -26.4168  -28.3836   18.7892 C   0  0  0  0  0  0  0  0  0  0  0  0
  -25.5401  -28.0748   21.5964 C   0  0  0  0  0  0  0  0  0  0  0  0
  -26.6958  -34.5775   19.4730 C   0  0  0  0  0  0  0  0  0  0  0  0
  -28.1618  -14.0732   17.4594 C   0  0  0  0  0  0  0  0  0  0  0  0
  -27.4781  -33.6537   20.4011 C   0  0  0  0  0  0  0  0  0  0  0  0
  -27.0150  -13.3900   18.1972 C   0  0  0  0  0  0  0  0  0  0  0  0
  -31.3284  -19.3512   21.3358 C   0  0  0  0  0  0  0  0  0  0  0  0
  -31.7493  -15.2851   23.0549 C   0  0  0  0  0  0  0  0  0  0  0  0
  -29.4566  -13.9716   18.2543 C   0  0  0  0  0  0  0  0  0  0  0  0
  -30.9023  -20.8192   21.3802 C   0  0  0  0  0  0  0  0  0  0  0  0
  -30.5949  -14.4699   22.4633 C   0  0  0  0  0  0  0  0  0  0  0  0
  -28.1980  -13.9087   20.3914 C   0  0  0  0  0  0  0  0  0  0  0  0
  -29.3718  -19.6439   22.6993 C   0  0  0  0  0  0  0  0  0  0  0  0
  -28.1470  -32.5196   19.6151 C   0  0  1  0  0  0  0  0  0  0  0  0
  -25.7930  -29.5380   19.5673 C   0  0  1  0  0  0  0  0  0  0  0  0
  -26.8686  -13.9662   19.6128 C   0  0  2  0  0  0  0  0  0  0  0  0
  -30.1446  -18.5963   21.9233 C   0  0  2  0  0  0  0  0  0  0  0  0
  -31.3530  -16.4397   22.1290 C   0  0  1  0  0  0  0  0  0  0  0  0
  -19.1364  -27.1393   22.7198 C   0  0  0  0  0  0  0  0  0  0  0  0
  -24.2555  -31.2546   23.5736 C   0  0  0  0  0  0  0  0  0  0  0  0
  -22.2141  -30.1474   24.5088 C   0  0  0  0  0  0  0  0  0  0  0  0
  -22.0162  -31.6636   22.5379 C   0  0  0  0  0  0  0  0  0  0  0  0
  -21.1538  -25.3494   20.0361 C   0  0  0  0  0  0  0  0  0  0  0  0
  -29.0668  -22.0365   22.4084 C   0  0  0  0  0  0  0  0  0  0  0  0
  -29.1725  -23.2000   21.4346 C   0  0  0  0  0  0  0  0  0  1  0  0
  -23.0697  -29.3837   22.2470 C   0  0  1  0  0  0  0  0  0  0  0  0
  -20.1755  -27.0184   21.6160 C   0  0  2  0  0  0  0  0  0  0  0  0
  -22.9104  -30.5968   23.2065 C   0  0  0  0  0  0  0  0  0  0  0  0
  -25.4737  -12.0030   20.1466 N   0  0  0  0  0  0  0  0  0  0  0  0
  -25.7408  -13.2993   20.3796 N   0  0  0  0  0  0  0  0  0  0  0  0
  -24.9687  -29.0835   20.6889 N   0  0  0  0  0  0  0  0  0  0  0  0
  -29.3075  -14.4850   19.6195 N   0  0  0  0  0  0  0  0  0  0  0  0
  -30.5217  -15.4755   21.4137 N   0  0  0  0  0  0  0  0  0  0  0  0
  -29.4957  -20.7892   21.7943 N   0  0  1  0  0  0  0  0  0  0  0  0
  -25.0604  -15.1659   21.6693 N   0  0  0  0  0  0  0  0  0  0  0  0
  -22.2429  -11.8970   23.0004 N   0  0  0  0  0  0  0  0  0  0  0  0
  -27.1771  -31.5015   19.2727 N   0  0  0  0  0  0  0  0  0  0  0  0
  -21.8098  -28.7578   21.8609 N   0  0  0  0  0  0  0  0  0  0  0  0
  -30.5887  -17.4984   22.8012 N   0  3  0  0  0  0  0  0  0  0  0  0
  -20.1921  -25.6066   21.1388 N   0  3  0  0  0  0  0  0  0  0  0  0
  -22.8004  -14.1035   23.2820 O   0  0  0  0  0  0  0  0  0  0  0  0
  -27.2532  -30.2935   21.2620 O   0  0  0  0  0  0  0  0  0  0  0  0
  -23.2640  -30.6042   20.2223 O   0  0  0  0  0  0  0  0  0  0  0  0
  -22.3226  -26.6413   22.6576 O   0  0  0  0  0  0  0  0  0  0  0  0
  -30.7201  -16.2809   19.3058 O   0  0  0  0  0  0  0  0  0  0  0  0
  -22.1816   -6.6444   21.1452 O   0  0  0  0  0  0  0  0  0  0  0  0
  -28.7254  -24.3823   22.0849 O   0  0  0  0  0  0  0  0  0  1  0  0
  -21.1273   -4.4850   26.1080 F   0  0  0  0  0  0  0  0  0  0  0  0
  -23.3629   -4.2750   21.9410 F   0  0  0  0  0  0  0  0  0  0  0  0
  1  2  1  0  0  0  0
  1  5  2  0  0  0  0
  2  6  2  0  0  0  0
  3  8  2  0  0  0  0
  3 15  1  0  0  0  0
  4  9  1  0  0  0  0
  4 15  2  0  0  0  0
  5 17  1  0  0  0  0
  6 19  1  0  0  0  0
  7 10  2  0  0  0  0
  7 18  1  0  0  0  0
  8 21  1  0  0  0  0
  9 21  2  0  0  0  0
 10 22  1  0  0  0  0
 11 12  2  0  0  0  0
 11 23  1  0  0  0  0
 12 24  1  0  0  0  0
 13 20  1  0  0  0  0
 13 22  2  0  0  0  0
 14 24  2  0  0  0  0
 14 25  1  0  0  0  0
 15 26  1  0  0  0  0
 16 26  1  0  0  0  0
 16 27  2  0  0  0  0
 16 28  1  0  0  0  0
 17 19  2  0  0  0  0
 17 33  1  0  0  0  0
 18 20  2  0  0  0  0
 18 34  1  0  0  0  0
 19 47  1  0  0  0  0
 20 35  1  0  0  0  0
 21 79  1  0  0  0  0
 22 80  1  0  0  0  0
 23 25  2  0  0  0  0
 23 79  1  0  0  0  0
 24 81  1  0  0  0  0
 25 82  1  0  0  0  0
 26 62  2  0  0  0  0
 27 63  1  0  0  0  0
 27 68  1  0  0  0  0
 28 69  1  0  0  0  0
 28 74  2  0  0  0  0
 29 48  1  0  0  0  0
 29 70  1  0  0  0  0
 29 75  2  0  0  0  0
 30 59  1  0  0  0  0
 30 64  1  0  0  0  0
 30 76  2  0  0  0  0
 31 60  1  0  0  0  0
 31 71  1  0  0  0  0
 31 77  2  0  0  0  0
 32 65  1  0  0  0  0
 32 66  1  0  0  0  0
 32 78  2  0  0  0  0
 33 36  1  0  0  0  0
 34 48  1  0  0  0  0
 35 64  1  0  0  0  0
 36 38  1  0  0  0  0
 37 39  1  0  0  0  0
 37 42  1  0  0  0  0
 38 47  1  0  0  0  0
 39 49  1  0  0  0  0
 40 43  1  0  0  0  0
 40 50  1  0  0  0  0
 41 44  1  0  0  0  0
 41 51  1  0  0  0  0
 42 65  1  0  0  0  0
 43 67  1  0  0  0  0
 44 66  1  0  0  0  0
 45 49  1  0  0  0  0
 45 65  1  0  0  0  0
 46 50  1  0  0  0  0
 46 67  1  0  0  0  0
 47 70  1  0  0  0  0
 48 64  1  0  0  0  0
 49 63  1  0  0  0  0
 50 72  1  0  0  0  0
 51 66  1  0  0  0  0
 51 72  1  0  0  0  0
 52 60  1  0  0  0  0
 53 61  1  0  0  0  0
 54 61  1  0  0  0  0
 55 61  1  0  0  0  0
 56 73  1  0  0  0  0
 57 58  1  0  0  0  0
 57 67  1  0  0  0  0
 58 80  1  0  0  0  0
 59 61  1  0  0  0  0
 59 71  1  0  0  0  0
 60 73  1  0  0  0  0
 62 63  1  0  0  0  0
M  CHG  2  72   1  73   1
M  ISO  4  32 100  58 101  66 100  80 101
M  END
> <Batch ID>
0189

> <Smiles>
CNC(C)C(=O)NC(C(=O)N1Cc2cc([101O:1][101CH2:1]CN3CCC(NC4CC[100N:0]4[100C:0](=O)N4CCCC(n5nc(-c6ccc(Oc7ccc(F)cc7F)cc6)c(C(N)=O)c5N)C4)C3)ccc2CC1C(=O)NC1CCCc2ccccc21)C(C)(C)C

> <Shape>
0.313

> <Color>
0.119

> <Negative vol penalty>
0.000

$$$$

  -OEChem-04052323223D

 84 93  0     1  0  0  0  0  0999 V2000
  -31.6409  -22.7739   18.1720 C   0  0  0  0  0  0  0  0  0  0  0  0
  -30.4726  -22.7594   18.9271 C   0  0  0  0  0  0  0  0  0  0  0  0
  -24.2791   -9.4911   22.2605 C   0  0  0  0  0  0  0  0  0  0  0  0
  -23.8382   -9.4168   19.8863 C   0  0  0  0  0  0  0  0  0  0  0  0
  -32.4326  -23.9210   18.1368 C   0  0  0  0  0  0  0  0  0  0  0  0
  -30.0958  -23.8919   19.6483 C   0  0  0  0  0  0  0  0  0  0  0  0
  -25.1729  -24.9671   19.1444 C   0  0  0  0  0  0  0  0  0  0  0  0
  -23.2055   -8.6299   22.4869 C   0  0  0  0  0  0  0  0  0  0  0  0
  -22.7646   -8.5556   20.1126 C   0  0  0  0  0  0  0  0  0  0  0  0
  -24.2749  -24.2032   19.8886 C   0  0  0  0  0  0  0  0  0  0  0  0
  -22.5780   -5.3157   22.2512 C   0  0  0  0  0  0  0  0  0  0  0  0
  -22.7734   -4.2547   23.1352 C   0  0  0  0  0  0  0  0  0  0  0  0
  -24.1179  -25.9805   21.5121 C   0  0  0  0  0  0  0  0  0  0  0  0
  -21.0003   -5.1002   24.5418 C   0  0  0  0  0  0  0  0  0  0  0  0
  -24.5954   -9.8846   20.9602 C   0  0  0  0  0  0  0  0  0  0  0  0
  -27.0449  -10.4181   20.4878 C   0  0  0  0  0  0  0  0  0  0  0  0
  -32.0603  -25.0713   18.8502 C   0  0  0  0  0  0  0  0  0  0  0  0
  -25.5592  -26.2412   19.5848 C   0  0  0  0  0  0  0  0  0  0  0  0
  -30.8840  -25.0550   19.6236 C   0  0  0  0  0  0  0  0  0  0  0  0
  -25.0190  -26.7596   20.7704 C   0  0  0  0  0  0  0  0  0  0  0  0
  -22.4482   -8.1621   21.4129 C   0  0  0  0  0  0  0  0  0  0  0  0
  -23.7495  -24.7087   21.0741 C   0  0  0  0  0  0  0  0  0  0  0  0
  -21.5939   -6.2691   22.5124 C   0  0  0  0  0  0  0  0  0  0  0  0
  -21.9845   -4.1469   24.2805 C   0  0  0  0  0  0  0  0  0  0  0  0
  -20.8050   -6.1613   23.6577 C   0  0  0  0  0  0  0  0  0  0  0  0
  -25.7040  -10.7747   20.7258 C   0  0  0  0  0  0  0  0  0  0  0  0
  -27.6959  -11.6170   20.3285 C   0  0  0  0  0  0  0  0  0  0  0  0
  -27.6480   -9.1193   20.4169 C   0  0  0  0  0  0  0  0  0  0  0  0
  -28.3125  -27.5795   20.4404 C   0  0  0  0  0  0  0  0  0  0  0  0
  -26.5127  -30.2750   20.5731 C   0  0  0  0  0  0  0  0  0  0  0  0
  -23.4246  -31.6819   20.9350 C   0  0  0  0  0  0  0  0  0  0  0  0
  -26.3384  -17.0333   22.4070 C   0  0  0  0  0  0  0  0  0  0  0  0
  -32.9728  -26.2717   18.8192 C   0  0  0  0  0  0  0  0  0  0  0  0
  -26.5083  -27.0634   18.7568 C   0  0  0  0  0  0  0  0  0  0  0  0
  -25.3859  -28.1300   21.2763 C   0  0  0  0  0  0  0  0  0  0  0  0
  -32.3085  -27.5547   19.3120 C   0  0  0  0  0  0  0  0  0  0  0  0
  -26.9935  -16.1096   18.8956 C   0  0  0  0  0  0  0  0  0  0  0  0
  -31.5489  -27.2981   20.6097 C   0  0  0  0  0  0  0  0  0  0  0  0
  -26.8023  -14.5968   18.9496 C   0  0  0  0  0  0  0  0  0  0  0  0
  -25.6360  -19.9011   25.6760 C   0  0  0  0  0  0  0  0  0  0  0  0
  -26.0632  -16.8402   19.8630 C   0  0  0  0  0  0  0  0  0  0  0  0
  -25.9749  -14.8388   21.3228 C   0  0  0  0  0  0  0  0  0  0  0  0
  -26.1051  -21.2823   26.1168 C   0  0  0  0  0  0  0  0  0  0  0  0
  -27.0338  -21.8159   23.8655 C   0  0  0  0  0  0  0  0  0  0  0  0
  -30.4289  -26.2719   20.3997 C   0  0  1  0  0  0  0  0  0  0  0  0
  -27.2276  -28.1394   19.5644 C   0  0  1  0  0  0  0  0  0  0  0  0
  -26.1916  -20.7365   23.2689 C   0  0  1  0  0  0  0  0  0  0  0  0
  -26.9363  -14.0842   20.3917 C   0  0  1  0  0  0  0  0  0  0  0  0
  -26.5963  -19.2897   23.3544 C   0  0  1  0  0  0  0  0  0  0  0  0
  -25.4192  -19.8021   24.1771 C   0  0  1  0  0  0  0  0  0  0  0  0
  -22.2748  -33.9100   21.0384 C   0  0  0  0  0  0  0  0  0  0  0  0
  -27.5373  -30.6689   23.4201 C   0  0  0  0  0  0  0  0  0  0  0  0
  -25.6799  -32.3070   23.7875 C   0  0  0  0  0  0  0  0  0  0  0  0
  -27.4170  -32.7614   22.0558 C   0  0  0  0  0  0  0  0  0  0  0  0
  -28.0303  -22.8648   25.9050 C   0  0  0  0  0  0  0  0  0  0  0  0
  -21.7850  -31.0768   18.5465 C   0  0  0  0  0  0  0  0  0  0  0  0
  -24.0152  -19.4424   23.7678 C   0  0  0  0  0  0  0  0  0  0  0  0
  -23.0208  -20.4958   24.2292 C   0  0  0  0  0  0  0  0  0  0  0  0
  -22.4109  -22.8964   23.9069 C   0  0  0  0  0  0  0  0  0  0  0  0
  -22.8694  -24.1653   23.2157 C   0  0  0  0  0  0  0  0  0  1  0  0
  -25.6918  -30.9610   21.6382 C   0  0  1  0  0  0  0  0  0  0  0  0
  -22.7103  -32.7613   20.1419 C   0  0  2  0  0  0  0  0  0  0  0  0
  -26.5759  -31.6479   22.7171 C   0  0  0  0  0  0  0  0  0  0  0  0
  -25.5131  -12.0966   20.7194 N   0  0  0  0  0  0  0  0  0  0  0  0
  -26.7426  -12.5812   20.4755 N   0  0  0  0  0  0  0  0  0  0  0  0
  -26.3225  -28.8928   20.4346 N   0  0  0  0  0  0  0  0  0  0  0  0
  -26.1601  -16.2919   21.2250 N   0  0  0  0  0  0  0  0  0  0  0  0
  -28.9851  -11.9299   20.0786 N   0  0  0  0  0  0  0  0  0  0  0  0
  -26.8342   -7.9936   20.6040 N   0  0  0  0  0  0  0  0  0  0  0  0
  -29.2921  -26.8900   19.7516 N   0  0  0  0  0  0  0  0  0  0  0  0
  -24.7907  -31.8693   20.9372 N   0  0  0  0  0  0  0  0  0  0  0  0
  -26.4225  -18.4121   22.2504 N   0  0  0  0  0  0  0  0  0  0  0  0
  -27.3433  -21.6545   25.3390 N   0  3  1  0  0  0  0  0  0  0  0  0
  -21.5008  -32.2002   19.4762 N   0  3  0  0  0  0  0  0  0  0  0  0
  -23.3507  -21.7941   23.5815 N   0  3  0  0  0  0  0  0  0  0  0  0
  -28.8753   -8.9622   20.2105 O   0  0  0  0  0  0  0  0  0  0  0  0
  -28.2651  -27.7610   21.6514 O   0  0  0  0  0  0  0  0  0  0  0  0
  -27.2888  -30.9422   19.8845 O   0  0  0  0  0  0  0  0  0  0  0  0
  -22.8299  -30.7662   21.4994 O   0  0  0  0  0  0  0  0  0  0  0  0
  -26.4119  -16.5071   23.5230 O   0  0  0  0  0  0  0  0  0  0  0  0
  -21.4007   -7.3215   21.6334 O   0  0  0  0  0  0  0  0  0  0  0  0
  -22.8733  -23.9649   21.8028 O   0  0  0  0  0  0  0  0  0  1  0  0
  -22.1712   -3.1270   25.1286 F   0  0  0  0  0  0  0  0  0  0  0  0
  -19.8572   -7.0735   23.9135 F   0  0  0  0  0  0  0  0  0  0  0  0
  1  2  1  0  0  0  0
  1  5  2  0  0  0  0
  2  6  2  0  0  0  0
  3  8  2  0  0  0  0
  3 15  1  0  0  0  0
  4  9  1  0  0  0  0
  4 15  2  0  0  0  0
  5 17  1  0  0  0  0
  6 19  1  0  0  0  0
  7 10  2  0  0  0  0
  7 18  1  0  0  0  0
  8 21  1  0  0  0  0
  9 21  2  0  0  0  0
 10 22  1  0  0  0  0
 11 12  2  0  0  0  0
 11 23  1  0  0  0  0
 12 24  1  0  0  0  0
 13 20  1  0  0  0  0
 13 22  2  0  0  0  0
 14 24  2  0  0  0  0
 14 25  1  0  0  0  0
 15 26  1  0  0  0  0
 16 26  1  0  0  0  0
 16 27  2  0  0  0  0
 16 28  1  0  0  0  0
 17 19  2  0  0  0  0
 17 33  1  0  0  0  0
 18 20  2  0  0  0  0
 18 34  1  0  0  0  0
 19 45  1  0  0  0  0
 20 35  1  0  0  0  0
 21 81  1  0  0  0  0
 22 82  1  0  0  0  0
 23 25  2  0  0  0  0
 23 81  1  0  0  0  0
 24 83  1  0  0  0  0
 25 84  1  0  0  0  0
 26 64  2  0  0  0  0
 27 65  1  0  0  0  0
 27 68  1  0  0  0  0
 28 69  1  0  0  0  0
 28 76  2  0  0  0  0
 29 46  1  0  0  0  0
 29 70  1  0  0  0  0
 29 77  2  0  0  0  0
 30 61  1  0  0  0  0
 30 66  1  0  0  0  0
 30 78  2  0  0  0  0
 31 62  1  0  0  0  0
 31 71  1  0  0  0  0
 31 79  2  0  0  0  0
 32 67  1  0  0  0  0
 32 72  1  0  0  0  0
 32 80  2  0  0  0  0
 33 36  1  0  0  0  0
 34 46  1  0  0  0  0
 35 66  1  0  0  0  0
 36 38  1  0  0  0  0
 37 39  1  0  0  0  0
 37 41  1  0  0  0  0
 38 45  1  0  0  0  0
 39 48  1  0  0  0  0
 40 43  1  0  0  0  0
 40 50  1  0  0  0  0
 41 67  1  0  0  0  0
 42 48  1  0  0  0  0
 42 67  1  0  0  0  0
 43 73  1  0  0  0  0
 44 47  1  0  0  0  0
 44 73  1  0  0  0  0
 45 70  1  0  0  0  0
 46 66  1  0  0  0  0
 47 49  1  0  0  0  0
 47 50  1  0  0  0  0
 48 65  1  0  0  0  0
 49 50  1  0  0  0  0
 49 72  1  0  0  0  0
 50 57  1  0  0  0  0
 51 62  1  0  0  0  0
 52 63  1  0  0  0  0
 53 63  1  0  0  0  0
 54 63  1  0  0  0  0
 55 73  1  0  0  0  0
 56 74  1  0  0  0  0
 57 58  1  0  0  0  0
 58 75  1  0  0  0  0
 59 60  1  0  0  0  0
 59 75  1  0  0  0  0
 60 82  1  0  0  0  0
 61 63  1  0  0  0  0
 61 71  1  0  0  0  0
 62 74  1  0  0  0  0
 64 65  1  0  0  0  0
M  CHG  3  73   1  74   1  75   1
M  ISO  4  32 100  60 101  72 100  82 101
M  END
> <Batch ID>
0189

> <Smiles>
CNC(C)C(=O)NC(C(=O)N1Cc2cc([101O:1][101CH2:1]CNCCC34CCN(C)CC3C4[100NH:0][100C:0](=O)N3CCCC(n4nc(-c5ccc(Oc6ccc(F)cc6F)cc5)c(C(N)=O)c4N)C3)ccc2CC1C(=O)NC1CCCc2ccccc21)C(C)(C)C

> <Shape>
0.247

> <Color>
0.069

> <Negative vol penalty>
0.000

$$$$

  -OEChem-04052323223D

 82 91  0     1  0  0  0  0  0999 V2000
  -24.8559  -32.1937   24.5114 C   0  0  0  0  0  0  0  0  0  0  0  0
  -25.1193  -30.8523   24.2534 C   0  0  0  0  0  0  0  0  0  0  0  0
  -23.0326   -9.8537   19.9304 C   0  0  0  0  0  0  0  0  0  0  0  0
  -23.9392   -9.7284   22.1663 C   0  0  0  0  0  0  0  0  0  0  0  0
  -23.5552  -32.6824   24.3954 C   0  0  0  0  0  0  0  0  0  0  0  0
  -24.0820  -29.9984   23.8802 C   0  0  0  0  0  0  0  0  0  0  0  0
  -25.3360  -26.9991   19.9974 C   0  0  0  0  0  0  0  0  0  0  0  0
  -22.3304   -8.6685   20.1487 C   0  0  0  0  0  0  0  0  0  0  0  0
  -23.2369   -8.5432   22.3847 C   0  0  0  0  0  0  0  0  0  0  0  0
  -26.1355  -25.8925   20.2800 C   0  0  0  0  0  0  0  0  0  0  0  0
  -19.4993   -7.7051   21.7266 C   0  0  0  0  0  0  0  0  0  0  0  0
  -18.1649   -7.6585   21.3230 C   0  0  0  0  0  0  0  0  0  0  0  0
  -24.1794  -24.4811   20.2580 C   0  0  0  0  0  0  0  0  0  0  0  0
  -18.6776   -5.8213   19.8401 C   0  0  0  0  0  0  0  0  0  0  0  0
  -28.3396  -21.8699   22.3319 C   0  0  0  0  0  0  0  0  0  0  0  0
  -23.8371  -10.3836   20.9392 C   0  0  0  0  0  0  0  0  0  0  0  0
  -24.1185  -12.9189   20.9682 C   0  0  0  0  0  0  0  0  0  0  0  0
  -22.5030  -31.8362   24.0113 C   0  0  0  0  0  0  0  0  0  0  0  0
  -23.9484  -26.8565   19.8535 C   0  0  0  0  0  0  0  0  0  0  0  0
  -22.7658  -30.4759   23.7603 C   0  0  0  0  0  0  0  0  0  0  0  0
  -23.3648  -25.5870   19.9710 C   0  0  0  0  0  0  0  0  0  0  0  0
  -22.4324   -8.0132   21.3758 C   0  0  0  0  0  0  0  0  0  0  0  0
  -25.5569  -24.6337   20.4132 C   0  0  0  0  0  0  0  0  0  0  0  0
  -20.4229   -6.8098   21.1869 C   0  0  0  0  0  0  0  0  0  0  0  0
  -17.7541   -6.7167   20.3798 C   0  0  0  0  0  0  0  0  0  0  0  0
  -20.0120   -5.8679   20.2437 C   0  0  0  0  0  0  0  0  0  0  0  0
  -24.5633  -11.6076   20.7141 C   0  0  0  0  0  0  0  0  0  0  0  0
  -28.4197  -22.4710   21.1020 C   0  0  0  0  0  0  0  0  0  0  0  0
  -25.1693  -13.7176   20.5878 C   0  0  0  0  0  0  0  0  0  0  0  0
  -29.6229  -20.1819   21.5551 C   0  0  0  0  0  0  0  0  0  0  0  0
  -22.8675  -13.3743   21.5004 C   0  0  0  0  0  0  0  0  0  0  0  0
  -21.4058  -27.9934   21.3853 C   0  0  0  0  0  0  0  0  0  0  0  0
  -19.7895  -26.5240   18.9873 C   0  0  0  0  0  0  0  0  0  0  0  0
  -19.7407  -24.0977   16.5878 C   0  0  0  0  0  0  0  0  0  0  0  0
  -30.6230  -14.8689   20.4808 C   0  0  0  0  0  0  0  0  0  0  0  0
  -21.1056  -32.3995   23.9452 C   0  0  0  0  0  0  0  0  0  0  0  0
  -23.1032  -28.0558   19.5222 C   0  0  0  0  0  0  0  0  0  0  0  0
  -21.8825  -25.3773   19.8056 C   0  0  0  0  0  0  0  0  0  0  0  0
  -20.1266  -31.5120   23.1809 C   0  0  0  0  0  0  0  0  0  0  0  0
  -29.3933  -12.6075   18.0343 C   0  0  0  0  0  0  0  0  0  0  0  0
  -20.2651  -30.0591   23.6244 C   0  0  0  0  0  0  0  0  0  0  0  0
  -27.9920  -12.2516   18.5338 C   0  0  0  0  0  0  0  0  0  0  0  0
  -30.3792  -12.7718   19.1890 C   0  0  0  0  0  0  0  0  0  0  0  0
  -28.5558  -13.3626   20.7357 C   0  0  0  0  0  0  0  0  0  0  0  0
  -29.8719  -17.9369   22.6637 C   0  0  0  0  0  0  0  0  0  0  0  0
  -30.7741  -18.0866   20.7707 C   0  0  0  0  0  0  0  0  0  0  0  0
  -21.6714  -29.5238   23.3290 C   0  0  1  0  0  0  0  0  0  0  0  0
  -21.6372  -27.8778   19.9052 C   0  0  1  0  0  0  0  0  0  0  0  0
  -27.5121  -13.2421   19.6120 C   0  0  2  0  0  0  0  0  0  0  0  0
  -30.7416  -16.9808   21.8352 C   0  0  0  0  0  0  0  0  0  0  0  0
  -18.2675  -23.1148   14.8099 C   0  0  0  0  0  0  0  0  0  0  0  0
  -18.1642  -25.0862   21.1323 C   0  0  0  0  0  0  0  0  0  0  0  0
  -17.4089  -23.4686   19.3771 C   0  0  0  0  0  0  0  0  0  0  0  0
  -16.8302  -25.8866   19.1742 C   0  0  0  0  0  0  0  0  0  0  0  0
  -21.6610  -24.7966   14.4470 C   0  0  0  0  0  0  0  0  0  0  0  0
  -27.7367  -23.7791   20.8305 C   0  0  0  0  0  0  0  0  0  1  0  0
  -19.2139  -25.1448   18.7742 C   0  0  1  0  0  0  0  0  0  0  0  0
  -19.3480  -24.1384   15.1220 C   0  0  2  0  0  0  0  0  0  0  0  0
  -17.9320  -24.9005   19.6195 C   0  0  0  0  0  0  0  0  0  0  0  0
  -28.9449  -20.7007   22.5897 N   0  0  0  0  0  0  0  0  0  0  0  0
  -25.8001  -11.5710   20.2112 N   0  0  0  0  0  0  0  0  0  0  0  0
  -29.1154  -21.9023   20.1007 N   0  0  0  0  0  0  0  0  0  0  0  0
  -29.7358  -20.7258   20.3273 N   0  0  0  0  0  0  0  0  0  0  0  0
  -26.1414  -12.8692   20.1460 N   0  0  0  0  0  0  0  0  0  0  0  0
  -30.2794  -18.9520   21.7707 N   0  0  0  0  0  0  0  0  0  0  0  0
  -21.0976  -26.5818   19.4886 N   0  0  0  0  0  0  0  0  0  0  0  0
  -29.8646  -13.7288   20.1718 N   0  0  0  0  0  0  0  0  0  0  0  0
  -25.3471  -15.0558   20.5915 N   0  0  0  0  0  0  0  0  0  0  0  0
  -21.8985  -12.4201   21.8390 N   0  0  0  0  0  0  0  0  0  0  0  0
  -21.8048  -29.2015   21.9245 N   0  0  0  0  0  0  0  0  0  0  0  0
  -19.0171  -25.0023   17.3357 N   0  0  0  0  0  0  0  0  0  0  0  0
  -30.0662  -15.7357   21.4155 N   0  0  0  0  0  0  0  0  0  0  0  0
  -20.5300  -23.8515   14.2609 N   0  3  0  0  0  0  0  0  0  0  0  0
  -22.6103  -14.5922   21.6554 O   0  0  0  0  0  0  0  0  0  0  0  0
  -20.9012  -27.0564   21.9930 O   0  0  0  0  0  0  0  0  0  0  0  0
  -19.1063  -27.5135   18.7121 O   0  0  0  0  0  0  0  0  0  0  0  0
  -20.6006  -23.3368   17.0261 O   0  0  0  0  0  0  0  0  0  0  0  0
  -31.7171  -15.1085   19.9584 O   0  0  0  0  0  0  0  0  0  0  0  0
  -21.7471   -6.8568   21.5892 O   0  0  0  0  0  0  0  0  0  0  0  0
  -26.3350  -23.5520   20.6897 O   0  0  0  0  0  0  0  0  0  1  0  0
  -16.4723   -6.6710   19.9934 F   0  0  0  0  0  0  0  0  0  0  0  0
  -20.8944   -5.0045   19.7226 F   0  0  0  0  0  0  0  0  0  0  0  0
  1  2  1  0  0  0  0
  1  5  2  0  0  0  0
  2  6  2  0  0  0  0
  3  8  2  0  0  0  0
  3 16  1  0  0  0  0
  4  9  1  0  0  0  0
  4 16  2  0  0  0  0
  5 18  1  0  0  0  0
  6 20  1  0  0  0  0
  7 10  2  0  0  0  0
  7 19  1  0  0  0  0
  8 22  1  0  0  0  0
  9 22  2  0  0  0  0
 10 23  1  0  0  0  0
 11 12  2  0  0  0  0
 11 24  1  0  0  0  0
 12 25  1  0  0  0  0
 13 21  1  0  0  0  0
 13 23  2  0  0  0  0
 14 25  2  0  0  0  0
 14 26  1  0  0  0  0
 15 28  1  0  0  0  0
 15 60  2  0  0  0  0
 16 27  1  0  0  0  0
 17 27  1  0  0  0  0
 17 29  2  0  0  0  0
 17 31  1  0  0  0  0
 18 20  2  0  0  0  0
 18 36  1  0  0  0  0
 19 21  2  0  0  0  0
 19 37  1  0  0  0  0
 20 47  1  0  0  0  0
 21 38  1  0  0  0  0
 22 79  1  0  0  0  0
 23 80  1  0  0  0  0
 24 26  2  0  0  0  0
 24 79  1  0  0  0  0
 25 81  1  0  0  0  0
 26 82  1  0  0  0  0
 27 61  2  0  0  0  0
 28 56  1  0  0  0  0
 28 62  2  0  0  0  0
 29 64  1  0  0  0  0
 29 68  1  0  0  0  0
 30 60  1  0  0  0  0
 30 63  2  0  0  0  0
 30 65  1  0  0  0  0
 31 69  1  0  0  0  0
 31 74  2  0  0  0  0
 32 48  1  0  0  0  0
 32 70  1  0  0  0  0
 32 75  2  0  0  0  0
 33 57  1  0  0  0  0
 33 66  1  0  0  0  0
 33 76  2  0  0  0  0
 34 58  1  0  0  0  0
 34 71  1  0  0  0  0
 34 77  2  0  0  0  0
 35 67  1  0  0  0  0
 35 72  1  0  0  0  0
 35 78  2  0  0  0  0
 36 39  1  0  0  0  0
 37 48  1  0  0  0  0
 38 66  1  0  0  0  0
 39 41  1  0  0  0  0
 40 42  1  0  0  0  0
 40 43  1  0  0  0  0
 41 47  1  0  0  0  0
 42 49  1  0  0  0  0
 43 67  1  0  0  0  0
 44 49  1  0  0  0  0
 44 67  1  0  0  0  0
 45 50  1  0  0  0  0
 45 65  1  0  0  0  0
 46 50  1  0  0  0  0
 46 65  1  0  0  0  0
 47 70  1  0  0  0  0
 48 66  1  0  0  0  0
 49 64  1  0  0  0  0
 50 72  1  0  0  0  0
 51 58  1  0  0  0  0
 52 59  1  0  0  0  0
 53 59  1  0  0  0  0
 54 59  1  0  0  0  0
 55 73  1  0  0  0  0
 56 80  1  0  0  0  0
 57 59  1  0  0  0  0
 57 71  1  0  0  0  0
 58 73  1  0  0  0  0
 61 64  1  0  0  0  0
 62 63  1  0  0  0  0
M  CHG  1  73   1
M  ISO  4  35 100  56 101  72 100  80 101
M  END
> <Batch ID>
0189

> <Smiles>
CNC(C)C(=O)NC(C(=O)N1Cc2cc([101O:1][101CH2:1]c3cnc(N4CC([100NH:0][100C:0](=O)N5CCCC(n6nc(-c7ccc(Oc8ccc(F)cc8F)cc7)c(C(N)=O)c6N)C5)C4)nn3)ccc2CC1C(=O)NC1CCCc2ccccc21)C(C)(C)C

> <Shape>
0.272

> <Color>
0.209

> <Negative vol penalty>
0.000

$$$$

  -OEChem-04052323223D

 89 99  0     1  0  0  0  0  0999 V2000
  -29.0015  -23.4492   18.3654 C   0  0  0  0  0  0  0  0  0  0  0  0
  -27.7990  -24.0110   18.7793 C   0  0  0  0  0  0  0  0  0  0  0  0
  -26.7959  -13.0188   20.7926 C   0  0  0  0  0  0  0  0  0  0  0  0
  -27.6638  -12.4082   18.6221 C   0  0  0  0  0  0  0  0  0  0  0  0
  -30.2033  -23.9198   18.8902 C   0  0  0  0  0  0  0  0  0  0  0  0
  -27.7985  -25.0514   19.7090 C   0  0  0  0  0  0  0  0  0  0  0  0
  -23.4826  -27.2277   20.6255 C   0  0  0  0  0  0  0  0  0  0  0  0
  -26.2754  -11.7338   20.9460 C   0  0  0  0  0  0  0  0  0  0  0  0
  -27.1433  -11.1232   18.7755 C   0  0  0  0  0  0  0  0  0  0  0  0
  -22.4646  -26.6080   21.3489 C   0  0  0  0  0  0  0  0  0  0  0  0
  -23.5893   -9.9897   19.8654 C   0  0  0  0  0  0  0  0  0  0  0  0
  -22.2863   -9.8726   20.3490 C   0  0  0  0  0  0  0  0  0  0  0  0
  -23.0205  -27.9537   23.2723 C   0  0  0  0  0  0  0  0  0  0  0  0
  -23.1009   -8.6047   22.2373 C   0  0  0  0  0  0  0  0  0  0  0  0
  -27.4901  -13.3560   19.6307 C   0  0  0  0  0  0  0  0  0  0  0  0
  -29.3046  -15.1351   19.8548 C   0  0  0  0  0  0  0  0  0  0  0  0
  -30.2159  -24.9581   19.8361 C   0  0  0  0  0  0  0  0  0  0  0  0
  -24.2857  -28.2090   21.2244 C   0  0  0  0  0  0  0  0  0  0  0  0
  -29.0025  -25.5563   20.2324 C   0  0  0  0  0  0  0  0  0  0  0  0
  -24.0464  -28.5861   22.5535 C   0  0  0  0  0  0  0  0  0  0  0  0
  -20.3208  -22.5665   24.7940 C   0  0  0  0  0  0  0  0  0  0  0  0
  -26.4491  -10.7860   19.9374 C   0  0  0  0  0  0  0  0  0  0  0  0
  -22.2353  -26.9689   22.6734 C   0  0  0  0  0  0  0  0  0  0  0  0
  -24.6483   -9.4142   20.5678 C   0  0  0  0  0  0  0  0  0  0  0  0
  -22.0420   -9.1801   21.5349 C   0  0  0  0  0  0  0  0  0  0  0  0
  -24.4040   -8.7217   21.7537 C   0  0  0  0  0  0  0  0  0  0  0  0
  -28.0276  -14.6834   19.4714 C   0  0  0  0  0  0  0  0  0  0  0  0
  -21.0678  -23.7201   24.6694 C   0  0  0  0  0  0  0  0  0  0  0  0
  -20.8437  -21.4473   24.1789 C   0  0  0  0  0  0  0  0  0  0  0  0
  -29.3245  -16.4589   19.4894 C   0  0  0  0  0  0  0  0  0  0  0  0
  -22.6405  -22.6293   23.4431 C   0  0  0  0  0  0  0  0  0  0  0  0
  -30.3770  -14.4217   20.4848 C   0  0  0  0  0  0  0  0  0  0  0  0
  -27.3858  -28.4829   21.8709 C   0  0  0  0  0  0  0  0  0  0  0  0
  -26.5356  -31.4820   22.7680 C   0  0  0  0  0  0  0  0  0  0  0  0
  -24.0870  -33.5967   23.8537 C   0  0  0  0  0  0  0  0  0  0  0  0
  -24.6911  -20.3020   18.6124 C   0  0  0  0  0  0  0  0  0  0  0  0
  -31.5457  -25.4340   20.3656 C   0  0  0  0  0  0  0  0  0  0  0  0
  -25.3624  -28.8869   20.4222 C   0  0  0  0  0  0  0  0  0  0  0  0
  -24.8672  -29.6483   23.2365 C   0  0  0  0  0  0  0  0  0  0  0  0
  -31.4201  -26.2258   21.6632 C   0  0  0  0  0  0  0  0  0  0  0  0
  -27.4398  -19.5043   16.3142 C   0  0  0  0  0  0  0  0  0  0  0  0
  -19.0137  -23.0082   26.9781 C   0  0  0  0  0  0  0  0  0  0  0  0
  -18.8604  -21.5517   26.6691 C   0  0  0  0  0  0  0  0  0  0  0  0
  -30.3515  -27.2986   21.5160 C   0  0  0  0  0  0  0  0  0  0  0  0
  -27.9801  -18.1887   16.8762 C   0  0  0  0  0  0  0  0  0  0  0  0
  -25.8971  -21.7254   21.7803 C   0  0  0  0  0  0  0  0  0  0  0  0
  -25.9459  -19.6703   16.5834 C   0  0  0  0  0  0  0  0  0  0  0  0
  -26.1450  -20.6910   20.6874 C   0  0  0  0  0  0  0  0  0  0  0  0
  -26.0970  -18.1974   18.5534 C   0  0  0  0  0  0  0  0  0  0  0  0
  -23.8184  -21.2837   20.7138 C   0  0  0  0  0  0  0  0  0  0  0  0
  -19.0339  -22.5409   25.5461 C   0  0  0  0  0  0  0  0  0  0  0  0
  -28.9756  -26.6683   21.2655 C   0  0  1  0  0  0  0  0  0  0  0  0
  -26.4528  -29.5075   21.2901 C   0  0  1  0  0  0  0  0  0  0  0  0
  -27.6103  -18.0261   18.3624 C   0  0  1  0  0  0  0  0  0  0  0  0
  -24.4191  -21.5176   22.0918 C   0  0  2  0  0  0  0  0  0  0  0  0
  -23.7032  -35.9807   24.5367 C   0  0  0  0  0  0  0  0  0  0  0  0
  -27.8917  -30.9308   25.4451 C   0  0  0  0  0  0  0  0  0  0  0  0
  -26.6795  -32.9084   26.3873 C   0  0  0  0  0  0  0  0  0  0  0  0
  -28.3029  -33.2170   24.5186 C   0  0  0  0  0  0  0  0  0  0  0  0
  -20.7624  -18.9548   24.2583 C   0  0  0  0  0  0  0  0  0  0  0  0
  -22.1261  -34.0258   21.6789 C   0  0  0  0  0  0  0  0  0  0  0  0
  -20.6037  -24.9956   25.2925 C   0  0  0  0  0  0  0  0  0  0  0  0
  -21.3853  -26.2172   24.8020 C   0  0  0  0  0  0  0  0  0  1  0  0
  -26.0719  -32.1221   24.0541 C   0  0  1  0  0  0  0  0  0  0  0  0
  -23.6739  -34.9820   23.3903 C   0  0  2  0  0  0  0  0  0  0  0  0
  -27.2221  -32.2731   25.0893 C   0  0  0  0  0  0  0  0  0  0  0  0
  -27.2897  -15.6424   18.9060 N   0  0  0  0  0  0  0  0  0  0  0  0
  -22.2364  -23.7876   23.9986 N   0  0  0  0  0  0  0  0  0  0  0  0
  -22.0052  -21.4429   23.4924 N   0  0  0  0  0  0  0  0  0  0  0  0
  -28.1056  -16.7100   18.9315 N   0  0  0  0  0  0  0  0  0  0  0  0
  -25.9123  -30.2775   22.4122 N   0  0  0  0  0  0  0  0  0  0  0  0
  -25.6440  -19.4790   18.0021 N   0  0  0  0  0  0  0  0  0  0  0  0
  -24.8765  -20.6181   19.9576 N   0  0  0  0  0  0  0  0  0  0  0  0
  -30.2656  -17.4211   19.5943 N   0  0  0  0  0  0  0  0  0  0  0  0
  -30.1890  -13.0671   20.7915 N   0  0  0  0  0  0  0  0  0  0  0  0
  -20.1237  -20.2305   24.2702 N   0  0  0  0  0  0  0  0  0  0  0  0
  -23.8399  -22.6618   22.7447 N   0  0  0  0  0  0  0  0  0  0  0  0
  -28.0334  -27.7114   20.9249 N   0  0  0  0  0  0  0  0  0  0  0  0
  -25.4374  -33.3808   23.6780 N   0  0  0  0  0  0  0  0  0  0  0  0
  -22.2935  -34.9504   22.8296 N   0  3  0  0  0  0  0  0  0  0  0  0
  -31.4635  -14.9735   20.7822 O   0  0  0  0  0  0  0  0  0  0  0  0
  -27.5100  -28.3994   23.0871 O   0  0  0  0  0  0  0  0  0  0  0  0
  -27.4134  -32.0341   22.0999 O   0  0  0  0  0  0  0  0  0  0  0  0
  -23.2918  -32.7883   24.3280 O   0  0  0  0  0  0  0  0  0  0  0  0
  -23.7417  -20.7726   17.9719 O   0  0  0  0  0  0  0  0  0  0  0  0
  -25.9415   -9.5320   20.0868 O   0  0  0  0  0  0  0  0  0  0  0  0
  -21.2232  -26.3533   23.3959 O   0  0  0  0  0  0  0  0  0  1  0  0
  -20.7908   -9.0691   22.0000 F   0  0  0  0  0  0  0  0  0  0  0  0
  -25.4174   -8.1678   22.4335 F   0  0  0  0  0  0  0  0  0  0  0  0
  1  2  1  0  0  0  0
  1  5  2  0  0  0  0
  2  6  2  0  0  0  0
  3  8  2  0  0  0  0
  3 15  1  0  0  0  0
  4  9  1  0  0  0  0
  4 15  2  0  0  0  0
  5 17  1  0  0  0  0
  6 19  1  0  0  0  0
  7 10  2  0  0  0  0
  7 18  1  0  0  0  0
  8 22  1  0  0  0  0
  9 22  2  0  0  0  0
 10 23  1  0  0  0  0
 11 12  2  0  0  0  0
 11 24  1  0  0  0  0
 12 25  1  0  0  0  0
 13 20  1  0  0  0  0
 13 23  2  0  0  0  0
 14 25  2  0  0  0  0
 14 26  1  0  0  0  0
 15 27  1  0  0  0  0
 16 27  1  0  0  0  0
 16 30  2  0  0  0  0
 16 32  1  0  0  0  0
 17 19  2  0  0  0  0
 17 37  1  0  0  0  0
 18 20  2  0  0  0  0
 18 38  1  0  0  0  0
 19 52  1  0  0  0  0
 20 39  1  0  0  0  0
 21 28  1  0  0  0  0
 21 29  2  0  0  0  0
 21 51  1  0  0  0  0
 22 86  1  0  0  0  0
 23 87  1  0  0  0  0
 24 26  2  0  0  0  0
 24 86  1  0  0  0  0
 25 88  1  0  0  0  0
 26 89  1  0  0  0  0
 27 67  2  0  0  0  0
 28 62  1  0  0  0  0
 28 68  2  0  0  0  0
 29 69  1  0  0  0  0
 29 76  1  0  0  0  0
 30 70  1  0  0  0  0
 30 74  1  0  0  0  0
 31 68  1  0  0  0  0
 31 69  2  0  0  0  0
 31 77  1  0  0  0  0
 32 75  1  0  0  0  0
 32 81  2  0  0  0  0
 33 53  1  0  0  0  0
 33 78  1  0  0  0  0
 33 82  2  0  0  0  0
 34 64  1  0  0  0  0
 34 71  1  0  0  0  0
 34 83  2  0  0  0  0
 35 65  1  0  0  0  0
 35 79  1  0  0  0  0
 35 84  2  0  0  0  0
 36 72  1  0  0  0  0
 36 73  1  0  0  0  0
 36 85  2  0  0  0  0
 37 40  1  0  0  0  0
 38 53  1  0  0  0  0
 39 71  1  0  0  0  0
 40 44  1  0  0  0  0
 41 45  1  0  0  0  0
 41 47  1  0  0  0  0
 42 43  1  0  0  0  0
 42 51  1  0  0  0  0
 43 51  1  0  0  0  0
 44 52  1  0  0  0  0
 45 54  1  0  0  0  0
 46 48  1  0  0  0  0
 46 55  1  0  0  0  0
 47 72  1  0  0  0  0
 48 73  1  0  0  0  0
 49 54  1  0  0  0  0
 49 72  1  0  0  0  0
 50 55  1  0  0  0  0
 50 73  1  0  0  0  0
 52 78  1  0  0  0  0
 53 71  1  0  0  0  0
 54 70  1  0  0  0  0
 55 77  1  0  0  0  0
 56 65  1  0  0  0  0
 57 66  1  0  0  0  0
 58 66  1  0  0  0  0
 59 66  1  0  0  0  0
 60 76  1  0  0  0  0
 61 80  1  0  0  0  0
 62 63  1  0  0  0  0
 63 87  1  0  0  0  0
 64 66  1  0  0  0  0
 64 79  1  0  0  0  0
 65 80  1  0  0  0  0
 67 70  1  0  0  0  0
M  CHG  1  80   1
M  ISO  4  36 100  63 101  73 100  87 101
M  END
> <Batch ID>
0189

> <Smiles>
CNc1nc(NC2CC[100N:0]([100C:0](=O)N3CCCC(n4nc(-c5ccc(Oc6ccc(F)cc6F)cc5)c(C(N)=O)c4N)C3)C2)nc(C[101CH2:1][101O:1]c2ccc3c(c2)CN(C(=O)C(NC(=O)C(C)NC)C(C)(C)C)C(C(=O)NC2CCCc4ccccc42)C3)c1C1CC1

> <Shape>
0.255

> <Color>
0.068

> <Negative vol penalty>
0.000

$$$$

  -OEChem-04052323223D

 84 93  0     1  0  0  0  0  0999 V2000
  -33.3175  -29.0098   18.0332 C   0  0  0  0  0  0  0  0  0  0  0  0
  -33.2039  -28.2462   19.1905 C   0  0  0  0  0  0  0  0  0  0  0  0
  -23.0805   -9.8632   19.9446 C   0  0  0  0  0  0  0  0  0  0  0  0
  -23.8345   -9.8811   22.2398 C   0  0  0  0  0  0  0  0  0  0  0  0
  -32.6807  -17.4937   23.4345 C   0  0  0  0  0  0  0  0  0  0  0  0
  -32.3000  -29.8956   17.6811 C   0  0  0  0  0  0  0  0  0  0  0  0
  -32.0731  -28.3689   19.9972 C   0  0  0  0  0  0  0  0  0  0  0  0
  -30.2537  -23.8840   21.4872 C   0  0  0  0  0  0  0  0  0  0  0  0
  -32.0686  -16.6153   22.5392 C   0  0  0  0  0  0  0  0  0  0  0  0
  -22.3369   -8.7106   20.1978 C   0  0  0  0  0  0  0  0  0  0  0  0
  -23.0909   -8.7284   22.4931 C   0  0  0  0  0  0  0  0  0  0  0  0
  -30.9192  -23.2416   22.5303 C   0  0  0  0  0  0  0  0  0  0  0  0
  -19.8619   -7.9306   23.0909 C   0  0  0  0  0  0  0  0  0  0  0  0
  -19.1020   -7.8953   24.2601 C   0  0  0  0  0  0  0  0  0  0  0  0
  -29.8582  -17.4715   23.1230 C   0  0  0  0  0  0  0  0  0  0  0  0
  -29.2379  -24.0207   24.0748 C   0  0  0  0  0  0  0  0  0  0  0  0
  -20.3431   -5.9622   25.0083 C   0  0  0  0  0  0  0  0  0  0  0  0
  -23.8293  -10.4485   20.9656 C   0  0  0  0  0  0  0  0  0  0  0  0
  -31.8567  -18.3394   24.1512 C   0  0  0  0  0  0  0  0  0  0  0  0
  -24.1694  -12.9733   20.8352 C   0  0  0  0  0  0  0  0  0  0  0  0
  -31.1518  -30.0221   18.4788 C   0  0  0  0  0  0  0  0  0  0  0  0
  -29.0792  -24.6099   21.7323 C   0  0  0  0  0  0  0  0  0  0  0  0
  -31.0399  -29.2583   19.6562 C   0  0  0  0  0  0  0  0  0  0  0  0
  -30.4684  -18.3395   24.0086 C   0  0  0  0  0  0  0  0  0  0  0  0
  -28.5580  -24.6693   23.0326 C   0  0  0  0  0  0  0  0  0  0  0  0
  -30.6700  -16.6040   22.3846 C   0  0  0  0  0  0  0  0  0  0  0  0
  -22.3421   -8.1432   21.4720 C   0  0  0  0  0  0  0  0  0  0  0  0
  -30.4130  -23.3123   23.8248 C   0  0  0  0  0  0  0  0  0  0  0  0
  -20.8623   -6.9817   22.8804 C   0  0  0  0  0  0  0  0  0  0  0  0
  -19.3426   -6.9111   25.2188 C   0  0  0  0  0  0  0  0  0  0  0  0
  -21.1030   -5.9975   23.8391 C   0  0  0  0  0  0  0  0  0  0  0  0
  -24.5981  -11.6388   20.7045 C   0  0  0  0  0  0  0  0  0  0  0  0
  -25.2618  -13.7221   20.4713 C   0  0  0  0  0  0  0  0  0  0  0  0
  -32.2183  -19.3520   25.1496 C   0  0  0  0  0  0  0  0  0  0  0  0
  -22.8974  -13.4900   21.2485 C   0  0  0  0  0  0  0  0  0  0  0  0
  -28.2159  -27.6528   21.4170 C   0  0  0  0  0  0  0  0  0  0  0  0
  -25.2966  -26.5045   22.2427 C   0  0  0  0  0  0  0  0  0  0  0  0
  -23.4727  -24.0743   23.7963 C   0  0  0  0  0  0  0  0  0  0  0  0
  -30.7267  -14.7730   20.6553 C   0  0  0  0  0  0  0  0  0  0  0  0
  -30.0998  -31.0276   18.0824 C   0  0  0  0  0  0  0  0  0  0  0  0
  -28.3586  -25.2749   20.5917 C   0  0  0  0  0  0  0  0  0  0  0  0
  -29.8523  -19.3550   24.9090 C   0  0  0  0  0  0  0  0  0  0  0  0
  -27.2895  -25.4187   23.3450 C   0  0  0  0  0  0  0  0  0  0  0  0
  -28.7642  -30.8240   18.7932 C   0  0  0  0  0  0  0  0  0  0  0  0
  -29.6203  -12.3477   18.2950 C   0  0  0  0  0  0  0  0  0  0  0  0
  -28.9824  -30.6053   20.2870 C   0  0  0  0  0  0  0  0  0  0  0  0
  -28.1798  -12.0569   18.7222 C   0  0  0  0  0  0  0  0  0  0  0  0
  -30.5322  -12.5826   19.4979 C   0  0  0  0  0  0  0  0  0  0  0  0
  -28.6211  -13.3117   20.8711 C   0  0  0  0  0  0  0  0  0  0  0  0
  -29.8174  -29.3451   20.5439 C   0  0  1  0  0  0  0  0  0  0  0  0
  -27.4507  -26.4152   21.0421 C   0  0  1  0  0  0  0  0  0  0  0  0
  -27.6514  -13.1323   19.6916 C   0  0  2  0  0  0  0  0  0  0  0  0
  -21.1091  -23.4286   24.3386 C   0  0  0  0  0  0  0  0  0  0  0  0
  -30.0804  -20.4800   27.7405 C   0  0  0  0  0  0  0  0  0  0  0  0
  -25.2285  -28.6142   24.4460 C   0  0  0  0  0  0  0  0  0  0  0  0
  -23.3585  -27.3375   25.5144 C   0  0  0  0  0  0  0  0  0  0  0  0
  -23.0638  -28.3023   23.2330 C   0  0  0  0  0  0  0  0  0  0  0  0
  -23.6856  -21.5542   22.2591 C   0  0  0  0  0  0  0  0  0  0  0  0
  -30.2631  -22.2202   25.9321 C   0  0  0  0  0  0  0  0  0  1  0  0
  -24.5613  -26.2890   23.5434 C   0  0  1  0  0  0  0  0  0  0  0  0
  -22.2543  -23.2876   23.3479 C   0  0  2  0  0  0  0  0  0  0  0  0
  -30.8953  -20.9759   26.5531 C   0  0  2  0  0  0  0  0  0  0  0  0
  -24.0780  -27.6232   24.1790 C   0  0  0  0  0  0  0  0  0  0  0  0
  -25.8641  -11.5422   20.2899 N   0  0  0  0  0  0  0  0  0  0  0  0
  -26.2403  -12.8255   20.1568 N   0  0  0  0  0  0  0  0  0  0  0  0
  -31.0217  -19.9247   25.5693 N   0  0  0  0  0  0  0  0  0  0  0  0
  -26.6248  -26.0575   22.1971 N   0  0  0  0  0  0  0  0  0  0  0  0
  -29.9701  -13.6169   20.3693 N   0  0  0  0  0  0  0  0  0  0  0  0
  -25.4714  -15.0534   20.3929 N   0  0  0  0  0  0  0  0  0  0  0  0
  -21.8854  -12.5815   21.5873 N   0  0  0  0  0  0  0  0  0  0  0  0
  -30.0765  -15.7012   21.4679 N   0  0  0  0  0  0  0  0  0  0  0  0
  -29.0005  -28.1593   20.3986 N   0  0  0  0  0  0  0  0  0  0  0  0
  -23.4898  -25.3421   23.2545 N   0  0  0  0  0  0  0  0  0  0  0  0
  -22.5898  -21.8412   23.2203 N   0  3  0  0  0  0  0  0  0  0  0  0
  -33.3606  -19.5916   25.4953 O   0  0  0  0  0  0  0  0  0  0  0  0
  -22.6600  -14.7206   21.2998 O   0  0  0  0  0  0  0  0  0  0  0  0
  -28.1017  -28.1148   22.5463 O   0  0  0  0  0  0  0  0  0  0  0  0
  -24.7118  -27.0429   21.2994 O   0  0  0  0  0  0  0  0  0  0  0  0
  -24.3222  -23.6117   24.5545 O   0  0  0  0  0  0  0  0  0  0  0  0
  -31.8569  -14.9406   20.1898 O   0  0  0  0  0  0  0  0  0  0  0  0
  -21.6164   -7.0186   21.7195 O   0  0  0  0  0  0  0  0  0  0  0  0
  -31.0610  -22.6868   24.8450 O   0  0  0  0  0  0  0  0  0  1  0  0
  -18.6138   -6.8783   26.3421 F   0  0  0  0  0  0  0  0  0  0  0  0
  -22.0635   -5.0839   23.6430 F   0  0  0  0  0  0  0  0  0  0  0  0
  1  2  1  0  0  0  0
  1  6  2  0  0  0  0
  2  7  2  0  0  0  0
  3 10  2  0  0  0  0
  3 18  1  0  0  0  0
  4 11  1  0  0  0  0
  4 18  2  0  0  0  0
  5  9  2  0  0  0  0
  5 19  1  0  0  0  0
  6 21  1  0  0  0  0
  7 23  1  0  0  0  0
  8 12  2  0  0  0  0
  8 22  1  0  0  0  0
  9 26  1  0  0  0  0
 10 27  1  0  0  0  0
 11 27  2  0  0  0  0
 12 28  1  0  0  0  0
 13 14  2  0  0  0  0
 13 29  1  0  0  0  0
 14 30  1  0  0  0  0
 15 24  1  0  0  0  0
 15 26  2  0  0  0  0
 16 25  1  0  0  0  0
 16 28  2  0  0  0  0
 17 30  2  0  0  0  0
 17 31  1  0  0  0  0
 18 32  1  0  0  0  0
 19 24  2  0  0  0  0
 19 34  1  0  0  0  0
 20 32  1  0  0  0  0
 20 33  2  0  0  0  0
 20 35  1  0  0  0  0
 21 23  2  0  0  0  0
 21 40  1  0  0  0  0
 22 25  2  0  0  0  0
 22 41  1  0  0  0  0
 23 50  1  0  0  0  0
 24 42  1  0  0  0  0
 25 43  1  0  0  0  0
 26 71  1  0  0  0  0
 27 81  1  0  0  0  0
 28 82  1  0  0  0  0
 29 31  2  0  0  0  0
 29 81  1  0  0  0  0
 30 83  1  0  0  0  0
 31 84  1  0  0  0  0
 32 64  2  0  0  0  0
 33 65  1  0  0  0  0
 33 69  1  0  0  0  0
 34 66  1  0  0  0  0
 34 75  2  0  0  0  0
 35 70  1  0  0  0  0
 35 76  2  0  0  0  0
 36 51  1  0  0  0  0
 36 72  1  0  0  0  0
 36 77  2  0  0  0  0
 37 60  1  0  0  0  0
 37 67  1  0  0  0  0
 37 78  2  0  0  0  0
 38 61  1  0  0  0  0
 38 73  1  0  0  0  0
 38 79  2  0  0  0  0
 39 68  1  0  0  0  0
 39 71  1  0  0  0  0
 39 80  2  0  0  0  0
 40 44  1  0  0  0  0
 41 51  1  0  0  0  0
 42 66  1  0  0  0  0
 43 67  1  0  0  0  0
 44 46  1  0  0  0  0
 45 47  1  0  0  0  0
 45 48  1  0  0  0  0
 46 50  1  0  0  0  0
 47 52  1  0  0  0  0
 48 68  1  0  0  0  0
 49 52  1  0  0  0  0
 49 68  1  0  0  0  0
 50 72  1  0  0  0  0
 51 67  1  0  0  0  0
 52 65  1  0  0  0  0
 53 61  1  0  0  0  0
 54 62  1  0  0  0  0
 55 63  1  0  0  0  0
 56 63  1  0  0  0  0
 57 63  1  0  0  0  0
 58 74  1  0  0  0  0
 59 62  1  0  0  0  0
 59 82  1  0  0  0  0
 60 63  1  0  0  0  0
 60 73  1  0  0  0  0
 61 74  1  0  0  0  0
 62 66  1  0  0  0  0
 64 65  1  0  0  0  0
M  CHG  1  74   1
M  ISO  4  39 100  59 101  71 100  82 101
M  END
> <Batch ID>
0189

> <Smiles>
CNC(C)C(=O)NC(C(=O)N1Cc2cc([101O:1][101CH2:1]C(C)N3Cc4cc([100NH:0][100C:0](=O)N5CCCC(n6nc(-c7ccc(Oc8ccc(F)cc8F)cc7)c(C(N)=O)c6N)C5)ccc4C3=O)ccc2CC1C(=O)NC1CCCc2ccccc21)C(C)(C)C

> <Shape>
0.207

> <Color>
0.191

> <Negative vol penalty>
0.000

$$$$

  -OEChem-04052323223D

 82 90  0     1  0  0  0  0  0999 V2000
  -17.0175  -30.9331   23.6139 C   0  0  0  0  0  0  0  0  0  0  0  0
  -18.3241  -31.3782   23.4410 C   0  0  0  0  0  0  0  0  0  0  0  0
  -26.6467  -12.9262   21.4270 C   0  0  0  0  0  0  0  0  0  0  0  0
  -25.5700  -12.4555   19.3160 C   0  0  0  0  0  0  0  0  0  0  0  0
  -16.7362  -29.5681   23.5740 C   0  0  0  0  0  0  0  0  0  0  0  0
  -19.3506  -30.4584   23.2292 C   0  0  0  0  0  0  0  0  0  0  0  0
  -25.5768  -29.7419   19.7598 C   0  0  0  0  0  0  0  0  0  0  0  0
  -25.6261  -12.2524   22.0978 C   0  0  0  0  0  0  0  0  0  0  0  0
  -24.5494  -11.7817   19.9868 C   0  0  0  0  0  0  0  0  0  0  0  0
  -26.9036  -29.3818   19.9914 C   0  0  0  0  0  0  0  0  0  0  0  0
  -24.0828   -8.7524   21.4102 C   0  0  0  0  0  0  0  0  0  0  0  0
  -23.6716   -7.5234   20.8945 C   0  0  0  0  0  0  0  0  0  0  0  0
  -26.2876  -27.0530   19.8629 C   0  0  0  0  0  0  0  0  0  0  0  0
  -21.4377   -8.3948   20.5991 C   0  0  0  0  0  0  0  0  0  0  0  0
  -26.6187  -13.0277   20.0361 C   0  0  0  0  0  0  0  0  0  0  0  0
  -28.8732  -13.1772   18.8518 C   0  0  0  0  0  0  0  0  0  0  0  0
  -17.7582  -28.6317   23.3519 C   0  0  0  0  0  0  0  0  0  0  0  0
  -24.5919  -28.7586   19.5886 C   0  0  0  0  0  0  0  0  0  0  0  0
  -19.0829  -29.0795   23.1876 C   0  0  0  0  0  0  0  0  0  0  0  0
  -24.9495  -27.4033   19.6267 C   0  0  0  0  0  0  0  0  0  0  0  0
  -24.5774  -11.6802   21.3777 C   0  0  0  0  0  0  0  0  0  0  0  0
  -27.2587  -28.0372   20.0459 C   0  0  0  0  0  0  0  0  0  0  0  0
  -23.1715   -9.8026   21.5204 C   0  0  0  0  0  0  0  0  0  0  0  0
  -22.3491   -7.3446   20.4889 C   0  0  0  0  0  0  0  0  0  0  0  0
  -21.8489   -9.6238   21.1149 C   0  0  0  0  0  0  0  0  0  0  0  0
  -27.6724  -13.7241   19.3426 C   0  0  0  0  0  0  0  0  0  0  0  0
  -29.5268  -14.2415   18.2803 C   0  0  0  0  0  0  0  0  0  0  0  0
  -29.3547  -11.8279   18.9076 C   0  0  0  0  0  0  0  0  0  0  0  0
  -21.9441  -27.9408   21.1455 C   0  0  0  0  0  0  0  0  0  0  0  0
  -21.5689  -25.9070   18.6465 C   0  0  0  0  0  0  0  0  0  0  0  0
  -23.0119  -24.1308   16.1147 C   0  0  0  0  0  0  0  0  0  0  0  0
  -29.1758  -20.0478   19.4165 C   0  0  0  0  0  0  0  0  0  0  0  0
  -17.4129  -27.1636   23.3641 C   0  0  0  0  0  0  0  0  0  0  0  0
  -23.1698  -29.1637   19.3130 C   0  0  0  0  0  0  0  0  0  0  0  0
  -23.9335  -26.3092   19.4290 C   0  0  0  0  0  0  0  0  0  0  0  0
  -18.4998  -26.2772   22.7614 C   0  0  0  0  0  0  0  0  0  0  0  0
  -28.7398  -18.4317   16.1549 C   0  0  0  0  0  0  0  0  0  0  0  0
  -19.8703  -26.6687   23.3049 C   0  0  0  0  0  0  0  0  0  0  0  0
  -28.4660  -16.9919   16.5761 C   0  0  0  0  0  0  0  0  0  0  0  0
  -27.9949  -23.1484   19.9373 C   0  0  0  0  0  0  0  0  0  0  0  0
  -28.1731  -19.4462   17.1490 C   0  0  0  0  0  0  0  0  0  0  0  0
  -27.6680  -22.1103   18.8594 C   0  0  0  0  0  0  0  0  0  0  0  0
  -28.3380  -17.7684   18.9687 C   0  0  0  0  0  0  0  0  0  0  0  0
  -20.2197  -28.1142   22.9308 C   0  0  1  0  0  0  0  0  0  0  0  0
  -22.1598  -28.0758   19.6646 C   0  0  1  0  0  0  0  0  0  0  0  0
  -28.9631  -16.7468   18.0085 C   0  0  1  0  0  0  0  0  0  0  0  0
  -29.3855  -22.5091   20.0714 C   0  0  2  0  0  0  0  0  0  0  0  0
  -22.4539  -22.5305   14.2640 C   0  0  0  0  0  0  0  0  0  0  0  0
  -33.3044  -25.9950   21.5972 C   0  0  0  0  0  0  0  0  0  0  0  0
  -21.2785  -23.6550   20.6847 C   0  0  0  0  0  0  0  0  0  0  0  0
  -21.6784  -22.0200   18.8313 C   0  0  0  0  0  0  0  0  0  0  0  0
  -19.6920  -23.5271   18.7557 C   0  0  0  0  0  0  0  0  0  0  0  0
  -23.9992  -26.0003   14.0437 C   0  0  0  0  0  0  0  0  0  0  0  0
  -30.5356  -23.1719   19.3393 C   0  0  0  0  0  0  0  0  0  0  0  0
  -30.8168  -27.7842   19.4803 C   0  0  0  0  0  0  0  0  0  0  0  0
  -32.1465  -25.0724   19.5177 C   0  0  0  0  0  0  0  0  0  0  0  0
  -29.5628  -28.5782   19.8122 C   0  0  0  0  0  0  0  0  0  1  0  0
  -21.9942  -24.4895   18.3486 C   0  0  1  0  0  0  0  0  0  0  0  0
  -22.6467  -23.9893   14.6481 C   0  0  2  0  0  0  0  0  0  0  0  0
  -32.5092  -26.3122   20.3344 C   0  0  1  0  0  0  0  0  0  0  0  0
  -21.1798  -23.4432   19.1608 C   0  0  0  0  0  0  0  0  0  0  0  0
  -27.5668  -15.0340   19.1038 N   0  0  0  0  0  0  0  0  0  0  0  0
  -28.7097  -15.3192   18.4568 N   0  0  0  0  0  0  0  0  0  0  0  0
  -22.5550  -26.7559   19.1687 N   0  0  0  0  0  0  0  0  0  0  0  0
  -28.5781  -19.1475   18.5278 N   0  0  0  0  0  0  0  0  0  0  0  0
  -28.8431  -21.3801   19.3122 N   0  0  0  0  0  0  0  0  0  0  0  0
  -30.7150  -14.3513   17.6490 N   0  0  0  0  0  0  0  0  0  0  0  0
  -28.5570  -10.8590   19.5314 N   0  0  0  0  0  0  0  0  0  0  0  0
  -20.6464  -28.1898   21.5500 N   0  0  0  0  0  0  0  0  0  0  0  0
  -21.8973  -24.3297   16.9017 N   0  0  0  0  0  0  0  0  0  0  0  0
  -31.3338  -27.0874   20.6559 N   0  0  0  0  0  0  0  0  0  0  0  0
  -23.7207  -24.5634   13.7891 N   0  3  0  0  0  0  0  0  0  0  0  0
  -30.9775  -24.3598   20.1047 N   0  3  0  0  0  0  0  0  0  0  0  0
  -30.4671  -11.4946   18.4332 O   0  0  0  0  0  0  0  0  0  0  0  0
  -22.8849  -27.6321   21.8674 O   0  0  0  0  0  0  0  0  0  0  0  0
  -20.4065  -26.2503   18.4174 O   0  0  0  0  0  0  0  0  0  0  0  0
  -24.1697  -24.0673   16.5220 O   0  0  0  0  0  0  0  0  0  0  0  0
  -29.9599  -19.6728   20.2983 O   0  0  0  0  0  0  0  0  0  0  0  0
  -23.5814  -11.0225   22.0319 O   0  0  0  0  0  0  0  0  0  0  0  0
  -28.5622  -27.6803   20.2741 O   0  0  0  0  0  0  0  0  0  1  0  0
  -21.9547   -6.1647   19.9923 F   0  0  0  0  0  0  0  0  0  0  0  0
  -20.9691  -10.6294   21.2172 F   0  0  0  0  0  0  0  0  0  0  0  0
  1  2  1  0  0  0  0
  1  5  2  0  0  0  0
  2  6  2  0  0  0  0
  3  8  2  0  0  0  0
  3 15  1  0  0  0  0
  4  9  1  0  0  0  0
  4 15  2  0  0  0  0
  5 17  1  0  0  0  0
  6 19  1  0  0  0  0
  7 10  2  0  0  0  0
  7 18  1  0  0  0  0
  8 21  1  0  0  0  0
  9 21  2  0  0  0  0
 10 22  1  0  0  0  0
 11 12  2  0  0  0  0
 11 23  1  0  0  0  0
 12 24  1  0  0  0  0
 13 20  1  0  0  0  0
 13 22  2  0  0  0  0
 14 24  2  0  0  0  0
 14 25  1  0  0  0  0
 15 26  1  0  0  0  0
 16 26  1  0  0  0  0
 16 27  2  0  0  0  0
 16 28  1  0  0  0  0
 17 19  2  0  0  0  0
 17 33  1  0  0  0  0
 18 20  2  0  0  0  0
 18 34  1  0  0  0  0
 19 44  1  0  0  0  0
 20 35  1  0  0  0  0
 21 79  1  0  0  0  0
 22 80  1  0  0  0  0
 23 25  2  0  0  0  0
 23 79  1  0  0  0  0
 24 81  1  0  0  0  0
 25 82  1  0  0  0  0
 26 62  2  0  0  0  0
 27 63  1  0  0  0  0
 27 67  1  0  0  0  0
 28 68  1  0  0  0  0
 28 74  2  0  0  0  0
 29 45  1  0  0  0  0
 29 69  1  0  0  0  0
 29 75  2  0  0  0  0
 30 58  1  0  0  0  0
 30 64  1  0  0  0  0
 30 76  2  0  0  0  0
 31 59  1  0  0  0  0
 31 70  1  0  0  0  0
 31 77  2  0  0  0  0
 32 65  1  0  0  0  0
 32 66  1  0  0  0  0
 32 78  2  0  0  0  0
 33 36  1  0  0  0  0
 34 45  1  0  0  0  0
 35 64  1  0  0  0  0
 36 38  1  0  0  0  0
 37 39  1  0  0  0  0
 37 41  1  0  0  0  0
 38 44  1  0  0  0  0
 39 46  1  0  0  0  0
 40 42  1  0  0  0  0
 40 47  1  0  0  0  0
 41 65  1  0  0  0  0
 42 66  1  0  0  0  0
 43 46  1  0  0  0  0
 43 65  1  0  0  0  0
 44 69  1  0  0  0  0
 45 64  1  0  0  0  0
 46 63  1  0  0  0  0
 47 54  1  0  0  0  0
 47 66  1  0  0  0  0
 48 59  1  0  0  0  0
 49 60  1  0  0  0  0
 50 61  1  0  0  0  0
 51 61  1  0  0  0  0
 52 61  1  0  0  0  0
 53 72  1  0  0  0  0
 54 73  1  0  0  0  0
 55 57  1  0  0  0  0
 55 71  1  0  0  0  0
 56 60  1  0  0  0  0
 56 73  1  0  0  0  0
 57 80  1  0  0  0  0
 58 61  1  0  0  0  0
 58 70  1  0  0  0  0
 59 72  1  0  0  0  0
 60 71  1  0  0  0  0
 62 63  1  0  0  0  0
M  CHG  2  72   1  73   1
M  ISO  4  32 100  57 101  66 100  80 101
M  END
> <Batch ID>
0189

> <Smiles>
CNC(C)C(=O)NC(C(=O)N1Cc2cc([101O:1][101CH2:1]CNC(C)CNCC3CC[100N:0]3[100C:0](=O)N3CCCC(n4nc(-c5ccc(Oc6ccc(F)cc6F)cc5)c(C(N)=O)c4N)C3)ccc2CC1C(=O)NC1CCCc2ccccc21)C(C)(C)C

> <Shape>
0.294

> <Color>
0.082

> <Negative vol penalty>
0.000

$$$$

  -OEChem-04052323223D

 84 93  0     1  0  0  0  0  0999 V2000
  -19.6578  -10.7870   20.3608 C   0  0  0  0  0  0  0  0  0  0  0  0
  -20.4061  -11.9298   20.6246 C   0  0  0  0  0  0  0  0  0  0  0  0
  -23.4799  -29.6216   24.3109 C   0  0  0  0  0  0  0  0  0  0  0  0
  -24.4057  -31.7410   23.6120 C   0  0  0  0  0  0  0  0  0  0  0  0
  -20.2682   -9.5338   20.3884 C   0  0  0  0  0  0  0  0  0  0  0  0
  -21.7650  -11.8199   20.9171 C   0  0  0  0  0  0  0  0  0  0  0  0
  -24.5664  -15.2415   18.4493 C   0  0  0  0  0  0  0  0  0  0  0  0
  -23.1707  -30.1675   25.5567 C   0  0  0  0  0  0  0  0  0  0  0  0
  -24.0964  -32.2868   24.8579 C   0  0  0  0  0  0  0  0  0  0  0  0
  -24.5710  -16.5422   18.9513 C   0  0  0  0  0  0  0  0  0  0  0  0
  -21.3636  -33.4935   26.4378 C   0  0  0  0  0  0  0  0  0  0  0  0
  -20.7706  -34.7558   26.4614 C   0  0  0  0  0  0  0  0  0  0  0  0
  -26.6936  -16.1174   20.0159 C   0  0  0  0  0  0  0  0  0  0  0  0
  -22.6292  -35.6047   27.7506 C   0  0  0  0  0  0  0  0  0  0  0  0
  -24.0975  -30.4084   23.3386 C   0  0  0  0  0  0  0  0  0  0  0  0
  -23.5203  -29.2901   21.1195 C   0  0  0  0  0  0  0  0  0  0  0  0
  -21.6374   -9.4093   20.6719 C   0  0  0  0  0  0  0  0  0  0  0  0
  -25.6220  -14.3641   18.7364 C   0  0  0  0  0  0  0  0  0  0  0  0
  -22.3940  -10.5637   20.9498 C   0  0  0  0  0  0  0  0  0  0  0  0
  -26.7013  -14.8070   19.5143 C   0  0  0  0  0  0  0  0  0  0  0  0
  -23.4789  -31.5001   25.8302 C   0  0  0  0  0  0  0  0  0  0  0  0
  -25.6332  -16.9794   19.7371 C   0  0  0  0  0  0  0  0  0  0  0  0
  -22.5894  -33.2867   27.0707 C   0  0  0  0  0  0  0  0  0  0  0  0
  -21.4035  -35.8114   27.1178 C   0  0  0  0  0  0  0  0  0  0  0  0
  -23.2222  -34.3423   27.7271 C   0  0  0  0  0  0  0  0  0  0  0  0
  -24.4176  -29.8449   22.0517 C   0  0  0  0  0  0  0  0  0  0  0  0
  -24.3144  -28.8996   20.0691 C   0  0  0  0  0  0  0  0  0  0  0  0
  -22.0964  -29.1413   21.1963 C   0  0  0  0  0  0  0  0  0  0  0  0
  -25.8767  -11.5812   20.2512 C   0  0  0  0  0  0  0  0  0  0  0  0
  -28.9346  -11.7203   19.1776 C   0  0  0  0  0  0  0  0  0  0  0  0
  -31.5011  -14.2358   18.8571 C   0  0  0  0  0  0  0  0  0  0  0  0
  -28.8206  -26.2700   18.2993 C   0  0  0  0  0  0  0  0  0  0  0  0
  -22.2427   -8.0294   20.7368 C   0  0  0  0  0  0  0  0  0  0  0  0
  -25.6150  -12.9727   18.1652 C   0  0  0  0  0  0  0  0  0  0  0  0
  -27.8685  -13.9106   19.8346 C   0  0  0  0  0  0  0  0  0  0  0  0
  -23.7684   -8.0306   20.6867 C   0  0  0  0  0  0  0  0  0  0  0  0
  -29.1540  -29.8679   19.0452 C   0  0  0  0  0  0  0  0  0  0  0  0
  -24.3331   -9.0779   21.6412 C   0  0  0  0  0  0  0  0  0  0  0  0
  -27.8924  -30.1153   19.8670 C   0  0  0  0  0  0  0  0  0  0  0  0
  -31.8034  -24.8225   16.3789 C   0  0  0  0  0  0  0  0  0  0  0  0
  -31.6603  -23.3004   16.5924 C   0  0  0  0  0  0  0  0  0  0  0  0
  -29.3299  -21.5038   19.6319 C   0  0  0  0  0  0  0  0  0  0  0  0
  -28.6985  -20.3448   17.4732 C   0  0  0  0  0  0  0  0  0  0  0  0
  -29.7209  -28.4672   19.2723 C   0  0  0  0  0  0  0  0  0  0  0  0
  -27.4649  -27.6268   19.8628 C   0  0  0  0  0  0  0  0  0  0  0  0
  -27.8514  -21.6714   19.9628 C   0  0  0  0  0  0  0  0  0  0  0  0
  -27.2250  -20.5213   17.8212 C   0  0  0  0  0  0  0  0  0  0  0  0
  -23.8759  -10.4874   21.2468 C   0  0  1  0  0  0  0  0  0  0  0  0
  -26.4938  -12.0013   18.9472 C   0  0  1  0  0  0  0  0  0  0  0  0
  -26.8531  -29.0133   19.6103 C   0  0  1  0  0  0  0  0  0  0  0  0
  -30.3238  -24.9510   16.8141 C   0  0  1  0  0  0  0  0  0  0  0  0
  -30.5249  -23.6245   17.5888 C   0  0  1  0  0  0  0  0  0  0  0  0
  -29.6017  -21.3850   18.1334 C   0  0  0  0  0  0  0  0  0  0  0  0
  -33.4318  -14.4029   17.2628 C   0  0  0  0  0  0  0  0  0  0  0  0
  -30.5145  -10.3541   21.4019 C   0  0  0  0  0  0  0  0  0  0  0  0
  -32.4598  -11.8213   20.8262 C   0  0  0  0  0  0  0  0  0  0  0  0
  -31.5678  -10.2160   19.1379 C   0  0  0  0  0  0  0  0  0  0  0  0
  -30.6631  -16.9227   17.9419 C   0  0  0  0  0  0  0  0  0  0  0  0
  -25.6137  -20.5988   19.7220 C   0  0  0  0  0  0  0  0  0  0  0  0
  -24.9789  -19.2484   19.4547 C   0  0  0  0  0  0  0  0  0  1  0  0
  -30.2300  -12.2836   19.7102 C   0  0  1  0  0  0  0  0  0  0  0  0
  -32.0119  -14.8539   17.5681 C   0  0  2  0  0  0  0  0  0  0  0  0
  -31.1679  -11.1801   20.2760 C   0  0  0  0  0  0  0  0  0  0  0  0
  -25.6847  -29.8115   21.6306 N   0  0  0  0  0  0  0  0  0  0  0  0
  -25.5894  -29.2309   20.4223 N   0  0  0  0  0  0  0  0  0  0  0  0
  -27.8124  -12.5570   19.2582 N   0  0  0  0  0  0  0  0  0  0  0  0
  -28.6938  -27.4305   19.0839 N   0  0  0  0  0  0  0  0  0  0  0  0
  -24.0394  -28.3084   18.8870 N   0  0  0  0  0  0  0  0  0  0  0  0
  -21.4381  -29.5966   22.3467 N   0  0  0  0  0  0  0  0  0  0  0  0
  -24.6440  -10.9709   20.1195 N   0  0  0  0  0  0  0  0  0  0  0  0
  -30.8129  -13.0640   18.6240 N   0  0  0  0  0  0  0  0  0  0  0  0
  -30.0415  -26.1046   17.6552 N   0  0  0  0  0  0  0  0  0  0  0  0
  -27.0631  -20.5540   19.3223 N   0  3  0  0  0  0  0  0  0  0  0  0
  -29.3817  -22.7103   17.4862 N   0  3  0  0  0  0  0  0  0  0  0  0
  -32.0021  -16.3409   17.6672 N   0  3  0  0  0  0  0  0  0  0  0  0
  -21.4296  -28.6050   20.2790 O   0  0  0  0  0  0  0  0  0  0  0  0
  -26.4754  -11.7937   21.2991 O   0  0  0  0  0  0  0  0  0  0  0  0
  -28.9205  -10.5827   18.7011 O   0  0  0  0  0  0  0  0  0  0  0  0
  -31.6965  -14.7401   19.9608 O   0  0  0  0  0  0  0  0  0  0  0  0
  -27.9147  -25.4371   18.1841 O   0  0  0  0  0  0  0  0  0  0  0  0
  -23.1771  -32.0331   27.0457 O   0  0  0  0  0  0  0  0  0  0  0  0
  -25.6399  -18.2483   20.2289 O   0  0  0  0  0  0  0  0  0  1  0  0
  -20.8347  -37.0239   27.1391 F   0  0  0  0  0  0  0  0  0  0  0  0
  -24.4004  -34.1501   28.3358 F   0  0  0  0  0  0  0  0  0  0  0  0
  1  2  1  0  0  0  0
  1  5  2  0  0  0  0
  2  6  2  0  0  0  0
  3  8  2  0  0  0  0
  3 15  1  0  0  0  0
  4  9  1  0  0  0  0
  4 15  2  0  0  0  0
  5 17  1  0  0  0  0
  6 19  1  0  0  0  0
  7 10  2  0  0  0  0
  7 18  1  0  0  0  0
  8 21  1  0  0  0  0
  9 21  2  0  0  0  0
 10 22  1  0  0  0  0
 11 12  2  0  0  0  0
 11 23  1  0  0  0  0
 12 24  1  0  0  0  0
 13 20  1  0  0  0  0
 13 22  2  0  0  0  0
 14 24  2  0  0  0  0
 14 25  1  0  0  0  0
 15 26  1  0  0  0  0
 16 26  1  0  0  0  0
 16 27  2  0  0  0  0
 16 28  1  0  0  0  0
 17 19  2  0  0  0  0
 17 33  1  0  0  0  0
 18 20  2  0  0  0  0
 18 34  1  0  0  0  0
 19 48  1  0  0  0  0
 20 35  1  0  0  0  0
 21 81  1  0  0  0  0
 22 82  1  0  0  0  0
 23 25  2  0  0  0  0
 23 81  1  0  0  0  0
 24 83  1  0  0  0  0
 25 84  1  0  0  0  0
 26 64  2  0  0  0  0
 27 65  1  0  0  0  0
 27 68  1  0  0  0  0
 28 69  1  0  0  0  0
 28 76  2  0  0  0  0
 29 49  1  0  0  0  0
 29 70  1  0  0  0  0
 29 77  2  0  0  0  0
 30 61  1  0  0  0  0
 30 66  1  0  0  0  0
 30 78  2  0  0  0  0
 31 62  1  0  0  0  0
 31 71  1  0  0  0  0
 31 79  2  0  0  0  0
 32 67  1  0  0  0  0
 32 72  1  0  0  0  0
 32 80  2  0  0  0  0
 33 36  1  0  0  0  0
 34 49  1  0  0  0  0
 35 66  1  0  0  0  0
 36 38  1  0  0  0  0
 37 39  1  0  0  0  0
 37 44  1  0  0  0  0
 38 48  1  0  0  0  0
 39 50  1  0  0  0  0
 40 41  1  0  0  0  0
 40 51  1  0  0  0  0
 41 52  1  0  0  0  0
 42 46  1  0  0  0  0
 42 53  1  0  0  0  0
 43 47  1  0  0  0  0
 43 53  1  0  0  0  0
 44 67  1  0  0  0  0
 45 50  1  0  0  0  0
 45 67  1  0  0  0  0
 46 73  1  0  0  0  0
 47 73  1  0  0  0  0
 48 70  1  0  0  0  0
 49 66  1  0  0  0  0
 50 65  1  0  0  0  0
 51 52  1  0  0  0  0
 51 72  1  0  0  0  0
 52 74  1  0  0  0  0
 53 74  1  0  0  0  0
 54 62  1  0  0  0  0
 55 63  1  0  0  0  0
 56 63  1  0  0  0  0
 57 63  1  0  0  0  0
 58 75  1  0  0  0  0
 59 60  1  0  0  0  0
 59 73  1  0  0  0  0
 60 82  1  0  0  0  0
 61 63  1  0  0  0  0
 61 71  1  0  0  0  0
 62 75  1  0  0  0  0
 64 65  1  0  0  0  0
M  CHG  3  73   1  74   1  75   1
M  ISO  4  32 100  60 101  72 100  82 101
M  END
> <Batch ID>
0189

> <Smiles>
CNC(C)C(=O)NC(C(=O)N1Cc2cc([101O:1][101CH2:1]CN3CCC(NC4CCC4[100NH:0][100C:0](=O)N4CCCC(n5nc(-c6ccc(Oc7ccc(F)cc7F)cc6)c(C(N)=O)c5N)C4)CC3)ccc2CC1C(=O)NC1CCCc2ccccc21)C(C)(C)C

> <Shape>
0.250

> <Color>
0.071

> <Negative vol penalty>
0.000

$$$$
