
  -OEChem-04052323243D

 81 90  0     1  0  0  0  0  0999 V2000
  -28.7897  -34.2335   25.0284 C   0  0  0  0  0  0  0  0  0  0  0  0
  -29.4513  -33.1806   24.4047 C   0  0  0  0  0  0  0  0  0  0  0  0
  -22.6917  -11.6859   18.9187 C   0  0  0  0  0  0  0  0  0  0  0  0
  -23.1139   -9.9744   20.5709 C   0  0  0  0  0  0  0  0  0  0  0  0
  -27.4478  -34.0999   25.3827 C   0  0  0  0  0  0  0  0  0  0  0  0
  -28.7718  -31.9930   24.1359 C   0  0  0  0  0  0  0  0  0  0  0  0
  -28.5101  -26.6713   19.3477 C   0  0  0  0  0  0  0  0  0  0  0  0
  -21.6467  -10.9239   18.3964 C   0  0  0  0  0  0  0  0  0  0  0  0
  -22.0688   -9.2124   20.0486 C   0  0  0  0  0  0  0  0  0  0  0  0
  -28.5498  -25.2792   19.2814 C   0  0  0  0  0  0  0  0  0  0  0  0
  -21.5560   -7.1664   17.4062 C   0  0  0  0  0  0  0  0  0  0  0  0
  -21.7816   -5.8037   17.2123 C   0  0  0  0  0  0  0  0  0  0  0  0
  -26.2113  -25.1907   19.8670 C   0  0  0  0  0  0  0  0  0  0  0  0
  -19.9721   -5.2884   18.7280 C   0  0  0  0  0  0  0  0  0  0  0  0
  -23.4254  -11.2111   20.0059 C   0  0  0  0  0  0  0  0  0  0  0  0
  -24.4261  -12.9634   21.5667 C   0  0  0  0  0  0  0  0  0  0  0  0
  -26.7488  -32.9136   25.1094 C   0  0  0  0  0  0  0  0  0  0  0  0
  -27.3214  -27.3342   19.6855 C   0  0  0  0  0  0  0  0  0  0  0  0
  -27.4197  -31.8429   24.4881 C   0  0  0  0  0  0  0  0  0  0  0  0
  -26.1585  -26.5913   19.9345 C   0  0  0  0  0  0  0  0  0  0  0  0
  -21.3352   -9.6872   18.9613 C   0  0  0  0  0  0  0  0  0  0  0  0
  -27.4010  -24.5386   19.5438 C   0  0  0  0  0  0  0  0  0  0  0  0
  -20.5385   -7.5902   18.2611 C   0  0  0  0  0  0  0  0  0  0  0  0
  -20.9897   -4.8647   17.8731 C   0  0  0  0  0  0  0  0  0  0  0  0
  -19.7466   -6.6512   18.9220 C   0  0  0  0  0  0  0  0  0  0  0  0
  -24.5054  -11.9975   20.5456 C   0  0  0  0  0  0  0  0  0  0  0  0
  -25.7141  -13.4182   21.7099 C   0  0  0  0  0  0  0  0  0  0  0  0
  -23.2897  -13.4095   22.3186 C   0  0  0  0  0  0  0  0  0  0  0  0
  -26.4163  -29.2484   22.0561 C   0  0  0  0  0  0  0  0  0  0  0  0
  -23.7041  -29.5023   20.2950 C   0  0  0  0  0  0  0  0  0  0  0  0
  -21.6388  -28.1420   17.9432 C   0  0  0  0  0  0  0  0  0  0  0  0
  -30.3843  -15.2647   19.1357 C   0  0  0  0  0  0  0  0  0  0  0  0
  -25.3121  -32.7988   25.5538 C   0  0  0  0  0  0  0  0  0  0  0  0
  -27.2885  -28.8374   19.7267 C   0  0  0  0  0  0  0  0  0  0  0  0
  -24.8522  -27.2558   20.2815 C   0  0  0  0  0  0  0  0  0  0  0  0
  -24.5616  -31.6437   24.8959 C   0  0  0  0  0  0  0  0  0  0  0  0
  -30.0704  -11.6701   19.8276 C   0  0  0  0  0  0  0  0  0  0  0  0
  -25.4005  -30.3704   24.9356 C   0  0  0  0  0  0  0  0  0  0  0  0
  -28.5758  -11.5112   20.1115 C   0  0  0  0  0  0  0  0  0  0  0  0
  -30.3498  -12.8131   18.8543 C   0  0  0  0  0  0  0  0  0  0  0  0
  -30.8875  -17.5293   20.0115 C   0  0  0  0  0  0  0  0  0  0  0  0
  -28.2631  -13.9421   19.5200 C   0  0  0  0  0  0  0  0  0  0  0  0
  -29.5143  -16.1078   21.3956 C   0  0  0  0  0  0  0  0  0  0  0  0
  -28.9505  -19.1935   22.7568 C   0  0  0  0  0  0  0  0  0  0  0  0
  -26.7099  -30.5479   24.1576 C   0  0  1  0  0  0  0  0  0  0  0  0
  -26.1521  -29.3868   20.5835 C   0  0  1  0  0  0  0  0  0  0  0  0
  -30.5862  -18.2627   21.3097 C   0  0  1  0  0  0  0  0  0  0  0  0
  -27.9484  -12.8480   20.5492 C   0  0  1  0  0  0  0  0  0  0  0  0
  -29.3521  -19.1657   21.2897 C   0  0  2  0  0  0  0  0  0  0  0  0
  -30.1887  -17.1516   22.2753 C   0  0  1  0  0  0  0  0  0  0  0  0
  -19.4785  -28.5636   16.7379 C   0  0  0  0  0  0  0  0  0  0  0  0
  -22.1538  -28.6939   22.7956 C   0  0  0  0  0  0  0  0  0  0  0  0
  -20.1807  -28.2118   21.3319 C   0  0  0  0  0  0  0  0  0  0  0  0
  -21.0990  -30.5275   21.4616 C   0  0  0  0  0  0  0  0  0  0  0  0
  -22.9849  -28.1932   15.3080 C   0  0  0  0  0  0  0  0  0  0  0  0
  -28.3936  -21.1850   20.4125 C   0  0  0  0  0  0  0  0  0  0  0  0
  -28.6752  -22.5463   19.7954 C   0  0  0  0  0  0  0  0  0  1  0  0
  -22.3994  -28.7458   20.2260 C   0  0  1  0  0  0  0  0  0  0  0  0
  -20.9890  -28.7379   16.7075 C   0  0  2  0  0  0  0  0  0  0  0  0
  -21.4832  -29.0318   21.4492 C   0  0  0  0  0  0  0  0  0  0  0  0
  -25.7458  -11.8470   20.0734 N   0  0  0  0  0  0  0  0  0  0  0  0
  -26.4577  -12.7244   20.8011 N   0  0  0  0  0  0  0  0  0  0  0  0
  -24.8724  -28.7275   20.3155 N   0  0  0  0  0  0  0  0  0  0  0  0
  -29.7093  -14.0502   19.3008 N   0  0  0  0  0  0  0  0  0  0  0  0
  -30.1705  -16.2566   20.0932 N   0  0  0  0  0  0  0  0  0  0  0  0
  -26.2719  -14.3400   22.5233 N   0  0  0  0  0  0  0  0  0  0  0  0
  -22.0402  -12.8370   22.0438 N   0  0  0  0  0  0  0  0  0  0  0  0
  -26.4689  -30.4515   22.7338 N   0  0  0  0  0  0  0  0  0  0  0  0
  -21.8003  -29.0820   18.9390 N   0  0  0  0  0  0  0  0  0  0  0  0
  -29.6286  -20.4850   20.7438 N   0  0  0  0  0  0  0  0  0  0  0  0
  -29.2223  -17.7870   23.2261 N   0  3  0  0  0  0  0  0  0  0  0  0
  -21.5134  -28.0792   15.4778 N   0  3  0  0  0  0  0  0  0  0  0  0
  -23.3767  -14.3013   23.1963 O   0  0  0  0  0  0  0  0  0  0  0  0
  -26.5603  -28.1326   22.5419 O   0  0  0  0  0  0  0  0  0  0  0  0
  -23.6874  -30.7354   20.3223 O   0  0  0  0  0  0  0  0  0  0  0  0
  -21.9666  -26.9599   18.0191 O   0  0  0  0  0  0  0  0  0  0  0  0
  -31.1793  -15.4375   18.2025 O   0  0  0  0  0  0  0  0  0  0  0  0
  -20.3153   -8.9435   18.4521 O   0  0  0  0  0  0  0  0  0  0  0  0
  -27.4374  -23.1700   19.4799 O   0  0  0  0  0  0  0  0  0  1  0  0
  -21.2054   -3.5561   17.6855 F   0  0  0  0  0  0  0  0  0  0  0  0
  -18.7668   -7.0523   19.7436 F   0  0  0  0  0  0  0  0  0  0  0  0
  1  2  1  0  0  0  0
  1  5  2  0  0  0  0
  2  6  2  0  0  0  0
  3  8  2  0  0  0  0
  3 15  1  0  0  0  0
  4  9  1  0  0  0  0
  4 15  2  0  0  0  0
  5 17  1  0  0  0  0
  6 19  1  0  0  0  0
  7 10  2  0  0  0  0
  7 18  1  0  0  0  0
  8 21  1  0  0  0  0
  9 21  2  0  0  0  0
 10 22  1  0  0  0  0
 11 12  2  0  0  0  0
 11 23  1  0  0  0  0
 12 24  1  0  0  0  0
 13 20  1  0  0  0  0
 13 22  2  0  0  0  0
 14 24  2  0  0  0  0
 14 25  1  0  0  0  0
 15 26  1  0  0  0  0
 16 26  1  0  0  0  0
 16 27  2  0  0  0  0
 16 28  1  0  0  0  0
 17 19  2  0  0  0  0
 17 33  1  0  0  0  0
 18 20  2  0  0  0  0
 18 34  1  0  0  0  0
 19 45  1  0  0  0  0
 20 35  1  0  0  0  0
 21 78  1  0  0  0  0
 22 79  1  0  0  0  0
 23 25  2  0  0  0  0
 23 78  1  0  0  0  0
 24 80  1  0  0  0  0
 25 81  1  0  0  0  0
 26 61  2  0  0  0  0
 27 62  1  0  0  0  0
 27 66  1  0  0  0  0
 28 67  1  0  0  0  0
 28 73  2  0  0  0  0
 29 46  1  0  0  0  0
 29 68  1  0  0  0  0
 29 74  2  0  0  0  0
 30 58  1  0  0  0  0
 30 63  1  0  0  0  0
 30 75  2  0  0  0  0
 31 59  1  0  0  0  0
 31 69  1  0  0  0  0
 31 76  2  0  0  0  0
 32 64  1  0  0  0  0
 32 65  1  0  0  0  0
 32 77  2  0  0  0  0
 33 36  1  0  0  0  0
 34 46  1  0  0  0  0
 35 63  1  0  0  0  0
 36 38  1  0  0  0  0
 37 39  1  0  0  0  0
 37 40  1  0  0  0  0
 38 45  1  0  0  0  0
 39 48  1  0  0  0  0
 40 64  1  0  0  0  0
 41 47  1  0  0  0  0
 41 65  1  0  0  0  0
 42 48  1  0  0  0  0
 42 64  1  0  0  0  0
 43 50  1  0  0  0  0
 43 65  1  0  0  0  0
 44 49  1  0  0  0  0
 44 71  1  0  0  0  0
 45 68  1  0  0  0  0
 46 63  1  0  0  0  0
 47 49  1  0  0  0  0
 47 50  1  0  0  0  0
 48 62  1  0  0  0  0
 49 70  1  0  0  0  0
 50 71  1  0  0  0  0
 51 59  1  0  0  0  0
 52 60  1  0  0  0  0
 53 60  1  0  0  0  0
 54 60  1  0  0  0  0
 55 72  1  0  0  0  0
 56 57  1  0  0  0  0
 56 70  1  0  0  0  0
 57 79  1  0  0  0  0
 58 60  1  0  0  0  0
 58 69  1  0  0  0  0
 59 72  1  0  0  0  0
 61 62  1  0  0  0  0
M  CHG  2  71   1  72   1
M  ISO  4  32 100  57 101  65 100  79 101
M  END
> <Batch ID>
0190

> <Smiles>
CNC(C)C(=O)NC(C(=O)N1Cc2cc([101O:1][101CH2:1]CNC3CNC4C[100N:0]([100C:0](=O)N5CCCC(n6nc(-c7ccc(Oc8ccc(F)cc8F)cc7)c(C(N)=O)c6N)C5)CC34)ccc2CC1C(=O)NC1CCCc2ccccc21)C(C)(C)C

> <Shape>
0.300

> <Color>
0.087

> <Negative vol penalty>
0.000

$$$$

  -OEChem-04052323243D

 85 94  0     1  0  0  0  0  0999 V2000
  -29.6883  -36.7845   20.3999 C   0  0  0  0  0  0  0  0  0  0  0  0
  -29.8062  -35.4211   20.1496 C   0  0  0  0  0  0  0  0  0  0  0  0
  -22.0598  -10.1523   20.6795 C   0  0  0  0  0  0  0  0  0  0  0  0
  -23.9080   -9.4930   22.0889 C   0  0  0  0  0  0  0  0  0  0  0  0
  -28.8473  -37.2353   21.4164 C   0  0  0  0  0  0  0  0  0  0  0  0
  -29.0840  -34.5076   20.9167 C   0  0  0  0  0  0  0  0  0  0  0  0
  -26.6734  -29.2052   19.0247 C   0  0  0  0  0  0  0  0  0  0  0  0
  -21.6459   -8.8227   20.6002 C   0  0  0  0  0  0  0  0  0  0  0  0
  -23.4941   -8.1633   22.0096 C   0  0  0  0  0  0  0  0  0  0  0  0
  -27.1161  -27.8866   19.1200 C   0  0  0  0  0  0  0  0  0  0  0  0
  -21.1330   -6.2028   23.4246 C   0  0  0  0  0  0  0  0  0  0  0  0
  -21.1092   -5.4615   24.6059 C   0  0  0  0  0  0  0  0  0  0  0  0
  -25.7692  -27.5838   21.0983 C   0  0  0  0  0  0  0  0  0  0  0  0
  -22.6919   -3.9011   23.6585 C   0  0  0  0  0  0  0  0  0  0  0  0
  -23.1909  -10.4875   21.4238 C   0  0  0  0  0  0  0  0  0  0  0  0
  -22.8876  -12.9507   22.0138 C   0  0  0  0  0  0  0  0  0  0  0  0
  -28.1070  -36.3274   22.1899 C   0  0  0  0  0  0  0  0  0  0  0  0
  -25.7823  -29.7272   19.9733 C   0  0  0  0  0  0  0  0  0  0  0  0
  -28.2333  -34.9466   21.9454 C   0  0  0  0  0  0  0  0  0  0  0  0
  -25.3148  -28.9086   21.0113 C   0  0  0  0  0  0  0  0  0  0  0  0
  -22.3630   -7.8282   21.2652 C   0  0  0  0  0  0  0  0  0  0  0  0
  -26.6662  -27.0765   20.1586 C   0  0  0  0  0  0  0  0  0  0  0  0
  -21.9362   -5.7932   22.3602 C   0  0  0  0  0  0  0  0  0  0  0  0
  -21.8887   -4.3106   24.7229 C   0  0  0  0  0  0  0  0  0  0  0  0
  -22.7156   -4.6424   22.4772 C   0  0  0  0  0  0  0  0  0  0  0  0
  -23.6194  -11.8608   21.5056 C   0  0  0  0  0  0  0  0  0  0  0  0
  -23.7289  -14.0266   21.8690 C   0  0  0  0  0  0  0  0  0  0  0  0
  -21.5655  -12.9873   22.5674 C   0  0  0  0  0  0  0  0  0  0  0  0
  -25.8981  -32.0872   22.0994 C   0  0  0  0  0  0  0  0  0  0  0  0
  -22.7733  -31.3303   22.5295 C   0  0  0  0  0  0  0  0  0  0  0  0
  -19.6907  -29.8790   22.7235 C   0  0  0  0  0  0  0  0  0  0  0  0
  -28.6606  -16.3142   22.4240 C   0  0  0  0  0  0  0  0  0  0  0  0
  -27.2472  -36.8595   23.3090 C   0  0  0  0  0  0  0  0  0  0  0  0
  -25.2935  -31.1435   19.8411 C   0  0  0  0  0  0  0  0  0  0  0  0
  -24.3420  -29.4149   22.0436 C   0  0  0  0  0  0  0  0  0  0  0  0
  -26.2299  -35.8474   23.8295 C   0  0  0  0  0  0  0  0  0  0  0  0
  -28.0964  -14.4788   19.3576 C   0  0  0  0  0  0  0  0  0  0  0  0
  -26.8920  -34.4914   24.0524 C   0  0  0  0  0  0  0  0  0  0  0  0
  -26.8102  -13.7210   19.6913 C   0  0  0  0  0  0  0  0  0  0  0  0
  -31.4587  -17.9628   23.6206 C   0  0  0  0  0  0  0  0  0  0  0  0
  -32.0830  -19.2633   23.0712 C   0  0  0  0  0  0  0  0  0  0  0  0
  -29.0172  -14.5685   20.5713 C   0  0  0  0  0  0  0  0  0  0  0  0
  -28.9299  -21.2339   19.7586 C   0  0  0  0  0  0  0  0  0  0  0  0
  -31.0683  -22.3490   19.9346 C   0  0  0  0  0  0  0  0  0  0  0  0
  -27.1026  -14.4150   22.1137 C   0  0  0  0  0  0  0  0  0  0  0  0
  -29.5288  -19.9285   20.2715 C   0  0  0  0  0  0  0  0  0  0  0  0
  -31.7293  -21.0760   20.4526 C   0  0  0  0  0  0  0  0  0  0  0  0
  -27.4473  -33.9261   22.7396 C   0  0  1  0  0  0  0  0  0  0  0  0
  -24.7855  -31.7255   21.1567 C   0  0  1  0  0  0  0  0  0  0  0  0
  -26.1189  -14.3117   20.9342 C   0  0  2  0  0  0  0  0  0  0  0  0
  -30.2958  -18.1836   22.6236 C   0  0  1  0  0  0  0  0  0  0  0  0
  -31.2972  -18.9989   21.7675 C   0  0  1  0  0  0  0  0  0  0  0  0
  -17.5059  -30.0509   23.9460 C   0  0  0  0  0  0  0  0  0  0  0  0
  -28.6446  -22.9505   17.2050 C   0  0  0  0  0  0  0  0  0  0  0  0
  -24.0476  -30.0399   24.9833 C   0  0  0  0  0  0  0  0  0  0  0  0
  -21.7544  -29.3805   25.7411 C   0  0  0  0  0  0  0  0  0  0  0  0
  -22.3392  -31.7930   25.4952 C   0  0  0  0  0  0  0  0  0  0  0  0
  -18.1995  -30.4053   20.2218 C   0  0  0  0  0  0  0  0  0  0  0  0
  -28.3411  -23.8700   19.5278 C   0  0  0  0  0  0  0  0  0  0  0  0
  -28.0101  -25.3341   19.2564 C   0  0  0  0  0  0  0  0  0  1  0  0
  -22.0173  -30.3784   23.4246 C   0  0  1  0  0  0  0  0  0  0  0  0
  -18.2945  -30.4750   22.7168 C   0  0  2  0  0  0  0  0  0  0  0  0
  -29.3390  -23.2654   18.5294 C   0  0  1  0  0  0  0  0  0  0  0  0
  -22.5493  -30.3899   24.8856 C   0  0  0  0  0  0  0  0  0  0  0  0
  -24.8322  -12.2121   21.0703 N   0  0  0  0  0  0  0  0  0  0  0  0
  -24.8690  -13.5349   21.3045 N   0  0  0  0  0  0  0  0  0  0  0  0
  -23.8983  -30.8085   21.8751 N   0  0  0  0  0  0  0  0  0  0  0  0
  -28.3036  -15.1569   21.7140 N   0  0  0  0  0  0  0  0  0  0  0  0
  -29.9365  -22.0371   19.0520 N   0  0  0  0  0  0  0  0  0  0  0  0
  -23.5973  -15.3359   22.1706 N   0  0  0  0  0  0  0  0  0  0  0  0
  -21.4132  -12.7928   23.9470 N   0  0  0  0  0  0  0  0  0  0  0  0
  -26.3787  -33.3724   21.9357 N   0  0  0  0  0  0  0  0  0  0  0  0
  -20.6077  -30.7327   23.2993 N   0  0  0  0  0  0  0  0  0  0  0  0
  -29.8081  -16.9685   21.9885 N   0  0  0  0  0  0  0  0  0  0  0  0
  -30.6989  -20.2406   21.1700 N   0  3  0  0  0  0  0  0  0  0  0  0
  -17.5487  -30.0335   21.5045 N   0  3  0  0  0  0  0  0  0  0  0  0
  -20.5478  -13.1703   21.8572 O   0  0  0  0  0  0  0  0  0  0  0  0
  -26.2905  -31.2620   22.9159 O   0  0  0  0  0  0  0  0  0  0  0  0
  -22.3762  -32.4919   22.4095 O   0  0  0  0  0  0  0  0  0  0  0  0
  -19.9419  -28.7658   22.2672 O   0  0  0  0  0  0  0  0  0  0  0  0
  -28.0034  -16.7448   23.3781 O   0  0  0  0  0  0  0  0  0  0  0  0
  -21.9592   -6.5306   21.1883 O   0  0  0  0  0  0  0  0  0  0  0  0
  -27.0972  -25.7893   20.2543 O   0  0  0  0  0  0  0  0  0  1  0  0
  -21.8670   -3.5997   25.8579 F   0  0  0  0  0  0  0  0  0  0  0  0
  -23.4901   -4.2446   21.4585 F   0  0  0  0  0  0  0  0  0  0  0  0
  1  2  1  0  0  0  0
  1  5  2  0  0  0  0
  2  6  2  0  0  0  0
  3  8  2  0  0  0  0
  3 15  1  0  0  0  0
  4  9  1  0  0  0  0
  4 15  2  0  0  0  0
  5 17  1  0  0  0  0
  6 19  1  0  0  0  0
  7 10  2  0  0  0  0
  7 18  1  0  0  0  0
  8 21  1  0  0  0  0
  9 21  2  0  0  0  0
 10 22  1  0  0  0  0
 11 12  2  0  0  0  0
 11 23  1  0  0  0  0
 12 24  1  0  0  0  0
 13 20  1  0  0  0  0
 13 22  2  0  0  0  0
 14 24  2  0  0  0  0
 14 25  1  0  0  0  0
 15 26  1  0  0  0  0
 16 26  1  0  0  0  0
 16 27  2  0  0  0  0
 16 28  1  0  0  0  0
 17 19  2  0  0  0  0
 17 33  1  0  0  0  0
 18 20  2  0  0  0  0
 18 34  1  0  0  0  0
 19 48  1  0  0  0  0
 20 35  1  0  0  0  0
 21 82  1  0  0  0  0
 22 83  1  0  0  0  0
 23 25  2  0  0  0  0
 23 82  1  0  0  0  0
 24 84  1  0  0  0  0
 25 85  1  0  0  0  0
 26 65  2  0  0  0  0
 27 66  1  0  0  0  0
 27 70  1  0  0  0  0
 28 71  1  0  0  0  0
 28 77  2  0  0  0  0
 29 49  1  0  0  0  0
 29 72  1  0  0  0  0
 29 78  2  0  0  0  0
 30 61  1  0  0  0  0
 30 67  1  0  0  0  0
 30 79  2  0  0  0  0
 31 62  1  0  0  0  0
 31 73  1  0  0  0  0
 31 80  2  0  0  0  0
 32 68  1  0  0  0  0
 32 74  1  0  0  0  0
 32 81  2  0  0  0  0
 33 36  1  0  0  0  0
 34 49  1  0  0  0  0
 35 67  1  0  0  0  0
 36 38  1  0  0  0  0
 37 39  1  0  0  0  0
 37 42  1  0  0  0  0
 38 48  1  0  0  0  0
 39 50  1  0  0  0  0
 40 41  1  0  0  0  0
 40 51  1  0  0  0  0
 41 52  1  0  0  0  0
 42 68  1  0  0  0  0
 43 46  1  0  0  0  0
 43 69  1  0  0  0  0
 44 47  1  0  0  0  0
 44 69  1  0  0  0  0
 45 50  1  0  0  0  0
 45 68  1  0  0  0  0
 46 75  1  0  0  0  0
 47 75  1  0  0  0  0
 48 72  1  0  0  0  0
 49 67  1  0  0  0  0
 50 66  1  0  0  0  0
 51 52  1  0  0  0  0
 51 74  1  0  0  0  0
 52 75  1  0  0  0  0
 53 62  1  0  0  0  0
 54 63  1  0  0  0  0
 55 64  1  0  0  0  0
 56 64  1  0  0  0  0
 57 64  1  0  0  0  0
 58 76  1  0  0  0  0
 59 60  1  0  0  0  0
 59 63  1  0  0  0  0
 60 83  1  0  0  0  0
 61 64  1  0  0  0  0
 61 73  1  0  0  0  0
 62 76  1  0  0  0  0
 63 69  1  0  0  0  0
 65 66  1  0  0  0  0
M  CHG  2  75   1  76   1
M  ISO  4  32 100  60 101  74 100  83 101
M  END
> <Batch ID>
0190

> <Smiles>
CNC(C)C(=O)NC(C(=O)N1Cc2cc([101O:1][101CH2:1]CC(C)N3CCN(C4CCC4[100NH:0][100C:0](=O)N4CCCC(n5nc(-c6ccc(Oc7ccc(F)cc7F)cc6)c(C(N)=O)c5N)C4)CC3)ccc2CC1C(=O)NC1CCCc2ccccc21)C(C)(C)C

> <Shape>
0.323

> <Color>
0.090

> <Negative vol penalty>
0.000

$$$$

  -OEChem-04052323243D

 84 93  0     1  0  0  0  0  0999 V2000
  -29.6943  -32.4270   23.5963 C   0  0  0  0  0  0  0  0  0  0  0  0
  -30.1208  -31.1279   23.3444 C   0  0  0  0  0  0  0  0  0  0  0  0
  -23.0578   -9.8692   20.0035 C   0  0  0  0  0  0  0  0  0  0  0  0
  -23.8258   -9.9159   22.2937 C   0  0  0  0  0  0  0  0  0  0  0  0
  -28.3784  -32.6604   23.9899 C   0  0  0  0  0  0  0  0  0  0  0  0
  -29.2285  -30.0632   23.4743 C   0  0  0  0  0  0  0  0  0  0  0  0
  -30.8083  -25.6339   22.0291 C   0  0  0  0  0  0  0  0  0  0  0  0
  -22.3088   -8.7249   20.2779 C   0  0  0  0  0  0  0  0  0  0  0  0
  -23.0768   -8.7716   22.5682 C   0  0  0  0  0  0  0  0  0  0  0  0
  -31.7548  -24.9011   22.7438 C   0  0  0  0  0  0  0  0  0  0  0  0
  -19.8467   -8.0024   23.1969 C   0  0  0  0  0  0  0  0  0  0  0  0
  -19.0937   -7.9887   24.3709 C   0  0  0  0  0  0  0  0  0  0  0  0
  -30.0019  -23.4801   23.5967 C   0  0  0  0  0  0  0  0  0  0  0  0
  -20.3276   -6.0592   25.1399 C   0  0  0  0  0  0  0  0  0  0  0  0
  -32.0711  -16.6348   22.4715 C   0  0  0  0  0  0  0  0  0  0  0  0
  -23.8163  -10.4646   21.0113 C   0  0  0  0  0  0  0  0  0  0  0  0
  -24.1708  -12.9852   20.8420 C   0  0  0  0  0  0  0  0  0  0  0  0
  -27.4734  -31.5962   24.1365 C   0  0  0  0  0  0  0  0  0  0  0  0
  -29.4479  -25.3015   22.1015 C   0  0  0  0  0  0  0  0  0  0  0  0
  -27.8897  -30.2808   23.8473 C   0  0  0  0  0  0  0  0  0  0  0  0
  -29.0404  -24.2087   22.8798 C   0  0  0  0  0  0  0  0  0  0  0  0
  -30.7024  -16.5983   22.2994 C   0  0  0  0  0  0  0  0  0  0  0  0
  -22.3183   -8.1761   21.5603 C   0  0  0  0  0  0  0  0  0  0  0  0
  -31.3514  -23.8258   23.5300 C   0  0  0  0  0  0  0  0  0  0  0  0
  -20.8401   -7.0444   22.9943 C   0  0  0  0  0  0  0  0  0  0  0  0
  -19.3341   -7.0172   25.3424 C   0  0  0  0  0  0  0  0  0  0  0  0
  -21.0806   -6.0728   23.9658 C   0  0  0  0  0  0  0  0  0  0  0  0
  -24.5906  -11.6463   20.7283 C   0  0  0  0  0  0  0  0  0  0  0  0
  -29.9814  -17.5000   23.0554 C   0  0  0  0  0  0  0  0  0  0  0  0
  -25.2655  -13.7219   20.4608 C   0  0  0  0  0  0  0  0  0  0  0  0
  -31.8856  -18.3123   23.9943 C   0  0  0  0  0  0  0  0  0  0  0  0
  -22.9044  -13.5156   21.2554 C   0  0  0  0  0  0  0  0  0  0  0  0
  -26.8250  -26.7913   23.1037 C   0  0  0  0  0  0  0  0  0  0  0  0
  -25.3448  -24.1701   21.8952 C   0  0  0  0  0  0  0  0  0  0  0  0
  -25.5439  -20.8798   21.0114 C   0  0  0  0  0  0  0  0  0  0  0  0
  -30.7376  -14.7420   20.5968 C   0  0  0  0  0  0  0  0  0  0  0  0
  -26.0586  -31.9066   24.5575 C   0  0  0  0  0  0  0  0  0  0  0  0
  -28.4424  -26.0853   21.3033 C   0  0  0  0  0  0  0  0  0  0  0  0
  -27.5943  -23.7983   22.9753 C   0  0  0  0  0  0  0  0  0  0  0  0
  -25.3171  -30.6868   25.0948 C   0  0  0  0  0  0  0  0  0  0  0  0
  -29.6024  -12.2893   18.2788 C   0  0  0  0  0  0  0  0  0  0  0  0
  -25.4732  -29.5184   24.1331 C   0  0  0  0  0  0  0  0  0  0  0  0
  -28.1628  -12.0135   18.7188 C   0  0  0  0  0  0  0  0  0  0  0  0
  -34.5438  -22.3269   24.3404 C   0  0  0  0  0  0  0  0  0  0  0  0
  -30.5229  -12.5362   19.4727 C   0  0  0  0  0  0  0  0  0  0  0  0
  -28.6246  -13.2968   20.8464 C   0  0  0  0  0  0  0  0  0  0  0  0
  -34.2234  -21.1286   25.2110 C   0  0  0  0  0  0  0  0  0  0  0  0
  -32.8937  -21.0358   23.1560 C   0  0  0  0  0  0  0  0  0  0  0  0
  -26.9451  -29.1039   24.0116 C   0  0  1  0  0  0  0  0  0  0  0  0
  -27.0249  -25.9771   21.8568 C   0  0  1  0  0  0  0  0  0  0  0  0
  -27.6467  -13.1063   19.6755 C   0  0  2  0  0  0  0  0  0  0  0  0
  -33.3012  -22.4652   23.4779 C   0  0  1  0  0  0  0  0  0  1  0  0
  -28.4919  -17.5541   22.9546 C   0  0  0  0  0  0  0  0  0  0  0  0
  -24.8182  -18.6800   20.0461 C   0  0  0  0  0  0  0  0  0  0  0  0
  -23.9885  -23.8393   24.6083 C   0  0  0  0  0  0  0  0  0  0  0  0
  -23.4003  -21.4963   23.9506 C   0  0  0  0  0  0  0  0  0  0  0  0
  -22.5023  -23.4202   22.6410 C   0  0  0  0  0  0  0  0  0  0  0  0
  -26.5336  -21.6035   18.3177 C   0  0  0  0  0  0  0  0  0  0  0  0
  -32.5466  -19.2700   24.9412 C   0  0  0  0  0  0  0  0  0  0  0  0
  -24.9498  -22.8188   22.4402 C   0  0  1  0  0  0  0  0  0  0  0  0
  -25.1053  -20.1453   19.7574 C   0  0  2  0  0  0  0  0  0  0  0  0
  -23.7373  -22.9024   23.4100 C   0  0  0  0  0  0  0  0  0  0  0  0
  -32.6984  -17.4821   23.3135 N   0  0  0  0  0  0  0  0  0  0  0  0
  -25.8535  -11.5359   20.3076 N   0  0  0  0  0  0  0  0  0  0  0  0
  -30.5426  -18.3745   23.9160 N   0  0  0  0  0  0  0  0  0  0  0  0
  -26.2366  -12.8148   20.1535 N   0  0  0  0  0  0  0  0  0  0  0  0
  -26.6484  -24.5997   22.1813 N   0  0  0  0  0  0  0  0  0  0  0  0
  -29.9723  -13.5865   20.3322 N   0  0  0  0  0  0  0  0  0  0  0  0
  -25.4825  -15.0506   20.3617 N   0  0  0  0  0  0  0  0  0  0  0  0
  -21.8890  -12.6183   21.6134 N   0  0  0  0  0  0  0  0  0  0  0  0
  -30.0979  -15.6858   21.3996 N   0  0  0  0  0  0  0  0  0  0  0  0
  -27.0774  -28.1402   22.9413 N   0  0  0  0  0  0  0  0  0  0  0  0
  -24.7303  -21.9597   21.2817 N   0  0  0  0  0  0  0  0  0  0  0  0
  -33.5081  -20.1932   24.2644 N   0  3  2  0  0  0  0  0  0  0  0  0
  -26.1680  -20.2195   18.7152 N   0  3  0  0  0  0  0  0  0  0  0  0
  -22.6748  -14.7483   21.2900 O   0  0  0  0  0  0  0  0  0  0  0  0
  -26.4668  -26.2371   24.1362 O   0  0  0  0  0  0  0  0  0  0  0  0
  -24.5292  -24.8173   21.2336 O   0  0  0  0  0  0  0  0  0  0  0  0
  -26.5093  -20.5283   21.6859 O   0  0  0  0  0  0  0  0  0  0  0  0
  -31.8659  -14.8958   20.1222 O   0  0  0  0  0  0  0  0  0  0  0  0
  -21.5874   -7.0597   21.8285 O   0  0  0  0  0  0  0  0  0  0  0  0
  -32.2731  -23.1093   24.2292 O   0  0  0  0  0  0  0  0  0  1  0  0
  -18.6120   -7.0051   26.4705 F   0  0  0  0  0  0  0  0  0  0  0  0
  -22.0345   -5.1506   23.7774 F   0  0  0  0  0  0  0  0  0  0  0  0
  1  2  1  0  0  0  0
  1  5  2  0  0  0  0
  2  6  2  0  0  0  0
  3  8  2  0  0  0  0
  3 16  1  0  0  0  0
  4  9  1  0  0  0  0
  4 16  2  0  0  0  0
  5 18  1  0  0  0  0
  6 20  1  0  0  0  0
  7 10  2  0  0  0  0
  7 19  1  0  0  0  0
  8 23  1  0  0  0  0
  9 23  2  0  0  0  0
 10 24  1  0  0  0  0
 11 12  2  0  0  0  0
 11 25  1  0  0  0  0
 12 26  1  0  0  0  0
 13 21  1  0  0  0  0
 13 24  2  0  0  0  0
 14 26  2  0  0  0  0
 14 27  1  0  0  0  0
 15 22  1  0  0  0  0
 15 63  2  0  0  0  0
 16 28  1  0  0  0  0
 17 28  1  0  0  0  0
 17 30  2  0  0  0  0
 17 32  1  0  0  0  0
 18 20  2  0  0  0  0
 18 37  1  0  0  0  0
 19 21  2  0  0  0  0
 19 38  1  0  0  0  0
 20 49  1  0  0  0  0
 21 39  1  0  0  0  0
 22 29  2  0  0  0  0
 22 71  1  0  0  0  0
 23 81  1  0  0  0  0
 24 82  1  0  0  0  0
 25 27  2  0  0  0  0
 25 81  1  0  0  0  0
 26 83  1  0  0  0  0
 27 84  1  0  0  0  0
 28 64  2  0  0  0  0
 29 53  1  0  0  0  0
 29 65  1  0  0  0  0
 30 66  1  0  0  0  0
 30 69  1  0  0  0  0
 31 59  1  0  0  0  0
 31 63  1  0  0  0  0
 31 65  2  0  0  0  0
 32 70  1  0  0  0  0
 32 76  2  0  0  0  0
 33 50  1  0  0  0  0
 33 72  1  0  0  0  0
 33 77  2  0  0  0  0
 34 60  1  0  0  0  0
 34 67  1  0  0  0  0
 34 78  2  0  0  0  0
 35 61  1  0  0  0  0
 35 73  1  0  0  0  0
 35 79  2  0  0  0  0
 36 68  1  0  0  0  0
 36 71  1  0  0  0  0
 36 80  2  0  0  0  0
 37 40  1  0  0  0  0
 38 50  1  0  0  0  0
 39 67  1  0  0  0  0
 40 42  1  0  0  0  0
 41 43  1  0  0  0  0
 41 45  1  0  0  0  0
 42 49  1  0  0  0  0
 43 51  1  0  0  0  0
 44 47  1  0  0  0  0
 44 52  1  0  0  0  0
 45 68  1  0  0  0  0
 46 51  1  0  0  0  0
 46 68  1  0  0  0  0
 47 74  1  0  0  0  0
 48 52  1  0  0  0  0
 48 74  1  0  0  0  0
 49 72  1  0  0  0  0
 50 67  1  0  0  0  0
 51 66  1  0  0  0  0
 52 82  1  0  0  0  0
 54 61  1  0  0  0  0
 55 62  1  0  0  0  0
 56 62  1  0  0  0  0
 57 62  1  0  0  0  0
 58 75  1  0  0  0  0
 59 74  1  0  0  0  0
 60 62  1  0  0  0  0
 60 73  1  0  0  0  0
 61 75  1  0  0  0  0
 64 66  1  0  0  0  0
M  CHG  2  74   1  75   1
M  ISO  4  36 100  52 101  71 100  82 101
M  END
> <Batch ID>
0190

> <Smiles>
CNC(C)C(=O)NC(C(=O)N1Cc2cc([101O:1][101CH:1]3CCN(Cc4ncc([100NH:0][100C:0](=O)N5CCCC(n6nc(-c7ccc(Oc8ccc(F)cc8F)cc7)c(C(N)=O)c6N)C5)c(C)n4)C3)ccc2CC1C(=O)NC1CCCc2ccccc21)C(C)(C)C

> <Shape>
0.224

> <Color>
0.179

> <Negative vol penalty>
0.000

$$$$

  -OEChem-04052323243D

 87 97  0     1  0  0  0  0  0999 V2000
  -17.0279  -30.8113   23.5165 C   0  0  0  0  0  0  0  0  0  0  0  0
  -18.3577  -31.2064   23.4120 C   0  0  0  0  0  0  0  0  0  0  0  0
  -23.6836  -16.5526   19.6577 C   0  0  0  0  0  0  0  0  0  0  0  0
  -24.4131  -16.0158   21.8975 C   0  0  0  0  0  0  0  0  0  0  0  0
  -16.6942  -29.4605   23.4277 C   0  0  0  0  0  0  0  0  0  0  0  0
  -19.3547  -30.2507   23.2197 C   0  0  0  0  0  0  0  0  0  0  0  0
  -25.6939  -29.3658   20.0029 C   0  0  0  0  0  0  0  0  0  0  0  0
  -22.9305  -15.3791   19.6217 C   0  0  0  0  0  0  0  0  0  0  0  0
  -23.6599  -14.8423   21.8616 C   0  0  0  0  0  0  0  0  0  0  0  0
  -26.9938  -28.9455   20.2815 C   0  0  0  0  0  0  0  0  0  0  0  0
  -23.9410  -11.7411   20.5446 C   0  0  0  0  0  0  0  0  0  0  0  0
  -24.5416  -10.5712   21.0093 C   0  0  0  0  0  0  0  0  0  0  0  0
  -26.2911  -26.6481   20.0639 C   0  0  0  0  0  0  0  0  0  0  0  0
  -22.8186  -10.3540   22.6891 C   0  0  0  0  0  0  0  0  0  0  0  0
  -33.2617  -26.4229   21.4958 C   0  0  0  0  0  0  0  0  0  0  0  0
  -24.4249  -16.8710   20.7956 C   0  0  0  0  0  0  0  0  0  0  0  0
  -24.7814  -19.3511   21.2747 C   0  0  0  0  0  0  0  0  0  0  0  0
  -17.6866  -28.4886   23.2246 C   0  0  0  0  0  0  0  0  0  0  0  0
  -24.6788  -28.4285   19.7631 C   0  0  0  0  0  0  0  0  0  0  0  0
  -19.0341  -28.8855   23.1295 C   0  0  0  0  0  0  0  0  0  0  0  0
  -24.9798  -27.0591   19.7800 C   0  0  0  0  0  0  0  0  0  0  0  0
  -22.9186  -14.5239   20.7236 C   0  0  0  0  0  0  0  0  0  0  0  0
  -27.2919  -27.5864   20.3149 C   0  0  0  0  0  0  0  0  0  0  0  0
  -22.7792  -12.2176   21.1521 C   0  0  0  0  0  0  0  0  0  0  0  0
  -23.9804   -9.8776   22.0815 C   0  0  0  0  0  0  0  0  0  0  0  0
  -22.2181  -11.5240   22.2243 C   0  0  0  0  0  0  0  0  0  0  0  0
  -25.2035  -18.0828   20.8331 C   0  0  0  0  0  0  0  0  0  0  0  0
  -32.6457  -27.2189   22.4399 C   0  0  0  0  0  0  0  0  0  0  0  0
  -32.5658  -26.2474   20.3172 C   0  0  0  0  0  0  0  0  0  0  0  0
  -25.8821  -20.1559   21.1100 C   0  0  0  0  0  0  0  0  0  0  0  0
  -30.8657  -27.5566   21.0671 C   0  0  0  0  0  0  0  0  0  0  0  0
  -23.5082  -19.7647   21.7881 C   0  0  0  0  0  0  0  0  0  0  0  0
  -21.9344  -27.6816   21.1822 C   0  0  0  0  0  0  0  0  0  0  0  0
  -21.5884  -25.7285   18.6154 C   0  0  0  0  0  0  0  0  0  0  0  0
  -23.0690  -23.9588   16.1010 C   0  0  0  0  0  0  0  0  0  0  0  0
  -29.9913  -21.9307   17.9471 C   0  0  0  0  0  0  0  0  0  0  0  0
  -17.2825  -27.0362   23.1824 C   0  0  0  0  0  0  0  0  0  0  0  0
  -23.2876  -28.8987   19.4376 C   0  0  0  0  0  0  0  0  0  0  0  0
  -23.9304  -26.0131   19.5093 C   0  0  0  0  0  0  0  0  0  0  0  0
  -18.3584  -26.1212   22.6032 C   0  0  0  0  0  0  0  0  0  0  0  0
  -30.6808  -19.0278   20.0772 C   0  0  0  0  0  0  0  0  0  0  0  0
  -19.7182  -26.4421   23.2155 C   0  0  0  0  0  0  0  0  0  0  0  0
  -33.7537  -26.2764   24.5748 C   0  0  0  0  0  0  0  0  0  0  0  0
  -32.6092  -27.1309   25.0224 C   0  0  0  0  0  0  0  0  0  0  0  0
  -29.2665  -18.5949   20.4486 C   0  0  0  0  0  0  0  0  0  0  0  0
  -31.8712  -22.5142   15.2258 C   0  0  0  0  0  0  0  0  0  0  0  0
  -30.7598  -19.6059   18.6638 C   0  0  0  0  0  0  0  0  0  0  0  0
  -31.6805  -21.2506   16.0704 C   0  0  0  0  0  0  0  0  0  0  0  0
  -28.3726  -20.2680   18.7917 C   0  0  0  0  0  0  0  0  0  0  0  0
  -20.1415  -27.8809   22.8958 C   0  0  1  0  0  0  0  0  0  0  0  0
  -33.3321  -27.4585   23.7423 C   0  0  0  0  0  0  0  0  0  0  0  0
  -22.2203  -27.8448   19.7161 C   0  0  1  0  0  0  0  0  0  0  0  0
  -28.2768  -19.7495   20.2334 C   0  0  1  0  0  0  0  0  0  0  0  0
  -31.5211  -23.3467   16.4687 C   0  0  2  0  0  0  0  0  0  0  0  0
  -22.5293  -22.4300   14.1856 C   0  0  0  0  0  0  0  0  0  0  0  0
  -21.1185  -23.4398   20.5778 C   0  0  0  0  0  0  0  0  0  0  0  0
  -21.5336  -21.8369   18.6999 C   0  0  0  0  0  0  0  0  0  0  0  0
  -19.6146  -23.4261   18.5797 C   0  0  0  0  0  0  0  0  0  0  0  0
  -24.2206  -25.8376   14.1254 C   0  0  0  0  0  0  0  0  0  0  0  0
  -33.1549  -25.3974   19.2301 C   0  0  0  0  0  0  0  0  0  0  0  0
  -29.5351  -28.1861   20.8290 C   0  0  0  0  0  0  0  0  0  1  0  0
  -32.6695  -23.9269   17.2704 C   0  0  0  0  0  0  0  0  0  0  0  0
  -21.9692  -24.3027   18.2979 C   0  0  1  0  0  0  0  0  0  0  0  0
  -22.7633  -23.8694   14.6167 C   0  0  2  0  0  0  0  0  0  0  0  0
  -21.0786  -23.2708   19.0459 C   0  0  0  0  0  0  0  0  0  0  0  0
  -26.4733  -18.0773   20.4188 N   0  0  0  0  0  0  0  0  0  0  0  0
  -31.4435  -27.8038   22.2581 N   0  0  0  0  0  0  0  0  0  0  0  0
  -31.3610  -26.8013   20.0682 N   0  0  0  0  0  0  0  0  0  0  0  0
  -26.8585  -19.3521   20.5993 N   0  0  0  0  0  0  0  0  0  0  0  0
  -22.5838  -26.5227   19.2022 N   0  0  0  0  0  0  0  0  0  0  0  0
  -29.7467  -20.6438   18.4387 N   0  0  0  0  0  0  0  0  0  0  0  0
  -31.0293  -22.0991   17.0578 N   0  0  0  0  0  0  0  0  0  0  0  0
  -26.1004  -21.4656   21.3536 N   0  0  0  0  0  0  0  0  0  0  0  0
  -22.4872  -18.8101   21.8910 N   0  0  0  0  0  0  0  0  0  0  0  0
  -20.6313  -27.9736   21.5372 N   0  0  0  0  0  0  0  0  0  0  0  0
  -21.9297  -24.1836   16.8444 N   0  0  0  0  0  0  0  0  0  0  0  0
  -23.8962  -24.4203   13.8205 N   0  3  0  0  0  0  0  0  0  0  0  0
  -32.1237  -24.7226   18.3934 N   0  3  0  0  0  0  0  0  0  0  0  0
  -23.2776  -20.9495   22.1295 O   0  0  0  0  0  0  0  0  0  0  0  0
  -22.8294  -27.3162   21.9353 O   0  0  0  0  0  0  0  0  0  0  0  0
  -20.4518  -26.1252   18.3460 O   0  0  0  0  0  0  0  0  0  0  0  0
  -24.2043  -23.8373   16.5557 O   0  0  0  0  0  0  0  0  0  0  0  0
  -29.2868  -22.8974   18.2664 O   0  0  0  0  0  0  0  0  0  0  0  0
  -22.1837  -13.3789   20.6890 O   0  0  0  0  0  0  0  0  0  0  0  0
  -28.5683  -27.1706   20.5890 O   0  0  0  0  0  0  0  0  0  1  0  0
  -24.5564   -8.7532   22.5267 F   0  0  0  0  0  0  0  0  0  0  0  0
  -21.1014  -11.9762   22.8112 F   0  0  0  0  0  0  0  0  0  0  0  0
  1  2  1  0  0  0  0
  1  5  2  0  0  0  0
  2  6  2  0  0  0  0
  3  8  2  0  0  0  0
  3 16  1  0  0  0  0
  4  9  1  0  0  0  0
  4 16  2  0  0  0  0
  5 18  1  0  0  0  0
  6 20  1  0  0  0  0
  7 10  2  0  0  0  0
  7 19  1  0  0  0  0
  8 22  1  0  0  0  0
  9 22  2  0  0  0  0
 10 23  1  0  0  0  0
 11 12  2  0  0  0  0
 11 24  1  0  0  0  0
 12 25  1  0  0  0  0
 13 21  1  0  0  0  0
 13 23  2  0  0  0  0
 14 25  2  0  0  0  0
 14 26  1  0  0  0  0
 15 28  2  0  0  0  0
 15 29  1  0  0  0  0
 16 27  1  0  0  0  0
 17 27  1  0  0  0  0
 17 30  2  0  0  0  0
 17 32  1  0  0  0  0
 18 20  2  0  0  0  0
 18 37  1  0  0  0  0
 19 21  2  0  0  0  0
 19 38  1  0  0  0  0
 20 50  1  0  0  0  0
 21 39  1  0  0  0  0
 22 84  1  0  0  0  0
 23 85  1  0  0  0  0
 24 26  2  0  0  0  0
 24 84  1  0  0  0  0
 25 86  1  0  0  0  0
 26 87  1  0  0  0  0
 27 66  2  0  0  0  0
 28 51  1  0  0  0  0
 28 67  1  0  0  0  0
 29 60  1  0  0  0  0
 29 68  2  0  0  0  0
 30 69  1  0  0  0  0
 30 73  1  0  0  0  0
 31 61  1  0  0  0  0
 31 67  2  0  0  0  0
 31 68  1  0  0  0  0
 32 74  1  0  0  0  0
 32 79  2  0  0  0  0
 33 52  1  0  0  0  0
 33 75  1  0  0  0  0
 33 80  2  0  0  0  0
 34 63  1  0  0  0  0
 34 70  1  0  0  0  0
 34 81  2  0  0  0  0
 35 64  1  0  0  0  0
 35 76  1  0  0  0  0
 35 82  2  0  0  0  0
 36 71  1  0  0  0  0
 36 72  1  0  0  0  0
 36 83  2  0  0  0  0
 37 40  1  0  0  0  0
 38 52  1  0  0  0  0
 39 70  1  0  0  0  0
 40 42  1  0  0  0  0
 41 45  1  0  0  0  0
 41 47  1  0  0  0  0
 42 50  1  0  0  0  0
 43 44  1  0  0  0  0
 43 51  1  0  0  0  0
 44 51  1  0  0  0  0
 45 53  1  0  0  0  0
 46 48  1  0  0  0  0
 46 54  1  0  0  0  0
 47 71  1  0  0  0  0
 48 72  1  0  0  0  0
 49 53  1  0  0  0  0
 49 71  1  0  0  0  0
 50 75  1  0  0  0  0
 52 70  1  0  0  0  0
 53 69  1  0  0  0  0
 54 62  1  0  0  0  0
 54 72  1  0  0  0  0
 55 64  1  0  0  0  0
 56 65  1  0  0  0  0
 57 65  1  0  0  0  0
 58 65  1  0  0  0  0
 59 77  1  0  0  0  0
 60 78  1  0  0  0  0
 61 85  1  0  0  0  0
 62 78  1  0  0  0  0
 63 65  1  0  0  0  0
 63 76  1  0  0  0  0
 64 77  1  0  0  0  0
 66 69  1  0  0  0  0
M  CHG  2  77   1  78   1
M  ISO  4  36 100  61 101  72 100  85 101
M  END
> <Batch ID>
0190

> <Smiles>
CNC(C)C(=O)NC(C(=O)N1Cc2cc([101O:1][101CH2:1]c3nc(CNCC4CC[100N:0]4[100C:0](=O)N4CCCC(n5nc(-c6ccc(Oc7ccc(F)cc7F)cc6)c(C(N)=O)c5N)C4)cc(C4CC4)n3)ccc2CC1C(=O)NC1CCCc2ccccc21)C(C)(C)C

> <Shape>
0.225

> <Color>
0.070

> <Negative vol penalty>
0.000

$$$$

  -OEChem-04052323243D

 85 94  0     1  0  0  0  0  0999 V2000
  -28.8404  -30.3940   26.9489 C   0  0  0  0  0  0  0  0  0  0  0  0
  -28.7596  -29.5347   25.8578 C   0  0  0  0  0  0  0  0  0  0  0  0
  -23.6055  -10.4151   22.2616 C   0  0  0  0  0  0  0  0  0  0  0  0
  -24.2759   -9.0074   20.4161 C   0  0  0  0  0  0  0  0  0  0  0  0
  -27.6791  -30.7873   27.6126 C   0  0  0  0  0  0  0  0  0  0  0  0
  -27.5173  -29.0672   25.4305 C   0  0  0  0  0  0  0  0  0  0  0  0
  -26.9899  -29.2738   20.3982 C   0  0  0  0  0  0  0  0  0  0  0  0
  -22.4125   -9.7011   22.3729 C   0  0  0  0  0  0  0  0  0  0  0  0
  -23.0828   -8.2933   20.5274 C   0  0  0  0  0  0  0  0  0  0  0  0
  -27.6144  -28.2760   19.6510 C   0  0  0  0  0  0  0  0  0  0  0  0
  -21.8109   -5.8637   22.5021 C   0  0  0  0  0  0  0  0  0  0  0  0
  -21.8828   -4.4718   22.4467 C   0  0  0  0  0  0  0  0  0  0  0  0
  -25.5091  -27.1150   19.4532 C   0  0  0  0  0  0  0  0  0  0  0  0
  -20.4468   -4.4750   20.5037 C   0  0  0  0  0  0  0  0  0  0  0  0
  -24.5373  -10.0682   21.2832 C   0  0  0  0  0  0  0  0  0  0  0  0
  -26.9880  -10.5329   21.8178 C   0  0  0  0  0  0  0  0  0  0  0  0
  -26.4211  -30.3320   27.1872 C   0  0  0  0  0  0  0  0  0  0  0  0
  -25.6203  -29.1940   20.6882 C   0  0  0  0  0  0  0  0  0  0  0  0
  -26.3381  -29.4536   26.0899 C   0  0  0  0  0  0  0  0  0  0  0  0
  -24.8691  -28.1144   20.2020 C   0  0  0  0  0  0  0  0  0  0  0  0
  -22.1511   -8.6402   21.5058 C   0  0  0  0  0  0  0  0  0  0  0  0
  -26.8746  -27.1949   19.1808 C   0  0  0  0  0  0  0  0  0  0  0  0
  -21.0569   -6.5613   21.5583 C   0  0  0  0  0  0  0  0  0  0  0  0
  -21.2008   -3.7775   21.4475 C   0  0  0  0  0  0  0  0  0  0  0  0
  -20.3749   -5.8669   20.5591 C   0  0  0  0  0  0  0  0  0  0  0  0
  -25.7697  -10.8058   21.1674 C   0  0  0  0  0  0  0  0  0  0  0  0
  -28.4149  -24.0940   21.0938 C   0  0  0  0  0  0  0  0  0  0  0  0
  -29.0375  -23.0845   20.4056 C   0  0  0  0  0  0  0  0  0  0  0  0
  -27.8403  -11.5155   21.3768 C   0  0  0  0  0  0  0  0  0  0  0  0
  -28.0156  -25.1411   19.1331 C   0  0  0  0  0  0  0  0  0  1  0  0
  -27.3196   -9.4848   22.7383 C   0  0  0  0  0  0  0  0  0  0  0  0
  -23.9001  -28.9864   23.3530 C   0  0  0  0  0  0  0  0  0  0  0  0
  -21.4053  -29.3041   21.3043 C   0  0  0  0  0  0  0  0  0  0  0  0
  -20.1997  -28.9537   18.1309 C   0  0  0  0  0  0  0  0  0  0  0  0
  -29.0601  -16.6098   20.2017 C   0  0  0  0  0  0  0  0  0  0  0  0
  -25.1977  -30.7469   27.9655 C   0  0  0  0  0  0  0  0  0  0  0  0
  -24.9562  -30.2922   21.4727 C   0  0  0  0  0  0  0  0  0  0  0  0
  -23.3918  -27.9923   20.4686 C   0  0  0  0  0  0  0  0  0  0  0  0
  -23.8890  -30.5044   27.2179 C   0  0  0  0  0  0  0  0  0  0  0  0
  -27.3396  -14.8997   17.6602 C   0  0  0  0  0  0  0  0  0  0  0  0
  -23.8759  -29.1082   26.6037 C   0  0  0  0  0  0  0  0  0  0  0  0
  -26.8691  -13.6487   18.4014 C   0  0  0  0  0  0  0  0  0  0  0  0
  -27.2163  -16.1574   18.5222 C   0  0  0  0  0  0  0  0  0  0  0  0
  -28.2348  -18.8214   19.2785 C   0  0  0  0  0  0  0  0  0  0  0  0
  -30.6320  -18.4668   19.7433 C   0  0  0  0  0  0  0  0  0  0  0  0
  -27.4130  -14.7991   20.5802 C   0  0  0  0  0  0  0  0  0  0  0  0
  -28.2247  -20.0330   20.2050 C   0  0  0  0  0  0  0  0  0  0  0  0
  -30.6526  -19.6534   20.6930 C   0  0  0  0  0  0  0  0  0  0  0  0
  -25.0069  -28.9448   25.5811 C   0  0  1  0  0  0  0  0  0  0  0  0
  -23.6610  -29.8471   22.1449 C   0  0  1  0  0  0  0  0  0  0  0  0
  -27.5803  -13.5111   19.7593 C   0  0  1  0  0  0  0  0  0  0  0  0
  -28.3212  -25.4603   23.1941 C   0  0  0  0  0  0  0  0  0  0  0  0
  -18.1125  -29.2592   16.7716 C   0  0  0  0  0  0  0  0  0  0  0  0
  -20.2411  -26.7616   22.5251 C   0  0  0  0  0  0  0  0  0  0  0  0
  -18.7141  -26.5949   20.5480 C   0  0  0  0  0  0  0  0  0  0  0  0
  -18.5666  -28.5634   22.0731 C   0  0  0  0  0  0  0  0  0  0  0  0
  -21.5029  -30.9365   16.3619 C   0  0  0  0  0  0  0  0  0  0  0  0
  -28.2942  -24.0630   22.5790 C   0  0  0  0  0  0  0  0  0  0  0  0
  -29.6279  -21.8922   21.0991 C   0  0  0  0  0  0  0  0  0  0  0  0
  -20.5441  -28.3501   20.5123 C   0  0  1  0  0  0  0  0  0  0  0  0
  -19.4092  -29.8984   17.2436 C   0  0  2  0  0  0  0  0  0  0  0  0
  -19.5447  -27.5685   21.4111 C   0  0  0  0  0  0  0  0  0  0  0  0
  -25.8377  -11.8779   20.3737 N   0  0  0  0  0  0  0  0  0  0  0  0
  -27.8844  -25.1557   20.4681 N   0  0  0  0  0  0  0  0  0  0  0  0
  -29.1388  -23.1246   19.0647 N   0  0  0  0  0  0  0  0  0  0  0  0
  -28.6155  -24.1788   18.4050 N   0  0  0  0  0  0  0  0  0  0  0  0
  -27.1090  -12.2874   20.5225 N   0  0  0  0  0  0  0  0  0  0  0  0
  -22.7894  -29.0881   21.2457 N   0  0  0  0  0  0  0  0  0  0  0  0
  -27.8738  -15.9643   19.8222 N   0  0  0  0  0  0  0  0  0  0  0  0
  -29.2963  -17.8805   19.6566 N   0  0  0  0  0  0  0  0  0  0  0  0
  -29.1363  -11.7860   21.6403 N   0  0  0  0  0  0  0  0  0  0  0  0
  -26.3252   -8.5596   23.0838 N   0  0  0  0  0  0  0  0  0  0  0  0
  -24.6593  -29.5937   24.3351 N   0  0  0  0  0  0  0  0  0  0  0  0
  -19.9108  -29.1448   19.4655 N   0  0  0  0  0  0  0  0  0  0  0  0
  -29.6026  -20.6481   20.2559 N   0  3  0  0  0  0  0  0  0  0  0  0
  -20.2106  -30.2758   16.0452 N   0  3  0  0  0  0  0  0  0  0  0  0
  -28.4593   -9.3819   23.2522 O   0  0  0  0  0  0  0  0  0  0  0  0
  -23.4293  -27.8557   23.3921 O   0  0  0  0  0  0  0  0  0  0  0  0
  -20.8701  -30.2120   21.9453 O   0  0  0  0  0  0  0  0  0  0  0  0
  -20.9913  -28.1263   17.6844 O   0  0  0  0  0  0  0  0  0  0  0  0
  -29.8615  -16.0816   20.9829 O   0  0  0  0  0  0  0  0  0  0  0  0
  -20.9871   -7.9432   21.6142 O   0  0  0  0  0  0  0  0  0  0  0  0
  -27.4896  -26.2065   18.4423 O   0  0  0  0  0  0  0  0  0  1  0  0
  -21.2712   -2.4409   21.3935 F   0  0  0  0  0  0  0  0  0  0  0  0
  -19.6499   -6.5316   19.6490 F   0  0  0  0  0  0  0  0  0  0  0  0
  1  2  1  0  0  0  0
  1  5  2  0  0  0  0
  2  6  2  0  0  0  0
  3  8  2  0  0  0  0
  3 15  1  0  0  0  0
  4  9  1  0  0  0  0
  4 15  2  0  0  0  0
  5 17  1  0  0  0  0
  6 19  1  0  0  0  0
  7 10  2  0  0  0  0
  7 18  1  0  0  0  0
  8 21  1  0  0  0  0
  9 21  2  0  0  0  0
 10 22  1  0  0  0  0
 11 12  2  0  0  0  0
 11 23  1  0  0  0  0
 12 24  1  0  0  0  0
 13 20  1  0  0  0  0
 13 22  2  0  0  0  0
 14 24  2  0  0  0  0
 14 25  1  0  0  0  0
 15 26  1  0  0  0  0
 16 26  1  0  0  0  0
 16 29  2  0  0  0  0
 16 31  1  0  0  0  0
 17 19  2  0  0  0  0
 17 36  1  0  0  0  0
 18 20  2  0  0  0  0
 18 37  1  0  0  0  0
 19 49  1  0  0  0  0
 20 38  1  0  0  0  0
 21 82  1  0  0  0  0
 22 83  1  0  0  0  0
 23 25  2  0  0  0  0
 23 82  1  0  0  0  0
 24 84  1  0  0  0  0
 25 85  1  0  0  0  0
 26 63  2  0  0  0  0
 27 28  2  0  0  0  0
 27 58  1  0  0  0  0
 27 64  1  0  0  0  0
 28 59  1  0  0  0  0
 28 65  1  0  0  0  0
 29 67  1  0  0  0  0
 29 71  1  0  0  0  0
 30 64  2  0  0  0  0
 30 66  1  0  0  0  0
 30 83  1  0  0  0  0
 31 72  1  0  0  0  0
 31 77  2  0  0  0  0
 32 50  1  0  0  0  0
 32 73  1  0  0  0  0
 32 78  2  0  0  0  0
 33 60  1  0  0  0  0
 33 68  1  0  0  0  0
 33 79  2  0  0  0  0
 34 61  1  0  0  0  0
 34 74  1  0  0  0  0
 34 80  2  0  0  0  0
 35 69  1  0  0  0  0
 35 70  1  0  0  0  0
 35 81  2  0  0  0  0
 36 39  1  0  0  0  0
 37 50  1  0  0  0  0
 38 68  1  0  0  0  0
 39 41  1  0  0  0  0
 40 42  1  0  0  0  0
 40 43  1  0  0  0  0
 41 49  1  0  0  0  0
 42 51  1  0  0  0  0
 43 69  1  0  0  0  0
 44 47  1  0  0  0  0
 44 70  1  0  0  0  0
 45 48  1  0  0  0  0
 45 70  1  0  0  0  0
 46 51  1  0  0  0  0
 46 69  1  0  0  0  0
 47 75  1  0  0  0  0
 48 75  1  0  0  0  0
 49 73  1  0  0  0  0
 50 68  1  0  0  0  0
 51 67  1  0  0  0  0
 52 58  1  0  0  0  0
 53 61  1  0  0  0  0
 54 62  1  0  0  0  0
 55 62  1  0  0  0  0
 56 62  1  0  0  0  0
 57 76  1  0  0  0  0
 59 75  1  0  0  0  0
 60 62  1  0  0  0  0
 60 74  1  0  0  0  0
 61 76  1  0  0  0  0
 63 67  1  0  0  0  0
 65 66  2  0  0  0  0
M  CHG  2  75   1  76   1
M  ISO  4  30 101  35 100  70 100  83 101
M  END
> <Batch ID>
0190

> <Smiles>
CCc1n[101c:1]([101O:1]c2ccc3c(c2)CN(C(=O)C(NC(=O)C(C)NC)C(C)(C)C)C(C(=O)NC2CCCc4ccccc42)C3)nnc1CN1CC[100N:0]([100C:0](=O)N2CCCC(n3nc(-c4ccc(Oc5ccc(F)cc5F)cc4)c(C(N)=O)c3N)C2)CC1

> <Shape>
0.289

> <Color>
0.087

> <Negative vol penalty>
0.000

$$$$

  -OEChem-04052323243D

 85 94  0     1  0  0  0  0  0999 V2000
  -19.0634  -25.1179   25.1035 C   0  0  0  0  0  0  0  0  0  0  0  0
  -20.4316  -25.3152   24.9462 C   0  0  0  0  0  0  0  0  0  0  0  0
  -24.5368   -9.8695   21.7941 C   0  0  0  0  0  0  0  0  0  0  0  0
  -22.9421  -10.9413   20.3295 C   0  0  0  0  0  0  0  0  0  0  0  0
  -18.1617  -25.8430   24.3256 C   0  0  0  0  0  0  0  0  0  0  0  0
  -20.8988  -26.2370   24.0100 C   0  0  0  0  0  0  0  0  0  0  0  0
  -24.6025  -29.1624   25.8457 C   0  0  0  0  0  0  0  0  0  0  0  0
  -23.6783   -8.7787   21.9307 C   0  0  0  0  0  0  0  0  0  0  0  0
  -22.0835   -9.8505   20.4661 C   0  0  0  0  0  0  0  0  0  0  0  0
  -25.8775  -28.6033   25.9207 C   0  0  0  0  0  0  0  0  0  0  0  0
  -20.8856   -8.0105   23.6729 C   0  0  0  0  0  0  0  0  0  0  0  0
  -20.6868   -7.4999   24.9555 C   0  0  0  0  0  0  0  0  0  0  0  0
  -26.4904  -29.7427   23.8847 C   0  0  0  0  0  0  0  0  0  0  0  0
  -21.5497   -5.3605   24.2375 C   0  0  0  0  0  0  0  0  0  0  0  0
  -29.6599  -25.4080   23.8524 C   0  0  0  0  0  0  0  0  0  0  0  0
  -24.1687  -10.9508   20.9935 C   0  0  0  0  0  0  0  0  0  0  0  0
  -26.0614  -12.2523   19.8836 C   0  0  0  0  0  0  0  0  0  0  0  0
  -18.6179  -26.7812   23.3863 C   0  0  0  0  0  0  0  0  0  0  0  0
  -24.2579  -30.0086   24.7819 C   0  0  0  0  0  0  0  0  0  0  0  0
  -20.0024  -26.9744   23.2180 C   0  0  0  0  0  0  0  0  0  0  0  0
  -25.2113  -30.3133   23.7998 C   0  0  0  0  0  0  0  0  0  0  0  0
  -28.6435  -24.7560   23.1842 C   0  0  0  0  0  0  0  0  0  0  0  0
  -22.4517   -8.7692   21.2667 C   0  0  0  0  0  0  0  0  0  0  0  0
  -26.8208  -28.8911   24.9386 C   0  0  0  0  0  0  0  0  0  0  0  0
  -21.4163   -7.1962   22.6724 C   0  0  0  0  0  0  0  0  0  0  0  0
  -21.0189   -6.1749   25.2379 C   0  0  0  0  0  0  0  0  0  0  0  0
  -21.7484   -5.8712   22.9547 C   0  0  0  0  0  0  0  0  0  0  0  0
  -25.0549  -12.0782   20.8524 C   0  0  0  0  0  0  0  0  0  0  0  0
  -27.4237  -25.4012   23.1771 C   0  0  0  0  0  0  0  0  0  0  0  0
  -26.6126  -13.4756   20.1772 C   0  0  0  0  0  0  0  0  0  0  0  0
  -28.2718  -27.1254   24.3915 C   0  0  0  0  0  0  0  0  0  1  0  0
  -26.4621  -11.3858   18.8139 C   0  0  0  0  0  0  0  0  0  0  0  0
  -22.1101  -29.9081   22.4409 C   0  0  0  0  0  0  0  0  0  0  0  0
  -23.1908  -32.9085   21.8477 C   0  0  0  0  0  0  0  0  0  0  0  0
  -25.7166  -35.1864   22.1280 C   0  0  0  0  0  0  0  0  0  0  0  0
  -25.8387  -18.8200   21.3938 C   0  0  0  0  0  0  0  0  0  0  0  0
  -17.6064  -27.5070   22.5351 C   0  0  0  0  0  0  0  0  0  0  0  0
  -22.8869  -30.6250   24.7297 C   0  0  0  0  0  0  0  0  0  0  0  0
  -24.8977  -31.2319   22.6482 C   0  0  0  0  0  0  0  0  0  0  0  0
  -18.1738  -28.7361   21.8296 C   0  0  0  0  0  0  0  0  0  0  0  0
  -26.0275  -16.4740   24.2058 C   0  0  0  0  0  0  0  0  0  0  0  0
  -19.5141  -28.4073   21.1797 C   0  0  0  0  0  0  0  0  0  0  0  0
  -25.8540  -15.1312   23.4942 C   0  0  0  0  0  0  0  0  0  0  0  0
  -25.2085  -17.5628   23.5231 C   0  0  0  0  0  0  0  0  0  0  0  0
  -25.3333  -16.4019   21.3557 C   0  0  0  0  0  0  0  0  0  0  0  0
  -27.3758  -19.9267   23.2018 C   0  0  0  0  0  0  0  0  0  0  0  0
  -26.7962  -21.1792   21.5811 C   0  0  0  0  0  0  0  0  0  0  0  0
  -20.5474  -27.9834   22.2305 C   0  0  1  0  0  0  0  0  0  0  0  0
  -22.4822  -31.0640   23.3258 C   0  0  1  0  0  0  0  0  0  0  0  0
  -26.1460  -15.2566   21.9876 C   0  0  2  0  0  0  0  0  0  0  0  0
  -28.0535  -21.0821   22.4525 C   0  0  0  0  0  0  0  0  0  0  0  0
  -25.1003  -25.7763   22.3125 C   0  0  0  0  0  0  0  0  0  0  0  0
  -26.3214  -37.5429   21.5126 C   0  0  0  0  0  0  0  0  0  0  0  0
  -23.6788  -32.0285   18.9671 C   0  0  0  0  0  0  0  0  0  0  0  0
  -25.1244  -34.0506   18.6678 C   0  0  0  0  0  0  0  0  0  0  0  0
  -22.7037  -34.3190   19.2073 C   0  0  0  0  0  0  0  0  0  0  0  0
  -26.0177  -35.9731   24.9651 C   0  0  0  0  0  0  0  0  0  0  0  0
  -29.0993  -21.9778   24.5273 C   0  0  0  0  0  0  0  0  0  0  0  0
  -28.8759  -23.4318   22.5182 C   0  0  0  0  0  0  0  0  0  0  0  0
  -26.2509  -24.7891   22.4848 C   0  0  0  0  0  0  0  0  0  0  0  0
  -24.2895  -33.5007   20.9983 C   0  0  1  0  0  0  0  0  0  0  0  0
  -25.7198  -36.6369   22.5757 C   0  0  2  0  0  0  0  0  0  0  0  0
  -23.9547  -33.4558   19.4806 C   0  0  0  0  0  0  0  0  0  0  0  0
  -29.5085  -26.5982   24.4694 N   0  0  0  0  0  0  0  0  0  0  0  0
  -24.9697  -13.1083   21.6983 N   0  0  0  0  0  0  0  0  0  0  0  0
  -27.2016  -26.5912   23.7728 N   0  0  0  0  0  0  0  0  0  0  0  0
  -25.9297  -13.9415   21.2620 N   0  0  0  0  0  0  0  0  0  0  0  0
  -23.5415  -31.8047   22.6379 N   0  0  0  0  0  0  0  0  0  0  0  0
  -25.5397  -17.6502   22.0975 N   0  0  0  0  0  0  0  0  0  0  0  0
  -26.4681  -19.8408   22.0667 N   0  0  0  0  0  0  0  0  0  0  0  0
  -27.6101  -14.1873   19.6108 N   0  0  0  0  0  0  0  0  0  0  0  0
  -25.7900  -10.1663   18.6545 N   0  0  0  0  0  0  0  0  0  0  0  0
  -21.0668  -29.1421   22.9248 N   0  0  0  0  0  0  0  0  0  0  0  0
  -24.5287  -34.8428   21.5180 N   0  0  0  0  0  0  0  0  0  0  0  0
  -26.5130  -36.7907   23.8279 N   0  3  0  0  0  0  0  0  0  0  0  0
  -28.2806  -22.2686   23.2857 N   0  3  1  0  0  0  0  0  0  0  0  0
  -27.3996  -11.6767   18.0329 O   0  0  0  0  0  0  0  0  0  0  0  0
  -22.7231  -29.7257   21.3956 O   0  0  0  0  0  0  0  0  0  0  0  0
  -22.0649  -33.4114   21.8167 O   0  0  0  0  0  0  0  0  0  0  0  0
  -26.6737  -34.4345   22.2987 O   0  0  0  0  0  0  0  0  0  0  0  0
  -25.5811  -18.9401   20.1886 O   0  0  0  0  0  0  0  0  0  0  0  0
  -21.6137   -7.7049   21.3997 O   0  0  0  0  0  0  0  0  0  0  0  0
  -28.0815  -28.3393   25.0101 O   0  0  0  0  0  0  0  0  0  1  0  0
  -20.8294   -5.6850   26.4701 F   0  0  0  0  0  0  0  0  0  0  0  0
  -22.2597   -5.0843   21.9981 F   0  0  0  0  0  0  0  0  0  0  0  0
  1  2  1  0  0  0  0
  1  5  2  0  0  0  0
  2  6  2  0  0  0  0
  3  8  2  0  0  0  0
  3 16  1  0  0  0  0
  4  9  1  0  0  0  0
  4 16  2  0  0  0  0
  5 18  1  0  0  0  0
  6 20  1  0  0  0  0
  7 10  2  0  0  0  0
  7 19  1  0  0  0  0
  8 23  1  0  0  0  0
  9 23  2  0  0  0  0
 10 24  1  0  0  0  0
 11 12  2  0  0  0  0
 11 25  1  0  0  0  0
 12 26  1  0  0  0  0
 13 21  1  0  0  0  0
 13 24  2  0  0  0  0
 14 26  2  0  0  0  0
 14 27  1  0  0  0  0
 15 22  1  0  0  0  0
 15 64  2  0  0  0  0
 16 28  1  0  0  0  0
 17 28  1  0  0  0  0
 17 30  2  0  0  0  0
 17 32  1  0  0  0  0
 18 20  2  0  0  0  0
 18 37  1  0  0  0  0
 19 21  2  0  0  0  0
 19 38  1  0  0  0  0
 20 48  1  0  0  0  0
 21 39  1  0  0  0  0
 22 29  2  0  0  0  0
 22 59  1  0  0  0  0
 23 82  1  0  0  0  0
 24 83  1  0  0  0  0
 25 27  2  0  0  0  0
 25 82  1  0  0  0  0
 26 84  1  0  0  0  0
 27 85  1  0  0  0  0
 28 65  2  0  0  0  0
 29 60  1  0  0  0  0
 29 66  1  0  0  0  0
 30 67  1  0  0  0  0
 30 71  1  0  0  0  0
 31 64  1  0  0  0  0
 31 66  2  0  0  0  0
 31 83  1  0  0  0  0
 32 72  1  0  0  0  0
 32 77  2  0  0  0  0
 33 49  1  0  0  0  0
 33 73  1  0  0  0  0
 33 78  2  0  0  0  0
 34 61  1  0  0  0  0
 34 68  1  0  0  0  0
 34 79  2  0  0  0  0
 35 62  1  0  0  0  0
 35 74  1  0  0  0  0
 35 80  2  0  0  0  0
 36 69  1  0  0  0  0
 36 70  1  0  0  0  0
 36 81  2  0  0  0  0
 37 40  1  0  0  0  0
 38 49  1  0  0  0  0
 39 68  1  0  0  0  0
 40 42  1  0  0  0  0
 41 43  1  0  0  0  0
 41 44  1  0  0  0  0
 42 48  1  0  0  0  0
 43 50  1  0  0  0  0
 44 69  1  0  0  0  0
 45 50  1  0  0  0  0
 45 69  1  0  0  0  0
 46 51  1  0  0  0  0
 46 70  1  0  0  0  0
 47 51  1  0  0  0  0
 47 70  1  0  0  0  0
 48 73  1  0  0  0  0
 49 68  1  0  0  0  0
 50 67  1  0  0  0  0
 51 76  1  0  0  0  0
 52 60  1  0  0  0  0
 53 62  1  0  0  0  0
 54 63  1  0  0  0  0
 55 63  1  0  0  0  0
 56 63  1  0  0  0  0
 57 75  1  0  0  0  0
 58 76  1  0  0  0  0
 59 76  1  0  0  0  0
 61 63  1  0  0  0  0
 61 74  1  0  0  0  0
 62 75  1  0  0  0  0
 65 67  1  0  0  0  0
M  CHG  2  75   1  76   1
M  ISO  4  31 101  36 100  70 100  83 101
M  END
> <Batch ID>
0190

> <Smiles>
CCc1n[101c:1]([101O:1]c2ccc3c(c2)CN(C(=O)C(NC(=O)C(C)NC)C(C)(C)C)C(C(=O)NC2CCCc4ccccc42)C3)ncc1CN(C)C1C[100N:0]([100C:0](=O)N2CCCC(n3nc(-c4ccc(Oc5ccc(F)cc5F)cc4)c(C(N)=O)c3N)C2)C1

> <Shape>
0.246

> <Color>
0.108

> <Negative vol penalty>
0.000

$$$$

  -OEChem-04052323243D

 83 91  0     1  0  0  0  0  0999 V2000
  -18.9903  -30.9327   24.2356 C   0  0  0  0  0  0  0  0  0  0  0  0
  -20.3554  -30.7325   24.0570 C   0  0  0  0  0  0  0  0  0  0  0  0
  -25.3411  -13.6247   19.3866 C   0  0  0  0  0  0  0  0  0  0  0  0
  -25.3939  -14.7518   21.5230 C   0  0  0  0  0  0  0  0  0  0  0  0
  -18.0861  -29.9410   23.8577 C   0  0  0  0  0  0  0  0  0  0  0  0
  -20.8171  -29.5399   23.5012 C   0  0  0  0  0  0  0  0  0  0  0  0
  -25.6661  -28.8240   19.8296 C   0  0  0  0  0  0  0  0  0  0  0  0
  -25.2216  -12.3968   20.0374 C   0  0  0  0  0  0  0  0  0  0  0  0
  -25.2743  -13.5239   22.1737 C   0  0  0  0  0  0  0  0  0  0  0  0
  -26.9758  -28.4136   20.0747 C   0  0  0  0  0  0  0  0  0  0  0  0
  -24.5394   -8.9969   21.1284 C   0  0  0  0  0  0  0  0  0  0  0  0
  -23.5960   -8.0931   20.6398 C   0  0  0  0  0  0  0  0  0  0  0  0
  -26.3852  -26.1650   19.4311 C   0  0  0  0  0  0  0  0  0  0  0  0
  -21.8405   -9.6993   21.0584 C   0  0  0  0  0  0  0  0  0  0  0  0
  -31.1614  -23.4218   23.1968 C   0  0  0  0  0  0  0  0  0  0  0  0
  -29.8499  -21.6447   22.6040 C   0  0  0  0  0  0  0  0  0  0  0  0
  -25.4274  -14.8022   20.1294 C   0  0  0  0  0  0  0  0  0  0  0  0
  -24.5070  -16.9162   19.0378 C   0  0  0  0  0  0  0  0  0  0  0  0
  -18.5364  -28.7396   23.2880 C   0  0  0  0  0  0  0  0  0  0  0  0
  -24.7019  -27.9042   19.3931 C   0  0  0  0  0  0  0  0  0  0  0  0
  -19.9182  -28.5307   23.1164 C   0  0  0  0  0  0  0  0  0  0  0  0
  -25.0646  -26.5668   19.1787 C   0  0  0  0  0  0  0  0  0  0  0  0
  -25.1881  -12.3463   21.4309 C   0  0  0  0  0  0  0  0  0  0  0  0
  -27.3348  -27.0833   19.8783 C   0  0  0  0  0  0  0  0  0  0  0  0
  -24.1333  -10.2519   21.5821 C   0  0  0  0  0  0  0  0  0  0  0  0
  -22.2466   -8.4443   20.6047 C   0  0  0  0  0  0  0  0  0  0  0  0
  -22.7839  -10.6031   21.5471 C   0  0  0  0  0  0  0  0  0  0  0  0
  -25.5514  -16.0709   19.4578 C   0  0  0  0  0  0  0  0  0  0  0  0
  -31.7869  -23.3692   21.9707 C   0  0  0  0  0  0  0  0  0  0  0  0
  -30.4748  -21.5926   21.3775 C   0  0  0  0  0  0  0  0  0  0  0  0
  -25.1434  -17.9866   18.4584 C   0  0  0  0  0  0  0  0  0  0  0  0
  -23.0883  -16.7489   19.1607 C   0  0  0  0  0  0  0  0  0  0  0  0
  -21.9570  -26.8072   20.5619 C   0  0  0  0  0  0  0  0  0  0  0  0
  -21.7704  -25.3290   17.6806 C   0  0  0  0  0  0  0  0  0  0  0  0
  -23.3981  -24.0952   14.9464 C   0  0  0  0  0  0  0  0  0  0  0  0
  -30.5708  -20.3829   19.1699 C   0  0  0  0  0  0  0  0  0  0  0  0
  -17.5241  -27.6776   22.9387 C   0  0  0  0  0  0  0  0  0  0  0  0
  -23.2999  -28.3683   19.1075 C   0  0  0  0  0  0  0  0  0  0  0  0
  -24.0719  -25.5442   18.6915 C   0  0  0  0  0  0  0  0  0  0  0  0
  -18.0717  -26.5956   22.0115 C   0  0  0  0  0  0  0  0  0  0  0  0
  -29.1716  -19.1417   16.1402 C   0  0  0  0  0  0  0  0  0  0  0  0
  -19.4357  -26.1161   22.4977 C   0  0  0  0  0  0  0  0  0  0  0  0
  -27.9857  -18.2952   16.6086 C   0  0  0  0  0  0  0  0  0  0  0  0
  -30.3590  -19.0319   17.0950 C   0  0  0  0  0  0  0  0  0  0  0  0
  -28.8658  -18.4674   18.9714 C   0  0  0  0  0  0  0  0  0  0  0  0
  -20.4563  -27.2606   22.4941 C   0  0  1  0  0  0  0  0  0  0  0  0
  -22.2748  -27.2397   19.1585 C   0  0  1  0  0  0  0  0  0  0  0  0
  -27.6228  -18.5967   18.0759 C   0  0  2  0  0  0  0  0  0  0  0  0
  -34.2241  -23.6350   21.4021 C   0  0  0  0  0  0  0  0  0  0  0  0
  -22.9810  -22.9106   12.7739 C   0  0  0  0  0  0  0  0  0  0  0  0
  -21.3528  -22.7109   19.1910 C   0  0  0  0  0  0  0  0  0  0  0  0
  -21.8916  -21.4853   17.0754 C   0  0  0  0  0  0  0  0  0  0  0  0
  -19.9058  -22.9920   17.1707 C   0  0  0  0  0  0  0  0  0  0  0  0
  -24.5156  -26.3399   13.3744 C   0  0  0  0  0  0  0  0  0  0  0  0
  -30.9373  -26.9374   19.5601 C   0  0  0  0  0  0  0  0  0  0  0  0
  -32.5504  -25.2268   20.4029 C   0  0  0  0  0  0  0  0  0  0  0  0
  -29.6455  -27.6443   19.9204 C   0  0  0  0  0  0  0  0  0  1  0  0
  -32.8912  -24.3601   21.6221 C   0  0  1  0  0  0  0  0  0  0  0  0
  -22.2246  -23.9987   17.1300 C   0  0  1  0  0  0  0  0  0  0  0  0
  -23.1371  -24.2588   13.4600 C   0  0  2  0  0  0  0  0  0  0  0  0
  -21.3622  -22.8153   17.6528 C   0  0  0  0  0  0  0  0  0  0  0  0
  -30.1818  -22.5604   23.5356 N   0  0  0  0  0  0  0  0  0  0  0  0
  -26.7597  -16.5619   19.1694 N   0  0  0  0  0  0  0  0  0  0  0  0
  -31.4547  -22.4537   21.0389 N   0  0  0  0  0  0  0  0  0  0  0  0
  -26.4784  -17.7273   18.5621 N   0  0  0  0  0  0  0  0  0  0  0  0
  -22.7122  -26.0456   18.4324 N   0  0  0  0  0  0  0  0  0  0  0  0
  -29.9409  -19.3352   18.4654 N   0  0  0  0  0  0  0  0  0  0  0  0
  -24.6858  -19.1148   17.8753 N   0  0  0  0  0  0  0  0  0  0  0  0
  -22.6036  -15.5905   19.7830 N   0  0  0  0  0  0  0  0  0  0  0  0
  -30.0674  -20.5999   20.4521 N   0  0  0  0  0  0  0  0  0  0  0  0
  -20.9255  -27.5150   21.1489 N   0  0  0  0  0  0  0  0  0  0  0  0
  -22.2300  -24.1383   15.6778 N   0  0  0  0  0  0  0  0  0  0  0  0
  -24.2648  -24.9875   12.8132 N   0  3  0  0  0  0  0  0  0  0  0  0
  -31.3076  -26.0052   20.6547 N   0  3  0  0  0  0  0  0  0  0  0  0
  -22.2743  -17.5938   18.7166 O   0  0  0  0  0  0  0  0  0  0  0  0
  -22.5991  -25.8976   21.0739 O   0  0  0  0  0  0  0  0  0  0  0  0
  -20.6246  -25.7212   17.4459 O   0  0  0  0  0  0  0  0  0  0  0  0
  -24.5250  -23.9407   15.4118 O   0  0  0  0  0  0  0  0  0  0  0  0
  -31.4708  -21.0570   18.6623 O   0  0  0  0  0  0  0  0  0  0  0  0
  -25.0712  -11.1483   22.0663 O   0  0  0  0  0  0  0  0  0  0  0  0
  -28.6123  -26.6799   20.1174 O   0  0  0  0  0  0  0  0  0  1  0  0
  -21.3409   -7.5769   20.1340 F   0  0  0  0  0  0  0  0  0  0  0  0
  -22.3879  -11.8077   21.9804 F   0  0  0  0  0  0  0  0  0  0  0  0
  1  2  1  0  0  0  0
  1  5  2  0  0  0  0
  2  6  2  0  0  0  0
  3  8  2  0  0  0  0
  3 17  1  0  0  0  0
  4  9  1  0  0  0  0
  4 17  2  0  0  0  0
  5 19  1  0  0  0  0
  6 21  1  0  0  0  0
  7 10  2  0  0  0  0
  7 20  1  0  0  0  0
  8 23  1  0  0  0  0
  9 23  2  0  0  0  0
 10 24  1  0  0  0  0
 11 12  2  0  0  0  0
 11 25  1  0  0  0  0
 12 26  1  0  0  0  0
 13 22  1  0  0  0  0
 13 24  2  0  0  0  0
 14 26  2  0  0  0  0
 14 27  1  0  0  0  0
 15 29  1  0  0  0  0
 15 62  2  0  0  0  0
 16 30  2  0  0  0  0
 16 62  1  0  0  0  0
 17 28  1  0  0  0  0
 18 28  1  0  0  0  0
 18 31  2  0  0  0  0
 18 32  1  0  0  0  0
 19 21  2  0  0  0  0
 19 37  1  0  0  0  0
 20 22  2  0  0  0  0
 20 38  1  0  0  0  0
 21 46  1  0  0  0  0
 22 39  1  0  0  0  0
 23 80  1  0  0  0  0
 24 81  1  0  0  0  0
 25 27  2  0  0  0  0
 25 80  1  0  0  0  0
 26 82  1  0  0  0  0
 27 83  1  0  0  0  0
 28 63  2  0  0  0  0
 29 58  1  0  0  0  0
 29 64  2  0  0  0  0
 30 64  1  0  0  0  0
 30 70  1  0  0  0  0
 31 65  1  0  0  0  0
 31 68  1  0  0  0  0
 32 69  1  0  0  0  0
 32 75  2  0  0  0  0
 33 47  1  0  0  0  0
 33 71  1  0  0  0  0
 33 76  2  0  0  0  0
 34 59  1  0  0  0  0
 34 66  1  0  0  0  0
 34 77  2  0  0  0  0
 35 60  1  0  0  0  0
 35 72  1  0  0  0  0
 35 78  2  0  0  0  0
 36 67  1  0  0  0  0
 36 70  1  0  0  0  0
 36 79  2  0  0  0  0
 37 40  1  0  0  0  0
 38 47  1  0  0  0  0
 39 66  1  0  0  0  0
 40 42  1  0  0  0  0
 41 43  1  0  0  0  0
 41 44  1  0  0  0  0
 42 46  1  0  0  0  0
 43 48  1  0  0  0  0
 44 67  1  0  0  0  0
 45 48  1  0  0  0  0
 45 67  1  0  0  0  0
 46 71  1  0  0  0  0
 47 66  1  0  0  0  0
 48 65  1  0  0  0  0
 49 58  1  0  0  0  0
 50 60  1  0  0  0  0
 51 61  1  0  0  0  0
 52 61  1  0  0  0  0
 53 61  1  0  0  0  0
 54 73  1  0  0  0  0
 55 57  1  0  0  0  0
 55 74  1  0  0  0  0
 56 58  1  0  0  0  0
 56 74  1  0  0  0  0
 57 81  1  0  0  0  0
 59 61  1  0  0  0  0
 59 72  1  0  0  0  0
 60 73  1  0  0  0  0
 63 65  1  0  0  0  0
M  CHG  2  73   1  74   1
M  ISO  4  36 100  57 101  70 100  81 101
M  END
> <Batch ID>
0190

> <Smiles>
CNC(C)C(=O)NC(C(=O)N1Cc2cc([101O:1][101CH2:1]CNCC(C)c3cncc([100NH:0][100C:0](=O)N4CCCC(n5nc(-c6ccc(Oc7ccc(F)cc7F)cc6)c(C(N)=O)c5N)C4)n3)ccc2CC1C(=O)NC1CCCc2ccccc21)C(C)(C)C

> <Shape>
0.224

> <Color>
0.068

> <Negative vol penalty>
0.000

$$$$

  -OEChem-04052323243D

 84 93  0     1  0  0  0  0  0999 V2000
  -27.6008  -32.8180   27.8143 C   0  0  0  0  0  0  0  0  0  0  0  0
  -27.4640  -31.4602   27.5440 C   0  0  0  0  0  0  0  0  0  0  0  0
  -23.0814   -9.9192   19.8672 C   0  0  0  0  0  0  0  0  0  0  0  0
  -23.8636   -9.8056   22.1502 C   0  0  0  0  0  0  0  0  0  0  0  0
  -27.6379  -33.7360   26.7656 C   0  0  0  0  0  0  0  0  0  0  0  0
  -27.3631  -31.0197   26.2248 C   0  0  0  0  0  0  0  0  0  0  0  0
  -30.2568  -26.9673   25.3032 C   0  0  0  0  0  0  0  0  0  0  0  0
  -22.3594   -8.7408   20.0558 C   0  0  0  0  0  0  0  0  0  0  0  0
  -23.1415   -8.6271   22.3389 C   0  0  0  0  0  0  0  0  0  0  0  0
  -29.7825  -25.7326   25.7441 C   0  0  0  0  0  0  0  0  0  0  0  0
  -23.4826   -5.3488   21.5858 C   0  0  0  0  0  0  0  0  0  0  0  0
  -24.1222   -4.2942   22.2371 C   0  0  0  0  0  0  0  0  0  0  0  0
  -29.0191  -25.2350   23.5106 C   0  0  0  0  0  0  0  0  0  0  0  0
  -29.6528  -17.7016   23.0426 C   0  0  0  0  0  0  0  0  0  0  0  0
  -22.4349   -4.3386   23.9658 C   0  0  0  0  0  0  0  0  0  0  0  0
  -32.1113  -18.6050   22.3024 C   0  0  0  0  0  0  0  0  0  0  0  0
  -23.8335  -10.4516   20.9144 C   0  0  0  0  0  0  0  0  0  0  0  0
  -24.1318  -12.9850   20.9392 C   0  0  0  0  0  0  0  0  0  0  0  0
  -27.5472  -33.3057   25.4324 C   0  0  0  0  0  0  0  0  0  0  0  0
  -30.1058  -27.3503   23.9627 C   0  0  0  0  0  0  0  0  0  0  0  0
  -27.3977  -31.9329   25.1574 C   0  0  0  0  0  0  0  0  0  0  0  0
  -29.4946  -26.4740   23.0546 C   0  0  0  0  0  0  0  0  0  0  0  0
  -30.0925  -18.9312   23.5479 C   0  0  0  0  0  0  0  0  0  0  0  0
  -31.3705  -19.3793   23.1919 C   0  0  0  0  0  0  0  0  0  0  0  0
  -22.3895   -8.0947   21.2917 C   0  0  0  0  0  0  0  0  0  0  0  0
  -29.1609  -24.8675   24.8484 C   0  0  0  0  0  0  0  0  0  0  0  0
  -22.3192   -5.8984   22.1245 C   0  0  0  0  0  0  0  0  0  0  0  0
  -23.5984   -3.7890   23.4271 C   0  0  0  0  0  0  0  0  0  0  0  0
  -21.7954   -5.3933   23.3145 C   0  0  0  0  0  0  0  0  0  0  0  0
  -24.5800  -11.6686   20.7199 C   0  0  0  0  0  0  0  0  0  0  0  0
  -30.4783  -17.0026   22.1757 C   0  0  0  0  0  0  0  0  0  0  0  0
  -25.2076  -13.7732   20.6107 C   0  0  0  0  0  0  0  0  0  0  0  0
  -22.8570  -13.4535   21.3987 C   0  0  0  0  0  0  0  0  0  0  0  0
  -28.5949  -29.7091   22.4603 C   0  0  0  0  0  0  0  0  0  0  0  0
  -30.0889  -28.4834   19.8550 C   0  0  0  0  0  0  0  0  0  0  0  0
  -31.5538  -25.7909   18.3545 C   0  0  0  0  0  0  0  0  0  0  0  0
  -30.6570  -14.9011   20.7979 C   0  0  0  0  0  0  0  0  0  0  0  0
  -27.5445  -34.3396   24.3344 C   0  0  0  0  0  0  0  0  0  0  0  0
  -30.6468  -28.6743   23.4972 C   0  0  0  0  0  0  0  0  0  0  0  0
  -31.9193  -20.6666   23.7264 C   0  0  0  0  0  0  0  0  0  0  0  0
  -29.3261  -26.8293   21.6007 C   0  0  0  0  0  0  0  0  0  0  0  0
  -27.8081  -33.7569   22.9484 C   0  0  0  0  0  0  0  0  0  0  0  0
  -29.5599  -12.6106   18.3025 C   0  0  0  0  0  0  0  0  0  0  0  0
  -26.9600  -32.5090   22.7238 C   0  0  0  0  0  0  0  0  0  0  0  0
  -28.1297  -12.2696   18.7270 C   0  0  0  0  0  0  0  0  0  0  0  0
  -30.4829  -12.7847   19.5073 C   0  0  0  0  0  0  0  0  0  0  0  0
  -28.5777  -13.3944   20.9454 C   0  0  0  0  0  0  0  0  0  0  0  0
  -31.3398  -20.9839   25.0949 C   0  0  0  0  0  0  0  0  0  0  0  0
  -27.3103  -31.4140   23.7385 C   0  0  1  0  0  0  0  0  0  0  0  0
  -29.2109  -19.7344   24.4903 C   0  0  2  0  0  0  0  0  0  0  0  0
  -29.9795  -29.1769   22.2207 C   0  0  1  0  0  0  0  0  0  0  0  0
  -27.5964  -13.2733   19.7681 C   0  0  2  0  0  0  0  0  0  0  0  0
  -27.8716  -20.0808   23.8233 C   0  0  0  0  0  0  0  0  0  0  0  0
  -32.6474  -25.0846   16.2092 C   0  0  0  0  0  0  0  0  0  0  0  0
  -27.3525  -28.3285   18.5139 C   0  0  0  0  0  0  0  0  0  0  0  0
  -28.3491  -26.7807   16.8171 C   0  0  0  0  0  0  0  0  0  0  0  0
  -29.2010  -29.1161   17.0248 C   0  0  0  0  0  0  0  0  0  0  0  0
  -34.1042  -25.1726   19.7229 C   0  0  0  0  0  0  0  0  0  0  0  0
  -29.2343  -21.5431   26.2779 C   0  0  0  0  0  0  0  0  0  0  0  0
  -29.3871  -23.0489   26.3641 C   0  0  0  0  0  0  0  0  0  1  0  0
  -29.7529  -27.4305   18.8266 C   0  0  1  0  0  0  0  0  0  0  0  0
  -32.8663  -25.6455   17.6056 C   0  0  2  0  0  0  0  0  0  0  0  0
  -28.6652  -27.9078   17.8233 C   0  0  0  0  0  0  0  0  0  0  0  0
  -31.6964  -17.4286   21.7845 N   0  0  0  0  0  0  0  0  0  0  0  0
  -25.8421  -11.6192   20.2856 N   0  0  0  0  0  0  0  0  0  0  0  0
  -26.1962  -12.9144   20.2292 N   0  0  0  0  0  0  0  0  0  0  0  0
  -29.8659  -28.1377   21.1953 N   0  0  0  0  0  0  0  0  0  0  0  0
  -29.9153  -13.7529   20.4484 N   0  0  0  0  0  0  0  0  0  0  0  0
  -25.3950  -15.1101   20.6138 N   0  0  0  0  0  0  0  0  0  0  0  0
  -21.8639  -12.5088   21.6912 N   0  0  0  0  0  0  0  0  0  0  0  0
  -30.0023  -15.7656   21.6747 N   0  0  0  0  0  0  0  0  0  0  0  0
  -28.5421  -30.7531   23.3640 N   0  0  0  0  0  0  0  0  0  0  0  0
  -31.0161  -27.0515   18.2027 N   0  0  0  0  0  0  0  0  0  0  0  0
  -29.8347  -21.0547   24.9819 N   0  3  1  0  0  0  0  0  0  0  0  0
  -33.7838  -24.7302   18.3413 N   0  3  0  0  0  0  0  0  0  0  0  0
  -22.6008  -14.6744   21.5300 O   0  0  0  0  0  0  0  0  0  0  0  0
  -27.6451  -29.2104   21.8681 O   0  0  0  0  0  0  0  0  0  0  0  0
  -30.5395  -29.5698   19.4832 O   0  0  0  0  0  0  0  0  0  0  0  0
  -31.0537  -24.8764   19.0057 O   0  0  0  0  0  0  0  0  0  0  0  0
  -31.7785  -15.1163   20.3310 O   0  0  0  0  0  0  0  0  0  0  0  0
  -21.6849   -6.9449   21.4763 O   0  0  0  0  0  0  0  0  0  0  0  0
  -28.6965  -23.6621   25.2763 O   0  0  0  0  0  0  0  0  0  1  0  0
  -24.2118   -2.7752   24.0516 F   0  0  0  0  0  0  0  0  0  0  0  0
  -20.6773   -5.9163   23.8362 F   0  0  0  0  0  0  0  0  0  0  0  0
  1  2  1  0  0  0  0
  1  5  2  0  0  0  0
  2  6  2  0  0  0  0
  3  8  2  0  0  0  0
  3 17  1  0  0  0  0
  4  9  1  0  0  0  0
  4 17  2  0  0  0  0
  5 19  1  0  0  0  0
  6 21  1  0  0  0  0
  7 10  2  0  0  0  0
  7 20  1  0  0  0  0
  8 25  1  0  0  0  0
  9 25  2  0  0  0  0
 10 26  1  0  0  0  0
 11 12  2  0  0  0  0
 11 27  1  0  0  0  0
 12 28  1  0  0  0  0
 13 22  1  0  0  0  0
 13 26  2  0  0  0  0
 14 23  1  0  0  0  0
 14 31  2  0  0  0  0
 15 28  2  0  0  0  0
 15 29  1  0  0  0  0
 16 24  1  0  0  0  0
 16 64  2  0  0  0  0
 17 30  1  0  0  0  0
 18 30  1  0  0  0  0
 18 32  2  0  0  0  0
 18 33  1  0  0  0  0
 19 21  2  0  0  0  0
 19 38  1  0  0  0  0
 20 22  2  0  0  0  0
 20 39  1  0  0  0  0
 21 49  1  0  0  0  0
 22 41  1  0  0  0  0
 23 24  2  0  0  0  0
 23 50  1  0  0  0  0
 24 40  1  0  0  0  0
 25 81  1  0  0  0  0
 26 82  1  0  0  0  0
 27 29  2  0  0  0  0
 27 81  1  0  0  0  0
 28 83  1  0  0  0  0
 29 84  1  0  0  0  0
 30 65  2  0  0  0  0
 31 64  1  0  0  0  0
 31 71  1  0  0  0  0
 32 66  1  0  0  0  0
 32 69  1  0  0  0  0
 33 70  1  0  0  0  0
 33 76  2  0  0  0  0
 34 51  1  0  0  0  0
 34 72  1  0  0  0  0
 34 77  2  0  0  0  0
 35 61  1  0  0  0  0
 35 67  1  0  0  0  0
 35 78  2  0  0  0  0
 36 62  1  0  0  0  0
 36 73  1  0  0  0  0
 36 79  2  0  0  0  0
 37 68  1  0  0  0  0
 37 71  1  0  0  0  0
 37 80  2  0  0  0  0
 38 42  1  0  0  0  0
 39 51  1  0  0  0  0
 40 48  1  0  0  0  0
 41 67  1  0  0  0  0
 42 44  1  0  0  0  0
 43 45  1  0  0  0  0
 43 46  1  0  0  0  0
 44 49  1  0  0  0  0
 45 52  1  0  0  0  0
 46 68  1  0  0  0  0
 47 52  1  0  0  0  0
 47 68  1  0  0  0  0
 48 74  1  0  0  0  0
 49 72  1  0  0  0  0
 50 53  1  0  0  0  0
 50 74  1  0  0  0  0
 51 67  1  0  0  0  0
 52 66  1  0  0  0  0
 54 62  1  0  0  0  0
 55 63  1  0  0  0  0
 56 63  1  0  0  0  0
 57 63  1  0  0  0  0
 58 75  1  0  0  0  0
 59 60  1  0  0  0  0
 59 74  1  0  0  0  0
 60 82  1  0  0  0  0
 61 63  1  0  0  0  0
 61 73  1  0  0  0  0
 62 75  1  0  0  0  0
 65 66  1  0  0  0  0
M  CHG  2  74   1  75   1
M  ISO  4  37 100  60 101  71 100  82 101
M  END
> <Batch ID>
0190

> <Smiles>
CNC(C)C(=O)NC(C(=O)N1Cc2cc([101O:1][101CH2:1]CN3CCc4cnc([100NH:0][100C:0](=O)N5CCCC(n6nc(-c7ccc(Oc8ccc(F)cc8F)cc7)c(C(N)=O)c6N)C5)cc4C3C)ccc2CC1C(=O)NC1CCCc2ccccc21)C(C)(C)C

> <Shape>
0.276

> <Color>
0.194

> <Negative vol penalty>
0.000

$$$$

  -OEChem-04052323243D

 83 92  0     1  0  0  0  0  0999 V2000
  -29.4838  -32.4223   27.0727 C   0  0  0  0  0  0  0  0  0  0  0  0
  -28.7856  -31.3478   26.5310 C   0  0  0  0  0  0  0  0  0  0  0  0
  -24.5977   -9.1282   22.0360 C   0  0  0  0  0  0  0  0  0  0  0  0
  -23.4746   -9.5115   19.9315 C   0  0  0  0  0  0  0  0  0  0  0  0
  -28.9060  -33.6910   27.0883 C   0  0  0  0  0  0  0  0  0  0  0  0
  -27.5086  -31.5414   26.0055 C   0  0  0  0  0  0  0  0  0  0  0  0
  -26.8684  -29.2188   21.5512 C   0  0  0  0  0  0  0  0  0  0  0  0
  -23.4559   -8.4978   22.5305 C   0  0  0  0  0  0  0  0  0  0  0  0
  -22.3328   -8.8811   20.4260 C   0  0  0  0  0  0  0  0  0  0  0  0
  -26.6414  -27.8434   21.5771 C   0  0  0  0  0  0  0  0  0  0  0  0
  -21.9650   -5.4750   22.2611 C   0  0  0  0  0  0  0  0  0  0  0  0
  -22.1348   -4.2757   22.9529 C   0  0  0  0  0  0  0  0  0  0  0  0
  -24.2779  -28.2342   21.2941 C   0  0  0  0  0  0  0  0  0  0  0  0
  -21.1300   -5.2651   24.9146 C   0  0  0  0  0  0  0  0  0  0  0  0
  -25.0656  -21.1621   21.5351 C   0  0  0  0  0  0  0  0  0  0  0  0
  -24.6070   -9.6351   20.7365 C   0  0  0  0  0  0  0  0  0  0  0  0
  -26.8606   -9.6865   19.5422 C   0  0  0  0  0  0  0  0  0  0  0  0
  -27.6251  -33.9021   26.5539 C   0  0  0  0  0  0  0  0  0  0  0  0
  -25.7987  -30.1141   21.4073 C   0  0  0  0  0  0  0  0  0  0  0  0
  -26.9125  -32.8139   26.0151 C   0  0  0  0  0  0  0  0  0  0  0  0
  -24.4942  -29.6203   21.2642 C   0  0  0  0  0  0  0  0  0  0  0  0
  -22.3235   -8.3743   21.7255 C   0  0  0  0  0  0  0  0  0  0  0  0
  -25.3457  -27.3510   21.4514 C   0  0  0  0  0  0  0  0  0  0  0  0
  -21.3778   -6.5693   22.8961 C   0  0  0  0  0  0  0  0  0  0  0  0
  -21.7173   -4.1708   24.2796 C   0  0  0  0  0  0  0  0  0  0  0  0
  -20.9602   -6.4644   24.2228 C   0  0  0  0  0  0  0  0  0  0  0  0
  -25.7860  -10.2869   20.2253 C   0  0  0  0  0  0  0  0  0  0  0  0
  -24.8462  -21.9672   22.6342 C   0  0  0  0  0  0  0  0  0  0  0  0
  -25.7048  -21.7653   20.4713 C   0  0  0  0  0  0  0  0  0  0  0  0
  -27.7188  -10.7245   19.2724 C   0  0  0  0  0  0  0  0  0  0  0  0
  -25.8328  -23.7345   21.5996 C   0  0  0  0  0  0  0  0  0  0  0  0
  -27.0649   -8.3134   19.1836 C   0  0  0  0  0  0  0  0  0  0  0  0
  -24.5566  -32.4307   23.1945 C   0  0  0  0  0  0  0  0  0  0  0  0
  -22.7165  -32.9352   20.5712 C   0  0  0  0  0  0  0  0  0  0  0  0
  -21.3392  -31.6778   17.7130 C   0  0  0  0  0  0  0  0  0  0  0  0
  -26.6805  -16.5211   18.6197 C   0  0  0  0  0  0  0  0  0  0  0  0
  -27.0227  -35.2823   26.6360 C   0  0  0  0  0  0  0  0  0  0  0  0
  -26.0632  -31.5938   21.3544 C   0  0  0  0  0  0  0  0  0  0  0  0
  -23.3137  -30.5387   21.0869 C   0  0  0  0  0  0  0  0  0  0  0  0
  -25.8170  -35.4762   25.7200 C   0  0  0  0  0  0  0  0  0  0  0  0
  -29.0957  -14.9823   20.9072 C   0  0  0  0  0  0  0  0  0  0  0  0
  -24.8584  -34.2960   25.8425 C   0  0  0  0  0  0  0  0  0  0  0  0
  -28.5707  -13.5517   20.9677 C   0  0  0  0  0  0  0  0  0  0  0  0
  -27.9715  -16.0086   20.7604 C   0  0  0  0  0  0  0  0  0  0  0  0
  -26.5367  -14.2968   19.6825 C   0  0  0  0  0  0  0  0  0  0  0  0
  -26.2011  -18.9469   17.9782 C   0  0  0  0  0  0  0  0  0  0  0  0
  -26.4384  -18.6848   20.0763 C   0  0  0  0  0  0  0  0  0  0  0  0
  -25.5352  -32.9886   25.4130 C   0  0  1  0  0  0  0  0  0  0  0  0
  -24.8422  -32.4325   21.7193 C   0  0  1  0  0  0  0  0  0  0  0  0
  -27.6654  -13.2593   19.7619 C   0  0  2  0  0  0  0  0  0  0  0  0
  -25.5806  -19.6164   19.2094 C   0  0  0  0  0  0  0  0  0  0  0  0
  -24.1612  -21.4035   23.8337 C   0  0  0  0  0  0  0  0  0  0  0  0
  -19.8517  -32.3181   15.7961 C   0  0  0  0  0  0  0  0  0  0  0  0
  -20.2789  -32.7189   22.3936 C   0  0  0  0  0  0  0  0  0  0  0  0
  -18.8653  -32.4119   20.3502 C   0  0  0  0  0  0  0  0  0  0  0  0
  -20.1398  -34.5314   20.6761 C   0  0  0  0  0  0  0  0  0  0  0  0
  -23.4795  -31.1732   15.7323 C   0  0  0  0  0  0  0  0  0  0  0  0
  -26.2590  -25.1629   21.6355 C   0  0  0  0  0  0  0  0  0  1  0  0
  -21.3869  -32.4140   20.0816 C   0  0  1  0  0  0  0  0  0  0  0  0
  -21.2843  -32.2225   16.2971 C   0  0  2  0  0  0  0  0  0  0  0  0
  -20.1895  -33.0015   20.8806 C   0  0  0  0  0  0  0  0  0  0  0  0
  -25.9447  -11.6040   20.3800 N   0  0  0  0  0  0  0  0  0  0  0  0
  -25.2180  -23.2624   22.7008 N   0  0  0  0  0  0  0  0  0  0  0  0
  -26.1036  -23.0543   20.4693 N   0  0  0  0  0  0  0  0  0  0  0  0
  -27.1291  -11.8399   19.7904 N   0  0  0  0  0  0  0  0  0  0  0  0
  -23.6230  -31.9776   21.0479 N   0  0  0  0  0  0  0  0  0  0  0  0
  -27.0591  -15.6682   19.6621 N   0  0  0  0  0  0  0  0  0  0  0  0
  -26.6008  -17.8694   18.8804 N   0  0  0  0  0  0  0  0  0  0  0  0
  -28.9127  -10.7827   18.6451 N   0  0  0  0  0  0  0  0  0  0  0  0
  -26.0837   -7.3774   19.5376 N   0  0  0  0  0  0  0  0  0  0  0  0
  -25.9462  -20.9827   19.3371 N   0  0  0  0  0  0  0  0  0  0  0  0
  -25.5986  -32.9027   23.9698 N   0  0  0  0  0  0  0  0  0  0  0  0
  -21.3426  -32.6897   18.6497 N   0  0  0  0  0  0  0  0  0  0  0  0
  -22.0477  -31.3380   15.3720 N   0  3  0  0  0  0  0  0  0  0  0  0
  -28.0949   -7.9254   18.5820 O   0  0  0  0  0  0  0  0  0  0  0  0
  -23.4708  -32.0321   23.5992 O   0  0  0  0  0  0  0  0  0  0  0  0
  -22.9452  -34.1465   20.5255 O   0  0  0  0  0  0  0  0  0  0  0  0
  -21.3717  -30.4750   17.9632 O   0  0  0  0  0  0  0  0  0  0  0  0
  -26.3911  -16.0905   17.4955 O   0  0  0  0  0  0  0  0  0  0  0  0
  -21.2092   -7.7590   22.2076 O   0  0  0  0  0  0  0  0  0  0  0  0
  -25.1198  -25.9999   21.4772 O   0  0  0  0  0  0  0  0  0  1  0  0
  -21.8790   -3.0186   24.9434 F   0  0  0  0  0  0  0  0  0  0  0  0
  -20.3943   -7.5120   24.8378 F   0  0  0  0  0  0  0  0  0  0  0  0
  1  2  1  0  0  0  0
  1  5  2  0  0  0  0
  2  6  2  0  0  0  0
  3  8  2  0  0  0  0
  3 16  1  0  0  0  0
  4  9  1  0  0  0  0
  4 16  2  0  0  0  0
  5 18  1  0  0  0  0
  6 20  1  0  0  0  0
  7 10  2  0  0  0  0
  7 19  1  0  0  0  0
  8 22  1  0  0  0  0
  9 22  2  0  0  0  0
 10 23  1  0  0  0  0
 11 12  2  0  0  0  0
 11 24  1  0  0  0  0
 12 25  1  0  0  0  0
 13 21  1  0  0  0  0
 13 23  2  0  0  0  0
 14 25  2  0  0  0  0
 14 26  1  0  0  0  0
 15 28  1  0  0  0  0
 15 29  2  0  0  0  0
 16 27  1  0  0  0  0
 17 27  1  0  0  0  0
 17 30  2  0  0  0  0
 17 32  1  0  0  0  0
 18 20  2  0  0  0  0
 18 37  1  0  0  0  0
 19 21  2  0  0  0  0
 19 38  1  0  0  0  0
 20 48  1  0  0  0  0
 21 39  1  0  0  0  0
 22 80  1  0  0  0  0
 23 81  1  0  0  0  0
 24 26  2  0  0  0  0
 24 80  1  0  0  0  0
 25 82  1  0  0  0  0
 26 83  1  0  0  0  0
 27 62  2  0  0  0  0
 28 52  1  0  0  0  0
 28 63  2  0  0  0  0
 29 64  1  0  0  0  0
 29 71  1  0  0  0  0
 30 65  1  0  0  0  0
 30 69  1  0  0  0  0
 31 58  1  0  0  0  0
 31 63  1  0  0  0  0
 31 64  2  0  0  0  0
 32 70  1  0  0  0  0
 32 75  2  0  0  0  0
 33 49  1  0  0  0  0
 33 72  1  0  0  0  0
 33 76  2  0  0  0  0
 34 59  1  0  0  0  0
 34 66  1  0  0  0  0
 34 77  2  0  0  0  0
 35 60  1  0  0  0  0
 35 73  1  0  0  0  0
 35 78  2  0  0  0  0
 36 67  1  0  0  0  0
 36 68  1  0  0  0  0
 36 79  2  0  0  0  0
 37 40  1  0  0  0  0
 38 49  1  0  0  0  0
 39 66  1  0  0  0  0
 40 42  1  0  0  0  0
 41 43  1  0  0  0  0
 41 44  1  0  0  0  0
 42 48  1  0  0  0  0
 43 50  1  0  0  0  0
 44 67  1  0  0  0  0
 45 50  1  0  0  0  0
 45 67  1  0  0  0  0
 46 51  1  0  0  0  0
 46 68  1  0  0  0  0
 47 51  1  0  0  0  0
 47 68  1  0  0  0  0
 48 72  1  0  0  0  0
 49 66  1  0  0  0  0
 50 65  1  0  0  0  0
 51 71  1  0  0  0  0
 53 60  1  0  0  0  0
 54 61  1  0  0  0  0
 55 61  1  0  0  0  0
 56 61  1  0  0  0  0
 57 74  1  0  0  0  0
 58 81  1  0  0  0  0
 59 61  1  0  0  0  0
 59 73  1  0  0  0  0
 60 74  1  0  0  0  0
 62 65  1  0  0  0  0
M  CHG  1  74   1
M  ISO  4  36 100  58 101  68 100  81 101
M  END
> <Batch ID>
0190

> <Smiles>
CNC(C)C(=O)NC(C(=O)N1Cc2cc([101O:1][101CH2:1]c3nc(C)cc(NC4C[100N:0]([100C:0](=O)N5CCCC(n6nc(-c7ccc(Oc8ccc(F)cc8F)cc7)c(C(N)=O)c6N)C5)C4)n3)ccc2CC1C(=O)NC1CCCc2ccccc21)C(C)(C)C

> <Shape>
0.219

> <Color>
0.094

> <Negative vol penalty>
0.000

$$$$

  -OEChem-04052323243D

 85 94  0     1  0  0  0  0  0999 V2000
  -22.2449  -11.9928   14.7960 C   0  0  0  0  0  0  0  0  0  0  0  0
  -23.2778  -12.9107   14.9573 C   0  0  0  0  0  0  0  0  0  0  0  0
  -23.0438  -27.9047   20.4138 C   0  0  0  0  0  0  0  0  0  0  0  0
  -24.2054  -26.6222   22.0999 C   0  0  0  0  0  0  0  0  0  0  0  0
  -21.5308  -11.5464   15.9072 C   0  0  0  0  0  0  0  0  0  0  0  0
  -23.5964  -13.3836   16.2298 C   0  0  0  0  0  0  0  0  0  0  0  0
  -29.1632  -14.8325   18.3316 C   0  0  0  0  0  0  0  0  0  0  0  0
  -21.8227  -27.4367   20.8990 C   0  0  0  0  0  0  0  0  0  0  0  0
  -22.9842  -26.1543   22.5852 C   0  0  0  0  0  0  0  0  0  0  0  0
  -29.8276  -16.0509   18.4652 C   0  0  0  0  0  0  0  0  0  0  0  0
  -19.7465  -28.1081   23.4819 C   0  0  0  0  0  0  0  0  0  0  0  0
  -18.7166  -29.0342   23.6467 C   0  0  0  0  0  0  0  0  0  0  0  0
  -29.1247  -16.1745   20.7695 C   0  0  0  0  0  0  0  0  0  0  0  0
  -17.3503  -27.7919   22.0888 C   0  0  0  0  0  0  0  0  0  0  0  0
  -30.3002  -22.8020   20.0745 C   0  0  0  0  0  0  0  0  0  0  0  0
  -24.2352  -27.4974   21.0142 C   0  0  0  0  0  0  0  0  0  0  0  0
  -26.1861  -29.1383   20.9195 C   0  0  0  0  0  0  0  0  0  0  0  0
  -21.8472  -12.0067   17.1951 C   0  0  0  0  0  0  0  0  0  0  0  0
  -28.4643  -14.2803   19.4146 C   0  0  0  0  0  0  0  0  0  0  0  0
  -22.8850  -12.9440   17.3591 C   0  0  0  0  0  0  0  0  0  0  0  0
  -28.4544  -14.9477   20.6478 C   0  0  0  0  0  0  0  0  0  0  0  0
  -21.7929  -26.5616   21.9847 C   0  0  0  0  0  0  0  0  0  0  0  0
  -29.8059  -16.7235   19.6835 C   0  0  0  0  0  0  0  0  0  0  0  0
  -19.5783  -27.0239   22.6205 C   0  0  0  0  0  0  0  0  0  0  0  0
  -17.5184  -28.8761   22.9501 C   0  0  0  0  0  0  0  0  0  0  0  0
  -18.3802  -26.8658   21.9240 C   0  0  0  0  0  0  0  0  0  0  0  0
  -25.4969  -27.9800   20.5130 C   0  0  0  0  0  0  0  0  0  0  0  0
  -30.0829  -24.0624   20.5928 C   0  0  0  0  0  0  0  0  0  0  0  0
  -29.2938  -21.8841   20.2953 C   0  0  0  0  0  0  0  0  0  0  0  0
  -27.3221  -29.1506   20.1476 C   0  0  0  0  0  0  0  0  0  0  0  0
  -28.0648  -23.4274   21.4243 C   0  0  0  0  0  0  0  0  0  0  0  0
  -25.8313  -30.1157   21.9067 C   0  0  0  0  0  0  0  0  0  0  0  0
  -25.4272  -13.5290   19.9759 C   0  0  0  0  0  0  0  0  0  0  0  0
  -26.6475  -12.2813   22.7102 C   0  0  0  0  0  0  0  0  0  0  0  0
  -29.1545  -12.2755   25.0258 C   0  0  0  0  0  0  0  0  0  0  0  0
  -31.1686  -25.5444   17.8245 C   0  0  0  0  0  0  0  0  0  0  0  0
  -21.0162  -11.5313   18.3604 C   0  0  0  0  0  0  0  0  0  0  0  0
  -27.7752  -12.9521   19.2618 C   0  0  0  0  0  0  0  0  0  0  0  0
  -27.7356  -14.3875   21.8469 C   0  0  0  0  0  0  0  0  0  0  0  0
  -21.6623  -11.7967   19.7178 C   0  0  0  0  0  0  0  0  0  0  0  0
  -28.6706  -27.0768   15.8807 C   0  0  0  0  0  0  0  0  0  0  0  0
  -22.1940  -13.2248   19.7859 C   0  0  0  0  0  0  0  0  0  0  0  0
  -27.6485  -27.5684   16.9035 C   0  0  0  0  0  0  0  0  0  0  0  0
  -32.5769  -24.9700   20.8752 C   0  0  0  0  0  0  0  0  0  0  0  0
  -29.2430  -25.7252   16.2892 C   0  0  0  0  0  0  0  0  0  0  0  0
  -28.8705  -26.2209   18.6826 C   0  0  0  0  0  0  0  0  0  0  0  0
  -23.2768  -13.4615   18.7261 C   0  0  1  0  0  0  0  0  0  0  0  0
  -31.1216  -25.2533   20.4429 C   0  0  1  0  0  0  0  0  0  0  0  0
  -26.6643  -12.7341   20.2845 C   0  0  1  0  0  0  0  0  0  0  0  0
  -28.2545  -27.5864   18.3164 C   0  0  2  0  0  0  0  0  0  0  0  0
  -33.0645  -25.5174   19.5305 C   0  0  2  0  0  0  0  0  0  0  0  0
  -26.8231  -23.7748   22.1730 C   0  0  0  0  0  0  0  0  0  0  0  0
  -33.6833  -26.9012   19.5370 C   0  0  0  0  0  0  0  0  0  0  0  0
  -29.8547  -11.1723   27.1682 C   0  0  0  0  0  0  0  0  0  0  0  0
  -24.6100  -13.9615   24.2384 C   0  0  0  0  0  0  0  0  0  0  0  0
  -25.9495  -13.5695   26.3169 C   0  0  0  0  0  0  0  0  0  0  0  0
  -24.9179  -11.6407   25.1178 C   0  0  0  0  0  0  0  0  0  0  0  0
  -31.6209  -11.1942   23.7984 C   0  0  0  0  0  0  0  0  0  0  0  0
  -30.6461  -20.1923   19.0563 C   0  0  0  0  0  0  0  0  0  0  0  0
  -30.5578  -18.7302   18.6520 C   0  0  0  0  0  0  0  0  0  1  0  0
  -26.9157  -12.8082   24.0993 C   0  0  1  0  0  0  0  0  0  0  0  0
  -29.9460  -11.1407   25.6505 C   0  0  2  0  0  0  0  0  0  0  0  0
  -25.6103  -13.0068   24.9201 C   0  0  0  0  0  0  0  0  0  0  0  0
  -26.1411  -27.3056   19.5570 N   0  0  0  0  0  0  0  0  0  0  0  0
  -28.9726  -24.4110   21.2754 N   0  0  0  0  0  0  0  0  0  0  0  0
  -28.1586  -22.1636   20.9687 N   0  0  0  0  0  0  0  0  0  0  0  0
  -27.2470  -28.0423   19.3562 N   0  0  0  0  0  0  0  0  0  0  0  0
  -27.0715  -13.0891   21.6456 N   0  0  0  0  0  0  0  0  0  0  0  0
  -29.8014  -25.7669   17.6422 N   0  0  0  0  0  0  0  0  0  0  0  0
  -31.6637  -25.5589   19.1112 N   0  0  0  0  0  0  0  0  0  0  0  0
  -28.3678  -30.0013   20.0752 N   0  0  0  0  0  0  0  0  0  0  0  0
  -24.6292  -29.9507   22.6083 N   0  0  0  0  0  0  0  0  0  0  0  0
  -29.4781  -20.5777   19.7799 N   0  0  0  0  0  0  0  0  0  0  0  0
  -24.5326  -12.8786   19.1477 N   0  0  0  0  0  0  0  0  0  0  0  0
  -27.8701  -11.8877   24.7078 N   0  0  0  0  0  0  0  0  0  0  0  0
  -31.3821  -11.2367   25.2640 N   0  3  0  0  0  0  0  0  0  0  0  0
  -26.5506  -31.1147   22.1476 O   0  0  0  0  0  0  0  0  0  0  0  0
  -25.2934  -14.6489   20.4551 O   0  0  0  0  0  0  0  0  0  0  0  0
  -26.0890  -11.1898   22.5749 O   0  0  0  0  0  0  0  0  0  0  0  0
  -29.6272  -13.3950   24.8419 O   0  0  0  0  0  0  0  0  0  0  0  0
  -31.9239  -25.3120   16.8714 O   0  0  0  0  0  0  0  0  0  0  0  0
  -20.6015  -26.1049   22.4587 O   0  0  0  0  0  0  0  0  0  0  0  0
  -30.4575  -17.9216   19.8174 O   0  0  0  0  0  0  0  0  0  1  0  0
  -16.5289  -29.7647   23.1096 F   0  0  0  0  0  0  0  0  0  0  0  0
  -18.2124  -25.8256   21.0960 F   0  0  0  0  0  0  0  0  0  0  0  0
  1  2  1  0  0  0  0
  1  5  2  0  0  0  0
  2  6  2  0  0  0  0
  3  8  2  0  0  0  0
  3 16  1  0  0  0  0
  4  9  1  0  0  0  0
  4 16  2  0  0  0  0
  5 18  1  0  0  0  0
  6 20  1  0  0  0  0
  7 10  2  0  0  0  0
  7 19  1  0  0  0  0
  8 22  1  0  0  0  0
  9 22  2  0  0  0  0
 10 23  1  0  0  0  0
 11 12  2  0  0  0  0
 11 24  1  0  0  0  0
 12 25  1  0  0  0  0
 13 21  1  0  0  0  0
 13 23  2  0  0  0  0
 14 25  2  0  0  0  0
 14 26  1  0  0  0  0
 15 28  2  0  0  0  0
 15 29  1  0  0  0  0
 16 27  1  0  0  0  0
 17 27  1  0  0  0  0
 17 30  2  0  0  0  0
 17 32  1  0  0  0  0
 18 20  2  0  0  0  0
 18 37  1  0  0  0  0
 19 21  2  0  0  0  0
 19 38  1  0  0  0  0
 20 47  1  0  0  0  0
 21 39  1  0  0  0  0
 22 82  1  0  0  0  0
 23 83  1  0  0  0  0
 24 26  2  0  0  0  0
 24 82  1  0  0  0  0
 25 84  1  0  0  0  0
 26 85  1  0  0  0  0
 27 64  2  0  0  0  0
 28 48  1  0  0  0  0
 28 65  1  0  0  0  0
 29 66  2  0  0  0  0
 29 73  1  0  0  0  0
 30 67  1  0  0  0  0
 30 71  1  0  0  0  0
 31 52  1  0  0  0  0
 31 65  2  0  0  0  0
 31 66  1  0  0  0  0
 32 72  1  0  0  0  0
 32 77  2  0  0  0  0
 33 49  1  0  0  0  0
 33 74  1  0  0  0  0
 33 78  2  0  0  0  0
 34 61  1  0  0  0  0
 34 68  1  0  0  0  0
 34 79  2  0  0  0  0
 35 62  1  0  0  0  0
 35 75  1  0  0  0  0
 35 80  2  0  0  0  0
 36 69  1  0  0  0  0
 36 70  1  0  0  0  0
 36 81  2  0  0  0  0
 37 40  1  0  0  0  0
 38 49  1  0  0  0  0
 39 68  1  0  0  0  0
 40 42  1  0  0  0  0
 41 43  1  0  0  0  0
 41 45  1  0  0  0  0
 42 47  1  0  0  0  0
 43 50  1  0  0  0  0
 44 48  1  0  0  0  0
 44 51  1  0  0  0  0
 45 69  1  0  0  0  0
 46 50  1  0  0  0  0
 46 69  1  0  0  0  0
 47 74  1  0  0  0  0
 48 70  1  0  0  0  0
 49 68  1  0  0  0  0
 50 67  1  0  0  0  0
 51 53  1  0  0  0  0
 51 70  1  0  0  0  0
 54 62  1  0  0  0  0
 55 63  1  0  0  0  0
 56 63  1  0  0  0  0
 57 63  1  0  0  0  0
 58 76  1  0  0  0  0
 59 60  1  0  0  0  0
 59 73  1  0  0  0  0
 60 83  1  0  0  0  0
 61 63  1  0  0  0  0
 61 75  1  0  0  0  0
 62 76  1  0  0  0  0
 64 67  1  0  0  0  0
M  CHG  1  76   1
M  ISO  4  36 100  60 101  70 100  83 101
M  END
> <Batch ID>
0190

> <Smiles>
CNC(C)C(=O)NC(C(=O)N1Cc2cc([101O:1][101CH2:1]CNc3cc(C4CC(C)[100N:0]4[100C:0](=O)N4CCCC(n5nc(-c6ccc(Oc7ccc(F)cc7F)cc6)c(C(N)=O)c5N)C4)nc(C)n3)ccc2CC1C(=O)NC1CCCc2ccccc21)C(C)(C)C

> <Shape>
0.242

> <Color>
0.056

> <Negative vol penalty>
0.000

$$$$

  -OEChem-04052323243D

 85 94  0     1  0  0  0  0  0999 V2000
  -32.3979  -32.4332   18.2921 C   0  0  0  0  0  0  0  0  0  0  0  0
  -32.0557  -31.3003   19.0234 C   0  0  0  0  0  0  0  0  0  0  0  0
  -23.6466   -9.4832   20.6841 C   0  0  0  0  0  0  0  0  0  0  0  0
  -24.2252  -10.1616   22.9295 C   0  0  0  0  0  0  0  0  0  0  0  0
  -31.6480  -33.6009   18.4262 C   0  0  0  0  0  0  0  0  0  0  0  0
  -30.9640  -31.3348   19.8902 C   0  0  0  0  0  0  0  0  0  0  0  0
  -28.0273  -27.2296   19.4798 C   0  0  0  0  0  0  0  0  0  0  0  0
  -23.0994   -8.3008   21.1822 C   0  0  0  0  0  0  0  0  0  0  0  0
  -23.6779   -8.9793   23.4277 C   0  0  0  0  0  0  0  0  0  0  0  0
  -28.4733  -26.0631   20.0996 C   0  0  0  0  0  0  0  0  0  0  0  0
  -20.2381   -7.3246   22.6965 C   0  0  0  0  0  0  0  0  0  0  0  0
  -18.9981   -6.9241   22.1989 C   0  0  0  0  0  0  0  0  0  0  0  0
  -26.9874  -26.4864   21.9522 C   0  0  0  0  0  0  0  0  0  0  0  0
  -29.2072  -21.3339   21.6305 C   0  0  0  0  0  0  0  0  0  0  0  0
  -19.9829   -4.8679   21.3994 C   0  0  0  0  0  0  0  0  0  0  0  0
  -30.7481  -21.4616   23.8789 C   0  0  0  0  0  0  0  0  0  0  0  0
  -24.2096  -10.4135   21.5577 C   0  0  0  0  0  0  0  0  0  0  0  0
  -24.1131  -12.8608   20.8441 C   0  0  0  0  0  0  0  0  0  0  0  0
  -30.5406  -33.6468   19.2878 C   0  0  0  0  0  0  0  0  0  0  0  0
  -27.0643  -28.0404   20.0977 C   0  0  0  0  0  0  0  0  0  0  0  0
  -30.1993  -32.5046   20.0370 C   0  0  0  0  0  0  0  0  0  0  0  0
  -26.5289  -27.6614   21.3370 C   0  0  0  0  0  0  0  0  0  0  0  0
  -29.7013  -22.5641   22.0498 C   0  0  0  0  0  0  0  0  0  0  0  0
  -30.4873  -22.6378   23.1944 C   0  0  0  0  0  0  0  0  0  0  0  0
  -23.1150   -8.0489   22.5541 C   0  0  0  0  0  0  0  0  0  0  0  0
  -27.9555  -25.6929   21.3372 C   0  0  0  0  0  0  0  0  0  0  0  0
  -21.3506   -6.4967   22.5454 C   0  0  0  0  0  0  0  0  0  0  0  0
  -18.8705   -5.6958   21.5504 C   0  0  0  0  0  0  0  0  0  0  0  0
  -21.2230   -5.2684   21.8969 C   0  0  0  0  0  0  0  0  0  0  0  0
  -24.7756  -11.6348   21.0436 C   0  0  0  0  0  0  0  0  0  0  0  0
  -29.5255  -20.2161   22.3849 C   0  0  0  0  0  0  0  0  0  0  0  0
  -25.0810  -13.6966   20.3431 C   0  0  0  0  0  0  0  0  0  0  0  0
  -22.7450  -13.2127   21.0897 C   0  0  0  0  0  0  0  0  0  0  0  0
  -27.0028  -31.0339   21.1647 C   0  0  0  0  0  0  0  0  0  0  0  0
  -23.8616  -30.3847   21.6484 C   0  0  0  0  0  0  0  0  0  0  0  0
  -21.4331  -28.0431   22.1640 C   0  0  0  0  0  0  0  0  0  0  0  0
  -30.2831  -15.7013   20.4723 C   0  0  0  0  0  0  0  0  0  0  0  0
  -29.7888  -34.9459   19.4352 C   0  0  0  0  0  0  0  0  0  0  0  0
  -26.5741  -29.2815   19.4037 C   0  0  0  0  0  0  0  0  0  0  0  0
  -25.4785  -28.4865   22.0328 C   0  0  0  0  0  0  0  0  0  0  0  0
  -28.4206  -34.7867   20.0932 C   0  0  0  0  0  0  0  0  0  0  0  0
  -29.7255  -12.7330   18.6390 C   0  0  0  0  0  0  0  0  0  0  0  0
  -28.5241  -33.9043   21.3332 C   0  0  0  0  0  0  0  0  0  0  0  0
  -28.3513  -12.2572   19.1023 C   0  0  0  0  0  0  0  0  0  0  0  0
  -28.7929  -17.8195   23.0698 C   0  0  0  0  0  0  0  0  0  0  0  0
  -30.5081  -13.3360   19.7978 C   0  0  0  0  0  0  0  0  0  0  0  0
  -28.6775  -16.5126   22.2967 C   0  0  0  0  0  0  0  0  0  0  0  0
  -29.9302  -18.0940   21.0035 C   0  0  0  0  0  0  0  0  0  0  0  0
  -28.4126  -14.0394   20.9223 C   0  0  0  0  0  0  0  0  0  0  0  0
  -29.0070  -32.4952   20.9689 C   0  0  1  0  0  0  0  0  0  0  0  0
  -29.0052  -18.8609   21.9591 C   0  0  2  0  0  0  0  0  0  0  0  0
  -25.9656  -30.3010   20.3617 C   0  0  1  0  0  0  0  0  0  0  0  0
  -27.5856  -13.3990   19.7884 C   0  0  2  0  0  0  0  0  0  0  0  0
  -30.5956  -24.2787   25.1150 C   0  0  0  0  0  0  0  0  0  0  0  0
  -18.9655  -27.8188   22.5617 C   0  0  0  0  0  0  0  0  0  0  0  0
  -24.2464  -31.2958   24.5349 C   0  0  0  0  0  0  0  0  0  0  0  0
  -22.0796  -30.1777   25.1033 C   0  0  0  0  0  0  0  0  0  0  0  0
  -22.1169  -32.0654   23.4731 C   0  0  0  0  0  0  0  0  0  0  0  0
  -21.0619  -26.4546   19.6947 C   0  0  0  0  0  0  0  0  0  0  0  0
  -29.3768  -23.7877   21.2587 C   0  0  0  0  0  0  0  0  0  1  0  0
  -31.0414  -23.9290   23.6881 C   0  0  1  0  0  0  0  0  0  0  0  0
  -23.0502  -29.8178   22.7882 C   0  0  1  0  0  0  0  0  0  0  0  0
  -20.0730  -27.8437   21.5198 C   0  0  2  0  0  0  0  0  0  0  0  0
  -22.8945  -30.8244   23.9629 C   0  0  0  0  0  0  0  0  0  0  0  0
  -30.2858  -20.2483   23.5023 N   0  0  0  0  0  0  0  0  0  0  0  0
  -26.0647  -11.6830   20.6974 N   0  0  0  0  0  0  0  0  0  0  0  0
  -26.2200  -12.9494   20.2752 N   0  0  0  0  0  0  0  0  0  0  0  0
  -25.0361  -29.6945   21.3168 N   0  0  0  0  0  0  0  0  0  0  0  0
  -29.7591  -14.4039   20.4627 N   0  0  0  0  0  0  0  0  0  0  0  0
  -29.5703  -16.6876   21.1530 N   0  0  0  0  0  0  0  0  0  0  0  0
  -25.0604  -14.9904   19.9582 N   0  0  0  0  0  0  0  0  0  0  0  0
  -21.8856  -12.2334   21.6062 N   0  0  0  0  0  0  0  0  0  0  0  0
  -27.9248  -31.7216   20.3990 N   0  0  0  0  0  0  0  0  0  0  0  0
  -21.7865  -29.3751   22.2091 N   0  0  0  0  0  0  0  0  0  0  0  0
  -32.5443  -23.9837   23.6654 N   0  3  0  0  0  0  0  0  0  0  0  0
  -20.0397  -26.5575   20.7677 N   0  3  0  0  0  0  0  0  0  0  0  0
  -22.2940  -14.3568   20.8427 O   0  0  0  0  0  0  0  0  0  0  0  0
  -26.9681  -30.9807   22.3885 O   0  0  0  0  0  0  0  0  0  0  0  0
  -23.4641  -31.3984   21.0687 O   0  0  0  0  0  0  0  0  0  0  0  0
  -22.1122  -27.1108   22.5884 O   0  0  0  0  0  0  0  0  0  0  0  0
  -31.3658  -15.9613   19.9300 O   0  0  0  0  0  0  0  0  0  0  0  0
  -22.5809   -6.8954   23.0406 O   0  0  0  0  0  0  0  0  0  0  0  0
  -28.3927  -24.5471   21.9489 O   0  0  0  0  0  0  0  0  0  1  0  0
  -17.6793   -5.3107   21.0740 F   0  0  0  0  0  0  0  0  0  0  0  0
  -22.2879   -4.4683   21.7498 F   0  0  0  0  0  0  0  0  0  0  0  0
  1  2  1  0  0  0  0
  1  5  2  0  0  0  0
  2  6  2  0  0  0  0
  3  8  2  0  0  0  0
  3 17  1  0  0  0  0
  4  9  1  0  0  0  0
  4 17  2  0  0  0  0
  5 19  1  0  0  0  0
  6 21  1  0  0  0  0
  7 10  2  0  0  0  0
  7 20  1  0  0  0  0
  8 25  1  0  0  0  0
  9 25  2  0  0  0  0
 10 26  1  0  0  0  0
 11 12  2  0  0  0  0
 11 27  1  0  0  0  0
 12 28  1  0  0  0  0
 13 22  1  0  0  0  0
 13 26  2  0  0  0  0
 14 23  1  0  0  0  0
 14 31  2  0  0  0  0
 15 28  2  0  0  0  0
 15 29  1  0  0  0  0
 16 24  1  0  0  0  0
 16 65  2  0  0  0  0
 17 30  1  0  0  0  0
 18 30  1  0  0  0  0
 18 32  2  0  0  0  0
 18 33  1  0  0  0  0
 19 21  2  0  0  0  0
 19 38  1  0  0  0  0
 20 22  2  0  0  0  0
 20 39  1  0  0  0  0
 21 50  1  0  0  0  0
 22 40  1  0  0  0  0
 23 24  2  0  0  0  0
 23 60  1  0  0  0  0
 24 61  1  0  0  0  0
 25 82  1  0  0  0  0
 26 83  1  0  0  0  0
 27 29  2  0  0  0  0
 27 82  1  0  0  0  0
 28 84  1  0  0  0  0
 29 85  1  0  0  0  0
 30 66  2  0  0  0  0
 31 51  1  0  0  0  0
 31 65  1  0  0  0  0
 32 67  1  0  0  0  0
 32 71  1  0  0  0  0
 33 72  1  0  0  0  0
 33 77  2  0  0  0  0
 34 52  1  0  0  0  0
 34 73  1  0  0  0  0
 34 78  2  0  0  0  0
 35 62  1  0  0  0  0
 35 68  1  0  0  0  0
 35 79  2  0  0  0  0
 36 63  1  0  0  0  0
 36 74  1  0  0  0  0
 36 80  2  0  0  0  0
 37 69  1  0  0  0  0
 37 70  1  0  0  0  0
 37 81  2  0  0  0  0
 38 41  1  0  0  0  0
 39 52  1  0  0  0  0
 40 68  1  0  0  0  0
 41 43  1  0  0  0  0
 42 44  1  0  0  0  0
 42 46  1  0  0  0  0
 43 50  1  0  0  0  0
 44 53  1  0  0  0  0
 45 47  1  0  0  0  0
 45 51  1  0  0  0  0
 46 69  1  0  0  0  0
 47 70  1  0  0  0  0
 48 51  1  0  0  0  0
 48 70  1  0  0  0  0
 49 53  1  0  0  0  0
 49 69  1  0  0  0  0
 50 73  1  0  0  0  0
 52 68  1  0  0  0  0
 53 67  1  0  0  0  0
 54 61  1  0  0  0  0
 55 63  1  0  0  0  0
 56 64  1  0  0  0  0
 57 64  1  0  0  0  0
 58 64  1  0  0  0  0
 59 76  1  0  0  0  0
 60 83  1  0  0  0  0
 61 75  1  0  0  0  0
 62 64  1  0  0  0  0
 62 74  1  0  0  0  0
 63 76  1  0  0  0  0
 66 67  1  0  0  0  0
M  CHG  2  75   1  76   1
M  ISO  4  37 100  60 101  70 100  83 101
M  END
> <Batch ID>
0190

> <Smiles>
CNC(C)C(=O)NC(C(=O)N1Cc2cc([101O:1][101CH2:1]c3cc(C4CC[100N:0]([100C:0](=O)N5CCCC(n6nc(-c7ccc(Oc8ccc(F)cc8F)cc7)c(C(N)=O)c6N)C5)C4)ncc3C(C)N)ccc2CC1C(=O)NC1CCCc2ccccc21)C(C)(C)C

> <Shape>
0.300

> <Color>
0.151

> <Negative vol penalty>
0.000

$$$$

  -OEChem-04052323243D

 84 93  0     1  0  0  0  0  0999 V2000
  -18.9988  -33.1735   25.0340 C   0  0  0  0  0  0  0  0  0  0  0  0
  -20.2374  -33.2840   24.4103 C   0  0  0  0  0  0  0  0  0  0  0  0
  -25.7115  -14.5764   21.9900 C   0  0  0  0  0  0  0  0  0  0  0  0
  -26.8595  -12.7911   20.8360 C   0  0  0  0  0  0  0  0  0  0  0  0
  -18.5392  -31.9254   25.4523 C   0  0  0  0  0  0  0  0  0  0  0  0
  -21.0176  -32.1466   24.2055 C   0  0  0  0  0  0  0  0  0  0  0  0
  -25.7328  -29.3693   19.5828 C   0  0  0  0  0  0  0  0  0  0  0  0
  -24.7919  -13.6579   22.4962 C   0  0  0  0  0  0  0  0  0  0  0  0
  -25.9399  -11.8725   21.3423 C   0  0  0  0  0  0  0  0  0  0  0  0
  -27.0064  -28.8028   19.5531 C   0  0  0  0  0  0  0  0  0  0  0  0
  -22.7788  -10.8817   20.6667 C   0  0  0  0  0  0  0  0  0  0  0  0
  -22.2563   -9.9350   19.7855 C   0  0  0  0  0  0  0  0  0  0  0  0
  -26.0754  -26.6881   20.2463 C   0  0  0  0  0  0  0  0  0  0  0  0
  -23.1593   -8.1616   21.1554 C   0  0  0  0  0  0  0  0  0  0  0  0
  -26.7453  -14.1430   21.1598 C   0  0  0  0  0  0  0  0  0  0  0  0
  -28.9097  -15.4916   21.2248 C   0  0  0  0  0  0  0  0  0  0  0  0
  -19.3099  -30.7708   25.2439 C   0  0  0  0  0  0  0  0  0  0  0  0
  -24.6206  -28.6009   19.9556 C   0  0  0  0  0  0  0  0  0  0  0  0
  -20.5685  -30.8821   24.6226 C   0  0  0  0  0  0  0  0  0  0  0  0
  -24.7884  -27.2465   20.2774 C   0  0  0  0  0  0  0  0  0  0  0  0
  -24.9061  -12.3060   22.1724 C   0  0  0  0  0  0  0  0  0  0  0  0
  -27.1783  -27.4628   19.8877 C   0  0  0  0  0  0  0  0  0  0  0  0
  -23.4916  -10.4683   21.7921 C   0  0  0  0  0  0  0  0  0  0  0  0
  -22.4465   -8.5750   20.0299 C   0  0  0  0  0  0  0  0  0  0  0  0
  -23.6819   -9.1083   22.0365 C   0  0  0  0  0  0  0  0  0  0  0  0
  -27.6952  -15.0914   20.6361 C   0  0  0  0  0  0  0  0  0  0  0  0
  -31.9940  -27.5976   19.4275 C   0  0  0  0  0  0  0  0  0  0  0  0
  -30.7725  -26.9755   19.4633 C   0  0  0  0  0  0  0  0  0  0  0  0
  -29.4368  -16.4009   20.3406 C   0  0  0  0  0  0  0  0  0  0  0  0
  -31.8257  -24.9779   19.4702 C   0  0  0  0  0  0  0  0  0  0  0  0
  -29.5081  -15.0782   22.4605 C   0  0  0  0  0  0  0  0  0  0  0  0
  -22.4904  -28.7336   22.3111 C   0  0  0  0  0  0  0  0  0  0  0  0
  -21.1020  -26.3054   20.6683 C   0  0  0  0  0  0  0  0  0  0  0  0
  -21.4522  -23.7349   18.4510 C   0  0  0  0  0  0  0  0  0  0  0  0
  -28.5131  -20.9318   17.1010 C   0  0  0  0  0  0  0  0  0  0  0  0
  -18.7921  -29.4500   25.7559 C   0  0  0  0  0  0  0  0  0  0  0  0
  -23.2497  -29.2199   19.9568 C   0  0  0  0  0  0  0  0  0  0  0  0
  -23.6240  -26.3733   20.6649 C   0  0  0  0  0  0  0  0  0  0  0  0
  -19.5144  -28.2421   25.1648 C   0  0  0  0  0  0  0  0  0  0  0  0
  -28.0689  -17.6014   15.6232 C   0  0  0  0  0  0  0  0  0  0  0  0
  -21.0247  -28.4526   25.2016 C   0  0  0  0  0  0  0  0  0  0  0  0
  -27.9842  -16.6943   16.8515 C   0  0  0  0  0  0  0  0  0  0  0  0
  -30.7629  -21.3991   19.9710 C   0  0  0  0  0  0  0  0  0  0  0  0
  -27.5365  -19.0035   15.9102 C   0  0  0  0  0  0  0  0  0  0  0  0
  -29.5080  -20.7047   19.4525 C   0  0  0  0  0  0  0  0  0  0  0  0
  -28.0554  -18.7530   18.3062 C   0  0  0  0  0  0  0  0  0  0  0  0
  -29.9258  -22.6774   18.1492 C   0  0  0  0  0  0  0  0  0  0  0  0
  -21.4330  -29.6680   24.3604 C   0  0  1  0  0  0  0  0  0  0  0  0
  -22.2596  -28.4773   20.8487 C   0  0  1  0  0  0  0  0  0  0  0  0
  -28.6449  -17.3546   18.0760 C   0  0  1  0  0  0  0  0  0  0  0  0
  -30.5376  -22.8419   19.5322 C   0  0  2  0  0  0  0  0  0  0  0  0
  -32.1264  -29.0799   19.4026 C   0  0  0  0  0  0  0  0  0  0  0  0
  -20.1473  -21.9058   17.3335 C   0  0  0  0  0  0  0  0  0  0  0  0
  -21.1499  -24.6926   23.2580 C   0  0  0  0  0  0  0  0  0  0  0  0
  -20.7426  -22.6297   21.8990 C   0  0  0  0  0  0  0  0  0  0  0  0
  -19.0480  -24.4601   21.9230 C   0  0  0  0  0  0  0  0  0  0  0  0
  -22.0002  -24.8311   15.7571 C   0  0  0  0  0  0  0  0  0  0  0  0
  -29.5028  -27.7557   19.4794 C   0  0  0  0  0  0  0  0  0  1  0  0
  -21.2228  -24.8007   20.6794 C   0  0  1  0  0  0  0  0  0  0  0  0
  -20.6411  -23.3404   17.2299 C   0  0  2  0  0  0  0  0  0  0  0  0
  -20.5632  -24.1624   21.9344 C   0  0  0  0  0  0  0  0  0  0  0  0
  -27.4641  -15.6970   19.4683 N   0  0  0  0  0  0  0  0  0  0  0  0
  -30.6586  -25.6389   19.4859 N   0  0  0  0  0  0  0  0  0  0  0  0
  -33.1325  -26.8810   19.4132 N   0  0  0  0  0  0  0  0  0  0  0  0
  -33.0525  -25.5342   19.4349 N   0  0  0  0  0  0  0  0  0  0  0  0
  -28.5406  -16.4870   19.3161 N   0  0  0  0  0  0  0  0  0  0  0  0
  -22.3045  -27.0263   20.6572 N   0  0  0  0  0  0  0  0  0  0  0  0
  -28.1744  -19.5743   17.0967 N   0  0  0  0  0  0  0  0  0  0  0  0
  -29.1673  -21.4311   18.2265 N   0  0  0  0  0  0  0  0  0  0  0  0
  -30.5746  -17.1272   20.3473 N   0  0  0  0  0  0  0  0  0  0  0  0
  -28.8323  -14.1359   23.2477 N   0  0  0  0  0  0  0  0  0  0  0  0
  -31.7656  -23.5911   19.4924 N   0  0  0  0  0  0  0  0  0  0  0  0
  -21.4237  -29.3342   22.9522 N   0  0  0  0  0  0  0  0  0  0  0  0
  -20.6682  -24.3373   19.4121 N   0  0  0  0  0  0  0  0  0  0  0  0
  -21.4680  -23.4649   15.9964 N   0  3  0  0  0  0  0  0  0  0  0  0
  -30.6014  -15.5433   22.8627 O   0  0  0  0  0  0  0  0  0  0  0  0
  -23.5567  -28.4091   22.8204 O   0  0  0  0  0  0  0  0  0  0  0  0
  -19.9819  -26.8222   20.6624 O   0  0  0  0  0  0  0  0  0  0  0  0
  -22.6597  -23.5260   18.5445 O   0  0  0  0  0  0  0  0  0  0  0  0
  -28.2839  -21.6560   16.1232 O   0  0  0  0  0  0  0  0  0  0  0  0
  -24.0091  -11.4094   22.6664 O   0  0  0  0  0  0  0  0  0  0  0  0
  -28.4288  -26.9039   19.8600 O   0  0  0  0  0  0  0  0  0  1  0  0
  -21.9434   -7.6660   19.1845 F   0  0  0  0  0  0  0  0  0  0  0  0
  -24.3648   -8.7051   23.1167 F   0  0  0  0  0  0  0  0  0  0  0  0
  1  2  1  0  0  0  0
  1  5  2  0  0  0  0
  2  6  2  0  0  0  0
  3  8  2  0  0  0  0
  3 15  1  0  0  0  0
  4  9  1  0  0  0  0
  4 15  2  0  0  0  0
  5 17  1  0  0  0  0
  6 19  1  0  0  0  0
  7 10  2  0  0  0  0
  7 18  1  0  0  0  0
  8 21  1  0  0  0  0
  9 21  2  0  0  0  0
 10 22  1  0  0  0  0
 11 12  2  0  0  0  0
 11 23  1  0  0  0  0
 12 24  1  0  0  0  0
 13 20  1  0  0  0  0
 13 22  2  0  0  0  0
 14 24  2  0  0  0  0
 14 25  1  0  0  0  0
 15 26  1  0  0  0  0
 16 26  1  0  0  0  0
 16 29  2  0  0  0  0
 16 31  1  0  0  0  0
 17 19  2  0  0  0  0
 17 36  1  0  0  0  0
 18 20  2  0  0  0  0
 18 37  1  0  0  0  0
 19 48  1  0  0  0  0
 20 38  1  0  0  0  0
 21 81  1  0  0  0  0
 22 82  1  0  0  0  0
 23 25  2  0  0  0  0
 23 81  1  0  0  0  0
 24 83  1  0  0  0  0
 25 84  1  0  0  0  0
 26 62  2  0  0  0  0
 27 28  2  0  0  0  0
 27 52  1  0  0  0  0
 27 64  1  0  0  0  0
 28 58  1  0  0  0  0
 28 63  1  0  0  0  0
 29 66  1  0  0  0  0
 29 70  1  0  0  0  0
 30 63  2  0  0  0  0
 30 65  1  0  0  0  0
 30 72  1  0  0  0  0
 31 71  1  0  0  0  0
 31 76  2  0  0  0  0
 32 49  1  0  0  0  0
 32 73  1  0  0  0  0
 32 77  2  0  0  0  0
 33 59  1  0  0  0  0
 33 67  1  0  0  0  0
 33 78  2  0  0  0  0
 34 60  1  0  0  0  0
 34 74  1  0  0  0  0
 34 79  2  0  0  0  0
 35 68  1  0  0  0  0
 35 69  1  0  0  0  0
 35 80  2  0  0  0  0
 36 39  1  0  0  0  0
 37 49  1  0  0  0  0
 38 67  1  0  0  0  0
 39 41  1  0  0  0  0
 40 42  1  0  0  0  0
 40 44  1  0  0  0  0
 41 48  1  0  0  0  0
 42 50  1  0  0  0  0
 43 45  1  0  0  0  0
 43 51  1  0  0  0  0
 44 68  1  0  0  0  0
 45 69  1  0  0  0  0
 46 50  1  0  0  0  0
 46 68  1  0  0  0  0
 47 51  1  0  0  0  0
 47 69  1  0  0  0  0
 48 73  1  0  0  0  0
 49 67  1  0  0  0  0
 50 66  1  0  0  0  0
 51 72  1  0  0  0  0
 53 60  1  0  0  0  0
 54 61  1  0  0  0  0
 55 61  1  0  0  0  0
 56 61  1  0  0  0  0
 57 75  1  0  0  0  0
 58 82  1  0  0  0  0
 59 61  1  0  0  0  0
 59 74  1  0  0  0  0
 60 75  1  0  0  0  0
 62 66  1  0  0  0  0
 64 65  2  0  0  0  0
M  CHG  1  75   1
M  ISO  4  35 100  58 101  69 100  82 101
M  END
> <Batch ID>
0190

> <Smiles>
CNC(C)C(=O)NC(C(=O)N1Cc2cc([101O:1][101CH2:1]c3nc(NC4CC[100N:0]([100C:0](=O)N5CCCC(n6nc(-c7ccc(Oc8ccc(F)cc8F)cc7)c(C(N)=O)c6N)C5)C4)nnc3C)ccc2CC1C(=O)NC1CCCc2ccccc21)C(C)(C)C

> <Shape>
0.235

> <Color>
0.109

> <Negative vol penalty>
0.000

$$$$

  -OEChem-04052323243D

 84 93  0     1  0  0  0  0  0999 V2000
  -24.7290  -35.6196   21.9880 C   0  0  0  0  0  0  0  0  0  0  0  0
  -25.4945  -34.4599   21.9205 C   0  0  0  0  0  0  0  0  0  0  0  0
  -24.5862  -13.2597   21.3183 C   0  0  0  0  0  0  0  0  0  0  0  0
  -26.5886  -12.6941   20.0906 C   0  0  0  0  0  0  0  0  0  0  0  0
  -23.4564  -35.5815   22.5564 C   0  0  0  0  0  0  0  0  0  0  0  0
  -24.9882  -33.2615   22.4224 C   0  0  0  0  0  0  0  0  0  0  0  0
  -25.7909  -29.3549   19.3017 C   0  0  0  0  0  0  0  0  0  0  0  0
  -23.9757  -12.0921   20.8606 C   0  0  0  0  0  0  0  0  0  0  0  0
  -25.9781  -11.5264   19.6328 C   0  0  0  0  0  0  0  0  0  0  0  0
  -27.0705  -28.8013   19.2906 C   0  0  0  0  0  0  0  0  0  0  0  0
  -24.0382   -8.7935   21.6008 C   0  0  0  0  0  0  0  0  0  0  0  0
  -23.3369   -8.0225   22.5277 C   0  0  0  0  0  0  0  0  0  0  0  0
  -26.3056  -27.0199   20.7261 C   0  0  0  0  0  0  0  0  0  0  0  0
  -21.3158   -8.3067   21.2349 C   0  0  0  0  0  0  0  0  0  0  0  0
  -25.8927  -13.5607   20.9333 C   0  0  0  0  0  0  0  0  0  0  0  0
  -27.2871  -14.9243   22.5776 C   0  0  0  0  0  0  0  0  0  0  0  0
  -22.9305  -34.3800   23.0568 C   0  0  0  0  0  0  0  0  0  0  0  0
  -24.7601  -28.7501   20.0352 C   0  0  0  0  0  0  0  0  0  0  0  0
  -23.7079  -33.2075   22.9993 C   0  0  0  0  0  0  0  0  0  0  0  0
  -25.0133  -27.5663   20.7428 C   0  0  0  0  0  0  0  0  0  0  0  0
  -24.6716  -11.2255   20.0179 C   0  0  0  0  0  0  0  0  0  0  0  0
  -27.3287  -27.6352   20.0052 C   0  0  0  0  0  0  0  0  0  0  0  0
  -23.3784   -9.3213   20.4910 C   0  0  0  0  0  0  0  0  0  0  0  0
  -21.9757   -7.7790   22.3448 C   0  0  0  0  0  0  0  0  0  0  0  0
  -22.0171   -9.0778   20.3080 C   0  0  0  0  0  0  0  0  0  0  0  0
  -26.5237  -14.7670   21.4053 C   0  0  0  0  0  0  0  0  0  0  0  0
  -27.6578  -16.2468   22.5711 C   0  0  0  0  0  0  0  0  0  0  0  0
  -27.6306  -13.9611   23.5825 C   0  0  0  0  0  0  0  0  0  0  0  0
  -22.9296  -29.6331   22.4792 C   0  0  0  0  0  0  0  0  0  0  0  0
  -21.4373  -26.8173   21.8739 C   0  0  0  0  0  0  0  0  0  0  0  0
  -21.6043  -23.6752   20.5524 C   0  0  0  0  0  0  0  0  0  0  0  0
  -28.2507  -20.0641   18.0124 C   0  0  0  0  0  0  0  0  0  0  0  0
  -21.5688  -34.3979   23.7049 C   0  0  0  0  0  0  0  0  0  0  0  0
  -23.3787  -29.3450   20.0152 C   0  0  0  0  0  0  0  0  0  0  0  0
  -23.9361  -26.8669   21.5296 C   0  0  0  0  0  0  0  0  0  0  0  0
  -20.9567  -33.0098   23.8746 C   0  0  0  0  0  0  0  0  0  0  0  0
  -26.2127  -20.5362   21.0237 C   0  0  0  0  0  0  0  0  0  0  0  0
  -21.9834  -32.0405   24.4518 C   0  0  0  0  0  0  0  0  0  0  0  0
  -26.1210  -19.1055   21.5566 C   0  0  0  0  0  0  0  0  0  0  0  0
  -32.9840  -26.6663   20.0655 C   0  0  0  0  0  0  0  0  0  0  0  0
  -26.2348  -20.5502   19.5000 C   0  0  0  0  0  0  0  0  0  0  0  0
  -29.6163  -21.9919   17.0447 C   0  0  0  0  0  0  0  0  0  0  0  0
  -28.6291  -22.5137   18.8552 C   0  0  0  0  0  0  0  0  0  0  0  0
  -27.2383  -18.3036   19.4195 C   0  0  0  0  0  0  0  0  0  0  0  0
  -33.6646  -27.5852   21.0660 C   0  0  0  0  0  0  0  0  0  0  0  0
  -31.6222  -28.5971   20.1795 C   0  0  0  0  0  0  0  0  0  0  0  0
  -23.1837  -31.8831   23.5104 C   0  0  1  0  0  0  0  0  0  0  0  0
  -22.5314  -28.9282   21.2134 C   0  0  1  0  0  0  0  0  0  0  0  0
  -31.5215  -27.0819   20.1252 C   0  0  1  0  0  0  0  0  0  0  0  0
  -29.9732  -22.9178   18.2202 C   0  0  0  0  0  0  0  0  0  0  0  0
  -27.2247  -18.2150   20.9568 C   0  0  2  0  0  0  0  0  0  0  0  0
  -20.2378  -21.5934   20.2421 C   0  0  0  0  0  0  0  0  0  0  0  0
  -21.8571  -26.1068   24.8114 C   0  0  0  0  0  0  0  0  0  0  0  0
  -21.3597  -23.7221   24.2336 C   0  0  0  0  0  0  0  0  0  0  0  0
  -19.6175  -25.4751   23.8951 C   0  0  0  0  0  0  0  0  0  0  0  0
  -33.5375  -30.1023   20.8255 C   0  0  0  0  0  0  0  0  0  0  0  0
  -21.7811  -23.8593   17.6039 C   0  0  0  0  0  0  0  0  0  0  0  0
  -30.1540  -24.3862   17.8926 C   0  0  0  0  0  0  0  0  0  0  0  0
  -29.3666  -27.2993   18.8262 C   0  0  0  0  0  0  0  0  0  1  0  0
  -21.6111  -25.3928   22.3425 C   0  0  1  0  0  0  0  0  0  0  0  0
  -20.6648  -22.9188   19.6307 C   0  0  2  0  0  0  0  0  0  0  0  0
  -30.7072  -26.5830   18.9447 C   0  0  2  0  0  0  0  0  0  0  0  0
  -21.1323  -25.1882   23.8075 C   0  0  0  0  0  0  0  0  0  0  0  0
  -26.4148  -15.8992   20.7051 N   0  0  0  0  0  0  0  0  0  0  0  0
  -27.1146  -16.7806   21.4396 N   0  0  0  0  0  0  0  0  0  0  0  0
  -22.6035  -27.4910   21.4842 N   0  0  0  0  0  0  0  0  0  0  0  0
  -27.3143  -19.7022   18.9847 N   0  0  0  0  0  0  0  0  0  0  0  0
  -28.6388  -21.3812   17.9415 N   0  0  0  0  0  0  0  0  0  0  0  0
  -28.3919  -16.9937   23.4230 N   0  0  0  0  0  0  0  0  0  0  0  0
  -27.1674  -12.6466   23.4342 N   0  0  0  0  0  0  0  0  0  0  0  0
  -22.8485  -31.0105   22.4056 N   0  0  0  0  0  0  0  0  0  0  0  0
  -20.9228  -24.5551   21.3663 N   0  0  0  0  0  0  0  0  0  0  0  0
  -32.7994  -28.8322   21.1028 N   0  3  2  0  0  0  0  0  0  0  0  0
  -21.3303  -22.6420   18.3263 N   0  3  0  0  0  0  0  0  0  0  0  0
  -30.4505  -25.1287   19.1390 N   0  3  0  0  0  0  0  0  0  0  0  0
  -28.3139  -14.2611   24.5908 O   0  0  0  0  0  0  0  0  0  0  0  0
  -23.2829  -28.9757   23.4513 O   0  0  0  0  0  0  0  0  0  0  0  0
  -20.3074  -27.3116   21.8476 O   0  0  0  0  0  0  0  0  0  0  0  0
  -22.8209  -23.5001   20.5530 O   0  0  0  0  0  0  0  0  0  0  0  0
  -28.7525  -19.2296   17.2474 O   0  0  0  0  0  0  0  0  0  0  0  0
  -24.0762  -10.0859   19.5712 O   0  0  0  0  0  0  0  0  0  0  0  0
  -28.5853  -27.0895   19.9965 O   0  0  0  0  0  0  0  0  0  1  0  0
  -21.3026   -7.0373   23.2342 F   0  0  0  0  0  0  0  0  0  0  0  0
  -21.3780   -9.5812   19.2431 F   0  0  0  0  0  0  0  0  0  0  0  0
  1  2  1  0  0  0  0
  1  5  2  0  0  0  0
  2  6  2  0  0  0  0
  3  8  2  0  0  0  0
  3 15  1  0  0  0  0
  4  9  1  0  0  0  0
  4 15  2  0  0  0  0
  5 17  1  0  0  0  0
  6 19  1  0  0  0  0
  7 10  2  0  0  0  0
  7 18  1  0  0  0  0
  8 21  1  0  0  0  0
  9 21  2  0  0  0  0
 10 22  1  0  0  0  0
 11 12  2  0  0  0  0
 11 23  1  0  0  0  0
 12 24  1  0  0  0  0
 13 20  1  0  0  0  0
 13 22  2  0  0  0  0
 14 24  2  0  0  0  0
 14 25  1  0  0  0  0
 15 26  1  0  0  0  0
 16 26  1  0  0  0  0
 16 27  2  0  0  0  0
 16 28  1  0  0  0  0
 17 19  2  0  0  0  0
 17 33  1  0  0  0  0
 18 20  2  0  0  0  0
 18 34  1  0  0  0  0
 19 47  1  0  0  0  0
 20 35  1  0  0  0  0
 21 81  1  0  0  0  0
 22 82  1  0  0  0  0
 23 25  2  0  0  0  0
 23 81  1  0  0  0  0
 24 83  1  0  0  0  0
 25 84  1  0  0  0  0
 26 64  2  0  0  0  0
 27 65  1  0  0  0  0
 27 69  1  0  0  0  0
 28 70  1  0  0  0  0
 28 76  2  0  0  0  0
 29 48  1  0  0  0  0
 29 71  1  0  0  0  0
 29 77  2  0  0  0  0
 30 60  1  0  0  0  0
 30 66  1  0  0  0  0
 30 78  2  0  0  0  0
 31 61  1  0  0  0  0
 31 72  1  0  0  0  0
 31 79  2  0  0  0  0
 32 67  1  0  0  0  0
 32 68  1  0  0  0  0
 32 80  2  0  0  0  0
 33 36  1  0  0  0  0
 34 48  1  0  0  0  0
 35 66  1  0  0  0  0
 36 38  1  0  0  0  0
 37 39  1  0  0  0  0
 37 41  1  0  0  0  0
 38 47  1  0  0  0  0
 39 51  1  0  0  0  0
 40 45  1  0  0  0  0
 40 49  1  0  0  0  0
 41 67  1  0  0  0  0
 42 50  1  0  0  0  0
 42 68  1  0  0  0  0
 43 50  1  0  0  0  0
 43 68  1  0  0  0  0
 44 51  1  0  0  0  0
 44 67  1  0  0  0  0
 45 73  1  0  0  0  0
 46 49  1  0  0  0  0
 46 73  1  0  0  0  0
 47 71  1  0  0  0  0
 48 66  1  0  0  0  0
 49 62  1  0  0  0  0
 50 58  1  0  0  0  0
 51 65  1  0  0  0  0
 52 61  1  0  0  0  0
 53 63  1  0  0  0  0
 54 63  1  0  0  0  0
 55 63  1  0  0  0  0
 56 73  1  0  0  0  0
 57 74  1  0  0  0  0
 58 75  1  0  0  0  0
 59 62  1  0  0  0  0
 59 82  1  0  0  0  0
 60 63  1  0  0  0  0
 60 72  1  0  0  0  0
 61 74  1  0  0  0  0
 62 75  1  0  0  0  0
 64 65  1  0  0  0  0
M  CHG  3  73   1  74   1  75   1
M  ISO  4  32 100  59 101  68 100  82 101
M  END
> <Batch ID>
0190

> <Smiles>
CNC(C)C(=O)NC(C(=O)N1Cc2cc([101O:1][101CH2:1]C(NCC3C[100N:0]([100C:0](=O)N4CCCC(n5nc(-c6ccc(Oc7ccc(F)cc7F)cc6)c(C(N)=O)c5N)C4)C3)C3CCN(C)C3)ccc2CC1C(=O)NC1CCCc2ccccc21)C(C)(C)C

> <Shape>
0.252

> <Color>
0.082

> <Negative vol penalty>
0.000

$$$$

  -OEChem-04052323243D

 88 98  0     1  0  0  0  0  0999 V2000
  -20.2337   -8.7622   18.6873 C   0  0  0  0  0  0  0  0  0  0  0  0
  -20.0886  -10.1404   18.8091 C   0  0  0  0  0  0  0  0  0  0  0  0
  -22.1438  -30.3302   22.4674 C   0  0  0  0  0  0  0  0  0  0  0  0
  -22.8902  -28.0568   22.8018 C   0  0  0  0  0  0  0  0  0  0  0  0
  -21.2040   -8.0958   19.4346 C   0  0  0  0  0  0  0  0  0  0  0  0
  -20.9130  -10.8529   19.6792 C   0  0  0  0  0  0  0  0  0  0  0  0
  -25.6170  -16.9271   18.2634 C   0  0  0  0  0  0  0  0  0  0  0  0
  -21.0195  -30.0767   23.2530 C   0  0  0  0  0  0  0  0  0  0  0  0
  -21.7658  -27.8033   23.5874 C   0  0  0  0  0  0  0  0  0  0  0  0
  -26.6022  -17.9021   18.1055 C   0  0  0  0  0  0  0  0  0  0  0  0
  -17.7687  -29.9230   24.8754 C   0  0  0  0  0  0  0  0  0  0  0  0
  -16.5348  -30.3778   24.4104 C   0  0  0  0  0  0  0  0  0  0  0  0
  -27.7936  -17.0232   20.0175 C   0  0  0  0  0  0  0  0  0  0  0  0
  -16.7816  -29.0198   22.4275 C   0  0  0  0  0  0  0  0  0  0  0  0
  -23.0792  -29.3203   22.2418 C   0  0  0  0  0  0  0  0  0  0  0  0
  -24.2617  -29.9858   20.0816 C   0  0  0  0  0  0  0  0  0  0  0  0
  -22.0471   -8.8018   20.3070 C   0  0  0  0  0  0  0  0  0  0  0  0
  -25.7245  -15.9858   19.2909 C   0  0  0  0  0  0  0  0  0  0  0  0
  -21.8946  -10.1952   20.4398 C   0  0  0  0  0  0  0  0  0  0  0  0
  -26.8163  -16.0365   20.1730 C   0  0  0  0  0  0  0  0  0  0  0  0
  -20.8305  -28.8132   23.8130 C   0  0  0  0  0  0  0  0  0  0  0  0
  -27.6876  -17.9501   18.9805 C   0  0  0  0  0  0  0  0  0  0  0  0
  -18.5091  -29.0167   24.1164 C   0  0  0  0  0  0  0  0  0  0  0  0
  -16.0412  -29.9262   23.1865 C   0  0  0  0  0  0  0  0  0  0  0  0
  -18.0155  -28.5650   22.8925 C   0  0  0  0  0  0  0  0  0  0  0  0
  -24.2405  -29.5814   21.4299 C   0  0  0  0  0  0  0  0  0  0  0  0
  -25.5965  -30.0975   19.7776 C   0  0  0  0  0  0  0  0  0  0  0  0
  -23.1723  -30.2379   19.1842 C   0  0  0  0  0  0  0  0  0  0  0  0
  -24.2413  -12.9936   21.0007 C   0  0  0  0  0  0  0  0  0  0  0  0
  -27.2742  -12.5459   20.8929 C   0  0  0  0  0  0  0  0  0  0  0  0
  -30.4210  -11.2369   20.7477 C   0  0  0  0  0  0  0  0  0  0  0  0
  -27.6305  -28.3341   24.5409 C   0  0  0  0  0  0  0  0  0  0  0  0
  -23.0498   -8.0316   21.1294 C   0  0  0  0  0  0  0  0  0  0  0  0
  -24.6553  -14.9559   19.5362 C   0  0  0  0  0  0  0  0  0  0  0  0
  -26.8726  -15.0249   21.2850 C   0  0  0  0  0  0  0  0  0  0  0  0
  -24.1331   -8.9107   21.7489 C   0  0  0  0  0  0  0  0  0  0  0  0
  -28.2351  -31.4471   22.9531 C   0  0  0  0  0  0  0  0  0  0  0  0
  -23.5137  -10.1460   22.3948 C   0  0  0  0  0  0  0  0  0  0  0  0
  -28.3384  -31.1174   21.4675 C   0  0  0  0  0  0  0  0  0  0  0  0
  -25.5498  -26.4377   25.9042 C   0  0  0  0  0  0  0  0  0  0  0  0
  -25.9294  -25.1554   25.2259 C   0  0  0  0  0  0  0  0  0  0  0  0
  -29.7902  -25.7605   24.2547 C   0  0  0  0  0  0  0  0  0  0  0  0
  -27.6746  -22.0874   22.1646 C   0  0  0  0  0  0  0  0  0  0  0  0
  -30.1893  -21.8852   22.3576 C   0  0  0  0  0  0  0  0  0  0  0  0
  -28.8581  -30.3437   23.7949 C   0  0  0  0  0  0  0  0  0  0  0  0
  -28.2729  -28.6324   22.0923 C   0  0  0  0  0  0  0  0  0  0  0  0
  -30.3031  -24.6370   23.3675 C   0  0  0  0  0  0  0  0  0  0  0  0
  -27.8047  -22.1317   20.6465 C   0  0  0  0  0  0  0  0  0  0  0  0
  -30.2996  -21.9309   20.8380 C   0  0  0  0  0  0  0  0  0  0  0  0
  -27.8677  -24.8239   23.2348 C   0  0  0  0  0  0  0  0  0  0  0  0
  -22.7864  -11.0064   21.3545 C   0  0  1  0  0  0  0  0  0  0  0  0
  -25.2146  -13.6141   20.0420 C   0  0  1  0  0  0  0  0  0  0  0  0
  -27.7769  -29.7283   21.1210 C   0  0  1  0  0  0  0  0  0  0  0  0
  -26.9853  -26.1810   25.5353 C   0  0  0  0  0  0  0  0  0  0  0  0
  -28.4758  -26.1616   23.6074 C   0  0  1  0  0  0  0  0  0  0  0  0
  -28.9303  -22.5667   22.8905 C   0  0  0  0  0  0  0  0  0  0  0  0
  -31.9315   -9.6056   21.9116 C   0  0  0  0  0  0  0  0  0  0  0  0
  -28.7503  -22.6173   18.1372 C   0  0  0  0  0  0  0  0  0  0  0  0
  -27.7115  -14.5605   23.1410 C   0  0  0  0  0  0  0  0  0  0  0  0
  -29.8346  -13.3606   23.7074 C   0  0  0  0  0  0  0  0  0  0  0  0
  -27.6484  -12.1715   23.8781 C   0  0  0  0  0  0  0  0  0  0  0  0
  -30.6777   -9.5644   18.3195 C   0  0  0  0  0  0  0  0  0  0  0  0
  -28.2394  -20.1452   18.2494 C   0  0  0  0  0  0  0  0  0  1  0  0
  -28.6004  -12.6936   21.5949 C   0  0  1  0  0  0  0  0  0  0  0  0
  -30.9192   -9.8037   20.7941 C   0  0  2  0  0  0  0  0  0  0  0  0
  -29.1459  -21.2737   18.7279 C   0  0  2  0  0  0  0  0  0  0  0  0
  -28.4445  -13.2069   23.0542 C   0  0  0  0  0  0  0  0  0  0  0  0
  -25.4646  -29.4454   21.9467 N   0  0  0  0  0  0  0  0  0  0  0  0
  -26.2675  -29.7659   20.9178 N   0  0  0  0  0  0  0  0  0  0  0  0
  -26.4878  -13.6986   20.7775 N   0  0  0  0  0  0  0  0  0  0  0  0
  -28.2628  -29.0394   23.5056 N   0  0  0  0  0  0  0  0  0  0  0  0
  -26.2499  -30.4460   18.6489 N   0  0  0  0  0  0  0  0  0  0  0  0
  -22.6828  -29.1753   18.4124 N   0  0  0  0  0  0  0  0  0  0  0  0
  -23.7372  -11.7770   20.5821 N   0  0  0  0  0  0  0  0  0  0  0  0
  -29.2669  -11.4006   21.4843 N   0  0  0  0  0  0  0  0  0  0  0  0
  -27.6379  -26.9340   24.4774 N   0  0  0  0  0  0  0  0  0  0  0  0
  -29.0617  -24.0430   22.7254 N   0  3  2  0  0  0  0  0  0  0  0  0
  -29.0386  -21.3699   20.2251 N   0  3  0  0  0  0  0  0  0  0  0  0
  -31.5673   -9.4385   19.5027 N   0  3  0  0  0  0  0  0  0  0  0  0
  -22.6592  -31.3755   19.0581 O   0  0  0  0  0  0  0  0  0  0  0  0
  -23.9680  -13.5743   22.0446 O   0  0  0  0  0  0  0  0  0  0  0  0
  -26.9395  -11.4386   20.4625 O   0  0  0  0  0  0  0  0  0  0  0  0
  -31.0000  -12.1235   20.1237 O   0  0  0  0  0  0  0  0  0  0  0  0
  -27.0788  -28.9236   25.4801 O   0  0  0  0  0  0  0  0  0  0  0  0
  -19.7336  -28.5655   24.5799 O   0  0  0  0  0  0  0  0  0  0  0  0
  -28.6482  -18.9018   18.8179 O   0  0  0  0  0  0  0  0  0  1  0  0
  -14.8556  -30.3618   22.7408 F   0  0  0  0  0  0  0  0  0  0  0  0
  -18.7217  -27.6934   22.1595 F   0  0  0  0  0  0  0  0  0  0  0  0
  1  2  1  0  0  0  0
  1  5  2  0  0  0  0
  2  6  2  0  0  0  0
  3  8  2  0  0  0  0
  3 15  1  0  0  0  0
  4  9  1  0  0  0  0
  4 15  2  0  0  0  0
  5 17  1  0  0  0  0
  6 19  1  0  0  0  0
  7 10  2  0  0  0  0
  7 18  1  0  0  0  0
  8 21  1  0  0  0  0
  9 21  2  0  0  0  0
 10 22  1  0  0  0  0
 11 12  2  0  0  0  0
 11 23  1  0  0  0  0
 12 24  1  0  0  0  0
 13 20  1  0  0  0  0
 13 22  2  0  0  0  0
 14 24  2  0  0  0  0
 14 25  1  0  0  0  0
 15 26  1  0  0  0  0
 16 26  1  0  0  0  0
 16 27  2  0  0  0  0
 16 28  1  0  0  0  0
 17 19  2  0  0  0  0
 17 33  1  0  0  0  0
 18 20  2  0  0  0  0
 18 34  1  0  0  0  0
 19 51  1  0  0  0  0
 20 35  1  0  0  0  0
 21 85  1  0  0  0  0
 22 86  1  0  0  0  0
 23 25  2  0  0  0  0
 23 85  1  0  0  0  0
 24 87  1  0  0  0  0
 25 88  1  0  0  0  0
 26 68  2  0  0  0  0
 27 69  1  0  0  0  0
 27 72  1  0  0  0  0
 28 73  1  0  0  0  0
 28 80  2  0  0  0  0
 29 52  1  0  0  0  0
 29 74  1  0  0  0  0
 29 81  2  0  0  0  0
 30 64  1  0  0  0  0
 30 70  1  0  0  0  0
 30 82  2  0  0  0  0
 31 65  1  0  0  0  0
 31 75  1  0  0  0  0
 31 83  2  0  0  0  0
 32 71  1  0  0  0  0
 32 76  1  0  0  0  0
 32 84  2  0  0  0  0
 33 36  1  0  0  0  0
 34 52  1  0  0  0  0
 35 70  1  0  0  0  0
 36 38  1  0  0  0  0
 37 39  1  0  0  0  0
 37 45  1  0  0  0  0
 38 51  1  0  0  0  0
 39 53  1  0  0  0  0
 40 41  1  0  0  0  0
 40 54  1  0  0  0  0
 41 54  1  0  0  0  0
 42 47  1  0  0  0  0
 42 55  1  0  0  0  0
 43 48  1  0  0  0  0
 43 56  1  0  0  0  0
 44 49  1  0  0  0  0
 44 56  1  0  0  0  0
 45 71  1  0  0  0  0
 46 53  1  0  0  0  0
 46 71  1  0  0  0  0
 47 77  1  0  0  0  0
 48 78  1  0  0  0  0
 49 78  1  0  0  0  0
 50 55  1  0  0  0  0
 50 77  1  0  0  0  0
 51 74  1  0  0  0  0
 52 70  1  0  0  0  0
 53 69  1  0  0  0  0
 54 76  1  0  0  0  0
 55 76  1  0  0  0  0
 56 77  1  0  0  0  0
 57 65  1  0  0  0  0
 58 66  1  0  0  0  0
 59 67  1  0  0  0  0
 60 67  1  0  0  0  0
 61 67  1  0  0  0  0
 62 79  1  0  0  0  0
 63 66  1  0  0  0  0
 63 86  1  0  0  0  0
 64 67  1  0  0  0  0
 64 75  1  0  0  0  0
 65 79  1  0  0  0  0
 66 78  1  0  0  0  0
 68 69  1  0  0  0  0
M  CHG  3  77   1  78   1  79   1
M  ISO  4  32 100  63 101  76 100  86 101
M  END
> <Batch ID>
0190

> <Smiles>
CNC(C)C(=O)NC(C(=O)N1Cc2cc([101O:1][101CH2:1]C(C)N3CCC(N4CCC([100N:0](C5CC5)[100C:0](=O)N5CCCC(n6nc(-c7ccc(Oc8ccc(F)cc8F)cc7)c(C(N)=O)c6N)C5)C4)CC3)ccc2CC1C(=O)NC1CCCc2ccccc21)C(C)(C)C

> <Shape>
0.282

> <Color>
0.048

> <Negative vol penalty>
0.000

$$$$

  -OEChem-04052323243D

 83 92  0     1  0  0  0  0  0999 V2000
  -29.3453  -37.0106   21.0948 C   0  0  0  0  0  0  0  0  0  0  0  0
  -29.5662  -35.6831   20.7422 C   0  0  0  0  0  0  0  0  0  0  0  0
  -25.7955   -9.0041   20.7097 C   0  0  0  0  0  0  0  0  0  0  0  0
  -23.6339   -9.6791   21.5518 C   0  0  0  0  0  0  0  0  0  0  0  0
  -28.4510  -37.3191   22.1190 C   0  0  0  0  0  0  0  0  0  0  0  0
  -28.8937  -34.6632   21.4144 C   0  0  0  0  0  0  0  0  0  0  0  0
  -26.9131  -29.3745   19.0452 C   0  0  0  0  0  0  0  0  0  0  0  0
  -25.5153   -7.6810   21.0509 C   0  0  0  0  0  0  0  0  0  0  0  0
  -23.3536   -8.3559   21.8929 C   0  0  0  0  0  0  0  0  0  0  0  0
  -27.4467  -28.0865   19.0497 C   0  0  0  0  0  0  0  0  0  0  0  0
  -22.3579   -5.5367   20.3179 C   0  0  0  0  0  0  0  0  0  0  0  0
  -21.0977   -5.0372   19.9890 C   0  0  0  0  0  0  0  0  0  0  0  0
  -26.0797  -27.5334   20.9588 C   0  0  0  0  0  0  0  0  0  0  0  0
  -20.6605   -4.6024   22.3250 C   0  0  0  0  0  0  0  0  0  0  0  0
  -27.4558  -22.8251   19.9093 C   0  0  0  0  0  0  0  0  0  0  0  0
  -29.3588  -22.2449   21.6895 C   0  0  0  0  0  0  0  0  0  0  0  0
  -24.8548  -10.0032   20.9602 C   0  0  0  0  0  0  0  0  0  0  0  0
  -24.8671  -12.0102   19.3856 C   0  0  0  0  0  0  0  0  0  0  0  0
  -27.7599  -36.3029   22.7976 C   0  0  0  0  0  0  0  0  0  0  0  0
  -25.9653  -29.7557   20.0057 C   0  0  0  0  0  0  0  0  0  0  0  0
  -27.9903  -34.9582   22.4496 C   0  0  0  0  0  0  0  0  0  0  0  0
  -25.5337  -28.8261   20.9627 C   0  0  0  0  0  0  0  0  0  0  0  0
  -24.2943   -7.3569   21.6425 C   0  0  0  0  0  0  0  0  0  0  0  0
  -27.0322  -27.1666   20.0084 C   0  0  0  0  0  0  0  0  0  0  0  0
  -22.7694   -5.5689   21.6503 C   0  0  0  0  0  0  0  0  0  0  0  0
  -20.2490   -4.5701   20.9926 C   0  0  0  0  0  0  0  0  0  0  0  0
  -21.9207   -5.1018   22.6539 C   0  0  0  0  0  0  0  0  0  0  0  0
  -25.1439  -11.3703   20.6086 C   0  0  0  0  0  0  0  0  0  0  0  0
  -27.7844  -23.7101   20.9125 C   0  0  0  0  0  0  0  0  0  0  0  0
  -29.0297  -21.3595   20.6869 C   0  0  0  0  0  0  0  0  0  0  0  0
  -25.3324  -13.2913   19.5554 C   0  0  0  0  0  0  0  0  0  0  0  0
  -24.2450  -11.4929   18.2020 C   0  0  0  0  0  0  0  0  0  0  0  0
  -25.8628  -31.9403   22.3124 C   0  0  0  0  0  0  0  0  0  0  0  0
  -22.7911  -30.9360   22.5921 C   0  0  0  0  0  0  0  0  0  0  0  0
  -20.4978  -28.4564   22.1030 C   0  0  0  0  0  0  0  0  0  0  0  0
  -29.3390  -16.6785   21.1408 C   0  0  0  0  0  0  0  0  0  0  0  0
  -26.8386  -36.6827   23.9297 C   0  0  0  0  0  0  0  0  0  0  0  0
  -25.3796  -31.1407   19.9708 C   0  0  0  0  0  0  0  0  0  0  0  0
  -24.5036  -29.1793   22.0032 C   0  0  0  0  0  0  0  0  0  0  0  0
  -25.8846  -35.5638   24.3401 C   0  0  0  0  0  0  0  0  0  0  0  0
  -26.8730  -15.7319   23.6829 C   0  0  0  0  0  0  0  0  0  0  0  0
  -26.6368  -34.2437   24.4752 C   0  0  0  0  0  0  0  0  0  0  0  0
  -26.2227  -14.5206   23.0230 C   0  0  0  0  0  0  0  0  0  0  0  0
  -32.3733  -17.7864   22.0600 C   0  0  0  0  0  0  0  0  0  0  0  0
  -28.3600  -15.8494   23.3460 C   0  0  0  0  0  0  0  0  0  0  0  0
  -31.3058  -17.0054   22.8326 C   0  0  0  0  0  0  0  0  0  0  0  0
  -27.9864  -14.6142   21.2274 C   0  0  0  0  0  0  0  0  0  0  0  0
  -27.2612  -33.8252   23.1386 C   0  0  1  0  0  0  0  0  0  0  0  0
  -24.8009  -31.5787   21.3127 C   0  0  1  0  0  0  0  0  0  0  0  0
  -26.4796  -14.5307   21.5088 C   0  0  1  0  0  0  0  0  0  0  0  0
  -31.2528  -18.3714   21.1868 C   0  0  2  0  0  0  0  0  0  0  0  0
  -18.0749  -27.9141   22.4678 C   0  0  0  0  0  0  0  0  0  0  0  0
  -23.3426  -30.4779   25.5579 C   0  0  0  0  0  0  0  0  0  0  0  0
  -21.2664  -29.0824   25.6571 C   0  0  0  0  0  0  0  0  0  0  0  0
  -21.1154  -31.4988   25.0565 C   0  0  0  0  0  0  0  0  0  0  0  0
  -20.0156  -28.1245   19.2020 C   0  0  0  0  0  0  0  0  0  0  0  0
  -27.0817  -25.0179   21.0264 C   0  0  0  0  0  0  0  0  0  1  0  0
  -30.7460  -19.7578   21.5322 C   0  0  0  0  0  0  0  0  0  0  0  0
  -22.0847  -29.8652   23.3881 C   0  0  1  0  0  0  0  0  0  0  0  0
  -19.1045  -28.4775   21.5007 C   0  0  2  0  0  0  0  0  0  0  0  0
  -21.9731  -30.2247   24.8966 C   0  0  0  0  0  0  0  0  0  0  0  0
  -28.7420  -23.4360   21.8204 N   0  0  0  0  0  0  0  0  0  0  0  0
  -28.0723  -21.6338   19.7787 N   0  0  0  0  0  0  0  0  0  0  0  0
  -25.7391  -12.1781   21.4901 N   0  0  0  0  0  0  0  0  0  0  0  0
  -25.8401  -13.3389   20.8204 N   0  0  0  0  0  0  0  0  0  0  0  0
  -23.9653  -30.5477   21.9315 N   0  0  0  0  0  0  0  0  0  0  0  0
  -28.6030  -15.7632   21.9011 N   0  0  0  0  0  0  0  0  0  0  0  0
  -30.3911  -17.3281   21.7472 N   0  0  0  0  0  0  0  0  0  0  0  0
  -25.3526  -14.3704   18.7446 N   0  0  0  0  0  0  0  0  0  0  0  0
  -23.8263  -10.1554   18.1973 N   0  0  0  0  0  0  0  0  0  0  0  0
  -29.7166  -20.1475   20.6226 N   0  0  0  0  0  0  0  0  0  0  0  0
  -26.2538  -33.2648   22.2636 N   0  0  0  0  0  0  0  0  0  0  0  0
  -20.8014  -29.6467   22.7294 N   0  0  0  0  0  0  0  0  0  0  0  0
  -19.0683  -27.6667   20.2508 N   0  3  0  0  0  0  0  0  0  0  0  0
  -24.0804  -12.1913   17.1730 O   0  0  0  0  0  0  0  0  0  0  0  0
  -26.2943  -31.0816   23.0727 O   0  0  0  0  0  0  0  0  0  0  0  0
  -22.3147  -32.0731   22.5520 O   0  0  0  0  0  0  0  0  0  0  0  0
  -21.2408  -27.4803   22.0289 O   0  0  0  0  0  0  0  0  0  0  0  0
  -29.0867  -16.8892   19.9471 O   0  0  0  0  0  0  0  0  0  0  0  0
  -24.0205   -6.0658   21.9753 O   0  0  0  0  0  0  0  0  0  0  0  0
  -27.5553  -25.9006   20.0155 O   0  0  0  0  0  0  0  0  0  1  0  0
  -19.0383   -4.0919   20.6768 F   0  0  0  0  0  0  0  0  0  0  0  0
  -22.3100   -5.1314   23.9358 F   0  0  0  0  0  0  0  0  0  0  0  0
  1  2  1  0  0  0  0
  1  5  2  0  0  0  0
  2  6  2  0  0  0  0
  3  8  2  0  0  0  0
  3 17  1  0  0  0  0
  4  9  1  0  0  0  0
  4 17  2  0  0  0  0
  5 19  1  0  0  0  0
  6 21  1  0  0  0  0
  7 10  2  0  0  0  0
  7 20  1  0  0  0  0
  8 23  1  0  0  0  0
  9 23  2  0  0  0  0
 10 24  1  0  0  0  0
 11 12  2  0  0  0  0
 11 25  1  0  0  0  0
 12 26  1  0  0  0  0
 13 22  1  0  0  0  0
 13 24  2  0  0  0  0
 14 26  2  0  0  0  0
 14 27  1  0  0  0  0
 15 29  1  0  0  0  0
 15 63  2  0  0  0  0
 16 30  2  0  0  0  0
 16 62  1  0  0  0  0
 17 28  1  0  0  0  0
 18 28  1  0  0  0  0
 18 31  2  0  0  0  0
 18 32  1  0  0  0  0
 19 21  2  0  0  0  0
 19 37  1  0  0  0  0
 20 22  2  0  0  0  0
 20 38  1  0  0  0  0
 21 48  1  0  0  0  0
 22 39  1  0  0  0  0
 23 80  1  0  0  0  0
 24 81  1  0  0  0  0
 25 27  2  0  0  0  0
 25 80  1  0  0  0  0
 26 82  1  0  0  0  0
 27 83  1  0  0  0  0
 28 64  2  0  0  0  0
 29 57  1  0  0  0  0
 29 62  2  0  0  0  0
 30 63  1  0  0  0  0
 30 71  1  0  0  0  0
 31 65  1  0  0  0  0
 31 69  1  0  0  0  0
 32 70  1  0  0  0  0
 32 75  2  0  0  0  0
 33 49  1  0  0  0  0
 33 72  1  0  0  0  0
 33 76  2  0  0  0  0
 34 59  1  0  0  0  0
 34 66  1  0  0  0  0
 34 77  2  0  0  0  0
 35 60  1  0  0  0  0
 35 73  1  0  0  0  0
 35 78  2  0  0  0  0
 36 67  1  0  0  0  0
 36 68  1  0  0  0  0
 36 79  2  0  0  0  0
 37 40  1  0  0  0  0
 38 49  1  0  0  0  0
 39 66  1  0  0  0  0
 40 42  1  0  0  0  0
 41 43  1  0  0  0  0
 41 45  1  0  0  0  0
 42 48  1  0  0  0  0
 43 50  1  0  0  0  0
 44 46  1  0  0  0  0
 44 51  1  0  0  0  0
 45 67  1  0  0  0  0
 46 68  1  0  0  0  0
 47 50  1  0  0  0  0
 47 67  1  0  0  0  0
 48 72  1  0  0  0  0
 49 66  1  0  0  0  0
 50 65  1  0  0  0  0
 51 58  1  0  0  0  0
 51 68  1  0  0  0  0
 52 60  1  0  0  0  0
 53 61  1  0  0  0  0
 54 61  1  0  0  0  0
 55 61  1  0  0  0  0
 56 74  1  0  0  0  0
 57 81  1  0  0  0  0
 58 71  1  0  0  0  0
 59 61  1  0  0  0  0
 59 73  1  0  0  0  0
 60 74  1  0  0  0  0
 64 65  1  0  0  0  0
M  CHG  1  74   1
M  ISO  4  36 100  57 101  68 100  81 101
M  END
> <Batch ID>
0190

> <Smiles>
CNC(C)C(=O)NC(C(=O)N1Cc2cc([101O:1][101CH2:1]c3cnc(NCC4CC[100N:0]4[100C:0](=O)N4CCCC(n5nc(-c6ccc(Oc7ccc(F)cc7F)cc6)c(C(N)=O)c5N)C4)cn3)ccc2CC1C(=O)NC1CCCc2ccccc21)C(C)(C)C

> <Shape>
0.284

> <Color>
0.077

> <Negative vol penalty>
0.000

$$$$

  -OEChem-04052323243D

 84 93  0     1  0  0  0  0  0999 V2000
  -19.9110  -33.9513   23.0051 C   0  0  0  0  0  0  0  0  0  0  0  0
  -21.1873  -33.5873   22.5877 C   0  0  0  0  0  0  0  0  0  0  0  0
  -25.9461  -13.1825   22.0763 C   0  0  0  0  0  0  0  0  0  0  0  0
  -26.3726  -13.6929   19.7536 C   0  0  0  0  0  0  0  0  0  0  0  0
  -19.1130  -33.0327   23.6856 C   0  0  0  0  0  0  0  0  0  0  0  0
  -21.6666  -32.3048   22.8517 C   0  0  0  0  0  0  0  0  0  0  0  0
  -25.3621  -28.9524   19.3005 C   0  0  0  0  0  0  0  0  0  0  0  0
  -24.7794  -12.5092   21.7141 C   0  0  0  0  0  0  0  0  0  0  0  0
  -25.2059  -13.0196   19.3915 C   0  0  0  0  0  0  0  0  0  0  0  0
  -26.7374  -28.7252   19.3286 C   0  0  0  0  0  0  0  0  0  0  0  0
  -23.9385   -9.4958   20.4315 C   0  0  0  0  0  0  0  0  0  0  0  0
  -23.6964   -8.2552   21.0213 C   0  0  0  0  0  0  0  0  0  0  0  0
  -26.3690  -26.6838   20.5599 C   0  0  0  0  0  0  0  0  0  0  0  0
  -21.6365   -9.1023   21.9575 C   0  0  0  0  0  0  0  0  0  0  0  0
  -30.0917  -20.7520   17.5475 C   0  0  0  0  0  0  0  0  0  0  0  0
  -26.7427  -13.7744   21.0960 C   0  0  0  0  0  0  0  0  0  0  0  0
  -29.2412  -13.9277   21.5875 C   0  0  0  0  0  0  0  0  0  0  0  0
  -19.5791  -31.7352   23.9496 C   0  0  0  0  0  0  0  0  0  0  0  0
  -24.4792  -28.0511   19.9125 C   0  0  0  0  0  0  0  0  0  0  0  0
  -20.8745  -31.3684   23.5376 C   0  0  0  0  0  0  0  0  0  0  0  0
  -24.9828  -26.9005   20.5361 C   0  0  0  0  0  0  0  0  0  0  0  0
  -24.4093  -12.4278   20.3717 C   0  0  0  0  0  0  0  0  0  0  0  0
  -27.2412  -27.5923   19.9608 C   0  0  0  0  0  0  0  0  0  0  0  0
  -23.0297  -10.5398   20.6048 C   0  0  0  0  0  0  0  0  0  0  0  0
  -22.5454   -8.0584   21.7842 C   0  0  0  0  0  0  0  0  0  0  0  0
  -21.8787  -10.3430   21.3678 C   0  0  0  0  0  0  0  0  0  0  0  0
  -27.9476  -14.4706   21.4695 C   0  0  0  0  0  0  0  0  0  0  0  0
  -30.9003  -22.7110   16.6884 C   0  0  0  0  0  0  0  0  0  0  0  0
  -30.8795  -23.2714   17.9465 C   0  0  0  0  0  0  0  0  0  0  0  0
  -30.0715  -21.3121   18.8058 C   0  0  0  0  0  0  0  0  0  0  0  0
  -30.0262  -14.9899   21.9642 C   0  0  0  0  0  0  0  0  0  0  0  0
  -29.6927  -12.5836   21.3755 C   0  0  0  0  0  0  0  0  0  0  0  0
  -22.3824  -28.2325   22.2946 C   0  0  0  0  0  0  0  0  0  0  0  0
  -21.6523  -25.2120   21.3639 C   0  0  0  0  0  0  0  0  0  0  0  0
  -22.6409  -22.3424   19.8036 C   0  0  0  0  0  0  0  0  0  0  0  0
  -29.5255  -20.8989   21.2301 C   0  0  0  0  0  0  0  0  0  0  0  0
  -18.6980  -30.7921   24.7300 C   0  0  0  0  0  0  0  0  0  0  0  0
  -22.9965  -28.2967   19.8503 C   0  0  0  0  0  0  0  0  0  0  0  0
  -24.0758  -25.8916   21.1903 C   0  0  0  0  0  0  0  0  0  0  0  0
  -19.1380  -29.3331   24.6407 C   0  0  0  0  0  0  0  0  0  0  0  0
  -29.8135  -19.1538   24.3203 C   0  0  0  0  0  0  0  0  0  0  0  0
  -20.6426  -29.2146   24.8618 C   0  0  0  0  0  0  0  0  0  0  0  0
  -30.3829  -24.3826   14.7879 C   0  0  0  0  0  0  0  0  0  0  0  0
  -30.8656  -23.1239   14.1376 C   0  0  0  0  0  0  0  0  0  0  0  0
  -29.4914  -17.7044   23.9495 C   0  0  0  0  0  0  0  0  0  0  0  0
  -28.9608  -20.1444   23.5295 C   0  0  0  0  0  0  0  0  0  0  0  0
  -28.6729  -18.5184   21.7013 C   0  0  0  0  0  0  0  0  0  0  0  0
  -21.4205  -29.9786   23.7835 C   0  0  1  0  0  0  0  0  0  0  0  0
  -31.3648  -23.4969   15.5086 C   0  0  0  0  0  0  0  0  0  0  0  0
  -22.2249  -27.5768   20.9519 C   0  0  1  0  0  0  0  0  0  0  0  0
  -29.5524  -17.4858   22.4250 C   0  0  2  0  0  0  0  0  0  0  0  0
  -21.8401  -20.0331   19.2347 C   0  0  0  0  0  0  0  0  0  0  0  0
  -22.1032  -24.3461   24.2547 C   0  0  0  0  0  0  0  0  0  0  0  0
  -22.2301  -21.9779   23.4522 C   0  0  0  0  0  0  0  0  0  0  0  0
  -20.1288  -23.2864   23.1441 C   0  0  0  0  0  0  0  0  0  0  0  0
  -22.8971  -22.8437   16.8981 C   0  0  0  0  0  0  0  0  0  0  0  0
  -31.3192  -24.6861   18.1837 C   0  0  0  0  0  0  0  0  0  0  0  0
  -30.5889  -27.0157   18.7114 C   0  0  0  0  0  0  0  0  0  0  0  0
  -29.3492  -27.8687   18.8950 C   0  0  0  0  0  0  0  0  0  1  0  0
  -22.1485  -23.8327   21.7248 C   0  0  1  0  0  0  0  0  0  0  0  0
  -21.9564  -21.4743   18.7632 C   0  0  2  0  0  0  0  0  0  0  0  0
  -21.6701  -23.3806   23.1334 C   0  0  0  0  0  0  0  0  0  0  0  0
  -30.5065  -21.4414   16.4662 N   0  0  0  0  0  0  0  0  0  0  0  0
  -27.9089  -15.7761   21.7488 N   0  0  0  0  0  0  0  0  0  0  0  0
  -30.4650  -22.5819   19.0279 N   0  0  0  0  0  0  0  0  0  0  0  0
  -29.1878  -16.0626   22.0461 N   0  0  0  0  0  0  0  0  0  0  0  0
  -22.6343  -26.1796   21.1083 N   0  0  0  0  0  0  0  0  0  0  0  0
  -29.0715  -19.8793   22.0934 N   0  0  0  0  0  0  0  0  0  0  0  0
  -31.3450  -15.1017   22.2302 N   0  0  0  0  0  0  0  0  0  0  0  0
  -28.7541  -11.6162   20.9914 N   0  0  0  0  0  0  0  0  0  0  0  0
  -29.6210  -20.5207   19.8913 N   0  0  0  0  0  0  0  0  0  0  0  0
  -21.4516  -29.2212   22.5507 N   0  0  0  0  0  0  0  0  0  0  0  0
  -21.7296  -22.9515   20.6401 N   0  0  0  0  0  0  0  0  0  0  0  0
  -22.7263  -21.4907   17.4873 N   0  3  0  0  0  0  0  0  0  0  0  0
  -30.1831  -25.6188   18.4143 N   0  3  0  0  0  0  0  0  0  0  0  0
  -30.8900  -12.2467   21.5383 O   0  0  0  0  0  0  0  0  0  0  0  0
  -23.2810  -27.8673   23.0436 O   0  0  0  0  0  0  0  0  0  0  0  0
  -20.4381  -25.4214   21.3037 O   0  0  0  0  0  0  0  0  0  0  0  0
  -23.8620  -22.4646   19.8701 O   0  0  0  0  0  0  0  0  0  0  0  0
  -29.8346  -22.0163   21.6517 O   0  0  0  0  0  0  0  0  0  0  0  0
  -23.2711  -11.7706   20.0180 O   0  0  0  0  0  0  0  0  0  0  0  0
  -28.5832  -27.3685   19.9902 O   0  0  0  0  0  0  0  0  0  1  0  0
  -22.3123   -6.8666   22.3493 F   0  0  0  0  0  0  0  0  0  0  0  0
  -21.0013  -11.3417   21.5368 F   0  0  0  0  0  0  0  0  0  0  0  0
  1  2  1  0  0  0  0
  1  5  2  0  0  0  0
  2  6  2  0  0  0  0
  3  8  2  0  0  0  0
  3 16  1  0  0  0  0
  4  9  1  0  0  0  0
  4 16  2  0  0  0  0
  5 18  1  0  0  0  0
  6 20  1  0  0  0  0
  7 10  2  0  0  0  0
  7 19  1  0  0  0  0
  8 22  1  0  0  0  0
  9 22  2  0  0  0  0
 10 23  1  0  0  0  0
 11 12  2  0  0  0  0
 11 24  1  0  0  0  0
 12 25  1  0  0  0  0
 13 21  1  0  0  0  0
 13 23  2  0  0  0  0
 14 25  2  0  0  0  0
 14 26  1  0  0  0  0
 15 30  1  0  0  0  0
 15 63  2  0  0  0  0
 16 27  1  0  0  0  0
 17 27  1  0  0  0  0
 17 31  2  0  0  0  0
 17 32  1  0  0  0  0
 18 20  2  0  0  0  0
 18 37  1  0  0  0  0
 19 21  2  0  0  0  0
 19 38  1  0  0  0  0
 20 48  1  0  0  0  0
 21 39  1  0  0  0  0
 22 81  1  0  0  0  0
 23 82  1  0  0  0  0
 24 26  2  0  0  0  0
 24 81  1  0  0  0  0
 25 83  1  0  0  0  0
 26 84  1  0  0  0  0
 27 64  2  0  0  0  0
 28 29  2  0  0  0  0
 28 49  1  0  0  0  0
 28 63  1  0  0  0  0
 29 57  1  0  0  0  0
 29 65  1  0  0  0  0
 30 65  2  0  0  0  0
 30 71  1  0  0  0  0
 31 66  1  0  0  0  0
 31 69  1  0  0  0  0
 32 70  1  0  0  0  0
 32 76  2  0  0  0  0
 33 50  1  0  0  0  0
 33 72  1  0  0  0  0
 33 77  2  0  0  0  0
 34 60  1  0  0  0  0
 34 67  1  0  0  0  0
 34 78  2  0  0  0  0
 35 61  1  0  0  0  0
 35 73  1  0  0  0  0
 35 79  2  0  0  0  0
 36 68  1  0  0  0  0
 36 71  1  0  0  0  0
 36 80  2  0  0  0  0
 37 40  1  0  0  0  0
 38 50  1  0  0  0  0
 39 67  1  0  0  0  0
 40 42  1  0  0  0  0
 41 45  1  0  0  0  0
 41 46  1  0  0  0  0
 42 48  1  0  0  0  0
 43 44  1  0  0  0  0
 43 49  1  0  0  0  0
 44 49  1  0  0  0  0
 45 51  1  0  0  0  0
 46 68  1  0  0  0  0
 47 51  1  0  0  0  0
 47 68  1  0  0  0  0
 48 72  1  0  0  0  0
 50 67  1  0  0  0  0
 51 66  1  0  0  0  0
 52 61  1  0  0  0  0
 53 62  1  0  0  0  0
 54 62  1  0  0  0  0
 55 62  1  0  0  0  0
 56 74  1  0  0  0  0
 57 75  1  0  0  0  0
 58 59  1  0  0  0  0
 58 75  1  0  0  0  0
 59 82  1  0  0  0  0
 60 62  1  0  0  0  0
 60 73  1  0  0  0  0
 61 74  1  0  0  0  0
 64 66  1  0  0  0  0
M  CHG  2  74   1  75   1
M  ISO  4  36 100  59 101  71 100  82 101
M  END
> <Batch ID>
0190

> <Smiles>
CNC(C)C(=O)NC(C(=O)N1Cc2cc([101O:1][101CH2:1]CNCc3nc([100NH:0][100C:0](=O)N4CCCC(n5nc(-c6ccc(Oc7ccc(F)cc7F)cc6)c(C(N)=O)c5N)C4)cnc3C3CC3)ccc2CC1C(=O)NC1CCCc2ccccc21)C(C)(C)C

> <Shape>
0.241

> <Color>
0.083

> <Negative vol penalty>
0.000

$$$$

  -OEChem-04052323243D

 85 95  0     1  0  0  0  0  0999 V2000
  -30.6238  -24.6025   23.7188 C   0  0  0  0  0  0  0  0  0  0  0  0
  -30.3859  -23.3070   23.2711 C   0  0  0  0  0  0  0  0  0  0  0  0
  -27.7464  -26.1562   17.8035 C   0  0  0  0  0  0  0  0  0  0  0  0
  -27.2408  -25.7226   20.1258 C   0  0  0  0  0  0  0  0  0  0  0  0
  -29.6198  -25.3039   24.3851 C   0  0  0  0  0  0  0  0  0  0  0  0
  -29.1442  -22.7116   23.4904 C   0  0  0  0  0  0  0  0  0  0  0  0
  -24.5613  -18.0911   20.4965 C   0  0  0  0  0  0  0  0  0  0  0  0
  -26.7382  -27.1193   17.7637 C   0  0  0  0  0  0  0  0  0  0  0  0
  -26.2326  -26.6857   20.0861 C   0  0  0  0  0  0  0  0  0  0  0  0
  -23.8458  -16.9338   20.8006 C   0  0  0  0  0  0  0  0  0  0  0  0
  -26.0030  -30.0553   20.2017 C   0  0  0  0  0  0  0  0  0  0  0  0
  -25.9289  -30.9579   21.2625 C   0  0  0  0  0  0  0  0  0  0  0  0
  -22.1605  -18.2699   21.8932 C   0  0  0  0  0  0  0  0  0  0  0  0
  -23.6929  -30.1896   21.7599 C   0  0  0  0  0  0  0  0  0  0  0  0
  -26.5690  -11.7918   20.4381 C   0  0  0  0  0  0  0  0  0  0  0  0
  -27.9977  -25.4579   18.9845 C   0  0  0  0  0  0  0  0  0  0  0  0
  -30.3922  -24.6614   19.3580 C   0  0  0  0  0  0  0  0  0  0  0  0
  -28.3620  -24.7204   24.6043 C   0  0  0  0  0  0  0  0  0  0  0  0
  -24.0864  -19.3478   20.8986 C   0  0  0  0  0  0  0  0  0  0  0  0
  -28.1229  -23.4054   24.1615 C   0  0  0  0  0  0  0  0  0  0  0  0
  -22.8705  -19.4419   21.5906 C   0  0  0  0  0  0  0  0  0  0  0  0
  -25.9813  -27.3840   18.9051 C   0  0  0  0  0  0  0  0  0  0  0  0
  -22.6468  -17.0228   21.5016 C   0  0  0  0  0  0  0  0  0  0  0  0
  -24.9221  -29.2200   19.9198 C   0  0  0  0  0  0  0  0  0  0  0  0
  -24.7739  -31.0250   22.0417 C   0  0  0  0  0  0  0  0  0  0  0  0
  -23.7671  -29.2871   20.6990 C   0  0  0  0  0  0  0  0  0  0  0  0
  -29.0387  -24.4625   19.0260 C   0  0  0  0  0  0  0  0  0  0  0  0
  -25.3484  -11.1601   20.3140 C   0  0  0  0  0  0  0  0  0  0  0  0
  -26.5169  -13.1506   20.6731 C   0  0  0  0  0  0  0  0  0  0  0  0
  -30.9591  -23.4150   19.2496 C   0  0  0  0  0  0  0  0  0  0  0  0
  -24.2442  -13.1199   20.6409 C   0  0  0  0  0  0  0  0  0  0  0  0
  -31.0760  -25.8651   19.7312 C   0  0  0  0  0  0  0  0  0  0  0  0
  -25.1682  -21.6496   22.8051 C   0  0  0  0  0  0  0  0  0  0  0  0
  -22.5791  -23.2542   21.6896 C   0  0  0  0  0  0  0  0  0  0  0  0
  -19.4597  -23.1201   20.3119 C   0  0  0  0  0  0  0  0  0  0  0  0
  -29.6066  -17.9843   20.3784 C   0  0  0  0  0  0  0  0  0  0  0  0
  -27.3235  -25.5004   25.3710 C   0  0  0  0  0  0  0  0  0  0  0  0
  -24.8564  -20.5889   20.5394 C   0  0  0  0  0  0  0  0  0  0  0  0
  -22.3072  -20.7688   22.0272 C   0  0  0  0  0  0  0  0  0  0  0  0
  -25.9123  -24.9352   25.2327 C   0  0  0  0  0  0  0  0  0  0  0  0
  -29.7961  -19.2293   16.9364 C   0  0  0  0  0  0  0  0  0  0  0  0
  -25.9218  -23.4222   25.4266 C   0  0  0  0  0  0  0  0  0  0  0  0
  -29.6891  -20.7337   17.1633 C   0  0  0  0  0  0  0  0  0  0  0  0
  -21.9278  -13.3895   21.7534 C   0  0  0  0  0  0  0  0  0  0  0  0
  -28.9732  -18.4288   17.9467 C   0  0  0  0  0  0  0  0  0  0  0  0
  -29.1656  -20.2808   19.5850 C   0  0  0  0  0  0  0  0  0  0  0  0
  -29.2937  -15.6481   21.3633 C   0  0  0  0  0  0  0  0  0  0  0  0
  -27.9580  -16.0462   19.7557 C   0  0  0  0  0  0  0  0  0  0  0  0
  -26.7808  -22.7345   24.3586 C   0  0  1  0  0  0  0  0  0  0  0  0
  -22.9523  -13.8579   20.7538 C   0  0  1  0  0  0  0  0  0  0  0  0
  -24.5380  -21.7733   21.4467 C   0  0  1  0  0  0  0  0  0  0  0  0
  -30.0431  -21.0853   18.6159 C   0  0  2  0  0  0  0  0  0  0  0  0
  -27.8556  -15.2227   21.0467 C   0  0  0  0  0  0  0  0  0  0  0  0
  -22.6778  -14.6628   21.9995 C   0  0  1  0  0  0  0  0  0  1  0  0
  -25.3033   -9.6910   20.0586 C   0  0  0  0  0  0  0  0  0  0  0  0
  -17.5780  -24.5949   19.5492 C   0  0  0  0  0  0  0  0  0  0  0  0
  -21.7815  -23.7351   24.5952 C   0  0  0  0  0  0  0  0  0  0  0  0
  -19.4897  -24.3445   23.7924 C   0  0  0  0  0  0  0  0  0  0  0  0
  -21.4591  -25.7027   23.0856 C   0  0  0  0  0  0  0  0  0  0  0  0
  -19.6579  -22.1307   17.5297 C   0  0  0  0  0  0  0  0  0  0  0  0
  -21.1381  -23.3887   22.1189 C   0  0  1  0  0  0  0  0  0  0  0  0
  -18.8444  -23.8601   19.1379 C   0  0  2  0  0  0  0  0  0  0  0  0
  -20.9784  -24.2675   23.3916 C   0  0  0  0  0  0  0  0  0  0  0  0
  -28.7623  -23.1900   18.7287 N   0  0  0  0  0  0  0  0  0  0  0  0
  -24.1622  -11.7957   20.4102 N   0  0  0  0  0  0  0  0  0  0  0  0
  -25.3677  -13.8493   20.7805 N   0  0  0  0  0  0  0  0  0  0  0  0
  -29.9500  -22.5780   18.8735 N   0  0  0  0  0  0  0  0  0  0  0  0
  -23.1001  -21.9529   21.6578 N   0  0  0  0  0  0  0  0  0  0  0  0
  -29.2531  -18.8384   19.3282 N   0  0  0  0  0  0  0  0  0  0  0  0
  -29.1007  -16.7051   20.3733 N   0  0  0  0  0  0  0  0  0  0  0  0
  -32.2172  -22.9643   19.4401 N   0  0  0  0  0  0  0  0  0  0  0  0
  -30.3430  -27.0580   19.7936 N   0  0  0  0  0  0  0  0  0  0  0  0
  -27.7334  -13.8287   20.8052 N   0  0  0  0  0  0  0  0  0  0  0  0
  -26.0631  -22.6592   23.1042 N   0  0  0  0  0  0  0  0  0  0  0  0
  -20.4101  -23.8840   20.9557 N   0  0  0  0  0  0  0  0  0  0  0  0
  -18.5003  -22.9052   18.0466 N   0  3  0  0  0  0  0  0  0  0  0  0
  -32.3042  -25.8852   19.9854 O   0  0  0  0  0  0  0  0  0  0  0  0
  -24.8639  -20.7088   23.5290 O   0  0  0  0  0  0  0  0  0  0  0  0
  -23.2167  -24.2658   21.3866 O   0  0  0  0  0  0  0  0  0  0  0  0
  -19.1276  -21.9800   20.6287 O   0  0  0  0  0  0  0  0  0  0  0  0
  -30.3280  -18.3602   21.3118 O   0  0  0  0  0  0  0  0  0  0  0  0
  -24.9975  -28.3239   18.8667 O   0  0  0  0  0  0  0  0  0  0  0  0
  -21.9367  -15.8784   21.8047 O   0  0  0  0  0  0  0  0  0  1  0  0
  -24.7034  -31.8907   23.0614 F   0  0  0  0  0  0  0  0  0  0  0  0
  -22.7258  -28.4863   20.4338 F   0  0  0  0  0  0  0  0  0  0  0  0
  1  2  1  0  0  0  0
  1  5  2  0  0  0  0
  2  6  2  0  0  0  0
  3  8  2  0  0  0  0
  3 16  1  0  0  0  0
  4  9  1  0  0  0  0
  4 16  2  0  0  0  0
  5 18  1  0  0  0  0
  6 20  1  0  0  0  0
  7 10  2  0  0  0  0
  7 19  1  0  0  0  0
  8 22  1  0  0  0  0
  9 22  2  0  0  0  0
 10 23  1  0  0  0  0
 11 12  2  0  0  0  0
 11 24  1  0  0  0  0
 12 25  1  0  0  0  0
 13 21  1  0  0  0  0
 13 23  2  0  0  0  0
 14 25  2  0  0  0  0
 14 26  1  0  0  0  0
 15 28  1  0  0  0  0
 15 29  2  0  0  0  0
 16 27  1  0  0  0  0
 17 27  1  0  0  0  0
 17 30  2  0  0  0  0
 17 32  1  0  0  0  0
 18 20  2  0  0  0  0
 18 37  1  0  0  0  0
 19 21  2  0  0  0  0
 19 38  1  0  0  0  0
 20 49  1  0  0  0  0
 21 39  1  0  0  0  0
 22 82  1  0  0  0  0
 23 83  1  0  0  0  0
 24 26  2  0  0  0  0
 24 82  1  0  0  0  0
 25 84  1  0  0  0  0
 26 85  1  0  0  0  0
 27 64  2  0  0  0  0
 28 55  1  0  0  0  0
 28 65  2  0  0  0  0
 29 66  1  0  0  0  0
 29 73  1  0  0  0  0
 30 67  1  0  0  0  0
 30 71  1  0  0  0  0
 31 50  1  0  0  0  0
 31 65  1  0  0  0  0
 31 66  2  0  0  0  0
 32 72  1  0  0  0  0
 32 77  2  0  0  0  0
 33 51  1  0  0  0  0
 33 74  1  0  0  0  0
 33 78  2  0  0  0  0
 34 61  1  0  0  0  0
 34 68  1  0  0  0  0
 34 79  2  0  0  0  0
 35 62  1  0  0  0  0
 35 75  1  0  0  0  0
 35 80  2  0  0  0  0
 36 69  1  0  0  0  0
 36 70  1  0  0  0  0
 36 81  2  0  0  0  0
 37 40  1  0  0  0  0
 38 51  1  0  0  0  0
 39 68  1  0  0  0  0
 40 42  1  0  0  0  0
 41 43  1  0  0  0  0
 41 45  1  0  0  0  0
 42 49  1  0  0  0  0
 43 52  1  0  0  0  0
 44 50  1  0  0  0  0
 44 54  1  0  0  0  0
 45 69  1  0  0  0  0
 46 52  1  0  0  0  0
 46 69  1  0  0  0  0
 47 53  1  0  0  0  0
 47 70  1  0  0  0  0
 48 53  1  0  0  0  0
 48 70  1  0  0  0  0
 49 74  1  0  0  0  0
 50 54  1  0  0  0  0
 51 68  1  0  0  0  0
 52 67  1  0  0  0  0
 53 73  1  0  0  0  0
 54 83  1  0  0  0  0
 56 62  1  0  0  0  0
 57 63  1  0  0  0  0
 58 63  1  0  0  0  0
 59 63  1  0  0  0  0
 60 76  1  0  0  0  0
 61 63  1  0  0  0  0
 61 75  1  0  0  0  0
 62 76  1  0  0  0  0
 64 67  1  0  0  0  0
M  CHG  1  76   1
M  ISO  4  36 100  54 101  70 100  83 101
M  END
> <Batch ID>
0190

> <Smiles>
CNC(C)C(=O)NC(C(=O)N1Cc2cc([101O:1][101CH:1]3CC3c3nc(C)cc(NC4C[100N:0]([100C:0](=O)N5CCCC(n6nc(-c7ccc(Oc8ccc(F)cc8F)cc7)c(C(N)=O)c6N)C5)C4)n3)ccc2CC1C(=O)NC1CCCc2ccccc21)C(C)(C)C

> <Shape>
0.213

> <Color>
0.060

> <Negative vol penalty>
0.000

$$$$

  -OEChem-04052323243D

 81 90  0     1  0  0  0  0  0999 V2000
  -23.2734  -37.3575   18.5396 C   0  0  0  0  0  0  0  0  0  0  0  0
  -23.2916  -36.1579   17.8352 C   0  0  0  0  0  0  0  0  0  0  0  0
  -22.9478  -10.9912   21.7235 C   0  0  0  0  0  0  0  0  0  0  0  0
  -24.7462   -9.4105   22.0464 C   0  0  0  0  0  0  0  0  0  0  0  0
  -24.0409  -37.4977   19.6950 C   0  0  0  0  0  0  0  0  0  0  0  0
  -24.0782  -35.0982   18.2854 C   0  0  0  0  0  0  0  0  0  0  0  0
  -24.1906  -27.9397   18.5304 C   0  0  0  0  0  0  0  0  0  0  0  0
  -22.0682   -9.9388   21.4700 C   0  0  0  0  0  0  0  0  0  0  0  0
  -23.8665   -8.3580   21.7929 C   0  0  0  0  0  0  0  0  0  0  0  0
  -25.0162  -26.8638   18.2071 C   0  0  0  0  0  0  0  0  0  0  0  0
  -21.4724   -6.6572   23.4650 C   0  0  0  0  0  0  0  0  0  0  0  0
  -21.5225   -5.5534   24.3163 C   0  0  0  0  0  0  0  0  0  0  0  0
  -26.2398  -27.1937   20.2597 C   0  0  0  0  0  0  0  0  0  0  0  0
  -22.0655   -4.1312   22.4402 C   0  0  0  0  0  0  0  0  0  0  0  0
  -30.0056  -24.0593   18.6529 C   0  0  0  0  0  0  0  0  0  0  0  0
  -24.2868  -10.7271   22.0117 C   0  0  0  0  0  0  0  0  0  0  0  0
  -25.4861  -12.3982   23.5205 C   0  0  0  0  0  0  0  0  0  0  0  0
  -24.8299  -36.4359   20.1650 C   0  0  0  0  0  0  0  0  0  0  0  0
  -24.3906  -28.6588   19.7176 C   0  0  0  0  0  0  0  0  0  0  0  0
  -24.8580  -35.2248   19.4475 C   0  0  0  0  0  0  0  0  0  0  0  0
  -25.4137  -28.2767   20.5970 C   0  0  0  0  0  0  0  0  0  0  0  0
  -22.5275   -8.6222   21.5047 C   0  0  0  0  0  0  0  0  0  0  0  0
  -26.0428  -26.4924   19.0704 C   0  0  0  0  0  0  0  0  0  0  0  0
  -21.7188   -6.4980   22.1013 C   0  0  0  0  0  0  0  0  0  0  0  0
  -21.8191   -4.2904   23.8039 C   0  0  0  0  0  0  0  0  0  0  0  0
  -22.0153   -5.2350   21.5889 C   0  0  0  0  0  0  0  0  0  0  0  0
  -25.1961  -11.8138   22.2731 C   0  0  0  0  0  0  0  0  0  0  0  0
  -28.7121  -24.0199   19.1920 C   0  0  0  0  0  0  0  0  0  0  0  0
  -26.4023  -13.3808   23.2347 C   0  0  0  0  0  0  0  0  0  0  0  0
  -24.9733  -12.0812   24.8214 C   0  0  0  0  0  0  0  0  0  0  0  0
  -25.1279  -31.6701   20.4191 C   0  0  0  0  0  0  0  0  0  0  0  0
  -24.6102  -30.6778   23.4637 C   0  0  0  0  0  0  0  0  0  0  0  0
  -24.4953  -28.0922   25.6882 C   0  0  0  0  0  0  0  0  0  0  0  0
  -28.0563  -17.6035   20.2569 C   0  0  0  0  0  0  0  0  0  0  0  0
  -25.6793  -36.6506   21.3926 C   0  0  0  0  0  0  0  0  0  0  0  0
  -23.4745  -29.8001   20.0646 C   0  0  0  0  0  0  0  0  0  0  0  0
  -25.6573  -29.0033   21.8936 C   0  0  0  0  0  0  0  0  0  0  0  0
  -26.1954  -35.3537   22.0106 C   0  0  0  0  0  0  0  0  0  0  0  0
  -29.0079  -14.3540   19.0311 C   0  0  0  0  0  0  0  0  0  0  0  0
  -26.7613  -34.4363   20.9312 C   0  0  0  0  0  0  0  0  0  0  0  0
  -28.0888  -13.4482   19.8457 C   0  0  0  0  0  0  0  0  0  0  0  0
  -28.1417  -20.1143   17.5749 C   0  0  0  0  0  0  0  0  0  0  0  0
  -28.3300  -15.6672   18.6346 C   0  0  0  0  0  0  0  0  0  0  0  0
  -28.0933  -18.6275   17.9062 C   0  0  0  0  0  0  0  0  0  0  0  0
  -26.8202  -15.4905   20.5935 C   0  0  0  0  0  0  0  0  0  0  0  0
  -29.0619  -19.8117   19.7588 C   0  0  0  0  0  0  0  0  0  0  0  0
  -25.6793  -34.0440   19.9178 C   0  0  1  0  0  0  0  0  0  0  0  0
  -24.0934  -30.7837   21.0530 C   0  0  1  0  0  0  0  0  0  0  0  0
  -27.5175  -14.2036   21.0562 C   0  0  1  0  0  0  0  0  0  0  0  0
  -29.2763  -20.6185   18.4757 C   0  0  2  0  0  0  0  0  0  0  0  0
  -24.0818  -27.5970   28.1133 C   0  0  0  0  0  0  0  0  0  0  0  0
  -27.3782  -31.7599   24.1542 C   0  0  0  0  0  0  0  0  0  0  0  0
  -27.2976  -30.4213   26.2684 C   0  0  0  0  0  0  0  0  0  0  0  0
  -25.6191  -32.2232   25.8703 C   0  0  0  0  0  0  0  0  0  0  0  0
  -22.1804  -26.3590   25.0591 C   0  0  0  0  0  0  0  0  0  0  0  0
  -27.8837  -25.1231   19.6963 C   0  0  0  0  0  0  0  0  0  1  0  0
  -25.4650  -30.0722   24.5507 C   0  0  1  0  0  0  0  0  0  0  0  0
  -23.4608  -27.7043   26.7292 C   0  0  2  0  0  0  0  0  0  0  0  0
  -26.4369  -31.1064   25.1856 C   0  0  0  0  0  0  0  0  0  0  0  0
  -30.3940  -22.8260   18.3165 N   0  0  0  0  0  0  0  0  0  0  0  0
  -25.8730  -12.3782   21.2694 N   0  0  0  0  0  0  0  0  0  0  0  0
  -28.2641  -22.7614   19.2029 N   0  0  0  0  0  0  0  0  0  0  0  0
  -26.5975  -13.3275   21.8859 N   0  0  0  0  0  0  0  0  0  0  0  0
  -29.3127  -22.1132   18.6710 N   0  0  0  0  0  0  0  0  0  0  0  0
  -24.7389  -30.1164   22.1853 N   0  0  0  0  0  0  0  0  0  0  0  0
  -27.7162  -16.3285   19.7915 N   0  0  0  0  0  0  0  0  0  0  0  0
  -28.4665  -18.5516   19.3203 N   0  0  0  0  0  0  0  0  0  0  0  0
  -27.0518  -14.2766   24.0080 N   0  0  0  0  0  0  0  0  0  0  0  0
  -24.0389  -11.0429   24.9364 N   0  0  0  0  0  0  0  0  0  0  0  0
  -24.8209  -33.0165   20.4672 N   0  0  0  0  0  0  0  0  0  0  0  0
  -24.5433  -29.4573   25.4998 N   0  0  0  0  0  0  0  0  0  0  0  0
  -22.8481  -26.3899   26.3858 N   0  3  0  0  0  0  0  0  0  0  0  0
  -25.3206  -12.7111   25.8490 O   0  0  0  0  0  0  0  0  0  0  0  0
  -26.1310  -31.1696   19.9242 O   0  0  0  0  0  0  0  0  0  0  0  0
  -23.8508  -31.6097   23.7402 O   0  0  0  0  0  0  0  0  0  0  0  0
  -25.1939  -27.2671   25.1035 O   0  0  0  0  0  0  0  0  0  0  0  0
  -27.9567  -17.8975   21.4558 O   0  0  0  0  0  0  0  0  0  0  0  0
  -21.6694   -7.5950   21.2576 O   0  0  0  0  0  0  0  0  0  0  0  0
  -26.8540  -25.4385   18.7555 O   0  0  0  0  0  0  0  0  0  1  0  0
  -21.8687   -3.2307   24.6217 F   0  0  0  0  0  0  0  0  0  0  0  0
  -22.2540   -5.0761   20.2799 F   0  0  0  0  0  0  0  0  0  0  0  0
  1  2  1  0  0  0  0
  1  5  2  0  0  0  0
  2  6  2  0  0  0  0
  3  8  2  0  0  0  0
  3 16  1  0  0  0  0
  4  9  1  0  0  0  0
  4 16  2  0  0  0  0
  5 18  1  0  0  0  0
  6 20  1  0  0  0  0
  7 10  2  0  0  0  0
  7 19  1  0  0  0  0
  8 22  1  0  0  0  0
  9 22  2  0  0  0  0
 10 23  1  0  0  0  0
 11 12  2  0  0  0  0
 11 24  1  0  0  0  0
 12 25  1  0  0  0  0
 13 21  1  0  0  0  0
 13 23  2  0  0  0  0
 14 25  2  0  0  0  0
 14 26  1  0  0  0  0
 15 28  1  0  0  0  0
 15 60  2  0  0  0  0
 16 27  1  0  0  0  0
 17 27  1  0  0  0  0
 17 29  2  0  0  0  0
 17 30  1  0  0  0  0
 18 20  2  0  0  0  0
 18 35  1  0  0  0  0
 19 21  2  0  0  0  0
 19 36  1  0  0  0  0
 20 47  1  0  0  0  0
 21 37  1  0  0  0  0
 22 78  1  0  0  0  0
 23 79  1  0  0  0  0
 24 26  2  0  0  0  0
 24 78  1  0  0  0  0
 25 80  1  0  0  0  0
 26 81  1  0  0  0  0
 27 61  2  0  0  0  0
 28 56  1  0  0  0  0
 28 62  2  0  0  0  0
 29 63  1  0  0  0  0
 29 68  1  0  0  0  0
 30 69  1  0  0  0  0
 30 73  2  0  0  0  0
 31 48  1  0  0  0  0
 31 70  1  0  0  0  0
 31 74  2  0  0  0  0
 32 57  1  0  0  0  0
 32 65  1  0  0  0  0
 32 75  2  0  0  0  0
 33 58  1  0  0  0  0
 33 71  1  0  0  0  0
 33 76  2  0  0  0  0
 34 66  1  0  0  0  0
 34 67  1  0  0  0  0
 34 77  2  0  0  0  0
 35 38  1  0  0  0  0
 36 48  1  0  0  0  0
 37 65  1  0  0  0  0
 38 40  1  0  0  0  0
 39 41  1  0  0  0  0
 39 43  1  0  0  0  0
 40 47  1  0  0  0  0
 41 49  1  0  0  0  0
 42 44  1  0  0  0  0
 42 50  1  0  0  0  0
 43 66  1  0  0  0  0
 44 67  1  0  0  0  0
 45 49  1  0  0  0  0
 45 66  1  0  0  0  0
 46 50  1  0  0  0  0
 46 67  1  0  0  0  0
 47 70  1  0  0  0  0
 48 65  1  0  0  0  0
 49 63  1  0  0  0  0
 50 64  1  0  0  0  0
 51 58  1  0  0  0  0
 52 59  1  0  0  0  0
 53 59  1  0  0  0  0
 54 59  1  0  0  0  0
 55 72  1  0  0  0  0
 56 79  1  0  0  0  0
 57 59  1  0  0  0  0
 57 71  1  0  0  0  0
 58 72  1  0  0  0  0
 60 64  1  0  0  0  0
 61 63  1  0  0  0  0
 62 64  1  0  0  0  0
M  CHG  1  72   1
M  ISO  4  34 100  56 101  67 100  79 101
M  END
> <Batch ID>
0190

> <Smiles>
CNC(C)C(=O)NC(C(=O)N1Cc2cc([101O:1][101CH2:1]c3cnn(C4CC[100N:0]([100C:0](=O)N5CCCC(n6nc(-c7ccc(Oc8ccc(F)cc8F)cc7)c(C(N)=O)c6N)C5)C4)n3)ccc2CC1C(=O)NC1CCCc2ccccc21)C(C)(C)C

> <Shape>
0.281

> <Color>
0.104

> <Negative vol penalty>
0.000

$$$$

  -OEChem-04052323243D

 85 94  0     1  0  0  0  0  0999 V2000
  -26.4814  -36.9229   17.2230 C   0  0  0  0  0  0  0  0  0  0  0  0
  -26.8989  -35.5992   17.1276 C   0  0  0  0  0  0  0  0  0  0  0  0
  -23.3120  -10.8900   21.9715 C   0  0  0  0  0  0  0  0  0  0  0  0
  -23.9595   -9.2681   20.3019 C   0  0  0  0  0  0  0  0  0  0  0  0
  -26.2026  -37.4763   18.4720 C   0  0  0  0  0  0  0  0  0  0  0  0
  -27.0389  -34.8286   18.2812 C   0  0  0  0  0  0  0  0  0  0  0  0
  -25.9322  -28.8331   18.8601 C   0  0  0  0  0  0  0  0  0  0  0  0
  -21.9696  -10.5834   21.7487 C   0  0  0  0  0  0  0  0  0  0  0  0
  -22.6171   -8.9615   20.0791 C   0  0  0  0  0  0  0  0  0  0  0  0
  -26.7700  -27.7188   18.8444 C   0  0  0  0  0  0  0  0  0  0  0  0
  -20.2023   -7.1267   21.5700 C   0  0  0  0  0  0  0  0  0  0  0  0
  -19.8532   -5.7793   21.4798 C   0  0  0  0  0  0  0  0  0  0  0  0
  -26.8491  -27.7519   21.2552 C   0  0  0  0  0  0  0  0  0  0  0  0
  -19.0286   -6.1429   19.2382 C   0  0  0  0  0  0  0  0  0  0  0  0
  -24.3070  -10.2324   21.2480 C   0  0  0  0  0  0  0  0  0  0  0  0
  -26.5625   -9.9418   22.4038 C   0  0  0  0  0  0  0  0  0  0  0  0
  -26.3299  -36.7092   19.6407 C   0  0  0  0  0  0  0  0  0  0  0  0
  -25.5547  -29.4227   20.0751 C   0  0  0  0  0  0  0  0  0  0  0  0
  -26.7628  -35.3727   19.5471 C   0  0  0  0  0  0  0  0  0  0  0  0
  -26.0043  -28.8720   21.2836 C   0  0  0  0  0  0  0  0  0  0  0  0
  -21.6222   -9.6192   20.8026 C   0  0  0  0  0  0  0  0  0  0  0  0
  -27.2309  -27.1798   20.0420 C   0  0  0  0  0  0  0  0  0  0  0  0
  -19.9645   -7.9823   20.4943 C   0  0  0  0  0  0  0  0  0  0  0  0
  -19.2664   -5.2874   20.3140 C   0  0  0  0  0  0  0  0  0  0  0  0
  -19.3777   -7.4904   19.3284 C   0  0  0  0  0  0  0  0  0  0  0  0
  -25.6938  -10.5491   21.4773 C   0  0  0  0  0  0  0  0  0  0  0  0
  -27.7585  -10.5949   22.2320 C   0  0  0  0  0  0  0  0  0  0  0  0
  -31.2493  -23.4428   19.4257 C   0  0  0  0  0  0  0  0  0  0  0  0
  -29.2574  -24.3514   18.9325 C   0  0  0  0  0  0  0  0  0  0  0  0
  -29.5115  -22.1217   18.9043 C   0  0  0  0  0  0  0  0  0  0  0  0
  -26.3108   -8.8822   23.3362 C   0  0  0  0  0  0  0  0  0  0  0  0
  -25.9679  -32.2797   21.4058 C   0  0  0  0  0  0  0  0  0  0  0  0
  -23.9953  -31.0733   23.6808 C   0  0  0  0  0  0  0  0  0  0  0  0
  -22.7146  -28.3224   25.2426 C   0  0  0  0  0  0  0  0  0  0  0  0
  -29.2143  -15.8903   20.4350 C   0  0  0  0  0  0  0  0  0  0  0  0
  -26.0626  -37.3650   20.9723 C   0  0  0  0  0  0  0  0  0  0  0  0
  -24.6288  -30.6081   20.0759 C   0  0  0  0  0  0  0  0  0  0  0  0
  -25.6118  -29.4555   22.6156 C   0  0  0  0  0  0  0  0  0  0  0  0
  -25.8754  -36.3700   22.1147 C   0  0  0  0  0  0  0  0  0  0  0  0
  -30.3275  -12.9161   18.9369 C   0  0  0  0  0  0  0  0  0  0  0  0
  -26.9645  -35.3027   22.0769 C   0  0  0  0  0  0  0  0  0  0  0  0
  -29.3421  -11.8992   19.5123 C   0  0  0  0  0  0  0  0  0  0  0  0
  -29.0662  -18.5075   18.0863 C   0  0  0  0  0  0  0  0  0  0  0  0
  -29.8813  -19.2891   20.3430 C   0  0  0  0  0  0  0  0  0  0  0  0
  -29.6417  -14.2324   18.5663 C   0  0  0  0  0  0  0  0  0  0  0  0
  -29.7693  -17.1664   18.3160 C   0  0  0  0  0  0  0  0  0  0  0  0
  -30.5892  -17.9481   20.5152 C   0  0  0  0  0  0  0  0  0  0  0  0
  -27.8739  -13.8160   20.2456 C   0  0  0  0  0  0  0  0  0  0  0  0
  -26.9026  -34.4972   20.7735 C   0  0  1  0  0  0  0  0  0  0  0  0
  -24.7235  -31.4394   21.3516 C   0  0  1  0  0  0  0  0  0  0  0  0
  -28.5442  -12.5038   20.6814 C   0  0  1  0  0  0  0  0  0  0  0  0
  -29.7479  -19.6394   18.8587 C   0  0  0  0  0  0  0  0  0  0  0  0
  -32.6796  -23.6009   19.8147 C   0  0  0  0  0  0  0  0  0  0  0  0
  -21.1533  -27.6544   27.0901 C   0  0  0  0  0  0  0  0  0  0  0  0
  -26.1137  -31.8314   25.7418 C   0  0  0  0  0  0  0  0  0  0  0  0
  -24.9629  -30.3239   27.3763 C   0  0  0  0  0  0  0  0  0  0  0  0
  -23.7597  -32.3004   26.4443 C   0  0  0  0  0  0  0  0  0  0  0  0
  -20.9374  -26.8715   23.3731 C   0  0  0  0  0  0  0  0  0  0  0  0
  -28.3960  -25.5548   18.7543 C   0  0  0  0  0  0  0  0  0  1  0  0
  -24.1886  -30.2980   24.9616 C   0  0  1  0  0  0  0  0  0  0  0  0
  -21.2903  -27.9404   25.6028 C   0  0  2  0  0  0  0  0  0  0  0  0
  -24.7654  -31.1784   26.1060 C   0  0  0  0  0  0  0  0  0  0  0  0
  -26.2874  -11.5138   20.7696 N   0  0  0  0  0  0  0  0  0  0  0  0
  -30.5347  -24.5708   19.2834 N   0  0  0  0  0  0  0  0  0  0  0  0
  -30.8064  -22.1868   19.2533 N   0  0  0  0  0  0  0  0  0  0  0  0
  -28.6769  -23.1584   18.7258 N   0  0  0  0  0  0  0  0  0  0  0  0
  -27.5419  -11.5178   21.2516 N   0  0  0  0  0  0  0  0  0  0  0  0
  -24.7099  -30.6179   22.5637 N   0  0  0  0  0  0  0  0  0  0  0  0
  -28.8611  -14.7493   19.6990 N   0  0  0  0  0  0  0  0  0  0  0  0
  -29.9165  -16.8953   19.7532 N   0  0  0  0  0  0  0  0  0  0  0  0
  -28.9639  -10.4640   22.8257 N   0  0  0  0  0  0  0  0  0  0  0  0
  -25.0263   -8.3234   23.3819 N   0  0  0  0  0  0  0  0  0  0  0  0
  -28.9834  -20.8580   18.7087 N   0  0  0  0  0  0  0  0  0  0  0  0
  -25.8296  -33.5277   20.8289 N   0  0  0  0  0  0  0  0  0  0  0  0
  -22.8990  -29.6887   25.2685 N   0  0  0  0  0  0  0  0  0  0  0  0
  -20.8742  -26.7234   24.8499 N   0  3  0  0  0  0  0  0  0  0  0  0
  -27.1943   -8.4549   24.1175 O   0  0  0  0  0  0  0  0  0  0  0  0
  -26.9784  -31.8297   21.9332 O   0  0  0  0  0  0  0  0  0  0  0  0
  -23.2327  -32.0429   23.6700 O   0  0  0  0  0  0  0  0  0  0  0  0
  -23.5783  -27.4918   24.9695 O   0  0  0  0  0  0  0  0  0  0  0  0
  -28.9195  -16.0046   21.6313 O   0  0  0  0  0  0  0  0  0  0  0  0
  -20.3124   -9.3196   20.5851 O   0  0  0  0  0  0  0  0  0  0  0  0
  -28.0549  -26.0852   20.0294 O   0  0  0  0  0  0  0  0  0  1  0  0
  -18.9326   -3.9931   20.2269 F   0  0  0  0  0  0  0  0  0  0  0  0
  -19.1479   -8.3073   18.2913 F   0  0  0  0  0  0  0  0  0  0  0  0
  1  2  1  0  0  0  0
  1  5  2  0  0  0  0
  2  6  2  0  0  0  0
  3  8  2  0  0  0  0
  3 15  1  0  0  0  0
  4  9  1  0  0  0  0
  4 15  2  0  0  0  0
  5 17  1  0  0  0  0
  6 19  1  0  0  0  0
  7 10  2  0  0  0  0
  7 18  1  0  0  0  0
  8 21  1  0  0  0  0
  9 21  2  0  0  0  0
 10 22  1  0  0  0  0
 11 12  2  0  0  0  0
 11 23  1  0  0  0  0
 12 24  1  0  0  0  0
 13 20  1  0  0  0  0
 13 22  2  0  0  0  0
 14 24  2  0  0  0  0
 14 25  1  0  0  0  0
 15 26  1  0  0  0  0
 16 26  1  0  0  0  0
 16 27  2  0  0  0  0
 16 31  1  0  0  0  0
 17 19  2  0  0  0  0
 17 36  1  0  0  0  0
 18 20  2  0  0  0  0
 18 37  1  0  0  0  0
 19 49  1  0  0  0  0
 20 38  1  0  0  0  0
 21 82  1  0  0  0  0
 22 83  1  0  0  0  0
 23 25  2  0  0  0  0
 23 82  1  0  0  0  0
 24 84  1  0  0  0  0
 25 85  1  0  0  0  0
 26 63  2  0  0  0  0
 27 67  1  0  0  0  0
 27 71  1  0  0  0  0
 28 53  1  0  0  0  0
 28 64  2  0  0  0  0
 28 65  1  0  0  0  0
 29 59  1  0  0  0  0
 29 64  1  0  0  0  0
 29 66  2  0  0  0  0
 30 65  2  0  0  0  0
 30 66  1  0  0  0  0
 30 73  1  0  0  0  0
 31 72  1  0  0  0  0
 31 77  2  0  0  0  0
 32 50  1  0  0  0  0
 32 74  1  0  0  0  0
 32 78  2  0  0  0  0
 33 60  1  0  0  0  0
 33 68  1  0  0  0  0
 33 79  2  0  0  0  0
 34 61  1  0  0  0  0
 34 75  1  0  0  0  0
 34 80  2  0  0  0  0
 35 69  1  0  0  0  0
 35 70  1  0  0  0  0
 35 81  2  0  0  0  0
 36 39  1  0  0  0  0
 37 50  1  0  0  0  0
 38 68  1  0  0  0  0
 39 41  1  0  0  0  0
 40 42  1  0  0  0  0
 40 45  1  0  0  0  0
 41 49  1  0  0  0  0
 42 51  1  0  0  0  0
 43 46  1  0  0  0  0
 43 52  1  0  0  0  0
 44 47  1  0  0  0  0
 44 52  1  0  0  0  0
 45 69  1  0  0  0  0
 46 70  1  0  0  0  0
 47 70  1  0  0  0  0
 48 51  1  0  0  0  0
 48 69  1  0  0  0  0
 49 74  1  0  0  0  0
 50 68  1  0  0  0  0
 51 67  1  0  0  0  0
 52 73  1  0  0  0  0
 54 61  1  0  0  0  0
 55 62  1  0  0  0  0
 56 62  1  0  0  0  0
 57 62  1  0  0  0  0
 58 76  1  0  0  0  0
 59 83  1  0  0  0  0
 60 62  1  0  0  0  0
 60 75  1  0  0  0  0
 61 76  1  0  0  0  0
 63 67  1  0  0  0  0
M  CHG  1  76   1
M  ISO  4  35 100  59 101  70 100  83 101
M  END
> <Batch ID>
0190

> <Smiles>
CNC(C)C(=O)NC(C(=O)N1Cc2cc([101O:1][101CH2:1]c3nc(C)nc(NC4CC[100N:0]([100C:0](=O)N5CCCC(n6nc(-c7ccc(Oc8ccc(F)cc8F)cc7)c(C(N)=O)c6N)C5)CC4)n3)ccc2CC1C(=O)NC1CCCc2ccccc21)C(C)(C)C

> <Shape>
0.264

> <Color>
0.129

> <Negative vol penalty>
0.000

$$$$

  -OEChem-04052323243D

 89 99  0     1  0  0  0  0  0999 V2000
  -18.9494  -25.0623   23.9655 C   0  0  0  0  0  0  0  0  0  0  0  0
  -20.3172  -25.0597   23.7112 C   0  0  0  0  0  0  0  0  0  0  0  0
  -23.3938  -10.7436   22.1990 C   0  0  0  0  0  0  0  0  0  0  0  0
  -24.2176   -9.1691   20.5621 C   0  0  0  0  0  0  0  0  0  0  0  0
  -18.1480  -26.0810   23.4519 C   0  0  0  0  0  0  0  0  0  0  0  0
  -20.8841  -26.0753   22.9421 C   0  0  0  0  0  0  0  0  0  0  0  0
  -26.4416  -28.5529   23.6359 C   0  0  0  0  0  0  0  0  0  0  0  0
  -22.1094  -10.2183   22.0578 C   0  0  0  0  0  0  0  0  0  0  0  0
  -22.9332   -8.6437   20.4210 C   0  0  0  0  0  0  0  0  0  0  0  0
  -27.6561  -28.3283   22.9890 C   0  0  0  0  0  0  0  0  0  0  0  0
  -20.3927   -7.5119   23.1356 C   0  0  0  0  0  0  0  0  0  0  0  0
  -19.6641   -7.2599   24.2980 C   0  0  0  0  0  0  0  0  0  0  0  0
  -27.2101  -30.1882   21.5190 C   0  0  0  0  0  0  0  0  0  0  0  0
  -17.9533   -8.7976   23.5590 C   0  0  0  0  0  0  0  0  0  0  0  0
  -26.9193  -24.8362   18.3346 C   0  0  0  0  0  0  0  0  0  0  0  0
  -24.4479  -10.2190   21.4511 C   0  0  0  0  0  0  0  0  0  0  0  0
  -26.7704  -10.3433   22.4992 C   0  0  0  0  0  0  0  0  0  0  0  0
  -18.7069  -27.1149   22.6842 C   0  0  0  0  0  0  0  0  0  0  0  0
  -25.5958  -29.5917   23.2214 C   0  0  0  0  0  0  0  0  0  0  0  0
  -20.0892  -27.1081   22.4166 C   0  0  0  0  0  0  0  0  0  0  0  0
  -25.9866  -30.4254   22.1638 C   0  0  0  0  0  0  0  0  0  0  0  0
  -28.2039  -25.2610   18.6291 C   0  0  0  0  0  0  0  0  0  0  0  0
  -21.8791   -9.1683   21.1688 C   0  0  0  0  0  0  0  0  0  0  0  0
  -28.0392  -29.1442   21.9285 C   0  0  0  0  0  0  0  0  0  0  0  0
  -19.9017   -8.4068   22.1849 C   0  0  0  0  0  0  0  0  0  0  0  0
  -18.4444   -7.9028   24.5097 C   0  0  0  0  0  0  0  0  0  0  0  0
  -18.6820   -9.0496   22.3966 C   0  0  0  0  0  0  0  0  0  0  0  0
  -25.7748  -10.7616   21.5960 C   0  0  0  0  0  0  0  0  0  0  0  0
  -29.1550  -24.2569   18.7733 C   0  0  0  0  0  0  0  0  0  0  0  0
  -27.8372  -11.1689   22.2408 C   0  0  0  0  0  0  0  0  0  0  0  0
  -27.5670  -22.6610   18.3843 C   0  0  0  0  0  0  0  0  0  0  0  0
  -26.7340   -9.3015   23.4836 C   0  0  0  0  0  0  0  0  0  0  0  0
  -22.6463  -29.7496   22.0471 C   0  0  0  0  0  0  0  0  0  0  0  0
  -23.1151  -32.9450   22.3500 C   0  0  0  0  0  0  0  0  0  0  0  0
  -25.3177  -35.5448   22.5407 C   0  0  0  0  0  0  0  0  0  0  0  0
  -28.3424  -16.5389   20.1678 C   0  0  0  0  0  0  0  0  0  0  0  0
  -17.7930  -28.1687   22.1107 C   0  0  0  0  0  0  0  0  0  0  0  0
  -24.3014  -29.8375   23.9468 C   0  0  0  0  0  0  0  0  0  0  0  0
  -25.1239  -31.5669   21.6935 C   0  0  0  0  0  0  0  0  0  0  0  0
  -28.5554  -26.7114   18.7224 C   0  0  0  0  0  0  0  0  0  0  0  0
  -30.5774  -24.6007   19.1275 C   0  0  0  0  0  0  0  0  0  0  0  0
  -18.5299  -29.4118   21.6189 C   0  0  0  0  0  0  0  0  0  0  0  0
  -29.8501  -13.7124   18.7302 C   0  0  0  0  0  0  0  0  0  0  0  0
  -19.7412  -29.0174   20.7797 C   0  0  0  0  0  0  0  0  0  0  0  0
  -29.0674  -12.5801   19.3946 C   0  0  0  0  0  0  0  0  0  0  0  0
  -27.6712  -18.9879   17.7306 C   0  0  0  0  0  0  0  0  0  0  0  0
  -28.4506  -19.9925   19.9103 C   0  0  0  0  0  0  0  0  0  0  0  0
  -28.9461  -14.8848   18.3449 C   0  0  0  0  0  0  0  0  0  0  0  0
  -28.5899  -17.7872   17.9753 C   0  0  0  0  0  0  0  0  0  0  0  0
  -29.3715  -18.7900   20.0973 C   0  0  0  0  0  0  0  0  0  0  0  0
  -27.3451  -14.2720   20.1281 C   0  0  0  0  0  0  0  0  0  0  0  0
  -30.9575  -26.0312   18.7591 C   0  0  0  0  0  0  0  0  0  0  0  0
  -20.7451  -28.2059   21.6074 C   0  0  1  0  0  0  0  0  0  0  0  0
  -23.2823  -30.6026   23.1080 C   0  0  1  0  0  0  0  0  0  0  0  0
  -28.2361  -13.1042   20.5791 C   0  0  1  0  0  0  0  0  0  0  0  0
  -28.1963  -20.2481   18.4225 C   0  0  0  0  0  0  0  0  0  0  0  0
  -25.4017  -38.0444   22.7468 C   0  0  0  0  0  0  0  0  0  0  0  0
  -22.3384  -33.2110   19.4113 C   0  0  0  0  0  0  0  0  0  0  0  0
  -23.3391  -35.5059   19.4266 C   0  0  0  0  0  0  0  0  0  0  0  0
  -21.3978  -34.9838   20.9036 C   0  0  0  0  0  0  0  0  0  0  0  0
  -26.7865  -35.4000   25.1059 C   0  0  0  0  0  0  0  0  0  0  0  0
  -30.3270  -28.4092   19.2177 C   0  0  0  0  0  0  0  0  0  0  0  0
  -29.2972  -29.2763   19.9146 C   0  0  0  0  0  0  0  0  0  1  0  0
  -23.6723  -34.0326   21.4636 C   0  0  1  0  0  0  0  0  0  0  0  0
  -25.4074  -36.7211   23.4961 C   0  0  2  0  0  0  0  0  0  0  0  0
  -22.7025  -34.4107   20.3086 C   0  0  0  0  0  0  0  0  0  0  0  0
  -26.5657  -23.5413   18.2083 N   0  0  0  0  0  0  0  0  0  0  0  0
  -26.1736  -11.7744   20.8218 N   0  0  0  0  0  0  0  0  0  0  0  0
  -28.8535  -22.9424   18.6646 N   0  0  0  0  0  0  0  0  0  0  0  0
  -27.4315  -11.9994   21.2379 N   0  0  0  0  0  0  0  0  0  0  0  0
  -23.8647  -31.7629   22.4307 N   0  0  0  0  0  0  0  0  0  0  0  0
  -28.1443  -15.3235   19.4956 N   0  0  0  0  0  0  0  0  0  0  0  0
  -28.8430  -17.6098   19.4124 N   0  0  0  0  0  0  0  0  0  0  0  0
  -29.0733  -11.2582   22.7760 N   0  0  0  0  0  0  0  0  0  0  0  0
  -25.5591   -8.5491   23.6171 N   0  0  0  0  0  0  0  0  0  0  0  0
  -27.2402  -21.3218   18.2651 N   0  0  0  0  0  0  0  0  0  0  0  0
  -21.5136  -29.0794   22.4682 N   0  0  0  0  0  0  0  0  0  0  0  0
  -24.0131  -35.1436   22.3456 N   0  0  0  0  0  0  0  0  0  0  0  0
  -29.9205  -26.9680   19.3319 N   0  3  1  0  0  0  0  0  0  0  0  0
  -26.6599  -36.6414   24.2997 N   0  3  0  0  0  0  0  0  0  0  0  0
  -27.7087   -9.0563   24.2342 O   0  0  0  0  0  0  0  0  0  0  0  0
  -23.1454  -29.7040   20.9288 O   0  0  0  0  0  0  0  0  0  0  0  0
  -22.0576  -33.1400   22.9543 O   0  0  0  0  0  0  0  0  0  0  0  0
  -26.3059  -35.0355   22.0166 O   0  0  0  0  0  0  0  0  0  0  0  0
  -28.0870  -16.6604   21.3724 O   0  0  0  0  0  0  0  0  0  0  0  0
  -20.6259   -8.6553   21.0310 O   0  0  0  0  0  0  0  0  0  0  0  0
  -29.2323  -28.9252   21.2905 O   0  0  0  0  0  0  0  0  0  1  0  0
  -17.7440   -7.6595   25.6253 F   0  0  0  0  0  0  0  0  0  0  0  0
  -18.2047   -9.9094   21.4863 F   0  0  0  0  0  0  0  0  0  0  0  0
  1  2  1  0  0  0  0
  1  5  2  0  0  0  0
  2  6  2  0  0  0  0
  3  8  2  0  0  0  0
  3 16  1  0  0  0  0
  4  9  1  0  0  0  0
  4 16  2  0  0  0  0
  5 18  1  0  0  0  0
  6 20  1  0  0  0  0
  7 10  2  0  0  0  0
  7 19  1  0  0  0  0
  8 23  1  0  0  0  0
  9 23  2  0  0  0  0
 10 24  1  0  0  0  0
 11 12  2  0  0  0  0
 11 25  1  0  0  0  0
 12 26  1  0  0  0  0
 13 21  1  0  0  0  0
 13 24  2  0  0  0  0
 14 26  2  0  0  0  0
 14 27  1  0  0  0  0
 15 22  1  0  0  0  0
 15 67  2  0  0  0  0
 16 28  1  0  0  0  0
 17 28  1  0  0  0  0
 17 30  2  0  0  0  0
 17 32  1  0  0  0  0
 18 20  2  0  0  0  0
 18 37  1  0  0  0  0
 19 21  2  0  0  0  0
 19 38  1  0  0  0  0
 20 53  1  0  0  0  0
 21 39  1  0  0  0  0
 22 29  2  0  0  0  0
 22 40  1  0  0  0  0
 23 86  1  0  0  0  0
 24 87  1  0  0  0  0
 25 27  2  0  0  0  0
 25 86  1  0  0  0  0
 26 88  1  0  0  0  0
 27 89  1  0  0  0  0
 28 68  2  0  0  0  0
 29 41  1  0  0  0  0
 29 69  1  0  0  0  0
 30 70  1  0  0  0  0
 30 74  1  0  0  0  0
 31 67  1  0  0  0  0
 31 69  2  0  0  0  0
 31 76  1  0  0  0  0
 32 75  1  0  0  0  0
 32 81  2  0  0  0  0
 33 54  1  0  0  0  0
 33 77  1  0  0  0  0
 33 82  2  0  0  0  0
 34 64  1  0  0  0  0
 34 71  1  0  0  0  0
 34 83  2  0  0  0  0
 35 65  1  0  0  0  0
 35 78  1  0  0  0  0
 35 84  2  0  0  0  0
 36 72  1  0  0  0  0
 36 73  1  0  0  0  0
 36 85  2  0  0  0  0
 37 42  1  0  0  0  0
 38 54  1  0  0  0  0
 39 71  1  0  0  0  0
 40 79  1  0  0  0  0
 41 52  1  0  0  0  0
 42 44  1  0  0  0  0
 43 45  1  0  0  0  0
 43 48  1  0  0  0  0
 44 53  1  0  0  0  0
 45 55  1  0  0  0  0
 46 49  1  0  0  0  0
 46 56  1  0  0  0  0
 47 50  1  0  0  0  0
 47 56  1  0  0  0  0
 48 72  1  0  0  0  0
 49 73  1  0  0  0  0
 50 73  1  0  0  0  0
 51 55  1  0  0  0  0
 51 72  1  0  0  0  0
 52 79  1  0  0  0  0
 53 77  1  0  0  0  0
 54 71  1  0  0  0  0
 55 70  1  0  0  0  0
 56 76  1  0  0  0  0
 57 65  1  0  0  0  0
 58 66  1  0  0  0  0
 59 66  1  0  0  0  0
 60 66  1  0  0  0  0
 61 80  1  0  0  0  0
 62 63  1  0  0  0  0
 62 79  1  0  0  0  0
 63 87  1  0  0  0  0
 64 66  1  0  0  0  0
 64 78  1  0  0  0  0
 65 80  1  0  0  0  0
 68 70  1  0  0  0  0
M  CHG  2  79   1  80   1
M  ISO  4  36 100  63 101  73 100  87 101
M  END
> <Batch ID>
0190

> <Smiles>
CNC(C)C(=O)NC(C(=O)N1Cc2cc([101O:1][101CH2:1]CN3CCc4nc(NC5CC[100N:0]([100C:0](=O)N6CCCC(n7nc(-c8ccc(Oc9ccc(F)cc9F)cc8)c(C(N)=O)c7N)C6)CC5)ncc4C3)ccc2CC1C(=O)NC1CCCc2ccccc21)C(C)(C)C

> <Shape>
0.304

> <Color>
0.112

> <Negative vol penalty>
0.000

$$$$

  -OEChem-04052323243D

 90100  0     1  0  0  0  0  0999 V2000
  -22.2813  -23.8692   20.0804 C   0  0  0  0  0  0  0  0  0  0  0  0
  -23.4739  -23.2077   20.3554 C   0  0  0  0  0  0  0  0  0  0  0  0
  -21.8907  -29.0014   23.0996 C   0  0  0  0  0  0  0  0  0  0  0  0
  -21.0986  -29.0881   20.8188 C   0  0  0  0  0  0  0  0  0  0  0  0
  -21.0639  -23.2753   20.4106 C   0  0  0  0  0  0  0  0  0  0  0  0
  -23.4497  -21.9523   20.9618 C   0  0  0  0  0  0  0  0  0  0  0  0
  -26.6278  -18.6747   18.7705 C   0  0  0  0  0  0  0  0  0  0  0  0
  -31.7213  -24.2143   21.0380 C   0  0  0  0  0  0  0  0  0  0  0  0
  -20.6090  -28.6608   23.5318 C   0  0  0  0  0  0  0  0  0  0  0  0
  -19.8168  -28.7475   21.2510 C   0  0  0  0  0  0  0  0  0  0  0  0
  -27.9809  -18.7926   19.0851 C   0  0  0  0  0  0  0  0  0  0  0  0
  -16.4159  -27.5478   21.7122 C   0  0  0  0  0  0  0  0  0  0  0  0
  -15.7242  -26.5755   20.9899 C   0  0  0  0  0  0  0  0  0  0  0  0
  -32.0052  -22.8542   21.0909 C   0  0  0  0  0  0  0  0  0  0  0  0
  -27.7693  -16.9706   20.6519 C   0  0  0  0  0  0  0  0  0  0  0  0
  -17.4727  -24.9777   21.4662 C   0  0  0  0  0  0  0  0  0  0  0  0
  -22.1355  -29.2151   21.7431 C   0  0  0  0  0  0  0  0  0  0  0  0
  -24.2106  -30.6971   21.6717 C   0  0  0  0  0  0  0  0  0  0  0  0
  -21.0245  -22.0077   21.0126 C   0  0  0  0  0  0  0  0  0  0  0  0
  -25.8315  -17.7094   19.4033 C   0  0  0  0  0  0  0  0  0  0  0  0
  -22.2307  -21.3414   21.3017 C   0  0  0  0  0  0  0  0  0  0  0  0
  -31.4916  -24.9172   22.2155 C   0  0  0  0  0  0  0  0  0  0  0  0
  -26.4069  -16.8408   20.3417 C   0  0  0  0  0  0  0  0  0  0  0  0
  -19.5721  -28.5338   22.6075 C   0  0  0  0  0  0  0  0  0  0  0  0
  -28.5512  -17.9425   20.0280 C   0  0  0  0  0  0  0  0  0  0  0  0
  -17.6361  -27.2351   22.3115 C   0  0  0  0  0  0  0  0  0  0  0  0
  -16.2526  -25.2904   20.8670 C   0  0  0  0  0  0  0  0  0  0  0  0
  -18.1645  -25.9500   22.1885 C   0  0  0  0  0  0  0  0  0  0  0  0
  -23.4591  -29.5676   21.2961 C   0  0  0  0  0  0  0  0  0  0  0  0
  -31.5568  -24.2193   23.4107 C   0  0  0  0  0  0  0  0  0  0  0  0
  -32.0476  -22.2486   22.3365 C   0  0  0  0  0  0  0  0  0  0  0  0
  -25.3889  -30.5722   20.9770 C   0  0  0  0  0  0  0  0  0  0  0  0
  -23.8738  -31.7639   22.5686 C   0  0  0  0  0  0  0  0  0  0  0  0
  -23.2734  -17.7967   21.2881 C   0  0  0  0  0  0  0  0  0  0  0  0
  -23.3830  -14.5744   20.9313 C   0  0  0  0  0  0  0  0  0  0  0  0
  -25.2414  -11.7982   20.2342 C   0  0  0  0  0  0  0  0  0  0  0  0
  -29.6490  -27.2915   19.2718 C   0  0  0  0  0  0  0  0  0  0  0  0
  -19.6861  -21.4267   21.3944 C   0  0  0  0  0  0  0  0  0  0  0  0
  -24.3796  -17.5774   19.0333 C   0  0  0  0  0  0  0  0  0  0  0  0
  -25.5999  -15.7744   21.0345 C   0  0  0  0  0  0  0  0  0  0  0  0
  -19.7346  -19.9306   21.6937 C   0  0  0  0  0  0  0  0  0  0  0  0
  -26.7053  -27.4842   17.2232 C   0  0  0  0  0  0  0  0  0  0  0  0
  -20.9134  -19.6066   22.6059 C   0  0  0  0  0  0  0  0  0  0  0  0
  -25.6453  -28.0834   18.1418 C   0  0  0  0  0  0  0  0  0  0  0  0
  -27.6544  -26.5839   18.0026 C   0  0  0  0  0  0  0  0  0  0  0  0
  -31.7393  -25.3209   27.5661 C   0  0  0  0  0  0  0  0  0  0  0  0
  -31.5919  -27.2960   20.9219 C   0  0  0  0  0  0  0  0  0  0  0  0
  -29.7169  -26.9345   21.8598 C   0  0  0  0  0  0  0  0  0  0  0  0
  -30.7489  -24.0017   25.8056 C   0  0  0  0  0  0  0  0  0  0  0  0
  -27.3042  -27.9163   20.0656 C   0  0  0  0  0  0  0  0  0  0  0  0
  -32.3343  -26.2965   26.5616 C   0  0  0  0  0  0  0  0  0  0  0  0
  -31.1661  -26.4804   22.1658 C   0  0  0  0  0  0  0  0  0  0  0  0
  -22.2448  -19.9676   21.9361 C   0  0  1  0  0  0  0  0  0  0  0  0
  -31.3154  -24.9343   24.7224 C   0  0  1  0  0  0  0  0  0  0  0  0
  -23.5465  -16.8976   20.1156 C   0  0  1  0  0  0  0  0  0  0  0  0
  -26.3060  -28.8207   19.3155 C   0  0  2  0  0  0  0  0  0  0  0  0
  -25.0624   -9.3015   20.0564 C   0  0  0  0  0  0  0  0  0  0  0  0
  -23.3574  -14.3620   23.9750 C   0  0  0  0  0  0  0  0  0  0  0  0
  -24.1273  -11.9906   23.7464 C   0  0  0  0  0  0  0  0  0  0  0  0
  -21.9252  -12.6819   22.7999 C   0  0  0  0  0  0  0  0  0  0  0  0
  -26.0185  -11.8296   17.3787 C   0  0  0  0  0  0  0  0  0  0  0  0
  -32.3487  -20.7900   22.4304 C   0  0  0  0  0  0  0  0  0  0  0  0
  -31.5045  -18.4688   22.0588 C   0  0  0  0  0  0  0  0  0  0  0  0
  -30.2632  -17.6952   21.6601 C   0  0  0  0  0  0  0  0  0  1  0  0
  -24.0544  -13.4396   21.6664 C   0  0  1  0  0  0  0  0  0  0  0  0
  -24.9878  -10.6229   19.3075 C   0  0  2  0  0  0  0  0  0  0  0  0
  -23.3811  -13.1398   23.0355 C   0  0  0  0  0  0  0  0  0  0  0  0
  -24.1056  -28.7829   20.4298 N   0  0  0  0  0  0  0  0  0  0  0  0
  -31.8298  -22.8984   23.5018 N   0  0  0  0  0  0  0  0  0  0  0  0
  -25.2757  -29.4205   20.2553 N   0  0  0  0  0  0  0  0  0  0  0  0
  -30.5040  -24.7111   27.0666 N   0  0  0  0  0  0  0  0  0  0  0  0
  -24.1832  -15.6892   20.6433 N   0  0  0  0  0  0  0  0  0  0  0  0
  -28.2555  -27.2762   19.1464 N   0  0  0  0  0  0  0  0  0  0  0  0
  -30.1870  -27.3106   20.5385 N   0  0  0  0  0  0  0  0  0  0  0  0
  -26.5002  -31.3364   20.9191 N   0  0  0  0  0  0  0  0  0  0  0  0
  -23.2312  -32.8959   22.0489 N   0  0  0  0  0  0  0  0  0  0  0  0
  -22.6084  -18.9627   20.9601 N   0  0  0  0  0  0  0  0  0  0  0  0
  -24.0668  -12.3077   20.7461 N   0  0  0  0  0  0  0  0  0  0  0  0
  -32.5641  -25.5813   25.2699 N   0  3  0  0  0  0  0  0  0  0  0  0
  -25.9978  -10.5998   18.2119 N   0  3  0  0  0  0  0  0  0  0  0  0
  -31.2067  -19.9246   22.0268 N   0  3  0  0  0  0  0  0  0  0  0  0
  -24.1496  -31.7218   23.7915 O   0  0  0  0  0  0  0  0  0  0  0  0
  -23.6378  -17.4569   22.4077 O   0  0  0  0  0  0  0  0  0  0  0  0
  -22.1944  -14.4725   20.6176 O   0  0  0  0  0  0  0  0  0  0  0  0
  -26.3689  -12.2196   20.4824 O   0  0  0  0  0  0  0  0  0  0  0  0
  -30.3940  -27.2574   18.2835 O   0  0  0  0  0  0  0  0  0  0  0  0
  -18.3213  -28.2013   23.0289 O   0  0  0  0  0  0  0  0  0  0  0  0
  -29.8810  -18.0567   20.3396 O   0  0  0  0  0  0  0  0  0  1  0  0
  -15.5874  -24.3564   20.1746 F   0  0  0  0  0  0  0  0  0  0  0  0
  -19.3357  -25.6433   22.7630 F   0  0  0  0  0  0  0  0  0  0  0  0
  1  2  1  0  0  0  0
  1  5  2  0  0  0  0
  2  6  2  0  0  0  0
  3  9  2  0  0  0  0
  3 17  1  0  0  0  0
  4 10  1  0  0  0  0
  4 17  2  0  0  0  0
  5 19  1  0  0  0  0
  6 21  1  0  0  0  0
  7 11  2  0  0  0  0
  7 20  1  0  0  0  0
  8 14  2  0  0  0  0
  8 22  1  0  0  0  0
  9 24  1  0  0  0  0
 10 24  2  0  0  0  0
 11 25  1  0  0  0  0
 12 13  2  0  0  0  0
 12 26  1  0  0  0  0
 13 27  1  0  0  0  0
 14 31  1  0  0  0  0
 15 23  1  0  0  0  0
 15 25  2  0  0  0  0
 16 27  2  0  0  0  0
 16 28  1  0  0  0  0
 17 29  1  0  0  0  0
 18 29  1  0  0  0  0
 18 32  2  0  0  0  0
 18 33  1  0  0  0  0
 19 21  2  0  0  0  0
 19 38  1  0  0  0  0
 20 23  2  0  0  0  0
 20 39  1  0  0  0  0
 21 53  1  0  0  0  0
 22 30  2  0  0  0  0
 22 52  1  0  0  0  0
 23 40  1  0  0  0  0
 24 87  1  0  0  0  0
 25 88  1  0  0  0  0
 26 28  2  0  0  0  0
 26 87  1  0  0  0  0
 27 89  1  0  0  0  0
 28 90  1  0  0  0  0
 29 68  2  0  0  0  0
 30 54  1  0  0  0  0
 30 69  1  0  0  0  0
 31 62  1  0  0  0  0
 31 69  2  0  0  0  0
 32 70  1  0  0  0  0
 32 75  1  0  0  0  0
 33 76  1  0  0  0  0
 33 82  2  0  0  0  0
 34 55  1  0  0  0  0
 34 77  1  0  0  0  0
 34 83  2  0  0  0  0
 35 65  1  0  0  0  0
 35 72  1  0  0  0  0
 35 84  2  0  0  0  0
 36 66  1  0  0  0  0
 36 78  1  0  0  0  0
 36 85  2  0  0  0  0
 37 73  1  0  0  0  0
 37 74  1  0  0  0  0
 37 86  2  0  0  0  0
 38 41  1  0  0  0  0
 39 55  1  0  0  0  0
 40 72  1  0  0  0  0
 41 43  1  0  0  0  0
 42 44  1  0  0  0  0
 42 45  1  0  0  0  0
 43 53  1  0  0  0  0
 44 56  1  0  0  0  0
 45 73  1  0  0  0  0
 46 51  1  0  0  0  0
 46 71  1  0  0  0  0
 47 52  1  0  0  0  0
 47 74  1  0  0  0  0
 48 52  1  0  0  0  0
 48 74  1  0  0  0  0
 49 54  1  0  0  0  0
 49 71  1  0  0  0  0
 50 56  1  0  0  0  0
 50 73  1  0  0  0  0
 51 79  1  0  0  0  0
 53 77  1  0  0  0  0
 54 79  1  0  0  0  0
 55 72  1  0  0  0  0
 56 70  1  0  0  0  0
 57 66  1  0  0  0  0
 58 67  1  0  0  0  0
 59 67  1  0  0  0  0
 60 67  1  0  0  0  0
 61 80  1  0  0  0  0
 62 81  1  0  0  0  0
 63 64  1  0  0  0  0
 63 81  1  0  0  0  0
 64 88  1  0  0  0  0
 65 67  1  0  0  0  0
 65 78  1  0  0  0  0
 66 80  1  0  0  0  0
 68 70  1  0  0  0  0
M  CHG  3  79   1  80   1  81   1
M  ISO  4  37 100  64 101  74 100  88 101
M  END
> <Batch ID>
0190

> <Smiles>
CNC(C)C(=O)NC(C(=O)N1Cc2cc([101O:1][101CH2:1]CNCc3ccc(C4C[100N:0]([100C:0](=O)N5CCCC(n6nc(-c7ccc(Oc8ccc(F)cc8F)cc7)c(C(N)=O)c6N)C5)C4)c(C4CNCCN4)n3)ccc2CC1C(=O)NC1CCCc2ccccc21)C(C)(C)C

> <Shape>
0.231

> <Color>
0.063

> <Negative vol penalty>
0.000

$$$$

  -OEChem-04052323243D

 87 96  0     1  0  0  0  0  0999 V2000
  -16.6795  -29.9657   23.4454 C   0  0  0  0  0  0  0  0  0  0  0  0
  -17.7842  -30.7017   23.8618 C   0  0  0  0  0  0  0  0  0  0  0  0
  -27.2923  -14.3205   20.0454 C   0  0  0  0  0  0  0  0  0  0  0  0
  -26.9403  -13.6584   22.3420 C   0  0  0  0  0  0  0  0  0  0  0  0
  -16.8504  -28.6731   22.9515 C   0  0  0  0  0  0  0  0  0  0  0  0
  -19.0604  -30.1449   23.7857 C   0  0  0  0  0  0  0  0  0  0  0  0
  -24.2893  -33.0803   22.5415 C   0  0  0  0  0  0  0  0  0  0  0  0
  -28.1539  -13.2385   19.8654 C   0  0  0  0  0  0  0  0  0  0  0  0
  -27.8019  -12.5763   22.1621 C   0  0  0  0  0  0  0  0  0  0  0  0
  -25.3046  -33.5752   23.3589 C   0  0  0  0  0  0  0  0  0  0  0  0
  -30.7275  -10.8557   18.9047 C   0  0  0  0  0  0  0  0  0  0  0  0
  -31.9300  -11.0864   18.2367 C   0  0  0  0  0  0  0  0  0  0  0  0
  -26.5684  -31.5513   23.0040 C   0  0  0  0  0  0  0  0  0  0  0  0
  -32.5642  -12.6874   19.9313 C   0  0  0  0  0  0  0  0  0  0  0  0
  -28.3391  -28.3392   25.7318 C   0  0  0  0  0  0  0  0  0  0  0  0
  -27.1994  -26.8488   27.6310 C   0  0  0  0  0  0  0  0  0  0  0  0
  -26.6855  -14.5305   21.2837 C   0  0  0  0  0  0  0  0  0  0  0  0
  -24.4035  -15.6706   21.2636 C   0  0  0  0  0  0  0  0  0  0  0  0
  -18.1303  -28.1038   22.8603 C   0  0  0  0  0  0  0  0  0  0  0  0
  -24.4013  -31.8106   21.9570 C   0  0  0  0  0  0  0  0  0  0  0  0
  -19.2484  -28.8430   23.2914 C   0  0  0  0  0  0  0  0  0  0  0  0
  -25.5543  -31.0437   22.1775 C   0  0  0  0  0  0  0  0  0  0  0  0
  -28.4087  -12.3663   20.9238 C   0  0  0  0  0  0  0  0  0  0  0  0
  -26.4431  -32.8094   23.5926 C   0  0  0  0  0  0  0  0  0  0  0  0
  -30.4432  -11.5409   20.0860 C   0  0  0  0  0  0  0  0  0  0  0  0
  -32.8484  -12.0022   18.7500 C   0  0  0  0  0  0  0  0  0  0  0  0
  -31.3616  -12.4568   20.5993 C   0  0  0  0  0  0  0  0  0  0  0  0
  -25.7959  -15.6484   21.4704 C   0  0  0  0  0  0  0  0  0  0  0  0
  -28.0295  -28.8724   26.9636 C   0  0  0  0  0  0  0  0  0  0  0  0
  -27.5083  -26.3157   26.3990 C   0  0  0  0  0  0  0  0  0  0  0  0
  -24.0302  -16.9545   21.5774 C   0  0  0  0  0  0  0  0  0  0  0  0
  -23.5261  -14.6241   20.8269 C   0  0  0  0  0  0  0  0  0  0  0  0
  -22.7530  -29.0995   22.1491 C   0  0  0  0  0  0  0  0  0  0  0  0
  -24.7713  -28.1604   19.7896 C   0  0  0  0  0  0  0  0  0  0  0  0
  -27.7797  -28.5481   18.2257 C   0  0  0  0  0  0  0  0  0  0  0  0
  -26.1741  -21.0086   25.0981 C   0  0  0  0  0  0  0  0  0  0  0  0
  -18.2603  -26.6856   22.3639 C   0  0  0  0  0  0  0  0  0  0  0  0
  -23.3092  -31.3023   21.0563 C   0  0  0  0  0  0  0  0  0  0  0  0
  -25.7322  -29.6828   21.5572 C   0  0  0  0  0  0  0  0  0  0  0  0
  -19.6847  -26.3077   21.9659 C   0  0  0  0  0  0  0  0  0  0  0  0
  -25.6905  -21.4349   21.6451 C   0  0  0  0  0  0  0  0  0  0  0  0
  -20.6751  -26.7586   23.0349 C   0  0  0  0  0  0  0  0  0  0  0  0
  -25.5259  -19.9882   21.1805 C   0  0  0  0  0  0  0  0  0  0  0  0
  -26.7842  -21.5755   22.7051 C   0  0  0  0  0  0  0  0  0  0  0  0
  -25.8183  -24.5122   26.2603 C   0  0  0  0  0  0  0  0  0  0  0  0
  -28.0852  -24.2238   25.2483 C   0  0  0  0  0  0  0  0  0  0  0  0
  -25.7462  -23.0040   26.4835 C   0  0  0  0  0  0  0  0  0  0  0  0
  -27.9784  -22.7240   25.5008 C   0  0  0  0  0  0  0  0  0  0  0  0
  -26.4508  -19.2254   23.4009 C   0  0  0  0  0  0  0  0  0  0  0  0
  -20.6514  -28.2828   23.2012 C   0  0  1  0  0  0  0  0  0  0  0  0
  -23.3000  -29.7822   20.9275 C   0  0  1  0  0  0  0  0  0  0  0  0
  -25.3187  -19.0438   22.3779 C   0  0  2  0  0  0  0  0  0  0  0  0
  -29.1612  -27.6105   16.3522 C   0  0  0  0  0  0  0  0  0  0  0  0
  -27.2978  -35.0840   26.0002 C   0  0  0  0  0  0  0  0  0  0  0  0
  -25.4532  -25.7344   21.5099 C   0  0  0  0  0  0  0  0  0  0  0  0
  -27.4693  -25.3683   20.0714 C   0  0  0  0  0  0  0  0  0  0  0  0
  -25.1871  -25.2431   19.0722 C   0  0  0  0  0  0  0  0  0  0  0  0
  -27.8175  -31.1417   16.8007 C   0  0  0  0  0  0  0  0  0  0  0  0
  -28.3259  -30.3001   27.2650 C   0  0  0  0  0  0  0  0  0  0  0  0
  -27.8721  -32.6852   26.6784 C   0  0  0  0  0  0  0  0  0  0  0  0
  -26.1247  -27.4932   19.7431 C   0  0  1  0  0  0  0  0  0  0  0  0
  -28.1435  -28.6657   16.7565 C   0  0  2  0  0  0  0  0  0  0  0  0
  -27.0870  -33.5978   25.7419 C   0  0  2  0  0  0  0  0  0  1  0  0
  -26.0547  -25.9846   20.1125 C   0  0  0  0  0  0  0  0  0  0  0  0
  -27.4544  -28.1368   27.9354 N   0  0  0  0  0  0  0  0  0  0  0  0
  -28.0838  -27.0513   25.4273 N   0  0  0  0  0  0  0  0  0  0  0  0
  -26.2746  -16.8249   21.8835 N   0  0  0  0  0  0  0  0  0  0  0  0
  -25.1770  -17.5984   21.9387 N   0  0  0  0  0  0  0  0  0  0  0  0
  -27.2095  -24.9675   26.1643 N   0  0  0  0  0  0  0  0  0  0  0  0
  -24.6339  -29.2270   20.6893 N   0  0  0  0  0  0  0  0  0  0  0  0
  -26.5668  -20.6278   23.8063 N   0  0  0  0  0  0  0  0  0  0  0  0
  -26.5844  -22.2770   25.5378 N   0  0  0  0  0  0  0  0  0  0  0  0
  -22.8361  -17.5843   21.5768 N   0  0  0  0  0  0  0  0  0  0  0  0
  -24.0750  -13.3652   20.5473 N   0  0  0  0  0  0  0  0  0  0  0  0
  -21.3831  -28.9199   22.1273 N   0  0  0  0  0  0  0  0  0  0  0  0
  -26.6651  -27.7585   18.4142 N   0  0  0  0  0  0  0  0  0  0  0  0
  -28.7215  -30.0095   16.4720 N   0  3  0  0  0  0  0  0  0  0  0  0
  -27.6321  -31.2550   26.3556 N   0  3  0  0  0  0  0  0  0  0  0  0
  -22.2944  -14.8047   20.6731 O   0  0  0  0  0  0  0  0  0  0  0  0
  -23.5175  -28.7595   23.0445 O   0  0  0  0  0  0  0  0  0  0  0  0
  -23.8714  -27.7550   19.0498 O   0  0  0  0  0  0  0  0  0  0  0  0
  -28.4224  -29.0983   19.1171 O   0  0  0  0  0  0  0  0  0  0  0  0
  -25.4954  -20.2636   25.8159 O   0  0  0  0  0  0  0  0  0  0  0  0
  -29.2492  -11.3102   20.7485 O   0  0  0  0  0  0  0  0  0  0  0  0
  -27.4410  -33.2926   24.3951 O   0  0  0  0  0  0  0  0  0  1  0  0
  -34.0038  -12.2225   18.1093 F   0  0  0  0  0  0  0  0  0  0  0  0
  -31.0946  -13.1172   21.7344 F   0  0  0  0  0  0  0  0  0  0  0  0
  1  2  1  0  0  0  0
  1  5  2  0  0  0  0
  2  6  2  0  0  0  0
  3  8  2  0  0  0  0
  3 17  1  0  0  0  0
  4  9  1  0  0  0  0
  4 17  2  0  0  0  0
  5 19  1  0  0  0  0
  6 21  1  0  0  0  0
  7 10  2  0  0  0  0
  7 20  1  0  0  0  0
  8 23  1  0  0  0  0
  9 23  2  0  0  0  0
 10 24  1  0  0  0  0
 11 12  2  0  0  0  0
 11 25  1  0  0  0  0
 12 26  1  0  0  0  0
 13 22  1  0  0  0  0
 13 24  2  0  0  0  0
 14 26  2  0  0  0  0
 14 27  1  0  0  0  0
 15 29  1  0  0  0  0
 15 66  2  0  0  0  0
 16 30  2  0  0  0  0
 16 65  1  0  0  0  0
 17 28  1  0  0  0  0
 18 28  1  0  0  0  0
 18 31  2  0  0  0  0
 18 32  1  0  0  0  0
 19 21  2  0  0  0  0
 19 37  1  0  0  0  0
 20 22  2  0  0  0  0
 20 38  1  0  0  0  0
 21 50  1  0  0  0  0
 22 39  1  0  0  0  0
 23 84  1  0  0  0  0
 24 85  1  0  0  0  0
 25 27  2  0  0  0  0
 25 84  1  0  0  0  0
 26 86  1  0  0  0  0
 27 87  1  0  0  0  0
 28 67  2  0  0  0  0
 29 59  1  0  0  0  0
 29 65  2  0  0  0  0
 30 66  1  0  0  0  0
 30 69  1  0  0  0  0
 31 68  1  0  0  0  0
 31 73  1  0  0  0  0
 32 74  1  0  0  0  0
 32 79  2  0  0  0  0
 33 51  1  0  0  0  0
 33 75  1  0  0  0  0
 33 80  2  0  0  0  0
 34 61  1  0  0  0  0
 34 70  1  0  0  0  0
 34 81  2  0  0  0  0
 35 62  1  0  0  0  0
 35 76  1  0  0  0  0
 35 82  2  0  0  0  0
 36 71  1  0  0  0  0
 36 72  1  0  0  0  0
 36 83  2  0  0  0  0
 37 40  1  0  0  0  0
 38 51  1  0  0  0  0
 39 70  1  0  0  0  0
 40 42  1  0  0  0  0
 41 43  1  0  0  0  0
 41 44  1  0  0  0  0
 42 50  1  0  0  0  0
 43 52  1  0  0  0  0
 44 71  1  0  0  0  0
 45 47  1  0  0  0  0
 45 69  1  0  0  0  0
 46 48  1  0  0  0  0
 46 69  1  0  0  0  0
 47 72  1  0  0  0  0
 48 72  1  0  0  0  0
 49 52  1  0  0  0  0
 49 71  1  0  0  0  0
 50 75  1  0  0  0  0
 51 70  1  0  0  0  0
 52 68  1  0  0  0  0
 53 62  1  0  0  0  0
 54 63  1  0  0  0  0
 55 64  1  0  0  0  0
 56 64  1  0  0  0  0
 57 64  1  0  0  0  0
 58 77  1  0  0  0  0
 59 78  1  0  0  0  0
 60 63  1  0  0  0  0
 60 78  1  0  0  0  0
 61 64  1  0  0  0  0
 61 76  1  0  0  0  0
 62 77  1  0  0  0  0
 63 85  1  0  0  0  0
 67 68  1  0  0  0  0
M  CHG  2  77   1  78   1
M  ISO  4  36 100  63 101  72 100  85 101
M  END
> <Batch ID>
0190

> <Smiles>
CNC(C)C(=O)NC(C(=O)N1Cc2cc([101O:1][101CH:1](C)CNCc3cnc(N4CC[100N:0]([100C:0](=O)N5CCCC(n6nc(-c7ccc(Oc8ccc(F)cc8F)cc7)c(C(N)=O)c6N)C5)CC4)cn3)ccc2CC1C(=O)NC1CCCc2ccccc21)C(C)(C)C

> <Shape>
0.261

> <Color>
0.100

> <Negative vol penalty>
0.000

$$$$

  -OEChem-04052323243D

 86 95  0     1  0  0  0  0  0999 V2000
  -18.2492  -24.7260   22.6201 C   0  0  0  0  0  0  0  0  0  0  0  0
  -19.6032  -24.6523   22.3092 C   0  0  0  0  0  0  0  0  0  0  0  0
  -26.0050  -17.3282   22.6047 C   0  0  0  0  0  0  0  0  0  0  0  0
  -25.5359  -18.2830   20.4356 C   0  0  0  0  0  0  0  0  0  0  0  0
  -17.5929  -25.9555   22.5845 C   0  0  0  0  0  0  0  0  0  0  0  0
  -20.3014  -25.8082   21.9614 C   0  0  0  0  0  0  0  0  0  0  0  0
  -24.8021  -26.1251   24.2609 C   0  0  0  0  0  0  0  0  0  0  0  0
  -26.0221  -18.6061   23.1635 C   0  0  0  0  0  0  0  0  0  0  0  0
  -25.5529  -19.5609   20.9943 C   0  0  0  0  0  0  0  0  0  0  0  0
  -25.8387  -25.3512   23.7410 C   0  0  0  0  0  0  0  0  0  0  0  0
  -28.1643  -21.2138   23.3506 C   0  0  0  0  0  0  0  0  0  0  0  0
  -29.1994  -21.5203   24.2339 C   0  0  0  0  0  0  0  0  0  0  0  0
  -26.7027  -27.2896   22.5942 C   0  0  0  0  0  0  0  0  0  0  0  0
  -27.5839  -21.9487   25.9785 C   0  0  0  0  0  0  0  0  0  0  0  0
  -25.7619  -17.1666   21.2407 C   0  0  0  0  0  0  0  0  0  0  0  0
  -24.6339  -14.9928   20.5269 C   0  0  0  0  0  0  0  0  0  0  0  0
  -18.2856  -27.1285   22.2455 C   0  0  0  0  0  0  0  0  0  0  0  0
  -24.7017  -27.4870   23.9421 C   0  0  0  0  0  0  0  0  0  0  0  0
  -19.6534  -27.0544   21.9199 C   0  0  0  0  0  0  0  0  0  0  0  0
  -25.6654  -28.0792   23.1134 C   0  0  0  0  0  0  0  0  0  0  0  0
  -25.7961  -19.7224   22.3584 C   0  0  0  0  0  0  0  0  0  0  0  0
  -26.7875  -25.9327   22.9052 C   0  0  0  0  0  0  0  0  0  0  0  0
  -26.8390  -21.2749   23.7812 C   0  0  0  0  0  0  0  0  0  0  0  0
  -28.9093  -21.8877   25.5478 C   0  0  0  0  0  0  0  0  0  0  0  0
  -26.5488  -21.6423   25.0952 C   0  0  0  0  0  0  0  0  0  0  0  0
  -25.7447  -15.8468   20.6628 C   0  0  0  0  0  0  0  0  0  0  0  0
  -25.1379  -13.8675   19.9217 C   0  0  0  0  0  0  0  0  0  0  0  0
  -26.2420  -24.1187   19.4396 C   0  0  0  0  0  0  0  0  0  0  0  0
  -28.3068  -23.2420   19.5059 C   0  0  0  0  0  0  0  0  0  0  0  0
  -27.5893  -24.5513   21.1815 C   0  0  0  0  0  0  0  0  0  1  0  0
  -23.2685  -15.1982   20.9131 C   0  0  0  0  0  0  0  0  0  0  0  0
  -22.5459  -29.2900   22.4571 C   0  0  0  0  0  0  0  0  0  0  0  0
  -24.4919  -31.7082   23.3991 C   0  0  0  0  0  0  0  0  0  0  0  0
  -27.6141  -32.7158   24.3391 C   0  0  0  0  0  0  0  0  0  0  0  0
  -30.3240  -15.5868   19.1418 C   0  0  0  0  0  0  0  0  0  0  0  0
  -17.5225  -28.4275   22.1746 C   0  0  0  0  0  0  0  0  0  0  0  0
  -23.5928  -28.3141   24.5326 C   0  0  0  0  0  0  0  0  0  0  0  0
  -25.6140  -29.5417   22.7569 C   0  0  0  0  0  0  0  0  0  0  0  0
  -18.4209  -29.6616   22.1605 C   0  0  0  0  0  0  0  0  0  0  0  0
  -29.1691  -12.7462   20.9760 C   0  0  0  0  0  0  0  0  0  0  0  0
  -31.3180  -16.6188   15.8106 C   0  0  0  0  0  0  0  0  0  0  0  0
  -19.5649  -29.4779   21.1684 C   0  0  0  0  0  0  0  0  0  0  0  0
  -28.0423  -12.1658   20.1287 C   0  0  0  0  0  0  0  0  0  0  0  0
  -30.9569  -17.9818   16.3842 C   0  0  0  0  0  0  0  0  0  0  0  0
  -30.2704  -13.3084   20.0905 C   0  0  0  0  0  0  0  0  0  0  0  0
  -30.4210  -15.6779   16.5998 C   0  0  0  0  0  0  0  0  0  0  0  0
  -28.6222  -13.8787   18.3174 C   0  0  0  0  0  0  0  0  0  0  0  0
  -20.4509  -28.2897   21.5620 C   0  0  1  0  0  0  0  0  0  0  0  0
  -23.2948  -29.5756   23.7280 C   0  0  1  0  0  0  0  0  0  0  0  0
  -27.4944  -13.1741   19.1061 C   0  0  2  0  0  0  0  0  0  0  0  0
  -30.7496  -17.6926   17.8735 C   0  0  1  0  0  0  0  0  0  0  0  0
  -24.9329  -24.2874   18.7461 C   0  0  0  0  0  0  0  0  0  0  0  0
  -28.9055  -34.7601   25.0105 C   0  0  0  0  0  0  0  0  0  0  0  0
  -24.5715  -32.6118   20.4858 C   0  0  0  0  0  0  0  0  0  0  0  0
  -26.5671  -34.0152   21.0483 C   0  0  0  0  0  0  0  0  0  0  0  0
  -24.3751  -34.4691   22.1491 C   0  0  0  0  0  0  0  0  0  0  0  0
  -28.2521  -31.5817   26.9972 C   0  0  0  0  0  0  0  0  0  0  0  0
  -29.3802  -22.3985   18.8836 C   0  0  0  0  0  0  0  0  0  0  0  0
  -29.7164  -18.6232   18.4954 C   0  0  0  0  0  0  0  0  0  0  0  0
  -30.1240  -20.0780   18.3353 C   0  0  0  0  0  0  0  0  0  0  0  0
  -25.6887  -32.4107   22.8048 C   0  0  1  0  0  0  0  0  0  0  0  0
  -28.0895  -33.5730   25.4982 C   0  0  2  0  0  0  0  0  0  0  0  0
  -25.3008  -33.3487   21.6270 C   0  0  0  0  0  0  0  0  0  0  0  0
  -26.8696  -15.3101   20.1827 N   0  0  0  0  0  0  0  0  0  0  0  0
  -27.1548  -23.3498   18.8244 N   0  0  0  0  0  0  0  0  0  0  0  0
  -26.3878  -24.7497   20.6159 N   0  0  0  0  0  0  0  0  0  0  0  0
  -28.5955  -23.8125   20.6867 N   0  0  0  0  0  0  0  0  0  0  0  0
  -26.4682  -14.1066   19.7393 N   0  0  0  0  0  0  0  0  0  0  0  0
  -24.5071  -30.3070   23.3541 N   0  0  0  0  0  0  0  0  0  0  0  0
  -29.7596  -14.3026   19.1465 N   0  0  0  0  0  0  0  0  0  0  0  0
  -30.3460  -16.2825   17.9308 N   0  0  0  0  0  0  0  0  0  0  0  0
  -24.5685  -12.7068   19.5332 N   0  0  0  0  0  0  0  0  0  0  0  0
  -22.9220  -16.4116   21.5230 N   0  0  0  0  0  0  0  0  0  0  0  0
  -21.3334  -28.6556   22.6491 N   0  0  0  0  0  0  0  0  0  0  0  0
  -26.3567  -33.0866   23.9118 N   0  0  0  0  0  0  0  0  0  0  0  0
  -28.9367  -32.7689   26.4238 N   0  3  0  0  0  0  0  0  0  0  0  0
  -29.1128  -20.9382   18.9953 N   0  3  0  0  0  0  0  0  0  0  0  0
  -22.3852  -14.3249   20.7380 O   0  0  0  0  0  0  0  0  0  0  0  0
  -23.0313  -29.6221   21.3821 O   0  0  0  0  0  0  0  0  0  0  0  0
  -23.5807  -32.3779   23.8918 O   0  0  0  0  0  0  0  0  0  0  0  0
  -28.2921  -31.8105   23.8582 O   0  0  0  0  0  0  0  0  0  0  0  0
  -30.7967  -16.0863   20.1714 O   0  0  0  0  0  0  0  0  0  0  0  0
  -25.8125  -20.9696   22.9033 O   0  0  0  0  0  0  0  0  0  0  0  0
  -27.8129  -25.1698   22.3893 O   0  0  0  0  0  0  0  0  0  1  0  0
  -29.9035  -22.1805   26.3964 F   0  0  0  0  0  0  0  0  0  0  0  0
  -25.2775  -21.7015   25.5150 F   0  0  0  0  0  0  0  0  0  0  0  0
  1  2  1  0  0  0  0
  1  5  2  0  0  0  0
  2  6  2  0  0  0  0
  3  8  2  0  0  0  0
  3 15  1  0  0  0  0
  4  9  1  0  0  0  0
  4 15  2  0  0  0  0
  5 17  1  0  0  0  0
  6 19  1  0  0  0  0
  7 10  2  0  0  0  0
  7 18  1  0  0  0  0
  8 21  1  0  0  0  0
  9 21  2  0  0  0  0
 10 22  1  0  0  0  0
 11 12  2  0  0  0  0
 11 23  1  0  0  0  0
 12 24  1  0  0  0  0
 13 20  1  0  0  0  0
 13 22  2  0  0  0  0
 14 24  2  0  0  0  0
 14 25  1  0  0  0  0
 15 26  1  0  0  0  0
 16 26  1  0  0  0  0
 16 27  2  0  0  0  0
 16 31  1  0  0  0  0
 17 19  2  0  0  0  0
 17 36  1  0  0  0  0
 18 20  2  0  0  0  0
 18 37  1  0  0  0  0
 19 48  1  0  0  0  0
 20 38  1  0  0  0  0
 21 83  1  0  0  0  0
 22 84  1  0  0  0  0
 23 25  2  0  0  0  0
 23 83  1  0  0  0  0
 24 85  1  0  0  0  0
 25 86  1  0  0  0  0
 26 64  2  0  0  0  0
 27 68  1  0  0  0  0
 27 72  1  0  0  0  0
 28 52  1  0  0  0  0
 28 65  1  0  0  0  0
 28 66  2  0  0  0  0
 29 58  1  0  0  0  0
 29 65  2  0  0  0  0
 29 67  1  0  0  0  0
 30 66  1  0  0  0  0
 30 67  2  0  0  0  0
 30 84  1  0  0  0  0
 31 73  1  0  0  0  0
 31 78  2  0  0  0  0
 32 49  1  0  0  0  0
 32 74  1  0  0  0  0
 32 79  2  0  0  0  0
 33 61  1  0  0  0  0
 33 69  1  0  0  0  0
 33 80  2  0  0  0  0
 34 62  1  0  0  0  0
 34 75  1  0  0  0  0
 34 81  2  0  0  0  0
 35 70  1  0  0  0  0
 35 71  1  0  0  0  0
 35 82  2  0  0  0  0
 36 39  1  0  0  0  0
 37 49  1  0  0  0  0
 38 69  1  0  0  0  0
 39 42  1  0  0  0  0
 40 43  1  0  0  0  0
 40 45  1  0  0  0  0
 41 44  1  0  0  0  0
 41 46  1  0  0  0  0
 42 48  1  0  0  0  0
 43 50  1  0  0  0  0
 44 51  1  0  0  0  0
 45 70  1  0  0  0  0
 46 71  1  0  0  0  0
 47 50  1  0  0  0  0
 47 70  1  0  0  0  0
 48 74  1  0  0  0  0
 49 69  1  0  0  0  0
 50 68  1  0  0  0  0
 51 59  1  0  0  0  0
 51 71  1  0  0  0  0
 53 62  1  0  0  0  0
 54 63  1  0  0  0  0
 55 63  1  0  0  0  0
 56 63  1  0  0  0  0
 57 76  1  0  0  0  0
 58 77  1  0  0  0  0
 59 60  1  0  0  0  0
 60 77  1  0  0  0  0
 61 63  1  0  0  0  0
 61 75  1  0  0  0  0
 62 76  1  0  0  0  0
 64 68  1  0  0  0  0
M  CHG  2  76   1  77   1
M  ISO  4  30 101  35 100  71 100  84 101
M  END
> <Batch ID>
0190

> <Smiles>
CNC(C)C(=O)NC(C(=O)N1Cc2cc([101O:1][101c:1]3nc(C)nc(CNCCC4CCC[100N:0]4[100C:0](=O)N4CCCC(n5nc(-c6ccc(Oc7ccc(F)cc7F)cc6)c(C(N)=O)c5N)C4)n3)ccc2CC1C(=O)NC1CCCc2ccccc21)C(C)(C)C

> <Shape>
0.234

> <Color>
0.075

> <Negative vol penalty>
0.000

$$$$

  -OEChem-04052323243D

 88 97  0     1  0  0  0  0  0999 V2000
  -28.2009  -17.5589   21.0102 C   0  0  0  0  0  0  0  0  0  0  0  0
  -26.9848  -18.2336   20.9744 C   0  0  0  0  0  0  0  0  0  0  0  0
  -23.3934  -14.0194   19.9220 C   0  0  0  0  0  0  0  0  0  0  0  0
  -24.8559  -14.4265   21.8014 C   0  0  0  0  0  0  0  0  0  0  0  0
  -29.3933  -18.2772   21.0878 C   0  0  0  0  0  0  0  0  0  0  0  0
  -26.9604  -19.6271   21.0172 C   0  0  0  0  0  0  0  0  0  0  0  0
  -23.2163  -25.2230   18.5709 C   0  0  0  0  0  0  0  0  0  0  0  0
  -24.2808  -13.0574   19.4397 C   0  0  0  0  0  0  0  0  0  0  0  0
  -25.7434  -13.4644   21.3192 C   0  0  0  0  0  0  0  0  0  0  0  0
  -22.5825  -26.3776   19.0281 C   0  0  0  0  0  0  0  0  0  0  0  0
  -28.1298  -13.2493   18.9339 C   0  0  0  0  0  0  0  0  0  0  0  0
  -29.4884  -13.5652   18.9294 C   0  0  0  0  0  0  0  0  0  0  0  0
  -24.7086  -27.5161   19.0818 C   0  0  0  0  0  0  0  0  0  0  0  0
  -29.9292  -11.6900   20.3876 C   0  0  0  0  0  0  0  0  0  0  0  0
  -23.6810  -14.7040   21.1028 C   0  0  0  0  0  0  0  0  0  0  0  0
  -21.6874  -15.4949   22.4840 C   0  0  0  0  0  0  0  0  0  0  0  0
  -29.3840  -19.6806   21.1218 C   0  0  0  0  0  0  0  0  0  0  0  0
  -24.6048  -25.2029   18.3758 C   0  0  0  0  0  0  0  0  0  0  0  0
  -28.1537  -20.3649   21.0967 C   0  0  0  0  0  0  0  0  0  0  0  0
  -25.3572  -26.3607   18.6196 C   0  0  0  0  0  0  0  0  0  0  0  0
  -19.2353  -28.0259   23.2618 C   0  0  0  0  0  0  0  0  0  0  0  0
  -25.4558  -12.7799   20.1383 C   0  0  0  0  0  0  0  0  0  0  0  0
  -23.3291  -27.5235   19.2863 C   0  0  0  0  0  0  0  0  0  0  0  0
  -27.6709  -12.1538   19.6653 C   0  0  0  0  0  0  0  0  0  0  0  0
  -30.3881  -12.7855   19.6562 C   0  0  0  0  0  0  0  0  0  0  0  0
  -28.5706  -11.3741   20.3921 C   0  0  0  0  0  0  0  0  0  0  0  0
  -22.7649  -15.6983   21.6012 C   0  0  0  0  0  0  0  0  0  0  0  0
  -18.0284  -28.4705   22.7617 C   0  0  0  0  0  0  0  0  0  0  0  0
  -19.5768  -26.7300   22.9329 C   0  0  0  0  0  0  0  0  0  0  0  0
  -21.1351  -16.7422   22.6447 C   0  0  0  0  0  0  0  0  0  0  0  0
  -17.6548  -26.4708   21.7473 C   0  0  0  0  0  0  0  0  0  0  0  0
  -21.2269  -14.2867   23.1034 C   0  0  0  0  0  0  0  0  0  0  0  0
  -27.0219  -23.5597   19.6251 C   0  0  0  0  0  0  0  0  0  0  0  0
  -28.7391  -25.1056   17.3484 C   0  0  0  0  0  0  0  0  0  0  0  0
  -29.0321  -27.7947   15.2675 C   0  0  0  0  0  0  0  0  0  0  0  0
  -22.9451  -22.1965   23.0663 C   0  0  0  0  0  0  0  0  0  0  0  0
  -30.6962  -20.4123   21.2534 C   0  0  0  0  0  0  0  0  0  0  0  0
  -25.2697  -23.9576   17.8567 C   0  0  0  0  0  0  0  0  0  0  0  0
  -26.8478  -26.3972   18.4068 C   0  0  0  0  0  0  0  0  0  0  0  0
  -30.6015  -21.8982   20.9167 C   0  0  0  0  0  0  0  0  0  0  0  0
  -21.2364  -20.9594   20.0679 C   0  0  0  0  0  0  0  0  0  0  0  0
  -29.3902  -22.5244   21.6004 C   0  0  0  0  0  0  0  0  0  0  0  0
  -21.3737  -19.4460   20.2418 C   0  0  0  0  0  0  0  0  0  0  0  0
  -22.4610  -21.6844   20.6131 C   0  0  0  0  0  0  0  0  0  0  0  0
  -22.9089  -19.8753   22.2212 C   0  0  0  0  0  0  0  0  0  0  0  0
  -21.1147  -23.9686   22.4553 C   0  0  0  0  0  0  0  0  0  0  0  0
  -22.5094  -24.5506   23.9539 C   0  0  0  0  0  0  0  0  0  0  0  0
  -28.0873  -21.8766   21.1162 C   0  0  1  0  0  0  0  0  0  0  0  0
  -26.7584  -23.8942   18.1842 C   0  0  1  0  0  0  0  0  0  0  0  0
  -21.6973  -19.0793   21.7019 C   0  0  2  0  0  0  0  0  0  0  0  0
  -21.0281  -24.8533   23.7061 C   0  0  0  0  0  0  0  0  0  0  0  0
  -17.5529  -29.8562   23.0515 C   0  0  0  0  0  0  0  0  0  0  0  0
  -16.7771  -25.6073   20.9062 C   0  0  0  0  0  0  0  0  0  0  0  0
  -30.5631  -28.8008   13.5525 C   0  0  0  0  0  0  0  0  0  0  0  0
  -30.6141  -26.0329   19.5697 C   0  0  0  0  0  0  0  0  0  0  0  0
  -31.5202  -27.7526   17.9918 C   0  0  0  0  0  0  0  0  0  0  0  0
  -31.7617  -25.3268   17.4628 C   0  0  0  0  0  0  0  0  0  0  0  0
  -26.9642  -27.6315   13.1566 C   0  0  0  0  0  0  0  0  0  0  0  0
  -20.1049  -28.8957   24.1007 C   0  0  0  0  0  0  0  0  0  0  0  0
  -20.8689  -29.9651   23.3165 C   0  0  0  0  0  0  0  0  0  0  0  0
  -22.5449  -30.2875   21.4928 C   0  0  0  0  0  0  0  0  0  0  0  0
  -23.4725  -29.5187   20.5727 C   0  0  0  0  0  0  0  0  0  1  0  0
  -29.4871  -26.4150   17.2785 C   0  0  1  0  0  0  0  0  0  0  0  0
  -29.3661  -27.8933   13.7899 C   0  0  2  0  0  0  0  0  0  0  0  0
  -30.8180  -26.3809   18.0817 C   0  0  0  0  0  0  0  0  0  0  0  0
  -22.8913  -16.9742   21.2271 N   0  0  0  0  0  0  0  0  0  0  0  0
  -17.2101  -27.7169   21.9983 N   0  0  0  0  0  0  0  0  0  0  0  0
  -18.8074  -25.9213   22.1750 N   0  0  0  0  0  0  0  0  0  0  0  0
  -21.8860  -17.5839   21.8780 N   0  0  0  0  0  0  0  0  0  0  0  0
  -27.4527  -25.1527   17.9041 N   0  0  0  0  0  0  0  0  0  0  0  0
  -22.7100  -21.3130   22.0095 N   0  0  0  0  0  0  0  0  0  0  0  0
  -22.3394  -23.4303   23.0308 N   0  0  0  0  0  0  0  0  0  0  0  0
  -20.0853  -17.1900   23.3656 N   0  0  0  0  0  0  0  0  0  0  0  0
  -21.9094  -13.0935   22.8298 N   0  0  0  0  0  0  0  0  0  0  0  0
  -20.7895  -26.2218   23.4108 N   0  0  0  0  0  0  0  0  0  0  0  0
  -27.7252  -22.3847   19.8104 N   0  0  0  0  0  0  0  0  0  0  0  0
  -29.6526  -26.7155   15.8604 N   0  0  0  0  0  0  0  0  0  0  0  0
  -28.2050  -28.4390   13.0317 N   0  3  0  0  0  0  0  0  0  0  0  0
  -21.7941  -29.3278   22.3473 N   0  3  0  0  0  0  0  0  0  0  0  0
  -20.2295  -14.2629   23.8638 O   0  0  0  0  0  0  0  0  0  0  0  0
  -26.6185  -24.3126   20.5038 O   0  0  0  0  0  0  0  0  0  0  0  0
  -29.2736  -24.0802   16.9189 O   0  0  0  0  0  0  0  0  0  0  0  0
  -28.2976  -28.5971   15.8394 O   0  0  0  0  0  0  0  0  0  0  0  0
  -23.6515  -21.8826   24.0337 O   0  0  0  0  0  0  0  0  0  0  0  0
  -26.3219  -11.8410   19.6682 O   0  0  0  0  0  0  0  0  0  0  0  0
  -22.7087  -28.6598   19.7365 O   0  0  0  0  0  0  0  0  0  1  0  0
  -31.6930  -13.0881   19.6506 F   0  0  0  0  0  0  0  0  0  0  0  0
  -28.1358  -10.3197   21.0957 F   0  0  0  0  0  0  0  0  0  0  0  0
  1  2  1  0  0  0  0
  1  5  2  0  0  0  0
  2  6  2  0  0  0  0
  3  8  2  0  0  0  0
  3 15  1  0  0  0  0
  4  9  1  0  0  0  0
  4 15  2  0  0  0  0
  5 17  1  0  0  0  0
  6 19  1  0  0  0  0
  7 10  2  0  0  0  0
  7 18  1  0  0  0  0
  8 22  1  0  0  0  0
  9 22  2  0  0  0  0
 10 23  1  0  0  0  0
 11 12  2  0  0  0  0
 11 24  1  0  0  0  0
 12 25  1  0  0  0  0
 13 20  1  0  0  0  0
 13 23  2  0  0  0  0
 14 25  2  0  0  0  0
 14 26  1  0  0  0  0
 15 27  1  0  0  0  0
 16 27  1  0  0  0  0
 16 30  2  0  0  0  0
 16 32  1  0  0  0  0
 17 19  2  0  0  0  0
 17 37  1  0  0  0  0
 18 20  2  0  0  0  0
 18 38  1  0  0  0  0
 19 48  1  0  0  0  0
 20 39  1  0  0  0  0
 21 28  1  0  0  0  0
 21 29  2  0  0  0  0
 21 59  1  0  0  0  0
 22 85  1  0  0  0  0
 23 86  1  0  0  0  0
 24 26  2  0  0  0  0
 24 85  1  0  0  0  0
 25 87  1  0  0  0  0
 26 88  1  0  0  0  0
 27 66  2  0  0  0  0
 28 52  1  0  0  0  0
 28 67  2  0  0  0  0
 29 68  1  0  0  0  0
 29 75  1  0  0  0  0
 30 69  1  0  0  0  0
 30 73  1  0  0  0  0
 31 53  1  0  0  0  0
 31 67  1  0  0  0  0
 31 68  2  0  0  0  0
 32 74  1  0  0  0  0
 32 80  2  0  0  0  0
 33 49  1  0  0  0  0
 33 76  1  0  0  0  0
 33 81  2  0  0  0  0
 34 63  1  0  0  0  0
 34 70  1  0  0  0  0
 34 82  2  0  0  0  0
 35 64  1  0  0  0  0
 35 77  1  0  0  0  0
 35 83  2  0  0  0  0
 36 71  1  0  0  0  0
 36 72  1  0  0  0  0
 36 84  2  0  0  0  0
 37 40  1  0  0  0  0
 38 49  1  0  0  0  0
 39 70  1  0  0  0  0
 40 42  1  0  0  0  0
 41 43  1  0  0  0  0
 41 44  1  0  0  0  0
 42 48  1  0  0  0  0
 43 50  1  0  0  0  0
 44 71  1  0  0  0  0
 45 50  1  0  0  0  0
 45 71  1  0  0  0  0
 46 51  1  0  0  0  0
 46 72  1  0  0  0  0
 47 51  1  0  0  0  0
 47 72  1  0  0  0  0
 48 76  1  0  0  0  0
 49 70  1  0  0  0  0
 50 69  1  0  0  0  0
 51 75  1  0  0  0  0
 54 64  1  0  0  0  0
 55 65  1  0  0  0  0
 56 65  1  0  0  0  0
 57 65  1  0  0  0  0
 58 78  1  0  0  0  0
 59 60  1  0  0  0  0
 60 79  1  0  0  0  0
 61 62  1  0  0  0  0
 61 79  1  0  0  0  0
 62 86  1  0  0  0  0
 63 65  1  0  0  0  0
 63 77  1  0  0  0  0
 64 78  1  0  0  0  0
 66 69  1  0  0  0  0
M  CHG  2  78   1  79   1
M  ISO  4  36 100  62 101  72 100  86 101
M  END
> <Batch ID>
0190

> <Smiles>
CNC(C)C(=O)NC(C(=O)N1Cc2cc([101O:1][101CH2:1]CNCCc3c(C)nc(C)nc3NC3C[100N:0]([100C:0](=O)N4CCCC(n5nc(-c6ccc(Oc7ccc(F)cc7F)cc6)c(C(N)=O)c5N)C4)C3)ccc2CC1C(=O)NC1CCCc2ccccc21)C(C)(C)C

> <Shape>
0.242

> <Color>
0.056

> <Negative vol penalty>
0.000

$$$$

  -OEChem-04052323243D

 82 91  0     1  0  0  0  0  0999 V2000
  -24.7155  -32.1636   24.7019 C   0  0  0  0  0  0  0  0  0  0  0  0
  -24.9917  -30.8297   24.4197 C   0  0  0  0  0  0  0  0  0  0  0  0
  -23.0500   -9.8545   19.9229 C   0  0  0  0  0  0  0  0  0  0  0  0
  -23.9323   -9.7454   22.1694 C   0  0  0  0  0  0  0  0  0  0  0  0
  -23.4093  -32.6405   24.6003 C   0  0  0  0  0  0  0  0  0  0  0  0
  -23.9615  -29.9714   24.0368 C   0  0  0  0  0  0  0  0  0  0  0  0
  -25.2280  -27.0523   20.0973 C   0  0  0  0  0  0  0  0  0  0  0  0
  -22.3468   -8.6699   20.1415 C   0  0  0  0  0  0  0  0  0  0  0  0
  -23.2289   -8.5608   22.3881 C   0  0  0  0  0  0  0  0  0  0  0  0
  -26.0404  -25.9495   20.3572 C   0  0  0  0  0  0  0  0  0  0  0  0
  -20.0567   -7.6465   23.1102 C   0  0  0  0  0  0  0  0  0  0  0  0
  -19.3651   -7.5181   24.3146 C   0  0  0  0  0  0  0  0  0  0  0  0
  -24.0989  -24.5182   20.3200 C   0  0  0  0  0  0  0  0  0  0  0  0
  -20.6875   -5.5730   24.8666 C   0  0  0  0  0  0  0  0  0  0  0  0
  -29.1023  -21.9041   20.1317 C   0  0  0  0  0  0  0  0  0  0  0  0
  -28.3079  -21.8935   22.3283 C   0  0  0  0  0  0  0  0  0  0  0  0
  -23.8429  -10.3922   20.9368 C   0  0  0  0  0  0  0  0  0  0  0  0
  -24.1211  -12.9279   20.9516 C   0  0  0  0  0  0  0  0  0  0  0  0
  -22.3641  -31.7900   24.2066 C   0  0  0  0  0  0  0  0  0  0  0  0
  -23.8413  -26.8977   19.9574 C   0  0  0  0  0  0  0  0  0  0  0  0
  -22.6398  -30.4371   23.9311 C   0  0  0  0  0  0  0  0  0  0  0  0
  -23.2715  -25.6203   20.0558 C   0  0  0  0  0  0  0  0  0  0  0  0
  -28.3639  -22.5386   21.1098 C   0  0  0  0  0  0  0  0  0  0  0  0
  -22.4362   -8.0231   21.3741 C   0  0  0  0  0  0  0  0  0  0  0  0
  -25.4755  -24.6826   20.4714 C   0  0  0  0  0  0  0  0  0  0  0  0
  -21.0636   -6.7381   22.7838 C   0  0  0  0  0  0  0  0  0  0  0  0
  -19.6806   -6.4814   25.1929 C   0  0  0  0  0  0  0  0  0  0  0  0
  -21.3791   -5.7013   23.6620 C   0  0  0  0  0  0  0  0  0  0  0  0
  -24.5701  -11.6155   20.7114 C   0  0  0  0  0  0  0  0  0  0  0  0
  -25.1750  -13.7253   20.5774 C   0  0  0  0  0  0  0  0  0  0  0  0
  -29.6105  -20.2013   21.5493 C   0  0  0  0  0  0  0  0  0  0  0  0
  -22.8638  -13.3855   21.4671 C   0  0  0  0  0  0  0  0  0  0  0  0
  -21.2944  -27.9814   21.5202 C   0  0  0  0  0  0  0  0  0  0  0  0
  -19.6819  -26.5364   19.1049 C   0  0  0  0  0  0  0  0  0  0  0  0
  -19.6469  -24.1511   16.6643 C   0  0  0  0  0  0  0  0  0  0  0  0
  -30.6283  -14.8824   20.5221 C   0  0  0  0  0  0  0  0  0  0  0  0
  -20.9606  -32.3397   24.1567 C   0  0  0  0  0  0  0  0  0  0  0  0
  -22.9820  -28.0935   19.6507 C   0  0  0  0  0  0  0  0  0  0  0  0
  -21.7907  -25.3979   19.8937 C   0  0  0  0  0  0  0  0  0  0  0  0
  -19.9872  -31.4552   23.3818 C   0  0  0  0  0  0  0  0  0  0  0  0
  -29.4280  -12.6030   18.0777 C   0  0  0  0  0  0  0  0  0  0  0  0
  -20.1430  -29.9965   23.7997 C   0  0  0  0  0  0  0  0  0  0  0  0
  -28.0217  -12.2488   18.5643 C   0  0  0  0  0  0  0  0  0  0  0  0
  -30.4009  -12.7763   19.2419 C   0  0  0  0  0  0  0  0  0  0  0  0
  -28.5601  -13.3754   20.7646 C   0  0  0  0  0  0  0  0  0  0  0  0
  -29.8499  -17.9642   22.6757 C   0  0  0  0  0  0  0  0  0  0  0  0
  -30.7726  -18.1022   20.7918 C   0  0  0  0  0  0  0  0  0  0  0  0
  -21.5533  -29.4811   23.4887 C   0  0  1  0  0  0  0  0  0  0  0  0
  -21.5198  -27.8936   20.0373 C   0  0  1  0  0  0  0  0  0  0  0  0
  -27.5289  -13.2460   19.6304 C   0  0  2  0  0  0  0  0  0  0  0  0
  -30.7297  -17.0036   21.8633 C   0  0  0  0  0  0  0  0  0  0  0  0
  -18.1755  -23.1833   14.8767 C   0  0  0  0  0  0  0  0  0  0  0  0
  -18.0820  -25.0451   21.2324 C   0  0  0  0  0  0  0  0  0  0  0  0
  -17.3351  -23.4499   19.4532 C   0  0  0  0  0  0  0  0  0  0  0  0
  -16.7304  -25.8648   19.2945 C   0  0  0  0  0  0  0  0  0  0  0  0
  -21.5495  -24.9066   14.5270 C   0  0  0  0  0  0  0  0  0  0  0  0
  -27.6661  -23.8439   20.8639 C   0  0  0  0  0  0  0  0  0  1  0  0
  -19.1197  -25.1550   18.8708 C   0  0  1  0  0  0  0  0  0  0  0  0
  -19.2468  -24.2128   15.2013 C   0  0  2  0  0  0  0  0  0  0  0  0
  -17.8445  -24.8829   19.7178 C   0  0  0  0  0  0  0  0  0  0  0  0
  -29.7410  -20.7303   20.3178 N   0  0  0  0  0  0  0  0  0  0  0  0
  -28.9213  -20.7193   22.5838 N   0  0  0  0  0  0  0  0  0  0  0  0
  -25.8123  -11.5769   20.2222 N   0  0  0  0  0  0  0  0  0  0  0  0
  -26.1529  -12.8751   20.1520 N   0  0  0  0  0  0  0  0  0  0  0  0
  -30.2667  -18.9726   21.7806 N   0  0  0  0  0  0  0  0  0  0  0  0
  -20.9917  -26.5993   19.6010 N   0  0  0  0  0  0  0  0  0  0  0  0
  -29.8746  -13.7393   20.2125 N   0  0  0  0  0  0  0  0  0  0  0  0
  -25.3513  -15.0637   20.5739 N   0  0  0  0  0  0  0  0  0  0  0  0
  -21.8922  -12.4324   21.8016 N   0  0  0  0  0  0  0  0  0  0  0  0
  -21.6833  -29.1842   22.0782 N   0  0  0  0  0  0  0  0  0  0  0  0
  -18.9175  -25.0351   17.4310 N   0  0  0  0  0  0  0  0  0  0  0  0
  -30.0603  -15.7548   21.4447 N   0  0  0  0  0  0  0  0  0  0  0  0
  -20.4275  -23.9530   14.3299 N   0  3  0  0  0  0  0  0  0  0  0  0
  -22.6035  -14.6041   21.6110 O   0  0  0  0  0  0  0  0  0  0  0  0
  -20.8025  -27.0289   22.1140 O   0  0  0  0  0  0  0  0  0  0  0  0
  -18.9871  -27.5232   18.8498 O   0  0  0  0  0  0  0  0  0  0  0  0
  -20.5167  -23.3918   17.0856 O   0  0  0  0  0  0  0  0  0  0  0  0
  -31.7278  -15.1198   20.0100 O   0  0  0  0  0  0  0  0  0  0  0  0
  -21.7498   -6.8674   21.5879 O   0  0  0  0  0  0  0  0  0  0  0  0
  -26.2661  -23.6045   20.7257 O   0  0  0  0  0  0  0  0  0  1  0  0
  -19.0174   -6.3591   26.3502 F   0  0  0  0  0  0  0  0  0  0  0  0
  -22.3463   -4.8262   23.3545 F   0  0  0  0  0  0  0  0  0  0  0  0
  1  2  1  0  0  0  0
  1  5  2  0  0  0  0
  2  6  2  0  0  0  0
  3  8  2  0  0  0  0
  3 17  1  0  0  0  0
  4  9  1  0  0  0  0
  4 17  2  0  0  0  0
  5 19  1  0  0  0  0
  6 21  1  0  0  0  0
  7 10  2  0  0  0  0
  7 20  1  0  0  0  0
  8 24  1  0  0  0  0
  9 24  2  0  0  0  0
 10 25  1  0  0  0  0
 11 12  2  0  0  0  0
 11 26  1  0  0  0  0
 12 27  1  0  0  0  0
 13 22  1  0  0  0  0
 13 25  2  0  0  0  0
 14 27  2  0  0  0  0
 14 28  1  0  0  0  0
 15 23  1  0  0  0  0
 15 61  2  0  0  0  0
 16 23  2  0  0  0  0
 16 62  1  0  0  0  0
 17 29  1  0  0  0  0
 18 29  1  0  0  0  0
 18 30  2  0  0  0  0
 18 32  1  0  0  0  0
 19 21  2  0  0  0  0
 19 37  1  0  0  0  0
 20 22  2  0  0  0  0
 20 38  1  0  0  0  0
 21 48  1  0  0  0  0
 22 39  1  0  0  0  0
 23 57  1  0  0  0  0
 24 79  1  0  0  0  0
 25 80  1  0  0  0  0
 26 28  2  0  0  0  0
 26 79  1  0  0  0  0
 27 81  1  0  0  0  0
 28 82  1  0  0  0  0
 29 63  2  0  0  0  0
 30 64  1  0  0  0  0
 30 68  1  0  0  0  0
 31 61  1  0  0  0  0
 31 62  2  0  0  0  0
 31 65  1  0  0  0  0
 32 69  1  0  0  0  0
 32 74  2  0  0  0  0
 33 49  1  0  0  0  0
 33 70  1  0  0  0  0
 33 75  2  0  0  0  0
 34 58  1  0  0  0  0
 34 66  1  0  0  0  0
 34 76  2  0  0  0  0
 35 59  1  0  0  0  0
 35 71  1  0  0  0  0
 35 77  2  0  0  0  0
 36 67  1  0  0  0  0
 36 72  1  0  0  0  0
 36 78  2  0  0  0  0
 37 40  1  0  0  0  0
 38 49  1  0  0  0  0
 39 66  1  0  0  0  0
 40 42  1  0  0  0  0
 41 43  1  0  0  0  0
 41 44  1  0  0  0  0
 42 48  1  0  0  0  0
 43 50  1  0  0  0  0
 44 67  1  0  0  0  0
 45 50  1  0  0  0  0
 45 67  1  0  0  0  0
 46 51  1  0  0  0  0
 46 65  1  0  0  0  0
 47 51  1  0  0  0  0
 47 65  1  0  0  0  0
 48 70  1  0  0  0  0
 49 66  1  0  0  0  0
 50 64  1  0  0  0  0
 51 72  1  0  0  0  0
 52 59  1  0  0  0  0
 53 60  1  0  0  0  0
 54 60  1  0  0  0  0
 55 60  1  0  0  0  0
 56 73  1  0  0  0  0
 57 80  1  0  0  0  0
 58 60  1  0  0  0  0
 58 71  1  0  0  0  0
 59 73  1  0  0  0  0
 63 64  1  0  0  0  0
M  CHG  1  73   1
M  ISO  4  36 100  57 101  72 100  80 101
M  END
> <Batch ID>
0190

> <Smiles>
CNC(C)C(=O)NC(C(=O)N1Cc2cc([101O:1][101CH2:1]c3cnc(N4CC([100NH:0][100C:0](=O)N5CCCC(n6nc(-c7ccc(Oc8ccc(F)cc8F)cc7)c(C(N)=O)c6N)C5)C4)nc3)ccc2CC1C(=O)NC1CCCc2ccccc21)C(C)(C)C

> <Shape>
0.299

> <Color>
0.217

> <Negative vol penalty>
0.000

$$$$

  -OEChem-04052323243D

 83 92  0     1  0  0  0  0  0999 V2000
  -26.8841  -24.2721   17.2455 C   0  0  0  0  0  0  0  0  0  0  0  0
  -25.7436  -24.7112   17.9103 C   0  0  0  0  0  0  0  0  0  0  0  0
  -26.9660  -14.3248   22.3987 C   0  0  0  0  0  0  0  0  0  0  0  0
  -26.0603  -14.1541   20.1654 C   0  0  0  0  0  0  0  0  0  0  0  0
  -28.1464  -24.5806   17.7508 C   0  0  0  0  0  0  0  0  0  0  0  0
  -25.8649  -25.4582   19.0815 C   0  0  0  0  0  0  0  0  0  0  0  0
  -22.7576  -29.4560   19.1662 C   0  0  0  0  0  0  0  0  0  0  0  0
  -26.7252  -12.9658   22.6003 C   0  0  0  0  0  0  0  0  0  0  0  0
  -25.8196  -12.7950   20.3669 C   0  0  0  0  0  0  0  0  0  0  0  0
  -21.4178  -29.2148   19.4673 C   0  0  0  0  0  0  0  0  0  0  0  0
  -23.5156  -10.8782   21.9315 C   0  0  0  0  0  0  0  0  0  0  0  0
  -22.2801  -10.3720   21.5276 C   0  0  0  0  0  0  0  0  0  0  0  0
  -21.8046  -29.9340   21.7371 C   0  0  0  0  0  0  0  0  0  0  0  0
  -23.3965   -8.8525   20.0171 C   0  0  0  0  0  0  0  0  0  0  0  0
  -26.6335  -14.9190   21.1813 C   0  0  0  0  0  0  0  0  0  0  0  0
  -28.0499  -16.9120   20.4537 C   0  0  0  0  0  0  0  0  0  0  0  0
  -28.2832  -25.3399   18.9235 C   0  0  0  0  0  0  0  0  0  0  0  0
  -23.6349  -29.9285   20.1529 C   0  0  0  0  0  0  0  0  0  0  0  0
  -27.1302  -25.7760   19.6037 C   0  0  0  0  0  0  0  0  0  0  0  0
  -23.1545  -30.1829   21.4454 C   0  0  0  0  0  0  0  0  0  0  0  0
  -26.1521  -12.2009   21.5844 C   0  0  0  0  0  0  0  0  0  0  0  0
  -20.9418  -29.4511   20.7536 C   0  0  0  0  0  0  0  0  0  0  0  0
  -24.6915  -10.3716   21.3780 C   0  0  0  0  0  0  0  0  0  0  0  0
  -22.2206   -9.3591   20.5705 C   0  0  0  0  0  0  0  0  0  0  0  0
  -24.6319   -9.3587   20.4209 C   0  0  0  0  0  0  0  0  0  0  0  0
  -26.8814  -16.3230   20.9727 C   0  0  0  0  0  0  0  0  0  0  0  0
  -27.7856  -18.2598   20.4569 C   0  0  0  0  0  0  0  0  0  0  0  0
  -17.9917  -26.6109   22.7451 C   0  0  0  0  0  0  0  0  0  0  0  0
  -19.6741  -25.7437   21.5392 C   0  0  0  0  0  0  0  0  0  0  0  0
  -19.2927  -27.9550   21.5051 C   0  0  0  0  0  0  0  0  0  1  0  0
  -29.2655  -16.2959   20.0083 C   0  0  0  0  0  0  0  0  0  0  0  0
  -26.2769  -28.8146   21.5250 C   0  0  0  0  0  0  0  0  0  0  0  0
  -26.3200  -31.7430   22.9197 C   0  0  0  0  0  0  0  0  0  0  0  0
  -24.5781  -34.5035   23.9158 C   0  0  0  0  0  0  0  0  0  0  0  0
  -22.9437  -21.3992   20.0996 C   0  0  0  0  0  0  0  0  0  0  0  0
  -29.6681  -25.6081   19.4572 C   0  0  0  0  0  0  0  0  0  0  0  0
  -25.0711  -30.2090   19.8052 C   0  0  0  0  0  0  0  0  0  0  0  0
  -24.0508  -30.7094   22.5352 C   0  0  0  0  0  0  0  0  0  0  0  0
  -29.7140  -26.7228   20.4992 C   0  0  0  0  0  0  0  0  0  0  0  0
  -25.2309  -21.5773   22.7597 C   0  0  0  0  0  0  0  0  0  0  0  0
  -28.6017  -26.5392   21.5267 C   0  0  0  0  0  0  0  0  0  0  0  0
  -26.0367  -20.2951   22.5538 C   0  0  0  0  0  0  0  0  0  0  0  0
  -23.7380  -21.3630   22.5054 C   0  0  0  0  0  0  0  0  0  0  0  0
  -21.5407  -24.8307   20.1938 C   0  0  0  0  0  0  0  0  0  0  0  0
  -20.5064  -23.4851   22.0284 C   0  0  0  0  0  0  0  0  0  0  0  0
  -21.8872  -23.5355   19.4641 C   0  0  0  0  0  0  0  0  0  0  0  0
  -20.8595  -22.2159   21.2611 C   0  0  0  0  0  0  0  0  0  0  0  0
  -24.2393  -19.4806   20.9812 C   0  0  0  0  0  0  0  0  0  0  0  0
  -27.2209  -26.6096   20.8634 C   0  0  1  0  0  0  0  0  0  0  0  0
  -25.9927  -30.2013   21.0209 C   0  0  1  0  0  0  0  0  0  0  0  0
  -25.7510  -19.6789   21.1728 C   0  0  2  0  0  0  0  0  0  0  0  0
  -16.8475  -26.4280   23.6831 C   0  0  0  0  0  0  0  0  0  0  0  0
  -24.8797  -36.7157   25.0616 C   0  0  0  0  0  0  0  0  0  0  0  0
  -26.5110  -30.3199   25.6120 C   0  0  0  0  0  0  0  0  0  0  0  0
  -25.8570  -32.4696   26.7161 C   0  0  0  0  0  0  0  0  0  0  0  0
  -27.9686  -32.3403   25.3943 C   0  0  0  0  0  0  0  0  0  0  0  0
  -23.6567  -35.9951   21.5315 C   0  0  0  0  0  0  0  0  0  0  0  0
  -25.7477  -32.3325   24.1862 C   0  0  1  0  0  0  0  0  0  0  0  0
  -24.8462  -35.9858   23.7278 C   0  0  2  0  0  0  0  0  0  0  0  0
  -26.5044  -31.8538   25.4573 C   0  0  0  0  0  0  0  0  0  0  0  0
  -25.9445  -17.2229   21.2833 N   0  0  0  0  0  0  0  0  0  0  0  0
  -18.6585  -25.5027   22.3840 N   0  0  0  0  0  0  0  0  0  0  0  0
  -18.2507  -27.8670   22.3473 N   0  0  0  0  0  0  0  0  0  0  0  0
  -20.0493  -26.9398   21.0580 N   0  0  0  0  0  0  0  0  0  0  0  0
  -26.5241  -18.3911   20.9585 N   0  0  0  0  0  0  0  0  0  0  0  0
  -20.4178  -24.6343   21.1170 N   0  0  0  0  0  0  0  0  0  0  0  0
  -25.4485  -30.9620   22.1476 N   0  0  0  0  0  0  0  0  0  0  0  0
  -23.5177  -20.7368   21.1949 N   0  0  0  0  0  0  0  0  0  0  0  0
  -22.0171  -22.4139   20.3864 N   0  0  0  0  0  0  0  0  0  0  0  0
  -28.5116  -19.3336   20.0797 N   0  0  0  0  0  0  0  0  0  0  0  0
  -29.3698  -14.8997   20.0735 N   0  0  0  0  0  0  0  0  0  0  0  0
  -26.8620  -27.9843   20.5881 N   0  0  0  0  0  0  0  0  0  0  0  0
  -25.7485  -33.7794   23.9997 N   0  0  0  0  0  0  0  0  0  0  0  0
  -23.7846  -36.6010   22.8819 N   0  3  0  0  0  0  0  0  0  0  0  0
  -30.2368  -16.9648   19.5810 O   0  0  0  0  0  0  0  0  0  0  0  0
  -25.9883  -28.5203   22.6790 O   0  0  0  0  0  0  0  0  0  0  0  0
  -27.4949  -31.9731   22.6227 O   0  0  0  0  0  0  0  0  0  0  0  0
  -23.4439  -34.0353   23.9854 O   0  0  0  0  0  0  0  0  0  0  0  0
  -23.2419  -21.1059   18.9351 O   0  0  0  0  0  0  0  0  0  0  0  0
  -25.9173  -10.8746   21.7806 O   0  0  0  0  0  0  0  0  0  0  0  0
  -19.6180  -29.2129   21.0541 O   0  0  0  0  0  0  0  0  0  1  0  0
  -21.0342   -8.8721   20.1839 F   0  0  0  0  0  0  0  0  0  0  0  0
  -25.7583   -8.8672   19.8865 F   0  0  0  0  0  0  0  0  0  0  0  0
  1  2  1  0  0  0  0
  1  5  2  0  0  0  0
  2  6  2  0  0  0  0
  3  8  2  0  0  0  0
  3 15  1  0  0  0  0
  4  9  1  0  0  0  0
  4 15  2  0  0  0  0
  5 17  1  0  0  0  0
  6 19  1  0  0  0  0
  7 10  2  0  0  0  0
  7 18  1  0  0  0  0
  8 21  1  0  0  0  0
  9 21  2  0  0  0  0
 10 22  1  0  0  0  0
 11 12  2  0  0  0  0
 11 23  1  0  0  0  0
 12 24  1  0  0  0  0
 13 20  1  0  0  0  0
 13 22  2  0  0  0  0
 14 24  2  0  0  0  0
 14 25  1  0  0  0  0
 15 26  1  0  0  0  0
 16 26  1  0  0  0  0
 16 27  2  0  0  0  0
 16 31  1  0  0  0  0
 17 19  2  0  0  0  0
 17 36  1  0  0  0  0
 18 20  2  0  0  0  0
 18 37  1  0  0  0  0
 19 49  1  0  0  0  0
 20 38  1  0  0  0  0
 21 80  1  0  0  0  0
 22 81  1  0  0  0  0
 23 25  2  0  0  0  0
 23 80  1  0  0  0  0
 24 82  1  0  0  0  0
 25 83  1  0  0  0  0
 26 61  2  0  0  0  0
 27 65  1  0  0  0  0
 27 70  1  0  0  0  0
 28 52  1  0  0  0  0
 28 62  1  0  0  0  0
 28 63  2  0  0  0  0
 29 62  2  0  0  0  0
 29 64  1  0  0  0  0
 29 66  1  0  0  0  0
 30 63  1  0  0  0  0
 30 64  2  0  0  0  0
 30 81  1  0  0  0  0
 31 71  1  0  0  0  0
 31 75  2  0  0  0  0
 32 50  1  0  0  0  0
 32 72  1  0  0  0  0
 32 76  2  0  0  0  0
 33 58  1  0  0  0  0
 33 67  1  0  0  0  0
 33 77  2  0  0  0  0
 34 59  1  0  0  0  0
 34 73  1  0  0  0  0
 34 78  2  0  0  0  0
 35 68  1  0  0  0  0
 35 69  1  0  0  0  0
 35 79  2  0  0  0  0
 36 39  1  0  0  0  0
 37 50  1  0  0  0  0
 38 67  1  0  0  0  0
 39 41  1  0  0  0  0
 40 42  1  0  0  0  0
 40 43  1  0  0  0  0
 41 49  1  0  0  0  0
 42 51  1  0  0  0  0
 43 68  1  0  0  0  0
 44 46  1  0  0  0  0
 44 66  1  0  0  0  0
 45 47  1  0  0  0  0
 45 66  1  0  0  0  0
 46 69  1  0  0  0  0
 47 69  1  0  0  0  0
 48 51  1  0  0  0  0
 48 68  1  0  0  0  0
 49 72  1  0  0  0  0
 50 67  1  0  0  0  0
 51 65  1  0  0  0  0
 53 59  1  0  0  0  0
 54 60  1  0  0  0  0
 55 60  1  0  0  0  0
 56 60  1  0  0  0  0
 57 74  1  0  0  0  0
 58 60  1  0  0  0  0
 58 73  1  0  0  0  0
 59 74  1  0  0  0  0
 61 65  1  0  0  0  0
M  CHG  1  74   1
M  ISO  4  30 101  35 100  69 100  81 101
M  END
> <Batch ID>
0190

> <Smiles>
CNC(C)C(=O)NC(C(=O)N1Cc2cc([101O:1][101c:1]3nc(C)nc(N4CC[100N:0]([100C:0](=O)N5CCCC(n6nc(-c7ccc(Oc8ccc(F)cc8F)cc7)c(C(N)=O)c6N)C5)CC4)n3)ccc2CC1C(=O)NC1CCCc2ccccc21)C(C)(C)C

> <Shape>
0.311

> <Color>
0.082

> <Negative vol penalty>
0.000

$$$$

  -OEChem-04052323243D

 87 96  0     1  0  0  0  0  0999 V2000
  -26.1492  -38.2232   19.2896 C   0  0  0  0  0  0  0  0  0  0  0  0
  -26.3002  -37.0533   18.5519 C   0  0  0  0  0  0  0  0  0  0  0  0
  -24.6177   -8.9835   21.8909 C   0  0  0  0  0  0  0  0  0  0  0  0
  -23.0670   -9.8123   20.2340 C   0  0  0  0  0  0  0  0  0  0  0  0
  -26.3329  -38.2031   20.6715 C   0  0  0  0  0  0  0  0  0  0  0  0
  -26.6361  -35.8629   19.1957 C   0  0  0  0  0  0  0  0  0  0  0  0
  -25.5591  -28.7932   18.7769 C   0  0  0  0  0  0  0  0  0  0  0  0
  -23.5758   -8.3115   22.5299 C   0  0  0  0  0  0  0  0  0  0  0  0
  -22.0250   -9.1403   20.8730 C   0  0  0  0  0  0  0  0  0  0  0  0
  -26.2716  -27.5952   18.7439 C   0  0  0  0  0  0  0  0  0  0  0  0
  -21.8159   -5.4571   22.0959 C   0  0  0  0  0  0  0  0  0  0  0  0
  -22.0428   -4.1403   22.4961 C   0  0  0  0  0  0  0  0  0  0  0  0
  -26.4864  -27.6637   21.1456 C   0  0  0  0  0  0  0  0  0  0  0  0
  -21.6143   -4.7638   24.7906 C   0  0  0  0  0  0  0  0  0  0  0  0
  -24.3633   -9.7340   20.7429 C   0  0  0  0  0  0  0  0  0  0  0  0
  -26.2687   -9.9341   19.0585 C   0  0  0  0  0  0  0  0  0  0  0  0
  -26.6617  -37.0098   21.3338 C   0  0  0  0  0  0  0  0  0  0  0  0
  -25.3139  -29.4421   19.9957 C   0  0  0  0  0  0  0  0  0  0  0  0
  -26.8256  -35.8271   20.5876 C   0  0  0  0  0  0  0  0  0  0  0  0
  -25.7684  -28.8684   21.1917 C   0  0  0  0  0  0  0  0  0  0  0  0
  -28.0034  -22.9095   20.6025 C   0  0  0  0  0  0  0  0  0  0  0  0
  -22.2794   -8.3899   22.0210 C   0  0  0  0  0  0  0  0  0  0  0  0
  -26.7379  -27.0318   19.9280 C   0  0  0  0  0  0  0  0  0  0  0  0
  -21.4882   -6.4273   23.0431 C   0  0  0  0  0  0  0  0  0  0  0  0
  -21.9419   -3.7936   23.8434 C   0  0  0  0  0  0  0  0  0  0  0  0
  -21.3874   -6.0806   24.3904 C   0  0  0  0  0  0  0  0  0  0  0  0
  -25.4391  -10.4288   20.0827 C   0  0  0  0  0  0  0  0  0  0  0  0
  -28.6554  -24.0840   20.9184 C   0  0  0  0  0  0  0  0  0  0  0  0
  -28.8142  -21.8093   20.4117 C   0  0  0  0  0  0  0  0  0  0  0  0
  -27.1229  -10.9721   18.7771 C   0  0  0  0  0  0  0  0  0  0  0  0
  -30.6754  -23.0450   20.8314 C   0  0  0  0  0  0  0  0  0  0  0  0
  -26.2672   -8.6510   18.4188 C   0  0  0  0  0  0  0  0  0  0  0  0
  -26.1012  -32.2619   21.2336 C   0  0  0  0  0  0  0  0  0  0  0  0
  -24.1399  -31.3162   23.6380 C   0  0  0  0  0  0  0  0  0  0  0  0
  -22.6621  -28.7478   25.3310 C   0  0  0  0  0  0  0  0  0  0  0  0
  -26.7293  -16.7235   19.2179 C   0  0  0  0  0  0  0  0  0  0  0  0
  -26.8966  -37.0471   22.8231 C   0  0  0  0  0  0  0  0  0  0  0  0
  -24.5207  -30.7199   20.0169 C   0  0  0  0  0  0  0  0  0  0  0  0
  -25.5141  -29.5149   22.5281 C   0  0  0  0  0  0  0  0  0  0  0  0
  -26.8837  -35.6676   23.4765 C   0  0  0  0  0  0  0  0  0  0  0  0
  -29.1950  -14.7781   20.7911 C   0  0  0  0  0  0  0  0  0  0  0  0
  -27.7273  -34.6864   22.6688 C   0  0  0  0  0  0  0  0  0  0  0  0
  -28.5886  -13.3789   20.6895 C   0  0  0  0  0  0  0  0  0  0  0  0
  -28.1421  -15.8361   21.1249 C   0  0  0  0  0  0  0  0  0  0  0  0
  -28.5555  -19.9270   18.8249 C   0  0  0  0  0  0  0  0  0  0  0  0
  -27.7980  -19.7156   21.1971 C   0  0  0  0  0  0  0  0  0  0  0  0
  -27.4752  -18.9315   18.4104 C   0  0  0  0  0  0  0  0  0  0  0  0
  -26.7242  -18.7348   20.7393 C   0  0  0  0  0  0  0  0  0  0  0  0
  -26.3740  -14.4383   20.1060 C   0  0  0  0  0  0  0  0  0  0  0  0
  -27.1652  -34.5110   21.2529 C   0  0  1  0  0  0  0  0  0  0  0  0
  -24.7734  -31.5593   21.2655 C   0  0  1  0  0  0  0  0  0  0  0  0
  -27.3984  -13.3622   19.7139 C   0  0  2  0  0  0  0  0  0  0  0  0
  -32.1591  -23.1203   20.9586 C   0  0  0  0  0  0  0  0  0  0  0  0
  -21.1428  -28.2852   27.2740 C   0  0  0  0  0  0  0  0  0  0  0  0
  -26.4371  -31.8798   25.5654 C   0  0  0  0  0  0  0  0  0  0  0  0
  -25.2245  -30.5348   27.2942 C   0  0  0  0  0  0  0  0  0  0  0  0
  -24.1887  -32.6117   26.3799 C   0  0  0  0  0  0  0  0  0  0  0  0
  -24.5685  -22.7576   18.9229 C   0  0  0  0  0  0  0  0  0  0  0  0
  -20.6404  -27.4623   23.5934 C   0  0  0  0  0  0  0  0  0  0  0  0
  -26.5213  -22.8442   20.4778 C   0  0  0  0  0  0  0  0  0  0  0  0
  -27.8826  -25.3412   21.1476 C   0  0  0  0  0  0  0  0  0  1  0  0
  -24.3199  -30.5481   24.9251 C   0  0  1  0  0  0  0  0  0  0  0  0
  -21.2272  -28.5277   25.7750 C   0  0  2  0  0  0  0  0  0  0  0  0
  -25.0492  -31.3822   26.0160 C   0  0  0  0  0  0  0  0  0  0  0  0
  -25.7394  -11.6835   20.4286 N   0  0  0  0  0  0  0  0  0  0  0  0
  -29.9950  -24.1880   21.0414 N   0  0  0  0  0  0  0  0  0  0  0  0
  -30.1588  -21.8413   20.5185 N   0  0  0  0  0  0  0  0  0  0  0  0
  -26.7672  -11.9859   19.6173 N   0  0  0  0  0  0  0  0  0  0  0  0
  -28.2105  -20.5873   20.0885 N   0  0  0  0  0  0  0  0  0  0  0  0
  -24.7393  -30.7664   22.4961 N   0  0  0  0  0  0  0  0  0  0  0  0
  -27.0089  -15.7550   20.1935 N   0  0  0  0  0  0  0  0  0  0  0  0
  -27.1093  -18.0435   19.5072 N   0  0  0  0  0  0  0  0  0  0  0  0
  -28.1362  -11.1075   17.8954 N   0  0  0  0  0  0  0  0  0  0  0  0
  -25.3220   -7.7009   18.8291 N   0  0  0  0  0  0  0  0  0  0  0  0
  -26.0094  -33.6402   21.2722 N   0  0  0  0  0  0  0  0  0  0  0  0
  -22.9918  -30.0865   25.3143 N   0  0  0  0  0  0  0  0  0  0  0  0
  -26.0471  -22.7659   19.0674 N   0  3  0  0  0  0  0  0  0  0  0  0
  -20.6433  -27.3489   25.0747 N   0  3  0  0  0  0  0  0  0  0  0  0
  -27.0905   -8.3500   17.5215 O   0  0  0  0  0  0  0  0  0  0  0  0
  -27.1326  -31.6024   21.1795 O   0  0  0  0  0  0  0  0  0  0  0  0
  -23.4852  -32.3617   23.6443 O   0  0  0  0  0  0  0  0  0  0  0  0
  -23.4162  -27.8243   25.0327 O   0  0  0  0  0  0  0  0  0  0  0  0
  -26.1765  -16.4286   18.1510 O   0  0  0  0  0  0  0  0  0  0  0  0
  -21.2625   -7.7340   22.6442 O   0  0  0  0  0  0  0  0  0  0  0  0
  -27.4391  -25.8546   19.8983 O   0  0  0  0  0  0  0  0  0  1  0  0
  -22.1583   -2.5288   24.2273 F   0  0  0  0  0  0  0  0  0  0  0  0
  -21.0718   -7.0080   25.3048 F   0  0  0  0  0  0  0  0  0  0  0  0
  1  2  1  0  0  0  0
  1  5  2  0  0  0  0
  2  6  2  0  0  0  0
  3  8  2  0  0  0  0
  3 15  1  0  0  0  0
  4  9  1  0  0  0  0
  4 15  2  0  0  0  0
  5 17  1  0  0  0  0
  6 19  1  0  0  0  0
  7 10  2  0  0  0  0
  7 18  1  0  0  0  0
  8 22  1  0  0  0  0
  9 22  2  0  0  0  0
 10 23  1  0  0  0  0
 11 12  2  0  0  0  0
 11 24  1  0  0  0  0
 12 25  1  0  0  0  0
 13 20  1  0  0  0  0
 13 23  2  0  0  0  0
 14 25  2  0  0  0  0
 14 26  1  0  0  0  0
 15 27  1  0  0  0  0
 16 27  1  0  0  0  0
 16 30  2  0  0  0  0
 16 32  1  0  0  0  0
 17 19  2  0  0  0  0
 17 37  1  0  0  0  0
 18 20  2  0  0  0  0
 18 38  1  0  0  0  0
 19 50  1  0  0  0  0
 20 39  1  0  0  0  0
 21 28  2  0  0  0  0
 21 29  1  0  0  0  0
 21 60  1  0  0  0  0
 22 84  1  0  0  0  0
 23 85  1  0  0  0  0
 24 26  2  0  0  0  0
 24 84  1  0  0  0  0
 25 86  1  0  0  0  0
 26 87  1  0  0  0  0
 27 65  2  0  0  0  0
 28 61  1  0  0  0  0
 28 66  1  0  0  0  0
 29 67  2  0  0  0  0
 29 69  1  0  0  0  0
 30 68  1  0  0  0  0
 30 73  1  0  0  0  0
 31 53  1  0  0  0  0
 31 66  2  0  0  0  0
 31 67  1  0  0  0  0
 32 74  1  0  0  0  0
 32 79  2  0  0  0  0
 33 51  1  0  0  0  0
 33 75  1  0  0  0  0
 33 80  2  0  0  0  0
 34 62  1  0  0  0  0
 34 70  1  0  0  0  0
 34 81  2  0  0  0  0
 35 63  1  0  0  0  0
 35 76  1  0  0  0  0
 35 82  2  0  0  0  0
 36 71  1  0  0  0  0
 36 72  1  0  0  0  0
 36 83  2  0  0  0  0
 37 40  1  0  0  0  0
 38 51  1  0  0  0  0
 39 70  1  0  0  0  0
 40 42  1  0  0  0  0
 41 43  1  0  0  0  0
 41 44  1  0  0  0  0
 42 50  1  0  0  0  0
 43 52  1  0  0  0  0
 44 71  1  0  0  0  0
 45 47  1  0  0  0  0
 45 69  1  0  0  0  0
 46 48  1  0  0  0  0
 46 69  1  0  0  0  0
 47 72  1  0  0  0  0
 48 72  1  0  0  0  0
 49 52  1  0  0  0  0
 49 71  1  0  0  0  0
 50 75  1  0  0  0  0
 51 70  1  0  0  0  0
 52 68  1  0  0  0  0
 54 63  1  0  0  0  0
 55 64  1  0  0  0  0
 56 64  1  0  0  0  0
 57 64  1  0  0  0  0
 58 77  1  0  0  0  0
 59 78  1  0  0  0  0
 60 77  1  0  0  0  0
 61 85  1  0  0  0  0
 62 64  1  0  0  0  0
 62 76  1  0  0  0  0
 63 78  1  0  0  0  0
 65 68  1  0  0  0  0
M  CHG  2  77   1  78   1
M  ISO  4  36 100  61 101  72 100  85 101
M  END
> <Batch ID>
0190

> <Smiles>
CNCc1c(N2CC[100N:0]([100C:0](=O)N3CCCC(n4nc(-c5ccc(Oc6ccc(F)cc6F)cc5)c(C(N)=O)c4N)C3)CC2)nc(C)nc1[101CH2:1][101O:1]c1ccc2c(c1)CN(C(=O)C(NC(=O)C(C)NC)C(C)(C)C)C(C(=O)NC1CCCc3ccccc31)C2

> <Shape>
0.307

> <Color>
0.115

> <Negative vol penalty>
0.000

$$$$

  -OEChem-04052323243D

 84 93  0     1  0  0  0  0  0999 V2000
  -26.8856  -37.5600   22.5612 C   0  0  0  0  0  0  0  0  0  0  0  0
  -27.5495  -36.5647   21.8512 C   0  0  0  0  0  0  0  0  0  0  0  0
  -23.4479  -12.1804   16.2133 C   0  0  0  0  0  0  0  0  0  0  0  0
  -22.6442  -10.9803   18.1500 C   0  0  0  0  0  0  0  0  0  0  0  0
  -26.0442  -37.2172   23.6187 C   0  0  0  0  0  0  0  0  0  0  0  0
  -27.3731  -35.2259   22.1992 C   0  0  0  0  0  0  0  0  0  0  0  0
  -27.1303  -28.6859   19.2861 C   0  0  0  0  0  0  0  0  0  0  0  0
  -22.6328  -11.4013   15.3922 C   0  0  0  0  0  0  0  0  0  0  0  0
  -21.8290  -10.2012   17.3289 C   0  0  0  0  0  0  0  0  0  0  0  0
  -27.6978  -27.4207   19.4308 C   0  0  0  0  0  0  0  0  0  0  0  0
  -18.8633  -10.5217   15.7407 C   0  0  0  0  0  0  0  0  0  0  0  0
  -17.5476  -10.3078   16.1515 C   0  0  0  0  0  0  0  0  0  0  0  0
  -26.1581  -26.9418   21.2250 C   0  0  0  0  0  0  0  0  0  0  0  0
  -30.4487  -21.9395   21.2545 C   0  0  0  0  0  0  0  0  0  0  0  0
  -17.9481   -7.9256   16.1937 C   0  0  0  0  0  0  0  0  0  0  0  0
  -28.9506  -22.5622   19.0605 C   0  0  0  0  0  0  0  0  0  0  0  0
  -23.4537  -11.9698   17.5922 C   0  0  0  0  0  0  0  0  0  0  0  0
  -23.9627  -13.9941   19.0589 C   0  0  0  0  0  0  0  0  0  0  0  0
  -25.8499  -35.8730   23.9736 C   0  0  0  0  0  0  0  0  0  0  0  0
  -26.0779  -29.0934   20.1185 C   0  0  0  0  0  0  0  0  0  0  0  0
  -26.5293  -34.8649   23.2633 C   0  0  0  0  0  0  0  0  0  0  0  0
  -25.5773  -28.2118   21.0872 C   0  0  0  0  0  0  0  0  0  0  0  0
  -30.0530  -23.2567   21.0502 C   0  0  0  0  0  0  0  0  0  0  0  0
  -29.2895  -23.5824   19.9347 C   0  0  0  0  0  0  0  0  0  0  0  0
  -21.8233  -10.4118   15.9500 C   0  0  0  0  0  0  0  0  0  0  0  0
  -27.2136  -26.5495   20.4022 C   0  0  0  0  0  0  0  0  0  0  0  0
  -19.7214   -9.4375   15.5563 C   0  0  0  0  0  0  0  0  0  0  0  0
  -17.0900   -9.0097   16.3781 C   0  0  0  0  0  0  0  0  0  0  0  0
  -19.2638   -8.1395   15.7829 C   0  0  0  0  0  0  0  0  0  0  0  0
  -24.2960  -12.7739   18.4409 C   0  0  0  0  0  0  0  0  0  0  0  0
  -30.0577  -20.9929   20.3213 C   0  0  0  0  0  0  0  0  0  0  0  0
  -25.0952  -14.3494   19.7501 C   0  0  0  0  0  0  0  0  0  0  0  0
  -22.7389  -14.7396   19.0124 C   0  0  0  0  0  0  0  0  0  0  0  0
  -25.6750  -31.4154   22.2515 C   0  0  0  0  0  0  0  0  0  0  0  0
  -22.6213  -30.3217   22.2866 C   0  0  0  0  0  0  0  0  0  0  0  0
  -20.4635  -27.7357   21.7359 C   0  0  0  0  0  0  0  0  0  0  0  0
  -30.7096  -14.9368   19.6502 C   0  0  0  0  0  0  0  0  0  0  0  0
  -24.9674  -35.5542   25.1544 C   0  0  0  0  0  0  0  0  0  0  0  0
  -25.4589  -30.4515   19.9319 C   0  0  0  0  0  0  0  0  0  0  0  0
  -24.4356  -28.5935   21.9924 C   0  0  0  0  0  0  0  0  0  0  0  0
  -24.5427  -34.0894   25.2195 C   0  0  0  0  0  0  0  0  0  0  0  0
  -29.3025  -11.7374   20.7710 C   0  0  0  0  0  0  0  0  0  0  0  0
  -25.7414  -33.1752   24.9866 C   0  0  0  0  0  0  0  0  0  0  0  0
  -27.8593  -11.8080   20.2699 C   0  0  0  0  0  0  0  0  0  0  0  0
  -28.7424  -18.0289   19.9424 C   0  0  0  0  0  0  0  0  0  0  0  0
  -30.2580  -12.5210   19.8740 C   0  0  0  0  0  0  0  0  0  0  0  0
  -28.8219  -16.6391   19.3194 C   0  0  0  0  0  0  0  0  0  0  0  0
  -28.4214  -13.9864   19.1306 C   0  0  0  0  0  0  0  0  0  0  0  0
  -31.0299  -17.3813   19.9014 C   0  0  0  0  0  0  0  0  0  0  0  0
  -26.3444  -33.4000   23.5947 C   0  0  1  0  0  0  0  0  0  0  0  0
  -24.7327  -30.9531   21.1763 C   0  0  1  0  0  0  0  0  0  0  0  0
  -27.4203  -13.2670   20.0451 C   0  0  1  0  0  0  0  0  0  0  0  0
  -30.1336  -18.5873   19.6636 C   0  0  2  0  0  0  0  0  0  0  0  0
  -30.4574  -24.3012   22.0372 C   0  0  0  0  0  0  0  0  0  0  0  0
  -18.0328  -27.1315   21.8899 C   0  0  0  0  0  0  0  0  0  0  0  0
  -22.8775  -30.0735   25.3169 C   0  0  0  0  0  0  0  0  0  0  0  0
  -20.8435  -28.6138   25.2994 C   0  0  0  0  0  0  0  0  0  0  0  0
  -20.6850  -30.9801   24.5261 C   0  0  0  0  0  0  0  0  0  0  0  0
  -20.2926  -27.2027   18.8298 C   0  0  0  0  0  0  0  0  0  0  0  0
  -28.8390  -24.9765   19.6675 C   0  0  0  0  0  0  0  0  0  1  0  0
  -21.8681  -29.2793   23.0772 C   0  0  1  0  0  0  0  0  0  0  0  0
  -19.1397  -27.6685   20.9960 C   0  0  2  0  0  0  0  0  0  0  0  0
  -21.5913  -29.7299   24.5393 C   0  0  0  0  0  0  0  0  0  0  0  0
  -29.3163  -21.2712   19.2257 N   0  0  0  0  0  0  0  0  0  0  0  0
  -25.5426  -12.3806   18.7151 N   0  0  0  0  0  0  0  0  0  0  0  0
  -26.0026  -13.3592   19.5130 N   0  0  0  0  0  0  0  0  0  0  0  0
  -23.8680  -29.9344   21.7753 N   0  0  0  0  0  0  0  0  0  0  0  0
  -29.7822  -13.8893   19.6695 N   0  0  0  0  0  0  0  0  0  0  0  0
  -30.2173  -16.2333   19.5061 N   0  0  0  0  0  0  0  0  0  0  0  0
  -25.3933  -15.4092   20.5314 N   0  0  0  0  0  0  0  0  0  0  0  0
  -21.6751  -14.2310   18.2548 N   0  0  0  0  0  0  0  0  0  0  0  0
  -30.4602  -19.6821   20.5386 N   0  0  0  0  0  0  0  0  0  0  0  0
  -25.5384  -32.7497   22.5837 N   0  0  0  0  0  0  0  0  0  0  0  0
  -20.6664  -28.9735   22.3085 N   0  0  0  0  0  0  0  0  0  0  0  0
  -19.2560  -26.7790   19.8060 N   0  3  0  0  0  0  0  0  0  0  0  0
  -22.5986  -15.8329   19.6112 O   0  0  0  0  0  0  0  0  0  0  0  0
  -26.4663  -30.6200   22.7443 O   0  0  0  0  0  0  0  0  0  0  0  0
  -22.1187  -31.4362   22.1225 O   0  0  0  0  0  0  0  0  0  0  0  0
  -21.2384  -26.7840   21.8026 O   0  0  0  0  0  0  0  0  0  0  0  0
  -31.9205  -14.7279   19.8024 O   0  0  0  0  0  0  0  0  0  0  0  0
  -21.0276   -9.6515   15.1492 O   0  0  0  0  0  0  0  0  0  0  0  0
  -27.7698  -25.3060   20.5469 O   0  0  0  0  0  0  0  0  0  1  0  0
  -15.8269   -8.8046   16.7741 F   0  0  0  0  0  0  0  0  0  0  0  0
  -20.0838   -7.0940   15.6086 F   0  0  0  0  0  0  0  0  0  0  0  0
  1  2  1  0  0  0  0
  1  5  2  0  0  0  0
  2  6  2  0  0  0  0
  3  8  2  0  0  0  0
  3 17  1  0  0  0  0
  4  9  1  0  0  0  0
  4 17  2  0  0  0  0
  5 19  1  0  0  0  0
  6 21  1  0  0  0  0
  7 10  2  0  0  0  0
  7 20  1  0  0  0  0
  8 25  1  0  0  0  0
  9 25  2  0  0  0  0
 10 26  1  0  0  0  0
 11 12  2  0  0  0  0
 11 27  1  0  0  0  0
 12 28  1  0  0  0  0
 13 22  1  0  0  0  0
 13 26  2  0  0  0  0
 14 23  1  0  0  0  0
 14 31  2  0  0  0  0
 15 28  2  0  0  0  0
 15 29  1  0  0  0  0
 16 24  1  0  0  0  0
 16 64  2  0  0  0  0
 17 30  1  0  0  0  0
 18 30  1  0  0  0  0
 18 32  2  0  0  0  0
 18 33  1  0  0  0  0
 19 21  2  0  0  0  0
 19 38  1  0  0  0  0
 20 22  2  0  0  0  0
 20 39  1  0  0  0  0
 21 50  1  0  0  0  0
 22 40  1  0  0  0  0
 23 24  2  0  0  0  0
 23 54  1  0  0  0  0
 24 60  1  0  0  0  0
 25 81  1  0  0  0  0
 26 82  1  0  0  0  0
 27 29  2  0  0  0  0
 27 81  1  0  0  0  0
 28 83  1  0  0  0  0
 29 84  1  0  0  0  0
 30 65  2  0  0  0  0
 31 64  1  0  0  0  0
 31 72  1  0  0  0  0
 32 66  1  0  0  0  0
 32 70  1  0  0  0  0
 33 71  1  0  0  0  0
 33 76  2  0  0  0  0
 34 51  1  0  0  0  0
 34 73  1  0  0  0  0
 34 77  2  0  0  0  0
 35 61  1  0  0  0  0
 35 67  1  0  0  0  0
 35 78  2  0  0  0  0
 36 62  1  0  0  0  0
 36 74  1  0  0  0  0
 36 79  2  0  0  0  0
 37 68  1  0  0  0  0
 37 69  1  0  0  0  0
 37 80  2  0  0  0  0
 38 41  1  0  0  0  0
 39 51  1  0  0  0  0
 40 67  1  0  0  0  0
 41 43  1  0  0  0  0
 42 44  1  0  0  0  0
 42 46  1  0  0  0  0
 43 50  1  0  0  0  0
 44 52  1  0  0  0  0
 45 47  1  0  0  0  0
 45 53  1  0  0  0  0
 46 68  1  0  0  0  0
 47 69  1  0  0  0  0
 48 52  1  0  0  0  0
 48 68  1  0  0  0  0
 49 53  1  0  0  0  0
 49 69  1  0  0  0  0
 50 73  1  0  0  0  0
 51 67  1  0  0  0  0
 52 66  1  0  0  0  0
 53 72  1  0  0  0  0
 55 62  1  0  0  0  0
 56 63  1  0  0  0  0
 57 63  1  0  0  0  0
 58 63  1  0  0  0  0
 59 75  1  0  0  0  0
 60 82  1  0  0  0  0
 61 63  1  0  0  0  0
 61 74  1  0  0  0  0
 62 75  1  0  0  0  0
 65 66  1  0  0  0  0
M  CHG  1  75   1
M  ISO  4  37 100  60 101  69 100  82 101
M  END
> <Batch ID>
0190

> <Smiles>
CNC(C)C(=O)NC(C(=O)N1Cc2cc([101O:1][101CH2:1]c3cnc(NC4CC[100N:0]([100C:0](=O)N5CCCC(n6nc(-c7ccc(Oc8ccc(F)cc8F)cc7)c(C(N)=O)c6N)C5)C4)cc3C)ccc2CC1C(=O)NC1CCCc2ccccc21)C(C)(C)C

> <Shape>
0.296

> <Color>
0.118

> <Negative vol penalty>
0.000

$$$$

  -OEChem-04052323243D

 89 98  0     1  0  0  0  0  0999 V2000
  -16.8011  -28.7087   24.0319 C   0  0  0  0  0  0  0  0  0  0  0  0
  -17.4450  -27.8350   23.1616 C   0  0  0  0  0  0  0  0  0  0  0  0
  -23.0656  -15.8385   20.8110 C   0  0  0  0  0  0  0  0  0  0  0  0
  -22.6034  -14.2904   19.0147 C   0  0  0  0  0  0  0  0  0  0  0  0
  -17.2784  -30.0088   24.1923 C   0  0  0  0  0  0  0  0  0  0  0  0
  -18.5660  -28.2613   22.4502 C   0  0  0  0  0  0  0  0  0  0  0  0
  -22.3066  -24.8479   22.4906 C   0  0  0  0  0  0  0  0  0  0  0  0
  -22.0008  -16.6382   20.3958 C   0  0  0  0  0  0  0  0  0  0  0  0
  -21.5385  -15.0900   18.5995 C   0  0  0  0  0  0  0  0  0  0  0  0
  -22.1835  -23.7583   21.6296 C   0  0  0  0  0  0  0  0  0  0  0  0
  -18.4736  -16.5374   17.2845 C   0  0  0  0  0  0  0  0  0  0  0  0
  -17.2727  -15.9044   16.9639 C   0  0  0  0  0  0  0  0  0  0  0  0
  -23.6778  -24.8307   20.0687 C   0  0  0  0  0  0  0  0  0  0  0  0
  -17.1367  -15.0248   19.2100 C   0  0  0  0  0  0  0  0  0  0  0  0
  -24.4187  -19.6144   19.0553 C   0  0  0  0  0  0  0  0  0  0  0  0
  -23.3669  -14.6646   20.1204 C   0  0  0  0  0  0  0  0  0  0  0  0
  -24.4243  -12.7780   21.4732 C   0  0  0  0  0  0  0  0  0  0  0  0
  -18.4115  -30.4483   23.4898 C   0  0  0  0  0  0  0  0  0  0  0  0
  -23.1089  -25.9438   22.1416 C   0  0  0  0  0  0  0  0  0  0  0  0
  -19.0580  -29.5690   22.6003 C   0  0  0  0  0  0  0  0  0  0  0  0
  -23.8113  -25.9319   20.9282 C   0  0  0  0  0  0  0  0  0  0  0  0
  -25.4081  -19.6420   20.0170 C   0  0  0  0  0  0  0  0  0  0  0  0
  -21.2372  -16.2639   19.2901 C   0  0  0  0  0  0  0  0  0  0  0  0
  -22.8669  -23.7508   20.4172 C   0  0  0  0  0  0  0  0  0  0  0  0
  -19.0061  -16.4141   18.5679 C   0  0  0  0  0  0  0  0  0  0  0  0
  -16.6043  -15.1481   17.9266 C   0  0  0  0  0  0  0  0  0  0  0  0
  -18.3376  -15.6578   19.5306 C   0  0  0  0  0  0  0  0  0  0  0  0
  -24.4671  -13.8385   20.5484 C   0  0  0  0  0  0  0  0  0  0  0  0
  -25.4340  -20.7678   20.8147 C   0  0  0  0  0  0  0  0  0  0  0  0
  -25.7184  -12.3216   21.5324 C   0  0  0  0  0  0  0  0  0  0  0  0
  -23.6482  -21.6478   19.7176 C   0  0  0  0  0  0  0  0  0  1  0  0
  -23.3140  -12.2523   22.2126 C   0  0  0  0  0  0  0  0  0  0  0  0
  -22.5815  -29.0354   21.6239 C   0  0  0  0  0  0  0  0  0  0  0  0
  -25.8163  -29.1526   21.4129 C   0  0  0  0  0  0  0  0  0  0  0  0
  -28.7408  -27.5065   20.7927 C   0  0  0  0  0  0  0  0  0  0  0  0
  -27.9008  -16.0003   18.2360 C   0  0  0  0  0  0  0  0  0  0  0  0
  -18.8622  -31.8775   23.6602 C   0  0  0  0  0  0  0  0  0  0  0  0
  -23.2522  -27.0997   23.0934 C   0  0  0  0  0  0  0  0  0  0  0  0
  -24.7015  -27.0747   20.5159 C   0  0  0  0  0  0  0  0  0  0  0  0
  -20.2787  -32.1342   23.1523 C   0  0  0  0  0  0  0  0  0  0  0  0
  -28.0931  -12.5110   17.8586 C   0  0  0  0  0  0  0  0  0  0  0  0
  -20.4735  -31.5083   21.7749 C   0  0  0  0  0  0  0  0  0  0  0  0
  -28.2272  -11.9714   19.2800 C   0  0  0  0  0  0  0  0  0  0  0  0
  -28.8866  -13.7984   17.6889 C   0  0  0  0  0  0  0  0  0  0  0  0
  -29.3083  -17.3694   19.8322 C   0  0  0  0  0  0  0  0  0  0  0  0
  -28.5877  -14.3828   20.0800 C   0  0  0  0  0  0  0  0  0  0  0  0
  -30.0604  -18.6143   19.3805 C   0  0  0  0  0  0  0  0  0  0  0  0
  -27.9465  -19.5452   18.4402 C   0  0  0  0  0  0  0  0  0  0  0  0
  -20.2916  -29.9867   21.8296 C   0  0  1  0  0  0  0  0  0  0  0  0
  -23.6901  -28.3892   22.4057 C   0  0  1  0  0  0  0  0  0  0  0  0
  -27.9190  -13.0190   20.3641 C   0  0  1  0  0  0  0  0  0  0  0  0
  -27.1887  -18.2917   18.8802 C   0  0  2  0  0  0  0  0  0  0  0  0
  -31.2193  -27.8762   20.6591 C   0  0  0  0  0  0  0  0  0  0  0  0
  -25.4654  -30.5098   18.7028 C   0  0  0  0  0  0  0  0  0  0  0  0
  -27.8655  -29.9936   18.2116 C   0  0  0  0  0  0  0  0  0  0  0  0
  -27.2778  -31.4787   20.1278 C   0  0  0  0  0  0  0  0  0  0  0  0
  -29.8396  -21.0674   19.0015 C   0  0  0  0  0  0  0  0  0  0  0  0
  -25.1356  -23.2704   24.5990 C   0  0  0  0  0  0  0  0  0  0  0  0
  -29.2632  -25.5782   22.9762 C   0  0  0  0  0  0  0  0  0  0  0  0
  -26.3819  -18.5076   20.1641 C   0  0  0  0  0  0  0  0  0  0  0  0
  -26.3564  -22.2044   22.6984 C   0  0  0  0  0  0  0  0  0  0  0  0
  -26.4616  -20.9074   21.8888 C   0  0  1  0  0  0  0  0  0  0  0  0
  -26.8212  -28.9978   20.2970 C   0  0  1  0  0  0  0  0  0  0  0  0
  -30.0559  -27.4693   21.5501 C   0  0  2  0  0  0  0  0  0  0  0  0
  -26.8393  -30.2241   19.3414 C   0  0  0  0  0  0  0  0  0  0  0  0
  -23.5187  -20.6036   18.8771 N   0  0  0  0  0  0  0  0  0  0  0  0
  -25.6915  -14.0438   20.0557 N   0  0  0  0  0  0  0  0  0  0  0  0
  -24.5661  -21.7935   20.6921 N   0  0  0  0  0  0  0  0  0  0  0  0
  -26.4300  -13.1061   20.6732 N   0  0  0  0  0  0  0  0  0  0  0  0
  -24.8041  -28.1846   21.4777 N   0  0  0  0  0  0  0  0  0  0  0  0
  -28.4916  -14.8036   18.6741 N   0  0  0  0  0  0  0  0  0  0  0  0
  -28.0985  -17.1424   19.0282 N   0  0  0  0  0  0  0  0  0  0  0  0
  -26.3056  -11.3298   22.2352 N   0  0  0  0  0  0  0  0  0  0  0  0
  -22.0537  -12.8386   22.0325 N   0  0  0  0  0  0  0  0  0  0  0  0
  -21.4715  -29.3562   22.3818 N   0  0  0  0  0  0  0  0  0  0  0  0
  -28.1025  -28.7202   20.9371 N   0  0  0  0  0  0  0  0  0  0  0  0
  -29.1223  -19.7930   19.3519 N   0  3  2  0  0  0  0  0  0  0  0  0
  -25.2771  -22.0848   23.7114 N   0  3  0  0  0  0  0  0  0  0  0  0
  -30.3175  -26.0961   22.0667 N   0  3  0  0  0  0  0  0  0  0  0  0
  -23.4390  -11.3019   23.0216 O   0  0  0  0  0  0  0  0  0  0  0  0
  -22.7234  -29.2299   20.4224 O   0  0  0  0  0  0  0  0  0  0  0  0
  -25.9296  -30.0936   22.2025 O   0  0  0  0  0  0  0  0  0  0  0  0
  -28.3235  -26.5555   20.1355 O   0  0  0  0  0  0  0  0  0  0  0  0
  -27.2197  -16.0417   17.2034 O   0  0  0  0  0  0  0  0  0  0  0  0
  -20.1980  -17.0438   18.8849 O   0  0  0  0  0  0  0  0  0  0  0  0
  -22.7466  -22.6753   19.5640 O   0  0  0  0  0  0  0  0  0  1  0  0
  -15.4503  -14.5416   17.6191 F   0  0  0  0  0  0  0  0  0  0  0  0
  -18.8437  -15.5367   20.7656 F   0  0  0  0  0  0  0  0  0  0  0  0
  -26.4645  -19.8687   22.7880 F   0  0  0  0  0  0  0  0  0  0  0  0
  1  2  1  0  0  0  0
  1  5  2  0  0  0  0
  2  6  2  0  0  0  0
  3  8  2  0  0  0  0
  3 16  1  0  0  0  0
  4  9  1  0  0  0  0
  4 16  2  0  0  0  0
  5 18  1  0  0  0  0
  6 20  1  0  0  0  0
  7 10  2  0  0  0  0
  7 19  1  0  0  0  0
  8 23  1  0  0  0  0
  9 23  2  0  0  0  0
 10 24  1  0  0  0  0
 11 12  2  0  0  0  0
 11 25  1  0  0  0  0
 12 26  1  0  0  0  0
 13 21  1  0  0  0  0
 13 24  2  0  0  0  0
 14 26  2  0  0  0  0
 14 27  1  0  0  0  0
 15 22  1  0  0  0  0
 15 66  2  0  0  0  0
 16 28  1  0  0  0  0
 17 28  1  0  0  0  0
 17 30  2  0  0  0  0
 17 32  1  0  0  0  0
 18 20  2  0  0  0  0
 18 37  1  0  0  0  0
 19 21  2  0  0  0  0
 19 38  1  0  0  0  0
 20 49  1  0  0  0  0
 21 39  1  0  0  0  0
 22 29  2  0  0  0  0
 22 60  1  0  0  0  0
 23 85  1  0  0  0  0
 24 86  1  0  0  0  0
 25 27  2  0  0  0  0
 25 85  1  0  0  0  0
 26 87  1  0  0  0  0
 27 88  1  0  0  0  0
 28 67  2  0  0  0  0
 29 62  1  0  0  0  0
 29 68  1  0  0  0  0
 30 69  1  0  0  0  0
 30 73  1  0  0  0  0
 31 66  1  0  0  0  0
 31 68  2  0  0  0  0
 31 86  1  0  0  0  0
 32 74  1  0  0  0  0
 32 80  2  0  0  0  0
 33 50  1  0  0  0  0
 33 75  1  0  0  0  0
 33 81  2  0  0  0  0
 34 63  1  0  0  0  0
 34 70  1  0  0  0  0
 34 82  2  0  0  0  0
 35 64  1  0  0  0  0
 35 76  1  0  0  0  0
 35 83  2  0  0  0  0
 36 71  1  0  0  0  0
 36 72  1  0  0  0  0
 36 84  2  0  0  0  0
 37 40  1  0  0  0  0
 38 50  1  0  0  0  0
 39 70  1  0  0  0  0
 40 42  1  0  0  0  0
 41 43  1  0  0  0  0
 41 44  1  0  0  0  0
 42 49  1  0  0  0  0
 43 51  1  0  0  0  0
 44 71  1  0  0  0  0
 45 47  1  0  0  0  0
 45 72  1  0  0  0  0
 46 51  1  0  0  0  0
 46 71  1  0  0  0  0
 47 77  1  0  0  0  0
 48 52  1  0  0  0  0
 48 77  1  0  0  0  0
 49 75  1  0  0  0  0
 50 70  1  0  0  0  0
 51 69  1  0  0  0  0
 52 60  1  0  0  0  0
 52 72  1  0  0  0  0
 53 64  1  0  0  0  0
 54 65  1  0  0  0  0
 55 65  1  0  0  0  0
 56 65  1  0  0  0  0
 57 77  1  0  0  0  0
 58 78  1  0  0  0  0
 59 79  1  0  0  0  0
 61 62  1  0  0  0  0
 61 78  1  0  0  0  0
 62 89  1  0  0  0  0
 63 65  1  0  0  0  0
 63 76  1  0  0  0  0
 64 79  1  0  0  0  0
 67 69  1  0  0  0  0
M  CHG  3  77   1  78   1  79   1
M  ISO  4  31 101  36 100  72 100  86 101
M  END
> <Batch ID>
0190

> <Smiles>
CNCC(F)c1n[101c:1]([101O:1]c2ccc3c(c2)CN(C(=O)C(NC(=O)C(C)NC)C(C)(C)C)C(C(=O)NC2CCCc4ccccc42)C3)ncc1CC1CN(C)CC[100N:0]1[100C:0](=O)N1CCCC(n2nc(-c3ccc(Oc4ccc(F)cc4F)cc3)c(C(N)=O)c2N)C1

> <Shape>
0.227

> <Color>
0.093

> <Negative vol penalty>
0.000

$$$$

  -OEChem-04052323243D

 87 97  0     1  0  0  0  0  0999 V2000
  -27.5678  -32.4989   27.7795 C   0  0  0  0  0  0  0  0  0  0  0  0
  -27.4844  -31.5023   26.8125 C   0  0  0  0  0  0  0  0  0  0  0  0
  -24.6135   -8.9271   21.9171 C   0  0  0  0  0  0  0  0  0  0  0  0
  -23.4295   -9.5957   19.9201 C   0  0  0  0  0  0  0  0  0  0  0  0
  -26.9578  -33.7334   27.5610 C   0  0  0  0  0  0  0  0  0  0  0  0
  -26.7899  -31.7392   25.6268 C   0  0  0  0  0  0  0  0  0  0  0  0
  -29.3076  -30.1169   21.5434 C   0  0  0  0  0  0  0  0  0  0  0  0
  -23.5394   -8.1156   22.2823 C   0  0  0  0  0  0  0  0  0  0  0  0
  -22.3554   -8.7842   20.2852 C   0  0  0  0  0  0  0  0  0  0  0  0
  -29.2777  -28.7484   21.2790 C   0  0  0  0  0  0  0  0  0  0  0  0
  -21.2581   -5.5894   23.5587 C   0  0  0  0  0  0  0  0  0  0  0  0
  -21.5433   -4.3032   24.0166 C   0  0  0  0  0  0  0  0  0  0  0  0
  -27.5639  -29.1123   19.6208 C   0  0  0  0  0  0  0  0  0  0  0  0
  -22.6032   -3.7873   21.9077 C   0  0  0  0  0  0  0  0  0  0  0  0
  -24.5586   -9.6672   20.7360 C   0  0  0  0  0  0  0  0  0  0  0  0
  -26.7807  -10.1429   19.5769 C   0  0  0  0  0  0  0  0  0  0  0  0
  -26.2637  -33.9889   26.3679 C   0  0  0  0  0  0  0  0  0  0  0  0
  -28.4567  -30.9936   20.8550 C   0  0  0  0  0  0  0  0  0  0  0  0
  -26.1689  -32.9778   25.3927 C   0  0  0  0  0  0  0  0  0  0  0  0
  -27.5868  -30.4919   19.8765 C   0  0  0  0  0  0  0  0  0  0  0  0
  -29.3645  -24.2976   19.0565 C   0  0  0  0  0  0  0  0  0  0  0  0
  -29.2119  -22.9647   18.7173 C   0  0  0  0  0  0  0  0  0  0  0  0
  -22.4103   -8.0442   21.4663 C   0  0  0  0  0  0  0  0  0  0  0  0
  -28.4037  -28.2455   20.3196 C   0  0  0  0  0  0  0  0  0  0  0  0
  -21.6453   -5.9747   22.2752 C   0  0  0  0  0  0  0  0  0  0  0  0
  -22.2159   -3.4021   23.1912 C   0  0  0  0  0  0  0  0  0  0  0  0
  -22.3179   -5.0736   21.4497 C   0  0  0  0  0  0  0  0  0  0  0  0
  -25.6676  -10.5060   20.3586 C   0  0  0  0  0  0  0  0  0  0  0  0
  -29.1181  -24.6637   20.3644 C   0  0  0  0  0  0  0  0  0  0  0  0
  -28.8234  -22.0861   19.7086 C   0  0  0  0  0  0  0  0  0  0  0  0
  -27.5397  -11.2856   19.5085 C   0  0  0  0  0  0  0  0  0  0  0  0
  -27.0999   -8.8852   18.9670 C   0  0  0  0  0  0  0  0  0  0  0  0
  -26.1146  -32.9704   21.6981 C   0  0  0  0  0  0  0  0  0  0  0  0
  -26.2357  -33.8233   18.5707 C   0  0  0  0  0  0  0  0  0  0  0  0
  -27.0705  -32.9856   15.3695 C   0  0  0  0  0  0  0  0  0  0  0  0
  -28.1667  -16.5732   18.8069 C   0  0  0  0  0  0  0  0  0  0  0  0
  -25.5803  -35.3225   26.1969 C   0  0  0  0  0  0  0  0  0  0  0  0
  -28.5202  -32.4705   21.1329 C   0  0  0  0  0  0  0  0  0  0  0  0
  -26.6673  -31.3935   19.0953 C   0  0  0  0  0  0  0  0  0  0  0  0
  -25.1817  -35.6222   24.7541 C   0  0  0  0  0  0  0  0  0  0  0  0
  -27.1952  -15.6369   22.0502 C   0  0  0  0  0  0  0  0  0  0  0  0
  -31.0552  -25.0835   17.2682 C   0  0  0  0  0  0  0  0  0  0  0  0
  -30.9956  -26.1575   18.3091 C   0  0  0  0  0  0  0  0  0  0  0  0
  -24.4991  -34.4111   24.1264 C   0  0  0  0  0  0  0  0  0  0  0  0
  -26.7954  -14.1771   21.8381 C   0  0  0  0  0  0  0  0  0  0  0  0
  -26.7351  -16.5304   20.8972 C   0  0  0  0  0  0  0  0  0  0  0  0
  -29.8074  -19.8231   19.5128 C   0  0  0  0  0  0  0  0  0  0  0  0
  -27.3291  -20.1421   19.5640 C   0  0  0  0  0  0  0  0  0  0  0  0
  -29.6100  -18.5684   18.6663 C   0  0  0  0  0  0  0  0  0  0  0  0
  -27.1766  -18.8904   18.7069 C   0  0  0  0  0  0  0  0  0  0  0  0
  -26.7703  -14.6004   19.3506 C   0  0  0  0  0  0  0  0  0  0  0  0
  -29.7822  -25.3079   18.0400 C   0  0  0  0  0  0  0  0  0  0  0  0
  -25.4455  -33.2053   24.0830 C   0  0  1  0  0  0  0  0  0  0  0  0
  -27.2449  -33.2083   20.7370 C   0  0  1  0  0  0  0  0  0  0  0  0
  -27.2701  -13.6683   20.4653 C   0  0  2  0  0  0  0  0  0  0  0  0
  -29.4621  -22.5004   17.3201 C   0  0  0  0  0  0  0  0  0  0  0  0
  -27.0155  -33.8731   13.0229 C   0  0  0  0  0  0  0  0  0  0  0  0
  -23.2402  -33.2599   18.4304 C   0  0  0  0  0  0  0  0  0  0  0  0
  -23.4328  -33.2337   15.9343 C   0  0  0  0  0  0  0  0  0  0  0  0
  -23.9744  -35.3118   17.2035 C   0  0  0  0  0  0  0  0  0  0  0  0
  -30.0171  -32.8532   15.1268 C   0  0  0  0  0  0  0  0  0  0  0  0
  -29.2608  -26.0813   20.8070 C   0  0  0  0  0  0  0  0  0  1  0  0
  -25.5627  -33.3474   17.3060 C   0  0  1  0  0  0  0  0  0  0  0  0
  -27.8348  -33.7410   14.2973 C   0  0  2  0  0  0  0  0  0  0  0  0
  -24.0684  -33.7707   17.2345 C   0  0  0  0  0  0  0  0  0  0  0  0
  -25.7117  -11.7797   20.7583 N   0  0  0  0  0  0  0  0  0  0  0  0
  -28.7390  -23.7824   21.3140 N   0  0  0  0  0  0  0  0  0  0  0  0
  -28.5894  -22.4723   20.9807 N   0  0  0  0  0  0  0  0  0  0  0  0
  -26.8617  -12.2269   20.2257 N   0  0  0  0  0  0  0  0  0  0  0  0
  -28.6631  -20.7323   19.3871 N   0  0  0  0  0  0  0  0  0  0  0  0
  -26.7620  -32.8291   19.4077 N   0  0  0  0  0  0  0  0  0  0  0  0
  -27.1764  -15.9839   19.6070 N   0  0  0  0  0  0  0  0  0  0  0  0
  -28.2998  -17.9683   18.8870 N   0  0  0  0  0  0  0  0  0  0  0  0
  -28.7142  -11.5669   18.9054 N   0  0  0  0  0  0  0  0  0  0  0  0
  -26.2105   -7.8154   19.1370 N   0  0  0  0  0  0  0  0  0  0  0  0
  -26.3934  -33.3455   22.9985 N   0  0  0  0  0  0  0  0  0  0  0  0
  -26.3769  -33.8400   16.2002 N   0  0  0  0  0  0  0  0  0  0  0  0
  -29.1038  -33.0319   13.9688 N   0  3  0  0  0  0  0  0  0  0  0  0
  -28.1510   -8.7105   18.3051 O   0  0  0  0  0  0  0  0  0  0  0  0
  -25.0666  -32.4839   21.2897 O   0  0  0  0  0  0  0  0  0  0  0  0
  -26.2986  -35.0330   18.8039 O   0  0  0  0  0  0  0  0  0  0  0  0
  -27.0842  -31.7598   15.4587 O   0  0  0  0  0  0  0  0  0  0  0  0
  -28.8914  -15.8956   18.0676 O   0  0  0  0  0  0  0  0  0  0  0  0
  -21.3621   -7.2523   21.8222 O   0  0  0  0  0  0  0  0  0  0  0  0
  -28.3717  -26.9008   20.0583 O   0  0  0  0  0  0  0  0  0  1  0  0
  -22.4911   -2.1675   23.6317 F   0  0  0  0  0  0  0  0  0  0  0  0
  -22.6935   -5.4383   20.2161 F   0  0  0  0  0  0  0  0  0  0  0  0
  1  2  1  0  0  0  0
  1  5  2  0  0  0  0
  2  6  2  0  0  0  0
  3  8  2  0  0  0  0
  3 15  1  0  0  0  0
  4  9  1  0  0  0  0
  4 15  2  0  0  0  0
  5 17  1  0  0  0  0
  6 19  1  0  0  0  0
  7 10  2  0  0  0  0
  7 18  1  0  0  0  0
  8 23  1  0  0  0  0
  9 23  2  0  0  0  0
 10 24  1  0  0  0  0
 11 12  2  0  0  0  0
 11 25  1  0  0  0  0
 12 26  1  0  0  0  0
 13 20  1  0  0  0  0
 13 24  2  0  0  0  0
 14 26  2  0  0  0  0
 14 27  1  0  0  0  0
 15 28  1  0  0  0  0
 16 28  1  0  0  0  0
 16 31  2  0  0  0  0
 16 32  1  0  0  0  0
 17 19  2  0  0  0  0
 17 37  1  0  0  0  0
 18 20  2  0  0  0  0
 18 38  1  0  0  0  0
 19 53  1  0  0  0  0
 20 39  1  0  0  0  0
 21 22  1  0  0  0  0
 21 29  2  0  0  0  0
 21 52  1  0  0  0  0
 22 30  2  0  0  0  0
 22 56  1  0  0  0  0
 23 84  1  0  0  0  0
 24 85  1  0  0  0  0
 25 27  2  0  0  0  0
 25 84  1  0  0  0  0
 26 86  1  0  0  0  0
 27 87  1  0  0  0  0
 28 66  2  0  0  0  0
 29 62  1  0  0  0  0
 29 67  1  0  0  0  0
 30 68  1  0  0  0  0
 30 70  1  0  0  0  0
 31 69  1  0  0  0  0
 31 74  1  0  0  0  0
 32 75  1  0  0  0  0
 32 79  2  0  0  0  0
 33 54  1  0  0  0  0
 33 76  1  0  0  0  0
 33 80  2  0  0  0  0
 34 63  1  0  0  0  0
 34 71  1  0  0  0  0
 34 81  2  0  0  0  0
 35 64  1  0  0  0  0
 35 77  1  0  0  0  0
 35 82  2  0  0  0  0
 36 72  1  0  0  0  0
 36 73  1  0  0  0  0
 36 83  2  0  0  0  0
 37 40  1  0  0  0  0
 38 54  1  0  0  0  0
 39 71  1  0  0  0  0
 40 44  1  0  0  0  0
 41 45  1  0  0  0  0
 41 46  1  0  0  0  0
 42 43  1  0  0  0  0
 42 52  1  0  0  0  0
 43 52  1  0  0  0  0
 44 53  1  0  0  0  0
 45 55  1  0  0  0  0
 46 72  1  0  0  0  0
 47 49  1  0  0  0  0
 47 70  1  0  0  0  0
 48 50  1  0  0  0  0
 48 70  1  0  0  0  0
 49 73  1  0  0  0  0
 50 73  1  0  0  0  0
 51 55  1  0  0  0  0
 51 72  1  0  0  0  0
 53 76  1  0  0  0  0
 54 71  1  0  0  0  0
 55 69  1  0  0  0  0
 57 64  1  0  0  0  0
 58 65  1  0  0  0  0
 59 65  1  0  0  0  0
 60 65  1  0  0  0  0
 61 78  1  0  0  0  0
 62 85  1  0  0  0  0
 63 65  1  0  0  0  0
 63 77  1  0  0  0  0
 64 78  1  0  0  0  0
 66 69  1  0  0  0  0
 67 68  2  0  0  0  0
M  CHG  1  78   1
M  ISO  4  36 100  62 101  73 100  85 101
M  END
> <Batch ID>
0190

> <Smiles>
CNC(C)C(=O)NC(C(=O)N1Cc2cc([101O:1][101CH2:1]c3nnc(N4CC[100N:0]([100C:0](=O)N5CCCC(n6nc(-c7ccc(Oc8ccc(F)cc8F)cc7)c(C(N)=O)c6N)C5)CC4)c(C)c3C3CC3)ccc2CC1C(=O)NC1CCCc2ccccc21)C(C)(C)C

> <Shape>
0.284

> <Color>
0.073

> <Negative vol penalty>
0.000

$$$$

  -OEChem-04052323243D

 83 92  0     1  0  0  0  0  0999 V2000
  -25.3637  -18.2203   17.2443 C   0  0  0  0  0  0  0  0  0  0  0  0
  -24.9903  -19.5354   17.4976 C   0  0  0  0  0  0  0  0  0  0  0  0
  -23.7904  -14.5755   20.1233 C   0  0  0  0  0  0  0  0  0  0  0  0
  -25.0246  -13.8495   22.0693 C   0  0  0  0  0  0  0  0  0  0  0  0
  -26.5683  -17.7328   17.7467 C   0  0  0  0  0  0  0  0  0  0  0  0
  -25.8268  -20.3667   18.2433 C   0  0  0  0  0  0  0  0  0  0  0  0
  -24.5550  -25.1082   18.5657 C   0  0  0  0  0  0  0  0  0  0  0  0
  -24.6213  -13.8058   19.3092 C   0  0  0  0  0  0  0  0  0  0  0  0
  -25.8554  -13.0797   21.2551 C   0  0  0  0  0  0  0  0  0  0  0  0
  -23.4730  -25.5483   19.3269 C   0  0  0  0  0  0  0  0  0  0  0  0
  -28.5004  -13.5830   19.2102 C   0  0  0  0  0  0  0  0  0  0  0  0
  -29.8741  -13.6437   19.4444 C   0  0  0  0  0  0  0  0  0  0  0  0
  -24.9948  -26.3240   21.0304 C   0  0  0  0  0  0  0  0  0  0  0  0
  -29.9035  -11.2687   19.8871 C   0  0  0  0  0  0  0  0  0  0  0  0
  -23.9921  -14.5974   21.5034 C   0  0  0  0  0  0  0  0  0  0  0  0
  -21.9327  -14.9894   22.9569 C   0  0  0  0  0  0  0  0  0  0  0  0
  -27.4136  -18.5556   18.5094 C   0  0  0  0  0  0  0  0  0  0  0  0
  -25.8666  -25.2632   19.0368 C   0  0  0  0  0  0  0  0  0  0  0  0
  -27.0579  -19.9002   18.7388 C   0  0  0  0  0  0  0  0  0  0  0  0
  -26.0918  -25.8874   20.2720 C   0  0  0  0  0  0  0  0  0  0  0  0
  -25.6538  -13.0579   19.8751 C   0  0  0  0  0  0  0  0  0  0  0  0
  -23.6926  -26.1537   20.5608 C   0  0  0  0  0  0  0  0  0  0  0  0
  -27.8282  -12.3652   19.3145 C   0  0  0  0  0  0  0  0  0  0  0  0
  -30.5757  -12.4865   19.7828 C   0  0  0  0  0  0  0  0  0  0  0  0
  -28.5298  -11.2081   19.6529 C   0  0  0  0  0  0  0  0  0  0  0  0
  -23.1346  -15.3927   22.3449 C   0  0  0  0  0  0  0  0  0  0  0  0
  -21.5068  -16.1006   23.6427 C   0  0  0  0  0  0  0  0  0  0  0  0
  -18.8492  -28.5521   22.2591 C   0  0  0  0  0  0  0  0  0  0  0  0
  -20.3168  -26.9448   21.7117 C   0  0  0  0  0  0  0  0  0  0  0  0
  -19.1487  -26.7945   23.6222 C   0  0  0  0  0  0  0  0  0  0  0  0
  -21.2613  -13.7234   22.9098 C   0  0  0  0  0  0  0  0  0  0  0  0
  -28.2292  -23.2745   19.7899 C   0  0  0  0  0  0  0  0  0  0  0  0
  -29.9116  -26.0259   20.1387 C   0  0  0  0  0  0  0  0  0  0  0  0
  -29.8790  -29.3860   20.7350 C   0  0  0  0  0  0  0  0  0  0  0  0
  -20.4766  -21.5127   23.6595 C   0  0  0  0  0  0  0  0  0  0  0  0
  -28.7095  -17.9787   19.0222 C   0  0  0  0  0  0  0  0  0  0  0  0
  -27.0243  -24.8073   18.1916 C   0  0  0  0  0  0  0  0  0  0  0  0
  -27.4816  -26.0958   20.8136 C   0  0  0  0  0  0  0  0  0  0  0  0
  -29.3111  -18.7910   20.1643 C   0  0  0  0  0  0  0  0  0  0  0  0
  -23.8516  -20.4375   24.6919 C   0  0  0  0  0  0  0  0  0  0  0  0
  -29.3532  -20.2645   19.7882 C   0  0  0  0  0  0  0  0  0  0  0  0
  -23.8758  -19.0044   24.1687 C   0  0  0  0  0  0  0  0  0  0  0  0
  -18.6198  -23.6519   25.5126 C   0  0  0  0  0  0  0  0  0  0  0  0
  -23.0350  -21.3632   23.7912 C   0  0  0  0  0  0  0  0  0  0  0  0
  -21.6715  -19.4429   23.0181 C   0  0  0  0  0  0  0  0  0  0  0  0
  -27.9373  -20.8139   19.5731 C   0  0  1  0  0  0  0  0  0  0  0  0
  -28.2916  -24.5522   19.0016 C   0  0  1  0  0  0  0  0  0  0  0  0
  -22.4477  -18.4873   23.9372 C   0  0  1  0  0  0  0  0  0  0  0  0
  -19.4441  -24.8601   25.1702 C   0  0  1  0  0  0  0  0  0  0  0  0
  -19.4184  -23.6753   24.2387 C   0  0  1  0  0  0  0  0  0  0  0  0
  -18.1717  -29.8425   21.9463 C   0  0  0  0  0  0  0  0  0  0  0  0
  -31.4124  -31.3551   20.9977 C   0  0  0  0  0  0  0  0  0  0  0  0
  -30.6603  -25.0666   22.9367 C   0  0  0  0  0  0  0  0  0  0  0  0
  -31.3564  -27.4097   23.4782 C   0  0  0  0  0  0  0  0  0  0  0  0
  -32.5260  -26.1491   21.6711 C   0  0  0  0  0  0  0  0  0  0  0  0
  -28.6729  -30.7814   18.4204 C   0  0  0  0  0  0  0  0  0  0  0  0
  -21.3341  -26.3823   20.7631 C   0  0  0  0  0  0  0  0  0  1  0  0
  -30.1720  -26.9829   21.2768 C   0  0  1  0  0  0  0  0  0  0  0  0
  -30.5675  -30.5409   20.0302 C   0  0  2  0  0  0  0  0  0  0  0  0
  -31.1522  -26.3965   22.3317 C   0  0  0  0  0  0  0  0  0  0  0  0
  -23.4517  -16.6612   22.6176 N   0  0  0  0  0  0  0  0  0  0  0  0
  -19.7479  -28.1103   21.3643 N   0  0  0  0  0  0  0  0  0  0  0  0
  -18.4989  -27.9496   23.4069 N   0  0  0  0  0  0  0  0  0  0  0  0
  -20.0681  -26.2314   22.8217 N   0  0  0  0  0  0  0  0  0  0  0  0
  -22.4428  -17.0646   23.4086 N   0  0  0  0  0  0  0  0  0  0  0  0
  -28.5803  -25.6272   19.9529 N   0  0  0  0  0  0  0  0  0  0  0  0
  -21.6932  -20.8187   23.5300 N   0  0  0  0  0  0  0  0  0  0  0  0
  -20.4266  -16.3374   24.4170 N   0  0  0  0  0  0  0  0  0  0  0  0
  -21.8366  -12.6896   22.1583 N   0  0  0  0  0  0  0  0  0  0  0  0
  -18.8333  -26.1016   24.8109 N   0  0  0  0  0  0  0  0  0  0  0  0
  -28.0273  -22.1464   19.0179 N   0  0  0  0  0  0  0  0  0  0  0  0
  -30.6252  -28.2285   20.6673 N   0  0  0  0  0  0  0  0  0  0  0  0
  -20.5756  -22.8378   24.0683 N   0  0  0  0  0  0  0  0  0  0  0  0
  -29.5581  -31.4459   19.4113 N   0  3  0  0  0  0  0  0  0  0  0  0
  -20.1748  -13.5201   23.5028 O   0  0  0  0  0  0  0  0  0  0  0  0
  -28.3565  -23.3095   21.0082 O   0  0  0  0  0  0  0  0  0  0  0  0
  -30.8537  -25.6517   19.4357 O   0  0  0  0  0  0  0  0  0  0  0  0
  -28.7900  -29.5004   21.2932 O   0  0  0  0  0  0  0  0  0  0  0  0
  -19.3804  -20.9928   23.4230 O   0  0  0  0  0  0  0  0  0  0  0  0
  -26.4645  -12.3065   19.0809 O   0  0  0  0  0  0  0  0  0  0  0  0
  -22.6383  -26.5835   21.3061 O   0  0  0  0  0  0  0  0  0  1  0  0
  -31.8951  -12.5447   20.0062 F   0  0  0  0  0  0  0  0  0  0  0  0
  -27.8896  -10.0351   19.7535 F   0  0  0  0  0  0  0  0  0  0  0  0
  1  2  1  0  0  0  0
  1  5  2  0  0  0  0
  2  6  2  0  0  0  0
  3  8  2  0  0  0  0
  3 15  1  0  0  0  0
  4  9  1  0  0  0  0
  4 15  2  0  0  0  0
  5 17  1  0  0  0  0
  6 19  1  0  0  0  0
  7 10  2  0  0  0  0
  7 18  1  0  0  0  0
  8 21  1  0  0  0  0
  9 21  2  0  0  0  0
 10 22  1  0  0  0  0
 11 12  2  0  0  0  0
 11 23  1  0  0  0  0
 12 24  1  0  0  0  0
 13 20  1  0  0  0  0
 13 22  2  0  0  0  0
 14 24  2  0  0  0  0
 14 25  1  0  0  0  0
 15 26  1  0  0  0  0
 16 26  1  0  0  0  0
 16 27  2  0  0  0  0
 16 31  1  0  0  0  0
 17 19  2  0  0  0  0
 17 36  1  0  0  0  0
 18 20  2  0  0  0  0
 18 37  1  0  0  0  0
 19 46  1  0  0  0  0
 20 38  1  0  0  0  0
 21 80  1  0  0  0  0
 22 81  1  0  0  0  0
 23 25  2  0  0  0  0
 23 80  1  0  0  0  0
 24 82  1  0  0  0  0
 25 83  1  0  0  0  0
 26 61  2  0  0  0  0
 27 65  1  0  0  0  0
 27 68  1  0  0  0  0
 28 51  1  0  0  0  0
 28 62  2  0  0  0  0
 28 63  1  0  0  0  0
 29 57  1  0  0  0  0
 29 62  1  0  0  0  0
 29 64  2  0  0  0  0
 30 63  2  0  0  0  0
 30 64  1  0  0  0  0
 30 70  1  0  0  0  0
 31 69  1  0  0  0  0
 31 75  2  0  0  0  0
 32 47  1  0  0  0  0
 32 71  1  0  0  0  0
 32 76  2  0  0  0  0
 33 58  1  0  0  0  0
 33 66  1  0  0  0  0
 33 77  2  0  0  0  0
 34 59  1  0  0  0  0
 34 72  1  0  0  0  0
 34 78  2  0  0  0  0
 35 67  1  0  0  0  0
 35 73  1  0  0  0  0
 35 79  2  0  0  0  0
 36 39  1  0  0  0  0
 37 47  1  0  0  0  0
 38 66  1  0  0  0  0
 39 41  1  0  0  0  0
 40 42  1  0  0  0  0
 40 44  1  0  0  0  0
 41 46  1  0  0  0  0
 42 48  1  0  0  0  0
 43 49  1  0  0  0  0
 43 50  1  0  0  0  0
 44 67  1  0  0  0  0
 45 48  1  0  0  0  0
 45 67  1  0  0  0  0
 46 71  1  0  0  0  0
 47 66  1  0  0  0  0
 48 65  1  0  0  0  0
 49 50  1  0  0  0  0
 49 70  1  0  0  0  0
 50 73  1  0  0  0  0
 52 59  1  0  0  0  0
 53 60  1  0  0  0  0
 54 60  1  0  0  0  0
 55 60  1  0  0  0  0
 56 74  1  0  0  0  0
 57 81  1  0  0  0  0
 58 60  1  0  0  0  0
 58 72  1  0  0  0  0
 59 74  1  0  0  0  0
 61 65  1  0  0  0  0
M  CHG  1  74   1
M  ISO  4  35 100  57 101  73 100  81 101
M  END
> <Batch ID>
0190

> <Smiles>
CNC(C)C(=O)NC(C(=O)N1Cc2cc([101O:1][101CH2:1]c3nc(C)nc(NC4CC4[100NH:0][100C:0](=O)N4CCCC(n5nc(-c6ccc(Oc7ccc(F)cc7F)cc6)c(C(N)=O)c5N)C4)n3)ccc2CC1C(=O)NC1CCCc2ccccc21)C(C)(C)C

> <Shape>
0.202

> <Color>
0.072

> <Negative vol penalty>
0.000

$$$$

  -OEChem-04052323243D

 81 89  0     1  0  0  0  0  0999 V2000
  -36.9269  -33.1968   22.4513 C   0  0  0  0  0  0  0  0  0  0  0  0
  -36.6329  -31.8376   22.4118 C   0  0  0  0  0  0  0  0  0  0  0  0
  -23.2970   -9.7752   19.9806 C   0  0  0  0  0  0  0  0  0  0  0  0
  -23.8343  -10.0050   22.3249 C   0  0  0  0  0  0  0  0  0  0  0  0
  -36.0643  -34.0768   23.1036 C   0  0  0  0  0  0  0  0  0  0  0  0
  -35.4765  -31.3575   23.0255 C   0  0  0  0  0  0  0  0  0  0  0  0
  -31.9594  -26.7154   21.1314 C   0  0  0  0  0  0  0  0  0  0  0  0
  -22.6071   -8.5942   20.2545 C   0  0  0  0  0  0  0  0  0  0  0  0
  -23.1444   -8.8241   22.5988 C   0  0  0  0  0  0  0  0  0  0  0  0
  -31.8891  -25.3760   21.5118 C   0  0  0  0  0  0  0  0  0  0  0  0
  -21.2187   -6.0605   23.9671 C   0  0  0  0  0  0  0  0  0  0  0  0
  -20.3591   -6.0506   25.0656 C   0  0  0  0  0  0  0  0  0  0  0  0
  -30.0722  -25.9028   23.0087 C   0  0  0  0  0  0  0  0  0  0  0  0
  -19.0696   -7.8362   24.0728 C   0  0  0  0  0  0  0  0  0  0  0  0
  -23.9107  -10.4806   21.0158 C   0  0  0  0  0  0  0  0  0  0  0  0
  -24.1022  -13.0077   20.7250 C   0  0  0  0  0  0  0  0  0  0  0  0
  -34.8918  -33.6085   23.7173 C   0  0  0  0  0  0  0  0  0  0  0  0
  -31.0925  -27.6621   21.6957 C   0  0  0  0  0  0  0  0  0  0  0  0
  -34.5981  -32.2318   23.6877 C   0  0  0  0  0  0  0  0  0  0  0  0
  -30.1319  -27.2532   22.6318 C   0  0  0  0  0  0  0  0  0  0  0  0
  -22.5308   -8.1187   21.5636 C   0  0  0  0  0  0  0  0  0  0  0  0
  -30.9473  -24.9700   22.4527 C   0  0  0  0  0  0  0  0  0  0  0  0
  -21.0037   -6.9584   22.9215 C   0  0  0  0  0  0  0  0  0  0  0  0
  -19.2846   -6.9384   25.1185 C   0  0  0  0  0  0  0  0  0  0  0  0
  -19.9292   -7.8462   22.9743 C   0  0  0  0  0  0  0  0  0  0  0  0
  -24.6240  -11.7002   20.7334 C   0  0  0  0  0  0  0  0  0  0  0  0
  -25.1743  -13.8032   20.4021 C   0  0  0  0  0  0  0  0  0  0  0  0
  -22.7677  -13.4625   20.9858 C   0  0  0  0  0  0  0  0  0  0  0  0
  -31.4702  -30.2778   23.4619 C   0  0  0  0  0  0  0  0  0  0  0  0
  -28.2719  -30.5738   23.0087 C   0  0  0  0  0  0  0  0  0  0  0  0
  -25.2925  -29.0629   22.3109 C   0  0  0  0  0  0  0  0  0  0  0  0
  -30.5640  -14.9539   21.5202 C   0  0  0  0  0  0  0  0  0  0  0  0
  -34.0142  -34.5913   24.4511 C   0  0  0  0  0  0  0  0  0  0  0  0
  -31.1633  -29.0984   21.2549 C   0  0  0  0  0  0  0  0  0  0  0  0
  -29.1646  -28.2267   23.2524 C   0  0  0  0  0  0  0  0  0  0  0  0
  -32.6181  -34.0533   24.7538 C   0  0  0  0  0  0  0  0  0  0  0  0
  -29.7774  -12.6184   18.7037 C   0  0  0  0  0  0  0  0  0  0  0  0
  -32.7024  -32.6419   25.3260 C   0  0  0  0  0  0  0  0  0  0  0  0
  -28.3372  -12.2339   19.0388 C   0  0  0  0  0  0  0  0  0  0  0  0
  -30.5631  -12.9681   19.9620 C   0  0  0  0  0  0  0  0  0  0  0  0
  -30.1024  -17.0395   22.8807 C   0  0  0  0  0  0  0  0  0  0  0  0
  -30.8233  -18.3329   22.4949 C   0  0  0  0  0  0  0  0  0  0  0  0
  -28.4940  -13.6669   21.1252 C   0  0  0  0  0  0  0  0  0  0  0  0
  -29.2944  -16.8600   20.5729 C   0  0  0  0  0  0  0  0  0  0  0  0
  -33.3406  -31.6761   24.3204 C   0  0  1  0  0  0  0  0  0  0  0  0
  -30.5728  -30.0665   22.2754 C   0  0  1  0  0  0  0  0  0  0  0  0
  -27.6580  -13.3276   19.8802 C   0  0  2  0  0  0  0  0  0  0  0  0
  -30.0453  -18.1501   20.1949 C   0  0  1  0  0  0  0  0  0  0  0  0
  -29.2961  -18.8178   19.0339 C   0  0  0  0  0  0  0  0  0  0  0  0
  -22.8467  -29.5585   22.0461 C   0  0  0  0  0  0  0  0  0  0  0  0
  -27.9878  -30.7794   26.0397 C   0  0  0  0  0  0  0  0  0  0  0  0
  -25.5419  -30.3166   25.7720 C   0  0  0  0  0  0  0  0  0  0  0  0
  -26.5426  -32.3588   24.7470 C   0  0  0  0  0  0  0  0  0  0  0  0
  -25.2928  -28.1463   19.4968 C   0  0  0  0  0  0  0  0  0  0  0  0
  -30.8751  -20.2750   21.0917 C   0  0  0  0  0  0  0  0  0  0  0  0
  -31.2534  -22.6890   21.8533 C   0  0  0  0  0  0  0  0  0  1  0  0
  -27.0399  -30.0947   23.7379 C   0  0  1  0  0  0  0  0  0  0  0  0
  -24.1849  -29.4216   21.3367 C   0  0  2  0  0  0  0  0  0  0  0  0
  -30.5208  -21.3705   22.0990 C   0  0  1  0  0  0  0  0  0  0  0  0
  -26.7974  -30.8691   25.0641 C   0  0  0  0  0  0  0  0  0  0  0  0
  -25.9263  -11.6629   20.4391 N   0  0  0  0  0  0  0  0  0  0  0  0
  -26.2318  -12.9568   20.2426 N   0  0  0  0  0  0  0  0  0  0  0  0
  -29.2777  -29.6210   22.7935 N   0  0  0  0  0  0  0  0  0  0  0  0
  -29.8766  -13.9890   20.7653 N   0  0  0  0  0  0  0  0  0  0  0  0
  -29.9257  -16.1883   21.7041 N   0  0  0  0  0  0  0  0  0  0  0  0
  -30.1575  -19.0306   21.3806 N   0  0  2  0  0  0  0  0  0  0  0  0
  -25.3062  -15.1371   20.2419 N   0  0  0  0  0  0  0  0  0  0  0  0
  -21.7878  -12.5119   21.3029 N   0  0  0  0  0  0  0  0  0  0  0  0
  -32.3835  -31.3022   23.3013 N   0  0  0  0  0  0  0  0  0  0  0  0
  -25.9400  -30.1847   22.7837 N   0  0  0  0  0  0  0  0  0  0  0  0
  -29.0521  -21.6323   21.9859 N   0  3  0  0  0  0  0  0  0  0  0  0
  -24.0559  -28.3698   20.2888 N   0  3  0  0  0  0  0  0  0  0  0  0
  -22.4498  -14.6743   20.9230 O   0  0  0  0  0  0  0  0  0  0  0  0
  -31.3424  -29.5651   24.4506 O   0  0  0  0  0  0  0  0  0  0  0  0
  -28.3363  -31.7484   22.6373 O   0  0  0  0  0  0  0  0  0  0  0  0
  -25.5544  -27.9037   22.6242 O   0  0  0  0  0  0  0  0  0  0  0  0
  -31.6785  -14.7214   22.0049 O   0  0  0  0  0  0  0  0  0  0  0  0
  -21.8575   -6.9665   21.8312 O   0  0  0  0  0  0  0  0  0  0  0  0
  -30.8765  -23.6549   22.8288 O   0  0  0  0  0  0  0  0  0  1  0  0
  -18.4584   -6.9277   26.1727 F   0  0  0  0  0  0  0  0  0  0  0  0
  -19.7169   -8.7102   21.9722 F   0  0  0  0  0  0  0  0  0  0  0  0
  1  2  1  0  0  0  0
  1  5  2  0  0  0  0
  2  6  2  0  0  0  0
  3  8  2  0  0  0  0
  3 15  1  0  0  0  0
  4  9  1  0  0  0  0
  4 15  2  0  0  0  0
  5 17  1  0  0  0  0
  6 19  1  0  0  0  0
  7 10  2  0  0  0  0
  7 18  1  0  0  0  0
  8 21  1  0  0  0  0
  9 21  2  0  0  0  0
 10 22  1  0  0  0  0
 11 12  2  0  0  0  0
 11 23  1  0  0  0  0
 12 24  1  0  0  0  0
 13 20  1  0  0  0  0
 13 22  2  0  0  0  0
 14 24  2  0  0  0  0
 14 25  1  0  0  0  0
 15 26  1  0  0  0  0
 16 26  1  0  0  0  0
 16 27  2  0  0  0  0
 16 28  1  0  0  0  0
 17 19  2  0  0  0  0
 17 33  1  0  0  0  0
 18 20  2  0  0  0  0
 18 34  1  0  0  0  0
 19 45  1  0  0  0  0
 20 35  1  0  0  0  0
 21 78  1  0  0  0  0
 22 79  1  0  0  0  0
 23 25  2  0  0  0  0
 23 78  1  0  0  0  0
 24 80  1  0  0  0  0
 25 81  1  0  0  0  0
 26 61  2  0  0  0  0
 27 62  1  0  0  0  0
 27 67  1  0  0  0  0
 28 68  1  0  0  0  0
 28 73  2  0  0  0  0
 29 46  1  0  0  0  0
 29 69  1  0  0  0  0
 29 74  2  0  0  0  0
 30 57  1  0  0  0  0
 30 63  1  0  0  0  0
 30 75  2  0  0  0  0
 31 58  1  0  0  0  0
 31 70  1  0  0  0  0
 31 76  2  0  0  0  0
 32 64  1  0  0  0  0
 32 65  1  0  0  0  0
 32 77  2  0  0  0  0
 33 36  1  0  0  0  0
 34 46  1  0  0  0  0
 35 63  1  0  0  0  0
 36 38  1  0  0  0  0
 37 39  1  0  0  0  0
 37 40  1  0  0  0  0
 38 45  1  0  0  0  0
 39 47  1  0  0  0  0
 40 64  1  0  0  0  0
 41 42  1  0  0  0  0
 41 65  1  0  0  0  0
 42 66  1  0  0  0  0
 43 47  1  0  0  0  0
 43 64  1  0  0  0  0
 44 48  1  0  0  0  0
 44 65  1  0  0  0  0
 45 69  1  0  0  0  0
 46 63  1  0  0  0  0
 47 62  1  0  0  0  0
 48 49  1  0  0  0  0
 48 66  1  0  0  0  0
 50 58  1  0  0  0  0
 51 60  1  0  0  0  0
 52 60  1  0  0  0  0
 53 60  1  0  0  0  0
 54 72  1  0  0  0  0
 55 59  1  0  0  0  0
 55 66  1  0  0  0  0
 56 59  1  0  0  0  0
 56 79  1  0  0  0  0
 57 60  1  0  0  0  0
 57 70  1  0  0  0  0
 58 72  1  0  0  0  0
 59 71  1  0  0  0  0
 61 62  1  0  0  0  0
M  CHG  2  71   1  72   1
M  ISO  4  32 100  56 101  65 100  79 101
M  END
> <Batch ID>
0190

> <Smiles>
CNC(C)C(=O)NC(C(=O)N1Cc2cc([101O:1][101CH2:1]C(N)CN3CC[100N:0]([100C:0](=O)N4CCCC(n5nc(-c6ccc(Oc7ccc(F)cc7F)cc6)c(C(N)=O)c5N)C4)CC3C)ccc2CC1C(=O)NC1CCCc2ccccc21)C(C)(C)C

> <Shape>
0.284

> <Color>
0.187

> <Negative vol penalty>
0.000

$$$$

  -OEChem-04052323243D

 81 90  0     1  0  0  0  0  0999 V2000
  -25.8544  -10.9204   23.5950 C   0  0  0  0  0  0  0  0  0  0  0  0
  -26.7304  -11.9977   23.6810 C   0  0  0  0  0  0  0  0  0  0  0  0
  -22.3719  -28.2648   20.8515 C   0  0  0  0  0  0  0  0  0  0  0  0
  -23.6404  -27.5902   22.7940 C   0  0  0  0  0  0  0  0  0  0  0  0
  -25.0463  -10.7686   22.4690 C   0  0  0  0  0  0  0  0  0  0  0  0
  -26.7996  -12.9233   22.6404 C   0  0  0  0  0  0  0  0  0  0  0  0
  -27.8180  -18.9425   23.1293 C   0  0  0  0  0  0  0  0  0  0  0  0
  -21.1850  -28.0463   21.5507 C   0  0  0  0  0  0  0  0  0  0  0  0
  -22.4534  -27.3718   23.4932 C   0  0  0  0  0  0  0  0  0  0  0  0
  -28.9679  -19.7150   22.9725 C   0  0  0  0  0  0  0  0  0  0  0  0
  -19.3319  -29.6552   23.8768 C   0  0  0  0  0  0  0  0  0  0  0  0
  -18.3349  -30.6259   23.7807 C   0  0  0  0  0  0  0  0  0  0  0  0
  -34.4385  -23.6800   21.7228 C   0  0  0  0  0  0  0  0  0  0  0  0
  -28.3293  -20.1923   20.6957 C   0  0  0  0  0  0  0  0  0  0  0  0
  -16.8277  -28.9852   22.8459 C   0  0  0  0  0  0  0  0  0  0  0  0
  -34.6141  -22.3683   22.1140 C   0  0  0  0  0  0  0  0  0  0  0  0
  -23.5997  -28.0367   21.4731 C   0  0  0  0  0  0  0  0  0  0  0  0
  -25.5658  -29.4576   20.6837 C   0  0  0  0  0  0  0  0  0  0  0  0
  -25.0987  -11.6983   21.4184 C   0  0  0  0  0  0  0  0  0  0  0  0
  -26.9191  -18.7798   22.0654 C   0  0  0  0  0  0  0  0  0  0  0  0
  -25.9924  -12.7832   21.4987 C   0  0  0  0  0  0  0  0  0  0  0  0
  -27.1674  -19.4193   20.8424 C   0  0  0  0  0  0  0  0  0  0  0  0
  -21.2257  -27.5998   22.8716 C   0  0  0  0  0  0  0  0  0  0  0  0
  -29.2252  -20.3377   21.7546 C   0  0  0  0  0  0  0  0  0  0  0  0
  -19.0769  -28.3495   23.4574 C   0  0  0  0  0  0  0  0  0  0  0  0
  -17.0828  -30.2909   23.2652 C   0  0  0  0  0  0  0  0  0  0  0  0
  -17.8248  -28.0145   22.9420 C   0  0  0  0  0  0  0  0  0  0  0  0
  -24.8262  -28.2617   20.7512 C   0  0  0  0  0  0  0  0  0  0  0  0
  -33.1317  -24.1213   21.6830 C   0  0  0  0  0  0  0  0  0  0  0  0
  -26.6371  -29.1538   19.8797 C   0  0  0  0  0  0  0  0  0  0  0  0
  -32.3720  -22.0904   22.3651 C   0  0  0  0  0  0  0  0  0  0  0  0
  -25.3076  -30.7293   21.2934 C   0  0  0  0  0  0  0  0  0  0  0  0
  -25.8684  -16.3011   20.3755 C   0  0  0  0  0  0  0  0  0  0  0  0
  -23.8982  -18.5235   19.0711 C   0  0  0  0  0  0  0  0  0  0  0  0
  -23.3056  -21.8075   18.3565 C   0  0  0  0  0  0  0  0  0  0  0  0
  -30.7690  -25.5640   18.5154 C   0  0  0  0  0  0  0  0  0  0  0  0
  -24.2399  -11.4664   20.2005 C   0  0  0  0  0  0  0  0  0  0  0  0
  -25.6697  -17.9651   22.2590 C   0  0  0  0  0  0  0  0  0  0  0  0
  -26.2237  -19.2928   19.6754 C   0  0  0  0  0  0  0  0  0  0  0  0
  -24.1033  -12.6974   19.3081 C   0  0  0  0  0  0  0  0  0  0  0  0
  -27.5562  -25.1523   16.9636 C   0  0  0  0  0  0  0  0  0  0  0  0
  -25.4655  -13.3448   19.0795 C   0  0  0  0  0  0  0  0  0  0  0  0
  -26.6099  -25.9749   17.8321 C   0  0  0  0  0  0  0  0  0  0  0  0
  -28.6513  -24.5134   17.8070 C   0  0  0  0  0  0  0  0  0  0  0  0
  -32.9255  -26.0454   19.7863 C   0  0  0  0  0  0  0  0  0  0  0  0
  -31.2249  -25.9440   21.0605 C   0  0  0  0  0  0  0  0  0  0  0  0
  -28.5336  -26.3655   19.4531 C   0  0  0  0  0  0  0  0  0  0  0  0
  -26.0784  -13.8220   20.4016 C   0  0  1  0  0  0  0  0  0  0  0  0
  -32.7240  -25.6057   21.2559 C   0  0  0  0  0  0  0  0  0  0  0  0
  -25.0846  -17.4478   20.9485 C   0  0  1  0  0  0  0  0  0  0  0  0
  -27.3939  -27.0161   18.6439 C   0  0  2  0  0  0  0  0  0  0  0  0
  -21.6290  -23.3113   17.2496 C   0  0  0  0  0  0  0  0  0  0  0  0
  -24.9065  -17.6289   16.3338 C   0  0  0  0  0  0  0  0  0  0  0  0
  -23.9588  -19.7376   15.3728 C   0  0  0  0  0  0  0  0  0  0  0  0
  -22.4473  -18.0689   16.4468 C   0  0  0  0  0  0  0  0  0  0  0  0
  -22.7947  -23.2819   20.8712 C   0  0  0  0  0  0  0  0  0  0  0  0
  -31.2172  -21.2023   22.7243 C   0  0  0  0  0  0  0  0  0  1  0  0
  -23.9796  -19.4653   17.8940 C   0  0  1  0  0  0  0  0  0  0  0  0
  -22.0769  -22.6762   18.5568 C   0  0  2  0  0  0  0  0  0  0  0  0
  -23.8420  -18.7262   16.5331 C   0  0  0  0  0  0  0  0  0  0  0  0
  -33.5996  -21.5422   22.4434 N   0  0  0  0  0  0  0  0  0  0  0  0
  -25.3806  -27.2720   20.0460 N   0  0  0  0  0  0  0  0  0  0  0  0
  -32.0702  -23.3506   21.9986 N   0  0  0  0  0  0  0  0  0  0  0  0
  -26.4800  -27.8455   19.5278 N   0  0  0  0  0  0  0  0  0  0  0  0
  -25.0190  -18.4803   19.9123 N   0  0  0  0  0  0  0  0  0  0  0  0
  -29.3744  -25.5025   18.6118 N   0  0  0  0  0  0  0  0  0  0  0  0
  -31.4813  -25.9405   19.6313 N   0  0  0  0  0  0  0  0  0  0  0  0
  -27.6888  -29.8809   19.4463 N   0  0  0  0  0  0  0  0  0  0  0  0
  -24.1621  -30.8686   22.0889 N   0  0  0  0  0  0  0  0  0  0  0  0
  -25.4614  -15.0601   20.8269 N   0  0  0  0  0  0  0  0  0  0  0  0
  -22.9679  -20.4915   18.1216 N   0  0  0  0  0  0  0  0  0  0  0  0
  -22.3654  -23.7644   19.5333 N   0  3  0  0  0  0  0  0  0  0  0  0
  -26.0613  -31.7176   21.1241 O   0  0  0  0  0  0  0  0  0  0  0  0
  -26.7743  -16.5256   19.5814 O   0  0  0  0  0  0  0  0  0  0  0  0
  -22.8749  -17.8562   19.2420 O   0  0  0  0  0  0  0  0  0  0  0  0
  -24.4503  -22.2527   18.4000 O   0  0  0  0  0  0  0  0  0  0  0  0
  -31.3655  -25.2619   17.4733 O   0  0  0  0  0  0  0  0  0  0  0  0
  -20.0676  -27.3868   23.5543 O   0  0  0  0  0  0  0  0  0  0  0  0
  -30.3472  -21.0918   21.5986 O   0  0  0  0  0  0  0  0  0  1  0  0
  -16.1249  -31.2227   23.1744 F   0  0  0  0  0  0  0  0  0  0  0  0
  -17.5736  -26.7615   22.5386 F   0  0  0  0  0  0  0  0  0  0  0  0
  1  2  1  0  0  0  0
  1  5  2  0  0  0  0
  2  6  2  0  0  0  0
  3  8  2  0  0  0  0
  3 17  1  0  0  0  0
  4  9  1  0  0  0  0
  4 17  2  0  0  0  0
  5 19  1  0  0  0  0
  6 21  1  0  0  0  0
  7 10  2  0  0  0  0
  7 20  1  0  0  0  0
  8 23  1  0  0  0  0
  9 23  2  0  0  0  0
 10 24  1  0  0  0  0
 11 12  2  0  0  0  0
 11 25  1  0  0  0  0
 12 26  1  0  0  0  0
 13 16  1  0  0  0  0
 13 29  2  0  0  0  0
 14 22  1  0  0  0  0
 14 24  2  0  0  0  0
 15 26  2  0  0  0  0
 15 27  1  0  0  0  0
 16 61  2  0  0  0  0
 17 28  1  0  0  0  0
 18 28  1  0  0  0  0
 18 30  2  0  0  0  0
 18 32  1  0  0  0  0
 19 21  2  0  0  0  0
 19 37  1  0  0  0  0
 20 22  2  0  0  0  0
 20 38  1  0  0  0  0
 21 48  1  0  0  0  0
 22 39  1  0  0  0  0
 23 78  1  0  0  0  0
 24 79  1  0  0  0  0
 25 27  2  0  0  0  0
 25 78  1  0  0  0  0
 26 80  1  0  0  0  0
 27 81  1  0  0  0  0
 28 62  2  0  0  0  0
 29 49  1  0  0  0  0
 29 63  1  0  0  0  0
 30 64  1  0  0  0  0
 30 68  1  0  0  0  0
 31 57  1  0  0  0  0
 31 61  1  0  0  0  0
 31 63  2  0  0  0  0
 32 69  1  0  0  0  0
 32 73  2  0  0  0  0
 33 50  1  0  0  0  0
 33 70  1  0  0  0  0
 33 74  2  0  0  0  0
 34 58  1  0  0  0  0
 34 65  1  0  0  0  0
 34 75  2  0  0  0  0
 35 59  1  0  0  0  0
 35 71  1  0  0  0  0
 35 76  2  0  0  0  0
 36 66  1  0  0  0  0
 36 67  1  0  0  0  0
 36 77  2  0  0  0  0
 37 40  1  0  0  0  0
 38 50  1  0  0  0  0
 39 65  1  0  0  0  0
 40 42  1  0  0  0  0
 41 43  1  0  0  0  0
 41 44  1  0  0  0  0
 42 48  1  0  0  0  0
 43 51  1  0  0  0  0
 44 66  1  0  0  0  0
 45 49  1  0  0  0  0
 45 67  1  0  0  0  0
 46 49  1  0  0  0  0
 46 67  1  0  0  0  0
 47 51  1  0  0  0  0
 47 66  1  0  0  0  0
 48 70  1  0  0  0  0
 50 65  1  0  0  0  0
 51 64  1  0  0  0  0
 52 59  1  0  0  0  0
 53 60  1  0  0  0  0
 54 60  1  0  0  0  0
 55 60  1  0  0  0  0
 56 72  1  0  0  0  0
 57 79  1  0  0  0  0
 58 60  1  0  0  0  0
 58 71  1  0  0  0  0
 59 72  1  0  0  0  0
 62 64  1  0  0  0  0
M  CHG  1  72   1
M  ISO  4  36 100  57 101  67 100  79 101
M  END
> <Batch ID>
0190

> <Smiles>
CNC(C)C(=O)NC(C(=O)N1Cc2cc([101O:1][101CH2:1]c3nccc(C4C[100N:0]([100C:0](=O)N5CCCC(n6nc(-c7ccc(Oc8ccc(F)cc8F)cc7)c(C(N)=O)c6N)C5)C4)n3)ccc2CC1C(=O)NC1CCCc2ccccc21)C(C)(C)C

> <Shape>
0.214

> <Color>
0.069

> <Negative vol penalty>
0.000

$$$$

  -OEChem-04052323243D

 85 94  0     1  0  0  0  0  0999 V2000
  -28.7631  -35.7368   24.0303 C   0  0  0  0  0  0  0  0  0  0  0  0
  -29.0712  -34.4589   23.5746 C   0  0  0  0  0  0  0  0  0  0  0  0
  -23.3769   -9.8145   19.8670 C   0  0  0  0  0  0  0  0  0  0  0  0
  -23.1232  -10.3364   22.2123 C   0  0  0  0  0  0  0  0  0  0  0  0
  -27.5276  -35.9837   24.6274 C   0  0  0  0  0  0  0  0  0  0  0  0
  -28.1443  -33.4269   23.7168 C   0  0  0  0  0  0  0  0  0  0  0  0
  -27.1973  -28.7710   19.8527 C   0  0  0  0  0  0  0  0  0  0  0  0
  -23.4893   -8.4600   20.1806 C   0  0  0  0  0  0  0  0  0  0  0  0
  -23.2356   -8.9818   22.5259 C   0  0  0  0  0  0  0  0  0  0  0  0
  -27.6369  -27.4479   19.8526 C   0  0  0  0  0  0  0  0  0  0  0  0
  -21.2607   -6.2402   22.4632 C   0  0  0  0  0  0  0  0  0  0  0  0
  -20.3542   -5.7120   23.3823 C   0  0  0  0  0  0  0  0  0  0  0  0
  -25.5693  -26.7673   20.8924 C   0  0  0  0  0  0  0  0  0  0  0  0
  -22.1847   -5.0963   24.8339 C   0  0  0  0  0  0  0  0  0  0  0  0
  -23.1939  -10.7527   20.8829 C   0  0  0  0  0  0  0  0  0  0  0  0
  -21.8979  -12.8639   20.2739 C   0  0  0  0  0  0  0  0  0  0  0  0
  -26.5813  -34.9564   24.7682 C   0  0  0  0  0  0  0  0  0  0  0  0
  -25.9428  -29.1042   20.3835 C   0  0  0  0  0  0  0  0  0  0  0  0
  -26.8955  -33.6600   24.3175 C   0  0  0  0  0  0  0  0  0  0  0  0
  -25.1151  -28.0950   20.8957 C   0  0  0  0  0  0  0  0  0  0  0  0
  -23.4186   -8.0437   21.5100 C   0  0  0  0  0  0  0  0  0  0  0  0
  -26.8240  -26.4462   20.3751 C   0  0  0  0  0  0  0  0  0  0  0  0
  -22.6293   -6.1964   22.7294 C   0  0  0  0  0  0  0  0  0  0  0  0
  -20.8162   -5.1400   24.5676 C   0  0  0  0  0  0  0  0  0  0  0  0
  -23.0913   -5.6245   23.9148 C   0  0  0  0  0  0  0  0  0  0  0  0
  -23.0783  -12.1521   20.5597 C   0  0  0  0  0  0  0  0  0  0  0  0
  -22.3209  -14.1485   20.0346 C   0  0  0  0  0  0  0  0  0  0  0  0
  -28.9872  -21.4294   18.8758 C   0  0  0  0  0  0  0  0  0  0  0  0
  -28.8169  -23.4223   19.8936 C   0  0  0  0  0  0  0  0  0  0  0  0
  -29.3578  -21.5976   21.0829 C   0  0  0  0  0  0  0  0  0  0  0  0
  -20.5403  -12.4049   20.2287 C   0  0  0  0  0  0  0  0  0  0  0  0
  -24.9354  -30.9294   22.7829 C   0  0  0  0  0  0  0  0  0  0  0  0
  -22.0078  -30.2170   21.5814 C   0  0  0  0  0  0  0  0  0  0  0  0
  -20.0650  -28.0844   19.7581 C   0  0  0  0  0  0  0  0  0  0  0  0
  -27.2031  -16.9924   21.9520 C   0  0  0  0  0  0  0  0  0  0  0  0
  -25.2776  -35.2606   25.4628 C   0  0  0  0  0  0  0  0  0  0  0  0
  -25.4722  -30.5324   20.3518 C   0  0  0  0  0  0  0  0  0  0  0  0
  -23.7513  -28.3975   21.4587 C   0  0  0  0  0  0  0  0  0  0  0  0
  -24.2048  -34.1983   25.2370 C   0  0  0  0  0  0  0  0  0  0  0  0
  -26.0644  -16.6362   18.4514 C   0  0  0  0  0  0  0  0  0  0  0  0
  -24.7853  -32.8021   25.4386 C   0  0  0  0  0  0  0  0  0  0  0  0
  -25.1019  -15.4595   18.5764 C   0  0  0  0  0  0  0  0  0  0  0  0
  -30.5290  -19.2448   23.8369 C   0  0  0  0  0  0  0  0  0  0  0  0
  -29.6260  -17.9933   23.7947 C   0  0  0  0  0  0  0  0  0  0  0  0
  -27.2340  -16.5297   19.4293 C   0  0  0  0  0  0  0  0  0  0  0  0
  -25.8418  -15.1748   20.9724 C   0  0  0  0  0  0  0  0  0  0  0  0
  -25.9066  -32.5201   24.4313 C   0  0  1  0  0  0  0  0  0  0  0  0
  -24.3906  -30.8282   21.3863 C   0  0  1  0  0  0  0  0  0  0  0  0
  -24.6346  -15.2956   20.0303 C   0  0  2  0  0  0  0  0  0  0  0  0
  -29.9585  -19.6081   22.4487 C   0  0  1  0  0  0  0  0  0  0  0  0
  -28.7068  -18.7778   22.8272 C   0  0  1  0  0  0  0  0  0  0  0  0
  -27.4707  -20.2985   17.2303 C   0  0  0  0  0  0  0  0  0  0  0  0
  -17.7022  -27.7474   18.9828 C   0  0  0  0  0  0  0  0  0  0  0  0
  -21.2266  -29.2786   24.3776 C   0  0  0  0  0  0  0  0  0  0  0  0
  -19.2634  -28.1049   23.3596 C   0  0  0  0  0  0  0  0  0  0  0  0
  -19.4596  -30.5855   23.1842 C   0  0  0  0  0  0  0  0  0  0  0  0
  -20.8562  -28.2288   16.9099 C   0  0  0  0  0  0  0  0  0  0  0  0
  -28.9103  -20.6007   17.6391 C   0  0  0  0  0  0  0  0  0  0  0  0
  -28.5424  -24.8960   19.8275 C   0  0  0  0  0  0  0  0  0  1  0  0
  -20.9958  -29.1205   21.8110 C   0  0  1  0  0  0  0  0  0  0  0  0
  -19.0632  -28.3361   18.6456 C   0  0  2  0  0  0  0  0  0  0  0  0
  -20.2628  -29.2666   23.1743 C   0  0  0  0  0  0  0  0  0  0  0  0
  -24.1694  -12.9207   20.5072 N   0  0  0  0  0  0  0  0  0  0  0  0
  -28.7291  -22.7403   18.7404 N   0  0  0  0  0  0  0  0  0  0  0  0
  -29.3076  -20.7892   20.0119 N   0  0  0  0  0  0  0  0  0  0  0  0
  -29.1252  -22.9199   21.1000 N   0  0  0  0  0  0  0  0  0  0  0  0
  -23.6763  -14.1288   20.1855 N   0  0  0  0  0  0  0  0  0  0  0  0
  -23.3386  -29.8099   21.4111 N   0  0  0  0  0  0  0  0  0  0  0  0
  -26.7727  -16.2980   20.8073 N   0  0  0  0  0  0  0  0  0  0  0  0
  -21.6621  -15.2817   19.7119 N   0  0  0  0  0  0  0  0  0  0  0  0
  -20.2822  -11.0544   20.5005 N   0  0  0  0  0  0  0  0  0  0  0  0
  -29.6889  -20.9960   22.3163 N   0  0  0  0  0  0  0  0  0  0  0  0
  -25.3516  -32.1995   23.1338 N   0  0  0  0  0  0  0  0  0  0  0  0
  -20.1100  -29.1334   20.6519 N   0  0  0  0  0  0  0  0  0  0  0  0
  -28.1594  -17.9806   21.7394 N   0  0  0  0  0  0  0  0  0  0  0  0
  -19.5380  -27.7236   17.3727 N   0  3  0  0  0  0  0  0  0  0  0  0
  -19.5862  -13.1661   19.9393 O   0  0  0  0  0  0  0  0  0  0  0  0
  -24.9739  -29.9296   23.4904 O   0  0  0  0  0  0  0  0  0  0  0  0
  -21.6303  -31.3908   21.5470 O   0  0  0  0  0  0  0  0  0  0  0  0
  -20.7374  -27.0580   19.8293 O   0  0  0  0  0  0  0  0  0  0  0  0
  -26.7758  -16.7495   23.0859 O   0  0  0  0  0  0  0  0  0  0  0  0
  -23.5280   -6.7220   21.8163 O   0  0  0  0  0  0  0  0  0  0  0  0
  -27.2509  -25.1541   20.3768 O   0  0  0  0  0  0  0  0  0  1  0  0
  -19.9454   -4.6342   25.4509 F   0  0  0  0  0  0  0  0  0  0  0  0
  -24.4048   -5.5806   24.1766 F   0  0  0  0  0  0  0  0  0  0  0  0
  1  2  1  0  0  0  0
  1  5  2  0  0  0  0
  2  6  2  0  0  0  0
  3  8  2  0  0  0  0
  3 15  1  0  0  0  0
  4  9  1  0  0  0  0
  4 15  2  0  0  0  0
  5 17  1  0  0  0  0
  6 19  1  0  0  0  0
  7 10  2  0  0  0  0
  7 18  1  0  0  0  0
  8 21  1  0  0  0  0
  9 21  2  0  0  0  0
 10 22  1  0  0  0  0
 11 12  2  0  0  0  0
 11 23  1  0  0  0  0
 12 24  1  0  0  0  0
 13 20  1  0  0  0  0
 13 22  2  0  0  0  0
 14 24  2  0  0  0  0
 14 25  1  0  0  0  0
 15 26  1  0  0  0  0
 16 26  1  0  0  0  0
 16 27  2  0  0  0  0
 16 31  1  0  0  0  0
 17 19  2  0  0  0  0
 17 36  1  0  0  0  0
 18 20  2  0  0  0  0
 18 37  1  0  0  0  0
 19 47  1  0  0  0  0
 20 38  1  0  0  0  0
 21 82  1  0  0  0  0
 22 83  1  0  0  0  0
 23 25  2  0  0  0  0
 23 82  1  0  0  0  0
 24 84  1  0  0  0  0
 25 85  1  0  0  0  0
 26 63  2  0  0  0  0
 27 67  1  0  0  0  0
 27 70  1  0  0  0  0
 28 58  1  0  0  0  0
 28 64  2  0  0  0  0
 28 65  1  0  0  0  0
 29 59  1  0  0  0  0
 29 64  1  0  0  0  0
 29 66  2  0  0  0  0
 30 65  2  0  0  0  0
 30 66  1  0  0  0  0
 30 72  1  0  0  0  0
 31 71  1  0  0  0  0
 31 77  2  0  0  0  0
 32 48  1  0  0  0  0
 32 73  1  0  0  0  0
 32 78  2  0  0  0  0
 33 60  1  0  0  0  0
 33 68  1  0  0  0  0
 33 79  2  0  0  0  0
 34 61  1  0  0  0  0
 34 74  1  0  0  0  0
 34 80  2  0  0  0  0
 35 69  1  0  0  0  0
 35 75  1  0  0  0  0
 35 81  2  0  0  0  0
 36 39  1  0  0  0  0
 37 48  1  0  0  0  0
 38 68  1  0  0  0  0
 39 41  1  0  0  0  0
 40 42  1  0  0  0  0
 40 45  1  0  0  0  0
 41 47  1  0  0  0  0
 42 49  1  0  0  0  0
 43 44  1  0  0  0  0
 43 50  1  0  0  0  0
 44 51  1  0  0  0  0
 45 69  1  0  0  0  0
 46 49  1  0  0  0  0
 46 69  1  0  0  0  0
 47 73  1  0  0  0  0
 48 68  1  0  0  0  0
 49 67  1  0  0  0  0
 50 51  1  0  0  0  0
 50 72  1  0  0  0  0
 51 75  1  0  0  0  0
 52 58  1  0  0  0  0
 53 61  1  0  0  0  0
 54 62  1  0  0  0  0
 55 62  1  0  0  0  0
 56 62  1  0  0  0  0
 57 76  1  0  0  0  0
 59 83  1  0  0  0  0
 60 62  1  0  0  0  0
 60 74  1  0  0  0  0
 61 76  1  0  0  0  0
 63 67  1  0  0  0  0
M  CHG  1  76   1
M  ISO  4  35 100  59 101  75 100  83 101
M  END
> <Batch ID>
0190

> <Smiles>
CCc1nc(NC2CCC2[100NH:0][100C:0](=O)N2CCCC(n3nc(-c4ccc(Oc5ccc(F)cc5F)cc4)c(C(N)=O)c3N)C2)nc([101CH2:1][101O:1]c2ccc3c(c2)CN(C(=O)C(NC(=O)C(C)NC)C(C)(C)C)C(C(=O)NC2CCCc4ccccc42)C3)n1

> <Shape>
0.301

> <Color>
0.093

> <Negative vol penalty>
0.000

$$$$

  -OEChem-04052323243D

 87 96  0     1  0  0  0  0  0999 V2000
  -23.1894  -35.9918   16.1729 C   0  0  0  0  0  0  0  0  0  0  0  0
  -23.8037  -34.7483   16.0645 C   0  0  0  0  0  0  0  0  0  0  0  0
  -24.1810  -10.7254   23.7668 C   0  0  0  0  0  0  0  0  0  0  0  0
  -23.0843  -10.0930   21.7090 C   0  0  0  0  0  0  0  0  0  0  0  0
  -23.2915  -36.7174   17.3590 C   0  0  0  0  0  0  0  0  0  0  0  0
  -24.5214  -34.2302   17.1419 C   0  0  0  0  0  0  0  0  0  0  0  0
  -24.9734  -28.3451   18.7753 C   0  0  0  0  0  0  0  0  0  0  0  0
  -23.4686   -9.7395   24.4494 C   0  0  0  0  0  0  0  0  0  0  0  0
  -22.3720   -9.1070   22.3917 C   0  0  0  0  0  0  0  0  0  0  0  0
  -25.9544  -27.3811   18.5473 C   0  0  0  0  0  0  0  0  0  0  0  0
  -22.9400   -5.9910   23.5699 C   0  0  0  0  0  0  0  0  0  0  0  0
  -22.8520   -4.7306   22.9788 C   0  0  0  0  0  0  0  0  0  0  0  0
  -26.9228  -27.8653   20.7030 C   0  0  0  0  0  0  0  0  0  0  0  0
  -20.4440   -4.9212   22.9309 C   0  0  0  0  0  0  0  0  0  0  0  0
  -29.3642  -24.7044   23.6888 C   0  0  0  0  0  0  0  0  0  0  0  0
  -23.9888  -10.9022   22.3965 C   0  0  0  0  0  0  0  0  0  0  0  0
  -25.9773  -11.7849   21.0645 C   0  0  0  0  0  0  0  0  0  0  0  0
  -24.0027  -36.2036   18.4549 C   0  0  0  0  0  0  0  0  0  0  0  0
  -24.9661  -29.0854   19.9663 C   0  0  0  0  0  0  0  0  0  0  0  0
  -24.6343  -34.9502   18.3433 C   0  0  0  0  0  0  0  0  0  0  0  0
  -25.9391  -28.8364   20.9448 C   0  0  0  0  0  0  0  0  0  0  0  0
  -22.5641   -8.9302   23.7619 C   0  0  0  0  0  0  0  0  0  0  0  0
  -26.9310  -27.1431   19.5100 C   0  0  0  0  0  0  0  0  0  0  0  0
  -21.7800   -6.7164   23.8416 C   0  0  0  0  0  0  0  0  0  0  0  0
  -21.6040   -4.1957   22.6593 C   0  0  0  0  0  0  0  0  0  0  0  0
  -20.5320   -6.1815   23.5221 C   0  0  0  0  0  0  0  0  0  0  0  0
  -24.7239  -11.9209   21.6909 C   0  0  0  0  0  0  0  0  0  0  0  0
  -29.9794  -26.3937   22.2756 C   0  0  0  0  0  0  0  0  0  0  0  0
  -29.2398  -25.8184   21.2658 C   0  0  0  0  0  0  0  0  0  0  0  0
  -28.6240  -24.1294   22.6794 C   0  0  0  0  0  0  0  0  0  0  0  0
  -26.2372  -13.0286   20.5428 C   0  0  0  0  0  0  0  0  0  0  0  0
  -26.8303  -10.6369   20.9632 C   0  0  0  0  0  0  0  0  0  0  0  0
  -25.2498  -32.1666   20.6940 C   0  0  0  0  0  0  0  0  0  0  0  0
  -24.5681  -31.1216   23.6883 C   0  0  0  0  0  0  0  0  0  0  0  0
  -24.5627  -28.5455   25.9267 C   0  0  0  0  0  0  0  0  0  0  0  0
  -26.4278  -18.3849   20.8247 C   0  0  0  0  0  0  0  0  0  0  0  0
  -24.1252  -37.0456   19.7001 C   0  0  0  0  0  0  0  0  0  0  0  0
  -23.8853  -30.1030   20.2084 C   0  0  0  0  0  0  0  0  0  0  0  0
  -25.9633  -29.5898   22.2488 C   0  0  0  0  0  0  0  0  0  0  0  0
  -24.5891  -36.2596   20.9237 C   0  0  0  0  0  0  0  0  0  0  0  0
  -23.2666  -17.0817   20.0262 C   0  0  0  0  0  0  0  0  0  0  0  0
  -25.7794  -35.3738   20.5693 C   0  0  0  0  0  0  0  0  0  0  0  0
  -23.4619  -15.5985   20.3396 C   0  0  0  0  0  0  0  0  0  0  0  0
  -26.1338  -21.3494   22.6991 C   0  0  0  0  0  0  0  0  0  0  0  0
  -28.0300  -21.4496   21.0371 C   0  0  0  0  0  0  0  0  0  0  0  0
  -23.9376  -17.9805   21.0665 C   0  0  0  0  0  0  0  0  0  0  0  0
  -25.3356  -20.4941   21.7107 C   0  0  0  0  0  0  0  0  0  0  0  0
  -27.1863  -20.6193   20.0740 C   0  0  0  0  0  0  0  0  0  0  0  0
  -25.5654  -16.1957   21.5987 C   0  0  0  0  0  0  0  0  0  0  0  0
  -25.4008  -34.3435   19.4985 C   0  0  1  0  0  0  0  0  0  0  0  0
  -24.2778  -31.1581   21.2380 C   0  0  1  0  0  0  0  0  0  0  0  0
  -24.9517  -15.2676   20.5390 C   0  0  1  0  0  0  0  0  0  0  0  0
  -27.1325  -22.2577   21.9779 C   0  0  0  0  0  0  0  0  0  0  0  0
  -31.7267  -27.9431   23.1882 C   0  0  0  0  0  0  0  0  0  0  0  0
  -30.2481  -25.9134   18.9599 C   0  0  0  0  0  0  0  0  0  0  0  0
  -23.9816  -28.0058   28.3075 C   0  0  0  0  0  0  0  0  0  0  0  0
  -27.0993  -32.5442   24.6260 C   0  0  0  0  0  0  0  0  0  0  0  0
  -26.9824  -31.2093   26.7408 C   0  0  0  0  0  0  0  0  0  0  0  0
  -25.1383  -32.7852   26.1592 C   0  0  0  0  0  0  0  0  0  0  0  0
  -22.5544  -26.5340   25.1024 C   0  0  0  0  0  0  0  0  0  0  0  0
  -30.7391  -27.6577   22.0593 C   0  0  0  0  0  0  0  0  0  0  0  0
  -29.1652  -26.4329   19.9100 C   0  0  1  0  0  0  0  0  0  1  0  0
  -25.3827  -30.6300   24.8603 C   0  0  1  0  0  0  0  0  0  0  0  0
  -23.4890  -28.0321   26.8690 C   0  0  2  0  0  0  0  0  0  0  0  0
  -26.1516  -31.7792   25.5713 C   0  0  0  0  0  0  0  0  0  0  0  0
  -30.0552  -25.8469   23.5051 N   0  0  0  0  0  0  0  0  0  0  0  0
  -24.2225  -13.1538   21.5787 N   0  0  0  0  0  0  0  0  0  0  0  0
  -28.5486  -24.6761   21.4497 N   0  0  0  0  0  0  0  0  0  0  0  0
  -25.1656  -13.8038   20.8757 N   0  0  0  0  0  0  0  0  0  0  0  0
  -24.8891  -30.5790   22.4360 N   0  0  0  0  0  0  0  0  0  0  0  0
  -25.3453  -17.6012   21.2514 N   0  0  0  0  0  0  0  0  0  0  0  0
  -26.2367  -19.7744   20.7992 N   0  0  0  0  0  0  0  0  0  0  0  0
  -27.2755  -13.5237   19.8364 N   0  0  0  0  0  0  0  0  0  0  0  0
  -26.4107   -9.4383   21.5561 N   0  0  0  0  0  0  0  0  0  0  0  0
  -27.9435  -22.9558   22.9510 N   0  0  0  0  0  0  0  0  0  0  0  0
  -24.6514  -33.2545   20.0875 N   0  0  0  0  0  0  0  0  0  0  0  0
  -24.4576  -29.9055   25.7251 N   0  0  0  0  0  0  0  0  0  0  0  0
  -23.0814  -26.6506   26.4864 N   0  3  0  0  0  0  0  0  0  0  0  0
  -27.9395  -10.6774   20.3788 O   0  0  0  0  0  0  0  0  0  0  0  0
  -26.4536  -31.9728   20.8168 O   0  0  0  0  0  0  0  0  0  0  0  0
  -23.6750  -31.9511   23.8780 O   0  0  0  0  0  0  0  0  0  0  0  0
  -25.4121  -27.8139   25.4229 O   0  0  0  0  0  0  0  0  0  0  0  0
  -27.5025  -17.8732   20.4865 O   0  0  0  0  0  0  0  0  0  0  0  0
  -21.8690   -7.9679   24.4277 O   0  0  0  0  0  0  0  0  0  0  0  0
  -27.8927  -26.2005   19.2891 O   0  0  0  0  0  0  0  0  0  1  0  0
  -21.5197   -2.9861   22.0903 F   0  0  0  0  0  0  0  0  0  0  0  0
  -19.4141   -6.8743   23.7796 F   0  0  0  0  0  0  0  0  0  0  0  0
  1  2  1  0  0  0  0
  1  5  2  0  0  0  0
  2  6  2  0  0  0  0
  3  8  2  0  0  0  0
  3 16  1  0  0  0  0
  4  9  1  0  0  0  0
  4 16  2  0  0  0  0
  5 18  1  0  0  0  0
  6 20  1  0  0  0  0
  7 10  2  0  0  0  0
  7 19  1  0  0  0  0
  8 22  1  0  0  0  0
  9 22  2  0  0  0  0
 10 23  1  0  0  0  0
 11 12  2  0  0  0  0
 11 24  1  0  0  0  0
 12 25  1  0  0  0  0
 13 21  1  0  0  0  0
 13 23  2  0  0  0  0
 14 25  2  0  0  0  0
 14 26  1  0  0  0  0
 15 30  1  0  0  0  0
 15 66  2  0  0  0  0
 16 27  1  0  0  0  0
 17 27  1  0  0  0  0
 17 31  2  0  0  0  0
 17 32  1  0  0  0  0
 18 20  2  0  0  0  0
 18 37  1  0  0  0  0
 19 21  2  0  0  0  0
 19 38  1  0  0  0  0
 20 50  1  0  0  0  0
 21 39  1  0  0  0  0
 22 84  1  0  0  0  0
 23 85  1  0  0  0  0
 24 26  2  0  0  0  0
 24 84  1  0  0  0  0
 25 86  1  0  0  0  0
 26 87  1  0  0  0  0
 27 67  2  0  0  0  0
 28 29  2  0  0  0  0
 28 61  1  0  0  0  0
 28 66  1  0  0  0  0
 29 62  1  0  0  0  0
 29 68  1  0  0  0  0
 30 68  2  0  0  0  0
 30 75  1  0  0  0  0
 31 69  1  0  0  0  0
 31 73  1  0  0  0  0
 32 74  1  0  0  0  0
 32 79  2  0  0  0  0
 33 51  1  0  0  0  0
 33 76  1  0  0  0  0
 33 80  2  0  0  0  0
 34 63  1  0  0  0  0
 34 70  1  0  0  0  0
 34 81  2  0  0  0  0
 35 64  1  0  0  0  0
 35 77  1  0  0  0  0
 35 82  2  0  0  0  0
 36 71  1  0  0  0  0
 36 72  1  0  0  0  0
 36 83  2  0  0  0  0
 37 40  1  0  0  0  0
 38 51  1  0  0  0  0
 39 70  1  0  0  0  0
 40 42  1  0  0  0  0
 41 43  1  0  0  0  0
 41 46  1  0  0  0  0
 42 50  1  0  0  0  0
 43 52  1  0  0  0  0
 44 47  1  0  0  0  0
 44 53  1  0  0  0  0
 45 48  1  0  0  0  0
 45 53  1  0  0  0  0
 46 71  1  0  0  0  0
 47 72  1  0  0  0  0
 48 72  1  0  0  0  0
 49 52  1  0  0  0  0
 49 71  1  0  0  0  0
 50 76  1  0  0  0  0
 51 70  1  0  0  0  0
 52 69  1  0  0  0  0
 53 75  1  0  0  0  0
 54 61  1  0  0  0  0
 55 62  1  0  0  0  0
 56 64  1  0  0  0  0
 57 65  1  0  0  0  0
 58 65  1  0  0  0  0
 59 65  1  0  0  0  0
 60 78  1  0  0  0  0
 62 85  1  0  0  0  0
 63 65  1  0  0  0  0
 63 77  1  0  0  0  0
 64 78  1  0  0  0  0
 67 69  1  0  0  0  0
M  CHG  1  78   1
M  ISO  4  36 100  62 101  72 100  85 101
M  END
> <Batch ID>
0190

> <Smiles>
CCc1ncc(NC2CC[100N:0]([100C:0](=O)N3CCCC(n4nc(-c5ccc(Oc6ccc(F)cc6F)cc5)c(C(N)=O)c4N)C3)CC2)nc1[101CH:1](C)[101O:1]c1ccc2c(c1)CN(C(=O)C(NC(=O)C(C)NC)C(C)(C)C)C(C(=O)NC1CCCc3ccccc31)C2

> <Shape>
0.243

> <Color>
0.097

> <Negative vol penalty>
0.000

$$$$

  -OEChem-04052323243D

 84 93  0     1  0  0  0  0  0999 V2000
  -28.6833  -30.6937   13.1194 C   0  0  0  0  0  0  0  0  0  0  0  0
  -28.6211  -29.3132   13.2795 C   0  0  0  0  0  0  0  0  0  0  0  0
  -23.0936   -9.8648   19.9388 C   0  0  0  0  0  0  0  0  0  0  0  0
  -23.6953   -9.9570   22.2768 C   0  0  0  0  0  0  0  0  0  0  0  0
  -29.7652  -31.4061   13.6350 C   0  0  0  0  0  0  0  0  0  0  0  0
  -29.6416  -28.6441   13.9544 C   0  0  0  0  0  0  0  0  0  0  0  0
  -29.0673  -23.7120   17.5393 C   0  0  0  0  0  0  0  0  0  0  0  0
  -22.3365   -8.7182   20.1788 C   0  0  0  0  0  0  0  0  0  0  0  0
  -22.9381   -8.8104   22.5169 C   0  0  0  0  0  0  0  0  0  0  0  0
  -29.2703  -22.3529   17.3043 C   0  0  0  0  0  0  0  0  0  0  0  0
  -23.2723   -5.4719   22.1005 C   0  0  0  0  0  0  0  0  0  0  0  0
  -23.8392   -4.4755   22.8951 C   0  0  0  0  0  0  0  0  0  0  0  0
  -31.4954  -22.5333   18.2184 C   0  0  0  0  0  0  0  0  0  0  0  0
  -22.0251   -4.7028   24.4744 C   0  0  0  0  0  0  0  0  0  0  0  0
  -23.7731  -10.4842   20.9878 C   0  0  0  0  0  0  0  0  0  0  0  0
  -24.1178  -13.0049   20.8006 C   0  0  0  0  0  0  0  0  0  0  0  0
  -30.7946  -30.7466   14.3249 C   0  0  0  0  0  0  0  0  0  0  0  0
  -30.0825  -24.4957   18.1065 C   0  0  0  0  0  0  0  0  0  0  0  0
  -30.7390  -29.3481   14.4785 C   0  0  0  0  0  0  0  0  0  0  0  0
  -31.3019  -23.9016   18.4619 C   0  0  0  0  0  0  0  0  0  0  0  0
  -22.2587   -8.1910   21.4678 C   0  0  0  0  0  0  0  0  0  0  0  0
  -30.4855  -21.7639   17.6412 C   0  0  0  0  0  0  0  0  0  0  0  0
  -22.0818   -6.0838   22.4929 C   0  0  0  0  0  0  0  0  0  0  0  0
  -23.2156   -4.0910   24.0820 C   0  0  0  0  0  0  0  0  0  0  0  0
  -21.4582   -5.6993   23.6798 C   0  0  0  0  0  0  0  0  0  0  0  0
  -24.5558  -11.6684   20.7403 C   0  0  0  0  0  0  0  0  0  0  0  0
  -25.2308  -13.7455   20.4858 C   0  0  0  0  0  0  0  0  0  0  0  0
  -22.8208  -13.5300   21.1132 C   0  0  0  0  0  0  0  0  0  0  0  0
  -31.7691  -27.0153   17.1524 C   0  0  0  0  0  0  0  0  0  0  0  0
  -32.9070  -26.9135   20.1884 C   0  0  0  0  0  0  0  0  0  0  0  0
  -33.5085  -25.0699   22.9966 C   0  0  0  0  0  0  0  0  0  0  0  0
  -30.0142  -12.3496   17.2767 C   0  0  0  0  0  0  0  0  0  0  0  0
  -31.9674  -31.5533   14.8233 C   0  0  0  0  0  0  0  0  0  0  0  0
  -29.8382  -25.9548   18.3783 C   0  0  0  0  0  0  0  0  0  0  0  0
  -32.4165  -24.6947   19.0920 C   0  0  0  0  0  0  0  0  0  0  0  0
  -32.8210  -30.8158   15.8518 C   0  0  0  0  0  0  0  0  0  0  0  0
  -29.9889  -13.6540   20.7027 C   0  0  0  0  0  0  0  0  0  0  0  0
  -33.1105  -29.3932   15.3837 C   0  0  0  0  0  0  0  0  0  0  0  0
  -28.5532  -13.3532   21.1197 C   0  0  0  0  0  0  0  0  0  0  0  0
  -32.7313  -10.7729   16.0890 C   0  0  0  0  0  0  0  0  0  0  0  0
  -31.2974  -16.7139   14.5993 C   0  0  0  0  0  0  0  0  0  0  0  0
  -32.9422  -16.2424   16.4633 C   0  0  0  0  0  0  0  0  0  0  0  0
  -30.5547  -12.5928   19.7581 C   0  0  0  0  0  0  0  0  0  0  0  0
  -32.2935  -11.0916   17.5218 C   0  0  0  0  0  0  0  0  0  0  0  0
  -28.2615  -12.0423   18.9889 C   0  0  0  0  0  0  0  0  0  0  0  0
  -30.2541  -17.1166   15.6352 C   0  0  0  0  0  0  0  0  0  0  0  0
  -31.8860  -16.6490   17.4845 C   0  0  0  0  0  0  0  0  0  0  0  0
  -31.8140  -28.5896   15.2262 C   0  0  1  0  0  0  0  0  0  0  0  0
  -31.1256  -26.7660   18.4871 C   0  0  1  0  0  0  0  0  0  0  0  0
  -27.6676  -13.1397   19.8832 C   0  0  1  0  0  0  0  0  0  0  0  0
  -32.3470  -15.7481   15.1461 C   0  0  0  0  0  0  0  0  0  0  0  0
  -31.9233  -11.9911   15.6161 C   0  0  2  0  0  0  0  0  0  0  0  0
  -34.4829  -25.2528   25.3020 C   0  0  0  0  0  0  0  0  0  0  0  0
  -35.7174  -26.8779   19.0007 C   0  0  0  0  0  0  0  0  0  0  0  0
  -36.5728  -26.1132   21.2259 C   0  0  0  0  0  0  0  0  0  0  0  0
  -35.4554  -28.3337   21.0173 C   0  0  0  0  0  0  0  0  0  0  0  0
  -30.9345  -24.3502   24.2676 C   0  0  0  0  0  0  0  0  0  0  0  0
  -32.6800  -13.2812   15.3685 C   0  0  0  0  0  0  0  0  0  0  0  0
  -29.9614  -18.1866   17.8679 C   0  0  0  0  0  0  0  0  0  0  0  0
  -29.5431  -19.5874   17.4665 C   0  0  0  0  0  0  0  0  0  1  0  0
  -34.0640  -26.2276   20.8740 C   0  0  1  0  0  0  0  0  0  0  0  0
  -33.2185  -25.3422   24.4616 C   0  0  2  0  0  0  0  0  0  0  0  0
  -35.4323  -26.8733   20.5158 C   0  0  0  0  0  0  0  0  0  0  0  0
  -25.8464  -11.5630   20.4128 N   0  0  0  0  0  0  0  0  0  0  0  0
  -26.2289  -12.8427   20.2644 N   0  0  0  0  0  0  0  0  0  0  0  0
  -32.1316  -26.1191   19.3319 N   0  0  0  0  0  0  0  0  0  0  0  0
  -29.6552  -12.3287   18.6288 N   0  0  0  0  0  0  0  0  0  0  0  0
  -31.2974  -11.9796   16.9402 N   0  0  0  0  0  0  0  0  0  0  0  0
  -25.4434  -15.0744   20.3794 N   0  0  0  0  0  0  0  0  0  0  0  0
  -21.7898  -12.6292   21.4133 N   0  0  0  0  0  0  0  0  0  0  0  0
  -31.3252  -28.1604   16.5189 N   0  0  0  0  0  0  0  0  0  0  0  0
  -33.7553  -26.2339   22.2999 N   0  0  0  0  0  0  0  0  0  0  0  0
  -30.9473  -17.6559   16.8636 N   0  3  0  0  0  0  0  0  0  0  0  0
  -31.7226  -14.4106   15.3588 N   0  3  0  0  0  0  0  0  0  0  0  0
  -32.2341  -24.3544   24.9872 N   0  3  0  0  0  0  0  0  0  0  0  0
  -22.5790  -14.7609   21.1100 O   0  0  0  0  0  0  0  0  0  0  0  0
  -32.6075  -26.2280   16.7293 O   0  0  0  0  0  0  0  0  0  0  0  0
  -32.6947  -28.1082   20.4102 O   0  0  0  0  0  0  0  0  0  0  0  0
  -33.5190  -23.9375   22.5190 O   0  0  0  0  0  0  0  0  0  0  0  0
  -29.2068  -12.6591   16.3906 O   0  0  0  0  0  0  0  0  0  0  0  0
  -21.5198   -7.0723   21.7025 O   0  0  0  0  0  0  0  0  0  0  0  0
  -30.6879  -20.4281   17.4106 O   0  0  0  0  0  0  0  0  0  1  0  0
  -23.7593   -3.1330   24.8442 F   0  0  0  0  0  0  0  0  0  0  0  0
  -20.3137   -6.2827   24.0614 F   0  0  0  0  0  0  0  0  0  0  0  0
  1  2  1  0  0  0  0
  1  5  2  0  0  0  0
  2  6  2  0  0  0  0
  3  8  2  0  0  0  0
  3 15  1  0  0  0  0
  4  9  1  0  0  0  0
  4 15  2  0  0  0  0
  5 17  1  0  0  0  0
  6 19  1  0  0  0  0
  7 10  2  0  0  0  0
  7 18  1  0  0  0  0
  8 21  1  0  0  0  0
  9 21  2  0  0  0  0
 10 22  1  0  0  0  0
 11 12  2  0  0  0  0
 11 23  1  0  0  0  0
 12 24  1  0  0  0  0
 13 20  1  0  0  0  0
 13 22  2  0  0  0  0
 14 24  2  0  0  0  0
 14 25  1  0  0  0  0
 15 26  1  0  0  0  0
 16 26  1  0  0  0  0
 16 27  2  0  0  0  0
 16 28  1  0  0  0  0
 17 19  2  0  0  0  0
 17 33  1  0  0  0  0
 18 20  2  0  0  0  0
 18 34  1  0  0  0  0
 19 48  1  0  0  0  0
 20 35  1  0  0  0  0
 21 81  1  0  0  0  0
 22 82  1  0  0  0  0
 23 25  2  0  0  0  0
 23 81  1  0  0  0  0
 24 83  1  0  0  0  0
 25 84  1  0  0  0  0
 26 64  2  0  0  0  0
 27 65  1  0  0  0  0
 27 69  1  0  0  0  0
 28 70  1  0  0  0  0
 28 76  2  0  0  0  0
 29 49  1  0  0  0  0
 29 71  1  0  0  0  0
 29 77  2  0  0  0  0
 30 61  1  0  0  0  0
 30 66  1  0  0  0  0
 30 78  2  0  0  0  0
 31 62  1  0  0  0  0
 31 72  1  0  0  0  0
 31 79  2  0  0  0  0
 32 67  1  0  0  0  0
 32 68  1  0  0  0  0
 32 80  2  0  0  0  0
 33 36  1  0  0  0  0
 34 49  1  0  0  0  0
 35 66  1  0  0  0  0
 36 38  1  0  0  0  0
 37 39  1  0  0  0  0
 37 43  1  0  0  0  0
 38 48  1  0  0  0  0
 39 50  1  0  0  0  0
 40 44  1  0  0  0  0
 40 52  1  0  0  0  0
 41 46  1  0  0  0  0
 41 51  1  0  0  0  0
 42 47  1  0  0  0  0
 42 51  1  0  0  0  0
 43 67  1  0  0  0  0
 44 68  1  0  0  0  0
 45 50  1  0  0  0  0
 45 67  1  0  0  0  0
 46 73  1  0  0  0  0
 47 73  1  0  0  0  0
 48 71  1  0  0  0  0
 49 66  1  0  0  0  0
 50 65  1  0  0  0  0
 51 74  1  0  0  0  0
 52 58  1  0  0  0  0
 52 68  1  0  0  0  0
 53 62  1  0  0  0  0
 54 63  1  0  0  0  0
 55 63  1  0  0  0  0
 56 63  1  0  0  0  0
 57 75  1  0  0  0  0
 58 74  1  0  0  0  0
 59 60  1  0  0  0  0
 59 73  1  0  0  0  0
 60 82  1  0  0  0  0
 61 63  1  0  0  0  0
 61 72  1  0  0  0  0
 62 75  1  0  0  0  0
 64 65  1  0  0  0  0
M  CHG  3  73   1  74   1  75   1
M  ISO  4  32 100  60 101  68 100  82 101
M  END
> <Batch ID>
0190

> <Smiles>
CNC(C)C(=O)NC(C(=O)N1Cc2cc([101O:1][101CH2:1]CN3CCC(NCC4CC[100N:0]4[100C:0](=O)N4CCCC(n5nc(-c6ccc(Oc7ccc(F)cc7F)cc6)c(C(N)=O)c5N)C4)CC3)ccc2CC1C(=O)NC1CCCc2ccccc21)C(C)(C)C

> <Shape>
0.205

> <Color>
0.169

> <Negative vol penalty>
0.000

$$$$

  -OEChem-04052323243D

 86 96  0     1  0  0  0  0  0999 V2000
  -26.9932  -37.7446   19.0328 C   0  0  0  0  0  0  0  0  0  0  0  0
  -27.3292  -36.5169   18.4713 C   0  0  0  0  0  0  0  0  0  0  0  0
  -23.5177  -10.4784   21.4744 C   0  0  0  0  0  0  0  0  0  0  0  0
  -24.9574   -8.6110   22.0007 C   0  0  0  0  0  0  0  0  0  0  0  0
  -26.6618  -37.8242   20.3847 C   0  0  0  0  0  0  0  0  0  0  0  0
  -27.3350  -35.3682   19.2617 C   0  0  0  0  0  0  0  0  0  0  0  0
  -26.0509  -28.3304   18.8920 C   0  0  0  0  0  0  0  0  0  0  0  0
  -22.4335   -9.6090   21.3553 C   0  0  0  0  0  0  0  0  0  0  0  0
  -23.8732   -7.7415   21.8816 C   0  0  0  0  0  0  0  0  0  0  0  0
  -26.6518  -27.1087   19.1920 C   0  0  0  0  0  0  0  0  0  0  0  0
  -21.2204   -6.8000   23.7516 C   0  0  0  0  0  0  0  0  0  0  0  0
  -21.0617   -5.8255   24.7369 C   0  0  0  0  0  0  0  0  0  0  0  0
  -25.9852  -27.3537   21.4973 C   0  0  0  0  0  0  0  0  0  0  0  0
  -29.9900  -22.1615   21.4028 C   0  0  0  0  0  0  0  0  0  0  0  0
  -21.2530   -4.0977   23.0590 C   0  0  0  0  0  0  0  0  0  0  0  0
  -24.7797   -9.9794   21.7971 C   0  0  0  0  0  0  0  0  0  0  0  0
  -26.3350  -11.5398   23.0831 C   0  0  0  0  0  0  0  0  0  0  0  0
  -26.6542  -36.6743   21.1899 C   0  0  0  0  0  0  0  0  0  0  0  0
  -25.4209  -29.0794   19.8962 C   0  0  0  0  0  0  0  0  0  0  0  0
  -27.0045  -35.4327   20.6260 C   0  0  0  0  0  0  0  0  0  0  0  0
  -25.3747  -28.5834   21.2070 C   0  0  0  0  0  0  0  0  0  0  0  0
  -29.5367  -23.3972   20.9757 C   0  0  0  0  0  0  0  0  0  0  0  0
  -22.6112   -8.2406   21.5589 C   0  0  0  0  0  0  0  0  0  0  0  0
  -26.6216  -26.6215   20.4954 C   0  0  0  0  0  0  0  0  0  0  0  0
  -21.3953   -6.4233   22.4199 C   0  0  0  0  0  0  0  0  0  0  0  0
  -21.0781   -4.4744   24.3907 C   0  0  0  0  0  0  0  0  0  0  0  0
  -21.4116   -5.0722   22.0737 C   0  0  0  0  0  0  0  0  0  0  0  0
  -25.9001  -10.8770   21.9198 C   0  0  0  0  0  0  0  0  0  0  0  0
  -28.3856  -23.4355   20.2149 C   0  0  0  0  0  0  0  0  0  0  0  0
  -29.2618  -21.0459   21.0411 C   0  0  0  0  0  0  0  0  0  0  0  0
  -27.4273  -12.2663   22.6764 C   0  0  0  0  0  0  0  0  0  0  0  0
  -25.7994  -11.5022   24.4126 C   0  0  0  0  0  0  0  0  0  0  0  0
  -25.8775  -31.9560   21.1693 C   0  0  0  0  0  0  0  0  0  0  0  0
  -23.1238  -31.2688   22.7401 C   0  0  0  0  0  0  0  0  0  0  0  0
  -20.9780  -28.8927   23.9219 C   0  0  0  0  0  0  0  0  0  0  0  0
  -29.6143  -15.7635   18.8210 C   0  0  0  0  0  0  0  0  0  0  0  0
  -26.3350  -36.8175   22.6570 C   0  0  0  0  0  0  0  0  0  0  0  0
  -24.7541  -30.3827   19.5510 C   0  0  0  0  0  0  0  0  0  0  0  0
  -24.6935  -29.3394   22.3173 C   0  0  0  0  0  0  0  0  0  0  0  0
  -26.0013  -35.4937   23.3398 C   0  0  0  0  0  0  0  0  0  0  0  0
  -30.0555  -12.1490   18.3583 C   0  0  0  0  0  0  0  0  0  0  0  0
  -31.1411  -24.6351   22.5781 C   0  0  0  0  0  0  0  0  0  0  0  0
  -29.8643  -25.4158   22.5557 C   0  0  0  0  0  0  0  0  0  0  0  0
  -27.0183  -34.4236   22.9557 C   0  0  0  0  0  0  0  0  0  0  0  0
  -29.0127  -11.5563   19.3070 C   0  0  0  0  0  0  0  0  0  0  0  0
  -29.5127  -17.4377   22.0926 C   0  0  0  0  0  0  0  0  0  0  0  0
  -29.6261  -13.5099   17.8150 C   0  0  0  0  0  0  0  0  0  0  0  0
  -29.1253  -16.1934   21.3003 C   0  0  0  0  0  0  0  0  0  0  0  0
  -28.2079  -13.8963   19.7931 C   0  0  0  0  0  0  0  0  0  0  0  0
  -29.4355  -18.0362   19.7926 C   0  0  0  0  0  0  0  0  0  0  0  0
  -30.2847  -24.6335   21.3381 C   0  0  0  0  0  0  0  0  0  0  0  0
  -26.9981  -34.1603   21.4451 C   0  0  1  0  0  0  0  0  0  0  0  0
  -24.5880  -31.3060   20.7541 C   0  0  1  0  0  0  0  0  0  0  0  0
  -28.6351  -12.5589   20.4135 C   0  0  1  0  0  0  0  0  0  0  0  0
  -29.0577  -18.5625   21.1691 C   0  0  2  0  0  0  0  0  0  0  0  0
  -18.8323  -28.6356   25.1976 C   0  0  0  0  0  0  0  0  0  0  0  0
  -24.5960  -31.8961   25.3380 C   0  0  0  0  0  0  0  0  0  0  0  0
  -22.7590  -30.7322   26.5785 C   0  0  0  0  0  0  0  0  0  0  0  0
  -22.2548  -32.7686   25.2288 C   0  0  0  0  0  0  0  0  0  0  0  0
  -19.6488  -27.5509   21.6433 C   0  0  0  0  0  0  0  0  0  0  0  0
  -27.8364  -24.7305   19.7182 C   0  0  0  0  0  0  0  0  0  1  0  0
  -22.7775  -30.5959   24.0463 C   0  0  1  0  0  0  0  0  0  0  0  0
  -19.4691  -28.7590   23.8221 C   0  0  2  0  0  0  0  0  0  0  0  0
  -23.1114  -31.4846   25.2776 C   0  0  0  0  0  0  0  0  0  0  0  0
  -26.6546  -11.1576   20.8539 N   0  0  0  0  0  0  0  0  0  0  0  0
  -27.6931  -22.3275   19.8757 N   0  0  0  0  0  0  0  0  0  0  0  0
  -28.1384  -21.1131   20.2959 N   0  0  0  0  0  0  0  0  0  0  0  0
  -27.5745  -12.0049   21.3459 N   0  0  0  0  0  0  0  0  0  0  0  0
  -24.0615  -30.6117   21.9309 N   0  0  0  0  0  0  0  0  0  0  0  0
  -29.2518  -14.4146   18.9023 N   0  0  0  0  0  0  0  0  0  0  0  0
  -29.2883  -16.5865   19.8982 N   0  0  0  0  0  0  0  0  0  0  0  0
  -28.2667  -13.0969   23.3306 N   0  0  0  0  0  0  0  0  0  0  0  0
  -24.6735  -10.7040   24.6570 N   0  0  0  0  0  0  0  0  0  0  0  0
  -29.7165  -19.8061   21.4697 N   0  0  0  0  0  0  0  0  0  0  0  0
  -25.8628  -33.3355   21.0911 N   0  0  0  0  0  0  0  0  0  0  0  0
  -21.3729  -30.2135   23.9487 N   0  0  0  0  0  0  0  0  0  0  0  0
  -19.1076  -27.5516   23.0268 N   0  3  0  0  0  0  0  0  0  0  0  0
  -26.2944  -12.1697   25.3522 O   0  0  0  0  0  0  0  0  0  0  0  0
  -26.8157  -31.2577   21.5351 O   0  0  0  0  0  0  0  0  0  0  0  0
  -22.5770  -32.3345   22.4452 O   0  0  0  0  0  0  0  0  0  0  0  0
  -21.7306  -27.9226   23.9747 O   0  0  0  0  0  0  0  0  0  0  0  0
  -30.2435  -16.2039   17.8497 O   0  0  0  0  0  0  0  0  0  0  0  0
  -21.5534   -7.3919   21.4429 O   0  0  0  0  0  0  0  0  0  0  0  0
  -27.2120  -25.4214   20.7931 O   0  0  0  0  0  0  0  0  0  1  0  0
  -20.9273   -3.5388   25.3372 F   0  0  0  0  0  0  0  0  0  0  0  0
  -21.5804   -4.7042   20.7962 F   0  0  0  0  0  0  0  0  0  0  0  0
  1  2  1  0  0  0  0
  1  5  2  0  0  0  0
  2  6  2  0  0  0  0
  3  8  2  0  0  0  0
  3 16  1  0  0  0  0
  4  9  1  0  0  0  0
  4 16  2  0  0  0  0
  5 18  1  0  0  0  0
  6 20  1  0  0  0  0
  7 10  2  0  0  0  0
  7 19  1  0  0  0  0
  8 23  1  0  0  0  0
  9 23  2  0  0  0  0
 10 24  1  0  0  0  0
 11 12  2  0  0  0  0
 11 25  1  0  0  0  0
 12 26  1  0  0  0  0
 13 21  1  0  0  0  0
 13 24  2  0  0  0  0
 14 22  1  0  0  0  0
 14 30  2  0  0  0  0
 15 26  2  0  0  0  0
 15 27  1  0  0  0  0
 16 28  1  0  0  0  0
 17 28  1  0  0  0  0
 17 31  2  0  0  0  0
 17 32  1  0  0  0  0
 18 20  2  0  0  0  0
 18 37  1  0  0  0  0
 19 21  2  0  0  0  0
 19 38  1  0  0  0  0
 20 52  1  0  0  0  0
 21 39  1  0  0  0  0
 22 29  2  0  0  0  0
 22 51  1  0  0  0  0
 23 83  1  0  0  0  0
 24 84  1  0  0  0  0
 25 27  2  0  0  0  0
 25 83  1  0  0  0  0
 26 85  1  0  0  0  0
 27 86  1  0  0  0  0
 28 65  2  0  0  0  0
 29 61  1  0  0  0  0
 29 66  1  0  0  0  0
 30 67  1  0  0  0  0
 30 74  1  0  0  0  0
 31 68  1  0  0  0  0
 31 72  1  0  0  0  0
 32 73  1  0  0  0  0
 32 78  2  0  0  0  0
 33 53  1  0  0  0  0
 33 75  1  0  0  0  0
 33 79  2  0  0  0  0
 34 62  1  0  0  0  0
 34 69  1  0  0  0  0
 34 80  2  0  0  0  0
 35 63  1  0  0  0  0
 35 76  1  0  0  0  0
 35 81  2  0  0  0  0
 36 70  1  0  0  0  0
 36 71  1  0  0  0  0
 36 82  2  0  0  0  0
 37 40  1  0  0  0  0
 38 53  1  0  0  0  0
 39 69  1  0  0  0  0
 40 44  1  0  0  0  0
 41 45  1  0  0  0  0
 41 47  1  0  0  0  0
 42 43  1  0  0  0  0
 42 51  1  0  0  0  0
 43 51  1  0  0  0  0
 44 52  1  0  0  0  0
 45 54  1  0  0  0  0
 46 48  1  0  0  0  0
 46 55  1  0  0  0  0
 47 70  1  0  0  0  0
 48 71  1  0  0  0  0
 49 54  1  0  0  0  0
 49 70  1  0  0  0  0
 50 55  1  0  0  0  0
 50 71  1  0  0  0  0
 52 75  1  0  0  0  0
 53 69  1  0  0  0  0
 54 68  1  0  0  0  0
 55 74  1  0  0  0  0
 56 63  1  0  0  0  0
 57 64  1  0  0  0  0
 58 64  1  0  0  0  0
 59 64  1  0  0  0  0
 60 77  1  0  0  0  0
 61 84  1  0  0  0  0
 62 64  1  0  0  0  0
 62 76  1  0  0  0  0
 63 77  1  0  0  0  0
 65 68  1  0  0  0  0
 66 67  2  0  0  0  0
M  CHG  1  77   1
M  ISO  4  36 100  61 101  71 100  84 101
M  END
> <Batch ID>
0190

> <Smiles>
CNC(C)C(=O)NC(C(=O)N1Cc2cc([101O:1][101CH2:1]c3nnc(NC4CC[100N:0]([100C:0](=O)N5CCCC(n6nc(-c7ccc(Oc8ccc(F)cc8F)cc7)c(C(N)=O)c6N)C5)C4)cc3C3CC3)ccc2CC1C(=O)NC1CCCc2ccccc21)C(C)(C)C

> <Shape>
0.329

> <Color>
0.104

> <Negative vol penalty>
0.000

$$$$

  -OEChem-04052323243D

 85 94  0     1  0  0  0  0  0999 V2000
  -32.2003  -33.2571   15.6724 C   0  0  0  0  0  0  0  0  0  0  0  0
  -31.4846  -32.0720   15.8089 C   0  0  0  0  0  0  0  0  0  0  0  0
  -22.9475  -10.1515   19.8742 C   0  0  0  0  0  0  0  0  0  0  0  0
  -23.9489   -9.6635   22.0181 C   0  0  0  0  0  0  0  0  0  0  0  0
  -32.4743  -34.0379   16.7946 C   0  0  0  0  0  0  0  0  0  0  0  0
  -31.0434  -31.6663   17.0680 C   0  0  0  0  0  0  0  0  0  0  0  0
  -25.8495  -28.6929   18.3671 C   0  0  0  0  0  0  0  0  0  0  0  0
  -22.1844   -8.9874   19.9656 C   0  0  0  0  0  0  0  0  0  0  0  0
  -23.1858   -8.4994   22.1095 C   0  0  0  0  0  0  0  0  0  0  0  0
  -25.5720  -27.3460   18.5968 C   0  0  0  0  0  0  0  0  0  0  0  0
  -20.0089   -7.6614   22.9004 C   0  0  0  0  0  0  0  0  0  0  0  0
  -19.3811   -7.3937   24.1169 C   0  0  0  0  0  0  0  0  0  0  0  0
  -25.7367  -27.7237   20.9736 C   0  0  0  0  0  0  0  0  0  0  0  0
  -29.5836  -20.1720   20.5996 C   0  0  0  0  0  0  0  0  0  0  0  0
  -20.6074   -5.3196   24.2935 C   0  0  0  0  0  0  0  0  0  0  0  0
  -26.8732  -20.5363   21.1011 C   0  0  0  0  0  0  0  0  0  0  0  0
  -23.8297  -10.4895   20.9004 C   0  0  0  0  0  0  0  0  0  0  0  0
  -27.5737  -21.4783   20.3744 C   0  0  0  0  0  0  0  0  0  0  0  0
  -24.2681  -12.9763   21.2626 C   0  0  0  0  0  0  0  0  0  0  0  0
  -32.0279  -33.6465   18.0667 C   0  0  0  0  0  0  0  0  0  0  0  0
  -26.0838  -29.5644   19.4403 C   0  0  0  0  0  0  0  0  0  0  0  0
  -31.3128  -32.4419   18.2084 C   0  0  0  0  0  0  0  0  0  0  0  0
  -26.0145  -29.0817   20.7550 C   0  0  0  0  0  0  0  0  0  0  0  0
  -28.9280  -21.2873   20.1119 C   0  0  0  0  0  0  0  0  0  0  0  0
  -22.3036   -8.1614   21.0833 C   0  0  0  0  0  0  0  0  0  0  0  0
  -25.5185  -26.8606   19.9001 C   0  0  0  0  0  0  0  0  0  0  0  0
  -20.9360   -6.7581   22.3804 C   0  0  0  0  0  0  0  0  0  0  0  0
  -19.6803   -6.2229   24.8134 C   0  0  0  0  0  0  0  0  0  0  0  0
  -21.2352   -5.5872   23.0770 C   0  0  0  0  0  0  0  0  0  0  0  0
  -24.6186  -11.6915   20.8063 C   0  0  0  0  0  0  0  0  0  0  0  0
  -25.3470  -13.7620   20.9384 C   0  0  0  0  0  0  0  0  0  0  0  0
  -28.8376  -19.2500   21.3251 C   0  0  0  0  0  0  0  0  0  0  0  0
  -27.1912  -22.7409   19.7572 C   0  0  0  0  0  0  0  0  0  0  0  0
  -25.9834  -23.3149   19.7858 C   0  0  0  0  0  0  0  0  0  0  0  0
  -23.0741  -13.4198   21.9208 C   0  0  0  0  0  0  0  0  0  0  0  0
  -28.5414  -31.3422   20.3909 C   0  0  0  0  0  0  0  0  0  0  0  0
  -26.4137  -32.4117   22.5935 C   0  0  0  0  0  0  0  0  0  0  0  0
  -23.5649  -31.8430   24.3844 C   0  0  0  0  0  0  0  0  0  0  0  0
  -30.8590  -14.6039   20.7040 C   0  0  0  0  0  0  0  0  0  0  0  0
  -32.3890  -34.4994   19.2570 C   0  0  0  0  0  0  0  0  0  0  0  0
  -26.3555  -31.0202   19.1768 C   0  0  0  0  0  0  0  0  0  0  0  0
  -26.2384  -29.9804   21.9427 C   0  0  0  0  0  0  0  0  0  0  0  0
  -28.4307  -23.2907   19.0816 C   0  0  0  0  0  0  0  0  0  0  0  0
  -31.5626  -34.1886   20.5022 C   0  0  0  0  0  0  0  0  0  0  0  0
  -29.3672  -12.7947   18.0248 C   0  0  0  0  0  0  0  0  0  0  0  0
  -31.4862  -32.6822   20.7299 C   0  0  0  0  0  0  0  0  0  0  0  0
  -27.9730  -12.4473   18.5496 C   0  0  0  0  0  0  0  0  0  0  0  0
  -30.4169  -12.7407   19.1326 C   0  0  0  0  0  0  0  0  0  0  0  0
  -28.7093  -13.2059   20.8477 C   0  0  0  0  0  0  0  0  0  0  0  0
  -30.7959  -31.9808   19.5539 C   0  0  1  0  0  0  0  0  0  0  0  0
  -27.0858  -31.7092   20.3254 C   0  0  1  0  0  0  0  0  0  0  0  0
  -27.6075  -13.3015   19.7785 C   0  0  2  0  0  0  0  0  0  0  0  0
  -22.0968  -32.8837   26.1334 C   0  0  0  0  0  0  0  0  0  0  0  0
  -28.4605  -31.6891   24.7379 C   0  0  0  0  0  0  0  0  0  0  0  0
  -26.6297  -31.8440   26.4387 C   0  0  0  0  0  0  0  0  0  0  0  0
  -27.2748  -33.8583   25.1162 C   0  0  0  0  0  0  0  0  0  0  0  0
  -21.2336  -31.8959   22.5620 C   0  0  0  0  0  0  0  0  0  0  0  0
  -25.6633  -24.6160   19.1276 C   0  0  0  0  0  0  0  0  0  1  0  0
  -30.8181  -17.7729   21.6736 C   0  0  0  0  0  0  0  0  0  0  0  0
  -31.1524  -16.4470   22.3399 C   0  0  0  0  0  0  0  0  0  0  0  0
  -26.0090  -31.9854   23.9839 C   0  0  1  0  0  0  0  0  0  0  0  0
  -22.3475  -32.7121   24.6433 C   0  0  2  0  0  0  0  0  0  0  0  0
  -27.0911  -32.3266   25.0469 C   0  0  0  0  0  0  0  0  0  0  0  0
  -25.8257  -11.6586   20.2355 N   0  0  0  0  0  0  0  0  0  0  0  0
  -26.2431  -12.9325   20.3310 N   0  0  0  0  0  0  0  0  0  0  0  0
  -27.5275  -19.4525   21.5502 N   0  3  0  0  0  0  0  0  0  0  0  0
  -29.4919  -22.3482   19.4122 N   0  0  0  0  0  0  0  0  0  0  0  0
  -26.5069  -31.3945   21.6330 N   0  0  0  0  0  0  0  0  0  0  0  0
  -30.0107  -13.5729   20.2677 N   0  0  0  0  0  0  0  0  0  0  0  0
  -25.6071  -15.0747   21.1165 N   0  0  0  0  0  0  0  0  0  0  0  0
  -22.0650  -12.4817   22.1778 N   0  0  0  0  0  0  0  0  0  0  0  0
  -29.4298  -18.0900   21.8456 N   0  0  0  0  0  0  0  0  0  0  0  0
  -29.3614  -32.1558   19.6325 N   0  0  0  0  0  0  0  0  0  0  0  0
  -24.7092  -32.5979   24.2366 N   0  0  0  0  0  0  0  0  0  0  0  0
  -30.3954  -15.3489   21.7815 N   0  0  0  0  0  0  0  0  0  0  0  0
  -21.1346  -32.1006   24.0301 N   0  3  0  0  0  0  0  0  0  0  0  0
  -22.9000  -14.6160   22.2560 O   0  0  0  0  0  0  0  0  0  0  0  0
  -28.8946  -30.3922   21.0796 O   0  0  0  0  0  0  0  0  0  0  0  0
  -26.6320  -33.6043   22.3661 O   0  0  0  0  0  0  0  0  0  0  0  0
  -23.5071  -30.6168   24.3234 O   0  0  0  0  0  0  0  0  0  0  0  0
  -31.9463  -14.8464   20.1692 O   0  0  0  0  0  0  0  0  0  0  0  0
  -21.5590   -7.0256   21.1730 O   0  0  0  0  0  0  0  0  0  0  0  0
  -25.2485  -25.5463   20.1270 O   0  0  0  0  0  0  0  0  0  1  0  0
  -19.0785   -5.9667   25.9823 F   0  0  0  0  0  0  0  0  0  0  0  0
  -22.1259   -4.7162   22.5830 F   0  0  0  0  0  0  0  0  0  0  0  0
  1  2  1  0  0  0  0
  1  5  2  0  0  0  0
  2  6  2  0  0  0  0
  3  8  2  0  0  0  0
  3 17  1  0  0  0  0
  4  9  1  0  0  0  0
  4 17  2  0  0  0  0
  5 20  1  0  0  0  0
  6 22  1  0  0  0  0
  7 10  2  0  0  0  0
  7 21  1  0  0  0  0
  8 25  1  0  0  0  0
  9 25  2  0  0  0  0
 10 26  1  0  0  0  0
 11 12  2  0  0  0  0
 11 27  1  0  0  0  0
 12 28  1  0  0  0  0
 13 23  1  0  0  0  0
 13 26  2  0  0  0  0
 14 24  1  0  0  0  0
 14 32  2  0  0  0  0
 15 28  2  0  0  0  0
 15 29  1  0  0  0  0
 16 18  1  0  0  0  0
 16 66  2  0  0  0  0
 17 30  1  0  0  0  0
 18 24  2  0  0  0  0
 18 33  1  0  0  0  0
 19 30  1  0  0  0  0
 19 31  2  0  0  0  0
 19 35  1  0  0  0  0
 20 22  2  0  0  0  0
 20 40  1  0  0  0  0
 21 23  2  0  0  0  0
 21 41  1  0  0  0  0
 22 50  1  0  0  0  0
 23 42  1  0  0  0  0
 24 67  1  0  0  0  0
 25 82  1  0  0  0  0
 26 83  1  0  0  0  0
 27 29  2  0  0  0  0
 27 82  1  0  0  0  0
 28 84  1  0  0  0  0
 29 85  1  0  0  0  0
 30 64  2  0  0  0  0
 31 65  1  0  0  0  0
 31 70  1  0  0  0  0
 32 66  1  0  0  0  0
 32 72  1  0  0  0  0
 33 34  2  0  0  0  0
 33 43  1  0  0  0  0
 34 58  1  0  0  0  0
 35 71  1  0  0  0  0
 35 77  2  0  0  0  0
 36 51  1  0  0  0  0
 36 73  1  0  0  0  0
 36 78  2  0  0  0  0
 37 61  1  0  0  0  0
 37 68  1  0  0  0  0
 37 79  2  0  0  0  0
 38 62  1  0  0  0  0
 38 74  1  0  0  0  0
 38 80  2  0  0  0  0
 39 69  1  0  0  0  0
 39 75  1  0  0  0  0
 39 81  2  0  0  0  0
 40 44  1  0  0  0  0
 41 51  1  0  0  0  0
 42 68  1  0  0  0  0
 43 67  1  0  0  0  0
 44 46  1  0  0  0  0
 45 47  1  0  0  0  0
 45 48  1  0  0  0  0
 46 50  1  0  0  0  0
 47 52  1  0  0  0  0
 48 69  1  0  0  0  0
 49 52  1  0  0  0  0
 49 69  1  0  0  0  0
 50 73  1  0  0  0  0
 51 68  1  0  0  0  0
 52 65  1  0  0  0  0
 53 62  1  0  0  0  0
 54 63  1  0  0  0  0
 55 63  1  0  0  0  0
 56 63  1  0  0  0  0
 57 76  1  0  0  0  0
 58 83  1  0  0  0  0
 59 60  1  0  0  0  0
 59 72  1  0  0  0  0
 60 75  1  0  0  0  0
 61 63  1  0  0  0  0
 61 74  1  0  0  0  0
 62 76  1  0  0  0  0
 64 65  1  0  0  0  0
M  CHG  2  66   1  76   1
M  ISO  4  39 100  58 101  75 100  83 101
M  END
> <Batch ID>
0190

> <Smiles>
CNC(C)C(=O)NC(C(=O)N1Cc2cc([101O:1][101CH2:1]C=C3CNc4cc(NCC[100NH:0][100C:0](=O)N5CCCC(n6nc(-c7ccc(Oc8ccc(F)cc8F)cc7)c(C(N)=O)c6N)C5)ncc43)ccc2CC1C(=O)NC1CCCc2ccccc21)C(C)(C)C

> <Shape>
0.336

> <Color>
0.186

> <Negative vol penalty>
0.000

$$$$

  -OEChem-04052323243D

 83 92  0     1  0  0  0  0  0999 V2000
  -18.6464  -32.8706   22.8555 C   0  0  0  0  0  0  0  0  0  0  0  0
  -19.9605  -32.4216   22.9383 C   0  0  0  0  0  0  0  0  0  0  0  0
  -25.2915  -12.9657   22.0151 C   0  0  0  0  0  0  0  0  0  0  0  0
  -26.1158  -13.1509   19.7517 C   0  0  0  0  0  0  0  0  0  0  0  0
  -17.5930  -31.9635   22.9625 C   0  0  0  0  0  0  0  0  0  0  0  0
  -20.2220  -31.0653   23.1292 C   0  0  0  0  0  0  0  0  0  0  0  0
  -23.9025  -29.3514   20.1024 C   0  0  0  0  0  0  0  0  0  0  0  0
  -24.3033  -12.0814   21.5829 C   0  0  0  0  0  0  0  0  0  0  0  0
  -25.1275  -12.2666   19.3194 C   0  0  0  0  0  0  0  0  0  0  0  0
  -25.2154  -29.6483   20.4654 C   0  0  0  0  0  0  0  0  0  0  0  0
  -24.0763   -8.8110   20.7544 C   0  0  0  0  0  0  0  0  0  0  0  0
  -23.8601   -7.6600   21.5120 C   0  0  0  0  0  0  0  0  0  0  0  0
  -25.4534  -27.4339   21.3923 C   0  0  0  0  0  0  0  0  0  0  0  0
  -21.5733   -8.3403   21.8928 C   0  0  0  0  0  0  0  0  0  0  0  0
  -26.1978  -13.5006   21.0995 C   0  0  0  0  0  0  0  0  0  0  0  0
  -28.5142  -14.0906   21.9904 C   0  0  0  0  0  0  0  0  0  0  0  0
  -17.8419  -30.5941   23.1452 C   0  0  0  0  0  0  0  0  0  0  0  0
  -23.3507  -28.0952   20.3918 C   0  0  0  0  0  0  0  0  0  0  0  0
  -19.1710  -30.1392   23.2402 C   0  0  0  0  0  0  0  0  0  0  0  0
  -24.1341  -27.1227   21.0295 C   0  0  0  0  0  0  0  0  0  0  0  0
  -24.2212  -11.7318   20.2351 C   0  0  0  0  0  0  0  0  0  0  0  0
  -25.9902  -28.6905   21.1131 C   0  0  0  0  0  0  0  0  0  0  0  0
  -23.0411   -9.7268   20.5661 C   0  0  0  0  0  0  0  0  0  0  0  0
  -22.6085   -7.4246   22.0812 C   0  0  0  0  0  0  0  0  0  0  0  0
  -21.7896   -9.4914   21.1352 C   0  0  0  0  0  0  0  0  0  0  0  0
  -27.2185  -14.4146   21.5453 C   0  0  0  0  0  0  0  0  0  0  0  0
  -29.0850  -15.3018   22.2964 C   0  0  0  0  0  0  0  0  0  0  0  0
  -30.9652  -27.6339   19.8991 C   0  0  0  0  0  0  0  0  0  0  0  0
  -29.5455  -26.1377   19.5780 C   0  0  0  0  0  0  0  0  0  0  0  0
  -29.1454  -12.8094   22.1158 C   0  0  0  0  0  0  0  0  0  0  0  0
  -20.9173  -27.0674   22.1598 C   0  0  0  0  0  0  0  0  0  0  0  0
  -21.6695  -24.2046   20.8329 C   0  0  0  0  0  0  0  0  0  0  0  0
  -24.0245  -22.2257   19.3549 C   0  0  0  0  0  0  0  0  0  0  0  0
  -27.8587  -20.7520   20.2007 C   0  0  0  0  0  0  0  0  0  0  0  0
  -16.6699  -29.6579   23.3028 C   0  0  0  0  0  0  0  0  0  0  0  0
  -21.9415  -27.7814   19.9696 C   0  0  0  0  0  0  0  0  0  0  0  0
  -23.5953  -25.7520   21.3448 C   0  0  0  0  0  0  0  0  0  0  0  0
  -17.0379  -28.1866   23.1291 C   0  0  0  0  0  0  0  0  0  0  0  0
  -27.9941  -19.7083   23.7463 C   0  0  0  0  0  0  0  0  0  0  0  0
  -18.2983  -27.8545   23.9215 C   0  0  0  0  0  0  0  0  0  0  0  0
  -27.8655  -18.1945   23.6094 C   0  0  0  0  0  0  0  0  0  0  0  0
  -27.2118  -20.4526   22.6647 C   0  0  0  0  0  0  0  0  0  0  0  0
  -27.4314  -18.5056   21.1429 C   0  0  0  0  0  0  0  0  0  0  0  0
  -29.5762  -23.6698   19.3692 C   0  0  0  0  0  0  0  0  0  0  0  0
  -27.6675  -24.5228   19.5896 C   0  0  0  0  0  0  0  0  0  0  0  0
  -19.4955  -28.6724   23.4221 C   0  0  1  0  0  0  0  0  0  0  0  0
  -21.3157  -26.6460   20.7737 C   0  0  1  0  0  0  0  0  0  0  0  0
  -28.2545  -17.7448   22.1932 C   0  0  2  0  0  0  0  0  0  0  0  0
  -28.1551  -23.0902   19.3316 C   0  0  0  0  0  0  0  0  0  0  0  0
  -32.2624  -28.3451   19.9765 C   0  0  0  0  0  0  0  0  0  0  0  0
  -24.3538  -19.9222   18.4153 C   0  0  0  0  0  0  0  0  0  0  0  0
  -21.8261  -23.0752   23.6631 C   0  0  0  0  0  0  0  0  0  0  0  0
  -23.0550  -21.1022   22.7330 C   0  0  0  0  0  0  0  0  0  0  0  0
  -20.7174  -21.5721   22.0000 C   0  0  0  0  0  0  0  0  0  0  0  0
  -24.6485  -23.2867   16.6635 C   0  0  0  0  0  0  0  0  0  0  0  0
  -29.4765  -29.6305   20.7308 C   0  0  0  0  0  0  0  0  0  0  0  0
  -27.9795  -29.9096   20.6522 C   0  0  0  0  0  0  0  0  0  1  0  0
  -22.5921  -23.0666   21.1975 C   0  0  1  0  0  0  0  0  0  0  0  0
  -23.9758  -21.3626   18.1070 C   0  0  2  0  0  0  0  0  0  0  0  0
  -22.0575  -22.2304   22.3943 C   0  0  0  0  0  0  0  0  0  0  0  0
  -26.9799  -15.7286   21.5654 N   0  0  0  0  0  0  0  0  0  0  0  0
  -30.8400  -26.3374   19.4892 N   0  0  0  0  0  0  0  0  0  0  0  0
  -28.9371  -27.2704   20.0216 N   0  0  0  0  0  0  0  0  0  0  0  0
  -28.1334  -16.2410   22.0269 N   0  0  0  0  0  0  0  0  0  0  0  0
  -29.8296  -28.2490   20.2360 N   0  0  0  0  0  0  0  0  0  0  0  0
  -28.9786  -24.9522   19.2573 N   0  0  0  0  0  0  0  0  0  0  0  0
  -22.2100  -25.4955   20.9176 N   0  0  0  0  0  0  0  0  0  0  0  0
  -27.5400  -19.9592   21.3178 N   0  0  0  0  0  0  0  0  0  0  0  0
  -30.3029  -15.6445   22.7672 N   0  0  0  0  0  0  0  0  0  0  0  0
  -28.4162  -11.6674   21.7576 N   0  0  0  0  0  0  0  0  0  0  0  0
  -20.0129  -28.1117   22.1924 N   0  0  0  0  0  0  0  0  0  0  0  0
  -22.7948  -22.2976   19.9745 N   0  0  0  0  0  0  0  0  0  0  0  0
  -27.8495  -22.1277   20.4097 N   0  0  0  0  0  0  0  0  0  0  0  0
  -24.9183  -21.8859   17.0781 N   0  3  0  0  0  0  0  0  0  0  0  0
  -30.3156  -12.6798   22.5488 O   0  0  0  0  0  0  0  0  0  0  0  0
  -21.3940  -26.4870   23.1282 O   0  0  0  0  0  0  0  0  0  0  0  0
  -20.5141  -23.9567   20.4790 O   0  0  0  0  0  0  0  0  0  0  0  0
  -25.0517  -22.7776   19.7434 O   0  0  0  0  0  0  0  0  0  0  0  0
  -28.1261  -20.2753   19.0924 O   0  0  0  0  0  0  0  0  0  0  0  0
  -23.2572  -10.8687   19.8130 O   0  0  0  0  0  0  0  0  0  0  0  0
  -27.2718  -28.9779   21.4692 O   0  0  0  0  0  0  0  0  0  1  0  0
  -22.4006   -6.3185   22.8074 F   0  0  0  0  0  0  0  0  0  0  0  0
  -20.7908  -10.3669   20.9567 F   0  0  0  0  0  0  0  0  0  0  0  0
  1  2  1  0  0  0  0
  1  5  2  0  0  0  0
  2  6  2  0  0  0  0
  3  8  2  0  0  0  0
  3 15  1  0  0  0  0
  4  9  1  0  0  0  0
  4 15  2  0  0  0  0
  5 17  1  0  0  0  0
  6 19  1  0  0  0  0
  7 10  2  0  0  0  0
  7 18  1  0  0  0  0
  8 21  1  0  0  0  0
  9 21  2  0  0  0  0
 10 22  1  0  0  0  0
 11 12  2  0  0  0  0
 11 23  1  0  0  0  0
 12 24  1  0  0  0  0
 13 20  1  0  0  0  0
 13 22  2  0  0  0  0
 14 24  2  0  0  0  0
 14 25  1  0  0  0  0
 15 26  1  0  0  0  0
 16 26  1  0  0  0  0
 16 27  2  0  0  0  0
 16 30  1  0  0  0  0
 17 19  2  0  0  0  0
 17 35  1  0  0  0  0
 18 20  2  0  0  0  0
 18 36  1  0  0  0  0
 19 46  1  0  0  0  0
 20 37  1  0  0  0  0
 21 80  1  0  0  0  0
 22 81  1  0  0  0  0
 23 25  2  0  0  0  0
 23 80  1  0  0  0  0
 24 82  1  0  0  0  0
 25 83  1  0  0  0  0
 26 61  2  0  0  0  0
 27 64  1  0  0  0  0
 27 69  1  0  0  0  0
 28 50  1  0  0  0  0
 28 62  2  0  0  0  0
 28 65  1  0  0  0  0
 29 62  1  0  0  0  0
 29 63  2  0  0  0  0
 29 66  1  0  0  0  0
 30 70  1  0  0  0  0
 30 75  2  0  0  0  0
 31 47  1  0  0  0  0
 31 71  1  0  0  0  0
 31 76  2  0  0  0  0
 32 58  1  0  0  0  0
 32 67  1  0  0  0  0
 32 77  2  0  0  0  0
 33 59  1  0  0  0  0
 33 72  1  0  0  0  0
 33 78  2  0  0  0  0
 34 68  1  0  0  0  0
 34 73  1  0  0  0  0
 34 79  2  0  0  0  0
 35 38  1  0  0  0  0
 36 47  1  0  0  0  0
 37 67  1  0  0  0  0
 38 40  1  0  0  0  0
 39 41  1  0  0  0  0
 39 42  1  0  0  0  0
 40 46  1  0  0  0  0
 41 48  1  0  0  0  0
 42 68  1  0  0  0  0
 43 48  1  0  0  0  0
 43 68  1  0  0  0  0
 44 49  1  0  0  0  0
 44 66  1  0  0  0  0
 45 49  1  0  0  0  0
 45 66  1  0  0  0  0
 46 71  1  0  0  0  0
 47 67  1  0  0  0  0
 48 64  1  0  0  0  0
 49 73  1  0  0  0  0
 51 59  1  0  0  0  0
 52 60  1  0  0  0  0
 53 60  1  0  0  0  0
 54 60  1  0  0  0  0
 55 74  1  0  0  0  0
 56 57  1  0  0  0  0
 56 65  1  0  0  0  0
 57 81  1  0  0  0  0
 58 60  1  0  0  0  0
 58 72  1  0  0  0  0
 59 74  1  0  0  0  0
 61 64  1  0  0  0  0
 63 65  1  0  0  0  0
M  CHG  1  74   1
M  ISO  4  34 100  57 101  73 100  81 101
M  END
> <Batch ID>
0190

> <Smiles>
CNC(C)C(=O)NC(C(=O)N1Cc2cc([101O:1][101CH2:1]Cn3nc(N4CC([100NH:0][100C:0](=O)N5CCCC(n6nc(-c7ccc(Oc8ccc(F)cc8F)cc7)c(C(N)=O)c6N)C5)C4)nc3C)ccc2CC1C(=O)NC1CCCc2ccccc21)C(C)(C)C

> <Shape>
0.266

> <Color>
0.069

> <Negative vol penalty>
0.000

$$$$

  -OEChem-04052323243D

 83 92  0     1  0  0  0  0  0999 V2000
  -17.6899  -28.9820   25.7005 C   0  0  0  0  0  0  0  0  0  0  0  0
  -19.0084  -29.3166   25.9917 C   0  0  0  0  0  0  0  0  0  0  0  0
  -26.4323  -13.3526   21.7143 C   0  0  0  0  0  0  0  0  0  0  0  0
  -25.9048  -13.8517   19.4100 C   0  0  0  0  0  0  0  0  0  0  0  0
  -17.3841  -28.3343   24.5043 C   0  0  0  0  0  0  0  0  0  0  0  0
  -20.0223  -29.0027   25.0872 C   0  0  0  0  0  0  0  0  0  0  0  0
  -25.0729  -32.2704   23.9386 C   0  0  0  0  0  0  0  0  0  0  0  0
  -25.5673  -12.2590   21.6754 C   0  0  0  0  0  0  0  0  0  0  0  0
  -25.0398  -12.7581   19.3711 C   0  0  0  0  0  0  0  0  0  0  0  0
  -26.3866  -32.1570   24.3914 C   0  0  0  0  0  0  0  0  0  0  0  0
  -25.6143   -9.0862   20.5076 C   0  0  0  0  0  0  0  0  0  0  0  0
  -26.0618   -7.8858   21.0592 C   0  0  0  0  0  0  0  0  0  0  0  0
  -26.9580  -30.9148   22.4040 C   0  0  0  0  0  0  0  0  0  0  0  0
  -24.2221   -7.9193   22.6249 C   0  0  0  0  0  0  0  0  0  0  0  0
  -26.6010  -14.1490   20.5816 C   0  0  0  0  0  0  0  0  0  0  0  0
  -28.8666  -15.2893   20.3090 C   0  0  0  0  0  0  0  0  0  0  0  0
  -18.3935  -28.0209   23.5803 C   0  0  0  0  0  0  0  0  0  0  0  0
  -24.6886  -31.6965   22.7182 C   0  0  0  0  0  0  0  0  0  0  0  0
  -19.7299  -28.3490   23.8781 C   0  0  0  0  0  0  0  0  0  0  0  0
  -25.6393  -31.0245   21.9367 C   0  0  0  0  0  0  0  0  0  0  0  0
  -24.8711  -11.9618   20.5038 C   0  0  0  0  0  0  0  0  0  0  0  0
  -27.3287  -31.4766   23.6255 C   0  0  0  0  0  0  0  0  0  0  0  0
  -24.4706   -9.7032   21.0147 C   0  0  0  0  0  0  0  0  0  0  0  0
  -25.3657   -7.3023   22.1178 C   0  0  0  0  0  0  0  0  0  0  0  0
  -23.7746   -9.1198   22.0733 C   0  0  0  0  0  0  0  0  0  0  0  0
  -27.4939  -15.2791   20.6212 C   0  0  0  0  0  0  0  0  0  0  0  0
  -29.2530  -16.5931   20.5021 C   0  0  0  0  0  0  0  0  0  0  0  0
  -29.7164  -14.2162   19.8825 C   0  0  0  0  0  0  0  0  0  0  0  0
  -22.6177  -29.4463   21.8510 C   0  0  0  0  0  0  0  0  0  0  0  0
  -23.4667  -30.3668   18.8586 C   0  0  0  0  0  0  0  0  0  0  0  0
  -25.7912  -31.8161   16.8232 C   0  0  0  0  0  0  0  0  0  0  0  0
  -29.2945  -21.0788   23.6512 C   0  0  0  0  0  0  0  0  0  0  0  0
  -18.0205  -27.2780   22.3219 C   0  0  0  0  0  0  0  0  0  0  0  0
  -23.2739  -31.8507   22.2311 C   0  0  0  0  0  0  0  0  0  0  0  0
  -25.2825  -30.4080   20.6097 C   0  0  0  0  0  0  0  0  0  0  0  0
  -19.1048  -27.3161   21.2481 C   0  0  0  0  0  0  0  0  0  0  0  0
  -26.5417  -20.7712   21.2497 C   0  0  0  0  0  0  0  0  0  0  0  0
  -20.4688  -27.0041   21.8555 C   0  0  0  0  0  0  0  0  0  0  0  0
  -26.6265  -19.2904   20.8955 C   0  0  0  0  0  0  0  0  0  0  0  0
  -32.7059  -27.0686   25.1327 C   0  0  0  0  0  0  0  0  0  0  0  0
  -28.9769  -23.0657   26.3403 C   0  0  0  0  0  0  0  0  0  0  0  0
  -26.9256  -21.0441   22.7046 C   0  0  0  0  0  0  0  0  0  0  0  0
  -32.3720  -28.5608   25.1513 C   0  0  0  0  0  0  0  0  0  0  0  0
  -27.9293  -22.4683   25.3957 C   0  0  0  0  0  0  0  0  0  0  0  0
  -28.3326  -19.0013   22.7256 C   0  0  0  0  0  0  0  0  0  0  0  0
  -30.3796  -27.4411   24.6607 C   0  0  0  0  0  0  0  0  0  0  0  0
  -20.8543  -28.0474   22.9112 C   0  0  1  0  0  0  0  0  0  0  0  0
  -22.8716  -30.7846   21.2167 C   0  0  1  0  0  0  0  0  0  0  0  0
  -28.0129  -18.7316   21.2486 C   0  0  1  0  0  0  0  0  0  0  0  0
  -31.4845  -26.4159   24.5014 C   0  0  2  0  0  0  0  0  0  0  0  0
  -29.9923  -22.9965   25.1895 C   0  0  2  0  0  0  0  0  0  0  0  0
  -26.2187  -32.3918   14.4184 C   0  0  0  0  0  0  0  0  0  0  0  0
  -24.0993  -27.4399   18.2729 C   0  0  0  0  0  0  0  0  0  0  0  0
  -25.3834  -28.1926   16.2598 C   0  0  0  0  0  0  0  0  0  0  0  0
  -22.9357  -28.6472   16.4174 C   0  0  0  0  0  0  0  0  0  0  0  0
  -25.9534  -34.7095   17.4241 C   0  0  0  0  0  0  0  0  0  0  0  0
  -30.2439  -24.2654   24.3990 C   0  0  0  0  0  0  0  0  0  0  0  0
  -30.3660  -29.8693   24.7368 C   0  0  0  0  0  0  0  0  0  0  0  0
  -29.3357  -30.2015   23.6684 C   0  0  0  0  0  0  0  0  0  1  0  0
  -24.5354  -29.9535   17.8757 C   0  0  1  0  0  0  0  0  0  0  0  0
  -25.6651  -32.8803   15.7479 C   0  0  2  0  0  0  0  0  0  0  0  0
  -24.2450  -28.5681   17.2323 C   0  0  0  0  0  0  0  0  0  0  0  0
  -27.0390  -16.4810   20.9852 N   0  0  0  0  0  0  0  0  0  0  0  0
  -28.1320  -17.2586   20.9030 N   0  0  0  0  0  0  0  0  0  0  0  0
  -23.8850  -30.5802   20.1796 N   0  0  0  0  0  0  0  0  0  0  0  0
  -28.2088  -20.4254   23.0581 N   0  0  0  0  0  0  0  0  0  0  0  0
  -29.0328  -22.1215   24.5120 N   0  0  0  0  0  0  0  0  0  0  0  0
  -31.1222  -28.6750   24.3923 N   0  0  1  0  0  0  0  0  0  0  0  0
  -30.4388  -17.2238   20.3665 N   0  0  0  0  0  0  0  0  0  0  0  0
  -29.1574  -12.9395   19.7347 N   0  0  0  0  0  0  0  0  0  0  0  0
  -21.3156  -29.2630   22.2756 N   0  0  0  0  0  0  0  0  0  0  0  0
  -24.6514  -31.0457   16.9156 N   0  0  0  0  0  0  0  0  0  0  0  0
  -31.1422  -25.1502   25.1752 N   0  3  0  0  0  0  0  0  0  0  0  0
  -26.4102  -34.1084   16.1446 N   0  3  0  0  0  0  0  0  0  0  0  0
  -30.9391  -14.3811   19.6555 O   0  0  0  0  0  0  0  0  0  0  0  0
  -23.5349  -28.6393   21.9466 O   0  0  0  0  0  0  0  0  0  0  0  0
  -22.3048  -30.5024   18.4670 O   0  0  0  0  0  0  0  0  0  0  0  0
  -26.8013  -31.6795   17.5098 O   0  0  0  0  0  0  0  0  0  0  0  0
  -30.4628  -20.7247   23.4449 O   0  0  0  0  0  0  0  0  0  0  0  0
  -24.0272  -10.8946   20.4655 O   0  0  0  0  0  0  0  0  0  0  0  0
  -28.6207  -31.3631   24.0685 O   0  0  0  0  0  0  0  0  0  1  0  0
  -25.7947   -6.1487   22.6464 F   0  0  0  0  0  0  0  0  0  0  0  0
  -22.6746   -9.7073   22.5639 F   0  0  0  0  0  0  0  0  0  0  0  0
  1  2  1  0  0  0  0
  1  5  2  0  0  0  0
  2  6  2  0  0  0  0
  3  8  2  0  0  0  0
  3 15  1  0  0  0  0
  4  9  1  0  0  0  0
  4 15  2  0  0  0  0
  5 17  1  0  0  0  0
  6 19  1  0  0  0  0
  7 10  2  0  0  0  0
  7 18  1  0  0  0  0
  8 21  1  0  0  0  0
  9 21  2  0  0  0  0
 10 22  1  0  0  0  0
 11 12  2  0  0  0  0
 11 23  1  0  0  0  0
 12 24  1  0  0  0  0
 13 20  1  0  0  0  0
 13 22  2  0  0  0  0
 14 24  2  0  0  0  0
 14 25  1  0  0  0  0
 15 26  1  0  0  0  0
 16 26  1  0  0  0  0
 16 27  2  0  0  0  0
 16 28  1  0  0  0  0
 17 19  2  0  0  0  0
 17 33  1  0  0  0  0
 18 20  2  0  0  0  0
 18 34  1  0  0  0  0
 19 47  1  0  0  0  0
 20 35  1  0  0  0  0
 21 80  1  0  0  0  0
 22 81  1  0  0  0  0
 23 25  2  0  0  0  0
 23 80  1  0  0  0  0
 24 82  1  0  0  0  0
 25 83  1  0  0  0  0
 26 63  2  0  0  0  0
 27 64  1  0  0  0  0
 27 69  1  0  0  0  0
 28 70  1  0  0  0  0
 28 75  2  0  0  0  0
 29 48  1  0  0  0  0
 29 71  1  0  0  0  0
 29 76  2  0  0  0  0
 30 60  1  0  0  0  0
 30 65  1  0  0  0  0
 30 77  2  0  0  0  0
 31 61  1  0  0  0  0
 31 72  1  0  0  0  0
 31 78  2  0  0  0  0
 32 66  1  0  0  0  0
 32 67  1  0  0  0  0
 32 79  2  0  0  0  0
 33 36  1  0  0  0  0
 34 48  1  0  0  0  0
 35 65  1  0  0  0  0
 36 38  1  0  0  0  0
 37 39  1  0  0  0  0
 37 42  1  0  0  0  0
 38 47  1  0  0  0  0
 39 49  1  0  0  0  0
 40 43  1  0  0  0  0
 40 50  1  0  0  0  0
 41 44  1  0  0  0  0
 41 51  1  0  0  0  0
 42 66  1  0  0  0  0
 43 68  1  0  0  0  0
 44 67  1  0  0  0  0
 45 49  1  0  0  0  0
 45 66  1  0  0  0  0
 46 50  1  0  0  0  0
 46 68  1  0  0  0  0
 47 71  1  0  0  0  0
 48 65  1  0  0  0  0
 49 64  1  0  0  0  0
 50 73  1  0  0  0  0
 51 57  1  0  0  0  0
 51 67  1  0  0  0  0
 52 61  1  0  0  0  0
 53 62  1  0  0  0  0
 54 62  1  0  0  0  0
 55 62  1  0  0  0  0
 56 74  1  0  0  0  0
 57 73  1  0  0  0  0
 58 59  1  0  0  0  0
 58 68  1  0  0  0  0
 59 81  1  0  0  0  0
 60 62  1  0  0  0  0
 60 72  1  0  0  0  0
 61 74  1  0  0  0  0
 63 64  1  0  0  0  0
M  CHG  2  73   1  74   1
M  ISO  4  32 100  59 101  67 100  81 101
M  END
> <Batch ID>
0190

> <Smiles>
CNC(C)C(=O)NC(C(=O)N1Cc2cc([101O:1][101CH2:1]CN3CCC(NCC4CC[100N:0]4[100C:0](=O)N4CCCC(n5nc(-c6ccc(Oc7ccc(F)cc7F)cc6)c(C(N)=O)c5N)C4)C3)ccc2CC1C(=O)NC1CCCc2ccccc21)C(C)(C)C

> <Shape>
0.234

> <Color>
0.080

> <Negative vol penalty>
0.000

$$$$

  -OEChem-04052323243D

 83 91  0     1  0  0  0  0  0999 V2000
  -28.6136  -33.3213   14.5244 C   0  0  0  0  0  0  0  0  0  0  0  0
  -28.7432  -31.9730   14.8418 C   0  0  0  0  0  0  0  0  0  0  0  0
  -22.9391  -10.1030   19.8905 C   0  0  0  0  0  0  0  0  0  0  0  0
  -23.8456   -9.7710   22.1052 C   0  0  0  0  0  0  0  0  0  0  0  0
  -28.1295  -34.2171   15.4768 C   0  0  0  0  0  0  0  0  0  0  0  0
  -28.3897  -31.5200   16.1124 C   0  0  0  0  0  0  0  0  0  0  0  0
  -25.8908  -26.1112   17.5289 C   0  0  0  0  0  0  0  0  0  0  0  0
  -22.1524   -8.9612   20.0412 C   0  0  0  0  0  0  0  0  0  0  0  0
  -23.0588   -8.6291   22.2560 C   0  0  0  0  0  0  0  0  0  0  0  0
  -26.4376  -24.9228   18.0112 C   0  0  0  0  0  0  0  0  0  0  0  0
  -19.8384   -7.9028   22.9789 C   0  0  0  0  0  0  0  0  0  0  0  0
  -19.1581   -7.7412   24.1858 C   0  0  0  0  0  0  0  0  0  0  0  0
  -25.8562  -25.5752   20.2597 C   0  0  0  0  0  0  0  0  0  0  0  0
  -20.3391   -5.6696   24.5742 C   0  0  0  0  0  0  0  0  0  0  0  0
  -29.7785  -20.0089   20.1166 C   0  0  0  0  0  0  0  0  0  0  0  0
  -23.7858  -10.5079   20.9225 C   0  0  0  0  0  0  0  0  0  0  0  0
  -24.2538  -13.0088   21.1068 C   0  0  0  0  0  0  0  0  0  0  0  0
  -27.7608  -33.7732   16.7564 C   0  0  0  0  0  0  0  0  0  0  0  0
  -25.3315  -27.0469   18.4109 C   0  0  0  0  0  0  0  0  0  0  0  0
  -27.9014  -32.4109   17.0832 C   0  0  0  0  0  0  0  0  0  0  0  0
  -25.3007  -26.7735   19.7858 C   0  0  0  0  0  0  0  0  0  0  0  0
  -22.2121   -8.2242   21.2240 C   0  0  0  0  0  0  0  0  0  0  0  0
  -26.4229  -24.6560   19.3771 C   0  0  0  0  0  0  0  0  0  0  0  0
  -20.7691   -6.9478   22.5696 C   0  0  0  0  0  0  0  0  0  0  0  0
  -19.4084   -6.6246   24.9835 C   0  0  0  0  0  0  0  0  0  0  0  0
  -21.0195   -5.8312   23.3673 C   0  0  0  0  0  0  0  0  0  0  0  0
  -24.5992  -11.6870   20.7671 C   0  0  0  0  0  0  0  0  0  0  0  0
  -27.1799  -20.5777   20.3424 C   0  0  0  0  0  0  0  0  0  0  0  0
  -28.0210  -21.3784   19.6015 C   0  0  0  0  0  0  0  0  0  0  0  0
  -28.9376  -19.2086   20.8582 C   0  0  0  0  0  0  0  0  0  0  0  0
  -25.3587  -13.7506   20.7668 C   0  0  0  0  0  0  0  0  0  0  0  0
  -23.0427  -13.5204   21.6787 C   0  0  0  0  0  0  0  0  0  0  0  0
  -25.9738  -30.0621   19.1856 C   0  0  0  0  0  0  0  0  0  0  0  0
  -23.2387  -29.7927   20.9087 C   0  0  0  0  0  0  0  0  0  0  0  0
  -21.0120  -27.7625   22.5109 C   0  0  0  0  0  0  0  0  0  0  0  0
  -30.8897  -14.4902   20.6937 C   0  0  0  0  0  0  0  0  0  0  0  0
  -27.2871  -34.7868   17.7679 C   0  0  0  0  0  0  0  0  0  0  0  0
  -24.7217  -28.3119   17.8720 C   0  0  0  0  0  0  0  0  0  0  0  0
  -24.6938  -27.7361   20.7724 C   0  0  0  0  0  0  0  0  0  0  0  0
  -26.5814  -34.1640   18.9697 C   0  0  0  0  0  0  0  0  0  0  0  0
  -29.4735  -12.4975   18.1052 C   0  0  0  0  0  0  0  0  0  0  0  0
  -27.3798  -32.9784   19.5022 C   0  0  0  0  0  0  0  0  0  0  0  0
  -28.0536  -12.2131   18.5979 C   0  0  0  0  0  0  0  0  0  0  0  0
  -30.4772  -12.5155   19.2560 C   0  0  0  0  0  0  0  0  0  0  0  0
  -28.7114  -13.1396   20.8579 C   0  0  0  0  0  0  0  0  0  0  0  0
  -27.5050  -31.8770   18.4426 C   0  0  1  0  0  0  0  0  0  0  0  0
  -24.6405  -29.4259   18.9112 C   0  0  1  0  0  0  0  0  0  0  0  0
  -27.6549  -13.1668   19.7402 C   0  0  2  0  0  0  0  0  0  0  0  0
  -24.8746  -19.6281   20.6077 C   0  0  0  0  0  0  0  0  0  0  0  0
  -18.8966  -27.8352   23.8590 C   0  0  0  0  0  0  0  0  0  0  0  0
  -24.8210  -30.7503   23.3354 C   0  0  0  0  0  0  0  0  0  0  0  0
  -22.9663  -29.9068   24.7903 C   0  0  0  0  0  0  0  0  0  0  0  0
  -22.5252  -31.7221   23.1372 C   0  0  0  0  0  0  0  0  0  0  0  0
  -19.5459  -26.1447   20.5128 C   0  0  0  0  0  0  0  0  0  0  0  0
  -25.7278  -20.8872   20.4735 C   0  0  0  0  0  0  0  0  0  0  0  0
  -27.5148  -22.5997   18.8920 C   0  0  0  0  0  0  0  0  0  1  0  0
  -30.8671  -17.7260   21.4101 C   0  0  0  0  0  0  0  0  0  0  0  0
  -31.1508  -16.4520   22.1912 C   0  0  0  0  0  0  0  0  0  0  0  0
  -22.8991  -29.3608   22.3148 C   0  0  1  0  0  0  0  0  0  0  0  0
  -19.4959  -27.6983   22.4680 C   0  0  2  0  0  0  0  0  0  0  0  0
  -23.3162  -30.4175   23.3763 C   0  0  0  0  0  0  0  0  0  0  0  0
  -29.3353  -21.1082   19.4750 N   0  0  0  0  0  0  0  0  0  0  0  0
  -25.8272  -11.5915   20.2507 N   0  0  0  0  0  0  0  0  0  0  0  0
  -27.6231  -19.4786   20.9843 N   0  0  0  0  0  0  0  0  0  0  0  0
  -26.2632  -12.8626   20.2633 N   0  0  0  0  0  0  0  0  0  0  0  0
  -24.1160  -28.9620   20.1972 N   0  0  0  0  0  0  0  0  0  0  0  0
  -30.0412  -13.4405   20.3049 N   0  0  0  0  0  0  0  0  0  0  0  0
  -25.6349  -15.0692   20.8522 N   0  0  0  0  0  0  0  0  0  0  0  0
  -22.0075  -12.6204   21.9666 N   0  0  0  0  0  0  0  0  0  0  0  0
  -29.4842  -18.0747   21.4993 N   0  0  0  0  0  0  0  0  0  0  0  0
  -26.2740  -31.1216   18.3509 N   0  0  0  0  0  0  0  0  0  0  0  0
  -21.4746  -29.0462   22.3124 N   0  0  0  0  0  0  0  0  0  0  0  0
  -30.3971  -15.3245   21.6897 N   0  0  0  0  0  0  0  0  0  0  0  0
  -19.0486  -26.3998   21.8893 N   0  3  0  0  0  0  0  0  0  0  0  0
  -22.8769  -14.7417   21.9119 O   0  0  0  0  0  0  0  0  0  0  0  0
  -26.6773  -29.6250   20.0887 O   0  0  0  0  0  0  0  0  0  0  0  0
  -22.7382  -30.8251   20.4556 O   0  0  0  0  0  0  0  0  0  0  0  0
  -21.7153  -26.7735   22.7050 O   0  0  0  0  0  0  0  0  0  0  0  0
  -32.0016  -14.6737   20.1867 O   0  0  0  0  0  0  0  0  0  0  0  0
  -21.4444   -7.1101   21.3716 O   0  0  0  0  0  0  0  0  0  0  0  0
  -26.9565  -23.4972   19.8507 O   0  0  0  0  0  0  0  0  0  1  0  0
  -18.7561   -6.4704   26.1431 F   0  0  0  0  0  0  0  0  0  0  0  0
  -21.9133   -4.9110   22.9800 F   0  0  0  0  0  0  0  0  0  0  0  0
  1  2  1  0  0  0  0
  1  5  2  0  0  0  0
  2  6  2  0  0  0  0
  3  8  2  0  0  0  0
  3 16  1  0  0  0  0
  4  9  1  0  0  0  0
  4 16  2  0  0  0  0
  5 18  1  0  0  0  0
  6 20  1  0  0  0  0
  7 10  2  0  0  0  0
  7 19  1  0  0  0  0
  8 22  1  0  0  0  0
  9 22  2  0  0  0  0
 10 23  1  0  0  0  0
 11 12  2  0  0  0  0
 11 24  1  0  0  0  0
 12 25  1  0  0  0  0
 13 21  1  0  0  0  0
 13 23  2  0  0  0  0
 14 25  2  0  0  0  0
 14 26  1  0  0  0  0
 15 30  1  0  0  0  0
 15 62  2  0  0  0  0
 16 27  1  0  0  0  0
 17 27  1  0  0  0  0
 17 31  2  0  0  0  0
 17 32  1  0  0  0  0
 18 20  2  0  0  0  0
 18 37  1  0  0  0  0
 19 21  2  0  0  0  0
 19 38  1  0  0  0  0
 20 46  1  0  0  0  0
 21 39  1  0  0  0  0
 22 80  1  0  0  0  0
 23 81  1  0  0  0  0
 24 26  2  0  0  0  0
 24 80  1  0  0  0  0
 25 82  1  0  0  0  0
 26 83  1  0  0  0  0
 27 63  2  0  0  0  0
 28 29  2  0  0  0  0
 28 55  1  0  0  0  0
 28 64  1  0  0  0  0
 29 56  1  0  0  0  0
 29 62  1  0  0  0  0
 30 64  2  0  0  0  0
 30 70  1  0  0  0  0
 31 65  1  0  0  0  0
 31 68  1  0  0  0  0
 32 69  1  0  0  0  0
 32 75  2  0  0  0  0
 33 47  1  0  0  0  0
 33 71  1  0  0  0  0
 33 76  2  0  0  0  0
 34 59  1  0  0  0  0
 34 66  1  0  0  0  0
 34 77  2  0  0  0  0
 35 60  1  0  0  0  0
 35 72  1  0  0  0  0
 35 78  2  0  0  0  0
 36 67  1  0  0  0  0
 36 73  1  0  0  0  0
 36 79  2  0  0  0  0
 37 40  1  0  0  0  0
 38 47  1  0  0  0  0
 39 66  1  0  0  0  0
 40 42  1  0  0  0  0
 41 43  1  0  0  0  0
 41 44  1  0  0  0  0
 42 46  1  0  0  0  0
 43 48  1  0  0  0  0
 44 67  1  0  0  0  0
 45 48  1  0  0  0  0
 45 67  1  0  0  0  0
 46 71  1  0  0  0  0
 47 66  1  0  0  0  0
 48 65  1  0  0  0  0
 49 55  1  0  0  0  0
 50 60  1  0  0  0  0
 51 61  1  0  0  0  0
 52 61  1  0  0  0  0
 53 61  1  0  0  0  0
 54 74  1  0  0  0  0
 56 81  1  0  0  0  0
 57 58  1  0  0  0  0
 57 70  1  0  0  0  0
 58 73  1  0  0  0  0
 59 61  1  0  0  0  0
 59 72  1  0  0  0  0
 60 74  1  0  0  0  0
 63 65  1  0  0  0  0
M  CHG  1  74   1
M  ISO  4  36 100  56 101  73 100  81 101
M  END
> <Batch ID>
0190

> <Smiles>
CCc1nc(NCC[100NH:0][100C:0](=O)N2CCCC(n3nc(-c4ccc(Oc5ccc(F)cc5F)cc4)c(C(N)=O)c3N)C2)cnc1[101CH2:1][101O:1]c1ccc2c(c1)CN(C(=O)C(NC(=O)C(C)NC)C(C)(C)C)C(C(=O)NC1CCCc3ccccc31)C2

> <Shape>
0.345

> <Color>
0.205

> <Negative vol penalty>
0.000

$$$$

  -OEChem-04052323243D

 79 87  0     1  0  0  0  0  0999 V2000
  -29.0930  -11.5607   19.4506 C   0  0  0  0  0  0  0  0  0  0  0  0
  -29.1270  -12.9337   19.2289 C   0  0  0  0  0  0  0  0  0  0  0  0
  -24.0385  -26.1984   21.7995 C   0  0  0  0  0  0  0  0  0  0  0  0
  -23.1419  -28.3742   21.2525 C   0  0  0  0  0  0  0  0  0  0  0  0
  -27.9020  -10.9475   19.8371 C   0  0  0  0  0  0  0  0  0  0  0  0
  -27.9697  -13.6941   19.3923 C   0  0  0  0  0  0  0  0  0  0  0  0
  -28.8096  -17.9863   21.9450 C   0  0  0  0  0  0  0  0  0  0  0  0
  -22.9149  -25.9321   22.5819 C   0  0  0  0  0  0  0  0  0  0  0  0
  -22.0183  -28.1079   22.0349 C   0  0  0  0  0  0  0  0  0  0  0  0
  -29.3942  -19.0401   21.2439 C   0  0  0  0  0  0  0  0  0  0  0  0
  -18.7454  -27.8591   23.5983 C   0  0  0  0  0  0  0  0  0  0  0  0
  -17.4952  -28.1815   23.0702 C   0  0  0  0  0  0  0  0  0  0  0  0
  -27.2238  -20.0585   20.9766 C   0  0  0  0  0  0  0  0  0  0  0  0
  -17.8895  -26.6792   21.2196 C   0  0  0  0  0  0  0  0  0  0  0  0
  -24.1520  -27.4195   21.1348 C   0  0  0  0  0  0  0  0  0  0  0  0
  -25.4796  -27.4198   18.9564 C   0  0  0  0  0  0  0  0  0  0  0  0
  -26.7318  -11.7022   20.0147 C   0  0  0  0  0  0  0  0  0  0  0  0
  -27.4239  -17.9552   22.1581 C   0  0  0  0  0  0  0  0  0  0  0  0
  -26.7615  -13.0901   19.7802 C   0  0  0  0  0  0  0  0  0  0  0  0
  -26.6243  -19.0045   21.6830 C   0  0  0  0  0  0  0  0  0  0  0  0
  -21.9048  -26.8868   22.6996 C   0  0  0  0  0  0  0  0  0  0  0  0
  -28.6009  -20.0749   20.7571 C   0  0  0  0  0  0  0  0  0  0  0  0
  -19.5676  -26.9469   22.9369 C   0  0  0  0  0  0  0  0  0  0  0  0
  -17.0673  -27.5915   21.8809 C   0  0  0  0  0  0  0  0  0  0  0  0
  -19.1397  -26.3569   21.7476 C   0  0  0  0  0  0  0  0  0  0  0  0
  -25.3127  -27.6954   20.3268 C   0  0  0  0  0  0  0  0  0  0  0  0
  -26.7448  -27.8694   18.6673 C   0  0  0  0  0  0  0  0  0  0  0  0
  -24.5720  -26.8119   18.0277 C   0  0  0  0  0  0  0  0  0  0  0  0
  -25.0691  -15.9916   21.3197 C   0  0  0  0  0  0  0  0  0  0  0  0
  -23.3016  -17.9211   23.2368 C   0  0  0  0  0  0  0  0  0  0  0  0
  -22.9102  -20.9793   24.7001 C   0  0  0  0  0  0  0  0  0  0  0  0
  -32.1480  -28.2901   19.9785 C   0  0  0  0  0  0  0  0  0  0  0  0
  -25.4568  -10.9878   20.3874 C   0  0  0  0  0  0  0  0  0  0  0  0
  -26.8121  -16.8249   22.9395 C   0  0  0  0  0  0  0  0  0  0  0  0
  -25.1345  -19.0284   21.9026 C   0  0  0  0  0  0  0  0  0  0  0  0
  -24.3640  -11.9209   20.9024 C   0  0  0  0  0  0  0  0  0  0  0  0
  -29.9476  -30.6894   21.3492 C   0  0  0  0  0  0  0  0  0  0  0  0
  -24.2324  -13.1405   19.9956 C   0  0  0  0  0  0  0  0  0  0  0  0
  -28.5588  -30.0961   21.1289 C   0  0  0  0  0  0  0  0  0  0  0  0
  -33.0224  -25.6535   17.5327 C   0  0  0  0  0  0  0  0  0  0  0  0
  -30.9522  -29.5993   21.6976 C   0  0  0  0  0  0  0  0  0  0  0  0
  -33.3638  -26.9065   18.3239 C   0  0  0  0  0  0  0  0  0  0  0  0
  -31.1668  -26.1598   18.9365 C   0  0  0  0  0  0  0  0  0  0  0  0
  -29.6681  -27.9209   20.4000 C   0  0  0  0  0  0  0  0  0  0  0  0
  -25.5328  -13.9526   19.9712 C   0  0  1  0  0  0  0  0  0  0  0  0
  -25.3256  -16.6360   22.6526 C   0  0  1  0  0  0  0  0  0  0  0  0
  -31.9770  -24.9723   18.4168 C   0  0  1  0  0  0  0  0  0  0  0  0
  -28.6058  -28.9883   20.0651 C   0  0  1  0  0  0  0  0  0  0  0  0
  -21.3479  -22.2690   26.1811 C   0  0  0  0  0  0  0  0  0  0  0  0
  -21.3805  -18.2800   20.8936 C   0  0  0  0  0  0  0  0  0  0  0  0
  -20.4133  -20.2610   22.0803 C   0  0  0  0  0  0  0  0  0  0  0  0
  -20.2721  -17.9967   23.1174 C   0  0  0  0  0  0  0  0  0  0  0  0
  -24.9927  -21.3501   26.7700 C   0  0  0  0  0  0  0  0  0  0  0  0
  -31.1377  -23.9492   17.6726 C   0  0  0  0  0  0  0  0  0  0  0  0
  -29.2630  -22.3319   18.0020 C   0  0  0  0  0  0  0  0  0  0  0  0
  -28.3714  -21.7423   19.0769 C   0  0  0  0  0  0  0  0  0  1  0  0
  -22.5018  -19.1856   23.0357 C   0  0  1  0  0  0  0  0  0  0  0  0
  -22.5794  -21.3783   26.1269 C   0  0  2  0  0  0  0  0  0  0  0  0
  -21.1697  -18.9297   22.2758 C   0  0  0  0  0  0  0  0  0  0  0  0
  -26.3862  -28.2750   20.8706 N   0  0  0  0  0  0  0  0  0  0  0  0
  -27.2397  -28.3672   19.8367 N   0  0  0  0  0  0  0  0  0  0  0  0
  -24.5825  -17.8976   22.6670 N   0  0  0  0  0  0  0  0  0  0  0  0
  -30.9699  -28.5347   20.6926 N   0  0  0  0  0  0  0  0  0  0  0  0
  -32.1494  -27.2393   19.0620 N   0  0  0  0  0  0  0  0  0  0  0  0
  -27.4711  -27.8835   17.5295 N   0  0  0  0  0  0  0  0  0  0  0  0
  -23.3123  -26.4086   18.4913 N   0  0  0  0  0  0  0  0  0  0  0  0
  -25.6545  -14.7484   21.1739 N   0  0  0  0  0  0  0  0  0  0  0  0
  -22.3310  -19.7754   24.3591 N   0  0  0  0  0  0  0  0  0  0  0  0
  -23.7211  -22.1174   26.7361 N   0  3  0  0  0  0  0  0  0  0  0  0
  -30.1902  -23.3208   18.6201 N   0  3  0  0  0  0  0  0  0  0  0  0
  -24.8754  -26.6168   16.8263 O   0  0  0  0  0  0  0  0  0  0  0  0
  -24.3891  -16.5781   20.4859 O   0  0  0  0  0  0  0  0  0  0  0  0
  -22.8109  -16.9913   23.8820 O   0  0  0  0  0  0  0  0  0  0  0  0
  -23.6093  -21.6686   23.9607 O   0  0  0  0  0  0  0  0  0  0  0  0
  -33.1724  -28.9560   20.1809 O   0  0  0  0  0  0  0  0  0  0  0  0
  -20.8082  -26.6272   23.4629 O   0  0  0  0  0  0  0  0  0  0  0  0
  -29.1730  -21.1117   20.0670 O   0  0  0  0  0  0  0  0  0  1  0  0
  -15.8661  -27.9000   21.3747 F   0  0  0  0  0  0  0  0  0  0  0  0
  -19.9248  -25.4788   21.1084 F   0  0  0  0  0  0  0  0  0  0  0  0
  1  2  1  0  0  0  0
  1  5  2  0  0  0  0
  2  6  2  0  0  0  0
  3  8  2  0  0  0  0
  3 15  1  0  0  0  0
  4  9  1  0  0  0  0
  4 15  2  0  0  0  0
  5 17  1  0  0  0  0
  6 19  1  0  0  0  0
  7 10  2  0  0  0  0
  7 18  1  0  0  0  0
  8 21  1  0  0  0  0
  9 21  2  0  0  0  0
 10 22  1  0  0  0  0
 11 12  2  0  0  0  0
 11 23  1  0  0  0  0
 12 24  1  0  0  0  0
 13 20  1  0  0  0  0
 13 22  2  0  0  0  0
 14 24  2  0  0  0  0
 14 25  1  0  0  0  0
 15 26  1  0  0  0  0
 16 26  1  0  0  0  0
 16 27  2  0  0  0  0
 16 28  1  0  0  0  0
 17 19  2  0  0  0  0
 17 33  1  0  0  0  0
 18 20  2  0  0  0  0
 18 34  1  0  0  0  0
 19 45  1  0  0  0  0
 20 35  1  0  0  0  0
 21 76  1  0  0  0  0
 22 77  1  0  0  0  0
 23 25  2  0  0  0  0
 23 76  1  0  0  0  0
 24 78  1  0  0  0  0
 25 79  1  0  0  0  0
 26 60  2  0  0  0  0
 27 61  1  0  0  0  0
 27 65  1  0  0  0  0
 28 66  1  0  0  0  0
 28 71  2  0  0  0  0
 29 46  1  0  0  0  0
 29 67  1  0  0  0  0
 29 72  2  0  0  0  0
 30 57  1  0  0  0  0
 30 62  1  0  0  0  0
 30 73  2  0  0  0  0
 31 58  1  0  0  0  0
 31 68  1  0  0  0  0
 31 74  2  0  0  0  0
 32 63  1  0  0  0  0
 32 64  1  0  0  0  0
 32 75  2  0  0  0  0
 33 36  1  0  0  0  0
 34 46  1  0  0  0  0
 35 62  1  0  0  0  0
 36 38  1  0  0  0  0
 37 39  1  0  0  0  0
 37 41  1  0  0  0  0
 38 45  1  0  0  0  0
 39 48  1  0  0  0  0
 40 42  1  0  0  0  0
 40 47  1  0  0  0  0
 41 63  1  0  0  0  0
 42 64  1  0  0  0  0
 43 47  1  0  0  0  0
 43 64  1  0  0  0  0
 44 48  1  0  0  0  0
 44 63  1  0  0  0  0
 45 67  1  0  0  0  0
 46 62  1  0  0  0  0
 47 54  1  0  0  0  0
 48 61  1  0  0  0  0
 49 58  1  0  0  0  0
 50 59  1  0  0  0  0
 51 59  1  0  0  0  0
 52 59  1  0  0  0  0
 53 69  1  0  0  0  0
 54 70  1  0  0  0  0
 55 56  1  0  0  0  0
 55 70  1  0  0  0  0
 56 77  1  0  0  0  0
 57 59  1  0  0  0  0
 57 68  1  0  0  0  0
 58 69  1  0  0  0  0
 60 61  1  0  0  0  0
M  CHG  2  69   1  70   1
M  ISO  4  32 100  56 101  64 100  77 101
M  END
> <Batch ID>
0190

> <Smiles>
CNC(C)C(=O)NC(C(=O)N1Cc2cc([101O:1][101CH2:1]CNCC3CC[100N:0]([100C:0](=O)N4CCCC(n5nc(-c6ccc(Oc7ccc(F)cc7F)cc6)c(C(N)=O)c5N)C4)C3)ccc2CC1C(=O)NC1CCCc2ccccc21)C(C)(C)C

> <Shape>
0.230

> <Color>
0.059

> <Negative vol penalty>
0.000

$$$$

  -OEChem-04052323243D

 84 93  0     1  0  0  0  0  0999 V2000
  -27.6479  -34.4843   26.6612 C   0  0  0  0  0  0  0  0  0  0  0  0
  -28.0527  -33.3697   25.9337 C   0  0  0  0  0  0  0  0  0  0  0  0
  -23.7154   -9.9612   22.3572 C   0  0  0  0  0  0  0  0  0  0  0  0
  -24.3575  -11.5993   24.0128 C   0  0  0  0  0  0  0  0  0  0  0  0
  -26.3017  -34.6548   26.9817 C   0  0  0  0  0  0  0  0  0  0  0  0
  -27.1117  -32.4244   25.5272 C   0  0  0  0  0  0  0  0  0  0  0  0
  -27.1628  -29.1753   20.3362 C   0  0  0  0  0  0  0  0  0  0  0  0
  -23.1909   -9.1499   23.3632 C   0  0  0  0  0  0  0  0  0  0  0  0
  -23.8329  -10.7880   25.0190 C   0  0  0  0  0  0  0  0  0  0  0  0
  -27.5755  -27.8753   20.0473 C   0  0  0  0  0  0  0  0  0  0  0  0
  -20.3830   -9.0124   25.2419 C   0  0  0  0  0  0  0  0  0  0  0  0
  -19.1310   -8.4374   25.0242 C   0  0  0  0  0  0  0  0  0  0  0  0
  -25.3026  -27.1056   20.2930 C   0  0  0  0  0  0  0  0  0  0  0  0
  -20.1039   -6.2367   25.2415 C   0  0  0  0  0  0  0  0  0  0  0  0
  -28.8958  -23.4754   17.8819 C   0  0  0  0  0  0  0  0  0  0  0  0
  -28.6696  -22.9487   20.1464 C   0  0  0  0  0  0  0  0  0  0  0  0
  -24.2988  -11.1859   22.6819 C   0  0  0  0  0  0  0  0  0  0  0  0
  -24.1655  -13.0231   20.9172 C   0  0  0  0  0  0  0  0  0  0  0  0
  -25.3424  -33.7160   26.5706 C   0  0  0  0  0  0  0  0  0  0  0  0
  -25.8164  -29.4489   20.6168 C   0  0  0  0  0  0  0  0  0  0  0  0
  -25.7516  -32.5818   25.8436 C   0  0  0  0  0  0  0  0  0  0  0  0
  -24.8749  -28.4103   20.5826 C   0  0  0  0  0  0  0  0  0  0  0  0
  -28.6685  -23.9217   19.1678 C   0  0  0  0  0  0  0  0  0  0  0  0
  -23.2496   -9.5633   24.6941 C   0  0  0  0  0  0  0  0  0  0  0  0
  -26.6459  -26.8397   20.0285 C   0  0  0  0  0  0  0  0  0  0  0  0
  -21.4955   -8.1996   25.4594 C   0  0  0  0  0  0  0  0  0  0  0  0
  -18.9914   -7.0496   25.0240 C   0  0  0  0  0  0  0  0  0  0  0  0
  -21.3559   -6.8117   25.4592 C   0  0  0  0  0  0  0  0  0  0  0  0
  -24.8413  -12.0241   21.6432 C   0  0  0  0  0  0  0  0  0  0  0  0
  -25.1126  -13.5226   20.0569 C   0  0  0  0  0  0  0  0  0  0  0  0
  -29.0860  -21.3293   18.6065 C   0  0  0  0  0  0  0  0  0  0  0  0
  -22.8033  -13.4605   21.0120 C   0  0  0  0  0  0  0  0  0  0  0  0
  -24.2349  -30.5873   23.1281 C   0  0  0  0  0  0  0  0  0  0  0  0
  -21.7152  -30.5056   21.0869 C   0  0  0  0  0  0  0  0  0  0  0  0
  -20.2956  -29.1629   18.2888 C   0  0  0  0  0  0  0  0  0  0  0  0
  -30.2935  -15.3309   19.0406 C   0  0  0  0  0  0  0  0  0  0  0  0
  -23.9055  -33.9190   26.9815 C   0  0  0  0  0  0  0  0  0  0  0  0
  -25.3829  -30.8610   20.9003 C   0  0  0  0  0  0  0  0  0  0  0  0
  -23.4143  -28.6548   20.8569 C   0  0  0  0  0  0  0  0  0  0  0  0
  -22.9192  -33.0631   26.1909 C   0  0  0  0  0  0  0  0  0  0  0  0
  -29.7314  -11.8181   18.8960 C   0  0  0  0  0  0  0  0  0  0  0  0
  -23.4147  -31.6233   26.1006 C   0  0  0  0  0  0  0  0  0  0  0  0
  -28.3568  -11.6407   19.5433 C   0  0  0  0  0  0  0  0  0  0  0  0
  -30.5363  -12.9242   19.5747 C   0  0  0  0  0  0  0  0  0  0  0  0
  -28.4712  -14.0467   20.3159 C   0  0  0  0  0  0  0  0  0  0  0  0
  -29.3114  -18.9315   19.3227 C   0  0  0  0  0  0  0  0  0  0  0  0
  -29.5504  -19.4788   16.9720 C   0  0  0  0  0  0  0  0  0  0  0  0
  -24.7572  -31.5471   25.3634 C   0  0  1  0  0  0  0  0  0  0  0  0
  -24.0718  -30.9391   21.6764 C   0  0  1  0  0  0  0  0  0  0  0  0
  -27.6006  -12.9801   19.6297 C   0  0  2  0  0  0  0  0  0  0  0  0
  -29.8992  -17.7350   18.5674 C   0  0  2  0  0  0  0  0  0  0  0  0
  -29.3972  -17.9701   17.1504 C   0  0  2  0  0  0  0  0  0  0  0  0
  -18.2135  -29.2681   16.8920 C   0  0  0  0  0  0  0  0  0  0  0  0
  -20.2243  -28.8742   23.1906 C   0  0  0  0  0  0  0  0  0  0  0  0
  -18.5838  -28.2165   21.4174 C   0  0  0  0  0  0  0  0  0  0  0  0
  -18.8408  -30.6163   22.0481 C   0  0  0  0  0  0  0  0  0  0  0  0
  -21.8027  -30.0510   15.9016 C   0  0  0  0  0  0  0  0  0  0  0  0
  -28.4338  -25.3701   19.4814 C   0  0  0  0  0  0  0  0  0  1  0  0
  -20.6687  -29.4810   20.7207 C   0  0  1  0  0  0  0  0  0  0  0  0
  -19.6205  -29.8092   17.0926 C   0  0  2  0  0  0  0  0  0  0  0  0
  -19.6071  -29.2917   21.8409 C   0  0  0  0  0  0  0  0  0  0  0  0
  -29.1090  -22.1816   17.5642 N   0  0  0  0  0  0  0  0  0  0  0  0
  -28.8756  -21.6382   19.9003 N   0  0  0  0  0  0  0  0  0  0  0  0
  -26.1190  -11.8952   21.2760 N   0  0  0  0  0  0  0  0  0  0  0  0
  -26.2536  -12.8196   20.3098 N   0  0  0  0  0  0  0  0  0  0  0  0
  -29.3009  -19.9985   18.3185 N   0  0  3  0  0  0  0  0  0  0  0  0
  -23.0408  -30.0514   21.1351 N   0  0  0  0  0  0  0  0  0  0  0  0
  -29.7635  -14.1678   19.6229 N   0  0  0  0  0  0  0  0  0  0  0  0
  -25.0723  -14.4901   19.1163 N   0  0  0  0  0  0  0  0  0  0  0  0
  -21.9661  -12.8402   21.9493 N   0  0  0  0  0  0  0  0  0  0  0  0
  -24.5565  -31.6621   23.9348 N   0  0  0  0  0  0  0  0  0  0  0  0
  -20.1155  -29.9028   19.4384 N   0  0  0  0  0  0  0  0  0  0  0  0
  -29.4937  -16.4640   19.1249 N   0  0  0  0  0  0  0  0  0  0  0  0
  -30.1994  -17.2303   16.1600 N   0  3  0  0  0  0  0  0  0  0  0  0
  -20.4051  -29.5498   15.8524 N   0  3  0  0  0  0  0  0  0  0  0  0
  -22.3379  -14.3631   20.2756 O   0  0  0  0  0  0  0  0  0  0  0  0
  -24.0789  -29.4268   23.4897 O   0  0  0  0  0  0  0  0  0  0  0  0
  -21.3700  -31.6678   21.3144 O   0  0  0  0  0  0  0  0  0  0  0  0
  -20.9171  -28.1054   18.2120 O   0  0  0  0  0  0  0  0  0  0  0  0
  -31.3954  -15.3564   18.4818 O   0  0  0  0  0  0  0  0  0  0  0  0
  -22.7377   -8.7720   25.6761 O   0  0  0  0  0  0  0  0  0  0  0  0
  -27.0461  -25.5698   19.7475 O   0  0  0  0  0  0  0  0  0  1  0  0
  -17.7887   -6.4976   24.8165 F   0  0  0  0  0  0  0  0  0  0  0  0
  -22.4209   -6.0257   25.6687 F   0  0  0  0  0  0  0  0  0  0  0  0
  1  2  1  0  0  0  0
  1  5  2  0  0  0  0
  2  6  2  0  0  0  0
  3  8  2  0  0  0  0
  3 17  1  0  0  0  0
  4  9  1  0  0  0  0
  4 17  2  0  0  0  0
  5 19  1  0  0  0  0
  6 21  1  0  0  0  0
  7 10  2  0  0  0  0
  7 20  1  0  0  0  0
  8 24  1  0  0  0  0
  9 24  2  0  0  0  0
 10 25  1  0  0  0  0
 11 12  2  0  0  0  0
 11 26  1  0  0  0  0
 12 27  1  0  0  0  0
 13 22  1  0  0  0  0
 13 25  2  0  0  0  0
 14 27  2  0  0  0  0
 14 28  1  0  0  0  0
 15 23  1  0  0  0  0
 15 62  2  0  0  0  0
 16 23  2  0  0  0  0
 16 63  1  0  0  0  0
 17 29  1  0  0  0  0
 18 29  1  0  0  0  0
 18 30  2  0  0  0  0
 18 32  1  0  0  0  0
 19 21  2  0  0  0  0
 19 37  1  0  0  0  0
 20 22  2  0  0  0  0
 20 38  1  0  0  0  0
 21 48  1  0  0  0  0
 22 39  1  0  0  0  0
 23 58  1  0  0  0  0
 24 81  1  0  0  0  0
 25 82  1  0  0  0  0
 26 28  2  0  0  0  0
 26 81  1  0  0  0  0
 27 83  1  0  0  0  0
 28 84  1  0  0  0  0
 29 64  2  0  0  0  0
 30 65  1  0  0  0  0
 30 69  1  0  0  0  0
 31 62  1  0  0  0  0
 31 63  2  0  0  0  0
 31 66  1  0  0  0  0
 32 70  1  0  0  0  0
 32 76  2  0  0  0  0
 33 49  1  0  0  0  0
 33 71  1  0  0  0  0
 33 77  2  0  0  0  0
 34 59  1  0  0  0  0
 34 67  1  0  0  0  0
 34 78  2  0  0  0  0
 35 60  1  0  0  0  0
 35 72  1  0  0  0  0
 35 79  2  0  0  0  0
 36 68  1  0  0  0  0
 36 73  1  0  0  0  0
 36 80  2  0  0  0  0
 37 40  1  0  0  0  0
 38 49  1  0  0  0  0
 39 67  1  0  0  0  0
 40 42  1  0  0  0  0
 41 43  1  0  0  0  0
 41 44  1  0  0  0  0
 42 48  1  0  0  0  0
 43 50  1  0  0  0  0
 44 68  1  0  0  0  0
 45 50  1  0  0  0  0
 45 68  1  0  0  0  0
 46 51  1  0  0  0  0
 46 66  1  0  0  0  0
 47 52  1  0  0  0  0
 47 66  1  0  0  0  0
 48 71  1  0  0  0  0
 49 67  1  0  0  0  0
 50 65  1  0  0  0  0
 51 52  1  0  0  0  0
 51 73  1  0  0  0  0
 52 74  1  0  0  0  0
 53 60  1  0  0  0  0
 54 61  1  0  0  0  0
 55 61  1  0  0  0  0
 56 61  1  0  0  0  0
 57 75  1  0  0  0  0
 58 82  1  0  0  0  0
 59 61  1  0  0  0  0
 59 72  1  0  0  0  0
 60 75  1  0  0  0  0
 64 65  1  0  0  0  0
M  CHG  2  74   1  75   1
M  ISO  4  36 100  58 101  73 100  82 101
M  END
> <Batch ID>
0190

> <Smiles>
CNC(C)C(=O)NC(C(=O)N1Cc2cc([101O:1][101CH2:1]c3cnc(N4CC(N)C([100NH:0][100C:0](=O)N5CCCC(n6nc(-c7ccc(Oc8ccc(F)cc8F)cc7)c(C(N)=O)c6N)C5)C4)nc3)ccc2CC1C(=O)NC1CCCc2ccccc21)C(C)(C)C

> <Shape>
0.299

> <Color>
0.137

> <Negative vol penalty>
0.000

$$$$

  -OEChem-04052323243D

 82 90  0     1  0  0  0  0  0999 V2000
  -16.0420  -26.2828   25.1660 C   0  0  0  0  0  0  0  0  0  0  0  0
  -16.9834  -25.6211   24.3841 C   0  0  0  0  0  0  0  0  0  0  0  0
  -22.6967  -11.7778   18.9579 C   0  0  0  0  0  0  0  0  0  0  0  0
  -22.9094  -10.2795   20.8412 C   0  0  0  0  0  0  0  0  0  0  0  0
  -15.9704  -27.6749   25.1401 C   0  0  0  0  0  0  0  0  0  0  0  0
  -17.8531  -26.3513   23.5748 C   0  0  0  0  0  0  0  0  0  0  0  0
  -22.6316  -24.7020   23.8742 C   0  0  0  0  0  0  0  0  0  0  0  0
  -21.6149  -11.0333   18.4878 C   0  0  0  0  0  0  0  0  0  0  0  0
  -21.8275   -9.5350   20.3711 C   0  0  0  0  0  0  0  0  0  0  0  0
  -22.9520  -23.5462   23.1633 C   0  0  0  0  0  0  0  0  0  0  0  0
  -21.2569   -7.1940   17.9995 C   0  0  0  0  0  0  0  0  0  0  0  0
  -21.3777   -5.8044   17.9992 C   0  0  0  0  0  0  0  0  0  0  0  0
  -23.9184  -24.8973   21.4141 C   0  0  0  0  0  0  0  0  0  0  0  0
  -19.4717   -5.6384   19.4745 C   0  0  0  0  0  0  0  0  0  0  0  0
  -23.3440  -11.4008   20.1346 C   0  0  0  0  0  0  0  0  0  0  0  0
  -24.4205  -13.2678   21.4995 C   0  0  0  0  0  0  0  0  0  0  0  0
  -16.8460  -28.4230   24.3374 C   0  0  0  0  0  0  0  0  0  0  0  0
  -22.9430  -25.9666   23.3545 C   0  0  0  0  0  0  0  0  0  0  0  0
  -17.7922  -27.7547   23.5370 C   0  0  0  0  0  0  0  0  0  0  0  0
  -23.6032  -26.0675   22.1216 C   0  0  0  0  0  0  0  0  0  0  0  0
  -21.1802   -9.9120   19.1944 C   0  0  0  0  0  0  0  0  0  0  0  0
  -23.5929  -23.6439   21.9317 C   0  0  0  0  0  0  0  0  0  0  0  0
  -20.2435   -7.8058   18.7374 C   0  0  0  0  0  0  0  0  0  0  0  0
  -20.4851   -5.0266   18.7366 C   0  0  0  0  0  0  0  0  0  0  0  0
  -19.3509   -7.0280   19.4749 C   0  0  0  0  0  0  0  0  0  0  0  0
  -24.4620  -12.1691   20.6204 C   0  0  0  0  0  0  0  0  0  0  0  0
  -25.7346  -13.6390   21.6475 C   0  0  0  0  0  0  0  0  0  0  0  0
  -23.2948  -13.8967   22.1264 C   0  0  0  0  0  0  0  0  0  0  0  0
  -21.2504  -28.5100   22.4770 C   0  0  0  0  0  0  0  0  0  0  0  0
  -24.1820  -29.8481   22.1069 C   0  0  0  0  0  0  0  0  0  0  0  0
  -27.5223  -29.4038   21.5666 C   0  0  0  0  0  0  0  0  0  0  0  0
  -30.7467  -14.6447   19.7010 C   0  0  0  0  0  0  0  0  0  0  0  0
  -16.6993  -29.9237   24.3064 C   0  0  0  0  0  0  0  0  0  0  0  0
  -22.6146  -27.2027   24.1461 C   0  0  0  0  0  0  0  0  0  0  0  0
  -23.9775  -27.4007   21.5292 C   0  0  0  0  0  0  0  0  0  0  0  0
  -17.9057  -30.6415   23.7068 C   0  0  0  0  0  0  0  0  0  0  0  0
  -30.0012  -11.3180   20.2591 C   0  0  0  0  0  0  0  0  0  0  0  0
  -18.3408  -29.9634   22.4115 C   0  0  0  0  0  0  0  0  0  0  0  0
  -28.4885  -11.3183   20.4792 C   0  0  0  0  0  0  0  0  0  0  0  0
  -30.3886  -12.2625   19.1269 C   0  0  0  0  0  0  0  0  0  0  0  0
  -30.8201  -16.8193   20.8666 C   0  0  0  0  0  0  0  0  0  0  0  0
  -29.2884  -16.5676   18.9596 C   0  0  0  0  0  0  0  0  0  0  0  0
  -29.7912  -17.7260   21.5421 C   0  0  0  0  0  0  0  0  0  0  0  0
  -28.2783  -17.4673   19.6687 C   0  0  0  0  0  0  0  0  0  0  0  0
  -28.4078  -13.6825   19.5459 C   0  0  0  0  0  0  0  0  0  0  0  0
  -18.7693  -28.5130   22.6650 C   0  0  1  0  0  0  0  0  0  0  0  0
  -22.5175  -28.4568   23.2828 C   0  0  1  0  0  0  0  0  0  0  0  0
  -27.9607  -12.7487   20.6886 C   0  0  1  0  0  0  0  0  0  0  0  0
  -29.6587  -30.6878   21.2756 C   0  0  0  0  0  0  0  0  0  0  0  0
  -28.4759  -21.2917   19.6877 C   0  0  0  0  0  0  0  0  0  0  0  0
  -23.3481  -30.5873   19.2664 C   0  0  0  0  0  0  0  0  0  0  0  0
  -25.7622  -30.9857   18.7359 C   0  0  0  0  0  0  0  0  0  0  0  0
  -24.6249  -32.3659   20.4750 C   0  0  0  0  0  0  0  0  0  0  0  0
  -28.7418  -28.1405   23.9491 C   0  0  0  0  0  0  0  0  0  0  0  0
  -27.9930  -19.2970   21.2119 C   0  0  0  0  0  0  0  0  0  0  0  0
  -25.1216  -20.4383   21.2174 C   0  0  0  0  0  0  0  0  0  0  0  0
  -24.1809  -21.3403   21.9918 C   0  0  0  0  0  0  0  0  0  1  0  0
  -25.1757  -29.9495   20.9749 C   0  0  1  0  0  0  0  0  0  0  0  0
  -28.7410  -29.9827   22.2623 C   0  0  2  0  0  0  0  0  0  0  0  0
  -27.4261  -20.3477   20.2584 C   0  0  1  0  0  0  0  0  0  0  0  0
  -24.7191  -30.9469   19.8730 C   0  0  0  0  0  0  0  0  0  0  0  0
  -25.7040  -11.8623   20.2367 N   0  0  0  0  0  0  0  0  0  0  0  0
  -26.4552  -12.7738   20.8777 N   0  0  0  0  0  0  0  0  0  0  0  0
  -23.6296  -28.5804   22.3383 N   0  0  0  0  0  0  0  0  0  0  0  0
  -29.8649  -13.6079   19.3609 N   0  0  0  0  0  0  0  0  0  0  0  0
  -30.1814  -15.9100   19.9195 N   0  0  0  0  0  0  0  0  0  0  0  0
  -28.9618  -18.4242   20.5505 N   0  0  0  0  0  0  0  0  0  0  0  0
  -26.3325  -14.6177   22.3595 N   0  0  0  0  0  0  0  0  0  0  0  0
  -22.0149  -13.3886   21.8658 N   0  0  0  0  0  0  0  0  0  0  0  0
  -20.0976  -28.4713   23.2381 N   0  0  0  0  0  0  0  0  0  0  0  0
  -26.4584  -30.2806   21.5862 N   0  0  0  0  0  0  0  0  0  0  0  0
  -29.5157  -28.9019   22.9350 N   0  3  0  0  0  0  0  0  0  0  0  0
  -26.3977  -21.1577   20.9695 N   0  3  0  0  0  0  0  0  0  0  0  0
  -23.4188  -14.8903   22.8819 O   0  0  0  0  0  0  0  0  0  0  0  0
  -21.3138  -28.5824   21.2554 O   0  0  0  0  0  0  0  0  0  0  0  0
  -23.9115  -30.8550   22.7661 O   0  0  0  0  0  0  0  0  0  0  0  0
  -27.5161  -28.2869   21.0536 O   0  0  0  0  0  0  0  0  0  0  0  0
  -31.9641  -14.4531   19.8097 O   0  0  0  0  0  0  0  0  0  0  0  0
  -20.1245   -9.1855   18.7361 O   0  0  0  0  0  0  0  0  0  0  0  0
  -23.9085  -22.5093   21.2305 O   0  0  0  0  0  0  0  0  0  1  0  0
  -20.6002   -3.6920   18.7350 F   0  0  0  0  0  0  0  0  0  0  0  0
  -18.3746   -7.6100   20.1848 F   0  0  0  0  0  0  0  0  0  0  0  0
  1  2  1  0  0  0  0
  1  5  2  0  0  0  0
  2  6  2  0  0  0  0
  3  8  2  0  0  0  0
  3 15  1  0  0  0  0
  4  9  1  0  0  0  0
  4 15  2  0  0  0  0
  5 17  1  0  0  0  0
  6 19  1  0  0  0  0
  7 10  2  0  0  0  0
  7 18  1  0  0  0  0
  8 21  1  0  0  0  0
  9 21  2  0  0  0  0
 10 22  1  0  0  0  0
 11 12  2  0  0  0  0
 11 23  1  0  0  0  0
 12 24  1  0  0  0  0
 13 20  1  0  0  0  0
 13 22  2  0  0  0  0
 14 24  2  0  0  0  0
 14 25  1  0  0  0  0
 15 26  1  0  0  0  0
 16 26  1  0  0  0  0
 16 27  2  0  0  0  0
 16 28  1  0  0  0  0
 17 19  2  0  0  0  0
 17 33  1  0  0  0  0
 18 20  2  0  0  0  0
 18 34  1  0  0  0  0
 19 46  1  0  0  0  0
 20 35  1  0  0  0  0
 21 79  1  0  0  0  0
 22 80  1  0  0  0  0
 23 25  2  0  0  0  0
 23 79  1  0  0  0  0
 24 81  1  0  0  0  0
 25 82  1  0  0  0  0
 26 62  2  0  0  0  0
 27 63  1  0  0  0  0
 27 68  1  0  0  0  0
 28 69  1  0  0  0  0
 28 74  2  0  0  0  0
 29 47  1  0  0  0  0
 29 70  1  0  0  0  0
 29 75  2  0  0  0  0
 30 58  1  0  0  0  0
 30 64  1  0  0  0  0
 30 76  2  0  0  0  0
 31 59  1  0  0  0  0
 31 71  1  0  0  0  0
 31 77  2  0  0  0  0
 32 65  1  0  0  0  0
 32 66  1  0  0  0  0
 32 78  2  0  0  0  0
 33 36  1  0  0  0  0
 34 47  1  0  0  0  0
 35 64  1  0  0  0  0
 36 38  1  0  0  0  0
 37 39  1  0  0  0  0
 37 40  1  0  0  0  0
 38 46  1  0  0  0  0
 39 48  1  0  0  0  0
 40 65  1  0  0  0  0
 41 43  1  0  0  0  0
 41 66  1  0  0  0  0
 42 44  1  0  0  0  0
 42 66  1  0  0  0  0
 43 67  1  0  0  0  0
 44 67  1  0  0  0  0
 45 48  1  0  0  0  0
 45 65  1  0  0  0  0
 46 70  1  0  0  0  0
 47 64  1  0  0  0  0
 48 63  1  0  0  0  0
 49 59  1  0  0  0  0
 50 60  1  0  0  0  0
 51 61  1  0  0  0  0
 52 61  1  0  0  0  0
 53 61  1  0  0  0  0
 54 72  1  0  0  0  0
 55 60  1  0  0  0  0
 55 67  1  0  0  0  0
 56 57  1  0  0  0  0
 56 73  1  0  0  0  0
 57 80  1  0  0  0  0
 58 61  1  0  0  0  0
 58 71  1  0  0  0  0
 59 72  1  0  0  0  0
 60 73  1  0  0  0  0
 62 63  1  0  0  0  0
M  CHG  2  72   1  73   1
M  ISO  4  32 100  57 101  66 100  80 101
M  END
> <Batch ID>
0190

> <Smiles>
CNC(C)C(=O)NC(C(=O)N1Cc2cc([101O:1][101CH2:1]CNC(C)CN3CC[100N:0]([100C:0](=O)N4CCCC(n5nc(-c6ccc(Oc7ccc(F)cc7F)cc6)c(C(N)=O)c5N)C4)CC3)ccc2CC1C(=O)NC1CCCc2ccccc21)C(C)(C)C

> <Shape>
0.266

> <Color>
0.102

> <Negative vol penalty>
0.000

$$$$

  -OEChem-04052323243D

 79 87  0     1  0  0  0  0  0999 V2000
  -27.4364  -17.5313   13.0579 C   0  0  0  0  0  0  0  0  0  0  0  0
  -28.1156  -17.2009   14.2262 C   0  0  0  0  0  0  0  0  0  0  0  0
  -25.9377  -27.3329   18.9944 C   0  0  0  0  0  0  0  0  0  0  0  0
  -26.3568  -27.3741   21.3735 C   0  0  0  0  0  0  0  0  0  0  0  0
  -26.1048  -17.9398   13.1189 C   0  0  0  0  0  0  0  0  0  0  0  0
  -27.4638  -17.2799   15.4564 C   0  0  0  0  0  0  0  0  0  0  0  0
  -28.3471  -13.2446   18.3857 C   0  0  0  0  0  0  0  0  0  0  0  0
  -24.8020  -28.1209   19.1808 C   0  0  0  0  0  0  0  0  0  0  0  0
  -25.2210  -28.1621   21.5598 C   0  0  0  0  0  0  0  0  0  0  0  0
  -29.5734  -13.1940   19.0470 C   0  0  0  0  0  0  0  0  0  0  0  0
  -24.3589  -31.4102   21.2028 C   0  0  0  0  0  0  0  0  0  0  0  0
  -24.4684  -32.5118   22.0513 C   0  0  0  0  0  0  0  0  0  0  0  0
  -28.5082  -13.9662   21.0689 C   0  0  0  0  0  0  0  0  0  0  0  0
  -22.7454  -31.5893   23.4716 C   0  0  0  0  0  0  0  0  0  0  0  0
  -26.7151  -26.9595   20.0908 C   0  0  0  0  0  0  0  0  0  0  0  0
  -29.2022  -26.5900   19.6600 C   0  0  0  0  0  0  0  0  0  0  0  0
  -25.4334  -18.0146   14.3494 C   0  0  0  0  0  0  0  0  0  0  0  0
  -27.1922  -13.6675   19.0593 C   0  0  0  0  0  0  0  0  0  0  0  0
  -26.1223  -17.6911   15.5340 C   0  0  0  0  0  0  0  0  0  0  0  0
  -27.2680  -14.0188   20.4146 C   0  0  0  0  0  0  0  0  0  0  0  0
  -24.4436  -28.5355   20.4635 C   0  0  0  0  0  0  0  0  0  0  0  0
  -29.6547  -13.5576   20.3880 C   0  0  0  0  0  0  0  0  0  0  0  0
  -23.4425  -30.3981   21.4886 C   0  0  0  0  0  0  0  0  0  0  0  0
  -23.6617  -32.6014   23.1857 C   0  0  0  0  0  0  0  0  0  0  0  0
  -22.6358  -30.4876   22.6230 C   0  0  0  0  0  0  0  0  0  0  0  0
  -27.8882  -26.1450   19.8989 C   0  0  0  0  0  0  0  0  0  0  0  0
  -29.9406  -25.4370   19.5508 C   0  0  0  0  0  0  0  0  0  0  0  0
  -29.7100  -27.9260   19.5470 C   0  0  0  0  0  0  0  0  0  0  0  0
  -25.1483  -16.0770   18.7119 C   0  0  0  0  0  0  0  0  0  0  0  0
  -23.5348  -14.5356   21.0662 C   0  0  0  0  0  0  0  0  0  0  0  0
  -23.6266  -12.3754   23.7066 C   0  0  0  0  0  0  0  0  0  0  0  0
  -28.9219  -19.9798   21.7652 C   0  0  0  0  0  0  0  0  0  0  0  0
  -24.0080  -18.5069   14.3699 C   0  0  0  0  0  0  0  0  0  0  0  0
  -25.8719  -13.6910   18.3390 C   0  0  0  0  0  0  0  0  0  0  0  0
  -26.0537  -14.4605   21.1885 C   0  0  0  0  0  0  0  0  0  0  0  0
  -23.2777  -18.2042   15.6758 C   0  0  0  0  0  0  0  0  0  0  0  0
  -29.5560  -20.8482   18.2595 C   0  0  0  0  0  0  0  0  0  0  0  0
  -24.1511  -18.5678   16.8725 C   0  0  0  0  0  0  0  0  0  0  0  0
  -29.2973  -22.3557   18.2676 C   0  0  0  0  0  0  0  0  0  0  0  0
  -28.6305  -20.1308   19.2346 C   0  0  0  0  0  0  0  0  0  0  0  0
  -28.4492  -22.1348   20.6531 C   0  0  0  0  0  0  0  0  0  0  0  0
  -30.6943  -18.2726   20.8706 C   0  0  0  0  0  0  0  0  0  0  0  0
  -29.8646  -17.8360   22.7817 C   0  0  0  0  0  0  0  0  0  0  0  0
  -25.4421  -17.7404   16.8849 C   0  0  1  0  0  0  0  0  0  0  0  0
  -24.8559  -14.6286   18.9841 C   0  0  1  0  0  0  0  0  0  0  0  0
  -29.3617  -22.9249   19.6969 C   0  0  2  0  0  0  0  0  0  0  0  0
  -31.2381  -17.6056   22.1414 C   0  0  0  0  0  0  0  0  0  0  0  0
  -22.1564  -11.3414   25.4579 C   0  0  0  0  0  0  0  0  0  0  0  0
  -23.5388  -17.1631   22.6175 C   0  0  0  0  0  0  0  0  0  0  0  0
  -22.9388  -15.8687   24.6749 C   0  0  0  0  0  0  0  0  0  0  0  0
  -21.3869  -15.8932   22.7220 C   0  0  0  0  0  0  0  0  0  0  0  0
  -24.1750   -9.6404   22.7178 C   0  0  0  0  0  0  0  0  0  0  0  0
  -32.8604  -15.9258   21.2555 C   0  0  0  0  0  0  0  0  0  0  0  0
  -32.0224  -13.7338   20.2509 C   0  0  0  0  0  0  0  0  0  1  0  0
  -23.5433  -14.5816   22.5751 C   0  0  1  0  0  0  0  0  0  0  0  0
  -22.7526  -11.1877   24.0673 C   0  0  2  0  0  0  0  0  0  0  0  0
  -33.0940  -14.4228   21.1016 C   0  0  1  0  0  0  0  0  0  0  0  0
  -22.8754  -15.8702   23.1326 C   0  0  0  0  0  0  0  0  0  0  0  0
  -27.7940  -24.8133   19.9391 N   0  0  0  0  0  0  0  0  0  0  0  0
  -29.0582  -24.4115   19.7238 N   0  0  0  0  0  0  0  0  0  0  0  0
  -24.7869  -14.4728   20.4384 N   0  0  0  0  0  0  0  0  0  0  0  0
  -28.7460  -20.7003   20.5808 N   0  0  0  0  0  0  0  0  0  0  0  0
  -29.6300  -18.8022   21.7111 N   0  0  0  0  0  0  0  0  0  0  0  0
  -31.2520  -25.2105   19.3244 N   0  0  0  0  0  0  0  0  0  0  0  0
  -28.8144  -28.9952   19.6855 N   0  0  0  0  0  0  0  0  0  0  0  0
  -34.4024  -14.2290   20.4654 N   0  0  0  0  0  0  0  0  0  0  0  0
  -25.1799  -16.4020   17.3692 N   0  0  0  0  0  0  0  0  0  0  0  0
  -22.9185  -13.3423   23.0248 N   0  0  0  0  0  0  0  0  0  0  0  0
  -31.5699  -16.1872   21.9636 N   0  3  0  0  0  0  0  0  0  0  0  0
  -23.5497   -9.9290   24.0341 N   0  3  0  0  0  0  0  0  0  0  0  0
  -30.9192  -28.1645   19.3133 O   0  0  0  0  0  0  0  0  0  0  0  0
  -25.3303  -16.8434   19.6507 O   0  0  0  0  0  0  0  0  0  0  0  0
  -22.4567  -14.5476   20.4669 O   0  0  0  0  0  0  0  0  0  0  0  0
  -24.8174  -12.4406   24.0036 O   0  0  0  0  0  0  0  0  0  0  0  0
  -28.4874  -20.3909   22.8494 O   0  0  0  0  0  0  0  0  0  0  0  0
  -23.3355  -29.3046   20.6457 O   0  0  0  0  0  0  0  0  0  0  0  0
  -30.8581  -13.5095   21.0397 O   0  0  0  0  0  0  0  0  0  1  0  0
  -23.7681  -33.6586   24.0013 F   0  0  0  0  0  0  0  0  0  0  0  0
  -21.7545  -29.5179   22.9034 F   0  0  0  0  0  0  0  0  0  0  0  0
  1  2  1  0  0  0  0
  1  5  2  0  0  0  0
  2  6  2  0  0  0  0
  3  8  2  0  0  0  0
  3 15  1  0  0  0  0
  4  9  1  0  0  0  0
  4 15  2  0  0  0  0
  5 17  1  0  0  0  0
  6 19  1  0  0  0  0
  7 10  2  0  0  0  0
  7 18  1  0  0  0  0
  8 21  1  0  0  0  0
  9 21  2  0  0  0  0
 10 22  1  0  0  0  0
 11 12  2  0  0  0  0
 11 23  1  0  0  0  0
 12 24  1  0  0  0  0
 13 20  1  0  0  0  0
 13 22  2  0  0  0  0
 14 24  2  0  0  0  0
 14 25  1  0  0  0  0
 15 26  1  0  0  0  0
 16 26  1  0  0  0  0
 16 27  2  0  0  0  0
 16 28  1  0  0  0  0
 17 19  2  0  0  0  0
 17 33  1  0  0  0  0
 18 20  2  0  0  0  0
 18 34  1  0  0  0  0
 19 44  1  0  0  0  0
 20 35  1  0  0  0  0
 21 76  1  0  0  0  0
 22 77  1  0  0  0  0
 23 25  2  0  0  0  0
 23 76  1  0  0  0  0
 24 78  1  0  0  0  0
 25 79  1  0  0  0  0
 26 59  2  0  0  0  0
 27 60  1  0  0  0  0
 27 64  1  0  0  0  0
 28 65  1  0  0  0  0
 28 71  2  0  0  0  0
 29 45  1  0  0  0  0
 29 67  1  0  0  0  0
 29 72  2  0  0  0  0
 30 55  1  0  0  0  0
 30 61  1  0  0  0  0
 30 73  2  0  0  0  0
 31 56  1  0  0  0  0
 31 68  1  0  0  0  0
 31 74  2  0  0  0  0
 32 62  1  0  0  0  0
 32 63  1  0  0  0  0
 32 75  2  0  0  0  0
 33 36  1  0  0  0  0
 34 45  1  0  0  0  0
 35 61  1  0  0  0  0
 36 38  1  0  0  0  0
 37 39  1  0  0  0  0
 37 40  1  0  0  0  0
 38 44  1  0  0  0  0
 39 46  1  0  0  0  0
 40 62  1  0  0  0  0
 41 46  1  0  0  0  0
 41 62  1  0  0  0  0
 42 47  1  0  0  0  0
 42 63  1  0  0  0  0
 43 47  1  0  0  0  0
 43 63  1  0  0  0  0
 44 67  1  0  0  0  0
 45 61  1  0  0  0  0
 46 60  1  0  0  0  0
 47 69  1  0  0  0  0
 48 56  1  0  0  0  0
 49 58  1  0  0  0  0
 50 58  1  0  0  0  0
 51 58  1  0  0  0  0
 52 70  1  0  0  0  0
 53 57  1  0  0  0  0
 53 69  1  0  0  0  0
 54 57  1  0  0  0  0
 54 77  1  0  0  0  0
 55 58  1  0  0  0  0
 55 68  1  0  0  0  0
 56 70  1  0  0  0  0
 57 66  1  0  0  0  0
 59 60  1  0  0  0  0
M  CHG  2  69   1  70   1
M  ISO  4  32 100  54 101  63 100  77 101
M  END
> <Batch ID>
0190

> <Smiles>
CNC(C)C(=O)NC(C(=O)N1Cc2cc([101O:1][101CH2:1]C(N)CNC3C[100N:0]([100C:0](=O)N4CCCC(n5nc(-c6ccc(Oc7ccc(F)cc7F)cc6)c(C(N)=O)c5N)C4)C3)ccc2CC1C(=O)NC1CCCc2ccccc21)C(C)(C)C

> <Shape>
0.256

> <Color>
0.054

> <Negative vol penalty>
0.000

$$$$

  -OEChem-04052323243D

 79 88  0     1  0  0  0  0  0999 V2000
  -27.9774  -34.4080   22.9453 C   0  0  0  0  0  0  0  0  0  0  0  0
  -28.0839  -33.0411   22.7092 C   0  0  0  0  0  0  0  0  0  0  0  0
  -26.6186  -13.7199   19.5490 C   0  0  0  0  0  0  0  0  0  0  0  0
  -26.7799  -12.6686   21.7183 C   0  0  0  0  0  0  0  0  0  0  0  0
  -26.8184  -34.9266   23.5212 C   0  0  0  0  0  0  0  0  0  0  0  0
  -27.0317  -32.1918   23.0499 C   0  0  0  0  0  0  0  0  0  0  0  0
  -26.0001  -28.8214   19.4138 C   0  0  0  0  0  0  0  0  0  0  0  0
  -25.2839  -13.3255   19.4570 C   0  0  0  0  0  0  0  0  0  0  0  0
  -25.4451  -12.2742   21.6263 C   0  0  0  0  0  0  0  0  0  0  0  0
  -26.8467  -27.7187   19.3090 C   0  0  0  0  0  0  0  0  0  0  0  0
  -23.6647   -9.8482   20.0849 C   0  0  0  0  0  0  0  0  0  0  0  0
  -23.3499   -8.5378   20.4446 C   0  0  0  0  0  0  0  0  0  0  0  0
  -25.2343  -26.3754   20.4985 C   0  0  0  0  0  0  0  0  0  0  0  0
  -21.8689   -9.3657   22.1646 C   0  0  0  0  0  0  0  0  0  0  0  0
  -27.3667  -13.3914   20.6796 C   0  0  0  0  0  0  0  0  0  0  0  0
  -29.7963  -13.4513   19.9046 C   0  0  0  0  0  0  0  0  0  0  0  0
  -25.7476  -34.0845   23.8602 C   0  0  0  0  0  0  0  0  0  0  0  0
  -24.7669  -28.7120   20.0724 C   0  0  0  0  0  0  0  0  0  0  0  0
  -25.8578  -32.6995   23.6321 C   0  0  0  0  0  0  0  0  0  0  0  0
  -24.3728  -27.4775   20.6080 C   0  0  0  0  0  0  0  0  0  0  0  0
  -24.6971  -12.6026   20.4957 C   0  0  0  0  0  0  0  0  0  0  0  0
  -26.4652  -26.4962   19.8539 C   0  0  0  0  0  0  0  0  0  0  0  0
  -23.0817  -10.9174   20.7652 C   0  0  0  0  0  0  0  0  0  0  0  0
  -22.4520   -8.2966   21.4844 C   0  0  0  0  0  0  0  0  0  0  0  0
  -22.1838  -10.6761   21.8050 C   0  0  0  0  0  0  0  0  0  0  0  0
  -28.7457  -13.7981   20.7750 C   0  0  0  0  0  0  0  0  0  0  0  0
  -30.8974  -14.0859   20.4256 C   0  0  0  0  0  0  0  0  0  0  0  0
  -29.7786  -12.6291   18.7301 C   0  0  0  0  0  0  0  0  0  0  0  0
  -23.4676  -30.0621   22.6399 C   0  0  0  0  0  0  0  0  0  0  0  0
  -20.8288  -28.4398   21.6770 C   0  0  0  0  0  0  0  0  0  0  0  0
  -19.5170  -25.8136   19.9366 C   0  0  0  0  0  0  0  0  0  0  0  0
  -31.3741  -18.9558   24.0043 C   0  0  0  0  0  0  0  0  0  0  0  0
  -24.5338  -34.6850   24.5241 C   0  0  0  0  0  0  0  0  0  0  0  0
  -23.8534  -29.9041   20.1535 C   0  0  0  0  0  0  0  0  0  0  0  0
  -23.0503  -27.3024   21.3072 C   0  0  0  0  0  0  0  0  0  0  0  0
  -23.3152  -33.7657   24.5113 C   0  0  0  0  0  0  0  0  0  0  0  0
  -32.7369  -15.6679   24.5235 C   0  0  0  0  0  0  0  0  0  0  0  0
  -23.7069  -32.3540   24.9360 C   0  0  0  0  0  0  0  0  0  0  0  0
  -31.9276  -14.7735   23.5902 C   0  0  0  0  0  0  0  0  0  0  0  0
  -31.8756  -16.7931   25.0813 C   0  0  0  0  0  0  0  0  0  0  0  0
  -30.4500  -16.7749   23.0506 C   0  0  0  0  0  0  0  0  0  0  0  0
  -29.5084  -19.4873   22.2437 C   0  0  0  0  0  0  0  0  0  0  0  0
  -30.8083  -21.0999   22.7370 C   0  0  0  0  0  0  0  0  0  0  0  0
  -29.1051  -23.1275   21.0372 C   0  0  0  0  0  0  0  0  0  0  0  0
  -27.5920  -21.7323   20.6994 C   0  0  0  0  0  0  0  0  0  0  0  0
  -24.7281  -31.7491   23.9650 C   0  0  1  0  0  0  0  0  0  0  0  0
  -22.8464  -29.8085   21.2955 C   0  0  1  0  0  0  0  0  0  0  0  0
  -27.8803  -23.1235   20.1011 C   0  0  0  0  0  0  0  0  0  0  0  0
  -31.2781  -15.6080   22.4770 C   0  0  2  0  0  0  0  0  0  0  0  0
  -29.3303  -21.0087   22.3407 C   0  0  0  0  0  0  0  0  0  0  0  0
  -17.3292  -24.7257   19.3644 C   0  0  0  0  0  0  0  0  0  0  0  0
  -20.6886  -27.2512   24.4837 C   0  0  0  0  0  0  0  0  0  0  0  0
  -19.1256  -25.5101   23.5928 C   0  0  0  0  0  0  0  0  0  0  0  0
  -18.4786  -27.9182   23.5217 C   0  0  0  0  0  0  0  0  0  0  0  0
  -19.9217  -26.2573   17.0386 C   0  0  0  0  0  0  0  0  0  0  0  0
  -26.8383  -24.1968   20.3332 C   0  0  0  0  0  0  0  0  0  1  0  0
  -20.2614  -27.0666   21.9441 C   0  0  1  0  0  0  0  0  0  0  0  0
  -18.3800  -25.7372   18.9337 C   0  0  2  0  0  0  0  0  0  0  0  0
  -19.6644  -26.9400   23.3742 C   0  0  0  0  0  0  0  0  0  0  0  0
  -29.1435  -14.5913   21.7732 N   0  0  0  0  0  0  0  0  0  0  0  0
  -30.4565  -14.7482   21.5334 N   0  0  0  0  0  0  0  0  0  0  0  0
  -22.1948  -28.4991   21.3664 N   0  0  0  0  0  0  0  0  0  0  0  0
  -31.2206  -17.5650   24.0209 N   0  0  0  0  0  0  0  0  0  0  0  0
  -30.7249  -19.6697   23.0236 N   0  0  0  0  0  0  0  0  0  0  0  0
  -32.1900  -14.1364   20.0396 N   0  0  0  0  0  0  0  0  0  0  0  0
  -30.0149  -11.2550   18.8729 N   0  0  0  0  0  0  0  0  0  0  0  0
  -24.0714  -31.2996   22.7563 N   0  0  0  0  0  0  0  0  0  0  0  0
  -19.3067  -26.8039   20.8727 N   0  0  0  0  0  0  0  0  0  0  0  0
  -29.0290  -21.6471   21.0542 N   0  3  0  0  0  0  0  0  0  0  0  0
  -18.8966  -25.3368   17.5944 N   0  3  0  0  0  0  0  0  0  0  0  0
  -29.5760  -13.1016   17.5859 O   0  0  0  0  0  0  0  0  0  0  0  0
  -23.4025  -29.1996   23.5079 O   0  0  0  0  0  0  0  0  0  0  0  0
  -20.0859  -29.4228   21.7346 O   0  0  0  0  0  0  0  0  0  0  0  0
  -20.4923  -25.0668   19.8960 O   0  0  0  0  0  0  0  0  0  0  0  0
  -32.0460  -19.5492   24.8583 O   0  0  0  0  0  0  0  0  0  0  0  0
  -23.3946  -12.2178   20.4064 O   0  0  0  0  0  0  0  0  0  0  0  0
  -27.2960  -25.4105   19.7528 O   0  0  0  0  0  0  0  0  0  1  0  0
  -22.1486   -7.0381   21.8287 F   0  0  0  0  0  0  0  0  0  0  0  0
  -21.6195  -11.6992   22.4613 F   0  0  0  0  0  0  0  0  0  0  0  0
  1  2  1  0  0  0  0
  1  5  2  0  0  0  0
  2  6  2  0  0  0  0
  3  8  2  0  0  0  0
  3 15  1  0  0  0  0
  4  9  1  0  0  0  0
  4 15  2  0  0  0  0
  5 17  1  0  0  0  0
  6 19  1  0  0  0  0
  7 10  2  0  0  0  0
  7 18  1  0  0  0  0
  8 21  1  0  0  0  0
  9 21  2  0  0  0  0
 10 22  1  0  0  0  0
 11 12  2  0  0  0  0
 11 23  1  0  0  0  0
 12 24  1  0  0  0  0
 13 20  1  0  0  0  0
 13 22  2  0  0  0  0
 14 24  2  0  0  0  0
 14 25  1  0  0  0  0
 15 26  1  0  0  0  0
 16 26  1  0  0  0  0
 16 27  2  0  0  0  0
 16 28  1  0  0  0  0
 17 19  2  0  0  0  0
 17 33  1  0  0  0  0
 18 20  2  0  0  0  0
 18 34  1  0  0  0  0
 19 46  1  0  0  0  0
 20 35  1  0  0  0  0
 21 76  1  0  0  0  0
 22 77  1  0  0  0  0
 23 25  2  0  0  0  0
 23 76  1  0  0  0  0
 24 78  1  0  0  0  0
 25 79  1  0  0  0  0
 26 60  2  0  0  0  0
 27 61  1  0  0  0  0
 27 65  1  0  0  0  0
 28 66  1  0  0  0  0
 28 71  2  0  0  0  0
 29 47  1  0  0  0  0
 29 67  1  0  0  0  0
 29 72  2  0  0  0  0
 30 57  1  0  0  0  0
 30 62  1  0  0  0  0
 30 73  2  0  0  0  0
 31 58  1  0  0  0  0
 31 68  1  0  0  0  0
 31 74  2  0  0  0  0
 32 63  1  0  0  0  0
 32 64  1  0  0  0  0
 32 75  2  0  0  0  0
 33 36  1  0  0  0  0
 34 47  1  0  0  0  0
 35 62  1  0  0  0  0
 36 38  1  0  0  0  0
 37 39  1  0  0  0  0
 37 40  1  0  0  0  0
 38 46  1  0  0  0  0
 39 49  1  0  0  0  0
 40 63  1  0  0  0  0
 41 49  1  0  0  0  0
 41 63  1  0  0  0  0
 42 50  1  0  0  0  0
 42 64  1  0  0  0  0
 43 50  1  0  0  0  0
 43 64  1  0  0  0  0
 44 48  1  0  0  0  0
 44 69  1  0  0  0  0
 45 48  1  0  0  0  0
 45 69  1  0  0  0  0
 46 67  1  0  0  0  0
 47 62  1  0  0  0  0
 48 56  1  0  0  0  0
 49 61  1  0  0  0  0
 50 69  1  0  0  0  0
 51 58  1  0  0  0  0
 52 59  1  0  0  0  0
 53 59  1  0  0  0  0
 54 59  1  0  0  0  0
 55 70  1  0  0  0  0
 56 77  1  0  0  0  0
 57 59  1  0  0  0  0
 57 68  1  0  0  0  0
 58 70  1  0  0  0  0
 60 61  1  0  0  0  0
M  CHG  2  69   1  70   1
M  ISO  4  32 100  56 101  64 100  77 101
M  END
> <Batch ID>
0190

> <Smiles>
CNC(C)C(=O)NC(C(=O)N1Cc2cc([101O:1][101CH2:1]C3CN(C4C[100N:0]([100C:0](=O)N5CCCC(n6nc(-c7ccc(Oc8ccc(F)cc8F)cc7)c(C(N)=O)c6N)C5)C4)C3)ccc2CC1C(=O)NC1CCCc2ccccc21)C(C)(C)C

> <Shape>
0.327

> <Color>
0.062

> <Negative vol penalty>
0.000

$$$$

  -OEChem-04052323243D

 85 94  0     1  0  0  0  0  0999 V2000
  -30.4386  -30.4045   26.0122 C   0  0  0  0  0  0  0  0  0  0  0  0
  -29.7135  -29.4763   25.2719 C   0  0  0  0  0  0  0  0  0  0  0  0
  -23.0518  -10.1553   20.0667 C   0  0  0  0  0  0  0  0  0  0  0  0
  -24.0717   -9.4014   22.1230 C   0  0  0  0  0  0  0  0  0  0  0  0
  -29.8150  -31.5591   26.4832 C   0  0  0  0  0  0  0  0  0  0  0  0
  -28.3639  -29.7017   25.0031 C   0  0  0  0  0  0  0  0  0  0  0  0
  -27.1526  -28.7210   20.1848 C   0  0  0  0  0  0  0  0  0  0  0  0
  -22.2790   -8.9949   20.0245 C   0  0  0  0  0  0  0  0  0  0  0  0
  -23.2989   -8.2409   22.0809 C   0  0  0  0  0  0  0  0  0  0  0  0
  -26.9927  -27.3828   19.8282 C   0  0  0  0  0  0  0  0  0  0  0  0
  -20.1231   -7.3378   22.8013 C   0  0  0  0  0  0  0  0  0  0  0  0
  -19.5059   -6.9287   23.9834 C   0  0  0  0  0  0  0  0  0  0  0  0
  -24.5988  -27.6315   19.9921 C   0  0  0  0  0  0  0  0  0  0  0  0
  -20.7147   -4.8388   23.8911 C   0  0  0  0  0  0  0  0  0  0  0  0
  -24.7697  -21.9372   18.0254 C   0  0  0  0  0  0  0  0  0  0  0  0
  -23.9482  -10.3585   21.1159 C   0  0  0  0  0  0  0  0  0  0  0  0
  -24.4137  -12.7790   21.7735 C   0  0  0  0  0  0  0  0  0  0  0  0
  -28.4596  -31.8035   26.2117 C   0  0  0  0  0  0  0  0  0  0  0  0
  -26.0354  -29.5231   20.4588 C   0  0  0  0  0  0  0  0  0  0  0  0
  -27.7213  -30.8601   25.4720 C   0  0  0  0  0  0  0  0  0  0  0  0
  -24.7472  -28.9803   20.3495 C   0  0  0  0  0  0  0  0  0  0  0  0
  -27.3224  -22.3848   18.7278 C   0  0  0  0  0  0  0  0  0  0  0  0
  -22.4025   -8.0377   21.0316 C   0  0  0  0  0  0  0  0  0  0  0  0
  -25.7158  -26.8370   19.7346 C   0  0  0  0  0  0  0  0  0  0  0  0
  -21.0360   -6.4974   22.1640 C   0  0  0  0  0  0  0  0  0  0  0  0
  -19.8018   -5.6792   24.5283 C   0  0  0  0  0  0  0  0  0  0  0  0
  -21.3318   -5.2480   22.7090 C   0  0  0  0  0  0  0  0  0  0  0  0
  -24.7472  -11.5568   21.1597 C   0  0  0  0  0  0  0  0  0  0  0  0
  -26.3728  -23.3861   18.7311 C   0  0  0  0  0  0  0  0  0  0  0  0
  -26.8745  -21.1385   18.3401 C   0  0  0  0  0  0  0  0  0  0  0  0
  -25.4963  -13.5898   21.5348 C   0  0  0  0  0  0  0  0  0  0  0  0
  -23.2310  -13.1483   22.4950 C   0  0  0  0  0  0  0  0  0  0  0  0
  -24.9810  -31.1061   23.0055 C   0  0  0  0  0  0  0  0  0  0  0  0
  -22.7413  -32.1860   20.9223 C   0  0  0  0  0  0  0  0  0  0  0  0
  -20.9996  -31.6947   18.0289 C   0  0  0  0  0  0  0  0  0  0  0  0
  -29.2270  -15.5102   17.7571 C   0  0  0  0  0  0  0  0  0  0  0  0
  -27.8170  -33.0430   26.7821 C   0  0  0  0  0  0  0  0  0  0  0  0
  -26.2238  -30.9719   20.8161 C   0  0  0  0  0  0  0  0  0  0  0  0
  -23.5145  -29.8043   20.6136 C   0  0  0  0  0  0  0  0  0  0  0  0
  -26.4782  -33.3880   26.1349 C   0  0  0  0  0  0  0  0  0  0  0  0
  -30.0883  -12.5223   19.7072 C   0  0  0  0  0  0  0  0  0  0  0  0
  -25.6021  -32.1441   26.0253 C   0  0  0  0  0  0  0  0  0  0  0  0
  -28.7353  -12.0820   20.2679 C   0  0  0  0  0  0  0  0  0  0  0  0
  -26.8285  -17.9601   19.0846 C   0  0  0  0  0  0  0  0  0  0  0  0
  -29.9468  -13.2281   18.3606 C   0  0  0  0  0  0  0  0  0  0  0  0
  -27.0418  -16.5161   18.6426 C   0  0  0  0  0  0  0  0  0  0  0  0
  -27.6442  -13.9091   18.9149 C   0  0  0  0  0  0  0  0  0  0  0  0
  -28.6826  -17.9225   17.5964 C   0  0  0  0  0  0  0  0  0  0  0  0
  -26.2618  -31.0811   25.1386 C   0  0  1  0  0  0  0  0  0  0  0  0
  -25.0374  -31.5595   21.5741 C   0  0  1  0  0  0  0  0  0  0  0  0
  -27.7392  -13.2562   20.3008 C   0  0  1  0  0  0  0  0  0  0  0  0
  -27.4476  -18.7445   17.9329 C   0  0  2  0  0  0  0  0  0  0  0  0
  -29.0518  -22.1421   20.5269 C   0  0  0  0  0  0  0  0  0  0  0  0
  -19.2100  -32.7304   16.6068 C   0  0  0  0  0  0  0  0  0  0  0  0
  -20.6226  -31.2403   22.9040 C   0  0  0  0  0  0  0  0  0  0  0  0
  -18.9281  -31.4161   21.0694 C   0  0  0  0  0  0  0  0  0  0  0  0
  -20.1436  -33.4530   21.8415 C   0  0  0  0  0  0  0  0  0  0  0  0
  -22.8321  -31.9732   15.7216 C   0  0  0  0  0  0  0  0  0  0  0  0
  -28.7356  -22.6428   19.1189 C   0  0  0  0  0  0  0  0  0  0  0  0
  -26.7401  -24.7768   19.1326 C   0  0  0  0  0  0  0  0  0  1  0  0
  -21.3766  -31.7152   20.4808 C   0  0  1  0  0  0  0  0  0  0  0  0
  -20.7053  -32.6189   16.8611 C   0  0  2  0  0  0  0  0  0  0  0  0
  -20.2908  -31.9398   21.5708 C   0  0  0  0  0  0  0  0  0  0  0  0
  -25.0827  -23.1968   18.3844 N   0  0  0  0  0  0  0  0  0  0  0  0
  -25.6003  -20.8780   17.9813 N   0  0  0  0  0  0  0  0  0  0  0  0
  -25.9478  -11.5842   20.5749 N   0  0  0  0  0  0  0  0  0  0  0  0
  -26.3780  -12.8335   20.8201 N   0  0  0  0  0  0  0  0  0  0  0  0
  -23.7509  -31.2142   20.9658 N   0  0  0  0  0  0  0  0  0  0  0  0
  -28.9706  -14.3151   18.4381 N   0  0  0  0  0  0  0  0  0  0  0  0
  -28.3017  -16.5441   17.8952 N   0  0  0  0  0  0  0  0  0  0  0  0
  -25.7705  -14.8688   21.8686 N   0  0  0  0  0  0  0  0  0  0  0  0
  -22.2161  -12.1939   22.6476 N   0  0  0  0  0  0  0  0  0  0  0  0
  -27.7842  -20.0900   18.3168 N   0  0  0  0  0  0  0  0  0  0  0  0
  -26.1075  -31.4223   23.7406 N   0  0  0  0  0  0  0  0  0  0  0  0
  -21.1019  -32.3885   19.2160 N   0  0  0  0  0  0  0  0  0  0  0  0
  -21.3562  -32.1099   15.6208 N   0  3  0  0  0  0  0  0  0  0  0  0
  -23.0718  -14.2960   22.9756 O   0  0  0  0  0  0  0  0  0  0  0  0
  -23.9883  -30.5145   23.4132 O   0  0  0  0  0  0  0  0  0  0  0  0
  -22.9071  -33.3738   21.2109 O   0  0  0  0  0  0  0  0  0  0  0  0
  -21.1225  -30.4785   17.9013 O   0  0  0  0  0  0  0  0  0  0  0  0
  -30.2605  -15.6641   17.0929 O   0  0  0  0  0  0  0  0  0  0  0  0
  -21.6484   -6.9054   20.9909 O   0  0  0  0  0  0  0  0  0  0  0  0
  -25.5557  -25.5216   19.3849 O   0  0  0  0  0  0  0  0  0  1  0  0
  -19.2103   -5.2871   25.6643 F   0  0  0  0  0  0  0  0  0  0  0  0
  -22.2089   -4.4368   22.1019 F   0  0  0  0  0  0  0  0  0  0  0  0
  1  2  1  0  0  0  0
  1  5  2  0  0  0  0
  2  6  2  0  0  0  0
  3  8  2  0  0  0  0
  3 16  1  0  0  0  0
  4  9  1  0  0  0  0
  4 16  2  0  0  0  0
  5 18  1  0  0  0  0
  6 20  1  0  0  0  0
  7 10  2  0  0  0  0
  7 19  1  0  0  0  0
  8 23  1  0  0  0  0
  9 23  2  0  0  0  0
 10 24  1  0  0  0  0
 11 12  2  0  0  0  0
 11 25  1  0  0  0  0
 12 26  1  0  0  0  0
 13 21  1  0  0  0  0
 13 24  2  0  0  0  0
 14 26  2  0  0  0  0
 14 27  1  0  0  0  0
 15 64  2  0  0  0  0
 15 65  1  0  0  0  0
 16 28  1  0  0  0  0
 17 28  1  0  0  0  0
 17 31  2  0  0  0  0
 17 32  1  0  0  0  0
 18 20  2  0  0  0  0
 18 37  1  0  0  0  0
 19 21  2  0  0  0  0
 19 38  1  0  0  0  0
 20 49  1  0  0  0  0
 21 39  1  0  0  0  0
 22 29  2  0  0  0  0
 22 30  1  0  0  0  0
 22 59  1  0  0  0  0
 23 82  1  0  0  0  0
 24 83  1  0  0  0  0
 25 27  2  0  0  0  0
 25 82  1  0  0  0  0
 26 84  1  0  0  0  0
 27 85  1  0  0  0  0
 28 66  2  0  0  0  0
 29 60  1  0  0  0  0
 29 64  1  0  0  0  0
 30 65  2  0  0  0  0
 30 73  1  0  0  0  0
 31 67  1  0  0  0  0
 31 71  1  0  0  0  0
 32 72  1  0  0  0  0
 32 77  2  0  0  0  0
 33 50  1  0  0  0  0
 33 74  1  0  0  0  0
 33 78  2  0  0  0  0
 34 61  1  0  0  0  0
 34 68  1  0  0  0  0
 34 79  2  0  0  0  0
 35 62  1  0  0  0  0
 35 75  1  0  0  0  0
 35 80  2  0  0  0  0
 36 69  1  0  0  0  0
 36 70  1  0  0  0  0
 36 81  2  0  0  0  0
 37 40  1  0  0  0  0
 38 50  1  0  0  0  0
 39 68  1  0  0  0  0
 40 42  1  0  0  0  0
 41 43  1  0  0  0  0
 41 45  1  0  0  0  0
 42 49  1  0  0  0  0
 43 51  1  0  0  0  0
 44 46  1  0  0  0  0
 44 52  1  0  0  0  0
 45 69  1  0  0  0  0
 46 70  1  0  0  0  0
 47 51  1  0  0  0  0
 47 69  1  0  0  0  0
 48 52  1  0  0  0  0
 48 70  1  0  0  0  0
 49 74  1  0  0  0  0
 50 68  1  0  0  0  0
 51 67  1  0  0  0  0
 52 73  1  0  0  0  0
 53 59  1  0  0  0  0
 54 62  1  0  0  0  0
 55 63  1  0  0  0  0
 56 63  1  0  0  0  0
 57 63  1  0  0  0  0
 58 76  1  0  0  0  0
 60 83  1  0  0  0  0
 61 63  1  0  0  0  0
 61 75  1  0  0  0  0
 62 76  1  0  0  0  0
 66 67  1  0  0  0  0
M  CHG  1  76   1
M  ISO  4  36 100  60 101  70 100  83 101
M  END
> <Batch ID>
0190

> <Smiles>
CCc1c(NC2CC[100N:0]([100C:0](=O)N3CCCC(n4nc(-c5ccc(Oc6ccc(F)cc6F)cc5)c(C(N)=O)c4N)C3)C2)ncnc1[101CH2:1][101O:1]c1ccc2c(c1)CN(C(=O)C(NC(=O)C(C)NC)C(C)(C)C)C(C(=O)NC1CCCc3ccccc31)C2

> <Shape>
0.298

> <Color>
0.136

> <Negative vol penalty>
0.000

$$$$

  -OEChem-04052323243D

 83 92  0     1  0  0  0  0  0999 V2000
  -17.6994  -31.7558   20.4734 C   0  0  0  0  0  0  0  0  0  0  0  0
  -18.1736  -30.5550   19.9550 C   0  0  0  0  0  0  0  0  0  0  0  0
  -23.3385   -9.7871   19.8693 C   0  0  0  0  0  0  0  0  0  0  0  0
  -23.7572   -9.8962   22.2463 C   0  0  0  0  0  0  0  0  0  0  0  0
  -18.5157  -32.5282   21.2986 C   0  0  0  0  0  0  0  0  0  0  0  0
  -19.4648  -30.1265   20.2607 C   0  0  0  0  0  0  0  0  0  0  0  0
  -21.3369  -24.3486   21.0461 C   0  0  0  0  0  0  0  0  0  0  0  0
  -22.6395   -8.5933   20.0472 C   0  0  0  0  0  0  0  0  0  0  0  0
  -23.0582   -8.7023   22.4242 C   0  0  0  0  0  0  0  0  0  0  0  0
  -21.9804  -23.4477   20.1988 C   0  0  0  0  0  0  0  0  0  0  0  0
  -19.5679   -7.6363   21.0875 C   0  0  0  0  0  0  0  0  0  0  0  0
  -18.3503   -7.4928   20.4225 C   0  0  0  0  0  0  0  0  0  0  0  0
  -24.1043  -24.0739   21.1558 C   0  0  0  0  0  0  0  0  0  0  0  0
  -19.2149   -5.5616   19.2562 C   0  0  0  0  0  0  0  0  0  0  0  0
  -23.8974  -10.4386   20.9689 C   0  0  0  0  0  0  0  0  0  0  0  0
  -24.0951  -12.9775   20.8184 C   0  0  0  0  0  0  0  0  0  0  0  0
  -19.8142  -32.1042   21.6224 C   0  0  0  0  0  0  0  0  0  0  0  0
  -22.0746  -25.1281   21.9486 C   0  0  0  0  0  0  0  0  0  0  0  0
  -20.2998  -30.8946   21.0900 C   0  0  0  0  0  0  0  0  0  0  0  0
  -23.4676  -24.9821   22.0153 C   0  0  0  0  0  0  0  0  0  0  0  0
  -22.4993   -8.0508   21.3246 C   0  0  0  0  0  0  0  0  0  0  0  0
  -23.3646  -23.3123   20.2515 C   0  0  0  0  0  0  0  0  0  0  0  0
  -20.6091   -6.7426   20.8369 C   0  0  0  0  0  0  0  0  0  0  0  0
  -18.1738   -6.4554   19.5069 C   0  0  0  0  0  0  0  0  0  0  0  0
  -20.4326   -5.7052   19.9213 C   0  0  0  0  0  0  0  0  0  0  0  0
  -24.6200  -11.6716   20.7857 C   0  0  0  0  0  0  0  0  0  0  0  0
  -25.1795  -13.7892   20.5910 C   0  0  0  0  0  0  0  0  0  0  0  0
  -22.7478  -13.4174   21.0351 C   0  0  0  0  0  0  0  0  0  0  0  0
  -22.5401  -28.2453   22.3609 C   0  0  0  0  0  0  0  0  0  0  0  0
  -24.1240  -27.2619   25.0154 C   0  0  0  0  0  0  0  0  0  0  0  0
  -25.8152  -24.7723   26.6243 C   0  0  0  0  0  0  0  0  0  0  0  0
  -29.8129  -15.0924   17.9922 C   0  0  0  0  0  0  0  0  0  0  0  0
  -20.6764  -32.9961   22.4801 C   0  0  0  0  0  0  0  0  0  0  0  0
  -21.3628  -26.0760   22.8746 C   0  0  0  0  0  0  0  0  0  0  0  0
  -24.3033  -25.7809   22.9807 C   0  0  0  0  0  0  0  0  0  0  0  0
  -21.8986  -32.2880   23.0590 C   0  0  0  0  0  0  0  0  0  0  0  0
  -30.1234  -12.7540   20.5132 C   0  0  0  0  0  0  0  0  0  0  0  0
  -22.6058  -31.4752   21.9792 C   0  0  0  0  0  0  0  0  0  0  0  0
  -28.6786  -12.3632   20.8244 C   0  0  0  0  0  0  0  0  0  0  0  0
  -24.8113  -18.4341   15.2737 C   0  0  0  0  0  0  0  0  0  0  0  0
  -24.4645  -19.9090   15.5838 C   0  0  0  0  0  0  0  0  0  0  0  0
  -30.3388  -12.8974   19.0108 C   0  0  0  0  0  0  0  0  0  0  0  0
  -29.0048  -17.3903   17.5928 C   0  0  0  0  0  0  0  0  0  0  0  0
  -27.9311  -15.5443   16.3701 C   0  0  0  0  0  0  0  0  0  0  0  0
  -27.6506  -18.0960   17.6665 C   0  0  0  0  0  0  0  0  0  0  0  0
  -26.5927  -16.2729   16.4739 C   0  0  0  0  0  0  0  0  0  0  0  0
  -27.9644  -13.4936   18.6609 C   0  0  0  0  0  0  0  0  0  0  0  0
  -21.6858  -30.3839   21.4187 C   0  0  1  0  0  0  0  0  0  0  0  0
  -22.2636  -27.1915   23.3957 C   0  0  1  0  0  0  0  0  0  0  0  0
  -27.6878  -13.3427   20.1704 C   0  0  1  0  0  0  0  0  0  0  0  0
  -25.5084  -18.3938   16.6528 C   0  0  2  0  0  0  0  0  0  0  0  0
  -25.6998  -19.9232   16.5176 C   0  0  2  0  0  0  0  0  0  0  0  0
  -27.0239  -24.2779   28.7672 C   0  0  0  0  0  0  0  0  0  0  0  0
  -26.5136  -28.8894   24.0402 C   0  0  0  0  0  0  0  0  0  0  0  0
  -27.9463  -27.6251   25.6580 C   0  0  0  0  0  0  0  0  0  0  0  0
  -26.0768  -29.0473   26.4976 C   0  0  0  0  0  0  0  0  0  0  0  0
  -23.9318  -22.5980   27.3203 C   0  0  0  0  0  0  0  0  0  0  0  0
  -25.6244  -22.1346   17.6767 C   0  0  0  0  0  0  0  0  0  0  0  0
  -25.3259  -22.7565   19.0266 C   0  0  0  0  0  0  0  0  0  1  0  0
  -25.5482  -26.8698   25.3268 C   0  0  1  0  0  0  0  0  0  0  0  0
  -25.6936  -24.2190   28.0327 C   0  0  2  0  0  0  0  0  0  0  0  0
  -26.5059  -28.0941   25.3610 C   0  0  0  0  0  0  0  0  0  0  0  0
  -25.9355  -11.6503   20.5555 N   0  0  0  0  0  0  0  0  0  0  0  0
  -26.2464  -12.9528   20.4414 N   0  0  0  0  0  0  0  0  0  0  0  0
  -23.5617  -26.6990   23.8609 N   0  0  0  0  0  0  0  0  0  0  0  0
  -29.3766  -13.8324   18.4282 N   0  0  0  0  0  0  0  0  0  0  0  0
  -28.8407  -15.9460   17.4493 N   0  0  0  0  0  0  0  0  0  0  0  0
  -26.7990  -17.7269   16.5279 N   0  0  0  0  0  0  0  0  0  0  0  0
  -25.3150  -15.1297   20.5064 N   0  0  0  0  0  0  0  0  0  0  0  0
  -21.7564  -12.4512   21.2533 N   0  0  0  0  0  0  0  0  0  0  0  0
  -21.6098  -29.2668   22.3357 N   0  0  0  0  0  0  0  0  0  0  0  0
  -25.5001  -26.1137   26.5735 N   0  0  0  0  0  0  0  0  0  0  0  0
  -25.4663  -20.6511   17.7711 N   0  3  0  0  0  0  0  0  0  0  0  0
  -25.2403  -22.7999   27.9943 N   0  3  0  0  0  0  0  0  0  0  0  0
  -22.4297  -14.6307   21.0189 O   0  0  0  0  0  0  0  0  0  0  0  0
  -23.5253  -28.1403   21.6398 O   0  0  0  0  0  0  0  0  0  0  0  0
  -23.5298  -28.0333   25.7726 O   0  0  0  0  0  0  0  0  0  0  0  0
  -26.1592  -24.0842   25.6657 O   0  0  0  0  0  0  0  0  0  0  0  0
  -30.9970  -15.4386   18.0868 O   0  0  0  0  0  0  0  0  0  0  0  0
  -21.8172   -6.8860   21.4986 O   0  0  0  0  0  0  0  0  0  0  0  0
  -23.9998  -22.4279   19.4191 O   0  0  0  0  0  0  0  0  0  1  0  0
  -17.0039   -6.3167   18.8694 F   0  0  0  0  0  0  0  0  0  0  0  0
  -21.4288   -4.8428   19.6772 F   0  0  0  0  0  0  0  0  0  0  0  0
  1  2  1  0  0  0  0
  1  5  2  0  0  0  0
  2  6  2  0  0  0  0
  3  8  2  0  0  0  0
  3 15  1  0  0  0  0
  4  9  1  0  0  0  0
  4 15  2  0  0  0  0
  5 17  1  0  0  0  0
  6 19  1  0  0  0  0
  7 10  2  0  0  0  0
  7 18  1  0  0  0  0
  8 21  1  0  0  0  0
  9 21  2  0  0  0  0
 10 22  1  0  0  0  0
 11 12  2  0  0  0  0
 11 23  1  0  0  0  0
 12 24  1  0  0  0  0
 13 20  1  0  0  0  0
 13 22  2  0  0  0  0
 14 24  2  0  0  0  0
 14 25  1  0  0  0  0
 15 26  1  0  0  0  0
 16 26  1  0  0  0  0
 16 27  2  0  0  0  0
 16 28  1  0  0  0  0
 17 19  2  0  0  0  0
 17 33  1  0  0  0  0
 18 20  2  0  0  0  0
 18 34  1  0  0  0  0
 19 48  1  0  0  0  0
 20 35  1  0  0  0  0
 21 80  1  0  0  0  0
 22 81  1  0  0  0  0
 23 25  2  0  0  0  0
 23 80  1  0  0  0  0
 24 82  1  0  0  0  0
 25 83  1  0  0  0  0
 26 63  2  0  0  0  0
 27 64  1  0  0  0  0
 27 69  1  0  0  0  0
 28 70  1  0  0  0  0
 28 75  2  0  0  0  0
 29 49  1  0  0  0  0
 29 71  1  0  0  0  0
 29 76  2  0  0  0  0
 30 60  1  0  0  0  0
 30 65  1  0  0  0  0
 30 77  2  0  0  0  0
 31 61  1  0  0  0  0
 31 72  1  0  0  0  0
 31 78  2  0  0  0  0
 32 66  1  0  0  0  0
 32 67  1  0  0  0  0
 32 79  2  0  0  0  0
 33 36  1  0  0  0  0
 34 49  1  0  0  0  0
 35 65  1  0  0  0  0
 36 38  1  0  0  0  0
 37 39  1  0  0  0  0
 37 42  1  0  0  0  0
 38 48  1  0  0  0  0
 39 50  1  0  0  0  0
 40 41  1  0  0  0  0
 40 51  1  0  0  0  0
 41 52  1  0  0  0  0
 42 66  1  0  0  0  0
 43 45  1  0  0  0  0
 43 67  1  0  0  0  0
 44 46  1  0  0  0  0
 44 67  1  0  0  0  0
 45 68  1  0  0  0  0
 46 68  1  0  0  0  0
 47 50  1  0  0  0  0
 47 66  1  0  0  0  0
 48 71  1  0  0  0  0
 49 65  1  0  0  0  0
 50 64  1  0  0  0  0
 51 52  1  0  0  0  0
 51 68  1  0  0  0  0
 52 73  1  0  0  0  0
 53 61  1  0  0  0  0
 54 62  1  0  0  0  0
 55 62  1  0  0  0  0
 56 62  1  0  0  0  0
 57 74  1  0  0  0  0
 58 59  1  0  0  0  0
 58 73  1  0  0  0  0
 59 81  1  0  0  0  0
 60 62  1  0  0  0  0
 60 72  1  0  0  0  0
 61 74  1  0  0  0  0
 63 64  1  0  0  0  0
M  CHG  2  73   1  74   1
M  ISO  4  32 100  59 101  67 100  81 101
M  END
> <Batch ID>
0190

> <Smiles>
CNC(C)C(=O)NC(C(=O)N1Cc2cc([101O:1][101CH2:1]CNC3CCC3N3CC[100N:0]([100C:0](=O)N4CCCC(n5nc(-c6ccc(Oc7ccc(F)cc7F)cc6)c(C(N)=O)c5N)C4)CC3)ccc2CC1C(=O)NC1CCCc2ccccc21)C(C)(C)C

> <Shape>
0.165

> <Color>
0.191

> <Negative vol penalty>
0.000

$$$$

  -OEChem-04052323243D

 84 93  0     1  0  0  0  0  0999 V2000
  -32.2270  -37.9179   21.3447 C   0  0  0  0  0  0  0  0  0  0  0  0
  -32.1601  -36.8826   20.4178 C   0  0  0  0  0  0  0  0  0  0  0  0
  -24.4304   -9.0679   22.2449 C   0  0  0  0  0  0  0  0  0  0  0  0
  -23.9003   -9.1152   19.8882 C   0  0  0  0  0  0  0  0  0  0  0  0
  -31.8677  -37.6879   22.6721 C   0  0  0  0  0  0  0  0  0  0  0  0
  -31.7348  -35.6163   20.8180 C   0  0  0  0  0  0  0  0  0  0  0  0
  -28.1766  -29.8946   18.3855 C   0  0  0  0  0  0  0  0  0  0  0  0
  -23.3235   -8.2516   22.4775 C   0  0  0  0  0  0  0  0  0  0  0  0
  -22.7934   -8.2989   20.1208 C   0  0  0  0  0  0  0  0  0  0  0  0
  -28.3132  -28.5123   18.2652 C   0  0  0  0  0  0  0  0  0  0  0  0
  -22.5213   -4.9850   22.1330 C   0  0  0  0  0  0  0  0  0  0  0  0
  -22.6947   -3.8793   22.9655 C   0  0  0  0  0  0  0  0  0  0  0  0
  -27.6420  -28.2517   20.5676 C   0  0  0  0  0  0  0  0  0  0  0  0
  -21.0189   -4.7508   24.4720 C   0  0  0  0  0  0  0  0  0  0  0  0
  -24.7187   -9.4998   20.9503 C   0  0  0  0  0  0  0  0  0  0  0  0
  -27.1732   -9.9320   20.4059 C   0  0  0  0  0  0  0  0  0  0  0  0
  -31.4287  -36.4206   23.0867 C   0  0  0  0  0  0  0  0  0  0  0  0
  -27.7815  -30.4675   19.6029 C   0  0  0  0  0  0  0  0  0  0  0  0
  -31.3706  -35.3688   22.1525 C   0  0  0  0  0  0  0  0  0  0  0  0
  -27.4986  -29.6413   20.7000 C   0  0  0  0  0  0  0  0  0  0  0  0
  -22.5051   -7.8670   21.4154 C   0  0  0  0  0  0  0  0  0  0  0  0
  -28.0487  -27.6909   19.3572 C   0  0  0  0  0  0  0  0  0  0  0  0
  -21.5967   -5.9736   22.4700 C   0  0  0  0  0  0  0  0  0  0  0  0
  -21.9436   -3.7622   24.1350 C   0  0  0  0  0  0  0  0  0  0  0  0
  -20.8455   -5.8565   23.6394 C   0  0  0  0  0  0  0  0  0  0  0  0
  -25.8616  -10.3435   20.7094 C   0  0  0  0  0  0  0  0  0  0  0  0
  -29.6528  -23.6700   18.6527 C   0  0  0  0  0  0  0  0  0  0  0  0
  -28.6457  -24.3484   18.0156 C   0  0  0  0  0  0  0  0  0  0  0  0
  -27.8778  -11.1032   20.2701 C   0  0  0  0  0  0  0  0  0  0  0  0
  -28.6771  -21.7234   18.0538 C   0  0  0  0  0  0  0  0  0  0  0  0
  -27.7069   -8.6093   20.2598 C   0  0  0  0  0  0  0  0  0  0  0  0
  -29.1098  -32.4868   21.6674 C   0  0  0  0  0  0  0  0  0  0  0  0
  -26.2034  -32.3240   23.0987 C   0  0  0  0  0  0  0  0  0  0  0  0
  -23.3206  -30.5709   23.6116 C   0  0  0  0  0  0  0  0  0  0  0  0
  -28.5149  -16.1149   18.4478 C   0  0  0  0  0  0  0  0  0  0  0  0
  -31.0960  -36.2080   24.5423 C   0  0  0  0  0  0  0  0  0  0  0  0
  -27.6130  -31.9584   19.7087 C   0  0  0  0  0  0  0  0  0  0  0  0
  -27.0518  -30.2054   22.0231 C   0  0  0  0  0  0  0  0  0  0  0  0
  -30.2985  -34.9331   24.8049 C   0  0  0  0  0  0  0  0  0  0  0  0
  -26.6199  -15.8641   21.3949 C   0  0  0  0  0  0  0  0  0  0  0  0
  -30.9150  -33.7545   24.0582 C   0  0  0  0  0  0  0  0  0  0  0  0
  -26.3541  -14.3603   21.4581 C   0  0  0  0  0  0  0  0  0  0  0  0
  -26.5095  -16.4061   19.9689 C   0  0  0  0  0  0  0  0  0  0  0  0
  -29.7481  -19.5999   18.7407 C   0  0  0  0  0  0  0  0  0  0  0  0
  -27.3662  -19.6474   17.9853 C   0  0  0  0  0  0  0  0  0  0  0  0
  -29.8638  -18.1678   18.2254 C   0  0  0  0  0  0  0  0  0  0  0  0
  -27.5278  -18.2206   17.4725 C   0  0  0  0  0  0  0  0  0  0  0  0
  -27.0852  -14.1833   19.0495 C   0  0  0  0  0  0  0  0  0  0  0  0
  -30.8906  -33.9878   22.5428 C   0  0  1  0  0  0  0  0  0  0  0  0
  -27.7017  -32.4695   21.1434 C   0  0  1  0  0  0  0  0  0  0  0  0
  -27.2465  -13.5993   20.4616 C   0  0  2  0  0  0  0  0  0  0  0  0
  -30.7600  -24.3903   19.3427 C   0  0  0  0  0  0  0  0  0  0  0  0
  -21.1469  -30.6761   24.8611 C   0  0  0  0  0  0  0  0  0  0  0  0
  -27.6551  -31.5932   25.6810 C   0  0  0  0  0  0  0  0  0  0  0  0
  -25.4678  -30.7976   26.6035 C   0  0  0  0  0  0  0  0  0  0  0  0
  -25.7547  -33.1931   25.9696 C   0  0  0  0  0  0  0  0  0  0  0  0
  -21.7449  -30.5195   21.1069 C   0  0  0  0  0  0  0  0  0  0  0  0
  -28.5964  -25.8353   17.9741 C   0  0  0  0  0  0  0  0  0  1  0  0
  -25.5790  -31.4428   24.1536 C   0  0  1  0  0  0  0  0  0  0  0  0
  -21.8629  -30.9910   23.5569 C   0  0  2  0  0  0  0  0  0  0  0  0
  -26.1244  -31.7459   25.5777 C   0  0  0  0  0  0  0  0  0  0  0  0
  -25.7376  -11.6723   20.7635 N   0  0  0  0  0  0  0  0  0  0  0  0
  -29.6926  -22.3294   18.6870 N   0  0  0  0  0  0  0  0  0  0  0  0
  -27.6520  -23.6855   17.3966 N   0  0  0  0  0  0  0  0  0  0  0  0
  -27.6625  -22.3363   17.4129 N   0  0  0  0  0  0  0  0  0  0  0  0
  -26.9804  -12.1059   20.4922 N   0  0  0  0  0  0  0  0  0  0  0  0
  -28.6692  -20.3227   18.0586 N   0  0  0  0  0  0  0  0  0  0  0  0
  -26.9079  -31.6695   22.0784 N   0  0  0  0  0  0  0  0  0  0  0  0
  -27.3459  -15.6243   19.0485 N   0  0  0  0  0  0  0  0  0  0  0  0
  -28.5703  -17.4958   18.2020 N   0  0  0  0  0  0  0  0  0  0  0  0
  -29.1712  -11.3627   19.9837 N   0  0  0  0  0  0  0  0  0  0  0  0
  -26.8447   -7.5180   20.4326 N   0  0  0  0  0  0  0  0  0  0  0  0
  -29.5652  -33.7442   22.0152 N   0  0  0  0  0  0  0  0  0  0  0  0
  -24.1354  -31.6057   24.0194 N   0  0  0  0  0  0  0  0  0  0  0  0
  -21.1601  -30.2804   22.4515 N   0  3  0  0  0  0  0  0  0  0  0  0
  -28.9164   -8.4011   20.0003 O   0  0  0  0  0  0  0  0  0  0  0  0
  -29.7361  -31.4369   21.7514 O   0  0  0  0  0  0  0  0  0  0  0  0
  -26.0648  -33.5475   23.1733 O   0  0  0  0  0  0  0  0  0  0  0  0
  -23.6982  -29.4369   23.3251 O   0  0  0  0  0  0  0  0  0  0  0  0
  -29.4548  -15.3668   18.1511 O   0  0  0  0  0  0  0  0  0  0  0  0
  -21.4251   -7.0702   21.6420 O   0  0  0  0  0  0  0  0  0  0  0  0
  -28.1827  -26.3326   19.2419 O   0  0  0  0  0  0  0  0  0  1  0  0
  -22.1091   -2.6997   24.9335 F   0  0  0  0  0  0  0  0  0  0  0  0
  -19.9549   -6.8024   23.9678 F   0  0  0  0  0  0  0  0  0  0  0  0
  1  2  1  0  0  0  0
  1  5  2  0  0  0  0
  2  6  2  0  0  0  0
  3  8  2  0  0  0  0
  3 15  1  0  0  0  0
  4  9  1  0  0  0  0
  4 15  2  0  0  0  0
  5 17  1  0  0  0  0
  6 19  1  0  0  0  0
  7 10  2  0  0  0  0
  7 18  1  0  0  0  0
  8 21  1  0  0  0  0
  9 21  2  0  0  0  0
 10 22  1  0  0  0  0
 11 12  2  0  0  0  0
 11 23  1  0  0  0  0
 12 24  1  0  0  0  0
 13 20  1  0  0  0  0
 13 22  2  0  0  0  0
 14 24  2  0  0  0  0
 14 25  1  0  0  0  0
 15 26  1  0  0  0  0
 16 26  1  0  0  0  0
 16 29  2  0  0  0  0
 16 31  1  0  0  0  0
 17 19  2  0  0  0  0
 17 36  1  0  0  0  0
 18 20  2  0  0  0  0
 18 37  1  0  0  0  0
 19 49  1  0  0  0  0
 20 38  1  0  0  0  0
 21 81  1  0  0  0  0
 22 82  1  0  0  0  0
 23 25  2  0  0  0  0
 23 81  1  0  0  0  0
 24 83  1  0  0  0  0
 25 84  1  0  0  0  0
 26 62  2  0  0  0  0
 27 28  2  0  0  0  0
 27 52  1  0  0  0  0
 27 63  1  0  0  0  0
 28 58  1  0  0  0  0
 28 64  1  0  0  0  0
 29 66  1  0  0  0  0
 29 71  1  0  0  0  0
 30 63  2  0  0  0  0
 30 65  1  0  0  0  0
 30 67  1  0  0  0  0
 31 72  1  0  0  0  0
 31 76  2  0  0  0  0
 32 50  1  0  0  0  0
 32 73  1  0  0  0  0
 32 77  2  0  0  0  0
 33 59  1  0  0  0  0
 33 68  1  0  0  0  0
 33 78  2  0  0  0  0
 34 60  1  0  0  0  0
 34 74  1  0  0  0  0
 34 79  2  0  0  0  0
 35 69  1  0  0  0  0
 35 70  1  0  0  0  0
 35 80  2  0  0  0  0
 36 39  1  0  0  0  0
 37 50  1  0  0  0  0
 38 68  1  0  0  0  0
 39 41  1  0  0  0  0
 40 42  1  0  0  0  0
 40 43  1  0  0  0  0
 41 49  1  0  0  0  0
 42 51  1  0  0  0  0
 43 69  1  0  0  0  0
 44 46  1  0  0  0  0
 44 67  1  0  0  0  0
 45 47  1  0  0  0  0
 45 67  1  0  0  0  0
 46 70  1  0  0  0  0
 47 70  1  0  0  0  0
 48 51  1  0  0  0  0
 48 69  1  0  0  0  0
 49 73  1  0  0  0  0
 50 68  1  0  0  0  0
 51 66  1  0  0  0  0
 53 60  1  0  0  0  0
 54 61  1  0  0  0  0
 55 61  1  0  0  0  0
 56 61  1  0  0  0  0
 57 75  1  0  0  0  0
 58 82  1  0  0  0  0
 59 61  1  0  0  0  0
 59 74  1  0  0  0  0
 60 75  1  0  0  0  0
 62 66  1  0  0  0  0
 64 65  2  0  0  0  0
M  CHG  1  75   1
M  ISO  4  35 100  58 101  70 100  82 101
M  END
> <Batch ID>
0190

> <Smiles>
CNC(C)C(=O)NC(C(=O)N1Cc2cc([101O:1][101CH2:1]c3nnc(N4CC[100N:0]([100C:0](=O)N5CCCC(n6nc(-c7ccc(Oc8ccc(F)cc8F)cc7)c(C(N)=O)c6N)C5)CC4)nc3C)ccc2CC1C(=O)NC1CCCc2ccccc21)C(C)(C)C

> <Shape>
0.265

> <Color>
0.111

> <Negative vol penalty>
0.000

$$$$

  -OEChem-04052323243D

 83 92  0     1  0  0  0  0  0999 V2000
  -18.1787  -25.4034   23.0531 C   0  0  0  0  0  0  0  0  0  0  0  0
  -19.4586  -25.1883   22.5523 C   0  0  0  0  0  0  0  0  0  0  0  0
  -27.4521  -15.5133   17.3679 C   0  0  0  0  0  0  0  0  0  0  0  0
  -28.9805  -16.4671   18.9776 C   0  0  0  0  0  0  0  0  0  0  0  0
  -17.6420  -26.6902   23.0624 C   0  0  0  0  0  0  0  0  0  0  0  0
  -20.2024  -26.2599   22.0593 C   0  0  0  0  0  0  0  0  0  0  0  0
  -26.2691  -27.0102   22.4296 C   0  0  0  0  0  0  0  0  0  0  0  0
  -27.2418  -14.4238   18.2130 C   0  0  0  0  0  0  0  0  0  0  0  0
  -28.7702  -15.3776   19.8229 C   0  0  0  0  0  0  0  0  0  0  0  0
  -27.3009  -26.7711   21.5230 C   0  0  0  0  0  0  0  0  0  0  0  0
  -26.0256  -11.5679   20.1051 C   0  0  0  0  0  0  0  0  0  0  0  0
  -24.7123  -11.1381   20.2945 C   0  0  0  0  0  0  0  0  0  0  0  0
  -27.2384  -29.0868   20.8502 C   0  0  0  0  0  0  0  0  0  0  0  0
  -24.1305  -13.3079   21.1837 C   0  0  0  0  0  0  0  0  0  0  0  0
  -28.3216  -16.5349   17.7501 C   0  0  0  0  0  0  0  0  0  0  0  0
  -27.8159  -18.8674   16.8494 C   0  0  0  0  0  0  0  0  0  0  0  0
  -18.3833  -27.7796   22.5782 C   0  0  0  0  0  0  0  0  0  0  0  0
  -25.7059  -28.2892   22.5458 C   0  0  0  0  0  0  0  0  0  0  0  0
  -19.6746  -27.5623   22.0609 C   0  0  0  0  0  0  0  0  0  0  0  0
  -26.2013  -29.3402   21.7609 C   0  0  0  0  0  0  0  0  0  0  0  0
  -27.9008  -14.3559   19.4406 C   0  0  0  0  0  0  0  0  0  0  0  0
  -27.7837  -27.8087   20.7310 C   0  0  0  0  0  0  0  0  0  0  0  0
  -26.3915  -12.8677   20.4551 C   0  0  0  0  0  0  0  0  0  0  0  0
  -23.7646  -12.0081   20.8338 C   0  0  0  0  0  0  0  0  0  0  0  0
  -25.4439  -13.7376   20.9943 C   0  0  0  0  0  0  0  0  0  0  0  0
  -28.5397  -17.6603   16.8772 C   0  0  0  0  0  0  0  0  0  0  0  0
  -28.4100  -19.6012   15.8519 C   0  0  0  0  0  0  0  0  0  0  0  0
  -26.7058  -19.2879   17.6536 C   0  0  0  0  0  0  0  0  0  0  0  0
  -22.8108  -29.5160   22.0798 C   0  0  0  0  0  0  0  0  0  0  0  0
  -24.1741  -32.1924   23.3047 C   0  0  0  0  0  0  0  0  0  0  0  0
  -27.0176  -33.9842   23.8975 C   0  0  0  0  0  0  0  0  0  0  0  0
  -33.8292  -20.4148   13.7623 C   0  0  0  0  0  0  0  0  0  0  0  0
  -17.7428  -29.1450   22.5652 C   0  0  0  0  0  0  0  0  0  0  0  0
  -24.6116  -28.5369   23.5476 C   0  0  0  0  0  0  0  0  0  0  0  0
  -25.6446  -30.7360   21.8619 C   0  0  0  0  0  0  0  0  0  0  0  0
  -18.7404  -30.2838   22.3699 C   0  0  0  0  0  0  0  0  0  0  0  0
  -31.2571  -18.5393   11.9497 C   0  0  0  0  0  0  0  0  0  0  0  0
  -19.7023  -29.9614   21.2307 C   0  0  0  0  0  0  0  0  0  0  0  0
  -30.2477  -18.1986   13.0475 C   0  0  0  0  0  0  0  0  0  0  0  0
  -30.9072  -22.8003   17.4885 C   0  0  0  0  0  0  0  0  0  0  0  0
  -32.6819  -18.6354   12.4913 C   0  0  0  0  0  0  0  0  0  0  0  0
  -30.0612  -23.9015   18.1292 C   0  0  0  0  0  0  0  0  0  0  0  0
  -31.8335  -19.1933   14.7358 C   0  0  0  0  0  0  0  0  0  0  0  0
  -32.1031  -24.8832   17.5539 C   0  0  0  0  0  0  0  0  0  0  0  0
  -34.8976  -22.2734   14.9990 C   0  0  0  0  0  0  0  0  0  0  0  0
  -32.7011  -21.6395   15.6923 C   0  0  0  0  0  0  0  0  0  0  0  0
  -20.5220  -28.7030   21.5403 C   0  0  1  0  0  0  0  0  0  0  0  0
  -23.7635  -29.7608   23.2157 C   0  0  1  0  0  0  0  0  0  0  0  0
  -30.3803  -19.1606   14.2432 C   0  0  2  0  0  0  0  0  0  0  0  0
  -32.3104  -23.3869   17.4311 C   0  0  2  0  0  0  0  0  0  0  0  0
  -34.5005  -23.1320   16.1921 C   0  0  1  0  0  0  0  0  0  0  0  0
  -34.9562  -24.5745   16.0731 C   0  0  0  0  0  0  0  0  0  0  0  0
  -27.8107  -36.1520   24.8818 C   0  0  0  0  0  0  0  0  0  0  0  0
  -23.2037  -33.6731   20.8196 C   0  0  0  0  0  0  0  0  0  0  0  0
  -24.7965  -35.5206   21.3836 C   0  0  0  0  0  0  0  0  0  0  0  0
  -22.9489  -34.9450   22.9577 C   0  0  0  0  0  0  0  0  0  0  0  0
  -28.6444  -32.5944   25.9423 C   0  0  0  0  0  0  0  0  0  0  0  0
  -30.4295  -26.2412   18.6751 C   0  0  0  0  0  0  0  0  0  0  0  0
  -29.3429  -26.2584   19.7392 C   0  0  0  0  0  0  0  0  0  1  0  0
  -24.9164  -33.3739   22.7283 C   0  0  1  0  0  0  0  0  0  0  0  0
  -27.5269  -34.6815   25.1460 C   0  0  2  0  0  0  0  0  0  0  0  0
  -23.9757  -34.3515   21.9688 C   0  0  0  0  0  0  0  0  0  0  0  0
  -29.5187  -17.6251   15.9693 N   0  0  0  0  0  0  0  0  0  0  0  0
  -29.4142  -18.8192   15.3616 N   0  0  0  0  0  0  0  0  0  0  0  0
  -24.5715  -30.9265   22.8516 N   0  0  0  0  0  0  0  0  0  0  0  0
  -32.7443  -19.5399   13.6396 N   0  0  0  0  0  0  0  0  0  0  0  0
  -33.8275  -21.2991   14.8410 N   0  0  0  0  0  0  0  0  0  0  0  0
  -31.0283  -24.9212   18.5486 N   0  0  1  0  0  0  0  0  0  0  0  0
  -28.1661  -20.8324   15.3549 N   0  0  0  0  0  0  0  0  0  0  0  0
  -26.2202  -18.4110   18.6331 N   0  0  0  0  0  0  0  0  0  0  0  0
  -21.5864  -29.0095   22.4717 N   0  0  0  0  0  0  0  0  0  0  0  0
  -25.6399  -33.9828   23.8392 N   0  0  0  0  0  0  0  0  0  0  0  0
  -32.9866  -23.0415   16.1676 N   0  3  1  0  0  0  0  0  0  0  0  0
  -28.7841  -34.0384   25.6222 N   0  3  0  0  0  0  0  0  0  0  0  0
  -26.1502  -20.4016   17.4967 O   0  0  0  0  0  0  0  0  0  0  0  0
  -23.1602  -29.7694   20.9329 O   0  0  0  0  0  0  0  0  0  0  0  0
  -23.2797  -32.3853   24.1321 O   0  0  0  0  0  0  0  0  0  0  0  0
  -27.7670  -33.4932   23.0561 O   0  0  0  0  0  0  0  0  0  0  0  0
  -34.7359  -20.4384   12.9195 O   0  0  0  0  0  0  0  0  0  0  0  0
  -27.6956  -13.2931   20.2657 O   0  0  0  0  0  0  0  0  0  0  0  0
  -28.8102  -27.5733   19.8273 O   0  0  0  0  0  0  0  0  0  1  0  0
  -22.5031  -11.5957   21.0142 F   0  0  0  0  0  0  0  0  0  0  0  0
  -25.7891  -14.9879   21.3314 F   0  0  0  0  0  0  0  0  0  0  0  0
  1  2  1  0  0  0  0
  1  5  2  0  0  0  0
  2  6  2  0  0  0  0
  3  8  2  0  0  0  0
  3 15  1  0  0  0  0
  4  9  1  0  0  0  0
  4 15  2  0  0  0  0
  5 17  1  0  0  0  0
  6 19  1  0  0  0  0
  7 10  2  0  0  0  0
  7 18  1  0  0  0  0
  8 21  1  0  0  0  0
  9 21  2  0  0  0  0
 10 22  1  0  0  0  0
 11 12  2  0  0  0  0
 11 23  1  0  0  0  0
 12 24  1  0  0  0  0
 13 20  1  0  0  0  0
 13 22  2  0  0  0  0
 14 24  2  0  0  0  0
 14 25  1  0  0  0  0
 15 26  1  0  0  0  0
 16 26  1  0  0  0  0
 16 27  2  0  0  0  0
 16 28  1  0  0  0  0
 17 19  2  0  0  0  0
 17 33  1  0  0  0  0
 18 20  2  0  0  0  0
 18 34  1  0  0  0  0
 19 47  1  0  0  0  0
 20 35  1  0  0  0  0
 21 80  1  0  0  0  0
 22 81  1  0  0  0  0
 23 25  2  0  0  0  0
 23 80  1  0  0  0  0
 24 82  1  0  0  0  0
 25 83  1  0  0  0  0
 26 63  2  0  0  0  0
 27 64  1  0  0  0  0
 27 69  1  0  0  0  0
 28 70  1  0  0  0  0
 28 75  2  0  0  0  0
 29 48  1  0  0  0  0
 29 71  1  0  0  0  0
 29 76  2  0  0  0  0
 30 60  1  0  0  0  0
 30 65  1  0  0  0  0
 30 77  2  0  0  0  0
 31 61  1  0  0  0  0
 31 72  1  0  0  0  0
 31 78  2  0  0  0  0
 32 66  1  0  0  0  0
 32 67  1  0  0  0  0
 32 79  2  0  0  0  0
 33 36  1  0  0  0  0
 34 48  1  0  0  0  0
 35 65  1  0  0  0  0
 36 38  1  0  0  0  0
 37 39  1  0  0  0  0
 37 41  1  0  0  0  0
 38 47  1  0  0  0  0
 39 49  1  0  0  0  0
 40 42  1  0  0  0  0
 40 50  1  0  0  0  0
 41 66  1  0  0  0  0
 42 68  1  0  0  0  0
 43 49  1  0  0  0  0
 43 66  1  0  0  0  0
 44 50  1  0  0  0  0
 44 68  1  0  0  0  0
 45 51  1  0  0  0  0
 45 67  1  0  0  0  0
 46 67  1  0  0  0  0
 46 73  1  0  0  0  0
 47 71  1  0  0  0  0
 48 65  1  0  0  0  0
 49 64  1  0  0  0  0
 50 73  1  0  0  0  0
 51 52  1  0  0  0  0
 51 73  1  0  0  0  0
 53 61  1  0  0  0  0
 54 62  1  0  0  0  0
 55 62  1  0  0  0  0
 56 62  1  0  0  0  0
 57 74  1  0  0  0  0
 58 59  1  0  0  0  0
 58 68  1  0  0  0  0
 59 81  1  0  0  0  0
 60 62  1  0  0  0  0
 60 72  1  0  0  0  0
 61 74  1  0  0  0  0
 63 64  1  0  0  0  0
M  CHG  2  73   1  74   1
M  ISO  4  32 100  59 101  67 100  81 101
M  END
> <Batch ID>
0190

> <Smiles>
CNC(C)C(=O)NC(C(=O)N1Cc2cc([101O:1][101CH2:1]CN3CCC(N4C[100N:0]([100C:0](=O)N5CCCC(n6nc(-c7ccc(Oc8ccc(F)cc8F)cc7)c(C(N)=O)c6N)C5)CC4C)C3)ccc2CC1C(=O)NC1CCCc2ccccc21)C(C)(C)C

> <Shape>
0.253

> <Color>
0.082

> <Negative vol penalty>
0.000

$$$$

  -OEChem-04052323243D

 82 91  0     1  0  0  0  0  0999 V2000
  -28.3902  -33.6106   22.0824 C   0  0  0  0  0  0  0  0  0  0  0  0
  -28.4468  -32.2258   22.2033 C   0  0  0  0  0  0  0  0  0  0  0  0
  -23.0577  -16.0043   21.6077 C   0  0  0  0  0  0  0  0  0  0  0  0
  -22.3541  -15.0993   19.4809 C   0  0  0  0  0  0  0  0  0  0  0  0
  -27.1964  -34.2834   22.3395 C   0  0  0  0  0  0  0  0  0  0  0  0
  -27.3098  -31.5132   22.5826 C   0  0  0  0  0  0  0  0  0  0  0  0
  -26.5839  -27.3697   19.7630 C   0  0  0  0  0  0  0  0  0  0  0  0
  -22.0178  -16.9325   21.5568 C   0  0  0  0  0  0  0  0  0  0  0  0
  -21.3141  -16.0275   19.4300 C   0  0  0  0  0  0  0  0  0  0  0  0
  -27.3703  -26.2558   20.0539 C   0  0  0  0  0  0  0  0  0  0  0  0
  -18.2443  -16.4032   20.7921 C   0  0  0  0  0  0  0  0  0  0  0  0
  -16.9836  -15.9416   20.4136 C   0  0  0  0  0  0  0  0  0  0  0  0
  -28.5965  -21.8928   23.3797 C   0  0  0  0  0  0  0  0  0  0  0  0
  -29.5091  -20.8688   23.5626 C   0  0  0  0  0  0  0  0  0  0  0  0
  -25.5350  -25.2891   21.2853 C   0  0  0  0  0  0  0  0  0  0  0  0
  -16.9926  -17.4591   18.5336 C   0  0  0  0  0  0  0  0  0  0  0  0
  -23.2260  -15.0877   20.5697 C   0  0  0  0  0  0  0  0  0  0  0  0
  -24.2620  -12.8387   21.1829 C   0  0  0  0  0  0  0  0  0  0  0  0
  -26.0417  -33.5777   22.7127 C   0  0  0  0  0  0  0  0  0  0  0  0
  -25.2685  -27.4567   20.2411 C   0  0  0  0  0  0  0  0  0  0  0  0
  -26.0998  -32.1773   22.8462 C   0  0  0  0  0  0  0  0  0  0  0  0
  -24.7331  -26.4040   20.9969 C   0  0  0  0  0  0  0  0  0  0  0  0
  -21.1460  -16.9440   20.4680 C   0  0  0  0  0  0  0  0  0  0  0  0
  -26.8469  -25.2166   20.8175 C   0  0  0  0  0  0  0  0  0  0  0  0
  -18.8791  -17.3928   20.0415 C   0  0  0  0  0  0  0  0  0  0  0  0
  -16.3578  -16.4695   19.2843 C   0  0  0  0  0  0  0  0  0  0  0  0
  -18.2532  -17.9207   18.9122 C   0  0  0  0  0  0  0  0  0  0  0  0
  -24.3004  -14.1290   20.6214 C   0  0  0  0  0  0  0  0  0  0  0  0
  -28.0021  -22.0147   22.1399 C   0  0  0  0  0  0  0  0  0  0  0  0
  -29.7667  -20.0343   22.4936 C   0  0  0  0  0  0  0  0  0  0  0  0
  -25.5242  -12.3373   20.9778 C   0  0  0  0  0  0  0  0  0  0  0  0
  -23.1820  -12.1544   21.8319 C   0  0  0  0  0  0  0  0  0  0  0  0
  -23.7148  -29.4335   22.1859 C   0  0  0  0  0  0  0  0  0  0  0  0
  -21.1399  -27.6856   21.2709 C   0  0  0  0  0  0  0  0  0  0  0  0
  -19.9237  -24.7408   20.0477 C   0  0  0  0  0  0  0  0  0  0  0  0
  -30.8322  -15.1318   20.0952 C   0  0  0  0  0  0  0  0  0  0  0  0
  -24.7866  -34.3531   23.0262 C   0  0  0  0  0  0  0  0  0  0  0  0
  -24.4244  -28.6529   19.8961 C   0  0  0  0  0  0  0  0  0  0  0  0
  -23.3200  -26.4397   21.5168 C   0  0  0  0  0  0  0  0  0  0  0  0
  -23.5289  -33.4887   23.0592 C   0  0  0  0  0  0  0  0  0  0  0  0
  -29.2569  -12.6409   18.0349 C   0  0  0  0  0  0  0  0  0  0  0  0
  -23.7753  -32.2181   23.8665 C   0  0  0  0  0  0  0  0  0  0  0  0
  -27.7954  -12.6606   18.4704 C   0  0  0  0  0  0  0  0  0  0  0  0
  -29.8648  -14.0351   18.1078 C   0  0  0  0  0  0  0  0  0  0  0  0
  -28.3260  -14.6637   19.9498 C   0  0  0  0  0  0  0  0  0  0  0  0
  -31.7004  -16.9209   21.6918 C   0  0  0  0  0  0  0  0  0  0  0  0
  -29.7002  -17.2829   21.0631 C   0  0  0  0  0  0  0  0  0  0  0  0
  -24.8813  -31.3667   23.2313 C   0  0  1  0  0  0  0  0  0  0  0  0
  -23.2678  -28.8683   20.8674 C   0  0  1  0  0  0  0  0  0  0  0  0
  -27.6609  -13.2750   19.8710 C   0  0  1  0  0  0  0  0  0  0  0  0
  -30.8697  -18.1918   21.4717 C   0  0  0  0  0  0  0  0  0  0  0  0
  -17.7734  -23.5970   19.4436 C   0  0  0  0  0  0  0  0  0  0  0  0
  -20.5503  -27.2361   24.2306 C   0  0  0  0  0  0  0  0  0  0  0  0
  -19.0226  -25.3656   23.5707 C   0  0  0  0  0  0  0  0  0  0  0  0
  -18.5345  -27.6950   22.8233 C   0  0  0  0  0  0  0  0  0  0  0  0
  -20.7433  -24.4401   17.2198 C   0  0  0  0  0  0  0  0  0  0  0  0
  -27.0127  -23.1008   21.8908 C   0  0  0  0  0  0  0  0  0  1  0  0
  -20.4614  -26.4358   21.7775 C   0  0  1  0  0  0  0  0  0  0  0  0
  -18.9307  -24.4444   18.9384 C   0  0  2  0  0  0  0  0  0  0  0  0
  -19.6695  -26.6830   23.0925 C   0  0  0  0  0  0  0  0  0  0  0  0
  -25.4925  -14.4287   20.0989 N   0  0  0  0  0  0  0  0  0  0  0  0
  -28.2732  -21.1835   21.1114 N   0  0  0  0  0  0  0  0  0  0  0  0
  -29.1698  -20.1768   21.2913 N   0  0  0  0  0  0  0  0  0  0  0  0
  -26.2150  -13.3197   20.3313 N   0  0  0  0  0  0  0  0  0  0  0  0
  -22.5365  -27.6334   21.1581 N   0  0  0  0  0  0  0  0  0  0  0  0
  -29.7017  -14.6397   19.4335 N   0  0  0  0  0  0  0  0  0  0  0  0
  -30.6778  -16.2160   20.9282 N   0  0  0  0  0  0  0  0  0  0  0  0
  -26.0994  -11.1564   21.2892 N   0  0  0  0  0  0  0  0  0  0  0  0
  -21.9525  -12.8151   21.9584 N   0  0  0  0  0  0  0  0  0  0  0  0
  -24.3693  -30.6463   22.0852 N   0  0  0  0  0  0  0  0  0  0  0  0
  -19.6472  -25.9376   20.6743 N   0  0  0  0  0  0  0  0  0  0  0  0
  -19.5997  -23.7113   17.8266 N   0  3  0  0  0  0  0  0  0  0  0  0
  -23.3086  -10.9978   22.3008 O   0  0  0  0  0  0  0  0  0  0  0  0
  -23.4818  -28.8157   23.2182 O   0  0  0  0  0  0  0  0  0  0  0  0
  -20.4554  -28.6693   20.9789 O   0  0  0  0  0  0  0  0  0  0  0  0
  -20.8497  -23.9845   20.3325 O   0  0  0  0  0  0  0  0  0  0  0  0
  -31.9552  -14.6387   19.9246 O   0  0  0  0  0  0  0  0  0  0  0  0
  -20.1310  -17.8495   20.4181 O   0  0  0  0  0  0  0  0  0  0  0  0
  -27.6177  -24.1212   21.1054 O   0  0  0  0  0  0  0  0  0  1  0  0
  -30.6594  -19.0135   22.6327 O   0  0  0  0  0  0  0  0  0  0  0  0
  -15.1479  -16.0251   18.9200 F   0  0  0  0  0  0  0  0  0  0  0  0
  -18.8586  -18.8707   18.1863 F   0  0  0  0  0  0  0  0  0  0  0  0
  1  2  1  0  0  0  0
  1  5  2  0  0  0  0
  2  6  2  0  0  0  0
  3  8  2  0  0  0  0
  3 17  1  0  0  0  0
  4  9  1  0  0  0  0
  4 17  2  0  0  0  0
  5 19  1  0  0  0  0
  6 21  1  0  0  0  0
  7 10  2  0  0  0  0
  7 20  1  0  0  0  0
  8 23  1  0  0  0  0
  9 23  2  0  0  0  0
 10 24  1  0  0  0  0
 11 12  2  0  0  0  0
 11 25  1  0  0  0  0
 12 26  1  0  0  0  0
 13 14  2  0  0  0  0
 13 29  1  0  0  0  0
 14 30  1  0  0  0  0
 15 22  1  0  0  0  0
 15 24  2  0  0  0  0
 16 26  2  0  0  0  0
 16 27  1  0  0  0  0
 17 28  1  0  0  0  0
 18 28  1  0  0  0  0
 18 31  2  0  0  0  0
 18 32  1  0  0  0  0
 19 21  2  0  0  0  0
 19 37  1  0  0  0  0
 20 22  2  0  0  0  0
 20 38  1  0  0  0  0
 21 48  1  0  0  0  0
 22 39  1  0  0  0  0
 23 78  1  0  0  0  0
 24 79  1  0  0  0  0
 25 27  2  0  0  0  0
 25 78  1  0  0  0  0
 26 81  1  0  0  0  0
 27 82  1  0  0  0  0
 28 61  2  0  0  0  0
 29 57  1  0  0  0  0
 29 62  2  0  0  0  0
 30 63  2  0  0  0  0
 30 80  1  0  0  0  0
 31 64  1  0  0  0  0
 31 68  1  0  0  0  0
 32 69  1  0  0  0  0
 32 73  2  0  0  0  0
 33 49  1  0  0  0  0
 33 70  1  0  0  0  0
 33 74  2  0  0  0  0
 34 58  1  0  0  0  0
 34 65  1  0  0  0  0
 34 75  2  0  0  0  0
 35 59  1  0  0  0  0
 35 71  1  0  0  0  0
 35 76  2  0  0  0  0
 36 66  1  0  0  0  0
 36 67  1  0  0  0  0
 36 77  2  0  0  0  0
 37 40  1  0  0  0  0
 38 49  1  0  0  0  0
 39 65  1  0  0  0  0
 40 42  1  0  0  0  0
 41 43  1  0  0  0  0
 41 44  1  0  0  0  0
 42 48  1  0  0  0  0
 43 50  1  0  0  0  0
 44 66  1  0  0  0  0
 45 50  1  0  0  0  0
 45 66  1  0  0  0  0
 46 51  1  0  0  0  0
 46 67  1  0  0  0  0
 47 51  1  0  0  0  0
 47 67  1  0  0  0  0
 48 70  1  0  0  0  0
 49 65  1  0  0  0  0
 50 64  1  0  0  0  0
 51 80  1  0  0  0  0
 52 59  1  0  0  0  0
 53 60  1  0  0  0  0
 54 60  1  0  0  0  0
 55 60  1  0  0  0  0
 56 72  1  0  0  0  0
 57 79  1  0  0  0  0
 58 60  1  0  0  0  0
 58 71  1  0  0  0  0
 59 72  1  0  0  0  0
 61 64  1  0  0  0  0
 62 63  1  0  0  0  0
M  CHG  1  72   1
M  ISO  4  36 100  57 101  67 100  79 101
M  END
> <Batch ID>
0190

> <Smiles>
CNC(C)C(=O)NC(C(=O)N1Cc2cc([101O:1][101CH2:1]c3ccc(OC4C[100N:0]([100C:0](=O)N5CCCC(n6nc(-c7ccc(Oc8ccc(F)cc8F)cc7)c(C(N)=O)c6N)C5)C4)nn3)ccc2CC1C(=O)NC1CCCc2ccccc21)C(C)(C)C

> <Shape>
0.260

> <Color>
0.094

> <Negative vol penalty>
0.000

$$$$

  -OEChem-04052323243D

 90101  0     1  0  0  0  0  0999 V2000
  -37.2438  -17.5825   23.5876 C   0  0  0  0  0  0  0  0  0  0  0  0
  -36.1838  -18.0917   22.8441 C   0  0  0  0  0  0  0  0  0  0  0  0
  -17.3004  -25.7001   21.0710 C   0  0  0  0  0  0  0  0  0  0  0  0
  -17.3995  -25.2585   23.4443 C   0  0  0  0  0  0  0  0  0  0  0  0
  -37.5011  -16.2123   23.5845 C   0  0  0  0  0  0  0  0  0  0  0  0
  -35.3812  -17.2309   22.0963 C   0  0  0  0  0  0  0  0  0  0  0  0
  -30.4449  -18.2339   22.6173 C   0  0  0  0  0  0  0  0  0  0  0  0
  -16.5649  -24.5298   20.8840 C   0  0  0  0  0  0  0  0  0  0  0  0
  -16.6639  -24.0882   23.2572 C   0  0  0  0  0  0  0  0  0  0  0  0
  -29.9364  -19.3175   21.9023 C   0  0  0  0  0  0  0  0  0  0  0  0
  -14.3519  -21.8455   19.8292 C   0  0  0  0  0  0  0  0  0  0  0  0
  -13.2340  -21.9082   18.9975 C   0  0  0  0  0  0  0  0  0  0  0  0
  -29.0747  -17.8041   20.2331 C   0  0  0  0  0  0  0  0  0  0  0  0
  -12.2477  -23.5693   20.4483 C   0  0  0  0  0  0  0  0  0  0  0  0
  -17.7178  -26.0644   22.3512 C   0  0  0  0  0  0  0  0  0  0  0  0
  -17.9746  -28.5614   22.8060 C   0  0  0  0  0  0  0  0  0  0  0  0
  -36.6953  -15.3331   22.8439 C   0  0  0  0  0  0  0  0  0  0  0  0
  -30.2813  -16.9259   22.1391 C   0  0  0  0  0  0  0  0  0  0  0  0
  -35.6288  -15.8477   22.0823 C   0  0  0  0  0  0  0  0  0  0  0  0
  -29.5799  -16.7055   20.9451 C   0  0  0  0  0  0  0  0  0  0  0  0
  -26.9282  -23.6665   18.5707 C   0  0  0  0  0  0  0  0  0  0  0  0
  -16.2466  -23.7239   21.9771 C   0  0  0  0  0  0  0  0  0  0  0  0
  -29.2537  -19.1029   20.7086 C   0  0  0  0  0  0  0  0  0  0  0  0
  -14.4178  -22.6447   20.9706 C   0  0  0  0  0  0  0  0  0  0  0  0
  -12.1818  -22.7701   19.3070 C   0  0  0  0  0  0  0  0  0  0  0  0
  -13.3656  -23.5066   21.2801 C   0  0  0  0  0  0  0  0  0  0  0  0
  -18.4781  -27.2729   22.5450 C   0  0  0  0  0  0  0  0  0  0  0  0
  -28.2598  -23.9190   18.1903 C   0  0  0  0  0  0  0  0  0  0  0  0
  -27.0248  -22.6885   19.5303 C   0  0  0  0  0  0  0  0  0  0  0  0
  -19.0925  -29.3529   22.9074 C   0  0  0  0  0  0  0  0  0  0  0  0
  -16.6177  -29.0033   22.9444 C   0  0  0  0  0  0  0  0  0  0  0  0
  -32.2554  -14.6096   21.2220 C   0  0  0  0  0  0  0  0  0  0  0  0
  -29.5162  -12.8823   21.0337 C   0  0  0  0  0  0  0  0  0  0  0  0
  -26.1237  -12.8619   20.6631 C   0  0  0  0  0  0  0  0  0  0  0  0
  -24.6305  -28.8069   20.7102 C   0  0  0  0  0  0  0  0  0  0  0  0
  -37.0413  -13.8652   22.8340 C   0  0  0  0  0  0  0  0  0  0  0  0
  -30.8125  -15.7659   22.9357 C   0  0  0  0  0  0  0  0  0  0  0  0
  -29.3596  -15.3192   20.3991 C   0  0  0  0  0  0  0  0  0  0  0  0
  -35.9142  -12.9772   22.3131 C   0  0  0  0  0  0  0  0  0  0  0  0
  -23.7054  -29.2103   24.1049 C   0  0  0  0  0  0  0  0  0  0  0  0
  -35.3274  -13.5570   21.0300 C   0  0  0  0  0  0  0  0  0  0  0  0
  -25.5977  -32.2197   16.6855 C   0  0  0  0  0  0  0  0  0  0  0  0
  -26.7288  -31.5553   17.4196 C   0  0  0  0  0  0  0  0  0  0  0  0
  -22.2241  -28.8436   24.1324 C   0  0  0  0  0  0  0  0  0  0  0  0
  -24.7826  -27.6610   17.1528 C   0  0  0  0  0  0  0  0  0  0  0  0
  -24.4648  -28.3212   23.1296 C   0  0  0  0  0  0  0  0  0  0  0  0
  -22.4370  -28.0381   21.7250 C   0  0  0  0  0  0  0  0  0  0  0  0
  -24.7128  -25.6985   19.8203 C   0  0  0  0  0  0  0  0  0  0  0  0
  -34.7205  -14.9432   21.2780 C   0  0  1  0  0  0  0  0  0  0  0  0
  -31.0346  -14.5139   22.0927 C   0  0  1  0  0  0  0  0  0  0  0  0
  -25.5918  -30.7294   16.8850 C   0  0  0  0  0  0  0  0  0  0  0  0
  -21.6273  -28.8969   22.7174 C   0  0  1  0  0  0  0  0  0  0  0  0
  -23.8553  -26.8380   19.2424 C   0  0  2  0  0  0  0  0  0  0  0  0
  -24.3741  -26.3814   17.8674 C   0  0  2  0  0  0  0  0  0  0  0  0
  -25.0674  -28.7007   18.2480 C   0  0  1  0  0  0  0  0  0  0  0  0
  -28.7459  -24.8830   17.1874 C   0  0  0  0  0  0  0  0  0  0  0  0
  -25.9907  -21.9927   20.3193 C   0  0  0  0  0  0  0  0  0  0  0  0
  -24.1681  -11.2967   20.5106 C   0  0  0  0  0  0  0  0  0  0  0  0
  -30.2990  -12.1873   18.1677 C   0  0  0  0  0  0  0  0  0  0  0  0
  -27.9372  -11.4560   17.7737 C   0  0  0  0  0  0  0  0  0  0  0  0
  -29.3358  -10.2862   19.4762 C   0  0  0  0  0  0  0  0  0  0  0  0
  -24.8657  -14.0126   23.0822 C   0  0  0  0  0  0  0  0  0  0  0  0
  -25.6814  -24.3168   18.0475 C   0  0  0  0  0  0  0  0  0  0  0  0
  -24.6045  -30.0928   17.8323 C   0  0  0  0  0  0  0  0  0  0  0  0
  -28.9685  -21.4654   20.5508 C   0  0  0  0  0  0  0  0  0  1  0  0
  -28.4899  -12.6194   19.9582 C   0  0  1  0  0  0  0  0  0  0  0  0
  -25.0305  -12.1436   21.4335 C   0  0  2  0  0  0  0  0  0  0  0  0
  -29.0211  -11.6636   18.8530 C   0  0  0  0  0  0  0  0  0  0  0  0
  -19.8120  -27.2432   22.4843 N   0  0  0  0  0  0  0  0  0  0  0  0
  -29.1380  -23.1626   18.8541 N   0  0  0  0  0  0  0  0  0  0  0  0
  -28.3566  -22.4252   19.6614 N   0  0  0  0  0  0  0  0  0  0  0  0
  -20.1562  -28.5228   22.7084 N   0  0  0  0  0  0  0  0  0  0  0  0
  -29.9035  -14.2181   21.2112 N   0  0  0  0  0  0  0  0  0  0  0  0
  -23.8701  -28.3476   21.7928 N   0  0  0  0  0  0  0  0  0  0  0  0
  -24.3760  -28.2211   19.4614 N   0  0  0  0  0  0  0  0  0  0  0  0
  -19.2596  -30.6710   23.1464 N   0  0  0  0  0  0  0  0  0  0  0  0
  -15.5905  -28.0591   22.8108 N   0  0  0  0  0  0  0  0  0  0  0  0
  -33.4290  -14.8219   21.9199 N   0  0  0  0  0  0  0  0  0  0  0  0
  -27.2958  -12.1360   20.6430 N   0  0  0  0  0  0  0  0  0  0  0  0
  -25.4852  -25.6910   18.5604 N   0  3  2  0  0  0  0  0  0  0  0  0
  -24.1517  -13.1284   22.1254 N   0  3  0  0  0  0  0  0  0  0  0  0
  -16.3240  -30.2031   23.1633 O   0  0  0  0  0  0  0  0  0  0  0  0
  -32.1413  -14.4974   20.0070 O   0  0  0  0  0  0  0  0  0  0  0  0
  -29.9527  -11.9382   21.6968 O   0  0  0  0  0  0  0  0  0  0  0  0
  -25.9536  -13.9558   20.1291 O   0  0  0  0  0  0  0  0  0  0  0  0
  -25.5150  -29.6598   20.8548 O   0  0  0  0  0  0  0  0  0  0  0  0
  -15.5287  -22.5820   21.7949 O   0  0  0  0  0  0  0  0  0  0  0  0
  -28.7537  -20.1657   20.0040 O   0  0  0  0  0  0  0  0  0  1  0  0
  -11.1090  -22.8313   18.5073 F   0  0  0  0  0  0  0  0  0  0  0  0
  -13.4237  -24.2777   22.3746 F   0  0  0  0  0  0  0  0  0  0  0  0
  1  2  1  0  0  0  0
  1  5  2  0  0  0  0
  2  6  2  0  0  0  0
  3  8  2  0  0  0  0
  3 15  1  0  0  0  0
  4  9  1  0  0  0  0
  4 15  2  0  0  0  0
  5 17  1  0  0  0  0
  6 19  1  0  0  0  0
  7 10  2  0  0  0  0
  7 18  1  0  0  0  0
  8 22  1  0  0  0  0
  9 22  2  0  0  0  0
 10 23  1  0  0  0  0
 11 12  2  0  0  0  0
 11 24  1  0  0  0  0
 12 25  1  0  0  0  0
 13 20  1  0  0  0  0
 13 23  2  0  0  0  0
 14 25  2  0  0  0  0
 14 26  1  0  0  0  0
 15 27  1  0  0  0  0
 16 27  1  0  0  0  0
 16 30  2  0  0  0  0
 16 31  1  0  0  0  0
 17 19  2  0  0  0  0
 17 36  1  0  0  0  0
 18 20  2  0  0  0  0
 18 37  1  0  0  0  0
 19 49  1  0  0  0  0
 20 38  1  0  0  0  0
 21 28  1  0  0  0  0
 21 29  2  0  0  0  0
 21 63  1  0  0  0  0
 22 87  1  0  0  0  0
 23 88  1  0  0  0  0
 24 26  2  0  0  0  0
 24 87  1  0  0  0  0
 25 89  1  0  0  0  0
 26 90  1  0  0  0  0
 27 69  2  0  0  0  0
 28 56  1  0  0  0  0
 28 70  2  0  0  0  0
 29 57  1  0  0  0  0
 29 71  1  0  0  0  0
 30 72  1  0  0  0  0
 30 76  1  0  0  0  0
 31 77  1  0  0  0  0
 31 82  2  0  0  0  0
 32 50  1  0  0  0  0
 32 78  1  0  0  0  0
 32 83  2  0  0  0  0
 33 66  1  0  0  0  0
 33 73  1  0  0  0  0
 33 84  2  0  0  0  0
 34 67  1  0  0  0  0
 34 79  1  0  0  0  0
 34 85  2  0  0  0  0
 35 74  1  0  0  0  0
 35 75  1  0  0  0  0
 35 86  2  0  0  0  0
 36 39  1  0  0  0  0
 37 50  1  0  0  0  0
 38 73  1  0  0  0  0
 39 41  1  0  0  0  0
 40 44  1  0  0  0  0
 40 46  1  0  0  0  0
 41 49  1  0  0  0  0
 42 43  1  0  0  0  0
 42 51  1  0  0  0  0
 43 51  1  0  0  0  0
 44 52  1  0  0  0  0
 45 54  1  0  0  0  0
 45 55  1  0  0  0  0
 46 74  1  0  0  0  0
 47 52  1  0  0  0  0
 47 74  1  0  0  0  0
 48 53  1  0  0  0  0
 48 80  1  0  0  0  0
 49 78  1  0  0  0  0
 50 73  1  0  0  0  0
 51 64  1  0  0  0  0
 52 72  1  0  0  0  0
 53 54  1  0  0  0  0
 53 75  1  0  0  0  0
 54 80  1  0  0  0  0
 55 64  1  0  0  0  0
 55 75  1  0  0  0  0
 58 67  1  0  0  0  0
 59 68  1  0  0  0  0
 60 68  1  0  0  0  0
 61 68  1  0  0  0  0
 62 81  1  0  0  0  0
 63 80  1  0  0  0  0
 65 71  1  0  0  0  0
 65 88  1  0  0  0  0
 66 68  1  0  0  0  0
 66 79  1  0  0  0  0
 67 81  1  0  0  0  0
 69 72  1  0  0  0  0
 70 71  1  0  0  0  0
M  CHG  2  80   1  81   1
M  ISO  4  35 100  65 101  75 100  88 101
M  END
> <Batch ID>
0190

> <Smiles>
CNC(C)C(=O)NC(C(=O)N1Cc2cc([101O:1][101CH2:1]n3nc(C)c(CN4CC5C4CC(CC4CC4)[100N:0]5[100C:0](=O)N4CCCC(n5nc(-c6ccc(Oc7ccc(F)cc7F)cc6)c(C(N)=O)c5N)C4)c3C)ccc2CC1C(=O)NC1CCCc2ccccc21)C(C)(C)C

> <Shape>
0.262

> <Color>
0.057

> <Negative vol penalty>
0.000

$$$$

  -OEChem-04052323243D

 84 94  0     1  0  0  0  0  0999 V2000
  -17.8158  -25.9918   24.3509 C   0  0  0  0  0  0  0  0  0  0  0  0
  -18.4516  -25.4993   23.2158 C   0  0  0  0  0  0  0  0  0  0  0  0
  -26.3814  -13.1103   21.2402 C   0  0  0  0  0  0  0  0  0  0  0  0
  -26.4939  -13.2328   18.8300 C   0  0  0  0  0  0  0  0  0  0  0  0
  -17.8854  -27.3512   24.6530 C   0  0  0  0  0  0  0  0  0  0  0  0
  -19.1565  -26.3660   22.3814 C   0  0  0  0  0  0  0  0  0  0  0  0
  -23.6539  -24.4974   20.9933 C   0  0  0  0  0  0  0  0  0  0  0  0
  -25.1509  -12.4596   21.1497 C   0  0  0  0  0  0  0  0  0  0  0  0
  -25.2635  -12.5821   18.7394 C   0  0  0  0  0  0  0  0  0  0  0  0
  -23.6595  -23.5341   19.9854 C   0  0  0  0  0  0  0  0  0  0  0  0
  -22.1513  -10.4444   21.5450 C   0  0  0  0  0  0  0  0  0  0  0  0
  -21.9472   -9.3274   22.3550 C   0  0  0  0  0  0  0  0  0  0  0  0
  -24.2818  -25.2250   18.3813 C   0  0  0  0  0  0  0  0  0  0  0  0
  -23.8202   -8.2221   21.3026 C   0  0  0  0  0  0  0  0  0  0  0  0
  -27.0529  -13.4970   20.0803 C   0  0  0  0  0  0  0  0  0  0  0  0
  -29.5997  -13.5759   20.2024 C   0  0  0  0  0  0  0  0  0  0  0  0
  -18.5997  -28.2335   23.8272 C   0  0  0  0  0  0  0  0  0  0  0  0
  -23.9521  -25.8359   20.7003 C   0  0  0  0  0  0  0  0  0  0  0  0
  -19.2347  -27.7387   22.6720 C   0  0  0  0  0  0  0  0  0  0  0  0
  -24.2818  -26.2028   19.3877 C   0  0  0  0  0  0  0  0  0  0  0  0
  -24.5920  -12.1955   19.8993 C   0  0  0  0  0  0  0  0  0  0  0  0
  -23.9707  -23.8984   18.6786 C   0  0  0  0  0  0  0  0  0  0  0  0
  -23.1897  -10.4503   20.6136 C   0  0  0  0  0  0  0  0  0  0  0  0
  -22.7817   -8.2163   22.2339 C   0  0  0  0  0  0  0  0  0  0  0  0
  -24.0242   -9.3391   20.4925 C   0  0  0  0  0  0  0  0  0  0  0  0
  -28.3237  -14.1697   20.1732 C   0  0  0  0  0  0  0  0  0  0  0  0
  -27.4922  -21.1558   16.6012 C   0  0  0  0  0  0  0  0  0  0  0  0
  -26.1862  -21.5383   16.3849 C   0  0  0  0  0  0  0  0  0  0  0  0
  -30.4692  -14.6350   20.2960 C   0  0  0  0  0  0  0  0  0  0  0  0
  -27.3741  -22.9748   15.3427 C   0  0  0  0  0  0  0  0  0  0  0  0
  -29.9663  -12.1908   20.1495 C   0  0  0  0  0  0  0  0  0  0  0  0
  -22.3660  -28.5832   20.9015 C   0  0  0  0  0  0  0  0  0  0  0  0
  -25.2285  -29.8490   20.0492 C   0  0  0  0  0  0  0  0  0  0  0  0
  -28.2543  -29.4101   18.5332 C   0  0  0  0  0  0  0  0  0  0  0  0
  -30.2179  -20.3103   18.7422 C   0  0  0  0  0  0  0  0  0  0  0  0
  -18.6072  -29.7024   24.1690 C   0  0  0  0  0  0  0  0  0  0  0  0
  -23.9678  -26.8580   21.8037 C   0  0  0  0  0  0  0  0  0  0  0  0
  -24.6290  -27.6227   19.0247 C   0  0  0  0  0  0  0  0  0  0  0  0
  -28.1132  -20.0236   17.3434 C   0  0  0  0  0  0  0  0  0  0  0  0
  -19.6882  -30.4928   23.4362 C   0  0  0  0  0  0  0  0  0  0  0  0
  -30.7762  -19.1055   21.9471 C   0  0  0  0  0  0  0  0  0  0  0  0
  -19.7044  -30.1285   21.9550 C   0  0  0  0  0  0  0  0  0  0  0  0
  -28.1233  -25.4831   15.2044 C   0  0  0  0  0  0  0  0  0  0  0  0
  -26.8493  -25.3746   14.4265 C   0  0  0  0  0  0  0  0  0  0  0  0
  -30.3344  -17.6447   21.8724 C   0  0  0  0  0  0  0  0  0  0  0  0
  -29.6782  -22.1086   15.8844 C   0  0  0  0  0  0  0  0  0  0  0  0
  -29.8239  -20.0033   21.1663 C   0  0  0  0  0  0  0  0  0  0  0  0
  -30.2512  -20.7584   16.3055 C   0  0  0  0  0  0  0  0  0  0  0  0
  -29.2274  -18.1516   19.6375 C   0  0  0  0  0  0  0  0  0  0  0  0
  -20.0299  -28.6433   21.7557 C   0  0  1  0  0  0  0  0  0  0  0  0
  -27.7852  -24.1882   14.4990 C   0  0  0  0  0  0  0  0  0  0  0  0
  -23.7843  -28.2857   21.2983 C   0  0  1  0  0  0  0  0  0  0  0  0
  -30.1589  -17.1960   20.4111 C   0  0  2  0  0  0  0  0  0  0  0  0
  -30.3670  -30.6371   17.9603 C   0  0  0  0  0  0  0  0  0  0  0  0
  -23.7776  -31.2828   17.7801 C   0  0  0  0  0  0  0  0  0  0  0  0
  -26.0036  -31.6972   16.7119 C   0  0  0  0  0  0  0  0  0  0  0  0
  -25.4992  -32.6646   18.9551 C   0  0  0  0  0  0  0  0  0  0  0  0
  -29.9040  -27.5622   20.1526 C   0  0  0  0  0  0  0  0  0  0  0  0
  -24.9537  -20.8987   16.8716 C   0  0  0  0  0  0  0  0  0  0  0  0
  -24.3112  -21.6255   18.0672 C   0  0  0  0  0  0  0  0  0  1  0  0
  -25.9046  -30.1784   18.7403 C   0  0  1  0  0  0  0  0  0  0  0  0
  -29.6639  -29.7541   18.9795 C   0  0  2  0  0  0  0  0  0  0  0  0
  -25.2879  -31.4293   18.0530 C   0  0  0  0  0  0  0  0  0  0  0  0
  -28.3735  -15.5026   20.2428 N   0  0  0  0  0  0  0  0  0  0  0  0
  -26.1213  -22.6684   15.6038 N   0  0  0  0  0  0  0  0  0  0  0  0
  -28.2303  -22.0896   15.9217 N   0  0  0  0  0  0  0  0  0  0  0  0
  -29.6914  -15.7551   20.3167 N   0  0  0  0  0  0  0  0  0  0  0  0
  -24.6246  -28.5867   20.1374 N   0  0  0  0  0  0  0  0  0  0  0  0
  -29.5618  -20.2592   17.5024 N   0  0  0  0  0  0  0  0  0  0  0  0
  -29.6764  -19.5445   19.7849 N   0  0  0  0  0  0  0  0  0  0  0  0
  -31.8156  -14.7081   20.3618 N   0  0  0  0  0  0  0  0  0  0  0  0
  -28.9474  -11.2331   20.0540 N   0  0  0  0  0  0  0  0  0  0  0  0
  -21.4487  -28.4103   21.9204 N   0  0  0  0  0  0  0  0  0  0  0  0
  -27.3282  -30.2997   19.0353 N   0  0  0  0  0  0  0  0  0  0  0  0
  -30.4679  -28.5123   19.1595 N   0  3  0  0  0  0  0  0  0  0  0  0
  -31.1612  -11.8127   20.2024 O   0  0  0  0  0  0  0  0  0  0  0  0
  -22.1221  -28.9444   19.7562 O   0  0  0  0  0  0  0  0  0  0  0  0
  -25.2420  -30.6782   20.9623 O   0  0  0  0  0  0  0  0  0  0  0  0
  -28.0007  -28.4505   17.8083 O   0  0  0  0  0  0  0  0  0  0  0  0
  -31.2264  -21.0078   18.9098 O   0  0  0  0  0  0  0  0  0  0  0  0
  -23.3915  -11.5603   19.8106 O   0  0  0  0  0  0  0  0  0  0  0  0
  -23.9763  -22.9537   17.6859 O   0  0  0  0  0  0  0  0  0  1  0  0
  -22.5866   -7.1443   23.0130 F   0  0  0  0  0  0  0  0  0  0  0  0
  -25.0242   -9.3393   19.6004 F   0  0  0  0  0  0  0  0  0  0  0  0
  1  2  1  0  0  0  0
  1  5  2  0  0  0  0
  2  6  2  0  0  0  0
  3  8  2  0  0  0  0
  3 15  1  0  0  0  0
  4  9  1  0  0  0  0
  4 15  2  0  0  0  0
  5 17  1  0  0  0  0
  6 19  1  0  0  0  0
  7 10  2  0  0  0  0
  7 18  1  0  0  0  0
  8 21  1  0  0  0  0
  9 21  2  0  0  0  0
 10 22  1  0  0  0  0
 11 12  2  0  0  0  0
 11 23  1  0  0  0  0
 12 24  1  0  0  0  0
 13 20  1  0  0  0  0
 13 22  2  0  0  0  0
 14 24  2  0  0  0  0
 14 25  1  0  0  0  0
 15 26  1  0  0  0  0
 16 26  1  0  0  0  0
 16 29  2  0  0  0  0
 16 31  1  0  0  0  0
 17 19  2  0  0  0  0
 17 36  1  0  0  0  0
 18 20  2  0  0  0  0
 18 37  1  0  0  0  0
 19 50  1  0  0  0  0
 20 38  1  0  0  0  0
 21 81  1  0  0  0  0
 22 82  1  0  0  0  0
 23 25  2  0  0  0  0
 23 81  1  0  0  0  0
 24 83  1  0  0  0  0
 25 84  1  0  0  0  0
 26 64  2  0  0  0  0
 27 28  2  0  0  0  0
 27 39  1  0  0  0  0
 27 66  1  0  0  0  0
 28 59  1  0  0  0  0
 28 65  1  0  0  0  0
 29 67  1  0  0  0  0
 29 71  1  0  0  0  0
 30 51  1  0  0  0  0
 30 65  2  0  0  0  0
 30 66  1  0  0  0  0
 31 72  1  0  0  0  0
 31 76  2  0  0  0  0
 32 52  1  0  0  0  0
 32 73  1  0  0  0  0
 32 77  2  0  0  0  0
 33 61  1  0  0  0  0
 33 68  1  0  0  0  0
 33 78  2  0  0  0  0
 34 62  1  0  0  0  0
 34 74  1  0  0  0  0
 34 79  2  0  0  0  0
 35 69  1  0  0  0  0
 35 70  1  0  0  0  0
 35 80  2  0  0  0  0
 36 40  1  0  0  0  0
 37 52  1  0  0  0  0
 38 68  1  0  0  0  0
 39 69  1  0  0  0  0
 40 42  1  0  0  0  0
 41 45  1  0  0  0  0
 41 47  1  0  0  0  0
 42 50  1  0  0  0  0
 43 44  1  0  0  0  0
 43 51  1  0  0  0  0
 44 51  1  0  0  0  0
 45 53  1  0  0  0  0
 46 48  1  0  0  0  0
 46 66  1  0  0  0  0
 47 70  1  0  0  0  0
 48 69  1  0  0  0  0
 49 53  1  0  0  0  0
 49 70  1  0  0  0  0
 50 73  1  0  0  0  0
 52 68  1  0  0  0  0
 53 67  1  0  0  0  0
 54 62  1  0  0  0  0
 55 63  1  0  0  0  0
 56 63  1  0  0  0  0
 57 63  1  0  0  0  0
 58 75  1  0  0  0  0
 59 60  1  0  0  0  0
 60 82  1  0  0  0  0
 61 63  1  0  0  0  0
 61 74  1  0  0  0  0
 62 75  1  0  0  0  0
 64 67  1  0  0  0  0
M  CHG  1  75   1
M  ISO  4  35 100  60 101  69 100  82 101
M  END
> <Batch ID>
0190

> <Smiles>
CNC(C)C(=O)NC(C(=O)N1Cc2cc([101O:1][101CH2:1]Cc3nc(C4CC4)n4c3C[100N:0]([100C:0](=O)N3CCCC(n5nc(-c6ccc(Oc7ccc(F)cc7F)cc6)c(C(N)=O)c5N)C3)CC4)ccc2CC1C(=O)NC1CCCc2ccccc21)C(C)(C)C

> <Shape>
0.242

> <Color>
0.055

> <Negative vol penalty>
0.000

$$$$

  -OEChem-04052323243D

 89 98  0     1  0  0  0  0  0999 V2000
  -30.0257  -28.1796   14.8029 C   0  0  0  0  0  0  0  0  0  0  0  0
  -28.6428  -28.3277   14.8349 C   0  0  0  0  0  0  0  0  0  0  0  0
  -23.8359   -9.5519   22.3963 C   0  0  0  0  0  0  0  0  0  0  0  0
  -23.6625   -9.3833   19.9924 C   0  0  0  0  0  0  0  0  0  0  0  0
  -30.7207  -27.8793   15.9736 C   0  0  0  0  0  0  0  0  0  0  0  0
  -27.9539  -28.1745   16.0376 C   0  0  0  0  0  0  0  0  0  0  0  0
  -22.2138  -30.6474   19.5378 C   0  0  0  0  0  0  0  0  0  0  0  0
  -22.8687   -8.5567   22.5359 C   0  0  0  0  0  0  0  0  0  0  0  0
  -22.6953   -8.3880   20.1320 C   0  0  0  0  0  0  0  0  0  0  0  0
  -21.0710  -30.1891   20.1919 C   0  0  0  0  0  0  0  0  0  0  0  0
  -22.7167   -5.1849   22.3332 C   0  0  0  0  0  0  0  0  0  0  0  0
  -22.9569   -4.1734   23.2630 C   0  0  0  0  0  0  0  0  0  0  0  0
  -22.3852  -29.7488   22.1664 C   0  0  0  0  0  0  0  0  0  0  0  0
  -20.9483   -4.7918   24.4547 C   0  0  0  0  0  0  0  0  0  0  0  0
  -22.3065  -23.7469   23.5778 C   0  0  0  0  0  0  0  0  0  0  0  0
  -19.7133  -23.2058   22.9236 C   0  0  0  0  0  0  0  0  0  0  0  0
  -24.2328   -9.9653   21.1245 C   0  0  0  0  0  0  0  0  0  0  0  0
  -20.2178  -24.4606   22.6227 C   0  0  0  0  0  0  0  0  0  0  0  0
  -26.6255  -10.8186   20.8912 C   0  0  0  0  0  0  0  0  0  0  0  0
  -30.0411  -27.7318   17.1931 C   0  0  0  0  0  0  0  0  0  0  0  0
  -23.4549  -30.6497   20.1906 C   0  0  0  0  0  0  0  0  0  0  0  0
  -28.6404  -27.8706   17.2255 C   0  0  0  0  0  0  0  0  0  0  0  0
  -23.5417  -30.2100   21.5192 C   0  0  0  0  0  0  0  0  0  0  0  0
  -22.2984   -7.9747   21.4038 C   0  0  0  0  0  0  0  0  0  0  0  0
  -21.1571  -29.7370   21.5054 C   0  0  0  0  0  0  0  0  0  0  0  0
  -21.5922   -6.0000   22.4641 C   0  0  0  0  0  0  0  0  0  0  0  0
  -22.0727   -3.9768   24.3237 C   0  0  0  0  0  0  0  0  0  0  0  0
  -20.7081   -5.8034   23.5248 C   0  0  0  0  0  0  0  0  0  0  0  0
  -21.5400  -24.7284   22.9593 C   0  0  0  0  0  0  0  0  0  0  0  0
  -25.2315  -10.9937   20.9796 C   0  0  0  0  0  0  0  0  0  0  0  0
  -21.7084  -22.5241   23.8362 C   0  0  0  0  0  0  0  0  0  0  0  0
  -27.1243  -12.0921   20.7650 C   0  0  0  0  0  0  0  0  0  0  0  0
  -19.3537  -25.4363   21.9740 C   0  0  0  0  0  0  0  0  0  0  0  0
  -27.4003   -9.6125   20.9204 C   0  0  0  0  0  0  0  0  0  0  0  0
  -26.2498  -29.2173   19.7002 C   0  0  0  0  0  0  0  0  0  0  0  0
  -27.2052  -31.1002   22.1628 C   0  0  0  0  0  0  0  0  0  0  0  0
  -26.3533  -32.8929   24.9390 C   0  0  0  0  0  0  0  0  0  0  0  0
  -25.2893  -17.3030   22.4647 C   0  0  0  0  0  0  0  0  0  0  0  0
  -30.8302  -27.3605   18.4236 C   0  0  0  0  0  0  0  0  0  0  0  0
  -24.6733  -31.1723   19.4800 C   0  0  0  0  0  0  0  0  0  0  0  0
  -24.8466  -30.2111   22.2712 C   0  0  0  0  0  0  0  0  0  0  0  0
  -30.0673  -27.5840   19.7268 C   0  0  0  0  0  0  0  0  0  0  0  0
  -25.9661  -16.4308   19.1293 C   0  0  0  0  0  0  0  0  0  0  0  0
  -28.6520  -27.0253   19.6194 C   0  0  0  0  0  0  0  0  0  0  0  0
  -25.9907  -14.9050   19.2139 C   0  0  0  0  0  0  0  0  0  0  0  0
  -24.8495  -17.0346   19.9829 C   0  0  0  0  0  0  0  0  0  0  0  0
  -23.8638  -19.2434   21.6728 C   0  0  0  0  0  0  0  0  0  0  0  0
  -25.6387  -19.5878   23.3517 C   0  0  0  0  0  0  0  0  0  0  0  0
  -24.8917  -15.0655   21.4795 C   0  0  0  0  0  0  0  0  0  0  0  0
  -22.8295  -19.8203   22.6340 C   0  0  0  0  0  0  0  0  0  0  0  0
  -24.6313  -20.1446   24.3444 C   0  0  0  0  0  0  0  0  0  0  0  0
  -27.8604  -27.7365   18.5153 C   0  0  1  0  0  0  0  0  0  0  0  0
  -25.9793  -30.6485   20.0694 C   0  0  1  0  0  0  0  0  0  0  0  0
  -26.0405  -14.4338   20.6782 C   0  0  1  0  0  0  0  0  0  0  0  0
  -27.3564  -34.2913   26.7653 C   0  0  0  0  0  0  0  0  0  0  0  0
  -28.2204  -28.5725   23.5375 C   0  0  0  0  0  0  0  0  0  0  0  0
  -28.3250  -29.8635   25.6801 C   0  0  0  0  0  0  0  0  0  0  0  0
  -29.7361  -30.5512   23.7413 C   0  0  0  0  0  0  0  0  0  0  0  0
  -24.7963  -35.2756   24.1285 C   0  0  0  0  0  0  0  0  0  0  0  0
  -22.5052  -21.4415   24.5026 C   0  0  0  0  0  0  0  0  0  0  0  0
  -18.2526  -27.6787   22.1689 C   0  0  0  0  0  0  0  0  0  0  0  0
  -19.0282  -28.6894   21.3432 C   0  0  0  0  0  0  0  0  0  1  0  0
  -27.2420  -30.9584   23.6653 C   0  0  1  0  0  0  0  0  0  0  0  0
  -26.7213  -34.2969   25.3835 C   0  0  2  0  0  0  0  0  0  0  0  0
  -28.3565  -29.9844   24.1415 C   0  0  0  0  0  0  0  0  0  0  0  0
  -20.4271  -22.2271   23.5238 N   0  0  0  0  0  0  0  0  0  0  0  0
  -24.8680  -12.2774   20.9153 N   0  0  0  0  0  0  0  0  0  0  0  0
  -26.0409  -12.9204   20.7851 N   0  0  0  0  0  0  0  0  0  0  0  0
  -26.0108  -30.7256   21.5313 N   0  0  0  0  0  0  0  0  0  0  0  0
  -24.9129  -16.5249   21.3597 N   0  0  0  0  0  0  0  0  0  0  0  0
  -25.0014  -18.6746   22.4056 N   0  0  0  0  0  0  0  0  0  0  0  0
  -28.3795  -12.5730   20.6400 N   0  0  0  0  0  0  0  0  0  0  0  0
  -26.7285   -8.3899   21.0554 N   0  0  0  0  0  0  0  0  0  0  0  0
  -19.1063  -26.6251   22.6689 N   0  0  0  0  0  0  0  0  0  0  0  0
  -27.4098  -29.0337   18.9721 N   0  0  0  0  0  0  0  0  0  0  0  0
  -27.3613  -32.3104   24.2001 N   0  0  0  0  0  0  0  0  0  0  0  0
  -23.4970  -20.7881   23.5813 N   0  3  0  0  0  0  0  0  0  0  0  0
  -25.5079  -35.1611   25.4275 N   0  3  0  0  0  0  0  0  0  0  0  0
  -18.8530  -25.1936   20.8624 O   0  0  0  0  0  0  0  0  0  0  0  0
  -28.6525   -9.6200   20.8459 O   0  0  0  0  0  0  0  0  0  0  0  0
  -25.4651  -28.3441   20.0514 O   0  0  0  0  0  0  0  0  0  0  0  0
  -28.1972  -31.5343   21.5719 O   0  0  0  0  0  0  0  0  0  0  0  0
  -25.2806  -32.3641   25.2223 O   0  0  0  0  0  0  0  0  0  0  0  0
  -25.8495  -16.8011   23.4474 O   0  0  0  0  0  0  0  0  0  0  0  0
  -21.3547   -7.0033   21.5397 O   0  0  0  0  0  0  0  0  0  0  0  0
  -20.0356  -29.2853   22.1505 O   0  0  0  0  0  0  0  0  0  1  0  0
  -22.3028   -3.0044   25.2157 F   0  0  0  0  0  0  0  0  0  0  0  0
  -19.6255   -6.5824   23.6552 F   0  0  0  0  0  0  0  0  0  0  0  0
  -22.2622  -26.2601   22.6271 Cl  0  0  0  0  0  0  0  0  0  0  0  0
  1  2  1  0  0  0  0
  1  5  2  0  0  0  0
  2  6  2  0  0  0  0
  3  8  2  0  0  0  0
  3 17  1  0  0  0  0
  4  9  1  0  0  0  0
  4 17  2  0  0  0  0
  5 20  1  0  0  0  0
  6 22  1  0  0  0  0
  7 10  2  0  0  0  0
  7 21  1  0  0  0  0
  8 24  1  0  0  0  0
  9 24  2  0  0  0  0
 10 25  1  0  0  0  0
 11 12  2  0  0  0  0
 11 26  1  0  0  0  0
 12 27  1  0  0  0  0
 13 23  1  0  0  0  0
 13 25  2  0  0  0  0
 14 27  2  0  0  0  0
 14 28  1  0  0  0  0
 15 29  1  0  0  0  0
 15 31  2  0  0  0  0
 16 18  1  0  0  0  0
 16 66  2  0  0  0  0
 17 30  1  0  0  0  0
 18 29  2  0  0  0  0
 18 33  1  0  0  0  0
 19 30  1  0  0  0  0
 19 32  2  0  0  0  0
 19 34  1  0  0  0  0
 20 22  2  0  0  0  0
 20 39  1  0  0  0  0
 21 23  2  0  0  0  0
 21 40  1  0  0  0  0
 22 52  1  0  0  0  0
 23 41  1  0  0  0  0
 24 85  1  0  0  0  0
 25 86  1  0  0  0  0
 26 28  2  0  0  0  0
 26 85  1  0  0  0  0
 27 87  1  0  0  0  0
 28 88  1  0  0  0  0
 29 89  1  0  0  0  0
 30 67  2  0  0  0  0
 31 60  1  0  0  0  0
 31 66  1  0  0  0  0
 32 68  1  0  0  0  0
 32 72  1  0  0  0  0
 33 74  1  0  0  0  0
 33 79  2  0  0  0  0
 34 73  1  0  0  0  0
 34 80  2  0  0  0  0
 35 53  1  0  0  0  0
 35 75  1  0  0  0  0
 35 81  2  0  0  0  0
 36 63  1  0  0  0  0
 36 69  1  0  0  0  0
 36 82  2  0  0  0  0
 37 64  1  0  0  0  0
 37 76  1  0  0  0  0
 37 83  2  0  0  0  0
 38 70  1  0  0  0  0
 38 71  1  0  0  0  0
 38 84  2  0  0  0  0
 39 42  1  0  0  0  0
 40 53  1  0  0  0  0
 41 69  1  0  0  0  0
 42 44  1  0  0  0  0
 43 45  1  0  0  0  0
 43 46  1  0  0  0  0
 44 52  1  0  0  0  0
 45 54  1  0  0  0  0
 46 70  1  0  0  0  0
 47 50  1  0  0  0  0
 47 71  1  0  0  0  0
 48 51  1  0  0  0  0
 48 71  1  0  0  0  0
 49 54  1  0  0  0  0
 49 70  1  0  0  0  0
 50 77  1  0  0  0  0
 51 77  1  0  0  0  0
 52 75  1  0  0  0  0
 53 69  1  0  0  0  0
 54 68  1  0  0  0  0
 55 64  1  0  0  0  0
 56 65  1  0  0  0  0
 57 65  1  0  0  0  0
 58 65  1  0  0  0  0
 59 78  1  0  0  0  0
 60 77  1  0  0  0  0
 61 62  1  0  0  0  0
 61 74  1  0  0  0  0
 62 86  1  0  0  0  0
 63 65  1  0  0  0  0
 63 76  1  0  0  0  0
 64 78  1  0  0  0  0
 67 68  1  0  0  0  0
M  CHG  2  77   1  78   1
M  ISO  4  38 100  62 101  71 100  86 101
M  END
> <Batch ID>
0190

> <Smiles>
CNC(C)C(=O)NC(C(=O)N1Cc2cc([101O:1][101CH2:1]CNC(=O)c3cnc(CN4CC[100N:0]([100C:0](=O)N5CCCC(n6nc(-c7ccc(Oc8ccc(F)cc8F)cc7)c(C(N)=O)c6N)C5)CC4)cc3Cl)ccc2CC1C(=O)NC1CCCc2ccccc21)C(C)(C)C

> <Shape>
0.289

> <Color>
0.073

> <Negative vol penalty>
0.000

$$$$

  -OEChem-04052323243D

 85 94  0     1  0  0  0  0  0999 V2000
  -23.4789  -31.6451   27.2027 C   0  0  0  0  0  0  0  0  0  0  0  0
  -23.0458  -31.7052   25.8820 C   0  0  0  0  0  0  0  0  0  0  0  0
  -23.9448  -10.4901   22.6615 C   0  0  0  0  0  0  0  0  0  0  0  0
  -25.1366  -11.5980   24.4473 C   0  0  0  0  0  0  0  0  0  0  0  0
  -24.8398  -31.5335   27.4845 C   0  0  0  0  0  0  0  0  0  0  0  0
  -23.9736  -31.6548   24.8423 C   0  0  0  0  0  0  0  0  0  0  0  0
  -23.6488  -26.4916   19.8296 C   0  0  0  0  0  0  0  0  0  0  0  0
  -23.5541   -9.4847   23.5459 C   0  0  0  0  0  0  0  0  0  0  0  0
  -24.7459  -10.5927   25.3317 C   0  0  0  0  0  0  0  0  0  0  0  0
  -23.5275  -25.6609   18.7154 C   0  0  0  0  0  0  0  0  0  0  0  0
  -21.2310   -9.0602   25.9658 C   0  0  0  0  0  0  0  0  0  0  0  0
  -19.8989   -8.6480   25.9311 C   0  0  0  0  0  0  0  0  0  0  0  0
  -25.5467  -26.6056   17.7780 C   0  0  0  0  0  0  0  0  0  0  0  0
  -20.6076   -6.4043   25.3826 C   0  0  0  0  0  0  0  0  0  0  0  0
  -24.7361  -11.5467   23.1121 C   0  0  0  0  0  0  0  0  0  0  0  0
  -24.3021  -13.4462   21.4655 C   0  0  0  0  0  0  0  0  0  0  0  0
  -25.7840  -31.4719   26.4475 C   0  0  0  0  0  0  0  0  0  0  0  0
  -24.7292  -27.3725   19.9295 C   0  0  0  0  0  0  0  0  0  0  0  0
  -25.3485  -31.5436   25.1104 C   0  0  0  0  0  0  0  0  0  0  0  0
  -25.6802  -27.4312   18.8976 C   0  0  0  0  0  0  0  0  0  0  0  0
  -23.9546   -9.5360   24.8810 C   0  0  0  0  0  0  0  0  0  0  0  0
  -24.4740  -25.7180   17.6921 C   0  0  0  0  0  0  0  0  0  0  0  0
  -22.2514   -8.1446   25.7088 C   0  0  0  0  0  0  0  0  0  0  0  0
  -19.5872   -7.3200   25.6395 C   0  0  0  0  0  0  0  0  0  0  0  0
  -21.9397   -6.8166   25.4172 C   0  0  0  0  0  0  0  0  0  0  0  0
  -25.1404  -12.5853   22.1989 C   0  0  0  0  0  0  0  0  0  0  0  0
  -25.1658  -14.2427   20.7541 C   0  0  0  0  0  0  0  0  0  0  0  0
  -22.8706  -13.5194   21.4305 C   0  0  0  0  0  0  0  0  0  0  0  0
  -26.4864  -29.9983   21.9528 C   0  0  0  0  0  0  0  0  0  0  0  0
  -28.6589  -28.1922   20.7577 C   0  0  0  0  0  0  0  0  0  0  0  0
  -31.4930  -26.4014   20.1268 C   0  0  0  0  0  0  0  0  0  0  0  0
  -29.7729  -17.3662   20.4400 C   0  0  0  0  0  0  0  0  0  0  0  0
  -27.2480  -31.3990   26.8021 C   0  0  0  0  0  0  0  0  0  0  0  0
  -24.8665  -28.3294   21.0825 C   0  0  0  0  0  0  0  0  0  0  0  0
  -26.8069  -28.4188   19.0317 C   0  0  0  0  0  0  0  0  0  0  0  0
  -28.1368  -30.9743   25.6359 C   0  0  0  0  0  0  0  0  0  0  0  0
  -30.1581  -13.8599   20.0289 C   0  0  0  0  0  0  0  0  0  0  0  0
  -27.7697  -31.7501   24.3749 C   0  0  0  0  0  0  0  0  0  0  0  0
  -28.8201  -13.2855   20.4976 C   0  0  0  0  0  0  0  0  0  0  0  0
  -27.6660  -21.0409   16.1879 C   0  0  0  0  0  0  0  0  0  0  0  0
  -30.5792  -15.0653   20.8667 C   0  0  0  0  0  0  0  0  0  0  0  0
  -28.2342  -15.5621   21.4326 C   0  0  0  0  0  0  0  0  0  0  0  0
  -28.9396  -19.8115   18.5147 C   0  0  0  0  0  0  0  0  0  0  0  0
  -26.4974  -21.4547   15.3198 C   0  0  0  0  0  0  0  0  0  0  0  0
  -26.1305  -22.2010   17.6188 C   0  0  0  0  0  0  0  0  0  0  0  0
  -26.3224  -31.4669   23.9547 C   0  0  1  0  0  0  0  0  0  0  0  0
  -26.3301  -28.5804   21.4875 C   0  0  1  0  0  0  0  0  0  0  0  0
  -27.7385  -14.3795   20.5827 C   0  0  2  0  0  0  0  0  0  0  0  0
  -27.0431  -20.9826   17.5726 C   0  0  2  0  0  0  0  0  0  0  0  0
  -28.8262  -19.6365   20.0444 C   0  0  1  0  0  0  0  0  0  0  0  0
  -27.4776  -20.3868   19.8849 C   0  0  1  0  0  0  0  0  0  0  0  0
  -26.8416  -20.8287   22.2617 C   0  0  0  0  0  0  0  0  0  0  0  0
  -33.9808  -26.6586   19.9213 C   0  0  0  0  0  0  0  0  0  0  0  0
  -24.1377  -22.9426   14.4241 C   0  0  0  0  0  0  0  0  0  0  0  0
  -28.2961  -29.4715   18.0126 C   0  0  0  0  0  0  0  0  0  0  0  0
  -30.6589  -28.8356   17.4825 C   0  0  0  0  0  0  0  0  0  0  0  0
  -30.1836  -30.4085   19.3594 C   0  0  0  0  0  0  0  0  0  0  0  0
  -31.9882  -24.5268   22.3629 C   0  0  0  0  0  0  0  0  0  0  0  0
  -27.1680  -21.4386   20.9338 C   0  0  0  0  0  0  0  0  0  0  0  0
  -23.7225  -23.6375   16.8178 C   0  0  0  0  0  0  0  0  0  1  0  0
  -29.6265  -27.9568   19.6256 C   0  0  1  0  0  0  0  0  0  0  0  0
  -32.8241  -26.3328   20.8534 C   0  0  2  0  0  0  0  0  0  0  0  0
  -24.3193  -22.5850   15.8903 C   0  0  2  0  0  0  0  0  0  0  0  0
  -29.6724  -29.1483   18.6278 C   0  0  0  0  0  0  0  0  0  0  0  0
  -26.4371  -12.8133   21.9740 N   0  0  0  0  0  0  0  0  0  0  0  0
  -26.4201  -13.8264   21.0912 N   0  0  0  0  0  0  0  0  0  0  0  0
  -27.3203  -28.4111   20.4105 N   0  0  0  0  0  0  0  0  0  0  0  0
  -29.5100  -16.0664   20.9004 N   0  0  0  0  0  0  0  0  0  0  0  0
  -28.0378  -20.9845   18.6400 N   0  0  1  0  0  0  0  0  0  0  0  0
  -24.9671  -15.2515   19.8793 N   0  0  0  0  0  0  0  0  0  0  0  0
  -22.1363  -12.6267   22.2232 N   0  0  0  0  0  0  0  0  0  0  0  0
  -26.2292  -30.1804   23.2983 N   0  0  0  0  0  0  0  0  0  0  0  0
  -30.9106  -27.6457   20.2442 N   0  0  0  0  0  0  0  0  0  0  0  0
  -28.7073  -18.2586   20.4945 N   0  0  0  0  0  0  0  0  0  0  0  0
  -25.7847  -22.4846   16.1674 N   0  3  2  0  0  0  0  0  0  0  0  0
  -33.0401  -24.9677   21.4110 N   0  3  0  0  0  0  0  0  0  0  0  0
  -22.2604  -14.3408   20.7049 O   0  0  0  0  0  0  0  0  0  0  0  0
  -26.8174  -30.8642   21.1514 O   0  0  0  0  0  0  0  0  0  0  0  0
  -29.0768  -28.1883   21.9190 O   0  0  0  0  0  0  0  0  0  0  0  0
  -31.0191  -25.4477   19.5132 O   0  0  0  0  0  0  0  0  0  0  0  0
  -30.8755  -17.7124   20.0020 O   0  0  0  0  0  0  0  0  0  0  0  0
  -23.5734   -8.5553   25.7444 O   0  0  0  0  0  0  0  0  0  0  0  0
  -24.3521  -24.9010   16.6092 O   0  0  0  0  0  0  0  0  0  1  0  0
  -18.3081   -6.9239   25.6078 F   0  0  0  0  0  0  0  0  0  0  0  0
  -22.9158   -5.9321   25.1707 F   0  0  0  0  0  0  0  0  0  0  0  0
  1  2  1  0  0  0  0
  1  5  2  0  0  0  0
  2  6  2  0  0  0  0
  3  8  2  0  0  0  0
  3 15  1  0  0  0  0
  4  9  1  0  0  0  0
  4 15  2  0  0  0  0
  5 17  1  0  0  0  0
  6 19  1  0  0  0  0
  7 10  2  0  0  0  0
  7 18  1  0  0  0  0
  8 21  1  0  0  0  0
  9 21  2  0  0  0  0
 10 22  1  0  0  0  0
 11 12  2  0  0  0  0
 11 23  1  0  0  0  0
 12 24  1  0  0  0  0
 13 20  1  0  0  0  0
 13 22  2  0  0  0  0
 14 24  2  0  0  0  0
 14 25  1  0  0  0  0
 15 26  1  0  0  0  0
 16 26  1  0  0  0  0
 16 27  2  0  0  0  0
 16 28  1  0  0  0  0
 17 19  2  0  0  0  0
 17 33  1  0  0  0  0
 18 20  2  0  0  0  0
 18 34  1  0  0  0  0
 19 46  1  0  0  0  0
 20 35  1  0  0  0  0
 21 82  1  0  0  0  0
 22 83  1  0  0  0  0
 23 25  2  0  0  0  0
 23 82  1  0  0  0  0
 24 84  1  0  0  0  0
 25 85  1  0  0  0  0
 26 65  2  0  0  0  0
 27 66  1  0  0  0  0
 27 70  1  0  0  0  0
 28 71  1  0  0  0  0
 28 77  2  0  0  0  0
 29 47  1  0  0  0  0
 29 72  1  0  0  0  0
 29 78  2  0  0  0  0
 30 61  1  0  0  0  0
 30 67  1  0  0  0  0
 30 79  2  0  0  0  0
 31 62  1  0  0  0  0
 31 73  1  0  0  0  0
 31 80  2  0  0  0  0
 32 68  1  0  0  0  0
 32 74  1  0  0  0  0
 32 81  2  0  0  0  0
 33 36  1  0  0  0  0
 34 47  1  0  0  0  0
 35 67  1  0  0  0  0
 36 38  1  0  0  0  0
 37 39  1  0  0  0  0
 37 41  1  0  0  0  0
 38 46  1  0  0  0  0
 39 48  1  0  0  0  0
 40 44  1  0  0  0  0
 40 49  1  0  0  0  0
 41 68  1  0  0  0  0
 42 48  1  0  0  0  0
 42 68  1  0  0  0  0
 43 50  1  0  0  0  0
 43 69  1  0  0  0  0
 44 75  1  0  0  0  0
 45 49  1  0  0  0  0
 45 75  1  0  0  0  0
 46 72  1  0  0  0  0
 47 67  1  0  0  0  0
 48 66  1  0  0  0  0
 49 69  1  0  0  0  0
 50 51  1  0  0  0  0
 50 74  1  0  0  0  0
 51 59  1  0  0  0  0
 51 69  1  0  0  0  0
 52 59  1  0  0  0  0
 53 62  1  0  0  0  0
 54 63  1  0  0  0  0
 55 64  1  0  0  0  0
 56 64  1  0  0  0  0
 57 64  1  0  0  0  0
 58 76  1  0  0  0  0
 60 63  1  0  0  0  0
 60 83  1  0  0  0  0
 61 64  1  0  0  0  0
 61 73  1  0  0  0  0
 62 76  1  0  0  0  0
 63 75  1  0  0  0  0
 65 66  1  0  0  0  0
M  CHG  2  75   1  76   1
M  ISO  4  32 100  60 101  74 100  83 101
M  END
> <Batch ID>
0190

> <Smiles>
CCC1C([100NH:0][100C:0](=O)N2CCCC(n3nc(-c4ccc(Oc5ccc(F)cc5F)cc4)c(C(N)=O)c3N)C2)CN1C1CCN(C(C)[101CH2:1][101O:1]c2ccc3c(c2)CN(C(=O)C(NC(=O)C(C)NC)C(C)(C)C)C(C(=O)NC2CCCc4ccccc42)C3)C1

> <Shape>
0.257

> <Color>
0.114

> <Negative vol penalty>
0.000

$$$$

  -OEChem-04052323243D

 85 94  0     1  0  0  0  0  0999 V2000
  -22.1568  -23.2400   13.6265 C   0  0  0  0  0  0  0  0  0  0  0  0
  -22.1640  -21.9335   14.1045 C   0  0  0  0  0  0  0  0  0  0  0  0
  -28.3775  -26.3341   18.1500 C   0  0  0  0  0  0  0  0  0  0  0  0
  -27.2701  -25.6685   20.1915 C   0  0  0  0  0  0  0  0  0  0  0  0
  -22.5908  -24.2825   14.4442 C   0  0  0  0  0  0  0  0  0  0  0  0
  -22.6062  -21.6687   15.4002 C   0  0  0  0  0  0  0  0  0  0  0  0
  -20.4776  -17.3728   19.2107 C   0  0  0  0  0  0  0  0  0  0  0  0
  -27.4106  -27.3186   17.9465 C   0  0  0  0  0  0  0  0  0  0  0  0
  -26.3033  -26.6530   19.9881 C   0  0  0  0  0  0  0  0  0  0  0  0
  -20.9340  -16.0955   19.5332 C   0  0  0  0  0  0  0  0  0  0  0  0
  -26.0291  -29.9958   20.4018 C   0  0  0  0  0  0  0  0  0  0  0  0
  -25.6672  -30.7824   21.4954 C   0  0  0  0  0  0  0  0  0  0  0  0
  -22.0622  -16.9936   21.4671 C   0  0  0  0  0  0  0  0  0  0  0  0
  -23.3848  -30.0169   21.2906 C   0  0  0  0  0  0  0  0  0  0  0  0
  -28.3318  -11.5330   20.5396 C   0  0  0  0  0  0  0  0  0  0  0  0
  -28.3072  -25.5089   19.2725 C   0  0  0  0  0  0  0  0  0  0  0  0
  -30.5189  -24.6230   20.1843 C   0  0  0  0  0  0  0  0  0  0  0  0
  -23.0294  -24.0316   15.7539 C   0  0  0  0  0  0  0  0  0  0  0  0
  -20.8196  -18.4736   20.0092 C   0  0  0  0  0  0  0  0  0  0  0  0
  -23.0477  -22.7087   16.2357 C   0  0  0  0  0  0  0  0  0  0  0  0
  -21.6067  -18.2834   21.1539 C   0  0  0  0  0  0  0  0  0  0  0  0
  -26.3735  -27.4781   18.8656 C   0  0  0  0  0  0  0  0  0  0  0  0
  -21.7289  -15.9062   20.6599 C   0  0  0  0  0  0  0  0  0  0  0  0
  -25.0689  -29.2198   19.7526 C   0  0  0  0  0  0  0  0  0  0  0  0
  -24.3451  -30.7929   21.9398 C   0  0  0  0  0  0  0  0  0  0  0  0
  -23.7468  -29.2303   20.1970 C   0  0  0  0  0  0  0  0  0  0  0  0
  -29.3054  -24.4914   19.4829 C   0  0  0  0  0  0  0  0  0  0  0  0
  -27.1547  -10.8681   20.2630 C   0  0  0  0  0  0  0  0  0  0  0  0
  -28.2055  -12.8775   20.8237 C   0  0  0  0  0  0  0  0  0  0  0  0
  -31.1021  -23.3826   20.0972 C   0  0  0  0  0  0  0  0  0  0  0  0
  -25.9508  -12.7742   20.5537 C   0  0  0  0  0  0  0  0  0  0  0  0
  -31.0696  -25.7645   20.8547 C   0  0  0  0  0  0  0  0  0  0  0  0
  -22.4358  -21.1700   19.5389 C   0  0  0  0  0  0  0  0  0  0  0  0
  -21.4301  -21.8402   22.5492 C   0  0  0  0  0  0  0  0  0  0  0  0
  -20.3480  -20.6754   25.5689 C   0  0  0  0  0  0  0  0  0  0  0  0
  -30.6948  -17.9393   20.5720 C   0  0  0  0  0  0  0  0  0  0  0  0
  -23.5337  -25.1852   16.5842 C   0  0  0  0  0  0  0  0  0  0  0  0
  -20.2971  -19.8408   19.6626 C   0  0  0  0  0  0  0  0  0  0  0  0
  -21.9853  -19.4291   22.0554 C   0  0  0  0  0  0  0  0  0  0  0  0
  -23.6338  -24.8659   18.0736 C   0  0  0  0  0  0  0  0  0  0  0  0
  -29.9396  -19.3701   17.2832 C   0  0  0  0  0  0  0  0  0  0  0  0
  -24.3099  -23.5150   18.2856 C   0  0  0  0  0  0  0  0  0  0  0  0
  -29.7491  -20.8405   17.6407 C   0  0  0  0  0  0  0  0  0  0  0  0
  -29.4605  -18.4347   18.3941 C   0  0  0  0  0  0  0  0  0  0  0  0
  -29.8637  -20.2114   20.0769 C   0  0  0  0  0  0  0  0  0  0  0  0
  -30.8466  -15.5362   21.4249 C   0  0  0  0  0  0  0  0  0  0  0  0
  -29.1345  -15.8673   20.2058 C   0  0  0  0  0  0  0  0  0  0  0  0
  -23.4967  -22.3843   17.6440 C   0  0  1  0  0  0  0  0  0  0  0  0
  -21.1328  -20.9689   20.2596 C   0  0  1  0  0  0  0  0  0  0  0  0
  -30.4051  -21.1546   18.9935 C   0  0  2  0  0  0  0  0  0  0  0  0
  -29.4209  -14.9733   21.4199 C   0  0  0  0  0  0  0  0  0  0  0  0
  -27.1905   -9.4111   19.9440 C   0  0  0  0  0  0  0  0  0  0  0  0
  -19.6404  -21.4612   27.8447 C   0  0  0  0  0  0  0  0  0  0  0  0
  -24.3478  -22.3627   23.2732 C   0  0  0  0  0  0  0  0  0  0  0  0
  -23.7048  -22.2024   25.6875 C   0  0  0  0  0  0  0  0  0  0  0  0
  -22.7220  -23.9910   24.2531 C   0  0  0  0  0  0  0  0  0  0  0  0
  -17.6459  -19.5086   25.2591 C   0  0  0  0  0  0  0  0  0  0  0  0
  -23.4711  -12.7519   20.2774 C   0  0  0  0  0  0  0  0  0  0  0  0
  -22.3939  -13.7540   19.8974 C   0  0  0  0  0  0  0  0  0  1  0  0
  -21.9730  -21.5971   23.9367 C   0  0  1  0  0  0  0  0  0  0  0  0
  -19.1782  -21.0842   26.4458 C   0  0  2  0  0  0  0  0  0  0  0  0
  -23.1815  -22.5168   24.2698 C   0  0  0  0  0  0  0  0  0  0  0  0
  -29.1272  -23.2642   18.9867 N   0  0  0  0  0  0  0  0  0  0  0  0
  -25.9421  -11.4597   20.2612 N   0  0  0  0  0  0  0  0  0  0  0  0
  -27.0262  -13.5328   20.8395 N   0  0  0  0  0  0  0  0  0  0  0  0
  -30.2364  -22.6134   19.3768 N   0  0  0  0  0  0  0  0  0  0  0  0
  -21.4552  -20.7477   21.6708 N   0  0  0  0  0  0  0  0  0  0  0  0
  -30.0223  -18.8019   19.6995 N   0  0  0  0  0  0  0  0  0  0  0  0
  -30.3246  -16.6146   20.5887 N   0  0  0  0  0  0  0  0  0  0  0  0
  -32.2660  -22.8857   20.5673 N   0  0  0  0  0  0  0  0  0  0  0  0
  -30.3389  -26.9605   20.8474 N   0  0  0  0  0  0  0  0  0  0  0  0
  -29.3760  -13.5883   21.1096 N   0  0  0  0  0  0  0  0  0  0  0  0
  -24.6987  -13.4267   20.5614 N   0  0  0  0  0  0  0  0  0  0  0  0
  -22.3597  -22.0462   18.4730 N   0  0  0  0  0  0  0  0  0  0  0  0
  -20.8431  -21.7415   24.8482 N   0  0  0  0  0  0  0  0  0  0  0  0
  -18.2003  -19.9654   26.5595 N   0  3  0  0  0  0  0  0  0  0  0  0
  -32.1844  -25.7297   21.4287 O   0  0  0  0  0  0  0  0  0  0  0  0
  -23.4364  -20.5755   19.9223 O   0  0  0  0  0  0  0  0  0  0  0  0
  -20.9932  -22.9563   22.2577 O   0  0  0  0  0  0  0  0  0  0  0  0
  -20.7818  -19.5261   25.5302 O   0  0  0  0  0  0  0  0  0  0  0  0
  -31.5795  -18.3439   21.3378 O   0  0  0  0  0  0  0  0  0  0  0  0
  -25.4300  -28.4389   18.6675 O   0  0  0  0  0  0  0  0  0  0  0  0
  -22.1794  -14.6520   20.9789 O   0  0  0  0  0  0  0  0  0  1  0  0
  -23.9980  -31.5470   22.9910 F   0  0  0  0  0  0  0  0  0  0  0  0
  -22.8201  -28.4860   19.5780 F   0  0  0  0  0  0  0  0  0  0  0  0
  1  2  1  0  0  0  0
  1  5  2  0  0  0  0
  2  6  2  0  0  0  0
  3  8  2  0  0  0  0
  3 16  1  0  0  0  0
  4  9  1  0  0  0  0
  4 16  2  0  0  0  0
  5 18  1  0  0  0  0
  6 20  1  0  0  0  0
  7 10  2  0  0  0  0
  7 19  1  0  0  0  0
  8 22  1  0  0  0  0
  9 22  2  0  0  0  0
 10 23  1  0  0  0  0
 11 12  2  0  0  0  0
 11 24  1  0  0  0  0
 12 25  1  0  0  0  0
 13 21  1  0  0  0  0
 13 23  2  0  0  0  0
 14 25  2  0  0  0  0
 14 26  1  0  0  0  0
 15 28  1  0  0  0  0
 15 29  2  0  0  0  0
 16 27  1  0  0  0  0
 17 27  1  0  0  0  0
 17 30  2  0  0  0  0
 17 32  1  0  0  0  0
 18 20  2  0  0  0  0
 18 37  1  0  0  0  0
 19 21  2  0  0  0  0
 19 38  1  0  0  0  0
 20 48  1  0  0  0  0
 21 39  1  0  0  0  0
 22 82  1  0  0  0  0
 23 83  1  0  0  0  0
 24 26  2  0  0  0  0
 24 82  1  0  0  0  0
 25 84  1  0  0  0  0
 26 85  1  0  0  0  0
 27 63  2  0  0  0  0
 28 52  1  0  0  0  0
 28 64  2  0  0  0  0
 29 65  1  0  0  0  0
 29 72  1  0  0  0  0
 30 66  1  0  0  0  0
 30 70  1  0  0  0  0
 31 64  1  0  0  0  0
 31 65  2  0  0  0  0
 31 73  1  0  0  0  0
 32 71  1  0  0  0  0
 32 77  2  0  0  0  0
 33 49  1  0  0  0  0
 33 74  1  0  0  0  0
 33 78  2  0  0  0  0
 34 60  1  0  0  0  0
 34 67  1  0  0  0  0
 34 79  2  0  0  0  0
 35 61  1  0  0  0  0
 35 75  1  0  0  0  0
 35 80  2  0  0  0  0
 36 68  1  0  0  0  0
 36 69  1  0  0  0  0
 36 81  2  0  0  0  0
 37 40  1  0  0  0  0
 38 49  1  0  0  0  0
 39 67  1  0  0  0  0
 40 42  1  0  0  0  0
 41 43  1  0  0  0  0
 41 44  1  0  0  0  0
 42 48  1  0  0  0  0
 43 50  1  0  0  0  0
 44 68  1  0  0  0  0
 45 50  1  0  0  0  0
 45 68  1  0  0  0  0
 46 51  1  0  0  0  0
 46 69  1  0  0  0  0
 47 51  1  0  0  0  0
 47 69  1  0  0  0  0
 48 74  1  0  0  0  0
 49 67  1  0  0  0  0
 50 66  1  0  0  0  0
 51 72  1  0  0  0  0
 53 61  1  0  0  0  0
 54 62  1  0  0  0  0
 55 62  1  0  0  0  0
 56 62  1  0  0  0  0
 57 76  1  0  0  0  0
 58 59  1  0  0  0  0
 58 73  1  0  0  0  0
 59 83  1  0  0  0  0
 60 62  1  0  0  0  0
 60 75  1  0  0  0  0
 61 76  1  0  0  0  0
 63 66  1  0  0  0  0
M  CHG  1  76   1
M  ISO  4  36 100  59 101  69 100  83 101
M  END
> <Batch ID>
0190

> <Smiles>
CNC(C)C(=O)NC(C(=O)N1Cc2cc([101O:1][101CH2:1]CNc3nc(C)cc(NC4C[100N:0]([100C:0](=O)N5CCCC(n6nc(-c7ccc(Oc8ccc(F)cc8F)cc7)c(C(N)=O)c6N)C5)C4)n3)ccc2CC1C(=O)NC1CCCc2ccccc21)C(C)(C)C

> <Shape>
0.198

> <Color>
0.068

> <Negative vol penalty>
0.000

$$$$

  -OEChem-04052323243D

 84 93  0     1  0  0  0  0  0999 V2000
  -34.4214  -30.7409   17.3251 C   0  0  0  0  0  0  0  0  0  0  0  0
  -33.8045  -29.6524   17.9335 C   0  0  0  0  0  0  0  0  0  0  0  0
  -27.0107  -19.7304   20.6083 C   0  0  0  0  0  0  0  0  0  0  0  0
  -26.8345  -13.0358   20.5324 C   0  0  0  0  0  0  0  0  0  0  0  0
  -25.2414  -14.6946   21.2725 C   0  0  0  0  0  0  0  0  0  0  0  0
  -34.2415  -32.0224   17.8441 C   0  0  0  0  0  0  0  0  0  0  0  0
  -33.0082  -29.8447   19.0619 C   0  0  0  0  0  0  0  0  0  0  0  0
  -28.6584  -27.2617   18.8331 C   0  0  0  0  0  0  0  0  0  0  0  0
  -28.0317  -20.6043   20.2516 C   0  0  0  0  0  0  0  0  0  0  0  0
  -25.8237  -12.0749   20.5105 C   0  0  0  0  0  0  0  0  0  0  0  0
  -24.2306  -13.7336   21.2506 C   0  0  0  0  0  0  0  0  0  0  0  0
  -28.7128  -25.8970   19.1130 C   0  0  0  0  0  0  0  0  0  0  0  0
  -21.1575  -11.8020   21.0430 C   0  0  0  0  0  0  0  0  0  0  0  0
  -19.9362  -12.1572   20.4704 C   0  0  0  0  0  0  0  0  0  0  0  0
  -27.9098  -26.3291   21.3463 C   0  0  0  0  0  0  0  0  0  0  0  0
  -21.0470  -12.5884   18.3686 C   0  0  0  0  0  0  0  0  0  0  0  0
  -26.7617  -19.5403   21.9579 C   0  0  0  0  0  0  0  0  0  0  0  0
  -26.5433  -14.3457   20.9134 C   0  0  0  0  0  0  0  0  0  0  0  0
  -27.9787  -16.1855   19.8825 C   0  0  0  0  0  0  0  0  0  0  0  0
  -33.4347  -32.2317   18.9737 C   0  0  0  0  0  0  0  0  0  0  0  0
  -28.2390  -28.1730   19.8129 C   0  0  0  0  0  0  0  0  0  0  0  0
  -32.8184  -31.1301   19.5973 C   0  0  0  0  0  0  0  0  0  0  0  0
  -27.8485  -27.7046   21.0755 C   0  0  0  0  0  0  0  0  0  0  0  0
  -28.7622  -21.2522   21.2415 C   0  0  0  0  0  0  0  0  0  0  0  0
  -24.5218  -12.4237   20.8696 C   0  0  0  0  0  0  0  0  0  0  0  0
  -28.3413  -25.4308   20.3706 C   0  0  0  0  0  0  0  0  0  0  0  0
  -22.3236  -11.8400   20.2784 C   0  0  0  0  0  0  0  0  0  0  0  0
  -19.8809  -12.5504   19.1332 C   0  0  0  0  0  0  0  0  0  0  0  0
  -22.2683  -12.2332   18.9412 C   0  0  0  0  0  0  0  0  0  0  0  0
  -27.5871  -15.3387   20.9368 C   0  0  0  0  0  0  0  0  0  0  0  0
  -28.4346  -20.9941   22.5629 C   0  0  0  0  0  0  0  0  0  0  0  0
  -29.0025  -16.9359   20.4070 C   0  0  0  0  0  0  0  0  0  0  0  0
  -27.4629  -16.2848   18.5484 C   0  0  0  0  0  0  0  0  0  0  0  0
  -29.5858  -30.6291   21.3155 C   0  0  0  0  0  0  0  0  0  0  0  0
  -26.6057  -31.0130   22.5377 C   0  0  0  0  0  0  0  0  0  0  0  0
  -23.5950  -29.6127   23.3259 C   0  0  0  0  0  0  0  0  0  0  0  0
  -30.4458  -18.5224   25.9972 C   0  0  0  0  0  0  0  0  0  0  0  0
  -33.3081  -33.6293   19.5264 C   0  0  0  0  0  0  0  0  0  0  0  0
  -28.1604  -29.6393   19.4867 C   0  0  0  0  0  0  0  0  0  0  0  0
  -27.3716  -28.6397   22.1556 C   0  0  0  0  0  0  0  0  0  0  0  0
  -32.1462  -33.7953   20.5025 C   0  0  0  0  0  0  0  0  0  0  0  0
  -32.4862  -16.7481   23.6810 C   0  0  0  0  0  0  0  0  0  0  0  0
  -32.1275  -32.6500   21.5099 C   0  0  0  0  0  0  0  0  0  0  0  0
  -31.4974  -16.2621   22.6199 C   0  0  0  0  0  0  0  0  0  0  0  0
  -31.8735  -16.7181   25.0794 C   0  0  0  0  0  0  0  0  0  0  0  0
  -29.6034  -16.9509   24.1487 C   0  0  0  0  0  0  0  0  0  0  0  0
  -28.7242  -23.0199   24.1598 C   0  0  0  0  0  0  0  0  0  0  0  0
  -31.9271  -31.3013   20.8082 C   0  0  1  0  0  0  0  0  0  0  0  0
  -29.1942  -21.6672   23.6604 C   0  0  1  0  0  0  0  0  0  0  0  0
  -28.2080  -30.5301   20.7242 C   0  0  1  0  0  0  0  0  0  0  0  0
  -30.1573  -17.0161   22.7151 C   0  0  2  0  0  0  0  0  0  0  0  0
  -21.3714  -30.1679   24.3481 C   0  0  0  0  0  0  0  0  0  0  0  0
  -27.8745  -30.9747   25.3124 C   0  0  0  0  0  0  0  0  0  0  0  0
  -25.5969  -30.5750   26.2721 C   0  0  0  0  0  0  0  0  0  0  0  0
  -26.0673  -32.6777   25.0151 C   0  0  0  0  0  0  0  0  0  0  0  0
  -22.1490  -28.9293   20.8357 C   0  0  0  0  0  0  0  0  0  0  0  0
  -29.8717  -22.2007   20.8573 C   0  0  0  0  0  0  0  0  0  0  0  0
  -28.9034  -20.2913   26.8044 C   0  0  0  0  0  0  0  0  0  0  0  0
  -29.2792  -21.6179   26.1712 C   0  0  0  0  0  0  0  0  0  0  0  0
  -29.3824  -23.3323   19.9600 C   0  0  0  0  0  0  0  0  0  1  0  0
  -25.8736  -30.4959   23.7525 C   0  0  1  0  0  0  0  0  0  0  0  0
  -22.1716  -30.0678   23.0588 C   0  0  2  0  0  0  0  0  0  0  0  0
  -26.3639  -31.1632   25.0685 C   0  0  0  0  0  0  0  0  0  0  0  0
  -27.4498  -20.1518   22.9480 N   0  0  0  0  0  0  0  0  0  0  0  0
  -28.3039  -15.5324   22.0471 N   0  0  0  0  0  0  0  0  0  0  0  0
  -29.1562  -16.5094   21.6933 N   0  0  0  0  0  0  0  0  0  0  0  0
  -27.3184  -30.0648   21.7901 N   0  0  0  0  0  0  0  0  0  0  0  0
  -30.6059  -17.4520   25.1019 N   0  0  0  0  0  0  0  0  0  0  0  0
  -29.7773  -17.9124   19.8887 N   0  0  0  0  0  0  0  0  0  0  0  0
  -26.4097  -15.4391   18.1745 N   0  0  0  0  0  0  0  0  0  0  0  0
  -30.5379  -31.1226   20.4440 N   0  0  0  0  0  0  0  0  0  0  0  0
  -24.4521  -30.6814   23.4820 N   0  0  0  0  0  0  0  0  0  0  0  0
  -29.2163  -19.1681   25.9492 N   0  0  0  0  0  0  0  0  0  0  0  0
  -28.5093  -21.8155   24.9396 N   0  3  1  0  0  0  0  0  0  0  0  0
  -21.4824  -29.1073   22.1513 N   0  3  0  0  0  0  0  0  0  0  0  0
  -27.9334  -17.0881   17.7076 O   0  0  0  0  0  0  0  0  0  0  0  0
  -29.7711  -30.2847   22.4768 O   0  0  0  0  0  0  0  0  0  0  0  0
  -26.5416  -32.2128   22.2583 O   0  0  0  0  0  0  0  0  0  0  0  0
  -23.9138  -28.4276   23.3933 O   0  0  0  0  0  0  0  0  0  0  0  0
  -31.3347  -18.8799   26.7776 O   0  0  0  0  0  0  0  0  0  0  0  0
  -23.5352  -11.4863   20.8481 O   0  0  0  0  0  0  0  0  0  0  0  0
  -28.3941  -24.0993   20.6466 O   0  0  0  0  0  0  0  0  0  1  0  0
  -18.7078  -12.8900   18.5831 F   0  0  0  0  0  0  0  0  0  0  0  0
  -23.3850  -12.2705   18.2014 F   0  0  0  0  0  0  0  0  0  0  0  0
  1  2  1  0  0  0  0
  1  6  2  0  0  0  0
  2  7  2  0  0  0  0
  3  9  2  0  0  0  0
  3 17  1  0  0  0  0
  4 10  2  0  0  0  0
  4 18  1  0  0  0  0
  5 11  1  0  0  0  0
  5 18  2  0  0  0  0
  6 20  1  0  0  0  0
  7 22  1  0  0  0  0
  8 12  2  0  0  0  0
  8 21  1  0  0  0  0
  9 24  1  0  0  0  0
 10 25  1  0  0  0  0
 11 25  2  0  0  0  0
 12 26  1  0  0  0  0
 13 14  2  0  0  0  0
 13 27  1  0  0  0  0
 14 28  1  0  0  0  0
 15 23  1  0  0  0  0
 15 26  2  0  0  0  0
 16 28  2  0  0  0  0
 16 29  1  0  0  0  0
 17 64  2  0  0  0  0
 18 30  1  0  0  0  0
 19 30  1  0  0  0  0
 19 32  2  0  0  0  0
 19 33  1  0  0  0  0
 20 22  2  0  0  0  0
 20 38  1  0  0  0  0
 21 23  2  0  0  0  0
 21 39  1  0  0  0  0
 22 48  1  0  0  0  0
 23 40  1  0  0  0  0
 24 31  2  0  0  0  0
 24 57  1  0  0  0  0
 25 81  1  0  0  0  0
 26 82  1  0  0  0  0
 27 29  2  0  0  0  0
 27 81  1  0  0  0  0
 28 83  1  0  0  0  0
 29 84  1  0  0  0  0
 30 65  2  0  0  0  0
 31 49  1  0  0  0  0
 31 64  1  0  0  0  0
 32 66  1  0  0  0  0
 32 69  1  0  0  0  0
 33 70  1  0  0  0  0
 33 76  2  0  0  0  0
 34 50  1  0  0  0  0
 34 71  1  0  0  0  0
 34 77  2  0  0  0  0
 35 61  1  0  0  0  0
 35 67  1  0  0  0  0
 35 78  2  0  0  0  0
 36 62  1  0  0  0  0
 36 72  1  0  0  0  0
 36 79  2  0  0  0  0
 37 68  1  0  0  0  0
 37 73  1  0  0  0  0
 37 80  2  0  0  0  0
 38 41  1  0  0  0  0
 39 50  1  0  0  0  0
 40 67  1  0  0  0  0
 41 43  1  0  0  0  0
 42 44  1  0  0  0  0
 42 45  1  0  0  0  0
 43 48  1  0  0  0  0
 44 51  1  0  0  0  0
 45 68  1  0  0  0  0
 46 51  1  0  0  0  0
 46 68  1  0  0  0  0
 47 49  1  0  0  0  0
 47 74  1  0  0  0  0
 48 71  1  0  0  0  0
 49 74  1  0  0  0  0
 50 67  1  0  0  0  0
 51 66  1  0  0  0  0
 52 62  1  0  0  0  0
 53 63  1  0  0  0  0
 54 63  1  0  0  0  0
 55 63  1  0  0  0  0
 56 75  1  0  0  0  0
 57 60  1  0  0  0  0
 58 59  1  0  0  0  0
 58 73  1  0  0  0  0
 59 74  1  0  0  0  0
 60 82  1  0  0  0  0
 61 63  1  0  0  0  0
 61 72  1  0  0  0  0
 62 75  1  0  0  0  0
 65 66  1  0  0  0  0
M  CHG  2  74   1  75   1
M  ISO  4  37 100  60 101  73 100  82 101
M  END
> <Batch ID>
0190

> <Smiles>
CNC(C)C(=O)NC(C(=O)N1Cc2cc([101O:1][101CH2:1]Cc3cccnc3C3CN3CC[100NH:0][100C:0](=O)N3CCCC(n4nc(-c5ccc(Oc6ccc(F)cc6F)cc5)c(C(N)=O)c4N)C3)ccc2CC1C(=O)NC1CCCc2ccccc21)C(C)(C)C

> <Shape>
0.222

> <Color>
0.070

> <Negative vol penalty>
0.000

$$$$

  -OEChem-04052323243D

 84 93  0     1  0  0  0  0  0999 V2000
  -29.5275  -36.0740   24.4428 C   0  0  0  0  0  0  0  0  0  0  0  0
  -29.5991  -34.9796   23.5870 C   0  0  0  0  0  0  0  0  0  0  0  0
  -22.7050  -12.7848   23.3032 C   0  0  0  0  0  0  0  0  0  0  0  0
  -21.8319  -13.7249   21.2560 C   0  0  0  0  0  0  0  0  0  0  0  0
  -28.5891  -36.0910   25.4739 C   0  0  0  0  0  0  0  0  0  0  0  0
  -28.7330  -33.9009   23.7624 C   0  0  0  0  0  0  0  0  0  0  0  0
  -26.2900  -30.3905   19.3789 C   0  0  0  0  0  0  0  0  0  0  0  0
  -21.4790  -13.0098   23.9294 C   0  0  0  0  0  0  0  0  0  0  0  0
  -20.6059  -13.9499   21.8821 C   0  0  0  0  0  0  0  0  0  0  0  0
  -26.6410  -29.1387   18.8753 C   0  0  0  0  0  0  0  0  0  0  0  0
  -18.4297  -11.5523   24.0317 C   0  0  0  0  0  0  0  0  0  0  0  0
  -17.9027  -10.5242   24.8132 C   0  0  0  0  0  0  0  0  0  0  0  0
  -25.0346  -28.1030   20.3470 C   0  0  0  0  0  0  0  0  0  0  0  0
  -17.9370  -11.9749   26.7449 C   0  0  0  0  0  0  0  0  0  0  0  0
  -31.8528  -24.0655   19.0700 C   0  0  0  0  0  0  0  0  0  0  0  0
  -22.8814  -13.1425   21.9665 C   0  0  0  0  0  0  0  0  0  0  0  0
  -24.5460  -11.7563   20.6191 C   0  0  0  0  0  0  0  0  0  0  0  0
  -27.7046  -35.0162   25.6560 C   0  0  0  0  0  0  0  0  0  0  0  0
  -25.3148  -30.5072   20.3798 C   0  0  0  0  0  0  0  0  0  0  0  0
  -27.7828  -33.9029   24.7977 C   0  0  0  0  0  0  0  0  0  0  0  0
  -24.6712  -29.3576   20.8598 C   0  0  0  0  0  0  0  0  0  0  0  0
  -20.4295  -13.5923   23.2188 C   0  0  0  0  0  0  0  0  0  0  0  0
  -26.0153  -27.9945   19.3614 C   0  0  0  0  0  0  0  0  0  0  0  0
  -18.7105  -12.7918   24.6068 C   0  0  0  0  0  0  0  0  0  0  0  0
  -17.6563  -10.7355   26.1698 C   0  0  0  0  0  0  0  0  0  0  0  0
  -18.4641  -13.0031   25.9634 C   0  0  0  0  0  0  0  0  0  0  0  0
  -24.1478  -12.9108   21.3194 C   0  0  0  0  0  0  0  0  0  0  0  0
  -25.8244  -12.0329   20.1999 C   0  0  0  0  0  0  0  0  0  0  0  0
  -30.4423  -22.3934   18.5689 C   0  0  0  0  0  0  0  0  0  0  0  0
  -29.6369  -24.3776   19.2407 C   0  0  0  0  0  0  0  0  0  0  0  0
  -23.8248  -10.5425   20.3698 C   0  0  0  0  0  0  0  0  0  0  0  0
  -25.2886  -31.5792   23.3721 C   0  0  0  0  0  0  0  0  0  0  0  0
  -22.0965  -31.0617   23.1171 C   0  0  0  0  0  0  0  0  0  0  0  0
  -19.5456  -29.3910   21.5845 C   0  0  0  0  0  0  0  0  0  0  0  0
  -28.4650  -17.2829   19.1682 C   0  0  0  0  0  0  0  0  0  0  0  0
  -26.7389  -35.0590   26.8137 C   0  0  0  0  0  0  0  0  0  0  0  0
  -24.9285  -31.8671   20.8935 C   0  0  0  0  0  0  0  0  0  0  0  0
  -23.6034  -29.4306   21.9195 C   0  0  0  0  0  0  0  0  0  0  0  0
  -25.6070  -34.0411   26.7007 C   0  0  0  0  0  0  0  0  0  0  0  0
  -29.6910  -14.5661   21.3578 C   0  0  0  0  0  0  0  0  0  0  0  0
  -26.1566  -32.6728   26.3102 C   0  0  0  0  0  0  0  0  0  0  0  0
  -28.4106  -13.7658   21.5738 C   0  0  0  0  0  0  0  0  0  0  0  0
  -29.4170  -16.0627   21.2137 C   0  0  0  0  0  0  0  0  0  0  0  0
  -27.1341  -15.5804   20.3709 C   0  0  0  0  0  0  0  0  0  0  0  0
  -31.0858  -19.9701   18.3587 C   0  0  0  0  0  0  0  0  0  0  0  0
  -29.0183  -20.3407   18.2701 C   0  0  0  0  0  0  0  0  0  0  0  0
  -26.8439  -32.7247   24.9404 C   0  0  1  0  0  0  0  0  0  0  0  0
  -24.2885  -31.8233   22.2776 C   0  0  1  0  0  0  0  0  0  0  0  0
  -27.3904  -14.0689   20.4663 C   0  0  2  0  0  0  0  0  0  0  0  0
  -29.8672  -19.0728   18.1003 C   0  0  0  0  0  0  0  0  0  0  0  0
  -17.0479  -29.1512   21.6168 C   0  0  0  0  0  0  0  0  0  0  0  0
  -22.2933  -29.3787   25.6546 C   0  0  0  0  0  0  0  0  0  0  0  0
  -20.0471  -28.4176   25.1080 C   0  0  0  0  0  0  0  0  0  0  0  0
  -20.2837  -30.8630   25.5405 C   0  0  0  0  0  0  0  0  0  0  0  0
  -19.3038  -30.3236   18.7862 C   0  0  0  0  0  0  0  0  0  0  0  0
  -26.2356  -25.6601   19.7591 C   0  0  0  0  0  0  0  0  0  1  0  0
  -27.2759  -24.6191   19.3934 C   0  0  0  0  0  0  0  0  0  0  0  0
  -21.1782  -29.8935   23.3836 C   0  0  1  0  0  0  0  0  0  0  0  0
  -18.2325  -29.8766   20.9978 C   0  0  2  0  0  0  0  0  0  0  0  0
  -20.9721  -29.6363   24.9031 C   0  0  0  0  0  0  0  0  0  0  0  0
  -31.7207  -22.7937   18.6596 N   0  0  0  0  0  0  0  0  0  0  0  0
  -30.8596  -24.9152   19.3778 N   0  0  0  0  0  0  0  0  0  0  0  0
  -25.0964  -13.8507   21.3458 N   0  0  0  0  0  0  0  0  0  0  0  0
  -29.3516  -23.1275   18.8422 N   0  0  0  0  0  0  0  0  0  0  0  0
  -26.1034  -13.2872   20.6571 N   0  0  0  0  0  0  0  0  0  0  0  0
  -30.2225  -21.0655   18.1426 N   0  0  0  0  0  0  0  0  0  0  0  0
  -23.2651  -30.7824   22.3945 N   0  0  0  0  0  0  0  0  0  0  0  0
  -28.3834  -16.3325   20.2016 N   0  0  0  0  0  0  0  0  0  0  0  0
  -26.7258  -11.3230   19.4887 N   0  0  0  0  0  0  0  0  0  0  0  0
  -22.5217  -10.4244   20.8721 N   0  0  0  0  0  0  0  0  0  0  0  0
  -25.8586  -32.7308   23.8805 N   0  0  0  0  0  0  0  0  0  0  0  0
  -19.9464  -30.1672   22.6514 N   0  0  0  0  0  0  0  0  0  0  0  0
  -29.6373  -18.0311   19.1221 N   0  0  0  0  0  0  0  0  0  0  0  0
  -18.2068  -29.6475   19.5255 N   0  3  0  0  0  0  0  0  0  0  0  0
  -24.3272   -9.5844   19.7348 O   0  0  0  0  0  0  0  0  0  0  0  0
  -25.5246  -30.4311   23.7299 O   0  0  0  0  0  0  0  0  0  0  0  0
  -21.7848  -32.1820   23.5286 O   0  0  0  0  0  0  0  0  0  0  0  0
  -20.1531  -28.4180   21.1431 O   0  0  0  0  0  0  0  0  0  0  0  0
  -27.5592  -17.4622   18.3468 O   0  0  0  0  0  0  0  0  0  0  0  0
  -19.2330  -13.8117   23.8294 O   0  0  0  0  0  0  0  0  0  0  0  0
  -26.3564  -26.7713   18.8720 O   0  0  0  0  0  0  0  0  0  1  0  0
  -28.5721  -25.1869   19.5380 O   0  0  0  0  0  0  0  0  0  0  0  0
  -17.1487   -9.7486   26.9198 F   0  0  0  0  0  0  0  0  0  0  0  0
  -18.7307  -14.1920   26.5212 F   0  0  0  0  0  0  0  0  0  0  0  0
  1  2  1  0  0  0  0
  1  5  2  0  0  0  0
  2  6  2  0  0  0  0
  3  8  2  0  0  0  0
  3 16  1  0  0  0  0
  4  9  1  0  0  0  0
  4 16  2  0  0  0  0
  5 18  1  0  0  0  0
  6 20  1  0  0  0  0
  7 10  2  0  0  0  0
  7 19  1  0  0  0  0
  8 22  1  0  0  0  0
  9 22  2  0  0  0  0
 10 23  1  0  0  0  0
 11 12  2  0  0  0  0
 11 24  1  0  0  0  0
 12 25  1  0  0  0  0
 13 21  1  0  0  0  0
 13 23  2  0  0  0  0
 14 25  2  0  0  0  0
 14 26  1  0  0  0  0
 15 61  1  0  0  0  0
 15 62  2  0  0  0  0
 16 27  1  0  0  0  0
 17 27  1  0  0  0  0
 17 28  2  0  0  0  0
 17 31  1  0  0  0  0
 18 20  2  0  0  0  0
 18 36  1  0  0  0  0
 19 21  2  0  0  0  0
 19 37  1  0  0  0  0
 20 47  1  0  0  0  0
 21 38  1  0  0  0  0
 22 80  1  0  0  0  0
 23 81  1  0  0  0  0
 24 26  2  0  0  0  0
 24 80  1  0  0  0  0
 25 83  1  0  0  0  0
 26 84  1  0  0  0  0
 27 63  2  0  0  0  0
 28 65  1  0  0  0  0
 28 69  1  0  0  0  0
 29 61  2  0  0  0  0
 29 64  1  0  0  0  0
 29 66  1  0  0  0  0
 30 62  1  0  0  0  0
 30 64  2  0  0  0  0
 30 82  1  0  0  0  0
 31 70  1  0  0  0  0
 31 75  2  0  0  0  0
 32 48  1  0  0  0  0
 32 71  1  0  0  0  0
 32 76  2  0  0  0  0
 33 58  1  0  0  0  0
 33 67  1  0  0  0  0
 33 77  2  0  0  0  0
 34 59  1  0  0  0  0
 34 72  1  0  0  0  0
 34 78  2  0  0  0  0
 35 68  1  0  0  0  0
 35 73  1  0  0  0  0
 35 79  2  0  0  0  0
 36 39  1  0  0  0  0
 37 48  1  0  0  0  0
 38 67  1  0  0  0  0
 39 41  1  0  0  0  0
 40 42  1  0  0  0  0
 40 43  1  0  0  0  0
 41 47  1  0  0  0  0
 42 49  1  0  0  0  0
 43 68  1  0  0  0  0
 44 49  1  0  0  0  0
 44 68  1  0  0  0  0
 45 50  1  0  0  0  0
 45 66  1  0  0  0  0
 46 50  1  0  0  0  0
 46 66  1  0  0  0  0
 47 71  1  0  0  0  0
 48 67  1  0  0  0  0
 49 65  1  0  0  0  0
 50 73  1  0  0  0  0
 51 59  1  0  0  0  0
 52 60  1  0  0  0  0
 53 60  1  0  0  0  0
 54 60  1  0  0  0  0
 55 74  1  0  0  0  0
 56 57  1  0  0  0  0
 56 81  1  0  0  0  0
 57 82  1  0  0  0  0
 58 60  1  0  0  0  0
 58 72  1  0  0  0  0
 59 74  1  0  0  0  0
 63 65  1  0  0  0  0
M  CHG  1  74   1
M  ISO  4  35 100  56 101  73 100  81 101
M  END
> <Batch ID>
0190

> <Smiles>
CNC(C)C(=O)NC(C(=O)N1Cc2cc([101O:1][101CH2:1]COc3ncnc(N4CC([100NH:0][100C:0](=O)N5CCCC(n6nc(-c7ccc(Oc8ccc(F)cc8F)cc7)c(C(N)=O)c6N)C5)C4)n3)ccc2CC1C(=O)NC1CCCc2ccccc21)C(C)(C)C

> <Shape>
0.275

> <Color>
0.076

> <Negative vol penalty>
0.000

$$$$

  -OEChem-04052323243D

 83 92  0     1  0  0  0  0  0999 V2000
  -18.4687  -30.2841   26.6301 C   0  0  0  0  0  0  0  0  0  0  0  0
  -19.7634  -29.7751   26.6347 C   0  0  0  0  0  0  0  0  0  0  0  0
  -24.4267  -10.4780   22.0238 C   0  0  0  0  0  0  0  0  0  0  0  0
  -23.7175  -10.7119   19.7261 C   0  0  0  0  0  0  0  0  0  0  0  0
  -17.7082  -30.2412   25.4623 C   0  0  0  0  0  0  0  0  0  0  0  0
  -20.2980  -29.2218   25.4717 C   0  0  0  0  0  0  0  0  0  0  0  0
  -26.5153  -28.4693   21.9938 C   0  0  0  0  0  0  0  0  0  0  0  0
  -23.1696   -9.9765   22.3609 C   0  0  0  0  0  0  0  0  0  0  0  0
  -22.4603  -10.2104   20.0632 C   0  0  0  0  0  0  0  0  0  0  0  0
  -27.3139  -27.4831   21.4165 C   0  0  0  0  0  0  0  0  0  0  0  0
  -21.5070   -7.0434   22.1043 C   0  0  0  0  0  0  0  0  0  0  0  0
  -21.4574   -5.9140   22.9214 C   0  0  0  0  0  0  0  0  0  0  0  0
  -25.9361  -27.5347   19.4370 C   0  0  0  0  0  0  0  0  0  0  0  0
  -20.2135   -7.1637   24.5732 C   0  0  0  0  0  0  0  0  0  0  0  0
  -31.4621  -23.9855   18.3486 C   0  0  0  0  0  0  0  0  0  0  0  0
  -24.7007  -10.8457   20.7064 C   0  0  0  0  0  0  0  0  0  0  0  0
  -27.1228  -10.6290   19.9358 C   0  0  0  0  0  0  0  0  0  0  0  0
  -18.2372  -29.6958   24.2818 C   0  0  0  0  0  0  0  0  0  0  0  0
  -25.4127  -28.9887   21.3003 C   0  0  0  0  0  0  0  0  0  0  0  0
  -19.5434  -29.1703   24.2874 C   0  0  0  0  0  0  0  0  0  0  0  0
  -25.1265  -28.5292   20.0068 C   0  0  0  0  0  0  0  0  0  0  0  0
  -22.1863   -9.8427   21.3806 C   0  0  0  0  0  0  0  0  0  0  0  0
  -27.0227  -27.0136   20.1390 C   0  0  0  0  0  0  0  0  0  0  0  0
  -20.9100   -8.2330   22.5217 C   0  0  0  0  0  0  0  0  0  0  0  0
  -20.8106   -5.9741   24.1558 C   0  0  0  0  0  0  0  0  0  0  0  0
  -20.2633   -8.2931   23.7561 C   0  0  0  0  0  0  0  0  0  0  0  0
  -25.9990  -11.3643   20.3578 C   0  0  0  0  0  0  0  0  0  0  0  0
  -28.0959  -11.5764   19.7310 C   0  0  0  0  0  0  0  0  0  0  0  0
  -29.6585  -24.5534   19.5573 C   0  0  0  0  0  0  0  0  0  0  0  0
  -29.8374  -22.4811   18.7146 C   0  0  0  0  0  0  0  0  0  0  0  0
  -27.2737   -9.2159   19.7458 C   0  0  0  0  0  0  0  0  0  0  0  0
  -22.2744  -29.0519   21.8014 C   0  0  0  0  0  0  0  0  0  0  0  0
  -22.2859  -30.9501   19.1710 C   0  0  0  0  0  0  0  0  0  0  0  0
  -23.8571  -31.9095   16.2974 C   0  0  0  0  0  0  0  0  0  0  0  0
  -28.0034  -17.1794   18.3075 C   0  0  0  0  0  0  0  0  0  0  0  0
  -17.3602  -29.6285   23.0567 C   0  0  0  0  0  0  0  0  0  0  0  0
  -24.5769  -30.0712   21.9264 C   0  0  0  0  0  0  0  0  0  0  0  0
  -23.9663  -29.0686   19.2122 C   0  0  0  0  0  0  0  0  0  0  0  0
  -18.1341  -29.3657   21.7674 C   0  0  0  0  0  0  0  0  0  0  0  0
  -29.4988  -15.8965   21.2156 C   0  0  0  0  0  0  0  0  0  0  0  0
  -19.1316  -28.2288   21.9658 C   0  0  0  0  0  0  0  0  0  0  0  0
  -28.8753  -14.5030   21.2884 C   0  0  0  0  0  0  0  0  0  0  0  0
  -28.4837  -16.9567   20.7854 C   0  0  0  0  0  0  0  0  0  0  0  0
  -30.0774  -20.2059   17.7689 C   0  0  0  0  0  0  0  0  0  0  0  0
  -28.4374  -20.6663   19.5977 C   0  0  0  0  0  0  0  0  0  0  0  0
  -29.1729  -19.0844   17.2651 C   0  0  0  0  0  0  0  0  0  0  0  0
  -27.5570  -19.5464   19.0545 C   0  0  0  0  0  0  0  0  0  0  0  0
  -27.1545  -15.2421   19.5973 C   0  0  0  0  0  0  0  0  0  0  0  0
  -20.1673  -28.5846   23.0393 C   0  0  1  0  0  0  0  0  0  0  0  0
  -23.1740  -30.1609   21.3339 C   0  0  1  0  0  0  0  0  0  0  0  0
  -28.1648  -14.1462   19.9707 C   0  0  2  0  0  0  0  0  0  0  0  0
  -23.6054  -33.4548   14.3362 C   0  0  0  0  0  0  0  0  0  0  0  0
  -20.2115  -29.0696   17.9586 C   0  0  0  0  0  0  0  0  0  0  0  0
  -20.7054  -30.0795   15.7216 C   0  0  0  0  0  0  0  0  0  0  0  0
  -19.7807  -31.4993   17.5523 C   0  0  0  0  0  0  0  0  0  0  0  0
  -26.3427  -33.3651   16.9774 C   0  0  0  0  0  0  0  0  0  0  0  0
  -28.8983  -25.5659   20.3446 C   0  0  0  0  0  0  0  0  0  1  0  0
  -22.1810  -30.7162   17.6833 C   0  0  1  0  0  0  0  0  0  0  0  0
  -24.1775  -33.2826   15.7347 C   0  0  2  0  0  0  0  0  0  0  0  0
  -20.7404  -30.3294   17.2444 C   0  0  0  0  0  0  0  0  0  0  0  0
  -30.8345  -24.9481   19.0435 N   0  0  0  0  0  0  0  0  0  0  0  0
  -31.0259  -22.7323   18.1425 N   0  0  0  0  0  0  0  0  0  0  0  0
  -26.2350  -12.6776   20.4181 N   0  0  0  0  0  0  0  0  0  0  0  0
  -29.0975  -23.3396   19.4346 N   0  0  0  0  0  0  0  0  0  0  0  0
  -27.5184  -12.7749   20.0314 N   0  0  0  0  0  0  0  0  0  0  0  0
  -29.3168  -21.1919   18.5443 N   0  0  0  0  0  0  0  0  0  0  0  0
  -23.1750  -30.1215   19.8701 N   0  0  0  0  0  0  0  0  0  0  0  0
  -27.8034  -16.5540   19.5472 N   0  0  0  0  0  0  0  0  0  0  0  0
  -28.3397  -18.5420   18.3314 N   0  0  0  0  0  0  0  0  0  0  0  0
  -29.3807  -11.4929   19.3251 N   0  0  0  0  0  0  0  0  0  0  0  0
  -26.1735   -8.3862   20.0017 N   0  0  0  0  0  0  0  0  0  0  0  0
  -21.1642  -29.4850   22.5009 N   0  0  0  0  0  0  0  0  0  0  0  0
  -22.6974  -31.9211   17.0432 N   0  0  0  0  0  0  0  0  0  0  0  0
  -25.6527  -33.4833   15.6671 N   0  3  0  0  0  0  0  0  0  0  0  0
  -28.3569   -8.7026   19.3763 O   0  0  0  0  0  0  0  0  0  0  0  0
  -22.5653  -27.8894   21.5451 O   0  0  0  0  0  0  0  0  0  0  0  0
  -21.6095  -31.8402   19.6924 O   0  0  0  0  0  0  0  0  0  0  0  0
  -24.5629  -30.9244   16.0925 O   0  0  0  0  0  0  0  0  0  0  0  0
  -27.8919  -16.5592   17.2427 O   0  0  0  0  0  0  0  0  0  0  0  0
  -20.9595   -9.3532   21.7091 O   0  0  0  0  0  0  0  0  0  0  0  0
  -27.8055  -26.0440   19.5695 O   0  0  0  0  0  0  0  0  0  1  0  0
  -20.7616   -4.8891   24.9396 F   0  0  0  0  0  0  0  0  0  0  0  0
  -19.6868   -9.4328   24.1619 F   0  0  0  0  0  0  0  0  0  0  0  0
  1  2  1  0  0  0  0
  1  5  2  0  0  0  0
  2  6  2  0  0  0  0
  3  8  2  0  0  0  0
  3 16  1  0  0  0  0
  4  9  1  0  0  0  0
  4 16  2  0  0  0  0
  5 18  1  0  0  0  0
  6 20  1  0  0  0  0
  7 10  2  0  0  0  0
  7 19  1  0  0  0  0
  8 22  1  0  0  0  0
  9 22  2  0  0  0  0
 10 23  1  0  0  0  0
 11 12  2  0  0  0  0
 11 24  1  0  0  0  0
 12 25  1  0  0  0  0
 13 21  1  0  0  0  0
 13 23  2  0  0  0  0
 14 25  2  0  0  0  0
 14 26  1  0  0  0  0
 15 61  2  0  0  0  0
 15 62  1  0  0  0  0
 16 27  1  0  0  0  0
 17 27  1  0  0  0  0
 17 28  2  0  0  0  0
 17 31  1  0  0  0  0
 18 20  2  0  0  0  0
 18 36  1  0  0  0  0
 19 21  2  0  0  0  0
 19 37  1  0  0  0  0
 20 49  1  0  0  0  0
 21 38  1  0  0  0  0
 22 80  1  0  0  0  0
 23 81  1  0  0  0  0
 24 26  2  0  0  0  0
 24 80  1  0  0  0  0
 25 82  1  0  0  0  0
 26 83  1  0  0  0  0
 27 63  2  0  0  0  0
 28 65  1  0  0  0  0
 28 70  1  0  0  0  0
 29 57  1  0  0  0  0
 29 61  1  0  0  0  0
 29 64  2  0  0  0  0
 30 62  2  0  0  0  0
 30 64  1  0  0  0  0
 30 66  1  0  0  0  0
 31 71  1  0  0  0  0
 31 75  2  0  0  0  0
 32 50  1  0  0  0  0
 32 72  1  0  0  0  0
 32 76  2  0  0  0  0
 33 58  1  0  0  0  0
 33 67  1  0  0  0  0
 33 77  2  0  0  0  0
 34 59  1  0  0  0  0
 34 73  1  0  0  0  0
 34 78  2  0  0  0  0
 35 68  1  0  0  0  0
 35 69  1  0  0  0  0
 35 79  2  0  0  0  0
 36 39  1  0  0  0  0
 37 50  1  0  0  0  0
 38 67  1  0  0  0  0
 39 41  1  0  0  0  0
 40 42  1  0  0  0  0
 40 43  1  0  0  0  0
 41 49  1  0  0  0  0
 42 51  1  0  0  0  0
 43 68  1  0  0  0  0
 44 46  1  0  0  0  0
 44 66  1  0  0  0  0
 45 47  1  0  0  0  0
 45 66  1  0  0  0  0
 46 69  1  0  0  0  0
 47 69  1  0  0  0  0
 48 51  1  0  0  0  0
 48 68  1  0  0  0  0
 49 72  1  0  0  0  0
 50 67  1  0  0  0  0
 51 65  1  0  0  0  0
 52 59  1  0  0  0  0
 53 60  1  0  0  0  0
 54 60  1  0  0  0  0
 55 60  1  0  0  0  0
 56 74  1  0  0  0  0
 57 81  1  0  0  0  0
 58 60  1  0  0  0  0
 58 73  1  0  0  0  0
 59 74  1  0  0  0  0
 63 65  1  0  0  0  0
M  CHG  1  74   1
M  ISO  4  35 100  57 101  69 100  81 101
M  END
> <Batch ID>
0190

> <Smiles>
CNC(C)C(=O)NC(C(=O)N1Cc2cc([101O:1][101CH2:1]c3ncnc(N4CC[100N:0]([100C:0](=O)N5CCCC(n6nc(-c7ccc(Oc8ccc(F)cc8F)cc7)c(C(N)=O)c6N)C5)CC4)n3)ccc2CC1C(=O)NC1CCCc2ccccc21)C(C)(C)C

> <Shape>
0.287

> <Color>
0.091

> <Negative vol penalty>
0.000

$$$$

  -OEChem-04052323243D

 83 92  0     1  0  0  0  0  0999 V2000
  -17.0140  -30.1072   24.5171 C   0  0  0  0  0  0  0  0  0  0  0  0
  -18.2643  -30.2484   25.1106 C   0  0  0  0  0  0  0  0  0  0  0  0
  -33.6465  -27.6621   24.0288 C   0  0  0  0  0  0  0  0  0  0  0  0
  -26.4339  -18.1587   18.6962 C   0  0  0  0  0  0  0  0  0  0  0  0
  -27.1975  -17.5316   20.9009 C   0  0  0  0  0  0  0  0  0  0  0  0
  -16.8762  -29.3463   23.3570 C   0  0  0  0  0  0  0  0  0  0  0  0
  -19.3775  -29.6277   24.5448 C   0  0  0  0  0  0  0  0  0  0  0  0
  -33.6107  -26.3072   24.3581 C   0  0  0  0  0  0  0  0  0  0  0  0
  -26.4274  -30.5376   23.6576 C   0  0  0  0  0  0  0  0  0  0  0  0
  -32.4673  -28.4070   24.0111 C   0  0  0  0  0  0  0  0  0  0  0  0
  -26.3604  -16.8125   18.3386 C   0  0  0  0  0  0  0  0  0  0  0  0
  -27.1240  -16.1853   20.5434 C   0  0  0  0  0  0  0  0  0  0  0  0
  -27.6336  -29.8681   23.8593 C   0  0  0  0  0  0  0  0  0  0  0  0
  -24.7283  -13.8248   20.2132 C   0  0  0  0  0  0  0  0  0  0  0  0
  -24.1418  -12.9452   21.1232 C   0  0  0  0  0  0  0  0  0  0  0  0
  -31.2164  -26.4418   24.6518 C   0  0  0  0  0  0  0  0  0  0  0  0
  -27.2896  -28.6433   21.8097 C   0  0  0  0  0  0  0  0  0  0  0  0
  -26.2036  -11.6913   21.2402 C   0  0  0  0  0  0  0  0  0  0  0  0
  -26.8525  -18.5183   19.9773 C   0  0  0  0  0  0  0  0  0  0  0  0
  -25.9114  -20.6927   20.9227 C   0  0  0  0  0  0  0  0  0  0  0  0
  -32.3957  -25.6970   24.6695 C   0  0  0  0  0  0  0  0  0  0  0  0
  -17.9899  -28.7239   22.7713 C   0  0  0  0  0  0  0  0  0  0  0  0
  -25.6366  -30.2566   22.5341 C   0  0  0  0  0  0  0  0  0  0  0  0
  -19.2542  -28.8566   23.3765 C   0  0  0  0  0  0  0  0  0  0  0  0
  -26.0751  -29.3124   21.5947 C   0  0  0  0  0  0  0  0  0  0  0  0
  -31.2523  -27.7968   24.3225 C   0  0  0  0  0  0  0  0  0  0  0  0
  -26.7054  -15.8258   19.2622 C   0  0  0  0  0  0  0  0  0  0  0  0
  -28.0635  -28.9188   22.9368 C   0  0  0  0  0  0  0  0  0  0  0  0
  -26.0525  -13.6375   19.8167 C   0  0  0  0  0  0  0  0  0  0  0  0
  -24.8794  -11.8785   21.6367 C   0  0  0  0  0  0  0  0  0  0  0  0
  -26.7901  -12.5708   20.3301 C   0  0  0  0  0  0  0  0  0  0  0  0
  -26.9291  -19.9088   20.3470 C   0  0  0  0  0  0  0  0  0  0  0  0
  -26.4803  -21.9330   21.0794 C   0  0  0  0  0  0  0  0  0  0  0  0
  -24.5715  -20.3320   21.2837 C   0  0  0  0  0  0  0  0  0  0  0  0
  -22.7063  -29.1103   22.0836 C   0  0  0  0  0  0  0  0  0  0  0  0
  -23.3301  -29.8127   18.9788 C   0  0  0  0  0  0  0  0  0  0  0  0
  -25.6569  -30.3296   16.5363 C   0  0  0  0  0  0  0  0  0  0  0  0
  -32.1338  -23.7890   21.6762 C   0  0  0  0  0  0  0  0  0  0  0  0
  -17.7835  -27.8725   21.5436 C   0  0  0  0  0  0  0  0  0  0  0  0
  -24.3510  -31.0067   22.3173 C   0  0  0  0  0  0  0  0  0  0  0  0
  -25.2728  -28.9890   20.3618 C   0  0  0  0  0  0  0  0  0  0  0  0
  -19.0771  -27.5559   20.7974 C   0  0  0  0  0  0  0  0  0  0  0  0
  -29.8166  -24.7893   19.1778 C   0  0  0  0  0  0  0  0  0  0  0  0
  -20.1607  -27.1089   21.7735 C   0  0  0  0  0  0  0  0  0  0  0  0
  -28.7188  -23.7264   19.2477 C   0  0  0  0  0  0  0  0  0  0  0  0
  -33.2715  -22.0377   24.7981 C   0  0  0  0  0  0  0  0  0  0  0  0
  -31.1997  -24.1885   19.4191 C   0  0  0  0  0  0  0  0  0  0  0  0
  -30.2310  -22.3424   20.7304 C   0  0  0  0  0  0  0  0  0  0  0  0
  -33.8412  -22.5893   26.0902 C   0  0  0  0  0  0  0  0  0  0  0  0
  -20.4897  -28.2191   22.7788 C   0  0  1  0  0  0  0  0  0  0  0  0
  -32.3581  -24.2329   25.0267 C   0  0  1  0  0  0  0  0  0  0  0  0
  -23.3765  -30.2703   21.4032 C   0  0  1  0  0  0  0  0  0  0  0  0
  -28.8118  -22.9081   20.5499 C   0  0  2  0  0  0  0  0  0  0  0  0
  -32.9810  -23.2930   23.9880 C   0  0  2  0  0  0  0  0  0  0  0  0
  -25.8626  -30.8484   14.0897 C   0  0  0  0  0  0  0  0  0  0  0  0
  -22.5870  -26.9305   18.3076 C   0  0  0  0  0  0  0  0  0  0  0  0
  -23.6995  -27.2346   16.0854 C   0  0  0  0  0  0  0  0  0  0  0  0
  -21.7250  -28.6334   16.6916 C   0  0  0  0  0  0  0  0  0  0  0  0
  -27.0996  -32.8569   17.0749 C   0  0  0  0  0  0  0  0  0  0  0  0
  -29.9837  -28.5979   24.3027 C   0  0  0  0  0  0  0  0  0  1  0  0
  -23.9461  -29.0703   17.8176 C   0  0  1  0  0  0  0  0  0  0  0  0
  -25.7980  -31.4254   15.4952 C   0  0  2  0  0  0  0  0  0  0  0  0
  -23.0038  -27.9716   17.2497 C   0  0  0  0  0  0  0  0  0  0  0  0
  -28.0590  -20.5937   20.1510 N   0  0  0  0  0  0  0  0  0  0  0  0
  -27.7545  -21.8210   20.6061 N   0  0  0  0  0  0  0  0  0  0  0  0
  -24.0199  -29.7445   20.1975 N   0  0  0  0  0  0  0  0  0  0  0  0
  -31.2194  -23.4310   20.6730 N   0  0  0  0  0  0  0  0  0  0  0  0
  -26.0099  -23.0975   21.5743 N   0  0  0  0  0  0  0  0  0  0  0  0
  -24.1493  -19.0154   21.0546 N   0  0  0  0  0  0  0  0  0  0  0  0
  -21.3315  -29.2235   22.1649 N   0  0  0  0  0  0  0  0  0  0  0  0
  -24.3353  -30.0851   16.8445 N   0  0  0  0  0  0  0  0  0  0  0  0
  -32.0874  -23.0304   22.8412 N   0  0  0  0  0  0  0  0  0  0  0  0
  -33.1111  -23.8854   26.3000 N   0  3  0  0  0  0  0  0  0  0  0  0
  -27.0397  -32.2131   15.7374 N   0  3  0  0  0  0  0  0  0  0  0  0
  -23.7671  -21.1573   21.7792 O   0  0  0  0  0  0  0  0  0  0  0  0
  -23.3860  -28.1806   22.5023 O   0  0  0  0  0  0  0  0  0  0  0  0
  -22.2795  -30.4363   18.8089 O   0  0  0  0  0  0  0  0  0  0  0  0
  -26.6222  -29.7461   17.0243 O   0  0  0  0  0  0  0  0  0  0  0  0
  -32.9332  -24.7233   21.5526 O   0  0  0  0  0  0  0  0  0  0  0  0
  -26.6336  -14.5120   18.9138 O   0  0  0  0  0  0  0  0  0  0  0  0
  -29.2401  -28.2634   23.1316 O   0  0  0  0  0  0  0  0  0  1  0  0
  -24.3165  -11.0349   22.5117 F   0  0  0  0  0  0  0  0  0  0  0  0
  -28.0630  -12.3865   19.9538 F   0  0  0  0  0  0  0  0  0  0  0  0
  1  2  1  0  0  0  0
  1  6  2  0  0  0  0
  2  7  2  0  0  0  0
  3  8  1  0  0  0  0
  3 10  2  0  0  0  0
  4 11  2  0  0  0  0
  4 19  1  0  0  0  0
  5 12  1  0  0  0  0
  5 19  2  0  0  0  0
  6 22  1  0  0  0  0
  7 24  1  0  0  0  0
  8 21  2  0  0  0  0
  9 13  2  0  0  0  0
  9 23  1  0  0  0  0
 10 26  1  0  0  0  0
 11 27  1  0  0  0  0
 12 27  2  0  0  0  0
 13 28  1  0  0  0  0
 14 15  2  0  0  0  0
 14 29  1  0  0  0  0
 15 30  1  0  0  0  0
 16 21  1  0  0  0  0
 16 26  2  0  0  0  0
 17 25  1  0  0  0  0
 17 28  2  0  0  0  0
 18 30  2  0  0  0  0
 18 31  1  0  0  0  0
 19 32  1  0  0  0  0
 20 32  1  0  0  0  0
 20 33  2  0  0  0  0
 20 34  1  0  0  0  0
 21 51  1  0  0  0  0
 22 24  2  0  0  0  0
 22 39  1  0  0  0  0
 23 25  2  0  0  0  0
 23 40  1  0  0  0  0
 24 50  1  0  0  0  0
 25 41  1  0  0  0  0
 26 60  1  0  0  0  0
 27 80  1  0  0  0  0
 28 81  1  0  0  0  0
 29 31  2  0  0  0  0
 29 80  1  0  0  0  0
 30 82  1  0  0  0  0
 31 83  1  0  0  0  0
 32 64  2  0  0  0  0
 33 65  1  0  0  0  0
 33 68  1  0  0  0  0
 34 69  1  0  0  0  0
 34 75  2  0  0  0  0
 35 52  1  0  0  0  0
 35 70  1  0  0  0  0
 35 76  2  0  0  0  0
 36 61  1  0  0  0  0
 36 66  1  0  0  0  0
 36 77  2  0  0  0  0
 37 62  1  0  0  0  0
 37 71  1  0  0  0  0
 37 78  2  0  0  0  0
 38 67  1  0  0  0  0
 38 72  1  0  0  0  0
 38 79  2  0  0  0  0
 39 42  1  0  0  0  0
 40 52  1  0  0  0  0
 41 66  1  0  0  0  0
 42 44  1  0  0  0  0
 43 45  1  0  0  0  0
 43 47  1  0  0  0  0
 44 50  1  0  0  0  0
 45 53  1  0  0  0  0
 46 49  1  0  0  0  0
 46 54  1  0  0  0  0
 47 67  1  0  0  0  0
 48 53  1  0  0  0  0
 48 67  1  0  0  0  0
 49 73  1  0  0  0  0
 50 70  1  0  0  0  0
 51 54  1  0  0  0  0
 51 73  1  0  0  0  0
 52 66  1  0  0  0  0
 53 65  1  0  0  0  0
 54 72  1  0  0  0  0
 55 62  1  0  0  0  0
 56 63  1  0  0  0  0
 57 63  1  0  0  0  0
 58 63  1  0  0  0  0
 59 74  1  0  0  0  0
 60 81  1  0  0  0  0
 61 63  1  0  0  0  0
 61 71  1  0  0  0  0
 62 74  1  0  0  0  0
 64 65  1  0  0  0  0
M  CHG  2  73   1  74   1
M  ISO  4  38 100  60 101  72 100  81 101
M  END
> <Batch ID>
0190

> <Smiles>
CNC(C)C(=O)NC(C(=O)N1Cc2cc([101O:1][101CH2:1]c3cccc(C4NCCC4[100NH:0][100C:0](=O)N4CCCC(n5nc(-c6ccc(Oc7ccc(F)cc7F)cc6)c(C(N)=O)c5N)C4)c3)ccc2CC1C(=O)NC1CCCc2ccccc21)C(C)(C)C

> <Shape>
0.227

> <Color>
0.088

> <Negative vol penalty>
0.000

$$$$

  -OEChem-04052323243D

 82 91  0     1  0  0  0  0  0999 V2000
  -16.4699  -29.0600   23.1194 C   0  0  0  0  0  0  0  0  0  0  0  0
  -17.2875  -27.9515   22.9233 C   0  0  0  0  0  0  0  0  0  0  0  0
  -24.0614   -9.9018   21.6960 C   0  0  0  0  0  0  0  0  0  0  0  0
  -24.6673  -11.0911   23.7098 C   0  0  0  0  0  0  0  0  0  0  0  0
  -17.0377  -30.3211   23.2958 C   0  0  0  0  0  0  0  0  0  0  0  0
  -18.6734  -28.1038   22.9025 C   0  0  0  0  0  0  0  0  0  0  0  0
  -22.8458  -24.1235   24.9651 C   0  0  0  0  0  0  0  0  0  0  0  0
  -23.6356   -8.8182   22.4640 C   0  0  0  0  0  0  0  0  0  0  0  0
  -24.2414  -10.0075   24.4779 C   0  0  0  0  0  0  0  0  0  0  0  0
  -23.6320  -23.1701   24.3197 C   0  0  0  0  0  0  0  0  0  0  0  0
  -20.9277   -7.9837   24.3090 C   0  0  0  0  0  0  0  0  0  0  0  0
  -19.7075   -7.3944   23.9782 C   0  0  0  0  0  0  0  0  0  0  0  0
  -28.7724  -19.6573   22.2998 C   0  0  0  0  0  0  0  0  0  0  0  0
  -25.4534  -24.7487   24.2195 C   0  0  0  0  0  0  0  0  0  0  0  0
  -20.8306   -5.2926   23.5803 C   0  0  0  0  0  0  0  0  0  0  0  0
  -24.5774  -11.0383   22.3189 C   0  0  0  0  0  0  0  0  0  0  0  0
  -24.2472  -13.2591   21.1078 C   0  0  0  0  0  0  0  0  0  0  0  0
  -18.4316  -30.4874   23.2868 C   0  0  0  0  0  0  0  0  0  0  0  0
  -23.3546  -25.4025   25.2332 C   0  0  0  0  0  0  0  0  0  0  0  0
  -19.2603  -29.3686   23.0776 C   0  0  0  0  0  0  0  0  0  0  0  0
  -28.9027  -19.7604   20.9282 C   0  0  0  0  0  0  0  0  0  0  0  0
  -24.6724  -25.7157   24.8707 C   0  0  0  0  0  0  0  0  0  0  0  0
  -28.1496  -20.7011   22.9807 C   0  0  0  0  0  0  0  0  0  0  0  0
  -23.7256   -8.8710   23.8550 C   0  0  0  0  0  0  0  0  0  0  0  0
  -24.9350  -23.4835   23.9442 C   0  0  0  0  0  0  0  0  0  0  0  0
  -22.0994   -7.2275   24.2754 C   0  0  0  0  0  0  0  0  0  0  0  0
  -19.6589   -6.0488   23.6139 C   0  0  0  0  0  0  0  0  0  0  0  0
  -22.0508   -5.8819   23.9111 C   0  0  0  0  0  0  0  0  0  0  0  0
  -25.0180  -12.1578   21.5260 C   0  0  0  0  0  0  0  0  0  0  0  0
  -28.4283  -20.9062   20.2947 C   0  0  0  0  0  0  0  0  0  0  0  0
  -27.7022  -21.8025   22.2519 C   0  0  0  0  0  0  0  0  0  0  0  0
  -25.1210  -14.0359   20.3871 C   0  0  0  0  0  0  0  0  0  0  0  0
  -22.8649  -13.5535   21.3492 C   0  0  0  0  0  0  0  0  0  0  0  0
  -22.5776  -28.3559   24.3517 C   0  0  0  0  0  0  0  0  0  0  0  0
  -24.8844  -29.1797   26.4783 C   0  0  0  0  0  0  0  0  0  0  0  0
  -27.7078  -28.2933   28.1783 C   0  0  0  0  0  0  0  0  0  0  0  0
  -30.1234  -16.4284   19.7565 C   0  0  0  0  0  0  0  0  0  0  0  0
  -18.9978  -31.8775   23.4345 C   0  0  0  0  0  0  0  0  0  0  0  0
  -22.5027  -26.4109   25.9540 C   0  0  0  0  0  0  0  0  0  0  0  0
  -25.2727  -27.0677   25.1538 C   0  0  0  0  0  0  0  0  0  0  0  0
  -28.7187  -20.8612   18.8213 C   0  0  0  0  0  0  0  0  0  0  0  0
  -20.4862  -31.8961   23.7731 C   0  0  0  0  0  0  0  0  0  0  0  0
  -28.9659  -19.3586   18.6207 C   0  0  0  0  0  0  0  0  0  0  0  0
  -29.7858  -13.0450   18.7006 C   0  0  0  0  0  0  0  0  0  0  0  0
  -21.2507  -30.9313   22.8723 C   0  0  0  0  0  0  0  0  0  0  0  0
  -28.4554  -12.6020   19.3120 C   0  0  0  0  0  0  0  0  0  0  0  0
  -30.5458  -13.9909   19.6277 C   0  0  0  0  0  0  0  0  0  0  0  0
  -28.4464  -14.7224   20.6913 C   0  0  0  0  0  0  0  0  0  0  0  0
  -20.7688  -29.4895   23.0734 C   0  0  1  0  0  0  0  0  0  0  0  0
  -29.5527  -18.8362   19.9471 C   0  0  2  0  0  0  0  0  0  0  0  0
  -22.9502  -27.8499   25.7166 C   0  0  1  0  0  0  0  0  0  0  0  0
  -27.6180  -13.8115   19.7692 C   0  0  2  0  0  0  0  0  0  0  0  0
  -27.9830  -20.6203   24.4601 C   0  0  0  0  0  0  0  0  0  0  0  0
  -29.3855  -29.1909   29.8145 C   0  0  0  0  0  0  0  0  0  0  0  0
  -26.1793  -30.8137   24.2505 C   0  0  0  0  0  0  0  0  0  0  0  0
  -28.2741  -30.8907   25.6196 C   0  0  0  0  0  0  0  0  0  0  0  0
  -26.1774  -31.9231   26.4919 C   0  0  0  0  0  0  0  0  0  0  0  0
  -27.0369  -26.2200   30.1808 C   0  0  0  0  0  0  0  0  0  0  0  0
  -27.0304  -22.9438   22.9571 C   0  0  0  0  0  0  0  0  0  1  0  0
  -26.3755  -29.4041   26.4047 C   0  0  1  0  0  0  0  0  0  0  0  0
  -28.0840  -28.4230   29.6432 C   0  0  2  0  0  0  0  0  0  0  0  0
  -26.7399  -30.7330   25.6845 C   0  0  0  0  0  0  0  0  0  0  0  0
  -26.2840  -12.2253   21.1059 N   0  0  0  0  0  0  0  0  0  0  0  0
  -27.8310  -21.9399   20.9108 N   0  0  0  0  0  0  0  0  0  0  0  0
  -26.3155  -13.3782   20.4160 N   0  0  0  0  0  0  0  0  0  0  0  0
  -24.3978  -28.0218   25.8551 N   0  0  0  0  0  0  0  0  0  0  0  0
  -29.6964  -15.1171   20.0230 N   0  0  0  0  0  0  0  0  0  0  0  0
  -24.9765  -15.2106   19.7377 N   0  0  0  0  0  0  0  0  0  0  0  0
  -22.1118  -12.6484   22.1094 N   0  0  0  0  0  0  0  0  0  0  0  0
  -21.3248  -28.9357   24.2894 N   0  0  0  0  0  0  0  0  0  0  0  0
  -26.8703  -29.3114   27.7740 N   0  0  0  0  0  0  0  0  0  0  0  0
  -29.2558  -17.4368   20.1580 N   0  0  0  0  0  0  0  0  0  0  0  0
  -28.2494  -27.0750   30.2568 N   0  3  0  0  0  0  0  0  0  0  0  0
  -22.3097  -14.5805   20.8902 O   0  0  0  0  0  0  0  0  0  0  0  0
  -23.3687  -28.2310   23.4242 O   0  0  0  0  0  0  0  0  0  0  0  0
  -24.1784  -29.9977   27.0732 O   0  0  0  0  0  0  0  0  0  0  0  0
  -28.1189  -27.3823   27.4631 O   0  0  0  0  0  0  0  0  0  0  0  0
  -31.1957  -16.6816   19.1970 O   0  0  0  0  0  0  0  0  0  0  0  0
  -23.3099   -7.8138   24.6048 O   0  0  0  0  0  0  0  0  0  0  0  0
  -25.7044  -22.5549   23.3136 O   0  0  0  0  0  0  0  0  0  1  0  0
  -18.4869   -5.4826   23.2978 F   0  0  0  0  0  0  0  0  0  0  0  0
  -23.1729   -5.1500   23.8781 F   0  0  0  0  0  0  0  0  0  0  0  0
  1  2  1  0  0  0  0
  1  5  2  0  0  0  0
  2  6  2  0  0  0  0
  3  8  2  0  0  0  0
  3 16  1  0  0  0  0
  4  9  1  0  0  0  0
  4 16  2  0  0  0  0
  5 18  1  0  0  0  0
  6 20  1  0  0  0  0
  7 10  2  0  0  0  0
  7 19  1  0  0  0  0
  8 24  1  0  0  0  0
  9 24  2  0  0  0  0
 10 25  1  0  0  0  0
 11 12  2  0  0  0  0
 11 26  1  0  0  0  0
 12 27  1  0  0  0  0
 13 21  2  0  0  0  0
 13 23  1  0  0  0  0
 14 22  1  0  0  0  0
 14 25  2  0  0  0  0
 15 27  2  0  0  0  0
 15 28  1  0  0  0  0
 16 29  1  0  0  0  0
 17 29  1  0  0  0  0
 17 32  2  0  0  0  0
 17 33  1  0  0  0  0
 18 20  2  0  0  0  0
 18 38  1  0  0  0  0
 19 22  2  0  0  0  0
 19 39  1  0  0  0  0
 20 49  1  0  0  0  0
 21 30  1  0  0  0  0
 21 50  1  0  0  0  0
 22 40  1  0  0  0  0
 23 31  2  0  0  0  0
 23 53  1  0  0  0  0
 24 79  1  0  0  0  0
 25 80  1  0  0  0  0
 26 28  2  0  0  0  0
 26 79  1  0  0  0  0
 27 81  1  0  0  0  0
 28 82  1  0  0  0  0
 29 63  2  0  0  0  0
 30 41  1  0  0  0  0
 30 64  2  0  0  0  0
 31 59  1  0  0  0  0
 31 64  1  0  0  0  0
 32 65  1  0  0  0  0
 32 68  1  0  0  0  0
 33 69  1  0  0  0  0
 33 74  2  0  0  0  0
 34 51  1  0  0  0  0
 34 70  1  0  0  0  0
 34 75  2  0  0  0  0
 35 60  1  0  0  0  0
 35 66  1  0  0  0  0
 35 76  2  0  0  0  0
 36 61  1  0  0  0  0
 36 71  1  0  0  0  0
 36 77  2  0  0  0  0
 37 67  1  0  0  0  0
 37 72  1  0  0  0  0
 37 78  2  0  0  0  0
 38 42  1  0  0  0  0
 39 51  1  0  0  0  0
 40 66  1  0  0  0  0
 41 43  1  0  0  0  0
 42 45  1  0  0  0  0
 43 50  1  0  0  0  0
 44 46  1  0  0  0  0
 44 47  1  0  0  0  0
 45 49  1  0  0  0  0
 46 52  1  0  0  0  0
 47 67  1  0  0  0  0
 48 52  1  0  0  0  0
 48 67  1  0  0  0  0
 49 70  1  0  0  0  0
 50 72  1  0  0  0  0
 51 66  1  0  0  0  0
 52 65  1  0  0  0  0
 54 61  1  0  0  0  0
 55 62  1  0  0  0  0
 56 62  1  0  0  0  0
 57 62  1  0  0  0  0
 58 73  1  0  0  0  0
 59 80  1  0  0  0  0
 60 62  1  0  0  0  0
 60 71  1  0  0  0  0
 61 73  1  0  0  0  0
 63 65  1  0  0  0  0
M  CHG  1  73   1
M  ISO  4  37 100  59 101  72 100  80 101
M  END
> <Batch ID>
0190

> <Smiles>
CNC(C)C(=O)NC(C(=O)N1Cc2cc([101O:1][101CH2:1]c3nc4c(cc3C)C([100NH:0][100C:0](=O)N3CCCC(n5nc(-c6ccc(Oc7ccc(F)cc7F)cc6)c(C(N)=O)c5N)C3)CC4)ccc2CC1C(=O)NC1CCCc2ccccc21)C(C)(C)C

> <Shape>
0.260

> <Color>
0.146

> <Negative vol penalty>
0.000

$$$$

  -OEChem-04052323243D

 78 86  0     1  0  0  0  0  0999 V2000
  -18.7570  -27.7116   26.2306 C   0  0  0  0  0  0  0  0  0  0  0  0
  -20.1246  -27.4788   26.1271 C   0  0  0  0  0  0  0  0  0  0  0  0
  -25.9928  -13.4467   22.0115 C   0  0  0  0  0  0  0  0  0  0  0  0
  -24.6837  -13.1658   20.0004 C   0  0  0  0  0  0  0  0  0  0  0  0
  -18.0015  -27.9429   25.0818 C   0  0  0  0  0  0  0  0  0  0  0  0
  -20.7374  -27.4760   24.8746 C   0  0  0  0  0  0  0  0  0  0  0  0
  -26.3906  -29.4150   23.5376 C   0  0  0  0  0  0  0  0  0  0  0  0
  -25.2757  -12.4178   22.6220 C   0  0  0  0  0  0  0  0  0  0  0  0
  -23.9666  -12.1368   20.6109 C   0  0  0  0  0  0  0  0  0  0  0  0
  -27.5977  -28.7391   23.3649 C   0  0  0  0  0  0  0  0  0  0  0  0
  -22.0333   -9.1938   21.5157 C   0  0  0  0  0  0  0  0  0  0  0  0
  -21.8059   -8.0332   20.7761 C   0  0  0  0  0  0  0  0  0  0  0  0
  -27.2374  -28.7174   20.9798 C   0  0  0  0  0  0  0  0  0  0  0  0
  -24.1896   -7.6982   20.5691 C   0  0  0  0  0  0  0  0  0  0  0  0
  -25.6968  -13.8207   20.7007 C   0  0  0  0  0  0  0  0  0  0  0  0
  -27.6199  -14.7652   19.3159 C   0  0  0  0  0  0  0  0  0  0  0  0
  -18.6070  -27.9525   23.8154 C   0  0  0  0  0  0  0  0  0  0  0  0
  -25.5912  -29.7381   22.4317 C   0  0  0  0  0  0  0  0  0  0  0  0
  -19.9891  -27.7063   23.7077 C   0  0  0  0  0  0  0  0  0  0  0  0
  -26.0218  -29.3996   21.1409 C   0  0  0  0  0  0  0  0  0  0  0  0
  -24.2626  -11.7628   21.9217 C   0  0  0  0  0  0  0  0  0  0  0  0
  -28.0199  -28.3876   22.0861 C   0  0  0  0  0  0  0  0  0  0  0  0
  -23.3388   -9.6066   21.7819 C   0  0  0  0  0  0  0  0  0  0  0  0
  -22.8841   -7.2854   20.3028 C   0  0  0  0  0  0  0  0  0  0  0  0
  -24.4170   -8.8588   21.3087 C   0  0  0  0  0  0  0  0  0  0  0  0
  -26.4368  -14.8839   20.0697 C   0  0  0  0  0  0  0  0  0  0  0  0
  -27.9185  -16.0522   18.9407 C   0  0  0  0  0  0  0  0  0  0  0  0
  -28.3807  -13.5960   18.9845 C   0  0  0  0  0  0  0  0  0  0  0  0
  -22.6566  -28.9678   21.4838 C   0  0  0  0  0  0  0  0  0  0  0  0
  -23.2577  -31.1453   19.1557 C   0  0  0  0  0  0  0  0  0  0  0  0
  -25.5665  -32.8331   17.2936 C   0  0  0  0  0  0  0  0  0  0  0  0
  -28.4985  -21.3003   19.9110 C   0  0  0  0  0  0  0  0  0  0  0  0
  -17.7410  -28.1602   22.5982 C   0  0  0  0  0  0  0  0  0  0  0  0
  -24.3047  -30.4910   22.6327 C   0  0  0  0  0  0  0  0  0  0  0  0
  -25.2100  -29.7414   19.9191 C   0  0  0  0  0  0  0  0  0  0  0  0
  -18.5319  -28.5121   21.3408 C   0  0  0  0  0  0  0  0  0  0  0  0
  -25.1981  -20.2976   19.2436 C   0  0  0  0  0  0  0  0  0  0  0  0
  -19.7295  -27.5803   21.1853 C   0  0  0  0  0  0  0  0  0  0  0  0
  -25.3180  -18.7770   19.3394 C   0  0  0  0  0  0  0  0  0  0  0  0
  -26.0151  -21.0065   20.3253 C   0  0  0  0  0  0  0  0  0  0  0  0
  -27.6342  -23.3253   21.1668 C   0  0  0  0  0  0  0  0  0  0  0  0
  -29.3400  -23.5722   19.4012 C   0  0  0  0  0  0  0  0  0  0  0  0
  -27.5569  -19.0770   20.4634 C   0  0  0  0  0  0  0  0  0  0  0  0
  -28.5611  -24.0036   22.1704 C   0  0  0  0  0  0  0  0  0  0  0  0
  -30.2994  -24.2291   20.3802 C   0  0  0  0  0  0  0  0  0  0  0  0
  -20.6945  -27.7199   22.3689 C   0  0  1  0  0  0  0  0  0  0  0  0
  -23.3227  -30.3147   21.4785 C   0  0  1  0  0  0  0  0  0  0  0  0
  -26.7933  -18.3391   19.3529 C   0  0  1  0  0  0  0  0  0  0  0  0
  -25.7543  -34.5181   15.4435 C   0  0  0  0  0  0  0  0  0  0  0  0
  -22.5071  -28.9954   17.1248 C   0  0  0  0  0  0  0  0  0  0  0  0
  -23.6032  -30.3845   15.3536 C   0  0  0  0  0  0  0  0  0  0  0  0
  -21.6345  -31.2790   16.5973 C   0  0  0  0  0  0  0  0  0  0  0  0
  -27.0154  -34.7458   19.0259 C   0  0  0  0  0  0  0  0  0  0  0  0
  -30.3853  -25.6899   22.4015 C   0  0  0  0  0  0  0  0  0  0  0  0
  -29.6219  -26.8691   22.9714 C   0  0  0  0  0  0  0  0  0  1  0  0
  -23.8643  -31.0936   17.7743 C   0  0  1  0  0  0  0  0  0  0  0  0
  -25.7008  -34.3052   16.9484 C   0  0  2  0  0  0  0  0  0  0  0  0
  -22.9169  -30.4298   16.7355 C   0  0  0  0  0  0  0  0  0  0  0  0
  -26.0129  -16.1466   20.1685 N   0  0  0  0  0  0  0  0  0  0  0  0
  -26.9347  -16.8332   19.4721 N   0  0  0  0  0  0  0  0  0  0  0  0
  -23.9566  -30.4724   20.1680 N   0  0  0  0  0  0  0  0  0  0  0  0
  -27.4042  -20.5271   20.3267 N   0  0  0  0  0  0  0  0  0  0  0  0
  -28.4023  -22.6882   20.0903 N   0  0  0  0  0  0  0  0  0  0  0  0
  -28.9241  -16.5807   18.2115 N   0  0  0  0  0  0  0  0  0  0  0  0
  -27.9324  -12.3527   19.4509 N   0  0  0  0  0  0  0  0  0  0  0  0
  -21.4947  -28.9177   22.2300 N   0  0  0  0  0  0  0  0  0  0  0  0
  -24.2471  -32.4623   17.4451 N   0  0  0  0  0  0  0  0  0  0  0  0
  -29.4992  -24.9397   21.4469 N   0  3  0  0  0  0  0  0  0  0  0  0
  -26.9449  -34.8663   17.5469 N   0  3  0  0  0  0  0  0  0  0  0  0
  -29.4361  -13.6541   18.3091 O   0  0  0  0  0  0  0  0  0  0  0  0
  -23.1588  -28.0430   20.8559 O   0  0  0  0  0  0  0  0  0  0  0  0
  -22.2063  -31.7660   19.3317 O   0  0  0  0  0  0  0  0  0  0  0  0
  -26.5350  -32.0859   17.4130 O   0  0  0  0  0  0  0  0  0  0  0  0
  -29.5034  -20.7806   19.4095 O   0  0  0  0  0  0  0  0  0  0  0  0
  -23.5629  -10.7586   22.5170 O   0  0  0  0  0  0  0  0  0  0  0  0
  -29.2058  -27.7226   21.9135 O   0  0  0  0  0  0  0  0  0  1  0  0
  -22.6656   -6.1701   19.5939 F   0  0  0  0  0  0  0  0  0  0  0  0
  -25.6734   -9.2498   21.5623 F   0  0  0  0  0  0  0  0  0  0  0  0
  1  2  1  0  0  0  0
  1  5  2  0  0  0  0
  2  6  2  0  0  0  0
  3  8  2  0  0  0  0
  3 15  1  0  0  0  0
  4  9  1  0  0  0  0
  4 15  2  0  0  0  0
  5 17  1  0  0  0  0
  6 19  1  0  0  0  0
  7 10  2  0  0  0  0
  7 18  1  0  0  0  0
  8 21  1  0  0  0  0
  9 21  2  0  0  0  0
 10 22  1  0  0  0  0
 11 12  2  0  0  0  0
 11 23  1  0  0  0  0
 12 24  1  0  0  0  0
 13 20  1  0  0  0  0
 13 22  2  0  0  0  0
 14 24  2  0  0  0  0
 14 25  1  0  0  0  0
 15 26  1  0  0  0  0
 16 26  1  0  0  0  0
 16 27  2  0  0  0  0
 16 28  1  0  0  0  0
 17 19  2  0  0  0  0
 17 33  1  0  0  0  0
 18 20  2  0  0  0  0
 18 34  1  0  0  0  0
 19 46  1  0  0  0  0
 20 35  1  0  0  0  0
 21 75  1  0  0  0  0
 22 76  1  0  0  0  0
 23 25  2  0  0  0  0
 23 75  1  0  0  0  0
 24 77  1  0  0  0  0
 25 78  1  0  0  0  0
 26 59  2  0  0  0  0
 27 60  1  0  0  0  0
 27 64  1  0  0  0  0
 28 65  1  0  0  0  0
 28 70  2  0  0  0  0
 29 47  1  0  0  0  0
 29 66  1  0  0  0  0
 29 71  2  0  0  0  0
 30 56  1  0  0  0  0
 30 61  1  0  0  0  0
 30 72  2  0  0  0  0
 31 57  1  0  0  0  0
 31 67  1  0  0  0  0
 31 73  2  0  0  0  0
 32 62  1  0  0  0  0
 32 63  1  0  0  0  0
 32 74  2  0  0  0  0
 33 36  1  0  0  0  0
 34 47  1  0  0  0  0
 35 61  1  0  0  0  0
 36 38  1  0  0  0  0
 37 39  1  0  0  0  0
 37 40  1  0  0  0  0
 38 46  1  0  0  0  0
 39 48  1  0  0  0  0
 40 62  1  0  0  0  0
 41 44  1  0  0  0  0
 41 63  1  0  0  0  0
 42 45  1  0  0  0  0
 42 63  1  0  0  0  0
 43 48  1  0  0  0  0
 43 62  1  0  0  0  0
 44 68  1  0  0  0  0
 45 68  1  0  0  0  0
 46 66  1  0  0  0  0
 47 61  1  0  0  0  0
 48 60  1  0  0  0  0
 49 57  1  0  0  0  0
 50 58  1  0  0  0  0
 51 58  1  0  0  0  0
 52 58  1  0  0  0  0
 53 69  1  0  0  0  0
 54 55  1  0  0  0  0
 54 68  1  0  0  0  0
 55 76  1  0  0  0  0
 56 58  1  0  0  0  0
 56 67  1  0  0  0  0
 57 69  1  0  0  0  0
 59 60  1  0  0  0  0
M  CHG  2  68   1  69   1
M  ISO  4  32 100  55 101  63 100  76 101
M  END
> <Batch ID>
0190

> <Smiles>
CNC(C)C(=O)NC(C(=O)N1Cc2cc([101O:1][101CH2:1]CN3CC[100N:0]([100C:0](=O)N4CCCC(n5nc(-c6ccc(Oc7ccc(F)cc7F)cc6)c(C(N)=O)c5N)C4)CC3)ccc2CC1C(=O)NC1CCCc2ccccc21)C(C)(C)C

> <Shape>
0.253

> <Color>
0.093

> <Negative vol penalty>
0.000

$$$$

  -OEChem-04052323243D

 89 99  0     1  0  0  0  0  0999 V2000
  -17.2028  -32.3753   20.9092 C   0  0  0  0  0  0  0  0  0  0  0  0
  -18.2252  -32.0578   20.0208 C   0  0  0  0  0  0  0  0  0  0  0  0
  -24.5833   -8.8739   21.6203 C   0  0  0  0  0  0  0  0  0  0  0  0
  -22.6654  -10.0501   20.7400 C   0  0  0  0  0  0  0  0  0  0  0  0
  -17.4551  -32.4015   22.2801 C   0  0  0  0  0  0  0  0  0  0  0  0
  -19.5010  -31.7674   20.5029 C   0  0  0  0  0  0  0  0  0  0  0  0
  -25.2205  -27.7009   19.0649 C   0  0  0  0  0  0  0  0  0  0  0  0
  -23.7427   -8.1057   22.4257 C   0  0  0  0  0  0  0  0  0  0  0  0
  -21.8246   -9.2818   21.5454 C   0  0  0  0  0  0  0  0  0  0  0  0
  -26.5996  -27.8055   18.8887 C   0  0  0  0  0  0  0  0  0  0  0  0
  -21.7052   -5.4318   22.0625 C   0  0  0  0  0  0  0  0  0  0  0  0
  -21.9362   -4.0572   22.1152 C   0  0  0  0  0  0  0  0  0  0  0  0
  -26.8994  -27.8040   21.2823 C   0  0  0  0  0  0  0  0  0  0  0  0
  -22.3026   -4.2102   24.4984 C   0  0  0  0  0  0  0  0  0  0  0  0
  -30.6306  -23.8023   21.9098 C   0  0  0  0  0  0  0  0  0  0  0  0
  -24.0447   -9.8461   20.7775 C   0  0  0  0  0  0  0  0  0  0  0  0
  -25.3350  -10.3483   18.6349 C   0  0  0  0  0  0  0  0  0  0  0  0
  -18.7323  -32.1018   22.7799 C   0  0  0  0  0  0  0  0  0  0  0  0
  -24.6688  -27.6580   20.3534 C   0  0  0  0  0  0  0  0  0  0  0  0
  -19.7711  -31.7909   21.8818 C   0  0  0  0  0  0  0  0  0  0  0  0
  -25.5133  -27.6963   21.4722 C   0  0  0  0  0  0  0  0  0  0  0  0
  -22.3633   -8.3096   22.3882 C   0  0  0  0  0  0  0  0  0  0  0  0
  -27.4390  -27.8600   19.9975 C   0  0  0  0  0  0  0  0  0  0  0  0
  -21.7730   -6.1956   23.2277 C   0  0  0  0  0  0  0  0  0  0  0  0
  -22.2349   -3.4464   23.3332 C   0  0  0  0  0  0  0  0  0  0  0  0
  -22.0717   -5.5848   24.4456 C   0  0  0  0  0  0  0  0  0  0  0  0
  -24.9127  -10.6404   19.9457 C   0  0  0  0  0  0  0  0  0  0  0  0
  -30.4825  -22.7319   22.7681 C   0  0  0  0  0  0  0  0  0  0  0  0
  -29.9692  -23.6960   20.7033 C   0  0  0  0  0  0  0  0  0  0  0  0
  -26.1407  -11.4059   18.2901 C   0  0  0  0  0  0  0  0  0  0  0  0
  -29.1518  -21.6531   21.2740 C   0  0  0  0  0  0  0  0  0  0  0  0
  -25.0264   -9.2219   17.8033 C   0  0  0  0  0  0  0  0  0  0  0  0
  -22.6670  -29.4990   21.9988 C   0  0  0  0  0  0  0  0  0  0  0  0
  -22.8775  -27.1077   24.1805 C   0  0  0  0  0  0  0  0  0  0  0  0
  -24.6648  -24.4910   25.4476 C   0  0  0  0  0  0  0  0  0  0  0  0
  -26.3835  -16.9547   19.8963 C   0  0  0  0  0  0  0  0  0  0  0  0
  -18.9688  -32.1892   24.2669 C   0  0  0  0  0  0  0  0  0  0  0  0
  -23.1812  -27.5182   20.5264 C   0  0  0  0  0  0  0  0  0  0  0  0
  -24.9725  -27.6333   22.8765 C   0  0  0  0  0  0  0  0  0  0  0  0
  -20.2548  -31.5030   24.7204 C   0  0  0  0  0  0  0  0  0  0  0  0
  -29.0481  -14.6853   20.1947 C   0  0  0  0  0  0  0  0  0  0  0  0
  -21.4168  -31.8928   23.8123 C   0  0  0  0  0  0  0  0  0  0  0  0
  -30.3515  -22.5822   25.3439 C   0  0  0  0  0  0  0  0  0  0  0  0
  -30.9177  -23.9286   25.0169 C   0  0  0  0  0  0  0  0  0  0  0  0
  -28.3266  -13.3472   20.0366 C   0  0  0  0  0  0  0  0  0  0  0  0
  -28.2446  -15.6729   21.0423 C   0  0  0  0  0  0  0  0  0  0  0  0
  -28.2531  -20.1369   19.5357 C   0  0  0  0  0  0  0  0  0  0  0  0
  -28.2634  -19.4629   21.9423 C   0  0  0  0  0  0  0  0  0  0  0  0
  -27.0187  -19.2663   19.3162 C   0  0  0  0  0  0  0  0  0  0  0  0
  -27.0228  -18.6154   21.6832 C   0  0  0  0  0  0  0  0  0  0  0  0
  -26.1367  -14.5438   20.4101 C   0  0  0  0  0  0  0  0  0  0  0  0
  -21.1620  -31.4457   22.3677 C   0  0  1  0  0  0  0  0  0  0  0  0
  -31.1685  -22.7666   24.0921 C   0  0  0  0  0  0  0  0  0  0  0  0
  -22.6900  -28.0007   21.8877 C   0  0  1  0  0  0  0  0  0  0  0  0
  -26.8933  -13.5508   19.5143 C   0  0  2  0  0  0  0  0  0  0  0  0
  -24.5979  -22.7513   27.2549 C   0  0  0  0  0  0  0  0  0  0  0  0
  -23.6316  -29.2254   26.2436 C   0  0  0  0  0  0  0  0  0  0  0  0
  -24.4609  -27.3861   27.7259 C   0  0  0  0  0  0  0  0  0  0  0  0
  -22.0540  -27.4728   27.0765 C   0  0  0  0  0  0  0  0  0  0  0  0
  -24.6950  -22.2798   23.4808 C   0  0  0  0  0  0  0  0  0  0  0  0
  -30.7726  -26.9441   18.9394 C   0  0  0  0  0  0  0  0  0  0  0  0
  -30.8724  -25.9363   20.0781 C   0  0  0  0  0  0  0  0  0  0  0  0
  -29.3399  -27.3775   18.6522 C   0  0  0  0  0  0  0  0  0  1  0  0
  -23.7796  -26.8066   25.3530 C   0  0  1  0  0  0  0  0  0  0  0  0
  -24.2576  -23.0738   25.8082 C   0  0  2  0  0  0  0  0  0  0  0  0
  -23.4919  -27.7259   26.5734 C   0  0  0  0  0  0  0  0  0  0  0  0
  -25.4092  -11.7931   20.4026 N   0  0  0  0  0  0  0  0  0  0  0  0
  -29.7478  -21.6372   22.4814 N   0  0  0  0  0  0  0  0  0  0  0  0
  -29.2184  -22.6317   20.3512 N   0  0  0  0  0  0  0  0  0  0  0  0
  -26.1519  -12.2346   19.3732 N   0  0  0  0  0  0  0  0  0  0  0  0
  -28.3780  -20.5335   20.9425 N   0  0  0  0  0  0  0  0  0  0  0  0
  -23.5107  -27.5031   22.9936 N   0  0  0  0  0  0  0  0  0  0  0  0
  -26.8738  -15.8034   20.5305 N   0  0  0  0  0  0  0  0  0  0  0  0
  -26.9431  -18.1813   20.2870 N   0  0  0  0  0  0  0  0  0  0  0  0
  -26.8337  -11.6984   17.1691 N   0  0  0  0  0  0  0  0  0  0  0  0
  -24.1825   -8.2260   18.3135 N   0  0  0  0  0  0  0  0  0  0  0  0
  -30.0977  -24.7727   19.7920 N   0  0  0  0  0  0  0  0  0  0  0  0
  -21.4105  -30.0270   22.2265 N   0  0  0  0  0  0  0  0  0  0  0  0
  -23.6283  -25.3821   25.6291 N   0  0  0  0  0  0  0  0  0  0  0  0
  -24.9589  -22.0943   24.9309 N   0  3  0  0  0  0  0  0  0  0  0  0
  -25.4986   -9.0940   16.6482 O   0  0  0  0  0  0  0  0  0  0  0  0
  -23.7120  -30.1292   21.8877 O   0  0  0  0  0  0  0  0  0  0  0  0
  -21.6566  -26.9893   24.3107 O   0  0  0  0  0  0  0  0  0  0  0  0
  -25.7910  -24.7795   25.0487 O   0  0  0  0  0  0  0  0  0  0  0  0
  -25.5014  -16.8926   19.0308 O   0  0  0  0  0  0  0  0  0  0  0  0
  -21.5426   -7.5600   23.1738 O   0  0  0  0  0  0  0  0  0  0  0  0
  -28.7950  -27.9634   19.8272 O   0  0  0  0  0  0  0  0  0  1  0  0
  -22.4552   -2.1262   23.3839 F   0  0  0  0  0  0  0  0  0  0  0  0
  -22.1370   -6.3132   25.5686 F   0  0  0  0  0  0  0  0  0  0  0  0
  1  2  1  0  0  0  0
  1  5  2  0  0  0  0
  2  6  2  0  0  0  0
  3  8  2  0  0  0  0
  3 16  1  0  0  0  0
  4  9  1  0  0  0  0
  4 16  2  0  0  0  0
  5 18  1  0  0  0  0
  6 20  1  0  0  0  0
  7 10  2  0  0  0  0
  7 19  1  0  0  0  0
  8 22  1  0  0  0  0
  9 22  2  0  0  0  0
 10 23  1  0  0  0  0
 11 12  2  0  0  0  0
 11 24  1  0  0  0  0
 12 25  1  0  0  0  0
 13 21  1  0  0  0  0
 13 23  2  0  0  0  0
 14 25  2  0  0  0  0
 14 26  1  0  0  0  0
 15 28  2  0  0  0  0
 15 29  1  0  0  0  0
 16 27  1  0  0  0  0
 17 27  1  0  0  0  0
 17 30  2  0  0  0  0
 17 32  1  0  0  0  0
 18 20  2  0  0  0  0
 18 37  1  0  0  0  0
 19 21  2  0  0  0  0
 19 38  1  0  0  0  0
 20 52  1  0  0  0  0
 21 39  1  0  0  0  0
 22 86  1  0  0  0  0
 23 87  1  0  0  0  0
 24 26  2  0  0  0  0
 24 86  1  0  0  0  0
 25 88  1  0  0  0  0
 26 89  1  0  0  0  0
 27 67  2  0  0  0  0
 28 53  1  0  0  0  0
 28 68  1  0  0  0  0
 29 69  2  0  0  0  0
 29 77  1  0  0  0  0
 30 70  1  0  0  0  0
 30 75  1  0  0  0  0
 31 68  2  0  0  0  0
 31 69  1  0  0  0  0
 31 71  1  0  0  0  0
 32 76  1  0  0  0  0
 32 81  2  0  0  0  0
 33 54  1  0  0  0  0
 33 78  1  0  0  0  0
 33 82  2  0  0  0  0
 34 64  1  0  0  0  0
 34 72  1  0  0  0  0
 34 83  2  0  0  0  0
 35 65  1  0  0  0  0
 35 79  1  0  0  0  0
 35 84  2  0  0  0  0
 36 73  1  0  0  0  0
 36 74  1  0  0  0  0
 36 85  2  0  0  0  0
 37 40  1  0  0  0  0
 38 54  1  0  0  0  0
 39 72  1  0  0  0  0
 40 42  1  0  0  0  0
 41 45  1  0  0  0  0
 41 46  1  0  0  0  0
 42 52  1  0  0  0  0
 43 44  1  0  0  0  0
 43 53  1  0  0  0  0
 44 53  1  0  0  0  0
 45 55  1  0  0  0  0
 46 73  1  0  0  0  0
 47 49  1  0  0  0  0
 47 71  1  0  0  0  0
 48 50  1  0  0  0  0
 48 71  1  0  0  0  0
 49 74  1  0  0  0  0
 50 74  1  0  0  0  0
 51 55  1  0  0  0  0
 51 73  1  0  0  0  0
 52 78  1  0  0  0  0
 54 72  1  0  0  0  0
 55 70  1  0  0  0  0
 56 65  1  0  0  0  0
 57 66  1  0  0  0  0
 58 66  1  0  0  0  0
 59 66  1  0  0  0  0
 60 80  1  0  0  0  0
 61 62  1  0  0  0  0
 61 63  1  0  0  0  0
 62 77  1  0  0  0  0
 63 87  1  0  0  0  0
 64 66  1  0  0  0  0
 64 79  1  0  0  0  0
 65 80  1  0  0  0  0
 67 70  1  0  0  0  0
M  CHG  1  80   1
M  ISO  4  36 100  63 101  74 100  87 101
M  END
> <Batch ID>
0190

> <Smiles>
CNC(C)C(=O)NC(C(=O)N1Cc2cc([101O:1][101CH2:1]CCNc3cc(C4CC4)nc(N4CC[100N:0]([100C:0](=O)N5CCCC(n6nc(-c7ccc(Oc8ccc(F)cc8F)cc7)c(C(N)=O)c6N)C5)CC4)n3)ccc2CC1C(=O)NC1CCCc2ccccc21)C(C)(C)C

> <Shape>
0.246

> <Color>
0.076

> <Negative vol penalty>
0.000

$$$$

  -OEChem-04052323243D

 86 95  0     1  0  0  0  0  0999 V2000
  -22.4614  -26.1232   25.6417 C   0  0  0  0  0  0  0  0  0  0  0  0
  -23.4846  -25.2803   25.2200 C   0  0  0  0  0  0  0  0  0  0  0  0
  -23.2816   -9.7989   19.9111 C   0  0  0  0  0  0  0  0  0  0  0  0
  -23.7115   -9.9428   22.2841 C   0  0  0  0  0  0  0  0  0  0  0  0
  -21.9784  -27.1131   24.7868 C   0  0  0  0  0  0  0  0  0  0  0  0
  -24.0247  -25.4260   23.9427 C   0  0  0  0  0  0  0  0  0  0  0  0
  -29.8514  -24.5274   22.2849 C   0  0  0  0  0  0  0  0  0  0  0  0
  -22.5448   -8.6323   20.1153 C   0  0  0  0  0  0  0  0  0  0  0  0
  -22.9747   -8.7761   22.4884 C   0  0  0  0  0  0  0  0  0  0  0  0
  -30.5006  -23.4485   21.6864 C   0  0  0  0  0  0  0  0  0  0  0  0
  -19.7192   -7.8893   22.6782 C   0  0  0  0  0  0  0  0  0  0  0  0
  -18.8070   -7.8771   23.7332 C   0  0  0  0  0  0  0  0  0  0  0  0
  -30.2387  -24.4955   19.5290 C   0  0  0  0  0  0  0  0  0  0  0  0
  -19.9901   -6.0240   24.7348 C   0  0  0  0  0  0  0  0  0  0  0  0
  -23.8650  -10.4541   20.9955 C   0  0  0  0  0  0  0  0  0  0  0  0
  -24.1447  -12.9816   20.7925 C   0  0  0  0  0  0  0  0  0  0  0  0
  -22.5194  -27.2772   23.5019 C   0  0  0  0  0  0  0  0  0  0  0  0
  -29.3805  -25.5952   21.5074 C   0  0  0  0  0  0  0  0  0  0  0  0
  -23.5476  -26.4181   23.0693 C   0  0  0  0  0  0  0  0  0  0  0  0
  -29.5861  -25.5880   20.1204 C   0  0  0  0  0  0  0  0  0  0  0  0
  -31.7492  -19.4107   18.9782 C   0  0  0  0  0  0  0  0  0  0  0  0
  -22.3913   -8.1209   21.4039 C   0  0  0  0  0  0  0  0  0  0  0  0
  -30.6918  -23.4311   20.3079 C   0  0  0  0  0  0  0  0  0  0  0  0
  -20.7669   -6.9688   22.6513 C   0  0  0  0  0  0  0  0  0  0  0  0
  -18.9424   -6.9445   24.7616 C   0  0  0  0  0  0  0  0  0  0  0  0
  -20.9023   -6.0361   23.6797 C   0  0  0  0  0  0  0  0  0  0  0  0
  -24.6267  -11.6590   20.7851 C   0  0  0  0  0  0  0  0  0  0  0  0
  -32.4680  -20.2845   19.7683 C   0  0  0  0  0  0  0  0  0  0  0  0
  -32.4971  -18.4887   18.2747 C   0  0  0  0  0  0  0  0  0  0  0  0
  -25.2541  -13.7528   20.5456 C   0  0  0  0  0  0  0  0  0  0  0  0
  -34.4282  -19.3225   19.1365 C   0  0  0  0  0  0  0  0  0  0  0  0
  -22.8131  -13.4695   21.0037 C   0  0  0  0  0  0  0  0  0  0  0  0
  -26.5203  -26.8503   20.9178 C   0  0  0  0  0  0  0  0  0  0  0  0
  -28.2593  -29.0897   19.3420 C   0  0  0  0  0  0  0  0  0  0  0  0
  -31.1548  -29.9029   17.7291 C   0  0  0  0  0  0  0  0  0  0  0  0
  -29.7371  -14.7376   17.5501 C   0  0  0  0  0  0  0  0  0  0  0  0
  -21.9323  -28.3307   22.5962 C   0  0  0  0  0  0  0  0  0  0  0  0
  -28.7059  -26.7641   22.1714 C   0  0  0  0  0  0  0  0  0  0  0  0
  -29.1175  -26.7193   19.2434 C   0  0  0  0  0  0  0  0  0  0  0  0
  -22.8148  -28.6621   21.3954 C   0  0  0  0  0  0  0  0  0  0  0  0
  -30.1518  -12.5800   20.4849 C   0  0  0  0  0  0  0  0  0  0  0  0
  -23.3166  -27.3832   20.7325 C   0  0  0  0  0  0  0  0  0  0  0  0
  -28.7027  -12.2105   20.7835 C   0  0  0  0  0  0  0  0  0  0  0  0
  -31.9570  -14.6116   15.0330 C   0  0  0  0  0  0  0  0  0  0  0  0
  -30.4141  -12.7411   18.9870 C   0  0  0  0  0  0  0  0  0  0  0  0
  -31.6619  -13.6289   16.1705 C   0  0  0  0  0  0  0  0  0  0  0  0
  -28.0282  -13.3131   18.6218 C   0  0  0  0  0  0  0  0  0  0  0  0
  -24.1761  -26.5609   21.7002 C   0  0  1  0  0  0  0  0  0  0  0  0
  -27.8114  -27.5558   21.2225 C   0  0  1  0  0  0  0  0  0  0  0  0
  -27.7452  -13.2163   20.1275 C   0  0  1  0  0  0  0  0  0  0  0  0
  -31.4425  -15.7441   15.9348 C   0  0  2  0  0  0  0  0  0  0  0  0
  -35.9159  -19.2734   19.2244 C   0  0  0  0  0  0  0  0  0  0  0  0
  -29.7746  -20.1236   17.6073 C   0  0  0  0  0  0  0  0  0  0  0  0
  -32.2688  -31.7959   16.5154 C   0  0  0  0  0  0  0  0  0  0  0  0
  -26.5053  -28.5552   16.9032 C   0  0  0  0  0  0  0  0  0  0  0  0
  -28.2189  -29.7243   15.5014 C   0  0  0  0  0  0  0  0  0  0  0  0
  -27.0260  -30.9680   17.3050 C   0  0  0  0  0  0  0  0  0  0  0  0
  -33.3723  -30.0059   19.6863 C   0  0  0  0  0  0  0  0  0  0  0  0
  -30.2637  -19.4673   18.8970 C   0  0  0  0  0  0  0  0  0  0  0  0
  -31.7670  -21.3268   20.5760 C   0  0  0  0  0  0  0  0  0  1  0  0
  -32.4727  -16.5729   16.6764 C   0  0  0  0  0  0  0  0  0  0  0  0
  -28.7704  -29.2481   17.9304 C   0  0  1  0  0  0  0  0  0  0  0  0
  -32.0752  -31.1034   17.8555 C   0  0  2  0  0  0  0  0  0  0  0  0
  -27.6374  -29.6015   16.9260 C   0  0  0  0  0  0  0  0  0  0  0  0
  -25.9401  -11.5901   20.5519 N   0  0  0  0  0  0  0  0  0  0  0  0
  -33.8131  -20.2685   19.8714 N   0  0  0  0  0  0  0  0  0  0  0  0
  -33.8432  -18.4161   18.3304 N   0  0  0  0  0  0  0  0  0  0  0  0
  -26.2927  -12.8792   20.4103 N   0  0  0  0  0  0  0  0  0  0  0  0
  -28.4577  -27.8366   19.9389 N   0  0  0  0  0  0  0  0  0  0  0  0
  -29.4352  -13.6313   18.3518 N   0  0  0  0  0  0  0  0  0  0  0  0
  -30.8826  -14.6926   16.7870 N   0  0  0  0  0  0  0  0  0  0  0  0
  -25.4328  -15.0861   20.4331 N   0  0  0  0  0  0  0  0  0  0  0  0
  -21.7915  -12.5407   21.2443 N   0  0  0  0  0  0  0  0  0  0  0  0
  -31.8269  -17.5783   17.4582 N   0  0  0  0  0  0  0  0  0  0  0  0
  -25.5018  -27.1313   21.8083 N   0  0  0  0  0  0  0  0  0  0  0  0
  -29.8428  -30.2353   17.9930 N   0  0  0  0  0  0  0  0  0  0  0  0
  -33.4110  -30.6807   18.3634 N   0  3  0  0  0  0  0  0  0  0  0  0
  -22.5345  -14.6919   20.9634 O   0  0  0  0  0  0  0  0  0  0  0  0
  -26.4526  -26.1071   19.9458 O   0  0  0  0  0  0  0  0  0  0  0  0
  -27.7107  -30.0449   19.8973 O   0  0  0  0  0  0  0  0  0  0  0  0
  -31.5586  -28.7832   17.4229 O   0  0  0  0  0  0  0  0  0  0  0  0
  -28.9925  -15.7250   17.4913 O   0  0  0  0  0  0  0  0  0  0  0  0
  -21.6722   -6.9827   21.6036 O   0  0  0  0  0  0  0  0  0  0  0  0
  -31.3290  -22.3714   19.7169 O   0  0  0  0  0  0  0  0  0  1  0  0
  -18.0672   -6.9339   25.7755 F   0  0  0  0  0  0  0  0  0  0  0  0
  -21.9075   -5.1500   23.6600 F   0  0  0  0  0  0  0  0  0  0  0  0
  1  2  1  0  0  0  0
  1  5  2  0  0  0  0
  2  6  2  0  0  0  0
  3  8  2  0  0  0  0
  3 15  1  0  0  0  0
  4  9  1  0  0  0  0
  4 15  2  0  0  0  0
  5 17  1  0  0  0  0
  6 19  1  0  0  0  0
  7 10  2  0  0  0  0
  7 18  1  0  0  0  0
  8 22  1  0  0  0  0
  9 22  2  0  0  0  0
 10 23  1  0  0  0  0
 11 12  2  0  0  0  0
 11 24  1  0  0  0  0
 12 25  1  0  0  0  0
 13 20  1  0  0  0  0
 13 23  2  0  0  0  0
 14 25  2  0  0  0  0
 14 26  1  0  0  0  0
 15 27  1  0  0  0  0
 16 27  1  0  0  0  0
 16 30  2  0  0  0  0
 16 32  1  0  0  0  0
 17 19  2  0  0  0  0
 17 37  1  0  0  0  0
 18 20  2  0  0  0  0
 18 38  1  0  0  0  0
 19 48  1  0  0  0  0
 20 39  1  0  0  0  0
 21 28  2  0  0  0  0
 21 29  1  0  0  0  0
 21 59  1  0  0  0  0
 22 83  1  0  0  0  0
 23 84  1  0  0  0  0
 24 26  2  0  0  0  0
 24 83  1  0  0  0  0
 25 85  1  0  0  0  0
 26 86  1  0  0  0  0
 27 65  2  0  0  0  0
 28 60  1  0  0  0  0
 28 66  1  0  0  0  0
 29 67  2  0  0  0  0
 29 74  1  0  0  0  0
 30 68  1  0  0  0  0
 30 72  1  0  0  0  0
 31 52  1  0  0  0  0
 31 66  2  0  0  0  0
 31 67  1  0  0  0  0
 32 73  1  0  0  0  0
 32 78  2  0  0  0  0
 33 49  1  0  0  0  0
 33 75  1  0  0  0  0
 33 79  2  0  0  0  0
 34 62  1  0  0  0  0
 34 69  1  0  0  0  0
 34 80  2  0  0  0  0
 35 63  1  0  0  0  0
 35 76  1  0  0  0  0
 35 81  2  0  0  0  0
 36 70  1  0  0  0  0
 36 71  1  0  0  0  0
 36 82  2  0  0  0  0
 37 40  1  0  0  0  0
 38 49  1  0  0  0  0
 39 69  1  0  0  0  0
 40 42  1  0  0  0  0
 41 43  1  0  0  0  0
 41 45  1  0  0  0  0
 42 48  1  0  0  0  0
 43 50  1  0  0  0  0
 44 46  1  0  0  0  0
 44 51  1  0  0  0  0
 45 70  1  0  0  0  0
 46 71  1  0  0  0  0
 47 50  1  0  0  0  0
 47 70  1  0  0  0  0
 48 75  1  0  0  0  0
 49 69  1  0  0  0  0
 50 68  1  0  0  0  0
 51 61  1  0  0  0  0
 51 71  1  0  0  0  0
 53 59  1  0  0  0  0
 54 63  1  0  0  0  0
 55 64  1  0  0  0  0
 56 64  1  0  0  0  0
 57 64  1  0  0  0  0
 58 77  1  0  0  0  0
 60 84  1  0  0  0  0
 61 74  1  0  0  0  0
 62 64  1  0  0  0  0
 62 76  1  0  0  0  0
 63 77  1  0  0  0  0
 65 68  1  0  0  0  0
M  CHG  1  77   1
M  ISO  4  36 100  60 101  71 100  84 101
M  END
> <Batch ID>
0190

> <Smiles>
CCc1c(NCC2CC[100N:0]2[100C:0](=O)N2CCCC(n3nc(-c4ccc(Oc5ccc(F)cc5F)cc4)c(C(N)=O)c3N)C2)nc(C)nc1[101CH2:1][101O:1]c1ccc2c(c1)CN(C(=O)C(NC(=O)C(C)NC)C(C)(C)C)C(C(=O)NC1CCCc3ccccc31)C2

> <Shape>
0.213

> <Color>
0.166

> <Negative vol penalty>
0.000

$$$$

  -OEChem-04052323243D

 86 96  0     1  0  0  0  0  0999 V2000
  -29.0198  -32.9444   27.8691 C   0  0  0  0  0  0  0  0  0  0  0  0
  -28.6306  -31.9162   27.0167 C   0  0  0  0  0  0  0  0  0  0  0  0
  -24.4539   -9.2799   22.0503 C   0  0  0  0  0  0  0  0  0  0  0  0
  -23.2009   -9.8436   20.0629 C   0  0  0  0  0  0  0  0  0  0  0  0
  -28.1869  -34.0469   28.0554 C   0  0  0  0  0  0  0  0  0  0  0  0
  -27.4077  -31.9894   26.3507 C   0  0  0  0  0  0  0  0  0  0  0  0
  -27.7724  -30.6892   21.4700 C   0  0  0  0  0  0  0  0  0  0  0  0
  -23.4397   -8.4060   22.4418 C   0  0  0  0  0  0  0  0  0  0  0  0
  -22.1868   -8.9696   20.4544 C   0  0  0  0  0  0  0  0  0  0  0  0
  -27.8422  -29.3279   21.1772 C   0  0  0  0  0  0  0  0  0  0  0  0
  -22.4050   -5.2824   21.6635 C   0  0  0  0  0  0  0  0  0  0  0  0
  -22.7794   -4.0223   22.1298 C   0  0  0  0  0  0  0  0  0  0  0  0
  -25.4956  -29.3341   20.6179 C   0  0  0  0  0  0  0  0  0  0  0  0
  -27.5468  -24.9134   18.9469 C   0  0  0  0  0  0  0  0  0  0  0  0
  -21.7200   -4.4922   24.2497 C   0  0  0  0  0  0  0  0  0  0  0  0
  -24.3345   -9.9988   20.8609 C   0  0  0  0  0  0  0  0  0  0  0  0
  -26.5045  -10.6010   19.6625 C   0  0  0  0  0  0  0  0  0  0  0  0
  -26.9575  -34.1382   27.3839 C   0  0  0  0  0  0  0  0  0  0  0  0
  -26.5592  -31.3820   21.3492 C   0  0  0  0  0  0  0  0  0  0  0  0
  -26.5569  -33.0935   26.5292 C   0  0  0  0  0  0  0  0  0  0  0  0
  -25.4137  -30.7048   20.9073 C   0  0  0  0  0  0  0  0  0  0  0  0
  -27.4644  -23.5694   18.6280 C   0  0  0  0  0  0  0  0  0  0  0  0
  -22.3062   -8.2508   21.6439 C   0  0  0  0  0  0  0  0  0  0  0  0
  -26.7030  -28.6495   20.7539 C   0  0  0  0  0  0  0  0  0  0  0  0
  -21.6881   -6.1475   22.4902 C   0  0  0  0  0  0  0  0  0  0  0  0
  -22.4369   -3.6272   23.4230 C   0  0  0  0  0  0  0  0  0  0  0  0
  -21.3456   -5.7523   23.7833 C   0  0  0  0  0  0  0  0  0  0  0  0
  -25.3815  -10.9022   20.4562 C   0  0  0  0  0  0  0  0  0  0  0  0
  -27.9314  -25.2508   20.2289 C   0  0  0  0  0  0  0  0  0  0  0  0
  -27.7724  -22.6518   19.6123 C   0  0  0  0  0  0  0  0  0  0  0  0
  -27.1870  -11.7892   19.5682 C   0  0  0  0  0  0  0  0  0  0  0  0
  -26.8957   -9.3583   19.0639 C   0  0  0  0  0  0  0  0  0  0  0  0
  -24.6627  -32.9519   23.3598 C   0  0  0  0  0  0  0  0  0  0  0  0
  -23.0584  -33.7067   20.6434 C   0  0  0  0  0  0  0  0  0  0  0  0
  -22.3045  -32.9180   17.4098 C   0  0  0  0  0  0  0  0  0  0  0  0
  -27.4608  -17.0962   18.7904 C   0  0  0  0  0  0  0  0  0  0  0  0
  -26.0697  -35.3272   27.6535 C   0  0  0  0  0  0  0  0  0  0  0  0
  -26.5067  -32.8562   21.6432 C   0  0  0  0  0  0  0  0  0  0  0  0
  -24.0916  -31.4071   20.7419 C   0  0  0  0  0  0  0  0  0  0  0  0
  -24.9590  -35.5045   26.6214 C   0  0  0  0  0  0  0  0  0  0  0  0
  -26.5979  -16.1435   22.0596 C   0  0  0  0  0  0  0  0  0  0  0  0
  -27.9538  -22.2494   16.4619 C   0  0  0  0  0  0  0  0  0  0  0  0
  -27.8197  -23.6879   16.0711 C   0  0  0  0  0  0  0  0  0  0  0  0
  -24.2662  -34.1732   26.3487 C   0  0  0  0  0  0  0  0  0  0  0  0
  -26.2904  -14.6582   21.8720 C   0  0  0  0  0  0  0  0  0  0  0  0
  -26.0648  -16.9897   20.9023 C   0  0  0  0  0  0  0  0  0  0  0  0
  -28.8978  -20.4544   19.4303 C   0  0  0  0  0  0  0  0  0  0  0  0
  -26.4050  -20.6136   19.5147 C   0  0  0  0  0  0  0  0  0  0  0  0
  -28.7699  -19.1782   18.6028 C   0  0  0  0  0  0  0  0  0  0  0  0
  -26.3216  -19.3432   18.6760 C   0  0  0  0  0  0  0  0  0  0  0  0
  -26.2027  -15.0451   19.3800 C   0  0  0  0  0  0  0  0  0  0  0  0
  -27.0526  -23.1593   17.2546 C   0  0  0  0  0  0  0  0  0  0  0  0
  -25.2490  -33.1482   25.7699 C   0  0  1  0  0  0  0  0  0  0  0  0
  -25.1024  -33.3488   21.9789 C   0  0  1  0  0  0  0  0  0  0  0  0
  -26.7775  -14.1624   20.4988 C   0  0  2  0  0  0  0  0  0  0  0  0
  -20.9357  -33.7028   15.4585 C   0  0  0  0  0  0  0  0  0  0  0  0
  -20.5369  -32.6300   21.9823 C   0  0  0  0  0  0  0  0  0  0  0  0
  -19.4554  -32.5530   19.7256 C   0  0  0  0  0  0  0  0  0  0  0  0
  -20.2054  -34.7352   20.6736 C   0  0  0  0  0  0  0  0  0  0  0  0
  -24.7085  -33.2884   15.7237 C   0  0  0  0  0  0  0  0  0  0  0  0
  -28.0357  -26.6840   20.6237 C   0  0  0  0  0  0  0  0  0  1  0  0
  -21.9327  -33.0792   19.8573 C   0  0  1  0  0  0  0  0  0  0  0  0
  -22.2916  -33.7574   16.1450 C   0  0  2  0  0  0  0  0  0  0  0  0
  -20.5569  -33.2354   20.5646 C   0  0  0  0  0  0  0  0  0  0  0  0
  -25.3488  -12.1814   20.8390 N   0  0  0  0  0  0  0  0  0  0  0  0
  -28.2270  -24.3315   21.1721 N   0  0  0  0  0  0  0  0  0  0  0  0
  -28.1463  -23.0106   20.8586 N   0  0  0  0  0  0  0  0  0  0  0  0
  -26.4598  -12.6945   20.2836 N   0  0  0  0  0  0  0  0  0  0  0  0
  -27.6954  -21.2861   19.3103 N   0  0  0  0  0  0  0  0  0  0  0  0
  -24.0898  -32.8472   21.0477 N   0  0  0  0  0  0  0  0  0  0  0  0
  -26.5221  -16.4552   19.6126 N   0  0  0  0  0  0  0  0  0  0  0  0
  -27.5045  -18.4979   18.8508 N   0  0  0  0  0  0  0  0  0  0  0  0
  -28.3322  -12.1374   18.9441 N   0  0  0  0  0  0  0  0  0  0  0  0
  -26.0799   -8.2358   19.2608 N   0  0  0  0  0  0  0  0  0  0  0  0
  -25.4882  -33.4133   24.3674 N   0  0  0  0  0  0  0  0  0  0  0  0
  -21.9890  -33.6674   18.5234 N   0  0  0  0  0  0  0  0  0  0  0  0
  -23.3232  -33.2674   15.1875 N   0  3  0  0  0  0  0  0  0  0  0  0
  -27.9464   -9.2427   18.3885 O   0  0  0  0  0  0  0  0  0  0  0  0
  -23.6489  -32.2782   23.5008 O   0  0  0  0  0  0  0  0  0  0  0  0
  -23.0275  -34.9162   20.8836 O   0  0  0  0  0  0  0  0  0  0  0  0
  -22.5646  -31.7168   17.4094 O   0  0  0  0  0  0  0  0  0  0  0  0
  -28.2172  -16.4568   18.0489 O   0  0  0  0  0  0  0  0  0  0  0  0
  -21.3165   -7.3979   22.0255 O   0  0  0  0  0  0  0  0  0  0  0  0
  -26.7686  -27.3116   20.4662 O   0  0  0  0  0  0  0  0  0  1  0  0
  -22.7951   -2.4165   23.8702 F   0  0  0  0  0  0  0  0  0  0  0  0
  -20.6559   -6.5785   24.5818 F   0  0  0  0  0  0  0  0  0  0  0  0
  1  2  1  0  0  0  0
  1  5  2  0  0  0  0
  2  6  2  0  0  0  0
  3  8  2  0  0  0  0
  3 16  1  0  0  0  0
  4  9  1  0  0  0  0
  4 16  2  0  0  0  0
  5 18  1  0  0  0  0
  6 20  1  0  0  0  0
  7 10  2  0  0  0  0
  7 19  1  0  0  0  0
  8 23  1  0  0  0  0
  9 23  2  0  0  0  0
 10 24  1  0  0  0  0
 11 12  2  0  0  0  0
 11 25  1  0  0  0  0
 12 26  1  0  0  0  0
 13 21  1  0  0  0  0
 13 24  2  0  0  0  0
 14 22  2  0  0  0  0
 14 29  1  0  0  0  0
 15 26  2  0  0  0  0
 15 27  1  0  0  0  0
 16 28  1  0  0  0  0
 17 28  1  0  0  0  0
 17 31  2  0  0  0  0
 17 32  1  0  0  0  0
 18 20  2  0  0  0  0
 18 37  1  0  0  0  0
 19 21  2  0  0  0  0
 19 38  1  0  0  0  0
 20 53  1  0  0  0  0
 21 39  1  0  0  0  0
 22 30  1  0  0  0  0
 22 52  1  0  0  0  0
 23 83  1  0  0  0  0
 24 84  1  0  0  0  0
 25 27  2  0  0  0  0
 25 83  1  0  0  0  0
 26 85  1  0  0  0  0
 27 86  1  0  0  0  0
 28 65  2  0  0  0  0
 29 61  1  0  0  0  0
 29 66  2  0  0  0  0
 30 67  2  0  0  0  0
 30 69  1  0  0  0  0
 31 68  1  0  0  0  0
 31 73  1  0  0  0  0
 32 74  1  0  0  0  0
 32 78  2  0  0  0  0
 33 54  1  0  0  0  0
 33 75  1  0  0  0  0
 33 79  2  0  0  0  0
 34 62  1  0  0  0  0
 34 70  1  0  0  0  0
 34 80  2  0  0  0  0
 35 63  1  0  0  0  0
 35 76  1  0  0  0  0
 35 81  2  0  0  0  0
 36 71  1  0  0  0  0
 36 72  1  0  0  0  0
 36 82  2  0  0  0  0
 37 40  1  0  0  0  0
 38 54  1  0  0  0  0
 39 70  1  0  0  0  0
 40 44  1  0  0  0  0
 41 45  1  0  0  0  0
 41 46  1  0  0  0  0
 42 43  1  0  0  0  0
 42 52  1  0  0  0  0
 43 52  1  0  0  0  0
 44 53  1  0  0  0  0
 45 55  1  0  0  0  0
 46 71  1  0  0  0  0
 47 49  1  0  0  0  0
 47 69  1  0  0  0  0
 48 50  1  0  0  0  0
 48 69  1  0  0  0  0
 49 72  1  0  0  0  0
 50 72  1  0  0  0  0
 51 55  1  0  0  0  0
 51 71  1  0  0  0  0
 53 75  1  0  0  0  0
 54 70  1  0  0  0  0
 55 68  1  0  0  0  0
 56 63  1  0  0  0  0
 57 64  1  0  0  0  0
 58 64  1  0  0  0  0
 59 64  1  0  0  0  0
 60 77  1  0  0  0  0
 61 84  1  0  0  0  0
 62 64  1  0  0  0  0
 62 76  1  0  0  0  0
 63 77  1  0  0  0  0
 65 68  1  0  0  0  0
 66 67  1  0  0  0  0
M  CHG  1  77   1
M  ISO  4  36 100  61 101  72 100  84 101
M  END
> <Batch ID>
0190

> <Smiles>
CNC(C)C(=O)NC(C(=O)N1Cc2cc([101O:1][101CH2:1]c3cc(C4CC4)c(N4CC[100N:0]([100C:0](=O)N5CCCC(n6nc(-c7ccc(Oc8ccc(F)cc8F)cc7)c(C(N)=O)c6N)C5)CC4)nn3)ccc2CC1C(=O)NC1CCCc2ccccc21)C(C)(C)C

> <Shape>
0.258

> <Color>
0.084

> <Negative vol penalty>
0.000

$$$$

  -OEChem-04052323243D

 80 89  0     1  0  0  0  0  0999 V2000
  -21.1618  -30.0708   14.6063 C   0  0  0  0  0  0  0  0  0  0  0  0
  -22.4117  -29.7304   15.1135 C   0  0  0  0  0  0  0  0  0  0  0  0
  -29.7504  -11.3810   18.9785 C   0  0  0  0  0  0  0  0  0  0  0  0
  -29.4149  -10.7736   21.2927 C   0  0  0  0  0  0  0  0  0  0  0  0
  -20.4755  -31.1680   15.1251 C   0  0  0  0  0  0  0  0  0  0  0  0
  -22.9766  -30.4877   16.1391 C   0  0  0  0  0  0  0  0  0  0  0  0
  -24.9988  -27.6159   19.7872 C   0  0  0  0  0  0  0  0  0  0  0  0
  -30.5878  -10.2782   18.8104 C   0  0  0  0  0  0  0  0  0  0  0  0
  -30.2523   -9.6708   21.1247 C   0  0  0  0  0  0  0  0  0  0  0  0
  -26.2452  -27.0459   19.5314 C   0  0  0  0  0  0  0  0  0  0  0  0
  -30.0429   -6.5632   19.8135 C   0  0  0  0  0  0  0  0  0  0  0  0
  -29.6210   -5.3442   20.3441 C   0  0  0  0  0  0  0  0  0  0  0  0
  -27.3000  -28.7855   20.8276 C   0  0  0  0  0  0  0  0  0  0  0  0
  -31.5902   -5.2711   21.7419 C   0  0  0  0  0  0  0  0  0  0  0  0
  -29.1640  -11.6287   20.2197 C   0  0  0  0  0  0  0  0  0  0  0  0
  -26.9051  -12.8141   20.2042 C   0  0  0  0  0  0  0  0  0  0  0  0
  -21.0280  -31.9333   16.1642 C   0  0  0  0  0  0  0  0  0  0  0  0
  -24.8945  -28.7831   20.5573 C   0  0  0  0  0  0  0  0  0  0  0  0
  -22.2976  -31.5969   16.6714 C   0  0  0  0  0  0  0  0  0  0  0  0
  -26.0509  -29.3669   21.0938 C   0  0  0  0  0  0  0  0  0  0  0  0
  -30.8387   -9.4231   19.8835 C   0  0  0  0  0  0  0  0  0  0  0  0
  -27.3963  -27.6323   20.0492 C   0  0  0  0  0  0  0  0  0  0  0  0
  -31.2385   -7.1361   20.2470 C   0  0  0  0  0  0  0  0  0  0  0  0
  -30.3946   -4.6981   21.3083 C   0  0  0  0  0  0  0  0  0  0  0  0
  -32.0121   -6.4901   21.2112 C   0  0  0  0  0  0  0  0  0  0  0  0
  -28.2993  -12.7680   20.3940 C   0  0  0  0  0  0  0  0  0  0  0  0
  -26.5616  -14.1116   20.4958 C   0  0  0  0  0  0  0  0  0  0  0  0
  -26.0014  -11.7768   19.8005 C   0  0  0  0  0  0  0  0  0  0  0  0
  -23.8421  -31.7349   20.0252 C   0  0  0  0  0  0  0  0  0  0  0  0
  -24.3769  -32.0808   23.2059 C   0  0  0  0  0  0  0  0  0  0  0  0
  -26.0526  -31.0426   25.9918 C   0  0  0  0  0  0  0  0  0  0  0  0
  -30.0246  -19.0613   20.3455 C   0  0  0  0  0  0  0  0  0  0  0  0
  -20.2694  -33.1387   16.6603 C   0  0  0  0  0  0  0  0  0  0  0  0
  -23.5402  -29.3705   20.8464 C   0  0  0  0  0  0  0  0  0  0  0  0
  -25.9911  -30.6089   21.9436 C   0  0  0  0  0  0  0  0  0  0  0  0
  -20.7719  -33.6646   18.0024 C   0  0  0  0  0  0  0  0  0  0  0  0
  -27.9261  -17.8465   23.1519 C   0  0  0  0  0  0  0  0  0  0  0  0
  -22.2944  -33.7587   18.0027 C   0  0  0  0  0  0  0  0  0  0  0  0
  -27.7030  -16.3878   22.7502 C   0  0  0  0  0  0  0  0  0  0  0  0
  -28.7495  -22.4758   20.8224 C   0  0  0  0  0  0  0  0  0  0  0  0
  -31.2515  -25.7053   19.3286 C   0  0  0  0  0  0  0  0  0  0  0  0
  -29.2751  -18.3486   22.6540 C   0  0  0  0  0  0  0  0  0  0  0  0
  -28.8153  -21.0636   21.3956 C   0  0  0  0  0  0  0  0  0  0  0  0
  -29.2568  -16.7548   20.7735 C   0  0  0  0  0  0  0  0  0  0  0  0
  -30.6869  -21.4136   19.9280 C   0  0  0  0  0  0  0  0  0  0  0  0
  -31.7499  -24.2520   19.3287 C   0  0  0  0  0  0  0  0  0  0  0  0
  -22.9324  -32.3790   17.8007 C   0  0  1  0  0  0  0  0  0  0  0  0
  -23.5968  -30.8499   21.2145 C   0  0  1  0  0  0  0  0  0  0  0  0
  -27.9019  -16.1905   21.2363 C   0  0  1  0  0  0  0  0  0  0  0  0
  -30.2093  -22.7417   20.4861 C   0  0  1  0  0  0  0  0  0  0  0  0
  -30.0145  -25.1548   20.0690 C   0  0  1  0  0  0  0  0  0  0  0  0
  -26.3075  -31.5421   28.4378 C   0  0  0  0  0  0  0  0  0  0  0  0
  -26.0751  -34.5233   22.5277 C   0  0  0  0  0  0  0  0  0  0  0  0
  -27.0459  -34.4016   24.8322 C   0  0  0  0  0  0  0  0  0  0  0  0
  -24.6021  -34.8002   24.5297 C   0  0  0  0  0  0  0  0  0  0  0  0
  -25.1033  -28.3467   26.7598 C   0  0  0  0  0  0  0  0  0  0  0  0
  -28.6619  -25.6659   19.6163 C   0  0  0  0  0  0  0  0  0  1  0  0
  -25.5522  -32.5064   24.0523 C   0  0  1  0  0  0  0  0  0  0  0  0
  -25.5710  -30.7169   27.3941 C   0  0  2  0  0  0  0  0  0  0  0  0
  -25.8205  -34.0356   23.9679 C   0  0  0  0  0  0  0  0  0  0  0  0
  -28.8067  -13.9429   20.7764 N   0  0  0  0  0  0  0  0  0  0  0  0
  -27.7256  -14.7394   20.8292 N   0  0  0  0  0  0  0  0  0  0  0  0
  -24.6445  -31.1492   22.1928 N   0  0  0  0  0  0  0  0  0  0  0  0
  -29.4167  -18.1437   21.2098 N   0  0  0  0  0  0  0  0  0  0  0  0
  -29.9007  -20.4158   20.6517 N   0  0  0  0  0  0  0  0  0  0  0  0
  -25.3805  -14.7653   20.4969 N   0  0  0  0  0  0  0  0  0  0  0  0
  -26.5214  -10.5015   19.5405 N   0  0  0  0  0  0  0  0  0  0  0  0
  -22.8899  -31.6176   19.0307 N   0  0  0  0  0  0  0  0  0  0  0  0
  -25.2810  -32.0209   25.4011 N   0  0  0  0  0  0  0  0  0  0  0  0
  -30.3440  -23.8286   19.4907 N   0  3  1  0  0  0  0  0  0  0  0  0
  -25.7907  -29.2740   27.6951 N   0  3  0  0  0  0  0  0  0  0  0  0
  -24.7716  -11.9791   19.6583 O   0  0  0  0  0  0  0  0  0  0  0  0
  -24.8218  -32.4709   20.0116 O   0  0  0  0  0  0  0  0  0  0  0  0
  -23.2611  -32.5519   23.4398 O   0  0  0  0  0  0  0  0  0  0  0  0
  -27.0191  -30.4876   25.4737 O   0  0  0  0  0  0  0  0  0  0  0  0
  -30.6101  -18.6903   19.3197 O   0  0  0  0  0  0  0  0  0  0  0  0
  -31.6556   -8.3468   19.7198 O   0  0  0  0  0  0  0  0  0  0  0  0
  -28.6232  -27.0742   19.7987 O   0  0  0  0  0  0  0  0  0  1  0  0
  -29.9885   -3.5282   21.8189 F   0  0  0  0  0  0  0  0  0  0  0  0
  -33.1611   -7.0362   21.6326 F   0  0  0  0  0  0  0  0  0  0  0  0
  1  2  1  0  0  0  0
  1  5  2  0  0  0  0
  2  6  2  0  0  0  0
  3  8  2  0  0  0  0
  3 15  1  0  0  0  0
  4  9  1  0  0  0  0
  4 15  2  0  0  0  0
  5 17  1  0  0  0  0
  6 19  1  0  0  0  0
  7 10  2  0  0  0  0
  7 18  1  0  0  0  0
  8 21  1  0  0  0  0
  9 21  2  0  0  0  0
 10 22  1  0  0  0  0
 11 12  2  0  0  0  0
 11 23  1  0  0  0  0
 12 24  1  0  0  0  0
 13 20  1  0  0  0  0
 13 22  2  0  0  0  0
 14 24  2  0  0  0  0
 14 25  1  0  0  0  0
 15 26  1  0  0  0  0
 16 26  1  0  0  0  0
 16 27  2  0  0  0  0
 16 28  1  0  0  0  0
 17 19  2  0  0  0  0
 17 33  1  0  0  0  0
 18 20  2  0  0  0  0
 18 34  1  0  0  0  0
 19 47  1  0  0  0  0
 20 35  1  0  0  0  0
 21 77  1  0  0  0  0
 22 78  1  0  0  0  0
 23 25  2  0  0  0  0
 23 77  1  0  0  0  0
 24 79  1  0  0  0  0
 25 80  1  0  0  0  0
 26 61  2  0  0  0  0
 27 62  1  0  0  0  0
 27 66  1  0  0  0  0
 28 67  1  0  0  0  0
 28 72  2  0  0  0  0
 29 48  1  0  0  0  0
 29 68  1  0  0  0  0
 29 73  2  0  0  0  0
 30 58  1  0  0  0  0
 30 63  1  0  0  0  0
 30 74  2  0  0  0  0
 31 59  1  0  0  0  0
 31 69  1  0  0  0  0
 31 75  2  0  0  0  0
 32 64  1  0  0  0  0
 32 65  1  0  0  0  0
 32 76  2  0  0  0  0
 33 36  1  0  0  0  0
 34 48  1  0  0  0  0
 35 63  1  0  0  0  0
 36 38  1  0  0  0  0
 37 39  1  0  0  0  0
 37 42  1  0  0  0  0
 38 47  1  0  0  0  0
 39 49  1  0  0  0  0
 40 43  1  0  0  0  0
 40 50  1  0  0  0  0
 41 46  1  0  0  0  0
 41 51  1  0  0  0  0
 42 64  1  0  0  0  0
 43 65  1  0  0  0  0
 44 49  1  0  0  0  0
 44 64  1  0  0  0  0
 45 50  1  0  0  0  0
 45 65  1  0  0  0  0
 46 70  1  0  0  0  0
 47 68  1  0  0  0  0
 48 63  1  0  0  0  0
 49 62  1  0  0  0  0
 50 70  1  0  0  0  0
 51 57  1  0  0  0  0
 51 70  1  0  0  0  0
 52 59  1  0  0  0  0
 53 60  1  0  0  0  0
 54 60  1  0  0  0  0
 55 60  1  0  0  0  0
 56 71  1  0  0  0  0
 57 78  1  0  0  0  0
 58 60  1  0  0  0  0
 58 69  1  0  0  0  0
 59 71  1  0  0  0  0
 61 62  1  0  0  0  0
M  CHG  2  70   1  71   1
M  ISO  4  32 100  57 101  65 100  78 101
M  END
> <Batch ID>
0190

> <Smiles>
CNC(C)C(=O)NC(C(=O)N1Cc2cc([101O:1][101CH2:1]C3CCN3C3CC[100N:0]([100C:0](=O)N4CCCC(n5nc(-c6ccc(Oc7ccc(F)cc7F)cc6)c(C(N)=O)c5N)C4)C3)ccc2CC1C(=O)NC1CCCc2ccccc21)C(C)(C)C

> <Shape>
0.275

> <Color>
0.107

> <Negative vol penalty>
0.000

$$$$

  -OEChem-04052323243D

 84 93  0     1  0  0  0  0  0999 V2000
  -26.2315  -36.8680   22.3618 C   0  0  0  0  0  0  0  0  0  0  0  0
  -26.8541  -35.7046   21.9212 C   0  0  0  0  0  0  0  0  0  0  0  0
  -24.6982   -9.7416   21.7210 C   0  0  0  0  0  0  0  0  0  0  0  0
  -22.8566  -10.9198   20.6927 C   0  0  0  0  0  0  0  0  0  0  0  0
  -25.1873  -36.7927   23.2826 C   0  0  0  0  0  0  0  0  0  0  0  0
  -26.4335  -34.4651   22.4021 C   0  0  0  0  0  0  0  0  0  0  0  0
  -26.2836  -29.1772   19.3164 C   0  0  0  0  0  0  0  0  0  0  0  0
  -23.7985   -9.0192   22.5047 C   0  0  0  0  0  0  0  0  0  0  0  0
  -21.9569  -10.1974   21.4764 C   0  0  0  0  0  0  0  0  0  0  0  0
  -27.1569  -28.0912   19.2733 C   0  0  0  0  0  0  0  0  0  0  0  0
  -21.7302   -6.3718   22.1232 C   0  0  0  0  0  0  0  0  0  0  0  0
  -21.9297   -4.9961   22.2379 C   0  0  0  0  0  0  0  0  0  0  0  0
  -25.8162  -26.9551   20.9259 C   0  0  0  0  0  0  0  0  0  0  0  0
  -22.1662   -5.2299   24.6309 C   0  0  0  0  0  0  0  0  0  0  0  0
  -29.0833  -23.5511   18.8815 C   0  0  0  0  0  0  0  0  0  0  0  0
  -24.2273  -10.6920   20.8150 C   0  0  0  0  0  0  0  0  0  0  0  0
  -25.6446  -11.0912   18.7318 C   0  0  0  0  0  0  0  0  0  0  0  0
  -24.7473  -35.5511   23.7677 C   0  0  0  0  0  0  0  0  0  0  0  0
  -25.1742  -29.1647   20.1741 C   0  0  0  0  0  0  0  0  0  0  0  0
  -25.3834  -34.3732   23.3313 C   0  0  0  0  0  0  0  0  0  0  0  0
  -24.9289  -28.0411   20.9762 C   0  0  0  0  0  0  0  0  0  0  0  0
  -22.4279   -9.2470   22.3824 C   0  0  0  0  0  0  0  0  0  0  0  0
  -26.9249  -26.9812   20.0802 C   0  0  0  0  0  0  0  0  0  0  0  0
  -21.7487   -7.1766   23.2623 C   0  0  0  0  0  0  0  0  0  0  0  0
  -22.1477   -4.4251   23.4917 C   0  0  0  0  0  0  0  0  0  0  0  0
  -21.9667   -6.6056   24.5161 C   0  0  0  0  0  0  0  0  0  0  0  0
  -25.1562  -11.4390   20.0055 C   0  0  0  0  0  0  0  0  0  0  0  0
  -29.6827  -24.7503   19.2089 C   0  0  0  0  0  0  0  0  0  0  0  0
  -29.8933  -22.4369   18.9634 C   0  0  0  0  0  0  0  0  0  0  0  0
  -26.4897  -12.1203   18.3954 C   0  0  0  0  0  0  0  0  0  0  0  0
  -31.6575  -23.7061   19.6294 C   0  0  0  0  0  0  0  0  0  0  0  0
  -25.3597   -9.9407   17.9249 C   0  0  0  0  0  0  0  0  0  0  0  0
  -24.2235  -30.9342   22.6376 C   0  0  0  0  0  0  0  0  0  0  0  0
  -21.5504  -29.1101   22.4152 C   0  0  0  0  0  0  0  0  0  0  0  0
  -20.1155  -26.1843   21.4016 C   0  0  0  0  0  0  0  0  0  0  0  0
  -27.7646  -17.3218   17.9928 C   0  0  0  0  0  0  0  0  0  0  0  0
  -23.6463  -35.5230   24.7980 C   0  0  0  0  0  0  0  0  0  0  0  0
  -24.2268  -30.3329   20.1892 C   0  0  0  0  0  0  0  0  0  0  0  0
  -23.7409  -27.9697   21.8992 C   0  0  0  0  0  0  0  0  0  0  0  0
  -23.0119  -34.1458   24.9742 C   0  0  0  0  0  0  0  0  0  0  0  0
  -28.3307  -15.9223   21.1646 C   0  0  0  0  0  0  0  0  0  0  0  0
  -24.0895  -33.0720   25.0859 C   0  0  0  0  0  0  0  0  0  0  0  0
  -27.5884  -14.5916   21.0463 C   0  0  0  0  0  0  0  0  0  0  0  0
  -27.5612  -17.0683   20.5057 C   0  0  0  0  0  0  0  0  0  0  0  0
  -30.1680  -20.1449   18.0694 C   0  0  0  0  0  0  0  0  0  0  0  0
  -28.1559  -20.7611   19.4177 C   0  0  0  0  0  0  0  0  0  0  0  0
  -29.3300  -19.1078   17.3266 C   0  0  0  0  0  0  0  0  0  0  0  0
  -27.3514  -19.7232   18.6431 C   0  0  0  0  0  0  0  0  0  0  0  0
  -26.4403  -15.4759   18.9806 C   0  0  0  0  0  0  0  0  0  0  0  0
  -24.9392  -33.0083   23.8109 C   0  0  1  0  0  0  0  0  0  0  0  0
  -23.4147  -30.4269   21.4773 C   0  0  1  0  0  0  0  0  0  0  0  0
  -27.2169  -14.2945   19.5826 C   0  0  2  0  0  0  0  0  0  0  0  0
  -33.0869  -23.7922   20.0449 C   0  0  0  0  0  0  0  0  0  0  0  0
  -17.9216  -24.9661   21.3914 C   0  0  0  0  0  0  0  0  0  0  0  0
  -21.9052  -28.4512   25.3732 C   0  0  0  0  0  0  0  0  0  0  0  0
  -20.3105  -26.5454   25.0684 C   0  0  0  0  0  0  0  0  0  0  0  0
  -19.5428  -28.8864   24.6775 C   0  0  0  0  0  0  0  0  0  0  0  0
  -20.0440  -26.0997   18.4442 C   0  0  0  0  0  0  0  0  0  0  0  0
  -28.8866  -26.0106   19.1498 C   0  0  0  0  0  0  0  0  0  1  0  0
  -21.0993  -27.7976   23.0091 C   0  0  1  0  0  0  0  0  0  0  0  0
  -18.8420  -25.9031   20.6248 C   0  0  2  0  0  0  0  0  0  0  0  0
  -20.7380  -27.9220   24.5162 C   0  0  0  0  0  0  0  0  0  0  0  0
  -25.6501  -12.5983   20.4482 N   0  0  0  0  0  0  0  0  0  0  0  0
  -30.9723  -24.8647   19.5884 N   0  0  0  0  0  0  0  0  0  0  0  0
  -31.1896  -22.4781   19.3350 N   0  0  0  0  0  0  0  0  0  0  0  0
  -26.4576  -12.9879   19.4472 N   0  0  0  0  0  0  0  0  0  0  0  0
  -29.3225  -21.1995   18.6392 N   0  0  0  0  0  0  0  0  0  0  0  0
  -22.8471  -29.1395   21.8829 N   0  0  0  0  0  0  0  0  0  0  0  0
  -27.1938  -16.7231   19.1258 N   0  0  0  0  0  0  0  0  0  0  0  0
  -28.2029  -18.6484   18.1292 N   0  0  0  0  0  0  0  0  0  0  0  0
  -27.2497  -12.3585   17.3054 N   0  0  0  0  0  0  0  0  0  0  0  0
  -24.4685   -8.9800   18.4221 N   0  0  0  0  0  0  0  0  0  0  0  0
  -24.2261  -32.3104   22.7627 N   0  0  0  0  0  0  0  0  0  0  0  0
  -20.0043  -27.3244   22.1692 N   0  0  0  0  0  0  0  0  0  0  0  0
  -19.1639  -25.2755   19.3120 N   0  3  0  0  0  0  0  0  0  0  0  0
  -25.8927   -9.7617   16.8036 O   0  0  0  0  0  0  0  0  0  0  0  0
  -24.8012  -30.1361   23.3663 O   0  0  0  0  0  0  0  0  0  0  0  0
  -20.7779  -30.0719   22.4170 O   0  0  0  0  0  0  0  0  0  0  0  0
  -21.1082  -25.4626   21.3371 O   0  0  0  0  0  0  0  0  0  0  0  0
  -27.8797  -16.7093   16.9240 O   0  0  0  0  0  0  0  0  0  0  0  0
  -21.5496   -8.5421   23.1469 O   0  0  0  0  0  0  0  0  0  0  0  0
  -27.7820  -25.9128   20.0403 O   0  0  0  0  0  0  0  0  0  1  0  0
  -22.3378   -3.1038   23.6019 F   0  0  0  0  0  0  0  0  0  0  0  0
  -21.9844   -7.3736   25.6142 F   0  0  0  0  0  0  0  0  0  0  0  0
  1  2  1  0  0  0  0
  1  5  2  0  0  0  0
  2  6  2  0  0  0  0
  3  8  2  0  0  0  0
  3 16  1  0  0  0  0
  4  9  1  0  0  0  0
  4 16  2  0  0  0  0
  5 18  1  0  0  0  0
  6 20  1  0  0  0  0
  7 10  2  0  0  0  0
  7 19  1  0  0  0  0
  8 22  1  0  0  0  0
  9 22  2  0  0  0  0
 10 23  1  0  0  0  0
 11 12  2  0  0  0  0
 11 24  1  0  0  0  0
 12 25  1  0  0  0  0
 13 21  1  0  0  0  0
 13 23  2  0  0  0  0
 14 25  2  0  0  0  0
 14 26  1  0  0  0  0
 15 28  1  0  0  0  0
 15 29  2  0  0  0  0
 16 27  1  0  0  0  0
 17 27  1  0  0  0  0
 17 30  2  0  0  0  0
 17 32  1  0  0  0  0
 18 20  2  0  0  0  0
 18 37  1  0  0  0  0
 19 21  2  0  0  0  0
 19 38  1  0  0  0  0
 20 50  1  0  0  0  0
 21 39  1  0  0  0  0
 22 81  1  0  0  0  0
 23 82  1  0  0  0  0
 24 26  2  0  0  0  0
 24 81  1  0  0  0  0
 25 83  1  0  0  0  0
 26 84  1  0  0  0  0
 27 63  2  0  0  0  0
 28 59  1  0  0  0  0
 28 64  2  0  0  0  0
 29 65  1  0  0  0  0
 29 67  1  0  0  0  0
 30 66  1  0  0  0  0
 30 71  1  0  0  0  0
 31 53  1  0  0  0  0
 31 64  1  0  0  0  0
 31 65  2  0  0  0  0
 32 72  1  0  0  0  0
 32 76  2  0  0  0  0
 33 51  1  0  0  0  0
 33 73  1  0  0  0  0
 33 77  2  0  0  0  0
 34 60  1  0  0  0  0
 34 68  1  0  0  0  0
 34 78  2  0  0  0  0
 35 61  1  0  0  0  0
 35 74  1  0  0  0  0
 35 79  2  0  0  0  0
 36 69  1  0  0  0  0
 36 70  1  0  0  0  0
 36 80  2  0  0  0  0
 37 40  1  0  0  0  0
 38 51  1  0  0  0  0
 39 68  1  0  0  0  0
 40 42  1  0  0  0  0
 41 43  1  0  0  0  0
 41 44  1  0  0  0  0
 42 50  1  0  0  0  0
 43 52  1  0  0  0  0
 44 69  1  0  0  0  0
 45 47  1  0  0  0  0
 45 67  1  0  0  0  0
 46 48  1  0  0  0  0
 46 67  1  0  0  0  0
 47 70  1  0  0  0  0
 48 70  1  0  0  0  0
 49 52  1  0  0  0  0
 49 69  1  0  0  0  0
 50 73  1  0  0  0  0
 51 68  1  0  0  0  0
 52 66  1  0  0  0  0
 54 61  1  0  0  0  0
 55 62  1  0  0  0  0
 56 62  1  0  0  0  0
 57 62  1  0  0  0  0
 58 75  1  0  0  0  0
 59 82  1  0  0  0  0
 60 62  1  0  0  0  0
 60 74  1  0  0  0  0
 61 75  1  0  0  0  0
 63 66  1  0  0  0  0
M  CHG  1  75   1
M  ISO  4  36 100  59 101  70 100  82 101
M  END
> <Batch ID>
0190

> <Smiles>
CNC(C)C(=O)NC(C(=O)N1Cc2cc([101O:1][101CH2:1]c3cc(N4CC[100N:0]([100C:0](=O)N5CCCC(n6nc(-c7ccc(Oc8ccc(F)cc8F)cc7)c(C(N)=O)c6N)C5)CC4)nc(C)n3)ccc2CC1C(=O)NC1CCCc2ccccc21)C(C)(C)C

> <Shape>
0.343

> <Color>
0.076

> <Negative vol penalty>
0.000

$$$$

  -OEChem-04052323243D

 83 92  0     1  0  0  0  0  0999 V2000
  -32.3017  -37.8863   21.4094 C   0  0  0  0  0  0  0  0  0  0  0  0
  -32.2279  -36.8560   20.4774 C   0  0  0  0  0  0  0  0  0  0  0  0
  -24.4229   -9.0833   22.2491 C   0  0  0  0  0  0  0  0  0  0  0  0
  -23.9007   -9.1240   19.8906 C   0  0  0  0  0  0  0  0  0  0  0  0
  -31.9362  -37.6534   22.7346 C   0  0  0  0  0  0  0  0  0  0  0  0
  -31.7896  -35.5920   20.8704 C   0  0  0  0  0  0  0  0  0  0  0  0
  -28.1856  -29.9153   18.4001 C   0  0  0  0  0  0  0  0  0  0  0  0
  -23.3180   -8.2638   22.4797 C   0  0  0  0  0  0  0  0  0  0  0  0
  -22.7957   -8.3045   20.1211 C   0  0  0  0  0  0  0  0  0  0  0  0
  -28.3096  -28.5324   18.2737 C   0  0  0  0  0  0  0  0  0  0  0  0
  -22.5275   -4.9939   22.1393 C   0  0  0  0  0  0  0  0  0  0  0  0
  -22.7018   -3.8906   22.9747 C   0  0  0  0  0  0  0  0  0  0  0  0
  -27.6289  -28.2672   20.5727 C   0  0  0  0  0  0  0  0  0  0  0  0
  -21.0181   -4.7597   24.4737 C   0  0  0  0  0  0  0  0  0  0  0  0
  -29.6098  -23.6949   18.6441 C   0  0  0  0  0  0  0  0  0  0  0  0
  -24.7143   -9.5134   20.9546 C   0  0  0  0  0  0  0  0  0  0  0  0
  -27.1692   -9.9525   20.4177 C   0  0  0  0  0  0  0  0  0  0  0  0
  -31.4840  -36.3884   23.1419 C   0  0  0  0  0  0  0  0  0  0  0  0
  -27.7921  -30.4861   19.6190 C   0  0  0  0  0  0  0  0  0  0  0  0
  -31.4190  -35.3416   22.2026 C   0  0  0  0  0  0  0  0  0  0  0  0
  -27.4982  -29.6575   20.7112 C   0  0  0  0  0  0  0  0  0  0  0  0
  -22.5044   -7.8744   21.4157 C   0  0  0  0  0  0  0  0  0  0  0  0
  -28.0340  -27.7083   19.3609 C   0  0  0  0  0  0  0  0  0  0  0  0
  -21.5986   -5.9802   22.4711 C   0  0  0  0  0  0  0  0  0  0  0  0
  -21.9470   -3.7735   24.1419 C   0  0  0  0  0  0  0  0  0  0  0  0
  -20.8439   -5.8631   23.6383 C   0  0  0  0  0  0  0  0  0  0  0  0
  -25.8552  -10.3604   20.7159 C   0  0  0  0  0  0  0  0  0  0  0  0
  -28.6026  -24.3686   18.0021 C   0  0  0  0  0  0  0  0  0  0  0  0
  -27.8704  -11.1257   20.2818 C   0  0  0  0  0  0  0  0  0  0  0  0
  -28.6426  -21.7439   18.0460 C   0  0  0  0  0  0  0  0  0  0  0  0
  -27.7077   -8.6313   20.2761 C   0  0  0  0  0  0  0  0  0  0  0  0
  -29.1328  -32.4831   21.6970 C   0  0  0  0  0  0  0  0  0  0  0  0
  -26.2207  -32.3408   23.1188 C   0  0  0  0  0  0  0  0  0  0  0  0
  -23.3201  -30.6123   23.6147 C   0  0  0  0  0  0  0  0  0  0  0  0
  -28.4974  -16.1357   18.4512 C   0  0  0  0  0  0  0  0  0  0  0  0
  -31.1450  -36.1720   24.5955 C   0  0  0  0  0  0  0  0  0  0  0  0
  -27.6373  -31.9781   19.7313 C   0  0  0  0  0  0  0  0  0  0  0  0
  -27.0526  -30.2194   22.0357 C   0  0  0  0  0  0  0  0  0  0  0  0
  -30.3348  -34.9034   24.8497 C   0  0  0  0  0  0  0  0  0  0  0  0
  -26.5932  -15.8848   21.3924 C   0  0  0  0  0  0  0  0  0  0  0  0
  -30.9425  -33.7226   24.0993 C   0  0  0  0  0  0  0  0  0  0  0  0
  -26.3321  -14.3804   21.4578 C   0  0  0  0  0  0  0  0  0  0  0  0
  -26.4859  -16.4236   19.9649 C   0  0  0  0  0  0  0  0  0  0  0  0
  -29.7182  -19.6253   18.7410 C   0  0  0  0  0  0  0  0  0  0  0  0
  -27.3388  -19.6634   17.9774 C   0  0  0  0  0  0  0  0  0  0  0  0
  -29.8403  -18.1926   18.2291 C   0  0  0  0  0  0  0  0  0  0  0  0
  -27.5067  -18.2362   17.4681 C   0  0  0  0  0  0  0  0  0  0  0  0
  -27.0719  -14.2007   19.0521 C   0  0  0  0  0  0  0  0  0  0  0  0
  -30.9250  -33.9632   22.5849 C   0  0  1  0  0  0  0  0  0  0  0  0
  -27.7262  -32.4815   21.1687 C   0  0  1  0  0  0  0  0  0  0  0  0
  -27.2304  -13.6202   20.4660 C   0  0  2  0  0  0  0  0  0  0  0  0
  -21.1436  -30.7320   24.8581 C   0  0  0  0  0  0  0  0  0  0  0  0
  -27.6576  -31.5843   25.7020 C   0  0  0  0  0  0  0  0  0  0  0  0
  -25.4602  -30.8048   26.6141 C   0  0  0  0  0  0  0  0  0  0  0  0
  -25.7714  -33.2005   25.9923 C   0  0  0  0  0  0  0  0  0  0  0  0
  -21.7517  -30.5875   21.1050 C   0  0  0  0  0  0  0  0  0  0  0  0
  -28.5688  -25.8548   17.9700 C   0  0  0  0  0  0  0  0  0  1  0  0
  -25.5849  -31.4605   24.1676 C   0  0  1  0  0  0  0  0  0  0  0  0
  -21.8665  -31.0464   23.5576 C   0  0  2  0  0  0  0  0  0  0  0  0
  -26.1288  -31.7518   25.5947 C   0  0  0  0  0  0  0  0  0  0  0  0
  -29.6539  -22.3545   18.6813 N   0  0  0  0  0  0  0  0  0  0  0  0
  -25.7267  -11.6889   20.7668 N   0  0  0  0  0  0  0  0  0  0  0  0
  -27.6132  -23.7012   17.3812 N   0  0  0  0  0  0  0  0  0  0  0  0
  -27.6282  -22.3521   17.4004 N   0  0  0  0  0  0  0  0  0  0  0  0
  -26.9690  -12.1260   20.4988 N   0  0  0  0  0  0  0  0  0  0  0  0
  -28.6392  -20.3432   18.0537 N   0  0  0  0  0  0  0  0  0  0  0  0
  -26.9222  -31.6846   22.0975 N   0  0  0  0  0  0  0  0  0  0  0  0
  -27.3279  -15.6425   19.0489 N   0  0  0  0  0  0  0  0  0  0  0  0
  -28.5491  -17.5162   18.2026 N   0  0  0  0  0  0  0  0  0  0  0  0
  -29.1639  -11.3889   19.9992 N   0  0  0  0  0  0  0  0  0  0  0  0
  -26.8484   -7.5376   20.4482 N   0  0  0  0  0  0  0  0  0  0  0  0
  -29.5990  -33.7346   22.0522 N   0  0  0  0  0  0  0  0  0  0  0  0
  -24.1433  -31.6376   24.0298 N   0  0  0  0  0  0  0  0  0  0  0  0
  -21.1606  -30.3475   22.4466 N   0  3  0  0  0  0  0  0  0  0  0  0
  -28.9187   -8.4265   20.0211 O   0  0  0  0  0  0  0  0  0  0  0  0
  -29.7491  -31.4270   21.7780 O   0  0  0  0  0  0  0  0  0  0  0  0
  -26.0933  -33.5651   23.1987 O   0  0  0  0  0  0  0  0  0  0  0  0
  -23.6879  -29.4763   23.3239 O   0  0  0  0  0  0  0  0  0  0  0  0
  -29.4406  -15.3901   18.1593 O   0  0  0  0  0  0  0  0  0  0  0  0
  -21.4262   -7.0746   21.6403 O   0  0  0  0  0  0  0  0  0  0  0  0
  -28.1557  -26.3496   19.2396 O   0  0  0  0  0  0  0  0  0  1  0  0
  -22.1134   -2.7132   24.9432 F   0  0  0  0  0  0  0  0  0  0  0  0
  -19.9491   -6.8068   23.9617 F   0  0  0  0  0  0  0  0  0  0  0  0
  1  2  1  0  0  0  0
  1  5  2  0  0  0  0
  2  6  2  0  0  0  0
  3  8  2  0  0  0  0
  3 16  1  0  0  0  0
  4  9  1  0  0  0  0
  4 16  2  0  0  0  0
  5 18  1  0  0  0  0
  6 20  1  0  0  0  0
  7 10  2  0  0  0  0
  7 19  1  0  0  0  0
  8 22  1  0  0  0  0
  9 22  2  0  0  0  0
 10 23  1  0  0  0  0
 11 12  2  0  0  0  0
 11 24  1  0  0  0  0
 12 25  1  0  0  0  0
 13 21  1  0  0  0  0
 13 23  2  0  0  0  0
 14 25  2  0  0  0  0
 14 26  1  0  0  0  0
 15 28  1  0  0  0  0
 15 61  2  0  0  0  0
 16 27  1  0  0  0  0
 17 27  1  0  0  0  0
 17 29  2  0  0  0  0
 17 31  1  0  0  0  0
 18 20  2  0  0  0  0
 18 36  1  0  0  0  0
 19 21  2  0  0  0  0
 19 37  1  0  0  0  0
 20 49  1  0  0  0  0
 21 38  1  0  0  0  0
 22 80  1  0  0  0  0
 23 81  1  0  0  0  0
 24 26  2  0  0  0  0
 24 80  1  0  0  0  0
 25 82  1  0  0  0  0
 26 83  1  0  0  0  0
 27 62  2  0  0  0  0
 28 57  1  0  0  0  0
 28 63  2  0  0  0  0
 29 65  1  0  0  0  0
 29 70  1  0  0  0  0
 30 61  1  0  0  0  0
 30 64  2  0  0  0  0
 30 66  1  0  0  0  0
 31 71  1  0  0  0  0
 31 75  2  0  0  0  0
 32 50  1  0  0  0  0
 32 72  1  0  0  0  0
 32 76  2  0  0  0  0
 33 58  1  0  0  0  0
 33 67  1  0  0  0  0
 33 77  2  0  0  0  0
 34 59  1  0  0  0  0
 34 73  1  0  0  0  0
 34 78  2  0  0  0  0
 35 68  1  0  0  0  0
 35 69  1  0  0  0  0
 35 79  2  0  0  0  0
 36 39  1  0  0  0  0
 37 50  1  0  0  0  0
 38 67  1  0  0  0  0
 39 41  1  0  0  0  0
 40 42  1  0  0  0  0
 40 43  1  0  0  0  0
 41 49  1  0  0  0  0
 42 51  1  0  0  0  0
 43 68  1  0  0  0  0
 44 46  1  0  0  0  0
 44 66  1  0  0  0  0
 45 47  1  0  0  0  0
 45 66  1  0  0  0  0
 46 69  1  0  0  0  0
 47 69  1  0  0  0  0
 48 51  1  0  0  0  0
 48 68  1  0  0  0  0
 49 72  1  0  0  0  0
 50 67  1  0  0  0  0
 51 65  1  0  0  0  0
 52 59  1  0  0  0  0
 53 60  1  0  0  0  0
 54 60  1  0  0  0  0
 55 60  1  0  0  0  0
 56 74  1  0  0  0  0
 57 81  1  0  0  0  0
 58 60  1  0  0  0  0
 58 73  1  0  0  0  0
 59 74  1  0  0  0  0
 62 65  1  0  0  0  0
 63 64  1  0  0  0  0
M  CHG  1  74   1
M  ISO  4  35 100  57 101  69 100  81 101
M  END
> <Batch ID>
0190

> <Smiles>
CNC(C)C(=O)NC(C(=O)N1Cc2cc([101O:1][101CH2:1]c3cnc(N4CC[100N:0]([100C:0](=O)N5CCCC(n6nc(-c7ccc(Oc8ccc(F)cc8F)cc7)c(C(N)=O)c6N)C5)CC4)nn3)ccc2CC1C(=O)NC1CCCc2ccccc21)C(C)(C)C

> <Shape>
0.259

> <Color>
0.110

> <Negative vol penalty>
0.000

$$$$

  -OEChem-04052323243D

 80 89  0     1  0  0  0  0  0999 V2000
  -30.0075  -34.2722   24.0416 C   0  0  0  0  0  0  0  0  0  0  0  0
  -30.2891  -32.9456   23.7314 C   0  0  0  0  0  0  0  0  0  0  0  0
  -23.2679   -9.7080   21.0752 C   0  0  0  0  0  0  0  0  0  0  0  0
  -23.9527  -10.5058   23.2505 C   0  0  0  0  0  0  0  0  0  0  0  0
  -28.6936  -34.6639   24.2949 C   0  0  0  0  0  0  0  0  0  0  0  0
  -29.2570  -32.0096   23.6755 C   0  0  0  0  0  0  0  0  0  0  0  0
  -28.8379  -27.2134   19.8905 C   0  0  0  0  0  0  0  0  0  0  0  0
  -22.5864   -8.6505   21.6775 C   0  0  0  0  0  0  0  0  0  0  0  0
  -23.2711   -9.4482   23.8528 C   0  0  0  0  0  0  0  0  0  0  0  0
  -29.1283  -25.8599   20.0558 C   0  0  0  0  0  0  0  0  0  0  0  0
  -20.0787   -8.6744   24.6465 C   0  0  0  0  0  0  0  0  0  0  0  0
  -19.2886   -8.9644   25.7588 C   0  0  0  0  0  0  0  0  0  0  0  0
  -26.8094  -25.4306   20.5635 C   0  0  0  0  0  0  0  0  0  0  0  0
  -20.6191   -7.4558   27.0971 C   0  0  0  0  0  0  0  0  0  0  0  0
  -29.8286  -20.9945   21.7035 C   0  0  0  0  0  0  0  0  0  0  0  0
  -23.9511  -10.6356   21.8617 C   0  0  0  0  0  0  0  0  0  0  0  0
  -24.1456  -13.0036   20.9330 C   0  0  0  0  0  0  0  0  0  0  0  0
  -27.6437  -33.7342   24.2325 C   0  0  0  0  0  0  0  0  0  0  0  0
  -27.5309  -27.6883   20.0714 C   0  0  0  0  0  0  0  0  0  0  0  0
  -27.9280  -32.3890   23.9295 C   0  0  0  0  0  0  0  0  0  0  0  0
  -26.5045  -26.7902   20.3973 C   0  0  0  0  0  0  0  0  0  0  0  0
  -22.5880   -8.5206   23.0663 C   0  0  0  0  0  0  0  0  0  0  0  0
  -28.1145  -24.9687   20.3952 C   0  0  0  0  0  0  0  0  0  0  0  0
  -21.1390   -7.7751   24.7595 C   0  0  0  0  0  0  0  0  0  0  0  0
  -19.5588   -8.3551   26.9841 C   0  0  0  0  0  0  0  0  0  0  0  0
  -21.4092   -7.1658   25.9848 C   0  0  0  0  0  0  0  0  0  0  0  0
  -24.6557  -11.7280   21.2400 C   0  0  0  0  0  0  0  0  0  0  0  0
  -29.8499  -21.7579   20.5589 C   0  0  0  0  0  0  0  0  0  0  0  0
  -25.2022  -13.6667   20.3581 C   0  0  0  0  0  0  0  0  0  0  0  0
  -30.0493  -19.6582   19.9607 C   0  0  0  0  0  0  0  0  0  0  0  0
  -22.8339  -13.5412   21.1482 C   0  0  0  0  0  0  0  0  0  0  0  0
  -26.1470  -29.7458   22.0601 C   0  0  0  0  0  0  0  0  0  0  0  0
  -23.5541  -29.2147   20.1848 C   0  0  0  0  0  0  0  0  0  0  0  0
  -21.9217  -27.1458   18.0164 C   0  0  0  0  0  0  0  0  0  0  0  0
  -30.6067  -15.0550   20.2652 C   0  0  0  0  0  0  0  0  0  0  0  0
  -26.2455  -34.1951   24.5605 C   0  0  0  0  0  0  0  0  0  0  0  0
  -27.2290  -29.1470   19.8632 C   0  0  0  0  0  0  0  0  0  0  0  0
  -25.0811  -27.2462   20.5829 C   0  0  0  0  0  0  0  0  0  0  0  0
  -30.1894  -18.2841   19.4401 C   0  0  0  0  0  0  0  0  0  0  0  0
  -25.1614  -33.2179   24.1132 C   0  0  0  0  0  0  0  0  0  0  0  0
  -29.6897  -11.9574   18.7685 C   0  0  0  0  0  0  0  0  0  0  0  0
  -25.5300  -31.7925   24.5122 C   0  0  0  0  0  0  0  0  0  0  0  0
  -28.2592  -11.7241   19.2577 C   0  0  0  0  0  0  0  0  0  0  0  0
  -30.0028  -18.3912   21.9104 C   0  0  0  0  0  0  0  0  0  0  0  0
  -30.5533  -12.6147   19.8427 C   0  0  0  0  0  0  0  0  0  0  0  0
  -28.5683  -13.6259   20.8966 C   0  0  0  0  0  0  0  0  0  0  0  0
  -26.8325  -31.3493   23.8349 C   0  0  1  0  0  0  0  0  0  0  0  0
  -25.9595  -29.6022   20.5763 C   0  0  1  0  0  0  0  0  0  0  0  0
  -27.6442  -13.0159   19.8288 C   0  0  2  0  0  0  0  0  0  0  0  0
  -30.5050  -17.4891   20.7385 C   0  0  1  0  0  0  0  0  0  0  0  0
  -19.8046  -26.9663   16.6811 C   0  0  0  0  0  0  0  0  0  0  0  0
  -22.0114  -28.5310   22.7270 C   0  0  0  0  0  0  0  0  0  0  0  0
  -20.2555  -27.4692   21.2926 C   0  0  0  0  0  0  0  0  0  0  0  0
  -20.7376  -29.9067   21.0719 C   0  0  0  0  0  0  0  0  0  0  0  0
  -23.4070  -27.0361   15.4590 C   0  0  0  0  0  0  0  0  0  0  0  0
  -29.7502  -23.2425   20.3654 C   0  0  0  0  0  0  0  0  0  1  0  0
  -22.4118  -28.2277   20.1944 C   0  0  1  0  0  0  0  0  0  0  0  0
  -21.2588  -27.4112   16.6768 C   0  0  2  0  0  0  0  0  0  0  0  0
  -21.3812  -28.5250   21.3199 C   0  0  0  0  0  0  0  0  0  0  0  0
  -25.9367  -11.5867   20.8891 N   0  0  0  0  0  0  0  0  0  0  0  0
  -29.9566  -19.7013   21.2876 N   0  0  0  0  0  0  0  0  0  0  0  0
  -26.2404  -12.7822   20.3556 N   0  0  0  0  0  0  0  0  0  0  0  0
  -29.9886  -20.8953   19.4840 N   0  3  0  0  0  0  0  0  0  0  0  0
  -24.8375  -28.6831   20.3746 N   0  0  0  0  0  0  0  0  0  0  0  0
  -29.9146  -13.8351   20.3413 N   0  0  0  0  0  0  0  0  0  0  0  0
  -25.3351  -14.9142   19.8596 N   0  0  0  0  0  0  0  0  0  0  0  0
  -21.8677  -12.7243   21.7511 N   0  0  0  0  0  0  0  0  0  0  0  0
  -26.5884  -30.9949   22.4531 N   0  0  0  0  0  0  0  0  0  0  0  0
  -21.8482  -28.2425   18.8489 N   0  0  0  0  0  0  0  0  0  0  0  0
  -29.9268  -16.1639   20.7540 N   0  0  0  0  0  0  0  0  0  0  0  0
  -21.9713  -26.6786   15.5921 N   0  3  0  0  0  0  0  0  0  0  0  0
  -22.5231  -14.7058   20.8009 O   0  0  0  0  0  0  0  0  0  0  0  0
  -25.9075  -28.7943   22.7943 O   0  0  0  0  0  0  0  0  0  0  0  0
  -23.3170  -30.4123   20.0079 O   0  0  0  0  0  0  0  0  0  0  0  0
  -22.4484  -26.0716   18.2978 O   0  0  0  0  0  0  0  0  0  0  0  0
  -31.7441  -15.1499   19.7915 O   0  0  0  0  0  0  0  0  0  0  0  0
  -21.9230   -7.4889   23.6544 O   0  0  0  0  0  0  0  0  0  0  0  0
  -28.3953  -23.6471   20.5578 O   0  0  0  0  0  0  0  0  0  1  0  0
  -18.8009   -8.6347   28.0526 F   0  0  0  0  0  0  0  0  0  0  0  0
  -22.4272   -6.3019   26.0997 F   0  0  0  0  0  0  0  0  0  0  0  0
  1  2  1  0  0  0  0
  1  5  2  0  0  0  0
  2  6  2  0  0  0  0
  3  8  2  0  0  0  0
  3 16  1  0  0  0  0
  4  9  1  0  0  0  0
  4 16  2  0  0  0  0
  5 18  1  0  0  0  0
  6 20  1  0  0  0  0
  7 10  2  0  0  0  0
  7 19  1  0  0  0  0
  8 22  1  0  0  0  0
  9 22  2  0  0  0  0
 10 23  1  0  0  0  0
 11 12  2  0  0  0  0
 11 24  1  0  0  0  0
 12 25  1  0  0  0  0
 13 21  1  0  0  0  0
 13 23  2  0  0  0  0
 14 25  2  0  0  0  0
 14 26  1  0  0  0  0
 15 28  2  0  0  0  0
 15 61  1  0  0  0  0
 16 27  1  0  0  0  0
 17 27  1  0  0  0  0
 17 29  2  0  0  0  0
 17 31  1  0  0  0  0
 18 20  2  0  0  0  0
 18 36  1  0  0  0  0
 19 21  2  0  0  0  0
 19 37  1  0  0  0  0
 20 47  1  0  0  0  0
 21 38  1  0  0  0  0
 22 77  1  0  0  0  0
 23 78  1  0  0  0  0
 24 26  2  0  0  0  0
 24 77  1  0  0  0  0
 25 79  1  0  0  0  0
 26 80  1  0  0  0  0
 27 60  2  0  0  0  0
 28 56  1  0  0  0  0
 28 63  1  0  0  0  0
 29 62  1  0  0  0  0
 29 66  1  0  0  0  0
 30 39  1  0  0  0  0
 30 61  1  0  0  0  0
 30 63  2  0  0  0  0
 31 67  1  0  0  0  0
 31 72  2  0  0  0  0
 32 48  1  0  0  0  0
 32 68  1  0  0  0  0
 32 73  2  0  0  0  0
 33 57  1  0  0  0  0
 33 64  1  0  0  0  0
 33 74  2  0  0  0  0
 34 58  1  0  0  0  0
 34 69  1  0  0  0  0
 34 75  2  0  0  0  0
 35 65  1  0  0  0  0
 35 70  1  0  0  0  0
 35 76  2  0  0  0  0
 36 40  1  0  0  0  0
 37 48  1  0  0  0  0
 38 64  1  0  0  0  0
 39 50  1  0  0  0  0
 40 42  1  0  0  0  0
 41 43  1  0  0  0  0
 41 45  1  0  0  0  0
 42 47  1  0  0  0  0
 43 49  1  0  0  0  0
 44 50  1  0  0  0  0
 44 61  1  0  0  0  0
 45 65  1  0  0  0  0
 46 49  1  0  0  0  0
 46 65  1  0  0  0  0
 47 68  1  0  0  0  0
 48 64  1  0  0  0  0
 49 62  1  0  0  0  0
 50 70  1  0  0  0  0
 51 58  1  0  0  0  0
 52 59  1  0  0  0  0
 53 59  1  0  0  0  0
 54 59  1  0  0  0  0
 55 71  1  0  0  0  0
 56 78  1  0  0  0  0
 57 59  1  0  0  0  0
 57 69  1  0  0  0  0
 58 71  1  0  0  0  0
 60 62  1  0  0  0  0
M  CHG  2  63   1  71   1
M  ISO  4  35 100  56 101  70 100  78 101
M  END
> <Batch ID>
0190

> <Smiles>
CNC(C)C(=O)NC(C(=O)N1Cc2cc([101O:1][101CH2:1]c3cn4c(n3)CC([100NH:0][100C:0](=O)N3CCCC(n5nc(-c6ccc(Oc7ccc(F)cc7F)cc6)c(C(N)=O)c5N)C3)C4)ccc2CC1C(=O)NC1CCCc2ccccc21)C(C)(C)C

> <Shape>
0.337

> <Color>
0.162

> <Negative vol penalty>
0.000

$$$$

  -OEChem-04052323243D

 85 95  0     1  0  0  0  0  0999 V2000
  -16.3228  -30.0697   24.2398 C   0  0  0  0  0  0  0  0  0  0  0  0
  -16.7916  -28.7671   24.3768 C   0  0  0  0  0  0  0  0  0  0  0  0
  -24.3693  -13.8523   24.1017 C   0  0  0  0  0  0  0  0  0  0  0  0
  -23.9837  -15.7443   22.6495 C   0  0  0  0  0  0  0  0  0  0  0  0
  -16.9788  -30.9597   23.3904 C   0  0  0  0  0  0  0  0  0  0  0  0
  -17.9161  -28.3533   23.6636 C   0  0  0  0  0  0  0  0  0  0  0  0
  -23.5658  -23.9810   24.1926 C   0  0  0  0  0  0  0  0  0  0  0  0
  -23.8725  -14.5807   25.1826 C   0  0  0  0  0  0  0  0  0  0  0  0
  -23.4869  -16.4727   23.7304 C   0  0  0  0  0  0  0  0  0  0  0  0
  -24.2080  -22.9613   23.4915 C   0  0  0  0  0  0  0  0  0  0  0  0
  -24.7345  -18.1805   26.3681 C   0  0  0  0  0  0  0  0  0  0  0  0
  -25.1698  -19.4972   26.5172 C   0  0  0  0  0  0  0  0  0  0  0  0
  -25.3072  -24.6086   22.1142 C   0  0  0  0  0  0  0  0  0  0  0  0
  -22.8894  -20.2725   26.3270 C   0  0  0  0  0  0  0  0  0  0  0  0
  -30.5698  -20.1172   17.2811 C   0  0  0  0  0  0  0  0  0  0  0  0
  -24.4250  -14.4342   22.8352 C   0  0  0  0  0  0  0  0  0  0  0  0
  -24.2087  -12.8596   20.8397 C   0  0  0  0  0  0  0  0  0  0  0  0
  -18.1176  -30.5595   22.6738 C   0  0  0  0  0  0  0  0  0  0  0  0
  -23.7815  -25.3241   23.8521 C   0  0  0  0  0  0  0  0  0  0  0  0
  -18.5872  -29.2384   22.8027 C   0  0  0  0  0  0  0  0  0  0  0  0
  -24.6686  -25.6437   22.8142 C   0  0  0  0  0  0  0  0  0  0  0  0
  -23.4312  -15.8908   24.9969 C   0  0  0  0  0  0  0  0  0  0  0  0
  -25.0766  -23.2749   22.4502 C   0  0  0  0  0  0  0  0  0  0  0  0
  -23.3767  -17.9096   26.1984 C   0  0  0  0  0  0  0  0  0  0  0  0
  -24.2472  -20.5432   26.4967 C   0  0  0  0  0  0  0  0  0  0  0  0
  -22.4542  -18.9556   26.1779 C   0  0  0  0  0  0  0  0  0  0  0  0
  -24.9386  -13.6825   21.7183 C   0  0  0  0  0  0  0  0  0  0  0  0
  -30.3431  -19.3800   18.4255 C   0  0  0  0  0  0  0  0  0  0  0  0
  -30.0888  -21.4104   17.2990 C   0  0  0  0  0  0  0  0  0  0  0  0
  -25.1478  -12.3776   19.9610 C   0  0  0  0  0  0  0  0  0  0  0  0
  -29.2773  -21.1331   19.4041 C   0  0  0  0  0  0  0  0  0  0  0  0
  -22.8072  -12.5581   20.8197 C   0  0  0  0  0  0  0  0  0  0  0  0
  -21.9439  -27.6941   22.7984 C   0  0  0  0  0  0  0  0  0  0  0  0
  -24.6417  -29.4478   23.2093 C   0  0  0  0  0  0  0  0  0  0  0  0
  -28.0473  -29.5188   23.4183 C   0  0  0  0  0  0  0  0  0  0  0  0
  -30.5662  -14.5528   18.3265 C   0  0  0  0  0  0  0  0  0  0  0  0
  -18.7652  -31.5431   21.7315 C   0  0  0  0  0  0  0  0  0  0  0  0
  -23.1018  -26.4134   24.6356 C   0  0  0  0  0  0  0  0  0  0  0  0
  -24.9500  -27.0705   22.4226 C   0  0  0  0  0  0  0  0  0  0  0  0
  -20.1712  -31.1362   21.2980 C   0  0  0  0  0  0  0  0  0  0  0  0
  -29.7751  -11.2942   19.6260 C   0  0  0  0  0  0  0  0  0  0  0  0
  -20.1994  -29.6670   20.8889 C   0  0  0  0  0  0  0  0  0  0  0  0
  -28.4086  -11.4703   20.2797 C   0  0  0  0  0  0  0  0  0  0  0  0
  -30.6156  -12.5554   19.7742 C   0  0  0  0  0  0  0  0  0  0  0  0
  -29.8984  -16.8758   19.3353 C   0  0  0  0  0  0  0  0  0  0  0  0
  -30.7309  -16.9205   17.3864 C   0  0  0  0  0  0  0  0  0  0  0  0
  -28.5772  -13.9684   19.8184 C   0  0  0  0  0  0  0  0  0  0  0  0
  -27.8087  -20.9458   21.4385 C   0  0  0  0  0  0  0  0  0  0  0  0
  -27.8309  -22.8491   20.5415 C   0  0  0  0  0  0  0  0  0  0  0  0
  -19.8185  -28.7594   22.0648 C   0  0  1  0  0  0  0  0  0  0  0  0
  -30.8192  -17.8777   18.5973 C   0  0  0  0  0  0  0  0  0  0  0  0
  -22.9995  -27.7274   23.8672 C   0  0  1  0  0  0  0  0  0  0  0  0
  -27.6972  -12.7071   19.7123 C   0  0  2  0  0  0  0  0  0  0  0  0
  -27.1310  -22.2794   21.7838 C   0  0  0  0  0  0  0  0  0  1  0  0
  -30.2867  -22.2849   16.1067 C   0  0  0  0  0  0  0  0  0  0  0  0
  -29.9698  -31.1033   23.7197 C   0  0  0  0  0  0  0  0  0  0  0  0
  -24.3364  -30.3649   20.3152 C   0  0  0  0  0  0  0  0  0  0  0  0
  -26.7161  -31.1400   20.3830 C   0  0  0  0  0  0  0  0  0  0  0  0
  -25.0296  -32.1613   21.9112 C   0  0  0  0  0  0  0  0  0  0  0  0
  -28.9047  -28.1862   25.9179 C   0  0  0  0  0  0  0  0  0  0  0  0
  -25.8283  -29.8022   22.3459 C   0  0  1  0  0  0  0  0  0  0  0  0
  -28.9817  -30.1800   24.4154 C   0  0  2  0  0  0  0  0  0  0  0  0
  -25.4710  -30.8400   21.2447 C   0  0  0  0  0  0  0  0  0  0  0  0
  -26.2409  -13.7231   21.4246 N   0  0  0  0  0  0  0  0  0  0  0  0
  -29.6979  -19.8582   19.5096 N   0  0  0  0  0  0  0  0  0  0  0  0
  -29.4354  -21.9528   18.3474 N   0  0  0  0  0  0  0  0  0  0  0  0
  -26.3368  -12.9196   20.3516 N   0  0  0  0  0  0  0  0  0  0  0  0
  -28.6074  -21.6589   20.5033 N   0  0  0  0  0  0  0  0  0  0  0  0
  -24.2564  -28.0997   23.2145 N   0  0  0  0  0  0  0  0  0  0  0  0
  -29.9215  -13.7438   19.2690 N   0  0  0  0  0  0  0  0  0  0  0  0
  -30.2977  -15.9013   18.3343 N   0  0  0  0  0  0  0  0  0  0  0  0
  -25.0642  -11.5471   18.8999 N   0  0  0  0  0  0  0  0  0  0  0  0
  -21.9849  -13.1383   21.7951 N   0  0  0  0  0  0  0  0  0  0  0  0
  -20.9333  -28.6194   22.9769 N   0  0  0  0  0  0  0  0  0  0  0  0
  -26.8811  -30.2368   23.2575 N   0  0  0  0  0  0  0  0  0  0  0  0
  -29.7513  -29.1485   25.1668 N   0  3  0  0  0  0  0  0  0  0  0  0
  -22.3017  -11.7837   19.9721 O   0  0  0  0  0  0  0  0  0  0  0  0
  -22.0401  -26.8896   21.8791 O   0  0  0  0  0  0  0  0  0  0  0  0
  -24.0819  -30.3332   23.8608 O   0  0  0  0  0  0  0  0  0  0  0  0
  -28.3258  -28.4723   22.8372 O   0  0  0  0  0  0  0  0  0  0  0  0
  -31.3825  -14.0906   17.5183 O   0  0  0  0  0  0  0  0  0  0  0  0
  -22.9461  -16.6017   26.0514 O   0  0  0  0  0  0  0  0  0  0  0  0
  -25.7041  -22.2814   21.7639 O   0  0  0  0  0  0  0  0  0  1  0  0
  -24.6651  -21.8076   26.6414 F   0  0  0  0  0  0  0  0  0  0  0  0
  -21.1484  -18.7016   26.0164 F   0  0  0  0  0  0  0  0  0  0  0  0
  1  2  1  0  0  0  0
  1  5  2  0  0  0  0
  2  6  2  0  0  0  0
  3  8  2  0  0  0  0
  3 16  1  0  0  0  0
  4  9  1  0  0  0  0
  4 16  2  0  0  0  0
  5 18  1  0  0  0  0
  6 20  1  0  0  0  0
  7 10  2  0  0  0  0
  7 19  1  0  0  0  0
  8 22  1  0  0  0  0
  9 22  2  0  0  0  0
 10 23  1  0  0  0  0
 11 12  2  0  0  0  0
 11 24  1  0  0  0  0
 12 25  1  0  0  0  0
 13 21  1  0  0  0  0
 13 23  2  0  0  0  0
 14 25  2  0  0  0  0
 14 26  1  0  0  0  0
 15 28  2  0  0  0  0
 15 29  1  0  0  0  0
 16 27  1  0  0  0  0
 17 27  1  0  0  0  0
 17 30  2  0  0  0  0
 17 32  1  0  0  0  0
 18 20  2  0  0  0  0
 18 37  1  0  0  0  0
 19 21  2  0  0  0  0
 19 38  1  0  0  0  0
 20 50  1  0  0  0  0
 21 39  1  0  0  0  0
 22 82  1  0  0  0  0
 23 83  1  0  0  0  0
 24 26  2  0  0  0  0
 24 82  1  0  0  0  0
 25 84  1  0  0  0  0
 26 85  1  0  0  0  0
 27 64  2  0  0  0  0
 28 51  1  0  0  0  0
 28 65  1  0  0  0  0
 29 55  1  0  0  0  0
 29 66  2  0  0  0  0
 30 67  1  0  0  0  0
 30 72  1  0  0  0  0
 31 65  2  0  0  0  0
 31 66  1  0  0  0  0
 31 68  1  0  0  0  0
 32 73  1  0  0  0  0
 32 77  2  0  0  0  0
 33 52  1  0  0  0  0
 33 74  1  0  0  0  0
 33 78  2  0  0  0  0
 34 61  1  0  0  0  0
 34 69  1  0  0  0  0
 34 79  2  0  0  0  0
 35 62  1  0  0  0  0
 35 75  1  0  0  0  0
 35 80  2  0  0  0  0
 36 70  1  0  0  0  0
 36 71  1  0  0  0  0
 36 81  2  0  0  0  0
 37 40  1  0  0  0  0
 38 52  1  0  0  0  0
 39 69  1  0  0  0  0
 40 42  1  0  0  0  0
 41 43  1  0  0  0  0
 41 44  1  0  0  0  0
 42 50  1  0  0  0  0
 43 53  1  0  0  0  0
 44 70  1  0  0  0  0
 45 51  1  0  0  0  0
 45 71  1  0  0  0  0
 46 51  1  0  0  0  0
 46 71  1  0  0  0  0
 47 53  1  0  0  0  0
 47 70  1  0  0  0  0
 48 54  1  0  0  0  0
 48 68  1  0  0  0  0
 49 54  1  0  0  0  0
 49 68  1  0  0  0  0
 50 74  1  0  0  0  0
 52 69  1  0  0  0  0
 53 67  1  0  0  0  0
 54 83  1  0  0  0  0
 56 62  1  0  0  0  0
 57 63  1  0  0  0  0
 58 63  1  0  0  0  0
 59 63  1  0  0  0  0
 60 76  1  0  0  0  0
 61 63  1  0  0  0  0
 61 75  1  0  0  0  0
 62 76  1  0  0  0  0
 64 67  1  0  0  0  0
M  CHG  1  76   1
M  ISO  4  36 100  54 101  71 100  83 101
M  END
> <Batch ID>
0190

> <Smiles>
CNC(C)C(=O)NC(C(=O)N1Cc2cc([101O:1][101CH:1]3CN(c4nc(C)cc(C5C[100N:0]([100C:0](=O)N6CCCC(n7nc(-c8ccc(Oc9ccc(F)cc9F)cc8)c(C(N)=O)c7N)C6)C5)n4)C3)ccc2CC1C(=O)NC1CCCc2ccccc21)C(C)(C)C

> <Shape>
0.222

> <Color>
0.087

> <Negative vol penalty>
0.000

$$$$

  -OEChem-04052323243D

 83 92  0     1  0  0  0  0  0999 V2000
  -21.6047  -13.1153   19.3475 C   0  0  0  0  0  0  0  0  0  0  0  0
  -21.6584  -14.3771   19.9309 C   0  0  0  0  0  0  0  0  0  0  0  0
  -25.3784  -25.2510   16.9969 C   0  0  0  0  0  0  0  0  0  0  0  0
  -26.7845  -26.9526   16.0147 C   0  0  0  0  0  0  0  0  0  0  0  0
  -22.7278  -12.2895   19.3706 C   0  0  0  0  0  0  0  0  0  0  0  0
  -22.8351  -14.8134   20.5388 C   0  0  0  0  0  0  0  0  0  0  0  0
  -24.0100  -19.5808   19.2995 C   0  0  0  0  0  0  0  0  0  0  0  0
  -25.2255  -24.6549   15.7452 C   0  0  0  0  0  0  0  0  0  0  0  0
  -26.6316  -26.3563   14.7630 C   0  0  0  0  0  0  0  0  0  0  0  0
  -23.3080  -20.5979   19.9448 C   0  0  0  0  0  0  0  0  0  0  0  0
  -27.9058  -23.7078   13.0950 C   0  0  0  0  0  0  0  0  0  0  0  0
  -29.0478  -23.5507   12.3098 C   0  0  0  0  0  0  0  0  0  0  0  0
  -25.1683  -20.9211   21.4462 C   0  0  0  0  0  0  0  0  0  0  0  0
  -28.0508  -24.9186   10.5859 C   0  0  0  0  0  0  0  0  0  0  0  0
  -26.1579  -26.3999   17.1316 C   0  0  0  0  0  0  0  0  0  0  0  0
  -27.3131  -26.7444   19.3799 C   0  0  0  0  0  0  0  0  0  0  0  0
  -23.9218  -12.7196   19.9706 C   0  0  0  0  0  0  0  0  0  0  0  0
  -25.2943  -19.2182   19.7303 C   0  0  0  0  0  0  0  0  0  0  0  0
  -23.9748  -13.9920   20.5712 C   0  0  0  0  0  0  0  0  0  0  0  0
  -25.8855  -19.9008   20.8030 C   0  0  0  0  0  0  0  0  0  0  0  0
  -25.8521  -25.2075   14.6282 C   0  0  0  0  0  0  0  0  0  0  0  0
  -23.8859  -21.2663   21.0202 C   0  0  0  0  0  0  0  0  0  0  0  0
  -26.8361  -24.4702   12.6257 C   0  0  0  0  0  0  0  0  0  0  0  0
  -29.1204  -24.1561   11.0553 C   0  0  0  0  0  0  0  0  0  0  0  0
  -26.9086  -25.0756   11.3711 C   0  0  0  0  0  0  0  0  0  0  0  0
  -26.3158  -27.0166   18.4243 C   0  0  0  0  0  0  0  0  0  0  0  0
  -27.0256  -27.5870   20.4258 C   0  0  0  0  0  0  0  0  0  0  0  0
  -20.5687  -24.0790   22.4020 C   0  0  0  0  0  0  0  0  0  0  0  0
  -21.2809  -22.8714   22.8635 C   0  0  0  0  0  0  0  0  0  0  0  0
  -19.4455  -26.3185   22.7206 C   0  0  0  0  0  0  0  0  0  0  0  0
  -28.4021  -25.8133   19.3268 C   0  0  0  0  0  0  0  0  0  0  0  0
  -26.6027  -16.5685   20.9010 C   0  0  0  0  0  0  0  0  0  0  0  0
  -29.3469  -18.2806   20.6547 C   0  0  0  0  0  0  0  0  0  0  0  0
  -30.8492  -21.3416   20.5139 C   0  0  0  0  0  0  0  0  0  0  0  0
  -21.9891  -30.2020   22.2986 C   0  0  0  0  0  0  0  0  0  0  0  0
  -25.0953  -11.7731   20.0125 C   0  0  0  0  0  0  0  0  0  0  0  0
  -26.0490  -18.1371   19.0065 C   0  0  0  0  0  0  0  0  0  0  0  0
  -27.2697  -19.5634   21.2913 C   0  0  0  0  0  0  0  0  0  0  0  0
  -26.4181  -12.4574   20.3472 C   0  0  0  0  0  0  0  0  0  0  0  0
  -25.0108  -31.8239   21.3760 C   0  0  0  0  0  0  0  0  0  0  0  0
  -26.2469  -13.3979   21.5358 C   0  0  0  0  0  0  0  0  0  0  0  0
  -25.7817  -30.7506   20.6051 C   0  0  0  0  0  0  0  0  0  0  0  0
  -21.1789  -22.9911   20.5396 C   0  0  0  0  0  0  0  0  0  0  0  0
  -23.5103  -31.7478   21.1015 C   0  0  0  0  0  0  0  0  0  0  0  0
  -20.9519  -26.0378   24.1558 C   0  0  0  0  0  0  0  0  0  0  0  0
  -23.6753  -29.3510   20.5572 C   0  0  0  0  0  0  0  0  0  0  0  0
  -25.2406  -14.5107   21.2184 C   0  0  1  0  0  0  0  0  0  0  0  0
  -20.0016  -25.0516   23.4206 C   0  0  2  0  0  0  0  0  0  0  0  0
  -21.7970  -22.1616   21.6665 C   0  0  1  0  0  0  0  0  0  1  0  0
  -27.1454  -17.5023   19.8564 C   0  0  1  0  0  0  0  0  0  0  0  0
  -25.1863  -29.3499   20.8451 C   0  0  1  0  0  0  0  0  0  0  0  0
  -32.6966  -23.0185   20.2448 C   0  0  0  0  0  0  0  0  0  0  0  0
  -29.8573  -17.6493   23.5960 C   0  0  0  0  0  0  0  0  0  0  0  0
  -31.5591  -19.4855   23.6227 C   0  0  0  0  0  0  0  0  0  0  0  0
  -31.8808  -17.5107   22.1329 C   0  0  0  0  0  0  0  0  0  0  0  0
  -30.4774  -21.4533   17.5799 C   0  0  0  0  0  0  0  0  0  0  0  0
  -20.5453  -28.5148   23.4252 C   0  0  0  0  0  0  0  0  0  0  0  0
  -30.1066  -19.2188   21.5611 C   0  0  1  0  0  0  0  0  0  0  0  0
  -31.9053  -21.9033   19.5793 C   0  0  2  0  0  0  0  0  0  0  0  0
  -30.8241  -18.4714   22.7205 C   0  0  0  0  0  0  0  0  0  0  0  0
  -25.4587  -27.9583   18.8274 N   0  0  0  0  0  0  0  0  0  0  0  0
  -20.5201  -24.1926   21.1175 N   0  0  0  0  0  0  0  0  0  0  0  0
  -25.9165  -28.2852   20.0479 N   0  0  0  0  0  0  0  0  0  0  0  0
  -20.2871  -27.1045   23.4277 N   0  0  0  0  0  0  0  0  0  0  0  0
  -27.9648  -18.4946   20.5550 N   0  0  0  0  0  0  0  0  0  0  0  0
  -23.0111  -30.3941   21.3542 N   0  0  0  0  0  0  0  0  0  0  0  0
  -27.6157  -27.7913   21.6226 N   0  0  0  0  0  0  0  0  0  0  0  0
  -28.5518  -25.0251   18.1776 N   0  0  0  0  0  0  0  0  0  0  0  0
  -25.8543  -15.5257   20.3893 N   0  0  0  0  0  0  0  0  0  0  0  0
  -31.0013  -19.9837   20.6992 N   0  0  0  0  0  0  0  0  0  0  0  0
  -21.5809  -28.8862   22.4835 N   0  0  0  0  0  0  0  0  0  0  0  0
  -31.2691  -22.4491   18.3471 N   0  3  0  0  0  0  0  0  0  0  0  0
  -21.4298  -22.6006   24.0351 O   0  0  0  0  0  0  0  0  0  0  0  0
  -18.6121  -26.5544   21.8763 O   0  0  0  0  0  0  0  0  0  0  0  0
  -29.2085  -25.6723   20.2773 O   0  0  0  0  0  0  0  0  0  0  0  0
  -26.8462  -16.7778   22.0836 O   0  0  0  0  0  0  0  0  0  0  0  0
  -29.9583  -17.3950   20.0517 O   0  0  0  0  0  0  0  0  0  0  0  0
  -29.9788  -22.0384   21.0311 O   0  0  0  0  0  0  0  0  0  0  0  0
  -21.4846  -31.1335   22.9347 O   0  0  0  0  0  0  0  0  0  0  0  0
  -25.7032  -24.6258   13.4067 O   0  0  0  0  0  0  0  0  0  0  0  0
  -23.2027  -22.2590   21.6523 O   0  0  0  0  0  0  0  0  0  1  0  0
  -30.2178  -24.0064   10.3020 F   0  0  0  0  0  0  0  0  0  0  0  0
  -25.8847  -25.8102   10.9153 F   0  0  0  0  0  0  0  0  0  0  0  0
  1  2  1  0  0  0  0
  1  5  2  0  0  0  0
  2  6  2  0  0  0  0
  3  8  2  0  0  0  0
  3 15  1  0  0  0  0
  4  9  1  0  0  0  0
  4 15  2  0  0  0  0
  5 17  1  0  0  0  0
  6 19  1  0  0  0  0
  7 10  2  0  0  0  0
  7 18  1  0  0  0  0
  8 21  1  0  0  0  0
  9 21  2  0  0  0  0
 10 22  1  0  0  0  0
 11 12  2  0  0  0  0
 11 23  1  0  0  0  0
 12 24  1  0  0  0  0
 13 20  1  0  0  0  0
 13 22  2  0  0  0  0
 14 24  2  0  0  0  0
 14 25  1  0  0  0  0
 15 26  1  0  0  0  0
 16 26  1  0  0  0  0
 16 27  2  0  0  0  0
 16 31  1  0  0  0  0
 17 19  2  0  0  0  0
 17 36  1  0  0  0  0
 18 20  2  0  0  0  0
 18 37  1  0  0  0  0
 19 47  1  0  0  0  0
 20 38  1  0  0  0  0
 21 80  1  0  0  0  0
 22 81  1  0  0  0  0
 23 25  2  0  0  0  0
 23 80  1  0  0  0  0
 24 82  1  0  0  0  0
 25 83  1  0  0  0  0
 26 61  2  0  0  0  0
 27 63  1  0  0  0  0
 27 67  1  0  0  0  0
 28 29  1  0  0  0  0
 28 48  1  0  0  0  0
 28 62  2  0  0  0  0
 29 49  1  0  0  0  0
 29 73  2  0  0  0  0
 30 48  1  0  0  0  0
 30 64  1  0  0  0  0
 30 74  2  0  0  0  0
 31 68  1  0  0  0  0
 31 75  2  0  0  0  0
 32 50  1  0  0  0  0
 32 69  1  0  0  0  0
 32 76  2  0  0  0  0
 33 58  1  0  0  0  0
 33 65  1  0  0  0  0
 33 77  2  0  0  0  0
 34 59  1  0  0  0  0
 34 70  1  0  0  0  0
 34 78  2  0  0  0  0
 35 66  1  0  0  0  0
 35 71  1  0  0  0  0
 35 79  2  0  0  0  0
 36 39  1  0  0  0  0
 37 50  1  0  0  0  0
 38 65  1  0  0  0  0
 39 41  1  0  0  0  0
 40 42  1  0  0  0  0
 40 44  1  0  0  0  0
 41 47  1  0  0  0  0
 42 51  1  0  0  0  0
 43 49  1  0  0  0  0
 43 62  1  0  0  0  0
 44 66  1  0  0  0  0
 45 48  1  0  0  0  0
 45 64  1  0  0  0  0
 46 51  1  0  0  0  0
 46 66  1  0  0  0  0
 47 69  1  0  0  0  0
 49 81  1  0  0  0  0
 50 65  1  0  0  0  0
 51 63  1  0  0  0  0
 52 59  1  0  0  0  0
 53 60  1  0  0  0  0
 54 60  1  0  0  0  0
 55 60  1  0  0  0  0
 56 72  1  0  0  0  0
 57 64  1  0  0  0  0
 57 71  1  0  0  0  0
 58 60  1  0  0  0  0
 58 70  1  0  0  0  0
 59 72  1  0  0  0  0
 61 63  1  0  0  0  0
M  CHG  1  72   1
M  ISO  4  35 100  49 101  71 100  81 101
M  END
> <Batch ID>
0190

> <Smiles>
CNC(C)C(=O)NC(C(=O)N1Cc2cc([101O:1][101CH:1]3CNC(=C4CN(C[100NH:0][100C:0](=O)N5CCCC(n6nc(-c7ccc(Oc8ccc(F)cc8F)cc7)c(C(N)=O)c6N)C5)C4=O)C3=O)ccc2CC1C(=O)NC1CCCc2ccccc21)C(C)(C)C

> <Shape>
0.210

> <Color>
0.081

> <Negative vol penalty>
0.000

$$$$

  -OEChem-04052323243D

 87 97  0     1  0  0  0  0  0999 V2000
  -31.7116  -33.6938   19.8374 C   0  0  0  0  0  0  0  0  0  0  0  0
  -31.1834  -32.4075   19.7934 C   0  0  0  0  0  0  0  0  0  0  0  0
  -24.4040   -8.8720   20.0947 C   0  0  0  0  0  0  0  0  0  0  0  0
  -23.3247   -9.8860   22.0036 C   0  0  0  0  0  0  0  0  0  0  0  0
  -31.3090  -34.5776   20.8377 C   0  0  0  0  0  0  0  0  0  0  0  0
  -30.2531  -32.0039   20.7505 C   0  0  0  0  0  0  0  0  0  0  0  0
  -26.3339  -29.5189   18.7233 C   0  0  0  0  0  0  0  0  0  0  0  0
  -23.5388   -7.7816   20.1846 C   0  0  0  0  0  0  0  0  0  0  0  0
  -22.4594   -8.7956   22.0935 C   0  0  0  0  0  0  0  0  0  0  0  0
  -26.5388  -28.1857   18.3708 C   0  0  0  0  0  0  0  0  0  0  0  0
  -22.5589   -5.6265   23.2672 C   0  0  0  0  0  0  0  0  0  0  0  0
  -22.3311   -5.0824   24.5312 C   0  0  0  0  0  0  0  0  0  0  0  0
  -25.4524  -27.4864   20.4080 C   0  0  0  0  0  0  0  0  0  0  0  0
  -19.9740   -5.5666   24.3149 C   0  0  0  0  0  0  0  0  0  0  0  0
  -27.2052  -21.7113   18.5637 C   0  0  0  0  0  0  0  0  0  0  0  0
  -24.2970   -9.9242   21.0042 C   0  0  0  0  0  0  0  0  0  0  0  0
  -26.5952  -11.0312   21.0071 C   0  0  0  0  0  0  0  0  0  0  0  0
  -30.3660  -34.1878   21.8018 C   0  0  0  0  0  0  0  0  0  0  0  0
  -25.6953  -29.8466   19.9280 C   0  0  0  0  0  0  0  0  0  0  0  0
  -29.8385  -32.8829   21.7654 C   0  0  0  0  0  0  0  0  0  0  0  0
  -25.2383  -28.8245   20.7722 C   0  0  0  0  0  0  0  0  0  0  0  0
  -22.5665   -7.7434   21.1840 C   0  0  0  0  0  0  0  0  0  0  0  0
  -26.1007  -27.1692   19.2145 C   0  0  0  0  0  0  0  0  0  0  0  0
  -21.4942   -6.1407   22.5270 C   0  0  0  0  0  0  0  0  0  0  0  0
  -21.0387   -5.0525   25.0551 C   0  0  0  0  0  0  0  0  0  0  0  0
  -20.2018   -6.1107   23.0509 C   0  0  0  0  0  0  0  0  0  0  0  0
  -25.1908  -11.0505   20.9121 C   0  0  0  0  0  0  0  0  0  0  0  0
  -27.3878  -22.9239   19.1823 C   0  0  0  0  0  0  0  0  0  0  0  0
  -25.8316  -21.6757   18.2575 C   0  0  0  0  0  0  0  0  0  0  0  0
  -26.9677  -12.3445   20.8555 C   0  0  0  0  0  0  0  0  0  0  0  0
  -27.4837   -9.9251   21.2137 C   0  0  0  0  0  0  0  0  0  0  0  0
  -26.5366  -31.4249   22.5557 C   0  0  0  0  0  0  0  0  0  0  0  0
  -23.4189  -30.9958   23.3419 C   0  0  0  0  0  0  0  0  0  0  0  0
  -20.9876  -28.3397   23.1158 C   0  0  0  0  0  0  0  0  0  0  0  0
  -24.0388  -16.8902   18.2075 C   0  0  0  0  0  0  0  0  0  0  0  0
  -29.9970  -35.1626   22.8919 C   0  0  0  0  0  0  0  0  0  0  0  0
  -25.4580  -31.2893   20.2810 C   0  0  0  0  0  0  0  0  0  0  0  0
  -24.5293  -29.1231   22.0670 C   0  0  0  0  0  0  0  0  0  0  0  0
  -28.7261  -34.7803   23.6462 C   0  0  0  0  0  0  0  0  0  0  0  0
  -24.2749  -16.0901   21.9602 C   0  0  0  0  0  0  0  0  0  0  0  0
  -28.7523  -33.3020   24.0216 C   0  0  0  0  0  0  0  0  0  0  0  0
  -29.5283  -24.3993   18.8453 C   0  0  0  0  0  0  0  0  0  0  0  0
  -30.0076  -23.0091   19.1243 C   0  0  0  0  0  0  0  0  0  0  0  0
  -25.5809  -15.3158   21.8091 C   0  0  0  0  0  0  0  0  0  0  0  0
  -23.5975  -21.3351   16.0308 C   0  0  0  0  0  0  0  0  0  0  0  0
  -24.0210  -16.9751   20.7438 C   0  0  0  0  0  0  0  0  0  0  0  0
  -24.4791  -14.8407   19.5368 C   0  0  0  0  0  0  0  0  0  0  0  0
  -22.1546  -21.1881   15.5707 C   0  0  0  0  0  0  0  0  0  0  0  0
  -22.0414  -18.9010   16.5926 C   0  0  0  0  0  0  0  0  0  0  0  0
  -28.8085  -32.4162   22.7712 C   0  0  1  0  0  0  0  0  0  0  0  0
  -28.6987  -23.4843   19.7258 C   0  0  0  0  0  0  0  0  0  0  0  0
  -25.2550  -31.5129   21.7764 C   0  0  1  0  0  0  0  0  0  0  0  0
  -25.6609  -14.5408   20.4757 C   0  0  2  0  0  0  0  0  0  0  0  0
  -23.8732  -20.4962   17.2826 C   0  0  1  0  0  0  0  0  0  0  0  0
  -23.4901  -19.0236   17.0587 C   0  0  1  0  0  0  0  0  0  0  0  0
  -18.4848  -28.4282   22.9551 C   0  0  0  0  0  0  0  0  0  0  0  0
  -23.5029  -30.6963   26.3773 C   0  0  0  0  0  0  0  0  0  0  0  0
  -21.4953  -29.2090   26.2163 C   0  0  0  0  0  0  0  0  0  0  0  0
  -21.3465  -31.5866   25.4761 C   0  0  0  0  0  0  0  0  0  0  0  0
  -20.9733  -26.7183   20.6399 C   0  0  0  0  0  0  0  0  0  0  0  0
  -25.8267  -24.8691   19.7821 C   0  0  0  0  0  0  0  0  0  1  0  0
  -22.6368  -29.9289   24.0692 C   0  0  1  0  0  0  0  0  0  0  0  0
  -19.7888  -28.2818   22.1863 C   0  0  2  0  0  0  0  0  0  0  0  0
  -22.2691  -30.3490   25.5203 C   0  0  0  0  0  0  0  0  0  0  0  0
  -24.7041  -12.2787   20.7157 N   0  0  0  0  0  0  0  0  0  0  0  0
  -25.1872  -22.7780   18.6495 N   0  0  0  0  0  0  0  0  0  0  0  0
  -26.1602  -23.5176   19.2084 N   0  0  0  0  0  0  0  0  0  0  0  0
  -25.8088  -13.0435   20.6860 N   0  0  0  0  0  0  0  0  0  0  0  0
  -24.3266  -30.5493   22.3711 N   0  0  0  0  0  0  0  0  0  0  0  0
  -24.1965  -16.2754   19.4648 N   0  0  0  0  0  0  0  0  0  0  0  0
  -28.1701  -12.9582   20.8522 N   0  0  0  0  0  0  0  0  0  0  0  0
  -27.8176   -9.5728   22.5285 N   0  0  0  0  0  0  0  0  0  0  0  0
  -25.2752  -20.6084   17.6295 N   0  0  0  0  0  0  0  0  0  0  0  0
  -27.5021  -32.3285   22.1548 N   0  0  0  0  0  0  0  0  0  0  0  0
  -21.4863  -29.6204   23.2268 N   0  0  0  0  0  0  0  0  0  0  0  0
  -23.6941  -18.2386   18.2551 N   0  0  0  0  0  0  0  0  0  0  0  0
  -21.8458  -19.7414   15.3719 N   0  3  0  0  0  0  0  0  0  0  0  0
  -19.7610  -26.9824   21.4571 N   0  3  0  0  0  0  0  0  0  0  0  0
  -27.9802   -9.2788   20.2601 O   0  0  0  0  0  0  0  0  0  0  0  0
  -26.6413  -30.5993   23.4552 O   0  0  0  0  0  0  0  0  0  0  0  0
  -23.2262  -32.1821   23.6198 O   0  0  0  0  0  0  0  0  0  0  0  0
  -21.4344  -27.3487   23.6891 O   0  0  0  0  0  0  0  0  0  0  0  0
  -24.1893  -16.2900   17.1391 O   0  0  0  0  0  0  0  0  0  0  0  0
  -21.7219   -6.6797   21.2719 O   0  0  0  0  0  0  0  0  0  0  0  0
  -26.3000  -25.8671   18.8732 O   0  0  0  0  0  0  0  0  0  1  0  0
  -20.8199   -4.5286   26.2683 F   0  0  0  0  0  0  0  0  0  0  0  0
  -19.1748   -6.6021   22.3440 F   0  0  0  0  0  0  0  0  0  0  0  0
  1  2  1  0  0  0  0
  1  5  2  0  0  0  0
  2  6  2  0  0  0  0
  3  8  2  0  0  0  0
  3 16  1  0  0  0  0
  4  9  1  0  0  0  0
  4 16  2  0  0  0  0
  5 18  1  0  0  0  0
  6 20  1  0  0  0  0
  7 10  2  0  0  0  0
  7 19  1  0  0  0  0
  8 22  1  0  0  0  0
  9 22  2  0  0  0  0
 10 23  1  0  0  0  0
 11 12  2  0  0  0  0
 11 24  1  0  0  0  0
 12 25  1  0  0  0  0
 13 21  1  0  0  0  0
 13 23  2  0  0  0  0
 14 25  2  0  0  0  0
 14 26  1  0  0  0  0
 15 28  2  0  0  0  0
 15 29  1  0  0  0  0
 16 27  1  0  0  0  0
 17 27  1  0  0  0  0
 17 30  2  0  0  0  0
 17 31  1  0  0  0  0
 18 20  2  0  0  0  0
 18 36  1  0  0  0  0
 19 21  2  0  0  0  0
 19 37  1  0  0  0  0
 20 50  1  0  0  0  0
 21 38  1  0  0  0  0
 22 84  1  0  0  0  0
 23 85  1  0  0  0  0
 24 26  2  0  0  0  0
 24 84  1  0  0  0  0
 25 86  1  0  0  0  0
 26 87  1  0  0  0  0
 27 65  2  0  0  0  0
 28 51  1  0  0  0  0
 28 67  1  0  0  0  0
 29 66  2  0  0  0  0
 29 73  1  0  0  0  0
 30 68  1  0  0  0  0
 30 71  1  0  0  0  0
 31 72  1  0  0  0  0
 31 79  2  0  0  0  0
 32 52  1  0  0  0  0
 32 74  1  0  0  0  0
 32 80  2  0  0  0  0
 33 62  1  0  0  0  0
 33 69  1  0  0  0  0
 33 81  2  0  0  0  0
 34 63  1  0  0  0  0
 34 75  1  0  0  0  0
 34 82  2  0  0  0  0
 35 70  1  0  0  0  0
 35 76  1  0  0  0  0
 35 83  2  0  0  0  0
 36 39  1  0  0  0  0
 37 52  1  0  0  0  0
 38 69  1  0  0  0  0
 39 41  1  0  0  0  0
 40 44  1  0  0  0  0
 40 46  1  0  0  0  0
 41 50  1  0  0  0  0
 42 43  1  0  0  0  0
 42 51  1  0  0  0  0
 43 51  1  0  0  0  0
 44 53  1  0  0  0  0
 45 48  1  0  0  0  0
 45 54  1  0  0  0  0
 46 70  1  0  0  0  0
 47 53  1  0  0  0  0
 47 70  1  0  0  0  0
 48 77  1  0  0  0  0
 49 55  1  0  0  0  0
 49 77  1  0  0  0  0
 50 74  1  0  0  0  0
 52 69  1  0  0  0  0
 53 68  1  0  0  0  0
 54 55  1  0  0  0  0
 54 73  1  0  0  0  0
 55 76  1  0  0  0  0
 56 63  1  0  0  0  0
 57 64  1  0  0  0  0
 58 64  1  0  0  0  0
 59 64  1  0  0  0  0
 60 78  1  0  0  0  0
 61 67  1  0  0  0  0
 61 85  1  0  0  0  0
 62 64  1  0  0  0  0
 62 75  1  0  0  0  0
 63 78  1  0  0  0  0
 65 68  1  0  0  0  0
 66 67  1  0  0  0  0
M  CHG  2  77   1  78   1
M  ISO  4  35 100  61 101  76 100  85 101
M  END
> <Batch ID>
0190

> <Smiles>
CNC(C)C(=O)NC(C(=O)N1Cc2cc([101O:1][101CH2:1]n3nc(NC4CCNCC4[100NH:0][100C:0](=O)N4CCCC(n5nc(-c6ccc(Oc7ccc(F)cc7F)cc6)c(C(N)=O)c5N)C4)cc3C3CC3)ccc2CC1C(=O)NC1CCCc2ccccc21)C(C)(C)C

> <Shape>
0.245

> <Color>
0.110

> <Negative vol penalty>
0.000

$$$$

  -OEChem-04052323243D

 80 89  0     1  0  0  0  0  0999 V2000
  -21.3824  -36.3907   17.4361 C   0  0  0  0  0  0  0  0  0  0  0  0
  -21.7486  -35.1247   16.9907 C   0  0  0  0  0  0  0  0  0  0  0  0
  -23.8400  -10.1656   20.2019 C   0  0  0  0  0  0  0  0  0  0  0  0
  -21.7639  -10.6424   21.3417 C   0  0  0  0  0  0  0  0  0  0  0  0
  -22.0632  -36.9774   18.5021 C   0  0  0  0  0  0  0  0  0  0  0  0
  -22.7966  -34.4449   17.6104 C   0  0  0  0  0  0  0  0  0  0  0  0
  -24.9257  -27.8177   19.3026 C   0  0  0  0  0  0  0  0  0  0  0  0
  -23.6633   -8.8043   20.4494 C   0  0  0  0  0  0  0  0  0  0  0  0
  -21.5871   -9.2811   21.5892 C   0  0  0  0  0  0  0  0  0  0  0  0
  -26.0262  -26.9725   19.1673 C   0  0  0  0  0  0  0  0  0  0  0  0
  -22.7662   -6.9693   23.7562 C   0  0  0  0  0  0  0  0  0  0  0  0
  -22.3679   -6.5900   25.0381 C   0  0  0  0  0  0  0  0  0  0  0  0
  -27.0786  -28.0512   21.0509 C   0  0  0  0  0  0  0  0  0  0  0  0
  -20.3708   -5.5865   24.1206 C   0  0  0  0  0  0  0  0  0  0  0  0
  -22.8903  -11.0847   20.6481 C   0  0  0  0  0  0  0  0  0  0  0  0
  -22.6245  -13.2172   19.2736 C   0  0  0  0  0  0  0  0  0  0  0  0
  -23.1138  -36.3005   19.1414 C   0  0  0  0  0  0  0  0  0  0  0  0
  -24.8981  -28.7949   20.3079 C   0  0  0  0  0  0  0  0  0  0  0  0
  -23.4930  -35.0236   18.6850 C   0  0  0  0  0  0  0  0  0  0  0  0
  -25.9755  -28.9059   21.1984 C   0  0  0  0  0  0  0  0  0  0  0  0
  -22.5368   -8.3621   21.1430 C   0  0  0  0  0  0  0  0  0  0  0  0
  -27.1041  -27.0911   20.0397 C   0  0  0  0  0  0  0  0  0  0  0  0
  -21.9667   -6.6572   22.6566 C   0  0  0  0  0  0  0  0  0  0  0  0
  -21.1703   -5.8986   25.2203 C   0  0  0  0  0  0  0  0  0  0  0  0
  -20.7691   -5.9658   22.8388 C   0  0  0  0  0  0  0  0  0  0  0  0
  -23.0726  -12.4910   20.3932 C   0  0  0  0  0  0  0  0  0  0  0  0
  -23.0469  -14.5031   19.5067 C   0  0  0  0  0  0  0  0  0  0  0  0
  -21.8918  -12.7693   18.1254 C   0  0  0  0  0  0  0  0  0  0  0  0
  -24.7440  -31.9696   20.3466 C   0  0  0  0  0  0  0  0  0  0  0  0
  -24.4870  -31.5293   23.5501 C   0  0  0  0  0  0  0  0  0  0  0  0
  -25.0780  -29.5374   26.2575 C   0  0  0  0  0  0  0  0  0  0  0  0
  -27.0518  -17.9622   20.9332 C   0  0  0  0  0  0  0  0  0  0  0  0
  -23.8511  -36.9948   20.2589 C   0  0  0  0  0  0  0  0  0  0  0  0
  -23.6920  -29.6812   20.4573 C   0  0  0  0  0  0  0  0  0  0  0  0
  -25.9861  -29.9252   22.3072 C   0  0  0  0  0  0  0  0  0  0  0  0
  -24.7046  -36.0522   21.1035 C   0  0  0  0  0  0  0  0  0  0  0  0
  -24.9487  -16.6627   23.6402 C   0  0  0  0  0  0  0  0  0  0  0  0
  -25.5213  -35.1254   20.2087 C   0  0  0  0  0  0  0  0  0  0  0  0
  -24.2818  -15.4779   22.9495 C   0  0  0  0  0  0  0  0  0  0  0  0
  -30.1189  -19.1565   21.6011 C   0  0  0  0  0  0  0  0  0  0  0  0
  -26.3786  -16.8925   23.1494 C   0  0  0  0  0  0  0  0  0  0  0  0
  -29.1870  -18.2529   22.4144 C   0  0  0  0  0  0  0  0  0  0  0  0
  -25.8155  -15.8251   20.9821 C   0  0  0  0  0  0  0  0  0  0  0  0
  -28.7222  -23.4914   21.3855 C   0  0  0  0  0  0  0  0  0  0  0  0
  -28.8454  -22.5260   19.5370 C   0  0  0  0  0  0  0  0  0  0  0  0
  -24.6083  -34.2443   19.3475 C   0  0  1  0  0  0  0  0  0  0  0  0
  -23.9940  -30.9819   21.1949 C   0  0  1  0  0  0  0  0  0  0  0  0
  -28.9685  -24.0075   19.9520 C   0  0  0  0  0  0  0  0  0  0  0  0
  -24.3579  -15.6327   21.4234 C   0  0  1  0  0  0  0  0  0  0  0  0
  -28.8776  -19.7503   20.9178 C   0  0  2  0  0  0  0  0  0  0  0  0
  -24.7886  -29.4630   28.7491 C   0  0  0  0  0  0  0  0  0  0  0  0
  -26.8264  -33.4607   23.8771 C   0  0  0  0  0  0  0  0  0  0  0  0
  -27.0990  -32.6241   26.2210 C   0  0  0  0  0  0  0  0  0  0  0  0
  -24.9849  -33.7612   25.5424 C   0  0  0  0  0  0  0  0  0  0  0  0
  -23.3565  -27.1350   26.1022 C   0  0  0  0  0  0  0  0  0  0  0  0
  -27.9421  -24.9643   19.3837 C   0  0  0  0  0  0  0  0  0  1  0  0
  -28.3516  -21.0710   21.4444 C   0  0  0  0  0  0  0  0  0  0  0  0
  -25.4633  -31.4270   24.6969 C   0  0  1  0  0  0  0  0  0  0  0  0
  -24.1814  -29.1017   27.4024 C   0  0  2  0  0  0  0  0  0  0  0  0
  -26.0944  -32.8002   25.0623 C   0  0  0  0  0  0  0  0  0  0  0  0
  -23.7296  -13.2524   21.2723 N   0  0  0  0  0  0  0  0  0  0  0  0
  -23.6974  -14.4703   20.7051 N   0  0  0  0  0  0  0  0  0  0  0  0
  -24.7865  -30.7727   22.4083 N   0  0  0  0  0  0  0  0  0  0  0  0
  -26.4535  -16.9448   21.6845 N   0  0  0  0  0  0  0  0  0  0  0  0
  -28.1369  -18.6156   21.4738 N   0  0  0  0  0  0  0  0  0  0  0  0
  -22.9217  -15.6474   18.8016 N   0  0  0  0  0  0  0  0  0  0  0  0
  -21.5376  -11.4156   18.0451 N   0  0  0  0  0  0  0  0  0  0  0  0
  -24.0682  -33.1559   20.1337 N   0  0  0  0  0  0  0  0  0  0  0  0
  -24.7404  -30.7910   25.7930 N   0  0  0  0  0  0  0  0  0  0  0  0
  -29.1968  -22.1708   20.9265 N   0  3  0  0  0  0  0  0  0  0  0  0
  -23.9701  -27.6270   27.3625 N   0  3  0  0  0  0  0  0  0  0  0  0
  -21.5752  -13.5433   17.1904 O   0  0  0  0  0  0  0  0  0  0  0  0
  -25.8544  -31.6776   19.9182 O   0  0  0  0  0  0  0  0  0  0  0  0
  -23.4913  -32.2483   23.6659 O   0  0  0  0  0  0  0  0  0  0  0  0
  -25.9892  -28.8373   25.8214 O   0  0  0  0  0  0  0  0  0  0  0  0
  -26.6512  -18.2603   19.8003 O   0  0  0  0  0  0  0  0  0  0  0  0
  -22.3639   -7.0338   21.3845 O   0  0  0  0  0  0  0  0  0  0  0  0
  -28.1877  -26.2618   19.9086 O   0  0  0  0  0  0  0  0  0  1  0  0
  -20.7887   -5.5331   26.4511 F   0  0  0  0  0  0  0  0  0  0  0  0
  -19.9974   -5.6622   21.7861 F   0  0  0  0  0  0  0  0  0  0  0  0
  1  2  1  0  0  0  0
  1  5  2  0  0  0  0
  2  6  2  0  0  0  0
  3  8  2  0  0  0  0
  3 15  1  0  0  0  0
  4  9  1  0  0  0  0
  4 15  2  0  0  0  0
  5 17  1  0  0  0  0
  6 19  1  0  0  0  0
  7 10  2  0  0  0  0
  7 18  1  0  0  0  0
  8 21  1  0  0  0  0
  9 21  2  0  0  0  0
 10 22  1  0  0  0  0
 11 12  2  0  0  0  0
 11 23  1  0  0  0  0
 12 24  1  0  0  0  0
 13 20  1  0  0  0  0
 13 22  2  0  0  0  0
 14 24  2  0  0  0  0
 14 25  1  0  0  0  0
 15 26  1  0  0  0  0
 16 26  1  0  0  0  0
 16 27  2  0  0  0  0
 16 28  1  0  0  0  0
 17 19  2  0  0  0  0
 17 33  1  0  0  0  0
 18 20  2  0  0  0  0
 18 34  1  0  0  0  0
 19 46  1  0  0  0  0
 20 35  1  0  0  0  0
 21 77  1  0  0  0  0
 22 78  1  0  0  0  0
 23 25  2  0  0  0  0
 23 77  1  0  0  0  0
 24 79  1  0  0  0  0
 25 80  1  0  0  0  0
 26 61  2  0  0  0  0
 27 62  1  0  0  0  0
 27 66  1  0  0  0  0
 28 67  1  0  0  0  0
 28 72  2  0  0  0  0
 29 47  1  0  0  0  0
 29 68  1  0  0  0  0
 29 73  2  0  0  0  0
 30 58  1  0  0  0  0
 30 63  1  0  0  0  0
 30 74  2  0  0  0  0
 31 59  1  0  0  0  0
 31 69  1  0  0  0  0
 31 75  2  0  0  0  0
 32 64  1  0  0  0  0
 32 65  1  0  0  0  0
 32 76  2  0  0  0  0
 33 36  1  0  0  0  0
 34 47  1  0  0  0  0
 35 63  1  0  0  0  0
 36 38  1  0  0  0  0
 37 39  1  0  0  0  0
 37 41  1  0  0  0  0
 38 46  1  0  0  0  0
 39 49  1  0  0  0  0
 40 42  1  0  0  0  0
 40 50  1  0  0  0  0
 41 64  1  0  0  0  0
 42 65  1  0  0  0  0
 43 49  1  0  0  0  0
 43 64  1  0  0  0  0
 44 48  1  0  0  0  0
 44 70  1  0  0  0  0
 45 48  1  0  0  0  0
 45 70  1  0  0  0  0
 46 68  1  0  0  0  0
 47 63  1  0  0  0  0
 48 56  1  0  0  0  0
 49 62  1  0  0  0  0
 50 57  1  0  0  0  0
 50 65  1  0  0  0  0
 51 59  1  0  0  0  0
 52 60  1  0  0  0  0
 53 60  1  0  0  0  0
 54 60  1  0  0  0  0
 55 71  1  0  0  0  0
 56 78  1  0  0  0  0
 57 70  1  0  0  0  0
 58 60  1  0  0  0  0
 58 69  1  0  0  0  0
 59 71  1  0  0  0  0
 61 62  1  0  0  0  0
M  CHG  2  70   1  71   1
M  ISO  4  32 100  56 101  65 100  78 101
M  END
> <Batch ID>
0190

> <Smiles>
CNC(C)C(=O)NC(C(=O)N1Cc2cc([101O:1][101CH2:1]C3CN(CC4CC[100N:0]4[100C:0](=O)N4CCCC(n5nc(-c6ccc(Oc7ccc(F)cc7F)cc6)c(C(N)=O)c5N)C4)C3)ccc2CC1C(=O)NC1CCCc2ccccc21)C(C)(C)C

> <Shape>
0.262

> <Color>
0.098

> <Negative vol penalty>
0.000

$$$$

  -OEChem-04052323243D

 84 93  0     1  0  0  0  0  0999 V2000
  -24.1938   -8.3654   21.7207 C   0  0  0  0  0  0  0  0  0  0  0  0
  -24.8800   -9.5399   21.4291 C   0  0  0  0  0  0  0  0  0  0  0  0
  -23.2935  -26.3101   21.6133 C   0  0  0  0  0  0  0  0  0  0  0  0
  -23.1538  -28.6748   22.0884 C   0  0  0  0  0  0  0  0  0  0  0  0
  -22.7999   -8.3495   21.6965 C   0  0  0  0  0  0  0  0  0  0  0  0
  -24.1727  -10.6990   21.1120 C   0  0  0  0  0  0  0  0  0  0  0  0
  -25.9831  -14.7902   23.4846 C   0  0  0  0  0  0  0  0  0  0  0  0
  -22.1203  -26.0954   22.3365 C   0  0  0  0  0  0  0  0  0  0  0  0
  -21.9805  -28.4601   22.8117 C   0  0  0  0  0  0  0  0  0  0  0  0
  -27.1430  -15.3652   22.9671 C   0  0  0  0  0  0  0  0  0  0  0  0
  -18.7527  -28.5845   24.4801 C   0  0  0  0  0  0  0  0  0  0  0  0
  -17.6870  -29.4578   24.2628 C   0  0  0  0  0  0  0  0  0  0  0  0
  -25.8106  -17.0487   21.8672 C   0  0  0  0  0  0  0  0  0  0  0  0
  -17.6386  -28.8193   21.9332 C   0  0  0  0  0  0  0  0  0  0  0  0
  -23.8103  -27.5998   21.4893 C   0  0  0  0  0  0  0  0  0  0  0  0
  -25.1346  -28.1051   19.3683 C   0  0  0  0  0  0  0  0  0  0  0  0
  -22.0749   -9.5114   21.3884 C   0  0  0  0  0  0  0  0  0  0  0  0
  -24.7253  -15.3347   23.1879 C   0  0  0  0  0  0  0  0  0  0  0  0
  -22.7677  -10.6983   21.0823 C   0  0  0  0  0  0  0  0  0  0  0  0
  -24.6364  -16.4803   22.3843 C   0  0  0  0  0  0  0  0  0  0  0  0
  -21.4638  -27.1704   22.9357 C   0  0  0  0  0  0  0  0  0  0  0  0
  -27.0567  -16.4929   22.1559 C   0  0  0  0  0  0  0  0  0  0  0  0
  -19.2614  -27.8285   23.4239 C   0  0  0  0  0  0  0  0  0  0  0  0
  -17.1300  -29.5753   22.9894 C   0  0  0  0  0  0  0  0  0  0  0  0
  -18.7043  -27.9460   22.1505 C   0  0  0  0  0  0  0  0  0  0  0  0
  -25.0225  -27.8221   20.7428 C   0  0  0  0  0  0  0  0  0  0  0  0
  -26.4853  -28.2292   19.1524 C   0  0  0  0  0  0  0  0  0  0  0  0
  -31.2403  -18.2623   19.1773 C   0  0  0  0  0  0  0  0  0  0  0  0
  -29.3555  -18.6631   20.3277 C   0  0  0  0  0  0  0  0  0  0  0  0
  -30.9384  -20.2473   20.1801 C   0  0  0  0  0  0  0  0  0  0  0  0
  -24.1095  -28.2435   18.3755 C   0  0  0  0  0  0  0  0  0  0  0  0
  -22.1197  -14.2829   21.7019 C   0  0  0  0  0  0  0  0  0  0  0  0
  -20.8772  -17.1028   22.7150 C   0  0  0  0  0  0  0  0  0  0  0  0
  -21.4284  -20.3175   23.7194 C   0  0  0  0  0  0  0  0  0  0  0  0
  -31.1400  -25.9730   22.3542 C   0  0  0  0  0  0  0  0  0  0  0  0
  -20.5699   -9.4335   21.3284 C   0  0  0  0  0  0  0  0  0  0  0  0
  -23.4855  -14.7185   23.7757 C   0  0  0  0  0  0  0  0  0  0  0  0
  -23.3116  -17.1153   22.0524 C   0  0  0  0  0  0  0  0  0  0  0  0
  -19.8879  -10.7991   21.3493 C   0  0  0  0  0  0  0  0  0  0  0  0
  -30.5432  -29.4592   21.3726 C   0  0  0  0  0  0  0  0  0  0  0  0
  -20.5695  -11.7512   20.3717 C   0  0  0  0  0  0  0  0  0  0  0  0
  -29.0538  -29.4631   21.0256 C   0  0  0  0  0  0  0  0  0  0  0  0
  -29.6245  -23.2246   20.4395 C   0  0  0  0  0  0  0  0  0  0  0  0
  -30.8775  -28.4252   22.4454 C   0  0  0  0  0  0  0  0  0  0  0  0
  -29.3627  -24.4627   21.2908 C   0  0  0  0  0  0  0  0  0  0  0  0
  -28.9250  -27.0669   21.8006 C   0  0  0  0  0  0  0  0  0  0  0  0
  -31.5429  -23.5926   21.7952 C   0  0  0  0  0  0  0  0  0  0  0  0
  -22.0354  -11.9823   20.7579 C   0  0  1  0  0  0  0  0  0  0  0  0
  -22.2218  -15.0518   22.9887 C   0  0  1  0  0  0  0  0  0  0  0  0
  -28.5613  -28.0463   20.6761 C   0  0  1  0  0  0  0  0  0  0  0  0
  -30.6559  -22.4723   21.2732 C   0  0  2  0  0  0  0  0  0  0  0  0
  -32.0790  -17.3474   18.3517 C   0  0  0  0  0  0  0  0  0  0  0  0
  -20.2141  -22.3901   24.4456 C   0  0  0  0  0  0  0  0  0  0  0  0
  -20.0873  -17.6517   19.8193 C   0  0  0  0  0  0  0  0  0  0  0  0
  -19.7653  -20.0567   20.4362 C   0  0  0  0  0  0  0  0  0  0  0  0
  -18.3623  -18.2965   21.5114 C   0  0  0  0  0  0  0  0  0  0  0  0
  -22.7512  -20.3048   26.3669 C   0  0  0  0  0  0  0  0  0  0  0  0
  -28.0256  -18.2095   20.8254 C   0  0  0  0  0  0  0  0  0  1  0  0
  -20.7997  -18.5010   22.1511 C   0  0  1  0  0  0  0  0  0  0  0  0
  -20.8962  -21.1091   24.9003 C   0  0  2  0  0  0  0  0  0  0  0  0
  -19.7786  -18.6136   20.9840 C   0  0  0  0  0  0  0  0  0  0  0  0
  -26.2075  -27.7693   21.3567 N   0  0  0  0  0  0  0  0  0  0  0  0
  -30.0548  -17.7856   19.5903 N   0  0  0  0  0  0  0  0  0  0  0  0
  -31.7472  -19.4793   19.4324 N   0  0  0  0  0  0  0  0  0  0  0  0
  -29.7321  -19.9077   20.6625 N   0  0  0  0  0  0  0  0  0  0  0  0
  -27.0771  -28.0207   20.3634 N   0  0  0  0  0  0  0  0  0  0  0  0
  -22.1276  -16.4723   22.6459 N   0  0  0  0  0  0  0  0  0  0  0  0
  -30.3646  -27.1048   22.0793 N   0  0  0  0  0  0  0  0  0  0  0  0
  -30.6452  -24.7355   21.9446 N   0  0  0  0  0  0  0  0  0  0  0  0
  -27.2127  -28.4950   18.0466 N   0  0  0  0  0  0  0  0  0  0  0  0
  -22.7734  -28.0849   18.7681 N   0  0  0  0  0  0  0  0  0  0  0  0
  -31.3958  -21.5220   20.4856 N   0  0  0  0  0  0  0  0  0  0  0  0
  -22.1262  -12.9106   21.8644 N   0  0  0  0  0  0  0  0  0  0  0  0
  -20.5167  -19.3812   23.2796 N   0  0  0  0  0  0  0  0  0  0  0  0
  -22.0078  -21.4711   25.8245 N   0  3  0  0  0  0  0  0  0  0  0  0
  -24.3714  -28.4840   17.1726 O   0  0  0  0  0  0  0  0  0  0  0  0
  -22.0394  -14.8896   20.6402 O   0  0  0  0  0  0  0  0  0  0  0  0
  -19.8673  -16.5917   23.2053 O   0  0  0  0  0  0  0  0  0  0  0  0
  -22.5401  -20.5129   23.2332 O   0  0  0  0  0  0  0  0  0  0  0  0
  -32.2476  -26.0680   22.8994 O   0  0  0  0  0  0  0  0  0  0  0  0
  -20.3188  -26.9613   23.6413 O   0  0  0  0  0  0  0  0  0  0  0  0
  -28.1949  -17.0595   21.6455 O   0  0  0  0  0  0  0  0  0  1  0  0
  -16.1057  -30.4129   22.7813 F   0  0  0  0  0  0  0  0  0  0  0  0
  -19.1880  -27.2215   21.1321 F   0  0  0  0  0  0  0  0  0  0  0  0
  1  2  1  0  0  0  0
  1  5  2  0  0  0  0
  2  6  2  0  0  0  0
  3  8  2  0  0  0  0
  3 15  1  0  0  0  0
  4  9  1  0  0  0  0
  4 15  2  0  0  0  0
  5 17  1  0  0  0  0
  6 19  1  0  0  0  0
  7 10  2  0  0  0  0
  7 18  1  0  0  0  0
  8 21  1  0  0  0  0
  9 21  2  0  0  0  0
 10 22  1  0  0  0  0
 11 12  2  0  0  0  0
 11 23  1  0  0  0  0
 12 24  1  0  0  0  0
 13 20  1  0  0  0  0
 13 22  2  0  0  0  0
 14 24  2  0  0  0  0
 14 25  1  0  0  0  0
 15 26  1  0  0  0  0
 16 26  1  0  0  0  0
 16 27  2  0  0  0  0
 16 31  1  0  0  0  0
 17 19  2  0  0  0  0
 17 36  1  0  0  0  0
 18 20  2  0  0  0  0
 18 37  1  0  0  0  0
 19 48  1  0  0  0  0
 20 38  1  0  0  0  0
 21 81  1  0  0  0  0
 22 82  1  0  0  0  0
 23 25  2  0  0  0  0
 23 81  1  0  0  0  0
 24 83  1  0  0  0  0
 25 84  1  0  0  0  0
 26 62  2  0  0  0  0
 27 66  1  0  0  0  0
 27 70  1  0  0  0  0
 28 52  1  0  0  0  0
 28 63  2  0  0  0  0
 28 64  1  0  0  0  0
 29 58  1  0  0  0  0
 29 63  1  0  0  0  0
 29 65  2  0  0  0  0
 30 64  2  0  0  0  0
 30 65  1  0  0  0  0
 30 72  1  0  0  0  0
 31 71  1  0  0  0  0
 31 76  2  0  0  0  0
 32 49  1  0  0  0  0
 32 73  1  0  0  0  0
 32 77  2  0  0  0  0
 33 59  1  0  0  0  0
 33 67  1  0  0  0  0
 33 78  2  0  0  0  0
 34 60  1  0  0  0  0
 34 74  1  0  0  0  0
 34 79  2  0  0  0  0
 35 68  1  0  0  0  0
 35 69  1  0  0  0  0
 35 80  2  0  0  0  0
 36 39  1  0  0  0  0
 37 49  1  0  0  0  0
 38 67  1  0  0  0  0
 39 41  1  0  0  0  0
 40 42  1  0  0  0  0
 40 44  1  0  0  0  0
 41 48  1  0  0  0  0
 42 50  1  0  0  0  0
 43 45  1  0  0  0  0
 43 51  1  0  0  0  0
 44 68  1  0  0  0  0
 45 69  1  0  0  0  0
 46 50  1  0  0  0  0
 46 68  1  0  0  0  0
 47 51  1  0  0  0  0
 47 69  1  0  0  0  0
 48 73  1  0  0  0  0
 49 67  1  0  0  0  0
 50 66  1  0  0  0  0
 51 72  1  0  0  0  0
 53 60  1  0  0  0  0
 54 61  1  0  0  0  0
 55 61  1  0  0  0  0
 56 61  1  0  0  0  0
 57 75  1  0  0  0  0
 58 82  1  0  0  0  0
 59 61  1  0  0  0  0
 59 74  1  0  0  0  0
 60 75  1  0  0  0  0
 62 66  1  0  0  0  0
M  CHG  1  75   1
M  ISO  4  35 100  58 101  69 100  82 101
M  END
> <Batch ID>
0190

> <Smiles>
CNC(C)C(=O)NC(C(=O)N1Cc2cc([101O:1][101CH2:1]c3nc(C)nc(NC4CC[100N:0]([100C:0](=O)N5CCCC(n6nc(-c7ccc(Oc8ccc(F)cc8F)cc7)c(C(N)=O)c6N)C5)C4)n3)ccc2CC1C(=O)NC1CCCc2ccccc21)C(C)(C)C

> <Shape>
0.205

> <Color>
0.100

> <Negative vol penalty>
0.000

$$$$

  -OEChem-04052323243D

 80 89  0     1  0  0  0  0  0999 V2000
  -28.4199  -26.6397   30.6874 C   0  0  0  0  0  0  0  0  0  0  0  0
  -28.4264  -25.4982   29.8921 C   0  0  0  0  0  0  0  0  0  0  0  0
  -23.1462   -9.8271   19.9179 C   0  0  0  0  0  0  0  0  0  0  0  0
  -23.7964   -9.8797   22.2442 C   0  0  0  0  0  0  0  0  0  0  0  0
  -28.0114  -27.8598   30.1503 C   0  0  0  0  0  0  0  0  0  0  0  0
  -28.0233  -25.5760   28.5595 C   0  0  0  0  0  0  0  0  0  0  0  0
  -31.1316  -23.0747   25.4407 C   0  0  0  0  0  0  0  0  0  0  0  0
  -22.3980   -8.6737   20.1531 C   0  0  0  0  0  0  0  0  0  0  0  0
  -23.0481   -8.7263   22.4794 C   0  0  0  0  0  0  0  0  0  0  0  0
  -31.0028  -21.6874   25.3911 C   0  0  0  0  0  0  0  0  0  0  0  0
  -19.7997   -7.9180   22.9428 C   0  0  0  0  0  0  0  0  0  0  0  0
  -18.9883   -7.8938   24.0770 C   0  0  0  0  0  0  0  0  0  0  0  0
  -29.7211  -21.8850   23.3571 C   0  0  0  0  0  0  0  0  0  0  0  0
  -20.2045   -5.9780   24.9062 C   0  0  0  0  0  0  0  0  0  0  0  0
  -23.8455  -10.4301   20.9634 C   0  0  0  0  0  0  0  0  0  0  0  0
  -24.1781  -12.9549   20.8142 C   0  0  0  0  0  0  0  0  0  0  0  0
  -27.6124  -27.9545   28.8077 C   0  0  0  0  0  0  0  0  0  0  0  0
  -30.5459  -23.8796   24.4530 C   0  0  0  0  0  0  0  0  0  0  0  0
  -27.6079  -26.7982   28.0043 C   0  0  0  0  0  0  0  0  0  0  0  0
  -29.8461  -23.2822   23.3949 C   0  0  0  0  0  0  0  0  0  0  0  0
  -22.3489   -8.1233   21.4339 C   0  0  0  0  0  0  0  0  0  0  0  0
  -30.2951  -21.0925   24.3508 C   0  0  0  0  0  0  0  0  0  0  0  0
  -20.8135   -6.9721   22.7901 C   0  0  0  0  0  0  0  0  0  0  0  0
  -19.1907   -6.9238   25.0588 C   0  0  0  0  0  0  0  0  0  0  0  0
  -21.0159   -6.0021   23.7719 C   0  0  0  0  0  0  0  0  0  0  0  0
  -24.6191  -11.6213   20.7210 C   0  0  0  0  0  0  0  0  0  0  0  0
  -25.2819  -13.7051   20.4896 C   0  0  0  0  0  0  0  0  0  0  0  0
  -22.8862  -13.4697   21.1632 C   0  0  0  0  0  0  0  0  0  0  0  0
  -28.3182  -26.1470   24.4372 C   0  0  0  0  0  0  0  0  0  0  0  0
  -29.1787  -26.4264   21.3221 C   0  0  0  0  0  0  0  0  0  0  0  0
  -30.5575  -24.9788   18.5562 C   0  0  0  0  0  0  0  0  0  0  0  0
  -30.6982  -14.7852   20.8447 C   0  0  0  0  0  0  0  0  0  0  0  0
  -27.1340  -29.2857   28.2847 C   0  0  0  0  0  0  0  0  0  0  0  0
  -30.7166  -25.3731   24.5062 C   0  0  0  0  0  0  0  0  0  0  0  0
  -29.2157  -24.1005   22.2988 C   0  0  0  0  0  0  0  0  0  0  0  0
  -27.0787  -29.3573   26.7609 C   0  0  0  0  0  0  0  0  0  0  0  0
  -29.7298  -12.3627   18.5201 C   0  0  0  0  0  0  0  0  0  0  0  0
  -26.4085  -28.1107   26.1919 C   0  0  0  0  0  0  0  0  0  0  0  0
  -28.2824  -12.0437   18.8887 C   0  0  0  0  0  0  0  0  0  0  0  0
  -31.2121  -15.3326   24.3164 C   0  0  0  0  0  0  0  0  0  0  0  0
  -30.5764  -12.5661   19.7706 C   0  0  0  0  0  0  0  0  0  0  0  0
  -28.6131  -13.3390   21.0547 C   0  0  0  0  0  0  0  0  0  0  0  0
  -31.3244  -16.6552   22.3577 C   0  0  0  0  0  0  0  0  0  0  0  0
  -28.9470  -15.7919   23.8539 C   0  0  0  0  0  0  0  0  0  0  0  0
  -27.2013  -26.8471   26.5474 C   0  0  1  0  0  0  0  0  0  0  0  0
  -29.6422  -26.1255   23.7271 C   0  0  1  0  0  0  0  0  0  0  0  0
  -27.7076  -13.1189   19.8256 C   0  0  2  0  0  0  0  0  0  0  0  0
  -30.0941  -14.8968   23.3654 C   0  0  1  0  0  0  0  0  0  0  0  0
  -31.1454  -16.7911   23.8734 C   0  0  1  0  0  0  0  0  0  0  0  0
  -31.0894  -25.4425   16.1480 C   0  0  0  0  0  0  0  0  0  0  0  0
  -27.8703  -17.9691   25.5246 C   0  0  0  0  0  0  0  0  0  0  0  0
  -26.2330  -26.0782   20.6070 C   0  0  0  0  0  0  0  0  0  0  0  0
  -26.9333  -25.5999   18.2513 C   0  0  0  0  0  0  0  0  0  0  0  0
  -27.4316  -27.8207   19.2723 C   0  0  0  0  0  0  0  0  0  0  0  0
  -33.4565  -24.5807   18.9993 C   0  0  0  0  0  0  0  0  0  0  0  0
  -30.1588  -19.0401   25.5446 C   0  0  0  0  0  0  0  0  0  1  0  0
  -28.7325  -25.7890   20.0284 C   0  0  1  0  0  0  0  0  0  0  0  0
  -31.6072  -25.4736   17.5776 C   0  0  2  0  0  0  0  0  0  0  0  0
  -29.3701  -17.7406   25.4294 C   0  0  2  0  0  0  0  0  0  0  0  0
  -27.3427  -26.3063   19.5613 C   0  0  0  0  0  0  0  0  0  0  0  0
  -25.9029  -11.5264   20.3648 N   0  0  0  0  0  0  0  0  0  0  0  0
  -26.2781  -12.8100   20.2314 N   0  0  0  0  0  0  0  0  0  0  0  0
  -29.4050  -25.5571   22.3986 N   0  0  0  0  0  0  0  0  0  0  0  0
  -30.0008  -13.5894   20.6466 N   0  0  0  0  0  0  0  0  0  0  0  0
  -30.5822  -15.4230   22.0736 N   0  0  0  0  0  0  0  0  0  0  0  0
  -25.4879  -15.0364   20.4027 N   0  0  0  0  0  0  0  0  0  0  0  0
  -21.8647  -12.5600   21.4685 N   0  0  0  0  0  0  0  0  0  0  0  0
  -28.3626  -26.7220   25.6929 N   0  0  0  0  0  0  0  0  0  0  0  0
  -29.8080  -26.0162   19.0692 N   0  0  0  0  0  0  0  0  0  0  0  0
  -29.6642  -17.1231   24.0992 N   0  3  2  0  0  0  0  0  0  0  0  0
  -32.8284  -24.6229   17.6537 N   0  3  0  0  0  0  0  0  0  0  0  0
  -22.6404  -14.6995   21.1871 O   0  0  0  0  0  0  0  0  0  0  0  0
  -27.3293  -25.6782   23.8860 O   0  0  0  0  0  0  0  0  0  0  0  0
  -29.3280  -27.6498   21.3735 O   0  0  0  0  0  0  0  0  0  0  0  0
  -30.4141  -23.7903   18.8347 O   0  0  0  0  0  0  0  0  0  0  0  0
  -31.4350  -15.2496   19.9634 O   0  0  0  0  0  0  0  0  0  0  0  0
  -21.6187   -6.9979   21.6638 O   0  0  0  0  0  0  0  0  0  0  0  0
  -30.1665  -19.7294   24.3001 O   0  0  0  0  0  0  0  0  0  1  0  0
  -18.4124   -6.9017   26.1487 F   0  0  0  0  0  0  0  0  0  0  0  0
  -21.9890   -5.0916   23.6314 F   0  0  0  0  0  0  0  0  0  0  0  0
  1  2  1  0  0  0  0
  1  5  2  0  0  0  0
  2  6  2  0  0  0  0
  3  8  2  0  0  0  0
  3 15  1  0  0  0  0
  4  9  1  0  0  0  0
  4 15  2  0  0  0  0
  5 17  1  0  0  0  0
  6 19  1  0  0  0  0
  7 10  2  0  0  0  0
  7 18  1  0  0  0  0
  8 21  1  0  0  0  0
  9 21  2  0  0  0  0
 10 22  1  0  0  0  0
 11 12  2  0  0  0  0
 11 23  1  0  0  0  0
 12 24  1  0  0  0  0
 13 20  1  0  0  0  0
 13 22  2  0  0  0  0
 14 24  2  0  0  0  0
 14 25  1  0  0  0  0
 15 26  1  0  0  0  0
 16 26  1  0  0  0  0
 16 27  2  0  0  0  0
 16 28  1  0  0  0  0
 17 19  2  0  0  0  0
 17 33  1  0  0  0  0
 18 20  2  0  0  0  0
 18 34  1  0  0  0  0
 19 45  1  0  0  0  0
 20 35  1  0  0  0  0
 21 77  1  0  0  0  0
 22 78  1  0  0  0  0
 23 25  2  0  0  0  0
 23 77  1  0  0  0  0
 24 79  1  0  0  0  0
 25 80  1  0  0  0  0
 26 61  2  0  0  0  0
 27 62  1  0  0  0  0
 27 66  1  0  0  0  0
 28 67  1  0  0  0  0
 28 72  2  0  0  0  0
 29 46  1  0  0  0  0
 29 68  1  0  0  0  0
 29 73  2  0  0  0  0
 30 57  1  0  0  0  0
 30 63  1  0  0  0  0
 30 74  2  0  0  0  0
 31 58  1  0  0  0  0
 31 69  1  0  0  0  0
 31 75  2  0  0  0  0
 32 64  1  0  0  0  0
 32 65  1  0  0  0  0
 32 76  2  0  0  0  0
 33 36  1  0  0  0  0
 34 46  1  0  0  0  0
 35 63  1  0  0  0  0
 36 38  1  0  0  0  0
 37 39  1  0  0  0  0
 37 41  1  0  0  0  0
 38 45  1  0  0  0  0
 39 47  1  0  0  0  0
 40 48  1  0  0  0  0
 40 49  1  0  0  0  0
 41 64  1  0  0  0  0
 42 47  1  0  0  0  0
 42 64  1  0  0  0  0
 43 49  1  0  0  0  0
 43 65  1  0  0  0  0
 44 48  1  0  0  0  0
 44 70  1  0  0  0  0
 45 68  1  0  0  0  0
 46 63  1  0  0  0  0
 47 62  1  0  0  0  0
 48 65  1  0  0  0  0
 49 70  1  0  0  0  0
 50 58  1  0  0  0  0
 51 59  1  0  0  0  0
 52 60  1  0  0  0  0
 53 60  1  0  0  0  0
 54 60  1  0  0  0  0
 55 71  1  0  0  0  0
 56 59  1  0  0  0  0
 56 78  1  0  0  0  0
 57 60  1  0  0  0  0
 57 69  1  0  0  0  0
 58 71  1  0  0  0  0
 59 70  1  0  0  0  0
 61 62  1  0  0  0  0
M  CHG  2  70   1  71   1
M  ISO  4  32 100  56 101  65 100  78 101
M  END
> <Batch ID>
0190

> <Smiles>
CNC(C)C(=O)NC(C(=O)N1Cc2cc([101O:1][101CH2:1]C(C)N3CC4CC3C[100N:0]4[100C:0](=O)N3CCCC(n4nc(-c5ccc(Oc6ccc(F)cc6F)cc5)c(C(N)=O)c4N)C3)ccc2CC1C(=O)NC1CCCc2ccccc21)C(C)(C)C

> <Shape>
0.231

> <Color>
0.173

> <Negative vol penalty>
0.000

$$$$

  -OEChem-04052323243D

 82 91  0     1  0  0  0  0  0999 V2000
  -22.1814  -11.7172   19.6579 C   0  0  0  0  0  0  0  0  0  0  0  0
  -21.8830  -13.0728   19.7507 C   0  0  0  0  0  0  0  0  0  0  0  0
  -25.0379  -26.7669   19.3596 C   0  0  0  0  0  0  0  0  0  0  0  0
  -25.8770  -27.5897   21.4705 C   0  0  0  0  0  0  0  0  0  0  0  0
  -23.4485  -11.2575   20.0143 C   0  0  0  0  0  0  0  0  0  0  0  0
  -22.8513  -13.9695   20.2011 C   0  0  0  0  0  0  0  0  0  0  0  0
  -23.0801  -18.1641   17.3730 C   0  0  0  0  0  0  0  0  0  0  0  0
  -26.1366  -27.3244   18.7056 C   0  0  0  0  0  0  0  0  0  0  0  0
  -26.9757  -28.1471   20.8165 C   0  0  0  0  0  0  0  0  0  0  0  0
  -22.0973  -19.1298   17.5856 C   0  0  0  0  0  0  0  0  0  0  0  0
  -29.9224  -27.0820   19.5503 C   0  0  0  0  0  0  0  0  0  0  0  0
  -31.1800  -26.8935   20.1234 C   0  0  0  0  0  0  0  0  0  0  0  0
  -23.6443  -20.3987   18.9331 C   0  0  0  0  0  0  0  0  0  0  0  0
  -31.4467  -29.2862   20.3253 C   0  0  0  0  0  0  0  0  0  0  0  0
  -24.9080  -26.8997   20.7420 C   0  0  0  0  0  0  0  0  0  0  0  0
  -23.6739  -25.0300   21.9623 C   0  0  0  0  0  0  0  0  0  0  0  0
  -24.4359  -12.1503   20.4601 C   0  0  0  0  0  0  0  0  0  0  0  0
  -24.3512  -18.3032   17.9487 C   0  0  0  0  0  0  0  0  0  0  0  0
  -24.1324  -13.5211   20.5651 C   0  0  0  0  0  0  0  0  0  0  0  0
  -24.6423  -19.4347   18.7241 C   0  0  0  0  0  0  0  0  0  0  0  0
  -27.1055  -28.0144   19.4340 C   0  0  0  0  0  0  0  0  0  0  0  0
  -22.3784  -20.2459   18.3682 C   0  0  0  0  0  0  0  0  0  0  0  0
  -29.4270  -28.3727   19.3646 C   0  0  0  0  0  0  0  0  0  0  0  0
  -31.9422  -27.9955   20.5109 C   0  0  0  0  0  0  0  0  0  0  0  0
  -30.1891  -29.4748   19.7522 C   0  0  0  0  0  0  0  0  0  0  0  0
  -23.7730  -26.3246   21.4181 C   0  0  0  0  0  0  0  0  0  0  0  0
  -22.4064  -24.9749   22.4885 C   0  0  0  0  0  0  0  0  0  0  0  0
  -24.6411  -23.9720   21.9897 C   0  0  0  0  0  0  0  0  0  0  0  0
  -26.0636  -16.6266   20.0368 C   0  0  0  0  0  0  0  0  0  0  0  0
  -28.3688  -18.7817   19.2857 C   0  0  0  0  0  0  0  0  0  0  0  0
  -29.5343  -22.1107   18.5262 C   0  0  0  0  0  0  0  0  0  0  0  0
  -17.0902  -26.7156   21.5908 C   0  0  0  0  0  0  0  0  0  0  0  0
  -25.7762  -11.6001   20.8791 C   0  0  0  0  0  0  0  0  0  0  0  0
  -25.4087  -17.2660   17.6877 C   0  0  0  0  0  0  0  0  0  0  0  0
  -25.9975  -19.6412   19.3480 C   0  0  0  0  0  0  0  0  0  0  0  0
  -26.8639  -12.6654   20.9905 C   0  0  0  0  0  0  0  0  0  0  0  0
  -19.0686  -28.3160   23.9272 C   0  0  0  0  0  0  0  0  0  0  0  0
  -26.3461  -13.8792   21.7555 C   0  0  0  0  0  0  0  0  0  0  0  0
  -20.4827  -27.8454   23.5870 C   0  0  0  0  0  0  0  0  0  0  0  0
  -19.2296  -21.6689   19.4837 C   0  0  0  0  0  0  0  0  0  0  0  0
  -19.4615  -20.8615   17.1722 C   0  0  0  0  0  0  0  0  0  0  0  0
  -18.2716  -28.6105   22.6614 C   0  0  0  0  0  0  0  0  0  0  0  0
  -16.2939  -24.4643   20.9659 C   0  0  0  0  0  0  0  0  0  0  0  0
  -17.6608  -25.7109   19.3461 C   0  0  0  0  0  0  0  0  0  0  0  0
  -16.9550  -23.1703   20.4911 C   0  0  0  0  0  0  0  0  0  0  0  0
  -18.3096  -24.4007   18.9047 C   0  0  0  0  0  0  0  0  0  0  0  0
  -19.6005  -26.9761   21.3659 C   0  0  0  0  0  0  0  0  0  0  0  0
  -25.1639  -14.5281   21.0256 C   0  0  1  0  0  0  0  0  0  0  0  0
  -26.5077  -17.2538   18.7457 C   0  0  1  0  0  0  0  0  0  0  0  0
  -20.4494  -26.6548   22.6124 C   0  0  1  0  0  0  0  0  0  0  0  0
  -17.9987  -22.0312   18.6501 C   0  0  2  0  0  0  0  0  0  0  0  0
  -18.5828  -22.1048   17.2453 C   0  0  2  0  0  0  0  0  0  0  0  0
  -20.0640  -20.7513   18.5787 C   0  0  1  0  0  0  0  0  0  1  0  0
  -31.8235  -22.9383   17.9163 C   0  0  0  0  0  0  0  0  0  0  0  0
  -28.6475  -19.3372   22.2730 C   0  0  0  0  0  0  0  0  0  0  0  0
  -29.8835  -21.4367   21.6964 C   0  0  0  0  0  0  0  0  0  0  0  0
  -30.8128  -19.2205   21.0271 C   0  0  0  0  0  0  0  0  0  0  0  0
  -28.5449  -23.3605   16.0327 C   0  0  0  0  0  0  0  0  0  0  0  0
  -28.7863  -20.1305   19.8200 C   0  0  1  0  0  0  0  0  0  0  0  0
  -30.4606  -22.5127   17.3927 C   0  0  2  0  0  0  0  0  0  0  0  0
  -29.5063  -20.0267   21.1941 C   0  0  0  0  0  0  0  0  0  0  0  0
  -22.6573  -27.0401   21.5833 N   0  0  0  0  0  0  0  0  0  0  0  0
  -21.8451  -26.1922   22.2371 N   0  0  0  0  0  0  0  0  0  0  0  0
  -26.9961  -18.5960   19.0688 N   0  0  0  0  0  0  0  0  0  0  0  0
  -18.2683  -27.4579   21.7610 N   0  0  0  0  0  0  0  0  0  0  0  0
  -17.1542  -25.6179   20.7194 N   0  0  0  0  0  0  0  0  0  0  0  0
  -17.3852  -23.2731   19.0900 N   0  0  0  0  0  0  0  0  0  0  0  0
  -21.7284  -24.0043   23.1371 N   0  0  0  0  0  0  0  0  0  0  0  0
  -25.8941  -24.1968   21.4032 N   0  0  0  0  0  0  0  0  0  0  0  0
  -25.6327  -15.3200   19.9086 N   0  0  0  0  0  0  0  0  0  0  0  0
  -29.5863  -20.7549   18.7719 N   0  0  0  0  0  0  0  0  0  0  0  0
  -17.5299  -22.0657   16.2125 N   0  3  0  0  0  0  0  0  0  0  0  0
  -29.8767  -23.6484   16.6246 N   0  3  0  0  0  0  0  0  0  0  0  0
  -24.3956  -22.8546   22.5041 O   0  0  0  0  0  0  0  0  0  0  0  0
  -26.1100  -17.2793   21.0730 O   0  0  0  0  0  0  0  0  0  0  0  0
  -29.2296  -17.9270   19.0622 O   0  0  0  0  0  0  0  0  0  0  0  0
  -28.8373  -22.9191   19.1355 O   0  0  0  0  0  0  0  0  0  0  0  0
  -16.0453  -27.0094   22.1847 O   0  0  0  0  0  0  0  0  0  0  0  0
  -28.1779  -28.5583   18.7962 O   0  0  0  0  0  0  0  0  0  0  0  0
  -21.4138  -21.1965   18.5794 O   0  0  0  0  0  0  0  0  0  1  0  0
  -33.1492  -27.8142   21.0627 F   0  0  0  0  0  0  0  0  0  0  0  0
  -29.7180  -30.7171   19.5774 F   0  0  0  0  0  0  0  0  0  0  0  0
  1  2  1  0  0  0  0
  1  5  2  0  0  0  0
  2  6  2  0  0  0  0
  3  8  2  0  0  0  0
  3 15  1  0  0  0  0
  4  9  1  0  0  0  0
  4 15  2  0  0  0  0
  5 17  1  0  0  0  0
  6 19  1  0  0  0  0
  7 10  2  0  0  0  0
  7 18  1  0  0  0  0
  8 21  1  0  0  0  0
  9 21  2  0  0  0  0
 10 22  1  0  0  0  0
 11 12  2  0  0  0  0
 11 23  1  0  0  0  0
 12 24  1  0  0  0  0
 13 20  1  0  0  0  0
 13 22  2  0  0  0  0
 14 24  2  0  0  0  0
 14 25  1  0  0  0  0
 15 26  1  0  0  0  0
 16 26  1  0  0  0  0
 16 27  2  0  0  0  0
 16 28  1  0  0  0  0
 17 19  2  0  0  0  0
 17 33  1  0  0  0  0
 18 20  2  0  0  0  0
 18 34  1  0  0  0  0
 19 48  1  0  0  0  0
 20 35  1  0  0  0  0
 21 79  1  0  0  0  0
 22 80  1  0  0  0  0
 23 25  2  0  0  0  0
 23 79  1  0  0  0  0
 24 81  1  0  0  0  0
 25 82  1  0  0  0  0
 26 62  2  0  0  0  0
 27 63  1  0  0  0  0
 27 68  1  0  0  0  0
 28 69  1  0  0  0  0
 28 74  2  0  0  0  0
 29 49  1  0  0  0  0
 29 70  1  0  0  0  0
 29 75  2  0  0  0  0
 30 59  1  0  0  0  0
 30 64  1  0  0  0  0
 30 76  2  0  0  0  0
 31 60  1  0  0  0  0
 31 71  1  0  0  0  0
 31 77  2  0  0  0  0
 32 65  1  0  0  0  0
 32 66  1  0  0  0  0
 32 78  2  0  0  0  0
 33 36  1  0  0  0  0
 34 49  1  0  0  0  0
 35 64  1  0  0  0  0
 36 38  1  0  0  0  0
 37 39  1  0  0  0  0
 37 42  1  0  0  0  0
 38 48  1  0  0  0  0
 39 50  1  0  0  0  0
 40 51  1  0  0  0  0
 40 53  1  0  0  0  0
 41 52  1  0  0  0  0
 41 53  1  0  0  0  0
 42 65  1  0  0  0  0
 43 45  1  0  0  0  0
 43 66  1  0  0  0  0
 44 46  1  0  0  0  0
 44 66  1  0  0  0  0
 45 67  1  0  0  0  0
 46 67  1  0  0  0  0
 47 50  1  0  0  0  0
 47 65  1  0  0  0  0
 48 70  1  0  0  0  0
 49 64  1  0  0  0  0
 50 63  1  0  0  0  0
 51 52  1  0  0  0  0
 51 67  1  0  0  0  0
 52 72  1  0  0  0  0
 53 80  1  0  0  0  0
 54 60  1  0  0  0  0
 55 61  1  0  0  0  0
 56 61  1  0  0  0  0
 57 61  1  0  0  0  0
 58 73  1  0  0  0  0
 59 61  1  0  0  0  0
 59 71  1  0  0  0  0
 60 73  1  0  0  0  0
 62 63  1  0  0  0  0
M  CHG  2  72   1  73   1
M  ISO  4  32 100  53 101  66 100  80 101
M  END
> <Batch ID>
0190

> <Smiles>
CNC(C)C(=O)NC(C(=O)N1Cc2cc([101O:1][101CH:1]3CC(N)C(N4CC[100N:0]([100C:0](=O)N5CCCC(n6nc(-c7ccc(Oc8ccc(F)cc8F)cc7)c(C(N)=O)c6N)C5)CC4)C3)ccc2CC1C(=O)NC1CCCc2ccccc21)C(C)(C)C

> <Shape>
0.206

> <Color>
0.077

> <Negative vol penalty>
0.000

$$$$

  -OEChem-04052323243D

 79 88  0     1  0  0  0  0  0999 V2000
  -23.9979  -18.6387   23.7041 C   0  0  0  0  0  0  0  0  0  0  0  0
  -24.6401  -19.5717   22.8964 C   0  0  0  0  0  0  0  0  0  0  0  0
  -26.2405  -14.9000   20.8138 C   0  0  0  0  0  0  0  0  0  0  0  0
  -27.1006  -14.4068   18.6106 C   0  0  0  0  0  0  0  0  0  0  0  0
  -22.6524  -18.8077   24.0283 C   0  0  0  0  0  0  0  0  0  0  0  0
  -23.9368  -20.6739   22.4116 C   0  0  0  0  0  0  0  0  0  0  0  0
  -26.5503  -24.9898   22.8448 C   0  0  0  0  0  0  0  0  0  0  0  0
  -26.0467  -13.5379   21.0431 C   0  0  0  0  0  0  0  0  0  0  0  0
  -26.9069  -13.0446   18.8399 C   0  0  0  0  0  0  0  0  0  0  0  0
  -27.5524  -25.2245   21.9043 C   0  0  0  0  0  0  0  0  0  0  0  0
  -23.7887  -11.1674   20.2025 C   0  0  0  0  0  0  0  0  0  0  0  0
  -22.5801  -10.7730   20.7762 C   0  0  0  0  0  0  0  0  0  0  0  0
  -26.0622  -26.6812   20.6891 C   0  0  0  0  0  0  0  0  0  0  0  0
  -23.7781   -9.8200   22.6453 C   0  0  0  0  0  0  0  0  0  0  0  0
  -26.7674  -15.3345   19.5975 C   0  0  0  0  0  0  0  0  0  0  0  0
  -28.1220  -17.4957   19.6416 C   0  0  0  0  0  0  0  0  0  0  0  0
  -21.9349  -19.9176   23.5551 C   0  0  0  0  0  0  0  0  0  0  0  0
  -25.2910  -25.5915   22.7084 C   0  0  0  0  0  0  0  0  0  0  0  0
  -22.5802  -20.8573   22.7287 C   0  0  0  0  0  0  0  0  0  0  0  0
  -25.0467  -26.4545   21.6307 C   0  0  0  0  0  0  0  0  0  0  0  0
  -26.3800  -12.6102   20.0562 C   0  0  0  0  0  0  0  0  0  0  0  0
  -27.3075  -26.0681   20.8247 C   0  0  0  0  0  0  0  0  0  0  0  0
  -24.9922  -10.8880   20.8502 C   0  0  0  0  0  0  0  0  0  0  0  0
  -22.5747  -10.0993   21.9975 C   0  0  0  0  0  0  0  0  0  0  0  0
  -24.9868  -10.2144   22.0716 C   0  0  0  0  0  0  0  0  0  0  0  0
  -26.9672  -16.7415   19.3598 C   0  0  0  0  0  0  0  0  0  0  0  0
  -27.8086  -18.7691   19.2332 C   0  0  0  0  0  0  0  0  0  0  0  0
  -29.3667  -17.0821   20.2206 C   0  0  0  0  0  0  0  0  0  0  0  0
  -22.3238  -24.5205   22.3185 C   0  0  0  0  0  0  0  0  0  0  0  0
  -21.5636  -27.6558   22.6569 C   0  0  0  0  0  0  0  0  0  0  0  0
  -22.5441  -30.9162   22.4230 C   0  0  0  0  0  0  0  0  0  0  0  0
  -25.6020  -22.2875   15.5140 C   0  0  0  0  0  0  0  0  0  0  0  0
  -20.4697  -20.0328   23.8935 C   0  0  0  0  0  0  0  0  0  0  0  0
  -24.2294  -25.3491   23.7460 C   0  0  0  0  0  0  0  0  0  0  0  0
  -23.7184  -27.1409   21.4497 C   0  0  0  0  0  0  0  0  0  0  0  0
  -19.8952  -21.4254   23.6467 C   0  0  0  0  0  0  0  0  0  0  0  0
  -23.3817  -20.7859   17.8437 C   0  0  0  0  0  0  0  0  0  0  0  0
  -20.3319  -21.9489   22.2821 C   0  0  0  0  0  0  0  0  0  0  0  0
  -24.2093  -19.6611   18.4680 C   0  0  0  0  0  0  0  0  0  0  0  0
  -30.7094  -24.2979   17.7755 C   0  0  0  0  0  0  0  0  0  0  0  0
  -23.6928  -20.9577   16.3584 C   0  0  0  0  0  0  0  0  0  0  0  0
  -25.9475  -20.0147   16.6640 C   0  0  0  0  0  0  0  0  0  0  0  0
  -29.1393  -23.5759   14.8765 C   0  0  0  0  0  0  0  0  0  0  0  0
  -27.5821  -24.8237   15.5508 C   0  0  0  0  0  0  0  0  0  0  0  0
  -21.8578  -22.0791   22.2037 C   0  0  1  0  0  0  0  0  0  0  0  0
  -22.8180  -25.6090   23.2288 C   0  0  1  0  0  0  0  0  0  0  0  0
  -29.6987  -25.2987   18.2689 C   0  0  1  0  0  0  0  0  0  0  0  0
  -25.7112  -19.8396   18.1740 C   0  0  2  0  0  0  0  0  0  0  0  0
  -27.6155  -23.5329   14.7262 C   0  0  0  0  0  0  0  0  0  0  0  0
  -29.2849  -24.2271   17.2959 C   0  0  1  0  0  0  0  0  0  0  0  0
  -21.6913  -33.2565   22.7286 C   0  0  0  0  0  0  0  0  0  0  0  0
  -20.0379  -27.4411   20.0233 C   0  0  0  0  0  0  0  0  0  0  0  0
  -20.0295  -29.9420   19.9047 C   0  0  0  0  0  0  0  0  0  0  0  0
  -18.8833  -28.7807   21.7916 C   0  0  0  0  0  0  0  0  0  0  0  0
  -24.5420  -31.4933   24.5287 C   0  0  0  0  0  0  0  0  0  0  0  0
  -29.2254  -25.2499   19.6809 C   0  0  0  0  0  0  0  0  0  1  0  0
  -21.4100  -28.8262   21.7159 C   0  0  1  0  0  0  0  0  0  0  0  0
  -22.4015  -32.0824   23.3843 C   0  0  2  0  0  0  0  0  0  0  0  0
  -20.1147  -28.7332   20.8609 C   0  0  0  0  0  0  0  0  0  0  0  0
  -25.9928  -17.4747   18.8147 N   0  0  0  0  0  0  0  0  0  0  0  0
  -26.5346  -18.7029   18.7508 N   0  0  0  0  0  0  0  0  0  0  0  0
  -22.7104  -26.8672   22.4873 N   0  0  0  0  0  0  0  0  0  0  0  0
  -25.1332  -21.1280   16.1514 N   0  0  0  0  0  0  0  0  0  0  0  0
  -28.5012  -19.9278   19.2435 N   0  0  0  0  0  0  0  0  0  0  0  0
  -29.5209  -15.7370   20.5828 N   0  0  0  0  0  0  0  0  0  0  0  0
  -22.3001  -23.2676   22.9010 N   0  0  0  0  0  0  0  0  0  0  0  0
  -21.4970  -30.0268   22.5402 N   0  0  0  0  0  0  0  0  0  0  0  0
  -26.9813  -22.3829   15.3611 N   0  0  0  0  0  0  0  0  0  0  0  0
  -29.0078  -24.6409   15.8917 N   0  3  0  0  0  0  0  0  0  0  0  0
  -23.7426  -32.5417   23.8440 N   0  3  0  0  0  0  0  0  0  0  0  0
  -30.3082  -17.8851   20.4263 O   0  0  0  0  0  0  0  0  0  0  0  0
  -21.9874  -24.7970   21.1731 O   0  0  0  0  0  0  0  0  0  0  0  0
  -20.7015  -27.4530   23.5156 O   0  0  0  0  0  0  0  0  0  0  0  0
  -23.4879  -30.8073   21.6433 O   0  0  0  0  0  0  0  0  0  0  0  0
  -24.8505  -23.1833   15.1138 O   0  0  0  0  0  0  0  0  0  0  0  0
  -26.1913  -11.2809   20.2797 O   0  0  0  0  0  0  0  0  0  0  0  0
  -28.2836  -26.2984   19.9049 O   0  0  0  0  0  0  0  0  0  1  0  0
  -21.4138   -9.7220   22.5491 F   0  0  0  0  0  0  0  0  0  0  0  0
  -26.1397   -9.9442   22.6991 F   0  0  0  0  0  0  0  0  0  0  0  0
  1  2  1  0  0  0  0
  1  5  2  0  0  0  0
  2  6  2  0  0  0  0
  3  8  2  0  0  0  0
  3 15  1  0  0  0  0
  4  9  1  0  0  0  0
  4 15  2  0  0  0  0
  5 17  1  0  0  0  0
  6 19  1  0  0  0  0
  7 10  2  0  0  0  0
  7 18  1  0  0  0  0
  8 21  1  0  0  0  0
  9 21  2  0  0  0  0
 10 22  1  0  0  0  0
 11 12  2  0  0  0  0
 11 23  1  0  0  0  0
 12 24  1  0  0  0  0
 13 20  1  0  0  0  0
 13 22  2  0  0  0  0
 14 24  2  0  0  0  0
 14 25  1  0  0  0  0
 15 26  1  0  0  0  0
 16 26  1  0  0  0  0
 16 27  2  0  0  0  0
 16 28  1  0  0  0  0
 17 19  2  0  0  0  0
 17 33  1  0  0  0  0
 18 20  2  0  0  0  0
 18 34  1  0  0  0  0
 19 45  1  0  0  0  0
 20 35  1  0  0  0  0
 21 76  1  0  0  0  0
 22 77  1  0  0  0  0
 23 25  2  0  0  0  0
 23 76  1  0  0  0  0
 24 78  1  0  0  0  0
 25 79  1  0  0  0  0
 26 60  2  0  0  0  0
 27 61  1  0  0  0  0
 27 64  1  0  0  0  0
 28 65  1  0  0  0  0
 28 71  2  0  0  0  0
 29 46  1  0  0  0  0
 29 66  1  0  0  0  0
 29 72  2  0  0  0  0
 30 57  1  0  0  0  0
 30 62  1  0  0  0  0
 30 73  2  0  0  0  0
 31 58  1  0  0  0  0
 31 67  1  0  0  0  0
 31 74  2  0  0  0  0
 32 63  1  0  0  0  0
 32 68  1  0  0  0  0
 32 75  2  0  0  0  0
 33 36  1  0  0  0  0
 34 46  1  0  0  0  0
 35 62  1  0  0  0  0
 36 38  1  0  0  0  0
 37 39  1  0  0  0  0
 37 41  1  0  0  0  0
 38 45  1  0  0  0  0
 39 48  1  0  0  0  0
 40 47  1  0  0  0  0
 40 50  1  0  0  0  0
 41 63  1  0  0  0  0
 42 48  1  0  0  0  0
 42 63  1  0  0  0  0
 43 49  1  0  0  0  0
 43 69  1  0  0  0  0
 44 49  1  0  0  0  0
 44 69  1  0  0  0  0
 45 66  1  0  0  0  0
 46 62  1  0  0  0  0
 47 50  1  0  0  0  0
 47 56  1  0  0  0  0
 48 61  1  0  0  0  0
 49 68  1  0  0  0  0
 50 69  1  0  0  0  0
 51 58  1  0  0  0  0
 52 59  1  0  0  0  0
 53 59  1  0  0  0  0
 54 59  1  0  0  0  0
 55 70  1  0  0  0  0
 56 77  1  0  0  0  0
 57 59  1  0  0  0  0
 57 67  1  0  0  0  0
 58 70  1  0  0  0  0
 60 61  1  0  0  0  0
M  CHG  2  69   1  70   1
M  ISO  4  32 100  56 101  68 100  77 101
M  END
> <Batch ID>
0190

> <Smiles>
CNC(C)C(=O)NC(C(=O)N1Cc2cc([101O:1][101CH2:1]C3CC3N3CC([100NH:0][100C:0](=O)N4CCCC(n5nc(-c6ccc(Oc7ccc(F)cc7F)cc6)c(C(N)=O)c5N)C4)C3)ccc2CC1C(=O)NC1CCCc2ccccc21)C(C)(C)C

> <Shape>
0.187

> <Color>
0.062

> <Negative vol penalty>
0.000

$$$$

  -OEChem-04052323243D

 89 98  0     1  0  0  0  0  0999 V2000
  -16.7978  -28.7583   24.0670 C   0  0  0  0  0  0  0  0  0  0  0  0
  -17.4150  -27.9323   23.1331 C   0  0  0  0  0  0  0  0  0  0  0  0
  -28.9127  -10.1402   20.8499 C   0  0  0  0  0  0  0  0  0  0  0  0
  -27.4459  -11.3418   19.3527 C   0  0  0  0  0  0  0  0  0  0  0  0
  -17.3077  -30.0322   24.3140 C   0  0  0  0  0  0  0  0  0  0  0  0
  -18.5421  -28.3802   22.4449 C   0  0  0  0  0  0  0  0  0  0  0  0
  -22.1978  -24.8831   22.2197 C   0  0  0  0  0  0  0  0  0  0  0  0
  -27.9150   -9.1893   21.0642 C   0  0  0  0  0  0  0  0  0  0  0  0
  -26.4482  -10.3909   19.5669 C   0  0  0  0  0  0  0  0  0  0  0  0
  -22.0432  -23.8596   21.2857 C   0  0  0  0  0  0  0  0  0  0  0  0
  -24.1619   -9.6727   21.9518 C   0  0  0  0  0  0  0  0  0  0  0  0
  -22.8661  -10.1339   22.1839 C   0  0  0  0  0  0  0  0  0  0  0  0
  -25.0929  -20.1649   19.7732 C   0  0  0  0  0  0  0  0  0  0  0  0
  -23.5545  -25.0021   19.7924 C   0  0  0  0  0  0  0  0  0  0  0  0
  -22.8805  -18.8033   20.7900 C   0  0  0  0  0  0  0  0  0  0  0  0
  -22.0910   -8.9385   20.2327 C   0  0  0  0  0  0  0  0  0  0  0  0
  -28.6782  -11.2165   19.9942 C   0  0  0  0  0  0  0  0  0  0  0  0
  -30.7047  -12.1775   18.7788 C   0  0  0  0  0  0  0  0  0  0  0  0
  -18.4473  -30.4923   23.6356 C   0  0  0  0  0  0  0  0  0  0  0  0
  -23.0249  -25.9810   21.9420 C   0  0  0  0  0  0  0  0  0  0  0  0
  -19.0670  -29.6619   22.6822 C   0  0  0  0  0  0  0  0  0  0  0  0
  -25.2303  -19.3543   20.8999 C   0  0  0  0  0  0  0  0  0  0  0  0
  -23.7199  -26.0369   20.7256 C   0  0  0  0  0  0  0  0  0  0  0  0
  -23.8493  -20.2948   19.1548 C   0  0  0  0  0  0  0  0  0  0  0  0
  -24.1241  -18.6735   21.4083 C   0  0  0  0  0  0  0  0  0  0  0  0
  -26.6828   -9.3146   20.4227 C   0  0  0  0  0  0  0  0  0  0  0  0
  -22.7193  -23.9204   20.0707 C   0  0  0  0  0  0  0  0  0  0  0  0
  -24.4222   -8.8445   20.8600 C   0  0  0  0  0  0  0  0  0  0  0  0
  -22.7431  -19.6140   19.6633 C   0  0  0  0  0  0  0  0  0  0  0  0
  -21.8307   -9.7668   21.3244 C   0  0  0  0  0  0  0  0  0  0  0  0
  -23.3868   -8.4773   20.0005 C   0  0  0  0  0  0  0  0  0  0  0  0
  -29.7082  -12.1995   19.7729 C   0  0  0  0  0  0  0  0  0  0  0  0
  -31.4272  -13.3261   18.9914 C   0  0  0  0  0  0  0  0  0  0  0  0
  -30.9549  -11.2058   17.7546 C   0  0  0  0  0  0  0  0  0  0  0  0
  -22.5707  -29.1130   21.6451 C   0  0  0  0  0  0  0  0  0  0  0  0
  -25.8062  -29.1667   21.4190 C   0  0  0  0  0  0  0  0  0  0  0  0
  -28.6858  -27.4979   20.6640 C   0  0  0  0  0  0  0  0  0  0  0  0
  -29.9254  -18.5360   21.7050 C   0  0  0  0  0  0  0  0  0  0  0  0
  -18.9339  -31.8948   23.9019 C   0  0  0  0  0  0  0  0  0  0  0  0
  -23.2019  -27.0637   22.9710 C   0  0  0  0  0  0  0  0  0  0  0  0
  -24.6356  -27.1840   20.3874 C   0  0  0  0  0  0  0  0  0  0  0  0
  -20.3534  -32.1521   23.4027 C   0  0  0  0  0  0  0  0  0  0  0  0
  -32.7124  -16.3776   22.4169 C   0  0  0  0  0  0  0  0  0  0  0  0
  -20.5250  -31.6195   21.9837 C   0  0  0  0  0  0  0  0  0  0  0  0
  -32.3291  -15.0448   21.7825 C   0  0  0  0  0  0  0  0  0  0  0  0
  -31.4840  -17.0940   22.9618 C   0  0  0  0  0  0  0  0  0  0  0  0
  -27.4003  -17.8671   21.5128 C   0  0  0  0  0  0  0  0  0  0  0  0
  -27.8857  -19.8317   20.8817 C   0  0  0  0  0  0  0  0  0  0  0  0
  -30.0406  -16.0253   21.2505 C   0  0  0  0  0  0  0  0  0  0  0  0
  -26.6528  -19.2206   21.5867 C   0  0  0  0  0  0  0  0  0  0  0  0
  -20.3061  -30.1026   21.9335 C   0  0  1  0  0  0  0  0  0  0  0  0
  -23.6675  -28.3872   22.3717 C   0  0  1  0  0  0  0  0  0  0  0  0
  -31.2570  -15.2525   20.7031 C   0  0  2  0  0  0  0  0  0  0  0  0
  -31.1718  -27.8161   20.5382 C   0  0  0  0  0  0  0  0  0  0  0  0
  -25.4734  -30.7180   18.8127 C   0  0  0  0  0  0  0  0  0  0  0  0
  -27.8572  -30.1796   18.2691 C   0  0  0  0  0  0  0  0  0  0  0  0
  -27.3171  -31.5410   20.2884 C   0  0  0  0  0  0  0  0  0  0  0  0
  -24.4270  -14.3733   20.8910 C   0  0  0  0  0  0  0  0  0  0  0  0
  -29.1729  -25.4096   22.7038 C   0  0  0  0  0  0  0  0  0  0  0  0
  -20.4454  -19.0006   19.6592 C   0  0  0  0  0  0  0  0  0  0  0  0
  -23.7202  -21.1676   17.9502 C   0  0  0  0  0  0  0  0  0  0  0  0
  -23.8618  -16.3430   22.3190 C   0  0  0  0  0  0  0  0  0  0  0  0
  -23.6755  -22.6584   18.2962 C   0  0  0  0  0  0  0  0  0  1  0  0
  -24.2497  -17.8022   22.6143 C   0  0  2  0  0  0  0  0  0  0  0  0
  -26.8006  -29.0660   20.2876 C   0  0  1  0  0  0  0  0  0  0  0  0
  -30.0038  -27.3761   21.4072 C   0  0  2  0  0  0  0  0  0  0  0  0
  -26.8434  -30.3553   19.4197 C   0  0  0  0  0  0  0  0  0  0  0  0
  -29.7875  -13.2765   20.5588 N   0  0  0  0  0  0  0  0  0  0  0  0
  -30.8425  -13.9420   20.0587 N   0  0  0  0  0  0  0  0  0  0  0  0
  -24.7708  -28.2212   21.4235 N   0  0  0  0  0  0  0  0  0  0  0  0
  -30.4431  -17.2577   21.9424 N   0  0  0  0  0  0  0  0  0  0  0  0
  -28.6121  -18.6434   21.3122 N   0  0  0  0  0  0  0  0  0  0  0  0
  -32.4993  -13.8592   18.3678 N   0  0  0  0  0  0  0  0  0  0  0  0
  -30.1166  -10.0852   17.6777 N   0  0  0  0  0  0  0  0  0  0  0  0
  -23.4733  -18.3237   23.7280 N   0  0  0  0  0  0  0  0  0  0  0  0
  -21.4732  -29.4068   22.4316 N   0  0  0  0  0  0  0  0  0  0  0  0
  -28.0783  -28.7135   20.8974 N   0  0  0  0  0  0  0  0  0  0  0  0
  -24.7606  -15.7683   21.2851 N   0  3  0  0  0  0  0  0  0  0  0  0
  -30.2345  -25.9643   21.8249 N   0  3  0  0  0  0  0  0  0  0  0  0
  -31.9040  -11.3194   16.9424 O   0  0  0  0  0  0  0  0  0  0  0  0
  -22.7105  -29.3875   20.4590 O   0  0  0  0  0  0  0  0  0  0  0  0
  -25.9470  -30.0471   22.2714 O   0  0  0  0  0  0  0  0  0  0  0  0
  -28.2415  -26.6055   19.9452 O   0  0  0  0  0  0  0  0  0  0  0  0
  -30.6065  -19.5571   21.8677 O   0  0  0  0  0  0  0  0  0  0  0  0
  -25.7090   -8.3868   20.6313 O   0  0  0  0  0  0  0  0  0  0  0  0
  -21.5206  -19.7317   19.0733 O   0  0  0  0  0  0  0  0  0  0  0  0
  -22.5686  -22.9160   19.1506 O   0  0  0  0  0  0  0  0  0  1  0  0
  -20.5861  -10.2085   21.5484 F   0  0  0  0  0  0  0  0  0  0  0  0
  -23.6306   -7.6809   18.9507 F   0  0  0  0  0  0  0  0  0  0  0  0
  1  2  1  0  0  0  0
  1  5  2  0  0  0  0
  2  6  2  0  0  0  0
  3  8  2  0  0  0  0
  3 17  1  0  0  0  0
  4  9  1  0  0  0  0
  4 17  2  0  0  0  0
  5 19  1  0  0  0  0
  6 21  1  0  0  0  0
  7 10  2  0  0  0  0
  7 20  1  0  0  0  0
  8 26  1  0  0  0  0
  9 26  2  0  0  0  0
 10 27  1  0  0  0  0
 11 12  2  0  0  0  0
 11 28  1  0  0  0  0
 12 30  1  0  0  0  0
 13 22  1  0  0  0  0
 13 24  2  0  0  0  0
 14 23  1  0  0  0  0
 14 27  2  0  0  0  0
 15 25  1  0  0  0  0
 15 29  2  0  0  0  0
 16 30  2  0  0  0  0
 16 31  1  0  0  0  0
 17 32  1  0  0  0  0
 18 32  1  0  0  0  0
 18 33  2  0  0  0  0
 18 34  1  0  0  0  0
 19 21  2  0  0  0  0
 19 39  1  0  0  0  0
 20 23  2  0  0  0  0
 20 40  1  0  0  0  0
 21 51  1  0  0  0  0
 22 25  2  0  0  0  0
 22 50  1  0  0  0  0
 23 41  1  0  0  0  0
 24 29  1  0  0  0  0
 24 61  1  0  0  0  0
 25 64  1  0  0  0  0
 26 85  1  0  0  0  0
 27 87  1  0  0  0  0
 28 31  2  0  0  0  0
 28 85  1  0  0  0  0
 29 86  1  0  0  0  0
 30 88  1  0  0  0  0
 31 89  1  0  0  0  0
 32 68  2  0  0  0  0
 33 69  1  0  0  0  0
 33 73  1  0  0  0  0
 34 74  1  0  0  0  0
 34 80  2  0  0  0  0
 35 52  1  0  0  0  0
 35 76  1  0  0  0  0
 35 81  2  0  0  0  0
 36 65  1  0  0  0  0
 36 70  1  0  0  0  0
 36 82  2  0  0  0  0
 37 66  1  0  0  0  0
 37 77  1  0  0  0  0
 37 83  2  0  0  0  0
 38 71  1  0  0  0  0
 38 72  1  0  0  0  0
 38 84  2  0  0  0  0
 39 42  1  0  0  0  0
 40 52  1  0  0  0  0
 41 70  1  0  0  0  0
 42 44  1  0  0  0  0
 43 45  1  0  0  0  0
 43 46  1  0  0  0  0
 44 51  1  0  0  0  0
 45 53  1  0  0  0  0
 46 71  1  0  0  0  0
 47 50  1  0  0  0  0
 47 72  1  0  0  0  0
 48 50  1  0  0  0  0
 48 72  1  0  0  0  0
 49 53  1  0  0  0  0
 49 71  1  0  0  0  0
 51 76  1  0  0  0  0
 52 70  1  0  0  0  0
 53 69  1  0  0  0  0
 54 66  1  0  0  0  0
 55 67  1  0  0  0  0
 56 67  1  0  0  0  0
 57 67  1  0  0  0  0
 58 78  1  0  0  0  0
 59 79  1  0  0  0  0
 60 86  1  0  0  0  0
 61 63  1  0  0  0  0
 62 64  1  0  0  0  0
 62 78  1  0  0  0  0
 63 87  1  0  0  0  0
 64 75  1  0  0  0  0
 65 67  1  0  0  0  0
 65 77  1  0  0  0  0
 66 79  1  0  0  0  0
 68 69  1  0  0  0  0
M  CHG  2  78   1  79   1
M  ISO  4  38 100  63 101  72 100  87 101
M  END
> <Batch ID>
0190

> <Smiles>
CNCC(N)c1cc(OC)c(C[101CH2:1][101O:1]c2ccc3c(c2)CN(C(=O)C(NC(=O)C(C)NC)C(C)(C)C)C(C(=O)NC2CCCc4ccccc42)C3)cc1C1C[100N:0]([100C:0](=O)N2CCCC(n3nc(-c4ccc(Oc5ccc(F)cc5F)cc4)c(C(N)=O)c3N)C2)C1

> <Shape>
0.246

> <Color>
0.077

> <Negative vol penalty>
0.000

$$$$

  -OEChem-04052323243D

 87 97  0     1  0  0  0  0  0999 V2000
  -29.2498  -31.1055   26.4999 C   0  0  0  0  0  0  0  0  0  0  0  0
  -28.9958  -30.0591   25.6191 C   0  0  0  0  0  0  0  0  0  0  0  0
  -24.4378   -9.0863   21.3714 C   0  0  0  0  0  0  0  0  0  0  0  0
  -23.1922  -11.1307   21.6967 C   0  0  0  0  0  0  0  0  0  0  0  0
  -28.1904  -31.8347   27.0383 C   0  0  0  0  0  0  0  0  0  0  0  0
  -27.6821  -29.7405   25.2769 C   0  0  0  0  0  0  0  0  0  0  0  0
  -27.1071  -28.9439   20.3091 C   0  0  0  0  0  0  0  0  0  0  0  0
  -23.6881   -8.4701   22.3733 C   0  0  0  0  0  0  0  0  0  0  0  0
  -22.4424  -10.5145   22.6986 C   0  0  0  0  0  0  0  0  0  0  0  0
  -27.5283  -27.7126   19.8087 C   0  0  0  0  0  0  0  0  0  0  0  0
  -20.6221   -7.0806   22.6924 C   0  0  0  0  0  0  0  0  0  0  0  0
  -20.1394   -5.7959   22.4435 C   0  0  0  0  0  0  0  0  0  0  0  0
  -25.2455  -26.9329   19.8224 C   0  0  0  0  0  0  0  0  0  0  0  0
  -21.3739   -4.9634   24.3462 C   0  0  0  0  0  0  0  0  0  0  0  0
  -27.0912  -23.2047   17.0451 C   0  0  0  0  0  0  0  0  0  0  0  0
  -24.1899  -10.4166   21.0331 C   0  0  0  0  0  0  0  0  0  0  0  0
  -24.6728  -11.0956   18.6220 C   0  0  0  0  0  0  0  0  0  0  0  0
  -26.8635  -31.5311   26.6950 C   0  0  0  0  0  0  0  0  0  0  0  0
  -25.7510  -29.1755   20.5806 C   0  0  0  0  0  0  0  0  0  0  0  0
  -26.6039  -30.4655   25.8122 C   0  0  0  0  0  0  0  0  0  0  0  0
  -24.8094  -28.1688   20.3237 C   0  0  0  0  0  0  0  0  0  0  0  0
  -22.6904   -9.1841   23.0369 C   0  0  0  0  0  0  0  0  0  0  0  0
  -26.5979  -26.7059   19.5680 C   0  0  0  0  0  0  0  0  0  0  0  0
  -21.4808   -7.3068   23.7682 C   0  0  0  0  0  0  0  0  0  0  0  0
  -20.5153   -4.7373   23.2704 C   0  0  0  0  0  0  0  0  0  0  0  0
  -21.8567   -6.2482   24.5951 C   0  0  0  0  0  0  0  0  0  0  0  0
  -24.9643  -11.0539   19.9986 C   0  0  0  0  0  0  0  0  0  0  0  0
  -27.6739  -22.0132   16.6642 C   0  0  0  0  0  0  0  0  0  0  0  0
  -26.6473  -23.2617   18.3505 C   0  0  0  0  0  0  0  0  0  0  0  0
  -25.7070  -11.8140   18.0736 C   0  0  0  0  0  0  0  0  0  0  0  0
  -27.3451  -21.1326   18.7339 C   0  0  0  0  0  0  0  0  0  0  0  0
  -23.5660  -10.5351   17.9033 C   0  0  0  0  0  0  0  0  0  0  0  0
  -24.0712  -29.8615   23.1905 C   0  0  0  0  0  0  0  0  0  0  0  0
  -21.6364  -30.1699   21.0694 C   0  0  0  0  0  0  0  0  0  0  0  0
  -20.3287  -29.3626   18.0223 C   0  0  0  0  0  0  0  0  0  0  0  0
  -29.4474  -15.9250   20.3009 C   0  0  0  0  0  0  0  0  0  0  0  0
  -25.7491  -32.3171   27.3393 C   0  0  0  0  0  0  0  0  0  0  0  0
  -25.3094  -30.5183   21.0949 C   0  0  0  0  0  0  0  0  0  0  0  0
  -23.3393  -28.3740   20.5793 C   0  0  0  0  0  0  0  0  0  0  0  0
  -24.4045  -32.1570   26.6345 C   0  0  0  0  0  0  0  0  0  0  0  0
  -30.3298  -12.8400   18.7578 C   0  0  0  0  0  0  0  0  0  0  0  0
  -24.1296  -30.6864   26.3366 C   0  0  0  0  0  0  0  0  0  0  0  0
  -30.7482  -21.3150   15.4615 C   0  0  0  0  0  0  0  0  0  0  0  0
  -30.4981  -21.7186   14.0352 C   0  0  0  0  0  0  0  0  0  0  0  0
  -29.0285  -12.0362   18.7766 C   0  0  0  0  0  0  0  0  0  0  0  0
  -27.1115  -18.6225   21.4263 C   0  0  0  0  0  0  0  0  0  0  0  0
  -30.4842  -13.6935   20.0147 C   0  0  0  0  0  0  0  0  0  0  0  0
  -27.0209  -20.0846   20.9899 C   0  0  0  0  0  0  0  0  0  0  0  0
  -28.0406  -13.7762   20.3243 C   0  0  0  0  0  0  0  0  0  0  0  0
  -28.0624  -18.7802   19.2373 C   0  0  0  0  0  0  0  0  0  0  0  0
  -25.1937  -30.1055   25.3976 C   0  0  1  0  0  0  0  0  0  0  0  0
  -23.9681  -30.4688   21.8200 C   0  0  1  0  0  0  0  0  0  0  0  0
  -29.6439  -22.2823   15.1367 C   0  0  0  0  0  0  0  0  0  0  0  0
  -27.8135  -12.9426   19.0516 C   0  0  2  0  0  0  0  0  0  0  0  0
  -28.2627  -18.0870   20.5860 C   0  0  2  0  0  0  0  0  0  0  0  0
  -18.3054  -29.7356   16.5855 C   0  0  0  0  0  0  0  0  0  0  0  0
  -20.0576  -28.2028   22.7864 C   0  0  0  0  0  0  0  0  0  0  0  0
  -18.4890  -27.8884   20.8605 C   0  0  0  0  0  0  0  0  0  0  0  0
  -18.7255  -30.1341   21.9204 C   0  0  0  0  0  0  0  0  0  0  0  0
  -21.9336  -30.6490   15.8942 C   0  0  0  0  0  0  0  0  0  0  0  0
  -28.1843  -21.8567   15.2711 C   0  0  0  0  0  0  0  0  0  0  0  0
  -25.9995  -24.5168   18.8570 C   0  0  0  0  0  0  0  0  0  1  0  0
  -20.6034  -29.2372   20.4846 C   0  0  1  0  0  0  0  0  0  0  0  0
  -19.7043  -30.2188   16.9353 C   0  0  2  0  0  0  0  0  0  0  0  0
  -19.4967  -28.8608   21.5099 C   0  0  0  0  0  0  0  0  0  0  0  0
  -26.0953  -11.6947   20.3058 N   0  0  0  0  0  0  0  0  0  0  0  0
  -27.8177  -20.9527   17.4858 N   0  0  0  0  0  0  0  0  0  0  0  0
  -26.7584  -22.2407   19.2254 N   0  0  0  0  0  0  0  0  0  0  0  0
  -26.5235  -12.1457   19.1145 N   0  0  0  0  0  0  0  0  0  0  0  0
  -27.4756  -20.0688   19.6010 N   0  0  3  0  0  0  0  0  0  0  0  0
  -22.9579  -29.7019   21.0881 N   0  0  0  0  0  0  0  0  0  0  0  0
  -29.2993  -14.5307   20.2173 N   0  0  0  0  0  0  0  0  0  0  0  0
  -25.9886  -12.1879   16.8074 N   0  0  0  0  0  0  0  0  0  0  0  0
  -22.5928   -9.8269   18.6213 N   0  0  0  0  0  0  0  0  0  0  0  0
  -24.9451  -30.5208   24.0337 N   0  0  0  0  0  0  0  0  0  0  0  0
  -20.1037  -29.8867   19.2776 N   0  0  0  0  0  0  0  0  0  0  0  0
  -28.2733  -16.6445   20.4871 N   0  0  0  0  0  0  0  0  0  0  0  0
  -20.5380  -30.1779   15.7007 N   0  3  0  0  0  0  0  0  0  0  0  0
  -23.4523  -10.6445   16.6588 O   0  0  0  0  0  0  0  0  0  0  0  0
  -23.4060  -28.8691   23.4632 O   0  0  0  0  0  0  0  0  0  0  0  0
  -21.2848  -31.2759   21.4876 O   0  0  0  0  0  0  0  0  0  0  0  0
  -20.9506  -28.3301   17.7820 O   0  0  0  0  0  0  0  0  0  0  0  0
  -30.5440  -16.4874   20.2106 O   0  0  0  0  0  0  0  0  0  0  0  0
  -21.9585   -8.5831   24.0145 O   0  0  0  0  0  0  0  0  0  0  0  0
  -27.0064  -25.5030   19.0802 O   0  0  0  0  0  0  0  0  0  1  0  0
  -20.0504   -3.5039   23.0322 F   0  0  0  0  0  0  0  0  0  0  0  0
  -22.6803   -6.4596   25.6308 F   0  0  0  0  0  0  0  0  0  0  0  0
  1  2  1  0  0  0  0
  1  5  2  0  0  0  0
  2  6  2  0  0  0  0
  3  8  2  0  0  0  0
  3 16  1  0  0  0  0
  4  9  1  0  0  0  0
  4 16  2  0  0  0  0
  5 18  1  0  0  0  0
  6 20  1  0  0  0  0
  7 10  2  0  0  0  0
  7 19  1  0  0  0  0
  8 22  1  0  0  0  0
  9 22  2  0  0  0  0
 10 23  1  0  0  0  0
 11 12  2  0  0  0  0
 11 24  1  0  0  0  0
 12 25  1  0  0  0  0
 13 21  1  0  0  0  0
 13 23  2  0  0  0  0
 14 25  2  0  0  0  0
 14 26  1  0  0  0  0
 15 28  2  0  0  0  0
 15 29  1  0  0  0  0
 16 27  1  0  0  0  0
 17 27  1  0  0  0  0
 17 30  2  0  0  0  0
 17 32  1  0  0  0  0
 18 20  2  0  0  0  0
 18 37  1  0  0  0  0
 19 21  2  0  0  0  0
 19 38  1  0  0  0  0
 20 51  1  0  0  0  0
 21 39  1  0  0  0  0
 22 84  1  0  0  0  0
 23 85  1  0  0  0  0
 24 26  2  0  0  0  0
 24 84  1  0  0  0  0
 25 86  1  0  0  0  0
 26 87  1  0  0  0  0
 27 66  2  0  0  0  0
 28 61  1  0  0  0  0
 28 67  1  0  0  0  0
 29 62  1  0  0  0  0
 29 68  2  0  0  0  0
 30 69  1  0  0  0  0
 30 73  1  0  0  0  0
 31 67  2  0  0  0  0
 31 68  1  0  0  0  0
 31 70  1  0  0  0  0
 32 74  1  0  0  0  0
 32 79  2  0  0  0  0
 33 52  1  0  0  0  0
 33 75  1  0  0  0  0
 33 80  2  0  0  0  0
 34 63  1  0  0  0  0
 34 71  1  0  0  0  0
 34 81  2  0  0  0  0
 35 64  1  0  0  0  0
 35 76  1  0  0  0  0
 35 82  2  0  0  0  0
 36 72  1  0  0  0  0
 36 77  1  0  0  0  0
 36 83  2  0  0  0  0
 37 40  1  0  0  0  0
 38 52  1  0  0  0  0
 39 71  1  0  0  0  0
 40 42  1  0  0  0  0
 41 45  1  0  0  0  0
 41 47  1  0  0  0  0
 42 51  1  0  0  0  0
 43 44  1  0  0  0  0
 43 53  1  0  0  0  0
 44 53  1  0  0  0  0
 45 54  1  0  0  0  0
 46 48  1  0  0  0  0
 46 55  1  0  0  0  0
 47 72  1  0  0  0  0
 48 70  1  0  0  0  0
 49 54  1  0  0  0  0
 49 72  1  0  0  0  0
 50 55  1  0  0  0  0
 50 70  1  0  0  0  0
 51 75  1  0  0  0  0
 52 71  1  0  0  0  0
 53 61  1  0  0  0  0
 54 69  1  0  0  0  0
 55 77  1  0  0  0  0
 56 64  1  0  0  0  0
 57 65  1  0  0  0  0
 58 65  1  0  0  0  0
 59 65  1  0  0  0  0
 60 78  1  0  0  0  0
 62 85  1  0  0  0  0
 63 65  1  0  0  0  0
 63 76  1  0  0  0  0
 64 78  1  0  0  0  0
 66 69  1  0  0  0  0
M  CHG  1  78   1
M  ISO  4  36 100  62 101  77 100  85 101
M  END
> <Batch ID>
0190

> <Smiles>
CNC(C)C(=O)NC(C(=O)N1Cc2cc([101O:1][101CH2:1]c3cc(CC4CC4)nc(N4CCC([100NH:0][100C:0](=O)N5CCCC(n6nc(-c7ccc(Oc8ccc(F)cc8F)cc7)c(C(N)=O)c6N)C5)C4)n3)ccc2CC1C(=O)NC1CCCc2ccccc21)C(C)(C)C

> <Shape>
0.290

> <Color>
0.095

> <Negative vol penalty>
0.000

$$$$

  -OEChem-04052323243D

 84 93  0     1  0  0  0  0  0999 V2000
  -33.6400  -20.0346   26.8429 C   0  0  0  0  0  0  0  0  0  0  0  0
  -32.4471  -19.7063   26.2067 C   0  0  0  0  0  0  0  0  0  0  0  0
  -23.2911   -9.7939   19.9079 C   0  0  0  0  0  0  0  0  0  0  0  0
  -23.7082   -9.9421   22.2830 C   0  0  0  0  0  0  0  0  0  0  0  0
  -33.7012  -21.1533   27.6727 C   0  0  0  0  0  0  0  0  0  0  0  0
  -31.3144  -20.4960   26.4010 C   0  0  0  0  0  0  0  0  0  0  0  0
  -28.8613  -21.4706   22.0792 C   0  0  0  0  0  0  0  0  0  0  0  0
  -22.5566   -8.6254   20.1098 C   0  0  0  0  0  0  0  0  0  0  0  0
  -22.9736   -8.7736   22.4849 C   0  0  0  0  0  0  0  0  0  0  0  0
  -28.0567  -20.4566   21.5612 C   0  0  0  0  0  0  0  0  0  0  0  0
  -20.2685   -5.8014   20.0406 C   0  0  0  0  0  0  0  0  0  0  0  0
  -19.0501   -5.6778   19.3729 C   0  0  0  0  0  0  0  0  0  0  0  0
  -26.1080  -21.5417   22.4802 C   0  0  0  0  0  0  0  0  0  0  0  0
  -18.2358   -7.6581   20.4920 C   0  0  0  0  0  0  0  0  0  0  0  0
  -23.8669  -10.4522   20.9945 C   0  0  0  0  0  0  0  0  0  0  0  0
  -24.1403  -12.9803   20.7896 C   0  0  0  0  0  0  0  0  0  0  0  0
  -32.5712  -21.9627   27.8696 C   0  0  0  0  0  0  0  0  0  0  0  0
  -28.2955  -22.5237   22.8122 C   0  0  0  0  0  0  0  0  0  0  0  0
  -31.3602  -21.6259   27.2353 C   0  0  0  0  0  0  0  0  0  0  0  0
  -26.9073  -22.5691   23.0043 C   0  0  0  0  0  0  0  0  0  0  0  0
  -22.3978   -8.1153   21.3983 C   0  0  0  0  0  0  0  0  0  0  0  0
  -26.6802  -20.4905   21.7641 C   0  0  0  0  0  0  0  0  0  0  0  0
  -20.4706   -6.8534   20.9341 C   0  0  0  0  0  0  0  0  0  0  0  0
  -18.0338   -6.6061   19.5986 C   0  0  0  0  0  0  0  0  0  0  0  0
  -19.4542   -7.7817   21.1598 C   0  0  0  0  0  0  0  0  0  0  0  0
  -24.6262  -11.6590   20.7866 C   0  0  0  0  0  0  0  0  0  0  0  0
  -25.2488  -13.7543   20.5475 C   0  0  0  0  0  0  0  0  0  0  0  0
  -22.8063  -13.4646   20.9932 C   0  0  0  0  0  0  0  0  0  0  0  0
  -28.5838  -23.5912   25.7924 C   0  0  0  0  0  0  0  0  0  0  0  0
  -26.6910  -25.9894   24.7023 C   0  0  0  0  0  0  0  0  0  0  0  0
  -24.3750  -27.0474   22.4300 C   0  0  0  0  0  0  0  0  0  0  0  0
  -29.9221  -14.8596   17.9217 C   0  0  0  0  0  0  0  0  0  0  0  0
  -32.6734  -23.1348   28.8131 C   0  0  0  0  0  0  0  0  0  0  0  0
  -29.1741  -23.6238   23.3416 C   0  0  0  0  0  0  0  0  0  0  0  0
  -26.2484  -23.6885   23.7668 C   0  0  0  0  0  0  0  0  0  0  0  0
  -31.5277  -24.1335   28.6700 C   0  0  0  0  0  0  0  0  0  0  0  0
  -30.1600  -12.5729   20.5038 C   0  0  0  0  0  0  0  0  0  0  0  0
  -30.1884  -23.4053   28.6159 C   0  0  0  0  0  0  0  0  0  0  0  0
  -28.7042  -12.2303   20.8196 C   0  0  0  0  0  0  0  0  0  0  0  0
  -25.6884  -19.7219   15.9028 C   0  0  0  0  0  0  0  0  0  0  0  0
  -25.0163  -18.6293   15.1235 C   0  0  0  0  0  0  0  0  0  0  0  0
  -30.3823  -12.6779   18.9993 C   0  0  0  0  0  0  0  0  0  0  0  0
  -29.1838  -17.1690   17.4593 C   0  0  0  0  0  0  0  0  0  0  0  0
  -28.0516  -15.3261   16.2913 C   0  0  0  0  0  0  0  0  0  0  0  0
  -27.8528  -17.9175   17.5188 C   0  0  0  0  0  0  0  0  0  0  0  0
  -26.7354  -16.0943   16.3804 C   0  0  0  0  0  0  0  0  0  0  0  0
  -28.0263  -13.3350   18.6314 C   0  0  0  0  0  0  0  0  0  0  0  0
  -30.1166  -22.4720   27.4013 C   0  0  1  0  0  0  0  0  0  0  0  0
  -28.5491  -24.3767   24.5120 C   0  0  1  0  0  0  0  0  0  0  0  0
  -27.7435  -13.2245   20.1432 C   0  0  1  0  0  0  0  0  0  0  0  0
  -25.6980  -18.3059   16.4345 C   0  0  0  0  0  0  0  0  0  0  0  0
  -22.9876  -29.0464   21.8162 C   0  0  0  0  0  0  0  0  0  0  0  0
  -22.6119  -19.2895   19.3916 C   0  0  0  0  0  0  0  0  0  0  0  0
  -24.8149  -25.4006   27.0354 C   0  0  0  0  0  0  0  0  0  0  0  0
  -23.0469  -26.7250   25.8572 C   0  0  0  0  0  0  0  0  0  0  0  0
  -25.1665  -27.8320   26.5674 C   0  0  0  0  0  0  0  0  0  0  0  0
  -25.6402  -27.2516   19.7623 C   0  0  0  0  0  0  0  0  0  0  0  0
  -24.8229  -18.0005   17.6198 C   0  0  0  0  0  0  0  0  0  0  0  0
  -24.5568  -19.8538   20.9029 C   0  0  0  0  0  0  0  0  0  1  0  0
  -25.2018  -26.2220   24.6185 C   0  0  1  0  0  0  0  0  0  0  0  0
  -24.2953  -28.3055   21.5842 C   0  0  2  0  0  0  0  0  0  0  0  0
  -24.0369  -18.9459   19.7940 C   0  0  2  0  0  0  0  0  0  0  0  0
  -24.5698  -26.5226   26.0069 C   0  0  0  0  0  0  0  0  0  0  0  0
  -25.9410  -11.5936   20.5603 N   0  0  0  0  0  0  0  0  0  0  0  0
  -26.2906  -12.8835   20.4188 N   0  0  0  0  0  0  0  0  0  0  0  0
  -27.1507  -24.7373   24.2700 N   0  0  0  0  0  0  0  0  0  0  0  0
  -29.4481  -13.6263   18.3932 N   0  0  0  0  0  0  0  0  0  0  0  0
  -28.9754  -15.7277   17.3572 N   0  0  0  0  0  0  0  0  0  0  0  0
  -26.9732  -17.5448   16.4021 N   0  0  0  0  0  0  0  0  0  0  0  0
  -25.4242  -15.0880   20.4342 N   0  0  0  0  0  0  0  0  0  0  0  0
  -21.7861  -12.5331   21.2297 N   0  0  0  0  0  0  0  0  0  0  0  0
  -29.8548  -23.2298   26.1965 N   0  0  0  0  0  0  0  0  0  0  0  0
  -25.0087  -27.2797   23.6324 N   0  0  0  0  0  0  0  0  0  0  0  0
  -24.3912  -27.9635   20.1368 N   0  3  0  0  0  0  0  0  0  0  0  0
  -24.9092  -19.1119   18.5999 N   0  3  0  0  0  0  0  0  0  0  0  0
  -22.5244  -14.6861   20.9499 O   0  0  0  0  0  0  0  0  0  0  0  0
  -27.5351  -23.3333   26.3716 O   0  0  0  0  0  0  0  0  0  0  0  0
  -27.4204  -26.8882   25.1287 O   0  0  0  0  0  0  0  0  0  0  0  0
  -23.9174  -25.9676   22.0625 O   0  0  0  0  0  0  0  0  0  0  0  0
  -31.1166  -15.1712   18.0041 O   0  0  0  0  0  0  0  0  0  0  0  0
  -21.6810   -6.9752   21.5957 O   0  0  0  0  0  0  0  0  0  0  0  0
  -25.8873  -19.4951   21.2567 O   0  0  0  0  0  0  0  0  0  1  0  0
  -16.8644   -6.4881   18.9561 F   0  0  0  0  0  0  0  0  0  0  0  0
  -19.6429   -8.7951   22.0161 F   0  0  0  0  0  0  0  0  0  0  0  0
  1  2  1  0  0  0  0
  1  5  2  0  0  0  0
  2  6  2  0  0  0  0
  3  8  2  0  0  0  0
  3 15  1  0  0  0  0
  4  9  1  0  0  0  0
  4 15  2  0  0  0  0
  5 17  1  0  0  0  0
  6 19  1  0  0  0  0
  7 10  2  0  0  0  0
  7 18  1  0  0  0  0
  8 21  1  0  0  0  0
  9 21  2  0  0  0  0
 10 22  1  0  0  0  0
 11 12  2  0  0  0  0
 11 23  1  0  0  0  0
 12 24  1  0  0  0  0
 13 20  1  0  0  0  0
 13 22  2  0  0  0  0
 14 24  2  0  0  0  0
 14 25  1  0  0  0  0
 15 26  1  0  0  0  0
 16 26  1  0  0  0  0
 16 27  2  0  0  0  0
 16 28  1  0  0  0  0
 17 19  2  0  0  0  0
 17 33  1  0  0  0  0
 18 20  2  0  0  0  0
 18 34  1  0  0  0  0
 19 48  1  0  0  0  0
 20 35  1  0  0  0  0
 21 81  1  0  0  0  0
 22 82  1  0  0  0  0
 23 25  2  0  0  0  0
 23 81  1  0  0  0  0
 24 83  1  0  0  0  0
 25 84  1  0  0  0  0
 26 64  2  0  0  0  0
 27 65  1  0  0  0  0
 27 70  1  0  0  0  0
 28 71  1  0  0  0  0
 28 76  2  0  0  0  0
 29 49  1  0  0  0  0
 29 72  1  0  0  0  0
 29 77  2  0  0  0  0
 30 60  1  0  0  0  0
 30 66  1  0  0  0  0
 30 78  2  0  0  0  0
 31 61  1  0  0  0  0
 31 73  1  0  0  0  0
 31 79  2  0  0  0  0
 32 67  1  0  0  0  0
 32 68  1  0  0  0  0
 32 80  2  0  0  0  0
 33 36  1  0  0  0  0
 34 49  1  0  0  0  0
 35 66  1  0  0  0  0
 36 38  1  0  0  0  0
 37 39  1  0  0  0  0
 37 42  1  0  0  0  0
 38 48  1  0  0  0  0
 39 50  1  0  0  0  0
 40 41  1  0  0  0  0
 40 51  1  0  0  0  0
 41 51  1  0  0  0  0
 42 67  1  0  0  0  0
 43 45  1  0  0  0  0
 43 68  1  0  0  0  0
 44 46  1  0  0  0  0
 44 68  1  0  0  0  0
 45 69  1  0  0  0  0
 46 69  1  0  0  0  0
 47 50  1  0  0  0  0
 47 67  1  0  0  0  0
 48 72  1  0  0  0  0
 49 66  1  0  0  0  0
 50 65  1  0  0  0  0
 51 58  1  0  0  0  0
 51 69  1  0  0  0  0
 52 61  1  0  0  0  0
 53 62  1  0  0  0  0
 54 63  1  0  0  0  0
 55 63  1  0  0  0  0
 56 63  1  0  0  0  0
 57 74  1  0  0  0  0
 58 75  1  0  0  0  0
 59 62  1  0  0  0  0
 59 82  1  0  0  0  0
 60 63  1  0  0  0  0
 60 73  1  0  0  0  0
 61 74  1  0  0  0  0
 62 75  1  0  0  0  0
 64 65  1  0  0  0  0
M  CHG  2  74   1  75   1
M  ISO  4  32 100  59 101  68 100  82 101
M  END
> <Batch ID>
0190

> <Smiles>
CNC(C)C(=O)NC(C(=O)N1Cc2cc([101O:1][101CH2:1]C(C)NCC3(N4CC[100N:0]([100C:0](=O)N5CCCC(n6nc(-c7ccc(Oc8ccc(F)cc8F)cc7)c(C(N)=O)c6N)C5)CC4)CC3)ccc2CC1C(=O)NC1CCCc2ccccc21)C(C)(C)C

> <Shape>
0.151

> <Color>
0.173

> <Negative vol penalty>
0.000

$$$$

  -OEChem-04052323243D

 84 93  0     1  0  0  0  0  0999 V2000
  -28.8538  -36.6786   18.9423 C   0  0  0  0  0  0  0  0  0  0  0  0
  -28.9735  -35.3202   18.6665 C   0  0  0  0  0  0  0  0  0  0  0  0
  -22.6915  -11.3389   19.2239 C   0  0  0  0  0  0  0  0  0  0  0  0
  -23.2684   -9.9301   21.0999 C   0  0  0  0  0  0  0  0  0  0  0  0
  -28.4299  -37.0982   20.2025 C   0  0  0  0  0  0  0  0  0  0  0  0
  -28.6704  -34.3807   19.6513 C   0  0  0  0  0  0  0  0  0  0  0  0
  -26.1424  -28.8644   18.8232 C   0  0  0  0  0  0  0  0  0  0  0  0
  -21.6770  -10.4501   18.8684 C   0  0  0  0  0  0  0  0  0  0  0  0
  -22.2538   -9.0413   20.7445 C   0  0  0  0  0  0  0  0  0  0  0  0
  -26.6893  -27.5845   18.7431 C   0  0  0  0  0  0  0  0  0  0  0  0
  -21.7771   -6.5850   18.4707 C   0  0  0  0  0  0  0  0  0  0  0  0
  -22.0767   -5.2227   18.4788 C   0  0  0  0  0  0  0  0  0  0  0  0
  -26.2231  -27.2454   21.0856 C   0  0  0  0  0  0  0  0  0  0  0  0
  -20.3515   -4.8532   20.1294 C   0  0  0  0  0  0  0  0  0  0  0  0
  -29.2131  -23.1903   21.2064 C   0  0  0  0  0  0  0  0  0  0  0  0
  -23.4873  -11.0789   20.3396 C   0  0  0  0  0  0  0  0  0  0  0  0
  -24.4328  -13.1035   21.5703 C   0  0  0  0  0  0  0  0  0  0  0  0
  -28.1121  -36.1631   21.2001 C   0  0  0  0  0  0  0  0  0  0  0  0
  -25.6408  -29.3494   20.0396 C   0  0  0  0  0  0  0  0  0  0  0  0
  -28.2431  -34.7882   20.9265 C   0  0  0  0  0  0  0  0  0  0  0  0
  -25.6681  -28.5309   21.1778 C   0  0  0  0  0  0  0  0  0  0  0  0
  -27.9346  -23.4443   20.7534 C   0  0  0  0  0  0  0  0  0  0  0  0
  -21.4581   -9.3014   19.6287 C   0  0  0  0  0  0  0  0  0  0  0  0
  -26.7323  -26.7758   19.8751 C   0  0  0  0  0  0  0  0  0  0  0  0
  -20.7648   -7.0814   19.2921 C   0  0  0  0  0  0  0  0  0  0  0  0
  -21.3639   -4.3568   19.3081 C   0  0  0  0  0  0  0  0  0  0  0  0
  -20.0520   -6.2155   20.1214 C   0  0  0  0  0  0  0  0  0  0  0  0
  -24.5358  -11.9963   20.7070 C   0  0  0  0  0  0  0  0  0  0  0  0
  -27.3275  -22.4111   20.0690 C   0  0  0  0  0  0  0  0  0  0  0  0
  -25.6956  -13.6434   21.5885 C   0  0  0  0  0  0  0  0  0  0  0  0
  -29.1609  -21.0932   20.3310 C   0  0  0  0  0  0  0  0  0  0  0  0
  -23.2972  -13.5995   22.2914 C   0  0  0  0  0  0  0  0  0  0  0  0
  -26.3718  -31.7745   21.9601 C   0  0  0  0  0  0  0  0  0  0  0  0
  -23.7140  -30.8083   23.5491 C   0  0  0  0  0  0  0  0  0  0  0  0
  -21.5268  -28.2911   24.2747 C   0  0  0  0  0  0  0  0  0  0  0  0
  -30.1724  -15.3090   18.5783 C   0  0  0  0  0  0  0  0  0  0  0  0
  -27.7034  -36.6655   22.5622 C   0  0  0  0  0  0  0  0  0  0  0  0
  -25.0299  -30.7223   20.1032 C   0  0  0  0  0  0  0  0  0  0  0  0
  -25.1243  -28.9968   22.5028 C   0  0  0  0  0  0  0  0  0  0  0  0
  -27.0423  -35.5990   23.4316 C   0  0  0  0  0  0  0  0  0  0  0  0
  -30.0822  -11.8559   19.8195 C   0  0  0  0  0  0  0  0  0  0  0  0
  -27.8429  -34.3014   23.3859 C   0  0  0  0  0  0  0  0  0  0  0  0
  -28.6095  -11.6659   20.1856 C   0  0  0  0  0  0  0  0  0  0  0  0
  -28.2850  -17.9482   20.3071 C   0  0  0  0  0  0  0  0  0  0  0  0
  -30.2625  -12.8445   18.6698 C   0  0  0  0  0  0  0  0  0  0  0  0
  -28.2004  -16.6259   19.5520 C   0  0  0  0  0  0  0  0  0  0  0  0
  -28.1377  -13.9554   19.2394 C   0  0  0  0  0  0  0  0  0  0  0  0
  -30.2327  -17.7574   18.9567 C   0  0  0  0  0  0  0  0  0  0  0  0
  -27.8998  -33.7382   21.9607 C   0  0  1  0  0  0  0  0  0  0  0  0
  -25.0162  -31.3056   21.5128 C   0  0  1  0  0  0  0  0  0  0  0  0
  -27.9206  -13.0202   20.4371 C   0  0  1  0  0  0  0  0  0  0  0  0
  -29.1962  -18.7757   19.4072 C   0  0  2  0  0  0  0  0  0  0  0  0
  -25.9422  -22.5710   19.5352 C   0  0  0  0  0  0  0  0  0  0  0  0
  -19.4770  -27.7932   25.6339 C   0  0  0  0  0  0  0  0  0  0  0  0
  -25.4226  -30.6790   26.0738 C   0  0  0  0  0  0  0  0  0  0  0  0
  -23.6215  -29.3037   27.1383 C   0  0  0  0  0  0  0  0  0  0  0  0
  -23.1379  -31.6395   26.4084 C   0  0  0  0  0  0  0  0  0  0  0  0
  -19.9421  -27.6423   21.8608 C   0  0  0  0  0  0  0  0  0  0  0  0
  -27.2772  -24.7528   21.0004 C   0  0  0  0  0  0  0  0  0  1  0  0
  -23.4314  -29.8320   24.6653 C   0  0  1  0  0  0  0  0  0  0  0  0
  -20.0095  -28.2464   24.2834 C   0  0  2  0  0  0  0  0  0  0  0  0
  -23.9154  -30.3552   26.0471 C   0  0  0  0  0  0  0  0  0  0  0  0
  -29.8589  -22.0217   21.0122 N   0  0  0  0  0  0  0  0  0  0  0  0
  -25.7668  -11.8409   20.2124 N   0  0  0  0  0  0  0  0  0  0  0  0
  -27.9137  -21.2179   19.8387 N   0  0  0  0  0  0  0  0  0  0  0  0
  -26.4488  -12.8576   20.7667 N   0  0  0  0  0  0  0  0  0  0  0  0
  -24.5428  -30.3493   22.5156 N   0  0  0  0  0  0  0  0  0  0  0  0
  -29.5673  -14.1020   18.9453 N   0  0  0  0  0  0  0  0  0  0  0  0
  -29.5070  -16.4905   18.9029 N   0  0  0  0  0  0  0  0  0  0  0  0
  -26.2240  -14.7090   22.2271 N   0  0  0  0  0  0  0  0  0  0  0  0
  -22.0756  -12.9252   22.1598 N   0  0  0  0  0  0  0  0  0  0  0  0
  -29.7949  -19.8774   20.1134 N   0  0  0  0  0  0  0  0  0  0  0  0
  -26.6525  -33.0854   21.6251 N   0  0  0  0  0  0  0  0  0  0  0  0
  -22.0028  -29.5429   24.6028 N   0  0  0  0  0  0  0  0  0  0  0  0
  -19.5130  -27.3031   23.2420 N   0  3  0  0  0  0  0  0  0  0  0  0
  -23.3598  -14.6203   23.0177 O   0  0  0  0  0  0  0  0  0  0  0  0
  -27.1080  -31.0044   22.5657 O   0  0  0  0  0  0  0  0  0  0  0  0
  -23.2119  -31.9344   23.5891 O   0  0  0  0  0  0  0  0  0  0  0  0
  -22.2205  -27.3124   24.0073 O   0  0  0  0  0  0  0  0  0  0  0  0
  -31.2808  -15.3324   18.0269 O   0  0  0  0  0  0  0  0  0  0  0  0
  -20.4680   -8.4340   19.2823 O   0  0  0  0  0  0  0  0  0  0  0  0
  -27.2694  -25.5186   19.7994 O   0  0  0  0  0  0  0  0  0  1  0  0
  -21.6506   -3.0484   19.3146 F   0  0  0  0  0  0  0  0  0  0  0  0
  -19.0776   -6.6863   20.9117 F   0  0  0  0  0  0  0  0  0  0  0  0
  1  2  1  0  0  0  0
  1  5  2  0  0  0  0
  2  6  2  0  0  0  0
  3  8  2  0  0  0  0
  3 16  1  0  0  0  0
  4  9  1  0  0  0  0
  4 16  2  0  0  0  0
  5 18  1  0  0  0  0
  6 20  1  0  0  0  0
  7 10  2  0  0  0  0
  7 19  1  0  0  0  0
  8 23  1  0  0  0  0
  9 23  2  0  0  0  0
 10 24  1  0  0  0  0
 11 12  2  0  0  0  0
 11 25  1  0  0  0  0
 12 26  1  0  0  0  0
 13 21  1  0  0  0  0
 13 24  2  0  0  0  0
 14 26  2  0  0  0  0
 14 27  1  0  0  0  0
 15 22  1  0  0  0  0
 15 63  2  0  0  0  0
 16 28  1  0  0  0  0
 17 28  1  0  0  0  0
 17 30  2  0  0  0  0
 17 32  1  0  0  0  0
 18 20  2  0  0  0  0
 18 37  1  0  0  0  0
 19 21  2  0  0  0  0
 19 38  1  0  0  0  0
 20 49  1  0  0  0  0
 21 39  1  0  0  0  0
 22 29  2  0  0  0  0
 22 59  1  0  0  0  0
 23 81  1  0  0  0  0
 24 82  1  0  0  0  0
 25 27  2  0  0  0  0
 25 81  1  0  0  0  0
 26 83  1  0  0  0  0
 27 84  1  0  0  0  0
 28 64  2  0  0  0  0
 29 53  1  0  0  0  0
 29 65  1  0  0  0  0
 30 66  1  0  0  0  0
 30 70  1  0  0  0  0
 31 63  1  0  0  0  0
 31 65  2  0  0  0  0
 31 72  1  0  0  0  0
 32 71  1  0  0  0  0
 32 76  2  0  0  0  0
 33 50  1  0  0  0  0
 33 73  1  0  0  0  0
 33 77  2  0  0  0  0
 34 60  1  0  0  0  0
 34 67  1  0  0  0  0
 34 78  2  0  0  0  0
 35 61  1  0  0  0  0
 35 74  1  0  0  0  0
 35 79  2  0  0  0  0
 36 68  1  0  0  0  0
 36 69  1  0  0  0  0
 36 80  2  0  0  0  0
 37 40  1  0  0  0  0
 38 50  1  0  0  0  0
 39 67  1  0  0  0  0
 40 42  1  0  0  0  0
 41 43  1  0  0  0  0
 41 45  1  0  0  0  0
 42 49  1  0  0  0  0
 43 51  1  0  0  0  0
 44 46  1  0  0  0  0
 44 52  1  0  0  0  0
 45 68  1  0  0  0  0
 46 69  1  0  0  0  0
 47 51  1  0  0  0  0
 47 68  1  0  0  0  0
 48 52  1  0  0  0  0
 48 69  1  0  0  0  0
 49 73  1  0  0  0  0
 50 67  1  0  0  0  0
 51 66  1  0  0  0  0
 52 72  1  0  0  0  0
 54 61  1  0  0  0  0
 55 62  1  0  0  0  0
 56 62  1  0  0  0  0
 57 62  1  0  0  0  0
 58 75  1  0  0  0  0
 59 82  1  0  0  0  0
 60 62  1  0  0  0  0
 60 74  1  0  0  0  0
 61 75  1  0  0  0  0
 64 66  1  0  0  0  0
M  CHG  1  75   1
M  ISO  4  36 100  59 101  69 100  82 101
M  END
> <Batch ID>
0190

> <Smiles>
CNC(C)C(=O)NC(C(=O)N1Cc2cc([101O:1][101CH2:1]c3cnc(NC4CC[100N:0]([100C:0](=O)N5CCCC(n6nc(-c7ccc(Oc8ccc(F)cc8F)cc7)c(C(N)=O)c6N)C5)C4)nc3C)ccc2CC1C(=O)NC1CCCc2ccccc21)C(C)(C)C

> <Shape>
0.287

> <Color>
0.126

> <Negative vol penalty>
0.000

$$$$

  -OEChem-04052323243D

 84 93  0     1  0  0  0  0  0999 V2000
  -33.2452  -24.6481   27.9741 C   0  0  0  0  0  0  0  0  0  0  0  0
  -32.4710  -24.6537   26.8182 C   0  0  0  0  0  0  0  0  0  0  0  0
  -23.7403   -9.1156   19.7098 C   0  0  0  0  0  0  0  0  0  0  0  0
  -23.2403  -10.3711   21.7125 C   0  0  0  0  0  0  0  0  0  0  0  0
  -32.7799  -25.2801   29.1264 C   0  0  0  0  0  0  0  0  0  0  0  0
  -31.2305  -25.2906   26.8143 C   0  0  0  0  0  0  0  0  0  0  0  0
  -30.5120  -28.1196   22.6760 C   0  0  0  0  0  0  0  0  0  0  0  0
  -23.0221   -8.0300   20.2111 C   0  0  0  0  0  0  0  0  0  0  0  0
  -22.5220   -9.2855   22.2137 C   0  0  0  0  0  0  0  0  0  0  0  0
  -30.1655  -27.4532   21.5015 C   0  0  0  0  0  0  0  0  0  0  0  0
  -23.1961   -6.3242   23.6992 C   0  0  0  0  0  0  0  0  0  0  0  0
  -23.4094   -5.9648   25.0300 C   0  0  0  0  0  0  0  0  0  0  0  0
  -27.8536  -28.0437   21.8557 C   0  0  0  0  0  0  0  0  0  0  0  0
  -21.0743   -6.3572   25.5102 C   0  0  0  0  0  0  0  0  0  0  0  0
  -27.5243  -23.4933   19.0211 C   0  0  0  0  0  0  0  0  0  0  0  0
  -23.8495  -10.2861   20.4606 C   0  0  0  0  0  0  0  0  0  0  0  0
  -24.0966  -12.4651   19.1572 C   0  0  0  0  0  0  0  0  0  0  0  0
  -31.5374  -25.9334   29.1339 C   0  0  0  0  0  0  0  0  0  0  0  0
  -29.5288  -28.7448   23.4563 C   0  0  0  0  0  0  0  0  0  0  0  0
  -30.7476  -25.9308   27.9682 C   0  0  0  0  0  0  0  0  0  0  0  0
  -28.1906  -28.7196   23.0384 C   0  0  0  0  0  0  0  0  0  0  0  0
  -27.5379  -22.8161   20.2234 C   0  0  0  0  0  0  0  0  0  0  0  0
  -22.4129   -8.1150   21.4630 C   0  0  0  0  0  0  0  0  0  0  0  0
  -28.8357  -27.4127   21.0927 C   0  0  0  0  0  0  0  0  0  0  0  0
  -21.9220   -6.7002   23.2739 C   0  0  0  0  0  0  0  0  0  0  0  0
  -22.3485   -5.9812   25.9355 C   0  0  0  0  0  0  0  0  0  0  0  0
  -20.8611   -6.7166   24.1794 C   0  0  0  0  0  0  0  0  0  0  0  0
  -24.5918  -11.4076   19.9436 C   0  0  0  0  0  0  0  0  0  0  0  0
  -27.8971  -23.5642   21.3260 C   0  0  0  0  0  0  0  0  0  0  0  0
  -25.1898  -13.2649   18.9298 C   0  0  0  0  0  0  0  0  0  0  0  0
  -28.1691  -25.4196   20.0412 C   0  0  0  0  0  0  0  0  0  1  0  0
  -22.7674  -12.7031   18.6756 C   0  0  0  0  0  0  0  0  0  0  0  0
  -28.4451  -28.3716   26.4211 C   0  0  0  0  0  0  0  0  0  0  0  0
  -26.7281  -31.0308   25.7119 C   0  0  0  0  0  0  0  0  0  0  0  0
  -25.3249  -33.0214   23.3212 C   0  0  0  0  0  0  0  0  0  0  0  0
  -29.7824  -15.8625   20.7480 C   0  0  0  0  0  0  0  0  0  0  0  0
  -31.0555  -26.5622   30.4172 C   0  0  0  0  0  0  0  0  0  0  0  0
  -29.9226  -29.4823   24.7067 C   0  0  0  0  0  0  0  0  0  0  0  0
  -27.0999  -29.3924   23.8297 C   0  0  0  0  0  0  0  0  0  0  0  0
  -29.8967  -27.5363   30.2206 C   0  0  0  0  0  0  0  0  0  0  0  0
  -30.1056  -12.4466   19.7970 C   0  0  0  0  0  0  0  0  0  0  0  0
  -28.8359  -26.9271   29.3094 C   0  0  0  0  0  0  0  0  0  0  0  0
  -28.6599  -11.9579   19.6918 C   0  0  0  0  0  0  0  0  0  0  0  0
  -29.2649  -18.7150   19.1052 C   0  0  0  0  0  0  0  0  0  0  0  0
  -30.2824  -13.4439   20.9400 C   0  0  0  0  0  0  0  0  0  0  0  0
  -27.9117  -14.1035   20.8033 C   0  0  0  0  0  0  0  0  0  0  0  0
  -29.1691  -20.2284   19.2191 C   0  0  0  0  0  0  0  0  0  0  0  0
  -28.0242  -19.1293   21.0805 C   0  0  0  0  0  0  0  0  0  0  0  0
  -29.4076  -26.6323   27.9174 C   0  0  1  0  0  0  0  0  0  0  0  0
  -28.7698  -29.6450   25.6925 C   0  0  1  0  0  0  0  0  0  0  0  0
  -27.6720  -13.1384   19.6297 C   0  0  2  0  0  0  0  0  0  0  0  0
  -29.1212  -18.2342   20.5389 C   0  0  1  0  0  0  0  0  0  0  0  0
  -27.9471  -22.9363   22.6796 C   0  0  0  0  0  0  0  0  0  0  0  0
  -23.9516  -35.1041   23.0493 C   0  0  0  0  0  0  0  0  0  0  0  0
  -24.2321  -29.4925   26.5567 C   0  0  0  0  0  0  0  0  0  0  0  0
  -22.8534  -31.2274   25.3917 C   0  0  0  0  0  0  0  0  0  0  0  0
  -24.2984  -31.8732   27.3198 C   0  0  0  0  0  0  0  0  0  0  0  0
  -27.4663  -34.3726   21.7891 C   0  0  0  0  0  0  0  0  0  0  0  0
  -27.1857  -21.3751   20.2986 C   0  0  0  0  0  0  0  0  0  0  0  0
  -25.3720  -31.2974   25.1044 C   0  0  1  0  0  0  0  0  0  0  0  0
  -25.3563  -34.5253   23.1170 C   0  0  2  0  0  0  0  0  0  0  0  0
  -24.2090  -30.9582   26.0790 C   0  0  0  0  0  0  0  0  0  0  0  0
  -27.8354  -24.7999   18.8931 N   0  0  0  0  0  0  0  0  0  0  0  0
  -25.8979  -11.5223   20.1985 N   0  0  0  0  0  0  0  0  0  0  0  0
  -28.2201  -24.8730   21.2709 N   0  0  0  0  0  0  0  0  0  0  0  0
  -26.2328  -12.6613   19.5685 N   0  0  0  0  0  0  0  0  0  0  0  0
  -27.5343  -30.0953   25.0482 N   0  0  0  0  0  0  0  0  0  0  0  0
  -29.3169  -14.5392   20.8215 N   0  0  0  0  0  0  0  0  0  0  0  0
  -25.3510  -14.4186   18.2476 N   0  0  0  0  0  0  0  0  0  0  0  0
  -21.7634  -11.7812   19.0019 N   0  0  0  0  0  0  0  0  0  0  0  0
  -29.5026  -27.8504   27.1417 N   0  0  0  0  0  0  0  0  0  0  0  0
  -25.3909  -32.6858   24.6570 N   0  0  0  0  0  0  0  0  0  0  0  0
  -28.8014  -16.8396   20.6307 N   0  0  0  0  0  0  0  0  0  0  0  0
  -28.3678  -20.4790   20.4846 N   0  3  2  0  0  0  0  0  0  0  0  0
  -26.0647  -34.8613   21.8496 N   0  3  0  0  0  0  0  0  0  0  0  0
  -22.4819  -13.6950   17.9627 O   0  0  0  0  0  0  0  0  0  0  0  0
  -27.3180  -27.8979   26.3369 O   0  0  0  0  0  0  0  0  0  0  0  0
  -27.0626  -31.6359   26.7335 O   0  0  0  0  0  0  0  0  0  0  0  0
  -25.2456  -32.2241   22.3892 O   0  0  0  0  0  0  0  0  0  0  0  0
  -30.9835  -16.1513   20.7790 O   0  0  0  0  0  0  0  0  0  0  0  0
  -21.7117   -7.0560   21.9522 O   0  0  0  0  0  0  0  0  0  0  0  0
  -28.4946  -26.7624   19.9470 O   0  0  0  0  0  0  0  0  0  1  0  0
  -22.5532   -5.6346   27.2130 F   0  0  0  0  0  0  0  0  0  0  0  0
  -19.6345   -7.0758   23.7765 F   0  0  0  0  0  0  0  0  0  0  0  0
  1  2  1  0  0  0  0
  1  5  2  0  0  0  0
  2  6  2  0  0  0  0
  3  8  2  0  0  0  0
  3 16  1  0  0  0  0
  4  9  1  0  0  0  0
  4 16  2  0  0  0  0
  5 18  1  0  0  0  0
  6 20  1  0  0  0  0
  7 10  2  0  0  0  0
  7 19  1  0  0  0  0
  8 23  1  0  0  0  0
  9 23  2  0  0  0  0
 10 24  1  0  0  0  0
 11 12  2  0  0  0  0
 11 25  1  0  0  0  0
 12 26  1  0  0  0  0
 13 21  1  0  0  0  0
 13 24  2  0  0  0  0
 14 26  2  0  0  0  0
 14 27  1  0  0  0  0
 15 22  1  0  0  0  0
 15 63  2  0  0  0  0
 16 28  1  0  0  0  0
 17 28  1  0  0  0  0
 17 30  2  0  0  0  0
 17 32  1  0  0  0  0
 18 20  2  0  0  0  0
 18 37  1  0  0  0  0
 19 21  2  0  0  0  0
 19 38  1  0  0  0  0
 20 49  1  0  0  0  0
 21 39  1  0  0  0  0
 22 29  2  0  0  0  0
 22 59  1  0  0  0  0
 23 81  1  0  0  0  0
 24 82  1  0  0  0  0
 25 27  2  0  0  0  0
 25 81  1  0  0  0  0
 26 83  1  0  0  0  0
 27 84  1  0  0  0  0
 28 64  2  0  0  0  0
 29 53  1  0  0  0  0
 29 65  1  0  0  0  0
 30 66  1  0  0  0  0
 30 69  1  0  0  0  0
 31 63  1  0  0  0  0
 31 65  2  0  0  0  0
 31 82  1  0  0  0  0
 32 70  1  0  0  0  0
 32 76  2  0  0  0  0
 33 50  1  0  0  0  0
 33 71  1  0  0  0  0
 33 77  2  0  0  0  0
 34 60  1  0  0  0  0
 34 67  1  0  0  0  0
 34 78  2  0  0  0  0
 35 61  1  0  0  0  0
 35 72  1  0  0  0  0
 35 79  2  0  0  0  0
 36 68  1  0  0  0  0
 36 73  1  0  0  0  0
 36 80  2  0  0  0  0
 37 40  1  0  0  0  0
 38 50  1  0  0  0  0
 39 67  1  0  0  0  0
 40 42  1  0  0  0  0
 41 43  1  0  0  0  0
 41 45  1  0  0  0  0
 42 49  1  0  0  0  0
 43 51  1  0  0  0  0
 44 47  1  0  0  0  0
 44 52  1  0  0  0  0
 45 68  1  0  0  0  0
 46 51  1  0  0  0  0
 46 68  1  0  0  0  0
 47 74  1  0  0  0  0
 48 52  1  0  0  0  0
 48 74  1  0  0  0  0
 49 71  1  0  0  0  0
 50 67  1  0  0  0  0
 51 66  1  0  0  0  0
 52 73  1  0  0  0  0
 54 61  1  0  0  0  0
 55 62  1  0  0  0  0
 56 62  1  0  0  0  0
 57 62  1  0  0  0  0
 58 75  1  0  0  0  0
 59 74  1  0  0  0  0
 60 62  1  0  0  0  0
 60 72  1  0  0  0  0
 61 75  1  0  0  0  0
 64 66  1  0  0  0  0
M  CHG  2  74   1  75   1
M  ISO  4  31 101  36 100  73 100  82 101
M  END
> <Batch ID>
0190

> <Smiles>
CNC(C)C(=O)NC(C(=O)N1Cc2cc([101O:1][101c:1]3ncc(CN4CCC([100NH:0][100C:0](=O)N5CCCC(n6nc(-c7ccc(Oc8ccc(F)cc8F)cc7)c(C(N)=O)c6N)C5)C4)c(C)n3)ccc2CC1C(=O)NC1CCCc2ccccc21)C(C)(C)C

> <Shape>
0.273

> <Color>
0.085

> <Negative vol penalty>
0.000

$$$$

  -OEChem-04052323243D

 81 89  0     1  0  0  0  0  0999 V2000
  -27.0184  -37.4819   25.8449 C   0  0  0  0  0  0  0  0  0  0  0  0
  -27.1391  -36.2352   26.4502 C   0  0  0  0  0  0  0  0  0  0  0  0
  -27.3088  -13.7692   22.5762 C   0  0  0  0  0  0  0  0  0  0  0  0
  -26.8066  -13.3098   20.2580 C   0  0  0  0  0  0  0  0  0  0  0  0
  -26.0794  -37.6762   24.8327 C   0  0  0  0  0  0  0  0  0  0  0  0
  -26.3201  -35.1821   26.0444 C   0  0  0  0  0  0  0  0  0  0  0  0
  -27.8122  -29.2483   25.7808 C   0  0  0  0  0  0  0  0  0  0  0  0
  -26.6741  -12.5843   22.9486 C   0  0  0  0  0  0  0  0  0  0  0  0
  -26.1720  -12.1248   20.6304 C   0  0  0  0  0  0  0  0  0  0  0  0
  -27.5808  -28.1834   26.6505 C   0  0  0  0  0  0  0  0  0  0  0  0
  -24.1050   -9.1583   21.0015 C   0  0  0  0  0  0  0  0  0  0  0  0
  -22.8733   -8.8702   20.4138 C   0  0  0  0  0  0  0  0  0  0  0  0
  -25.6354  -27.5644   25.3653 C   0  0  0  0  0  0  0  0  0  0  0  0
  -21.9570  -10.9067   21.3359 C   0  0  0  0  0  0  0  0  0  0  0  0
  -27.3750  -14.1320   21.2309 C   0  0  0  0  0  0  0  0  0  0  0  0
  -29.3883  -15.5268   20.5175 C   0  0  0  0  0  0  0  0  0  0  0  0
  -25.2551  -36.6224   24.4076 C   0  0  0  0  0  0  0  0  0  0  0  0
  -26.9492  -29.4862   24.7014 C   0  0  0  0  0  0  0  0  0  0  0  0
  -25.3683  -35.3628   25.0265 C   0  0  0  0  0  0  0  0  0  0  0  0
  -25.8595  -28.6315   24.4820 C   0  0  0  0  0  0  0  0  0  0  0  0
  -26.1057  -11.7621   21.9757 C   0  0  0  0  0  0  0  0  0  0  0  0
  -26.4907  -27.3430   26.4445 C   0  0  0  0  0  0  0  0  0  0  0  0
  -24.2628  -10.3206   21.7565 C   0  0  0  0  0  0  0  0  0  0  0  0
  -21.7993   -9.7444   20.5810 C   0  0  0  0  0  0  0  0  0  0  0  0
  -23.1888  -11.1948   21.9237 C   0  0  0  0  0  0  0  0  0  0  0  0
  -28.0300  -15.3562   20.8457 C   0  0  0  0  0  0  0  0  0  0  0  0
  -29.5059  -16.8638   20.2261 C   0  0  0  0  0  0  0  0  0  0  0  0
  -30.4489  -14.5627   20.4793 C   0  0  0  0  0  0  0  0  0  0  0  0
  -25.0434  -31.8792   23.8383 C   0  0  0  0  0  0  0  0  0  0  0  0
  -24.6645  -30.0944   21.1563 C   0  0  0  0  0  0  0  0  0  0  0  0
  -24.7800  -27.0182   19.6830 C   0  0  0  0  0  0  0  0  0  0  0  0
  -26.0198  -21.5294   21.9827 C   0  0  0  0  0  0  0  0  0  0  0  0
  -24.2223  -36.8929   23.3424 C   0  0  0  0  0  0  0  0  0  0  0  0
  -27.2278  -30.6231   23.7569 C   0  0  0  0  0  0  0  0  0  0  0  0
  -24.9148  -28.8317   23.3261 C   0  0  0  0  0  0  0  0  0  0  0  0
  -23.6507  -35.6255   22.7123 C   0  0  0  0  0  0  0  0  0  0  0  0
  -26.9851  -20.5802   18.5707 C   0  0  0  0  0  0  0  0  0  0  0  0
  -23.2807  -34.6129   23.7915 C   0  0  0  0  0  0  0  0  0  0  0  0
  -27.4360  -19.1284   18.7379 C   0  0  0  0  0  0  0  0  0  0  0  0
  -28.9345  -22.2931   24.0880 C   0  0  0  0  0  0  0  0  0  0  0  0
  -25.9082  -20.9646   19.5828 C   0  0  0  0  0  0  0  0  0  0  0  0
  -28.3666  -21.3829   23.0043 C   0  0  0  0  0  0  0  0  0  0  0  0
  -26.7101  -19.2402   21.1501 C   0  0  0  0  0  0  0  0  0  0  0  0
  -26.5628  -22.3595   24.2538 C   0  0  0  0  0  0  0  0  0  0  0  0
  -24.5149  -34.1892   24.5969 C   0  0  1  0  0  0  0  0  0  0  0  0
  -25.9906  -31.0792   22.9895 C   0  0  1  0  0  0  0  0  0  0  0  0
  -27.8420  -18.8374   20.1947 C   0  0  1  0  0  0  0  0  0  0  0  0
  -27.8122  -22.3004   25.1245 C   0  0  2  0  0  0  0  0  0  0  0  0
  -24.3810  -25.8690   17.4882 C   0  0  0  0  0  0  0  0  0  0  0  0
  -21.6528  -30.2769   21.6110 C   0  0  0  0  0  0  0  0  0  0  0  0
  -21.3654  -28.3788   20.0039 C   0  0  0  0  0  0  0  0  0  0  0  0
  -22.3650  -30.5282   19.2269 C   0  0  0  0  0  0  0  0  0  0  0  0
  -27.5942  -26.1184   19.5103 C   0  0  0  0  0  0  0  0  0  0  0  0
  -25.6018  -22.8111   29.5982 C   0  0  0  0  0  0  0  0  0  0  0  0
  -26.8155  -23.3890   27.0171 C   0  0  0  0  0  0  0  0  0  0  0  0
  -27.4020  -25.7124   27.9164 C   0  0  0  0  0  0  0  0  0  1  0  0
  -23.7157  -29.0027   20.7238 C   0  0  1  0  0  0  0  0  0  0  0  0
  -25.4067  -26.5467   18.3832 C   0  0  2  0  0  0  0  0  0  0  0  0
  -27.1363  -24.2437   28.2447 C   0  0  1  0  0  0  0  0  0  0  0  0
  -22.2912  -29.5438   20.4144 C   0  0  0  0  0  0  0  0  0  0  0  0
  -27.3346  -16.4941   20.7703 N   0  0  0  0  0  0  0  0  0  0  0  0
  -28.2595  -17.3924   20.3915 N   0  0  0  0  0  0  0  0  0  0  0  0
  -25.2258  -29.9609   22.4341 N   0  0  0  0  0  0  0  0  0  0  0  0
  -26.3303  -20.6424   20.9461 N   0  0  0  0  0  0  0  0  0  0  0  0
  -26.9219  -21.6275   23.0413 N   0  0  0  0  0  0  0  0  0  0  0  0
  -30.5529  -17.6272   19.8473 N   0  0  0  0  0  0  0  0  0  0  0  0
  -30.1546  -13.2323   20.8075 N   0  0  0  0  0  0  0  0  0  0  0  0
  -25.3049  -33.2360   23.8473 N   0  0  0  0  0  0  0  0  0  0  0  0
  -24.3555  -28.3274   19.5999 N   0  0  0  0  0  0  0  0  0  0  0  0
  -27.9088  -23.4124   26.0520 N   0  0  0  0  0  0  0  0  0  0  0  0
  -26.5038  -25.5766   18.6591 N   0  3  0  0  0  0  0  0  0  0  0  0
  -25.9545  -24.1836   29.1602 N   0  3  0  0  0  0  0  0  0  0  0  0
  -31.6262  -14.8751   20.1794 O   0  0  0  0  0  0  0  0  0  0  0  0
  -24.1411  -31.3079   24.4393 O   0  0  0  0  0  0  0  0  0  0  0  0
  -24.9044  -31.0274   20.3858 O   0  0  0  0  0  0  0  0  0  0  0  0
  -24.6741  -26.2960   20.6718 O   0  0  0  0  0  0  0  0  0  0  0  0
  -25.0049  -22.2375   21.9424 O   0  0  0  0  0  0  0  0  0  0  0  0
  -25.4865  -10.6056   22.3386 O   0  0  0  0  0  0  0  0  0  0  0  0
  -26.2608  -26.2965   27.2977 O   0  0  0  0  0  0  0  0  0  1  0  0
  -20.6169   -9.4684   20.0153 F   0  0  0  0  0  0  0  0  0  0  0  0
  -23.3346  -12.3135   22.6469 F   0  0  0  0  0  0  0  0  0  0  0  0
  1  2  1  0  0  0  0
  1  5  2  0  0  0  0
  2  6  2  0  0  0  0
  3  8  2  0  0  0  0
  3 15  1  0  0  0  0
  4  9  1  0  0  0  0
  4 15  2  0  0  0  0
  5 17  1  0  0  0  0
  6 19  1  0  0  0  0
  7 10  2  0  0  0  0
  7 18  1  0  0  0  0
  8 21  1  0  0  0  0
  9 21  2  0  0  0  0
 10 22  1  0  0  0  0
 11 12  2  0  0  0  0
 11 23  1  0  0  0  0
 12 24  1  0  0  0  0
 13 20  1  0  0  0  0
 13 22  2  0  0  0  0
 14 24  2  0  0  0  0
 14 25  1  0  0  0  0
 15 26  1  0  0  0  0
 16 26  1  0  0  0  0
 16 27  2  0  0  0  0
 16 28  1  0  0  0  0
 17 19  2  0  0  0  0
 17 33  1  0  0  0  0
 18 20  2  0  0  0  0
 18 34  1  0  0  0  0
 19 45  1  0  0  0  0
 20 35  1  0  0  0  0
 21 78  1  0  0  0  0
 22 79  1  0  0  0  0
 23 25  2  0  0  0  0
 23 78  1  0  0  0  0
 24 80  1  0  0  0  0
 25 81  1  0  0  0  0
 26 61  2  0  0  0  0
 27 62  1  0  0  0  0
 27 66  1  0  0  0  0
 28 67  1  0  0  0  0
 28 73  2  0  0  0  0
 29 46  1  0  0  0  0
 29 68  1  0  0  0  0
 29 74  2  0  0  0  0
 30 57  1  0  0  0  0
 30 63  1  0  0  0  0
 30 75  2  0  0  0  0
 31 58  1  0  0  0  0
 31 69  1  0  0  0  0
 31 76  2  0  0  0  0
 32 64  1  0  0  0  0
 32 65  1  0  0  0  0
 32 77  2  0  0  0  0
 33 36  1  0  0  0  0
 34 46  1  0  0  0  0
 35 63  1  0  0  0  0
 36 38  1  0  0  0  0
 37 39  1  0  0  0  0
 37 41  1  0  0  0  0
 38 45  1  0  0  0  0
 39 47  1  0  0  0  0
 40 42  1  0  0  0  0
 40 48  1  0  0  0  0
 41 64  1  0  0  0  0
 42 65  1  0  0  0  0
 43 47  1  0  0  0  0
 43 64  1  0  0  0  0
 44 48  1  0  0  0  0
 44 65  1  0  0  0  0
 45 68  1  0  0  0  0
 46 63  1  0  0  0  0
 47 62  1  0  0  0  0
 48 70  1  0  0  0  0
 49 58  1  0  0  0  0
 50 60  1  0  0  0  0
 51 60  1  0  0  0  0
 52 60  1  0  0  0  0
 53 71  1  0  0  0  0
 54 72  1  0  0  0  0
 55 59  1  0  0  0  0
 55 70  1  0  0  0  0
 56 59  1  0  0  0  0
 56 79  1  0  0  0  0
 57 60  1  0  0  0  0
 57 69  1  0  0  0  0
 58 71  1  0  0  0  0
 59 72  1  0  0  0  0
 61 62  1  0  0  0  0
M  CHG  2  71   1  72   1
M  ISO  4  32 100  56 101  65 100  79 101
M  END
> <Batch ID>
0190

> <Smiles>
CNC(C)C(=O)NC(C(=O)N1Cc2cc([101O:1][101CH2:1]C(CNC3CC[100N:0]([100C:0](=O)N4CCCC(n5nc(-c6ccc(Oc7ccc(F)cc7F)cc6)c(C(N)=O)c5N)C4)C3)NC)ccc2CC1C(=O)NC1CCCc2ccccc21)C(C)(C)C

> <Shape>
0.264

> <Color>
0.059

> <Negative vol penalty>
0.000

$$$$

  -OEChem-04052323243D

 85 94  0     1  0  0  0  0  0999 V2000
  -27.8499  -38.4888   25.0886 C   0  0  0  0  0  0  0  0  0  0  0  0
  -28.1706  -37.5878   24.0784 C   0  0  0  0  0  0  0  0  0  0  0  0
  -24.2048   -9.3927   22.1730 C   0  0  0  0  0  0  0  0  0  0  0  0
  -23.2517   -9.6590   19.9690 C   0  0  0  0  0  0  0  0  0  0  0  0
  -27.0849  -38.0710   26.1768 C   0  0  0  0  0  0  0  0  0  0  0  0
  -27.7273  -36.2680   24.1563 C   0  0  0  0  0  0  0  0  0  0  0  0
  -25.6042  -30.8369   19.9955 C   0  0  0  0  0  0  0  0  0  0  0  0
  -23.2132   -8.4643   22.4897 C   0  0  0  0  0  0  0  0  0  0  0  0
  -22.2601   -8.7305   20.2856 C   0  0  0  0  0  0  0  0  0  0  0  0
  -25.8712  -29.4880   19.7656 C   0  0  0  0  0  0  0  0  0  0  0  0
  -22.5711   -5.2007   21.8819 C   0  0  0  0  0  0  0  0  0  0  0  0
  -22.9635   -4.0274   22.5261 C   0  0  0  0  0  0  0  0  0  0  0  0
  -24.4893  -28.8990   21.6532 C   0  0  0  0  0  0  0  0  0  0  0  0
  -21.5388   -4.5785   24.3979 C   0  0  0  0  0  0  0  0  0  0  0  0
  -26.0111  -23.4726   18.0630 C   0  0  0  0  0  0  0  0  0  0  0  0
  -24.2240   -9.9902   20.9127 C   0  0  0  0  0  0  0  0  0  0  0  0
  -26.5054  -10.6880   20.0094 C   0  0  0  0  0  0  0  0  0  0  0  0
  -26.6240  -36.7479   26.2633 C   0  0  0  0  0  0  0  0  0  0  0  0
  -24.7851  -31.2283   21.0643 C   0  0  0  0  0  0  0  0  0  0  0  0
  -26.9566  -35.8317   25.2473 C   0  0  0  0  0  0  0  0  0  0  0  0
  -24.2114  -30.2534   21.8929 C   0  0  0  0  0  0  0  0  0  0  0  0
  -22.2409   -8.1331   21.5460 C   0  0  0  0  0  0  0  0  0  0  0  0
  -25.3161  -28.5190   20.5962 C   0  0  0  0  0  0  0  0  0  0  0  0
  -21.6625   -6.0629   22.4957 C   0  0  0  0  0  0  0  0  0  0  0  0
  -22.4474   -3.7163   23.7840 C   0  0  0  0  0  0  0  0  0  0  0  0
  -21.1464   -5.7518   23.7537 C   0  0  0  0  0  0  0  0  0  0  0  0
  -25.2477  -10.9498   20.5852 C   0  0  0  0  0  0  0  0  0  0  0  0
  -27.3540  -24.6848   20.0263 C   0  0  0  0  0  0  0  0  0  0  0  0
  -26.5641  -25.4035   19.1562 C   0  0  0  0  0  0  0  0  0  0  0  0
  -26.8015  -22.7538   18.9325 C   0  0  0  0  0  0  0  0  0  0  0  0
  -27.0974  -11.9227   19.9017 C   0  0  0  0  0  0  0  0  0  0  0  0
  -28.0960  -25.3131   21.1065 C   0  0  0  0  0  0  0  0  0  0  0  0
  -27.0866   -9.4403   19.6078 C   0  0  0  0  0  0  0  0  0  0  0  0
  -25.1994  -32.9830   23.6822 C   0  0  0  0  0  0  0  0  0  0  0  0
  -22.0011  -32.5495   24.0074 C   0  0  0  0  0  0  0  0  0  0  0  0
  -19.2454  -30.6666   23.2952 C   0  0  0  0  0  0  0  0  0  0  0  0
  -27.0711  -17.1432   18.6408 C   0  0  0  0  0  0  0  0  0  0  0  0
  -25.8399  -36.3306   27.4823 C   0  0  0  0  0  0  0  0  0  0  0  0
  -24.4852  -32.6860   21.2827 C   0  0  0  0  0  0  0  0  0  0  0  0
  -23.3090  -30.6202   23.0416 C   0  0  0  0  0  0  0  0  0  0  0  0
  -25.0935  -35.0110   27.3040 C   0  0  0  0  0  0  0  0  0  0  0  0
  -25.7656  -16.4029   21.8168 C   0  0  0  0  0  0  0  0  0  0  0  0
  -26.0064  -33.9617   26.6777 C   0  0  0  0  0  0  0  0  0  0  0  0
  -25.6119  -14.8844   21.7357 C   0  0  0  0  0  0  0  0  0  0  0  0
  -25.3626  -17.0902   20.5112 C   0  0  0  0  0  0  0  0  0  0  0  0
  -28.1128  -20.6655   19.1509 C   0  0  0  0  0  0  0  0  0  0  0  0
  -25.6349  -20.5947   18.8322 C   0  0  0  0  0  0  0  0  0  0  0  0
  -28.2234  -19.3154   18.4475 C   0  0  0  0  0  0  0  0  0  0  0  0
  -25.7907  -19.2535   18.1240 C   0  0  0  0  0  0  0  0  0  0  0  0
  -25.9011  -15.0417   19.2339 C   0  0  0  0  0  0  0  0  0  0  0  0
  -26.4734  -34.3981   25.2838 C   0  0  1  0  0  0  0  0  0  0  0  0
  -24.0525  -32.9995   22.7116 C   0  0  1  0  0  0  0  0  0  0  0  0
  -26.3542  -14.3188   20.5119 C   0  0  2  0  0  0  0  0  0  0  0  0
  -16.7774  -30.5429   23.7323 C   0  0  0  0  0  0  0  0  0  0  0  0
  -22.5543  -31.5136   26.8235 C   0  0  0  0  0  0  0  0  0  0  0  0
  -20.2470  -30.5418   26.8441 C   0  0  0  0  0  0  0  0  0  0  0  0
  -20.5579  -33.0080   26.6351 C   0  0  0  0  0  0  0  0  0  0  0  0
  -18.6056  -30.9141   20.4162 C   0  0  0  0  0  0  0  0  0  0  0  0
  -26.4249  -26.8831   19.2732 C   0  0  0  0  0  0  0  0  0  1  0  0
  -21.1245  -31.5168   24.6737 C   0  0  1  0  0  0  0  0  0  0  0  0
  -17.8638  -31.0512   22.7973 C   0  0  2  0  0  0  0  0  0  0  0  0
  -21.1395  -31.6379   26.2237 C   0  0  0  0  0  0  0  0  0  0  0  0
  -25.8782  -24.8103   18.1592 N   0  0  0  0  0  0  0  0  0  0  0  0
  -25.0514  -12.2487   20.8265 N   0  0  0  0  0  0  0  0  0  0  0  0
  -27.4872  -23.3470   19.9298 N   0  0  0  0  0  0  0  0  0  0  0  0
  -28.8473  -24.6542   21.9389 N   0  0  0  0  0  0  0  0  0  0  0  0
  -26.1937  -12.8142   20.4003 N   0  0  0  0  0  0  0  0  0  0  0  0
  -26.8837  -21.3659   18.7625 N   0  0  0  0  0  0  0  0  0  0  0  0
  -23.0509  -32.0589   23.2181 N   0  0  0  0  0  0  0  0  0  0  0  0
  -26.0650  -16.4906   19.3687 N   0  0  0  0  0  0  0  0  0  0  0  0
  -26.9927  -18.5426   18.5646 N   0  0  0  0  0  0  0  0  0  0  0  0
  -28.2977  -12.3219   19.4301 N   0  0  0  0  0  0  0  0  0  0  0  0
  -26.3415   -8.2672   19.7891 N   0  0  0  0  0  0  0  0  0  0  0  0
  -25.4216  -34.1931   24.3112 N   0  0  0  0  0  0  0  0  0  0  0  0
  -19.8011  -31.6578   24.0761 N   0  0  0  0  0  0  0  0  0  0  0  0
  -17.6235  -30.4789   21.4425 N   0  3  0  0  0  0  0  0  0  0  0  0
  -28.2392   -9.3662   19.1183 O   0  0  0  0  0  0  0  0  0  0  0  0
  -25.8347  -31.9485   23.8492 O   0  0  0  0  0  0  0  0  0  0  0  0
  -21.7589  -33.7474   24.1751 O   0  0  0  0  0  0  0  0  0  0  0  0
  -19.7768  -29.5926   23.0219 O   0  0  0  0  0  0  0  0  0  0  0  0
  -27.9867  -16.5159   18.0940 O   0  0  0  0  0  0  0  0  0  0  0  0
  -21.2733   -7.2270   21.8545 O   0  0  0  0  0  0  0  0  0  0  0  0
  -25.5774  -27.1927   20.3730 O   0  0  0  0  0  0  0  0  0  1  0  0
  -22.8231   -2.5888   24.4018 F   0  0  0  0  0  0  0  0  0  0  0  0
  -20.2723   -6.5757   24.3478 F   0  0  0  0  0  0  0  0  0  0  0  0
  1  2  1  0  0  0  0
  1  5  2  0  0  0  0
  2  6  2  0  0  0  0
  3  8  2  0  0  0  0
  3 16  1  0  0  0  0
  4  9  1  0  0  0  0
  4 16  2  0  0  0  0
  5 18  1  0  0  0  0
  6 20  1  0  0  0  0
  7 10  2  0  0  0  0
  7 19  1  0  0  0  0
  8 22  1  0  0  0  0
  9 22  2  0  0  0  0
 10 23  1  0  0  0  0
 11 12  2  0  0  0  0
 11 24  1  0  0  0  0
 12 25  1  0  0  0  0
 13 21  1  0  0  0  0
 13 23  2  0  0  0  0
 14 25  2  0  0  0  0
 14 26  1  0  0  0  0
 15 30  1  0  0  0  0
 15 63  2  0  0  0  0
 16 27  1  0  0  0  0
 17 27  1  0  0  0  0
 17 31  2  0  0  0  0
 17 33  1  0  0  0  0
 18 20  2  0  0  0  0
 18 38  1  0  0  0  0
 19 21  2  0  0  0  0
 19 39  1  0  0  0  0
 20 51  1  0  0  0  0
 21 40  1  0  0  0  0
 22 82  1  0  0  0  0
 23 83  1  0  0  0  0
 24 26  2  0  0  0  0
 24 82  1  0  0  0  0
 25 84  1  0  0  0  0
 26 85  1  0  0  0  0
 27 64  2  0  0  0  0
 28 29  2  0  0  0  0
 28 32  1  0  0  0  0
 28 65  1  0  0  0  0
 29 59  1  0  0  0  0
 29 63  1  0  0  0  0
 30 65  2  0  0  0  0
 30 68  1  0  0  0  0
 31 67  1  0  0  0  0
 31 72  1  0  0  0  0
 32 66  2  0  0  0  0
 33 73  1  0  0  0  0
 33 77  2  0  0  0  0
 34 52  1  0  0  0  0
 34 74  1  0  0  0  0
 34 78  2  0  0  0  0
 35 60  1  0  0  0  0
 35 69  1  0  0  0  0
 35 79  2  0  0  0  0
 36 61  1  0  0  0  0
 36 75  1  0  0  0  0
 36 80  2  0  0  0  0
 37 70  1  0  0  0  0
 37 71  1  0  0  0  0
 37 81  2  0  0  0  0
 38 41  1  0  0  0  0
 39 52  1  0  0  0  0
 40 69  1  0  0  0  0
 41 43  1  0  0  0  0
 42 44  1  0  0  0  0
 42 45  1  0  0  0  0
 43 51  1  0  0  0  0
 44 53  1  0  0  0  0
 45 70  1  0  0  0  0
 46 48  1  0  0  0  0
 46 68  1  0  0  0  0
 47 49  1  0  0  0  0
 47 68  1  0  0  0  0
 48 71  1  0  0  0  0
 49 71  1  0  0  0  0
 50 53  1  0  0  0  0
 50 70  1  0  0  0  0
 51 74  1  0  0  0  0
 52 69  1  0  0  0  0
 53 67  1  0  0  0  0
 54 61  1  0  0  0  0
 55 62  1  0  0  0  0
 56 62  1  0  0  0  0
 57 62  1  0  0  0  0
 58 76  1  0  0  0  0
 59 83  1  0  0  0  0
 60 62  1  0  0  0  0
 60 75  1  0  0  0  0
 61 76  1  0  0  0  0
 64 67  1  0  0  0  0
M  CHG  1  76   1
M  ISO  4  37 100  59 101  71 100  83 101
M  END
> <Batch ID>
0190

> <Smiles>
CNC(C)C(=O)NC(C(=O)N1Cc2cc([101O:1][101CH2:1]c3ncc(N4CC[100N:0]([100C:0](=O)N5CCCC(n6nc(-c7ccc(Oc8ccc(F)cc8F)cc7)c(C(N)=O)c6N)C5)CC4)nc3C=N)ccc2CC1C(=O)NC1CCCc2ccccc21)C(C)(C)C

> <Shape>
0.283

> <Color>
0.085

> <Negative vol penalty>
0.000

$$$$

  -OEChem-04052323243D

 84 92  0     1  0  0  0  0  0999 V2000
  -18.5261  -24.8670   20.6008 C   0  0  0  0  0  0  0  0  0  0  0  0
  -19.7810  -25.1511   20.0715 C   0  0  0  0  0  0  0  0  0  0  0  0
  -25.4555  -15.5547   21.7142 C   0  0  0  0  0  0  0  0  0  0  0  0
  -24.7178  -16.8697   19.8264 C   0  0  0  0  0  0  0  0  0  0  0  0
  -18.0648  -25.5692   21.7134 C   0  0  0  0  0  0  0  0  0  0  0  0
  -20.5749  -26.1384   20.6541 C   0  0  0  0  0  0  0  0  0  0  0  0
  -25.3972  -24.6883   21.1902 C   0  0  0  0  0  0  0  0  0  0  0  0
  -24.3042  -14.7730   21.6197 C   0  0  0  0  0  0  0  0  0  0  0  0
  -23.5664  -16.0879   19.7318 C   0  0  0  0  0  0  0  0  0  0  0  0
  -26.2025  -24.7222   20.0526 C   0  0  0  0  0  0  0  0  0  0  0  0
  -21.7327  -12.2037   21.6493 C   0  0  0  0  0  0  0  0  0  0  0  0
  -21.8785  -10.8200   21.7475 C   0  0  0  0  0  0  0  0  0  0  0  0
  -27.1390  -26.8210   20.7854 C   0  0  0  0  0  0  0  0  0  0  0  0
  -23.3218  -10.8346   19.8101 C   0  0  0  0  0  0  0  0  0  0  0  0
  -25.6623  -16.6031   20.8176 C   0  0  0  0  0  0  0  0  0  0  0  0
  -28.0857  -17.1879   20.2767 C   0  0  0  0  0  0  0  0  0  0  0  0
  -18.8575  -26.5589   22.3158 C   0  0  0  0  0  0  0  0  0  0  0  0
  -25.4489  -25.7277   22.1301 C   0  0  0  0  0  0  0  0  0  0  0  0
  -20.1232  -26.8554   21.7751 C   0  0  0  0  0  0  0  0  0  0  0  0
  -26.3352  -26.7967   21.9354 C   0  0  0  0  0  0  0  0  0  0  0  0
  -23.3597  -15.0395   20.6285 C   0  0  0  0  0  0  0  0  0  0  0  0
  -27.0715  -25.7900   19.8486 C   0  0  0  0  0  0  0  0  0  0  0  0
  -22.3814  -12.9029   20.6314 C   0  0  0  0  0  0  0  0  0  0  0  0
  -22.6731  -10.1354   20.8279 C   0  0  0  0  0  0  0  0  0  0  0  0
  -23.1760  -12.2184   19.7119 C   0  0  0  0  0  0  0  0  0  0  0  0
  -26.8511  -17.4114   20.9151 C   0  0  0  0  0  0  0  0  0  0  0  0
  -28.8798  -18.2293   20.6906 C   0  0  0  0  0  0  0  0  0  0  0  0
  -28.4795  -16.1333   19.3888 C   0  0  0  0  0  0  0  0  0  0  0  0
  -23.3664  -27.8615   23.2318 C   0  0  0  0  0  0  0  0  0  0  0  0
  -25.7841  -28.5917   25.2674 C   0  0  0  0  0  0  0  0  0  0  0  0
  -29.1358  -28.5740   25.9097 C   0  0  0  0  0  0  0  0  0  0  0  0
  -29.6297  -23.6591   21.7396 C   0  0  0  0  0  0  0  0  0  0  0  0
  -18.2966  -27.3242   23.4882 C   0  0  0  0  0  0  0  0  0  0  0  0
  -24.5932  -25.6630   23.3654 C   0  0  0  0  0  0  0  0  0  0  0  0
  -26.4434  -27.9274   22.9245 C   0  0  0  0  0  0  0  0  0  0  0  0
  -19.3539  -28.0952   24.2742 C   0  0  0  0  0  0  0  0  0  0  0  0
  -28.1523  -21.6874   24.3099 C   0  0  0  0  0  0  0  0  0  0  0  0
  -20.2719  -28.8600   23.3260 C   0  0  0  0  0  0  0  0  0  0  0  0
  -27.7786  -20.3840   23.6019 C   0  0  0  0  0  0  0  0  0  0  0  0
  -32.4095  -22.3487   18.8487 C   0  0  0  0  0  0  0  0  0  0  0  0
  -27.9571  -22.8992   23.4014 C   0  0  0  0  0  0  0  0  0  0  0  0
  -32.8184  -21.6843   17.5281 C   0  0  0  0  0  0  0  0  0  0  0  0
  -28.2684  -21.5095   21.3901 C   0  0  0  0  0  0  0  0  0  0  0  0
  -31.1343  -22.9375   16.3056 C   0  0  0  0  0  0  0  0  0  0  0  0
  -21.0239  -27.9022   22.3940 C   0  0  1  0  0  0  0  0  0  0  0  0
  -24.3549  -27.0300   23.9994 C   0  0  1  0  0  0  0  0  0  0  0  0
  -28.5017  -20.2541   22.2478 C   0  0  2  0  0  0  0  0  0  0  0  0
  -30.6706  -23.6262   17.5971 C   0  0  1  0  0  0  0  0  0  0  0  0
  -31.8021  -23.7554   18.6464 C   0  0  1  0  0  0  0  0  0  0  0  0
  -30.8138  -29.2741   27.6394 C   0  0  0  0  0  0  0  0  0  0  0  0
  -28.4875  -26.1749   15.8860 C   0  0  0  0  0  0  0  0  0  0  0  0
  -25.5012  -31.4924   24.3643 C   0  0  0  0  0  0  0  0  0  0  0  0
  -27.7507  -31.9500   25.3637 C   0  0  0  0  0  0  0  0  0  0  0  0
  -25.8710  -31.1957   26.8198 C   0  0  0  0  0  0  0  0  0  0  0  0
  -32.0763  -20.9273   15.3652 C   0  0  0  0  0  0  0  0  0  0  0  0
  -30.0397  -25.7872   26.3286 C   0  0  0  0  0  0  0  0  0  0  0  0
  -31.2782  -24.2821   19.9922 C   0  0  0  0  0  0  0  0  0  0  0  0
  -27.7419  -24.7361   17.8248 C   0  0  0  0  0  0  0  0  0  1  0  0
  -26.9538  -29.5457   25.2396 C   0  0  1  0  0  0  0  0  0  0  0  0
  -29.9244  -28.1483   27.1350 C   0  0  2  0  0  0  0  0  0  0  0  0
  -28.7289  -24.8977   16.6743 C   0  0  2  0  0  0  0  0  0  0  0  0
  -26.5160  -31.0258   25.4271 C   0  0  0  0  0  0  0  0  0  0  0  0
  -26.8557  -18.5085   21.6769 N   0  0  0  0  0  0  0  0  0  0  0  0
  -28.1029  -18.9837   21.5198 N   0  0  0  0  0  0  0  0  0  0  0  0
  -25.5814  -27.8217   24.1134 N   0  0  0  0  0  0  0  0  0  0  0  0
  -28.6695  -22.7132   22.1350 N   0  0  0  0  0  0  0  0  0  0  0  0
  -31.6829  -21.6051   16.6003 N   0  0  1  0  0  0  0  0  0  0  0  0
  -30.1598  -18.5642   20.4227 N   0  0  0  0  0  0  0  0  0  0  0  0
  -27.5399  -15.1441   19.0680 N   0  0  0  0  0  0  0  0  0  0  0  0
  -32.8647  -24.6597   18.1777 N   0  0  0  0  0  0  0  0  0  0  0  0
  -22.1232  -27.2740   23.0951 N   0  0  0  0  0  0  0  0  0  0  0  0
  -27.8939  -29.0684   26.2480 N   0  0  0  0  0  0  0  0  0  0  0  0
  -30.2627  -23.4040   20.5293 N   0  0  0  0  0  0  0  0  0  0  0  0
  -30.1087  -24.9532   17.2384 N   0  3  0  0  0  0  0  0  0  0  0  0
  -30.7866  -26.9758   26.8145 N   0  3  0  0  0  0  0  0  0  0  0  0
  -29.6357  -16.0610   18.9075 O   0  0  0  0  0  0  0  0  0  0  0  0
  -23.7061  -28.9557   22.7970 O   0  0  0  0  0  0  0  0  0  0  0  0
  -25.0806  -28.5267   26.2786 O   0  0  0  0  0  0  0  0  0  0  0  0
  -29.5788  -28.4811   24.7671 O   0  0  0  0  0  0  0  0  0  0  0  0
  -29.9064  -24.6543   22.4178 O   0  0  0  0  0  0  0  0  0  0  0  0
  -22.2362  -14.2768   20.5358 O   0  0  0  0  0  0  0  0  0  0  0  0
  -27.8581  -25.8259   18.7388 O   0  0  0  0  0  0  0  0  0  1  0  0
  -22.8142   -8.8069   20.9232 F   0  0  0  0  0  0  0  0  0  0  0  0
  -23.8026  -12.8848   18.7326 F   0  0  0  0  0  0  0  0  0  0  0  0
  1  2  1  0  0  0  0
  1  5  2  0  0  0  0
  2  6  2  0  0  0  0
  3  8  2  0  0  0  0
  3 15  1  0  0  0  0
  4  9  1  0  0  0  0
  4 15  2  0  0  0  0
  5 17  1  0  0  0  0
  6 19  1  0  0  0  0
  7 10  2  0  0  0  0
  7 18  1  0  0  0  0
  8 21  1  0  0  0  0
  9 21  2  0  0  0  0
 10 22  1  0  0  0  0
 11 12  2  0  0  0  0
 11 23  1  0  0  0  0
 12 24  1  0  0  0  0
 13 20  1  0  0  0  0
 13 22  2  0  0  0  0
 14 24  2  0  0  0  0
 14 25  1  0  0  0  0
 15 26  1  0  0  0  0
 16 26  1  0  0  0  0
 16 27  2  0  0  0  0
 16 28  1  0  0  0  0
 17 19  2  0  0  0  0
 17 33  1  0  0  0  0
 18 20  2  0  0  0  0
 18 34  1  0  0  0  0
 19 45  1  0  0  0  0
 20 35  1  0  0  0  0
 21 81  1  0  0  0  0
 22 82  1  0  0  0  0
 23 25  2  0  0  0  0
 23 81  1  0  0  0  0
 24 83  1  0  0  0  0
 25 84  1  0  0  0  0
 26 63  2  0  0  0  0
 27 64  1  0  0  0  0
 27 68  1  0  0  0  0
 28 69  1  0  0  0  0
 28 76  2  0  0  0  0
 29 46  1  0  0  0  0
 29 71  1  0  0  0  0
 29 77  2  0  0  0  0
 30 59  1  0  0  0  0
 30 65  1  0  0  0  0
 30 78  2  0  0  0  0
 31 60  1  0  0  0  0
 31 72  1  0  0  0  0
 31 79  2  0  0  0  0
 32 66  1  0  0  0  0
 32 73  1  0  0  0  0
 32 80  2  0  0  0  0
 33 36  1  0  0  0  0
 34 46  1  0  0  0  0
 35 65  1  0  0  0  0
 36 38  1  0  0  0  0
 37 39  1  0  0  0  0
 37 41  1  0  0  0  0
 38 45  1  0  0  0  0
 39 47  1  0  0  0  0
 40 42  1  0  0  0  0
 40 49  1  0  0  0  0
 41 66  1  0  0  0  0
 42 67  1  0  0  0  0
 43 47  1  0  0  0  0
 43 66  1  0  0  0  0
 44 48  1  0  0  0  0
 44 67  1  0  0  0  0
 45 71  1  0  0  0  0
 46 65  1  0  0  0  0
 47 64  1  0  0  0  0
 48 49  1  0  0  0  0
 48 74  1  0  0  0  0
 49 57  1  0  0  0  0
 49 70  1  0  0  0  0
 50 60  1  0  0  0  0
 51 61  1  0  0  0  0
 52 62  1  0  0  0  0
 53 62  1  0  0  0  0
 54 62  1  0  0  0  0
 55 67  1  0  0  0  0
 56 75  1  0  0  0  0
 57 73  1  0  0  0  0
 58 61  1  0  0  0  0
 58 82  1  0  0  0  0
 59 62  1  0  0  0  0
 59 72  1  0  0  0  0
 60 75  1  0  0  0  0
 61 74  1  0  0  0  0
 63 64  1  0  0  0  0
M  CHG  2  74   1  75   1
M  ISO  4  32 100  58 101  73 100  82 101
M  END
> <Batch ID>
0190

> <Smiles>
CNC(C)C(=O)NC(C(=O)N1Cc2cc([101O:1][101CH2:1]C(C)NC3CN(C)CCC3(N)C[100NH:0][100C:0](=O)N3CCCC(n4nc(-c5ccc(Oc6ccc(F)cc6F)cc5)c(C(N)=O)c4N)C3)ccc2CC1C(=O)NC1CCCc2ccccc21)C(C)(C)C

> <Shape>
0.229

> <Color>
0.069

> <Negative vol penalty>
0.000

$$$$

  -OEChem-04052323243D

 79 88  0     1  0  0  0  0  0999 V2000
  -25.9202  -35.5946   22.6219 C   0  0  0  0  0  0  0  0  0  0  0  0
  -26.4890  -34.3307   22.5010 C   0  0  0  0  0  0  0  0  0  0  0  0
  -21.6981  -18.5884   23.1688 C   0  0  0  0  0  0  0  0  0  0  0  0
  -21.0372  -18.9807   20.8783 C   0  0  0  0  0  0  0  0  0  0  0  0
  -24.6149  -35.7281   23.0934 C   0  0  0  0  0  0  0  0  0  0  0  0
  -25.7531  -33.1997   22.8526 C   0  0  0  0  0  0  0  0  0  0  0  0
  -26.1692  -29.4753   19.4466 C   0  0  0  0  0  0  0  0  0  0  0  0
  -20.5491  -19.2431   23.6125 C   0  0  0  0  0  0  0  0  0  0  0  0
  -19.8881  -19.6354   21.3220 C   0  0  0  0  0  0  0  0  0  0  0  0
  -27.3375  -28.7149   19.4741 C   0  0  0  0  0  0  0  0  0  0  0  0
  -16.8463  -18.7853   22.5242 C   0  0  0  0  0  0  0  0  0  0  0  0
  -15.6405  -18.4715   21.8973 C   0  0  0  0  0  0  0  0  0  0  0  0
  -26.1731  -26.9806   20.6805 C   0  0  0  0  0  0  0  0  0  0  0  0
  -15.3921  -20.7775   21.2206 C   0  0  0  0  0  0  0  0  0  0  0  0
  -21.9422  -18.4573   21.8017 C   0  0  0  0  0  0  0  0  0  0  0  0
  -23.2727  -16.4088   21.0660 C   0  0  0  0  0  0  0  0  0  0  0  0
  -23.8593  -34.5974   23.4418 C   0  0  0  0  0  0  0  0  0  0  0  0
  -24.9950  -28.9979   20.0464 C   0  0  0  0  0  0  0  0  0  0  0  0
  -24.4369  -33.3183   23.3304 C   0  0  0  0  0  0  0  0  0  0  0  0
  -24.9906  -27.7357   20.6570 C   0  0  0  0  0  0  0  0  0  0  0  0
  -19.6441  -19.7665   22.6891 C   0  0  0  0  0  0  0  0  0  0  0  0
  -27.3403  -27.4686   20.0936 C   0  0  0  0  0  0  0  0  0  0  0  0
  -17.3250  -20.0953   22.4995 C   0  0  0  0  0  0  0  0  0  0  0  0
  -14.9134  -19.4675   21.2455 C   0  0  0  0  0  0  0  0  0  0  0  0
  -16.5979  -21.0913   21.8476 C   0  0  0  0  0  0  0  0  0  0  0  0
  -23.1292  -17.7816   21.3427 C   0  0  0  0  0  0  0  0  0  0  0  0
  -24.5794  -16.2742   20.6650 C   0  0  0  0  0  0  0  0  0  0  0  0
  -22.3107  -15.3500   21.1627 C   0  0  0  0  0  0  0  0  0  0  0  0
  -23.1325  -29.9813   22.4271 C   0  0  0  0  0  0  0  0  0  0  0  0
  -21.2573  -27.5177   21.4593 C   0  0  0  0  0  0  0  0  0  0  0  0
  -21.0208  -24.5087   19.8667 C   0  0  0  0  0  0  0  0  0  0  0  0
  -28.1418  -20.4005   18.3368 C   0  0  0  0  0  0  0  0  0  0  0  0
  -22.4687  -34.7948   23.9914 C   0  0  0  0  0  0  0  0  0  0  0  0
  -23.7360  -29.8187   19.9847 C   0  0  0  0  0  0  0  0  0  0  0  0
  -23.7509  -27.1691   21.2977 C   0  0  0  0  0  0  0  0  0  0  0  0
  -21.6261  -33.5219   23.9880 C   0  0  0  0  0  0  0  0  0  0  0  0
  -28.7922  -18.2508   21.2960 C   0  0  0  0  0  0  0  0  0  0  0  0
  -22.4281  -32.3493   24.5434 C   0  0  0  0  0  0  0  0  0  0  0  0
  -27.3773  -17.7985   21.6338 C   0  0  0  0  0  0  0  0  0  0  0  0
  -27.9644  -23.2742   16.9488 C   0  0  0  0  0  0  0  0  0  0  0  0
  -28.8285  -19.6501   20.6806 C   0  0  0  0  0  0  0  0  0  0  0  0
  -26.5093  -19.3436   19.8476 C   0  0  0  0  0  0  0  0  0  0  0  0
  -29.9035  -22.1364   19.2243 C   0  0  0  0  0  0  0  0  0  0  0  0
  -28.4015  -24.6845   17.3020 C   0  0  0  0  0  0  0  0  0  0  0  0
  -23.6620  -32.0658   23.6782 C   0  0  1  0  0  0  0  0  0  0  0  0
  -22.7334  -29.4578   21.0764 C   0  0  1  0  0  0  0  0  0  0  0  0
  -26.4756  -17.9115   20.3976 C   0  0  2  0  0  0  0  0  0  0  0  0
  -29.1993  -22.4306   17.2147 C   0  0  1  0  0  0  0  0  0  0  0  0
  -30.0347  -23.2624   18.1957 C   0  0  1  0  0  0  0  0  0  0  0  0
  -19.3641  -22.7210   19.2690 C   0  0  0  0  0  0  0  0  0  0  0  0
  -21.3047  -26.5140   24.3403 C   0  0  0  0  0  0  0  0  0  0  0  0
  -20.4755  -24.3024   23.5100 C   0  0  0  0  0  0  0  0  0  0  0  0
  -19.0780  -26.3474   23.2141 C   0  0  0  0  0  0  0  0  0  0  0  0
  -21.4748  -24.8948   16.9677 C   0  0  0  0  0  0  0  0  0  0  0  0
  -30.1857  -25.6105   18.8389 C   0  0  0  0  0  0  0  0  0  0  0  0
  -29.3890  -26.8851   19.0362 C   0  0  0  0  0  0  0  0  0  1  0  0
  -21.1559  -26.0516   21.8046 C   0  0  1  0  0  0  0  0  0  0  0  0
  -20.0519  -23.9991   18.8149 C   0  0  2  0  0  0  0  0  0  0  0  0
  -20.5275  -25.8151   23.2070 C   0  0  0  0  0  0  0  0  0  0  0  0
  -24.2549  -18.4699   21.1352 N   0  0  0  0  0  0  0  0  0  0  0  0
  -25.1183  -17.5257   20.7239 N   0  0  0  0  0  0  0  0  0  0  0  0
  -22.5467  -28.0122   21.2169 N   0  0  0  0  0  0  0  0  0  0  0  0
  -27.8774  -19.8039   19.5745 N   0  0  0  0  0  0  0  0  0  0  0  0
  -29.0420  -21.4418   18.2806 N   0  0  0  0  0  0  0  0  0  0  0  0
  -25.3086  -15.2085   20.2713 N   0  0  0  0  0  0  0  0  0  0  0  0
  -21.0136  -15.6629   21.5913 N   0  0  0  0  0  0  0  0  0  0  0  0
  -23.2839  -31.3539   22.4763 N   0  0  0  0  0  0  0  0  0  0  0  0
  -20.4254  -25.4238   20.7089 N   0  0  0  0  0  0  0  0  0  0  0  0
  -29.2544  -24.4928   18.5246 N   0  3  1  0  0  0  0  0  0  0  0  0
  -20.7716  -23.7182   17.5405 N   0  3  0  0  0  0  0  0  0  0  0  0
  -22.5977  -14.1590   20.8931 O   0  0  0  0  0  0  0  0  0  0  0  0
  -23.2900  -29.1980   23.3563 O   0  0  0  0  0  0  0  0  0  0  0  0
  -20.2297  -28.1974   21.3997 O   0  0  0  0  0  0  0  0  0  0  0  0
  -22.1879  -24.1298   19.9366 O   0  0  0  0  0  0  0  0  0  0  0  0
  -27.5529  -20.0421   17.3072 O   0  0  0  0  0  0  0  0  0  0  0  0
  -18.5227  -20.4052   23.1217 O   0  0  0  0  0  0  0  0  0  0  0  0
  -28.4876  -26.7193   20.1227 O   0  0  0  0  0  0  0  0  0  1  0  0
  -13.7563  -19.1656   20.6421 F   0  0  0  0  0  0  0  0  0  0  0  0
  -17.0533  -22.3513   21.8194 F   0  0  0  0  0  0  0  0  0  0  0  0
  1  2  1  0  0  0  0
  1  5  2  0  0  0  0
  2  6  2  0  0  0  0
  3  8  2  0  0  0  0
  3 15  1  0  0  0  0
  4  9  1  0  0  0  0
  4 15  2  0  0  0  0
  5 17  1  0  0  0  0
  6 19  1  0  0  0  0
  7 10  2  0  0  0  0
  7 18  1  0  0  0  0
  8 21  1  0  0  0  0
  9 21  2  0  0  0  0
 10 22  1  0  0  0  0
 11 12  2  0  0  0  0
 11 23  1  0  0  0  0
 12 24  1  0  0  0  0
 13 20  1  0  0  0  0
 13 22  2  0  0  0  0
 14 24  2  0  0  0  0
 14 25  1  0  0  0  0
 15 26  1  0  0  0  0
 16 26  1  0  0  0  0
 16 27  2  0  0  0  0
 16 28  1  0  0  0  0
 17 19  2  0  0  0  0
 17 33  1  0  0  0  0
 18 20  2  0  0  0  0
 18 34  1  0  0  0  0
 19 45  1  0  0  0  0
 20 35  1  0  0  0  0
 21 76  1  0  0  0  0
 22 77  1  0  0  0  0
 23 25  2  0  0  0  0
 23 76  1  0  0  0  0
 24 78  1  0  0  0  0
 25 79  1  0  0  0  0
 26 60  2  0  0  0  0
 27 61  1  0  0  0  0
 27 65  1  0  0  0  0
 28 66  1  0  0  0  0
 28 71  2  0  0  0  0
 29 46  1  0  0  0  0
 29 67  1  0  0  0  0
 29 72  2  0  0  0  0
 30 57  1  0  0  0  0
 30 62  1  0  0  0  0
 30 73  2  0  0  0  0
 31 58  1  0  0  0  0
 31 68  1  0  0  0  0
 31 74  2  0  0  0  0
 32 63  1  0  0  0  0
 32 64  1  0  0  0  0
 32 75  2  0  0  0  0
 33 36  1  0  0  0  0
 34 46  1  0  0  0  0
 35 62  1  0  0  0  0
 36 38  1  0  0  0  0
 37 39  1  0  0  0  0
 37 41  1  0  0  0  0
 38 45  1  0  0  0  0
 39 47  1  0  0  0  0
 40 44  1  0  0  0  0
 40 48  1  0  0  0  0
 41 63  1  0  0  0  0
 42 47  1  0  0  0  0
 42 63  1  0  0  0  0
 43 49  1  0  0  0  0
 43 64  1  0  0  0  0
 44 69  1  0  0  0  0
 45 67  1  0  0  0  0
 46 62  1  0  0  0  0
 47 61  1  0  0  0  0
 48 49  1  0  0  0  0
 48 64  1  0  0  0  0
 49 69  1  0  0  0  0
 50 58  1  0  0  0  0
 51 59  1  0  0  0  0
 52 59  1  0  0  0  0
 53 59  1  0  0  0  0
 54 70  1  0  0  0  0
 55 56  1  0  0  0  0
 55 69  1  0  0  0  0
 56 77  1  0  0  0  0
 57 59  1  0  0  0  0
 57 68  1  0  0  0  0
 58 70  1  0  0  0  0
 60 61  1  0  0  0  0
M  CHG  2  69   1  70   1
M  ISO  4  32 100  56 101  64 100  77 101
M  END
> <Batch ID>
0190

> <Smiles>
CNC(C)C(=O)NC(C(=O)N1Cc2cc([101O:1][101CH2:1]CN3CCC4C3C[100N:0]4[100C:0](=O)N3CCCC(n4nc(-c5ccc(Oc6ccc(F)cc6F)cc5)c(C(N)=O)c4N)C3)ccc2CC1C(=O)NC1CCCc2ccccc21)C(C)(C)C

> <Shape>
0.206

> <Color>
0.103

> <Negative vol penalty>
0.000

$$$$

  -OEChem-04052323243D

 86 95  0     1  0  0  0  0  0999 V2000
  -17.3250  -25.1227   21.0827 C   0  0  0  0  0  0  0  0  0  0  0  0
  -18.5405  -24.4881   21.3180 C   0  0  0  0  0  0  0  0  0  0  0  0
  -23.1380   -9.7700   21.3963 C   0  0  0  0  0  0  0  0  0  0  0  0
  -23.8837  -10.6342   23.5257 C   0  0  0  0  0  0  0  0  0  0  0  0
  -17.1661  -26.4674   21.4151 C   0  0  0  0  0  0  0  0  0  0  0  0
  -19.5982  -25.1982   21.8850 C   0  0  0  0  0  0  0  0  0  0  0  0
  -23.8259  -23.0406   25.7550 C   0  0  0  0  0  0  0  0  0  0  0  0
  -22.4431   -8.7538   22.0520 C   0  0  0  0  0  0  0  0  0  0  0  0
  -23.1888   -9.6180   24.1814 C   0  0  0  0  0  0  0  0  0  0  0  0
  -25.1331  -22.5956   25.5632 C   0  0  0  0  0  0  0  0  0  0  0  0
  -23.1564   -5.7899   23.5118 C   0  0  0  0  0  0  0  0  0  0  0  0
  -23.2730   -4.4953   23.0060 C   0  0  0  0  0  0  0  0  0  0  0  0
  -25.9589  -24.7806   26.1659 C   0  0  0  0  0  0  0  0  0  0  0  0
  -20.8856   -4.4223   22.6424 C   0  0  0  0  0  0  0  0  0  0  0  0
  -29.4601  -18.3616   21.0971 C   0  0  0  0  0  0  0  0  0  0  0  0
  -23.8584  -10.7102   22.1331 C   0  0  0  0  0  0  0  0  0  0  0  0
  -24.0916  -13.0349   21.1090 C   0  0  0  0  0  0  0  0  0  0  0  0
  -18.2193  -27.1918   21.9954 C   0  0  0  0  0  0  0  0  0  0  0  0
  -23.5744  -24.3642   26.1438 C   0  0  0  0  0  0  0  0  0  0  0  0
  -19.4536  -26.5542   22.2243 C   0  0  0  0  0  0  0  0  0  0  0  0
  -24.6476  -25.2391   26.3645 C   0  0  0  0  0  0  0  0  0  0  0  0
  -22.4685   -8.6778   23.4446 C   0  0  0  0  0  0  0  0  0  0  0  0
  -26.1998  -23.4665   25.7658 C   0  0  0  0  0  0  0  0  0  0  0  0
  -21.9044   -6.4007   23.5831 C   0  0  0  0  0  0  0  0  0  0  0  0
  -22.1376   -3.8115   22.5712 C   0  0  0  0  0  0  0  0  0  0  0  0
  -20.7690   -5.7170   23.1484 C   0  0  0  0  0  0  0  0  0  0  0  0
  -24.5768  -11.7599   21.4563 C   0  0  0  0  0  0  0  0  0  0  0  0
  -29.9258  -19.6587   21.0273 C   0  0  0  0  0  0  0  0  0  0  0  0
  -30.3118  -17.3941   20.6042 C   0  0  0  0  0  0  0  0  0  0  0  0
  -25.1525  -13.6489   20.4892 C   0  0  0  0  0  0  0  0  0  0  0  0
  -31.8666  -18.9637   20.0695 C   0  0  0  0  0  0  0  0  0  0  0  0
  -22.7977  -13.6127   21.3271 C   0  0  0  0  0  0  0  0  0  0  0  0
  -22.0371  -26.8281   24.8517 C   0  0  0  0  0  0  0  0  0  0  0  0
  -22.6678  -28.2210   27.7126 C   0  0  0  0  0  0  0  0  0  0  0  0
  -24.6255  -28.3459   30.5052 C   0  0  0  0  0  0  0  0  0  0  0  0
  -30.5674  -14.9175   20.2203 C   0  0  0  0  0  0  0  0  0  0  0  0
  -18.0153  -28.6559   22.2941 C   0  0  0  0  0  0  0  0  0  0  0  0
  -22.1597  -24.8211   26.3725 C   0  0  0  0  0  0  0  0  0  0  0  0
  -24.4320  -26.6641   26.8021 C   0  0  0  0  0  0  0  0  0  0  0  0
  -19.0659  -29.2375   23.2365 C   0  0  0  0  0  0  0  0  0  0  0  0
  -29.5718  -11.7682   18.8908 C   0  0  0  0  0  0  0  0  0  0  0  0
  -27.9579  -22.9535   20.9051 C   0  0  0  0  0  0  0  0  0  0  0  0
  -20.4651  -28.8092   22.8056 C   0  0  0  0  0  0  0  0  0  0  0  0
  -28.7473  -21.7520   20.3925 C   0  0  0  0  0  0  0  0  0  0  0  0
  -28.1436  -11.5902   19.4111 C   0  0  0  0  0  0  0  0  0  0  0  0
  -30.4693  -12.4527   19.9202 C   0  0  0  0  0  0  0  0  0  0  0  0
  -28.5249  -13.5444   20.9676 C   0  0  0  0  0  0  0  0  0  0  0  0
  -28.6740  -23.6504   22.0525 C   0  0  0  0  0  0  0  0  0  0  0  0
  -29.7895  -21.4936   22.6856 C   0  0  0  0  0  0  0  0  0  0  0  0
  -20.6166  -27.2842   22.8605 C   0  0  1  0  0  0  0  0  0  0  0  0
  -29.0724  -20.7766   21.5350 C   0  0  2  0  0  0  0  0  0  0  0  0
  -21.9967  -26.3345   26.2703 C   0  0  1  0  0  0  0  0  0  0  0  0
  -27.5673  -12.9178   19.9410 C   0  0  2  0  0  0  0  0  0  0  0  0
  -33.2040  -19.2977   19.5006 C   0  0  0  0  0  0  0  0  0  0  0  0
  -24.9189  -29.6152   32.6500 C   0  0  0  0  0  0  0  0  0  0  0  0
  -23.9164  -30.5374   26.1681 C   0  0  0  0  0  0  0  0  0  0  0  0
  -25.0082  -31.2766   28.2965 C   0  0  0  0  0  0  0  0  0  0  0  0
  -22.5201  -31.2218   28.1268 C   0  0  0  0  0  0  0  0  0  0  0  0
  -24.1602  -25.9221   32.1385 C   0  0  0  0  0  0  0  0  0  0  0  0
  -29.5354  -23.3182   24.3686 C   0  0  0  0  0  0  0  0  0  0  0  0
  -28.4339  -24.0038   25.1527 C   0  0  0  0  0  0  0  0  0  1  0  0
  -23.8006  -29.0468   28.2730 C   0  0  1  0  0  0  0  0  0  0  0  0
  -24.2730  -28.4123   31.9803 C   0  0  2  0  0  0  0  0  0  0  0  0
  -23.8156  -30.4944   27.7060 C   0  0  0  0  0  0  0  0  0  0  0  0
  -25.8470  -11.5735   21.0877 N   0  0  0  0  0  0  0  0  0  0  0  0
  -31.1285  -19.9970   20.5178 N   0  0  0  0  0  0  0  0  0  0  0  0
  -31.5266  -17.6607   20.0812 N   0  0  0  0  0  0  0  0  0  0  0  0
  -26.1689  -12.7396   20.5022 N   0  0  0  0  0  0  0  0  0  0  0  0
  -23.0303  -27.0653   27.0063 N   0  0  0  0  0  0  0  0  0  0  0  0
  -29.8613  -13.7056   20.3735 N   0  0  0  0  0  0  0  0  0  0  0  0
  -25.3057  -14.8725   19.9398 N   0  0  0  0  0  0  0  0  0  0  0  0
  -21.8240  -12.8440   21.9792 N   0  0  0  0  0  0  0  0  0  0  0  0
  -29.8761  -16.0469   20.6575 N   0  0  0  0  0  0  0  0  0  0  0  0
  -20.8051  -26.8438   24.2261 N   0  0  0  0  0  0  0  0  0  0  0  0
  -23.6785  -28.9750   29.7250 N   0  0  0  0  0  0  0  0  0  0  0  0
  -28.9502  -22.6637   23.1713 N   0  3  1  0  0  0  0  0  0  0  0  0
  -24.7359  -27.1802   32.6794 N   0  3  0  0  0  0  0  0  0  0  0  0
  -22.5083  -14.7703   20.9401 O   0  0  0  0  0  0  0  0  0  0  0  0
  -23.1067  -27.1709   24.3615 O   0  0  0  0  0  0  0  0  0  0  0  0
  -21.5041  -28.5841   27.9008 O   0  0  0  0  0  0  0  0  0  0  0  0
  -25.6413  -27.7947   30.0872 O   0  0  0  0  0  0  0  0  0  0  0  0
  -31.6909  -14.9542   19.7118 O   0  0  0  0  0  0  0  0  0  0  0  0
  -21.7904   -7.6864   24.0848 O   0  0  0  0  0  0  0  0  0  0  0  0
  -27.4767  -23.0349   25.5786 O   0  0  0  0  0  0  0  0  0  1  0  0
  -22.2499   -2.5688   22.0840 F   0  0  0  0  0  0  0  0  0  0  0  0
  -19.5637   -6.2990   23.2132 F   0  0  0  0  0  0  0  0  0  0  0  0
  1  2  1  0  0  0  0
  1  5  2  0  0  0  0
  2  6  2  0  0  0  0
  3  8  2  0  0  0  0
  3 16  1  0  0  0  0
  4  9  1  0  0  0  0
  4 16  2  0  0  0  0
  5 18  1  0  0  0  0
  6 20  1  0  0  0  0
  7 10  2  0  0  0  0
  7 19  1  0  0  0  0
  8 22  1  0  0  0  0
  9 22  2  0  0  0  0
 10 23  1  0  0  0  0
 11 12  2  0  0  0  0
 11 24  1  0  0  0  0
 12 25  1  0  0  0  0
 13 21  1  0  0  0  0
 13 23  2  0  0  0  0
 14 25  2  0  0  0  0
 14 26  1  0  0  0  0
 15 28  1  0  0  0  0
 15 29  2  0  0  0  0
 16 27  1  0  0  0  0
 17 27  1  0  0  0  0
 17 30  2  0  0  0  0
 17 32  1  0  0  0  0
 18 20  2  0  0  0  0
 18 37  1  0  0  0  0
 19 21  2  0  0  0  0
 19 38  1  0  0  0  0
 20 50  1  0  0  0  0
 21 39  1  0  0  0  0
 22 83  1  0  0  0  0
 23 84  1  0  0  0  0
 24 26  2  0  0  0  0
 24 83  1  0  0  0  0
 25 85  1  0  0  0  0
 26 86  1  0  0  0  0
 27 65  2  0  0  0  0
 28 51  1  0  0  0  0
 28 66  2  0  0  0  0
 29 67  1  0  0  0  0
 29 73  1  0  0  0  0
 30 68  1  0  0  0  0
 30 71  1  0  0  0  0
 31 54  1  0  0  0  0
 31 66  1  0  0  0  0
 31 67  2  0  0  0  0
 32 72  1  0  0  0  0
 32 78  2  0  0  0  0
 33 52  1  0  0  0  0
 33 74  1  0  0  0  0
 33 79  2  0  0  0  0
 34 62  1  0  0  0  0
 34 69  1  0  0  0  0
 34 80  2  0  0  0  0
 35 63  1  0  0  0  0
 35 75  1  0  0  0  0
 35 81  2  0  0  0  0
 36 70  1  0  0  0  0
 36 73  1  0  0  0  0
 36 82  2  0  0  0  0
 37 40  1  0  0  0  0
 38 52  1  0  0  0  0
 39 69  1  0  0  0  0
 40 43  1  0  0  0  0
 41 45  1  0  0  0  0
 41 46  1  0  0  0  0
 42 44  1  0  0  0  0
 42 48  1  0  0  0  0
 43 50  1  0  0  0  0
 44 51  1  0  0  0  0
 45 53  1  0  0  0  0
 46 70  1  0  0  0  0
 47 53  1  0  0  0  0
 47 70  1  0  0  0  0
 48 76  1  0  0  0  0
 49 51  1  0  0  0  0
 49 76  1  0  0  0  0
 50 74  1  0  0  0  0
 52 69  1  0  0  0  0
 53 68  1  0  0  0  0
 55 63  1  0  0  0  0
 56 64  1  0  0  0  0
 57 64  1  0  0  0  0
 58 64  1  0  0  0  0
 59 77  1  0  0  0  0
 60 61  1  0  0  0  0
 60 76  1  0  0  0  0
 61 84  1  0  0  0  0
 62 64  1  0  0  0  0
 62 75  1  0  0  0  0
 63 77  1  0  0  0  0
 65 68  1  0  0  0  0
M  CHG  2  76   1  77   1
M  ISO  4  36 100  61 101  73 100  84 101
M  END
> <Batch ID>
0190

> <Smiles>
CNC(C)C(=O)NC(C(=O)N1Cc2cc([101O:1][101CH2:1]CN3CCCC(c4cc([100NH:0][100C:0](=O)N5CCCC(n6nc(-c7ccc(Oc8ccc(F)cc8F)cc7)c(C(N)=O)c6N)C5)nc(C)n4)C3)ccc2CC1C(=O)NC1CCCc2ccccc21)C(C)(C)C

> <Shape>
0.247

> <Color>
0.169

> <Negative vol penalty>
0.000

$$$$

  -OEChem-04052323243D

 80 89  0     1  0  0  0  0  0999 V2000
  -27.7526  -36.8489   17.5120 C   0  0  0  0  0  0  0  0  0  0  0  0
  -28.1881  -35.5293   17.4457 C   0  0  0  0  0  0  0  0  0  0  0  0
  -23.6146  -10.0229   22.2856 C   0  0  0  0  0  0  0  0  0  0  0  0
  -23.3792   -9.7687   19.8945 C   0  0  0  0  0  0  0  0  0  0  0  0
  -27.0198  -37.2853   18.6150 C   0  0  0  0  0  0  0  0  0  0  0  0
  -27.8919  -34.6456   18.4828 C   0  0  0  0  0  0  0  0  0  0  0  0
  -26.4529  -27.7321   19.6867 C   0  0  0  0  0  0  0  0  0  0  0  0
  -22.7317   -8.9618   22.4854 C   0  0  0  0  0  0  0  0  0  0  0  0
  -22.4962   -8.7075   20.0943 C   0  0  0  0  0  0  0  0  0  0  0  0
  -26.8710  -26.6680   20.4846 C   0  0  0  0  0  0  0  0  0  0  0  0
  -22.8331   -5.5836   22.3819 C   0  0  0  0  0  0  0  0  0  0  0  0
  -23.1796   -4.6220   23.3310 C   0  0  0  0  0  0  0  0  0  0  0  0
  -25.5303  -27.5127   22.3034 C   0  0  0  0  0  0  0  0  0  0  0  0
  -21.1678   -5.1219   24.5720 C   0  0  0  0  0  0  0  0  0  0  0  0
  -23.9384  -10.4264   20.9901 C   0  0  0  0  0  0  0  0  0  0  0  0
  -26.2499  -11.4515   20.6526 C   0  0  0  0  0  0  0  0  0  0  0  0
  -26.7062  -36.4040   19.6616 C   0  0  0  0  0  0  0  0  0  0  0  0
  -25.5774  -28.7021   20.1956 C   0  0  0  0  0  0  0  0  0  0  0  0
  -27.1554  -35.0709   19.6014 C   0  0  0  0  0  0  0  0  0  0  0  0
  -25.1005  -28.5868   21.5091 C   0  0  0  0  0  0  0  0  0  0  0  0
  -22.1725   -8.3041   21.3898 C   0  0  0  0  0  0  0  0  0  0  0  0
  -26.4120  -26.5597   21.7941 C   0  0  0  0  0  0  0  0  0  0  0  0
  -21.6540   -6.3145   22.5279 C   0  0  0  0  0  0  0  0  0  0  0  0
  -22.3470   -4.3911   24.4260 C   0  0  0  0  0  0  0  0  0  0  0  0
  -20.8214   -6.0836   23.6229 C   0  0  0  0  0  0  0  0  0  0  0  0
  -24.8500  -11.5229   20.7831 C   0  0  0  0  0  0  0  0  0  0  0  0
  -26.6450  -12.7548   20.4743 C   0  0  0  0  0  0  0  0  0  0  0  0
  -27.1156  -10.3093   20.6893 C   0  0  0  0  0  0  0  0  0  0  0  0
  -25.7504  -31.8354   20.7017 C   0  0  0  0  0  0  0  0  0  0  0  0
  -22.6144  -31.4927   21.4569 C   0  0  0  0  0  0  0  0  0  0  0  0
  -20.0959  -29.4470   22.5149 C   0  0  0  0  0  0  0  0  0  0  0  0
  -26.2169  -18.0350   22.2711 C   0  0  0  0  0  0  0  0  0  0  0  0
  -25.9521  -36.9338   20.8555 C   0  0  0  0  0  0  0  0  0  0  0  0
  -25.1148  -29.8292   19.3135 C   0  0  0  0  0  0  0  0  0  0  0  0
  -24.1436  -29.5906   22.0964 C   0  0  0  0  0  0  0  0  0  0  0  0
  -25.3590  -35.8376   21.7369 C   0  0  0  0  0  0  0  0  0  0  0  0
  -23.9417  -16.9272   19.5598 C   0  0  0  0  0  0  0  0  0  0  0  0
  -26.3928  -34.7475   22.0013 C   0  0  0  0  0  0  0  0  0  0  0  0
  -24.0685  -15.4067   19.6641 C   0  0  0  0  0  0  0  0  0  0  0  0
  -26.8698  -21.1817   20.4869 C   0  0  0  0  0  0  0  0  0  0  0  0
  -28.6837  -24.3878   23.5940 C   0  0  0  0  0  0  0  0  0  0  0  0
  -24.1254  -17.5840   20.9217 C   0  0  0  0  0  0  0  0  0  0  0  0
  -26.0136  -19.9206   20.5456 C   0  0  0  0  0  0  0  0  0  0  0  0
  -25.5447  -15.7278   21.7072 C   0  0  0  0  0  0  0  0  0  0  0  0
  -26.9194  -20.3684   22.7269 C   0  0  0  0  0  0  0  0  0  0  0  0
  -27.9890  -23.0436   23.6778 C   0  0  0  0  0  0  0  0  0  0  0  0
  -28.0166  -23.8158   21.3534 C   0  0  0  0  0  0  0  0  0  0  0  0
  -26.8328  -34.0758   20.6949 C   0  0  1  0  0  0  0  0  0  0  0  0
  -24.6256  -31.0414   20.1001 C   0  0  1  0  0  0  0  0  0  0  0  0
  -25.3821  -15.0039   20.3588 C   0  0  1  0  0  0  0  0  0  0  0  0
  -26.8203  -21.6571   21.9313 C   0  0  1  0  0  0  0  0  0  0  0  0
  -28.1170  -24.9868   22.3184 C   0  0  1  0  0  0  0  0  0  1  0  0
  -17.6495  -29.4615   23.0735 C   0  0  0  0  0  0  0  0  0  0  0  0
  -23.2299  -32.8768   24.1056 C   0  0  0  0  0  0  0  0  0  0  0  0
  -21.0440  -32.0243   24.9791 C   0  0  0  0  0  0  0  0  0  0  0  0
  -21.0844  -33.5841   23.0328 C   0  0  0  0  0  0  0  0  0  0  0  0
  -19.4823  -27.4715   20.3984 C   0  0  0  0  0  0  0  0  0  0  0  0
  -21.8457  -31.1934   22.7213 C   0  0  1  0  0  0  0  0  0  0  0  0
  -18.6891  -29.2265   21.9888 C   0  0  2  0  0  0  0  0  0  0  0  0
  -21.8205  -32.4016   23.6996 C   0  0  0  0  0  0  0  0  0  0  0  0
  -24.3870  -12.7727   20.6953 N   0  0  0  0  0  0  0  0  0  0  0  0
  -25.5023  -13.4987   20.5078 N   0  0  0  0  0  0  0  0  0  0  0  0
  -23.7254  -30.6781   21.1964 N   0  0  0  0  0  0  0  0  0  0  0  0
  -25.3888  -17.1746   21.5414 N   0  0  0  0  0  0  0  0  0  0  0  0
  -26.2567  -19.3739   21.8847 N   0  0  0  0  0  0  0  0  0  0  0  0
  -27.8549  -13.3256   20.2937 N   0  0  0  0  0  0  0  0  0  0  0  0
  -26.5444   -9.0438   20.8809 N   0  0  0  0  0  0  0  0  0  0  0  0
  -25.8268  -33.1375   20.2454 N   0  0  0  0  0  0  0  0  0  0  0  0
  -20.5254  -30.7393   22.2985 N   0  0  0  0  0  0  0  0  0  0  0  0
  -27.9373  -22.5664   22.2353 N   0  3  2  0  0  0  0  0  0  0  0  0
  -18.5368  -27.8318   21.4861 N   0  3  0  0  0  0  0  0  0  0  0  0
  -28.3606  -10.4096   20.5725 O   0  0  0  0  0  0  0  0  0  0  0  0
  -26.4930  -31.3064   21.5205 O   0  0  0  0  0  0  0  0  0  0  0  0
  -22.2386  -32.4108   20.7237 O   0  0  0  0  0  0  0  0  0  0  0  0
  -20.7472  -28.5625   23.0662 O   0  0  0  0  0  0  0  0  0  0  0  0
  -26.9264  -17.6165   23.1955 O   0  0  0  0  0  0  0  0  0  0  0  0
  -21.3111   -7.2684   21.5844 O   0  0  0  0  0  0  0  0  0  0  0  0
  -26.8218  -25.5156   22.5803 O   0  0  0  0  0  0  0  0  0  1  0  0
  -22.6790   -3.4665   25.3365 F   0  0  0  0  0  0  0  0  0  0  0  0
  -19.6868   -6.7818   23.7679 F   0  0  0  0  0  0  0  0  0  0  0  0
  1  2  1  0  0  0  0
  1  5  2  0  0  0  0
  2  6  2  0  0  0  0
  3  8  2  0  0  0  0
  3 15  1  0  0  0  0
  4  9  1  0  0  0  0
  4 15  2  0  0  0  0
  5 17  1  0  0  0  0
  6 19  1  0  0  0  0
  7 10  2  0  0  0  0
  7 18  1  0  0  0  0
  8 21  1  0  0  0  0
  9 21  2  0  0  0  0
 10 22  1  0  0  0  0
 11 12  2  0  0  0  0
 11 23  1  0  0  0  0
 12 24  1  0  0  0  0
 13 20  1  0  0  0  0
 13 22  2  0  0  0  0
 14 24  2  0  0  0  0
 14 25  1  0  0  0  0
 15 26  1  0  0  0  0
 16 26  1  0  0  0  0
 16 27  2  0  0  0  0
 16 28  1  0  0  0  0
 17 19  2  0  0  0  0
 17 33  1  0  0  0  0
 18 20  2  0  0  0  0
 18 34  1  0  0  0  0
 19 48  1  0  0  0  0
 20 35  1  0  0  0  0
 21 77  1  0  0  0  0
 22 78  1  0  0  0  0
 23 25  2  0  0  0  0
 23 77  1  0  0  0  0
 24 79  1  0  0  0  0
 25 80  1  0  0  0  0
 26 61  2  0  0  0  0
 27 62  1  0  0  0  0
 27 66  1  0  0  0  0
 28 67  1  0  0  0  0
 28 72  2  0  0  0  0
 29 49  1  0  0  0  0
 29 68  1  0  0  0  0
 29 73  2  0  0  0  0
 30 58  1  0  0  0  0
 30 63  1  0  0  0  0
 30 74  2  0  0  0  0
 31 59  1  0  0  0  0
 31 69  1  0  0  0  0
 31 75  2  0  0  0  0
 32 64  1  0  0  0  0
 32 65  1  0  0  0  0
 32 76  2  0  0  0  0
 33 36  1  0  0  0  0
 34 49  1  0  0  0  0
 35 63  1  0  0  0  0
 36 38  1  0  0  0  0
 37 39  1  0  0  0  0
 37 42  1  0  0  0  0
 38 48  1  0  0  0  0
 39 50  1  0  0  0  0
 40 43  1  0  0  0  0
 40 51  1  0  0  0  0
 41 46  1  0  0  0  0
 41 52  1  0  0  0  0
 42 64  1  0  0  0  0
 43 65  1  0  0  0  0
 44 50  1  0  0  0  0
 44 64  1  0  0  0  0
 45 51  1  0  0  0  0
 45 65  1  0  0  0  0
 46 70  1  0  0  0  0
 47 52  1  0  0  0  0
 47 70  1  0  0  0  0
 48 68  1  0  0  0  0
 49 63  1  0  0  0  0
 50 62  1  0  0  0  0
 51 70  1  0  0  0  0
 52 78  1  0  0  0  0
 53 59  1  0  0  0  0
 54 60  1  0  0  0  0
 55 60  1  0  0  0  0
 56 60  1  0  0  0  0
 57 71  1  0  0  0  0
 58 60  1  0  0  0  0
 58 69  1  0  0  0  0
 59 71  1  0  0  0  0
 61 62  1  0  0  0  0
M  CHG  2  70   1  71   1
M  ISO  4  32 100  52 101  65 100  78 101
M  END
> <Batch ID>
0190

> <Smiles>
CNC(C)C(=O)NC(C(=O)N1Cc2cc([101O:1][101CH:1]3CCN(C4CC[100N:0]([100C:0](=O)N5CCCC(n6nc(-c7ccc(Oc8ccc(F)cc8F)cc7)c(C(N)=O)c6N)C5)C4)C3)ccc2CC1C(=O)NC1CCCc2ccccc21)C(C)(C)C

> <Shape>
0.236

> <Color>
0.091

> <Negative vol penalty>
0.000

$$$$

  -OEChem-04052323243D

 82 90  0     1  0  0  0  0  0999 V2000
  -22.8658  -23.6649   21.6467 C   0  0  0  0  0  0  0  0  0  0  0  0
  -24.0446  -22.9277   21.6949 C   0  0  0  0  0  0  0  0  0  0  0  0
  -24.6978  -29.2444   22.5273 C   0  0  0  0  0  0  0  0  0  0  0  0
  -24.8960  -30.7365   20.6375 C   0  0  0  0  0  0  0  0  0  0  0  0
  -21.6572  -23.0691   22.0048 C   0  0  0  0  0  0  0  0  0  0  0  0
  -24.0156  -21.5944   22.1022 C   0  0  0  0  0  0  0  0  0  0  0  0
  -26.8031  -18.5925   19.1249 C   0  0  0  0  0  0  0  0  0  0  0  0
  -24.3035  -30.3142   23.3307 C   0  0  0  0  0  0  0  0  0  0  0  0
  -24.5017  -31.8064   21.4409 C   0  0  0  0  0  0  0  0  0  0  0  0
  -28.1842  -18.6129   19.3144 C   0  0  0  0  0  0  0  0  0  0  0  0
  -23.8950  -34.9938   23.0787 C   0  0  0  0  0  0  0  0  0  0  0  0
  -24.6167  -36.1829   22.9750 C   0  0  0  0  0  0  0  0  0  0  0  0
  -28.0319  -16.5764   20.5985 C   0  0  0  0  0  0  0  0  0  0  0  0
  -26.6249  -35.0231   23.6527 C   0  0  0  0  0  0  0  0  0  0  0  0
  -24.9941  -29.4555   21.1806 C   0  0  0  0  0  0  0  0  0  0  0  0
  -24.5704  -27.5035   19.5939 C   0  0  0  0  0  0  0  0  0  0  0  0
  -21.6120  -21.7250   22.4074 C   0  0  0  0  0  0  0  0  0  0  0  0
  -26.0234  -17.5682   19.6809 C   0  0  0  0  0  0  0  0  0  0  0  0
  -22.8055  -20.9804   22.4672 C   0  0  0  0  0  0  0  0  0  0  0  0
  -26.6414  -16.5440   20.4124 C   0  0  0  0  0  0  0  0  0  0  0  0
  -24.2054  -31.5952   22.7875 C   0  0  0  0  0  0  0  0  0  0  0  0
  -28.7985  -17.6063   20.0537 C   0  0  0  0  0  0  0  0  0  0  0  0
  -24.5382  -33.8193   23.4694 C   0  0  0  0  0  0  0  0  0  0  0  0
  -25.9817  -36.1975   23.2620 C   0  0  0  0  0  0  0  0  0  0  0  0
  -25.9031  -33.8340   23.7564 C   0  0  0  0  0  0  0  0  0  0  0  0
  -25.4021  -28.3508   20.3504 C   0  0  0  0  0  0  0  0  0  0  0  0
  -25.4351  -26.6242   18.9892 C   0  0  0  0  0  0  0  0  0  0  0  0
  -23.1439  -27.5107   19.4505 C   0  0  0  0  0  0  0  0  0  0  0  0
  -23.6639  -17.4476   21.8075 C   0  0  0  0  0  0  0  0  0  0  0  0
  -23.5780  -14.3191   20.9544 C   0  0  0  0  0  0  0  0  0  0  0  0
  -25.2206  -11.6238   19.6568 C   0  0  0  0  0  0  0  0  0  0  0  0
  -30.4004  -23.9407   20.4630 C   0  0  0  0  0  0  0  0  0  0  0  0
  -20.2887  -21.1380   22.8303 C   0  0  0  0  0  0  0  0  0  0  0  0
  -24.5380  -17.5460   19.4448 C   0  0  0  0  0  0  0  0  0  0  0  0
  -25.8518  -15.4108   21.0131 C   0  0  0  0  0  0  0  0  0  0  0  0
  -20.2907  -19.6127   22.8916 C   0  0  0  0  0  0  0  0  0  0  0  0
  -30.2604  -26.6444   17.9280 C   0  0  0  0  0  0  0  0  0  0  0  0
  -21.5334  -19.1093   23.6190 C   0  0  0  0  0  0  0  0  0  0  0  0
  -28.9212  -27.3019   18.2643 C   0  0  0  0  0  0  0  0  0  0  0  0
  -32.4882  -21.9028   18.2269 C   0  0  0  0  0  0  0  0  0  0  0  0
  -30.9082  -26.0583   19.1758 C   0  0  0  0  0  0  0  0  0  0  0  0
  -31.8672  -23.2752   18.4681 C   0  0  0  0  0  0  0  0  0  0  0  0
  -28.7139  -25.7304   20.2502 C   0  0  0  0  0  0  0  0  0  0  0  0
  -32.0789  -22.1191   20.5652 C   0  0  0  0  0  0  0  0  0  0  0  0
  -22.8113  -19.5245   22.8800 C   0  0  1  0  0  0  0  0  0  0  0  0
  -23.7789  -16.7344   20.4900 C   0  0  1  0  0  0  0  0  0  0  0  0
  -28.0002  -26.3316   19.0264 C   0  0  1  0  0  0  0  0  0  0  0  0
  -33.1132  -21.6035   19.5813 C   0  0  1  0  0  0  0  0  0  0  0  0
  -24.9011   -9.1934   19.1197 C   0  0  0  0  0  0  0  0  0  0  0  0
  -35.3574  -17.7237   20.3595 C   0  0  0  0  0  0  0  0  0  0  0  0
  -23.8317  -13.6336   23.9168 C   0  0  0  0  0  0  0  0  0  0  0  0
  -24.4569  -11.3022   23.2522 C   0  0  0  0  0  0  0  0  0  0  0  0
  -22.2120  -12.2089   22.6513 C   0  0  0  0  0  0  0  0  0  0  0  0
  -25.7230  -12.0751   16.7753 C   0  0  0  0  0  0  0  0  0  0  0  0
  -31.9376  -17.7463   21.8343 C   0  0  0  0  0  0  0  0  0  0  0  0
  -34.0170  -19.7874   21.0385 C   0  0  0  0  0  0  0  0  0  0  0  0
  -30.6435  -17.0475   21.4463 C   0  0  0  0  0  0  0  0  0  1  0  0
  -24.2588  -13.0606   21.4358 C   0  0  1  0  0  0  0  0  0  0  0  0
  -24.8216  -10.6176   18.5924 C   0  0  2  0  0  0  0  0  0  0  0  0
  -34.1799  -18.2726   21.1594 C   0  0  1  0  0  0  0  0  0  0  0  0
  -23.7048  -12.5736   22.8044 C   0  0  0  0  0  0  0  0  0  0  0  0
  -26.6957  -28.0379   20.2383 N   0  0  0  0  0  0  0  0  0  0  0  0
  -26.6835  -26.9841   19.4044 N   0  0  0  0  0  0  0  0  0  0  0  0
  -24.4018  -15.4369   20.7598 N   0  0  0  0  0  0  0  0  0  0  0  0
  -29.9971  -25.1396   19.8642 N   0  0  0  0  0  0  0  0  0  0  0  0
  -31.4618  -23.2520   19.8774 N   0  0  0  0  0  0  0  0  0  0  0  0
  -25.2418  -25.5860   18.1483 N   0  0  0  0  0  0  0  0  0  0  0  0
  -22.4078  -28.4826   20.1417 N   0  0  0  0  0  0  0  0  0  0  0  0
  -23.0297  -18.6729   21.7305 N   0  0  0  0  0  0  0  0  0  0  0  0
  -24.1270  -12.0871   20.3572 N   0  0  0  0  0  0  0  0  0  0  0  0
  -32.9600  -17.5865   20.8029 N   0  0  0  0  0  0  0  0  0  0  0  0
  -33.3516  -20.1613   19.7551 N   0  3  0  0  0  0  0  0  0  0  0  0
  -25.7203  -10.7315   17.4091 N   0  3  0  0  0  0  0  0  0  0  0  0
  -22.5385  -26.6695   18.7438 O   0  0  0  0  0  0  0  0  0  0  0  0
  -24.1158  -16.9243   22.8192 O   0  0  0  0  0  0  0  0  0  0  0  0
  -22.3613  -14.3087   20.7515 O   0  0  0  0  0  0  0  0  0  0  0  0
  -26.3863  -11.9619   19.8502 O   0  0  0  0  0  0  0  0  0  0  0  0
  -29.8076  -23.4809   21.4479 O   0  0  0  0  0  0  0  0  0  0  0  0
  -23.8205  -32.6394   23.5711 O   0  0  0  0  0  0  0  0  0  0  0  0
  -30.1559  -17.6243   20.2421 O   0  0  0  0  0  0  0  0  0  1  0  0
  -26.6749  -37.3392   23.1609 F   0  0  0  0  0  0  0  0  0  0  0  0
  -26.5268  -32.7086   24.1311 F   0  0  0  0  0  0  0  0  0  0  0  0
  1  2  1  0  0  0  0
  1  5  2  0  0  0  0
  2  6  2  0  0  0  0
  3  8  2  0  0  0  0
  3 15  1  0  0  0  0
  4  9  1  0  0  0  0
  4 15  2  0  0  0  0
  5 17  1  0  0  0  0
  6 19  1  0  0  0  0
  7 10  2  0  0  0  0
  7 18  1  0  0  0  0
  8 21  1  0  0  0  0
  9 21  2  0  0  0  0
 10 22  1  0  0  0  0
 11 12  2  0  0  0  0
 11 23  1  0  0  0  0
 12 24  1  0  0  0  0
 13 20  1  0  0  0  0
 13 22  2  0  0  0  0
 14 24  2  0  0  0  0
 14 25  1  0  0  0  0
 15 26  1  0  0  0  0
 16 26  1  0  0  0  0
 16 27  2  0  0  0  0
 16 28  1  0  0  0  0
 17 19  2  0  0  0  0
 17 33  1  0  0  0  0
 18 20  2  0  0  0  0
 18 34  1  0  0  0  0
 19 45  1  0  0  0  0
 20 35  1  0  0  0  0
 21 79  1  0  0  0  0
 22 80  1  0  0  0  0
 23 25  2  0  0  0  0
 23 79  1  0  0  0  0
 24 81  1  0  0  0  0
 25 82  1  0  0  0  0
 26 62  2  0  0  0  0
 27 63  1  0  0  0  0
 27 67  1  0  0  0  0
 28 68  1  0  0  0  0
 28 74  2  0  0  0  0
 29 46  1  0  0  0  0
 29 69  1  0  0  0  0
 29 75  2  0  0  0  0
 30 58  1  0  0  0  0
 30 64  1  0  0  0  0
 30 76  2  0  0  0  0
 31 59  1  0  0  0  0
 31 70  1  0  0  0  0
 31 77  2  0  0  0  0
 32 65  1  0  0  0  0
 32 66  1  0  0  0  0
 32 78  2  0  0  0  0
 33 36  1  0  0  0  0
 34 46  1  0  0  0  0
 35 64  1  0  0  0  0
 36 38  1  0  0  0  0
 37 39  1  0  0  0  0
 37 41  1  0  0  0  0
 38 45  1  0  0  0  0
 39 47  1  0  0  0  0
 40 42  1  0  0  0  0
 40 48  1  0  0  0  0
 41 65  1  0  0  0  0
 42 66  1  0  0  0  0
 43 47  1  0  0  0  0
 43 65  1  0  0  0  0
 44 48  1  0  0  0  0
 44 66  1  0  0  0  0
 45 69  1  0  0  0  0
 46 64  1  0  0  0  0
 47 63  1  0  0  0  0
 48 72  1  0  0  0  0
 49 59  1  0  0  0  0
 50 60  1  0  0  0  0
 51 61  1  0  0  0  0
 52 61  1  0  0  0  0
 53 61  1  0  0  0  0
 54 73  1  0  0  0  0
 55 57  1  0  0  0  0
 55 71  1  0  0  0  0
 56 60  1  0  0  0  0
 56 72  1  0  0  0  0
 57 80  1  0  0  0  0
 58 61  1  0  0  0  0
 58 70  1  0  0  0  0
 59 73  1  0  0  0  0
 60 71  1  0  0  0  0
 62 63  1  0  0  0  0
M  CHG  2  72   1  73   1
M  ISO  4  32 100  57 101  66 100  80 101
M  END
> <Batch ID>
0190

> <Smiles>
CNC(C)C(=O)NC(C(=O)N1Cc2cc([101O:1][101CH2:1]CNC(C)CNC3CC[100N:0]([100C:0](=O)N4CCCC(n5nc(-c6ccc(Oc7ccc(F)cc7F)cc6)c(C(N)=O)c5N)C4)C3)ccc2CC1C(=O)NC1CCCc2ccccc21)C(C)(C)C

> <Shape>
0.238

> <Color>
0.069

> <Negative vol penalty>
0.000

$$$$

  -OEChem-04052323243D

 82 91  0     1  0  0  0  0  0999 V2000
  -18.1813  -30.6394   20.2778 C   0  0  0  0  0  0  0  0  0  0  0  0
  -19.5515  -30.4713   20.1054 C   0  0  0  0  0  0  0  0  0  0  0  0
  -26.8272  -12.6071   21.4339 C   0  0  0  0  0  0  0  0  0  0  0  0
  -26.0023  -13.9797   19.6249 C   0  0  0  0  0  0  0  0  0  0  0  0
  -17.4771  -29.7874   21.1276 C   0  0  0  0  0  0  0  0  0  0  0  0
  -20.2185  -29.4516   20.7835 C   0  0  0  0  0  0  0  0  0  0  0  0
  -24.9743  -26.1740   18.7476 C   0  0  0  0  0  0  0  0  0  0  0  0
  -25.5424  -12.1039   21.6380 C   0  0  0  0  0  0  0  0  0  0  0  0
  -24.7174  -13.4764   19.8290 C   0  0  0  0  0  0  0  0  0  0  0  0
  -26.3473  -26.2779   18.9661 C   0  0  0  0  0  0  0  0  0  0  0  0
  -22.5482  -10.1882   22.3996 C   0  0  0  0  0  0  0  0  0  0  0  0
  -22.4125   -8.8125   22.5854 C   0  0  0  0  0  0  0  0  0  0  0  0
  -26.1884  -24.6231   20.7141 C   0  0  0  0  0  0  0  0  0  0  0  0
  -23.3786   -8.4229   20.4054 C   0  0  0  0  0  0  0  0  0  0  0  0
  -32.3755  -27.4167   20.5036 C   0  0  0  0  0  0  0  0  0  0  0  0
  -27.0571  -13.5451   20.4274 C   0  0  0  0  0  0  0  0  0  0  0  0
  -29.3772  -13.5430   19.3667 C   0  0  0  0  0  0  0  0  0  0  0  0
  -18.1341  -28.7508   21.8090 C   0  0  0  0  0  0  0  0  0  0  0  0
  -24.1949  -25.3003   19.5194 C   0  0  0  0  0  0  0  0  0  0  0  0
  -19.5226  -28.5858   21.6442 C   0  0  0  0  0  0  0  0  0  0  0  0
  -24.8061  -24.5080   20.5017 C   0  0  0  0  0  0  0  0  0  0  0  0
  -24.4875  -12.5385   20.8355 C   0  0  0  0  0  0  0  0  0  0  0  0
  -26.9541  -25.5045   19.9514 C   0  0  0  0  0  0  0  0  0  0  0  0
  -23.0990  -10.6814   21.2168 C   0  0  0  0  0  0  0  0  0  0  0  0
  -22.8277   -7.9298   21.5883 C   0  0  0  0  0  0  0  0  0  0  0  0
  -23.5142   -9.7987   20.2197 C   0  0  0  0  0  0  0  0  0  0  0  0
  -28.3840  -14.0658   20.2165 C   0  0  0  0  0  0  0  0  0  0  0  0
  -30.4449  -14.3926   19.5233 C   0  0  0  0  0  0  0  0  0  0  0  0
  -30.5078  -26.4335   19.7410 C   0  0  0  0  0  0  0  0  0  0  0  0
  -32.3978  -25.2417   19.9506 C   0  0  0  0  0  0  0  0  0  0  0  0
  -29.3380  -12.3924   18.5122 C   0  0  0  0  0  0  0  0  0  0  0  0
  -21.7654  -25.6513   21.5389 C   0  0  0  0  0  0  0  0  0  0  0  0
  -21.7675  -22.4078   21.4940 C   0  0  0  0  0  0  0  0  0  0  0  0
  -23.5043  -19.5188   20.9608 C   0  0  0  0  0  0  0  0  0  0  0  0
  -32.4137  -19.5022   19.7145 C   0  0  0  0  0  0  0  0  0  0  0  0
  -17.3388  -27.8846   22.7535 C   0  0  0  0  0  0  0  0  0  0  0  0
  -22.7194  -25.1802   19.2533 C   0  0  0  0  0  0  0  0  0  0  0  0
  -24.0172  -23.5399   21.3437 C   0  0  0  0  0  0  0  0  0  0  0  0
  -18.0544  -26.5944   23.1453 C   0  0  0  0  0  0  0  0  0  0  0  0
  -31.3043  -18.0413   22.8876 C   0  0  0  0  0  0  0  0  0  0  0  0
  -19.5032  -26.8819   23.5263 C   0  0  0  0  0  0  0  0  0  0  0  0
  -30.4742  -16.8617   22.3921 C   0  0  0  0  0  0  0  0  0  0  0  0
  -31.2152  -19.2485   21.9531 C   0  0  0  0  0  0  0  0  0  0  0  0
  -30.7091  -17.7464   20.0456 C   0  0  0  0  0  0  0  0  0  0  0  0
  -33.5438  -21.7161   19.1251 C   0  0  0  0  0  0  0  0  0  0  0  0
  -31.9315  -21.9566   20.4925 C   0  0  0  0  0  0  0  0  0  0  0  0
  -20.2772  -27.4758   22.3433 C   0  0  1  0  0  0  0  0  0  0  0  0
  -21.9395  -24.6351   20.4458 C   0  0  1  0  0  0  0  0  0  0  0  0
  -30.8492  -16.5101   20.9448 C   0  0  2  0  0  0  0  0  0  0  0  0
  -32.5066  -22.8196   19.3613 C   0  0  0  0  0  0  0  0  0  0  0  0
  -23.2490  -17.0236   21.0402 C   0  0  0  0  0  0  0  0  0  0  0  0
  -21.9305  -22.4904   24.5397 C   0  0  0  0  0  0  0  0  0  0  0  0
  -22.6218  -20.0844   24.4985 C   0  0  0  0  0  0  0  0  0  0  0  0
  -20.3828  -20.7521   23.6246 C   0  0  0  0  0  0  0  0  0  0  0  0
  -24.0984  -19.2499   18.0740 C   0  0  0  0  0  0  0  0  0  0  0  0
  -29.0663  -26.5133   19.3687 C   0  0  0  0  0  0  0  0  0  1  0  0
  -22.4544  -21.3279   22.2947 C   0  0  1  0  0  0  0  0  0  0  0  0
  -23.1614  -18.2685   20.1711 C   0  0  2  0  0  0  0  0  0  0  0  0
  -21.8622  -21.1833   23.7250 C   0  0  0  0  0  0  0  0  0  0  0  0
  -31.0787  -27.5638   20.1874 N   0  0  0  0  0  0  0  0  0  0  0  0
  -33.0996  -26.2895   20.4116 N   0  0  0  0  0  0  0  0  0  0  0  0
  -28.7851  -15.1624   20.8650 N   0  0  0  0  0  0  0  0  0  0  0  0
  -31.1027  -25.2385   19.5962 N   0  0  0  0  0  0  0  0  0  0  0  0
  -30.0422  -15.3356   20.4226 N   0  0  0  0  0  0  0  0  0  0  0  0
  -22.5766  -23.4632   21.0498 N   0  0  0  0  0  0  0  0  0  0  0  0
  -31.4853  -18.8820   20.5576 N   0  0  0  0  0  0  0  0  0  0  0  0
  -32.6549  -20.8450   19.8905 N   0  0  0  0  0  0  0  0  0  0  0  0
  -31.6797  -14.4175   18.9781 N   0  0  0  0  0  0  0  0  0  0  0  0
  -28.1624  -11.6304   18.4711 N   0  0  0  0  0  0  0  0  0  0  0  0
  -33.0854  -24.0294   19.8283 N   0  0  0  0  0  0  0  0  0  0  0  0
  -20.6370  -26.4370   21.4021 N   0  0  0  0  0  0  0  0  0  0  0  0
  -22.3785  -20.1129   21.4908 N   0  0  0  0  0  0  0  0  0  0  0  0
  -24.0986  -18.1074   19.0236 N   0  3  0  0  0  0  0  0  0  0  0  0
  -30.3221  -12.0408   17.8184 O   0  0  0  0  0  0  0  0  0  0  0  0
  -22.5927  -25.7165   22.4405 O   0  0  0  0  0  0  0  0  0  0  0  0
  -20.5590  -22.3145   21.2648 O   0  0  0  0  0  0  0  0  0  0  0  0
  -24.6560  -19.9255   21.0973 O   0  0  0  0  0  0  0  0  0  0  0  0
  -32.9892  -18.8840   18.8092 O   0  0  0  0  0  0  0  0  0  0  0  0
  -23.2338  -12.0475   21.0342 O   0  0  0  0  0  0  0  0  0  0  0  0
  -28.3200  -25.6065   20.1714 O   0  0  0  0  0  0  0  0  0  1  0  0
  -22.6988   -6.6087   21.7674 F   0  0  0  0  0  0  0  0  0  0  0  0
  -24.0452  -10.2665   19.0817 F   0  0  0  0  0  0  0  0  0  0  0  0
  1  2  1  0  0  0  0
  1  5  2  0  0  0  0
  2  6  2  0  0  0  0
  3  8  2  0  0  0  0
  3 16  1  0  0  0  0
  4  9  1  0  0  0  0
  4 16  2  0  0  0  0
  5 18  1  0  0  0  0
  6 20  1  0  0  0  0
  7 10  2  0  0  0  0
  7 19  1  0  0  0  0
  8 22  1  0  0  0  0
  9 22  2  0  0  0  0
 10 23  1  0  0  0  0
 11 12  2  0  0  0  0
 11 24  1  0  0  0  0
 12 25  1  0  0  0  0
 13 21  1  0  0  0  0
 13 23  2  0  0  0  0
 14 25  2  0  0  0  0
 14 26  1  0  0  0  0
 15 60  2  0  0  0  0
 15 61  1  0  0  0  0
 16 27  1  0  0  0  0
 17 27  1  0  0  0  0
 17 28  2  0  0  0  0
 17 31  1  0  0  0  0
 18 20  2  0  0  0  0
 18 36  1  0  0  0  0
 19 21  2  0  0  0  0
 19 37  1  0  0  0  0
 20 47  1  0  0  0  0
 21 38  1  0  0  0  0
 22 79  1  0  0  0  0
 23 80  1  0  0  0  0
 24 26  2  0  0  0  0
 24 79  1  0  0  0  0
 25 81  1  0  0  0  0
 26 82  1  0  0  0  0
 27 62  2  0  0  0  0
 28 64  1  0  0  0  0
 28 68  1  0  0  0  0
 29 56  1  0  0  0  0
 29 60  1  0  0  0  0
 29 63  2  0  0  0  0
 30 61  2  0  0  0  0
 30 63  1  0  0  0  0
 30 70  1  0  0  0  0
 31 69  1  0  0  0  0
 31 74  2  0  0  0  0
 32 48  1  0  0  0  0
 32 71  1  0  0  0  0
 32 75  2  0  0  0  0
 33 57  1  0  0  0  0
 33 65  1  0  0  0  0
 33 76  2  0  0  0  0
 34 58  1  0  0  0  0
 34 72  1  0  0  0  0
 34 77  2  0  0  0  0
 35 66  1  0  0  0  0
 35 67  1  0  0  0  0
 35 78  2  0  0  0  0
 36 39  1  0  0  0  0
 37 48  1  0  0  0  0
 38 65  1  0  0  0  0
 39 41  1  0  0  0  0
 40 42  1  0  0  0  0
 40 43  1  0  0  0  0
 41 47  1  0  0  0  0
 42 49  1  0  0  0  0
 43 66  1  0  0  0  0
 44 49  1  0  0  0  0
 44 66  1  0  0  0  0
 45 50  1  0  0  0  0
 45 67  1  0  0  0  0
 46 50  1  0  0  0  0
 46 67  1  0  0  0  0
 47 71  1  0  0  0  0
 48 65  1  0  0  0  0
 49 64  1  0  0  0  0
 50 70  1  0  0  0  0
 51 58  1  0  0  0  0
 52 59  1  0  0  0  0
 53 59  1  0  0  0  0
 54 59  1  0  0  0  0
 55 73  1  0  0  0  0
 56 80  1  0  0  0  0
 57 59  1  0  0  0  0
 57 72  1  0  0  0  0
 58 73  1  0  0  0  0
 62 64  1  0  0  0  0
M  CHG  1  73   1
M  ISO  4  35 100  56 101  67 100  80 101
M  END
> <Batch ID>
0190

> <Smiles>
CNC(C)C(=O)NC(C(=O)N1Cc2cc([101O:1][101CH2:1]c3ncnc(NC4C[100N:0]([100C:0](=O)N5CCCC(n6nc(-c7ccc(Oc8ccc(F)cc8F)cc7)c(C(N)=O)c6N)C5)C4)n3)ccc2CC1C(=O)NC1CCCc2ccccc21)C(C)(C)C

> <Shape>
0.219

> <Color>
0.070

> <Negative vol penalty>
0.000

$$$$

  -OEChem-04052323243D

 86 96  0     1  0  0  0  0  0999 V2000
  -29.4147  -27.7405   12.8150 C   0  0  0  0  0  0  0  0  0  0  0  0
  -28.8852  -26.9112   13.7985 C   0  0  0  0  0  0  0  0  0  0  0  0
  -22.8846  -15.4328   20.5951 C   0  0  0  0  0  0  0  0  0  0  0  0
  -22.5014  -13.8409   18.8185 C   0  0  0  0  0  0  0  0  0  0  0  0
  -29.9807  -28.9649   13.1677 C   0  0  0  0  0  0  0  0  0  0  0  0
  -28.9224  -27.3053   15.1355 C   0  0  0  0  0  0  0  0  0  0  0  0
  -24.5342  -26.4839   17.5258 C   0  0  0  0  0  0  0  0  0  0  0  0
  -21.7963  -16.1861   20.1548 C   0  0  0  0  0  0  0  0  0  0  0  0
  -21.4132  -14.5942   18.3782 C   0  0  0  0  0  0  0  0  0  0  0  0
  -24.2623  -25.1764   17.9263 C   0  0  0  0  0  0  0  0  0  0  0  0
  -21.1388  -18.4104   17.6963 C   0  0  0  0  0  0  0  0  0  0  0  0
  -21.3013  -19.7930   17.6095 C   0  0  0  0  0  0  0  0  0  0  0  0
  -24.9565  -25.7258   20.1703 C   0  0  0  0  0  0  0  0  0  0  0  0
  -19.5025  -20.1037   19.1922 C   0  0  0  0  0  0  0  0  0  0  0  0
  -25.9862  -20.4663   19.8331 C   0  0  0  0  0  0  0  0  0  0  0  0
  -23.2372  -14.2602   19.9269 C   0  0  0  0  0  0  0  0  0  0  0  0
  -24.3463  -12.4350   21.3220 C   0  0  0  0  0  0  0  0  0  0  0  0
  -30.0161  -29.3786   14.5087 C   0  0  0  0  0  0  0  0  0  0  0  0
  -25.0304  -27.4208   18.4436 C   0  0  0  0  0  0  0  0  0  0  0  0
  -29.4906  -28.5358   15.5067 C   0  0  0  0  0  0  0  0  0  0  0  0
  -25.2315  -27.0452   19.7795 C   0  0  0  0  0  0  0  0  0  0  0  0
  -27.2352  -20.8123   19.3590 C   0  0  0  0  0  0  0  0  0  0  0  0
  -21.0606  -15.7668   19.0464 C   0  0  0  0  0  0  0  0  0  0  0  0
  -24.4762  -24.7964   19.2480 C   0  0  0  0  0  0  0  0  0  0  0  0
  -20.1581  -17.8744   18.5310 C   0  0  0  0  0  0  0  0  0  0  0  0
  -20.4832  -20.6397   18.3575 C   0  0  0  0  0  0  0  0  0  0  0  0
  -19.3400  -18.7211   19.2790 C   0  0  0  0  0  0  0  0  0  0  0  0
  -24.3616  -13.4819   20.3809 C   0  0  0  0  0  0  0  0  0  0  0  0
  -27.3885  -22.1329   18.9892 C   0  0  0  0  0  0  0  0  0  0  0  0
  -25.6554  -12.0276   21.4036 C   0  0  0  0  0  0  0  0  0  0  0  0
  -25.2340  -22.5925   19.5494 C   0  0  0  0  0  0  0  0  0  1  0  0
  -23.2470  -11.8804   22.0566 C   0  0  0  0  0  0  0  0  0  0  0  0
  -27.7024  -29.1253   18.6860 C   0  0  0  0  0  0  0  0  0  0  0  0
  -26.1497  -30.4789   21.1918 C   0  0  0  0  0  0  0  0  0  0  0  0
  -23.7413  -30.2107   23.5948 C   0  0  0  0  0  0  0  0  0  0  0  0
  -30.8353  -14.8326   20.2490 C   0  0  0  0  0  0  0  0  0  0  0  0
  -30.6808  -30.6896   14.8467 C   0  0  0  0  0  0  0  0  0  0  0  0
  -25.2934  -28.8344   18.0019 C   0  0  0  0  0  0  0  0  0  0  0  0
  -25.7437  -28.0185   20.8084 C   0  0  0  0  0  0  0  0  0  0  0  0
  -30.3437  -31.2008   16.2450 C   0  0  0  0  0  0  0  0  0  0  0  0
  -29.6800  -11.7787   18.8633 C   0  0  0  0  0  0  0  0  0  0  0  0
  -30.4716  -30.0776   17.2692 C   0  0  0  0  0  0  0  0  0  0  0  0
  -29.7639  -23.0426   19.4407 C   0  0  0  0  0  0  0  0  0  0  0  0
  -29.0605  -24.0655   18.6044 C   0  0  0  0  0  0  0  0  0  0  0  0
  -28.1796  -11.7816   19.1414 C   0  0  0  0  0  0  0  0  0  0  0  0
  -30.1719  -13.1820   18.5360 C   0  0  0  0  0  0  0  0  0  0  0  0
  -31.6065  -16.9140   21.3426 C   0  0  0  0  0  0  0  0  0  0  0  0
  -28.3921  -14.1927   19.9383 C   0  0  0  0  0  0  0  0  0  0  0  0
  -31.0109  -18.2914   21.5469 C   0  0  0  0  0  0  0  0  0  0  0  0
  -29.4662  -16.9877   20.2832 C   0  0  0  0  0  0  0  0  0  0  0  0
  -29.4899  -28.9394   16.9652 C   0  0  1  0  0  0  0  0  0  0  0  0
  -28.7036  -22.6103   18.4644 C   0  0  0  0  0  0  0  0  0  0  0  0
  -26.2828  -29.5675   18.9025 C   0  0  1  0  0  0  0  0  0  0  0  0
  -27.8380  -12.7875   20.2510 C   0  0  1  0  0  0  0  0  0  0  0  0
  -22.7317  -31.4638   25.5204 C   0  0  0  0  0  0  0  0  0  0  0  0
  -28.5864  -29.8094   22.9019 C   0  0  0  0  0  0  0  0  0  0  0  0
  -27.1787  -30.1973   24.9357 C   0  0  0  0  0  0  0  0  0  0  0  0
  -27.5958  -32.0645   23.3350 C   0  0  0  0  0  0  0  0  0  0  0  0
  -21.0720  -30.2545   22.3174 C   0  0  0  0  0  0  0  0  0  0  0  0
  -28.3353  -19.7953   19.2614 C   0  0  0  0  0  0  0  0  0  0  0  0
  -28.9686  -19.4412   20.6031 C   0  0  0  0  0  0  0  0  0  0  0  0
  -26.0426  -30.1842   22.6685 C   0  0  1  0  0  0  0  0  0  0  0  0
  -22.6440  -31.1643   24.0320 C   0  0  2  0  0  0  0  0  0  0  0  0
  -27.3430  -30.5447   23.4407 C   0  0  0  0  0  0  0  0  0  0  0  0
  -24.9589  -21.3341   19.9421 N   0  0  0  0  0  0  0  0  0  0  0  0
  -25.5835  -13.7245   19.8993 N   0  0  0  0  0  0  0  0  0  0  0  0
  -26.4056  -23.0534   19.0714 N   0  0  0  0  0  0  0  0  0  0  0  0
  -26.3483  -12.8244   20.5403 N   0  0  0  0  0  0  0  0  0  0  0  0
  -25.9919  -29.3873   20.3263 N   0  0  0  0  0  0  0  0  0  0  0  0
  -29.8161  -14.1433   19.5817 N   0  0  0  0  0  0  0  0  0  0  0  0
  -30.5690  -16.1299   20.6855 N   0  0  0  0  0  0  0  0  0  0  0  0
  -26.2700  -11.0691   22.1289 N   0  0  0  0  0  0  0  0  0  0  0  0
  -21.9685  -12.4170   21.8525 N   0  0  0  0  0  0  0  0  0  0  0  0
  -28.1539  -29.2969   17.3913 N   0  0  0  0  0  0  0  0  0  0  0  0
  -24.8537  -30.8865   23.1397 N   0  0  0  0  0  0  0  0  0  0  0  0
  -30.0060  -18.3844   20.4251 N   0  3  1  0  0  0  0  0  0  0  0  0
  -21.3040  -30.5767   23.7490 N   0  3  0  0  0  0  0  0  0  0  0  0
  -23.3969  -10.9478   22.8821 O   0  0  0  0  0  0  0  0  0  0  0  0
  -28.3414  -28.6641   19.6244 O   0  0  0  0  0  0  0  0  0  0  0  0
  -26.3585  -31.6364   20.8197 O   0  0  0  0  0  0  0  0  0  0  0  0
  -23.6248  -28.9887   23.6548 O   0  0  0  0  0  0  0  0  0  0  0  0
  -31.9539  -14.3263   20.4116 O   0  0  0  0  0  0  0  0  0  0  0  0
  -19.9985  -16.5015   18.6167 O   0  0  0  0  0  0  0  0  0  0  0  0
  -24.2089  -23.5045   19.6464 O   0  0  0  0  0  0  0  0  0  1  0  0
  -20.6404  -21.9673   18.2752 F   0  0  0  0  0  0  0  0  0  0  0  0
  -18.3969  -18.2120   20.0835 F   0  0  0  0  0  0  0  0  0  0  0  0
  1  2  1  0  0  0  0
  1  5  2  0  0  0  0
  2  6  2  0  0  0  0
  3  8  2  0  0  0  0
  3 16  1  0  0  0  0
  4  9  1  0  0  0  0
  4 16  2  0  0  0  0
  5 18  1  0  0  0  0
  6 20  1  0  0  0  0
  7 10  2  0  0  0  0
  7 19  1  0  0  0  0
  8 23  1  0  0  0  0
  9 23  2  0  0  0  0
 10 24  1  0  0  0  0
 11 12  2  0  0  0  0
 11 25  1  0  0  0  0
 12 26  1  0  0  0  0
 13 21  1  0  0  0  0
 13 24  2  0  0  0  0
 14 26  2  0  0  0  0
 14 27  1  0  0  0  0
 15 22  1  0  0  0  0
 15 65  2  0  0  0  0
 16 28  1  0  0  0  0
 17 28  1  0  0  0  0
 17 30  2  0  0  0  0
 17 32  1  0  0  0  0
 18 20  2  0  0  0  0
 18 37  1  0  0  0  0
 19 21  2  0  0  0  0
 19 38  1  0  0  0  0
 20 51  1  0  0  0  0
 21 39  1  0  0  0  0
 22 29  2  0  0  0  0
 22 60  1  0  0  0  0
 23 83  1  0  0  0  0
 24 84  1  0  0  0  0
 25 27  2  0  0  0  0
 25 83  1  0  0  0  0
 26 85  1  0  0  0  0
 27 86  1  0  0  0  0
 28 66  2  0  0  0  0
 29 52  1  0  0  0  0
 29 67  1  0  0  0  0
 30 68  1  0  0  0  0
 30 72  1  0  0  0  0
 31 65  1  0  0  0  0
 31 67  2  0  0  0  0
 31 84  1  0  0  0  0
 32 73  1  0  0  0  0
 32 78  2  0  0  0  0
 33 53  1  0  0  0  0
 33 74  1  0  0  0  0
 33 79  2  0  0  0  0
 34 62  1  0  0  0  0
 34 69  1  0  0  0  0
 34 80  2  0  0  0  0
 35 63  1  0  0  0  0
 35 75  1  0  0  0  0
 35 81  2  0  0  0  0
 36 70  1  0  0  0  0
 36 71  1  0  0  0  0
 36 82  2  0  0  0  0
 37 40  1  0  0  0  0
 38 53  1  0  0  0  0
 39 69  1  0  0  0  0
 40 42  1  0  0  0  0
 41 45  1  0  0  0  0
 41 46  1  0  0  0  0
 42 51  1  0  0  0  0
 43 44  1  0  0  0  0
 43 52  1  0  0  0  0
 44 52  1  0  0  0  0
 45 54  1  0  0  0  0
 46 70  1  0  0  0  0
 47 49  1  0  0  0  0
 47 71  1  0  0  0  0
 48 54  1  0  0  0  0
 48 70  1  0  0  0  0
 49 76  1  0  0  0  0
 50 71  1  0  0  0  0
 50 76  1  0  0  0  0
 51 74  1  0  0  0  0
 53 69  1  0  0  0  0
 54 68  1  0  0  0  0
 55 63  1  0  0  0  0
 56 64  1  0  0  0  0
 57 64  1  0  0  0  0
 58 64  1  0  0  0  0
 59 77  1  0  0  0  0
 60 61  1  0  0  0  0
 61 76  1  0  0  0  0
 62 64  1  0  0  0  0
 62 75  1  0  0  0  0
 63 77  1  0  0  0  0
 66 68  1  0  0  0  0
M  CHG  2  76   1  77   1
M  ISO  4  31 101  36 100  71 100  84 101
M  END
> <Batch ID>
0190

> <Smiles>
CNC(C)C(=O)NC(C(=O)N1Cc2cc([101O:1][101c:1]3ncc(CCN4CC[100N:0]([100C:0](=O)N5CCCC(n6nc(-c7ccc(Oc8ccc(F)cc8F)cc7)c(C(N)=O)c6N)C5)C4)c(C4CC4)n3)ccc2CC1C(=O)NC1CCCc2ccccc21)C(C)(C)C

> <Shape>
0.239

> <Color>
0.093

> <Negative vol penalty>
0.000

$$$$

  -OEChem-04052323243D

 94105  0     1  0  0  0  0  0999 V2000
  -31.1007  -15.4169   23.8330 C   0  0  0  0  0  0  0  0  0  0  0  0
  -30.2890  -16.5366   23.9753 C   0  0  0  0  0  0  0  0  0  0  0  0
  -23.6182  -15.2380   21.5885 C   0  0  0  0  0  0  0  0  0  0  0  0
  -25.4963  -16.6194   20.9547 C   0  0  0  0  0  0  0  0  0  0  0  0
  -31.8126  -15.2226   22.6512 C   0  0  0  0  0  0  0  0  0  0  0  0
  -30.1795  -17.4561   22.9315 C   0  0  0  0  0  0  0  0  0  0  0  0
  -27.2214  -22.7747   22.6315 C   0  0  0  0  0  0  0  0  0  0  0  0
  -24.1602  -14.1718   20.8708 C   0  0  0  0  0  0  0  0  0  0  0  0
  -26.0384  -15.5532   20.2371 C   0  0  0  0  0  0  0  0  0  0  0  0
  -27.4979  -24.1207   22.8674 C   0  0  0  0  0  0  0  0  0  0  0  0
  -27.7682  -12.7276   20.9035 C   0  0  0  0  0  0  0  0  0  0  0  0
  -29.1310  -12.4720   21.0558 C   0  0  0  0  0  0  0  0  0  0  0  0
  -27.9341  -24.4368   20.5160 C   0  0  0  0  0  0  0  0  0  0  0  0
  -29.4627  -12.8313   18.6898 C   0  0  0  0  0  0  0  0  0  0  0  0
  -24.2862  -16.4618   21.6304 C   0  0  0  0  0  0  0  0  0  0  0  0
  -23.9511  -17.8796   23.7244 C   0  0  0  0  0  0  0  0  0  0  0  0
  -31.7210  -16.1471   21.5977 C   0  0  0  0  0  0  0  0  0  0  0  0
  -27.3100  -22.2463   21.3356 C   0  0  0  0  0  0  0  0  0  0  0  0
  -30.8714  -17.2652   21.7218 C   0  0  0  0  0  0  0  0  0  0  0  0
  -27.6558  -23.0843   20.2660 C   0  0  0  0  0  0  0  0  0  0  0  0
  -24.1723  -28.7941   20.6601 C   0  0  0  0  0  0  0  0  0  0  0  0
  -25.3703  -14.3294   20.1951 C   0  0  0  0  0  0  0  0  0  0  0  0
  -27.8571  -24.9513   21.8100 C   0  0  0  0  0  0  0  0  0  0  0  0
  -27.2527  -13.0349   19.6443 C   0  0  0  0  0  0  0  0  0  0  0  0
  -29.9782  -12.5239   19.9489 C   0  0  0  0  0  0  0  0  0  0  0  0
  -28.0999  -13.0868   18.5375 C   0  0  0  0  0  0  0  0  0  0  0  0
  -23.7266  -17.5637   22.3711 C   0  0  0  0  0  0  0  0  0  0  0  0
  -24.6750  -29.5390   19.5990 C   0  0  0  0  0  0  0  0  0  0  0  0
  -22.8242  -28.4849   20.5939 C   0  0  0  0  0  0  0  0  0  0  0  0
  -23.1972  -19.0066   23.9436 C   0  0  0  0  0  0  0  0  0  0  0  0
  -22.6208  -29.5487   18.5989 C   0  0  0  0  0  0  0  0  0  0  0  0
  -24.7682  -17.2140   24.6965 C   0  0  0  0  0  0  0  0  0  0  0  0
  -29.0807  -20.0030   19.9441 C   0  0  0  0  0  0  0  0  0  0  0  0
  -27.1381  -20.5898   17.4134 C   0  0  0  0  0  0  0  0  0  0  0  0
  -25.0580  -22.7616   15.8000 C   0  0  0  0  0  0  0  0  0  0  0  0
  -21.5560  -24.0012   22.4247 C   0  0  0  0  0  0  0  0  0  0  0  0
  -32.5073  -15.8835   20.3377 C   0  0  0  0  0  0  0  0  0  0  0  0
  -26.9827  -20.7982   21.0938 C   0  0  0  0  0  0  0  0  0  0  0  0
  -27.7454  -22.5707   18.8530 C   0  0  0  0  0  0  0  0  0  0  0  0
  -25.0164  -28.4045   21.8313 C   0  0  0  0  0  0  0  0  0  0  0  0
  -26.1349  -29.9037   19.5490 C   0  0  0  0  0  0  0  0  0  0  0  0
  -32.6747  -17.1269   19.4704 C   0  0  0  0  0  0  0  0  0  0  0  0
  -19.6731  -21.2233   21.0699 C   0  0  0  0  0  0  0  0  0  0  0  0
  -31.3286  -17.8077   19.2724 C   0  0  0  0  0  0  0  0  0  0  0  0
  -20.5882  -20.0438   21.4040 C   0  0  0  0  0  0  0  0  0  0  0  0
  -19.3962  -27.8211   24.2847 C   0  0  0  0  0  0  0  0  0  0  0  0
  -20.4816  -22.4565   20.6776 C   0  0  0  0  0  0  0  0  0  0  0  0
  -18.0074  -26.4427   22.6530 C   0  0  0  0  0  0  0  0  0  0  0  0
  -22.4018  -21.7057   22.0278 C   0  0  0  0  0  0  0  0  0  0  0  0
  -26.8026  -29.8924   20.9204 C   0  0  0  0  0  0  0  0  0  0  0  0
  -20.0333  -28.9447   23.4813 C   0  0  0  0  0  0  0  0  0  0  0  0
  -18.6020  -28.5081   21.4608 C   0  0  0  0  0  0  0  0  0  0  0  0
  -30.7607  -18.2946   20.6116 C   0  0  1  0  0  0  0  0  0  0  0  0
  -27.6046  -20.2509   19.8128 C   0  0  1  0  0  0  0  0  0  0  0  0
  -19.2952  -26.4929   23.5100 C   0  0  1  0  0  0  0  0  0  0  0  0
  -21.6451  -20.4346   22.4540 C   0  0  2  0  0  0  0  0  0  0  0  0
  -20.6010  -26.2736   22.7098 C   0  0  2  0  0  0  0  0  0  0  0  0
  -20.8613  -27.3887   21.6761 C   0  0  2  0  0  0  0  0  0  0  0  0
  -21.7632  -29.9639   17.4520 C   0  0  0  0  0  0  0  0  0  0  0  0
  -23.6485  -22.9727   13.7346 C   0  0  0  0  0  0  0  0  0  0  0  0
  -29.6539  -21.0324   15.7446 C   0  0  0  0  0  0  0  0  0  0  0  0
  -28.2260  -22.1418   14.0130 C   0  0  0  0  0  0  0  0  0  0  0  0
  -27.8488  -19.7441   14.5888 C   0  0  0  0  0  0  0  0  0  0  0  0
  -22.5826  -23.1091   17.3844 C   0  0  0  0  0  0  0  0  0  0  0  0
  -27.3047  -28.3750   22.8460 C   0  0  0  0  0  0  0  0  0  0  0  0
  -27.4444  -26.8911   23.1226 C   0  0  0  0  0  0  0  0  0  1  0  0
  -27.1702  -21.5364   16.2379 C   0  0  1  0  0  0  0  0  0  0  0  0
  -23.6749  -22.5758   15.2024 C   0  0  2  0  0  0  0  0  0  0  0  0
  -28.2250  -21.1232   15.1729 C   0  0  0  0  0  0  0  0  0  0  0  0
  -22.8950  -18.4207   21.7727 N   0  0  0  0  0  0  0  0  0  0  0  0
  -23.9141  -29.9199   18.5471 N   0  0  0  0  0  0  0  0  0  0  0  0
  -22.0192  -28.8447   19.5740 N   0  0  0  0  0  0  0  0  0  0  0  0
  -22.5903  -19.2861   22.7546 N   0  0  0  0  0  0  0  0  0  0  0  0
  -18.0263  -27.1725   21.3907 N   0  0  0  0  0  0  0  0  0  0  0  0
  -27.4221  -21.1463   18.6685 N   0  0  0  0  0  0  0  0  0  0  0  0
  -21.4561  -22.7858   21.7274 N   0  0  0  0  0  0  0  0  0  0  0  0
  -23.0008  -19.7758   25.0355 N   0  0  0  0  0  0  0  0  0  0  0  0
  -25.4761  -16.0699   24.3035 N   0  0  0  0  0  0  0  0  0  0  0  0
  -22.2407  -27.7526   21.6572 N   0  0  0  0  0  0  0  0  0  0  0  0
  -29.4001  -18.7428   20.4124 N   0  0  0  0  0  0  0  0  0  0  0  0
  -25.8040  -21.6040   15.7308 N   0  0  0  0  0  0  0  0  0  0  0  0
  -20.6275  -24.9743   22.0757 N   0  0  0  0  0  0  0  0  0  0  0  0
  -26.5047  -28.5721   21.5904 N   0  3  1  0  0  0  0  0  0  0  0  0
  -20.0194  -28.6107   22.0134 N   0  3  2  0  0  0  0  0  0  0  0  0
  -22.6789  -23.4097   15.9327 N   0  3  0  0  0  0  0  0  0  0  0  0
  -24.8547  -17.6121   25.8829 O   0  0  0  0  0  0  0  0  0  0  0  0
  -29.8714  -20.8890   19.6415 O   0  0  0  0  0  0  0  0  0  0  0  0
  -26.8640  -19.4018   17.2258 O   0  0  0  0  0  0  0  0  0  0  0  0
  -25.4398  -23.8281   16.2769 O   0  0  0  0  0  0  0  0  0  0  0  0
  -22.4066  -24.2027   23.2981 O   0  0  0  0  0  0  0  0  0  0  0  0
  -25.8996  -13.2891   19.4949 O   0  0  0  0  0  0  0  0  0  0  0  0
  -28.1281  -26.2653   22.0375 O   0  0  0  0  0  0  0  0  0  1  0  0
  -31.2871  -12.2800   20.0956 F   0  0  0  0  0  0  0  0  0  0  0  0
  -27.6106  -13.3827   17.3255 F   0  0  0  0  0  0  0  0  0  0  0  0
  1  2  1  0  0  0  0
  1  5  2  0  0  0  0
  2  6  2  0  0  0  0
  3  8  2  0  0  0  0
  3 15  1  0  0  0  0
  4  9  1  0  0  0  0
  4 15  2  0  0  0  0
  5 17  1  0  0  0  0
  6 19  1  0  0  0  0
  7 10  2  0  0  0  0
  7 18  1  0  0  0  0
  8 22  1  0  0  0  0
  9 22  2  0  0  0  0
 10 23  1  0  0  0  0
 11 12  2  0  0  0  0
 11 24  1  0  0  0  0
 12 25  1  0  0  0  0
 13 20  1  0  0  0  0
 13 23  2  0  0  0  0
 14 25  2  0  0  0  0
 14 26  1  0  0  0  0
 15 27  1  0  0  0  0
 16 27  1  0  0  0  0
 16 30  2  0  0  0  0
 16 32  1  0  0  0  0
 17 19  2  0  0  0  0
 17 37  1  0  0  0  0
 18 20  2  0  0  0  0
 18 38  1  0  0  0  0
 19 53  1  0  0  0  0
 20 39  1  0  0  0  0
 21 28  2  0  0  0  0
 21 29  1  0  0  0  0
 21 40  1  0  0  0  0
 22 91  1  0  0  0  0
 23 92  1  0  0  0  0
 24 26  2  0  0  0  0
 24 91  1  0  0  0  0
 25 93  1  0  0  0  0
 26 94  1  0  0  0  0
 27 70  2  0  0  0  0
 28 41  1  0  0  0  0
 28 71  1  0  0  0  0
 29 72  2  0  0  0  0
 29 79  1  0  0  0  0
 30 73  1  0  0  0  0
 30 77  1  0  0  0  0
 31 59  1  0  0  0  0
 31 71  2  0  0  0  0
 31 72  1  0  0  0  0
 32 78  1  0  0  0  0
 32 86  2  0  0  0  0
 33 54  1  0  0  0  0
 33 80  1  0  0  0  0
 33 87  2  0  0  0  0
 34 67  1  0  0  0  0
 34 75  1  0  0  0  0
 34 88  2  0  0  0  0
 35 68  1  0  0  0  0
 35 81  1  0  0  0  0
 35 89  2  0  0  0  0
 36 76  1  0  0  0  0
 36 82  1  0  0  0  0
 36 90  2  0  0  0  0
 37 42  1  0  0  0  0
 38 54  1  0  0  0  0
 39 75  1  0  0  0  0
 40 83  1  0  0  0  0
 41 50  1  0  0  0  0
 42 44  1  0  0  0  0
 43 45  1  0  0  0  0
 43 47  1  0  0  0  0
 44 53  1  0  0  0  0
 45 56  1  0  0  0  0
 46 51  1  0  0  0  0
 46 55  1  0  0  0  0
 47 76  1  0  0  0  0
 48 55  1  0  0  0  0
 48 74  1  0  0  0  0
 49 56  1  0  0  0  0
 49 76  1  0  0  0  0
 50 83  1  0  0  0  0
 51 84  1  0  0  0  0
 52 74  1  0  0  0  0
 52 84  1  0  0  0  0
 53 80  1  0  0  0  0
 54 75  1  0  0  0  0
 55 57  1  0  0  0  0
 56 73  1  0  0  0  0
 57 58  1  0  0  0  0
 57 82  1  0  0  0  0
 58 79  1  0  0  0  0
 58 84  1  0  0  0  0
 60 68  1  0  0  0  0
 61 69  1  0  0  0  0
 62 69  1  0  0  0  0
 63 69  1  0  0  0  0
 64 85  1  0  0  0  0
 65 66  1  0  0  0  0
 65 83  1  0  0  0  0
 66 92  1  0  0  0  0
 67 69  1  0  0  0  0
 67 81  1  0  0  0  0
 68 85  1  0  0  0  0
 70 73  1  0  0  0  0
M  CHG  3  83   1  84   1  85   1
M  ISO  4  36 100  66 101  82 100  92 101
M  END
> <Batch ID>
0190

> <Smiles>
CNC(C)C(=O)NC(C(=O)N1Cc2cc([101O:1][101CH2:1]CN3CCc4nc(C)nc(NC5C([100NH:0][100C:0](=O)N6CCCC(n7nc(-c8ccc(Oc9ccc(F)cc9F)cc8)c(C(N)=O)c7N)C6)C6CCN5CNC6)c4C3)ccc2CC1C(=O)NC1CCCc2ccccc21)C(C)(C)C

> <Shape>
0.228

> <Color>
0.064

> <Negative vol penalty>
0.000

$$$$

  -OEChem-04052323243D

 82 91  0     1  0  0  0  0  0999 V2000
  -21.6940  -12.4805   19.2858 C   0  0  0  0  0  0  0  0  0  0  0  0
  -21.6615  -13.7355   19.8853 C   0  0  0  0  0  0  0  0  0  0  0  0
  -29.0868  -26.8735   21.6806 C   0  0  0  0  0  0  0  0  0  0  0  0
  -27.7015  -27.0034   19.7055 C   0  0  0  0  0  0  0  0  0  0  0  0
  -22.8662  -11.7262   19.3132 C   0  0  0  0  0  0  0  0  0  0  0  0
  -22.8010  -14.2364   20.5136 C   0  0  0  0  0  0  0  0  0  0  0  0
  -23.6899  -19.0838   19.3480 C   0  0  0  0  0  0  0  0  0  0  0  0
  -30.2092  -26.6629   20.8796 C   0  0  0  0  0  0  0  0  0  0  0  0
  -28.8239  -26.7929   18.9044 C   0  0  0  0  0  0  0  0  0  0  0  0
  -22.9178  -20.0465   19.9967 C   0  0  0  0  0  0  0  0  0  0  0  0
  -31.4282  -28.6060   17.7423 C   0  0  0  0  0  0  0  0  0  0  0  0
  -31.5827  -29.4187   16.6193 C   0  0  0  0  0  0  0  0  0  0  0  0
  -24.7359  -20.4657   21.5257 C   0  0  0  0  0  0  0  0  0  0  0  0
  -31.5342  -27.4649   15.1989 C   0  0  0  0  0  0  0  0  0  0  0  0
  -19.7148  -24.1689   23.3285 C   0  0  0  0  0  0  0  0  0  0  0  0
  -27.8330  -27.0437   21.0935 C   0  0  0  0  0  0  0  0  0  0  0  0
  -26.1606  -26.3993   22.9088 C   0  0  0  0  0  0  0  0  0  0  0  0
  -24.0236  -12.2223   19.9338 C   0  0  0  0  0  0  0  0  0  0  0  0
  -24.9890  -18.7965   19.7909 C   0  0  0  0  0  0  0  0  0  0  0  0
  -23.9895  -13.4875   20.5506 C   0  0  0  0  0  0  0  0  0  0  0  0
  -25.5233  -19.5007   20.8794 C   0  0  0  0  0  0  0  0  0  0  0  0
  -30.0777  -26.6226   19.4915 C   0  0  0  0  0  0  0  0  0  0  0  0
  -23.4397  -20.7356   21.0875 C   0  0  0  0  0  0  0  0  0  0  0  0
  -31.3268  -27.2228   17.5937 C   0  0  0  0  0  0  0  0  0  0  0  0
  -31.6357  -28.8481   15.3475 C   0  0  0  0  0  0  0  0  0  0  0  0
  -31.3798  -26.6522   16.3220 C   0  0  0  0  0  0  0  0  0  0  0  0
  -26.6732  -27.2607   21.9204 C   0  0  0  0  0  0  0  0  0  0  0  0
  -25.0595  -27.0570   23.4002 C   0  0  0  0  0  0  0  0  0  0  0  0
  -20.7054  -22.9799   21.9278 C   0  0  0  0  0  0  0  0  0  0  0  0
  -26.6372  -25.1190   23.3440 C   0  0  0  0  0  0  0  0  0  0  0  0
  -26.4466  -16.2187   20.9458 C   0  0  0  0  0  0  0  0  0  0  0  0
  -29.0810  -18.1019   20.7559 C   0  0  0  0  0  0  0  0  0  0  0  0
  -30.3902  -21.2524   20.6720 C   0  0  0  0  0  0  0  0  0  0  0  0
  -20.4079  -30.0156   22.5313 C   0  0  0  0  0  0  0  0  0  0  0  0
  -25.2534  -11.3505   19.9792 C   0  0  0  0  0  0  0  0  0  0  0  0
  -25.8187  -17.7742   19.0637 C   0  0  0  0  0  0  0  0  0  0  0  0
  -26.9200  -19.2440   21.3814 C   0  0  0  0  0  0  0  0  0  0  0  0
  -26.5267  -12.1117   20.3393 C   0  0  0  0  0  0  0  0  0  0  0  0
  -23.4618  -31.7901   22.7355 C   0  0  0  0  0  0  0  0  0  0  0  0
  -26.2825  -13.0241   21.5371 C   0  0  0  0  0  0  0  0  0  0  0  0
  -24.5332  -30.7136   22.5866 C   0  0  0  0  0  0  0  0  0  0  0  0
  -22.2658  -31.4896   21.8422 C   0  0  0  0  0  0  0  0  0  0  0  0
  -22.6966  -29.0510   21.9904 C   0  0  0  0  0  0  0  0  0  0  0  0
  -20.6225  -27.4567   22.5208 C   0  0  0  0  0  0  0  0  0  0  0  0
  -18.4640  -28.4950   22.7538 C   0  0  0  0  0  0  0  0  0  0  0  0
  -25.2124  -14.0758   21.2204 C   0  0  1  0  0  0  0  0  0  0  0  0
  -26.9424  -17.1981   19.9198 C   0  0  1  0  0  0  0  0  0  0  0  0
  -23.9424  -29.3216   22.8587 C   0  0  1  0  0  0  0  0  0  0  0  0
  -19.5331  -26.4662   22.0800 C   0  0  2  0  0  0  0  0  0  0  0  0
  -18.3221  -26.9854   22.8642 C   0  0  2  0  0  0  0  0  0  0  0  0
  -32.5793  -22.4734   20.5520 C   0  0  0  0  0  0  0  0  0  0  0  0
  -29.5943  -17.4656   23.6956 C   0  0  0  0  0  0  0  0  0  0  0  0
  -31.1773  -19.4039   23.7667 C   0  0  0  0  0  0  0  0  0  0  0  0
  -31.6401  -17.4727   22.2571 C   0  0  0  0  0  0  0  0  0  0  0  0
  -29.6582  -22.5511   18.1153 C   0  0  0  0  0  0  0  0  0  0  0  0
  -21.3675  -21.8965   21.2065 C   0  0  0  0  0  0  0  0  0  1  0  0
  -29.7694  -19.0739   21.6835 C   0  0  1  0  0  0  0  0  0  0  0  0
  -31.4203  -21.8912   19.7580 C   0  0  2  0  0  0  0  0  0  0  0  0
  -30.5182  -18.3577   22.8427 C   0  0  0  0  0  0  0  0  0  0  0  0
  -20.2000  -22.9069   23.1372 N   0  0  0  0  0  0  0  0  0  0  0  0
  -25.9565  -28.3803   21.7901 N   0  0  0  0  0  0  0  0  0  0  0  0
  -20.5238  -24.2328   21.4307 N   0  0  0  0  0  0  0  0  0  0  0  0
  -19.8881  -25.0181   22.3135 N   0  0  0  0  0  0  0  0  0  0  0  0
  -24.9823  -28.2268   22.7031 N   0  0  0  0  0  0  0  0  0  0  0  0
  -27.6895  -18.2305   20.6410 N   0  0  0  0  0  0  0  0  0  0  0  0
  -21.7271  -30.1501   22.0848 N   0  0  0  0  0  0  0  0  0  0  0  0
  -19.9073  -28.7259   22.7071 N   0  0  0  0  0  0  0  0  0  0  0  0
  -24.1594  -26.7431   24.3561 N   0  0  0  0  0  0  0  0  0  0  0  0
  -26.1530  -23.9718   22.7007 N   0  0  0  0  0  0  0  0  0  0  0  0
  -25.7713  -15.1379   20.4117 N   0  0  0  0  0  0  0  0  0  0  0  0
  -30.6248  -19.9044   20.8426 N   0  0  0  0  0  0  0  0  0  0  0  0
  -17.0540  -26.5288   22.2625 N   0  3  0  0  0  0  0  0  0  0  0  0
  -30.7982  -22.9870   18.9624 N   0  3  0  0  0  0  0  0  0  0  0  0
  -27.4554  -24.9950   24.2867 O   0  0  0  0  0  0  0  0  0  0  0  0
  -26.6622  -16.4273   22.1340 O   0  0  0  0  0  0  0  0  0  0  0  0
  -29.7539  -17.2643   20.1500 O   0  0  0  0  0  0  0  0  0  0  0  0
  -29.4717  -21.8867   21.1864 O   0  0  0  0  0  0  0  0  0  0  0  0
  -19.6903  -31.0064   22.7241 O   0  0  0  0  0  0  0  0  0  0  0  0
  -31.1727  -26.4174   18.7096 O   0  0  0  0  0  0  0  0  0  0  0  0
  -22.6854  -21.6785   21.7250 O   0  0  0  0  0  0  0  0  0  1  0  0
  -31.7825  -29.6288   14.2690 F   0  0  0  0  0  0  0  0  0  0  0  0
  -31.2817  -25.3241   16.1728 F   0  0  0  0  0  0  0  0  0  0  0  0
  1  2  1  0  0  0  0
  1  5  2  0  0  0  0
  2  6  2  0  0  0  0
  3  8  2  0  0  0  0
  3 16  1  0  0  0  0
  4  9  1  0  0  0  0
  4 16  2  0  0  0  0
  5 18  1  0  0  0  0
  6 20  1  0  0  0  0
  7 10  2  0  0  0  0
  7 19  1  0  0  0  0
  8 22  1  0  0  0  0
  9 22  2  0  0  0  0
 10 23  1  0  0  0  0
 11 12  2  0  0  0  0
 11 24  1  0  0  0  0
 12 25  1  0  0  0  0
 13 21  1  0  0  0  0
 13 23  2  0  0  0  0
 14 25  2  0  0  0  0
 14 26  1  0  0  0  0
 15 60  2  0  0  0  0
 15 63  1  0  0  0  0
 16 27  1  0  0  0  0
 17 27  1  0  0  0  0
 17 28  2  0  0  0  0
 17 30  1  0  0  0  0
 18 20  2  0  0  0  0
 18 35  1  0  0  0  0
 19 21  2  0  0  0  0
 19 36  1  0  0  0  0
 20 46  1  0  0  0  0
 21 37  1  0  0  0  0
 22 79  1  0  0  0  0
 23 80  1  0  0  0  0
 24 26  2  0  0  0  0
 24 79  1  0  0  0  0
 25 81  1  0  0  0  0
 26 82  1  0  0  0  0
 27 61  2  0  0  0  0
 28 64  1  0  0  0  0
 28 68  1  0  0  0  0
 29 56  1  0  0  0  0
 29 60  1  0  0  0  0
 29 62  2  0  0  0  0
 30 69  1  0  0  0  0
 30 74  2  0  0  0  0
 31 47  1  0  0  0  0
 31 70  1  0  0  0  0
 31 75  2  0  0  0  0
 32 57  1  0  0  0  0
 32 65  1  0  0  0  0
 32 76  2  0  0  0  0
 33 58  1  0  0  0  0
 33 71  1  0  0  0  0
 33 77  2  0  0  0  0
 34 66  1  0  0  0  0
 34 67  1  0  0  0  0
 34 78  2  0  0  0  0
 35 38  1  0  0  0  0
 36 47  1  0  0  0  0
 37 65  1  0  0  0  0
 38 40  1  0  0  0  0
 39 41  1  0  0  0  0
 39 42  1  0  0  0  0
 40 46  1  0  0  0  0
 41 48  1  0  0  0  0
 42 66  1  0  0  0  0
 43 48  1  0  0  0  0
 43 66  1  0  0  0  0
 44 49  1  0  0  0  0
 44 67  1  0  0  0  0
 45 50  1  0  0  0  0
 45 67  1  0  0  0  0
 46 70  1  0  0  0  0
 47 65  1  0  0  0  0
 48 64  1  0  0  0  0
 49 50  1  0  0  0  0
 49 63  1  0  0  0  0
 50 72  1  0  0  0  0
 51 58  1  0  0  0  0
 52 59  1  0  0  0  0
 53 59  1  0  0  0  0
 54 59  1  0  0  0  0
 55 73  1  0  0  0  0
 56 80  1  0  0  0  0
 57 59  1  0  0  0  0
 57 71  1  0  0  0  0
 58 73  1  0  0  0  0
 61 64  1  0  0  0  0
 62 63  1  0  0  0  0
M  CHG  2  72   1  73   1
M  ISO  4  34 100  56 101  67 100  80 101
M  END
> <Batch ID>
0190

> <Smiles>
CNC(C)C(=O)NC(C(=O)N1Cc2cc([101O:1][101CH2:1]c3ncn(C4C[100N:0]([100C:0](=O)N5CCCC(n6nc(-c7ccc(Oc8ccc(F)cc8F)cc7)c(C(N)=O)c6N)C5)CC4N)n3)ccc2CC1C(=O)NC1CCCc2ccccc21)C(C)(C)C

> <Shape>
0.227

> <Color>
0.067

> <Negative vol penalty>
0.000

$$$$

  -OEChem-04052323243D

 83 92  0     1  0  0  0  0  0999 V2000
  -16.7034  -27.0175   23.4987 C   0  0  0  0  0  0  0  0  0  0  0  0
  -17.7184  -26.4143   22.7629 C   0  0  0  0  0  0  0  0  0  0  0  0
  -26.0501  -14.0126   19.5300 C   0  0  0  0  0  0  0  0  0  0  0  0
  -24.3327  -14.1662   21.2224 C   0  0  0  0  0  0  0  0  0  0  0  0
  -16.6821  -28.4034   23.6491 C   0  0  0  0  0  0  0  0  0  0  0  0
  -18.7121  -27.1969   22.1760 C   0  0  0  0  0  0  0  0  0  0  0  0
  -24.6093  -25.7174   21.4412 C   0  0  0  0  0  0  0  0  0  0  0  0
  -26.1765  -12.6466   19.7822 C   0  0  0  0  0  0  0  0  0  0  0  0
  -24.4590  -12.8001   21.4746 C   0  0  0  0  0  0  0  0  0  0  0  0
  -25.3226  -25.2189   20.3520 C   0  0  0  0  0  0  0  0  0  0  0  0
  -23.4376   -9.9037   20.0646 C   0  0  0  0  0  0  0  0  0  0  0  0
  -22.2654   -9.1581   20.1894 C   0  0  0  0  0  0  0  0  0  0  0  0
  -26.0019  -27.4614   19.7783 C   0  0  0  0  0  0  0  0  0  0  0  0
  -22.8994   -8.5373   22.4365 C   0  0  0  0  0  0  0  0  0  0  0  0
  -31.1881  -26.0927   19.0425 C   0  0  0  0  0  0  0  0  0  0  0  0
  -29.8533  -26.2244   17.3897 C   0  0  0  0  0  0  0  0  0  0  0  0
  -25.1283  -14.7724   20.2502 C   0  0  0  0  0  0  0  0  0  0  0  0
  -24.1380  -16.8013   19.0624 C   0  0  0  0  0  0  0  0  0  0  0  0
  -17.6815  -29.2026   23.0719 C   0  0  0  0  0  0  0  0  0  0  0  0
  -24.5779  -27.0950   21.7013 C   0  0  0  0  0  0  0  0  0  0  0  0
  -18.7035  -28.5950   22.3177 C   0  0  0  0  0  0  0  0  0  0  0  0
  -25.2895  -27.9745   20.8730 C   0  0  0  0  0  0  0  0  0  0  0  0
  -25.3809  -12.0403   20.7544 C   0  0  0  0  0  0  0  0  0  0  0  0
  -26.0167  -26.0912   19.5186 C   0  0  0  0  0  0  0  0  0  0  0  0
  -24.3408   -9.9660   21.1257 C   0  0  0  0  0  0  0  0  0  0  0  0
  -21.9963   -8.4750   21.3753 C   0  0  0  0  0  0  0  0  0  0  0  0
  -24.0717   -9.2829   22.3117 C   0  0  0  0  0  0  0  0  0  0  0  0
  -24.9977  -16.1837   19.9905 C   0  0  0  0  0  0  0  0  0  0  0  0
  -30.3865  -24.9788   19.1278 C   0  0  0  0  0  0  0  0  0  0  0  0
  -24.3923  -18.1441   19.1998 C   0  0  0  0  0  0  0  0  0  0  0  0
  -23.1941  -16.2138   18.1572 C   0  0  0  0  0  0  0  0  0  0  0  0
  -22.2954  -29.3040   21.8195 C   0  0  0  0  0  0  0  0  0  0  0  0
  -24.7189  -31.1938   22.8576 C   0  0  0  0  0  0  0  0  0  0  0  0
  -28.0755  -31.7995   22.9719 C   0  0  0  0  0  0  0  0  0  0  0  0
  -29.2507  -20.9811   21.0638 C   0  0  0  0  0  0  0  0  0  0  0  0
  -17.5901  -30.7005   23.2222 C   0  0  0  0  0  0  0  0  0  0  0  0
  -23.8258  -27.6142   22.8959 C   0  0  0  0  0  0  0  0  0  0  0  0
  -25.3043  -29.4601   21.1208 C   0  0  0  0  0  0  0  0  0  0  0  0
  -18.8890  -31.4271   22.8829 C   0  0  0  0  0  0  0  0  0  0  0  0
  -25.8497  -21.3866   22.3710 C   0  0  0  0  0  0  0  0  0  0  0  0
  -19.4705  -30.8986   21.5755 C   0  0  0  0  0  0  0  0  0  0  0  0
  -25.1872  -20.1101   21.8638 C   0  0  0  0  0  0  0  0  0  0  0  0
  -31.8921  -21.9548   22.8952 C   0  0  0  0  0  0  0  0  0  0  0  0
  -27.3229  -21.1767   22.7233 C   0  0  0  0  0  0  0  0  0  0  0  0
  -30.4403  -21.6662   23.2893 C   0  0  0  0  0  0  0  0  0  0  0  0
  -27.4487  -19.2934   21.1139 C   0  0  0  0  0  0  0  0  0  0  0  0
  -19.8130  -29.4080   21.6867 C   0  0  1  0  0  0  0  0  0  0  0  0
  -23.4410  -29.0848   22.7668 C   0  0  1  0  0  0  0  0  0  0  0  0
  -25.9884  -19.5159   20.6959 C   0  0  1  0  0  0  0  0  0  0  0  0
  -31.3949  -22.3061   21.4847 C   0  0  2  0  0  0  0  0  0  0  0  0
  -29.7518  -33.4409   23.8627 C   0  0  0  0  0  0  0  0  0  0  0  0
  -23.9696  -33.1563   20.6446 C   0  0  0  0  0  0  0  0  0  0  0  0
  -26.1948  -34.2583   20.9641 C   0  0  0  0  0  0  0  0  0  0  0  0
  -24.5434  -34.2215   22.8333 C   0  0  0  0  0  0  0  0  0  0  0  0
  -29.3891  -29.7328   24.6338 C   0  0  0  0  0  0  0  0  0  0  0  0
  -31.2030  -23.7731   21.1540 C   0  0  0  0  0  0  0  0  0  0  0  0
  -28.4895  -24.1533   17.6920 C   0  0  0  0  0  0  0  0  0  0  0  0
  -27.2536  -24.2929   18.5741 C   0  0  0  0  0  0  0  0  0  1  0  0
  -25.7379  -32.0874   22.1926 C   0  0  1  0  0  0  0  0  0  0  0  0
  -28.9976  -32.1470   24.1267 C   0  0  2  0  0  0  0  0  0  0  0  0
  -25.1098  -33.4031   21.6526 C   0  0  0  0  0  0  0  0  0  0  0  0
  -30.8509  -26.8641   17.9586 N   0  0  0  0  0  0  0  0  0  0  0  0
  -25.7424  -17.0619   20.6673 N   0  0  0  0  0  0  0  0  0  0  0  0
  -29.5362  -25.0772   18.0627 N   0  0  0  0  0  0  0  0  0  0  0  0
  -25.3516  -18.2451   20.1640 N   0  0  0  0  0  0  0  0  0  0  0  0
  -24.5487  -29.9197   22.2977 N   0  0  0  0  0  0  0  0  0  0  0  0
  -28.0588  -20.5221   21.6352 N   0  0  0  0  0  0  0  0  0  0  0  0
  -30.1319  -21.6706   21.8667 N   0  0  0  0  0  0  0  0  0  0  0  0
  -23.8866  -19.2364   18.5885 N   0  0  0  0  0  0  0  0  0  0  0  0
  -23.0587  -14.8189   18.1454 N   0  0  0  0  0  0  0  0  0  0  0  0
  -30.3352  -23.9157   20.0289 N   0  0  0  0  0  0  0  0  0  0  0  0
  -21.0507  -29.2267   22.4146 N   0  0  0  0  0  0  0  0  0  0  0  0
  -26.8022  -32.2903   23.1696 N   0  0  0  0  0  0  0  0  0  0  0  0
  -29.9925  -31.0583   24.3407 N   0  3  0  0  0  0  0  0  0  0  0  0
  -22.5032  -16.9043   17.3702 O   0  0  0  0  0  0  0  0  0  0  0  0
  -22.5239  -29.5282   20.6367 O   0  0  0  0  0  0  0  0  0  0  0  0
  -24.1019  -31.6084   23.8420 O   0  0  0  0  0  0  0  0  0  0  0  0
  -28.4485  -31.1602   21.9908 O   0  0  0  0  0  0  0  0  0  0  0  0
  -29.5370  -20.7570   19.8803 O   0  0  0  0  0  0  0  0  0  0  0  0
  -25.5038  -10.7073   21.0006 O   0  0  0  0  0  0  0  0  0  0  0  0
  -26.7181  -25.6040   18.4469 O   0  0  0  0  0  0  0  0  0  1  0  0
  -20.8698   -7.7603   21.4956 F   0  0  0  0  0  0  0  0  0  0  0  0
  -24.9351   -9.3400   23.3350 F   0  0  0  0  0  0  0  0  0  0  0  0
  1  2  1  0  0  0  0
  1  5  2  0  0  0  0
  2  6  2  0  0  0  0
  3  8  2  0  0  0  0
  3 17  1  0  0  0  0
  4  9  1  0  0  0  0
  4 17  2  0  0  0  0
  5 19  1  0  0  0  0
  6 21  1  0  0  0  0
  7 10  2  0  0  0  0
  7 20  1  0  0  0  0
  8 23  1  0  0  0  0
  9 23  2  0  0  0  0
 10 24  1  0  0  0  0
 11 12  2  0  0  0  0
 11 25  1  0  0  0  0
 12 26  1  0  0  0  0
 13 22  1  0  0  0  0
 13 24  2  0  0  0  0
 14 26  2  0  0  0  0
 14 27  1  0  0  0  0
 15 29  2  0  0  0  0
 15 62  1  0  0  0  0
 16 62  2  0  0  0  0
 16 64  1  0  0  0  0
 17 28  1  0  0  0  0
 18 28  1  0  0  0  0
 18 30  2  0  0  0  0
 18 31  1  0  0  0  0
 19 21  2  0  0  0  0
 19 36  1  0  0  0  0
 20 22  2  0  0  0  0
 20 37  1  0  0  0  0
 21 47  1  0  0  0  0
 22 38  1  0  0  0  0
 23 80  1  0  0  0  0
 24 81  1  0  0  0  0
 25 27  2  0  0  0  0
 25 80  1  0  0  0  0
 26 82  1  0  0  0  0
 27 83  1  0  0  0  0
 28 63  2  0  0  0  0
 29 64  1  0  0  0  0
 29 71  1  0  0  0  0
 30 65  1  0  0  0  0
 30 69  1  0  0  0  0
 31 70  1  0  0  0  0
 31 75  2  0  0  0  0
 32 48  1  0  0  0  0
 32 72  1  0  0  0  0
 32 76  2  0  0  0  0
 33 59  1  0  0  0  0
 33 66  1  0  0  0  0
 33 77  2  0  0  0  0
 34 60  1  0  0  0  0
 34 73  1  0  0  0  0
 34 78  2  0  0  0  0
 35 67  1  0  0  0  0
 35 68  1  0  0  0  0
 35 79  2  0  0  0  0
 36 39  1  0  0  0  0
 37 48  1  0  0  0  0
 38 66  1  0  0  0  0
 39 41  1  0  0  0  0
 40 42  1  0  0  0  0
 40 44  1  0  0  0  0
 41 47  1  0  0  0  0
 42 49  1  0  0  0  0
 43 45  1  0  0  0  0
 43 50  1  0  0  0  0
 44 67  1  0  0  0  0
 45 68  1  0  0  0  0
 46 49  1  0  0  0  0
 46 67  1  0  0  0  0
 47 72  1  0  0  0  0
 48 66  1  0  0  0  0
 49 65  1  0  0  0  0
 50 56  1  0  0  0  0
 50 68  1  0  0  0  0
 51 60  1  0  0  0  0
 52 61  1  0  0  0  0
 53 61  1  0  0  0  0
 54 61  1  0  0  0  0
 55 74  1  0  0  0  0
 56 71  1  0  0  0  0
 57 58  1  0  0  0  0
 57 64  1  0  0  0  0
 58 81  1  0  0  0  0
 59 61  1  0  0  0  0
 59 73  1  0  0  0  0
 60 74  1  0  0  0  0
 63 65  1  0  0  0  0
M  CHG  1  74   1
M  ISO  4  35 100  58 101  68 100  81 101
M  END
> <Batch ID>
0190

> <Smiles>
CNC(C)C(=O)NC(C(=O)N1Cc2cc([101O:1][101CH2:1]Cn3cncc3NCC3CC[100N:0]3[100C:0](=O)N3CCCC(n4nc(-c5ccc(Oc6ccc(F)cc6F)cc5)c(C(N)=O)c4N)C3)ccc2CC1C(=O)NC1CCCc2ccccc21)C(C)(C)C

> <Shape>
0.282

> <Color>
0.084

> <Negative vol penalty>
0.000

$$$$

  -OEChem-04052323243D

 83 92  0     1  0  0  0  0  0999 V2000
  -20.1124   -9.4901   19.2630 C   0  0  0  0  0  0  0  0  0  0  0  0
  -20.3903  -10.8336   19.4933 C   0  0  0  0  0  0  0  0  0  0  0  0
  -22.3396  -29.9579   23.5587 C   0  0  0  0  0  0  0  0  0  0  0  0
  -23.2480  -32.1837   23.3183 C   0  0  0  0  0  0  0  0  0  0  0  0
  -21.0037   -8.5104   19.6986 C   0  0  0  0  0  0  0  0  0  0  0  0
  -21.5593  -11.1982   20.1603 C   0  0  0  0  0  0  0  0  0  0  0  0
  -24.9671  -16.1869   19.1572 C   0  0  0  0  0  0  0  0  0  0  0  0
  -21.4739  -30.4183   24.5507 C   0  0  0  0  0  0  0  0  0  0  0  0
  -22.3822  -32.6442   24.3103 C   0  0  0  0  0  0  0  0  0  0  0  0
  -25.0342  -17.4219   19.8006 C   0  0  0  0  0  0  0  0  0  0  0  0
  -18.7741  -31.0825   26.8927 C   0  0  0  0  0  0  0  0  0  0  0  0
  -17.4428  -30.6704   26.8340 C   0  0  0  0  0  0  0  0  0  0  0  0
  -26.9009  -16.6322   21.1087 C   0  0  0  0  0  0  0  0  0  0  0  0
  -17.2200  -31.7000   24.6597 C   0  0  0  0  0  0  0  0  0  0  0  0
  -23.2267  -30.8406   22.9425 C   0  0  0  0  0  0  0  0  0  0  0  0
  -23.8777  -30.3155   20.5325 C   0  0  0  0  0  0  0  0  0  0  0  0
  -22.1889   -8.8637   20.3627 C   0  0  0  0  0  0  0  0  0  0  0  0
  -25.8609  -15.1599   19.4930 C   0  0  0  0  0  0  0  0  0  0  0  0
  -22.4667  -10.2223   20.6064 C   0  0  0  0  0  0  0  0  0  0  0  0
  -26.8446  -15.3859   20.4663 C   0  0  0  0  0  0  0  0  0  0  0  0
  -21.4952  -31.7615   24.9265 C   0  0  0  0  0  0  0  0  0  0  0  0
  -25.9993  -17.6438   20.7786 C   0  0  0  0  0  0  0  0  0  0  0  0
  -19.3283  -31.8034   25.8349 C   0  0  0  0  0  0  0  0  0  0  0  0
  -16.6658  -30.9791   25.7176 C   0  0  0  0  0  0  0  0  0  0  0  0
  -18.5513  -32.1121   24.7184 C   0  0  0  0  0  0  0  0  0  0  0  0
  -24.1216  -30.3654   21.9181 C   0  0  0  0  0  0  0  0  0  0  0  0
  -25.0291  -29.7890   19.9999 C   0  0  0  0  0  0  0  0  0  0  0  0
  -22.7145  -30.7099   19.7929 C   0  0  0  0  0  0  0  0  0  0  0  0
  -25.5649  -12.2337   20.6987 C   0  0  0  0  0  0  0  0  0  0  0  0
  -28.7512  -12.0897   20.1079 C   0  0  0  0  0  0  0  0  0  0  0  0
  -31.6916  -13.7608   19.6520 C   0  0  0  0  0  0  0  0  0  0  0  0
  -29.0249  -26.1662   19.9375 C   0  0  0  0  0  0  0  0  0  0  0  0
  -23.0988   -7.7670   20.8567 C   0  0  0  0  0  0  0  0  0  0  0  0
  -25.7925  -13.8422   18.7708 C   0  0  0  0  0  0  0  0  0  0  0  0
  -27.8406  -14.3229   20.8490 C   0  0  0  0  0  0  0  0  0  0  0  0
  -24.4975   -8.2555   21.2246 C   0  0  0  0  0  0  0  0  0  0  0  0
  -29.5539  -28.9623   22.0738 C   0  0  0  0  0  0  0  0  0  0  0  0
  -24.4150   -9.5195   22.0746 C   0  0  0  0  0  0  0  0  0  0  0  0
  -28.1527  -29.5668   22.1293 C   0  0  0  0  0  0  0  0  0  0  0  0
  -29.5250  -27.4325   22.0806 C   0  0  0  0  0  0  0  0  0  0  0  0
  -30.5848  -24.7041   21.3280 C   0  0  0  0  0  0  0  0  0  0  0  0
  -27.2559  -27.4540   21.0899 C   0  0  0  0  0  0  0  0  0  0  0  0
  -30.8279  -24.7874   18.9326 C   0  0  0  0  0  0  0  0  0  0  0  0
  -23.7364  -10.6588   21.3046 C   0  0  1  0  0  0  0  0  0  0  0  0
  -26.4238  -12.6969   19.5562 C   0  0  1  0  0  0  0  0  0  0  0  0
  -31.0094  -23.3115   20.8782 C   0  0  2  0  0  0  0  0  0  0  0  0
  -27.2632  -28.9878   21.0164 C   0  0  1  0  0  0  0  0  0  0  0  0
  -31.0929  -23.3519   19.3435 C   0  0  1  0  0  0  0  0  0  0  0  0
  -29.9957  -22.1477   20.6876 C   0  0  1  0  0  0  0  0  0  0  0  0
  -34.1336  -13.3704   19.2253 C   0  0  0  0  0  0  0  0  0  0  0  0
  -28.8144  -22.1824   22.9187 C   0  0  0  0  0  0  0  0  0  0  0  0
  -29.1283  -11.2767   23.0245 C   0  0  0  0  0  0  0  0  0  0  0  0
  -31.5598  -11.8252   22.7904 C   0  0  0  0  0  0  0  0  0  0  0  0
  -30.5512  -10.0177   21.3982 C   0  0  0  0  0  0  0  0  0  0  0  0
  -30.0967  -21.3598   18.4046 C   0  0  0  0  0  0  0  0  0  0  0  0
  -31.5969  -15.2304   17.0848 C   0  0  0  0  0  0  0  0  0  0  0  0
  -26.3777  -21.2247   21.1741 C   0  0  0  0  0  0  0  0  0  0  0  0
  -25.6517  -19.9938   20.6682 C   0  0  0  0  0  0  0  0  0  1  0  0
  -29.9992  -12.4311   20.8856 C   0  0  1  0  0  0  0  0  0  0  0  0
  -32.7733  -13.6263   18.5953 C   0  0  2  0  0  0  0  0  0  0  0  0
  -28.6596  -22.2136   21.4059 C   0  0  2  0  0  0  0  0  0  0  0  0
  -30.2898  -11.4073   22.0191 C   0  0  0  0  0  0  0  0  0  0  0  0
  -25.3328  -29.9071   22.2453 N   0  0  0  0  0  0  0  0  0  0  0  0
  -25.8602  -29.5640   21.0577 N   0  0  0  0  0  0  0  0  0  0  0  0
  -27.7290  -13.0493   20.1188 N   0  0  0  0  0  0  0  0  0  0  0  0
  -28.6177  -26.9149   21.0491 N   0  0  0  0  0  0  0  0  0  0  0  0
  -30.1360  -25.3336   20.0910 N   0  0  0  0  0  0  0  0  0  0  0  0
  -29.8716  -22.5188   19.2626 N   0  0  2  0  0  0  0  0  0  0  0  0
  -25.4016  -29.5011   18.7347 N   0  0  0  0  0  0  0  0  0  0  0  0
  -21.6204  -31.2315   20.4967 N   0  0  0  0  0  0  0  0  0  0  0  0
  -24.6583  -11.2481   20.3574 N   0  0  0  0  0  0  0  0  0  0  0  0
  -31.0709  -12.5555   19.9036 N   0  0  0  0  0  0  0  0  0  0  0  0
  -32.8593  -14.8713   17.7808 N   0  3  0  0  0  0  0  0  0  0  0  0
  -27.8411  -21.0404   20.9924 N   0  3  0  0  0  0  0  0  0  0  0  0
  -22.6409  -30.5875   18.5467 O   0  0  0  0  0  0  0  0  0  0  0  0
  -25.7145  -12.7324   21.8080 O   0  0  0  0  0  0  0  0  0  0  0  0
  -28.6885  -11.0143   19.5068 O   0  0  0  0  0  0  0  0  0  0  0  0
  -31.4266  -14.8274   20.2019 O   0  0  0  0  0  0  0  0  0  0  0  0
  -28.4008  -26.2155   18.8696 O   0  0  0  0  0  0  0  0  0  0  0  0
  -20.6504  -32.2112   25.8943 O   0  0  0  0  0  0  0  0  0  0  0  0
  -26.0671  -18.8567   21.4131 O   0  0  0  0  0  0  0  0  0  1  0  0
  -15.3878  -30.5820   25.6607 F   0  0  0  0  0  0  0  0  0  0  0  0
  -19.0785  -32.8033   23.6986 F   0  0  0  0  0  0  0  0  0  0  0  0
  1  2  1  0  0  0  0
  1  5  2  0  0  0  0
  2  6  2  0  0  0  0
  3  8  2  0  0  0  0
  3 15  1  0  0  0  0
  4  9  1  0  0  0  0
  4 15  2  0  0  0  0
  5 17  1  0  0  0  0
  6 19  1  0  0  0  0
  7 10  2  0  0  0  0
  7 18  1  0  0  0  0
  8 21  1  0  0  0  0
  9 21  2  0  0  0  0
 10 22  1  0  0  0  0
 11 12  2  0  0  0  0
 11 23  1  0  0  0  0
 12 24  1  0  0  0  0
 13 20  1  0  0  0  0
 13 22  2  0  0  0  0
 14 24  2  0  0  0  0
 14 25  1  0  0  0  0
 15 26  1  0  0  0  0
 16 26  1  0  0  0  0
 16 27  2  0  0  0  0
 16 28  1  0  0  0  0
 17 19  2  0  0  0  0
 17 33  1  0  0  0  0
 18 20  2  0  0  0  0
 18 34  1  0  0  0  0
 19 44  1  0  0  0  0
 20 35  1  0  0  0  0
 21 80  1  0  0  0  0
 22 81  1  0  0  0  0
 23 25  2  0  0  0  0
 23 80  1  0  0  0  0
 24 82  1  0  0  0  0
 25 83  1  0  0  0  0
 26 63  2  0  0  0  0
 27 64  1  0  0  0  0
 27 69  1  0  0  0  0
 28 70  1  0  0  0  0
 28 75  2  0  0  0  0
 29 45  1  0  0  0  0
 29 71  1  0  0  0  0
 29 76  2  0  0  0  0
 30 59  1  0  0  0  0
 30 65  1  0  0  0  0
 30 77  2  0  0  0  0
 31 60  1  0  0  0  0
 31 72  1  0  0  0  0
 31 78  2  0  0  0  0
 32 66  1  0  0  0  0
 32 67  1  0  0  0  0
 32 79  2  0  0  0  0
 33 36  1  0  0  0  0
 34 45  1  0  0  0  0
 35 65  1  0  0  0  0
 36 38  1  0  0  0  0
 37 39  1  0  0  0  0
 37 40  1  0  0  0  0
 38 44  1  0  0  0  0
 39 47  1  0  0  0  0
 40 66  1  0  0  0  0
 41 46  1  0  0  0  0
 41 67  1  0  0  0  0
 42 47  1  0  0  0  0
 42 66  1  0  0  0  0
 43 48  1  0  0  0  0
 43 67  1  0  0  0  0
 44 71  1  0  0  0  0
 45 65  1  0  0  0  0
 46 48  1  0  0  0  0
 46 49  1  0  0  0  0
 47 64  1  0  0  0  0
 48 68  1  0  0  0  0
 49 61  1  0  0  0  0
 49 68  1  0  0  0  0
 50 60  1  0  0  0  0
 51 61  1  0  0  0  0
 52 62  1  0  0  0  0
 53 62  1  0  0  0  0
 54 62  1  0  0  0  0
 55 68  1  0  0  0  0
 56 73  1  0  0  0  0
 57 58  1  0  0  0  0
 57 74  1  0  0  0  0
 58 81  1  0  0  0  0
 59 62  1  0  0  0  0
 59 72  1  0  0  0  0
 60 73  1  0  0  0  0
 61 74  1  0  0  0  0
 63 64  1  0  0  0  0
M  CHG  2  73   1  74   1
M  ISO  4  32 100  58 101  67 100  81 101
M  END
> <Batch ID>
0190

> <Smiles>
CNC(C)C(=O)NC(C(=O)N1Cc2cc([101O:1][101CH2:1]CNC(C)C3C4C[100N:0]([100C:0](=O)N5CCCC(n6nc(-c7ccc(Oc8ccc(F)cc8F)cc7)c(C(N)=O)c6N)C5)CC4N3C)ccc2CC1C(=O)NC1CCCc2ccccc21)C(C)(C)C

> <Shape>
0.271

> <Color>
0.053

> <Negative vol penalty>
0.000

$$$$

  -OEChem-04052323243D

 81 89  0     1  0  0  0  0  0999 V2000
  -18.9398  -33.2140   20.7956 C   0  0  0  0  0  0  0  0  0  0  0  0
  -20.1760  -32.7911   20.3179 C   0  0  0  0  0  0  0  0  0  0  0  0
  -26.1912  -12.9196   21.6635 C   0  0  0  0  0  0  0  0  0  0  0  0
  -25.8757  -13.7666   19.4229 C   0  0  0  0  0  0  0  0  0  0  0  0
  -18.5006  -32.7998   22.0524 C   0  0  0  0  0  0  0  0  0  0  0  0
  -20.9744  -31.9547   21.0972 C   0  0  0  0  0  0  0  0  0  0  0  0
  -24.6857  -27.5072   19.1091 C   0  0  0  0  0  0  0  0  0  0  0  0
  -24.9855  -12.2246   21.5706 C   0  0  0  0  0  0  0  0  0  0  0  0
  -24.6700  -13.0714   19.3299 C   0  0  0  0  0  0  0  0  0  0  0  0
  -26.0607  -27.4640   18.8833 C   0  0  0  0  0  0  0  0  0  0  0  0
  -23.8624   -9.3623   20.1637 C   0  0  0  0  0  0  0  0  0  0  0  0
  -23.8406   -8.0400   20.6070 C   0  0  0  0  0  0  0  0  0  0  0  0
  -26.3842  -26.5056   21.0732 C   0  0  0  0  0  0  0  0  0  0  0  0
  -22.1465   -8.6125   22.2316 C   0  0  0  0  0  0  0  0  0  0  0  0
  -28.6645  -22.1972   16.3635 C   0  0  0  0  0  0  0  0  0  0  0  0
  -26.6363  -13.6907   20.5897 C   0  0  0  0  0  0  0  0  0  0  0  0
  -29.1613  -13.9439   20.3288 C   0  0  0  0  0  0  0  0  0  0  0  0
  -19.2898  -31.9501   22.8435 C   0  0  0  0  0  0  0  0  0  0  0  0
  -24.1496  -27.0592   20.3250 C   0  0  0  0  0  0  0  0  0  0  0  0
  -20.5460  -31.5299   22.3664 C   0  0  0  0  0  0  0  0  0  0  0  0
  -25.0018  -26.5418   21.3110 C   0  0  0  0  0  0  0  0  0  0  0  0
  -24.2249  -12.3004   20.4038 C   0  0  0  0  0  0  0  0  0  0  0  0
  -26.9106  -26.9658   19.8665 C   0  0  0  0  0  0  0  0  0  0  0  0
  -23.0262  -10.3098   20.7544 C   0  0  0  0  0  0  0  0  0  0  0  0
  -22.9827   -7.6650   21.6409 C   0  0  0  0  0  0  0  0  0  0  0  0
  -22.1682   -9.9348   21.7883 C   0  0  0  0  0  0  0  0  0  0  0  0
  -29.0801  -23.4936   16.5895 C   0  0  0  0  0  0  0  0  0  0  0  0
  -27.8814  -14.4094   20.6853 C   0  0  0  0  0  0  0  0  0  0  0  0
  -29.4144  -23.7945   17.8940 C   0  0  0  0  0  0  0  0  0  0  0  0
  -29.9993  -14.9958   20.6076 C   0  0  0  0  0  0  0  0  0  0  0  0
  -28.9319  -21.6752   18.5596 C   0  0  0  0  0  0  0  0  0  0  0  0
  -29.5572  -12.6740   19.7936 C   0  0  0  0  0  0  0  0  0  0  0  0
  -22.5009  -28.4104   22.6830 C   0  0  0  0  0  0  0  0  0  0  0  0
  -22.3368  -25.3656   23.7896 C   0  0  0  0  0  0  0  0  0  0  0  0
  -23.6793  -22.2286   23.8498 C   0  0  0  0  0  0  0  0  0  0  0  0
  -29.1625  -20.9026   20.9463 C   0  0  0  0  0  0  0  0  0  0  0  0
  -18.7937  -31.5672   24.2153 C   0  0  0  0  0  0  0  0  0  0  0  0
  -22.6616  -27.0877   20.5427 C   0  0  0  0  0  0  0  0  0  0  0  0
  -24.4745  -26.0297   22.6257 C   0  0  0  0  0  0  0  0  0  0  0  0
  -19.5350  -30.3784   24.8213 C   0  0  0  0  0  0  0  0  0  0  0  0
  -30.4210  -18.7796   23.5126 C   0  0  0  0  0  0  0  0  0  0  0  0
  -21.0418  -30.5474   24.6543 C   0  0  0  0  0  0  0  0  0  0  0  0
  -30.0344  -17.3751   23.0434 C   0  0  0  0  0  0  0  0  0  0  0  0
  -29.3449  -19.8083   23.1699 C   0  0  0  0  0  0  0  0  0  0  0  0
  -28.5496  -18.4284   21.2904 C   0  0  0  0  0  0  0  0  0  0  0  0
  -21.4299  -30.6024   23.1718 C   0  0  1  0  0  0  0  0  0  0  0  0
  -22.2734  -27.0823   22.0181 C   0  0  1  0  0  0  0  0  0  0  0  0
  -29.6317  -17.3690   21.5556 C   0  0  2  0  0  0  0  0  0  0  0  0
  -23.3454  -19.9624   24.8746 C   0  0  0  0  0  0  0  0  0  0  0  0
  -23.4564  -26.3989   26.4332 C   0  0  0  0  0  0  0  0  0  0  0  0
  -23.9859  -24.0320   27.0541 C   0  0  0  0  0  0  0  0  0  0  0  0
  -21.6194  -24.7178   26.6643 C   0  0  0  0  0  0  0  0  0  0  0  0
  -23.3186  -20.9563   21.2021 C   0  0  0  0  0  0  0  0  0  0  0  0
  -30.2180  -25.5442   19.4810 C   0  0  0  0  0  0  0  0  0  0  0  0
  -28.9840  -25.8845   20.2997 C   0  0  0  0  0  0  0  0  0  1  0  0
  -23.1900  -24.5094   24.6941 C   0  0  1  0  0  0  0  0  0  0  0  0
  -23.0465  -20.8588   23.6831 C   0  0  2  0  0  0  0  0  0  0  0  0
  -23.0734  -24.9259   26.1875 C   0  0  0  0  0  0  0  0  0  0  0  0
  -28.5782  -21.2586   17.3288 N   0  0  0  0  0  0  0  0  0  0  0  0
  -27.8999  -15.6598   21.1547 N   0  0  0  0  0  0  0  0  0  0  0  0
  -29.3517  -22.9065   18.9079 N   0  0  0  0  0  0  0  0  0  0  0  0
  -29.2015  -15.9887   21.0953 N   0  0  0  0  0  0  0  0  0  0  0  0
  -23.0129  -26.0843   22.7935 N   0  0  0  0  0  0  0  0  0  0  0  0
  -29.0176  -19.7476   21.7437 N   0  0  0  0  0  0  0  0  0  0  0  0
  -31.3333  -15.1590   20.4806 N   0  0  0  0  0  0  0  0  0  0  0  0
  -28.5687  -11.7065   19.5679 N   0  0  0  0  0  0  0  0  0  0  0  0
  -29.8363  -25.0856   18.1650 N   0  0  0  0  0  0  0  0  0  0  0  0
  -28.8530  -20.7159   19.5995 N   0  0  0  0  0  0  0  0  0  0  0  0
  -21.4251  -29.2735   22.5985 N   0  0  0  0  0  0  0  0  0  0  0  0
  -22.8074  -23.1270   24.4276 N   0  0  0  0  0  0  0  0  0  0  0  0
  -23.5650  -20.1949   22.4537 N   0  3  0  0  0  0  0  0  0  0  0  0
  -30.7544  -12.3995   19.5389 O   0  0  0  0  0  0  0  0  0  0  0  0
  -23.5726  -28.6349   23.2332 O   0  0  0  0  0  0  0  0  0  0  0  0
  -21.1148  -25.3901   23.9561 O   0  0  0  0  0  0  0  0  0  0  0  0
  -24.8329  -22.4758   23.5055 O   0  0  0  0  0  0  0  0  0  0  0  0
  -29.5599  -21.9711   21.4179 O   0  0  0  0  0  0  0  0  0  0  0  0
  -23.0484  -11.6220   20.3127 O   0  0  0  0  0  0  0  0  0  0  0  0
  -28.2532  -26.9232   19.6489 O   0  0  0  0  0  0  0  0  0  1  0  0
  -22.9608   -6.3948   22.0655 F   0  0  0  0  0  0  0  0  0  0  0  0
  -21.3618  -10.8403   22.3589 F   0  0  0  0  0  0  0  0  0  0  0  0
  -29.1491  -24.3896   15.5993 F   0  0  0  0  0  0  0  0  0  0  0  0
  1  2  1  0  0  0  0
  1  5  2  0  0  0  0
  2  6  2  0  0  0  0
  3  8  2  0  0  0  0
  3 16  1  0  0  0  0
  4  9  1  0  0  0  0
  4 16  2  0  0  0  0
  5 18  1  0  0  0  0
  6 20  1  0  0  0  0
  7 10  2  0  0  0  0
  7 19  1  0  0  0  0
  8 22  1  0  0  0  0
  9 22  2  0  0  0  0
 10 23  1  0  0  0  0
 11 12  2  0  0  0  0
 11 24  1  0  0  0  0
 12 25  1  0  0  0  0
 13 21  1  0  0  0  0
 13 23  2  0  0  0  0
 14 25  2  0  0  0  0
 14 26  1  0  0  0  0
 15 27  1  0  0  0  0
 15 59  2  0  0  0  0
 16 28  1  0  0  0  0
 17 28  1  0  0  0  0
 17 30  2  0  0  0  0
 17 32  1  0  0  0  0
 18 20  2  0  0  0  0
 18 37  1  0  0  0  0
 19 21  2  0  0  0  0
 19 38  1  0  0  0  0
 20 46  1  0  0  0  0
 21 39  1  0  0  0  0
 22 77  1  0  0  0  0
 23 78  1  0  0  0  0
 24 26  2  0  0  0  0
 24 77  1  0  0  0  0
 25 79  1  0  0  0  0
 26 80  1  0  0  0  0
 27 29  2  0  0  0  0
 27 81  1  0  0  0  0
 28 60  2  0  0  0  0
 29 61  1  0  0  0  0
 29 67  1  0  0  0  0
 30 62  1  0  0  0  0
 30 65  1  0  0  0  0
 31 59  1  0  0  0  0
 31 61  2  0  0  0  0
 31 68  1  0  0  0  0
 32 66  1  0  0  0  0
 32 72  2  0  0  0  0
 33 47  1  0  0  0  0
 33 69  1  0  0  0  0
 33 73  2  0  0  0  0
 34 56  1  0  0  0  0
 34 63  1  0  0  0  0
 34 74  2  0  0  0  0
 35 57  1  0  0  0  0
 35 70  1  0  0  0  0
 35 75  2  0  0  0  0
 36 64  1  0  0  0  0
 36 68  1  0  0  0  0
 36 76  2  0  0  0  0
 37 40  1  0  0  0  0
 38 47  1  0  0  0  0
 39 63  1  0  0  0  0
 40 42  1  0  0  0  0
 41 43  1  0  0  0  0
 41 44  1  0  0  0  0
 42 46  1  0  0  0  0
 43 48  1  0  0  0  0
 44 64  1  0  0  0  0
 45 48  1  0  0  0  0
 45 64  1  0  0  0  0
 46 69  1  0  0  0  0
 47 63  1  0  0  0  0
 48 62  1  0  0  0  0
 49 57  1  0  0  0  0
 50 58  1  0  0  0  0
 51 58  1  0  0  0  0
 52 58  1  0  0  0  0
 53 71  1  0  0  0  0
 54 55  1  0  0  0  0
 54 67  1  0  0  0  0
 55 78  1  0  0  0  0
 56 58  1  0  0  0  0
 56 70  1  0  0  0  0
 57 71  1  0  0  0  0
 60 62  1  0  0  0  0
M  CHG  1  71   1
M  ISO  4  36 100  55 101  68 100  78 101
M  END
> <Batch ID>
0190

> <Smiles>
CNC(C)C(=O)NC(C(=O)N1Cc2cc([101O:1][101CH2:1]CNc3nc([100NH:0][100C:0](=O)N4CCCC(n5nc(-c6ccc(Oc7ccc(F)cc7F)cc6)c(C(N)=O)c5N)C4)ncc3F)ccc2CC1C(=O)NC1CCCc2ccccc21)C(C)(C)C

> <Shape>
0.253

> <Color>
0.119

> <Negative vol penalty>
0.000

$$$$

  -OEChem-04052323243D

 87 97  0     1  0  0  0  0  0999 V2000
  -17.1166  -27.1751   20.6917 C   0  0  0  0  0  0  0  0  0  0  0  0
  -18.3833  -26.6753   20.4072 C   0  0  0  0  0  0  0  0  0  0  0  0
  -22.7977  -11.1360   19.2402 C   0  0  0  0  0  0  0  0  0  0  0  0
  -23.2667   -9.8461   21.2285 C   0  0  0  0  0  0  0  0  0  0  0  0
  -16.9735  -28.2523   21.5652 C   0  0  0  0  0  0  0  0  0  0  0  0
  -19.5079  -27.2532   20.9951 C   0  0  0  0  0  0  0  0  0  0  0  0
  -22.8107  -23.7488   22.8124 C   0  0  0  0  0  0  0  0  0  0  0  0
  -21.7867  -10.2386   18.8965 C   0  0  0  0  0  0  0  0  0  0  0  0
  -22.2556   -8.9487   20.8848 C   0  0  0  0  0  0  0  0  0  0  0  0
  -23.6460  -23.0941   21.9082 C   0  0  0  0  0  0  0  0  0  0  0  0
  -21.8447   -6.3547   18.7556 C   0  0  0  0  0  0  0  0  0  0  0  0
  -22.1224   -4.9923   18.8660 C   0  0  0  0  0  0  0  0  0  0  0  0
  -25.4310  -24.6187   22.4627 C   0  0  0  0  0  0  0  0  0  0  0  0
  -26.9425  -19.9919   19.4411 C   0  0  0  0  0  0  0  0  0  0  0  0
  -20.3184   -4.7534   20.4553 C   0  0  0  0  0  0  0  0  0  0  0  0
  -23.5378  -10.9397   20.4062 C   0  0  0  0  0  0  0  0  0  0  0  0
  -24.4577  -13.0286   21.5454 C   0  0  0  0  0  0  0  0  0  0  0  0
  -18.0962  -28.8376   22.1716 C   0  0  0  0  0  0  0  0  0  0  0  0
  -23.2765  -24.8518   23.5425 C   0  0  0  0  0  0  0  0  0  0  0  0
  -19.3798  -28.3402   21.8765 C   0  0  0  0  0  0  0  0  0  0  0  0
  -24.6011  -25.2825   23.3790 C   0  0  0  0  0  0  0  0  0  0  0  0
  -27.8139  -19.8510   18.3318 C   0  0  0  0  0  0  0  0  0  0  0  0
  -21.5156   -9.1450   19.7188 C   0  0  0  0  0  0  0  0  0  0  0  0
  -24.9556  -23.5305   21.7316 C   0  0  0  0  0  0  0  0  0  0  0  0
  -20.8039   -6.9166   19.4951 C   0  0  0  0  0  0  0  0  0  0  0  0
  -21.3593   -4.1916   19.7158 C   0  0  0  0  0  0  0  0  0  0  0  0
  -20.0408   -6.1159   20.3449 C   0  0  0  0  0  0  0  0  0  0  0  0
  -24.5827  -11.8660   20.7615 C   0  0  0  0  0  0  0  0  0  0  0  0
  -27.6310  -20.9499   17.5150 C   0  0  0  0  0  0  0  0  0  0  0  0
  -26.2436  -21.1677   19.2728 C   0  0  0  0  0  0  0  0  0  0  0  0
  -25.7266  -13.5526   21.5871 C   0  0  0  0  0  0  0  0  0  0  0  0
  -23.2983  -13.5850   22.1794 C   0  0  0  0  0  0  0  0  0  0  0  0
  -22.4911  -27.9415   23.8295 C   0  0  0  0  0  0  0  0  0  0  0  0
  -24.8305  -27.7805   26.1863 C   0  0  0  0  0  0  0  0  0  0  0  0
  -23.8060  -30.8231   27.3405 C   0  0  0  0  0  0  0  0  0  0  0  0
  -30.4932  -14.9244   19.2823 C   0  0  0  0  0  0  0  0  0  0  0  0
  -17.8954  -30.0306   23.0723 C   0  0  0  0  0  0  0  0  0  0  0  0
  -22.3683  -25.5253   24.5354 C   0  0  0  0  0  0  0  0  0  0  0  0
  -25.1497  -26.4584   24.1412 C   0  0  0  0  0  0  0  0  0  0  0  0
  -19.1077  -30.3460   23.9447 C   0  0  0  0  0  0  0  0  0  0  0  0
  -30.1610  -11.5977   20.1622 C   0  0  0  0  0  0  0  0  0  0  0  0
  -20.3861  -30.3160   23.1131 C   0  0  0  0  0  0  0  0  0  0  0  0
  -28.6698  -11.4508   20.4649 C   0  0  0  0  0  0  0  0  0  0  0  0
  -29.8075  -18.5604   19.2142 C   0  0  0  0  0  0  0  0  0  0  0  0
  -27.9860  -17.3544   17.9380 C   0  0  0  0  0  0  0  0  0  0  0  0
  -26.1495  -22.9567   17.5168 C   0  0  0  0  0  0  0  0  0  0  0  0
  -30.3859  -12.4742   18.9352 C   0  0  0  0  0  0  0  0  0  0  0  0
  -30.7277  -17.3635   18.9862 C   0  0  0  0  0  0  0  0  0  0  0  0
  -28.9471  -16.1864   17.7373 C   0  0  0  0  0  0  0  0  0  0  0  0
  -28.2762  -13.6980   19.3426 C   0  0  0  0  0  0  0  0  0  0  0  0
  -27.1122  -23.5744   16.5127 C   0  0  0  0  0  0  0  0  0  0  0  0
  -28.7507  -18.6797   18.1026 C   0  0  0  0  0  0  0  0  0  0  0  0
  -20.6219  -28.9244   22.5138 C   0  0  1  0  0  0  0  0  0  0  0  0
  -28.2781  -21.3479   16.2282 C   0  0  2  0  0  0  0  0  0  0  0  0
  -22.8093  -26.9404   24.9037 C   0  0  1  0  0  0  0  0  0  0  0  0
  -27.9923  -12.8275   20.5830 C   0  0  1  0  0  0  0  0  0  0  0  0
  -29.7464  -21.7193   16.4217 C   0  0  0  0  0  0  0  0  0  0  0  0
  -24.1313  -32.4163   29.2518 C   0  0  0  0  0  0  0  0  0  0  0  0
  -23.0964  -26.0033   27.9584 C   0  0  0  0  0  0  0  0  0  0  0  0
  -22.6742  -27.9925   29.4190 C   0  0  0  0  0  0  0  0  0  0  0  0
  -24.9952  -27.1213   29.1413 C   0  0  0  0  0  0  0  0  0  0  0  0
  -24.8251  -32.9467   25.5486 C   0  0  0  0  0  0  0  0  0  0  0  0
  -25.2177  -21.7824   20.1405 C   0  0  0  0  0  0  0  0  0  1  0  0
  -23.8935  -28.3466   27.2237 C   0  0  1  0  0  0  0  0  0  0  0  0
  -24.5852  -32.0198   27.8556 C   0  0  2  0  0  0  0  0  0  0  0  0
  -23.6586  -27.3668   28.4078 C   0  0  0  0  0  0  0  0  0  0  0  0
  -25.8323  -11.6631   20.3357 N   0  0  0  0  0  0  0  0  0  0  0  0
  -26.6680  -21.7345   18.1034 N   0  0  0  0  0  0  0  0  0  0  0  0
  -26.5041  -12.7053   20.8539 N   0  0  0  0  0  0  0  0  0  0  0  0
  -24.2533  -27.0266   25.1565 N   0  0  0  0  0  0  0  0  0  0  0  0
  -29.7220  -13.7691   19.0838 N   0  0  0  0  0  0  0  0  0  0  0  0
  -29.9632  -16.1313   18.7971 N   0  0  0  0  0  0  0  0  0  0  0  0
  -26.2419  -14.6511   22.1790 N   0  0  0  0  0  0  0  0  0  0  0  0
  -22.0736  -12.9189   22.0352 N   0  0  0  0  0  0  0  0  0  0  0  0
  -21.1474  -28.0241   23.5177 N   0  0  0  0  0  0  0  0  0  0  0  0
  -24.4510  -29.6362   27.6169 N   0  0  0  0  0  0  0  0  0  0  0  0
  -27.5694  -22.5081   15.5633 N   0  3  0  0  0  0  0  0  0  0  0  0
  -24.3973  -33.1888   26.9506 N   0  3  0  0  0  0  0  0  0  0  0  0
  -23.3437  -14.6504   22.8400 O   0  0  0  0  0  0  0  0  0  0  0  0
  -23.3972  -28.5920   23.3222 O   0  0  0  0  0  0  0  0  0  0  0  0
  -26.0420  -27.9929   26.2880 O   0  0  0  0  0  0  0  0  0  0  0  0
  -22.7307  -30.9303   26.7550 O   0  0  0  0  0  0  0  0  0  0  0  0
  -31.5856  -14.8839   19.8619 O   0  0  0  0  0  0  0  0  0  0  0  0
  -20.5290   -8.2692   19.3839 O   0  0  0  0  0  0  0  0  0  0  0  0
  -25.7776  -22.8895   20.8454 O   0  0  0  0  0  0  0  0  0  1  0  0
  -21.6250   -2.8830   19.8205 F   0  0  0  0  0  0  0  0  0  0  0  0
  -19.0389   -6.6497   21.0570 F   0  0  0  0  0  0  0  0  0  0  0  0
  1  2  1  0  0  0  0
  1  5  2  0  0  0  0
  2  6  2  0  0  0  0
  3  8  2  0  0  0  0
  3 16  1  0  0  0  0
  4  9  1  0  0  0  0
  4 16  2  0  0  0  0
  5 18  1  0  0  0  0
  6 20  1  0  0  0  0
  7 10  2  0  0  0  0
  7 19  1  0  0  0  0
  8 23  1  0  0  0  0
  9 23  2  0  0  0  0
 10 24  1  0  0  0  0
 11 12  2  0  0  0  0
 11 25  1  0  0  0  0
 12 26  1  0  0  0  0
 13 21  1  0  0  0  0
 13 24  2  0  0  0  0
 14 22  1  0  0  0  0
 14 30  2  0  0  0  0
 15 26  2  0  0  0  0
 15 27  1  0  0  0  0
 16 28  1  0  0  0  0
 17 28  1  0  0  0  0
 17 31  2  0  0  0  0
 17 32  1  0  0  0  0
 18 20  2  0  0  0  0
 18 37  1  0  0  0  0
 19 21  2  0  0  0  0
 19 38  1  0  0  0  0
 20 53  1  0  0  0  0
 21 39  1  0  0  0  0
 22 29  2  0  0  0  0
 22 52  1  0  0  0  0
 23 84  1  0  0  0  0
 24 85  1  0  0  0  0
 25 27  2  0  0  0  0
 25 84  1  0  0  0  0
 26 86  1  0  0  0  0
 27 87  1  0  0  0  0
 28 67  2  0  0  0  0
 29 54  1  0  0  0  0
 29 68  1  0  0  0  0
 30 63  1  0  0  0  0
 30 68  1  0  0  0  0
 31 69  1  0  0  0  0
 31 73  1  0  0  0  0
 32 74  1  0  0  0  0
 32 79  2  0  0  0  0
 33 55  1  0  0  0  0
 33 75  1  0  0  0  0
 33 80  2  0  0  0  0
 34 64  1  0  0  0  0
 34 70  1  0  0  0  0
 34 81  2  0  0  0  0
 35 65  1  0  0  0  0
 35 76  1  0  0  0  0
 35 82  2  0  0  0  0
 36 71  1  0  0  0  0
 36 72  1  0  0  0  0
 36 83  2  0  0  0  0
 37 40  1  0  0  0  0
 38 55  1  0  0  0  0
 39 70  1  0  0  0  0
 40 42  1  0  0  0  0
 41 43  1  0  0  0  0
 41 47  1  0  0  0  0
 42 53  1  0  0  0  0
 43 56  1  0  0  0  0
 44 48  1  0  0  0  0
 44 52  1  0  0  0  0
 45 49  1  0  0  0  0
 45 52  1  0  0  0  0
 46 51  1  0  0  0  0
 46 68  1  0  0  0  0
 47 71  1  0  0  0  0
 48 72  1  0  0  0  0
 49 72  1  0  0  0  0
 50 56  1  0  0  0  0
 50 71  1  0  0  0  0
 51 77  1  0  0  0  0
 53 75  1  0  0  0  0
 54 57  1  0  0  0  0
 54 77  1  0  0  0  0
 55 70  1  0  0  0  0
 56 69  1  0  0  0  0
 58 65  1  0  0  0  0
 59 66  1  0  0  0  0
 60 66  1  0  0  0  0
 61 66  1  0  0  0  0
 62 78  1  0  0  0  0
 63 85  1  0  0  0  0
 64 66  1  0  0  0  0
 64 76  1  0  0  0  0
 65 78  1  0  0  0  0
 67 69  1  0  0  0  0
M  CHG  2  77   1  78   1
M  ISO  4  36 100  63 101  72 100  85 101
M  END
> <Batch ID>
0190

> <Smiles>
CNC(C)C(=O)NC(C(=O)N1Cc2cc([101O:1][101CH2:1]c3cc(C4CC[100N:0]([100C:0](=O)N5CCCC(n6nc(-c7ccc(Oc8ccc(F)cc8F)cc7)c(C(N)=O)c6N)C5)CC4)c4n3CCNC4C)ccc2CC1C(=O)NC1CCCc2ccccc21)C(C)(C)C

> <Shape>
0.205

> <Color>
0.115

> <Negative vol penalty>
0.000

$$$$
