
  -OEChem-04052323273D

 82 91  0     1  0  0  0  0  0999 V2000
  -22.0504  -24.4595   20.8359 C   0  0  0  0  0  0  0  0  0  0  0  0
  -23.1162  -23.6074   20.5651 C   0  0  0  0  0  0  0  0  0  0  0  0
  -22.4657  -29.1609   19.4789 C   0  0  0  0  0  0  0  0  0  0  0  0
  -22.7081  -28.0709   21.6215 C   0  0  0  0  0  0  0  0  0  0  0  0
  -21.1035  -24.1063   21.7963 C   0  0  0  0  0  0  0  0  0  0  0  0
  -23.2363  -22.4018   21.2555 C   0  0  0  0  0  0  0  0  0  0  0  0
  -24.3868  -18.5242   18.2083 C   0  0  0  0  0  0  0  0  0  0  0  0
  -21.0782  -29.1217   19.6160 C   0  0  0  0  0  0  0  0  0  0  0  0
  -21.3205  -28.0318   21.7585 C   0  0  0  0  0  0  0  0  0  0  0  0
  -25.7135  -18.4112   17.7949 C   0  0  0  0  0  0  0  0  0  0  0  0
  -18.8433  -30.1629   22.6202 C   0  0  0  0  0  0  0  0  0  0  0  0
  -18.3047  -30.5310   23.8531 C   0  0  0  0  0  0  0  0  0  0  0  0
  -26.0867  -16.7207   19.4747 C   0  0  0  0  0  0  0  0  0  0  0  0
  -17.3110  -28.3398   24.0732 C   0  0  0  0  0  0  0  0  0  0  0  0
  -30.6582  -19.1252   21.3844 C   0  0  0  0  0  0  0  0  0  0  0  0
  -23.2807  -28.6354   20.4817 C   0  0  0  0  0  0  0  0  0  0  0  0
  -25.5820  -29.6994   20.7636 C   0  0  0  0  0  0  0  0  0  0  0  0
  -21.2067  -22.8913   22.4919 C   0  0  0  0  0  0  0  0  0  0  0  0
  -23.9022  -17.7428   19.2671 C   0  0  0  0  0  0  0  0  0  0  0  0
  -22.2905  -22.0326   22.2271 C   0  0  0  0  0  0  0  0  0  0  0  0
  -24.7528  -16.8238   19.8980 C   0  0  0  0  0  0  0  0  0  0  0  0
  -20.5056  -28.5573   20.7558 C   0  0  0  0  0  0  0  0  0  0  0  0
  -26.5644  -17.5114   18.4300 C   0  0  0  0  0  0  0  0  0  0  0  0
  -18.6156  -28.8833   22.1137 C   0  0  0  0  0  0  0  0  0  0  0  0
  -17.5386  -29.6194   24.5796 C   0  0  0  0  0  0  0  0  0  0  0  0
  -17.8495  -27.9718   22.8402 C   0  0  0  0  0  0  0  0  0  0  0  0
  -24.7141  -28.6750   20.3405 C   0  0  0  0  0  0  0  0  0  0  0  0
  -30.5630  -19.6170   20.1055 C   0  0  0  0  0  0  0  0  0  0  0  0
  -30.3282  -17.7621   21.2628 C   0  0  0  0  0  0  0  0  0  0  0  0
  -26.8323  -29.2619   20.4006 C   0  0  0  0  0  0  0  0  0  0  0  0
  -25.2846  -30.9359   21.4258 C   0  0  0  0  0  0  0  0  0  0  0  0
  -22.6967  -18.3609   22.1425 C   0  0  0  0  0  0  0  0  0  0  0  0
  -22.1776  -15.1592   22.1840 C   0  0  0  0  0  0  0  0  0  0  0  0
  -23.0325  -12.0701   21.0121 C   0  0  0  0  0  0  0  0  0  0  0  0
  -29.7329  -24.3191   20.2192 C   0  0  0  0  0  0  0  0  0  0  0  0
  -20.1847  -22.5744   23.5548 C   0  0  0  0  0  0  0  0  0  0  0  0
  -22.4614  -17.8573   19.6835 C   0  0  0  0  0  0  0  0  0  0  0  0
  -24.2761  -15.9473   21.0263 C   0  0  0  0  0  0  0  0  0  0  0  0
  -20.1782  -21.1069   23.9752 C   0  0  0  0  0  0  0  0  0  0  0  0
  -28.6083  -26.0190   17.1597 C   0  0  0  0  0  0  0  0  0  0  0  0
  -21.6015  -20.6145   24.2171 C   0  0  0  0  0  0  0  0  0  0  0  0
  -27.5141  -26.9245   17.7138 C   0  0  0  0  0  0  0  0  0  0  0  0
  -28.7144  -24.6978   17.9218 C   0  0  0  0  0  0  0  0  0  0  0  0
  -29.6369  -21.9595   19.1365 C   0  0  0  0  0  0  0  0  0  0  0  0
  -31.0483  -22.2017   20.7062 C   0  0  0  0  0  0  0  0  0  0  0  0
  -27.7638  -25.7861   19.9454 C   0  0  0  0  0  0  0  0  0  0  0  0
  -22.4415  -20.7048   22.9374 C   0  0  1  0  0  0  0  0  0  0  0  0
  -30.8274  -21.1096   19.6393 C   0  0  0  0  0  0  0  0  0  0  0  0
  -22.2124  -17.3813   21.1113 C   0  0  1  0  0  0  0  0  0  0  0  0
  -27.7090  -27.1383   19.2218 C   0  0  2  0  0  0  0  0  0  0  0  0
  -30.2729  -16.7537   22.3345 C   0  0  0  0  0  0  0  0  0  0  0  0
  -22.4561   -9.6403   21.2597 C   0  0  0  0  0  0  0  0  0  0  0  0
  -23.6754  -15.0771   24.8410 C   0  0  0  0  0  0  0  0  0  0  0  0
  -23.8969  -12.5991   24.5599 C   0  0  0  0  0  0  0  0  0  0  0  0
  -21.6350  -13.6339   24.7487 C   0  0  0  0  0  0  0  0  0  0  0  0
  -22.2455  -11.8476   18.1678 C   0  0  0  0  0  0  0  0  0  0  0  0
  -29.9582  -18.5794   17.8356 C   0  0  0  0  0  0  0  0  0  0  0  0
  -28.4744  -18.5669   17.4845 C   0  0  0  0  0  0  0  0  0  1  0  0
  -22.9708  -13.9532   22.6260 C   0  0  1  0  0  0  0  0  0  0  0  0
  -22.1884  -10.9227   20.4873 C   0  0  2  0  0  0  0  0  0  0  0  0
  -23.0543  -13.8336   24.1739 C   0  0  0  0  0  0  0  0  0  0  0  0
  -25.3584  -27.6630   19.7533 N   0  0  0  0  0  0  0  0  0  0  0  0
  -30.0443  -17.4105   20.0059 N   0  0  0  0  0  0  0  0  0  0  0  0
  -30.1956  -18.5598   19.3260 N   0  0  0  0  0  0  0  0  0  0  0  0
  -26.6445  -28.0495   19.8049 N   0  0  0  0  0  0  0  0  0  0  0  0
  -22.8607  -16.1007   21.4013 N   0  0  0  0  0  0  0  0  0  0  0  0
  -28.7815  -24.8984   19.3729 N   0  0  0  0  0  0  0  0  0  0  0  0
  -30.2173  -23.0719   19.8789 N   0  0  0  0  0  0  0  0  0  0  0  0
  -28.0630  -29.8000   20.5359 N   0  0  0  0  0  0  0  0  0  0  0  0
  -23.9471  -31.2286   21.7251 N   0  0  0  0  0  0  0  0  0  0  0  0
  -22.1201  -19.6128   22.0437 N   0  0  0  0  0  0  0  0  0  0  0  0
  -22.3619  -12.8012   21.9697 N   0  0  0  0  0  0  0  0  0  0  0  0
  -22.4872  -10.6758   19.0483 N   0  3  0  0  0  0  0  0  0  0  0  0
  -26.1768  -31.7643   21.7278 O   0  0  0  0  0  0  0  0  0  0  0  0
  -23.5306  -18.0068   22.9677 O   0  0  0  0  0  0  0  0  0  0  0  0
  -20.9934  -15.2586   22.5149 O   0  0  0  0  0  0  0  0  0  0  0  0
  -24.1742  -12.2931   20.6152 O   0  0  0  0  0  0  0  0  0  0  0  0
  -30.1135  -24.8746   21.2576 O   0  0  0  0  0  0  0  0  0  0  0  0
  -19.1516  -28.5191   20.8899 O   0  0  0  0  0  0  0  0  0  0  0  0
  -27.8600  -17.3996   18.0288 O   0  0  0  0  0  0  0  0  0  1  0  0
  -17.0228  -29.9725   25.7643 F   0  0  0  0  0  0  0  0  0  0  0  0
  -17.6283  -26.7406   22.3593 F   0  0  0  0  0  0  0  0  0  0  0  0
  1  2  1  0  0  0  0
  1  5  2  0  0  0  0
  2  6  2  0  0  0  0
  3  8  2  0  0  0  0
  3 16  1  0  0  0  0
  4  9  1  0  0  0  0
  4 16  2  0  0  0  0
  5 18  1  0  0  0  0
  6 20  1  0  0  0  0
  7 10  2  0  0  0  0
  7 19  1  0  0  0  0
  8 22  1  0  0  0  0
  9 22  2  0  0  0  0
 10 23  1  0  0  0  0
 11 12  2  0  0  0  0
 11 24  1  0  0  0  0
 12 25  1  0  0  0  0
 13 21  1  0  0  0  0
 13 23  2  0  0  0  0
 14 25  2  0  0  0  0
 14 26  1  0  0  0  0
 15 28  2  0  0  0  0
 15 29  1  0  0  0  0
 16 27  1  0  0  0  0
 17 27  1  0  0  0  0
 17 30  2  0  0  0  0
 17 31  1  0  0  0  0
 18 20  2  0  0  0  0
 18 36  1  0  0  0  0
 19 21  2  0  0  0  0
 19 37  1  0  0  0  0
 20 47  1  0  0  0  0
 21 38  1  0  0  0  0
 22 79  1  0  0  0  0
 23 80  1  0  0  0  0
 24 26  2  0  0  0  0
 24 79  1  0  0  0  0
 25 81  1  0  0  0  0
 26 82  1  0  0  0  0
 27 62  2  0  0  0  0
 28 48  1  0  0  0  0
 28 64  1  0  0  0  0
 29 51  1  0  0  0  0
 29 63  2  0  0  0  0
 30 65  1  0  0  0  0
 30 69  1  0  0  0  0
 31 70  1  0  0  0  0
 31 74  2  0  0  0  0
 32 49  1  0  0  0  0
 32 71  1  0  0  0  0
 32 75  2  0  0  0  0
 33 59  1  0  0  0  0
 33 66  1  0  0  0  0
 33 76  2  0  0  0  0
 34 60  1  0  0  0  0
 34 72  1  0  0  0  0
 34 77  2  0  0  0  0
 35 67  1  0  0  0  0
 35 68  1  0  0  0  0
 35 78  2  0  0  0  0
 36 39  1  0  0  0  0
 37 49  1  0  0  0  0
 38 66  1  0  0  0  0
 39 41  1  0  0  0  0
 40 42  1  0  0  0  0
 40 43  1  0  0  0  0
 41 47  1  0  0  0  0
 42 50  1  0  0  0  0
 43 67  1  0  0  0  0
 44 48  1  0  0  0  0
 44 68  1  0  0  0  0
 45 48  1  0  0  0  0
 45 68  1  0  0  0  0
 46 50  1  0  0  0  0
 46 67  1  0  0  0  0
 47 71  1  0  0  0  0
 49 66  1  0  0  0  0
 50 65  1  0  0  0  0
 52 60  1  0  0  0  0
 53 61  1  0  0  0  0
 54 61  1  0  0  0  0
 55 61  1  0  0  0  0
 56 73  1  0  0  0  0
 57 58  1  0  0  0  0
 57 64  1  0  0  0  0
 58 80  1  0  0  0  0
 59 61  1  0  0  0  0
 59 72  1  0  0  0  0
 60 73  1  0  0  0  0
 62 65  1  0  0  0  0
 63 64  1  0  0  0  0
M  CHG  1  73   1
M  ISO  4  35 100  58 101  68 100  80 101
M  END
> <Batch ID>
0191

> <Smiles>
CNC(C)C(=O)NC(C(=O)N1Cc2cc([101O:1][101CH2:1]Cn3nc(C)cc3C3C[100N:0]([100C:0](=O)N4CCCC(n5nc(-c6ccc(Oc7ccc(F)cc7F)cc6)c(C(N)=O)c5N)C4)C3)ccc2CC1C(=O)NC1CCCc2ccccc21)C(C)(C)C

> <Shape>
0.233

> <Color>
0.069

> <Negative vol penalty>
0.000

$$$$

  -OEChem-04052323273D

 86 95  0     1  0  0  0  0  0999 V2000
  -27.6720  -10.4516   19.2450 C   0  0  0  0  0  0  0  0  0  0  0  0
  -28.1468  -11.6859   18.8134 C   0  0  0  0  0  0  0  0  0  0  0  0
  -22.5338  -25.9778   25.0259 C   0  0  0  0  0  0  0  0  0  0  0  0
  -20.6786  -27.5113   24.8172 C   0  0  0  0  0  0  0  0  0  0  0  0
  -26.4803  -10.3774   19.9649 C   0  0  0  0  0  0  0  0  0  0  0  0
  -27.4296  -12.8468   19.1005 C   0  0  0  0  0  0  0  0  0  0  0  0
  -29.7308  -18.3928   20.3053 C   0  0  0  0  0  0  0  0  0  0  0  0
  -21.9744  -25.4600   26.1940 C   0  0  0  0  0  0  0  0  0  0  0  0
  -20.1192  -26.9935   25.9854 C   0  0  0  0  0  0  0  0  0  0  0  0
  -29.9116  -19.5257   19.5130 C   0  0  0  0  0  0  0  0  0  0  0  0
  -20.8530  -23.4874   29.0342 C   0  0  0  0  0  0  0  0  0  0  0  0
  -20.8286  -22.1007   29.1822 C   0  0  0  0  0  0  0  0  0  0  0  0
  -27.8211  -20.4174   20.3217 C   0  0  0  0  0  0  0  0  0  0  0  0
  -19.4887  -21.9106   27.1808 C   0  0  0  0  0  0  0  0  0  0  0  0
  -21.8859  -27.0035   24.3375 C   0  0  0  0  0  0  0  0  0  0  0  0
  -22.2441  -27.0948   21.8134 C   0  0  0  0  0  0  0  0  0  0  0  0
  -25.7531  -11.5389   20.2693 C   0  0  0  0  0  0  0  0  0  0  0  0
  -28.5866  -18.2586   21.1048 C   0  0  0  0  0  0  0  0  0  0  0  0
  -26.2264  -12.7879   19.8240 C   0  0  0  0  0  0  0  0  0  0  0  0
  -27.6295  -19.2830   21.1251 C   0  0  0  0  0  0  0  0  0  0  0  0
  -20.7671  -25.9678   26.6738 C   0  0  0  0  0  0  0  0  0  0  0  0
  -28.9553  -20.5369   19.5189 C   0  0  0  0  0  0  0  0  0  0  0  0
  -20.1951  -24.0858   27.9595 C   0  0  0  0  0  0  0  0  0  0  0  0
  -20.1466  -21.3123   28.2555 C   0  0  0  0  0  0  0  0  0  0  0  0
  -19.5130  -23.2974   27.0328 C   0  0  0  0  0  0  0  0  0  0  0  0
  -22.4635  -27.5392   23.1310 C   0  0  0  0  0  0  0  0  0  0  0  0
  -23.0163  -27.9248   21.0380 C   0  0  0  0  0  0  0  0  0  0  0  0
  -31.6350  -25.8370   20.4491 C   0  0  0  0  0  0  0  0  0  0  0  0
  -30.0273  -26.5489   19.3241 C   0  0  0  0  0  0  0  0  0  0  0  0
  -21.4162  -26.0272   21.3332 C   0  0  0  0  0  0  0  0  0  0  0  0
  -26.1621  -16.2065   21.2247 C   0  0  0  0  0  0  0  0  0  0  0  0
  -25.3791  -17.8885   23.8855 C   0  0  0  0  0  0  0  0  0  0  0  0
  -25.5930  -20.8128   25.6319 C   0  0  0  0  0  0  0  0  0  0  0  0
  -27.9576  -31.1200   22.3234 C   0  0  0  0  0  0  0  0  0  0  0  0
  -24.4458  -11.4038   21.0093 C   0  0  0  0  0  0  0  0  0  0  0  0
  -28.4194  -17.0425   21.9740 C   0  0  0  0  0  0  0  0  0  0  0  0
  -26.3934  -19.1965   21.9814 C   0  0  0  0  0  0  0  0  0  0  0  0
  -23.9390  -12.7191   21.5954 C   0  0  0  0  0  0  0  0  0  0  0  0
  -24.8513  -32.3472   20.9514 C   0  0  0  0  0  0  0  0  0  0  0  0
  -24.0349  -13.8364   20.5614 C   0  0  0  0  0  0  0  0  0  0  0  0
  -23.8594  -31.2229   21.2560 C   0  0  0  0  0  0  0  0  0  0  0  0
  -25.9150  -32.4810   22.0401 C   0  0  0  0  0  0  0  0  0  0  0  0
  -25.6341  -30.1181   22.6675 C   0  0  0  0  0  0  0  0  0  0  0  0
  -29.9793  -29.6475   21.8118 C   0  0  0  0  0  0  0  0  0  0  0  0
  -28.1685  -28.8282   21.0763 C   0  0  0  0  0  0  0  0  0  0  0  0
  -25.4895  -14.0721   20.1371 C   0  0  1  0  0  0  0  0  0  0  0  0
  -26.9669  -16.7775   22.3578 C   0  0  1  0  0  0  0  0  0  0  0  0
  -24.5913  -29.9022   21.5608 C   0  0  1  0  0  0  0  0  0  0  0  0
  -29.6237  -28.8308   20.5483 C   0  0  0  0  0  0  0  0  0  0  0  0
  -32.7125  -24.9539   20.9101 C   0  0  0  0  0  0  0  0  0  0  0  0
  -24.8176  -21.8995   27.7568 C   0  0  0  0  0  0  0  0  0  0  0  0
  -28.7599  -21.8652   16.3741 C   0  0  0  0  0  0  0  0  0  0  0  0
  -22.6060  -18.2755   22.6729 C   0  0  0  0  0  0  0  0  0  0  0  0
  -22.2124  -20.1082   24.3325 C   0  0  0  0  0  0  0  0  0  0  0  0
  -22.6126  -17.7764   25.1234 C   0  0  0  0  0  0  0  0  0  0  0  0
  -28.3679  -21.1807   26.5928 C   0  0  0  0  0  0  0  0  0  0  0  0
  -28.9130  -26.7640   18.3412 C   0  0  0  0  0  0  0  0  0  0  0  0
  -27.8358  -25.6848   18.3844 C   0  0  0  0  0  0  0  0  0  0  0  0
  -27.4506  -23.2342   18.0933 C   0  0  0  0  0  0  0  0  0  0  0  0
  -24.5376  -19.1093   24.1695 C   0  0  1  0  0  0  0  0  0  0  0  0
  -25.9210  -21.0954   27.0869 C   0  0  2  0  0  0  0  0  0  0  0  0
  -28.1317  -21.9106   17.7609 C   0  0  2  0  0  0  0  0  0  1  0  0
  -23.0144  -18.8184   24.0569 C   0  0  0  0  0  0  0  0  0  0  0  0
  -23.3090  -28.5713   23.1930 N   0  0  0  0  0  0  0  0  0  0  0  0
  -30.8284  -25.5114   19.3965 N   0  0  0  0  0  0  0  0  0  0  0  0
  -31.3834  -27.0108   21.0325 N   0  0  0  0  0  0  0  0  0  0  0  0
  -23.6278  -28.7823   21.9046 N   0  0  0  0  0  0  0  0  0  0  0  0
  -30.3510  -27.4456   20.2941 N   0  0  0  0  0  0  0  0  0  0  0  0
  -26.2722  -17.9850   22.8090 N   0  0  0  0  0  0  0  0  0  0  0  0
  -26.5625  -31.1916   22.2943 N   0  0  0  0  0  0  0  0  0  0  0  0
  -28.5574  -29.9558   21.9059 N   0  0  0  0  0  0  0  0  0  0  0  0
  -23.2252  -27.9974   19.7063 N   0  0  0  0  0  0  0  0  0  0  0  0
  -20.6897  -25.2740   22.2655 N   0  0  0  0  0  0  0  0  0  0  0  0
  -26.1955  -14.8271   21.1501 N   0  0  0  0  0  0  0  0  0  0  0  0
  -24.9573  -19.5989   25.4781 N   0  0  0  0  0  0  0  0  0  0  0  0
  -27.1929  -21.8651   27.1911 N   0  3  0  0  0  0  0  0  0  0  0  0
  -28.4125  -24.3621   18.0207 N   0  3  0  0  0  0  0  0  0  0  0  0
  -21.3361  -25.7389   20.1150 O   0  0  0  0  0  0  0  0  0  0  0  0
  -25.5546  -16.9614   20.4746 O   0  0  0  0  0  0  0  0  0  0  0  0
  -25.2539  -16.8888   24.5972 O   0  0  0  0  0  0  0  0  0  0  0  0
  -25.8696  -21.5926   24.7231 O   0  0  0  0  0  0  0  0  0  0  0  0
  -28.6524  -32.0797   22.6831 O   0  0  0  0  0  0  0  0  0  0  0  0
  -20.2209  -25.4627   27.8135 O   0  0  0  0  0  0  0  0  0  0  0  0
  -29.1289  -21.6434   18.7460 O   0  0  0  0  0  0  0  0  0  1  0  0
  -20.1246  -19.9805   28.3969 F   0  0  0  0  0  0  0  0  0  0  0  0
  -18.8802  -23.8664   25.9977 F   0  0  0  0  0  0  0  0  0  0  0  0
  1  2  1  0  0  0  0
  1  5  2  0  0  0  0
  2  6  2  0  0  0  0
  3  8  2  0  0  0  0
  3 15  1  0  0  0  0
  4  9  1  0  0  0  0
  4 15  2  0  0  0  0
  5 17  1  0  0  0  0
  6 19  1  0  0  0  0
  7 10  2  0  0  0  0
  7 18  1  0  0  0  0
  8 21  1  0  0  0  0
  9 21  2  0  0  0  0
 10 22  1  0  0  0  0
 11 12  2  0  0  0  0
 11 23  1  0  0  0  0
 12 24  1  0  0  0  0
 13 20  1  0  0  0  0
 13 22  2  0  0  0  0
 14 24  2  0  0  0  0
 14 25  1  0  0  0  0
 15 26  1  0  0  0  0
 16 26  1  0  0  0  0
 16 27  2  0  0  0  0
 16 30  1  0  0  0  0
 17 19  2  0  0  0  0
 17 35  1  0  0  0  0
 18 20  2  0  0  0  0
 18 36  1  0  0  0  0
 19 46  1  0  0  0  0
 20 37  1  0  0  0  0
 21 83  1  0  0  0  0
 22 84  1  0  0  0  0
 23 25  2  0  0  0  0
 23 83  1  0  0  0  0
 24 85  1  0  0  0  0
 25 86  1  0  0  0  0
 26 64  2  0  0  0  0
 27 67  1  0  0  0  0
 27 72  1  0  0  0  0
 28 50  1  0  0  0  0
 28 65  1  0  0  0  0
 28 66  2  0  0  0  0
 29 57  1  0  0  0  0
 29 65  2  0  0  0  0
 29 68  1  0  0  0  0
 30 73  1  0  0  0  0
 30 78  2  0  0  0  0
 31 47  1  0  0  0  0
 31 74  1  0  0  0  0
 31 79  2  0  0  0  0
 32 60  1  0  0  0  0
 32 69  1  0  0  0  0
 32 80  2  0  0  0  0
 33 61  1  0  0  0  0
 33 75  1  0  0  0  0
 33 81  2  0  0  0  0
 34 70  1  0  0  0  0
 34 71  1  0  0  0  0
 34 82  2  0  0  0  0
 35 38  1  0  0  0  0
 36 47  1  0  0  0  0
 37 69  1  0  0  0  0
 38 40  1  0  0  0  0
 39 41  1  0  0  0  0
 39 42  1  0  0  0  0
 40 46  1  0  0  0  0
 41 48  1  0  0  0  0
 42 70  1  0  0  0  0
 43 48  1  0  0  0  0
 43 70  1  0  0  0  0
 44 49  1  0  0  0  0
 44 71  1  0  0  0  0
 45 49  1  0  0  0  0
 45 71  1  0  0  0  0
 46 74  1  0  0  0  0
 47 69  1  0  0  0  0
 48 67  1  0  0  0  0
 49 68  1  0  0  0  0
 51 61  1  0  0  0  0
 52 62  1  0  0  0  0
 53 63  1  0  0  0  0
 54 63  1  0  0  0  0
 55 63  1  0  0  0  0
 56 76  1  0  0  0  0
 57 58  1  0  0  0  0
 58 77  1  0  0  0  0
 59 62  1  0  0  0  0
 59 77  1  0  0  0  0
 60 63  1  0  0  0  0
 60 75  1  0  0  0  0
 61 76  1  0  0  0  0
 62 84  1  0  0  0  0
 64 67  1  0  0  0  0
 66 68  1  0  0  0  0
M  CHG  2  76   1  77   1
M  ISO  4  34 100  62 101  71 100  84 101
M  END
> <Batch ID>
0191

> <Smiles>
CNC(C)C(=O)NC(C(=O)N1Cc2cc([101O:1][101CH:1](C)CNCCc3nc(C)nn3C3C[100N:0]([100C:0](=O)N4CCCC(n5nc(-c6ccc(Oc7ccc(F)cc7F)cc6)c(C(N)=O)c5N)C4)C3)ccc2CC1C(=O)NC1CCCc2ccccc21)C(C)(C)C

> <Shape>
0.208

> <Color>
0.063

> <Negative vol penalty>
0.000

$$$$

  -OEChem-04052323273D

 84 93  0     1  0  0  0  0  0999 V2000
  -22.6864   -7.9017   20.4847 C   0  0  0  0  0  0  0  0  0  0  0  0
  -21.8322   -8.9324   20.1060 C   0  0  0  0  0  0  0  0  0  0  0  0
  -29.8417  -25.8069   17.5733 C   0  0  0  0  0  0  0  0  0  0  0  0
  -29.5392  -24.3531   19.4792 C   0  0  0  0  0  0  0  0  0  0  0  0
  -23.6244   -8.1109   21.4948 C   0  0  0  0  0  0  0  0  0  0  0  0
  -21.9147  -10.1726   20.7381 C   0  0  0  0  0  0  0  0  0  0  0  0
  -21.0776  -17.1675   19.4392 C   0  0  0  0  0  0  0  0  0  0  0  0
  -30.9132  -25.0230   17.1454 C   0  0  0  0  0  0  0  0  0  0  0  0
  -30.6106  -23.5692   19.0512 C   0  0  0  0  0  0  0  0  0  0  0  0
  -20.4071  -18.2831   19.9389 C   0  0  0  0  0  0  0  0  0  0  0  0
  -33.0374  -20.9781   18.2670 C   0  0  0  0  0  0  0  0  0  0  0  0
  -32.8791  -19.5925   18.2926 C   0  0  0  0  0  0  0  0  0  0  0  0
  -22.1197  -18.5534   21.6162 C   0  0  0  0  0  0  0  0  0  0  0  0
  -31.0139  -19.7774   16.7681 C   0  0  0  0  0  0  0  0  0  0  0  0
  -29.1548  -25.4720   18.7402 C   0  0  0  0  0  0  0  0  0  0  0  0
  -26.6905  -26.1230   18.8467 C   0  0  0  0  0  0  0  0  0  0  0  0
  -23.7250   -9.3572   22.1329 C   0  0  0  0  0  0  0  0  0  0  0  0
  -22.2705  -16.7293   20.0320 C   0  0  0  0  0  0  0  0  0  0  0  0
  -22.8541  -10.3982   21.7587 C   0  0  0  0  0  0  0  0  0  0  0  0
  -22.8047  -17.4336   21.1205 C   0  0  0  0  0  0  0  0  0  0  0  0
  -31.2976  -23.9041   17.8844 C   0  0  0  0  0  0  0  0  0  0  0  0
  -20.9267  -18.9745   21.0294 C   0  0  0  0  0  0  0  0  0  0  0  0
  -32.1839  -21.7634   17.4920 C   0  0  0  0  0  0  0  0  0  0  0  0
  -31.8674  -18.9921   17.5432 C   0  0  0  0  0  0  0  0  0  0  0  0
  -31.1722  -21.1630   16.7425 C   0  0  0  0  0  0  0  0  0  0  0  0
  -28.0483  -26.2817   19.1831 C   0  0  0  0  0  0  0  0  0  0  0  0
  -26.0498  -27.1354   19.5183 C   0  0  0  0  0  0  0  0  0  0  0  0
  -26.0644  -25.1476   18.0027 C   0  0  0  0  0  0  0  0  0  0  0  0
  -23.1998  -14.0679   21.5008 C   0  0  0  0  0  0  0  0  0  0  0  0
  -26.0996  -15.5210   21.4588 C   0  0  0  0  0  0  0  0  0  0  0  0
  -27.8820  -18.4270   21.3005 C   0  0  0  0  0  0  0  0  0  0  0  0
  -25.2995  -30.0560   24.2392 C   0  0  0  0  0  0  0  0  0  0  0  0
  -24.7228   -9.5213   23.2519 C   0  0  0  0  0  0  0  0  0  0  0  0
  -22.9956  -15.5400   19.4643 C   0  0  0  0  0  0  0  0  0  0  0  0
  -24.0928  -17.0160   21.7800 C   0  0  0  0  0  0  0  0  0  0  0  0
  -24.9983  -10.9786   23.6135 C   0  0  0  0  0  0  0  0  0  0  0  0
  -27.8897  -31.1555   21.9752 C   0  0  0  0  0  0  0  0  0  0  0  0
  -23.6908  -11.7548   23.7348 C   0  0  0  0  0  0  0  0  0  0  0  0
  -28.0693  -29.9631   21.0340 C   0  0  0  0  0  0  0  0  0  0  0  0
  -18.5496  -27.2766   22.0082 C   0  0  0  0  0  0  0  0  0  0  0  0
  -27.5246  -30.7148   23.3919 C   0  0  0  0  0  0  0  0  0  0  0  0
  -23.5862  -28.4006   23.1506 C   0  0  0  0  0  0  0  0  0  0  0  0
  -23.0365  -29.1933   25.0467 C   0  0  0  0  0  0  0  0  0  0  0  0
  -26.5533  -28.6212   22.5387 C   0  0  0  0  0  0  0  0  0  0  0  0
  -19.4299  -28.4338   22.5046 C   0  0  0  0  0  0  0  0  0  0  0  0
  -22.9297  -11.7651   22.4036 C   0  0  1  0  0  0  0  0  0  0  0  0
  -23.9331  -14.8766   20.4685 C   0  0  1  0  0  0  0  0  0  0  0  0
  -22.2409  -28.7831   23.7957 C   0  0  0  0  0  0  0  0  0  0  0  0
  -26.8497  -29.0236   21.0864 C   0  0  2  0  0  0  0  0  0  0  0  0
  -19.5117  -26.3646   22.7980 C   0  0  1  0  0  0  0  0  0  0  0  0
  -30.2351  -19.2986   21.3260 C   0  0  0  0  0  0  0  0  0  0  0  0
  -26.2358  -15.0581   24.4716 C   0  0  0  0  0  0  0  0  0  0  0  0
  -28.0859  -16.7416   24.5764 C   0  0  0  0  0  0  0  0  0  0  0  0
  -28.3816  -14.6466   23.2549 C   0  0  0  0  0  0  0  0  0  0  0  0
  -27.5978  -19.6063   18.6010 C   0  0  0  0  0  0  0  0  0  0  0  0
  -21.2323  -27.6661   23.9730 C   0  0  0  0  0  0  0  0  0  0  0  0
  -19.9630  -25.0901   22.1142 C   0  0  0  0  0  0  0  0  0  0  0  0
  -18.8864  -24.0158   22.1762 C   0  0  0  0  0  0  0  0  0  0  0  0
  -18.4452  -21.6302   21.5821 C   0  0  0  0  0  0  0  0  0  0  0  0
  -19.0627  -20.4430   20.8699 C   0  0  0  0  0  0  0  0  0  1  0  0
  -26.8417  -16.4535   22.3855 C   0  0  1  0  0  0  0  0  0  0  0  0
  -29.0780  -18.8304   20.4572 C   0  0  2  0  0  0  0  0  0  0  0  0
  -27.3609  -15.7319   23.6611 C   0  0  0  0  0  0  0  0  0  0  0  0
  -28.2588  -27.3138   20.0044 N   0  0  0  0  0  0  0  0  0  0  0  0
  -27.0248  -27.8128   20.1897 N   0  0  0  0  0  0  0  0  0  0  0  0
  -24.7613  -15.8432   21.1925 N   0  0  0  0  0  0  0  0  0  0  0  0
  -26.3696  -29.8136   23.3741 N   0  0  0  0  0  0  0  0  0  0  0  0
  -24.2117  -29.2169   24.1801 N   0  0  0  0  0  0  0  0  0  0  0  0
  -24.7532  -27.5034   19.5941 N   0  0  0  0  0  0  0  0  0  0  0  0
  -26.8703  -24.1782   17.3903 N   0  0  0  0  0  0  0  0  0  0  0  0
  -23.5180  -12.7233   21.4924 N   0  0  0  0  0  0  0  0  0  0  0  0
  -27.8887  -17.0777   21.5840 N   0  0  0  0  0  0  0  0  0  0  0  0
  -20.5165  -27.4516   22.6955 N   0  3  2  0  0  0  0  0  0  0  0  0
  -28.7086  -19.9373   19.5302 N   0  3  0  0  0  0  0  0  0  0  0  0
  -19.3915  -22.7786   21.5342 N   0  3  0  0  0  0  0  0  0  0  0  0
  -24.8291  -25.1460   17.7847 O   0  0  0  0  0  0  0  0  0  0  0  0
  -22.4051  -14.6230   22.2505 O   0  0  0  0  0  0  0  0  0  0  0  0
  -26.6878  -14.5468   20.9829 O   0  0  0  0  0  0  0  0  0  0  0  0
  -27.0291  -19.2294   21.6738 O   0  0  0  0  0  0  0  0  0  0  0  0
  -25.2994  -31.0142   25.0234 O   0  0  0  0  0  0  0  0  0  0  0  0
  -32.3429  -23.1388   17.4670 O   0  0  0  0  0  0  0  0  0  0  0  0
  -20.2692  -20.0712   21.5231 O   0  0  0  0  0  0  0  0  0  1  0  0
  -31.7164  -17.6614   17.5667 F   0  0  0  0  0  0  0  0  0  0  0  0
  -30.3500  -21.9121   15.9952 F   0  0  0  0  0  0  0  0  0  0  0  0
  1  2  1  0  0  0  0
  1  5  2  0  0  0  0
  2  6  2  0  0  0  0
  3  8  2  0  0  0  0
  3 15  1  0  0  0  0
  4  9  1  0  0  0  0
  4 15  2  0  0  0  0
  5 17  1  0  0  0  0
  6 19  1  0  0  0  0
  7 10  2  0  0  0  0
  7 18  1  0  0  0  0
  8 21  1  0  0  0  0
  9 21  2  0  0  0  0
 10 22  1  0  0  0  0
 11 12  2  0  0  0  0
 11 23  1  0  0  0  0
 12 24  1  0  0  0  0
 13 20  1  0  0  0  0
 13 22  2  0  0  0  0
 14 24  2  0  0  0  0
 14 25  1  0  0  0  0
 15 26  1  0  0  0  0
 16 26  1  0  0  0  0
 16 27  2  0  0  0  0
 16 28  1  0  0  0  0
 17 19  2  0  0  0  0
 17 33  1  0  0  0  0
 18 20  2  0  0  0  0
 18 34  1  0  0  0  0
 19 46  1  0  0  0  0
 20 35  1  0  0  0  0
 21 81  1  0  0  0  0
 22 82  1  0  0  0  0
 23 25  2  0  0  0  0
 23 81  1  0  0  0  0
 24 83  1  0  0  0  0
 25 84  1  0  0  0  0
 26 64  2  0  0  0  0
 27 65  1  0  0  0  0
 27 69  1  0  0  0  0
 28 70  1  0  0  0  0
 28 76  2  0  0  0  0
 29 47  1  0  0  0  0
 29 71  1  0  0  0  0
 29 77  2  0  0  0  0
 30 61  1  0  0  0  0
 30 66  1  0  0  0  0
 30 78  2  0  0  0  0
 31 62  1  0  0  0  0
 31 72  1  0  0  0  0
 31 79  2  0  0  0  0
 32 67  1  0  0  0  0
 32 68  1  0  0  0  0
 32 80  2  0  0  0  0
 33 36  1  0  0  0  0
 34 47  1  0  0  0  0
 35 66  1  0  0  0  0
 36 38  1  0  0  0  0
 37 39  1  0  0  0  0
 37 41  1  0  0  0  0
 38 46  1  0  0  0  0
 39 49  1  0  0  0  0
 40 45  1  0  0  0  0
 40 50  1  0  0  0  0
 41 67  1  0  0  0  0
 42 48  1  0  0  0  0
 42 68  1  0  0  0  0
 43 48  1  0  0  0  0
 43 68  1  0  0  0  0
 44 49  1  0  0  0  0
 44 67  1  0  0  0  0
 45 73  1  0  0  0  0
 46 71  1  0  0  0  0
 47 66  1  0  0  0  0
 48 56  1  0  0  0  0
 49 65  1  0  0  0  0
 50 57  1  0  0  0  0
 50 73  1  0  0  0  0
 51 62  1  0  0  0  0
 52 63  1  0  0  0  0
 53 63  1  0  0  0  0
 54 63  1  0  0  0  0
 55 74  1  0  0  0  0
 56 73  1  0  0  0  0
 57 58  1  0  0  0  0
 58 75  1  0  0  0  0
 59 60  1  0  0  0  0
 59 75  1  0  0  0  0
 60 82  1  0  0  0  0
 61 63  1  0  0  0  0
 61 72  1  0  0  0  0
 62 74  1  0  0  0  0
 64 65  1  0  0  0  0
M  CHG  3  73   1  74   1  75   1
M  ISO  4  32 100  60 101  68 100  82 101
M  END
> <Batch ID>
0191

> <Smiles>
CNC(C)C(=O)NC(C(=O)N1Cc2cc([101O:1][101CH2:1]CNCCC3CCN3CC3C[100N:0]([100C:0](=O)N4CCCC(n5nc(-c6ccc(Oc7ccc(F)cc7F)cc6)c(C(N)=O)c5N)C4)C3)ccc2CC1C(=O)NC1CCCc2ccccc21)C(C)(C)C

> <Shape>
0.244

> <Color>
0.050

> <Negative vol penalty>
0.000

$$$$

  -OEChem-04052323273D

 83 92  0     1  0  0  0  0  0999 V2000
  -21.9945  -11.4025   20.8077 C   0  0  0  0  0  0  0  0  0  0  0  0
  -21.8238  -12.5294   21.6054 C   0  0  0  0  0  0  0  0  0  0  0  0
  -25.9128  -28.4344   21.6181 C   0  0  0  0  0  0  0  0  0  0  0  0
  -25.1505  -27.9076   19.3869 C   0  0  0  0  0  0  0  0  0  0  0  0
  -23.2224  -11.1656   20.1912 C   0  0  0  0  0  0  0  0  0  0  0  0
  -22.8815  -13.4196   21.7880 C   0  0  0  0  0  0  0  0  0  0  0  0
  -22.5087  -19.4999   22.4184 C   0  0  0  0  0  0  0  0  0  0  0  0
  -27.1901  -27.9809   21.2888 C   0  0  0  0  0  0  0  0  0  0  0  0
  -26.4279  -27.4542   19.0575 C   0  0  0  0  0  0  0  0  0  0  0  0
  -22.5228  -20.3293   23.5389 C   0  0  0  0  0  0  0  0  0  0  0  0
  -29.8876  -29.1366   19.6093 C   0  0  0  0  0  0  0  0  0  0  0  0
  -30.9739  -29.9210   19.9970 C   0  0  0  0  0  0  0  0  0  0  0  0
  -24.8889  -20.6883   23.2358 C   0  0  0  0  0  0  0  0  0  0  0  0
  -31.8304  -28.0844   21.3125 C   0  0  0  0  0  0  0  0  0  0  0  0
  -24.8930  -28.3977   20.6671 C   0  0  0  0  0  0  0  0  0  0  0  0
  -23.0733  -30.1742   20.8684 C   0  0  0  0  0  0  0  0  0  0  0  0
  -24.2927  -12.0584   20.3586 C   0  0  0  0  0  0  0  0  0  0  0  0
  -23.6887  -19.2493   21.7034 C   0  0  0  0  0  0  0  0  0  0  0  0
  -24.1253  -13.1938   21.1743 C   0  0  0  0  0  0  0  0  0  0  0  0
  -24.8866  -19.8573   22.1051 C   0  0  0  0  0  0  0  0  0  0  0  0
  -27.4476  -27.4908   20.0086 C   0  0  0  0  0  0  0  0  0  0  0  0
  -23.7136  -20.9214   23.9495 C   0  0  0  0  0  0  0  0  0  0  0  0
  -29.7726  -27.8262   20.0733 C   0  0  0  0  0  0  0  0  0  0  0  0
  -31.9453  -29.3949   20.8486 C   0  0  0  0  0  0  0  0  0  0  0  0
  -30.7441  -27.3001   20.9248 C   0  0  0  0  0  0  0  0  0  0  0  0
  -23.5731  -28.8655   21.0068 C   0  0  0  0  0  0  0  0  0  0  0  0
  -21.7808  -30.0984   21.3270 C   0  0  0  0  0  0  0  0  0  0  0  0
  -25.6735  -23.9578   28.5459 C   0  0  0  0  0  0  0  0  0  0  0  0
  -24.8240  -23.1222   26.6441 C   0  0  0  0  0  0  0  0  0  0  0  0
  -23.5537  -24.4152   27.9676 C   0  0  0  0  0  0  0  0  0  0  0  0
  -23.7195  -31.3530   20.3698 C   0  0  0  0  0  0  0  0  0  0  0  0
  -25.4079  -16.6568   21.0501 C   0  0  0  0  0  0  0  0  0  0  0  0
  -27.0930  -18.7174   19.1964 C   0  0  0  0  0  0  0  0  0  0  0  0
  -28.0331  -21.9355   18.5585 C   0  0  0  0  0  0  0  0  0  0  0  0
  -19.1178  -26.1935   25.1248 C   0  0  0  0  0  0  0  0  0  0  0  0
  -25.6156  -11.7354   19.7103 C   0  0  0  0  0  0  0  0  0  0  0  0
  -23.6515  -18.3735   20.4811 C   0  0  0  0  0  0  0  0  0  0  0  0
  -26.1767  -19.6366   21.3599 C   0  0  0  0  0  0  0  0  0  0  0  0
  -26.5716  -12.9241   19.6519 C   0  0  0  0  0  0  0  0  0  0  0  0
  -18.1255  -27.0791   21.7838 C   0  0  0  0  0  0  0  0  0  0  0  0
  -26.6188  -13.6380   20.9991 C   0  0  0  0  0  0  0  0  0  0  0  0
  -19.3758  -27.7022   21.1718 C   0  0  0  0  0  0  0  0  0  0  0  0
  -18.4925  -25.9603   22.7493 C   0  0  0  0  0  0  0  0  0  0  0  0
  -20.6542  -27.0574   23.2771 C   0  0  0  0  0  0  0  0  0  0  0  0
  -20.0676  -25.6967   27.4388 C   0  0  0  0  0  0  0  0  0  0  0  0
  -21.5253  -25.5225   25.8988 C   0  0  0  0  0  0  0  0  0  0  0  0
  -25.2412  -14.1958   21.3765 C   0  0  1  0  0  0  0  0  0  0  0  0
  -25.0116  -17.7777   20.1313 C   0  0  1  0  0  0  0  0  0  0  0  0
  -20.3306  -28.1826   22.2740 C   0  0  1  0  0  0  0  0  0  0  0  0
  -21.3230  -24.8339   27.2574 C   0  0  0  0  0  0  0  0  0  0  0  0
  -26.8128  -24.1042   29.4963 C   0  0  0  0  0  0  0  0  0  0  0  0
  -29.4469  -23.3026   16.9998 C   0  0  0  0  0  0  0  0  0  0  0  0
  -29.6033  -17.7830   20.6576 C   0  0  0  0  0  0  0  0  0  0  0  0
  -30.7889  -19.7997   19.7657 C   0  0  0  0  0  0  0  0  0  0  0  0
  -29.8847  -18.0888   18.1915 C   0  0  0  0  0  0  0  0  0  0  0  0
  -25.6924  -23.4683   17.5936 C   0  0  0  0  0  0  0  0  0  0  0  0
  -24.9847  -22.3046   25.4079 C   0  0  0  0  0  0  0  0  0  1  0  0
  -28.2843  -19.6195   19.4112 C   0  0  1  0  0  0  0  0  0  0  0  0
  -28.0602  -22.7408   17.2719 C   0  0  2  0  0  0  0  0  0  0  0  0
  -29.6165  -18.8255   19.5219 C   0  0  0  0  0  0  0  0  0  0  0  0
  -22.6718  -28.0202   21.5138 N   0  0  0  0  0  0  0  0  0  0  0  0
  -25.8919  -23.2079   27.4534 N   0  0  0  0  0  0  0  0  0  0  0  0
  -24.5338  -24.5904   28.8686 N   0  0  0  0  0  0  0  0  0  0  0  0
  -23.6256  -23.6969   26.8354 N   0  0  0  0  0  0  0  0  0  0  0  0
  -21.5925  -28.7995   21.6980 N   0  0  0  0  0  0  0  0  0  0  0  0
  -26.0902  -18.7671   20.1750 N   0  0  0  0  0  0  0  0  0  0  0  0
  -19.4358  -26.4070   23.7789 N   0  0  0  0  0  0  0  0  0  0  0  0
  -20.1482  -25.9736   26.0097 N   0  0  0  0  0  0  0  0  0  0  0  0
  -20.7984  -31.0167   21.4450 N   0  0  0  0  0  0  0  0  0  0  0  0
  -25.0497  -31.2545   19.9395 N   0  0  0  0  0  0  0  0  0  0  0  0
  -24.9695  -15.4120   20.6406 N   0  0  0  0  0  0  0  0  0  0  0  0
  -28.2584  -20.5951   18.3268 N   0  0  0  0  0  0  0  0  0  0  0  0
  -27.0999  -23.8777   17.3521 N   0  3  0  0  0  0  0  0  0  0  0  0
  -23.1398  -32.4645   20.3231 O   0  0  0  0  0  0  0  0  0  0  0  0
  -26.0642  -16.9028   22.0553 O   0  0  0  0  0  0  0  0  0  0  0  0
  -27.0504  -18.0006   18.1934 O   0  0  0  0  0  0  0  0  0  0  0  0
  -27.8357  -22.4452   19.6593 O   0  0  0  0  0  0  0  0  0  0  0  0
  -17.9455  -26.1679   25.5228 O   0  0  0  0  0  0  0  0  0  0  0  0
  -28.6940  -27.0485   19.6868 O   0  0  0  0  0  0  0  0  0  0  0  0
  -23.7304  -21.7364   25.0507 O   0  0  0  0  0  0  0  0  0  1  0  0
  -22.3648  -25.0286   28.2290 O   0  0  0  0  0  0  0  0  0  0  0  0
  -32.9893  -30.1477   21.2196 F   0  0  0  0  0  0  0  0  0  0  0  0
  -30.6397  -26.0414   21.3729 F   0  0  0  0  0  0  0  0  0  0  0  0
  1  2  1  0  0  0  0
  1  5  2  0  0  0  0
  2  6  2  0  0  0  0
  3  8  2  0  0  0  0
  3 15  1  0  0  0  0
  4  9  1  0  0  0  0
  4 15  2  0  0  0  0
  5 17  1  0  0  0  0
  6 19  1  0  0  0  0
  7 10  2  0  0  0  0
  7 18  1  0  0  0  0
  8 21  1  0  0  0  0
  9 21  2  0  0  0  0
 10 22  1  0  0  0  0
 11 12  2  0  0  0  0
 11 23  1  0  0  0  0
 12 24  1  0  0  0  0
 13 20  1  0  0  0  0
 13 22  2  0  0  0  0
 14 24  2  0  0  0  0
 14 25  1  0  0  0  0
 15 26  1  0  0  0  0
 16 26  1  0  0  0  0
 16 27  2  0  0  0  0
 16 31  1  0  0  0  0
 17 19  2  0  0  0  0
 17 36  1  0  0  0  0
 18 20  2  0  0  0  0
 18 37  1  0  0  0  0
 19 47  1  0  0  0  0
 20 38  1  0  0  0  0
 21 79  1  0  0  0  0
 22 80  1  0  0  0  0
 23 25  2  0  0  0  0
 23 79  1  0  0  0  0
 24 82  1  0  0  0  0
 25 83  1  0  0  0  0
 26 61  2  0  0  0  0
 27 65  1  0  0  0  0
 27 69  1  0  0  0  0
 28 51  1  0  0  0  0
 28 62  2  0  0  0  0
 28 63  1  0  0  0  0
 29 57  1  0  0  0  0
 29 62  1  0  0  0  0
 29 64  2  0  0  0  0
 30 63  2  0  0  0  0
 30 64  1  0  0  0  0
 30 81  1  0  0  0  0
 31 70  1  0  0  0  0
 31 74  2  0  0  0  0
 32 48  1  0  0  0  0
 32 71  1  0  0  0  0
 32 75  2  0  0  0  0
 33 58  1  0  0  0  0
 33 66  1  0  0  0  0
 33 76  2  0  0  0  0
 34 59  1  0  0  0  0
 34 72  1  0  0  0  0
 34 77  2  0  0  0  0
 35 67  1  0  0  0  0
 35 68  1  0  0  0  0
 35 78  2  0  0  0  0
 36 39  1  0  0  0  0
 37 48  1  0  0  0  0
 38 66  1  0  0  0  0
 39 41  1  0  0  0  0
 40 42  1  0  0  0  0
 40 43  1  0  0  0  0
 41 47  1  0  0  0  0
 42 49  1  0  0  0  0
 43 67  1  0  0  0  0
 44 49  1  0  0  0  0
 44 67  1  0  0  0  0
 45 50  1  0  0  0  0
 45 68  1  0  0  0  0
 46 50  1  0  0  0  0
 46 68  1  0  0  0  0
 47 71  1  0  0  0  0
 48 66  1  0  0  0  0
 49 65  1  0  0  0  0
 50 81  1  0  0  0  0
 52 59  1  0  0  0  0
 53 60  1  0  0  0  0
 54 60  1  0  0  0  0
 55 60  1  0  0  0  0
 56 73  1  0  0  0  0
 57 80  1  0  0  0  0
 58 60  1  0  0  0  0
 58 72  1  0  0  0  0
 59 73  1  0  0  0  0
 61 65  1  0  0  0  0
M  CHG  1  73   1
M  ISO  4  35 100  57 101  68 100  80 101
M  END
> <Batch ID>
0191

> <Smiles>
CNC(C)C(=O)NC(C(=O)N1Cc2cc([101O:1][101CH2:1]c3nc(C)nc(OC4C[100N:0]([100C:0](=O)N5CCCC(n6nc(-c7ccc(Oc8ccc(F)cc8F)cc7)c(C(N)=O)c6N)C5)C4)n3)ccc2CC1C(=O)NC1CCCc2ccccc21)C(C)(C)C

> <Shape>
0.229

> <Color>
0.076

> <Negative vol penalty>
0.000

$$$$

  -OEChem-04052323273D

 84 93  0     1  0  0  0  0  0999 V2000
  -29.8025  -32.5780   25.8061 C   0  0  0  0  0  0  0  0  0  0  0  0
  -29.4412  -31.3582   25.2432 C   0  0  0  0  0  0  0  0  0  0  0  0
  -23.2585  -10.2563   21.8850 C   0  0  0  0  0  0  0  0  0  0  0  0
  -24.3117   -8.6822   20.3850 C   0  0  0  0  0  0  0  0  0  0  0  0
  -28.8224  -33.5225   26.1082 C   0  0  0  0  0  0  0  0  0  0  0  0
  -28.0995  -31.0817   24.9830 C   0  0  0  0  0  0  0  0  0  0  0  0
  -27.3932  -29.0074   20.4175 C   0  0  0  0  0  0  0  0  0  0  0  0
  -28.4285  -21.3604   20.7582 C   0  0  0  0  0  0  0  0  0  0  0  0
  -22.0105   -9.7149   21.5770 C   0  0  0  0  0  0  0  0  0  0  0  0
  -23.0636   -8.1407   20.0770 C   0  0  0  0  0  0  0  0  0  0  0  0
  -27.6915  -27.6523   20.2808 C   0  0  0  0  0  0  0  0  0  0  0  0
  -18.5828   -8.5097   21.4599 C   0  0  0  0  0  0  0  0  0  0  0  0
  -17.7062   -8.2592   22.5155 C   0  0  0  0  0  0  0  0  0  0  0  0
  -28.3089  -22.7324   20.9491 C   0  0  0  0  0  0  0  0  0  0  0  0
  -25.3461  -27.1227   20.4756 C   0  0  0  0  0  0  0  0  0  0  0  0
  -19.3156   -6.7453   23.4928 C   0  0  0  0  0  0  0  0  0  0  0  0
  -28.8065  -21.7676   18.4456 C   0  0  0  0  0  0  0  0  0  0  0  0
  -24.4091   -9.7400   21.2890 C   0  0  0  0  0  0  0  0  0  0  0  0
  -26.5686   -9.8981   22.6377 C   0  0  0  0  0  0  0  0  0  0  0  0
  -27.4689  -33.2614   25.8426 C   0  0  0  0  0  0  0  0  0  0  0  0
  -26.0681  -29.4301   20.5955 C   0  0  0  0  0  0  0  0  0  0  0  0
  -27.1003  -32.0231   25.2830 C   0  0  0  0  0  0  0  0  0  0  0  0
  -25.0334  -28.4839   20.6118 C   0  0  0  0  0  0  0  0  0  0  0  0
  -28.6820  -20.8606   19.4857 C   0  0  0  0  0  0  0  0  0  0  0  0
  -21.9130   -8.6571   20.6730 C   0  0  0  0  0  0  0  0  0  0  0  0
  -26.6681  -26.7095   20.3127 C   0  0  0  0  0  0  0  0  0  0  0  0
  -19.8259   -7.8780   21.4207 C   0  0  0  0  0  0  0  0  0  0  0  0
  -18.0726   -7.3770   23.5320 C   0  0  0  0  0  0  0  0  0  0  0  0
  -20.1923   -6.9958   22.4372 C   0  0  0  0  0  0  0  0  0  0  0  0
  -25.6986  -10.2992   21.6063 C   0  0  0  0  0  0  0  0  0  0  0  0
  -28.4503  -23.5556   19.8435 C   0  0  0  0  0  0  0  0  0  0  0  0
  -27.6513  -10.7348   22.5185 C   0  0  0  0  0  0  0  0  0  0  0  0
  -26.4122   -8.8617   23.6161 C   0  0  0  0  0  0  0  0  0  0  0  0
  -24.4911  -30.9605   22.8922 C   0  0  0  0  0  0  0  0  0  0  0  0
  -22.0706  -30.8995   20.7335 C   0  0  0  0  0  0  0  0  0  0  0  0
  -20.6570  -29.4112   18.0071 C   0  0  0  0  0  0  0  0  0  0  0  0
  -28.2539  -16.1402   20.4124 C   0  0  0  0  0  0  0  0  0  0  0  0
  -26.4407  -34.2944   26.2301 C   0  0  0  0  0  0  0  0  0  0  0  0
  -25.7602  -30.8975   20.7148 C   0  0  0  0  0  0  0  0  0  0  0  0
  -23.5922  -28.8875   20.7801 C   0  0  0  0  0  0  0  0  0  0  0  0
  -25.0787  -34.0728   25.5773 C   0  0  0  0  0  0  0  0  0  0  0  0
  -30.0952  -13.2805   19.3095 C   0  0  0  0  0  0  0  0  0  0  0  0
  -24.6640  -32.6093   25.6911 C   0  0  0  0  0  0  0  0  0  0  0  0
  -29.2343  -12.1432   19.8535 C   0  0  0  0  0  0  0  0  0  0  0  0
  -29.2544  -14.4529   18.7994 C   0  0  0  0  0  0  0  0  0  0  0  0
  -28.4386  -18.8765   17.9952 C   0  0  0  0  0  0  0  0  0  0  0  0
  -28.6710  -17.3894   18.2180 C   0  0  0  0  0  0  0  0  0  0  0  0
  -27.4144  -13.8169   20.3314 C   0  0  0  0  0  0  0  0  0  0  0  0
  -25.6577  -31.6961   24.9631 C   0  0  1  0  0  0  0  0  0  0  0  0
  -24.4289  -31.1745   21.4063 C   0  0  1  0  0  0  0  0  0  0  0  0
  -28.2480  -12.6651   20.9109 C   0  0  1  0  0  0  0  0  0  0  0  0
  -29.0545  -18.5004   20.3074 C   0  0  1  0  0  0  0  0  0  0  0  0
  -30.8160  -17.3781   21.6878 C   0  0  0  0  0  0  0  0  0  0  0  0
  -18.6604  -29.5618   16.4944 C   0  0  0  0  0  0  0  0  0  0  0  0
  -20.3354  -29.6362   22.9022 C   0  0  0  0  0  0  0  0  0  0  0  0
  -18.7214  -28.9521   21.1146 C   0  0  0  0  0  0  0  0  0  0  0  0
  -19.1796  -31.3705   21.5198 C   0  0  0  0  0  0  0  0  0  0  0  0
  -22.3496  -29.9077   15.6306 C   0  0  0  0  0  0  0  0  0  0  0  0
  -28.3282  -25.0334   20.0117 C   0  0  0  0  0  0  0  0  0  1  0  0
  -30.5256  -18.4774   20.7166 C   0  0  0  0  0  0  0  0  0  0  0  0
  -20.9480  -29.9425   20.4128 C   0  0  1  0  0  0  0  0  0  0  0  0
  -20.1024  -29.9899   16.7179 C   0  0  2  0  0  0  0  0  0  0  0  0
  -19.8234  -29.9673   21.4861 C   0  0  0  0  0  0  0  0  0  0  0  0
  -28.6968  -23.1070   18.5923 N   0  0  0  0  0  0  0  0  0  0  0  0
  -26.1863  -11.3121   20.8851 N   0  0  0  0  0  0  0  0  0  0  0  0
  -27.3746  -11.5545   21.4642 N   0  0  0  0  0  0  0  0  0  0  0  0
  -28.8058  -19.5004   19.2656 N   0  0  3  0  0  0  0  0  0  0  0  0
  -23.3427  -30.3336   20.8989 N   0  0  0  0  0  0  0  0  0  0  0  0
  -28.2709  -14.8811   19.8009 N   0  0  0  0  0  0  0  0  0  0  0  0
  -28.7022  -17.2312   19.6667 N   0  0  0  0  0  0  0  0  0  0  0  0
  -28.8035  -10.8420   23.2138 N   0  0  0  0  0  0  0  0  0  0  0  0
  -25.2384   -8.0961   23.5966 N   0  0  0  0  0  0  0  0  0  0  0  0
  -25.4329  -31.7418   23.5342 N   0  0  0  0  0  0  0  0  0  0  0  0
  -20.4969  -30.2788   19.0668 N   0  0  0  0  0  0  0  0  0  0  0  0
  -20.9139  -29.5337   15.5541 N   0  3  0  0  0  0  0  0  0  0  0  0
  -27.2802   -8.6325   24.4922 O   0  0  0  0  0  0  0  0  0  0  0  0
  -23.7392  -30.1479   23.4176 O   0  0  0  0  0  0  0  0  0  0  0  0
  -21.8291  -32.1056   20.8266 O   0  0  0  0  0  0  0  0  0  0  0  0
  -21.1766  -28.2992   18.0687 O   0  0  0  0  0  0  0  0  0  0  0  0
  -27.8192  -16.2868   21.5625 O   0  0  0  0  0  0  0  0  0  0  0  0
  -20.6954   -8.1284   20.3724 O   0  0  0  0  0  0  0  0  0  0  0  0
  -26.9585  -25.3770   20.1793 O   0  0  0  0  0  0  0  0  0  1  0  0
  -17.2313   -7.1378   24.5464 F   0  0  0  0  0  0  0  0  0  0  0  0
  -21.3856   -6.3869   22.4055 F   0  0  0  0  0  0  0  0  0  0  0  0
  1  2  1  0  0  0  0
  1  5  2  0  0  0  0
  2  6  2  0  0  0  0
  3  9  2  0  0  0  0
  3 18  1  0  0  0  0
  4 10  1  0  0  0  0
  4 18  2  0  0  0  0
  5 20  1  0  0  0  0
  6 22  1  0  0  0  0
  7 11  2  0  0  0  0
  7 21  1  0  0  0  0
  8 14  2  0  0  0  0
  8 24  1  0  0  0  0
  9 25  1  0  0  0  0
 10 25  2  0  0  0  0
 11 26  1  0  0  0  0
 12 13  2  0  0  0  0
 12 27  1  0  0  0  0
 13 28  1  0  0  0  0
 14 31  1  0  0  0  0
 15 23  1  0  0  0  0
 15 26  2  0  0  0  0
 16 28  2  0  0  0  0
 16 29  1  0  0  0  0
 17 24  2  0  0  0  0
 17 64  1  0  0  0  0
 18 30  1  0  0  0  0
 19 30  1  0  0  0  0
 19 32  2  0  0  0  0
 19 33  1  0  0  0  0
 20 22  2  0  0  0  0
 20 38  1  0  0  0  0
 21 23  2  0  0  0  0
 21 39  1  0  0  0  0
 22 49  1  0  0  0  0
 23 40  1  0  0  0  0
 24 67  1  0  0  0  0
 25 81  1  0  0  0  0
 26 82  1  0  0  0  0
 27 29  2  0  0  0  0
 27 81  1  0  0  0  0
 28 83  1  0  0  0  0
 29 84  1  0  0  0  0
 30 65  2  0  0  0  0
 31 59  1  0  0  0  0
 31 64  2  0  0  0  0
 32 66  1  0  0  0  0
 32 71  1  0  0  0  0
 33 72  1  0  0  0  0
 33 76  2  0  0  0  0
 34 50  1  0  0  0  0
 34 73  1  0  0  0  0
 34 77  2  0  0  0  0
 35 61  1  0  0  0  0
 35 68  1  0  0  0  0
 35 78  2  0  0  0  0
 36 62  1  0  0  0  0
 36 74  1  0  0  0  0
 36 79  2  0  0  0  0
 37 69  1  0  0  0  0
 37 70  1  0  0  0  0
 37 80  2  0  0  0  0
 38 41  1  0  0  0  0
 39 50  1  0  0  0  0
 40 68  1  0  0  0  0
 41 43  1  0  0  0  0
 42 44  1  0  0  0  0
 42 45  1  0  0  0  0
 43 49  1  0  0  0  0
 44 51  1  0  0  0  0
 45 69  1  0  0  0  0
 46 47  1  0  0  0  0
 46 67  1  0  0  0  0
 47 70  1  0  0  0  0
 48 51  1  0  0  0  0
 48 69  1  0  0  0  0
 49 73  1  0  0  0  0
 50 68  1  0  0  0  0
 51 66  1  0  0  0  0
 52 60  1  0  0  0  0
 52 67  1  0  0  0  0
 52 70  1  0  0  0  0
 53 60  1  0  0  0  0
 54 62  1  0  0  0  0
 55 63  1  0  0  0  0
 56 63  1  0  0  0  0
 57 63  1  0  0  0  0
 58 75  1  0  0  0  0
 59 82  1  0  0  0  0
 61 63  1  0  0  0  0
 61 74  1  0  0  0  0
 62 75  1  0  0  0  0
 65 66  1  0  0  0  0
M  CHG  1  75   1
M  ISO  4  37 100  59 101  70 100  82 101
M  END
> <Batch ID>
0191

> <Smiles>
CCC1N(c2ccc([101CH2:1][101O:1]c3ccc4c(c3)CN(C(=O)C(NC(=O)C(C)NC)C(C)(C)C)C(C(=O)NC3CCCc5ccccc53)C4)nc2)CC[100N:0]1[100C:0](=O)N1CCCC(n2nc(-c3ccc(Oc4ccc(F)cc4F)cc3)c(C(N)=O)c2N)C1

> <Shape>
0.308

> <Color>
0.097

> <Negative vol penalty>
0.000

$$$$

  -OEChem-04052323273D

 82 91  0     1  0  0  0  0  0999 V2000
  -17.2540  -32.0716   24.7175 C   0  0  0  0  0  0  0  0  0  0  0  0
  -18.5510  -32.5549   24.5868 C   0  0  0  0  0  0  0  0  0  0  0  0
  -24.7317  -11.4559   19.7487 C   0  0  0  0  0  0  0  0  0  0  0  0
  -25.8724  -12.0629   21.7901 C   0  0  0  0  0  0  0  0  0  0  0  0
  -16.9736  -30.7443   24.3999 C   0  0  0  0  0  0  0  0  0  0  0  0
  -19.5656  -31.7145   24.1271 C   0  0  0  0  0  0  0  0  0  0  0  0
  -26.9459  -29.5614   21.9175 C   0  0  0  0  0  0  0  0  0  0  0  0
  -24.8812  -10.1060   20.0665 C   0  0  0  0  0  0  0  0  0  0  0  0
  -26.0218  -10.7130   22.1080 C   0  0  0  0  0  0  0  0  0  0  0  0
  -27.7758  -28.4654   21.6853 C   0  0  0  0  0  0  0  0  0  0  0  0
  -24.1165   -8.2303   23.3834 C   0  0  0  0  0  0  0  0  0  0  0  0
  -23.8328   -7.8389   24.6918 C   0  0  0  0  0  0  0  0  0  0  0  0
  -26.1275  -27.5430   20.1851 C   0  0  0  0  0  0  0  0  0  0  0  0
  -26.0996   -7.0422   24.9449 C   0  0  0  0  0  0  0  0  0  0  0  0
  -31.3347  -23.4451   20.8217 C   0  0  0  0  0  0  0  0  0  0  0  0
  -25.2273  -12.4344   20.6105 C   0  0  0  0  0  0  0  0  0  0  0  0
  -24.0011  -14.6712   20.6315 C   0  0  0  0  0  0  0  0  0  0  0  0
  -17.9883  -29.8845   23.9481 C   0  0  0  0  0  0  0  0  0  0  0  0
  -25.6938  -29.6520   21.2924 C   0  0  0  0  0  0  0  0  0  0  0  0
  -19.2978  -30.3783   23.7787 C   0  0  0  0  0  0  0  0  0  0  0  0
  -25.2859  -28.6434   20.4074 C   0  0  0  0  0  0  0  0  0  0  0  0
  -25.5262   -9.7345   21.2462 C   0  0  0  0  0  0  0  0  0  0  0  0
  -27.3656  -27.4549   20.8207 C   0  0  0  0  0  0  0  0  0  0  0  0
  -25.3918   -8.0276   22.8557 C   0  0  0  0  0  0  0  0  0  0  0  0
  -24.8244   -7.2449   25.4726 C   0  0  0  0  0  0  0  0  0  0  0  0
  -26.3833   -7.4336   23.6365 C   0  0  0  0  0  0  0  0  0  0  0  0
  -25.0737  -13.8289   20.2824 C   0  0  0  0  0  0  0  0  0  0  0  0
  -24.3293  -15.8887   20.0871 C   0  0  0  0  0  0  0  0  0  0  0  0
  -30.2280  -25.2138   20.8840 C   0  0  0  0  0  0  0  0  0  0  0  0
  -22.8142  -14.3792   21.3810 C   0  0  0  0  0  0  0  0  0  0  0  0
  -22.6391  -29.8205   22.2336 C   0  0  0  0  0  0  0  0  0  0  0  0
  -22.1986  -30.2446   18.9657 C   0  0  0  0  0  0  0  0  0  0  0  0
  -19.6315  -32.4637   19.3201 C   0  0  0  0  0  0  0  0  0  0  0  0
  -29.6700  -18.1751   18.6888 C   0  0  0  0  0  0  0  0  0  0  0  0
  -17.6275  -28.4592   23.6111 C   0  0  0  0  0  0  0  0  0  0  0  0
  -24.8265  -30.8578   21.5330 C   0  0  0  0  0  0  0  0  0  0  0  0
  -23.9537  -28.6959   19.7093 C   0  0  0  0  0  0  0  0  0  0  0  0
  -18.8400  -27.5354   23.5596 C   0  0  0  0  0  0  0  0  0  0  0  0
  -26.7729  -17.8387   16.4666 C   0  0  0  0  0  0  0  0  0  0  0  0
  -19.9304  -28.1563   22.6993 C   0  0  0  0  0  0  0  0  0  0  0  0
  -25.9189  -16.8259   17.2309 C   0  0  0  0  0  0  0  0  0  0  0  0
  -28.2578  -17.5532   16.6559 C   0  0  0  0  0  0  0  0  0  0  0  0
  -31.1121  -20.2812   18.6440 C   0  0  0  0  0  0  0  0  0  0  0  0
  -29.4349  -20.4076   17.3417 C   0  0  0  0  0  0  0  0  0  0  0  0
  -27.8535  -16.5078   18.8479 C   0  0  0  0  0  0  0  0  0  0  0  0
  -20.4235  -29.4743   23.3097 C   0  0  1  0  0  0  0  0  0  0  0  0
  -23.3557  -30.6299   21.1902 C   0  0  1  0  0  0  0  0  0  0  0  0
  -30.1989  -21.4358   18.1974 C   0  0  0  0  0  0  0  0  0  0  0  0
  -26.3384  -16.7462   18.7103 C   0  0  2  0  0  0  0  0  0  0  0  0
  -17.6425  -33.8470   18.6663 C   0  0  0  0  0  0  0  0  0  0  0  0
  -24.3313  -32.1630   17.9280 C   0  0  0  0  0  0  0  0  0  0  0  0
  -22.5123  -33.8166   17.4534 C   0  0  0  0  0  0  0  0  0  0  0  0
  -22.5307  -31.6147   16.2813 C   0  0  0  0  0  0  0  0  0  0  0  0
  -17.7496  -30.2730   19.9667 C   0  0  0  0  0  0  0  0  0  0  0  0
  -29.4329  -26.3727   21.2805 C   0  0  0  0  0  0  0  0  0  1  0  0
  -30.8657  -22.5753   17.4536 C   0  0  0  0  0  0  0  0  0  0  0  0
  -31.9152  -23.2718   18.3196 C   0  0  0  0  0  0  0  0  0  0  0  0
  -21.9205  -31.7086   18.7330 C   0  0  1  0  0  0  0  0  0  0  0  0
  -18.2019  -32.4402   18.8102 C   0  0  2  0  0  0  0  0  0  0  0  0
  -22.8272  -32.3152   17.6251 C   0  0  0  0  0  0  0  0  0  0  0  0
  -30.6627  -24.2659   21.6815 N   0  0  0  0  0  0  0  0  0  0  0  0
  -26.0130  -14.4581   19.5711 N   0  0  0  0  0  0  0  0  0  0  0  0
  -30.6287  -24.9591   19.6095 N   0  0  0  0  0  0  0  0  0  0  0  0
  -31.3432  -23.8254   19.5424 N   0  0  0  0  0  0  0  0  0  0  0  0
  -25.5316  -15.7086   19.4687 N   0  0  0  0  0  0  0  0  0  0  0  0
  -23.1833  -29.9299   19.9108 N   0  0  0  0  0  0  0  0  0  0  0  0
  -28.6041  -17.5069   18.0800 N   0  0  0  0  0  0  0  0  0  0  0  0
  -30.0602  -19.3866   18.1688 N   0  0  0  0  0  0  0  0  0  0  0  0
  -23.7039  -17.0851   20.0816 N   0  0  0  0  0  0  0  0  0  0  0  0
  -22.6347  -13.0772   21.8676 N   0  0  0  0  0  0  0  0  0  0  0  0
  -21.2996  -30.1330   22.3661 N   0  0  0  0  0  0  0  0  0  0  0  0
  -20.4913  -31.8143   18.4597 N   0  0  0  0  0  0  0  0  0  0  0  0
  -17.3291  -31.6813   19.7501 N   0  3  0  0  0  0  0  0  0  0  0  0
  -21.9310  -15.2430   21.5983 O   0  0  0  0  0  0  0  0  0  0  0  0
  -23.2554  -28.9741   22.8704 O   0  0  0  0  0  0  0  0  0  0  0  0
  -21.5669  -29.4013   18.3229 O   0  0  0  0  0  0  0  0  0  0  0  0
  -19.9539  -33.0072   20.3742 O   0  0  0  0  0  0  0  0  0  0  0  0
  -30.2393  -17.7195   19.6896 O   0  0  0  0  0  0  0  0  0  0  0  0
  -25.6720   -8.4174   21.5568 O   0  0  0  0  0  0  0  0  0  0  0  0
  -28.1767  -26.3807   20.5911 O   0  0  0  0  0  0  0  0  0  1  0  0
  -24.5522   -6.8705   26.7295 F   0  0  0  0  0  0  0  0  0  0  0  0
  -27.6106   -7.2373   23.1354 F   0  0  0  0  0  0  0  0  0  0  0  0
  1  2  1  0  0  0  0
  1  5  2  0  0  0  0
  2  6  2  0  0  0  0
  3  8  2  0  0  0  0
  3 16  1  0  0  0  0
  4  9  1  0  0  0  0
  4 16  2  0  0  0  0
  5 18  1  0  0  0  0
  6 20  1  0  0  0  0
  7 10  2  0  0  0  0
  7 19  1  0  0  0  0
  8 22  1  0  0  0  0
  9 22  2  0  0  0  0
 10 23  1  0  0  0  0
 11 12  2  0  0  0  0
 11 24  1  0  0  0  0
 12 25  1  0  0  0  0
 13 21  1  0  0  0  0
 13 23  2  0  0  0  0
 14 25  2  0  0  0  0
 14 26  1  0  0  0  0
 15 61  2  0  0  0  0
 15 64  1  0  0  0  0
 16 27  1  0  0  0  0
 17 27  1  0  0  0  0
 17 28  2  0  0  0  0
 17 30  1  0  0  0  0
 18 20  2  0  0  0  0
 18 35  1  0  0  0  0
 19 21  2  0  0  0  0
 19 36  1  0  0  0  0
 20 46  1  0  0  0  0
 21 37  1  0  0  0  0
 22 79  1  0  0  0  0
 23 80  1  0  0  0  0
 24 26  2  0  0  0  0
 24 79  1  0  0  0  0
 25 81  1  0  0  0  0
 26 82  1  0  0  0  0
 27 62  2  0  0  0  0
 28 65  1  0  0  0  0
 28 69  1  0  0  0  0
 29 55  1  0  0  0  0
 29 61  1  0  0  0  0
 29 63  2  0  0  0  0
 30 70  1  0  0  0  0
 30 74  2  0  0  0  0
 31 47  1  0  0  0  0
 31 71  1  0  0  0  0
 31 75  2  0  0  0  0
 32 58  1  0  0  0  0
 32 66  1  0  0  0  0
 32 76  2  0  0  0  0
 33 59  1  0  0  0  0
 33 72  1  0  0  0  0
 33 77  2  0  0  0  0
 34 67  1  0  0  0  0
 34 68  1  0  0  0  0
 34 78  2  0  0  0  0
 35 38  1  0  0  0  0
 36 47  1  0  0  0  0
 37 66  1  0  0  0  0
 38 40  1  0  0  0  0
 39 41  1  0  0  0  0
 39 42  1  0  0  0  0
 40 46  1  0  0  0  0
 41 49  1  0  0  0  0
 42 67  1  0  0  0  0
 43 48  1  0  0  0  0
 43 68  1  0  0  0  0
 44 48  1  0  0  0  0
 44 68  1  0  0  0  0
 45 49  1  0  0  0  0
 45 67  1  0  0  0  0
 46 71  1  0  0  0  0
 47 66  1  0  0  0  0
 48 56  1  0  0  0  0
 49 65  1  0  0  0  0
 50 59  1  0  0  0  0
 51 60  1  0  0  0  0
 52 60  1  0  0  0  0
 53 60  1  0  0  0  0
 54 73  1  0  0  0  0
 55 80  1  0  0  0  0
 56 57  1  0  0  0  0
 57 64  1  0  0  0  0
 58 60  1  0  0  0  0
 58 72  1  0  0  0  0
 59 73  1  0  0  0  0
 62 65  1  0  0  0  0
 63 64  1  0  0  0  0
M  CHG  1  73   1
M  ISO  4  34 100  55 101  68 100  80 101
M  END
> <Batch ID>
0191

> <Smiles>
CNC(C)C(=O)NC(C(=O)N1Cc2cc([101O:1][101CH2:1]c3ncn(CCC4C[100N:0]([100C:0](=O)N5CCCC(n6nc(-c7ccc(Oc8ccc(F)cc8F)cc7)c(C(N)=O)c6N)C5)C4)n3)ccc2CC1C(=O)NC1CCCc2ccccc21)C(C)(C)C

> <Shape>
0.242

> <Color>
0.123

> <Negative vol penalty>
0.000

$$$$

  -OEChem-04052323273D

 87 96  0     1  0  0  0  0  0999 V2000
  -28.2344  -37.8743   21.6468 C   0  0  0  0  0  0  0  0  0  0  0  0
  -28.4111  -36.8243   20.7515 C   0  0  0  0  0  0  0  0  0  0  0  0
  -23.3380  -13.8127   21.4118 C   0  0  0  0  0  0  0  0  0  0  0  0
  -22.9647  -12.0190   19.8369 C   0  0  0  0  0  0  0  0  0  0  0  0
  -27.9258  -37.6076   22.9801 C   0  0  0  0  0  0  0  0  0  0  0  0
  -28.2805  -35.5068   21.1892 C   0  0  0  0  0  0  0  0  0  0  0  0
  -26.1304  -29.0593   18.9258 C   0  0  0  0  0  0  0  0  0  0  0  0
  -22.1313  -14.3990   21.0301 C   0  0  0  0  0  0  0  0  0  0  0  0
  -21.7579  -12.6052   19.4553 C   0  0  0  0  0  0  0  0  0  0  0  0
  -26.5775  -27.7410   18.8475 C   0  0  0  0  0  0  0  0  0  0  0  0
  -19.3211  -16.5571   20.2125 C   0  0  0  0  0  0  0  0  0  0  0  0
  -19.3097  -17.9336   19.9873 C   0  0  0  0  0  0  0  0  0  0  0  0
  -25.9641  -27.4022   21.1558 C   0  0  0  0  0  0  0  0  0  0  0  0
  -20.9639  -17.6627   18.2474 C   0  0  0  0  0  0  0  0  0  0  0  0
  -23.7548  -12.6227   20.8152 C   0  0  0  0  0  0  0  0  0  0  0  0
  -25.2021  -11.0741   22.2346 C   0  0  0  0  0  0  0  0  0  0  0  0
  -27.7818  -36.2864   23.4322 C   0  0  0  0  0  0  0  0  0  0  0  0
  -25.6060  -29.5629   20.1249 C   0  0  0  0  0  0  0  0  0  0  0  0
  -27.9710  -35.2221   22.5300 C   0  0  0  0  0  0  0  0  0  0  0  0
  -25.5087  -28.7264   21.2460 C   0  0  0  0  0  0  0  0  0  0  0  0
  -21.3413  -13.7952   20.0519 C   0  0  0  0  0  0  0  0  0  0  0  0
  -26.4970  -26.9131   19.9634 C   0  0  0  0  0  0  0  0  0  0  0  0
  -20.1539  -15.7334   19.4552 C   0  0  0  0  0  0  0  0  0  0  0  0
  -20.1310  -18.4864   19.0048 C   0  0  0  0  0  0  0  0  0  0  0  0
  -20.9753  -16.2862   18.4726 C   0  0  0  0  0  0  0  0  0  0  0  0
  -25.0015  -12.0169   21.2086 C   0  0  0  0  0  0  0  0  0  0  0  0
  -26.5511  -10.8173   22.2060 C   0  0  0  0  0  0  0  0  0  0  0  0
  -24.2538  -10.4832   23.1331 C   0  0  0  0  0  0  0  0  0  0  0  0
  -26.4256  -31.8899   22.1292 C   0  0  0  0  0  0  0  0  0  0  0  0
  -23.6201  -31.1144   23.5610 C   0  0  0  0  0  0  0  0  0  0  0  0
  -21.2052  -28.7693   24.1228 C   0  0  0  0  0  0  0  0  0  0  0  0
  -27.8497  -14.3685   18.3505 C   0  0  0  0  0  0  0  0  0  0  0  0
  -27.4941  -36.0464   24.8931 C   0  0  0  0  0  0  0  0  0  0  0  0
  -25.1034  -30.9793   20.1854 C   0  0  0  0  0  0  0  0  0  0  0  0
  -24.9350  -29.2128   22.5509 C   0  0  0  0  0  0  0  0  0  0  0  0
  -27.0040  -34.6322   25.1931 C   0  0  0  0  0  0  0  0  0  0  0  0
  -28.5412  -10.9226   18.3073 C   0  0  0  0  0  0  0  0  0  0  0  0
  -27.8774  -33.6027   24.4831 C   0  0  0  0  0  0  0  0  0  0  0  0
  -28.8791  -10.5740   19.7543 C   0  0  0  0  0  0  0  0  0  0  0  0
  -27.5609  -20.5518   20.2810 C   0  0  0  0  0  0  0  0  0  0  0  0
  -29.1103  -12.2822   17.9287 C   0  0  0  0  0  0  0  0  0  0  0  0
  -29.1636  -16.0985   19.6482 C   0  0  0  0  0  0  0  0  0  0  0  0
  -28.9337  -13.0878   20.2671 C   0  0  0  0  0  0  0  0  0  0  0  0
  -26.9972  -21.9003   20.6962 C   0  0  0  0  0  0  0  0  0  0  0  0
  -29.6740  -17.3782   18.9991 C   0  0  0  0  0  0  0  0  0  0  0  0
  -28.7612  -22.1543   19.0213 C   0  0  0  0  0  0  0  0  0  0  0  0
  -27.3689  -17.8833   18.1923 C   0  0  0  0  0  0  0  0  0  0  0  0
  -27.8131  -33.7802   22.9613 C   0  0  1  0  0  0  0  0  0  0  0  0
  -25.0623  -31.5387   21.6041 C   0  0  1  0  0  0  0  0  0  0  0  0
  -28.0946  -20.7964   18.8772 C   0  0  1  0  0  0  0  0  0  0  0  0
  -28.5091  -11.6839   20.7538 C   0  0  1  0  0  0  0  0  0  0  0  0
  -26.8532  -16.5930   18.8313 C   0  0  2  0  0  0  0  0  0  0  0  0
  -26.1372  -16.8369   20.1632 C   0  0  0  0  0  0  0  0  0  0  0  0
  -29.6516  -20.9194   16.2297 C   0  0  0  0  0  0  0  0  0  0  0  0
  -19.0541  -28.4155   25.3658 C   0  0  0  0  0  0  0  0  0  0  0  0
  -25.1787  -30.8071   26.1661 C   0  0  0  0  0  0  0  0  0  0  0  0
  -23.2210  -29.5636   27.1093 C   0  0  0  0  0  0  0  0  0  0  0  0
  -22.9630  -31.9423   26.4037 C   0  0  0  0  0  0  0  0  0  0  0  0
  -19.7024  -28.2894   21.6188 C   0  0  0  0  0  0  0  0  0  0  0  0
  -29.1094  -19.6495   16.8720 C   0  0  0  0  0  0  0  0  0  0  0  0
  -28.4570  -23.9683   20.7442 C   0  0  0  0  0  0  0  0  0  0  0  0
  -27.4439  -25.0429   21.0865 C   0  0  0  0  0  0  0  0  0  1  0  0
  -23.2030  -30.1457   24.6412 C   0  0  1  0  0  0  0  0  0  0  0  0
  -19.6907  -28.8464   24.0536 C   0  0  2  0  0  0  0  0  0  0  0  0
  -29.0477  -19.7148   18.4006 C   0  0  2  0  0  0  0  0  0  0  0  0
  -23.6541  -30.6058   26.0562 C   0  0  0  0  0  0  0  0  0  0  0  0
  -26.1326  -12.3375   20.5746 N   0  0  0  0  0  0  0  0  0  0  0  0
  -27.0568  -11.5920   21.2039 N   0  0  0  0  0  0  0  0  0  0  0  0
  -24.4628  -30.6072   22.5618 N   0  0  0  0  0  0  0  0  0  0  0  0
  -28.6527  -13.3267   18.8434 N   0  0  0  0  0  0  0  0  0  0  0  0
  -27.9379  -15.6103   18.9996 N   0  0  0  0  0  0  0  0  0  0  0  0
  -27.3421  -10.0067   22.9406 N   0  0  0  0  0  0  0  0  0  0  0  0
  -22.9078  -10.8587   23.0256 N   0  0  0  0  0  0  0  0  0  0  0  0
  -26.5816  -33.2273   22.4396 N   0  0  0  0  0  0  0  0  0  0  0  0
  -21.7612  -29.9733   24.5003 N   0  0  0  0  0  0  0  0  0  0  0  0
  -27.7994  -22.9191   19.9066 N   0  3  2  0  0  0  0  0  0  0  0  0
  -28.5674  -18.3994   18.9489 N   0  3  2  0  0  0  0  0  0  0  0  0
  -19.1761  -27.9631   22.9692 N   0  3  0  0  0  0  0  0  0  0  0  0
  -24.5927   -9.6593   24.0162 O   0  0  0  0  0  0  0  0  0  0  0  0
  -27.2728  -31.0121   22.2457 O   0  0  0  0  0  0  0  0  0  0  0  0
  -23.2075  -32.2763   23.5985 O   0  0  0  0  0  0  0  0  0  0  0  0
  -21.8321  -27.7425   23.8712 O   0  0  0  0  0  0  0  0  0  0  0  0
  -27.0834  -14.1935   17.3945 O   0  0  0  0  0  0  0  0  0  0  0  0
  -20.1635  -14.3669   19.6794 O   0  0  0  0  0  0  0  0  0  0  0  0
  -26.9364  -25.6170   19.8893 O   0  0  0  0  0  0  0  0  0  1  0  0
  -20.1188  -19.8081   18.7876 F   0  0  0  0  0  0  0  0  0  0  0  0
  -21.7767  -15.4998   17.7410 F   0  0  0  0  0  0  0  0  0  0  0  0
  1  2  1  0  0  0  0
  1  5  2  0  0  0  0
  2  6  2  0  0  0  0
  3  8  2  0  0  0  0
  3 15  1  0  0  0  0
  4  9  1  0  0  0  0
  4 15  2  0  0  0  0
  5 17  1  0  0  0  0
  6 19  1  0  0  0  0
  7 10  2  0  0  0  0
  7 18  1  0  0  0  0
  8 21  1  0  0  0  0
  9 21  2  0  0  0  0
 10 22  1  0  0  0  0
 11 12  2  0  0  0  0
 11 23  1  0  0  0  0
 12 24  1  0  0  0  0
 13 20  1  0  0  0  0
 13 22  2  0  0  0  0
 14 24  2  0  0  0  0
 14 25  1  0  0  0  0
 15 26  1  0  0  0  0
 16 26  1  0  0  0  0
 16 27  2  0  0  0  0
 16 28  1  0  0  0  0
 17 19  2  0  0  0  0
 17 33  1  0  0  0  0
 18 20  2  0  0  0  0
 18 34  1  0  0  0  0
 19 48  1  0  0  0  0
 20 35  1  0  0  0  0
 21 84  1  0  0  0  0
 22 85  1  0  0  0  0
 23 25  2  0  0  0  0
 23 84  1  0  0  0  0
 24 86  1  0  0  0  0
 25 87  1  0  0  0  0
 26 67  2  0  0  0  0
 27 68  1  0  0  0  0
 27 72  1  0  0  0  0
 28 73  1  0  0  0  0
 28 79  2  0  0  0  0
 29 49  1  0  0  0  0
 29 74  1  0  0  0  0
 29 80  2  0  0  0  0
 30 63  1  0  0  0  0
 30 69  1  0  0  0  0
 30 81  2  0  0  0  0
 31 64  1  0  0  0  0
 31 75  1  0  0  0  0
 31 82  2  0  0  0  0
 32 70  1  0  0  0  0
 32 71  1  0  0  0  0
 32 83  2  0  0  0  0
 33 36  1  0  0  0  0
 34 49  1  0  0  0  0
 35 69  1  0  0  0  0
 36 38  1  0  0  0  0
 37 39  1  0  0  0  0
 37 41  1  0  0  0  0
 38 48  1  0  0  0  0
 39 51  1  0  0  0  0
 40 44  1  0  0  0  0
 40 50  1  0  0  0  0
 41 70  1  0  0  0  0
 42 45  1  0  0  0  0
 42 71  1  0  0  0  0
 43 51  1  0  0  0  0
 43 70  1  0  0  0  0
 44 76  1  0  0  0  0
 45 77  1  0  0  0  0
 46 50  1  0  0  0  0
 46 76  1  0  0  0  0
 47 52  1  0  0  0  0
 47 77  1  0  0  0  0
 48 74  1  0  0  0  0
 49 69  1  0  0  0  0
 50 65  1  0  0  0  0
 51 68  1  0  0  0  0
 52 53  1  0  0  0  0
 52 71  1  0  0  0  0
 54 60  1  0  0  0  0
 55 64  1  0  0  0  0
 56 66  1  0  0  0  0
 57 66  1  0  0  0  0
 58 66  1  0  0  0  0
 59 78  1  0  0  0  0
 60 65  1  0  0  0  0
 61 62  1  0  0  0  0
 61 76  1  0  0  0  0
 62 85  1  0  0  0  0
 63 66  1  0  0  0  0
 63 75  1  0  0  0  0
 64 78  1  0  0  0  0
 65 77  1  0  0  0  0
 67 68  1  0  0  0  0
M  CHG  3  76   1  77   1  78   1
M  ISO  4  32 100  62 101  71 100  85 101
M  END
> <Batch ID>
0191

> <Smiles>
CCC(C1CCN(C[101CH2:1][101O:1]c2ccc3c(c2)CN(C(=O)C(NC(=O)C(C)NC)C(C)(C)C)C(C(=O)NC2CCCc4ccccc42)C3)C1)N1CC[100N:0]([100C:0](=O)N2CCCC(n3nc(-c4ccc(Oc5ccc(F)cc5F)cc4)c(C(N)=O)c3N)C2)C(C)C1

> <Shape>
0.267

> <Color>
0.070

> <Negative vol penalty>
0.000

$$$$

  -OEChem-04052323273D

 79 87  0     1  0  0  0  0  0999 V2000
  -18.5134  -25.0340   21.9210 C   0  0  0  0  0  0  0  0  0  0  0  0
  -19.7815  -25.1815   21.3682 C   0  0  0  0  0  0  0  0  0  0  0  0
  -28.4497  -13.3896   20.1415 C   0  0  0  0  0  0  0  0  0  0  0  0
  -30.6378  -12.5185   19.6029 C   0  0  0  0  0  0  0  0  0  0  0  0
  -17.7912  -26.1594   22.3159 C   0  0  0  0  0  0  0  0  0  0  0  0
  -20.3277  -26.4546   21.2089 C   0  0  0  0  0  0  0  0  0  0  0  0
  -25.1665  -26.6910   22.6838 C   0  0  0  0  0  0  0  0  0  0  0  0
  -27.8651  -12.4378   19.3062 C   0  0  0  0  0  0  0  0  0  0  0  0
  -30.0532  -11.5665   18.7676 C   0  0  0  0  0  0  0  0  0  0  0  0
  -26.1243  -26.1786   21.8098 C   0  0  0  0  0  0  0  0  0  0  0  0
  -27.0838   -9.1507   19.4391 C   0  0  0  0  0  0  0  0  0  0  0  0
  -25.9668   -8.4664   19.9182 C   0  0  0  0  0  0  0  0  0  0  0  0
  -26.6288  -28.4155   21.0610 C   0  0  0  0  0  0  0  0  0  0  0  0
  -24.6551   -9.3186   18.0768 C   0  0  0  0  0  0  0  0  0  0  0  0
  -29.8361  -13.4300   20.2898 C   0  0  0  0  0  0  0  0  0  0  0  0
  -30.7257  -14.2805   22.5243 C   0  0  0  0  0  0  0  0  0  0  0  0
  -18.3328  -27.4463   22.1703 C   0  0  0  0  0  0  0  0  0  0  0  0
  -24.9246  -28.0709   22.7452 C   0  0  0  0  0  0  0  0  0  0  0  0
  -19.6115  -27.5983   21.6010 C   0  0  0  0  0  0  0  0  0  0  0  0
  -25.6692  -28.9431   21.9385 C   0  0  0  0  0  0  0  0  0  0  0  0
  -28.6668  -11.5262   18.6192 C   0  0  0  0  0  0  0  0  0  0  0  0
  -26.8536  -27.0407   20.9961 C   0  0  0  0  0  0  0  0  0  0  0  0
  -26.9866   -9.9190   18.2790 C   0  0  0  0  0  0  0  0  0  0  0  0
  -24.7524   -8.5503   19.2370 C   0  0  0  0  0  0  0  0  0  0  0  0
  -25.7722  -10.0029   17.5978 C   0  0  0  0  0  0  0  0  0  0  0  0
  -30.4406  -14.4134   21.1521 C   0  0  0  0  0  0  0  0  0  0  0  0
  -31.2913  -15.4819   22.8754 C   0  0  0  0  0  0  0  0  0  0  0  0
  -30.4995  -13.1703   23.4030 C   0  0  0  0  0  0  0  0  0  0  0  0
  -22.4154  -29.9360   22.1721 C   0  0  0  0  0  0  0  0  0  0  0  0
  -24.3621  -32.2525   23.3411 C   0  0  0  0  0  0  0  0  0  0  0  0
  -27.5429  -33.3333   23.9418 C   0  0  0  0  0  0  0  0  0  0  0  0
  -30.7076  -20.8617   20.1863 C   0  0  0  0  0  0  0  0  0  0  0  0
  -17.4950  -28.6357   22.5681 C   0  0  0  0  0  0  0  0  0  0  0  0
  -23.9068  -28.6100   23.7126 C   0  0  0  0  0  0  0  0  0  0  0  0
  -25.4619  -30.4343   21.9811 C   0  0  0  0  0  0  0  0  0  0  0  0
  -18.2982  -29.9259   22.7109 C   0  0  0  0  0  0  0  0  0  0  0  0
  -33.8478  -19.0953   21.0660 C   0  0  0  0  0  0  0  0  0  0  0  0
  -19.2331  -30.1074   21.5194 C   0  0  0  0  0  0  0  0  0  0  0  0
  -33.3421  -17.6658   21.2658 C   0  0  0  0  0  0  0  0  0  0  0  0
  -32.0460  -23.9992   21.5562 C   0  0  0  0  0  0  0  0  0  0  0  0
  -33.0111  -19.8288   20.0259 C   0  0  0  0  0  0  0  0  0  0  0  0
  -32.3635  -22.5613   21.1575 C   0  0  0  0  0  0  0  0  0  0  0  0
  -31.0374  -18.4393   20.5265 C   0  0  0  0  0  0  0  0  0  0  0  0
  -30.4283  -23.3133   19.9455 C   0  0  0  0  0  0  0  0  0  0  0  0
  -20.2481  -28.9611   21.4350 C   0  0  1  0  0  0  0  0  0  0  0  0
  -23.3818  -29.9879   23.3214 C   0  0  1  0  0  0  0  0  0  0  0  0
  -31.8346  -17.6470   21.5779 C   0  0  1  0  0  0  0  0  0  0  0  0
  -31.2912  -24.4999   20.3338 C   0  0  1  0  0  0  0  0  0  0  0  0
  -28.8178  -35.2837   24.8736 C   0  0  0  0  0  0  0  0  0  0  0  0
  -31.3371  -27.3995   19.1544 C   0  0  0  0  0  0  0  0  0  0  0  0
  -23.8122  -33.8289   20.7872 C   0  0  0  0  0  0  0  0  0  0  0  0
  -25.7928  -35.2618   21.3281 C   0  0  0  0  0  0  0  0  0  0  0  0
  -23.8377  -35.2034   22.8764 C   0  0  0  0  0  0  0  0  0  0  0  0
  -28.7583  -31.6718   26.0681 C   0  0  0  0  0  0  0  0  0  0  0  0
  -28.9060  -27.3788   19.8431 C   0  0  0  0  0  0  0  0  0  1  0  0
  -25.3744  -33.2001   22.7442 C   0  0  1  0  0  0  0  0  0  0  0  0
  -28.1858  -33.9345   25.1787 C   0  0  2  0  0  0  0  0  0  0  0  0
  -30.1274  -26.5401   19.4843 C   0  0  2  0  0  0  0  0  0  0  0  0
  -24.7071  -34.3453   21.9315 C   0  0  0  0  0  0  0  0  0  0  0  0
  -30.7957  -15.6052   20.6648 N   0  0  0  0  0  0  0  0  0  0  0  0
  -31.3096  -16.2322   21.7366 N   0  0  0  0  0  0  0  0  0  0  0  0
  -24.4511  -30.9124   22.9387 N   0  0  0  0  0  0  0  0  0  0  0  0
  -31.5863  -19.7876   20.3669 N   0  0  0  0  0  0  0  0  0  0  0  0
  -31.2229  -22.1488   20.3328 N   0  0  0  0  0  0  0  0  0  0  0  0
  -31.7697  -15.9591   24.0441 N   0  0  0  0  0  0  0  0  0  0  0  0
  -29.9086  -12.0127   22.8785 N   0  0  0  0  0  0  0  0  0  0  0  0
  -21.3043  -29.1486   22.4064 N   0  0  0  0  0  0  0  0  0  0  0  0
  -26.2062  -33.6592   23.8514 N   0  0  0  0  0  0  0  0  0  0  0  0
  -30.4725  -25.6803   20.6553 N   0  3  0  0  0  0  0  0  0  0  0  0
  -29.2449  -33.0276   25.7047 N   0  3  0  0  0  0  0  0  0  0  0  0
  -30.7970  -13.2099   24.6209 O   0  0  0  0  0  0  0  0  0  0  0  0
  -22.6589  -30.5651   21.1490 O   0  0  0  0  0  0  0  0  0  0  0  0
  -23.5277  -32.6841   24.1406 O   0  0  0  0  0  0  0  0  0  0  0  0
  -28.1653  -32.6466   23.1346 O   0  0  0  0  0  0  0  0  0  0  0  0
  -29.5055  -20.6787   19.9527 O   0  0  0  0  0  0  0  0  0  0  0  0
  -28.0967  -10.5971   17.8042 O   0  0  0  0  0  0  0  0  0  0  0  0
  -27.7949  -26.5398   20.1359 O   0  0  0  0  0  0  0  0  0  1  0  0
  -23.6801   -7.8920   19.6963 F   0  0  0  0  0  0  0  0  0  0  0  0
  -25.6730  -10.7384   16.4820 F   0  0  0  0  0  0  0  0  0  0  0  0
  1  2  1  0  0  0  0
  1  5  2  0  0  0  0
  2  6  2  0  0  0  0
  3  8  2  0  0  0  0
  3 15  1  0  0  0  0
  4  9  1  0  0  0  0
  4 15  2  0  0  0  0
  5 17  1  0  0  0  0
  6 19  1  0  0  0  0
  7 10  2  0  0  0  0
  7 18  1  0  0  0  0
  8 21  1  0  0  0  0
  9 21  2  0  0  0  0
 10 22  1  0  0  0  0
 11 12  2  0  0  0  0
 11 23  1  0  0  0  0
 12 24  1  0  0  0  0
 13 20  1  0  0  0  0
 13 22  2  0  0  0  0
 14 24  2  0  0  0  0
 14 25  1  0  0  0  0
 15 26  1  0  0  0  0
 16 26  1  0  0  0  0
 16 27  2  0  0  0  0
 16 28  1  0  0  0  0
 17 19  2  0  0  0  0
 17 33  1  0  0  0  0
 18 20  2  0  0  0  0
 18 34  1  0  0  0  0
 19 45  1  0  0  0  0
 20 35  1  0  0  0  0
 21 76  1  0  0  0  0
 22 77  1  0  0  0  0
 23 25  2  0  0  0  0
 23 76  1  0  0  0  0
 24 78  1  0  0  0  0
 25 79  1  0  0  0  0
 26 60  2  0  0  0  0
 27 61  1  0  0  0  0
 27 65  1  0  0  0  0
 28 66  1  0  0  0  0
 28 71  2  0  0  0  0
 29 46  1  0  0  0  0
 29 67  1  0  0  0  0
 29 72  2  0  0  0  0
 30 56  1  0  0  0  0
 30 62  1  0  0  0  0
 30 73  2  0  0  0  0
 31 57  1  0  0  0  0
 31 68  1  0  0  0  0
 31 74  2  0  0  0  0
 32 63  1  0  0  0  0
 32 64  1  0  0  0  0
 32 75  2  0  0  0  0
 33 36  1  0  0  0  0
 34 46  1  0  0  0  0
 35 62  1  0  0  0  0
 36 38  1  0  0  0  0
 37 39  1  0  0  0  0
 37 41  1  0  0  0  0
 38 45  1  0  0  0  0
 39 47  1  0  0  0  0
 40 42  1  0  0  0  0
 40 48  1  0  0  0  0
 41 63  1  0  0  0  0
 42 64  1  0  0  0  0
 43 47  1  0  0  0  0
 43 63  1  0  0  0  0
 44 48  1  0  0  0  0
 44 64  1  0  0  0  0
 45 67  1  0  0  0  0
 46 62  1  0  0  0  0
 47 61  1  0  0  0  0
 48 69  1  0  0  0  0
 49 57  1  0  0  0  0
 50 58  1  0  0  0  0
 51 59  1  0  0  0  0
 52 59  1  0  0  0  0
 53 59  1  0  0  0  0
 54 70  1  0  0  0  0
 55 58  1  0  0  0  0
 55 77  1  0  0  0  0
 56 59  1  0  0  0  0
 56 68  1  0  0  0  0
 57 70  1  0  0  0  0
 58 69  1  0  0  0  0
 60 61  1  0  0  0  0
M  CHG  2  69   1  70   1
M  ISO  4  32 100  55 101  64 100  77 101
M  END
> <Batch ID>
0191

> <Smiles>
CNC(C)C(=O)NC(C(=O)N1Cc2cc([101O:1][101CH2:1]C(C)NC3CC[100N:0]([100C:0](=O)N4CCCC(n5nc(-c6ccc(Oc7ccc(F)cc7F)cc6)c(C(N)=O)c5N)C4)C3)ccc2CC1C(=O)NC1CCCc2ccccc21)C(C)(C)C

> <Shape>
0.274

> <Color>
0.101

> <Negative vol penalty>
0.000

$$$$

  -OEChem-04052323273D

 83 92  0     1  0  0  0  0  0999 V2000
  -25.1538  -31.5325   28.8983 C   0  0  0  0  0  0  0  0  0  0  0  0
  -25.5271  -30.5740   27.9615 C   0  0  0  0  0  0  0  0  0  0  0  0
  -22.9423  -10.0903   20.8768 C   0  0  0  0  0  0  0  0  0  0  0  0
  -24.5784   -8.7758   22.0736 C   0  0  0  0  0  0  0  0  0  0  0  0
  -24.0762  -32.3779   28.6374 C   0  0  0  0  0  0  0  0  0  0  0  0
  -24.8223  -30.4598   26.7638 C   0  0  0  0  0  0  0  0  0  0  0  0
  -27.1017  -28.9680   21.2788 C   0  0  0  0  0  0  0  0  0  0  0  0
  -22.0965   -8.9828   20.8165 C   0  0  0  0  0  0  0  0  0  0  0  0
  -23.7326   -7.6683   22.0134 C   0  0  0  0  0  0  0  0  0  0  0  0
  -27.1369  -27.7662   20.5730 C   0  0  0  0  0  0  0  0  0  0  0  0
  -20.9870   -6.5422   23.6302 C   0  0  0  0  0  0  0  0  0  0  0  0
  -20.8218   -5.7908   24.7936 C   0  0  0  0  0  0  0  0  0  0  0  0
  -25.1532  -28.4230   19.3677 C   0  0  0  0  0  0  0  0  0  0  0  0
  -21.6873   -3.8419   23.6579 C   0  0  0  0  0  0  0  0  0  0  0  0
  -24.1833   -9.9868   21.5053 C   0  0  0  0  0  0  0  0  0  0  0  0
  -25.1060  -12.1097   22.5775 C   0  0  0  0  0  0  0  0  0  0  0  0
  -23.3639  -32.2804   27.4317 C   0  0  0  0  0  0  0  0  0  0  0  0
  -26.0841  -29.9032   21.0417 C   0  0  0  0  0  0  0  0  0  0  0  0
  -23.7333  -31.3038   26.4871 C   0  0  0  0  0  0  0  0  0  0  0  0
  -25.1088  -29.6371   20.0700 C   0  0  0  0  0  0  0  0  0  0  0  0
  -22.4916   -7.7718   21.3848 C   0  0  0  0  0  0  0  0  0  0  0  0
  -26.1609  -27.4923   19.6193 C   0  0  0  0  0  0  0  0  0  0  0  0
  -21.5023   -5.9434   22.4805 C   0  0  0  0  0  0  0  0  0  0  0  0
  -21.1719   -4.4407   24.8075 C   0  0  0  0  0  0  0  0  0  0  0  0
  -21.8525   -4.5933   22.4944 C   0  0  0  0  0  0  0  0  0  0  0  0
  -25.0577  -11.1304   21.5674 C   0  0  0  0  0  0  0  0  0  0  0  0
  -26.0957  -12.9718   22.1729 C   0  0  0  0  0  0  0  0  0  0  0  0
  -28.2904  -20.9763   19.6276 C   0  0  0  0  0  0  0  0  0  0  0  0
  -24.3259  -12.2295   23.7745 C   0  0  0  0  0  0  0  0  0  0  0  0
  -23.7620  -31.1842   22.7942 C   0  0  0  0  0  0  0  0  0  0  0  0
  -23.3059  -33.0092   20.1515 C   0  0  0  0  0  0  0  0  0  0  0  0
  -23.6727  -33.3643   16.7772 C   0  0  0  0  0  0  0  0  0  0  0  0
  -28.3045  -15.9875   17.9426 C   0  0  0  0  0  0  0  0  0  0  0  0
  -22.1766  -33.1848   27.2147 C   0  0  0  0  0  0  0  0  0  0  0  0
  -26.0755  -31.2065   21.7925 C   0  0  0  0  0  0  0  0  0  0  0  0
  -24.0067  -30.6167   19.7636 C   0  0  0  0  0  0  0  0  0  0  0  0
  -28.1275  -22.4739   19.5142 C   0  0  0  0  0  0  0  0  0  0  0  0
  -21.7170  -33.2484   25.7604 C   0  0  0  0  0  0  0  0  0  0  0  0
  -29.5280  -12.5691   18.4812 C   0  0  0  0  0  0  0  0  0  0  0  0
  -21.6351  -31.8465   25.1647 C   0  0  0  0  0  0  0  0  0  0  0  0
  -28.4485  -11.9601   19.3773 C   0  0  0  0  0  0  0  0  0  0  0  0
  -27.2100  -18.2432   20.6312 C   0  0  0  0  0  0  0  0  0  0  0  0
  -28.9621  -13.6410   17.5523 C   0  0  0  0  0  0  0  0  0  0  0  0
  -27.2409  -16.8046   20.1269 C   0  0  0  0  0  0  0  0  0  0  0  0
  -26.0009  -21.4010   19.2265 C   0  0  0  0  0  0  0  0  0  0  0  0
  -27.1199  -14.0888   19.1268 C   0  0  0  0  0  0  0  0  0  0  0  0
  -27.4874  -18.3041   18.2678 C   0  0  0  0  0  0  0  0  0  0  0  0
  -23.0091  -31.1656   25.1656 C   0  0  1  0  0  0  0  0  0  0  0  0
  -24.6989  -31.8626   21.8351 C   0  0  1  0  0  0  0  0  0  0  0  0
  -26.6288  -22.6878   19.7436 C   0  0  2  0  0  0  0  0  0  0  0  0
  -27.6630  -13.0550   20.1231 C   0  0  1  0  0  0  0  0  0  0  0  0
  -26.7473  -19.0098   19.3957 C   0  0  2  0  0  0  0  0  0  0  0  0
  -23.1676  -34.9472   14.8965 C   0  0  0  0  0  0  0  0  0  0  0  0
  -20.3811  -32.1420   20.2104 C   0  0  0  0  0  0  0  0  0  0  0  0
  -20.1670  -32.9480   17.8497 C   0  0  0  0  0  0  0  0  0  0  0  0
  -20.7426  -34.5563   19.6676 C   0  0  0  0  0  0  0  0  0  0  0  0
  -26.5419  -33.6966   16.1319 C   0  0  0  0  0  0  0  0  0  0  0  0
  -26.0913  -23.9320   19.0590 C   0  0  0  0  0  0  0  0  0  0  0  0
  -26.7526  -25.1890   19.5924 C   0  0  0  0  0  0  0  0  0  1  0  0
  -22.4759  -32.8850   18.8967 C   0  0  1  0  0  0  0  0  0  0  0  0
  -24.1909  -34.5169   15.9361 C   0  0  2  0  0  0  0  0  0  0  0  0
  -20.9612  -33.1133   19.1630 C   0  0  0  0  0  0  0  0  0  0  0  0
  -25.9460  -11.3491   20.5942 N   0  0  0  0  0  0  0  0  0  0  0  0
  -26.5617  -12.4758   20.9909 N   0  0  0  0  0  0  0  0  0  0  0  0
  -27.0278  -20.4137   19.4630 N   0  0  0  0  0  0  0  0  0  0  0  0
  -24.0377  -31.8742   20.5286 N   0  0  0  0  0  0  0  0  0  0  0  0
  -28.2029  -14.6398   18.3051 N   0  0  0  0  0  0  0  0  0  0  0  0
  -27.6093  -16.9184   18.7136 N   0  0  0  0  0  0  0  0  0  0  0  0
  -26.6042  -14.0980   22.7164 N   0  0  0  0  0  0  0  0  0  0  0  0
  -23.3514  -11.2570   24.0370 N   0  0  0  0  0  0  0  0  0  0  0  0
  -23.8259  -31.6742   24.0846 N   0  0  0  0  0  0  0  0  0  0  0  0
  -23.0583  -33.8084   17.9289 N   0  0  0  0  0  0  0  0  0  0  0  0
  -25.4414  -34.1208   15.2287 N   0  3  0  0  0  0  0  0  0  0  0  0
  -29.3584  -20.4043   19.7879 O   0  0  0  0  0  0  0  0  0  0  0  0
  -24.4770  -13.1800   24.5790 O   0  0  0  0  0  0  0  0  0  0  0  0
  -23.0340  -30.2839   22.3928 O   0  0  0  0  0  0  0  0  0  0  0  0
  -23.3106  -34.0763   20.7703 O   0  0  0  0  0  0  0  0  0  0  0  0
  -23.7971  -32.1879   16.4439 O   0  0  0  0  0  0  0  0  0  0  0  0
  -29.0220  -16.3487   17.0004 O   0  0  0  0  0  0  0  0  0  0  0  0
  -21.6664   -6.6909   21.3264 O   0  0  0  0  0  0  0  0  0  0  0  0
  -26.1927  -26.3111   18.9243 O   0  0  0  0  0  0  0  0  0  1  0  0
  -21.0147   -3.7196   25.9254 F   0  0  0  0  0  0  0  0  0  0  0  0
  -22.3491   -4.0129   21.3934 F   0  0  0  0  0  0  0  0  0  0  0  0
  1  2  1  0  0  0  0
  1  5  2  0  0  0  0
  2  6  2  0  0  0  0
  3  8  2  0  0  0  0
  3 15  1  0  0  0  0
  4  9  1  0  0  0  0
  4 15  2  0  0  0  0
  5 17  1  0  0  0  0
  6 19  1  0  0  0  0
  7 10  2  0  0  0  0
  7 18  1  0  0  0  0
  8 21  1  0  0  0  0
  9 21  2  0  0  0  0
 10 22  1  0  0  0  0
 11 12  2  0  0  0  0
 11 23  1  0  0  0  0
 12 24  1  0  0  0  0
 13 20  1  0  0  0  0
 13 22  2  0  0  0  0
 14 24  2  0  0  0  0
 14 25  1  0  0  0  0
 15 26  1  0  0  0  0
 16 26  1  0  0  0  0
 16 27  2  0  0  0  0
 16 29  1  0  0  0  0
 17 19  2  0  0  0  0
 17 34  1  0  0  0  0
 18 20  2  0  0  0  0
 18 35  1  0  0  0  0
 19 48  1  0  0  0  0
 20 36  1  0  0  0  0
 21 80  1  0  0  0  0
 22 81  1  0  0  0  0
 23 25  2  0  0  0  0
 23 80  1  0  0  0  0
 24 82  1  0  0  0  0
 25 83  1  0  0  0  0
 26 63  2  0  0  0  0
 27 64  1  0  0  0  0
 27 69  1  0  0  0  0
 28 37  1  0  0  0  0
 28 65  1  0  0  0  0
 28 74  2  0  0  0  0
 29 70  1  0  0  0  0
 29 75  2  0  0  0  0
 30 49  1  0  0  0  0
 30 71  1  0  0  0  0
 30 76  2  0  0  0  0
 31 60  1  0  0  0  0
 31 66  1  0  0  0  0
 31 77  2  0  0  0  0
 32 61  1  0  0  0  0
 32 72  1  0  0  0  0
 32 78  2  0  0  0  0
 33 67  1  0  0  0  0
 33 68  1  0  0  0  0
 33 79  2  0  0  0  0
 34 38  1  0  0  0  0
 35 49  1  0  0  0  0
 36 66  1  0  0  0  0
 37 50  1  0  0  0  0
 38 40  1  0  0  0  0
 39 41  1  0  0  0  0
 39 43  1  0  0  0  0
 40 48  1  0  0  0  0
 41 51  1  0  0  0  0
 42 44  1  0  0  0  0
 42 52  1  0  0  0  0
 43 67  1  0  0  0  0
 44 68  1  0  0  0  0
 45 50  1  0  0  0  0
 45 65  1  0  0  0  0
 46 51  1  0  0  0  0
 46 67  1  0  0  0  0
 47 52  1  0  0  0  0
 47 68  1  0  0  0  0
 48 71  1  0  0  0  0
 49 66  1  0  0  0  0
 50 58  1  0  0  0  0
 51 64  1  0  0  0  0
 52 65  1  0  0  0  0
 53 61  1  0  0  0  0
 54 62  1  0  0  0  0
 55 62  1  0  0  0  0
 56 62  1  0  0  0  0
 57 73  1  0  0  0  0
 58 59  1  0  0  0  0
 59 81  1  0  0  0  0
 60 62  1  0  0  0  0
 60 72  1  0  0  0  0
 61 73  1  0  0  0  0
 63 64  1  0  0  0  0
M  CHG  1  73   1
M  ISO  4  33 100  59 101  68 100  81 101
M  END
> <Batch ID>
0191

> <Smiles>
CNC(C)C(=O)NC(C(=O)N1Cc2cc([101O:1][101CH2:1]CC3CC(=O)N(C4CC[100N:0]([100C:0](=O)N5CCCC(n6nc(-c7ccc(Oc8ccc(F)cc8F)cc7)c(C(N)=O)c6N)C5)C4)C3)ccc2CC1C(=O)NC1CCCc2ccccc21)C(C)(C)C

> <Shape>
0.256

> <Color>
0.131

> <Negative vol penalty>
0.000

$$$$

  -OEChem-04052323273D

 84 93  0     1  0  0  0  0  0999 V2000
  -35.5021  -32.4398   20.8023 C   0  0  0  0  0  0  0  0  0  0  0  0
  -34.6212  -31.3632   20.8174 C   0  0  0  0  0  0  0  0  0  0  0  0
  -24.5079   -9.2449   22.1901 C   0  0  0  0  0  0  0  0  0  0  0  0
  -23.8916   -9.2504   19.8540 C   0  0  0  0  0  0  0  0  0  0  0  0
  -35.3610  -33.4676   21.7338 C   0  0  0  0  0  0  0  0  0  0  0  0
  -33.5992  -31.3133   21.7647 C   0  0  0  0  0  0  0  0  0  0  0  0
  -29.1550  -29.9473   19.7577 C   0  0  0  0  0  0  0  0  0  0  0  0
  -23.3484   -8.5318   22.4944 C   0  0  0  0  0  0  0  0  0  0  0  0
  -22.7321   -8.5372   20.1583 C   0  0  0  0  0  0  0  0  0  0  0  0
  -28.9658  -28.5917   19.4927 C   0  0  0  0  0  0  0  0  0  0  0  0
  -22.2709   -5.3322   22.3078 C   0  0  0  0  0  0  0  0  0  0  0  0
  -22.3865   -4.2470   23.1764 C   0  0  0  0  0  0  0  0  0  0  0  0
  -27.6918  -28.3774   21.5299 C   0  0  0  0  0  0  0  0  0  0  0  0
  -20.8472   -5.3079   24.7068 C   0  0  0  0  0  0  0  0  0  0  0  0
  -26.9735  -24.1227   18.7159 C   0  0  0  0  0  0  0  0  0  0  0  0
  -24.7795   -9.6043   20.8699 C   0  0  0  0  0  0  0  0  0  0  0  0
  -27.2378   -9.8124   20.2210 C   0  0  0  0  0  0  0  0  0  0  0  0
  -34.3309  -33.4350   22.6868 C   0  0  0  0  0  0  0  0  0  0  0  0
  -28.6223  -30.5268   20.9183 C   0  0  0  0  0  0  0  0  0  0  0  0
  -33.4450  -32.3409   22.7106 C   0  0  0  0  0  0  0  0  0  0  0  0
  -27.8735  -29.7412   21.8060 C   0  0  0  0  0  0  0  0  0  0  0  0
  -22.4605   -8.1779   21.4785 C   0  0  0  0  0  0  0  0  0  0  0  0
  -28.2366  -27.8058   20.3803 C   0  0  0  0  0  0  0  0  0  0  0  0
  -21.4435   -6.4054   22.6387 C   0  0  0  0  0  0  0  0  0  0  0  0
  -21.6746   -4.2348   24.3758 C   0  0  0  0  0  0  0  0  0  0  0  0
  -20.7316   -6.3932   23.8382 C   0  0  0  0  0  0  0  0  0  0  0  0
  -26.7098  -22.7703   18.5881 C   0  0  0  0  0  0  0  0  0  0  0  0
  -25.9768  -10.3415   20.5551 C   0  0  0  0  0  0  0  0  0  0  0  0
  -28.2936  -24.5195   18.7891 C   0  0  0  0  0  0  0  0  0  0  0  0
  -27.7837  -21.9042   18.5416 C   0  0  0  0  0  0  0  0  0  0  0  0
  -28.0292  -10.9157   20.0139 C   0  0  0  0  0  0  0  0  0  0  0  0
  -27.6563   -8.4457   20.1078 C   0  0  0  0  0  0  0  0  0  0  0  0
  -29.8494  -31.9642   23.4740 C   0  0  0  0  0  0  0  0  0  0  0  0
  -26.7313  -32.5155   24.1781 C   0  0  0  0  0  0  0  0  0  0  0  0
  -23.4677  -31.5944   23.7940 C   0  0  0  0  0  0  0  0  0  0  0  0
  -26.9822  -16.3416   18.3136 C   0  0  0  0  0  0  0  0  0  0  0  0
  -34.2471  -34.5458   23.7036 C   0  0  0  0  0  0  0  0  0  0  0  0
  -28.8126  -31.9964   21.1761 C   0  0  0  0  0  0  0  0  0  0  0  0
  -27.2636  -30.3195   23.0558 C   0  0  0  0  0  0  0  0  0  0  0  0
  -32.9088  -34.6017   24.4358 C   0  0  0  0  0  0  0  0  0  0  0  0
  -28.5307  -15.4774   21.3459 C   0  0  0  0  0  0  0  0  0  0  0  0
  -32.4954  -33.2086   24.8995 C   0  0  0  0  0  0  0  0  0  0  0  0
  -28.1716  -13.9961   21.4590 C   0  0  0  0  0  0  0  0  0  0  0  0
  -27.3622  -16.3117   20.8186 C   0  0  0  0  0  0  0  0  0  0  0  0
  -28.4890  -19.6778   17.7208 C   0  0  0  0  0  0  0  0  0  0  0  0
  -26.6968  -19.8971   19.4489 C   0  0  0  0  0  0  0  0  0  0  0  0
  -27.8349  -18.3881   17.2325 C   0  0  0  0  0  0  0  0  0  0  0  0
  -26.0681  -18.6118   18.9222 C   0  0  0  0  0  0  0  0  0  0  0  0
  -26.4371  -14.3332   19.6576 C   0  0  0  0  0  0  0  0  0  0  0  0
  -32.3085  -32.2630   23.7069 C   0  0  1  0  0  0  0  0  0  0  0  0
  -28.6616  -32.3692   22.6477 C   0  0  1  0  0  0  0  0  0  0  0  0
  -27.6106  -13.4607   20.1296 C   0  0  2  0  0  0  0  0  0  0  0  0
  -21.1474  -32.2129   24.5229 C   0  0  0  0  0  0  0  0  0  0  0  0
  -27.2523  -31.2476   26.9041 C   0  0  0  0  0  0  0  0  0  0  0  0
  -24.7757  -31.0269   27.1971 C   0  0  0  0  0  0  0  0  0  0  0  0
  -25.8054  -33.2867   26.9613 C   0  0  0  0  0  0  0  0  0  0  0  0
  -22.6148  -32.1412   21.0133 C   0  0  0  0  0  0  0  0  0  0  0  0
  -28.6311  -25.9643   18.9280 C   0  0  0  0  0  0  0  0  0  1  0  0
  -25.6602  -31.7739   24.9408 C   0  0  1  0  0  0  0  0  0  0  0  0
  -22.2249  -32.4023   23.4665 C   0  0  2  0  0  0  0  0  0  0  0  0
  -25.8864  -31.8222   26.4783 C   0  0  0  0  0  0  0  0  0  0  0  0
  -25.9632  -11.6771   20.5613 N   0  0  0  0  0  0  0  0  0  0  0  0
  -29.3248  -23.6497   18.7411 N   0  0  0  0  0  0  0  0  0  0  0  0
  -29.0656  -22.3206   18.6151 N   0  0  0  0  0  0  0  0  0  0  0  0
  -27.2255  -11.9965   20.2286 N   0  0  0  0  0  0  0  0  0  0  0  0
  -27.5194  -20.5348   18.4117 N   0  0  0  0  0  0  0  0  0  0  0  0
  -27.4828  -31.7599   23.2670 N   0  0  0  0  0  0  0  0  0  0  0  0
  -26.8349  -15.7400   19.5723 N   0  0  0  0  0  0  0  0  0  0  0  0
  -27.0600  -17.7429   18.2855 N   0  0  0  0  0  0  0  0  0  0  0  0
  -29.3272  -11.0570   19.6710 N   0  0  0  0  0  0  0  0  0  0  0  0
  -26.7157   -7.4363   20.3544 N   0  0  0  0  0  0  0  0  0  0  0  0
  -31.0430  -32.5184   23.0528 N   0  0  0  0  0  0  0  0  0  0  0  0
  -24.3861  -32.3363   24.5064 N   0  0  0  0  0  0  0  0  0  0  0  0
  -21.6688  -31.9858   22.1481 N   0  3  0  0  0  0  0  0  0  0  0  0
  -28.8338   -8.1290   19.8133 O   0  0  0  0  0  0  0  0  0  0  0  0
  -29.6941  -31.2062   24.4243 O   0  0  0  0  0  0  0  0  0  0  0  0
  -26.8903  -33.7223   24.3779 O   0  0  0  0  0  0  0  0  0  0  0  0
  -23.6080  -30.4214   23.4553 O   0  0  0  0  0  0  0  0  0  0  0  0
  -27.0440  -15.6694   17.2767 O   0  0  0  0  0  0  0  0  0  0  0  0
  -21.3291   -7.4817   21.7749 O   0  0  0  0  0  0  0  0  0  0  0  0
  -28.0497  -26.4733   20.1226 O   0  0  0  0  0  0  0  0  0  1  0  0
  -21.7846   -3.1919   25.2091 F   0  0  0  0  0  0  0  0  0  0  0  0
  -19.9342   -7.4207   24.1610 F   0  0  0  0  0  0  0  0  0  0  0  0
  -25.4475  -22.3298   18.5136 F   0  0  0  0  0  0  0  0  0  0  0  0
  1  2  1  0  0  0  0
  1  5  2  0  0  0  0
  2  6  2  0  0  0  0
  3  8  2  0  0  0  0
  3 16  1  0  0  0  0
  4  9  1  0  0  0  0
  4 16  2  0  0  0  0
  5 18  1  0  0  0  0
  6 20  1  0  0  0  0
  7 10  2  0  0  0  0
  7 19  1  0  0  0  0
  8 22  1  0  0  0  0
  9 22  2  0  0  0  0
 10 23  1  0  0  0  0
 11 12  2  0  0  0  0
 11 24  1  0  0  0  0
 12 25  1  0  0  0  0
 13 21  1  0  0  0  0
 13 23  2  0  0  0  0
 14 25  2  0  0  0  0
 14 26  1  0  0  0  0
 15 27  2  0  0  0  0
 15 29  1  0  0  0  0
 16 28  1  0  0  0  0
 17 28  1  0  0  0  0
 17 31  2  0  0  0  0
 17 32  1  0  0  0  0
 18 20  2  0  0  0  0
 18 37  1  0  0  0  0
 19 21  2  0  0  0  0
 19 38  1  0  0  0  0
 20 50  1  0  0  0  0
 21 39  1  0  0  0  0
 22 80  1  0  0  0  0
 23 81  1  0  0  0  0
 24 26  2  0  0  0  0
 24 80  1  0  0  0  0
 25 82  1  0  0  0  0
 26 83  1  0  0  0  0
 27 30  1  0  0  0  0
 27 84  1  0  0  0  0
 28 62  2  0  0  0  0
 29 58  1  0  0  0  0
 29 63  2  0  0  0  0
 30 64  2  0  0  0  0
 30 66  1  0  0  0  0
 31 65  1  0  0  0  0
 31 70  1  0  0  0  0
 32 71  1  0  0  0  0
 32 75  2  0  0  0  0
 33 51  1  0  0  0  0
 33 72  1  0  0  0  0
 33 76  2  0  0  0  0
 34 59  1  0  0  0  0
 34 67  1  0  0  0  0
 34 77  2  0  0  0  0
 35 60  1  0  0  0  0
 35 73  1  0  0  0  0
 35 78  2  0  0  0  0
 36 68  1  0  0  0  0
 36 69  1  0  0  0  0
 36 79  2  0  0  0  0
 37 40  1  0  0  0  0
 38 51  1  0  0  0  0
 39 67  1  0  0  0  0
 40 42  1  0  0  0  0
 41 43  1  0  0  0  0
 41 44  1  0  0  0  0
 42 50  1  0  0  0  0
 43 52  1  0  0  0  0
 44 68  1  0  0  0  0
 45 47  1  0  0  0  0
 45 66  1  0  0  0  0
 46 48  1  0  0  0  0
 46 66  1  0  0  0  0
 47 69  1  0  0  0  0
 48 69  1  0  0  0  0
 49 52  1  0  0  0  0
 49 68  1  0  0  0  0
 50 72  1  0  0  0  0
 51 67  1  0  0  0  0
 52 65  1  0  0  0  0
 53 60  1  0  0  0  0
 54 61  1  0  0  0  0
 55 61  1  0  0  0  0
 56 61  1  0  0  0  0
 57 74  1  0  0  0  0
 58 81  1  0  0  0  0
 59 61  1  0  0  0  0
 59 73  1  0  0  0  0
 60 74  1  0  0  0  0
 62 65  1  0  0  0  0
 63 64  1  0  0  0  0
M  CHG  1  74   1
M  ISO  4  36 100  58 101  69 100  81 101
M  END
> <Batch ID>
0191

> <Smiles>
CNC(C)C(=O)NC(C(=O)N1Cc2cc([101O:1][101CH2:1]c3cc(F)c(N4CC[100N:0]([100C:0](=O)N5CCCC(n6nc(-c7ccc(Oc8ccc(F)cc8F)cc7)c(C(N)=O)c6N)C5)CC4)nn3)ccc2CC1C(=O)NC1CCCc2ccccc21)C(C)(C)C

> <Shape>
0.235

> <Color>
0.108

> <Negative vol penalty>
0.000

$$$$

  -OEChem-04052323273D

 83 92  0     1  0  0  0  0  0999 V2000
  -24.0249  -30.8003   25.4525 C   0  0  0  0  0  0  0  0  0  0  0  0
  -23.8157  -29.4675   25.1130 C   0  0  0  0  0  0  0  0  0  0  0  0
  -23.1897   -9.7652   19.9553 C   0  0  0  0  0  0  0  0  0  0  0  0
  -23.4605  -10.0568   22.3383 C   0  0  0  0  0  0  0  0  0  0  0  0
  -24.2517  -31.7457   24.4532 C   0  0  0  0  0  0  0  0  0  0  0  0
  -23.8320  -29.0795   23.7738 C   0  0  0  0  0  0  0  0  0  0  0  0
  -25.8745  -23.7710   21.5036 C   0  0  0  0  0  0  0  0  0  0  0  0
  -22.3963   -8.6408   20.1830 C   0  0  0  0  0  0  0  0  0  0  0  0
  -22.6670   -8.9324   22.5661 C   0  0  0  0  0  0  0  0  0  0  0  0
  -25.2201  -22.6015   21.1191 C   0  0  0  0  0  0  0  0  0  0  0  0
  -23.0262   -5.5716   22.4830 C   0  0  0  0  0  0  0  0  0  0  0  0
  -23.4679   -4.6477   23.4301 C   0  0  0  0  0  0  0  0  0  0  0  0
  -25.2094  -23.3668   18.8314 C   0  0  0  0  0  0  0  0  0  0  0  0
  -21.4535   -5.0026   24.7159 C   0  0  0  0  0  0  0  0  0  0  0  0
  -23.7218  -10.4732   21.0330 C   0  0  0  0  0  0  0  0  0  0  0  0
  -24.1117  -12.9700   20.6841 C   0  0  0  0  0  0  0  0  0  0  0  0
  -24.2805  -31.3674   23.1016 C   0  0  0  0  0  0  0  0  0  0  0  0
  -26.1921  -24.7537   20.5549 C   0  0  0  0  0  0  0  0  0  0  0  0
  -24.0581  -30.0209   22.7553 C   0  0  0  0  0  0  0  0  0  0  0  0
  -25.8701  -24.5467   19.2060 C   0  0  0  0  0  0  0  0  0  0  0  0
  -22.1349   -8.2244   21.4884 C   0  0  0  0  0  0  0  0  0  0  0  0
  -24.8848  -22.4005   19.7833 C   0  0  0  0  0  0  0  0  0  0  0  0
  -21.7981   -6.2110   22.6524 C   0  0  0  0  0  0  0  0  0  0  0  0
  -22.6816   -4.3632   24.5465 C   0  0  0  0  0  0  0  0  0  0  0  0
  -21.0118   -5.9265   23.7688 C   0  0  0  0  0  0  0  0  0  0  0  0
  -24.5419  -11.6344   20.7984 C   0  0  0  0  0  0  0  0  0  0  0  0
  -25.2644  -13.6845   20.4666 C   0  0  0  0  0  0  0  0  0  0  0  0
  -22.7886  -13.5158   20.7673 C   0  0  0  0  0  0  0  0  0  0  0  0
  -25.3798  -27.7956   20.1183 C   0  0  0  0  0  0  0  0  0  0  0  0
  -27.5835  -27.6374   17.7432 C   0  0  0  0  0  0  0  0  0  0  0  0
  -29.3228  -25.7096   15.5285 C   0  0  0  0  0  0  0  0  0  0  0  0
  -30.1369  -14.4380   18.0903 C   0  0  0  0  0  0  0  0  0  0  0  0
  -24.4824  -32.4331   22.0537 C   0  0  0  0  0  0  0  0  0  0  0  0
  -26.9220  -25.9977   20.9816 C   0  0  0  0  0  0  0  0  0  0  0  0
  -26.2070  -25.5617   18.1455 C   0  0  0  0  0  0  0  0  0  0  0  0
  -24.8564  -31.8760   20.6825 C   0  0  0  0  0  0  0  0  0  0  0  0
  -30.1154  -12.3222   20.8245 C   0  0  0  0  0  0  0  0  0  0  0  0
  -23.9459  -30.7089   20.3140 C   0  0  0  0  0  0  0  0  0  0  0  0
  -28.6296  -12.0556   21.0646 C   0  0  0  0  0  0  0  0  0  0  0  0
  -26.2444  -19.3071   15.4862 C   0  0  0  0  0  0  0  0  0  0  0  0
  -25.5789  -18.1904   14.7361 C   0  0  0  0  0  0  0  0  0  0  0  0
  -30.4372  -12.3179   19.3344 C   0  0  0  0  0  0  0  0  0  0  0  0
  -29.5254  -16.7369   17.4320 C   0  0  0  0  0  0  0  0  0  0  0  0
  -28.3949  -14.8629   16.3129 C   0  0  0  0  0  0  0  0  0  0  0  0
  -28.2253  -17.5364   17.3549 C   0  0  0  0  0  0  0  0  0  0  0  0
  -27.1085  -15.6835   16.2649 C   0  0  0  0  0  0  0  0  0  0  0  0
  -28.1386  -13.0354   18.7697 C   0  0  0  0  0  0  0  0  0  0  0  0
  -24.0930  -29.5569   21.3153 C   0  0  1  0  0  0  0  0  0  0  0  0
  -26.7376  -27.1609   20.0119 C   0  0  1  0  0  0  0  0  0  0  0  0
  -27.7557  -13.0370   20.2633 C   0  0  1  0  0  0  0  0  0  0  0  0
  -26.1617  -17.9305   16.1075 C   0  0  0  0  0  0  0  0  0  0  0  0
  -31.0239  -25.8688   13.6904 C   0  0  0  0  0  0  0  0  0  0  0  0
  -25.4360  -28.6937   15.8505 C   0  0  0  0  0  0  0  0  0  0  0  0
  -26.8558  -27.9402   13.9310 C   0  0  0  0  0  0  0  0  0  0  0  0
  -27.7084  -29.6787   15.5036 C   0  0  0  0  0  0  0  0  0  0  0  0
  -31.2471  -24.0133   17.0046 C   0  0  0  0  0  0  0  0  0  0  0  0
  -25.2012  -17.7378   17.2495 C   0  0  0  0  0  0  0  0  0  0  0  0
  -24.3180  -18.8552   19.3013 C   0  0  0  0  0  0  0  0  0  0  0  0
  -24.5069  -20.0843   20.1684 C   0  0  0  0  0  0  0  0  0  1  0  0
  -27.5518  -27.2770   16.2776 C   0  0  1  0  0  0  0  0  0  0  0  0
  -30.7994  -25.6592   15.1799 C   0  0  2  0  0  0  0  0  0  0  0  0
  -26.8798  -28.3789   15.4107 C   0  0  0  0  0  0  0  0  0  0  0  0
  -25.8646  -11.5055   20.6644 N   0  0  0  0  0  0  0  0  0  0  0  0
  -26.2755  -12.7692   20.4636 N   0  0  0  0  0  0  0  0  0  0  0  0
  -26.9152  -26.7646   18.6135 N   0  0  0  0  0  0  0  0  0  0  0  0
  -29.5834  -13.2574   18.6079 N   0  0  0  0  0  0  0  0  0  0  0  0
  -29.2647  -15.3007   17.4095 N   0  0  0  0  0  0  0  0  0  0  0  0
  -27.4039  -17.1224   16.2087 N   0  0  0  0  0  0  0  0  0  0  0  0
  -25.5015  -15.0003   20.2794 N   0  0  0  0  0  0  0  0  0  0  0  0
  -21.7179  -12.6406   20.9952 N   0  0  0  0  0  0  0  0  0  0  0  0
  -25.3050  -28.8108   21.0528 N   0  0  0  0  0  0  0  0  0  0  0  0
  -28.9290  -26.9775   15.9010 N   0  0  0  0  0  0  0  0  0  0  0  0
  -31.3768  -24.3392   15.5610 N   0  3  0  0  0  0  0  0  0  0  0  0
  -25.2706  -18.9085   18.1594 N   0  3  0  0  0  0  0  0  0  0  0  0
  -22.5606  -14.7413   20.6267 O   0  0  0  0  0  0  0  0  0  0  0  0
  -24.4680  -27.3950   19.4043 O   0  0  0  0  0  0  0  0  0  0  0  0
  -28.1854  -28.6521   18.1035 O   0  0  0  0  0  0  0  0  0  0  0  0
  -28.5910  -24.7238   15.4721 O   0  0  0  0  0  0  0  0  0  0  0  0
  -31.3356  -14.7100   18.2313 O   0  0  0  0  0  0  0  0  0  0  0  0
  -21.3606   -7.1274   21.7109 O   0  0  0  0  0  0  0  0  0  0  0  0
  -24.2409  -21.2520   19.4028 O   0  0  0  0  0  0  0  0  0  1  0  0
  -23.1052   -3.4748   25.4551 F   0  0  0  0  0  0  0  0  0  0  0  0
  -19.8305   -6.5368   23.9364 F   0  0  0  0  0  0  0  0  0  0  0  0
  1  2  1  0  0  0  0
  1  5  2  0  0  0  0
  2  6  2  0  0  0  0
  3  8  2  0  0  0  0
  3 15  1  0  0  0  0
  4  9  1  0  0  0  0
  4 15  2  0  0  0  0
  5 17  1  0  0  0  0
  6 19  1  0  0  0  0
  7 10  2  0  0  0  0
  7 18  1  0  0  0  0
  8 21  1  0  0  0  0
  9 21  2  0  0  0  0
 10 22  1  0  0  0  0
 11 12  2  0  0  0  0
 11 23  1  0  0  0  0
 12 24  1  0  0  0  0
 13 20  1  0  0  0  0
 13 22  2  0  0  0  0
 14 24  2  0  0  0  0
 14 25  1  0  0  0  0
 15 26  1  0  0  0  0
 16 26  1  0  0  0  0
 16 27  2  0  0  0  0
 16 28  1  0  0  0  0
 17 19  2  0  0  0  0
 17 33  1  0  0  0  0
 18 20  2  0  0  0  0
 18 34  1  0  0  0  0
 19 48  1  0  0  0  0
 20 35  1  0  0  0  0
 21 80  1  0  0  0  0
 22 81  1  0  0  0  0
 23 25  2  0  0  0  0
 23 80  1  0  0  0  0
 24 82  1  0  0  0  0
 25 83  1  0  0  0  0
 26 63  2  0  0  0  0
 27 64  1  0  0  0  0
 27 69  1  0  0  0  0
 28 70  1  0  0  0  0
 28 75  2  0  0  0  0
 29 49  1  0  0  0  0
 29 71  1  0  0  0  0
 29 76  2  0  0  0  0
 30 60  1  0  0  0  0
 30 65  1  0  0  0  0
 30 77  2  0  0  0  0
 31 61  1  0  0  0  0
 31 72  1  0  0  0  0
 31 78  2  0  0  0  0
 32 66  1  0  0  0  0
 32 67  1  0  0  0  0
 32 79  2  0  0  0  0
 33 36  1  0  0  0  0
 34 49  1  0  0  0  0
 35 65  1  0  0  0  0
 36 38  1  0  0  0  0
 37 39  1  0  0  0  0
 37 42  1  0  0  0  0
 38 48  1  0  0  0  0
 39 50  1  0  0  0  0
 40 41  1  0  0  0  0
 40 51  1  0  0  0  0
 41 51  1  0  0  0  0
 42 66  1  0  0  0  0
 43 45  1  0  0  0  0
 43 67  1  0  0  0  0
 44 46  1  0  0  0  0
 44 67  1  0  0  0  0
 45 68  1  0  0  0  0
 46 68  1  0  0  0  0
 47 50  1  0  0  0  0
 47 66  1  0  0  0  0
 48 71  1  0  0  0  0
 49 65  1  0  0  0  0
 50 64  1  0  0  0  0
 51 57  1  0  0  0  0
 51 68  1  0  0  0  0
 52 61  1  0  0  0  0
 53 62  1  0  0  0  0
 54 62  1  0  0  0  0
 55 62  1  0  0  0  0
 56 73  1  0  0  0  0
 57 74  1  0  0  0  0
 58 59  1  0  0  0  0
 58 74  1  0  0  0  0
 59 81  1  0  0  0  0
 60 62  1  0  0  0  0
 60 72  1  0  0  0  0
 61 73  1  0  0  0  0
 63 64  1  0  0  0  0
M  CHG  2  73   1  74   1
M  ISO  4  32 100  59 101  67 100  81 101
M  END
> <Batch ID>
0191

> <Smiles>
CNC(C)C(=O)NC(C(=O)N1Cc2cc([101O:1][101CH2:1]CNCC3(N4CC[100N:0]([100C:0](=O)N5CCCC(n6nc(-c7ccc(Oc8ccc(F)cc8F)cc7)c(C(N)=O)c6N)C5)CC4)CC3)ccc2CC1C(=O)NC1CCCc2ccccc21)C(C)(C)C

> <Shape>
0.236

> <Color>
0.184

> <Negative vol penalty>
0.000

$$$$

  -OEChem-04052323273D

 83 92  0     1  0  0  0  0  0999 V2000
  -21.9494  -11.3226   19.4760 C   0  0  0  0  0  0  0  0  0  0  0  0
  -21.6097  -12.5809   19.9625 C   0  0  0  0  0  0  0  0  0  0  0  0
  -29.3958  -26.4384   18.0266 C   0  0  0  0  0  0  0  0  0  0  0  0
  -29.2836  -26.1301   20.4203 C   0  0  0  0  0  0  0  0  0  0  0  0
  -23.2660  -10.8731   19.5679 C   0  0  0  0  0  0  0  0  0  0  0  0
  -22.5862  -13.3901   20.5422 C   0  0  0  0  0  0  0  0  0  0  0  0
  -22.9542  -19.4964   20.2543 C   0  0  0  0  0  0  0  0  0  0  0  0
  -30.7083  -25.9663   18.0273 C   0  0  0  0  0  0  0  0  0  0  0  0
  -30.5962  -25.6580   20.4209 C   0  0  0  0  0  0  0  0  0  0  0  0
  -22.5748  -20.5019   21.1425 C   0  0  0  0  0  0  0  0  0  0  0  0
  -33.7127  -26.9615   20.2835 C   0  0  0  0  0  0  0  0  0  0  0  0
  -34.5753  -27.4462   21.2667 C   0  0  0  0  0  0  0  0  0  0  0  0
  -24.8286  -20.5881   21.9982 C   0  0  0  0  0  0  0  0  0  0  0  0
  -34.9028  -25.1978   22.0878 C   0  0  0  0  0  0  0  0  0  0  0  0
  -22.3125  -27.0922   25.3723 C   0  0  0  0  0  0  0  0  0  0  0  0
  -28.6834  -26.5204   19.2231 C   0  0  0  0  0  0  0  0  0  0  0  0
  -26.2276  -26.4625   18.5352 C   0  0  0  0  0  0  0  0  0  0  0  0
  -24.2611  -11.6811   20.1403 C   0  0  0  0  0  0  0  0  0  0  0  0
  -24.2733  -19.0208   20.2389 C   0  0  0  0  0  0  0  0  0  0  0  0
  -23.9171  -12.9504   20.6430 C   0  0  0  0  0  0  0  0  0  0  0  0
  -25.2228  -19.5783   21.1071 C   0  0  0  0  0  0  0  0  0  0  0  0
  -31.3085  -25.5761   19.2244 C   0  0  0  0  0  0  0  0  0  0  0  0
  -23.5113  -21.0459   22.0166 C   0  0  0  0  0  0  0  0  0  0  0  0
  -33.4451  -25.5949   20.2026 C   0  0  0  0  0  0  0  0  0  0  0  0
  -35.1704  -26.5644   22.1688 C   0  0  0  0  0  0  0  0  0  0  0  0
  -34.0402  -24.7131   21.1047 C   0  0  0  0  0  0  0  0  0  0  0  0
  -27.3278  -27.0085   19.2232 C   0  0  0  0  0  0  0  0  0  0  0  0
  -23.1687  -28.0920   25.7389 C   0  0  0  0  0  0  0  0  0  0  0  0
  -22.7684  -25.9739   26.1279 C   0  0  0  0  0  0  0  0  0  0  0  0
  -25.1768  -27.2852   18.8600 C   0  0  0  0  0  0  0  0  0  0  0  0
  -26.1614  -25.3141   17.6793 C   0  0  0  0  0  0  0  0  0  0  0  0
  -25.6509  -16.2100   20.7914 C   0  0  0  0  0  0  0  0  0  0  0  0
  -28.3186  -17.7596   19.7894 C   0  0  0  0  0  0  0  0  0  0  0  0
  -29.9567  -20.7214   19.3519 C   0  0  0  0  0  0  0  0  0  0  0  0
  -24.0979  -30.8697   23.5331 C   0  0  0  0  0  0  0  0  0  0  0  0
  -25.6611  -11.1331   20.2603 C   0  0  0  0  0  0  0  0  0  0  0  0
  -24.6729  -17.9544   19.2563 C   0  0  0  0  0  0  0  0  0  0  0  0
  -26.6565  -19.1169   21.1162 C   0  0  0  0  0  0  0  0  0  0  0  0
  -26.7112  -12.2026   20.5496 C   0  0  0  0  0  0  0  0  0  0  0  0
  -24.2023  -31.8026   20.0987 C   0  0  0  0  0  0  0  0  0  0  0  0
  -26.2352  -13.1308   21.6626 C   0  0  0  0  0  0  0  0  0  0  0  0
  -24.9159  -30.6304   19.4228 C   0  0  0  0  0  0  0  0  0  0  0  0
  -24.4543  -29.8090   26.7068 C   0  0  0  0  0  0  0  0  0  0  0  0
  -25.0201  -28.4456   27.1588 C   0  0  0  0  0  0  0  0  0  0  0  0
  -24.7749  -32.0881   21.4853 C   0  0  0  0  0  0  0  0  0  0  0  0
  -25.5272  -29.7525   21.7150 C   0  0  0  0  0  0  0  0  0  0  0  0
  -24.9531  -13.8674   21.2562 C   0  0  1  0  0  0  0  0  0  0  0  0
  -23.4882  -29.5149   25.5211 C   0  0  1  0  0  0  0  0  0  0  0  0
  -25.9207  -17.1869   19.6822 C   0  0  1  0  0  0  0  0  0  0  0  0
  -24.9474  -29.3908   20.3368 C   0  0  2  0  0  0  0  0  0  0  0  0
  -32.1378  -21.6660   18.5470 C   0  0  0  0  0  0  0  0  0  0  0  0
  -29.6586  -16.8682   22.3817 C   0  0  0  0  0  0  0  0  0  0  0  0
  -31.4339  -18.5856   21.9729 C   0  0  0  0  0  0  0  0  0  0  0  0
  -31.1109  -16.7177   20.3513 C   0  0  0  0  0  0  0  0  0  0  0  0
  -28.6280  -22.2699   17.2081 C   0  0  0  0  0  0  0  0  0  0  0  0
  -22.1968  -24.5867   26.1246 C   0  0  0  0  0  0  0  0  0  0  0  0
  -21.7304  -22.5475   24.7598 C   0  0  0  0  0  0  0  0  0  0  0  0
  -21.7913  -22.0174   23.3408 C   0  0  0  0  0  0  0  0  0  1  0  0
  -29.3979  -18.5739   20.4611 C   0  0  1  0  0  0  0  0  0  0  0  0
  -30.7154  -21.2871   18.1649 C   0  0  2  0  0  0  0  0  0  0  0  0
  -30.3729  -17.6939   21.2932 C   0  0  0  0  0  0  0  0  0  0  0  0
  -27.0058  -28.0943   19.9314 N   0  0  0  0  0  0  0  0  0  0  0  0
  -23.8267  -26.2535   26.9088 N   0  0  0  0  0  0  0  0  0  0  0  0
  -24.0194  -27.5391   26.6375 N   0  0  0  0  0  0  0  0  0  0  0  0
  -25.6915  -28.2372   19.6901 N   0  0  0  0  0  0  0  0  0  0  0  0
  -26.9968  -18.0676   20.1412 N   0  0  0  0  0  0  0  0  0  0  0  0
  -24.7751  -30.8723   22.3025 N   0  0  0  0  0  0  0  0  0  0  0  0
  -23.8721  -27.2801   18.5135 N   0  0  0  0  0  0  0  0  0  0  0  0
  -25.8747  -24.0683   18.2537 N   0  0  0  0  0  0  0  0  0  0  0  0
  -25.2606  -14.9580   20.3560 N   0  0  0  0  0  0  0  0  0  0  0  0
  -30.0434  -19.3463   19.4051 N   0  0  0  0  0  0  0  0  0  0  0  0
  -24.1424  -29.6752   24.2416 N   0  0  0  0  0  0  0  0  0  0  0  0
  -30.0292  -22.5028   17.6432 N   0  3  0  0  0  0  0  0  0  0  0  0
  -22.2345  -23.9438   24.7833 N   0  3  0  0  0  0  0  0  0  0  0  0
  -26.3671  -25.3879   16.4440 O   0  0  0  0  0  0  0  0  0  0  0  0
  -25.7881  -16.5654   21.9562 O   0  0  0  0  0  0  0  0  0  0  0  0
  -28.6364  -16.8874   18.9770 O   0  0  0  0  0  0  0  0  0  0  0  0
  -29.3511  -21.4289   20.1539 O   0  0  0  0  0  0  0  0  0  0  0  0
  -23.4937  -31.8569   23.9658 O   0  0  0  0  0  0  0  0  0  0  0  0
  -32.5891  -25.1151   19.2254 O   0  0  0  0  0  0  0  0  0  0  0  0
  -23.1435  -22.0269   22.8850 O   0  0  0  0  0  0  0  0  0  1  0  0
  -35.9999  -27.0299   23.1119 F   0  0  0  0  0  0  0  0  0  0  0  0
  -33.7879  -23.3990   21.0311 F   0  0  0  0  0  0  0  0  0  0  0  0
  1  2  1  0  0  0  0
  1  5  2  0  0  0  0
  2  6  2  0  0  0  0
  3  8  2  0  0  0  0
  3 16  1  0  0  0  0
  4  9  1  0  0  0  0
  4 16  2  0  0  0  0
  5 18  1  0  0  0  0
  6 20  1  0  0  0  0
  7 10  2  0  0  0  0
  7 19  1  0  0  0  0
  8 22  1  0  0  0  0
  9 22  2  0  0  0  0
 10 23  1  0  0  0  0
 11 12  2  0  0  0  0
 11 24  1  0  0  0  0
 12 25  1  0  0  0  0
 13 21  1  0  0  0  0
 13 23  2  0  0  0  0
 14 25  2  0  0  0  0
 14 26  1  0  0  0  0
 15 28  2  0  0  0  0
 15 29  1  0  0  0  0
 16 27  1  0  0  0  0
 17 27  1  0  0  0  0
 17 30  2  0  0  0  0
 17 31  1  0  0  0  0
 18 20  2  0  0  0  0
 18 36  1  0  0  0  0
 19 21  2  0  0  0  0
 19 37  1  0  0  0  0
 20 47  1  0  0  0  0
 21 38  1  0  0  0  0
 22 80  1  0  0  0  0
 23 81  1  0  0  0  0
 24 26  2  0  0  0  0
 24 80  1  0  0  0  0
 25 82  1  0  0  0  0
 26 83  1  0  0  0  0
 27 62  2  0  0  0  0
 28 48  1  0  0  0  0
 28 64  1  0  0  0  0
 29 56  1  0  0  0  0
 29 63  2  0  0  0  0
 30 65  1  0  0  0  0
 30 68  1  0  0  0  0
 31 69  1  0  0  0  0
 31 75  2  0  0  0  0
 32 49  1  0  0  0  0
 32 70  1  0  0  0  0
 32 76  2  0  0  0  0
 33 59  1  0  0  0  0
 33 66  1  0  0  0  0
 33 77  2  0  0  0  0
 34 60  1  0  0  0  0
 34 71  1  0  0  0  0
 34 78  2  0  0  0  0
 35 67  1  0  0  0  0
 35 72  1  0  0  0  0
 35 79  2  0  0  0  0
 36 39  1  0  0  0  0
 37 49  1  0  0  0  0
 38 66  1  0  0  0  0
 39 41  1  0  0  0  0
 40 42  1  0  0  0  0
 40 45  1  0  0  0  0
 41 47  1  0  0  0  0
 42 50  1  0  0  0  0
 43 44  1  0  0  0  0
 43 48  1  0  0  0  0
 44 64  1  0  0  0  0
 45 67  1  0  0  0  0
 46 50  1  0  0  0  0
 46 67  1  0  0  0  0
 47 70  1  0  0  0  0
 48 72  1  0  0  0  0
 49 66  1  0  0  0  0
 50 65  1  0  0  0  0
 51 60  1  0  0  0  0
 52 61  1  0  0  0  0
 53 61  1  0  0  0  0
 54 61  1  0  0  0  0
 55 73  1  0  0  0  0
 56 74  1  0  0  0  0
 57 58  1  0  0  0  0
 57 74  1  0  0  0  0
 58 81  1  0  0  0  0
 59 61  1  0  0  0  0
 59 71  1  0  0  0  0
 60 73  1  0  0  0  0
 62 65  1  0  0  0  0
 63 64  1  0  0  0  0
M  CHG  2  73   1  74   1
M  ISO  4  35 100  58 101  72 100  81 101
M  END
> <Batch ID>
0191

> <Smiles>
CNC(C)C(=O)NC(C(=O)N1Cc2cc([101O:1][101CH2:1]CNCc3cc4n(n3)CCC4[100NH:0][100C:0](=O)N3CCCC(n4nc(-c5ccc(Oc6ccc(F)cc6F)cc5)c(C(N)=O)c4N)C3)ccc2CC1C(=O)NC1CCCc2ccccc21)C(C)(C)C

> <Shape>
0.213

> <Color>
0.076

> <Negative vol penalty>
0.000

$$$$

  -OEChem-04052323273D

 82 91  0     1  0  0  0  0  0999 V2000
  -16.2278  -26.2874   24.7770 C   0  0  0  0  0  0  0  0  0  0  0  0
  -17.3938  -25.7066   24.2885 C   0  0  0  0  0  0  0  0  0  0  0  0
  -23.2254   -9.7194   19.9936 C   0  0  0  0  0  0  0  0  0  0  0  0
  -23.6373  -10.0667   22.3488 C   0  0  0  0  0  0  0  0  0  0  0  0
  -16.0276  -27.6612   24.6480 C   0  0  0  0  0  0  0  0  0  0  0  0
  -18.3599  -26.4992   23.6697 C   0  0  0  0  0  0  0  0  0  0  0  0
  -23.0552  -25.4024   25.2175 C   0  0  0  0  0  0  0  0  0  0  0  0
  -22.4972   -8.5674   20.2908 C   0  0  0  0  0  0  0  0  0  0  0  0
  -22.9091   -8.9148   22.6460 C   0  0  0  0  0  0  0  0  0  0  0  0
  -23.6538  -24.2645   24.6785 C   0  0  0  0  0  0  0  0  0  0  0  0
  -23.4054   -5.5709   22.5937 C   0  0  0  0  0  0  0  0  0  0  0  0
  -23.9467   -4.6842   23.5245 C   0  0  0  0  0  0  0  0  0  0  0  0
  -24.8840  -25.6506   23.1343 C   0  0  0  0  0  0  0  0  0  0  0  0
  -22.0065   -4.9790   24.9336 C   0  0  0  0  0  0  0  0  0  0  0  0
  -26.5949  -20.2185   23.5722 C   0  0  0  0  0  0  0  0  0  0  0  0
  -26.0838  -19.5280   21.5428 C   0  0  0  0  0  0  0  0  0  0  0  0
  -23.7955  -10.4690   21.0226 C   0  0  0  0  0  0  0  0  0  0  0  0
  -24.0549  -12.9728   20.6088 C   0  0  0  0  0  0  0  0  0  0  0  0
  -16.9961  -28.4724   24.0359 C   0  0  0  0  0  0  0  0  0  0  0  0
  -23.3588  -26.6742   24.7109 C   0  0  0  0  0  0  0  0  0  0  0  0
  -18.1719  -27.8849   23.5312 C   0  0  0  0  0  0  0  0  0  0  0  0
  -24.2898  -26.8032   23.6704 C   0  0  0  0  0  0  0  0  0  0  0  0
  -22.3390   -8.1651   21.6170 C   0  0  0  0  0  0  0  0  0  0  0  0
  -24.5662  -24.3882   23.6347 C   0  0  0  0  0  0  0  0  0  0  0  0
  -22.1647   -6.1617   22.8329 C   0  0  0  0  0  0  0  0  0  0  0  0
  -23.2472   -4.3882   24.6944 C   0  0  0  0  0  0  0  0  0  0  0  0
  -21.4652   -5.8658   24.0028 C   0  0  0  0  0  0  0  0  0  0  0  0
  -24.5483  -11.6588   20.7161 C   0  0  0  0  0  0  0  0  0  0  0  0
  -25.5388  -20.9278   23.0507 C   0  0  0  0  0  0  0  0  0  0  0  0
  -25.1594  -13.7306   20.3048 C   0  0  0  0  0  0  0  0  0  0  0  0
  -22.7177  -13.4646   20.7697 C   0  0  0  0  0  0  0  0  0  0  0  0
  -21.6927  -28.9807   23.2939 C   0  0  0  0  0  0  0  0  0  0  0  0
  -24.4779  -30.6217   23.5610 C   0  0  0  0  0  0  0  0  0  0  0  0
  -27.8752  -30.5317   23.8731 C   0  0  0  0  0  0  0  0  0  0  0  0
  -30.4064  -15.1381   20.9366 C   0  0  0  0  0  0  0  0  0  0  0  0
  -16.7141  -29.9455   23.8772 C   0  0  0  0  0  0  0  0  0  0  0  0
  -22.7246  -27.8939   25.3212 C   0  0  0  0  0  0  0  0  0  0  0  0
  -24.6653  -28.1475   23.1043 C   0  0  0  0  0  0  0  0  0  0  0  0
  -17.9543  -30.7706   23.5435 C   0  0  0  0  0  0  0  0  0  0  0  0
  -29.8302  -12.3729   18.9418 C   0  0  0  0  0  0  0  0  0  0  0  0
  -18.7606  -30.0987   22.4366 C   0  0  0  0  0  0  0  0  0  0  0  0
  -28.3631  -12.0347   19.2069 C   0  0  0  0  0  0  0  0  0  0  0  0
  -29.1231  -18.5472   21.5861 C   0  0  0  0  0  0  0  0  0  0  0  0
  -27.5167  -16.8603   22.5733 C   0  0  0  0  0  0  0  0  0  0  0  0
  -30.5415  -12.7677   20.2313 C   0  0  0  0  0  0  0  0  0  0  0  0
  -30.2284  -17.4955   21.6462 C   0  0  0  0  0  0  0  0  0  0  0  0
  -28.6579  -15.8481   22.6132 C   0  0  0  0  0  0  0  0  0  0  0  0
  -28.4278  -13.5806   21.2244 C   0  0  0  0  0  0  0  0  0  0  0  0
  -19.2543  -28.7150   22.8759 C   0  0  1  0  0  0  0  0  0  0  0  0
  -22.7203  -29.0975   24.3838 C   0  0  1  0  0  0  0  0  0  0  0  0
  -27.6577  -13.1835   19.9492 C   0  0  2  0  0  0  0  0  0  0  0  0
  -28.0504  -18.3011   22.6611 C   0  0  0  0  0  0  0  0  0  0  0  0
  -29.8796  -32.0336   24.0280 C   0  0  0  0  0  0  0  0  0  0  0  0
  -24.3027  -31.1609   20.5629 C   0  0  0  0  0  0  0  0  0  0  0  0
  -26.7215  -31.8055   20.6081 C   0  0  0  0  0  0  0  0  0  0  0  0
  -25.0593  -33.1126   21.9314 C   0  0  0  0  0  0  0  0  0  0  0  0
  -28.5870  -29.4984   26.5535 C   0  0  0  0  0  0  0  0  0  0  0  0
  -24.7780  -22.0198   23.6769 C   0  0  0  0  0  0  0  0  0  1  0  0
  -25.7054  -30.7920   22.6989 C   0  0  1  0  0  0  0  0  0  0  0  0
  -28.8209  -31.2671   24.8054 C   0  0  2  0  0  0  0  0  0  0  0  0
  -25.4389  -31.6921   21.4595 C   0  0  0  0  0  0  0  0  0  0  0  0
  -25.2253  -20.4930   21.7873 N   0  0  0  0  0  0  0  0  0  0  0  0
  -25.8638  -11.5825   20.4978 N   0  0  0  0  0  0  0  0  0  0  0  0
  -26.9330  -19.3252   22.5949 N   0  0  0  0  0  0  0  0  0  0  0  0
  -26.2064  -12.8582   20.2502 N   0  0  0  0  0  0  0  0  0  0  0  0
  -24.0135  -29.3097   23.7304 N   0  0  0  0  0  0  0  0  0  0  0  0
  -29.8376  -13.8557   20.9099 N   0  0  0  0  0  0  0  0  0  0  0  0
  -29.6788  -16.1411   21.5980 N   0  0  0  0  0  0  0  0  0  0  0  0
  -25.3274  -15.0513   20.0813 N   0  0  0  0  0  0  0  0  0  0  0  0
  -21.7025  -12.5501   21.0814 N   0  0  0  0  0  0  0  0  0  0  0  0
  -20.3973  -28.8416   23.7545 N   0  0  0  0  0  0  0  0  0  0  0  0
  -26.7581  -31.2852   23.5803 N   0  0  0  0  0  0  0  0  0  0  0  0
  -29.5084  -30.3039   25.7113 N   0  3  0  0  0  0  0  0  0  0  0  0
  -22.4289  -14.6767   20.6247 O   0  0  0  0  0  0  0  0  0  0  0  0
  -22.0485  -29.0156   22.1218 O   0  0  0  0  0  0  0  0  0  0  0  0
  -23.9548  -31.6155   24.0714 O   0  0  0  0  0  0  0  0  0  0  0  0
  -28.1062  -29.4033   23.4442 O   0  0  0  0  0  0  0  0  0  0  0  0
  -31.4947  -15.3764   20.3983 O   0  0  0  0  0  0  0  0  0  0  0  0
  -21.6283   -7.0412   21.9074 O   0  0  0  0  0  0  0  0  0  0  0  0
  -25.1541  -23.2740   23.1039 O   0  0  0  0  0  0  0  0  0  1  0  0
  -23.7664   -3.5355   25.5875 F   0  0  0  0  0  0  0  0  0  0  0  0
  -20.2723   -6.4294   24.2376 F   0  0  0  0  0  0  0  0  0  0  0  0
  1  2  1  0  0  0  0
  1  5  2  0  0  0  0
  2  6  2  0  0  0  0
  3  8  2  0  0  0  0
  3 17  1  0  0  0  0
  4  9  1  0  0  0  0
  4 17  2  0  0  0  0
  5 19  1  0  0  0  0
  6 21  1  0  0  0  0
  7 10  2  0  0  0  0
  7 20  1  0  0  0  0
  8 23  1  0  0  0  0
  9 23  2  0  0  0  0
 10 24  1  0  0  0  0
 11 12  2  0  0  0  0
 11 25  1  0  0  0  0
 12 26  1  0  0  0  0
 13 22  1  0  0  0  0
 13 24  2  0  0  0  0
 14 26  2  0  0  0  0
 14 27  1  0  0  0  0
 15 29  2  0  0  0  0
 15 64  1  0  0  0  0
 16 62  2  0  0  0  0
 16 64  1  0  0  0  0
 17 28  1  0  0  0  0
 18 28  1  0  0  0  0
 18 30  2  0  0  0  0
 18 31  1  0  0  0  0
 19 21  2  0  0  0  0
 19 36  1  0  0  0  0
 20 22  2  0  0  0  0
 20 37  1  0  0  0  0
 21 49  1  0  0  0  0
 22 38  1  0  0  0  0
 23 79  1  0  0  0  0
 24 80  1  0  0  0  0
 25 27  2  0  0  0  0
 25 79  1  0  0  0  0
 26 81  1  0  0  0  0
 27 82  1  0  0  0  0
 28 63  2  0  0  0  0
 29 58  1  0  0  0  0
 29 62  1  0  0  0  0
 30 65  1  0  0  0  0
 30 69  1  0  0  0  0
 31 70  1  0  0  0  0
 31 74  2  0  0  0  0
 32 50  1  0  0  0  0
 32 71  1  0  0  0  0
 32 75  2  0  0  0  0
 33 59  1  0  0  0  0
 33 66  1  0  0  0  0
 33 76  2  0  0  0  0
 34 60  1  0  0  0  0
 34 72  1  0  0  0  0
 34 77  2  0  0  0  0
 35 67  1  0  0  0  0
 35 68  1  0  0  0  0
 35 78  2  0  0  0  0
 36 39  1  0  0  0  0
 37 50  1  0  0  0  0
 38 66  1  0  0  0  0
 39 41  1  0  0  0  0
 40 42  1  0  0  0  0
 40 45  1  0  0  0  0
 41 49  1  0  0  0  0
 42 51  1  0  0  0  0
 43 46  1  0  0  0  0
 43 52  1  0  0  0  0
 44 47  1  0  0  0  0
 44 52  1  0  0  0  0
 45 67  1  0  0  0  0
 46 68  1  0  0  0  0
 47 68  1  0  0  0  0
 48 51  1  0  0  0  0
 48 67  1  0  0  0  0
 49 71  1  0  0  0  0
 50 66  1  0  0  0  0
 51 65  1  0  0  0  0
 52 64  1  0  0  0  0
 53 60  1  0  0  0  0
 54 61  1  0  0  0  0
 55 61  1  0  0  0  0
 56 61  1  0  0  0  0
 57 73  1  0  0  0  0
 58 80  1  0  0  0  0
 59 61  1  0  0  0  0
 59 72  1  0  0  0  0
 60 73  1  0  0  0  0
 63 65  1  0  0  0  0
M  CHG  1  73   1
M  ISO  4  35 100  58 101  68 100  80 101
M  END
> <Batch ID>
0191

> <Smiles>
CNC(C)C(=O)NC(C(=O)N1Cc2cc([101O:1][101CH2:1]c3cn(C4CC[100N:0]([100C:0](=O)N5CCCC(n6nc(-c7ccc(Oc8ccc(F)cc8F)cc7)c(C(N)=O)c6N)C5)CC4)cn3)ccc2CC1C(=O)NC1CCCc2ccccc21)C(C)(C)C

> <Shape>
0.306

> <Color>
0.217

> <Negative vol penalty>
0.000

$$$$

  -OEChem-04052323273D

 87 97  0     1  0  0  0  0  0999 V2000
  -20.6638  -33.5905   15.0667 C   0  0  0  0  0  0  0  0  0  0  0  0
  -21.7811  -32.7670   15.1600 C   0  0  0  0  0  0  0  0  0  0  0  0
  -22.4950   -9.1255   19.8009 C   0  0  0  0  0  0  0  0  0  0  0  0
  -23.3794   -9.6862   21.9781 C   0  0  0  0  0  0  0  0  0  0  0  0
  -20.4975  -34.6425   15.9664 C   0  0  0  0  0  0  0  0  0  0  0  0
  -22.7335  -32.9957   16.1525 C   0  0  0  0  0  0  0  0  0  0  0  0
  -24.1952  -28.6686   18.5254 C   0  0  0  0  0  0  0  0  0  0  0  0
  -22.4930   -7.7749   20.1495 C   0  0  0  0  0  0  0  0  0  0  0  0
  -23.3773   -8.3356   22.3268 C   0  0  0  0  0  0  0  0  0  0  0  0
  -25.1025  -27.8316   17.8772 C   0  0  0  0  0  0  0  0  0  0  0  0
  -21.1241   -6.0302   23.3411 C   0  0  0  0  0  0  0  0  0  0  0  0
  -20.6289   -5.6881   24.5994 C   0  0  0  0  0  0  0  0  0  0  0  0
  -26.8996  -28.7876   19.1713 C   0  0  0  0  0  0  0  0  0  0  0  0
  -22.7685   -4.7280   25.1804 C   0  0  0  0  0  0  0  0  0  0  0  0
  -22.9383  -10.0812   20.7152 C   0  0  0  0  0  0  0  0  0  0  0  0
  -21.8986  -12.4041   20.5402 C   0  0  0  0  0  0  0  0  0  0  0  0
  -21.4435  -34.8784   16.9764 C   0  0  0  0  0  0  0  0  0  0  0  0
  -24.6351  -29.5804   19.4958 C   0  0  0  0  0  0  0  0  0  0  0  0
  -22.5805  -34.0528   17.0657 C   0  0  0  0  0  0  0  0  0  0  0  0
  -25.9952  -29.6315   19.8336 C   0  0  0  0  0  0  0  0  0  0  0  0
  -29.7394  -23.3799   19.1634 C   0  0  0  0  0  0  0  0  0  0  0  0
  -22.9340   -7.3800   21.4125 C   0  0  0  0  0  0  0  0  0  0  0  0
  -26.4552  -27.8927   18.1985 C   0  0  0  0  0  0  0  0  0  0  0  0
  -22.4415   -5.7212   23.0024 C   0  0  0  0  0  0  0  0  0  0  0  0
  -21.4510   -5.0370   25.5191 C   0  0  0  0  0  0  0  0  0  0  0  0
  -23.2637   -5.0701   23.9221 C   0  0  0  0  0  0  0  0  0  0  0  0
  -22.9412  -11.4764   20.3554 C   0  0  0  0  0  0  0  0  0  0  0  0
  -30.3739  -22.5886   18.2277 C   0  0  0  0  0  0  0  0  0  0  0  0
  -29.2125  -22.7131   20.2506 C   0  0  0  0  0  0  0  0  0  0  0  0
  -22.3939  -13.5820   20.0366 C   0  0  0  0  0  0  0  0  0  0  0  0
  -29.9363  -20.7164   19.4403 C   0  0  0  0  0  0  0  0  0  0  0  0
  -20.5987  -12.2178   21.1156 C   0  0  0  0  0  0  0  0  0  0  0  0
  -24.6000  -32.7584   19.8762 C   0  0  0  0  0  0  0  0  0  0  0  0
  -25.8410  -31.8957   22.8375 C   0  0  0  0  0  0  0  0  0  0  0  0
  -25.2735  -35.0725   23.9445 C   0  0  0  0  0  0  0  0  0  0  0  0
  -27.9042  -15.5935   19.4374 C   0  0  0  0  0  0  0  0  0  0  0  0
  -21.2447  -36.0569   17.8964 C   0  0  0  0  0  0  0  0  0  0  0  0
  -23.6355  -30.4534   20.2051 C   0  0  0  0  0  0  0  0  0  0  0  0
  -26.5166  -30.5897   20.8703 C   0  0  0  0  0  0  0  0  0  0  0  0
  -22.1104  -36.0019   19.1525 C   0  0  0  0  0  0  0  0  0  0  0  0
  -25.4719  -15.2616   16.7796 C   0  0  0  0  0  0  0  0  0  0  0  0
  -23.5484  -35.6404   18.7943 C   0  0  0  0  0  0  0  0  0  0  0  0
  -24.4422  -14.3337   17.4264 C   0  0  0  0  0  0  0  0  0  0  0  0
  -29.3576  -25.5434   17.5848 C   0  0  0  0  0  0  0  0  0  0  0  0
  -28.3022  -25.6569   19.4259 C   0  0  0  0  0  0  0  0  0  0  0  0
  -26.8930  -14.8799   17.1845 C   0  0  0  0  0  0  0  0  0  0  0  0
  -26.0954  -13.9079   19.3029 C   0  0  0  0  0  0  0  0  0  0  0  0
  -29.1164  -18.4789   20.2479 C   0  0  0  0  0  0  0  0  0  0  0  0
  -30.3786  -18.3979   18.5686 C   0  0  0  0  0  0  0  0  0  0  0  0
  -29.6212  -24.9510   18.9989 C   0  0  0  0  0  0  0  0  0  0  0  0
  -23.6231  -34.2537   18.1440 C   0  0  1  0  0  0  0  0  0  0  0  0
  -24.2584  -31.6812   20.8664 C   0  0  1  0  0  0  0  0  0  0  0  0
  -24.6378  -14.2573   18.9520 C   0  0  2  0  0  0  0  0  0  0  0  0
  -29.7275  -17.3203   19.4471 C   0  0  0  0  0  0  0  0  0  0  0  0
  -28.5249  -26.6518   18.2660 C   0  0  0  0  0  0  0  0  0  1  0  0
  -30.9821  -23.2024   17.0102 C   0  0  0  0  0  0  0  0  0  0  0  0
  -28.5044  -23.4678   21.3267 C   0  0  0  0  0  0  0  0  0  0  0  0
  -25.2941  -36.4640   26.0328 C   0  0  0  0  0  0  0  0  0  0  0  0
  -23.2084  -30.6234   23.7071 C   0  0  0  0  0  0  0  0  0  0  0  0
  -22.8125  -32.6136   25.1736 C   0  0  0  0  0  0  0  0  0  0  0  0
  -24.7852  -31.1414   25.5779 C   0  0  0  0  0  0  0  0  0  0  0  0
  -27.3550  -36.8761   22.8612 C   0  0  0  0  0  0  0  0  0  0  0  0
  -24.7729  -32.6724   23.5660 C   0  0  1  0  0  0  0  0  0  0  0  0
  -26.0951  -35.9931   24.8289 C   0  0  2  0  0  0  0  0  0  0  0  0
  -23.8990  -31.7660   24.4782 C   0  0  0  0  0  0  0  0  0  0  0  0
  -24.0175  -12.0183   19.7793 N   0  0  0  0  0  0  0  0  0  0  0  0
  -30.4911  -21.2488   18.3348 N   0  0  0  0  0  0  0  0  0  0  0  0
  -29.2929  -21.3772   20.4216 N   0  0  0  0  0  0  0  0  0  0  0  0
  -23.6539  -13.2992   19.5976 N   0  0  0  0  0  0  0  0  0  0  0  0
  -30.0399  -19.3156   19.5857 N   0  0  0  0  0  0  0  0  0  0  0  0
  -25.4935  -31.3577   21.5918 N   0  0  0  0  0  0  0  0  0  0  0  0
  -27.0167  -14.8439   18.6489 N   0  0  0  0  0  0  0  0  0  0  0  0
  -21.8702  -14.8218   19.9308 N   0  0  0  0  0  0  0  0  0  0  0  0
  -20.2518  -10.9432   21.5840 N   0  0  0  0  0  0  0  0  0  0  0  0
  -23.5184  -33.2178   19.1492 N   0  0  0  0  0  0  0  0  0  0  0  0
  -25.4606  -33.7468   24.2740 N   0  0  0  0  0  0  0  0  0  0  0  0
  -28.7460  -16.4626   18.7515 N   0  0  0  0  0  0  0  0  0  0  0  0
  -26.5368  -37.1912   24.0605 N   0  3  0  0  0  0  0  0  0  0  0  0
  -19.7633  -13.1500   21.1968 O   0  0  0  0  0  0  0  0  0  0  0  0
  -25.7587  -33.1454   19.7801 O   0  0  0  0  0  0  0  0  0  0  0  0
  -26.9511  -31.7617   23.3598 O   0  0  0  0  0  0  0  0  0  0  0  0
  -24.5364  -35.4882   23.0532 O   0  0  0  0  0  0  0  0  0  0  0  0
  -27.9454  -15.5042   20.6694 O   0  0  0  0  0  0  0  0  0  0  0  0
  -22.9319   -6.0622   21.7531 O   0  0  0  0  0  0  0  0  0  0  0  0
  -27.3429  -27.0764   17.5678 O   0  0  0  0  0  0  0  0  0  1  0  0
  -20.9758   -4.7099   26.7279 F   0  0  0  0  0  0  0  0  0  0  0  0
  -24.5305   -4.7716   23.6029 F   0  0  0  0  0  0  0  0  0  0  0  0
  1  2  1  0  0  0  0
  1  5  2  0  0  0  0
  2  6  2  0  0  0  0
  3  8  2  0  0  0  0
  3 15  1  0  0  0  0
  4  9  1  0  0  0  0
  4 15  2  0  0  0  0
  5 17  1  0  0  0  0
  6 19  1  0  0  0  0
  7 10  2  0  0  0  0
  7 18  1  0  0  0  0
  8 22  1  0  0  0  0
  9 22  2  0  0  0  0
 10 23  1  0  0  0  0
 11 12  2  0  0  0  0
 11 24  1  0  0  0  0
 12 25  1  0  0  0  0
 13 20  1  0  0  0  0
 13 23  2  0  0  0  0
 14 25  2  0  0  0  0
 14 26  1  0  0  0  0
 15 27  1  0  0  0  0
 16 27  1  0  0  0  0
 16 30  2  0  0  0  0
 16 32  1  0  0  0  0
 17 19  2  0  0  0  0
 17 37  1  0  0  0  0
 18 20  2  0  0  0  0
 18 38  1  0  0  0  0
 19 51  1  0  0  0  0
 20 39  1  0  0  0  0
 21 28  1  0  0  0  0
 21 29  2  0  0  0  0
 21 50  1  0  0  0  0
 22 84  1  0  0  0  0
 23 85  1  0  0  0  0
 24 26  2  0  0  0  0
 24 84  1  0  0  0  0
 25 86  1  0  0  0  0
 26 87  1  0  0  0  0
 27 66  2  0  0  0  0
 28 56  1  0  0  0  0
 28 67  2  0  0  0  0
 29 57  1  0  0  0  0
 29 68  1  0  0  0  0
 30 69  1  0  0  0  0
 30 73  1  0  0  0  0
 31 67  1  0  0  0  0
 31 68  2  0  0  0  0
 31 70  1  0  0  0  0
 32 74  1  0  0  0  0
 32 79  2  0  0  0  0
 33 52  1  0  0  0  0
 33 75  1  0  0  0  0
 33 80  2  0  0  0  0
 34 63  1  0  0  0  0
 34 71  1  0  0  0  0
 34 81  2  0  0  0  0
 35 64  1  0  0  0  0
 35 76  1  0  0  0  0
 35 82  2  0  0  0  0
 36 72  1  0  0  0  0
 36 77  1  0  0  0  0
 36 83  2  0  0  0  0
 37 40  1  0  0  0  0
 38 52  1  0  0  0  0
 39 71  1  0  0  0  0
 40 42  1  0  0  0  0
 41 43  1  0  0  0  0
 41 46  1  0  0  0  0
 42 51  1  0  0  0  0
 43 53  1  0  0  0  0
 44 50  1  0  0  0  0
 44 55  1  0  0  0  0
 45 50  1  0  0  0  0
 45 55  1  0  0  0  0
 46 72  1  0  0  0  0
 47 53  1  0  0  0  0
 47 72  1  0  0  0  0
 48 54  1  0  0  0  0
 48 70  1  0  0  0  0
 49 54  1  0  0  0  0
 49 70  1  0  0  0  0
 51 75  1  0  0  0  0
 52 71  1  0  0  0  0
 53 69  1  0  0  0  0
 54 77  1  0  0  0  0
 55 85  1  0  0  0  0
 58 64  1  0  0  0  0
 59 65  1  0  0  0  0
 60 65  1  0  0  0  0
 61 65  1  0  0  0  0
 62 78  1  0  0  0  0
 63 65  1  0  0  0  0
 63 76  1  0  0  0  0
 64 78  1  0  0  0  0
 66 69  1  0  0  0  0
M  CHG  1  78   1
M  ISO  4  36 100  55 101  77 100  85 101
M  END
> <Batch ID>
0191

> <Smiles>
CNC(C)C(=O)NC(C(=O)N1Cc2cc([101O:1][101CH:1]3CC(c4c(C)nc(N5CC([100NH:0][100C:0](=O)N6CCCC(n7nc(-c8ccc(Oc9ccc(F)cc9F)cc8)c(C(N)=O)c7N)C6)C5)nc4C)C3)ccc2CC1C(=O)NC1CCCc2ccccc21)C(C)(C)C

> <Shape>
0.296

> <Color>
0.110

> <Negative vol penalty>
0.000

$$$$

  -OEChem-04052323273D

 87 96  0     1  0  0  0  0  0999 V2000
  -30.1469  -10.7557   21.6745 C   0  0  0  0  0  0  0  0  0  0  0  0
  -30.1890  -12.0242   21.1047 C   0  0  0  0  0  0  0  0  0  0  0  0
  -19.5787  -28.6726   23.2833 C   0  0  0  0  0  0  0  0  0  0  0  0
  -20.5271  -26.6720   22.3161 C   0  0  0  0  0  0  0  0  0  0  0  0
  -28.9184  -10.1637   21.9649 C   0  0  0  0  0  0  0  0  0  0  0  0
  -29.0026  -12.7009   20.8239 C   0  0  0  0  0  0  0  0  0  0  0  0
  -29.1525  -17.5581   22.2487 C   0  0  0  0  0  0  0  0  0  0  0  0
  -18.2959  -28.1738   23.0571 C   0  0  0  0  0  0  0  0  0  0  0  0
  -19.2443  -26.1732   22.0900 C   0  0  0  0  0  0  0  0  0  0  0  0
  -29.8442  -18.4429   21.4226 C   0  0  0  0  0  0  0  0  0  0  0  0
  -16.8001  -24.6840   23.8870 C   0  0  0  0  0  0  0  0  0  0  0  0
  -16.5561  -23.3521   24.2214 C   0  0  0  0  0  0  0  0  0  0  0  0
  -27.7542  -19.1727   20.4642 C   0  0  0  0  0  0  0  0  0  0  0  0
  -15.9793  -22.8807   21.9231 C   0  0  0  0  0  0  0  0  0  0  0  0
  -30.8696  -26.9892   17.7263 C   0  0  0  0  0  0  0  0  0  0  0  0
  -20.6943  -27.9217   22.9127 C   0  0  0  0  0  0  0  0  0  0  0  0
  -22.8121  -28.2564   24.2951 C   0  0  0  0  0  0  0  0  0  0  0  0
  -27.7165  -10.8375   21.6964 C   0  0  0  0  0  0  0  0  0  0  0  0
  -27.7549  -17.4660   22.1809 C   0  0  0  0  0  0  0  0  0  0  0  0
  -27.7569  -12.1167   21.1097 C   0  0  0  0  0  0  0  0  0  0  0  0
  -27.0469  -18.2877   21.2923 C   0  0  0  0  0  0  0  0  0  0  0  0
  -18.1286  -26.9241   22.4606 C   0  0  0  0  0  0  0  0  0  0  0  0
  -29.1453  -19.2483   20.5282 C   0  0  0  0  0  0  0  0  0  0  0  0
  -16.6336  -25.1144   22.5706 C   0  0  0  0  0  0  0  0  0  0  0  0
  -16.1457  -22.4504   23.2395 C   0  0  0  0  0  0  0  0  0  0  0  0
  -16.2232  -24.2127   21.5887 C   0  0  0  0  0  0  0  0  0  0  0  0
  -22.0197  -28.4367   23.1455 C   0  0  0  0  0  0  0  0  0  0  0  0
  -30.1920  -27.2325   18.8934 C   0  0  0  0  0  0  0  0  0  0  0  0
  -23.9730  -28.9376   24.0223 C   0  0  0  0  0  0  0  0  0  0  0  0
  -31.2356  -24.8708   18.4178 C   0  0  0  0  0  0  0  0  0  0  0  0
  -22.5243  -27.5372   25.5016 C   0  0  0  0  0  0  0  0  0  0  0  0
  -25.6918  -15.1623   21.4457 C   0  0  0  0  0  0  0  0  0  0  0  0
  -23.4997  -17.3621   22.3829 C   0  0  0  0  0  0  0  0  0  0  0  0
  -22.7167  -20.6486   22.8651 C   0  0  0  0  0  0  0  0  0  0  0  0
  -26.2077  -30.4930   18.5223 C   0  0  0  0  0  0  0  0  0  0  0  0
  -26.4120  -10.1375   21.9841 C   0  0  0  0  0  0  0  0  0  0  0  0
  -27.0215  -16.5257   23.0977 C   0  0  0  0  0  0  0  0  0  0  0  0
  -25.5446  -18.2416   21.1952 C   0  0  0  0  0  0  0  0  0  0  0  0
  -25.2080  -11.0758   22.0013 C   0  0  0  0  0  0  0  0  0  0  0  0
  -25.6606  -32.6339   21.5102 C   0  0  0  0  0  0  0  0  0  0  0  0
  -25.2401  -12.0074   20.7938 C   0  0  0  0  0  0  0  0  0  0  0  0
  -24.6629  -31.8074   22.3198 C   0  0  0  0  0  0  0  0  0  0  0  0
  -28.8406  -29.3911   16.9368 C   0  0  0  0  0  0  0  0  0  0  0  0
  -25.5567  -32.3417   20.0169 C   0  0  0  0  0  0  0  0  0  0  0  0
  -29.7890  -29.5762   18.1224 C   0  0  0  0  0  0  0  0  0  0  0  0
  -27.4682  -28.7901   17.2628 C   0  0  0  0  0  0  0  0  0  0  0  0
  -28.6888  -28.7681   20.1827 C   0  0  0  0  0  0  0  0  0  0  0  0
  -27.2454  -28.5116   19.7384 C   0  0  0  0  0  0  0  0  0  0  0  0
  -24.6976  -30.0697   20.4858 C   0  0  0  0  0  0  0  0  0  0  0  0
  -26.4920  -12.8928   20.8132 C   0  0  1  0  0  0  0  0  0  0  0  0
  -25.6375  -16.1454   22.5808 C   0  0  1  0  0  0  0  0  0  0  0  0
  -24.8054  -30.3094   21.9994 C   0  0  2  0  0  0  0  0  0  0  0  0
  -20.8367  -22.1379   23.6035 C   0  0  0  0  0  0  0  0  0  0  0  0
  -22.1181  -16.9468   19.6943 C   0  0  0  0  0  0  0  0  0  0  0  0
  -20.8628  -19.0768   20.0891 C   0  0  0  0  0  0  0  0  0  0  0  0
  -20.5658  -17.1494   21.6446 C   0  0  0  0  0  0  0  0  0  0  0  0
  -24.2941  -21.7102   25.1331 C   0  0  0  0  0  0  0  0  0  0  0  0
  -31.8196  -23.5217   18.1755 C   0  0  0  0  0  0  0  0  0  0  0  0
  -31.8209  -21.1110   18.8290 C   0  0  0  0  0  0  0  0  0  0  0  0
  -31.2386  -20.1432   19.8402 C   0  0  0  0  0  0  0  0  0  1  0  0
  -22.7265  -18.4611   21.6949 C   0  0  1  0  0  0  0  0  0  0  0  0
  -22.0757  -21.3699   24.0370 C   0  0  2  0  0  0  0  0  0  0  0  0
  -21.5967  -17.9082   20.7810 C   0  0  0  0  0  0  0  0  0  0  0  0
  -31.4121  -25.7917   17.4586 N   0  0  0  0  0  0  0  0  0  0  0  0
  -22.6261  -29.1749   22.2120 N   0  0  0  0  0  0  0  0  0  0  0  0
  -30.0468  -26.2682   19.8202 N   0  0  0  0  0  0  0  0  0  0  0  0
  -30.5810  -25.0524   19.5816 N   0  0  0  0  0  0  0  0  0  0  0  0
  -23.8117  -29.4644   22.7746 N   0  0  0  0  0  0  0  0  0  0  0  0
  -29.6515  -28.5002   19.1089 N   0  0  3  0  0  0  0  0  0  0  0  0
  -24.8733  -17.3016   22.1080 N   0  0  0  0  0  0  0  0  0  0  0  0
  -25.6488  -30.9085   19.7411 N   0  0  0  0  0  0  0  0  0  0  0  0
  -26.8718  -29.2539   18.5176 N   0  0  0  0  0  0  0  0  0  0  0  0
  -25.1059  -29.1316   24.7303 N   0  0  0  0  0  0  0  0  0  0  0  0
  -21.2842  -26.8945   25.6168 N   0  0  0  0  0  0  0  0  0  0  0  0
  -26.3297  -13.9770   21.7581 N   0  0  0  0  0  0  0  0  0  0  0  0
  -22.2586  -19.3531   22.7503 N   0  0  0  0  0  0  0  0  0  0  0  0
  -23.0384  -22.3335   24.6415 N   0  3  0  0  0  0  0  0  0  0  0  0
  -31.2918  -22.4740   19.0935 N   0  3  0  0  0  0  0  0  0  0  0  0
  -23.3362  -27.4804   26.4562 O   0  0  0  0  0  0  0  0  0  0  0  0
  -25.1907  -15.4568   20.3669 O   0  0  0  0  0  0  0  0  0  0  0  0
  -22.9082  -16.5903   23.1418 O   0  0  0  0  0  0  0  0  0  0  0  0
  -23.5386  -21.1822   22.1234 O   0  0  0  0  0  0  0  0  0  0  0  0
  -26.1196  -31.1872   17.5019 O   0  0  0  0  0  0  0  0  0  0  0  0
  -16.8770  -26.4369   22.2400 O   0  0  0  0  0  0  0  0  0  0  0  0
  -29.8229  -20.1185   19.7144 O   0  0  0  0  0  0  0  0  0  1  0  0
  -15.9129  -21.1709   23.5605 F   0  0  0  0  0  0  0  0  0  0  0  0
  -16.0628  -24.6200   20.3221 F   0  0  0  0  0  0  0  0  0  0  0  0
  1  2  1  0  0  0  0
  1  5  2  0  0  0  0
  2  6  2  0  0  0  0
  3  8  2  0  0  0  0
  3 16  1  0  0  0  0
  4  9  1  0  0  0  0
  4 16  2  0  0  0  0
  5 18  1  0  0  0  0
  6 20  1  0  0  0  0
  7 10  2  0  0  0  0
  7 19  1  0  0  0  0
  8 22  1  0  0  0  0
  9 22  2  0  0  0  0
 10 23  1  0  0  0  0
 11 12  2  0  0  0  0
 11 24  1  0  0  0  0
 12 25  1  0  0  0  0
 13 21  1  0  0  0  0
 13 23  2  0  0  0  0
 14 25  2  0  0  0  0
 14 26  1  0  0  0  0
 15 28  1  0  0  0  0
 15 64  2  0  0  0  0
 16 27  1  0  0  0  0
 17 27  1  0  0  0  0
 17 29  2  0  0  0  0
 17 31  1  0  0  0  0
 18 20  2  0  0  0  0
 18 36  1  0  0  0  0
 19 21  2  0  0  0  0
 19 37  1  0  0  0  0
 20 50  1  0  0  0  0
 21 38  1  0  0  0  0
 22 84  1  0  0  0  0
 23 85  1  0  0  0  0
 24 26  2  0  0  0  0
 24 84  1  0  0  0  0
 25 86  1  0  0  0  0
 26 87  1  0  0  0  0
 27 65  2  0  0  0  0
 28 66  2  0  0  0  0
 28 69  1  0  0  0  0
 29 68  1  0  0  0  0
 29 73  1  0  0  0  0
 30 58  1  0  0  0  0
 30 64  1  0  0  0  0
 30 67  2  0  0  0  0
 31 74  1  0  0  0  0
 31 79  2  0  0  0  0
 32 51  1  0  0  0  0
 32 75  1  0  0  0  0
 32 80  2  0  0  0  0
 33 61  1  0  0  0  0
 33 70  1  0  0  0  0
 33 81  2  0  0  0  0
 34 62  1  0  0  0  0
 34 76  1  0  0  0  0
 34 82  2  0  0  0  0
 35 71  1  0  0  0  0
 35 72  1  0  0  0  0
 35 83  2  0  0  0  0
 36 39  1  0  0  0  0
 37 51  1  0  0  0  0
 38 70  1  0  0  0  0
 39 41  1  0  0  0  0
 40 42  1  0  0  0  0
 40 44  1  0  0  0  0
 41 50  1  0  0  0  0
 42 52  1  0  0  0  0
 43 45  1  0  0  0  0
 43 46  1  0  0  0  0
 44 71  1  0  0  0  0
 45 69  1  0  0  0  0
 46 72  1  0  0  0  0
 47 48  1  0  0  0  0
 47 69  1  0  0  0  0
 48 72  1  0  0  0  0
 49 52  1  0  0  0  0
 49 71  1  0  0  0  0
 50 75  1  0  0  0  0
 51 70  1  0  0  0  0
 52 68  1  0  0  0  0
 53 62  1  0  0  0  0
 54 63  1  0  0  0  0
 55 63  1  0  0  0  0
 56 63  1  0  0  0  0
 57 77  1  0  0  0  0
 58 78  1  0  0  0  0
 59 60  1  0  0  0  0
 59 78  1  0  0  0  0
 60 85  1  0  0  0  0
 61 63  1  0  0  0  0
 61 76  1  0  0  0  0
 62 77  1  0  0  0  0
 65 68  1  0  0  0  0
 66 67  1  0  0  0  0
M  CHG  2  77   1  78   1
M  ISO  4  35 100  60 101  72 100  85 101
M  END
> <Batch ID>
0191

> <Smiles>
CNC(C)C(=O)NC(C(=O)N1Cc2cc([101O:1][101CH2:1]CNCc3ncc(N4CCC[100N:0]([100C:0](=O)N5CCCC(n6nc(-c7ccc(Oc8ccc(F)cc8F)cc7)c(C(N)=O)c6N)C5)CC4)nn3)ccc2CC1C(=O)NC1CCCc2ccccc21)C(C)(C)C

> <Shape>
0.217

> <Color>
0.074

> <Negative vol penalty>
0.000

$$$$

  -OEChem-04052323273D

 81 90  0     1  0  0  0  0  0999 V2000
  -15.0625  -26.9336   24.5589 C   0  0  0  0  0  0  0  0  0  0  0  0
  -15.5802  -26.3497   23.4072 C   0  0  0  0  0  0  0  0  0  0  0  0
  -25.4040  -15.9243   21.5917 C   0  0  0  0  0  0  0  0  0  0  0  0
  -25.2626  -15.8460   19.1811 C   0  0  0  0  0  0  0  0  0  0  0  0
  -15.5605  -28.1580   25.0027 C   0  0  0  0  0  0  0  0  0  0  0  0
  -16.5956  -26.9903   22.6980 C   0  0  0  0  0  0  0  0  0  0  0  0
  -21.2164  -24.3374   19.6789 C   0  0  0  0  0  0  0  0  0  0  0  0
  -24.1680  -15.2847   21.6850 C   0  0  0  0  0  0  0  0  0  0  0  0
  -24.0265  -15.2064   19.2744 C   0  0  0  0  0  0  0  0  0  0  0  0
  -21.4068  -24.0382   18.3305 C   0  0  0  0  0  0  0  0  0  0  0  0
  -21.0012  -13.2293   18.8782 C   0  0  0  0  0  0  0  0  0  0  0  0
  -20.7756  -12.1288   18.0514 C   0  0  0  0  0  0  0  0  0  0  0  0
  -22.6457  -26.0899   18.0564 C   0  0  0  0  0  0  0  0  0  0  0  0
  -22.6495  -10.9861   19.0612 C   0  0  0  0  0  0  0  0  0  0  0  0
  -25.9513  -16.2050   20.3397 C   0  0  0  0  0  0  0  0  0  0  0  0
  -28.4972  -16.2600   20.1876 C   0  0  0  0  0  0  0  0  0  0  0  0
  -16.5891  -28.8093   24.3039 C   0  0  0  0  0  0  0  0  0  0  0  0
  -21.7308  -25.5224   20.2245 C   0  0  0  0  0  0  0  0  0  0  0  0
  -17.1069  -28.2252   23.1321 C   0  0  0  0  0  0  0  0  0  0  0  0
  -22.4626  -26.4005   19.4125 C   0  0  0  0  0  0  0  0  0  0  0  0
  -23.4792  -14.9257   20.5264 C   0  0  0  0  0  0  0  0  0  0  0  0
  -22.1191  -24.9159   17.5184 C   0  0  0  0  0  0  0  0  0  0  0  0
  -22.0510  -13.2083   19.7964 C   0  0  0  0  0  0  0  0  0  0  0  0
  -21.5997  -11.0072   18.1429 C   0  0  0  0  0  0  0  0  0  0  0  0
  -22.8751  -12.0866   19.8880 C   0  0  0  0  0  0  0  0  0  0  0  0
  -27.2278  -16.8662   20.2427 C   0  0  0  0  0  0  0  0  0  0  0  0
  -29.3764  -17.3116   20.1011 C   0  0  0  0  0  0  0  0  0  0  0  0
  -28.8500  -14.8706   20.2125 C   0  0  0  0  0  0  0  0  0  0  0  0
  -20.4641  -28.0959   21.5942 C   0  0  0  0  0  0  0  0  0  0  0  0
  -23.5712  -28.8673   22.1170 C   0  0  0  0  0  0  0  0  0  0  0  0
  -26.8386  -28.5129   21.1976 C   0  0  0  0  0  0  0  0  0  0  0  0
  -28.8348  -22.9110   18.1199 C   0  0  0  0  0  0  0  0  0  0  0  0
  -17.0625  -30.1541   24.7958 C   0  0  0  0  0  0  0  0  0  0  0  0
  -21.5396  -25.8176   21.6869 C   0  0  0  0  0  0  0  0  0  0  0  0
  -23.0527  -27.6759   19.9544 C   0  0  0  0  0  0  0  0  0  0  0  0
  -18.3978  -30.5867   24.1957 C   0  0  0  0  0  0  0  0  0  0  0  0
  -29.8847  -21.8937   21.3227 C   0  0  0  0  0  0  0  0  0  0  0  0
  -18.4025  -30.3627   22.6869 C   0  0  0  0  0  0  0  0  0  0  0  0
  -29.4240  -20.4418   21.4244 C   0  0  0  0  0  0  0  0  0  0  0  0
  -22.6346  -23.1169   14.3531 C   0  0  0  0  0  0  0  0  0  0  0  0
  -27.0360  -23.2372   14.8883 C   0  0  0  0  0  0  0  0  0  0  0  0
  -28.8535  -22.7391   20.5866 C   0  0  0  0  0  0  0  0  0  0  0  0
  -28.0889  -20.7759   19.2808 C   0  0  0  0  0  0  0  0  0  0  0  0
  -26.5720  -22.3948   17.0644 C   0  0  0  0  0  0  0  0  0  0  0  0
  -24.1258  -23.3654   14.2480 C   0  0  0  0  0  0  0  0  0  0  0  0
  -23.5740  -22.5952   16.5067 C   0  0  0  0  0  0  0  0  0  0  0  0
  -18.2258  -28.8773   22.3492 C   0  0  1  0  0  0  0  0  0  0  0  0
  -21.6667  -27.3013   22.0186 C   0  0  1  0  0  0  0  0  0  0  0  0
  -29.0915  -19.8774   20.0339 C   0  0  2  0  0  0  0  0  0  0  0  0
  -25.9628  -23.2483   15.9658 C   0  0  2  0  0  0  0  0  0  0  0  0
  -22.3705  -23.2465   15.8433 C   0  0  1  0  0  0  0  0  0  1  0  0
  -28.3263  -23.3476   15.7121 C   0  0  2  0  0  0  0  0  0  0  0  0
  -29.4977  -22.6542   15.0290 C   0  0  0  0  0  0  0  0  0  0  0  0
  -29.3323  -28.7657   21.3194 C   0  0  0  0  0  0  0  0  0  0  0  0
  -23.0012  -31.5480   20.7758 C   0  0  0  0  0  0  0  0  0  0  0  0
  -25.4720  -31.8765   20.5400 C   0  0  0  0  0  0  0  0  0  0  0  0
  -24.4517  -31.6860   22.8084 C   0  0  0  0  0  0  0  0  0  0  0  0
  -27.1159  -26.1061   22.8974 C   0  0  0  0  0  0  0  0  0  0  0  0
  -24.6275  -29.6272   21.3516 C   0  0  1  0  0  0  0  0  0  0  0  0
  -28.0887  -28.2289   22.0107 C   0  0  2  0  0  0  0  0  0  0  0  0
  -24.3754  -31.1614   21.3580 C   0  0  0  0  0  0  0  0  0  0  0  0
  -27.2907  -18.1996   20.1952 N   0  0  0  0  0  0  0  0  0  0  0  0
  -28.6102  -18.4399   20.1095 N   0  0  0  0  0  0  0  0  0  0  0  0
  -22.8333  -27.9232   21.3890 N   0  0  0  0  0  0  0  0  0  0  0  0
  -28.5331  -22.1765   19.2738 N   0  0  0  0  0  0  0  0  0  0  0  0
  -27.9948  -22.7498   17.0150 N   0  0  0  0  0  0  0  0  0  0  0  0
  -30.7226  -17.3721   20.0194 N   0  0  0  0  0  0  0  0  0  0  0  0
  -27.8224  -13.9219   20.3043 N   0  0  0  0  0  0  0  0  0  0  0  0
  -19.4679  -28.1622   22.5495 N   0  0  0  0  0  0  0  0  0  0  0  0
  -25.9101  -29.2300   21.9221 N   0  0  0  0  0  0  0  0  0  0  0  0
  -24.7009  -22.6722   15.4727 N   0  3  2  0  0  0  0  0  0  0  0  0
  -28.2566  -26.7611   22.2069 N   0  3  0  0  0  0  0  0  0  0  0  0
  -30.0421  -14.4823   20.1715 O   0  0  0  0  0  0  0  0  0  0  0  0
  -20.4424  -28.6121   20.4830 O   0  0  0  0  0  0  0  0  0  0  0  0
  -23.4117  -29.0978   23.3183 O   0  0  0  0  0  0  0  0  0  0  0  0
  -26.7012  -28.1395   20.0348 O   0  0  0  0  0  0  0  0  0  0  0  0
  -29.7913  -23.6961   18.0871 O   0  0  0  0  0  0  0  0  0  0  0  0
  -22.2732  -14.3014   20.6171 O   0  0  0  0  0  0  0  0  0  0  0  0
  -22.3071  -24.6247   16.1932 O   0  0  0  0  0  0  0  0  0  1  0  0
  -21.3820   -9.9498   17.3500 F   0  0  0  0  0  0  0  0  0  0  0  0
  -23.8845  -12.0601   20.7690 F   0  0  0  0  0  0  0  0  0  0  0  0
  1  2  1  0  0  0  0
  1  5  2  0  0  0  0
  2  6  2  0  0  0  0
  3  8  2  0  0  0  0
  3 15  1  0  0  0  0
  4  9  1  0  0  0  0
  4 15  2  0  0  0  0
  5 17  1  0  0  0  0
  6 19  1  0  0  0  0
  7 10  2  0  0  0  0
  7 18  1  0  0  0  0
  8 21  1  0  0  0  0
  9 21  2  0  0  0  0
 10 22  1  0  0  0  0
 11 12  2  0  0  0  0
 11 23  1  0  0  0  0
 12 24  1  0  0  0  0
 13 20  1  0  0  0  0
 13 22  2  0  0  0  0
 14 24  2  0  0  0  0
 14 25  1  0  0  0  0
 15 26  1  0  0  0  0
 16 26  1  0  0  0  0
 16 27  2  0  0  0  0
 16 28  1  0  0  0  0
 17 19  2  0  0  0  0
 17 33  1  0  0  0  0
 18 20  2  0  0  0  0
 18 34  1  0  0  0  0
 19 47  1  0  0  0  0
 20 35  1  0  0  0  0
 21 78  1  0  0  0  0
 22 79  1  0  0  0  0
 23 25  2  0  0  0  0
 23 78  1  0  0  0  0
 24 80  1  0  0  0  0
 25 81  1  0  0  0  0
 26 62  2  0  0  0  0
 27 63  1  0  0  0  0
 27 67  1  0  0  0  0
 28 68  1  0  0  0  0
 28 73  2  0  0  0  0
 29 48  1  0  0  0  0
 29 69  1  0  0  0  0
 29 74  2  0  0  0  0
 30 59  1  0  0  0  0
 30 64  1  0  0  0  0
 30 75  2  0  0  0  0
 31 60  1  0  0  0  0
 31 70  1  0  0  0  0
 31 76  2  0  0  0  0
 32 65  1  0  0  0  0
 32 66  1  0  0  0  0
 32 77  2  0  0  0  0
 33 36  1  0  0  0  0
 34 48  1  0  0  0  0
 35 64  1  0  0  0  0
 36 38  1  0  0  0  0
 37 39  1  0  0  0  0
 37 42  1  0  0  0  0
 38 47  1  0  0  0  0
 39 49  1  0  0  0  0
 40 45  1  0  0  0  0
 40 51  1  0  0  0  0
 41 50  1  0  0  0  0
 41 52  1  0  0  0  0
 42 65  1  0  0  0  0
 43 49  1  0  0  0  0
 43 65  1  0  0  0  0
 44 50  1  0  0  0  0
 44 66  1  0  0  0  0
 45 71  1  0  0  0  0
 46 51  1  0  0  0  0
 46 71  1  0  0  0  0
 47 69  1  0  0  0  0
 48 64  1  0  0  0  0
 49 63  1  0  0  0  0
 50 71  1  0  0  0  0
 51 79  1  0  0  0  0
 52 53  1  0  0  0  0
 52 66  1  0  0  0  0
 54 60  1  0  0  0  0
 55 61  1  0  0  0  0
 56 61  1  0  0  0  0
 57 61  1  0  0  0  0
 58 72  1  0  0  0  0
 59 61  1  0  0  0  0
 59 70  1  0  0  0  0
 60 72  1  0  0  0  0
 62 63  1  0  0  0  0
M  CHG  2  71   1  72   1
M  ISO  4  32 100  51 101  66 100  79 101
M  END
> <Batch ID>
0191

> <Smiles>
CNC(C)C(=O)NC(C(=O)N1Cc2cc([101O:1][101CH:1]3CCN(C4CC(C)[100N:0]([100C:0](=O)N5CCCC(n6nc(-c7ccc(Oc8ccc(F)cc8F)cc7)c(C(N)=O)c6N)C5)C4)C3)ccc2CC1C(=O)NC1CCCc2ccccc21)C(C)(C)C

> <Shape>
0.243

> <Color>
0.073

> <Negative vol penalty>
0.000

$$$$

  -OEChem-04052323273D

 82 91  0     1  0  0  0  0  0999 V2000
  -17.5904  -26.1562   22.6525 C   0  0  0  0  0  0  0  0  0  0  0  0
  -18.9006  -25.6900   22.6906 C   0  0  0  0  0  0  0  0  0  0  0  0
  -28.1788  -13.8997   19.6358 C   0  0  0  0  0  0  0  0  0  0  0  0
  -29.7605  -12.4236   20.7112 C   0  0  0  0  0  0  0  0  0  0  0  0
  -17.3240  -27.4471   22.1980 C   0  0  0  0  0  0  0  0  0  0  0  0
  -19.9451  -26.5141   22.2732 C   0  0  0  0  0  0  0  0  0  0  0  0
  -25.6150  -26.7244   24.5784 C   0  0  0  0  0  0  0  0  0  0  0  0
  -28.3065  -13.1738   18.4516 C   0  0  0  0  0  0  0  0  0  0  0  0
  -29.8881  -11.6976   19.5270 C   0  0  0  0  0  0  0  0  0  0  0  0
  -26.8176  -26.1530   24.1646 C   0  0  0  0  0  0  0  0  0  0  0  0
  -28.4893  -11.9246   15.0414 C   0  0  0  0  0  0  0  0  0  0  0  0
  -28.6312  -12.6401   13.8524 C   0  0  0  0  0  0  0  0  0  0  0  0
  -27.3964  -28.2044   23.0349 C   0  0  0  0  0  0  0  0  0  0  0  0
  -30.6497  -13.6573   14.7055 C   0  0  0  0  0  0  0  0  0  0  0  0
  -28.9059  -13.5246   20.7656 C   0  0  0  0  0  0  0  0  0  0  0  0
  -27.8554  -14.0478   23.0307 C   0  0  0  0  0  0  0  0  0  0  0  0
  -18.3667  -28.2909   21.7840 C   0  0  0  0  0  0  0  0  0  0  0  0
  -25.2887  -28.0385   24.2138 C   0  0  0  0  0  0  0  0  0  0  0  0
  -19.6923  -27.8171   21.8115 C   0  0  0  0  0  0  0  0  0  0  0  0
  -26.1903  -28.7909   23.4475 C   0  0  0  0  0  0  0  0  0  0  0  0
  -29.1611  -12.0727   18.3972 C   0  0  0  0  0  0  0  0  0  0  0  0
  -27.7072  -26.8920   23.3903 C   0  0  0  0  0  0  0  0  0  0  0  0
  -29.4276  -12.0756   16.0624 C   0  0  0  0  0  0  0  0  0  0  0  0
  -29.7114  -13.5064   13.6844 C   0  0  0  0  0  0  0  0  0  0  0  0
  -30.5078  -12.9419   15.8944 C   0  0  0  0  0  0  0  0  0  0  0  0
  -28.7749  -14.2745   21.9890 C   0  0  0  0  0  0  0  0  0  0  0  0
  -28.1376  -15.0229   23.9559 C   0  0  0  0  0  0  0  0  0  0  0  0
  -26.8374  -13.0455   23.1512 C   0  0  0  0  0  0  0  0  0  0  0  0
  -22.9650  -29.3829   22.5117 C   0  0  0  0  0  0  0  0  0  0  0  0
  -24.3396  -32.1369   23.5354 C   0  0  0  0  0  0  0  0  0  0  0  0
  -27.1292  -33.7276   24.6906 C   0  0  0  0  0  0  0  0  0  0  0  0
  -28.3094  -18.8467   21.5231 C   0  0  0  0  0  0  0  0  0  0  0  0
  -18.0251  -29.6617   21.2560 C   0  0  0  0  0  0  0  0  0  0  0  0
  -23.9995  -28.6494   24.6906 C   0  0  0  0  0  0  0  0  0  0  0  0
  -25.8963  -30.2126   23.0464 C   0  0  0  0  0  0  0  0  0  0  0  0
  -19.2245  -30.6033   21.1847 C   0  0  0  0  0  0  0  0  0  0  0  0
  -31.6250  -17.7659   22.3724 C   0  0  0  0  0  0  0  0  0  0  0  0
  -20.4200  -29.8979   20.5521 C   0  0  0  0  0  0  0  0  0  0  0  0
  -31.3633  -17.1462   23.7468 C   0  0  0  0  0  0  0  0  0  0  0  0
  -27.7030  -21.0575   18.6183 C   0  0  0  0  0  0  0  0  0  0  0  0
  -30.8344  -26.0426   19.7726 C   0  0  0  0  0  0  0  0  0  0  0  0
  -30.7796  -19.0100   22.1048 C   0  0  0  0  0  0  0  0  0  0  0  0
  -27.3036  -19.9026   19.5235 C   0  0  0  0  0  0  0  0  0  0  0  0
  -29.3459  -20.8693   20.3308 C   0  0  0  0  0  0  0  0  0  0  0  0
  -29.1260  -18.2737   23.7833 C   0  0  0  0  0  0  0  0  0  0  0  0
  -31.1873  -24.7076   19.1374 C   0  0  0  0  0  0  0  0  0  0  0  0
  -29.3630  -24.4643   20.7457 C   0  0  0  0  0  0  0  0  0  0  0  0
  -20.8547  -28.6898   21.3905 C   0  0  1  0  0  0  0  0  0  0  0  0
  -23.5391  -29.8213   23.8292 C   0  0  1  0  0  0  0  0  0  0  0  0
  -28.5696  -21.9198   19.5368 C   0  0  1  0  0  0  0  0  0  0  0  0
  -30.2210  -25.6627   21.1130 C   0  0  2  0  0  0  0  0  0  0  0  0
  -29.8647  -16.9494   24.0615 C   0  0  1  0  0  0  0  0  0  0  0  0
  -27.9554  -35.9874   25.4035 C   0  0  0  0  0  0  0  0  0  0  0  0
  -24.4911  -33.0008   20.6129 C   0  0  0  0  0  0  0  0  0  0  0  0
  -26.1354  -34.7626   21.2914 C   0  0  0  0  0  0  0  0  0  0  0  0
  -23.8134  -34.8095   22.2016 C   0  0  0  0  0  0  0  0  0  0  0  0
  -27.7444  -32.7693   27.4223 C   0  0  0  0  0  0  0  0  0  0  0  0
  -29.4635  -22.8876   18.7824 C   0  0  0  0  0  0  0  0  0  0  0  0
  -29.4257  -26.7887   21.7497 C   0  0  0  0  0  0  0  0  0  1  0  0
  -25.4292  -33.0446   23.0179 C   0  0  1  0  0  0  0  0  0  0  0  0
  -27.3379  -34.6743   25.8588 C   0  0  2  0  0  0  0  0  0  0  0  0
  -24.9722  -33.8770   21.7867 C   0  0  0  0  0  0  0  0  0  0  0  0
  -29.5807  -15.3122   22.2293 N   0  0  0  0  0  0  0  0  0  0  0  0
  -29.1685  -15.7463   23.4325 N   0  0  0  0  0  0  0  0  0  0  0  0
  -24.6201  -30.7632   23.5318 N   0  0  0  0  0  0  0  0  0  0  0  0
  -29.3712  -18.7783   22.4311 N   0  0  0  0  0  0  0  0  0  0  0  0
  -28.4047  -19.7554   20.4705 N   0  0  0  0  0  0  0  0  0  0  0  0
  -27.6019  -15.3235   25.1580 N   0  0  0  0  0  0  0  0  0  0  0  0
  -26.6827  -12.1215   22.1087 N   0  0  0  0  0  0  0  0  0  0  0  0
  -21.6084  -29.1225   22.5477 N   0  0  0  0  0  0  0  0  0  0  0  0
  -25.8646  -33.8489   24.1546 N   0  0  0  0  0  0  0  0  0  0  0  0
  -30.2264  -23.6997   19.7564 N   0  3  1  0  0  0  0  0  0  0  0  0
  -28.2404  -34.0566   26.8712 N   0  3  0  0  0  0  0  0  0  0  0  0
  -26.0762  -12.9815   24.1462 O   0  0  0  0  0  0  0  0  0  0  0  0
  -23.6984  -29.2892   21.5343 O   0  0  0  0  0  0  0  0  0  0  0  0
  -23.2815  -32.6292   23.9349 O   0  0  0  0  0  0  0  0  0  0  0  0
  -28.0021  -32.9601   24.2910 O   0  0  0  0  0  0  0  0  0  0  0  0
  -27.2933  -18.1537   21.6696 O   0  0  0  0  0  0  0  0  0  0  0  0
  -29.2857  -11.3640   17.2419 O   0  0  0  0  0  0  0  0  0  0  0  0
  -28.8911  -26.3320   22.9812 O   0  0  0  0  0  0  0  0  0  1  0  0
  -29.8484  -14.1922   12.5420 F   0  0  0  0  0  0  0  0  0  0  0  0
  -31.4131  -13.0901   16.8713 F   0  0  0  0  0  0  0  0  0  0  0  0
  1  2  1  0  0  0  0
  1  5  2  0  0  0  0
  2  6  2  0  0  0  0
  3  8  2  0  0  0  0
  3 15  1  0  0  0  0
  4  9  1  0  0  0  0
  4 15  2  0  0  0  0
  5 17  1  0  0  0  0
  6 19  1  0  0  0  0
  7 10  2  0  0  0  0
  7 18  1  0  0  0  0
  8 21  1  0  0  0  0
  9 21  2  0  0  0  0
 10 22  1  0  0  0  0
 11 12  2  0  0  0  0
 11 23  1  0  0  0  0
 12 24  1  0  0  0  0
 13 20  1  0  0  0  0
 13 22  2  0  0  0  0
 14 24  2  0  0  0  0
 14 25  1  0  0  0  0
 15 26  1  0  0  0  0
 16 26  1  0  0  0  0
 16 27  2  0  0  0  0
 16 28  1  0  0  0  0
 17 19  2  0  0  0  0
 17 33  1  0  0  0  0
 18 20  2  0  0  0  0
 18 34  1  0  0  0  0
 19 48  1  0  0  0  0
 20 35  1  0  0  0  0
 21 79  1  0  0  0  0
 22 80  1  0  0  0  0
 23 25  2  0  0  0  0
 23 79  1  0  0  0  0
 24 81  1  0  0  0  0
 25 82  1  0  0  0  0
 26 63  2  0  0  0  0
 27 64  1  0  0  0  0
 27 68  1  0  0  0  0
 28 69  1  0  0  0  0
 28 74  2  0  0  0  0
 29 49  1  0  0  0  0
 29 70  1  0  0  0  0
 29 75  2  0  0  0  0
 30 60  1  0  0  0  0
 30 65  1  0  0  0  0
 30 76  2  0  0  0  0
 31 61  1  0  0  0  0
 31 71  1  0  0  0  0
 31 77  2  0  0  0  0
 32 66  1  0  0  0  0
 32 67  1  0  0  0  0
 32 78  2  0  0  0  0
 33 36  1  0  0  0  0
 34 49  1  0  0  0  0
 35 65  1  0  0  0  0
 36 38  1  0  0  0  0
 37 39  1  0  0  0  0
 37 42  1  0  0  0  0
 38 48  1  0  0  0  0
 39 52  1  0  0  0  0
 40 43  1  0  0  0  0
 40 50  1  0  0  0  0
 41 46  1  0  0  0  0
 41 51  1  0  0  0  0
 42 66  1  0  0  0  0
 43 67  1  0  0  0  0
 44 50  1  0  0  0  0
 44 67  1  0  0  0  0
 45 52  1  0  0  0  0
 45 66  1  0  0  0  0
 46 72  1  0  0  0  0
 47 51  1  0  0  0  0
 47 72  1  0  0  0  0
 48 70  1  0  0  0  0
 49 65  1  0  0  0  0
 50 58  1  0  0  0  0
 51 59  1  0  0  0  0
 52 64  1  0  0  0  0
 53 61  1  0  0  0  0
 54 62  1  0  0  0  0
 55 62  1  0  0  0  0
 56 62  1  0  0  0  0
 57 73  1  0  0  0  0
 58 72  1  0  0  0  0
 59 80  1  0  0  0  0
 60 62  1  0  0  0  0
 60 71  1  0  0  0  0
 61 73  1  0  0  0  0
 63 64  1  0  0  0  0
M  CHG  2  72   1  73   1
M  ISO  4  32 100  59 101  67 100  80 101
M  END
> <Batch ID>
0191

> <Smiles>
CNC(C)C(=O)NC(C(=O)N1Cc2cc([101O:1][101CH2:1]C3CCN(CC4CC[100N:0]([100C:0](=O)N5CCCC(n6nc(-c7ccc(Oc8ccc(F)cc8F)cc7)c(C(N)=O)c6N)C5)C4)C3)ccc2CC1C(=O)NC1CCCc2ccccc21)C(C)(C)C

> <Shape>
0.265

> <Color>
0.075

> <Negative vol penalty>
0.000

$$$$

  -OEChem-04052323273D

 87 96  0     1  0  0  0  0  0999 V2000
  -27.6668  -37.1126   27.0481 C   0  0  0  0  0  0  0  0  0  0  0  0
  -28.3519  -36.5791   25.9612 C   0  0  0  0  0  0  0  0  0  0  0  0
  -24.5257   -9.2498   20.9387 C   0  0  0  0  0  0  0  0  0  0  0  0
  -22.1841   -9.5672   21.4420 C   0  0  0  0  0  0  0  0  0  0  0  0
  -26.8008  -36.3084   27.7878 C   0  0  0  0  0  0  0  0  0  0  0  0
  -28.1722  -35.2406   25.6140 C   0  0  0  0  0  0  0  0  0  0  0  0
  -28.0272  -30.9270   19.8967 C   0  0  0  0  0  0  0  0  0  0  0  0
  -24.5817   -8.2032   21.8590 C   0  0  0  0  0  0  0  0  0  0  0  0
  -22.2401   -8.5205   22.3623 C   0  0  0  0  0  0  0  0  0  0  0  0
  -28.5958  -29.7447   19.4247 C   0  0  0  0  0  0  0  0  0  0  0  0
  -22.2272   -5.1418   22.2933 C   0  0  0  0  0  0  0  0  0  0  0  0
  -21.1943   -4.2048   22.2703 C   0  0  0  0  0  0  0  0  0  0  0  0
  -27.0141  -28.4712   20.7267 C   0  0  0  0  0  0  0  0  0  0  0  0
  -20.6422   -4.7574   24.5566 C   0  0  0  0  0  0  0  0  0  0  0  0
  -31.6475  -21.9839   19.0367 C   0  0  0  0  0  0  0  0  0  0  0  0
  -23.3269   -9.9319   20.7302 C   0  0  0  0  0  0  0  0  0  0  0  0
  -22.9616  -10.9250   18.4090 C   0  0  0  0  0  0  0  0  0  0  0  0
  -26.6030  -34.9619   27.4437 C   0  0  0  0  0  0  0  0  0  0  0  0
  -26.9529  -30.8901   20.7972 C   0  0  0  0  0  0  0  0  0  0  0  0
  -27.3037  -34.4172   26.3506 C   0  0  0  0  0  0  0  0  0  0  0  0
  -26.4319  -29.6543   21.2066 C   0  0  0  0  0  0  0  0  0  0  0  0
  -23.4389   -7.8385   22.5708 C   0  0  0  0  0  0  0  0  0  0  0  0
  -28.0912  -28.5166   19.8419 C   0  0  0  0  0  0  0  0  0  0  0  0
  -22.4678   -5.8866   23.4479 C   0  0  0  0  0  0  0  0  0  0  0  0
  -20.4018   -4.0125   23.4020 C   0  0  0  0  0  0  0  0  0  0  0  0
  -21.6752   -5.6944   24.5795 C   0  0  0  0  0  0  0  0  0  0  0  0
  -29.6396  -22.8582   17.4830 C   0  0  0  0  0  0  0  0  0  0  0  0
  -23.2685  -11.0135   19.7801 C   0  0  0  0  0  0  0  0  0  0  0  0
  -30.0474  -21.5398   17.4844 C   0  0  0  0  0  0  0  0  0  0  0  0
  -30.3310  -23.6978   18.3322 C   0  0  0  0  0  0  0  0  0  0  0  0
  -23.0387  -12.2192   17.9557 C   0  0  0  0  0  0  0  0  0  0  0  0
  -22.6359   -9.7757   17.6162 C   0  0  0  0  0  0  0  0  0  0  0  0
  -26.4882  -31.8945   23.7769 C   0  0  0  0  0  0  0  0  0  0  0  0
  -23.4389  -30.9464   23.2069 C   0  0  0  0  0  0  0  0  0  0  0  0
  -21.3056  -28.9676   21.4236 C   0  0  0  0  0  0  0  0  0  0  0  0
  -25.4018  -17.0268   17.6037 C   0  0  0  0  0  0  0  0  0  0  0  0
  -25.6929  -34.1194   28.3019 C   0  0  0  0  0  0  0  0  0  0  0  0
  -26.3334  -32.1743   21.2762 C   0  0  0  0  0  0  0  0  0  0  0  0
  -25.2667  -29.5604   22.1564 C   0  0  0  0  0  0  0  0  0  0  0  0
  -25.2724  -32.8094   27.6404 C   0  0  0  0  0  0  0  0  0  0  0  0
  -23.4193  -16.5836   20.4703 C   0  0  0  0  0  0  0  0  0  0  0  0
  -26.4800  -32.1116   27.0227 C   0  0  0  0  0  0  0  0  0  0  0  0
  -23.1751  -15.0752   20.4398 C   0  0  0  0  0  0  0  0  0  0  0  0
  -24.8539  -16.9404   20.0771 C   0  0  0  0  0  0  0  0  0  0  0  0
  -26.7397  -18.8164   18.8002 C   0  0  0  0  0  0  0  0  0  0  0  0
  -25.7839  -19.2416   16.5656 C   0  0  0  0  0  0  0  0  0  0  0  0
  -25.0358  -14.8614   18.7491 C   0  0  0  0  0  0  0  0  0  0  0  0
  -28.1338  -19.1478   18.2773 C   0  0  0  0  0  0  0  0  0  0  0  0
  -27.1615  -19.5538   16.0043 C   0  0  0  0  0  0  0  0  0  0  0  0
  -27.1164  -32.9763   25.9277 C   0  0  1  0  0  0  0  0  0  0  0  0
  -25.5746  -32.0179   22.5904 C   0  0  1  0  0  0  0  0  0  0  0  0
  -23.5862  -14.4765   19.0829 C   0  0  1  0  0  0  0  0  0  0  0  0
  -18.8741  -28.3850   21.2089 C   0  0  0  0  0  0  0  0  0  0  0  0
  -23.6210  -29.2615   25.7442 C   0  0  0  0  0  0  0  0  0  0  0  0
  -21.5938  -28.0098   24.9751 C   0  0  0  0  0  0  0  0  0  0  0  0
  -21.4452  -30.4562   25.4392 C   0  0  0  0  0  0  0  0  0  0  0  0
  -21.2086  -29.9078   18.6190 C   0  0  0  0  0  0  0  0  0  0  0  0
  -29.3816  -20.5198   16.6084 C   0  0  0  0  0  0  0  0  0  0  0  0
  -30.6312  -26.0041   19.2359 C   0  0  0  0  0  0  0  0  0  0  0  0
  -30.0332  -27.3897   19.0581 C   0  0  0  0  0  0  0  0  0  1  0  0
  -22.6704  -29.6581   23.3767 C   0  0  1  0  0  0  0  0  0  0  0  0
  -20.0007  -29.2779   20.7126 C   0  0  2  0  0  0  0  0  0  0  0  0
  -22.3558  -29.3478   24.8674 C   0  0  0  0  0  0  0  0  0  0  0  0
  -31.0514  -21.0666   18.2514 N   0  0  0  0  0  0  0  0  0  0  0  0
  -31.3439  -23.2928   19.1262 N   0  0  0  0  0  0  0  0  0  0  0  0
  -23.5219  -12.2650   20.1720 N   0  0  0  0  0  0  0  0  0  0  0  0
  -23.3744  -12.9748   19.0404 N   0  0  0  0  0  0  0  0  0  0  0  0
  -24.6994  -30.8440   22.6015 N   0  0  0  0  0  0  0  0  0  0  0  0
  -25.2142  -16.3141   18.7975 N   0  0  0  0  0  0  0  0  0  0  0  0
  -25.8710  -18.3440   17.7154 N   0  0  0  0  0  0  0  0  0  0  0  0
  -22.8515  -12.7733   16.7390 N   0  0  0  0  0  0  0  0  0  0  0  0
  -22.6009   -8.5214   18.2405 N   0  0  0  0  0  0  0  0  0  0  0  0
  -29.9705  -25.0667   18.3871 N   0  0  0  0  0  0  0  0  0  0  0  0
  -26.3383  -32.9029   24.7097 N   0  0  0  0  0  0  0  0  0  0  0  0
  -21.4893  -29.7724   22.5280 N   0  0  0  0  0  0  0  0  0  0  0  0
  -28.0284  -20.1033   17.1131 N   0  3  0  0  0  0  0  0  0  0  0  0
  -20.1499  -29.0738   19.2439 N   0  3  0  0  0  0  0  0  0  0  0  0
  -22.3995   -9.8563   16.3869 O   0  0  0  0  0  0  0  0  0  0  0  0
  -27.2702  -30.9533   23.8421 O   0  0  0  0  0  0  0  0  0  0  0  0
  -22.9362  -32.0055   23.5905 O   0  0  0  0  0  0  0  0  0  0  0  0
  -22.0822  -28.0957   21.0399 O   0  0  0  0  0  0  0  0  0  0  0  0
  -25.1644  -16.5155   16.5020 O   0  0  0  0  0  0  0  0  0  0  0  0
  -23.4931   -6.8171   23.4688 O   0  0  0  0  0  0  0  0  0  0  0  0
  -28.6487  -27.3531   19.3801 O   0  0  0  0  0  0  0  0  0  1  0  0
  -19.4089   -3.1137   23.3793 F   0  0  0  0  0  0  0  0  0  0  0  0
  -21.9007   -6.4078   25.6913 F   0  0  0  0  0  0  0  0  0  0  0  0
  -28.3503  -23.4057   16.4813 Cl  0  0  0  0  0  0  0  0  0  0  0  0
  1  2  1  0  0  0  0
  1  5  2  0  0  0  0
  2  6  2  0  0  0  0
  3  8  2  0  0  0  0
  3 16  1  0  0  0  0
  4  9  1  0  0  0  0
  4 16  2  0  0  0  0
  5 18  1  0  0  0  0
  6 20  1  0  0  0  0
  7 10  2  0  0  0  0
  7 19  1  0  0  0  0
  8 22  1  0  0  0  0
  9 22  2  0  0  0  0
 10 23  1  0  0  0  0
 11 12  2  0  0  0  0
 11 24  1  0  0  0  0
 12 25  1  0  0  0  0
 13 21  1  0  0  0  0
 13 23  2  0  0  0  0
 14 25  2  0  0  0  0
 14 26  1  0  0  0  0
 15 64  1  0  0  0  0
 15 65  2  0  0  0  0
 16 28  1  0  0  0  0
 17 28  1  0  0  0  0
 17 31  2  0  0  0  0
 17 32  1  0  0  0  0
 18 20  2  0  0  0  0
 18 37  1  0  0  0  0
 19 21  2  0  0  0  0
 19 38  1  0  0  0  0
 20 50  1  0  0  0  0
 21 39  1  0  0  0  0
 22 83  1  0  0  0  0
 23 84  1  0  0  0  0
 24 26  2  0  0  0  0
 24 83  1  0  0  0  0
 25 85  1  0  0  0  0
 26 86  1  0  0  0  0
 27 29  1  0  0  0  0
 27 30  2  0  0  0  0
 27 87  1  0  0  0  0
 28 66  2  0  0  0  0
 29 58  1  0  0  0  0
 29 64  2  0  0  0  0
 30 65  1  0  0  0  0
 30 73  1  0  0  0  0
 31 67  1  0  0  0  0
 31 71  1  0  0  0  0
 32 72  1  0  0  0  0
 32 78  2  0  0  0  0
 33 51  1  0  0  0  0
 33 74  1  0  0  0  0
 33 79  2  0  0  0  0
 34 61  1  0  0  0  0
 34 68  1  0  0  0  0
 34 80  2  0  0  0  0
 35 62  1  0  0  0  0
 35 75  1  0  0  0  0
 35 81  2  0  0  0  0
 36 69  1  0  0  0  0
 36 70  1  0  0  0  0
 36 82  2  0  0  0  0
 37 40  1  0  0  0  0
 38 51  1  0  0  0  0
 39 68  1  0  0  0  0
 40 42  1  0  0  0  0
 41 43  1  0  0  0  0
 41 44  1  0  0  0  0
 42 50  1  0  0  0  0
 43 52  1  0  0  0  0
 44 69  1  0  0  0  0
 45 48  1  0  0  0  0
 45 70  1  0  0  0  0
 46 49  1  0  0  0  0
 46 70  1  0  0  0  0
 47 52  1  0  0  0  0
 47 69  1  0  0  0  0
 48 76  1  0  0  0  0
 49 76  1  0  0  0  0
 50 74  1  0  0  0  0
 51 68  1  0  0  0  0
 52 67  1  0  0  0  0
 53 62  1  0  0  0  0
 54 63  1  0  0  0  0
 55 63  1  0  0  0  0
 56 63  1  0  0  0  0
 57 77  1  0  0  0  0
 58 76  1  0  0  0  0
 59 60  1  0  0  0  0
 59 73  1  0  0  0  0
 60 84  1  0  0  0  0
 61 63  1  0  0  0  0
 61 75  1  0  0  0  0
 62 77  1  0  0  0  0
 66 67  1  0  0  0  0
M  CHG  2  76   1  77   1
M  ISO  4  36 100  60 101  70 100  84 101
M  END
> <Batch ID>
0191

> <Smiles>
CNC(C)C(=O)NC(C(=O)N1Cc2cc([101O:1][101CH2:1]CNc3ncnc(CN4CC[100N:0]([100C:0](=O)N5CCCC(n6nc(-c7ccc(Oc8ccc(F)cc8F)cc7)c(C(N)=O)c6N)C5)CC4)c3Cl)ccc2CC1C(=O)NC1CCCc2ccccc21)C(C)(C)C

> <Shape>
0.260

> <Color>
0.068

> <Negative vol penalty>
0.000

$$$$

  -OEChem-04052323273D

 82 91  0     1  0  0  0  0  0999 V2000
  -28.0848  -30.5770   28.1603 C   0  0  0  0  0  0  0  0  0  0  0  0
  -28.1237  -29.8116   26.9992 C   0  0  0  0  0  0  0  0  0  0  0  0
  -22.6146  -10.1779   21.0033 C   0  0  0  0  0  0  0  0  0  0  0  0
  -24.4860   -8.9812   21.9536 C   0  0  0  0  0  0  0  0  0  0  0  0
  -26.8882  -31.1671   28.5652 C   0  0  0  0  0  0  0  0  0  0  0  0
  -26.9657  -29.6350   26.2428 C   0  0  0  0  0  0  0  0  0  0  0  0
  -27.7814  -30.2107   21.2781 C   0  0  0  0  0  0  0  0  0  0  0  0
  -21.9105   -8.9801   20.8815 C   0  0  0  0  0  0  0  0  0  0  0  0
  -23.7818   -7.7833   21.8317 C   0  0  0  0  0  0  0  0  0  0  0  0
  -28.3762  -29.1458   20.6029 C   0  0  0  0  0  0  0  0  0  0  0  0
  -22.3384   -4.4576   22.1045 C   0  0  0  0  0  0  0  0  0  0  0  0
  -22.3551   -3.5814   23.1896 C   0  0  0  0  0  0  0  0  0  0  0  0
  -26.2108  -28.4587   19.7916 C   0  0  0  0  0  0  0  0  0  0  0  0
  -21.3424   -5.2803   24.5771 C   0  0  0  0  0  0  0  0  0  0  0  0
  -23.9024  -10.1785   21.5393 C   0  0  0  0  0  0  0  0  0  0  0  0
  -24.6327  -12.2927   22.7660 C   0  0  0  0  0  0  0  0  0  0  0  0
  -25.7171  -31.0056   27.8081 C   0  0  0  0  0  0  0  0  0  0  0  0
  -26.3932  -30.4016   21.2240 C   0  0  0  0  0  0  0  0  0  0  0  0
  -25.7520  -30.2224   26.6386 C   0  0  0  0  0  0  0  0  0  0  0  0
  -25.6012  -29.5283   20.4650 C   0  0  0  0  0  0  0  0  0  0  0  0
  -22.4940   -7.7828   21.2957 C   0  0  0  0  0  0  0  0  0  0  0  0
  -27.5906  -28.2679   19.8619 C   0  0  0  0  0  0  0  0  0  0  0  0
  -21.8237   -5.7453   22.2556 C   0  0  0  0  0  0  0  0  0  0  0  0
  -21.8571   -3.9927   24.4259 C   0  0  0  0  0  0  0  0  0  0  0  0
  -21.3257   -6.1566   23.4919 C   0  0  0  0  0  0  0  0  0  0  0  0
  -24.6306  -11.4155   21.6650 C   0  0  0  0  0  0  0  0  0  0  0  0
  -25.4749  -13.3111   22.3921 C   0  0  0  0  0  0  0  0  0  0  0  0
  -28.1637  -23.1128   19.6627 C   0  0  0  0  0  0  0  0  0  0  0  0
  -23.9357  -12.1955   24.0152 C   0  0  0  0  0  0  0  0  0  0  0  0
  -24.0456  -30.4154   23.3669 C   0  0  0  0  0  0  0  0  0  0  0  0
  -22.2581  -31.3508   20.8268 C   0  0  0  0  0  0  0  0  0  0  0  0
  -21.8539  -31.4253   17.4389 C   0  0  0  0  0  0  0  0  0  0  0  0
  -27.0008  -17.0037   18.5988 C   0  0  0  0  0  0  0  0  0  0  0  0
  -24.4366  -31.6237   28.3111 C   0  0  0  0  0  0  0  0  0  0  0  0
  -25.7701  -31.5708   21.9361 C   0  0  0  0  0  0  0  0  0  0  0  0
  -24.1088  -29.7013   20.3582 C   0  0  0  0  0  0  0  0  0  0  0  0
  -23.3391  -31.6974   27.2527 C   0  0  0  0  0  0  0  0  0  0  0  0
  -28.6583  -13.7088   18.5042 C   0  0  0  0  0  0  0  0  0  0  0  0
  -23.2204  -30.3685   26.5132 C   0  0  0  0  0  0  0  0  0  0  0  0
  -27.7158  -12.8812   19.3730 C   0  0  0  0  0  0  0  0  0  0  0  0
  -29.1161  -19.7942   17.0905 C   0  0  0  0  0  0  0  0  0  0  0  0
  -27.9126  -14.7774   17.7059 C   0  0  0  0  0  0  0  0  0  0  0  0
  -26.1241  -14.8406   19.4210 C   0  0  0  0  0  0  0  0  0  0  0  0
  -24.5224  -30.0281   25.7780 C   0  0  1  0  0  0  0  0  0  0  0  0
  -24.2870  -31.3693   22.2313 C   0  0  1  0  0  0  0  0  0  0  0  0
  -26.8623  -13.7927   20.2680 C   0  0  1  0  0  0  0  0  0  0  0  0
  -28.7727  -19.9013   18.5564 C   0  0  2  0  0  0  0  0  0  0  0  0
  -27.8998  -19.0922   17.6181 C   0  0  2  0  0  0  0  0  0  0  0  0
  -20.2758  -32.2280   15.6605 C   0  0  0  0  0  0  0  0  0  0  0  0
  -20.3662  -29.0444   21.4680 C   0  0  0  0  0  0  0  0  0  0  0  0
  -19.3878  -29.3020   19.1779 C   0  0  0  0  0  0  0  0  0  0  0  0
  -19.2303  -31.1754   20.8175 C   0  0  0  0  0  0  0  0  0  0  0  0
  -23.9118  -33.1849   16.2439 C   0  0  0  0  0  0  0  0  0  0  0  0
  -29.4768  -25.2154   19.3787 C   0  0  0  0  0  0  0  0  0  0  0  0
  -29.3577  -26.6790   19.7694 C   0  0  0  0  0  0  0  0  0  1  0  0
  -21.4629  -30.6390   19.7591 C   0  0  1  0  0  0  0  0  0  0  0  0
  -21.5064  -32.5586   16.4906 C   0  0  2  0  0  0  0  0  0  0  0  0
  -20.1397  -30.0356   20.3090 C   0  0  0  0  0  0  0  0  0  0  0  0
  -25.4096  -11.8397   20.6663 N   0  0  0  0  0  0  0  0  0  0  0  0
  -27.0582  -22.4988   20.1720 N   0  0  0  0  0  0  0  0  0  0  0  0
  -28.9800  -22.2965   18.9915 N   0  0  0  0  0  0  0  0  0  0  0  0
  -27.1535  -21.2229   19.8193 N   0  0  0  0  0  0  0  0  0  0  0  0
  -25.9089  -12.9946   21.1384 N   0  0  0  0  0  0  0  0  0  0  0  0
  -28.2991  -21.1499   19.1273 N   0  0  0  0  0  0  0  0  0  0  0  0
  -23.5458  -30.8559   21.0776 N   0  0  0  0  0  0  0  0  0  0  0  0
  -27.0523  -15.5982   18.5725 N   0  0  0  0  0  0  0  0  0  0  0  0
  -25.8792  -14.4376   23.0166 N   0  0  0  0  0  0  0  0  0  0  0  0
  -23.1116  -11.0835   24.2358 N   0  0  0  0  0  0  0  0  0  0  0  0
  -28.3425  -24.4699   19.8743 N   0  0  0  0  0  0  0  0  0  0  0  0
  -24.6307  -30.7996   24.5584 N   0  0  0  0  0  0  0  0  0  0  0  0
  -21.2769  -31.6017   18.6787 N   0  0  0  0  0  0  0  0  0  0  0  0
  -27.8465  -17.6576   17.7100 N   0  0  0  0  0  0  0  0  0  0  0  0
  -22.6419  -32.8241   15.5626 N   0  3  0  0  0  0  0  0  0  0  0  0
  -24.0277  -13.0771   24.9028 O   0  0  0  0  0  0  0  0  0  0  0  0
  -23.3767  -29.4064   23.1767 O   0  0  0  0  0  0  0  0  0  0  0  0
  -21.7581  -32.3149   21.4116 O   0  0  0  0  0  0  0  0  0  0  0  0
  -22.5630  -30.4764   17.1113 O   0  0  0  0  0  0  0  0  0  0  0  0
  -26.2519  -17.6325   19.3548 O   0  0  0  0  0  0  0  0  0  0  0  0
  -21.8071   -6.6138   21.1771 O   0  0  0  0  0  0  0  0  0  0  0  0
  -28.1685  -27.2273   19.2024 O   0  0  0  0  0  0  0  0  0  1  0  0
  -21.8718   -3.1506   25.4674 F   0  0  0  0  0  0  0  0  0  0  0  0
  -20.8289   -7.3920   23.6429 F   0  0  0  0  0  0  0  0  0  0  0  0
  1  2  1  0  0  0  0
  1  5  2  0  0  0  0
  2  6  2  0  0  0  0
  3  8  2  0  0  0  0
  3 15  1  0  0  0  0
  4  9  1  0  0  0  0
  4 15  2  0  0  0  0
  5 17  1  0  0  0  0
  6 19  1  0  0  0  0
  7 10  2  0  0  0  0
  7 18  1  0  0  0  0
  8 21  1  0  0  0  0
  9 21  2  0  0  0  0
 10 22  1  0  0  0  0
 11 12  2  0  0  0  0
 11 23  1  0  0  0  0
 12 24  1  0  0  0  0
 13 20  1  0  0  0  0
 13 22  2  0  0  0  0
 14 24  2  0  0  0  0
 14 25  1  0  0  0  0
 15 26  1  0  0  0  0
 16 26  1  0  0  0  0
 16 27  2  0  0  0  0
 16 29  1  0  0  0  0
 17 19  2  0  0  0  0
 17 34  1  0  0  0  0
 18 20  2  0  0  0  0
 18 35  1  0  0  0  0
 19 44  1  0  0  0  0
 20 36  1  0  0  0  0
 21 79  1  0  0  0  0
 22 80  1  0  0  0  0
 23 25  2  0  0  0  0
 23 79  1  0  0  0  0
 24 81  1  0  0  0  0
 25 82  1  0  0  0  0
 26 59  2  0  0  0  0
 27 63  1  0  0  0  0
 27 67  1  0  0  0  0
 28 60  1  0  0  0  0
 28 61  2  0  0  0  0
 28 69  1  0  0  0  0
 29 68  1  0  0  0  0
 29 74  2  0  0  0  0
 30 45  1  0  0  0  0
 30 70  1  0  0  0  0
 30 75  2  0  0  0  0
 31 56  1  0  0  0  0
 31 65  1  0  0  0  0
 31 76  2  0  0  0  0
 32 57  1  0  0  0  0
 32 71  1  0  0  0  0
 32 77  2  0  0  0  0
 33 66  1  0  0  0  0
 33 72  1  0  0  0  0
 33 78  2  0  0  0  0
 34 37  1  0  0  0  0
 35 45  1  0  0  0  0
 36 65  1  0  0  0  0
 37 39  1  0  0  0  0
 38 40  1  0  0  0  0
 38 42  1  0  0  0  0
 39 44  1  0  0  0  0
 40 46  1  0  0  0  0
 41 47  1  0  0  0  0
 41 48  1  0  0  0  0
 42 66  1  0  0  0  0
 43 46  1  0  0  0  0
 43 66  1  0  0  0  0
 44 70  1  0  0  0  0
 45 65  1  0  0  0  0
 46 63  1  0  0  0  0
 47 48  1  0  0  0  0
 47 64  1  0  0  0  0
 48 72  1  0  0  0  0
 49 57  1  0  0  0  0
 50 58  1  0  0  0  0
 51 58  1  0  0  0  0
 52 58  1  0  0  0  0
 53 73  1  0  0  0  0
 54 55  1  0  0  0  0
 54 69  1  0  0  0  0
 55 80  1  0  0  0  0
 56 58  1  0  0  0  0
 56 71  1  0  0  0  0
 57 73  1  0  0  0  0
 59 63  1  0  0  0  0
 60 62  2  0  0  0  0
 61 64  1  0  0  0  0
 62 64  1  0  0  0  0
M  CHG  1  73   1
M  ISO  4  33 100  55 101  72 100  80 101
M  END
> <Batch ID>
0191

> <Smiles>
CNC(C)C(=O)NC(C(=O)N1Cc2cc([101O:1][101CH2:1]CNc3nnn(C4CC4[100NH:0][100C:0](=O)N4CCCC(n5nc(-c6ccc(Oc7ccc(F)cc7F)cc6)c(C(N)=O)c5N)C4)n3)ccc2CC1C(=O)NC1CCCc2ccccc21)C(C)(C)C

> <Shape>
0.282

> <Color>
0.118

> <Negative vol penalty>
0.000

$$$$

  -OEChem-04052323273D

 80 88  0     1  0  0  0  0  0999 V2000
  -26.9603  -11.1951   17.7001 C   0  0  0  0  0  0  0  0  0  0  0  0
  -26.2727  -12.2641   17.1345 C   0  0  0  0  0  0  0  0  0  0  0  0
  -29.6638  -28.1779   21.2523 C   0  0  0  0  0  0  0  0  0  0  0  0
  -28.0980  -27.6383   19.4933 C   0  0  0  0  0  0  0  0  0  0  0  0
  -26.8955  -10.9753   19.0753 C   0  0  0  0  0  0  0  0  0  0  0  0
  -25.5189  -13.1133   17.9439 C   0  0  0  0  0  0  0  0  0  0  0  0
  -23.4812  -19.9599   18.4808 C   0  0  0  0  0  0  0  0  0  0  0  0
  -30.4624  -27.0993   20.8723 C   0  0  0  0  0  0  0  0  0  0  0  0
  -28.8966  -26.5597   19.1132 C   0  0  0  0  0  0  0  0  0  0  0  0
  -22.3303  -20.7327   18.6294 C   0  0  0  0  0  0  0  0  0  0  0  0
  -29.4872  -23.4029   20.1701 C   0  0  0  0  0  0  0  0  0  0  0  0
  -28.8539  -22.1880   19.9087 C   0  0  0  0  0  0  0  0  0  0  0  0
  -22.3554  -20.3026   21.0030 C   0  0  0  0  0  0  0  0  0  0  0  0
  -29.7044  -22.2310   17.6477 C   0  0  0  0  0  0  0  0  0  0  0  0
  -28.4815  -28.4474   20.5628 C   0  0  0  0  0  0  0  0  0  0  0  0
  -27.7320  -30.8844   20.4811 C   0  0  0  0  0  0  0  0  0  0  0  0
  -26.1483  -11.8280   19.9032 C   0  0  0  0  0  0  0  0  0  0  0  0
  -24.0726  -19.3428   19.5924 C   0  0  0  0  0  0  0  0  0  0  0  0
  -25.4429  -12.9039   19.3313 C   0  0  0  0  0  0  0  0  0  0  0  0
  -23.5153  -19.5247   20.8661 C   0  0  0  0  0  0  0  0  0  0  0  0
  -30.0788  -26.2902   19.8028 C   0  0  0  0  0  0  0  0  0  0  0  0
  -21.7656  -20.9018   19.8902 C   0  0  0  0  0  0  0  0  0  0  0  0
  -30.2291  -24.0320   19.1702 C   0  0  0  0  0  0  0  0  0  0  0  0
  -28.9625  -21.6020   18.6476 C   0  0  0  0  0  0  0  0  0  0  0  0
  -30.3377  -23.4460   17.9091 C   0  0  0  0  0  0  0  0  0  0  0  0
  -27.6558  -29.5611   20.9552 C   0  0  0  0  0  0  0  0  0  0  0  0
  -26.7399  -31.5497   21.1591 C   0  0  0  0  0  0  0  0  0  0  0  0
  -28.6201  -31.4608   19.5143 C   0  0  0  0  0  0  0  0  0  0  0  0
  -24.6472  -16.3355   20.4467 C   0  0  0  0  0  0  0  0  0  0  0  0
  -26.2116  -17.7456   22.9138 C   0  0  0  0  0  0  0  0  0  0  0  0
  -26.5993  -20.4854   24.9113 C   0  0  0  0  0  0  0  0  0  0  0  0
  -21.6341  -29.7480   23.7156 C   0  0  0  0  0  0  0  0  0  0  0  0
  -26.0699  -11.5224   21.3781 C   0  0  0  0  0  0  0  0  0  0  0  0
  -25.3292  -18.5343   19.4192 C   0  0  0  0  0  0  0  0  0  0  0  0
  -24.1232  -18.9001   22.0944 C   0  0  0  0  0  0  0  0  0  0  0  0
  -25.5524  -12.6893   22.2152 C   0  0  0  0  0  0  0  0  0  0  0  0
  -24.3244  -31.4702   25.2882 C   0  0  0  0  0  0  0  0  0  0  0  0
  -24.3129  -13.3009   21.5699 C   0  0  0  0  0  0  0  0  0  0  0  0
  -25.4901  -31.2956   24.3133 C   0  0  0  0  0  0  0  0  0  0  0  0
  -20.3538  -23.5714   22.2881 C   0  0  0  0  0  0  0  0  0  0  0  0
  -23.4415  -30.2253   25.3410 C   0  0  0  0  0  0  0  0  0  0  0  0
  -24.1113  -29.5873   23.0567 C   0  0  0  0  0  0  0  0  0  0  0  0
  -20.1471  -24.9244   22.9861 C   0  0  0  0  0  0  0  0  0  0  0  0
  -24.6346  -13.8618   20.1795 C   0  0  1  0  0  0  0  0  0  0  0  0
  -25.5534  -17.5299   20.5453 C   0  0  1  0  0  0  0  0  0  0  0  0
  -24.9981  -30.8375   22.9272 C   0  0  2  0  0  0  0  0  0  0  0  0
  -20.4223  -24.3910   20.9825 C   0  0  1  0  0  0  0  0  0  0  0  0
  -27.9312  -21.3264   26.8648 C   0  0  0  0  0  0  0  0  0  0  0  0
  -24.5262  -16.0351   24.7963 C   0  0  0  0  0  0  0  0  0  0  0  0
  -25.1924  -17.5607   26.6664 C   0  0  0  0  0  0  0  0  0  0  0  0
  -26.9305  -16.2475   25.4510 C   0  0  0  0  0  0  0  0  0  0  0  0
  -27.7467  -22.7032   23.3226 C   0  0  0  0  0  0  0  0  0  0  0  0
  -19.6653  -23.8433   19.7898 C   0  0  0  0  0  0  0  0  0  0  0  0
  -19.4012  -27.8399   22.1678 C   0  0  0  0  0  0  0  0  0  0  0  0
  -19.9383  -29.2536   21.9723 C   0  0  0  0  0  0  0  0  0  0  0  0
  -20.2231  -26.8010   21.4155 C   0  0  0  0  0  0  0  0  0  0  0  0
  -20.4541  -22.7289   19.1173 C   0  0  0  0  0  0  0  0  0  1  0  0
  -25.8274  -18.2088   24.2983 C   0  0  1  0  0  0  0  0  0  0  0  0
  -27.8382  -21.2457   25.3490 C   0  0  2  0  0  0  0  0  0  0  0  0
  -25.6063  -17.0233   25.2798 C   0  0  0  0  0  0  0  0  0  0  0  0
  -26.6916  -29.3937   21.8642 N   0  0  0  0  0  0  0  0  0  0  0  0
  -26.1528  -30.6206   21.9668 N   0  0  0  0  0  0  0  0  0  0  0  0
  -25.3478  -18.1135   21.8725 N   0  0  0  0  0  0  0  0  0  0  0  0
  -23.0073  -29.8447   23.9947 N   0  0  0  0  0  0  0  0  0  0  0  0
  -26.3211  -32.8329   21.1372 N   0  0  0  0  0  0  0  0  0  0  0  0
  -29.5805  -30.6354   18.9137 N   0  0  0  0  0  0  0  0  0  0  0  0
  -25.3136  -15.1348   20.2927 N   0  0  0  0  0  0  0  0  0  0  0  0
  -26.8639  -19.1461   24.7174 N   0  0  0  0  0  0  0  0  0  0  0  0
  -21.3087  -29.3879   22.4136 N   0  0  0  0  0  0  0  0  0  0  0  0
  -19.6714  -25.4559   21.6926 N   0  3  2  0  0  0  0  0  0  0  0  0
  -27.8137  -22.6329   24.8051 N   0  3  0  0  0  0  0  0  0  0  0  0
  -28.5745  -32.6755   19.2047 O   0  0  0  0  0  0  0  0  0  0  0  0
  -23.4332  -16.4915   20.5075 O   0  0  0  0  0  0  0  0  0  0  0  0
  -27.2439  -17.0879   22.7609 O   0  0  0  0  0  0  0  0  0  0  0  0
  -25.5054  -21.0249   24.7604 O   0  0  0  0  0  0  0  0  0  0  0  0
  -20.7625  -29.9717   24.5625 O   0  0  0  0  0  0  0  0  0  0  0  0
  -30.8580  -25.2378   19.4315 O   0  0  0  0  0  0  0  0  0  0  0  0
  -20.6419  -21.6550   20.0380 O   0  0  0  0  0  0  0  0  0  1  0  0
  -28.3555  -20.4345   18.3972 F   0  0  0  0  0  0  0  0  0  0  0  0
  -31.0501  -24.0450   16.9450 F   0  0  0  0  0  0  0  0  0  0  0  0
  1  2  1  0  0  0  0
  1  5  2  0  0  0  0
  2  6  2  0  0  0  0
  3  8  2  0  0  0  0
  3 15  1  0  0  0  0
  4  9  1  0  0  0  0
  4 15  2  0  0  0  0
  5 17  1  0  0  0  0
  6 19  1  0  0  0  0
  7 10  2  0  0  0  0
  7 18  1  0  0  0  0
  8 21  1  0  0  0  0
  9 21  2  0  0  0  0
 10 22  1  0  0  0  0
 11 12  2  0  0  0  0
 11 23  1  0  0  0  0
 12 24  1  0  0  0  0
 13 20  1  0  0  0  0
 13 22  2  0  0  0  0
 14 24  2  0  0  0  0
 14 25  1  0  0  0  0
 15 26  1  0  0  0  0
 16 26  1  0  0  0  0
 16 27  2  0  0  0  0
 16 28  1  0  0  0  0
 17 19  2  0  0  0  0
 17 33  1  0  0  0  0
 18 20  2  0  0  0  0
 18 34  1  0  0  0  0
 19 44  1  0  0  0  0
 20 35  1  0  0  0  0
 21 77  1  0  0  0  0
 22 78  1  0  0  0  0
 23 25  2  0  0  0  0
 23 77  1  0  0  0  0
 24 79  1  0  0  0  0
 25 80  1  0  0  0  0
 26 61  2  0  0  0  0
 27 62  1  0  0  0  0
 27 65  1  0  0  0  0
 28 66  1  0  0  0  0
 28 72  2  0  0  0  0
 29 45  1  0  0  0  0
 29 67  1  0  0  0  0
 29 73  2  0  0  0  0
 30 58  1  0  0  0  0
 30 63  1  0  0  0  0
 30 74  2  0  0  0  0
 31 59  1  0  0  0  0
 31 68  1  0  0  0  0
 31 75  2  0  0  0  0
 32 64  1  0  0  0  0
 32 69  1  0  0  0  0
 32 76  2  0  0  0  0
 33 36  1  0  0  0  0
 34 45  1  0  0  0  0
 35 63  1  0  0  0  0
 36 38  1  0  0  0  0
 37 39  1  0  0  0  0
 37 41  1  0  0  0  0
 38 44  1  0  0  0  0
 39 46  1  0  0  0  0
 40 43  1  0  0  0  0
 40 47  1  0  0  0  0
 41 64  1  0  0  0  0
 42 46  1  0  0  0  0
 42 64  1  0  0  0  0
 43 70  1  0  0  0  0
 44 67  1  0  0  0  0
 45 63  1  0  0  0  0
 46 62  1  0  0  0  0
 47 53  1  0  0  0  0
 47 70  1  0  0  0  0
 48 59  1  0  0  0  0
 49 60  1  0  0  0  0
 50 60  1  0  0  0  0
 51 60  1  0  0  0  0
 52 71  1  0  0  0  0
 53 57  1  0  0  0  0
 54 55  1  0  0  0  0
 54 56  1  0  0  0  0
 55 69  1  0  0  0  0
 56 70  1  0  0  0  0
 57 78  1  0  0  0  0
 58 60  1  0  0  0  0
 58 68  1  0  0  0  0
 59 71  1  0  0  0  0
 61 62  1  0  0  0  0
M  CHG  2  70   1  71   1
M  ISO  4  32 100  57 101  69 100  78 101
M  END
> <Batch ID>
0191

> <Smiles>
CNC(C)C(=O)NC(C(=O)N1Cc2cc([101O:1][101CH2:1]CC3CCN3CCC[100NH:0][100C:0](=O)N3CCCC(n4nc(-c5ccc(Oc6ccc(F)cc6F)cc5)c(C(N)=O)c4N)C3)ccc2CC1C(=O)NC1CCCc2ccccc21)C(C)(C)C

> <Shape>
0.207

> <Color>
0.076

> <Negative vol penalty>
0.000

$$$$

  -OEChem-04052323273D

 83 92  0     1  0  0  0  0  0999 V2000
  -18.6789  -28.0464   22.5642 C   0  0  0  0  0  0  0  0  0  0  0  0
  -18.7847  -26.7618   22.0406 C   0  0  0  0  0  0  0  0  0  0  0  0
  -28.5526  -26.1188   18.9524 C   0  0  0  0  0  0  0  0  0  0  0  0
  -26.5822  -25.4605   20.1858 C   0  0  0  0  0  0  0  0  0  0  0  0
  -19.7527  -28.6073   23.2543 C   0  0  0  0  0  0  0  0  0  0  0  0
  -19.9650  -26.0378   22.2059 C   0  0  0  0  0  0  0  0  0  0  0  0
  -20.4931  -19.9869   22.9890 C   0  0  0  0  0  0  0  0  0  0  0  0
  -27.9370  -27.3232   18.6117 C   0  0  0  0  0  0  0  0  0  0  0  0
  -25.9666  -26.6649   19.8452 C   0  0  0  0  0  0  0  0  0  0  0  0
  -20.7919  -18.9495   22.1069 C   0  0  0  0  0  0  0  0  0  0  0  0
  -26.0705  -29.8873   20.8580 C   0  0  0  0  0  0  0  0  0  0  0  0
  -25.4003  -30.5789   21.8670 C   0  0  0  0  0  0  0  0  0  0  0  0
  -23.1070  -19.0549   22.7766 C   0  0  0  0  0  0  0  0  0  0  0  0
  -23.3417  -30.4131   20.6132 C   0  0  0  0  0  0  0  0  0  0  0  0
  -27.8752  -25.1874   19.7394 C   0  0  0  0  0  0  0  0  0  0  0  0
  -29.3055  -23.6847   21.2238 C   0  0  0  0  0  0  0  0  0  0  0  0
  -20.9432  -27.8861   23.4364 C   0  0  0  0  0  0  0  0  0  0  0  0
  -21.5027  -20.5745   23.7649 C   0  0  0  0  0  0  0  0  0  0  0  0
  -21.0562  -26.5902   22.8979 C   0  0  0  0  0  0  0  0  0  0  0  0
  -22.8180  -20.0979   23.6697 C   0  0  0  0  0  0  0  0  0  0  0  0
  -26.6440  -27.5963   19.0581 C   0  0  0  0  0  0  0  0  0  0  0  0
  -22.0995  -18.4853   21.9984 C   0  0  0  0  0  0  0  0  0  0  0  0
  -25.3764  -29.4587   19.7266 C   0  0  0  0  0  0  0  0  0  0  0  0
  -24.0359  -30.8418   21.7447 C   0  0  0  0  0  0  0  0  0  0  0  0
  -24.0120  -29.7216   19.6042 C   0  0  0  0  0  0  0  0  0  0  0  0
  -28.5104  -23.9429   20.0911 C   0  0  0  0  0  0  0  0  0  0  0  0
  -29.6658  -22.3654   21.0969 C   0  0  0  0  0  0  0  0  0  0  0  0
  -29.6844  -24.5591   22.2950 C   0  0  0  0  0  0  0  0  0  0  0  0
  -22.7441  -23.4916   23.9946 C   0  0  0  0  0  0  0  0  0  0  0  0
  -24.3702  -22.1811   26.4767 C   0  0  0  0  0  0  0  0  0  0  0  0
  -25.6099  -19.3730   27.9682 C   0  0  0  0  0  0  0  0  0  0  0  0
  -28.3590  -17.1555   20.0904 C   0  0  0  0  0  0  0  0  0  0  0  0
  -22.0937  -28.5523   24.1485 C   0  0  0  0  0  0  0  0  0  0  0  0
  -21.1592  -21.6747   24.7313 C   0  0  0  0  0  0  0  0  0  0  0  0
  -23.9345  -20.6812   24.4953 C   0  0  0  0  0  0  0  0  0  0  0  0
  -23.1754  -27.5763   24.6041 C   0  0  0  0  0  0  0  0  0  0  0  0
  -29.1736  -19.1760   17.2018 C   0  0  0  0  0  0  0  0  0  0  0  0
  -23.5273  -26.6068   23.4802 C   0  0  0  0  0  0  0  0  0  0  0  0
  -28.8834  -12.5588   19.8948 C   0  0  0  0  0  0  0  0  0  0  0  0
  -29.1392  -20.5840   17.7984 C   0  0  0  0  0  0  0  0  0  0  0  0
  -29.7942  -13.7764   19.6332 C   0  0  0  0  0  0  0  0  0  0  0  0
  -28.0830  -18.2932   17.8021 C   0  0  0  0  0  0  0  0  0  0  0  0
  -21.9311  -14.5940   21.4828 C   0  0  0  0  0  0  0  0  0  0  0  0
  -28.0789  -19.6072   19.8858 C   0  0  0  0  0  0  0  0  0  0  0  0
  -23.5413  -12.8964   21.1048 C   0  0  0  0  0  0  0  0  0  0  0  0
  -22.3111  -25.7638   23.0778 C   0  0  1  0  0  0  0  0  0  0  0  0
  -22.3577  -22.5454   25.0960 C   0  0  1  0  0  0  0  0  0  0  0  0
  -27.6765  -13.5216   19.7491 C   0  0  2  0  0  0  0  0  0  0  0  0
  -23.2128  -15.2316   20.9381 C   0  0  2  0  0  0  0  0  0  0  0  0
  -29.1731  -20.5408   19.3374 C   0  0  2  0  0  0  0  0  0  0  0  0
  -28.6459  -14.6619   20.1698 C   0  0  2  0  0  0  0  0  0  0  0  0
  -24.2733  -14.2057   21.3041 C   0  0  2  0  0  0  0  0  0  0  0  0
  -26.9264  -18.6226   29.9685 C   0  0  0  0  0  0  0  0  0  0  0  0
  -26.9358  -23.1758   25.1581 C   0  0  0  0  0  0  0  0  0  0  0  0
  -28.2189  -21.6192   26.6411 C   0  0  0  0  0  0  0  0  0  0  0  0
  -26.8623  -23.4578   27.6420 C   0  0  0  0  0  0  0  0  0  0  0  0
  -23.3667  -17.7231   28.9707 C   0  0  0  0  0  0  0  0  0  0  0  0
  -26.4966  -13.2641   20.6647 C   0  0  0  0  0  0  0  0  0  0  0  0
  -23.4789  -16.6157   21.4902 C   0  0  0  0  0  0  0  0  0  1  0  0
  -25.6879  -21.4606   26.6301 C   0  0  1  0  0  0  0  0  0  0  0  0
  -25.5386  -18.8789   29.4018 C   0  0  2  0  0  0  0  0  0  0  0  0
  -26.9057  -22.4185   26.5007 C   0  0  0  0  0  0  0  0  0  0  0  0
  -28.3734  -22.8736   19.3026 N   0  0  0  0  0  0  0  0  0  0  0  0
  -29.0874  -21.9306   19.9407 N   0  0  0  0  0  0  0  0  0  0  0  0
  -22.2347  -13.1734   21.7064 N   0  0  0  0  0  0  0  0  0  0  0  0
  -23.5494  -21.7592   25.4212 N   0  0  0  0  0  0  0  0  0  0  0  0
  -28.1832  -18.2802   19.2686 N   0  0  0  0  0  0  0  0  0  0  0  0
  -30.4178  -21.5464   21.8624 N   0  0  0  0  0  0  0  0  0  0  0  0
  -29.2270  -25.8837   22.2698 N   0  0  0  0  0  0  0  0  0  0  0  0
  -22.0879  -24.7068   24.0408 N   0  0  0  0  0  0  0  0  0  0  0  0
  -25.6189  -20.7503   27.9026 N   0  0  0  0  0  0  0  0  0  0  0  0
  -28.4531  -15.9309   19.4379 N   0  0  0  0  0  0  0  0  0  0  0  0
  -25.4507  -14.3002   20.4216 N   0  3  0  0  0  0  0  0  0  0  0  0
  -24.7598  -17.6104   29.4744 N   0  3  0  0  0  0  0  0  0  0  0  0
  -30.4207  -24.1817   23.2378 O   0  0  0  0  0  0  0  0  0  0  0  0
  -23.5771  -23.1454   23.1652 O   0  0  0  0  0  0  0  0  0  0  0  0
  -24.0768  -23.0802   27.2686 O   0  0  0  0  0  0  0  0  0  0  0  0
  -25.6568  -18.6132   27.0033 O   0  0  0  0  0  0  0  0  0  0  0  0
  -28.4339  -17.2302   21.3218 O   0  0  0  0  0  0  0  0  0  0  0  0
  -26.0430  -28.7715   18.7261 O   0  0  0  0  0  0  0  0  0  0  0  0
  -22.3940  -17.4732   21.1376 O   0  0  0  0  0  0  0  0  0  1  0  0
  -23.3921  -31.5046   22.7144 F   0  0  0  0  0  0  0  0  0  0  0  0
  -23.3395  -29.3113   18.5201 F   0  0  0  0  0  0  0  0  0  0  0  0
  1  2  1  0  0  0  0
  1  5  2  0  0  0  0
  2  6  2  0  0  0  0
  3  8  2  0  0  0  0
  3 15  1  0  0  0  0
  4  9  1  0  0  0  0
  4 15  2  0  0  0  0
  5 17  1  0  0  0  0
  6 19  1  0  0  0  0
  7 10  2  0  0  0  0
  7 18  1  0  0  0  0
  8 21  1  0  0  0  0
  9 21  2  0  0  0  0
 10 22  1  0  0  0  0
 11 12  2  0  0  0  0
 11 23  1  0  0  0  0
 12 24  1  0  0  0  0
 13 20  1  0  0  0  0
 13 22  2  0  0  0  0
 14 24  2  0  0  0  0
 14 25  1  0  0  0  0
 15 26  1  0  0  0  0
 16 26  1  0  0  0  0
 16 27  2  0  0  0  0
 16 28  1  0  0  0  0
 17 19  2  0  0  0  0
 17 33  1  0  0  0  0
 18 20  2  0  0  0  0
 18 34  1  0  0  0  0
 19 46  1  0  0  0  0
 20 35  1  0  0  0  0
 21 80  1  0  0  0  0
 22 81  1  0  0  0  0
 23 25  2  0  0  0  0
 23 80  1  0  0  0  0
 24 82  1  0  0  0  0
 25 83  1  0  0  0  0
 26 63  2  0  0  0  0
 27 64  1  0  0  0  0
 27 68  1  0  0  0  0
 28 69  1  0  0  0  0
 28 75  2  0  0  0  0
 29 47  1  0  0  0  0
 29 70  1  0  0  0  0
 29 76  2  0  0  0  0
 30 60  1  0  0  0  0
 30 66  1  0  0  0  0
 30 77  2  0  0  0  0
 31 61  1  0  0  0  0
 31 71  1  0  0  0  0
 31 78  2  0  0  0  0
 32 67  1  0  0  0  0
 32 72  1  0  0  0  0
 32 79  2  0  0  0  0
 33 36  1  0  0  0  0
 34 47  1  0  0  0  0
 35 66  1  0  0  0  0
 36 38  1  0  0  0  0
 37 40  1  0  0  0  0
 37 42  1  0  0  0  0
 38 46  1  0  0  0  0
 39 41  1  0  0  0  0
 39 48  1  0  0  0  0
 40 50  1  0  0  0  0
 41 51  1  0  0  0  0
 42 67  1  0  0  0  0
 43 49  1  0  0  0  0
 43 65  1  0  0  0  0
 44 50  1  0  0  0  0
 44 67  1  0  0  0  0
 45 52  1  0  0  0  0
 45 65  1  0  0  0  0
 46 70  1  0  0  0  0
 47 66  1  0  0  0  0
 48 51  1  0  0  0  0
 48 58  1  0  0  0  0
 49 52  1  0  0  0  0
 49 59  1  0  0  0  0
 50 64  1  0  0  0  0
 51 72  1  0  0  0  0
 52 73  1  0  0  0  0
 53 61  1  0  0  0  0
 54 62  1  0  0  0  0
 55 62  1  0  0  0  0
 56 62  1  0  0  0  0
 57 74  1  0  0  0  0
 58 73  1  0  0  0  0
 59 81  1  0  0  0  0
 60 62  1  0  0  0  0
 60 71  1  0  0  0  0
 61 74  1  0  0  0  0
 63 64  1  0  0  0  0
M  CHG  2  73   1  74   1
M  ISO  4  32 100  59 101  72 100  81 101
M  END
> <Batch ID>
0191

> <Smiles>
CNC(C)C(=O)NC(C(=O)N1Cc2cc([101O:1][101CH2:1]C3CNCC3NCC3CCC3[100NH:0][100C:0](=O)N3CCCC(n4nc(-c5ccc(Oc6ccc(F)cc6F)cc5)c(C(N)=O)c4N)C3)ccc2CC1C(=O)NC1CCCc2ccccc21)C(C)(C)C

> <Shape>
0.233

> <Color>
0.069

> <Negative vol penalty>
0.000

$$$$

  -OEChem-04052323273D

 85 94  0     1  0  0  0  0  0999 V2000
  -24.1420   -7.1335   24.7428 C   0  0  0  0  0  0  0  0  0  0  0  0
  -25.3423   -7.7688   24.4410 C   0  0  0  0  0  0  0  0  0  0  0  0
  -24.5337  -30.6609   23.2253 C   0  0  0  0  0  0  0  0  0  0  0  0
  -23.6926  -31.6906   21.2081 C   0  0  0  0  0  0  0  0  0  0  0  0
  -23.0350   -7.3069   23.9132 C   0  0  0  0  0  0  0  0  0  0  0  0
  -25.4366   -8.5770   23.3086 C   0  0  0  0  0  0  0  0  0  0  0  0
  -28.7602  -13.6844   22.6972 C   0  0  0  0  0  0  0  0  0  0  0  0
  -24.4397  -31.8841   23.8890 C   0  0  0  0  0  0  0  0  0  0  0  0
  -23.5985  -32.9139   21.8718 C   0  0  0  0  0  0  0  0  0  0  0  0
  -30.0099  -13.9278   22.1290 C   0  0  0  0  0  0  0  0  0  0  0  0
  -26.2119  -34.7558   24.0811 C   0  0  0  0  0  0  0  0  0  0  0  0
  -27.2897  -35.1455   24.8761 C   0  0  0  0  0  0  0  0  0  0  0  0
  -28.9385  -14.5962   20.0737 C   0  0  0  0  0  0  0  0  0  0  0  0
  -25.8416  -35.2073   26.8091 C   0  0  0  0  0  0  0  0  0  0  0  0
  -24.1602  -30.5641   21.8848 C   0  0  0  0  0  0  0  0  0  0  0  0
  -23.2661  -28.3062   21.1039 C   0  0  0  0  0  0  0  0  0  0  0  0
  -23.1130   -8.1254   22.7753 C   0  0  0  0  0  0  0  0  0  0  0  0
  -27.5887  -13.8849   21.9530 C   0  0  0  0  0  0  0  0  0  0  0  0
  -24.3299   -8.7604   22.4622 C   0  0  0  0  0  0  0  0  0  0  0  0
  -27.6751  -14.3570   20.6355 C   0  0  0  0  0  0  0  0  0  0  0  0
  -23.9721  -33.0106   23.2123 C   0  0  0  0  0  0  0  0  0  0  0  0
  -30.0993  -14.3811   20.8161 C   0  0  0  0  0  0  0  0  0  0  0  0
  -24.9489  -34.5920   24.6501 C   0  0  0  0  0  0  0  0  0  0  0  0
  -27.1046  -35.3712   26.2401 C   0  0  0  0  0  0  0  0  0  0  0  0
  -24.7637  -34.8177   26.0141 C   0  0  0  0  0  0  0  0  0  0  0  0
  -24.2577  -29.3010   21.1985 C   0  0  0  0  0  0  0  0  0  0  0  0
  -23.8467  -27.3129   20.3538 C   0  0  0  0  0  0  0  0  0  0  0  0
  -32.4259  -17.4363   18.6001 C   0  0  0  0  0  0  0  0  0  0  0  0
  -31.9750  -19.1247   19.7416 C   0  0  0  0  0  0  0  0  0  0  0  0
  -21.9388  -28.2822   21.6457 C   0  0  0  0  0  0  0  0  0  0  0  0
  -25.2143  -12.0189   20.9612 C   0  0  0  0  0  0  0  0  0  0  0  0
  -23.9392  -14.8311   19.9673 C   0  0  0  0  0  0  0  0  0  0  0  0
  -24.4503  -18.0683   19.0153 C   0  0  0  0  0  0  0  0  0  0  0  0
  -27.9113  -24.0534   19.0653 C   0  0  0  0  0  0  0  0  0  0  0  0
  -21.9032   -8.2447   21.8826 C   0  0  0  0  0  0  0  0  0  0  0  0
  -26.2474  -13.6432   22.5892 C   0  0  0  0  0  0  0  0  0  0  0  0
  -26.4467  -14.6076   19.8008 C   0  0  0  0  0  0  0  0  0  0  0  0
  -21.9789   -9.4168   20.9076 C   0  0  0  0  0  0  0  0  0  0  0  0
  -28.1293  -27.2703   17.6749 C   0  0  0  0  0  0  0  0  0  0  0  0
  -23.3445   -9.4596   20.2293 C   0  0  0  0  0  0  0  0  0  0  0  0
  -27.0538  -28.0157   18.4647 C   0  0  0  0  0  0  0  0  0  0  0  0
  -31.1104  -22.7555   19.7504 C   0  0  0  0  0  0  0  0  0  0  0  0
  -29.5275  -20.9943   18.8783 C   0  0  0  0  0  0  0  0  0  0  0  0
  -28.9336  -26.3169   18.5606 C   0  0  0  0  0  0  0  0  0  0  0  0
  -30.4240  -23.7912   18.8550 C   0  0  0  0  0  0  0  0  0  0  0  0
  -28.8933  -22.0548   17.9826 C   0  0  0  0  0  0  0  0  0  0  0  0
  -27.0246  -26.1116   20.1202 C   0  0  0  0  0  0  0  0  0  0  0  0
  -24.4645   -9.6649   21.2564 C   0  0  1  0  0  0  0  0  0  0  0  0
  -25.1400  -13.3902   21.5708 C   0  0  1  0  0  0  0  0  0  0  0  0
  -26.1617  -27.0340   19.2453 C   0  0  1  0  0  0  0  0  0  0  0  0
  -30.9888  -21.3436   19.1724 C   0  0  0  0  0  0  0  0  0  0  0  0
  -32.5697  -16.5199   17.4452 C   0  0  0  0  0  0  0  0  0  0  0  0
  -23.2191  -20.1067   18.2239 C   0  0  0  0  0  0  0  0  0  0  0  0
  -23.6446  -13.5764   17.2017 C   0  0  0  0  0  0  0  0  0  0  0  0
  -23.3242  -15.8774   16.2684 C   0  0  0  0  0  0  0  0  0  0  0  0
  -21.6985  -14.9690   17.9280 C   0  0  0  0  0  0  0  0  0  0  0  0
  -25.3314  -19.6515   21.3555 C   0  0  0  0  0  0  0  0  0  0  0  0
  -33.3852  -15.8693   20.3745 C   0  0  0  0  0  0  0  0  0  0  0  0
  -32.3648  -15.0301   21.1359 C   0  0  0  0  0  0  0  0  0  1  0  0
  -24.0085  -15.6477   18.6995 C   0  0  1  0  0  0  0  0  0  0  0  0
  -23.7682  -19.3597   19.4294 C   0  0  2  0  0  0  0  0  0  0  0  0
  -23.1924  -15.0112   17.5392 C   0  0  0  0  0  0  0  0  0  0  0  0
  -25.3829  -28.9698   20.5596 N   0  0  0  0  0  0  0  0  0  0  0  0
  -31.9083  -18.6961   18.5026 N   0  0  0  0  0  0  0  0  0  0  0  0
  -32.5096  -18.1562   20.5328 N   0  0  0  0  0  0  0  0  0  0  0  0
  -25.1019  -27.7557   20.0565 N   0  0  0  0  0  0  0  0  0  0  0  0
  -32.8087  -17.0584   19.8217 N   0  0  0  0  0  0  0  0  0  0  0  0
  -25.1584  -14.3505   20.4655 N   0  0  0  0  0  0  0  0  0  0  0  0
  -28.0389  -25.4281   19.3149 N   0  0  0  0  0  0  0  0  0  0  0  0
  -29.0405  -23.3905   18.5617 N   0  0  0  0  0  0  0  0  0  0  0  0
  -23.4008  -26.1126   19.9261 N   0  0  0  0  0  0  0  0  0  0  0  0
  -21.5017  -29.3851   22.3919 N   0  0  0  0  0  0  0  0  0  0  0  0
  -31.5438  -20.3880   20.1056 N   0  0  0  0  0  0  0  0  0  0  0  0
  -24.5255  -11.0512   21.6673 N   0  0  0  0  0  0  0  0  0  0  0  0
  -23.5841  -16.9964   19.0588 N   0  0  0  0  0  0  0  0  0  0  0  0
  -24.7313  -20.2509   20.1358 N   0  3  0  0  0  0  0  0  0  0  0  0
  -21.1692  -27.3044   21.4870 O   0  0  0  0  0  0  0  0  0  0  0  0
  -25.8483  -11.8515   19.9259 O   0  0  0  0  0  0  0  0  0  0  0  0
  -22.8443  -14.6333   20.5000 O   0  0  0  0  0  0  0  0  0  0  0  0
  -25.6323  -18.0163   18.6828 O   0  0  0  0  0  0  0  0  0  0  0  0
  -26.8508  -23.4532   19.2800 O   0  0  0  0  0  0  0  0  0  0  0  0
  -23.8800  -34.2043   23.8596 O   0  0  0  0  0  0  0  0  0  0  0  0
  -31.3264  -14.6206   20.2550 O   0  0  0  0  0  0  0  0  0  1  0  0
  -28.1400  -35.7439   27.0037 F   0  0  0  0  0  0  0  0  0  0  0  0
  -23.5530  -34.6607   26.5665 F   0  0  0  0  0  0  0  0  0  0  0  0
  1  2  1  0  0  0  0
  1  5  2  0  0  0  0
  2  6  2  0  0  0  0
  3  8  2  0  0  0  0
  3 15  1  0  0  0  0
  4  9  1  0  0  0  0
  4 15  2  0  0  0  0
  5 17  1  0  0  0  0
  6 19  1  0  0  0  0
  7 10  2  0  0  0  0
  7 18  1  0  0  0  0
  8 21  1  0  0  0  0
  9 21  2  0  0  0  0
 10 22  1  0  0  0  0
 11 12  2  0  0  0  0
 11 23  1  0  0  0  0
 12 24  1  0  0  0  0
 13 20  1  0  0  0  0
 13 22  2  0  0  0  0
 14 24  2  0  0  0  0
 14 25  1  0  0  0  0
 15 26  1  0  0  0  0
 16 26  1  0  0  0  0
 16 27  2  0  0  0  0
 16 30  1  0  0  0  0
 17 19  2  0  0  0  0
 17 35  1  0  0  0  0
 18 20  2  0  0  0  0
 18 36  1  0  0  0  0
 19 48  1  0  0  0  0
 20 37  1  0  0  0  0
 21 82  1  0  0  0  0
 22 83  1  0  0  0  0
 23 25  2  0  0  0  0
 23 82  1  0  0  0  0
 24 84  1  0  0  0  0
 25 85  1  0  0  0  0
 26 63  2  0  0  0  0
 27 66  1  0  0  0  0
 27 71  1  0  0  0  0
 28 52  1  0  0  0  0
 28 64  2  0  0  0  0
 28 67  1  0  0  0  0
 29 64  1  0  0  0  0
 29 65  2  0  0  0  0
 29 73  1  0  0  0  0
 30 72  1  0  0  0  0
 30 77  2  0  0  0  0
 31 49  1  0  0  0  0
 31 74  1  0  0  0  0
 31 78  2  0  0  0  0
 32 60  1  0  0  0  0
 32 68  1  0  0  0  0
 32 79  2  0  0  0  0
 33 61  1  0  0  0  0
 33 75  1  0  0  0  0
 33 80  2  0  0  0  0
 34 69  1  0  0  0  0
 34 70  1  0  0  0  0
 34 81  2  0  0  0  0
 35 38  1  0  0  0  0
 36 49  1  0  0  0  0
 37 68  1  0  0  0  0
 38 40  1  0  0  0  0
 39 41  1  0  0  0  0
 39 44  1  0  0  0  0
 40 48  1  0  0  0  0
 41 50  1  0  0  0  0
 42 45  1  0  0  0  0
 42 51  1  0  0  0  0
 43 46  1  0  0  0  0
 43 51  1  0  0  0  0
 44 69  1  0  0  0  0
 45 70  1  0  0  0  0
 46 70  1  0  0  0  0
 47 50  1  0  0  0  0
 47 69  1  0  0  0  0
 48 74  1  0  0  0  0
 49 68  1  0  0  0  0
 50 66  1  0  0  0  0
 51 73  1  0  0  0  0
 53 61  1  0  0  0  0
 54 62  1  0  0  0  0
 55 62  1  0  0  0  0
 56 62  1  0  0  0  0
 57 76  1  0  0  0  0
 58 59  1  0  0  0  0
 58 67  1  0  0  0  0
 59 83  1  0  0  0  0
 60 62  1  0  0  0  0
 60 75  1  0  0  0  0
 61 76  1  0  0  0  0
 63 66  1  0  0  0  0
 65 67  1  0  0  0  0
M  CHG  1  76   1
M  ISO  4  34 100  59 101  70 100  83 101
M  END
> <Batch ID>
0191

> <Smiles>
CNC(C)C(=O)NC(C(=O)N1Cc2cc([101O:1][101CH2:1]Cn3nc(NC4CC[100N:0]([100C:0](=O)N5CCCC(n6nc(-c7ccc(Oc8ccc(F)cc8F)cc7)c(C(N)=O)c6N)C5)CC4)nc3C)ccc2CC1C(=O)NC1CCCc2ccccc21)C(C)(C)C

> <Shape>
0.249

> <Color>
0.078

> <Negative vol penalty>
0.000

$$$$

  -OEChem-04052323273D

 83 92  0     1  0  0  0  0  0999 V2000
  -16.8269  -27.9313   23.0274 C   0  0  0  0  0  0  0  0  0  0  0  0
  -17.8545  -27.6091   23.9081 C   0  0  0  0  0  0  0  0  0  0  0  0
  -25.9920  -11.7067   21.4992 C   0  0  0  0  0  0  0  0  0  0  0  0
  -24.2299  -11.8327   19.8511 C   0  0  0  0  0  0  0  0  0  0  0  0
  -17.1228  -28.5169   21.7972 C   0  0  0  0  0  0  0  0  0  0  0  0
  -19.1787  -27.8713   23.5586 C   0  0  0  0  0  0  0  0  0  0  0  0
  -25.4582  -29.7234   26.4661 C   0  0  0  0  0  0  0  0  0  0  0  0
  -25.4130  -10.5543   22.0303 C   0  0  0  0  0  0  0  0  0  0  0  0
  -23.6508  -10.6801   20.3822 C   0  0  0  0  0  0  0  0  0  0  0  0
  -26.7905  -29.3143   26.5030 C   0  0  0  0  0  0  0  0  0  0  0  0
  -21.9063   -7.5668   21.0764 C   0  0  0  0  0  0  0  0  0  0  0  0
  -21.4737   -6.5867   20.1831 C   0  0  0  0  0  0  0  0  0  0  0  0
  -27.1767  -30.4014   24.3844 C   0  0  0  0  0  0  0  0  0  0  0  0
  -23.7267   -6.3602   19.3405 C   0  0  0  0  0  0  0  0  0  0  0  0
  -25.4004  -12.3460   20.4096 C   0  0  0  0  0  0  0  0  0  0  0  0
  -26.9607  -13.6104   18.8366 C   0  0  0  0  0  0  0  0  0  0  0  0
  -18.4506  -28.7952   21.4364 C   0  0  0  0  0  0  0  0  0  0  0  0
  -24.9716  -30.4666   25.3810 C   0  0  0  0  0  0  0  0  0  0  0  0
  -19.4927  -28.4599   22.3218 C   0  0  0  0  0  0  0  0  0  0  0  0
  -25.8385  -30.8209   24.3374 C   0  0  0  0  0  0  0  0  0  0  0  0
  -24.2424  -10.0409   21.4718 C   0  0  0  0  0  0  0  0  0  0  0  0
  -27.6493  -29.6508   25.4607 C   0  0  0  0  0  0  0  0  0  0  0  0
  -23.2491   -7.9436   21.1017 C   0  0  0  0  0  0  0  0  0  0  0  0
  -22.3839   -5.9834   19.3152 C   0  0  0  0  0  0  0  0  0  0  0  0
  -24.1593   -7.3403   20.2338 C   0  0  0  0  0  0  0  0  0  0  0  0
  -25.9978  -13.5368   19.8609 C   0  0  0  0  0  0  0  0  0  0  0  0
  -27.1980  -14.9546   18.6843 C   0  0  0  0  0  0  0  0  0  0  0  0
  -27.5848  -12.5578   18.0895 C   0  0  0  0  0  0  0  0  0  0  0  0
  -22.7446  -30.0002   23.1614 C   0  0  0  0  0  0  0  0  0  0  0  0
  -23.4496  -33.0650   22.3661 C   0  0  0  0  0  0  0  0  0  0  0  0
  -25.7106  -35.6211   22.4035 C   0  0  0  0  0  0  0  0  0  0  0  0
  -28.1484  -19.8849   20.5843 C   0  0  0  0  0  0  0  0  0  0  0  0
  -18.7247  -29.3857   20.0760 C   0  0  0  0  0  0  0  0  0  0  0  0
  -23.5385  -30.9231   25.3691 C   0  0  0  0  0  0  0  0  0  0  0  0
  -25.3705  -31.6346   23.1595 C   0  0  0  0  0  0  0  0  0  0  0  0
  -20.1264  -29.9743   19.9386 C   0  0  0  0  0  0  0  0  0  0  0  0
  -24.7564  -18.9711   20.5345 C   0  0  0  0  0  0  0  0  0  0  0  0
  -21.1678  -29.0082   20.4946 C   0  0  0  0  0  0  0  0  0  0  0  0
  -24.8510  -17.4685   20.2713 C   0  0  0  0  0  0  0  0  0  0  0  0
  -25.8302  -19.4506   21.5128 C   0  0  0  0  0  0  0  0  0  0  0  0
  -27.6715  -21.5726   22.4142 C   0  0  0  0  0  0  0  0  0  0  0  0
  -28.9089  -22.2325   20.3840 C   0  0  0  0  0  0  0  0  0  0  0  0
  -27.3025  -17.5733   20.8593 C   0  0  0  0  0  0  0  0  0  0  0  0
  -28.8323  -22.0417   23.2856 C   0  0  0  0  0  0  0  0  0  0  0  0
  -30.0945  -22.6867   21.2197 C   0  0  0  0  0  0  0  0  0  0  0  0
  -31.1355  -25.6705   25.0503 C   0  0  0  0  0  0  0  0  0  0  0  0
  -29.4884  -25.9527   23.7967 C   0  0  0  0  0  0  0  0  0  0  0  0
  -20.9399  -28.7515   21.9891 C   0  0  1  0  0  0  0  0  0  0  0  0
  -23.0230  -31.2370   23.9680 C   0  0  1  0  0  0  0  0  0  0  0  0
  -30.1379  -24.6890   24.3996 C   0  0  0  0  0  0  0  0  0  0  0  0
  -26.2728  -17.0728   19.8346 C   0  0  1  0  0  0  0  0  0  0  0  0
  -26.0152  -37.9929   21.6424 C   0  0  0  0  0  0  0  0  0  0  0  0
  -23.9025  -32.0882   19.5112 C   0  0  0  0  0  0  0  0  0  0  0  0
  -25.0941  -34.2388   19.0386 C   0  0  0  0  0  0  0  0  0  0  0  0
  -22.6857  -34.2659   19.6880 C   0  0  0  0  0  0  0  0  0  0  0  0
  -26.0493  -36.5906   25.1791 C   0  0  0  0  0  0  0  0  0  0  0  0
  -30.7072  -23.6818   23.4246 C   0  0  0  0  0  0  0  0  0  0  0  0
  -30.6949  -27.9937   24.4114 C   0  0  0  0  0  0  0  0  0  0  0  0
  -29.5912  -29.0189   24.2418 C   0  0  0  0  0  0  0  0  0  1  0  0
  -24.4340  -33.7281   21.4333 C   0  0  1  0  0  0  0  0  0  0  0  0
  -25.5695  -37.0853   22.7784 C   0  0  2  0  0  0  0  0  0  0  0  0
  -24.0377  -33.5632   19.9389 C   0  0  0  0  0  0  0  0  0  0  0  0
  -25.6475  -14.7387   20.3265 N   0  0  0  0  0  0  0  0  0  0  0  0
  -26.3944  -15.5801   19.5916 N   0  0  0  0  0  0  0  0  0  0  0  0
  -23.9590  -32.0519   23.1908 N   0  0  0  0  0  0  0  0  0  0  0  0
  -27.1641  -19.0149   21.0765 N   0  0  0  0  0  0  0  0  0  0  0  0
  -28.1390  -21.1995   21.0737 N   0  0  0  0  0  0  0  0  0  0  0  0
  -28.0137  -15.6508   17.8643 N   0  0  0  0  0  0  0  0  0  0  0  0
  -27.2256  -11.2331   18.3735 N   0  0  0  0  0  0  0  0  0  0  0  0
  -21.4251  -29.8668   22.7733 N   0  0  0  0  0  0  0  0  0  0  0  0
  -24.5428  -35.1148   21.8731 N   0  0  0  0  0  0  0  0  0  0  0  0
  -29.5958  -23.1330   22.5744 N   0  3  0  0  0  0  0  0  0  0  0  0
  -30.1110  -26.7228   24.8927 N   0  3  0  0  0  0  0  0  0  0  0  0
  -26.3963  -37.3946   23.9791 N   0  3  0  0  0  0  0  0  0  0  0  0
  -28.4479  -12.7842   17.2079 O   0  0  0  0  0  0  0  0  0  0  0  0
  -23.6596  -29.2252   22.9085 O   0  0  0  0  0  0  0  0  0  0  0  0
  -22.2736  -33.4373   22.3684 O   0  0  0  0  0  0  0  0  0  0  0  0
  -26.7536  -34.9906   22.5616 O   0  0  0  0  0  0  0  0  0  0  0  0
  -28.9874  -19.5087   19.7560 O   0  0  0  0  0  0  0  0  0  0  0  0
  -23.6772   -8.9162   21.9896 O   0  0  0  0  0  0  0  0  0  0  0  0
  -28.9593  -29.2493   25.4941 O   0  0  0  0  0  0  0  0  0  1  0  0
  -21.9686   -5.0412   18.4586 F   0  0  0  0  0  0  0  0  0  0  0  0
  -25.4508   -7.6973   20.2543 F   0  0  0  0  0  0  0  0  0  0  0  0
  1  2  1  0  0  0  0
  1  5  2  0  0  0  0
  2  6  2  0  0  0  0
  3  8  2  0  0  0  0
  3 15  1  0  0  0  0
  4  9  1  0  0  0  0
  4 15  2  0  0  0  0
  5 17  1  0  0  0  0
  6 19  1  0  0  0  0
  7 10  2  0  0  0  0
  7 18  1  0  0  0  0
  8 21  1  0  0  0  0
  9 21  2  0  0  0  0
 10 22  1  0  0  0  0
 11 12  2  0  0  0  0
 11 23  1  0  0  0  0
 12 24  1  0  0  0  0
 13 20  1  0  0  0  0
 13 22  2  0  0  0  0
 14 24  2  0  0  0  0
 14 25  1  0  0  0  0
 15 26  1  0  0  0  0
 16 26  1  0  0  0  0
 16 27  2  0  0  0  0
 16 28  1  0  0  0  0
 17 19  2  0  0  0  0
 17 33  1  0  0  0  0
 18 20  2  0  0  0  0
 18 34  1  0  0  0  0
 19 48  1  0  0  0  0
 20 35  1  0  0  0  0
 21 80  1  0  0  0  0
 22 81  1  0  0  0  0
 23 25  2  0  0  0  0
 23 80  1  0  0  0  0
 24 82  1  0  0  0  0
 25 83  1  0  0  0  0
 26 63  2  0  0  0  0
 27 64  1  0  0  0  0
 27 68  1  0  0  0  0
 28 69  1  0  0  0  0
 28 75  2  0  0  0  0
 29 49  1  0  0  0  0
 29 70  1  0  0  0  0
 29 76  2  0  0  0  0
 30 60  1  0  0  0  0
 30 65  1  0  0  0  0
 30 77  2  0  0  0  0
 31 61  1  0  0  0  0
 31 71  1  0  0  0  0
 31 78  2  0  0  0  0
 32 66  1  0  0  0  0
 32 67  1  0  0  0  0
 32 79  2  0  0  0  0
 33 36  1  0  0  0  0
 34 49  1  0  0  0  0
 35 65  1  0  0  0  0
 36 38  1  0  0  0  0
 37 39  1  0  0  0  0
 37 40  1  0  0  0  0
 38 48  1  0  0  0  0
 39 51  1  0  0  0  0
 40 66  1  0  0  0  0
 41 44  1  0  0  0  0
 41 67  1  0  0  0  0
 42 45  1  0  0  0  0
 42 67  1  0  0  0  0
 43 51  1  0  0  0  0
 43 66  1  0  0  0  0
 44 72  1  0  0  0  0
 45 72  1  0  0  0  0
 46 50  1  0  0  0  0
 46 73  1  0  0  0  0
 47 50  1  0  0  0  0
 47 73  1  0  0  0  0
 48 70  1  0  0  0  0
 49 65  1  0  0  0  0
 50 57  1  0  0  0  0
 51 64  1  0  0  0  0
 52 61  1  0  0  0  0
 53 62  1  0  0  0  0
 54 62  1  0  0  0  0
 55 62  1  0  0  0  0
 56 74  1  0  0  0  0
 57 72  1  0  0  0  0
 58 59  1  0  0  0  0
 58 73  1  0  0  0  0
 59 81  1  0  0  0  0
 60 62  1  0  0  0  0
 60 71  1  0  0  0  0
 61 74  1  0  0  0  0
 63 64  1  0  0  0  0
M  CHG  3  72   1  73   1  74   1
M  ISO  4  32 100  59 101  67 100  81 101
M  END
> <Batch ID>
0191

> <Smiles>
CNC(C)C(=O)NC(C(=O)N1Cc2cc([101O:1][101CH2:1]CN3CC(CN4CC[100N:0]([100C:0](=O)N5CCCC(n6nc(-c7ccc(Oc8ccc(F)cc8F)cc7)c(C(N)=O)c6N)C5)CC4)C3)ccc2CC1C(=O)NC1CCCc2ccccc21)C(C)(C)C

> <Shape>
0.260

> <Color>
0.111

> <Negative vol penalty>
0.000

$$$$

  -OEChem-04052323273D

 84 93  0     1  0  0  0  0  0999 V2000
  -28.3459  -11.1433   19.5350 C   0  0  0  0  0  0  0  0  0  0  0  0
  -28.6199  -12.4258   19.0704 C   0  0  0  0  0  0  0  0  0  0  0  0
  -19.0586  -28.6291   22.1315 C   0  0  0  0  0  0  0  0  0  0  0  0
  -19.9754  -27.5446   24.0861 C   0  0  0  0  0  0  0  0  0  0  0  0
  -27.0966  -10.8533   20.0818 C   0  0  0  0  0  0  0  0  0  0  0  0
  -27.6442  -13.4187   19.1515 C   0  0  0  0  0  0  0  0  0  0  0  0
  -29.4862  -17.8180   20.8538 C   0  0  0  0  0  0  0  0  0  0  0  0
  -17.9521  -27.7813   22.1800 C   0  0  0  0  0  0  0  0  0  0  0  0
  -18.8688  -26.6968   24.1347 C   0  0  0  0  0  0  0  0  0  0  0  0
  -30.1992  -18.6027   19.9485 C   0  0  0  0  0  0  0  0  0  0  0  0
  -17.7898  -23.9150   22.5446 C   0  0  0  0  0  0  0  0  0  0  0  0
  -18.0230  -22.5567   22.7596 C   0  0  0  0  0  0  0  0  0  0  0  0
  -28.2453  -19.9762   19.6092 C   0  0  0  0  0  0  0  0  0  0  0  0
  -16.6936  -22.6475   24.7749 C   0  0  0  0  0  0  0  0  0  0  0  0
  -20.0703  -28.5107   23.0844 C   0  0  0  0  0  0  0  0  0  0  0  0
  -21.3547  -30.6375   23.6632 C   0  0  0  0  0  0  0  0  0  0  0  0
  -26.1084  -11.8457   20.1784 C   0  0  0  0  0  0  0  0  0  0  0  0
  -28.1419  -18.1004   21.1359 C   0  0  0  0  0  0  0  0  0  0  0  0
  -26.3800  -13.1413   19.6989 C   0  0  0  0  0  0  0  0  0  0  0  0
  -27.5182  -19.1951   20.5204 C   0  0  0  0  0  0  0  0  0  0  0  0
  -17.8571  -26.8152   23.1817 C   0  0  0  0  0  0  0  0  0  0  0  0
  -29.5780  -19.6802   19.3239 C   0  0  0  0  0  0  0  0  0  0  0  0
  -17.0086  -24.6396   23.4448 C   0  0  0  0  0  0  0  0  0  0  0  0
  -17.4749  -21.9230   23.8747 C   0  0  0  0  0  0  0  0  0  0  0  0
  -16.4605  -24.0059   24.5599 C   0  0  0  0  0  0  0  0  0  0  0  0
  -21.2139  -29.3858   23.0344 C   0  0  0  0  0  0  0  0  0  0  0  0
  -22.6125  -31.0602   23.3088 C   0  0  0  0  0  0  0  0  0  0  0  0
  -31.2302  -26.4663   19.2554 C   0  0  0  0  0  0  0  0  0  0  0  0
  -31.6780  -24.3302   18.7325 C   0  0  0  0  0  0  0  0  0  0  0  0
  -32.7541  -25.9931   17.6772 C   0  0  0  0  0  0  0  0  0  0  0  0
  -20.4311  -31.3540   24.4934 C   0  0  0  0  0  0  0  0  0  0  0  0
  -25.3980  -16.5366   20.7762 C   0  0  0  0  0  0  0  0  0  0  0  0
  -24.1904  -19.0707   22.4017 C   0  0  0  0  0  0  0  0  0  0  0  0
  -24.5048  -22.3444   23.3132 C   0  0  0  0  0  0  0  0  0  0  0  0
  -27.4172  -27.9266   21.7334 C   0  0  0  0  0  0  0  0  0  0  0  0
  -24.7568  -11.4725   20.7339 C   0  0  0  0  0  0  0  0  0  0  0  0
  -27.3944  -17.2605   22.1350 C   0  0  0  0  0  0  0  0  0  0  0  0
  -26.0829  -19.5526   20.8042 C   0  0  0  0  0  0  0  0  0  0  0  0
  -23.9058  -12.6775   21.1265 C   0  0  0  0  0  0  0  0  0  0  0  0
  -25.8740  -30.6895   19.8627 C   0  0  0  0  0  0  0  0  0  0  0  0
  -23.9323  -13.7315   20.0242 C   0  0  0  0  0  0  0  0  0  0  0  0
  -24.4825  -30.7226   20.4848 C   0  0  0  0  0  0  0  0  0  0  0  0
  -26.4552  -29.2765   19.8069 C   0  0  0  0  0  0  0  0  0  0  0  0
  -28.9962  -27.9226   19.6704 C   0  0  0  0  0  0  0  0  0  0  0  0
  -29.8016  -27.0975   21.4550 C   0  0  0  0  0  0  0  0  0  0  0  0
  -25.0451  -28.6174   21.7460 C   0  0  0  0  0  0  0  0  0  0  0  0
  -25.3561  -14.2517   19.7922 C   0  0  1  0  0  0  0  0  0  0  0  0
  -30.4257  -27.5310   20.1124 C   0  0  0  0  0  0  0  0  0  0  0  0
  -25.8805  -17.3281   21.9588 C   0  0  1  0  0  0  0  0  0  0  0  0
  -24.4965  -30.0458   21.8631 C   0  0  2  0  0  0  0  0  0  0  0  0
  -23.3414  -24.1475   24.6142 C   0  0  0  0  0  0  0  0  0  0  0  0
  -22.1849  -19.4140   20.1279 C   0  0  0  0  0  0  0  0  0  0  0  0
  -21.7099  -21.7169   20.9876 C   0  0  0  0  0  0  0  0  0  0  0  0
  -21.2301  -19.7301   22.4176 C   0  0  0  0  0  0  0  0  0  0  0  0
  -26.7834  -22.6283   25.1804 C   0  0  0  0  0  0  0  0  0  0  0  0
  -32.1416  -21.9402   18.1862 C   0  0  0  0  0  0  0  0  0  0  0  0
  -31.6779  -20.5689   18.6481 C   0  0  0  0  0  0  0  0  0  1  0  0
  -23.6296  -20.4186   22.0172 C   0  0  1  0  0  0  0  0  0  0  0  0
  -24.3740  -23.0320   24.6603 C   0  0  2  0  0  0  0  0  0  0  0  0
  -22.2152  -20.3122   21.3806 C   0  0  0  0  0  0  0  0  0  0  0  0
  -22.2959  -29.0362   22.3336 N   0  0  0  0  0  0  0  0  0  0  0  0
  -30.9608  -25.1724   19.4936 N   0  0  0  0  0  0  0  0  0  0  0  0
  -32.1114  -26.9504   18.3653 N   0  0  0  0  0  0  0  0  0  0  0  0
  -32.5900  -24.6667   17.8063 N   0  0  0  0  0  0  0  0  0  0  0  0
  -23.1285  -30.0746   22.5198 N   0  0  0  0  0  0  0  0  0  0  0  0
  -25.3924  -18.6975   21.7838 N   0  0  0  0  0  0  0  0  0  0  0  0
  -26.3603  -28.5864   21.0973 N   0  0  0  0  0  0  0  0  0  0  0  0
  -28.6340  -27.8911   21.0823 N   0  0  0  0  0  0  0  0  0  0  0  0
  -23.3165  -32.1752   23.5981 N   0  0  0  0  0  0  0  0  0  0  0  0
  -19.1821  -30.7753   24.7572 N   0  0  0  0  0  0  0  0  0  0  0  0
  -31.4544  -22.9766   18.9222 N   0  0  0  0  0  0  0  0  0  0  0  0
  -25.7243  -15.1948   20.8264 N   0  0  0  0  0  0  0  0  0  0  0  0
  -23.6828  -21.2412   23.2209 N   0  0  0  0  0  0  0  0  0  0  0  0
  -25.6809  -23.6181   25.0718 N   0  3  0  0  0  0  0  0  0  0  0  0
  -20.6989  -32.4816   24.9732 O   0  0  0  0  0  0  0  0  0  0  0  0
  -24.7744  -17.1011   19.8851 O   0  0  0  0  0  0  0  0  0  0  0  0
  -23.5880  -18.3777   23.2254 O   0  0  0  0  0  0  0  0  0  0  0  0
  -25.2580  -22.7479   22.4297 O   0  0  0  0  0  0  0  0  0  0  0  0
  -27.2765  -27.3603   22.8248 O   0  0  0  0  0  0  0  0  0  0  0  0
  -16.7774  -25.9879   23.2295 O   0  0  0  0  0  0  0  0  0  0  0  0
  -30.2715  -20.4473   18.4393 O   0  0  0  0  0  0  0  0  0  1  0  0
  -17.6976  -20.6182   24.0802 F   0  0  0  0  0  0  0  0  0  0  0  0
  -15.7082  -24.6965   25.4276 F   0  0  0  0  0  0  0  0  0  0  0  0
  -33.8966  -26.5157   16.5198 Cl  0  0  0  0  0  0  0  0  0  0  0  0
  1  2  1  0  0  0  0
  1  5  2  0  0  0  0
  2  6  2  0  0  0  0
  3  8  2  0  0  0  0
  3 15  1  0  0  0  0
  4  9  1  0  0  0  0
  4 15  2  0  0  0  0
  5 17  1  0  0  0  0
  6 19  1  0  0  0  0
  7 10  2  0  0  0  0
  7 18  1  0  0  0  0
  8 21  1  0  0  0  0
  9 21  2  0  0  0  0
 10 22  1  0  0  0  0
 11 12  2  0  0  0  0
 11 23  1  0  0  0  0
 12 24  1  0  0  0  0
 13 20  1  0  0  0  0
 13 22  2  0  0  0  0
 14 24  2  0  0  0  0
 14 25  1  0  0  0  0
 15 26  1  0  0  0  0
 16 26  1  0  0  0  0
 16 27  2  0  0  0  0
 16 31  1  0  0  0  0
 17 19  2  0  0  0  0
 17 36  1  0  0  0  0
 18 20  2  0  0  0  0
 18 37  1  0  0  0  0
 19 47  1  0  0  0  0
 20 38  1  0  0  0  0
 21 80  1  0  0  0  0
 22 81  1  0  0  0  0
 23 25  2  0  0  0  0
 23 80  1  0  0  0  0
 24 82  1  0  0  0  0
 25 83  1  0  0  0  0
 26 61  2  0  0  0  0
 27 65  1  0  0  0  0
 27 69  1  0  0  0  0
 28 48  1  0  0  0  0
 28 62  1  0  0  0  0
 28 63  2  0  0  0  0
 29 62  2  0  0  0  0
 29 64  1  0  0  0  0
 29 71  1  0  0  0  0
 30 63  1  0  0  0  0
 30 64  2  0  0  0  0
 30 84  1  0  0  0  0
 31 70  1  0  0  0  0
 31 75  2  0  0  0  0
 32 49  1  0  0  0  0
 32 72  1  0  0  0  0
 32 76  2  0  0  0  0
 33 58  1  0  0  0  0
 33 66  1  0  0  0  0
 33 77  2  0  0  0  0
 34 59  1  0  0  0  0
 34 73  1  0  0  0  0
 34 78  2  0  0  0  0
 35 67  1  0  0  0  0
 35 68  1  0  0  0  0
 35 79  2  0  0  0  0
 36 39  1  0  0  0  0
 37 49  1  0  0  0  0
 38 66  1  0  0  0  0
 39 41  1  0  0  0  0
 40 42  1  0  0  0  0
 40 43  1  0  0  0  0
 41 47  1  0  0  0  0
 42 50  1  0  0  0  0
 43 67  1  0  0  0  0
 44 48  1  0  0  0  0
 44 68  1  0  0  0  0
 45 48  1  0  0  0  0
 45 68  1  0  0  0  0
 46 50  1  0  0  0  0
 46 67  1  0  0  0  0
 47 72  1  0  0  0  0
 49 66  1  0  0  0  0
 50 65  1  0  0  0  0
 51 59  1  0  0  0  0
 52 60  1  0  0  0  0
 53 60  1  0  0  0  0
 54 60  1  0  0  0  0
 55 74  1  0  0  0  0
 56 57  1  0  0  0  0
 56 71  1  0  0  0  0
 57 81  1  0  0  0  0
 58 60  1  0  0  0  0
 58 73  1  0  0  0  0
 59 74  1  0  0  0  0
 61 65  1  0  0  0  0
M  CHG  1  74   1
M  ISO  4  35 100  57 101  68 100  81 101
M  END
> <Batch ID>
0191

> <Smiles>
CNC(C)C(=O)NC(C(=O)N1Cc2cc([101O:1][101CH2:1]CNc3nc(Cl)nc(C4C[100N:0]([100C:0](=O)N5CCCC(n6nc(-c7ccc(Oc8ccc(F)cc8F)cc7)c(C(N)=O)c6N)C5)C4)n3)ccc2CC1C(=O)NC1CCCc2ccccc21)C(C)(C)C

> <Shape>
0.239

> <Color>
0.090

> <Negative vol penalty>
0.000

$$$$

  -OEChem-04052323273D

 86 96  0     1  0  0  0  0  0999 V2000
  -28.9229  -32.2430   26.4410 C   0  0  0  0  0  0  0  0  0  0  0  0
  -28.9218  -31.3257   25.3951 C   0  0  0  0  0  0  0  0  0  0  0  0
  -22.2475  -15.1163   24.2334 C   0  0  0  0  0  0  0  0  0  0  0  0
  -21.8344  -16.1654   22.0966 C   0  0  0  0  0  0  0  0  0  0  0  0
  -27.7775  -32.4150   27.2171 C   0  0  0  0  0  0  0  0  0  0  0  0
  -27.7755  -30.5789   25.1254 C   0  0  0  0  0  0  0  0  0  0  0  0
  -26.7048  -30.3809   20.1798 C   0  0  0  0  0  0  0  0  0  0  0  0
  -21.0559  -15.6488   24.7252 C   0  0  0  0  0  0  0  0  0  0  0  0
  -20.6427  -16.6979   22.5884 C   0  0  0  0  0  0  0  0  0  0  0  0
  -27.4534  -29.4995   19.4010 C   0  0  0  0  0  0  0  0  0  0  0  0
  -17.6708  -18.6303   23.3908 C   0  0  0  0  0  0  0  0  0  0  0  0
  -17.3953  -19.9690   23.1123 C   0  0  0  0  0  0  0  0  0  0  0  0
  -29.4112  -21.1803   16.2749 C   0  0  0  0  0  0  0  0  0  0  0  0
  -25.6454  -27.9044   19.4790 C   0  0  0  0  0  0  0  0  0  0  0  0
  -19.4137  -20.6247   24.2669 C   0  0  0  0  0  0  0  0  0  0  0  0
  -29.9168  -22.2162   15.5163 C   0  0  0  0  0  0  0  0  0  0  0  0
  -22.6368  -15.3746   22.9190 C   0  0  0  0  0  0  0  0  0  0  0  0
  -24.0440  -13.5854   21.7675 C   0  0  0  0  0  0  0  0  0  0  0  0
  -26.6135  -31.6769   26.9507 C   0  0  0  0  0  0  0  0  0  0  0  0
  -25.4230  -30.0257   20.6239 C   0  0  0  0  0  0  0  0  0  0  0  0
  -26.6138  -30.7402   25.8996 C   0  0  0  0  0  0  0  0  0  0  0  0
  -24.8816  -28.7841   20.2612 C   0  0  0  0  0  0  0  0  0  0  0  0
  -20.2534  -16.4396   23.9028 C   0  0  0  0  0  0  0  0  0  0  0  0
  -26.9250  -28.2599   19.0530 C   0  0  0  0  0  0  0  0  0  0  0  0
  -18.8178  -18.2888   24.1074 C   0  0  0  0  0  0  0  0  0  0  0  0
  -18.2667  -20.9662   23.5504 C   0  0  0  0  0  0  0  0  0  0  0  0
  -19.6893  -19.2859   24.5454 C   0  0  0  0  0  0  0  0  0  0  0  0
  -23.8680  -14.8253   22.4105 C   0  0  0  0  0  0  0  0  0  0  0  0
  -28.9175  -21.5335   17.5142 C   0  0  0  0  0  0  0  0  0  0  0  0
  -25.3865  -13.5343   21.4819 C   0  0  0  0  0  0  0  0  0  0  0  0
  -29.4327  -23.7177   17.1528 C   0  0  0  0  0  0  0  0  0  0  0  0
  -23.0802  -12.5706   21.4562 C   0  0  0  0  0  0  0  0  0  0  0  0
  -24.0715  -29.6057   23.4701 C   0  0  0  0  0  0  0  0  0  0  0  0
  -21.3721  -29.2635   21.7042 C   0  0  0  0  0  0  0  0  0  0  0  0
  -19.9554  -28.4825   18.6992 C   0  0  0  0  0  0  0  0  0  0  0  0
  -29.5267  -17.7833   20.7048 C   0  0  0  0  0  0  0  0  0  0  0  0
  -25.4148  -31.8632   27.8469 C   0  0  0  0  0  0  0  0  0  0  0  0
  -24.6176  -30.9985   21.4408 C   0  0  0  0  0  0  0  0  0  0  0  0
  -23.5022  -28.3632   20.6955 C   0  0  0  0  0  0  0  0  0  0  0  0
  -24.1220  -31.3033   27.2592 C   0  0  0  0  0  0  0  0  0  0  0  0
  -29.6170  -15.1097   23.0127 C   0  0  0  0  0  0  0  0  0  0  0  0
  -24.3531  -29.9042   26.6971 C   0  0  0  0  0  0  0  0  0  0  0  0
  -28.1693  -14.6332   23.0934 C   0  0  0  0  0  0  0  0  0  0  0  0
  -27.8539  -20.9209   19.8039 C   0  0  0  0  0  0  0  0  0  0  0  0
  -30.0320  -27.2894   17.8485 C   0  0  0  0  0  0  0  0  0  0  0  0
  -29.6810  -16.6254   22.8809 C   0  0  0  0  0  0  0  0  0  0  0  0
  -27.7367  -19.6116   20.5727 C   0  0  0  0  0  0  0  0  0  0  0  0
  -29.9680  -26.1463   16.8356 C   0  0  0  0  0  0  0  0  0  0  0  0
  -29.3288  -19.3537   18.8005 C   0  0  0  0  0  0  0  0  0  0  0  0
  -27.4827  -16.6761   21.7341 C   0  0  0  0  0  0  0  0  0  0  0  0
  -28.9261  -25.4412   18.9064 C   0  0  0  0  0  0  0  0  0  0  0  0
  -25.3819  -29.9294   25.5602 C   0  0  1  0  0  0  0  0  0  0  0  0
  -28.3422  -20.4663   18.4189 C   0  0  2  0  0  0  0  0  0  0  0  0
  -23.5273  -30.3248   22.2683 C   0  0  1  0  0  0  0  0  0  0  0  0
  -27.3624  -15.1461   21.8906 C   0  0  2  0  0  0  0  0  0  0  0  0
  -28.9077  -26.9669   18.8219 C   0  0  2  0  0  0  0  0  0  1  0  0
  -17.7244  -28.2551   17.5729 C   0  0  0  0  0  0  0  0  0  0  0  0
  -20.9252  -26.6040   23.1317 C   0  0  0  0  0  0  0  0  0  0  0  0
  -19.2785  -26.0012   21.3448 C   0  0  0  0  0  0  0  0  0  0  0  0
  -18.8589  -27.9757   22.8104 C   0  0  0  0  0  0  0  0  0  0  0  0
  -20.6040  -30.5948   16.7304 C   0  0  0  0  0  0  0  0  0  0  0  0
  -20.6651  -28.1034   21.0459 C   0  0  1  0  0  0  0  0  0  0  0  0
  -18.8905  -29.1834   17.8751 C   0  0  2  0  0  0  0  0  0  0  0  0
  -19.9587  -27.1779   22.0765 C   0  0  0  0  0  0  0  0  0  0  0  0
  -29.9434  -23.5015   15.9256 N   0  0  0  0  0  0  0  0  0  0  0  0
  -25.0075  -15.5122   22.5269 N   0  0  0  0  0  0  0  0  0  0  0  0
  -28.9127  -22.7972   17.9868 N   0  0  0  0  0  0  0  0  0  0  0  0
  -25.9125  -14.7010   21.9532 N   0  0  0  0  0  0  0  0  0  0  0  0
  -29.4437  -25.0210   17.6037 N   0  0  3  0  0  0  0  0  0  0  0  0
  -22.7565  -29.3466   21.4981 N   0  0  0  0  0  0  0  0  0  0  0  0
  -28.8867  -17.1071   21.7493 N   0  0  0  0  0  0  0  0  0  0  0  0
  -28.8139  -18.7802   20.0398 N   0  0  0  0  0  0  0  0  0  0  0  0
  -26.1566  -12.6055   20.8763 N   0  0  0  0  0  0  0  0  0  0  0  0
  -21.7438  -12.7842   21.8203 N   0  0  0  0  0  0  0  0  0  0  0  0
  -24.7750  -30.4166   24.3401 N   0  0  0  0  0  0  0  0  0  0  0  0
  -19.7694  -28.6827   20.0507 N   0  0  0  0  0  0  0  0  0  0  0  0
  -19.4629  -29.6551   16.5826 N   0  3  0  0  0  0  0  0  0  0  0  0
  -23.3976  -11.4987   20.8870 O   0  0  0  0  0  0  0  0  0  0  0  0
  -23.8670  -28.4044   23.5992 O   0  0  0  0  0  0  0  0  0  0  0  0
  -20.7190  -30.0703   22.3706 O   0  0  0  0  0  0  0  0  0  0  0  0
  -20.8595  -27.8202   18.1947 O   0  0  0  0  0  0  0  0  0  0  0  0
  -30.7024  -17.5361   20.4040 O   0  0  0  0  0  0  0  0  0  0  0  0
  -19.0904  -16.9592   24.3823 O   0  0  0  0  0  0  0  0  0  0  0  0
  -27.6587  -27.3916   18.2884 O   0  0  0  0  0  0  0  0  0  1  0  0
  -18.0028  -22.2516   23.2816 F   0  0  0  0  0  0  0  0  0  0  0  0
  -20.7933  -18.9639   25.2333 F   0  0  0  0  0  0  0  0  0  0  0  0
  1  2  1  0  0  0  0
  1  5  2  0  0  0  0
  2  6  2  0  0  0  0
  3  8  2  0  0  0  0
  3 17  1  0  0  0  0
  4  9  1  0  0  0  0
  4 17  2  0  0  0  0
  5 19  1  0  0  0  0
  6 21  1  0  0  0  0
  7 10  2  0  0  0  0
  7 20  1  0  0  0  0
  8 23  1  0  0  0  0
  9 23  2  0  0  0  0
 10 24  1  0  0  0  0
 11 12  2  0  0  0  0
 11 25  1  0  0  0  0
 12 26  1  0  0  0  0
 13 16  1  0  0  0  0
 13 29  2  0  0  0  0
 14 22  1  0  0  0  0
 14 24  2  0  0  0  0
 15 26  2  0  0  0  0
 15 27  1  0  0  0  0
 16 65  2  0  0  0  0
 17 28  1  0  0  0  0
 18 28  1  0  0  0  0
 18 30  2  0  0  0  0
 18 32  1  0  0  0  0
 19 21  2  0  0  0  0
 19 37  1  0  0  0  0
 20 22  2  0  0  0  0
 20 38  1  0  0  0  0
 21 52  1  0  0  0  0
 22 39  1  0  0  0  0
 23 83  1  0  0  0  0
 24 84  1  0  0  0  0
 25 27  2  0  0  0  0
 25 83  1  0  0  0  0
 26 85  1  0  0  0  0
 27 86  1  0  0  0  0
 28 66  2  0  0  0  0
 29 53  1  0  0  0  0
 29 67  1  0  0  0  0
 30 68  1  0  0  0  0
 30 73  1  0  0  0  0
 31 65  1  0  0  0  0
 31 67  2  0  0  0  0
 31 69  1  0  0  0  0
 32 74  1  0  0  0  0
 32 78  2  0  0  0  0
 33 54  1  0  0  0  0
 33 75  1  0  0  0  0
 33 79  2  0  0  0  0
 34 62  1  0  0  0  0
 34 70  1  0  0  0  0
 34 80  2  0  0  0  0
 35 63  1  0  0  0  0
 35 76  1  0  0  0  0
 35 81  2  0  0  0  0
 36 71  1  0  0  0  0
 36 72  1  0  0  0  0
 36 82  2  0  0  0  0
 37 40  1  0  0  0  0
 38 54  1  0  0  0  0
 39 70  1  0  0  0  0
 40 42  1  0  0  0  0
 41 43  1  0  0  0  0
 41 46  1  0  0  0  0
 42 52  1  0  0  0  0
 43 55  1  0  0  0  0
 44 47  1  0  0  0  0
 44 53  1  0  0  0  0
 45 48  1  0  0  0  0
 45 56  1  0  0  0  0
 46 71  1  0  0  0  0
 47 72  1  0  0  0  0
 48 69  1  0  0  0  0
 49 53  1  0  0  0  0
 49 72  1  0  0  0  0
 50 55  1  0  0  0  0
 50 71  1  0  0  0  0
 51 56  1  0  0  0  0
 51 69  1  0  0  0  0
 52 75  1  0  0  0  0
 54 70  1  0  0  0  0
 55 68  1  0  0  0  0
 56 84  1  0  0  0  0
 57 63  1  0  0  0  0
 58 64  1  0  0  0  0
 59 64  1  0  0  0  0
 60 64  1  0  0  0  0
 61 77  1  0  0  0  0
 62 64  1  0  0  0  0
 62 76  1  0  0  0  0
 63 77  1  0  0  0  0
 66 68  1  0  0  0  0
M  CHG  1  77   1
M  ISO  4  36 100  56 101  72 100  84 101
M  END
> <Batch ID>
0191

> <Smiles>
CNC(C)C(=O)NC(C(=O)N1Cc2cc([101O:1][101CH:1]3CCN(c4nccc(C5CC[100N:0]([100C:0](=O)N6CCCC(n7nc(-c8ccc(Oc9ccc(F)cc9F)cc8)c(C(N)=O)c7N)C6)C5)n4)C3)ccc2CC1C(=O)NC1CCCc2ccccc21)C(C)(C)C

> <Shape>
0.265

> <Color>
0.076

> <Negative vol penalty>
0.000

$$$$

  -OEChem-04052323273D

 86 95  0     1  0  0  0  0  0999 V2000
  -30.9332  -31.4743   15.6424 C   0  0  0  0  0  0  0  0  0  0  0  0
  -29.9283  -30.5220   15.7795 C   0  0  0  0  0  0  0  0  0  0  0  0
  -23.8383   -9.7850   22.3304 C   0  0  0  0  0  0  0  0  0  0  0  0
  -23.0326   -9.9216   20.0568 C   0  0  0  0  0  0  0  0  0  0  0  0
  -31.4682  -32.0892   16.7735 C   0  0  0  0  0  0  0  0  0  0  0  0
  -29.4586  -30.1833   17.0480 C   0  0  0  0  0  0  0  0  0  0  0  0
  -23.7234  -28.6636   18.5656 C   0  0  0  0  0  0  0  0  0  0  0  0
  -22.9267   -8.7621   22.5920 C   0  0  0  0  0  0  0  0  0  0  0  0
  -22.1210   -8.8987   20.3183 C   0  0  0  0  0  0  0  0  0  0  0  0
  -23.0998  -27.4320   18.7611 C   0  0  0  0  0  0  0  0  0  0  0  0
  -22.6728   -5.4417   22.0063 C   0  0  0  0  0  0  0  0  0  0  0  0
  -23.1343   -4.3243   22.7020 C   0  0  0  0  0  0  0  0  0  0  0  0
  -23.4845  -27.6209   21.1350 C   0  0  0  0  0  0  0  0  0  0  0  0
  -21.5225   -4.7477   24.4512 C   0  0  0  0  0  0  0  0  0  0  0  0
  -23.8912  -10.3647   21.0628 C   0  0  0  0  0  0  0  0  0  0  0  0
  -26.1503  -11.2854   20.3167 C   0  0  0  0  0  0  0  0  0  0  0  0
  -30.9981  -31.7649   18.0559 C   0  0  0  0  0  0  0  0  0  0  0  0
  -24.2427  -29.3792   19.6540 C   0  0  0  0  0  0  0  0  0  0  0  0
  -29.9888  -30.7935   18.1974 C   0  0  0  0  0  0  0  0  0  0  0  0
  -24.1119  -28.8625   20.9509 C   0  0  0  0  0  0  0  0  0  0  0  0
  -22.0681   -8.3190   21.5860 C   0  0  0  0  0  0  0  0  0  0  0  0
  -22.9829  -26.9091   20.0456 C   0  0  0  0  0  0  0  0  0  0  0  0
  -21.6362   -6.2122   22.5331 C   0  0  0  0  0  0  0  0  0  0  0  0
  -22.5592   -3.9773   23.9244 C   0  0  0  0  0  0  0  0  0  0  0  0
  -21.0611   -5.8652   23.7555 C   0  0  0  0  0  0  0  0  0  0  0  0
  -24.8323  -11.4217   20.7921 C   0  0  0  0  0  0  0  0  0  0  0  0
  -26.6181  -12.5737   20.2274 C   0  0  0  0  0  0  0  0  0  0  0  0
  -26.8859  -10.1002   19.9852 C   0  0  0  0  0  0  0  0  0  0  0  0
  -27.1390  -30.3695   20.5109 C   0  0  0  0  0  0  0  0  0  0  0  0
  -25.5027  -31.8543   22.8857 C   0  0  0  0  0  0  0  0  0  0  0  0
  -22.7037  -31.9828   24.8340 C   0  0  0  0  0  0  0  0  0  0  0  0
  -24.3300  -17.7609   18.7841 C   0  0  0  0  0  0  0  0  0  0  0  0
  -31.6403  -32.4218   19.2521 C   0  0  0  0  0  0  0  0  0  0  0  0
  -24.8887  -30.7188   19.4293 C   0  0  0  0  0  0  0  0  0  0  0  0
  -24.6347  -29.6008   22.1551 C   0  0  0  0  0  0  0  0  0  0  0  0
  -30.8259  -32.2795   20.5354 C   0  0  0  0  0  0  0  0  0  0  0  0
  -25.3491  -16.8978   22.2518 C   0  0  0  0  0  0  0  0  0  0  0  0
  -30.3517  -30.8402   20.7098 C   0  0  0  0  0  0  0  0  0  0  0  0
  -25.3934  -15.3709   22.1796 C   0  0  0  0  0  0  0  0  0  0  0  0
  -26.2857  -20.9063   19.2977 C   0  0  0  0  0  0  0  0  0  0  0  0
  -24.3115  -17.4600   21.2890 C   0  0  0  0  0  0  0  0  0  0  0  0
  -25.5350  -19.7050   19.8698 C   0  0  0  0  0  0  0  0  0  0  0  0
  -24.1175  -20.0174   17.8281 C   0  0  0  0  0  0  0  0  0  0  0  0
  -24.5450  -15.5143   19.7892 C   0  0  0  0  0  0  0  0  0  0  0  0
  -22.9121  -21.7891   19.1957 C   0  0  0  0  0  0  0  0  0  0  0  0
  -24.8460  -22.8530   20.0923 C   0  0  0  0  0  0  0  0  0  0  0  0
  -29.4357  -30.4174   19.5549 C   0  0  1  0  0  0  0  0  0  0  0  0
  -25.8383  -31.1204   20.5537 C   0  0  1  0  0  0  0  0  0  0  0  0
  -24.0379  -21.4928   18.2109 C   0  0  1  0  0  0  0  0  0  0  0  0
  -25.5874  -14.8869   20.7310 C   0  0  2  0  0  0  0  0  0  0  0  0
  -25.3303  -22.0404   18.8725 C   0  0  2  0  0  0  0  0  0  0  0  0
  -21.6694  -33.2858   26.7128 C   0  0  0  0  0  0  0  0  0  0  0  0
  -29.4679  -24.5058   18.3952 C   0  0  0  0  0  0  0  0  0  0  0  0
  -27.4273  -25.8191   17.6985 C   0  0  0  0  0  0  0  0  0  0  0  0
  -27.3814  -30.4882   24.8641 C   0  0  0  0  0  0  0  0  0  0  0  0
  -25.7537  -31.0409   26.6844 C   0  0  0  0  0  0  0  0  0  0  0  0
  -26.8565  -32.8737   25.4009 C   0  0  0  0  0  0  0  0  0  0  0  0
  -20.3849  -32.7650   23.1695 C   0  0  0  0  0  0  0  0  0  0  0  0
  -26.0716  -22.9732   17.8991 C   0  0  0  0  0  0  0  0  0  0  0  0
  -22.5949  -23.4522   21.0566 C   0  0  0  0  0  0  0  0  0  0  0  0
  -22.8203  -24.9234   21.3442 C   0  0  0  0  0  0  0  0  0  1  0  0
  -25.0692  -31.4787   24.2821 C   0  0  1  0  0  0  0  0  0  0  0  0
  -21.7860  -33.1340   25.2041 C   0  0  2  0  0  0  0  0  0  0  0  0
  -28.0825  -24.4492   17.7718 C   0  0  0  0  0  0  0  0  0  0  0  0
  -26.2569  -31.4553   25.2852 C   0  0  0  0  0  0  0  0  0  0  0  0
  -24.4852  -12.6961   20.9912 N   0  0  0  0  0  0  0  0  0  0  0  0
  -25.5920  -13.3722   20.6392 N   0  0  0  0  0  0  0  0  0  0  0  0
  -25.2638  -30.9038   21.8831 N   0  0  0  0  0  0  0  0  0  0  0  0
  -24.5331  -16.9715   19.9245 N   0  0  0  0  0  0  0  0  0  0  0  0
  -24.5704  -19.1424   18.9118 N   0  0  0  0  0  0  0  0  0  0  0  0
  -27.8031  -13.0899   19.8378 N   0  0  0  0  0  0  0  0  0  0  0  0
  -26.2544   -8.8580   20.1352 N   0  0  0  0  0  0  0  0  0  0  0  0
  -28.1101  -30.9703   19.7327 N   0  0  0  0  0  0  0  0  0  0  0  0
  -24.0018  -32.4060   24.6415 N   0  0  0  0  0  0  0  0  0  0  0  0
  -23.3743  -23.0621   19.8444 N   0  3  2  0  0  0  0  0  0  0  0  0
  -20.4220  -32.9087   24.6477 N   0  3  0  0  0  0  0  0  0  0  0  0
  -27.2241  -23.5580   18.6065 N   0  3  0  0  0  0  0  0  0  0  0  0
  -28.0738  -10.1405   19.5841 O   0  0  0  0  0  0  0  0  0  0  0  0
  -27.2537  -29.3233   21.1385 O   0  0  0  0  0  0  0  0  0  0  0  0
  -26.0272  -32.9536   22.6904 O   0  0  0  0  0  0  0  0  0  0  0  0
  -22.3092  -30.8235   24.7300 O   0  0  0  0  0  0  0  0  0  0  0  0
  -23.9866  -17.2607   17.7054 O   0  0  0  0  0  0  0  0  0  0  0  0
  -21.1786   -7.3208   21.8408 O   0  0  0  0  0  0  0  0  0  0  0  0
  -22.3710  -25.6983   20.2405 O   0  0  0  0  0  0  0  0  0  1  0  0
  -23.0014   -2.9033   24.5917 F   0  0  0  0  0  0  0  0  0  0  0  0
  -20.0641   -6.6008   24.2661 F   0  0  0  0  0  0  0  0  0  0  0  0
  1  2  1  0  0  0  0
  1  5  2  0  0  0  0
  2  6  2  0  0  0  0
  3  8  2  0  0  0  0
  3 15  1  0  0  0  0
  4  9  1  0  0  0  0
  4 15  2  0  0  0  0
  5 17  1  0  0  0  0
  6 19  1  0  0  0  0
  7 10  2  0  0  0  0
  7 18  1  0  0  0  0
  8 21  1  0  0  0  0
  9 21  2  0  0  0  0
 10 22  1  0  0  0  0
 11 12  2  0  0  0  0
 11 23  1  0  0  0  0
 12 24  1  0  0  0  0
 13 20  1  0  0  0  0
 13 22  2  0  0  0  0
 14 24  2  0  0  0  0
 14 25  1  0  0  0  0
 15 26  1  0  0  0  0
 16 26  1  0  0  0  0
 16 27  2  0  0  0  0
 16 28  1  0  0  0  0
 17 19  2  0  0  0  0
 17 33  1  0  0  0  0
 18 20  2  0  0  0  0
 18 34  1  0  0  0  0
 19 47  1  0  0  0  0
 20 35  1  0  0  0  0
 21 83  1  0  0  0  0
 22 84  1  0  0  0  0
 23 25  2  0  0  0  0
 23 83  1  0  0  0  0
 24 85  1  0  0  0  0
 25 86  1  0  0  0  0
 26 66  2  0  0  0  0
 27 67  1  0  0  0  0
 27 71  1  0  0  0  0
 28 72  1  0  0  0  0
 28 78  2  0  0  0  0
 29 48  1  0  0  0  0
 29 73  1  0  0  0  0
 29 79  2  0  0  0  0
 30 62  1  0  0  0  0
 30 68  1  0  0  0  0
 30 80  2  0  0  0  0
 31 63  1  0  0  0  0
 31 74  1  0  0  0  0
 31 81  2  0  0  0  0
 32 69  1  0  0  0  0
 32 70  1  0  0  0  0
 32 82  2  0  0  0  0
 33 36  1  0  0  0  0
 34 48  1  0  0  0  0
 35 68  1  0  0  0  0
 36 38  1  0  0  0  0
 37 39  1  0  0  0  0
 37 41  1  0  0  0  0
 38 47  1  0  0  0  0
 39 50  1  0  0  0  0
 40 42  1  0  0  0  0
 40 51  1  0  0  0  0
 41 69  1  0  0  0  0
 42 70  1  0  0  0  0
 43 49  1  0  0  0  0
 43 70  1  0  0  0  0
 44 50  1  0  0  0  0
 44 69  1  0  0  0  0
 45 49  1  0  0  0  0
 45 75  1  0  0  0  0
 46 51  1  0  0  0  0
 46 75  1  0  0  0  0
 47 73  1  0  0  0  0
 48 68  1  0  0  0  0
 49 51  1  0  0  0  0
 50 67  1  0  0  0  0
 51 59  1  0  0  0  0
 52 63  1  0  0  0  0
 53 64  1  0  0  0  0
 54 64  1  0  0  0  0
 55 65  1  0  0  0  0
 56 65  1  0  0  0  0
 57 65  1  0  0  0  0
 58 76  1  0  0  0  0
 59 77  1  0  0  0  0
 60 61  1  0  0  0  0
 60 75  1  0  0  0  0
 61 84  1  0  0  0  0
 62 65  1  0  0  0  0
 62 74  1  0  0  0  0
 63 76  1  0  0  0  0
 64 77  1  0  0  0  0
 66 67  1  0  0  0  0
M  CHG  3  75   1  76   1  77   1
M  ISO  4  32 100  61 101  70 100  84 101
M  END
> <Batch ID>
0191

> <Smiles>
CNC(C)C(=O)NC(C(=O)N1Cc2cc([101O:1][101CH2:1]CN3CC4C[100N:0]([100C:0](=O)N5CCCC(n6nc(-c7ccc(Oc8ccc(F)cc8F)cc7)c(C(N)=O)c6N)C5)CCC4(CNC(C)C)C3)ccc2CC1C(=O)NC1CCCc2ccccc21)C(C)(C)C

> <Shape>
0.233

> <Color>
0.092

> <Negative vol penalty>
0.000

$$$$

  -OEChem-04052323273D

 84 93  0     1  0  0  0  0  0999 V2000
  -28.3057  -37.4371   20.3911 C   0  0  0  0  0  0  0  0  0  0  0  0
  -28.7102  -36.1222   20.1837 C   0  0  0  0  0  0  0  0  0  0  0  0
  -24.2345   -9.4431   21.4737 C   0  0  0  0  0  0  0  0  0  0  0  0
  -23.7908   -8.6464   19.2364 C   0  0  0  0  0  0  0  0  0  0  0  0
  -27.3354  -37.7236   21.3504 C   0  0  0  0  0  0  0  0  0  0  0  0
  -28.1454  -35.0932   20.9364 C   0  0  0  0  0  0  0  0  0  0  0  0
  -26.9646  -29.3831   19.0641 C   0  0  0  0  0  0  0  0  0  0  0  0
  -23.1945   -8.6520   21.9617 C   0  0  0  0  0  0  0  0  0  0  0  0
  -22.7509   -7.8552   19.7244 C   0  0  0  0  0  0  0  0  0  0  0  0
  -27.6582  -28.1834   19.2173 C   0  0  0  0  0  0  0  0  0  0  0  0
  -22.6915   -5.3992   22.7360 C   0  0  0  0  0  0  0  0  0  0  0  0
  -22.9287   -4.6588   23.8940 C   0  0  0  0  0  0  0  0  0  0  0  0
  -26.2914  -27.6444   21.1305 C   0  0  0  0  0  0  0  0  0  0  0  0
  -21.1286   -5.8237   25.0075 C   0  0  0  0  0  0  0  0  0  0  0  0
  -28.4348  -22.9843   20.7228 C   0  0  0  0  0  0  0  0  0  0  0  0
  -24.5326   -9.4404   20.1110 C   0  0  0  0  0  0  0  0  0  0  0  0
  -26.9591   -9.8937   19.4675 C   0  0  0  0  0  0  0  0  0  0  0  0
  -26.7514  -36.6965   22.1085 C   0  0  0  0  0  0  0  0  0  0  0  0
  -25.9347  -29.7280   19.9511 C   0  0  0  0  0  0  0  0  0  0  0  0
  -27.1673  -35.3664   21.9077 C   0  0  0  0  0  0  0  0  0  0  0  0
  -25.5845  -28.8479   20.9849 C   0  0  0  0  0  0  0  0  0  0  0  0
  -22.4527   -7.8580   21.0871 C   0  0  0  0  0  0  0  0  0  0  0  0
  -27.3236  -27.3152   20.2524 C   0  0  0  0  0  0  0  0  0  0  0  0
  -21.6728   -6.3519   22.7137 C   0  0  0  0  0  0  0  0  0  0  0  0
  -22.1472   -4.8710   25.0298 C   0  0  0  0  0  0  0  0  0  0  0  0
  -20.8914   -6.5641   23.8494 C   0  0  0  0  0  0  0  0  0  0  0  0
  -25.6064  -10.2579   19.6063 C   0  0  0  0  0  0  0  0  0  0  0  0
  -28.4594  -24.1126   21.5643 C   0  0  0  0  0  0  0  0  0  0  0  0
  -29.4290  -22.1712   21.2096 C   0  0  0  0  0  0  0  0  0  0  0  0
  -27.5643  -11.0121   18.9483 C   0  0  0  0  0  0  0  0  0  0  0  0
  -27.6105   -8.6552   19.7799 C   0  0  0  0  0  0  0  0  0  0  0  0
  -25.4524  -32.0953   22.0167 C   0  0  0  0  0  0  0  0  0  0  0  0
  -22.5256  -30.7267   22.3045 C   0  0  0  0  0  0  0  0  0  0  0  0
  -20.5927  -27.9303   22.0032 C   0  0  0  0  0  0  0  0  0  0  0  0
  -28.4747  -16.2978   18.7523 C   0  0  0  0  0  0  0  0  0  0  0  0
  -25.7405  -37.0604   23.1669 C   0  0  0  0  0  0  0  0  0  0  0  0
  -25.1783  -31.0134   19.7561 C   0  0  0  0  0  0  0  0  0  0  0  0
  -24.4732  -29.1622   21.9517 C   0  0  0  0  0  0  0  0  0  0  0  0
  -24.9209  -35.8710   23.6609 C   0  0  0  0  0  0  0  0  0  0  0  0
  -25.5903  -15.2541   17.0436 C   0  0  0  0  0  0  0  0  0  0  0  0
  -25.8295  -34.6813   23.9538 C   0  0  0  0  0  0  0  0  0  0  0  0
  -25.4408  -13.8193   17.5488 C   0  0  0  0  0  0  0  0  0  0  0  0
  -28.0420  -19.5162   20.1098 C   0  0  0  0  0  0  0  0  0  0  0  0
  -30.3703  -19.1628   19.2032 C   0  0  0  0  0  0  0  0  0  0  0  0
  -26.0124  -16.2131   18.1581 C   0  0  0  0  0  0  0  0  0  0  0  0
  -27.4910  -18.6215   18.9956 C   0  0  0  0  0  0  0  0  0  0  0  0
  -29.7723  -18.3014   18.0944 C   0  0  0  0  0  0  0  0  0  0  0  0
  -27.0796  -14.3535   19.3917 C   0  0  0  0  0  0  0  0  0  0  0  0
  -26.5601  -34.2201   22.6870 C   0  0  1  0  0  0  0  0  0  0  0  0
  -24.4903  -31.5006   21.0276 C   0  0  1  0  0  0  0  0  0  0  0  0
  -26.7127  -13.3564   18.2816 C   0  0  1  0  0  0  0  0  0  0  0  0
  -29.3494  -20.1935   19.6923 C   0  0  0  0  0  0  0  0  0  0  0  0
  -18.2458  -27.1113   22.3477 C   0  0  0  0  0  0  0  0  0  0  0  0
  -23.0014  -30.6381   25.3171 C   0  0  0  0  0  0  0  0  0  0  0  0
  -21.1188  -28.9972   25.4958 C   0  0  0  0  0  0  0  0  0  0  0  0
  -20.6856  -31.3021   24.6457 C   0  0  0  0  0  0  0  0  0  0  0  0
  -31.0533  -22.3967   23.1192 C   0  0  0  0  0  0  0  0  0  0  0  0
  -20.2841  -27.2551   19.1383 C   0  0  0  0  0  0  0  0  0  0  0  0
  -27.5974  -25.3043   21.4922 C   0  0  0  0  0  0  0  0  0  1  0  0
  -21.9283  -29.6552   23.1843 C   0  0  1  0  0  0  0  0  0  0  0  0
  -19.2358  -27.7082   21.3597 C   0  0  2  0  0  0  0  0  0  0  0  0
  -21.7058  -30.1428   24.6439 C   0  0  0  0  0  0  0  0  0  0  0  0
  -25.3659  -11.5098   19.2076 N   0  0  0  0  0  0  0  0  0  0  0  0
  -29.3950  -24.0275   22.5138 N   0  0  0  0  0  0  0  0  0  0  0  0
  -26.5758  -11.9420   18.8133 N   0  0  0  0  0  0  0  0  0  0  0  0
  -29.9674  -22.8359   22.2719 N   0  0  0  0  0  0  0  0  0  0  0  0
  -23.7675  -30.4339   21.7234 N   0  0  0  0  0  0  0  0  0  0  0  0
  -27.2050  -15.7098   18.8537 N   0  0  0  0  0  0  0  0  0  0  0  0
  -28.5191  -17.6816   18.5263 N   0  0  0  0  0  0  0  0  0  0  0  0
  -28.8402  -11.2809   18.5988 N   0  0  0  0  0  0  0  0  0  0  0  0
  -26.8400   -7.6093   20.3060 N   0  0  0  0  0  0  0  0  0  0  0  0
  -29.8932  -20.9299   20.8121 N   0  0  0  0  0  0  0  0  0  0  0  0
  -25.6721  -33.4486   21.8439 N   0  0  0  0  0  0  0  0  0  0  0  0
  -20.7136  -29.2058   22.5128 N   0  0  0  0  0  0  0  0  0  0  0  0
  -19.3584  -26.7812   20.1992 N   0  3  0  0  0  0  0  0  0  0  0  0
  -28.8423   -8.4867   19.6133 O   0  0  0  0  0  0  0  0  0  0  0  0
  -25.9569  -31.3798   22.8741 O   0  0  0  0  0  0  0  0  0  0  0  0
  -21.9095  -31.7815   22.1332 O   0  0  0  0  0  0  0  0  0  0  0  0
  -21.4573  -27.0582   22.0524 O   0  0  0  0  0  0  0  0  0  0  0  0
  -29.5084  -15.6259   18.8576 O   0  0  0  0  0  0  0  0  0  0  0  0
  -21.4380   -7.0856   21.5629 O   0  0  0  0  0  0  0  0  0  0  0  0
  -28.0027  -26.1383   20.4053 O   0  0  0  0  0  0  0  0  0  1  0  0
  -22.3741   -4.1589   26.1413 F   0  0  0  0  0  0  0  0  0  0  0  0
  -19.9106   -7.4772   23.8336 F   0  0  0  0  0  0  0  0  0  0  0  0
  1  2  1  0  0  0  0
  1  5  2  0  0  0  0
  2  6  2  0  0  0  0
  3  8  2  0  0  0  0
  3 16  1  0  0  0  0
  4  9  1  0  0  0  0
  4 16  2  0  0  0  0
  5 18  1  0  0  0  0
  6 20  1  0  0  0  0
  7 10  2  0  0  0  0
  7 19  1  0  0  0  0
  8 22  1  0  0  0  0
  9 22  2  0  0  0  0
 10 23  1  0  0  0  0
 11 12  2  0  0  0  0
 11 24  1  0  0  0  0
 12 25  1  0  0  0  0
 13 21  1  0  0  0  0
 13 23  2  0  0  0  0
 14 25  2  0  0  0  0
 14 26  1  0  0  0  0
 15 28  1  0  0  0  0
 15 29  2  0  0  0  0
 16 27  1  0  0  0  0
 17 27  1  0  0  0  0
 17 30  2  0  0  0  0
 17 31  1  0  0  0  0
 18 20  2  0  0  0  0
 18 36  1  0  0  0  0
 19 21  2  0  0  0  0
 19 37  1  0  0  0  0
 20 49  1  0  0  0  0
 21 38  1  0  0  0  0
 22 81  1  0  0  0  0
 23 82  1  0  0  0  0
 24 26  2  0  0  0  0
 24 81  1  0  0  0  0
 25 83  1  0  0  0  0
 26 84  1  0  0  0  0
 27 63  2  0  0  0  0
 28 59  1  0  0  0  0
 28 64  2  0  0  0  0
 29 66  1  0  0  0  0
 29 72  1  0  0  0  0
 30 65  1  0  0  0  0
 30 70  1  0  0  0  0
 31 71  1  0  0  0  0
 31 76  2  0  0  0  0
 32 50  1  0  0  0  0
 32 73  1  0  0  0  0
 32 77  2  0  0  0  0
 33 60  1  0  0  0  0
 33 67  1  0  0  0  0
 33 78  2  0  0  0  0
 34 61  1  0  0  0  0
 34 74  1  0  0  0  0
 34 79  2  0  0  0  0
 35 68  1  0  0  0  0
 35 69  1  0  0  0  0
 35 80  2  0  0  0  0
 36 39  1  0  0  0  0
 37 50  1  0  0  0  0
 38 67  1  0  0  0  0
 39 41  1  0  0  0  0
 40 42  1  0  0  0  0
 40 45  1  0  0  0  0
 41 49  1  0  0  0  0
 42 51  1  0  0  0  0
 43 46  1  0  0  0  0
 43 52  1  0  0  0  0
 44 47  1  0  0  0  0
 44 52  1  0  0  0  0
 45 68  1  0  0  0  0
 46 69  1  0  0  0  0
 47 69  1  0  0  0  0
 48 51  1  0  0  0  0
 48 68  1  0  0  0  0
 49 73  1  0  0  0  0
 50 67  1  0  0  0  0
 51 65  1  0  0  0  0
 52 72  1  0  0  0  0
 53 61  1  0  0  0  0
 54 62  1  0  0  0  0
 55 62  1  0  0  0  0
 56 62  1  0  0  0  0
 57 66  1  0  0  0  0
 58 75  1  0  0  0  0
 59 82  1  0  0  0  0
 60 62  1  0  0  0  0
 60 74  1  0  0  0  0
 61 75  1  0  0  0  0
 63 65  1  0  0  0  0
 64 66  1  0  0  0  0
M  CHG  1  75   1
M  ISO  4  35 100  59 101  69 100  82 101
M  END
> <Batch ID>
0191

> <Smiles>
CNC(C)C(=O)NC(C(=O)N1Cc2cc([101O:1][101CH2:1]c3cc(NC4CC[100N:0]([100C:0](=O)N5CCCC(n6nc(-c7ccc(Oc8ccc(F)cc8F)cc7)c(C(N)=O)c6N)C5)CC4)n(C)n3)ccc2CC1C(=O)NC1CCCc2ccccc21)C(C)(C)C

> <Shape>
0.299

> <Color>
0.097

> <Negative vol penalty>
0.000

$$$$

  -OEChem-04052323273D

 84 93  0     1  0  0  0  0  0999 V2000
  -17.1073  -31.9363   23.4430 C   0  0  0  0  0  0  0  0  0  0  0  0
  -18.3854  -32.4784   23.5320 C   0  0  0  0  0  0  0  0  0  0  0  0
  -26.3529  -13.5214   20.1296 C   0  0  0  0  0  0  0  0  0  0  0  0
  -24.1917  -13.6212   21.2049 C   0  0  0  0  0  0  0  0  0  0  0  0
  -16.9386  -30.5526   23.4135 C   0  0  0  0  0  0  0  0  0  0  0  0
  -19.4957  -31.6369   23.5926 C   0  0  0  0  0  0  0  0  0  0  0  0
  -26.3628  -31.3015   21.5810 C   0  0  0  0  0  0  0  0  0  0  0  0
  -26.4251  -12.1552   20.4015 C   0  0  0  0  0  0  0  0  0  0  0  0
  -24.2638  -12.2550   21.4768 C   0  0  0  0  0  0  0  0  0  0  0  0
  -27.6294  -31.0569   22.1100 C   0  0  0  0  0  0  0  0  0  0  0  0
  -23.7960   -9.3560   19.8042 C   0  0  0  0  0  0  0  0  0  0  0  0
  -22.6600   -8.5861   19.5545 C   0  0  0  0  0  0  0  0  0  0  0  0
  -32.0424  -27.6568   19.7076 C   0  0  0  0  0  0  0  0  0  0  0  0
  -27.2223  -28.6833   21.9715 C   0  0  0  0  0  0  0  0  0  0  0  0
  -22.5781   -7.9514   21.8842 C   0  0  0  0  0  0  0  0  0  0  0  0
  -31.9903  -28.9199   20.2446 C   0  0  0  0  0  0  0  0  0  0  0  0
  -25.2362  -14.2544   20.5313 C   0  0  0  0  0  0  0  0  0  0  0  0
  -24.6190  -16.2774   19.1050 C   0  0  0  0  0  0  0  0  0  0  0  0
  -18.0480  -29.6939   23.4641 C   0  0  0  0  0  0  0  0  0  0  0  0
  -25.5108  -30.2371   21.2530 C   0  0  0  0  0  0  0  0  0  0  0  0
  -19.3417  -30.2404   23.5651 C   0  0  0  0  0  0  0  0  0  0  0  0
  -25.9464  -28.9169   21.4362 C   0  0  0  0  0  0  0  0  0  0  0  0
  -25.3806  -11.5220   21.0751 C   0  0  0  0  0  0  0  0  0  0  0  0
  -28.0582  -29.7477   22.3080 C   0  0  0  0  0  0  0  0  0  0  0  0
  -24.3232   -9.4235   21.0939 C   0  0  0  0  0  0  0  0  0  0  0  0
  -22.0510   -7.8839   20.5944 C   0  0  0  0  0  0  0  0  0  0  0  0
  -23.7142   -8.7212   22.1339 C   0  0  0  0  0  0  0  0  0  0  0  0
  -25.1612  -15.6658   20.2512 C   0  0  0  0  0  0  0  0  0  0  0  0
  -31.8733  -26.7983   20.8105 C   0  0  0  0  0  0  0  0  0  0  0  0
  -24.7879  -17.6232   19.3215 C   0  0  0  0  0  0  0  0  0  0  0  0
  -24.0164  -15.6823   17.9482 C   0  0  0  0  0  0  0  0  0  0  0  0
  -22.6520  -29.2644   22.2453 C   0  0  0  0  0  0  0  0  0  0  0  0
  -22.9748  -27.1218   19.8313 C   0  0  0  0  0  0  0  0  0  0  0  0
  -25.0564  -25.3803   17.7623 C   0  0  0  0  0  0  0  0  0  0  0  0
  -27.6685  -21.8975   20.8225 C   0  0  0  0  0  0  0  0  0  0  0  0
  -17.8129  -28.2042   23.4770 C   0  0  0  0  0  0  0  0  0  0  0  0
  -24.1579  -30.5173   20.6583 C   0  0  0  0  0  0  0  0  0  0  0  0
  -25.0777  -27.7388   21.0813 C   0  0  0  0  0  0  0  0  0  0  0  0
  -19.0648  -27.3873   23.1676 C   0  0  0  0  0  0  0  0  0  0  0  0
  -26.1561  -20.1557   23.4725 C   0  0  0  0  0  0  0  0  0  0  0  0
  -20.2528  -27.9059   23.9717 C   0  0  0  0  0  0  0  0  0  0  0  0
  -25.7144  -18.8687   22.7764 C   0  0  0  0  0  0  0  0  0  0  0  0
  -27.5383  -20.6151   23.0051 C   0  0  0  0  0  0  0  0  0  0  0  0
  -29.4120  -22.8170   22.4160 C   0  0  0  0  0  0  0  0  0  0  0  0
  -28.1579  -24.3226   20.9166 C   0  0  0  0  0  0  0  0  0  0  0  0
  -27.2195  -19.4617   20.8401 C   0  0  0  0  0  0  0  0  0  0  0  0
  -30.7295  -23.3198   21.8345 C   0  0  0  0  0  0  0  0  0  0  0  0
  -29.4503  -24.8283   20.2966 C   0  0  0  0  0  0  0  0  0  0  0  0
  -20.5724  -29.3609   23.6079 C   0  0  1  0  0  0  0  0  0  0  0  0
  -23.1750  -29.3648   20.8403 C   0  0  1  0  0  0  0  0  0  0  0  0
  -25.8090  -19.0078   21.2466 C   0  0  1  0  0  0  0  0  0  0  0  0
  -25.0294  -23.6773   15.9193 C   0  0  0  0  0  0  0  0  0  0  0  0
  -22.4073  -24.9256   21.8722 C   0  0  0  0  0  0  0  0  0  0  0  0
  -23.3157  -23.2647   20.2338 C   0  0  0  0  0  0  0  0  0  0  0  0
  -21.2922  -24.6045   19.6568 C   0  0  0  0  0  0  0  0  0  0  0  0
  -26.3365  -27.2500   15.8584 C   0  0  0  0  0  0  0  0  0  0  0  0
  -31.8477  -25.2982   20.8049 C   0  0  0  0  0  0  0  0  0  0  0  0
  -31.6823  -29.7924   22.5732 C   0  0  0  0  0  0  0  0  0  0  0  0
  -30.3135  -30.4637   22.5463 C   0  0  0  0  0  0  0  0  0  1  0  0
  -23.5539  -25.7334   19.7045 C   0  0  1  0  0  0  0  0  0  0  0  0
  -25.0303  -25.1593   16.2606 C   0  0  2  0  0  0  0  0  0  0  0  0
  -22.6581  -24.6541   20.3754 C   0  0  0  0  0  0  0  0  0  0  0  0
  -25.6390  -16.5504   21.1305 N   0  0  0  0  0  0  0  0  0  0  0  0
  -31.7250  -27.4602   21.9611 N   0  0  0  0  0  0  0  0  0  0  0  0
  -31.8008  -28.7479   21.5842 N   0  0  0  0  0  0  0  0  0  0  0  0
  -25.3976  -17.7316   20.5367 N   0  0  0  0  0  0  0  0  0  0  0  0
  -23.7610  -28.0645   20.5088 N   0  0  0  0  0  0  0  0  0  0  0  0
  -27.5927  -20.6935   21.5387 N   0  0  0  0  0  0  0  0  0  0  0  0
  -28.3186  -22.9712   21.4488 N   0  0  0  0  0  0  0  0  0  0  0  0
  -24.4730  -18.7125   18.5890 N   0  0  0  0  0  0  0  0  0  0  0  0
  -23.9227  -14.2852   17.8877 N   0  0  0  0  0  0  0  0  0  0  0  0
  -21.2832  -29.4226   22.3488 N   0  0  0  0  0  0  0  0  0  0  0  0
  -23.7859  -25.5164   18.2806 N   0  0  0  0  0  0  0  0  0  0  0  0
  -30.5560  -24.7292   21.3216 N   0  3  0  0  0  0  0  0  0  0  0  0
  -26.2223  -25.7875   15.6238 N   0  3  0  0  0  0  0  0  0  0  0  0
  -23.5891  -16.3683   16.9889 O   0  0  0  0  0  0  0  0  0  0  0  0
  -23.4324  -29.0571   23.1671 O   0  0  0  0  0  0  0  0  0  0  0  0
  -21.8689  -27.3629   19.3410 O   0  0  0  0  0  0  0  0  0  0  0  0
  -26.0993  -25.4237   18.4111 O   0  0  0  0  0  0  0  0  0  0  0  0
  -27.1840  -22.0065   19.6890 O   0  0  0  0  0  0  0  0  0  0  0  0
  -25.4506  -10.1889   21.3404 O   0  0  0  0  0  0  0  0  0  0  0  0
  -29.3023  -29.5045   22.8284 O   0  0  0  0  0  0  0  0  0  1  0  0
  -20.9592   -7.1458   20.3548 F   0  0  0  0  0  0  0  0  0  0  0  0
  -24.2153   -8.7831   23.3752 F   0  0  0  0  0  0  0  0  0  0  0  0
  1  2  1  0  0  0  0
  1  5  2  0  0  0  0
  2  6  2  0  0  0  0
  3  8  2  0  0  0  0
  3 17  1  0  0  0  0
  4  9  1  0  0  0  0
  4 17  2  0  0  0  0
  5 19  1  0  0  0  0
  6 21  1  0  0  0  0
  7 10  2  0  0  0  0
  7 20  1  0  0  0  0
  8 23  1  0  0  0  0
  9 23  2  0  0  0  0
 10 24  1  0  0  0  0
 11 12  2  0  0  0  0
 11 25  1  0  0  0  0
 12 26  1  0  0  0  0
 13 16  2  0  0  0  0
 13 29  1  0  0  0  0
 14 22  1  0  0  0  0
 14 24  2  0  0  0  0
 15 26  2  0  0  0  0
 15 27  1  0  0  0  0
 16 65  1  0  0  0  0
 17 28  1  0  0  0  0
 18 28  1  0  0  0  0
 18 30  2  0  0  0  0
 18 31  1  0  0  0  0
 19 21  2  0  0  0  0
 19 36  1  0  0  0  0
 20 22  2  0  0  0  0
 20 37  1  0  0  0  0
 21 49  1  0  0  0  0
 22 38  1  0  0  0  0
 23 81  1  0  0  0  0
 24 82  1  0  0  0  0
 25 27  2  0  0  0  0
 25 81  1  0  0  0  0
 26 83  1  0  0  0  0
 27 84  1  0  0  0  0
 28 63  2  0  0  0  0
 29 57  1  0  0  0  0
 29 64  2  0  0  0  0
 30 66  1  0  0  0  0
 30 70  1  0  0  0  0
 31 71  1  0  0  0  0
 31 76  2  0  0  0  0
 32 50  1  0  0  0  0
 32 72  1  0  0  0  0
 32 77  2  0  0  0  0
 33 60  1  0  0  0  0
 33 67  1  0  0  0  0
 33 78  2  0  0  0  0
 34 61  1  0  0  0  0
 34 73  1  0  0  0  0
 34 79  2  0  0  0  0
 35 68  1  0  0  0  0
 35 69  1  0  0  0  0
 35 80  2  0  0  0  0
 36 39  1  0  0  0  0
 37 50  1  0  0  0  0
 38 67  1  0  0  0  0
 39 41  1  0  0  0  0
 40 42  1  0  0  0  0
 40 43  1  0  0  0  0
 41 49  1  0  0  0  0
 42 51  1  0  0  0  0
 43 68  1  0  0  0  0
 44 47  1  0  0  0  0
 44 69  1  0  0  0  0
 45 48  1  0  0  0  0
 45 69  1  0  0  0  0
 46 51  1  0  0  0  0
 46 68  1  0  0  0  0
 47 74  1  0  0  0  0
 48 74  1  0  0  0  0
 49 72  1  0  0  0  0
 50 67  1  0  0  0  0
 51 66  1  0  0  0  0
 52 61  1  0  0  0  0
 53 62  1  0  0  0  0
 54 62  1  0  0  0  0
 55 62  1  0  0  0  0
 56 75  1  0  0  0  0
 57 74  1  0  0  0  0
 58 59  1  0  0  0  0
 58 65  1  0  0  0  0
 59 82  1  0  0  0  0
 60 62  1  0  0  0  0
 60 73  1  0  0  0  0
 61 75  1  0  0  0  0
 63 66  1  0  0  0  0
 64 65  1  0  0  0  0
M  CHG  2  74   1  75   1
M  ISO  4  35 100  59 101  69 100  82 101
M  END
> <Batch ID>
0191

> <Smiles>
CNC(C)C(=O)NC(C(=O)N1Cc2cc([101O:1][101CH2:1]Cn3ccc(CN4CC[100N:0]([100C:0](=O)N5CCCC(n6nc(-c7ccc(Oc8ccc(F)cc8F)cc7)c(C(N)=O)c6N)C5)CC4)n3)ccc2CC1C(=O)NC1CCCc2ccccc21)C(C)(C)C

> <Shape>
0.239

> <Color>
0.081

> <Negative vol penalty>
0.000

$$$$

  -OEChem-04052323273D

 84 93  0     1  0  0  0  0  0999 V2000
  -29.6037  -11.9005   19.7595 C   0  0  0  0  0  0  0  0  0  0  0  0
  -29.6200  -13.2649   19.4884 C   0  0  0  0  0  0  0  0  0  0  0  0
  -28.9739  -25.7077   19.2019 C   0  0  0  0  0  0  0  0  0  0  0  0
  -27.4016  -24.3731   20.4603 C   0  0  0  0  0  0  0  0  0  0  0  0
  -28.3897  -11.2462   19.9650 C   0  0  0  0  0  0  0  0  0  0  0  0
  -28.4222  -13.9757   19.4216 C   0  0  0  0  0  0  0  0  0  0  0  0
  -25.6888  -20.4515   20.8033 C   0  0  0  0  0  0  0  0  0  0  0  0
  -29.9928  -24.8113   19.5243 C   0  0  0  0  0  0  0  0  0  0  0  0
  -28.4205  -23.4767   20.7827 C   0  0  0  0  0  0  0  0  0  0  0  0
  -24.9502  -21.4621   20.1895 C   0  0  0  0  0  0  0  0  0  0  0  0
  -30.0646  -20.9330   19.2838 C   0  0  0  0  0  0  0  0  0  0  0  0
  -29.7875  -19.5708   19.1695 C   0  0  0  0  0  0  0  0  0  0  0  0
  -22.9182  -20.2425   20.6400 C   0  0  0  0  0  0  0  0  0  0  0  0
  -30.2529  -19.2786   21.5222 C   0  0  0  0  0  0  0  0  0  0  0  0
  -27.6783  -25.4886   19.6699 C   0  0  0  0  0  0  0  0  0  0  0  0
  -25.7718  -26.3654   18.2193 C   0  0  0  0  0  0  0  0  0  0  0  0
  -27.1771  -11.9512   19.9102 C   0  0  0  0  0  0  0  0  0  0  0  0
  -25.0475  -19.3217   21.3313 C   0  0  0  0  0  0  0  0  0  0  0  0
  -27.1908  -13.3300   19.6252 C   0  0  0  0  0  0  0  0  0  0  0  0
  -23.6507  -19.2201   21.2623 C   0  0  0  0  0  0  0  0  0  0  0  0
  -29.7161  -23.6958   20.3147 C   0  0  0  0  0  0  0  0  0  0  0  0
  -23.5650  -21.3564   20.1051 C   0  0  0  0  0  0  0  0  0  0  0  0
  -30.4360  -21.4681   20.5173 C   0  0  0  0  0  0  0  0  0  0  0  0
  -29.8816  -18.7436   20.2887 C   0  0  0  0  0  0  0  0  0  0  0  0
  -30.5301  -20.6409   21.6365 C   0  0  0  0  0  0  0  0  0  0  0  0
  -26.6255  -26.4145   19.3376 C   0  0  0  0  0  0  0  0  0  0  0  0
  -24.9554  -27.4606   18.3622 C   0  0  0  0  0  0  0  0  0  0  0  0
  -21.0829  -26.4633   23.4819 C   0  0  0  0  0  0  0  0  0  0  0  0
  -25.7213  -25.4147   17.1472 C   0  0  0  0  0  0  0  0  0  0  0  0
  -25.1458  -16.2016   20.7319 C   0  0  0  0  0  0  0  0  0  0  0  0
  -23.2200  -16.0360   23.3369 C   0  0  0  0  0  0  0  0  0  0  0  0
  -20.9817  -17.5937   25.3889 C   0  0  0  0  0  0  0  0  0  0  0  0
  -22.2962  -30.5466   22.4755 C   0  0  0  0  0  0  0  0  0  0  0  0
  -25.8869  -11.1917   20.0924 C   0  0  0  0  0  0  0  0  0  0  0  0
  -25.8561  -18.2528   22.0141 C   0  0  0  0  0  0  0  0  0  0  0  0
  -22.9125  -18.0372   21.8316 C   0  0  0  0  0  0  0  0  0  0  0  0
  -24.6857  -12.0903   20.3752 C   0  0  0  0  0  0  0  0  0  0  0  0
  -25.2430  -31.7190   20.8573 C   0  0  0  0  0  0  0  0  0  0  0  0
  -24.6620  -13.2697   19.4082 C   0  0  0  0  0  0  0  0  0  0  0  0
  -25.8205  -30.4661   20.1965 C   0  0  0  0  0  0  0  0  0  0  0  0
  -24.6057  -31.4017   22.2083 C   0  0  0  0  0  0  0  0  0  0  0  0
  -18.8606  -26.3858   22.6533 C   0  0  0  0  0  0  0  0  0  0  0  0
  -24.1717  -29.0759   21.5184 C   0  0  0  0  0  0  0  0  0  0  0  0
  -21.9727  -24.5858   22.0188 C   0  0  0  0  0  0  0  0  0  0  0  0
  -20.1175  -25.3671   20.6836 C   0  0  0  0  0  0  0  0  0  0  0  0
  -25.9140  -14.1404   19.5691 C   0  0  1  0  0  0  0  0  0  0  0  0
  -20.8638  -25.0592   22.9478 C   0  0  2  0  0  0  0  0  0  0  0  0
  -25.1453  -16.9038   22.0603 C   0  0  1  0  0  0  0  0  0  0  0  0
  -19.5959  -25.1817   22.0987 C   0  0  1  0  0  0  0  0  0  0  0  0
  -24.7757  -29.3361   20.1278 C   0  0  2  0  0  0  0  0  0  0  0  0
  -19.5517  -17.1906   27.4113 C   0  0  0  0  0  0  0  0  0  0  0  0
  -21.2535  -14.4488   21.6271 C   0  0  0  0  0  0  0  0  0  0  0  0
  -19.4974  -14.8973   23.3542 C   0  0  0  0  0  0  0  0  0  0  0  0
  -21.5352  -13.5922   23.9597 C   0  0  0  0  0  0  0  0  0  0  0  0
  -22.3698  -19.7019   26.9341 C   0  0  0  0  0  0  0  0  0  0  0  0
  -19.6535  -28.5255   23.7242 C   0  0  0  0  0  0  0  0  0  0  0  0
  -20.0305  -29.5524   22.6690 C   0  0  0  0  0  0  0  0  0  0  0  0
  -22.2299  -24.6668   19.5052 C   0  0  0  0  0  0  0  0  0  0  0  0
  -23.3668  -23.6663   19.5749 C   0  0  0  0  0  0  0  0  0  1  0  0
  -21.7290  -16.0826   23.5689 C   0  0  1  0  0  0  0  0  0  0  0  0
  -20.8965  -17.6852   26.9018 C   0  0  2  0  0  0  0  0  0  0  0  0
  -21.0175  -14.7767   23.1149 C   0  0  0  0  0  0  0  0  0  0  0  0
  -26.3747  -27.4584   20.1322 N   0  0  0  0  0  0  0  0  0  0  0  0
  -25.3543  -28.0754   19.5124 N   0  0  0  0  0  0  0  0  0  0  0  0
  -19.8998  -27.1701   23.2811 N   0  0  0  0  0  0  0  0  0  0  0  0
  -23.7479  -17.0154   22.4837 N   0  0  0  0  0  0  0  0  0  0  0  0
  -23.6235  -30.3233   22.0736 N   0  0  0  0  0  0  0  0  0  0  0  0
  -23.9424  -27.9481   17.6148 N   0  0  0  0  0  0  0  0  0  0  0  0
  -26.6326  -24.3498   17.1550 N   0  0  0  0  0  0  0  0  0  0  0  0
  -25.7968  -14.9827   20.7401 N   0  0  0  0  0  0  0  0  0  0  0  0
  -21.5453  -16.4035   24.9801 N   0  0  0  0  0  0  0  0  0  0  0  0
  -21.4285  -29.4743   22.3080 N   0  0  0  0  0  0  0  0  0  0  0  0
  -21.3117  -24.4509   20.6629 N   0  3  1  0  0  0  0  0  0  0  0  0
  -21.0776  -19.0961   27.3464 N   0  3  0  0  0  0  0  0  0  0  0  0
  -22.1110  -26.8563   24.0139 O   0  0  0  0  0  0  0  0  0  0  0  0
  -24.9035  -25.5160   16.2014 O   0  0  0  0  0  0  0  0  0  0  0  0
  -24.5950  -16.7261   19.7711 O   0  0  0  0  0  0  0  0  0  0  0  0
  -23.8924  -15.1673   23.8979 O   0  0  0  0  0  0  0  0  0  0  0  0
  -20.5844  -18.4870   24.6441 O   0  0  0  0  0  0  0  0  0  0  0  0
  -21.9117  -31.6236   22.9437 O   0  0  0  0  0  0  0  0  0  0  0  0
  -30.7100  -22.8208   20.6294 O   0  0  0  0  0  0  0  0  0  0  0  0
  -22.8417  -22.3412   19.5059 O   0  0  0  0  0  0  0  0  0  1  0  0
  -29.6139  -17.4357   20.1790 F   0  0  0  0  0  0  0  0  0  0  0  0
  -30.8852  -21.1493   22.8244 F   0  0  0  0  0  0  0  0  0  0  0  0
  1  2  1  0  0  0  0
  1  5  2  0  0  0  0
  2  6  2  0  0  0  0
  3  8  2  0  0  0  0
  3 15  1  0  0  0  0
  4  9  1  0  0  0  0
  4 15  2  0  0  0  0
  5 17  1  0  0  0  0
  6 19  1  0  0  0  0
  7 10  2  0  0  0  0
  7 18  1  0  0  0  0
  8 21  1  0  0  0  0
  9 21  2  0  0  0  0
 10 22  1  0  0  0  0
 11 12  2  0  0  0  0
 11 23  1  0  0  0  0
 12 24  1  0  0  0  0
 13 20  1  0  0  0  0
 13 22  2  0  0  0  0
 14 24  2  0  0  0  0
 14 25  1  0  0  0  0
 15 26  1  0  0  0  0
 16 26  1  0  0  0  0
 16 27  2  0  0  0  0
 16 29  1  0  0  0  0
 17 19  2  0  0  0  0
 17 34  1  0  0  0  0
 18 20  2  0  0  0  0
 18 35  1  0  0  0  0
 19 46  1  0  0  0  0
 20 36  1  0  0  0  0
 21 81  1  0  0  0  0
 22 82  1  0  0  0  0
 23 25  2  0  0  0  0
 23 81  1  0  0  0  0
 24 83  1  0  0  0  0
 25 84  1  0  0  0  0
 26 63  2  0  0  0  0
 27 64  1  0  0  0  0
 27 68  1  0  0  0  0
 28 47  1  0  0  0  0
 28 65  1  0  0  0  0
 28 75  2  0  0  0  0
 29 69  1  0  0  0  0
 29 76  2  0  0  0  0
 30 48  1  0  0  0  0
 30 70  1  0  0  0  0
 30 77  2  0  0  0  0
 31 60  1  0  0  0  0
 31 66  1  0  0  0  0
 31 78  2  0  0  0  0
 32 61  1  0  0  0  0
 32 71  1  0  0  0  0
 32 79  2  0  0  0  0
 33 67  1  0  0  0  0
 33 72  1  0  0  0  0
 33 80  2  0  0  0  0
 34 37  1  0  0  0  0
 35 48  1  0  0  0  0
 36 66  1  0  0  0  0
 37 39  1  0  0  0  0
 38 40  1  0  0  0  0
 38 41  1  0  0  0  0
 39 46  1  0  0  0  0
 40 50  1  0  0  0  0
 41 67  1  0  0  0  0
 42 49  1  0  0  0  0
 42 65  1  0  0  0  0
 43 50  1  0  0  0  0
 43 67  1  0  0  0  0
 44 47  1  0  0  0  0
 44 73  1  0  0  0  0
 45 49  1  0  0  0  0
 45 73  1  0  0  0  0
 46 70  1  0  0  0  0
 47 49  1  0  0  0  0
 48 66  1  0  0  0  0
 50 64  1  0  0  0  0
 51 61  1  0  0  0  0
 52 62  1  0  0  0  0
 53 62  1  0  0  0  0
 54 62  1  0  0  0  0
 55 74  1  0  0  0  0
 56 57  1  0  0  0  0
 56 65  1  0  0  0  0
 57 72  1  0  0  0  0
 58 59  1  0  0  0  0
 58 73  1  0  0  0  0
 59 82  1  0  0  0  0
 60 62  1  0  0  0  0
 60 71  1  0  0  0  0
 61 74  1  0  0  0  0
 63 64  1  0  0  0  0
M  CHG  2  73   1  74   1
M  ISO  4  33 100  59 101  72 100  82 101
M  END
> <Batch ID>
0191

> <Smiles>
CNC(C)C(=O)NC(C(=O)N1Cc2cc([101O:1][101CH2:1]CN3CC4CN(CC[100NH:0][100C:0](=O)N5CCCC(n6nc(-c7ccc(Oc8ccc(F)cc8F)cc7)c(C(N)=O)c6N)C5)C(=O)C4C3)ccc2CC1C(=O)NC1CCCc2ccccc21)C(C)(C)C

> <Shape>
0.234

> <Color>
0.070

> <Negative vol penalty>
0.000

$$$$

  -OEChem-04052323273D

 86 95  0     1  0  0  0  0  0999 V2000
  -25.6927  -30.6577   24.6362 C   0  0  0  0  0  0  0  0  0  0  0  0
  -25.0098  -29.4500   24.7394 C   0  0  0  0  0  0  0  0  0  0  0  0
  -30.6960  -19.6978   19.3558 C   0  0  0  0  0  0  0  0  0  0  0  0
  -28.7382  -20.1379   20.7012 C   0  0  0  0  0  0  0  0  0  0  0  0
  -25.7869  -31.3008   23.4027 C   0  0  0  0  0  0  0  0  0  0  0  0
  -24.4198  -28.8852   23.6092 C   0  0  0  0  0  0  0  0  0  0  0  0
  -23.9078  -22.9214   22.3147 C   0  0  0  0  0  0  0  0  0  0  0  0
  -30.5675  -20.9517   18.7585 C   0  0  0  0  0  0  0  0  0  0  0  0
  -28.6097  -21.3919   20.1040 C   0  0  0  0  0  0  0  0  0  0  0  0
  -22.8594  -22.0150   22.4673 C   0  0  0  0  0  0  0  0  0  0  0  0
  -31.2723  -24.1657   19.5373 C   0  0  0  0  0  0  0  0  0  0  0  0
  -32.4253  -24.9381   19.3969 C   0  0  0  0  0  0  0  0  0  0  0  0
  -22.2155  -22.3826   20.1717 C   0  0  0  0  0  0  0  0  0  0  0  0
  -32.1210  -24.9566   17.0002 C   0  0  0  0  0  0  0  0  0  0  0  0
  -22.1065  -12.2203   20.5924 C   0  0  0  0  0  0  0  0  0  0  0  0
  -29.7813  -19.2909   20.3271 C   0  0  0  0  0  0  0  0  0  0  0  0
  -30.6405  -17.6776   22.1066 C   0  0  0  0  0  0  0  0  0  0  0  0
  -25.2060  -30.7388   22.2549 C   0  0  0  0  0  0  0  0  0  0  0  0
  -24.1116  -23.5744   21.0906 C   0  0  0  0  0  0  0  0  0  0  0  0
  -24.5052  -29.5221   22.3594 C   0  0  0  0  0  0  0  0  0  0  0  0
  -23.2688  -23.2948   20.0054 C   0  0  0  0  0  0  0  0  0  0  0  0
  -29.5244  -21.7988   19.1327 C   0  0  0  0  0  0  0  0  0  0  0  0
  -22.0113  -21.7477   21.3966 C   0  0  0  0  0  0  0  0  0  0  0  0
  -30.5437  -23.7887   18.4091 C   0  0  0  0  0  0  0  0  0  0  0  0
  -32.8496  -25.3336   18.1283 C   0  0  0  0  0  0  0  0  0  0  0  0
  -30.9680  -24.1842   17.1406 C   0  0  0  0  0  0  0  0  0  0  0  0
  -29.9132  -17.9954   20.9440 C   0  0  0  0  0  0  0  0  0  0  0  0
  -21.5882  -14.7824   20.0499 C   0  0  0  0  0  0  0  0  0  0  0  0
  -22.9129  -13.2266   21.0768 C   0  0  0  0  0  0  0  0  0  0  0  0
  -20.7823  -13.7760   19.5649 C   0  0  0  0  0  0  0  0  0  0  0  0
  -30.4500  -16.3275   22.2725 C   0  0  0  0  0  0  0  0  0  0  0  0
  -31.4187  -18.5268   22.9604 C   0  0  0  0  0  0  0  0  0  0  0  0
  -24.0784  -26.6049   20.1321 C   0  0  0  0  0  0  0  0  0  0  0  0
  -25.1066  -25.3242   17.3348 C   0  0  0  0  0  0  0  0  0  0  0  0
  -25.2892  -22.5975   15.2906 C   0  0  0  0  0  0  0  0  0  0  0  0
  -26.1230  -12.5755   20.5260 C   0  0  0  0  0  0  0  0  0  0  0  0
  -25.2937  -31.4944   20.9527 C   0  0  0  0  0  0  0  0  0  0  0  0
  -25.2633  -24.5292   20.9343 C   0  0  0  0  0  0  0  0  0  0  0  0
  -23.4573  -23.9541   18.6644 C   0  0  0  0  0  0  0  0  0  0  0  0
  -24.9616  -30.6423   19.7304 C   0  0  0  0  0  0  0  0  0  0  0  0
  -29.5964  -12.3326   19.7820 C   0  0  0  0  0  0  0  0  0  0  0  0
  -23.6930  -29.8311   19.9739 C   0  0  0  0  0  0  0  0  0  0  0  0
  -30.1371  -13.7277   20.1004 C   0  0  0  0  0  0  0  0  0  0  0  0
  -28.1945  -12.3945   19.1796 C   0  0  0  0  0  0  0  0  0  0  0  0
  -27.7519  -14.5476   20.2941 C   0  0  0  0  0  0  0  0  0  0  0  0
  -20.0190  -16.9681   20.2658 C   0  0  0  0  0  0  0  0  0  0  0  0
  -22.0100  -17.3455   20.7846 C   0  0  0  0  0  0  0  0  0  0  0  0
  -23.8731  -28.8654   21.1514 C   0  0  1  0  0  0  0  0  0  0  0  0
  -25.0649  -25.5231   19.7941 C   0  0  1  0  0  0  0  0  0  0  0  0
  -29.1407  -14.5335   20.9555 C   0  0  2  0  0  0  0  0  0  0  0  0
  -21.3629  -16.3423   19.7806 C   0  0  0  0  0  0  0  0  0  0  0  0
  -19.5935  -14.0826   18.7210 C   0  0  0  0  0  0  0  0  0  0  0  0
  -21.6862  -16.6543   18.3129 C   0  0  0  0  0  0  0  0  0  0  0  0
  -26.1595  -21.8679   13.0528 C   0  0  0  0  0  0  0  0  0  0  0  0
  -22.7971  -26.7747   15.9664 C   0  0  0  0  0  0  0  0  0  0  0  0
  -23.1335  -25.2895   13.9791 C   0  0  0  0  0  0  0  0  0  0  0  0
  -24.9565  -26.8293   14.7060 C   0  0  0  0  0  0  0  0  0  0  0  0
  -27.0680  -20.5725   16.5130 C   0  0  0  0  0  0  0  0  0  0  0  0
  -24.0969  -12.9057   21.9206 C   0  0  0  0  0  0  0  0  0  0  0  0
  -20.3408  -18.6054   22.0567 C   0  0  0  0  0  0  0  0  0  0  0  0
  -21.1752  -19.7999   22.4750 C   0  0  0  0  0  0  0  0  0  1  0  0
  -24.4348  -24.7829   16.0960 C   0  0  1  0  0  0  0  0  0  0  0  0
  -26.4542  -21.9769   14.5408 C   0  0  2  0  0  0  0  0  0  0  0  0
  -23.8255  -25.9080   15.2126 C   0  0  0  0  0  0  0  0  0  0  0  0
  -21.0267  -12.4770   19.8277 N   0  0  0  0  0  0  0  0  0  0  0  0
  -29.3060  -16.9328   20.4090 N   0  0  0  0  0  0  0  0  0  0  0  0
  -22.6682  -14.5257   20.8143 N   0  0  0  0  0  0  0  0  0  0  0  0
  -29.6515  -15.9341   21.2392 N   0  0  0  0  0  0  0  0  0  0  0  0
  -24.5936  -24.8848   18.5634 N   0  0  0  0  0  0  0  0  0  0  0  0
  -27.2985  -13.1712   20.0397 N   0  0  0  0  0  0  0  0  0  0  0  0
  -30.8893  -15.4505   23.2000 N   0  0  0  0  0  0  0  0  0  0  0  0
  -31.5091  -19.8894   22.6448 N   0  0  0  0  0  0  0  0  0  0  0  0
  -24.6415  -27.7088   20.7434 N   0  0  0  0  0  0  0  0  0  0  0  0
  -25.4319  -23.9632   15.4160 N   0  0  0  0  0  0  0  0  0  0  0  0
  -25.3334  -13.3790   21.3393 N   0  0  0  0  0  0  0  0  0  0  0  0
  -20.7760  -18.1505   20.7179 N   0  3  0  0  0  0  0  0  0  0  0  0
  -26.7389  -20.6112   15.0648 N   0  3  0  0  0  0  0  0  0  0  0  0
  -32.0297  -18.0873   23.9639 O   0  0  0  0  0  0  0  0  0  0  0  0
  -22.8943  -26.4501   19.8572 O   0  0  0  0  0  0  0  0  0  0  0  0
  -26.0563  -26.1025   17.2166 O   0  0  0  0  0  0  0  0  0  0  0  0
  -24.3451  -21.9373   15.7188 O   0  0  0  0  0  0  0  0  0  0  0  0
  -25.8038  -11.4118   20.2596 O   0  0  0  0  0  0  0  0  0  0  0  0
  -29.3988  -23.0226   18.5503 O   0  0  0  0  0  0  0  0  0  0  0  0
  -20.9869  -20.8640   21.5430 O   0  0  0  0  0  0  0  0  0  1  0  0
  -33.9560  -26.0765   17.9937 F   0  0  0  0  0  0  0  0  0  0  0  0
  -30.2715  -23.8262   16.0532 F   0  0  0  0  0  0  0  0  0  0  0  0
  1  2  1  0  0  0  0
  1  5  2  0  0  0  0
  2  6  2  0  0  0  0
  3  8  2  0  0  0  0
  3 16  1  0  0  0  0
  4  9  1  0  0  0  0
  4 16  2  0  0  0  0
  5 18  1  0  0  0  0
  6 20  1  0  0  0  0
  7 10  2  0  0  0  0
  7 19  1  0  0  0  0
  8 22  1  0  0  0  0
  9 22  2  0  0  0  0
 10 23  1  0  0  0  0
 11 12  2  0  0  0  0
 11 24  1  0  0  0  0
 12 25  1  0  0  0  0
 13 21  1  0  0  0  0
 13 23  2  0  0  0  0
 14 25  2  0  0  0  0
 14 26  1  0  0  0  0
 15 29  1  0  0  0  0
 15 65  2  0  0  0  0
 16 27  1  0  0  0  0
 17 27  1  0  0  0  0
 17 31  2  0  0  0  0
 17 32  1  0  0  0  0
 18 20  2  0  0  0  0
 18 37  1  0  0  0  0
 19 21  2  0  0  0  0
 19 38  1  0  0  0  0
 20 48  1  0  0  0  0
 21 39  1  0  0  0  0
 22 83  1  0  0  0  0
 23 84  1  0  0  0  0
 24 26  2  0  0  0  0
 24 83  1  0  0  0  0
 25 85  1  0  0  0  0
 26 86  1  0  0  0  0
 27 66  2  0  0  0  0
 28 30  2  0  0  0  0
 28 51  1  0  0  0  0
 28 67  1  0  0  0  0
 29 59  1  0  0  0  0
 29 67  2  0  0  0  0
 30 52  1  0  0  0  0
 30 65  1  0  0  0  0
 31 68  1  0  0  0  0
 31 71  1  0  0  0  0
 32 72  1  0  0  0  0
 32 78  2  0  0  0  0
 33 49  1  0  0  0  0
 33 73  1  0  0  0  0
 33 79  2  0  0  0  0
 34 62  1  0  0  0  0
 34 69  1  0  0  0  0
 34 80  2  0  0  0  0
 35 63  1  0  0  0  0
 35 74  1  0  0  0  0
 35 81  2  0  0  0  0
 36 70  1  0  0  0  0
 36 75  1  0  0  0  0
 36 82  2  0  0  0  0
 37 40  1  0  0  0  0
 38 49  1  0  0  0  0
 39 69  1  0  0  0  0
 40 42  1  0  0  0  0
 41 43  1  0  0  0  0
 41 44  1  0  0  0  0
 42 48  1  0  0  0  0
 43 50  1  0  0  0  0
 44 70  1  0  0  0  0
 45 50  1  0  0  0  0
 45 70  1  0  0  0  0
 46 51  1  0  0  0  0
 46 76  1  0  0  0  0
 47 51  1  0  0  0  0
 47 76  1  0  0  0  0
 48 73  1  0  0  0  0
 49 69  1  0  0  0  0
 50 68  1  0  0  0  0
 51 53  1  0  0  0  0
 54 63  1  0  0  0  0
 55 64  1  0  0  0  0
 56 64  1  0  0  0  0
 57 64  1  0  0  0  0
 58 77  1  0  0  0  0
 59 75  1  0  0  0  0
 60 61  1  0  0  0  0
 60 76  1  0  0  0  0
 61 84  1  0  0  0  0
 62 64  1  0  0  0  0
 62 74  1  0  0  0  0
 63 77  1  0  0  0  0
 66 68  1  0  0  0  0
M  CHG  2  76   1  77   1
M  ISO  4  36 100  61 101  75 100  84 101
M  END
> <Batch ID>
0191

> <Smiles>
CNC(C)C(=O)NC(C(=O)N1Cc2cc([101O:1][101CH2:1]CN3CC(C)(c4nc(C[100NH:0][100C:0](=O)N5CCCC(n6nc(-c7ccc(Oc8ccc(F)cc8F)cc7)c(C(N)=O)c6N)C5)cnc4C)C3)ccc2CC1C(=O)NC1CCCc2ccccc21)C(C)(C)C

> <Shape>
0.214

> <Color>
0.074

> <Negative vol penalty>
0.000

$$$$

  -OEChem-04052323273D

 84 93  0     1  0  0  0  0  0999 V2000
  -16.5259  -29.2516   23.4981 C   0  0  0  0  0  0  0  0  0  0  0  0
  -17.2026  -30.1089   22.6379 C   0  0  0  0  0  0  0  0  0  0  0  0
  -25.1651  -12.5079   19.8032 C   0  0  0  0  0  0  0  0  0  0  0  0
  -25.2682  -12.8143   22.1974 C   0  0  0  0  0  0  0  0  0  0  0  0
  -17.2347  -28.5282   24.4550 C   0  0  0  0  0  0  0  0  0  0  0  0
  -18.5895  -30.2341   22.7262 C   0  0  0  0  0  0  0  0  0  0  0  0
  -26.7486  -31.2390   21.3769 C   0  0  0  0  0  0  0  0  0  0  0  0
  -25.6201  -11.1977   19.9512 C   0  0  0  0  0  0  0  0  0  0  0  0
  -25.7231  -11.5041   22.3455 C   0  0  0  0  0  0  0  0  0  0  0  0
  -27.9063  -30.6514   21.8850 C   0  0  0  0  0  0  0  0  0  0  0  0
  -26.5679   -8.1238   23.3841 C   0  0  0  0  0  0  0  0  0  0  0  0
  -25.9934   -7.3468   24.3900 C   0  0  0  0  0  0  0  0  0  0  0  0
  -26.8189  -28.4983   21.8563 C   0  0  0  0  0  0  0  0  0  0  0  0
  -30.4930  -26.0168   21.6786 C   0  0  0  0  0  0  0  0  0  0  0  0
  -23.8250   -7.6153   23.3589 C   0  0  0  0  0  0  0  0  0  0  0  0
  -31.6596  -27.2379   20.0184 C   0  0  0  0  0  0  0  0  0  0  0  0
  -24.9892  -13.3162   20.9263 C   0  0  0  0  0  0  0  0  0  0  0  0
  -23.1830  -15.1113   20.7752 C   0  0  0  0  0  0  0  0  0  0  0  0
  -18.6295  -28.6547   24.5627 C   0  0  0  0  0  0  0  0  0  0  0  0
  -25.6118  -30.4610   21.1145 C   0  0  0  0  0  0  0  0  0  0  0  0
  -19.3255  -29.4944   23.6695 C   0  0  0  0  0  0  0  0  0  0  0  0
  -25.6489  -29.0780   21.3425 C   0  0  0  0  0  0  0  0  0  0  0  0
  -31.1898  -27.1554   21.3137 C   0  0  0  0  0  0  0  0  0  0  0  0
  -25.8991  -10.6958   21.2224 C   0  0  0  0  0  0  0  0  0  0  0  0
  -27.9407  -29.2814   22.1275 C   0  0  0  0  0  0  0  0  0  0  0  0
  -25.7709   -8.6467   22.3656 C   0  0  0  0  0  0  0  0  0  0  0  0
  -24.6219   -7.0925   24.3774 C   0  0  0  0  0  0  0  0  0  0  0  0
  -24.3995   -8.3923   22.3530 C   0  0  0  0  0  0  0  0  0  0  0  0
  -24.5197  -14.6699   20.7739 C   0  0  0  0  0  0  0  0  0  0  0  0
  -30.3119  -25.0363   20.7239 C   0  0  0  0  0  0  0  0  0  0  0  0
  -23.2700  -16.4706   20.5983 C   0  0  0  0  0  0  0  0  0  0  0  0
  -21.9709  -14.3599   20.9230 C   0  0  0  0  0  0  0  0  0  0  0  0
  -22.6305  -30.4029   22.2154 C   0  0  0  0  0  0  0  0  0  0  0  0
  -22.2278  -28.1811   19.8865 C   0  0  0  0  0  0  0  0  0  0  0  0
  -24.0858  -25.3849   18.5651 C   0  0  0  0  0  0  0  0  0  0  0  0
  -27.2893  -20.4307   21.8594 C   0  0  0  0  0  0  0  0  0  0  0  0
  -19.3476  -27.8423   25.6113 C   0  0  0  0  0  0  0  0  0  0  0  0
  -24.3796  -31.1058   20.5414 C   0  0  0  0  0  0  0  0  0  0  0  0
  -24.4620  -28.1953   21.0584 C   0  0  0  0  0  0  0  0  0  0  0  0
  -20.7439  -28.3722   25.9208 C   0  0  0  0  0  0  0  0  0  0  0  0
  -26.0427  -19.8287   18.6310 C   0  0  0  0  0  0  0  0  0  0  0  0
  -21.5124  -28.5986   24.6275 C   0  0  0  0  0  0  0  0  0  0  0  0
  -25.3737  -18.4666   18.8127 C   0  0  0  0  0  0  0  0  0  0  0  0
  -27.3736  -19.9180   19.3794 C   0  0  0  0  0  0  0  0  0  0  0  0
  -28.2212  -24.0076   21.5597 C   0  0  0  0  0  0  0  0  0  0  0  0
  -29.9716  -22.6207   20.4377 C   0  0  0  0  0  0  0  0  0  0  0  0
  -27.8034  -22.7872   22.3757 C   0  0  0  0  0  0  0  0  0  0  0  0
  -29.5317  -21.4297   21.2817 C   0  0  0  0  0  0  0  0  0  0  0  0
  -26.6103  -18.2098   20.9973 C   0  0  0  0  0  0  0  0  0  0  0  0
  -20.8301  -29.6699   23.7673 C   0  0  1  0  0  0  0  0  0  0  0  0
  -23.1100  -30.2990   20.7952 C   0  0  1  0  0  0  0  0  0  0  0  0
  -25.2425  -18.1104   20.3042 C   0  0  2  0  0  0  0  0  0  0  0  0
  -24.0639  -24.3443   16.2816 C   0  0  0  0  0  0  0  0  0  0  0  0
  -20.1691  -26.2779   21.0907 C   0  0  0  0  0  0  0  0  0  0  0  0
  -21.2138  -24.4243   19.7713 C   0  0  0  0  0  0  0  0  0  0  0  0
  -20.1759  -26.3616   18.5912 C   0  0  0  0  0  0  0  0  0  0  0  0
  -27.0100  -25.7208   18.2569 C   0  0  0  0  0  0  0  0  0  0  0  0
  -31.4253  -28.2556   22.2864 C   0  0  0  0  0  0  0  0  0  0  0  0
  -30.3137  -29.3118   22.2812 C   0  0  0  0  0  0  0  0  0  1  0  0
  -22.3711  -26.6805   19.8042 C   0  0  1  0  0  0  0  0  0  0  0  0
  -24.7772  -25.3094   17.2157 C   0  0  2  0  0  0  0  0  0  0  0  0
  -20.9981  -25.9515   19.8324 C   0  0  0  0  0  0  0  0  0  0  0  0
  -31.4678  -26.2628   19.1048 N   0  0  0  0  0  0  0  0  0  0  0  0
  -25.3921  -15.6679   20.6092 N   0  0  0  0  0  0  0  0  0  0  0  0
  -30.7826  -25.1440   19.4634 N   0  0  0  0  0  0  0  0  0  0  0  0
  -24.6018  -16.7498   20.5052 N   0  0  0  0  0  0  0  0  0  0  0  0
  -29.6065  -23.8840   21.0934 N   0  0  0  0  0  0  0  0  0  0  0  0
  -23.2785  -28.8737   20.5047 N   0  0  0  0  0  0  0  0  0  0  0  0
  -27.2066  -19.5306   20.7866 N   0  0  0  0  0  0  0  0  0  0  0  0
  -28.1304  -21.5420   21.6916 N   0  0  0  0  0  0  0  0  0  0  0  0
  -22.3366  -17.4423   20.5148 N   0  0  0  0  0  0  0  0  0  0  0  0
  -22.0621  -12.9720   21.0960 N   0  0  0  0  0  0  0  0  0  0  0  0
  -21.4641  -29.7062   22.4678 N   0  0  0  0  0  0  0  0  0  0  0  0
  -23.1662  -26.4112   18.6110 N   0  0  0  0  0  0  0  0  0  0  0  0
  -26.1854  -24.8500   17.3802 N   0  3  0  0  0  0  0  0  0  0  0  0
  -20.8398  -14.9009   20.8860 O   0  0  0  0  0  0  0  0  0  0  0  0
  -23.2720  -31.0649   23.0228 O   0  0  0  0  0  0  0  0  0  0  0  0
  -21.2239  -28.7195   19.4132 O   0  0  0  0  0  0  0  0  0  0  0  0
  -24.3338  -24.6085   19.4850 O   0  0  0  0  0  0  0  0  0  0  0  0
  -26.6490  -20.2560   22.9036 O   0  0  0  0  0  0  0  0  0  0  0  0
  -26.3429   -9.4172   21.3673 O   0  0  0  0  0  0  0  0  0  0  0  0
  -29.0772  -28.7014   22.6276 O   0  0  0  0  0  0  0  0  0  1  0  0
  -24.0706   -6.3450   25.3425 F   0  0  0  0  0  0  0  0  0  0  0  0
  -23.6290   -8.8909   21.3765 F   0  0  0  0  0  0  0  0  0  0  0  0
  1  2  1  0  0  0  0
  1  5  2  0  0  0  0
  2  6  2  0  0  0  0
  3  8  2  0  0  0  0
  3 17  1  0  0  0  0
  4  9  1  0  0  0  0
  4 17  2  0  0  0  0
  5 19  1  0  0  0  0
  6 21  1  0  0  0  0
  7 10  2  0  0  0  0
  7 20  1  0  0  0  0
  8 24  1  0  0  0  0
  9 24  2  0  0  0  0
 10 25  1  0  0  0  0
 11 12  2  0  0  0  0
 11 26  1  0  0  0  0
 12 27  1  0  0  0  0
 13 22  1  0  0  0  0
 13 25  2  0  0  0  0
 14 23  2  0  0  0  0
 14 30  1  0  0  0  0
 15 27  2  0  0  0  0
 15 28  1  0  0  0  0
 16 23  1  0  0  0  0
 16 63  2  0  0  0  0
 17 29  1  0  0  0  0
 18 29  1  0  0  0  0
 18 31  2  0  0  0  0
 18 32  1  0  0  0  0
 19 21  2  0  0  0  0
 19 37  1  0  0  0  0
 20 22  2  0  0  0  0
 20 38  1  0  0  0  0
 21 50  1  0  0  0  0
 22 39  1  0  0  0  0
 23 58  1  0  0  0  0
 24 81  1  0  0  0  0
 25 82  1  0  0  0  0
 26 28  2  0  0  0  0
 26 81  1  0  0  0  0
 27 83  1  0  0  0  0
 28 84  1  0  0  0  0
 29 64  2  0  0  0  0
 30 65  2  0  0  0  0
 30 67  1  0  0  0  0
 31 66  1  0  0  0  0
 31 71  1  0  0  0  0
 32 72  1  0  0  0  0
 32 76  2  0  0  0  0
 33 51  1  0  0  0  0
 33 73  1  0  0  0  0
 33 77  2  0  0  0  0
 34 60  1  0  0  0  0
 34 68  1  0  0  0  0
 34 78  2  0  0  0  0
 35 61  1  0  0  0  0
 35 74  1  0  0  0  0
 35 79  2  0  0  0  0
 36 69  1  0  0  0  0
 36 70  1  0  0  0  0
 36 80  2  0  0  0  0
 37 40  1  0  0  0  0
 38 51  1  0  0  0  0
 39 68  1  0  0  0  0
 40 42  1  0  0  0  0
 41 43  1  0  0  0  0
 41 44  1  0  0  0  0
 42 50  1  0  0  0  0
 43 52  1  0  0  0  0
 44 69  1  0  0  0  0
 45 47  1  0  0  0  0
 45 67  1  0  0  0  0
 46 48  1  0  0  0  0
 46 67  1  0  0  0  0
 47 70  1  0  0  0  0
 48 70  1  0  0  0  0
 49 52  1  0  0  0  0
 49 69  1  0  0  0  0
 50 73  1  0  0  0  0
 51 68  1  0  0  0  0
 52 66  1  0  0  0  0
 53 61  1  0  0  0  0
 54 62  1  0  0  0  0
 55 62  1  0  0  0  0
 56 62  1  0  0  0  0
 57 75  1  0  0  0  0
 58 59  1  0  0  0  0
 59 82  1  0  0  0  0
 60 62  1  0  0  0  0
 60 74  1  0  0  0  0
 61 75  1  0  0  0  0
 63 65  1  0  0  0  0
 64 66  1  0  0  0  0
M  CHG  1  75   1
M  ISO  4  36 100  59 101  70 100  82 101
M  END
> <Batch ID>
0191

> <Smiles>
CNC(C)C(=O)NC(C(=O)N1Cc2cc([101O:1][101CH2:1]Cc3cnnc(N4CC[100N:0]([100C:0](=O)N5CCCC(n6nc(-c7ccc(Oc8ccc(F)cc8F)cc7)c(C(N)=O)c6N)C5)CC4)c3)ccc2CC1C(=O)NC1CCCc2ccccc21)C(C)(C)C

> <Shape>
0.249

> <Color>
0.114

> <Negative vol penalty>
0.000

$$$$

  -OEChem-04052323273D

 82 91  0     1  0  0  0  0  0999 V2000
  -24.7923  -24.3170   17.9271 C   0  0  0  0  0  0  0  0  0  0  0  0
  -23.8948  -24.2701   18.9890 C   0  0  0  0  0  0  0  0  0  0  0  0
  -27.7650  -13.7683   18.9281 C   0  0  0  0  0  0  0  0  0  0  0  0
  -27.9248  -13.6307   21.3349 C   0  0  0  0  0  0  0  0  0  0  0  0
  -25.7622  -25.3175   17.8792 C   0  0  0  0  0  0  0  0  0  0  0  0
  -23.9674  -25.2232   20.0043 C   0  0  0  0  0  0  0  0  0  0  0  0
  -19.3501  -27.1012   21.2871 C   0  0  0  0  0  0  0  0  0  0  0  0
  -29.0516  -13.2423   18.8126 C   0  0  0  0  0  0  0  0  0  0  0  0
  -29.2115  -13.1046   21.2194 C   0  0  0  0  0  0  0  0  0  0  0  0
  -18.5232  -26.3280   22.1009 C   0  0  0  0  0  0  0  0  0  0  0  0
  -30.5261  -10.2047   18.9907 C   0  0  0  0  0  0  0  0  0  0  0  0
  -30.7336   -9.2012   18.0444 C   0  0  0  0  0  0  0  0  0  0  0  0
  -19.2362  -27.5992   24.0228 C   0  0  0  0  0  0  0  0  0  0  0  0
  -32.3628  -10.5919   16.9269 C   0  0  0  0  0  0  0  0  0  0  0  0
  -27.2015  -13.9626   20.1893 C   0  0  0  0  0  0  0  0  0  0  0  0
  -24.6614  -13.7902   20.3490 C   0  0  0  0  0  0  0  0  0  0  0  0
  -25.8405  -26.2890   18.8895 C   0  0  0  0  0  0  0  0  0  0  0  0
  -20.1357  -28.1244   21.8371 C   0  0  0  0  0  0  0  0  0  0  0  0
  -24.9400  -26.2368   19.9706 C   0  0  0  0  0  0  0  0  0  0  0  0
  -20.0684  -28.3870   23.2131 C   0  0  0  0  0  0  0  0  0  0  0  0
  -29.7749  -12.9104   19.9582 C   0  0  0  0  0  0  0  0  0  0  0  0
  -18.4679  -26.5755   23.4692 C   0  0  0  0  0  0  0  0  0  0  0  0
  -31.2369  -11.4018   18.9051 C   0  0  0  0  0  0  0  0  0  0  0  0
  -31.6520   -9.3948   17.0125 C   0  0  0  0  0  0  0  0  0  0  0  0
  -32.1553  -11.5954   17.8732 C   0  0  0  0  0  0  0  0  0  0  0  0
  -25.8727  -14.5065   20.3093 C   0  0  0  0  0  0  0  0  0  0  0  0
  -23.6941  -14.7579   20.4694 C   0  0  0  0  0  0  0  0  0  0  0  0
  -17.9703  -22.8492   26.1099 C   0  0  0  0  0  0  0  0  0  0  0  0
  -19.9291  -23.2737   25.1005 C   0  0  0  0  0  0  0  0  0  0  0  0
  -18.1973  -24.6738   24.8232 C   0  0  0  0  0  0  0  0  0  1  0  0
  -24.4311  -12.3766   20.2830 C   0  0  0  0  0  0  0  0  0  0  0  0
  -23.2588  -28.7964   22.0382 C   0  0  0  0  0  0  0  0  0  0  0  0
  -22.0410  -31.5899   23.3673 C   0  0  0  0  0  0  0  0  0  0  0  0
  -25.1273  -33.0145   23.0751 C   0  0  0  0  0  0  0  0  0  0  0  0
  -23.8408  -20.2049   22.7224 C   0  0  0  0  0  0  0  0  0  0  0  0
  -26.9360  -27.3232   18.8187 C   0  0  0  0  0  0  0  0  0  0  0  0
  -20.9983  -28.9670   20.9370 C   0  0  0  0  0  0  0  0  0  0  0  0
  -20.8886  -29.4757   23.8509 C   0  0  0  0  0  0  0  0  0  0  0  0
  -26.7070  -28.5172   19.7418 C   0  0  0  0  0  0  0  0  0  0  0  0
  -22.8140  -19.3305   19.3651 C   0  0  0  0  0  0  0  0  0  0  0  0
  -26.2913  -28.0456   21.1316 C   0  0  0  0  0  0  0  0  0  0  0  0
  -23.3738  -17.9127   19.2375 C   0  0  0  0  0  0  0  0  0  0  0  0
  -23.7610  -20.2311   20.1534 C   0  0  0  0  0  0  0  0  0  0  0  0
  -24.6774  -18.3007   21.3790 C   0  0  0  0  0  0  0  0  0  0  0  0
  -21.7889  -21.6077   24.7898 C   0  0  0  0  0  0  0  0  0  0  0  0
  -22.0774  -23.4405   23.8012 C   0  0  0  0  0  0  0  0  0  0  0  0
  -24.9710  -27.2675   21.0782 C   0  0  1  0  0  0  0  0  0  0  0  0
  -22.1157  -29.7013   21.6751 C   0  0  1  0  0  0  0  0  0  0  0  0
  -23.7545  -17.3352   20.6134 C   0  0  2  0  0  0  0  0  0  0  0  0
  -22.9526  -22.1914   23.9761 C   0  0  0  0  0  0  0  0  0  0  0  0
  -17.1318  -21.9866   26.9906 C   0  0  0  0  0  0  0  0  0  0  0  0
  -26.3091  -35.2171   23.2972 C   0  0  0  0  0  0  0  0  0  0  0  0
  -20.8602  -32.4885   20.7020 C   0  0  0  0  0  0  0  0  0  0  0  0
  -22.7225  -34.1517   20.5182 C   0  0  0  0  0  0  0  0  0  0  0  0
  -21.0969  -34.3055   22.4041 C   0  0  0  0  0  0  0  0  0  0  0  0
  -26.8910  -31.9839   25.2166 C   0  0  0  0  0  0  0  0  0  0  0  0
  -22.8106  -32.4467   22.3933 C   0  0  1  0  0  0  0  0  0  0  0  0
  -25.9056  -33.9311   24.0017 C   0  0  2  0  0  0  0  0  0  0  0  0
  -21.8781  -33.3204   21.5075 C   0  0  0  0  0  0  0  0  0  0  0  0
  -25.6939  -15.8272   20.3972 N   0  0  0  0  0  0  0  0  0  0  0  0
  -19.2352  -22.4497   25.9020 N   0  0  0  0  0  0  0  0  0  0  0  0
  -17.3836  -23.9466   25.6055 N   0  0  0  0  0  0  0  0  0  0  0  0
  -19.4779  -24.4004   24.5261 N   0  0  0  0  0  0  0  0  0  0  0  0
  -24.3589  -15.9485   20.4933 N   0  0  0  0  0  0  0  0  0  0  0  0
  -21.2696  -22.9193   24.8345 N   0  0  0  0  0  0  0  0  0  0  0  0
  -21.6473  -30.3220   22.9208 N   0  0  0  0  0  0  0  0  0  0  0  0
  -24.0682  -19.6329   21.4606 N   0  0  0  0  0  0  0  0  0  0  0  0
  -22.3483  -14.6980   20.5560 N   0  0  0  0  0  0  0  0  0  0  0  0
  -25.5371  -11.5246   20.1601 N   0  0  0  0  0  0  0  0  0  0  0  0
  -23.8526  -28.1777   20.9547 N   0  0  0  0  0  0  0  0  0  0  0  0
  -23.7669  -33.2097   23.1880 N   0  0  0  0  0  0  0  0  0  0  0  0
  -23.2577  -21.4676   22.7246 N   0  0  0  0  0  0  0  0  0  0  0  0
  -27.1412  -33.2519   24.4842 N   0  3  0  0  0  0  0  0  0  0  0  0
  -23.2777  -11.8846   20.3150 O   0  0  0  0  0  0  0  0  0  0  0  0
  -23.5793  -28.6699   23.2142 O   0  0  0  0  0  0  0  0  0  0  0  0
  -21.7881  -32.0332   24.4910 O   0  0  0  0  0  0  0  0  0  0  0  0
  -25.6717  -32.2089   22.3234 O   0  0  0  0  0  0  0  0  0  0  0  0
  -24.1294  -19.6331   23.7795 O   0  0  0  0  0  0  0  0  0  0  0  0
  -31.0304  -12.3968   19.8458 O   0  0  0  0  0  0  0  0  0  0  0  0
  -17.6612  -25.8227   24.2658 O   0  0  0  0  0  0  0  0  0  1  0  0
  -31.8523   -8.4304   16.1047 F   0  0  0  0  0  0  0  0  0  0  0  0
  -32.8420  -12.7429   17.7865 F   0  0  0  0  0  0  0  0  0  0  0  0
  1  2  1  0  0  0  0
  1  5  2  0  0  0  0
  2  6  2  0  0  0  0
  3  8  2  0  0  0  0
  3 15  1  0  0  0  0
  4  9  1  0  0  0  0
  4 15  2  0  0  0  0
  5 17  1  0  0  0  0
  6 19  1  0  0  0  0
  7 10  2  0  0  0  0
  7 18  1  0  0  0  0
  8 21  1  0  0  0  0
  9 21  2  0  0  0  0
 10 22  1  0  0  0  0
 11 12  2  0  0  0  0
 11 23  1  0  0  0  0
 12 24  1  0  0  0  0
 13 20  1  0  0  0  0
 13 22  2  0  0  0  0
 14 24  2  0  0  0  0
 14 25  1  0  0  0  0
 15 26  1  0  0  0  0
 16 26  1  0  0  0  0
 16 27  2  0  0  0  0
 16 31  1  0  0  0  0
 17 19  2  0  0  0  0
 17 36  1  0  0  0  0
 18 20  2  0  0  0  0
 18 37  1  0  0  0  0
 19 47  1  0  0  0  0
 20 38  1  0  0  0  0
 21 79  1  0  0  0  0
 22 80  1  0  0  0  0
 23 25  2  0  0  0  0
 23 79  1  0  0  0  0
 24 81  1  0  0  0  0
 25 82  1  0  0  0  0
 26 60  2  0  0  0  0
 27 64  1  0  0  0  0
 27 68  1  0  0  0  0
 28 51  1  0  0  0  0
 28 61  1  0  0  0  0
 28 62  2  0  0  0  0
 29 61  2  0  0  0  0
 29 63  1  0  0  0  0
 29 65  1  0  0  0  0
 30 62  1  0  0  0  0
 30 63  2  0  0  0  0
 30 80  1  0  0  0  0
 31 69  1  0  0  0  0
 31 74  2  0  0  0  0
 32 48  1  0  0  0  0
 32 70  1  0  0  0  0
 32 75  2  0  0  0  0
 33 57  1  0  0  0  0
 33 66  1  0  0  0  0
 33 76  2  0  0  0  0
 34 58  1  0  0  0  0
 34 71  1  0  0  0  0
 34 77  2  0  0  0  0
 35 67  1  0  0  0  0
 35 72  1  0  0  0  0
 35 78  2  0  0  0  0
 36 39  1  0  0  0  0
 37 48  1  0  0  0  0
 38 66  1  0  0  0  0
 39 41  1  0  0  0  0
 40 42  1  0  0  0  0
 40 43  1  0  0  0  0
 41 47  1  0  0  0  0
 42 49  1  0  0  0  0
 43 67  1  0  0  0  0
 44 49  1  0  0  0  0
 44 67  1  0  0  0  0
 45 50  1  0  0  0  0
 45 65  1  0  0  0  0
 46 50  1  0  0  0  0
 46 65  1  0  0  0  0
 47 70  1  0  0  0  0
 48 66  1  0  0  0  0
 49 64  1  0  0  0  0
 50 72  1  0  0  0  0
 52 58  1  0  0  0  0
 53 59  1  0  0  0  0
 54 59  1  0  0  0  0
 55 59  1  0  0  0  0
 56 73  1  0  0  0  0
 57 59  1  0  0  0  0
 57 71  1  0  0  0  0
 58 73  1  0  0  0  0
 60 64  1  0  0  0  0
M  CHG  1  73   1
M  ISO  4  30 101  35 100  72 100  80 101
M  END
> <Batch ID>
0191

> <Smiles>
CNC(C)C(=O)NC(C(=O)N1Cc2cc([101O:1][101c:1]3nc(C)nc(N4CC([100NH:0][100C:0](=O)N5CCCC(n6nc(-c7ccc(Oc8ccc(F)cc8F)cc7)c(C(N)=O)c6N)C5)C4)n3)ccc2CC1C(=O)NC1CCCc2ccccc21)C(C)(C)C

> <Shape>
0.224

> <Color>
0.080

> <Negative vol penalty>
0.000

$$$$

  -OEChem-04052323273D

 88 98  0     1  0  0  0  0  0999 V2000
  -30.4946  -34.5022   18.0645 C   0  0  0  0  0  0  0  0  0  0  0  0
  -30.6023  -33.1161   18.1145 C   0  0  0  0  0  0  0  0  0  0  0  0
  -23.1537  -12.1667   18.2675 C   0  0  0  0  0  0  0  0  0  0  0  0
  -22.6518  -10.7898   20.1882 C   0  0  0  0  0  0  0  0  0  0  0  0
  -29.6889  -35.1713   18.9849 C   0  0  0  0  0  0  0  0  0  0  0  0
  -29.9050  -32.3983   19.0856 C   0  0  0  0  0  0  0  0  0  0  0  0
  -27.4252  -26.8318   18.4768 C   0  0  0  0  0  0  0  0  0  0  0  0
  -22.1545  -11.5185   17.5416 C   0  0  0  0  0  0  0  0  0  0  0  0
  -21.6525  -10.1416   19.4624 C   0  0  0  0  0  0  0  0  0  0  0  0
  -27.8690  -25.5621   18.8434 C   0  0  0  0  0  0  0  0  0  0  0  0
  -19.9764   -9.9790   15.0699 C   0  0  0  0  0  0  0  0  0  0  0  0
  -20.2729   -9.5838   13.7655 C   0  0  0  0  0  0  0  0  0  0  0  0
  -26.5890  -25.7100   20.8827 C   0  0  0  0  0  0  0  0  0  0  0  0
  -28.4920  -19.5740   20.7766 C   0  0  0  0  0  0  0  0  0  0  0  0
  -22.0655   -8.1922   14.5944 C   0  0  0  0  0  0  0  0  0  0  0  0
  -23.4025  -11.8023   19.5908 C   0  0  0  0  0  0  0  0  0  0  0  0
  -24.2971  -13.6265   21.1334 C   0  0  0  0  0  0  0  0  0  0  0  0
  -28.9738  -34.4606   19.9616 C   0  0  0  0  0  0  0  0  0  0  0  0
  -26.5671  -27.5560   19.3169 C   0  0  0  0  0  0  0  0  0  0  0  0
  -29.0900  -33.0586   20.0207 C   0  0  0  0  0  0  0  0  0  0  0  0
  -26.1336  -26.9877   20.5233 C   0  0  0  0  0  0  0  0  0  0  0  0
  -28.1109  -20.8080   20.2797 C   0  0  0  0  0  0  0  0  0  0  0  0
  -21.4038  -10.5060   18.1391 C   0  0  0  0  0  0  0  0  0  0  0  0
  -27.4533  -25.0021   20.0479 C   0  0  0  0  0  0  0  0  0  0  0  0
  -20.7245   -9.4808   16.1366 C   0  0  0  0  0  0  0  0  0  0  0  0
  -21.3174   -8.6904   13.5277 C   0  0  0  0  0  0  0  0  0  0  0  0
  -21.7690   -8.5874   15.8989 C   0  0  0  0  0  0  0  0  0  0  0  0
  -24.4350  -12.4711   20.3409 C   0  0  0  0  0  0  0  0  0  0  0  0
  -29.0993  -21.7416   20.0409 C   0  0  0  0  0  0  0  0  0  0  0  0
  -29.8363  -19.3552   21.0014 C   0  0  0  0  0  0  0  0  0  0  0  0
  -25.5577  -13.8558   21.6283 C   0  0  0  0  0  0  0  0  0  0  0  0
  -23.1336  -14.4213   21.3986 C   0  0  0  0  0  0  0  0  0  0  0  0
  -26.7575  -30.3221   20.8713 C   0  0  0  0  0  0  0  0  0  0  0  0
  -23.6479  -29.7043   21.5576 C   0  0  0  0  0  0  0  0  0  0  0  0
  -21.1650  -27.3909   21.9189 C   0  0  0  0  0  0  0  0  0  0  0  0
  -31.0667  -14.2225   20.3245 C   0  0  0  0  0  0  0  0  0  0  0  0
  -28.1527  -35.2315   20.9648 C   0  0  0  0  0  0  0  0  0  0  0  0
  -26.0761  -28.9135   18.8946 C   0  0  0  0  0  0  0  0  0  0  0  0
  -25.1967  -27.7155   21.4512 C   0  0  0  0  0  0  0  0  0  0  0  0
  -27.1521  -34.3661   21.7266 C   0  0  0  0  0  0  0  0  0  0  0  0
  -29.7203  -10.9967   21.5673 C   0  0  0  0  0  0  0  0  0  0  0  0
  -27.8196  -33.0859   22.2187 C   0  0  0  0  0  0  0  0  0  0  0  0
  -28.2174  -11.1659   21.3472 C   0  0  0  0  0  0  0  0  0  0  0  0
  -30.8223  -15.9563   23.3341 C   0  0  0  0  0  0  0  0  0  0  0  0
  -31.7525  -17.1613   23.1287 C   0  0  0  0  0  0  0  0  0  0  0  0
  -30.5355  -11.8297   20.5826 C   0  0  0  0  0  0  0  0  0  0  0  0
  -28.6767  -13.4391   20.3512 C   0  0  0  0  0  0  0  0  0  0  0  0
  -29.2189  -17.0712   21.7795 C   0  0  0  0  0  0  0  0  0  0  0  0
  -31.8743  -16.5273   20.7142 C   0  0  0  0  0  0  0  0  0  0  0  0
  -28.3297  -32.2428   21.0437 C   0  0  1  0  0  0  0  0  0  0  0  0
  -25.6133  -29.7729   20.0670 C   0  0  1  0  0  0  0  0  0  0  0  0
  -27.8269  -12.6540   21.3606 C   0  0  1  0  0  0  0  0  0  0  0  0
  -29.9631  -15.7519   22.0713 C   0  0  1  0  0  0  0  0  0  0  0  0
  -31.6182  -17.6915   21.6844 C   0  0  1  0  0  0  0  0  0  0  0  0
  -18.7382  -27.1839   22.5233 C   0  0  0  0  0  0  0  0  0  0  0  0
  -24.3504  -30.0927   24.5013 C   0  0  0  0  0  0  0  0  0  0  0  0
  -22.1941  -28.9662   25.0926 C   0  0  0  0  0  0  0  0  0  0  0  0
  -22.1710  -31.1037   23.8068 C   0  0  0  0  0  0  0  0  0  0  0  0
  -20.4817  -26.2634   19.2692 C   0  0  0  0  0  0  0  0  0  0  0  0
  -28.7635  -23.0928   19.5058 C   0  0  0  0  0  0  0  0  0  1  0  0
  -26.6727  -21.0954   20.0194 C   0  0  0  0  0  0  0  0  0  0  0  0
  -22.9211  -28.9773   22.6632 C   0  0  1  0  0  0  0  0  0  0  0  0
  -19.7416  -27.3505   21.3927 C   0  0  2  0  0  0  0  0  0  0  0  0
  -22.9283  -29.7718   23.9996 C   0  0  0  0  0  0  0  0  0  0  0  0
  -25.6845  -11.9994   20.3300 N   0  0  0  0  0  0  0  0  0  0  0  0
  -30.4074  -21.5001   20.2703 N   0  0  0  0  0  0  0  0  0  0  0  0
  -30.7820  -20.2871   20.7583 N   0  0  0  0  0  0  0  0  0  0  0  0
  -26.3434  -12.8627   21.1216 N   0  0  0  0  0  0  0  0  0  0  0  0
  -30.2185  -18.1179   21.4997 N   0  0  3  0  0  0  0  0  0  0  0  0
  -24.7495  -29.0426   20.9968 N   0  0  0  0  0  0  0  0  0  0  0  0
  -30.1114  -13.2297   20.5838 N   0  0  0  0  0  0  0  0  0  0  0  0
  -30.8832  -15.4661   20.9418 N   0  0  0  0  0  0  0  0  0  0  0  0
  -26.0596  -14.8080   22.4430 N   0  0  0  0  0  0  0  0  0  0  0  0
  -21.9188  -14.0445   20.8100 N   0  0  0  0  0  0  0  0  0  0  0  0
  -27.2340  -31.5364   20.4153 N   0  0  0  0  0  0  0  0  0  0  0  0
  -21.5874  -28.6829   22.1502 N   0  0  0  0  0  0  0  0  0  0  0  0
  -19.5725  -26.2144   20.4431 N   0  3  0  0  0  0  0  0  0  0  0  0
  -23.1737  -15.4450   22.1224 O   0  0  0  0  0  0  0  0  0  0  0  0
  -27.1760  -29.6916   21.8351 O   0  0  0  0  0  0  0  0  0  0  0  0
  -23.2484  -30.8151   21.1997 O   0  0  0  0  0  0  0  0  0  0  0  0
  -21.8338  -26.3775   22.1093 O   0  0  0  0  0  0  0  0  0  0  0  0
  -32.0421  -14.0019   19.5952 O   0  0  0  0  0  0  0  0  0  0  0  0
  -20.4285   -9.8734   17.4312 O   0  0  0  0  0  0  0  0  0  0  0  0
  -27.8885  -23.7546   20.4109 O   0  0  0  0  0  0  0  0  0  1  0  0
  -21.6010   -8.3099   12.2751 F   0  0  0  0  0  0  0  0  0  0  0  0
  -22.4905   -8.1044   16.9197 F   0  0  0  0  0  0  0  0  0  0  0  0
  -26.0716  -21.6063   21.1268 F   0  0  0  0  0  0  0  0  0  0  0  0
  -25.9992  -19.9561   19.7085 F   0  0  0  0  0  0  0  0  0  0  0  0
  1  2  1  0  0  0  0
  1  5  2  0  0  0  0
  2  6  2  0  0  0  0
  3  8  2  0  0  0  0
  3 16  1  0  0  0  0
  4  9  1  0  0  0  0
  4 16  2  0  0  0  0
  5 18  1  0  0  0  0
  6 20  1  0  0  0  0
  7 10  2  0  0  0  0
  7 19  1  0  0  0  0
  8 23  1  0  0  0  0
  9 23  2  0  0  0  0
 10 24  1  0  0  0  0
 11 12  2  0  0  0  0
 11 25  1  0  0  0  0
 12 26  1  0  0  0  0
 13 21  1  0  0  0  0
 13 24  2  0  0  0  0
 14 22  1  0  0  0  0
 14 30  2  0  0  0  0
 15 26  2  0  0  0  0
 15 27  1  0  0  0  0
 16 28  1  0  0  0  0
 17 28  1  0  0  0  0
 17 31  2  0  0  0  0
 17 32  1  0  0  0  0
 18 20  2  0  0  0  0
 18 37  1  0  0  0  0
 19 21  2  0  0  0  0
 19 38  1  0  0  0  0
 20 50  1  0  0  0  0
 21 39  1  0  0  0  0
 22 29  2  0  0  0  0
 22 61  1  0  0  0  0
 23 83  1  0  0  0  0
 24 84  1  0  0  0  0
 25 27  2  0  0  0  0
 25 83  1  0  0  0  0
 26 85  1  0  0  0  0
 27 86  1  0  0  0  0
 28 65  2  0  0  0  0
 29 60  1  0  0  0  0
 29 66  1  0  0  0  0
 30 67  1  0  0  0  0
 30 69  1  0  0  0  0
 31 68  1  0  0  0  0
 31 73  1  0  0  0  0
 32 74  1  0  0  0  0
 32 78  2  0  0  0  0
 33 51  1  0  0  0  0
 33 75  1  0  0  0  0
 33 79  2  0  0  0  0
 34 62  1  0  0  0  0
 34 70  1  0  0  0  0
 34 80  2  0  0  0  0
 35 63  1  0  0  0  0
 35 76  1  0  0  0  0
 35 81  2  0  0  0  0
 36 71  1  0  0  0  0
 36 72  1  0  0  0  0
 36 82  2  0  0  0  0
 37 40  1  0  0  0  0
 38 51  1  0  0  0  0
 39 70  1  0  0  0  0
 40 42  1  0  0  0  0
 41 43  1  0  0  0  0
 41 46  1  0  0  0  0
 42 50  1  0  0  0  0
 43 52  1  0  0  0  0
 44 45  1  0  0  0  0
 44 53  1  0  0  0  0
 45 54  1  0  0  0  0
 46 71  1  0  0  0  0
 47 52  1  0  0  0  0
 47 71  1  0  0  0  0
 48 53  1  0  0  0  0
 48 69  1  0  0  0  0
 49 54  1  0  0  0  0
 49 72  1  0  0  0  0
 50 75  1  0  0  0  0
 51 70  1  0  0  0  0
 52 68  1  0  0  0  0
 53 72  1  0  0  0  0
 54 69  1  0  0  0  0
 55 63  1  0  0  0  0
 56 64  1  0  0  0  0
 57 64  1  0  0  0  0
 58 64  1  0  0  0  0
 59 77  1  0  0  0  0
 60 84  1  0  0  0  0
 61 87  1  0  0  0  0
 61 88  1  0  0  0  0
 62 64  1  0  0  0  0
 62 76  1  0  0  0  0
 63 77  1  0  0  0  0
 65 68  1  0  0  0  0
 66 67  2  0  0  0  0
M  CHG  1  77   1
M  ISO  4  36 100  60 101  72 100  84 101
M  END
> <Batch ID>
0191

> <Smiles>
CNC(C)C(=O)NC(C(=O)N1Cc2cc([101O:1][101CH2:1]c3nnc(N4CC5CCC4C[100N:0]5[100C:0](=O)N4CCCC(n5nc(-c6ccc(Oc7ccc(F)cc7F)cc6)c(C(N)=O)c5N)C4)cc3C(F)F)ccc2CC1C(=O)NC1CCCc2ccccc21)C(C)(C)C

> <Shape>
0.276

> <Color>
0.070

> <Negative vol penalty>
0.000

$$$$

  -OEChem-04052323273D

 83 92  0     1  0  0  0  0  0999 V2000
  -23.6340  -30.7893   21.8753 C   0  0  0  0  0  0  0  0  0  0  0  0
  -23.3220  -29.4860   21.5021 C   0  0  0  0  0  0  0  0  0  0  0  0
  -28.6620  -17.5653   26.9648 C   0  0  0  0  0  0  0  0  0  0  0  0
  -30.6077  -18.7557   26.1686 C   0  0  0  0  0  0  0  0  0  0  0  0
  -24.8176  -31.3764   21.4298 C   0  0  0  0  0  0  0  0  0  0  0  0
  -24.1928  -28.7692   20.6822 C   0  0  0  0  0  0  0  0  0  0  0  0
  -24.9180  -24.0244   22.2963 C   0  0  0  0  0  0  0  0  0  0  0  0
  -29.0113  -17.8736   28.2795 C   0  0  0  0  0  0  0  0  0  0  0  0
  -30.9571  -19.0641   27.4833 C   0  0  0  0  0  0  0  0  0  0  0  0
  -23.9117  -23.0985   22.0244 C   0  0  0  0  0  0  0  0  0  0  0  0
  -29.1948  -18.6540   31.8252 C   0  0  0  0  0  0  0  0  0  0  0  0
  -28.1845  -19.1006   32.6770 C   0  0  0  0  0  0  0  0  0  0  0  0
  -25.1909  -22.2655   20.1566 C   0  0  0  0  0  0  0  0  0  0  0  0
  -27.7785  -20.9778   31.2112 C   0  0  0  0  0  0  0  0  0  0  0  0
  -23.4549  -13.8085   20.3480 C   0  0  0  0  0  0  0  0  0  0  0  0
  -29.4602  -18.0063   25.9093 C   0  0  0  0  0  0  0  0  0  0  0  0
  -28.2847  -18.4438   23.6880 C   0  0  0  0  0  0  0  0  0  0  0  0
  -25.7081  -30.6631   20.6119 C   0  0  0  0  0  0  0  0  0  0  0  0
  -26.0654  -24.0851   21.4923 C   0  0  0  0  0  0  0  0  0  0  0  0
  -25.3888  -29.3477   20.2242 C   0  0  0  0  0  0  0  0  0  0  0  0
  -26.2116  -23.1912   20.4219 C   0  0  0  0  0  0  0  0  0  0  0  0
  -30.1588  -18.6231   28.5388 C   0  0  0  0  0  0  0  0  0  0  0  0
  -24.0467  -22.2208   20.9528 C   0  0  0  0  0  0  0  0  0  0  0  0
  -29.4970  -19.3694   30.6665 C   0  0  0  0  0  0  0  0  0  0  0  0
  -27.4763  -20.2625   32.3700 C   0  0  0  0  0  0  0  0  0  0  0  0
  -28.7889  -20.5313   30.3595 C   0  0  0  0  0  0  0  0  0  0  0  0
  -29.1002  -17.6876   24.5510 C   0  0  0  0  0  0  0  0  0  0  0  0
  -24.8184  -13.9532   20.3601 C   0  0  0  0  0  0  0  0  0  0  0  0
  -28.2527  -17.7181   22.5223 C   0  0  0  0  0  0  0  0  0  0  0  0
  -23.2487  -16.0184   20.7648 C   0  0  0  0  0  0  0  0  0  0  0  0
  -27.6159  -19.6908   23.9193 C   0  0  0  0  0  0  0  0  0  0  0  0
  -27.3791  -26.2935   19.6213 C   0  0  0  0  0  0  0  0  0  0  0  0
  -29.7784  -24.1216   19.4019 C   0  0  0  0  0  0  0  0  0  0  0  0
  -30.7639  -20.8614   19.6182 C   0  0  0  0  0  0  0  0  0  0  0  0
  -28.0936  -12.2946   20.6676 C   0  0  0  0  0  0  0  0  0  0  0  0
  -26.9526  -31.3562   20.1166 C   0  0  0  0  0  0  0  0  0  0  0  0
  -27.1540  -25.0716   21.8150 C   0  0  0  0  0  0  0  0  0  0  0  0
  -27.4331  -23.2021   19.5409 C   0  0  0  0  0  0  0  0  0  0  0  0
  -28.0014  -30.3984   19.5571 C   0  0  0  0  0  0  0  0  0  0  0  0
  -31.0863  -14.2132   20.4920 C   0  0  0  0  0  0  0  0  0  0  0  0
  -27.3533  -29.3874   18.6165 C   0  0  0  0  0  0  0  0  0  0  0  0
  -30.8162  -15.3724   21.4539 C   0  0  0  0  0  0  0  0  0  0  0  0
  -30.4839  -12.9065   21.0024 C   0  0  0  0  0  0  0  0  0  0  0  0
  -25.7413  -11.6144   21.0677 C   0  0  0  0  0  0  0  0  0  0  0  0
  -28.7689  -14.1414   22.2883 C   0  0  0  0  0  0  0  0  0  0  0  0
  -26.3199  -28.5293   19.3563 C   0  0  1  0  0  0  0  0  0  0  0  0
  -25.7161  -12.7664   20.1275 C   0  0  2  0  0  0  0  0  0  0  0  0
  -28.0461  -25.3894   20.6190 C   0  0  1  0  0  0  0  0  0  0  0  0
  -29.3151  -15.4860   21.7794 C   0  0  1  0  0  0  0  0  0  0  0  0
  -32.3273  -18.8987   19.6506 C   0  0  0  0  0  0  0  0  0  0  0  0
  -29.5175  -24.3260   16.3687 C   0  0  0  0  0  0  0  0  0  0  0  0
  -30.8339  -22.2045   16.1824 C   0  0  0  0  0  0  0  0  0  0  0  0
  -31.8709  -24.2276   17.2091 C   0  0  0  0  0  0  0  0  0  0  0  0
  -31.2344  -21.1364   22.5271 C   0  0  0  0  0  0  0  0  0  0  0  0
  -21.8144  -19.4308   21.4830 C   0  0  0  0  0  0  0  0  0  0  0  0
  -22.9544  -18.4531   21.2245 C   0  0  0  0  0  0  0  0  0  0  0  0
  -22.2996  -20.8424   21.7914 C   0  0  0  0  0  0  0  0  0  1  0  0
  -30.0918  -22.9636   18.4854 C   0  0  1  0  0  0  0  0  0  0  0  0
  -31.9427  -20.2097   20.3184 C   0  0  2  0  0  0  0  0  0  0  0  0
  -30.5545  -23.4313   17.0766 C   0  0  0  0  0  0  0  0  0  0  0  0
  -22.6305  -14.8472   20.5518 N   0  0  0  0  0  0  0  0  0  0  0  0
  -29.5535  -16.5673   23.9822 N   0  0  0  0  0  0  0  0  0  0  0  0
  -25.3823  -15.1548   20.5796 N   0  0  0  0  0  0  0  0  0  0  0  0
  -24.5809  -16.2199   20.7883 N   0  0  0  0  0  0  0  0  0  0  0  0
  -29.0208  -16.6142   22.7492 N   0  0  0  0  0  0  0  0  0  0  0  0
  -28.4669  -24.1893   19.8931 N   0  0  0  0  0  0  0  0  0  0  0  0
  -29.0661  -13.0789   21.3175 N   0  0  0  0  0  0  0  0  0  0  0  0
  -26.7902  -12.5821   21.0685 N   0  0  0  0  0  0  0  0  0  0  0  0
  -27.6427  -17.9230   21.3355 N   0  0  0  0  0  0  0  0  0  0  0  0
  -27.7549  -20.3009   25.1734 N   0  0  0  0  0  0  0  0  0  0  0  0
  -22.4434  -17.1257   20.9810 N   0  0  0  0  0  0  0  0  0  0  0  0
  -26.9798  -27.5093   20.1428 N   0  0  0  0  0  0  0  0  0  0  0  0
  -31.0655  -22.1370   19.1904 N   0  0  0  0  0  0  0  0  0  0  0  0
  -31.6089  -19.9309   21.7438 N   0  3  0  0  0  0  0  0  0  0  0  0
  -26.9025  -20.2393   23.0454 O   0  0  0  0  0  0  0  0  0  0  0  0
  -27.2384  -25.9166   18.4638 O   0  0  0  0  0  0  0  0  0  0  0  0
  -30.6665  -24.9320   19.6777 O   0  0  0  0  0  0  0  0  0  0  0  0
  -29.6848  -20.2941   19.4628 O   0  0  0  0  0  0  0  0  0  0  0  0
  -28.3662  -11.4408   19.8196 O   0  0  0  0  0  0  0  0  0  0  0  0
  -30.4998  -18.9243   29.8215 O   0  0  0  0  0  0  0  0  0  0  0  0
  -23.0657  -21.3166   20.6848 O   0  0  0  0  0  0  0  0  0  1  0  0
  -26.5051  -20.6903   33.1872 F   0  0  0  0  0  0  0  0  0  0  0  0
  -29.0740  -21.2221   29.2472 F   0  0  0  0  0  0  0  0  0  0  0  0
  1  2  1  0  0  0  0
  1  5  2  0  0  0  0
  2  6  2  0  0  0  0
  3  8  2  0  0  0  0
  3 16  1  0  0  0  0
  4  9  1  0  0  0  0
  4 16  2  0  0  0  0
  5 18  1  0  0  0  0
  6 20  1  0  0  0  0
  7 10  2  0  0  0  0
  7 19  1  0  0  0  0
  8 22  1  0  0  0  0
  9 22  2  0  0  0  0
 10 23  1  0  0  0  0
 11 12  2  0  0  0  0
 11 24  1  0  0  0  0
 12 25  1  0  0  0  0
 13 21  1  0  0  0  0
 13 23  2  0  0  0  0
 14 25  2  0  0  0  0
 14 26  1  0  0  0  0
 15 28  1  0  0  0  0
 15 61  2  0  0  0  0
 16 27  1  0  0  0  0
 17 27  1  0  0  0  0
 17 29  2  0  0  0  0
 17 31  1  0  0  0  0
 18 20  2  0  0  0  0
 18 36  1  0  0  0  0
 19 21  2  0  0  0  0
 19 37  1  0  0  0  0
 20 46  1  0  0  0  0
 21 38  1  0  0  0  0
 22 80  1  0  0  0  0
 23 81  1  0  0  0  0
 24 26  2  0  0  0  0
 24 80  1  0  0  0  0
 25 82  1  0  0  0  0
 26 83  1  0  0  0  0
 27 62  2  0  0  0  0
 28 47  1  0  0  0  0
 28 63  2  0  0  0  0
 29 65  1  0  0  0  0
 29 69  1  0  0  0  0
 30 61  1  0  0  0  0
 30 64  2  0  0  0  0
 30 71  1  0  0  0  0
 31 70  1  0  0  0  0
 31 75  2  0  0  0  0
 32 48  1  0  0  0  0
 32 72  1  0  0  0  0
 32 76  2  0  0  0  0
 33 58  1  0  0  0  0
 33 66  1  0  0  0  0
 33 77  2  0  0  0  0
 34 59  1  0  0  0  0
 34 73  1  0  0  0  0
 34 78  2  0  0  0  0
 35 67  1  0  0  0  0
 35 68  1  0  0  0  0
 35 79  2  0  0  0  0
 36 39  1  0  0  0  0
 37 48  1  0  0  0  0
 38 66  1  0  0  0  0
 39 41  1  0  0  0  0
 40 42  1  0  0  0  0
 40 43  1  0  0  0  0
 41 46  1  0  0  0  0
 42 49  1  0  0  0  0
 43 67  1  0  0  0  0
 44 47  1  0  0  0  0
 44 68  1  0  0  0  0
 45 49  1  0  0  0  0
 45 67  1  0  0  0  0
 46 72  1  0  0  0  0
 47 68  1  0  0  0  0
 48 66  1  0  0  0  0
 49 65  1  0  0  0  0
 50 59  1  0  0  0  0
 51 60  1  0  0  0  0
 52 60  1  0  0  0  0
 53 60  1  0  0  0  0
 54 74  1  0  0  0  0
 55 56  1  0  0  0  0
 55 57  1  0  0  0  0
 56 71  1  0  0  0  0
 57 81  1  0  0  0  0
 58 60  1  0  0  0  0
 58 73  1  0  0  0  0
 59 74  1  0  0  0  0
 62 65  1  0  0  0  0
 63 64  1  0  0  0  0
M  CHG  1  74   1
M  ISO  4  35 100  57 101  68 100  81 101
M  END
> <Batch ID>
0191

> <Smiles>
CNC(C)C(=O)NC(C(=O)N1Cc2cc([101O:1][101CH2:1]CCNc3ncc(C4C[100N:0]4[100C:0](=O)N4CCCC(n5nc(-c6ccc(Oc7ccc(F)cc7F)cc6)c(C(N)=O)c5N)C4)nn3)ccc2CC1C(=O)NC1CCCc2ccccc21)C(C)(C)C

> <Shape>
0.187

> <Color>
0.085

> <Negative vol penalty>
0.000

$$$$

  -OEChem-04052323273D

 87 96  0     1  0  0  0  0  0999 V2000
  -17.0133  -28.8296   24.4922 C   0  0  0  0  0  0  0  0  0  0  0  0
  -17.4719  -27.7352   23.7661 C   0  0  0  0  0  0  0  0  0  0  0  0
  -27.8651  -17.1309   19.6302 C   0  0  0  0  0  0  0  0  0  0  0  0
  -27.8301  -16.9406   22.0384 C   0  0  0  0  0  0  0  0  0  0  0  0
  -17.5689  -30.0900   24.2767 C   0  0  0  0  0  0  0  0  0  0  0  0
  -18.4858  -27.9008   22.8232 C   0  0  0  0  0  0  0  0  0  0  0  0
  -22.9079  -23.8993   21.4309 C   0  0  0  0  0  0  0  0  0  0  0  0
  -28.6671  -18.2676   19.7316 C   0  0  0  0  0  0  0  0  0  0  0  0
  -28.6322  -18.0773   22.1399 C   0  0  0  0  0  0  0  0  0  0  0  0
  -23.0434  -22.9729   20.3979 C   0  0  0  0  0  0  0  0  0  0  0  0
  -30.4275  -21.4289   19.3698 C   0  0  0  0  0  0  0  0  0  0  0  0
  -30.1007  -22.5280   18.5757 C   0  0  0  0  0  0  0  0  0  0  0  0
  -24.3451  -24.5705   19.1439 C   0  0  0  0  0  0  0  0  0  0  0  0
  -27.9338  -22.6507   19.6371 C   0  0  0  0  0  0  0  0  0  0  0  0
  -24.4405  -18.3651   15.5856 C   0  0  0  0  0  0  0  0  0  0  0  0
  -27.4465  -16.4674   20.7836 C   0  0  0  0  0  0  0  0  0  0  0  0
  -27.0460  -13.9563   20.5802 C   0  0  0  0  0  0  0  0  0  0  0  0
  -18.5968  -30.2694   23.3376 C   0  0  0  0  0  0  0  0  0  0  0  0
  -23.4818  -25.1742   21.3234 C   0  0  0  0  0  0  0  0  0  0  0  0
  -19.0548  -29.1651   22.5940 C   0  0  0  0  0  0  0  0  0  0  0  0
  -24.2176  -25.5104   20.1781 C   0  0  0  0  0  0  0  0  0  0  0  0
  -29.0507  -18.7407   20.9864 C   0  0  0  0  0  0  0  0  0  0  0  0
  -23.7596  -23.3094   19.2529 C   0  0  0  0  0  0  0  0  0  0  0  0
  -29.5074  -20.9405   20.2976 C   0  0  0  0  0  0  0  0  0  0  0  0
  -28.8539  -23.1390   18.7093 C   0  0  0  0  0  0  0  0  0  0  0  0
  -28.2606  -21.5515   20.4312 C   0  0  0  0  0  0  0  0  0  0  0  0
  -26.6175  -15.2936   20.6795 C   0  0  0  0  0  0  0  0  0  0  0  0
  -21.9958  -18.2486   14.5190 C   0  0  0  0  0  0  0  0  0  0  0  0
  -22.7823  -17.1221   14.6187 C   0  0  0  0  0  0  0  0  0  0  0  0
  -23.6544  -19.4918   15.4852 C   0  0  0  0  0  0  0  0  0  0  0  0
  -25.8839  -13.2279   20.5066 C   0  0  0  0  0  0  0  0  0  0  0  0
  -28.3757  -13.4204   20.5567 C   0  0  0  0  0  0  0  0  0  0  0  0
  -22.3533  -28.1454   21.2775 C   0  0  0  0  0  0  0  0  0  0  0  0
  -25.5013  -28.9265   21.3230 C   0  0  0  0  0  0  0  0  0  0  0  0
  -28.7222  -28.0158   20.6572 C   0  0  0  0  0  0  0  0  0  0  0  0
  -20.5422  -13.6270   18.2691 C   0  0  0  0  0  0  0  0  0  0  0  0
  -19.1337  -31.6596   23.1057 C   0  0  0  0  0  0  0  0  0  0  0  0
  -23.3492  -26.1528   22.4580 C   0  0  0  0  0  0  0  0  0  0  0  0
  -24.8703  -26.8588   20.0223 C   0  0  0  0  0  0  0  0  0  0  0  0
  -20.4632  -31.6819   22.3560 C   0  0  0  0  0  0  0  0  0  0  0  0
  -21.1804  -14.0030   21.7379 C   0  0  0  0  0  0  0  0  0  0  0  0
  -20.4107  -30.7516   21.1483 C   0  0  0  0  0  0  0  0  0  0  0  0
  -22.6778  -14.2857   21.8178 C   0  0  0  0  0  0  0  0  0  0  0  0
  -20.5701  -14.6648   20.5099 C   0  0  0  0  0  0  0  0  0  0  0  0
  -20.1771  -13.2493   15.8511 C   0  0  0  0  0  0  0  0  0  0  0  0
  -22.7158  -14.4836   19.2775 C   0  0  0  0  0  0  0  0  0  0  0  0
  -20.7737  -13.8238   14.5830 C   0  0  0  0  0  0  0  0  0  0  0  0
  -21.7778  -14.9201   16.4466 C   0  0  0  0  0  0  0  0  0  0  0  0
  -20.1701  -29.3000   21.5801 C   0  0  1  0  0  0  0  0  0  0  0  0
  -23.5399  -27.6023   22.0222 C   0  0  1  0  0  0  0  0  0  0  0  0
  -23.3787  -13.8549   20.5205 C   0  0  1  0  0  0  0  0  0  0  0  0
  -20.6298  -18.1929   13.9257 C   0  0  0  0  0  0  0  0  0  0  0  0
  -31.0759  -28.8794   20.7650 C   0  0  0  0  0  0  0  0  0  0  0  0
  -23.5257  -22.4977   14.4880 C   0  0  0  0  0  0  0  0  0  0  0  0
  -24.9839  -30.6384   18.8508 C   0  0  0  0  0  0  0  0  0  0  0  0
  -27.4558  -30.6936   18.4574 C   0  0  0  0  0  0  0  0  0  0  0  0
  -26.5040  -31.6801   20.5416 C   0  0  0  0  0  0  0  0  0  0  0  0
  -29.5443  -25.8773   22.5307 C   0  0  0  0  0  0  0  0  0  0  0  0
  -22.3006  -15.7863   14.1344 C   0  0  0  0  0  0  0  0  0  0  0  0
  -24.0163  -22.9281   16.9195 C   0  0  0  0  0  0  0  0  0  1  0  0
  -26.5585  -29.1668   20.2725 C   0  0  1  0  0  0  0  0  0  0  0  0
  -29.9872  -28.1050   21.4916 C   0  0  2  0  0  0  0  0  0  0  0  0
  -23.4427  -21.9425   15.9038 C   0  0  2  0  0  0  0  0  0  0  0  0
  -26.3618  -30.5199   19.5324 C   0  0  0  0  0  0  0  0  0  0  0  0
  -24.0185  -17.1600   15.1541 N   0  0  0  0  0  0  0  0  0  0  0  0
  -25.2870  -15.4107   20.6699 N   0  0  0  0  0  0  0  0  0  0  0  0
  -22.4180  -19.4538   14.9501 N   0  0  0  0  0  0  0  0  0  0  0  0
  -24.8695  -14.1377   20.5637 N   0  0  0  0  0  0  0  0  0  0  0  0
  -24.7068  -27.7833   21.1563 N   0  0  0  0  0  0  0  0  0  0  0  0
  -21.2618  -14.2758   19.2792 N   0  0  0  0  0  0  0  0  0  0  0  0
  -20.9196  -13.8584   16.9468 N   0  0  0  0  0  0  0  0  0  0  0  0
  -25.6411  -11.9043   20.3992 N   0  0  0  0  0  0  0  0  0  0  0  0
  -29.4559  -14.3093   20.6419 N   0  0  0  0  0  0  0  0  0  0  0  0
  -24.1737  -20.7160   15.9619 N   0  0  0  0  0  0  0  0  0  0  0  0
  -21.3917  -28.7153   22.0901 N   0  0  0  0  0  0  0  0  0  0  0  0
  -27.8441  -29.0377   20.9500 N   0  0  0  0  0  0  0  0  0  0  0  0
  -21.2952  -15.1631   15.0429 N   0  3  1  0  0  0  0  0  0  0  0  0
  -30.5042  -26.7409   21.7961 N   0  3  0  0  0  0  0  0  0  0  0  0
  -28.5995  -12.1911   20.4465 O   0  0  0  0  0  0  0  0  0  0  0  0
  -22.3137  -28.0556   20.0560 O   0  0  0  0  0  0  0  0  0  0  0  0
  -25.3895  -29.7198   22.2609 O   0  0  0  0  0  0  0  0  0  0  0  0
  -28.5337  -27.1304   19.8259 O   0  0  0  0  0  0  0  0  0  0  0  0
  -19.5732  -12.9026   18.5341 O   0  0  0  0  0  0  0  0  0  0  0  0
  -29.8336  -19.8497   21.0858 O   0  0  0  0  0  0  0  0  0  0  0  0
  -23.8937  -22.4014   18.2363 O   0  0  0  0  0  0  0  0  0  1  0  0
  -28.5408  -24.1954   17.9478 F   0  0  0  0  0  0  0  0  0  0  0  0
  -27.3730  -21.0876   21.3216 F   0  0  0  0  0  0  0  0  0  0  0  0
  1  2  1  0  0  0  0
  1  5  2  0  0  0  0
  2  6  2  0  0  0  0
  3  8  2  0  0  0  0
  3 16  1  0  0  0  0
  4  9  1  0  0  0  0
  4 16  2  0  0  0  0
  5 18  1  0  0  0  0
  6 20  1  0  0  0  0
  7 10  2  0  0  0  0
  7 19  1  0  0  0  0
  8 22  1  0  0  0  0
  9 22  2  0  0  0  0
 10 23  1  0  0  0  0
 11 12  2  0  0  0  0
 11 24  1  0  0  0  0
 12 25  1  0  0  0  0
 13 21  1  0  0  0  0
 13 23  2  0  0  0  0
 14 25  2  0  0  0  0
 14 26  1  0  0  0  0
 15 30  1  0  0  0  0
 15 65  2  0  0  0  0
 16 27  1  0  0  0  0
 17 27  1  0  0  0  0
 17 31  2  0  0  0  0
 17 32  1  0  0  0  0
 18 20  2  0  0  0  0
 18 37  1  0  0  0  0
 19 21  2  0  0  0  0
 19 38  1  0  0  0  0
 20 49  1  0  0  0  0
 21 39  1  0  0  0  0
 22 84  1  0  0  0  0
 23 85  1  0  0  0  0
 24 26  2  0  0  0  0
 24 84  1  0  0  0  0
 25 86  1  0  0  0  0
 26 87  1  0  0  0  0
 27 66  2  0  0  0  0
 28 29  2  0  0  0  0
 28 52  1  0  0  0  0
 28 67  1  0  0  0  0
 29 59  1  0  0  0  0
 29 65  1  0  0  0  0
 30 67  2  0  0  0  0
 30 74  1  0  0  0  0
 31 68  1  0  0  0  0
 31 72  1  0  0  0  0
 32 73  1  0  0  0  0
 32 79  2  0  0  0  0
 33 50  1  0  0  0  0
 33 75  1  0  0  0  0
 33 80  2  0  0  0  0
 34 61  1  0  0  0  0
 34 69  1  0  0  0  0
 34 81  2  0  0  0  0
 35 62  1  0  0  0  0
 35 76  1  0  0  0  0
 35 82  2  0  0  0  0
 36 70  1  0  0  0  0
 36 71  1  0  0  0  0
 36 83  2  0  0  0  0
 37 40  1  0  0  0  0
 38 50  1  0  0  0  0
 39 69  1  0  0  0  0
 40 42  1  0  0  0  0
 41 43  1  0  0  0  0
 41 44  1  0  0  0  0
 42 49  1  0  0  0  0
 43 51  1  0  0  0  0
 44 70  1  0  0  0  0
 45 47  1  0  0  0  0
 45 71  1  0  0  0  0
 46 51  1  0  0  0  0
 46 70  1  0  0  0  0
 47 77  1  0  0  0  0
 48 71  1  0  0  0  0
 48 77  1  0  0  0  0
 49 75  1  0  0  0  0
 50 69  1  0  0  0  0
 51 68  1  0  0  0  0
 53 62  1  0  0  0  0
 54 63  1  0  0  0  0
 55 64  1  0  0  0  0
 56 64  1  0  0  0  0
 57 64  1  0  0  0  0
 58 78  1  0  0  0  0
 59 77  1  0  0  0  0
 60 63  1  0  0  0  0
 60 85  1  0  0  0  0
 61 64  1  0  0  0  0
 61 76  1  0  0  0  0
 62 78  1  0  0  0  0
 63 74  1  0  0  0  0
 66 68  1  0  0  0  0
M  CHG  2  77   1  78   1
M  ISO  4  36 100  60 101  71 100  85 101
M  END
> <Batch ID>
0191

> <Smiles>
CNC(C)C(=O)NC(C(=O)N1Cc2cc([101O:1][101CH2:1]C(C)Nc3cnc(CN4CC[100N:0]([100C:0](=O)N5CCCC(n6nc(-c7ccc(Oc8ccc(F)cc8F)cc7)c(C(N)=O)c6N)C5)C4)c(C)n3)ccc2CC1C(=O)NC1CCCc2ccccc21)C(C)(C)C

> <Shape>
0.236

> <Color>
0.076

> <Negative vol penalty>
0.000

$$$$

  -OEChem-04052323273D

 87 96  0     1  0  0  0  0  0999 V2000
  -27.7650  -25.2571   16.2762 C   0  0  0  0  0  0  0  0  0  0  0  0
  -26.6822  -25.3999   17.1379 C   0  0  0  0  0  0  0  0  0  0  0  0
  -26.5940   -9.3946   20.0450 C   0  0  0  0  0  0  0  0  0  0  0  0
  -26.7808  -11.0530   18.2981 C   0  0  0  0  0  0  0  0  0  0  0  0
  -29.0102  -25.7738   16.6317 C   0  0  0  0  0  0  0  0  0  0  0  0
  -26.8443  -26.0585   18.3562 C   0  0  0  0  0  0  0  0  0  0  0  0
  -23.0917  -29.3208   19.3154 C   0  0  0  0  0  0  0  0  0  0  0  0
  -27.4584   -8.5560   19.3414 C   0  0  0  0  0  0  0  0  0  0  0  0
  -27.6453  -10.2144   17.5944 C   0  0  0  0  0  0  0  0  0  0  0  0
  -21.8864  -28.7887   19.7716 C   0  0  0  0  0  0  0  0  0  0  0  0
  -27.2860   -6.4484   16.7046 C   0  0  0  0  0  0  0  0  0  0  0  0
  -26.9368   -5.1024   16.5966 C   0  0  0  0  0  0  0  0  0  0  0  0
  -22.4853  -29.3852   22.0310 C   0  0  0  0  0  0  0  0  0  0  0  0
  -28.9814   -4.4815   17.7241 C   0  0  0  0  0  0  0  0  0  0  0  0
  -26.2551  -10.6431   19.5233 C   0  0  0  0  0  0  0  0  0  0  0  0
  -24.0324  -11.2381   20.6246 C   0  0  0  0  0  0  0  0  0  0  0  0
  -29.1853  -26.4475   17.8507 C   0  0  0  0  0  0  0  0  0  0  0  0
  -24.0091  -29.8802   20.2164 C   0  0  0  0  0  0  0  0  0  0  0  0
  -28.0933  -26.5835   18.7290 C   0  0  0  0  0  0  0  0  0  0  0  0
  -23.7003  -29.9260   21.5834 C   0  0  0  0  0  0  0  0  0  0  0  0
  -27.9841   -8.9659   18.1161 C   0  0  0  0  0  0  0  0  0  0  0  0
  -21.5844  -28.8183   21.1299 C   0  0  0  0  0  0  0  0  0  0  0  0
  -28.4829   -6.8111   17.3223 C   0  0  0  0  0  0  0  0  0  0  0  0
  -27.7844   -4.1189   17.1064 C   0  0  0  0  0  0  0  0  0  0  0  0
  -29.3306   -5.8276   17.8321 C   0  0  0  0  0  0  0  0  0  0  0  0
  -25.3618  -11.5096   20.2494 C   0  0  0  0  0  0  0  0  0  0  0  0
  -23.6251  -12.3695   21.2885 C   0  0  0  0  0  0  0  0  0  0  0  0
  -23.2368  -10.0679   20.3938 C   0  0  0  0  0  0  0  0  0  0  0  0
  -26.9973  -29.2193   21.0751 C   0  0  0  0  0  0  0  0  0  0  0  0
  -26.7074  -31.9724   22.7659 C   0  0  0  0  0  0  0  0  0  0  0  0
  -24.1869  -33.5589   24.8024 C   0  0  0  0  0  0  0  0  0  0  0  0
  -25.4792  -17.9814   20.8463 C   0  0  0  0  0  0  0  0  0  0  0  0
  -30.5614  -26.9475   18.2126 C   0  0  0  0  0  0  0  0  0  0  0  0
  -25.2930  -30.4741   19.7052 C   0  0  0  0  0  0  0  0  0  0  0  0
  -24.6423  -30.5337   22.5893 C   0  0  0  0  0  0  0  0  0  0  0  0
  -30.5607  -27.9600   19.3550 C   0  0  0  0  0  0  0  0  0  0  0  0
  -25.2779  -15.9845   23.9142 C   0  0  0  0  0  0  0  0  0  0  0  0
  -29.6801  -27.4715   20.5008 C   0  0  0  0  0  0  0  0  0  0  0  0
  -25.2149  -14.5729   23.3408 C   0  0  0  0  0  0  0  0  0  0  0  0
  -21.9576  -23.9840   19.8286 C   0  0  0  0  0  0  0  0  0  0  0  0
  -22.0761  -23.2720   22.2337 C   0  0  0  0  0  0  0  0  0  0  0  0
  -26.3711  -21.1133   21.6681 C   0  0  0  0  0  0  0  0  0  0  0  0
  -26.1445  -16.9179   23.0678 C   0  0  0  0  0  0  0  0  0  0  0  0
  -20.6077  -24.6402   20.1323 C   0  0  0  0  0  0  0  0  0  0  0  0
  -20.7224  -23.9518   22.4584 C   0  0  0  0  0  0  0  0  0  0  0  0
  -26.3606  -19.8180   22.4857 C   0  0  0  0  0  0  0  0  0  0  0  0
  -25.6941  -15.5308   21.0612 C   0  0  0  0  0  0  0  0  0  0  0  0
  -28.2235  -27.3132   20.0483 C   0  0  1  0  0  0  0  0  0  0  0  0
  -26.3803  -30.5554   20.7723 C   0  0  1  0  0  0  0  0  0  0  0  0
  -24.7715  -14.6088   21.8707 C   0  0  1  0  0  0  0  0  0  0  0  0
  -22.2142  -22.8229   20.7832 C   0  0  0  0  0  0  0  0  0  0  0  0
  -25.2461  -20.5259   20.8022 C   0  0  2  0  0  0  0  0  0  0  0  0
  -23.7810  -35.9847   25.3007 C   0  0  0  0  0  0  0  0  0  0  0  0
  -28.4159  -31.4515   25.2397 C   0  0  0  0  0  0  0  0  0  0  0  0
  -26.8869  -32.9588   26.5275 C   0  0  0  0  0  0  0  0  0  0  0  0
  -28.2009  -33.8620   24.6091 C   0  0  0  0  0  0  0  0  0  0  0  0
  -21.3848  -33.4027   23.8627 C   0  0  0  0  0  0  0  0  0  0  0  0
  -16.8897  -26.3633   23.3669 C   0  0  0  0  0  0  0  0  0  0  0  0
  -23.8249  -20.9487   21.1176 C   0  0  0  0  0  0  0  0  0  0  0  0
  -19.2595  -25.7474   21.7941 C   0  0  0  0  0  0  0  0  0  0  0  0
  -20.4011  -27.7548   22.8977 C   0  0  0  0  0  0  0  0  0  1  0  0
  -26.2422  -32.3286   24.1572 C   0  0  1  0  0  0  0  0  0  0  0  0
  -23.3760  -34.7924   24.4479 C   0  0  2  0  0  0  0  0  0  0  0  0
  -19.3461  -26.6562   23.0217 C   0  0  1  0  0  0  0  0  0  0  0  0
  -27.4262  -32.6275   25.1196 C   0  0  0  0  0  0  0  0  0  0  0  0
  -25.7718  -12.7186   20.6421 N   0  0  0  0  0  0  0  0  0  0  0  0
  -24.6936  -13.2169   21.2709 N   0  0  0  0  0  0  0  0  0  0  0  0
  -25.8878  -31.0957   22.0410 N   0  0  0  0  0  0  0  0  0  0  0  0
  -25.7733  -16.8735   21.6485 N   0  0  0  0  0  0  0  0  0  0  0  0
  -25.5713  -19.2341   21.4110 N   0  0  0  0  0  0  0  0  0  0  0  0
  -20.5345  -25.0794   21.5336 N   0  0  0  0  0  0  0  0  0  0  0  0
  -22.4609  -12.7121   21.8797 N   0  0  0  0  0  0  0  0  0  0  0  0
  -22.4681  -10.0027   19.2237 N   0  0  0  0  0  0  0  0  0  0  0  0
  -27.5725  -28.6040   19.9797 N   0  0  0  0  0  0  0  0  0  0  0  0
  -25.3035  -33.4347   24.0031 N   0  0  0  0  0  0  0  0  0  0  0  0
  -23.5858  -22.2996   20.5607 N   0  3  0  0  0  0  0  0  0  0  0  0
  -21.9233  -34.5355   24.6588 N   0  3  0  0  0  0  0  0  0  0  0  0
  -18.0138  -27.3151   23.1927 N   0  3  0  0  0  0  0  0  0  0  0  0
  -23.1957   -9.1156   21.2092 O   0  0  0  0  0  0  0  0  0  0  0  0
  -26.9560  -28.7799   22.2183 O   0  0  0  0  0  0  0  0  0  0  0  0
  -27.7556  -32.4598   22.3354 O   0  0  0  0  0  0  0  0  0  0  0  0
  -23.8640  -32.7852   25.7011 O   0  0  0  0  0  0  0  0  0  0  0  0
  -25.1731  -17.8615   19.6526 O   0  0  0  0  0  0  0  0  0  0  0  0
  -28.8279   -8.1480   17.4294 O   0  0  0  0  0  0  0  0  0  0  0  0
  -20.4014  -28.2956   21.5809 O   0  0  0  0  0  0  0  0  0  1  0  0
  -27.4482   -2.8263   17.0040 F   0  0  0  0  0  0  0  0  0  0  0  0
  -30.4812   -6.1699   18.4276 F   0  0  0  0  0  0  0  0  0  0  0  0
  1  2  1  0  0  0  0
  1  5  2  0  0  0  0
  2  6  2  0  0  0  0
  3  8  2  0  0  0  0
  3 15  1  0  0  0  0
  4  9  1  0  0  0  0
  4 15  2  0  0  0  0
  5 17  1  0  0  0  0
  6 19  1  0  0  0  0
  7 10  2  0  0  0  0
  7 18  1  0  0  0  0
  8 21  1  0  0  0  0
  9 21  2  0  0  0  0
 10 22  1  0  0  0  0
 11 12  2  0  0  0  0
 11 23  1  0  0  0  0
 12 24  1  0  0  0  0
 13 20  1  0  0  0  0
 13 22  2  0  0  0  0
 14 24  2  0  0  0  0
 14 25  1  0  0  0  0
 15 26  1  0  0  0  0
 16 26  1  0  0  0  0
 16 27  2  0  0  0  0
 16 28  1  0  0  0  0
 17 19  2  0  0  0  0
 17 33  1  0  0  0  0
 18 20  2  0  0  0  0
 18 34  1  0  0  0  0
 19 48  1  0  0  0  0
 20 35  1  0  0  0  0
 21 84  1  0  0  0  0
 22 85  1  0  0  0  0
 23 25  2  0  0  0  0
 23 84  1  0  0  0  0
 24 86  1  0  0  0  0
 25 87  1  0  0  0  0
 26 66  2  0  0  0  0
 27 67  1  0  0  0  0
 27 72  1  0  0  0  0
 28 73  1  0  0  0  0
 28 79  2  0  0  0  0
 29 49  1  0  0  0  0
 29 74  1  0  0  0  0
 29 80  2  0  0  0  0
 30 62  1  0  0  0  0
 30 68  1  0  0  0  0
 30 81  2  0  0  0  0
 31 63  1  0  0  0  0
 31 75  1  0  0  0  0
 31 82  2  0  0  0  0
 32 69  1  0  0  0  0
 32 70  1  0  0  0  0
 32 83  2  0  0  0  0
 33 36  1  0  0  0  0
 34 49  1  0  0  0  0
 35 68  1  0  0  0  0
 36 38  1  0  0  0  0
 37 39  1  0  0  0  0
 37 43  1  0  0  0  0
 38 48  1  0  0  0  0
 39 50  1  0  0  0  0
 40 44  1  0  0  0  0
 40 51  1  0  0  0  0
 41 45  1  0  0  0  0
 41 51  1  0  0  0  0
 42 46  1  0  0  0  0
 42 52  1  0  0  0  0
 43 69  1  0  0  0  0
 44 71  1  0  0  0  0
 45 71  1  0  0  0  0
 46 70  1  0  0  0  0
 47 50  1  0  0  0  0
 47 69  1  0  0  0  0
 48 74  1  0  0  0  0
 49 68  1  0  0  0  0
 50 67  1  0  0  0  0
 51 76  1  0  0  0  0
 52 59  1  0  0  0  0
 52 70  1  0  0  0  0
 53 63  1  0  0  0  0
 54 65  1  0  0  0  0
 55 65  1  0  0  0  0
 56 65  1  0  0  0  0
 57 77  1  0  0  0  0
 58 78  1  0  0  0  0
 59 76  1  0  0  0  0
 60 64  1  0  0  0  0
 60 71  1  0  0  0  0
 61 64  1  0  0  0  0
 61 85  1  0  0  0  0
 62 65  1  0  0  0  0
 62 75  1  0  0  0  0
 63 77  1  0  0  0  0
 64 78  1  0  0  0  0
 66 67  1  0  0  0  0
M  CHG  3  76   1  77   1  78   1
M  ISO  4  32 100  61 101  70 100  85 101
M  END
> <Batch ID>
0191

> <Smiles>
CNC(C)C(=O)NC(C(=O)N1Cc2cc([101O:1][101CH2:1]C(CN3CCC(NCC4CC[100N:0]4[100C:0](=O)N4CCCC(n5nc(-c6ccc(Oc7ccc(F)cc7F)cc6)c(C(N)=O)c5N)C4)CC3)NC)ccc2CC1C(=O)NC1CCCc2ccccc21)C(C)(C)C

> <Shape>
0.253

> <Color>
0.062

> <Negative vol penalty>
0.000

$$$$

  -OEChem-04052323273D

 89 99  0     1  0  0  0  0  0999 V2000
  -24.5589  -16.8238   16.6866 C   0  0  0  0  0  0  0  0  0  0  0  0
  -23.7450  -17.8640   17.1236 C   0  0  0  0  0  0  0  0  0  0  0  0
  -28.2244  -20.7089   21.2986 C   0  0  0  0  0  0  0  0  0  0  0  0
  -29.0525  -19.8268   19.2074 C   0  0  0  0  0  0  0  0  0  0  0  0
  -24.6109  -15.6311   17.4068 C   0  0  0  0  0  0  0  0  0  0  0  0
  -22.9818  -17.7117   18.2806 C   0  0  0  0  0  0  0  0  0  0  0  0
  -23.2085  -21.7668   21.3054 C   0  0  0  0  0  0  0  0  0  0  0  0
  -27.8067  -19.4316   21.6721 C   0  0  0  0  0  0  0  0  0  0  0  0
  -28.6349  -18.5494   19.5809 C   0  0  0  0  0  0  0  0  0  0  0  0
  -22.4352  -22.8708   20.9493 C   0  0  0  0  0  0  0  0  0  0  0  0
  -28.1112  -14.9949   20.1376 C   0  0  0  0  0  0  0  0  0  0  0  0
  -28.9929  -13.9353   19.9242 C   0  0  0  0  0  0  0  0  0  0  0  0
  -20.7688  -22.2177   22.5666 C   0  0  0  0  0  0  0  0  0  0  0  0
  -30.6150  -14.9943   21.3679 C   0  0  0  0  0  0  0  0  0  0  0  0
  -20.7662  -30.6130   23.0707 C   0  0  0  0  0  0  0  0  0  0  0  0
  -22.8146  -31.5770   22.7476 C   0  0  0  0  0  0  0  0  0  0  0  0
  -28.8472  -20.9065   20.0662 C   0  0  0  0  0  0  0  0  0  0  0  0
  -30.5320  -22.8170   19.9265 C   0  0  0  0  0  0  0  0  0  0  0  0
  -23.8552  -15.4676   18.5785 C   0  0  0  0  0  0  0  0  0  0  0  0
  -22.7619  -20.8724   22.2888 C   0  0  0  0  0  0  0  0  0  0  0  0
  -23.0226  -16.5152   19.0164 C   0  0  0  0  0  0  0  0  0  0  0  0
  -21.5395  -21.1045   22.9352 C   0  0  0  0  0  0  0  0  0  0  0  0
  -28.0120  -18.3518   20.8133 C   0  0  0  0  0  0  0  0  0  0  0  0
  -21.2138  -23.0948   21.5778 C   0  0  0  0  0  0  0  0  0  0  0  0
  -28.4815  -16.0543   20.9660 C   0  0  0  0  0  0  0  0  0  0  0  0
  -30.2447  -13.9350   20.5394 C   0  0  0  0  0  0  0  0  0  0  0  0
  -29.7333  -16.0539   21.5812 C   0  0  0  0  0  0  0  0  0  0  0  0
  -29.2784  -22.2259   19.6796 C   0  0  0  0  0  0  0  0  0  0  0  0
  -21.2584  -29.4122   22.6088 C   0  0  0  0  0  0  0  0  0  0  0  0
  -23.3071  -30.3760   22.2864 C   0  0  0  0  0  0  0  0  0  0  0  0
  -30.4398  -24.0658   19.3622 C   0  0  0  0  0  0  0  0  0  0  0  0
  -31.6773  -22.2847   20.6051 C   0  0  0  0  0  0  0  0  0  0  0  0
  -22.0215  -17.7816   22.3401 C   0  0  0  0  0  0  0  0  0  0  0  0
  -21.7397  -18.3014   25.5296 C   0  0  0  0  0  0  0  0  0  0  0  0
  -21.1896  -20.5168   28.0665 C   0  0  0  0  0  0  0  0  0  0  0  0
  -25.5043  -27.4036   18.1345 C   0  0  0  0  0  0  0  0  0  0  0  0
  -23.9080  -14.1428   19.2974 C   0  0  0  0  0  0  0  0  0  0  0  0
  -23.6203  -19.7010   22.6805 C   0  0  0  0  0  0  0  0  0  0  0  0
  -21.0246  -20.1855   24.0116 C   0  0  0  0  0  0  0  0  0  0  0  0
  -23.3547  -14.1988   20.7191 C   0  0  0  0  0  0  0  0  0  0  0  0
  -28.2157  -26.4439   15.8541 C   0  0  0  0  0  0  0  0  0  0  0  0
  -22.0253  -14.9463   20.7455 C   0  0  0  0  0  0  0  0  0  0  0  0
  -28.8730  -25.2716   16.5838 C   0  0  0  0  0  0  0  0  0  0  0  0
  -26.7204  -29.3824   20.9845 C   0  0  0  0  0  0  0  0  0  0  0  0
  -18.5740  -26.9132   23.0024 C   0  0  0  0  0  0  0  0  0  0  0  0
  -26.7249  -26.5488   16.1673 C   0  0  0  0  0  0  0  0  0  0  0  0
  -27.0028  -28.2090   20.0520 C   0  0  0  0  0  0  0  0  0  0  0  0
  -19.0047  -28.3793   22.9711 C   0  0  0  0  0  0  0  0  0  0  0  0
  -27.0592  -25.4153   18.3298 C   0  0  0  0  0  0  0  0  0  0  0  0
  -24.6413  -28.6403   20.1010 C   0  0  0  0  0  0  0  0  0  0  0  0
  -20.8018  -26.9915   22.1228 C   0  0  0  0  0  0  0  0  0  0  0  0
  -22.1988  -16.3971   20.2803 C   0  0  1  0  0  0  0  0  0  0  0  0
  -22.8285  -18.5712   23.3316 C   0  0  1  0  0  0  0  0  0  0  0  0
  -28.5728  -25.3186   18.0936 C   0  0  1  0  0  0  0  0  0  0  0  0
  -25.2746  -29.1266   21.3959 C   0  0  2  0  0  0  0  0  0  0  0  0
  -19.4682  -26.2350   21.9543 C   0  0  2  0  0  0  0  0  0  0  0  0
  -18.9030  -26.4311   20.5373 C   0  0  0  0  0  0  0  0  0  0  0  0
  -20.9803  -20.6392   30.5642 C   0  0  0  0  0  0  0  0  0  0  0  0
  -18.9417  -17.0974   25.3517 C   0  0  0  0  0  0  0  0  0  0  0  0
  -18.4447  -18.0972   27.5926 C   0  0  0  0  0  0  0  0  0  0  0  0
  -20.2537  -16.3952   27.3617 C   0  0  0  0  0  0  0  0  0  0  0  0
  -23.5025  -22.3501   28.2866 C   0  0  0  0  0  0  0  0  0  0  0  0
  -19.6264  -24.7395   22.2344 C   0  0  0  0  0  0  0  0  0  1  0  0
  -20.6195  -18.7244   26.4490 C   0  0  1  0  0  0  0  0  0  0  0  0
  -21.9219  -20.7516   29.3753 C   0  0  2  0  0  0  0  0  0  0  0  0
  -19.5734  -17.5950   26.6671 C   0  0  0  0  0  0  0  0  0  0  0  0
  -21.5355  -31.7170   23.1483 N   0  0  0  0  0  0  0  0  0  0  0  0
  -28.4505  -23.0330   19.0108 N   0  0  0  0  0  0  0  0  0  0  0  0
  -22.5377  -29.2721   22.2085 N   0  0  0  0  0  0  0  0  0  0  0  0
  -29.1854  -24.1439   18.8326 N   0  0  0  0  0  0  0  0  0  0  0  0
  -20.4048  -28.3299   22.5606 N   0  0  3  0  0  0  0  0  0  0  0  0
  -21.8972  -19.0505   24.3549 N   0  0  0  0  0  0  0  0  0  0  0  0
  -26.4919  -26.5616   17.6117 N   0  0  0  0  0  0  0  0  0  0  0  0
  -25.7165  -27.9377   19.4048 N   0  0  0  0  0  0  0  0  0  0  0  0
  -31.3103  -25.0938   19.2725 N   0  0  0  0  0  0  0  0  0  0  0  0
  -31.6021  -20.9851   21.1244 N   0  0  0  0  0  0  0  0  0  0  0  0
  -24.6373  -30.3170   21.8934 N   0  0  0  0  0  0  0  0  0  0  0  0
  -22.7742  -17.2013   21.3371 N   0  0  0  0  0  0  0  0  0  0  0  0
  -21.2538  -19.1963   27.6750 N   0  0  0  0  0  0  0  0  0  0  0  0
  -22.5361  -22.1094   29.3889 N   0  3  0  0  0  0  0  0  0  0  0  0
  -32.7304  -22.9481   20.7612 O   0  0  0  0  0  0  0  0  0  0  0  0
  -20.8062  -17.7034   22.4760 O   0  0  0  0  0  0  0  0  0  0  0  0
  -22.4532  -17.3461   25.8456 O   0  0  0  0  0  0  0  0  0  0  0  0
  -20.6146  -21.4144   27.4546 O   0  0  0  0  0  0  0  0  0  0  0  0
  -24.4991  -27.7034   17.4767 O   0  0  0  0  0  0  0  0  0  0  0  0
  -27.6048  -17.1051   21.1775 O   0  0  0  0  0  0  0  0  0  0  0  0
  -20.4496  -24.1815   21.2284 O   0  0  0  0  0  0  0  0  0  1  0  0
  -31.0907  -12.9166   20.3356 F   0  0  0  0  0  0  0  0  0  0  0  0
  -30.0942  -17.0683   22.3792 F   0  0  0  0  0  0  0  0  0  0  0  0
  1  2  1  0  0  0  0
  1  5  2  0  0  0  0
  2  6  2  0  0  0  0
  3  8  2  0  0  0  0
  3 17  1  0  0  0  0
  4  9  1  0  0  0  0
  4 17  2  0  0  0  0
  5 19  1  0  0  0  0
  6 21  1  0  0  0  0
  7 10  2  0  0  0  0
  7 20  1  0  0  0  0
  8 23  1  0  0  0  0
  9 23  2  0  0  0  0
 10 24  1  0  0  0  0
 11 12  2  0  0  0  0
 11 25  1  0  0  0  0
 12 26  1  0  0  0  0
 13 22  1  0  0  0  0
 13 24  2  0  0  0  0
 14 26  2  0  0  0  0
 14 27  1  0  0  0  0
 15 29  1  0  0  0  0
 15 67  2  0  0  0  0
 16 30  2  0  0  0  0
 16 67  1  0  0  0  0
 17 28  1  0  0  0  0
 18 28  1  0  0  0  0
 18 31  2  0  0  0  0
 18 32  1  0  0  0  0
 19 21  2  0  0  0  0
 19 37  1  0  0  0  0
 20 22  2  0  0  0  0
 20 38  1  0  0  0  0
 21 52  1  0  0  0  0
 22 39  1  0  0  0  0
 23 86  1  0  0  0  0
 24 87  1  0  0  0  0
 25 27  2  0  0  0  0
 25 86  1  0  0  0  0
 26 88  1  0  0  0  0
 27 89  1  0  0  0  0
 28 68  2  0  0  0  0
 29 69  2  0  0  0  0
 29 71  1  0  0  0  0
 30 69  1  0  0  0  0
 30 77  1  0  0  0  0
 31 70  1  0  0  0  0
 31 75  1  0  0  0  0
 32 76  1  0  0  0  0
 32 81  2  0  0  0  0
 33 53  1  0  0  0  0
 33 78  1  0  0  0  0
 33 82  2  0  0  0  0
 34 64  1  0  0  0  0
 34 72  1  0  0  0  0
 34 83  2  0  0  0  0
 35 65  1  0  0  0  0
 35 79  1  0  0  0  0
 35 84  2  0  0  0  0
 36 73  1  0  0  0  0
 36 74  1  0  0  0  0
 36 85  2  0  0  0  0
 37 40  1  0  0  0  0
 38 53  1  0  0  0  0
 39 72  1  0  0  0  0
 40 42  1  0  0  0  0
 41 43  1  0  0  0  0
 41 46  1  0  0  0  0
 42 52  1  0  0  0  0
 43 54  1  0  0  0  0
 44 47  1  0  0  0  0
 44 55  1  0  0  0  0
 45 48  1  0  0  0  0
 45 56  1  0  0  0  0
 46 73  1  0  0  0  0
 47 74  1  0  0  0  0
 48 71  1  0  0  0  0
 49 54  1  0  0  0  0
 49 73  1  0  0  0  0
 50 55  1  0  0  0  0
 50 74  1  0  0  0  0
 51 56  1  0  0  0  0
 51 71  1  0  0  0  0
 52 78  1  0  0  0  0
 53 72  1  0  0  0  0
 54 70  1  0  0  0  0
 55 77  1  0  0  0  0
 56 57  1  0  0  0  0
 56 63  1  0  0  0  0
 58 65  1  0  0  0  0
 59 66  1  0  0  0  0
 60 66  1  0  0  0  0
 61 66  1  0  0  0  0
 62 80  1  0  0  0  0
 63 87  1  0  0  0  0
 64 66  1  0  0  0  0
 64 79  1  0  0  0  0
 65 80  1  0  0  0  0
 68 70  1  0  0  0  0
M  CHG  1  80   1
M  ISO  4  36 100  63 101  74 100  87 101
M  END
> <Batch ID>
0191

> <Smiles>
CNC(C)C(=O)NC(C(=O)N1Cc2cc([101O:1][101CH2:1]C3(C)CCN(c4cncc(NC5CC[100N:0]([100C:0](=O)N6CCCC(n7nc(-c8ccc(Oc9ccc(F)cc9F)cc8)c(C(N)=O)c7N)C6)C5)n4)C3)ccc2CC1C(=O)NC1CCCc2ccccc21)C(C)(C)C

> <Shape>
0.223

> <Color>
0.058

> <Negative vol penalty>
0.000

$$$$

  -OEChem-04052323273D

 79 87  0     1  0  0  0  0  0999 V2000
  -28.1812  -23.9626   12.1444 C   0  0  0  0  0  0  0  0  0  0  0  0
  -27.3916  -24.9618   12.7043 C   0  0  0  0  0  0  0  0  0  0  0  0
  -25.6996  -14.5040   22.1851 C   0  0  0  0  0  0  0  0  0  0  0  0
  -25.3828  -13.8135   19.8917 C   0  0  0  0  0  0  0  0  0  0  0  0
  -28.6240  -22.9016   12.9332 C   0  0  0  0  0  0  0  0  0  0  0  0
  -27.0434  -24.9001   14.0531 C   0  0  0  0  0  0  0  0  0  0  0  0
  -25.7336  -29.1352   19.6803 C   0  0  0  0  0  0  0  0  0  0  0  0
  -25.6359  -13.1722   22.5949 C   0  0  0  0  0  0  0  0  0  0  0  0
  -25.3192  -12.4817   20.3014 C   0  0  0  0  0  0  0  0  0  0  0  0
  -24.7663  -29.3566   20.6596 C   0  0  0  0  0  0  0  0  0  0  0  0
  -23.0443  -10.4142   21.7090 C   0  0  0  0  0  0  0  0  0  0  0  0
  -22.0343   -9.6178   21.1695 C   0  0  0  0  0  0  0  0  0  0  0  0
  -25.6547  -27.5182   21.9442 C   0  0  0  0  0  0  0  0  0  0  0  0
  -23.6999   -8.1329   20.2433 C   0  0  0  0  0  0  0  0  0  0  0  0
  -25.5730  -14.8247   20.8335 C   0  0  0  0  0  0  0  0  0  0  0  0
  -26.7878  -16.9205   20.0339 C   0  0  0  0  0  0  0  0  0  0  0  0
  -28.2891  -22.8319   14.2947 C   0  0  0  0  0  0  0  0  0  0  0  0
  -26.6634  -28.0949   19.8206 C   0  0  0  0  0  0  0  0  0  0  0  0
  -27.4811  -23.8365   14.8606 C   0  0  0  0  0  0  0  0  0  0  0  0
  -26.6344  -27.2873   20.9665 C   0  0  0  0  0  0  0  0  0  0  0  0
  -25.4457  -12.1611   21.6530 C   0  0  0  0  0  0  0  0  0  0  0  0
  -24.7249  -28.5463   21.7904 C   0  0  0  0  0  0  0  0  0  0  0  0
  -24.3822  -10.0701   21.5156 C   0  0  0  0  0  0  0  0  0  0  0  0
  -22.3620   -8.4771   20.4367 C   0  0  0  0  0  0  0  0  0  0  0  0
  -24.7099   -8.9294   20.7827 C   0  0  0  0  0  0  0  0  0  0  0  0
  -25.6381  -16.2003   20.4097 C   0  0  0  0  0  0  0  0  0  0  0  0
  -26.3208  -18.1735   19.7203 C   0  0  0  0  0  0  0  0  0  0  0  0
  -28.1556  -16.4949   19.9736 C   0  0  0  0  0  0  0  0  0  0  0  0
  -27.3502  -25.4632   18.1757 C   0  0  0  0  0  0  0  0  0  0  0  0
  -29.7993  -25.2485   20.2919 C   0  0  0  0  0  0  0  0  0  0  0  0
  -31.0563  -26.0565   23.3601 C   0  0  0  0  0  0  0  0  0  0  0  0
  -23.0927  -22.4643   21.2890 C   0  0  0  0  0  0  0  0  0  0  0  0
  -28.7520  -21.6410   15.0961 C   0  0  0  0  0  0  0  0  0  0  0  0
  -27.7174  -27.8860   18.7680 C   0  0  0  0  0  0  0  0  0  0  0  0
  -27.6228  -26.1700   21.1744 C   0  0  0  0  0  0  0  0  0  0  0  0
  -28.6504  -21.8457   16.6054 C   0  0  0  0  0  0  0  0  0  0  0  0
  -21.6025  -19.8750   19.0913 C   0  0  0  0  0  0  0  0  0  0  0  0
  -27.2950  -22.4410   16.9733 C   0  0  0  0  0  0  0  0  0  0  0  0
  -22.6069  -18.7326   19.2497 C   0  0  0  0  0  0  0  0  0  0  0  0
  -20.3815  -24.8259   20.5253 C   0  0  0  0  0  0  0  0  0  0  0  0
  -21.5228  -20.7106   20.3623 C   0  0  0  0  0  0  0  0  0  0  0  0
  -20.8093  -23.3618   20.5444 C   0  0  0  0  0  0  0  0  0  0  0  0
  -23.8395  -20.1326   20.9751 C   0  0  0  0  0  0  0  0  0  0  0  0
  -22.1428  -24.6000   22.1153 C   0  0  0  0  0  0  0  0  0  0  0  0
  -27.1029  -23.8177   16.3258 C   0  0  1  0  0  0  0  0  0  0  0  0
  -28.2915  -26.4726   18.7695 C   0  0  1  0  0  0  0  0  0  0  0  0
  -23.9770  -19.2567   19.7172 C   0  0  1  0  0  0  0  0  0  0  0  0
  -20.8073  -25.2910   21.9099 C   0  0  1  0  0  0  0  0  0  0  0  0
  -33.0667  -25.7047   24.8202 C   0  0  0  0  0  0  0  0  0  0  0  0
  -28.8503  -22.4157   20.9118 C   0  0  0  0  0  0  0  0  0  0  0  0
  -30.2508  -22.4753   22.9863 C   0  0  0  0  0  0  0  0  0  0  0  0
  -31.3326  -22.6717   20.7471 C   0  0  0  0  0  0  0  0  0  0  0  0
  -31.6452  -28.9556   23.4465 C   0  0  0  0  0  0  0  0  0  0  0  0
  -21.4339  -28.8147   23.2553 C   0  0  0  0  0  0  0  0  0  0  0  0
  -21.3040  -27.2999   23.3083 C   0  0  0  0  0  0  0  0  0  0  0  0
  -22.5337  -29.3034   22.3208 C   0  0  0  0  0  0  0  0  0  1  0  0
  -29.9875  -24.6135   21.6484 C   0  0  1  0  0  0  0  0  0  0  0  0
  -32.4087  -26.6013   23.7830 C   0  0  2  0  0  0  0  0  0  0  0  0
  -30.0853  -23.0638   21.5689 C   0  0  0  0  0  0  0  0  0  0  0  0
  -24.5245  -16.9346   20.3419 N   0  0  0  0  0  0  0  0  0  0  0  0
  -24.9723  -18.1294   19.9199 N   0  0  0  0  0  0  0  0  0  0  0  0
  -28.6301  -26.0016   20.1140 N   0  0  0  0  0  0  0  0  0  0  0  0
  -22.8479  -21.1898   20.7654 N   0  0  0  0  0  0  0  0  0  0  0  0
  -22.0137  -23.3422   21.3811 N   0  0  0  0  0  0  0  0  0  0  0  0
  -26.9362  -19.2977   19.2961 N   0  0  0  0  0  0  0  0  0  0  0  0
  -28.4607  -15.1742   20.3298 N   0  0  0  0  0  0  0  0  0  0  0  0
  -27.8436  -24.8261   17.0531 N   0  0  0  0  0  0  0  0  0  0  0  0
  -31.1552  -25.2562   22.2416 N   0  0  0  0  0  0  0  0  0  0  0  0
  -20.9432  -26.7557   21.9656 N   0  3  0  0  0  0  0  0  0  0  0  0
  -32.2584  -27.9640   24.3672 N   0  3  0  0  0  0  0  0  0  0  0  0
  -29.0820  -17.2678   19.6302 O   0  0  0  0  0  0  0  0  0  0  0  0
  -26.2579  -25.2750   18.6982 O   0  0  0  0  0  0  0  0  0  0  0  0
  -30.6616  -25.0885   19.4243 O   0  0  0  0  0  0  0  0  0  0  0  0
  -30.0168  -26.3120   23.9639 O   0  0  0  0  0  0  0  0  0  0  0  0
  -24.2334  -22.8192   21.6143 O   0  0  0  0  0  0  0  0  0  0  0  0
  -25.3838  -10.8614   22.0525 O   0  0  0  0  0  0  0  0  0  0  0  0
  -23.7748  -28.7613   22.7542 O   0  0  0  0  0  0  0  0  0  1  0  0
  -21.3919   -7.7115   19.9200 F   0  0  0  0  0  0  0  0  0  0  0  0
  -25.9934   -8.5930   20.5946 F   0  0  0  0  0  0  0  0  0  0  0  0
  1  2  1  0  0  0  0
  1  5  2  0  0  0  0
  2  6  2  0  0  0  0
  3  8  2  0  0  0  0
  3 15  1  0  0  0  0
  4  9  1  0  0  0  0
  4 15  2  0  0  0  0
  5 17  1  0  0  0  0
  6 19  1  0  0  0  0
  7 10  2  0  0  0  0
  7 18  1  0  0  0  0
  8 21  1  0  0  0  0
  9 21  2  0  0  0  0
 10 22  1  0  0  0  0
 11 12  2  0  0  0  0
 11 23  1  0  0  0  0
 12 24  1  0  0  0  0
 13 20  1  0  0  0  0
 13 22  2  0  0  0  0
 14 24  2  0  0  0  0
 14 25  1  0  0  0  0
 15 26  1  0  0  0  0
 16 26  1  0  0  0  0
 16 27  2  0  0  0  0
 16 28  1  0  0  0  0
 17 19  2  0  0  0  0
 17 33  1  0  0  0  0
 18 20  2  0  0  0  0
 18 34  1  0  0  0  0
 19 45  1  0  0  0  0
 20 35  1  0  0  0  0
 21 76  1  0  0  0  0
 22 77  1  0  0  0  0
 23 25  2  0  0  0  0
 23 76  1  0  0  0  0
 24 78  1  0  0  0  0
 25 79  1  0  0  0  0
 26 60  2  0  0  0  0
 27 61  1  0  0  0  0
 27 65  1  0  0  0  0
 28 66  1  0  0  0  0
 28 71  2  0  0  0  0
 29 46  1  0  0  0  0
 29 67  1  0  0  0  0
 29 72  2  0  0  0  0
 30 57  1  0  0  0  0
 30 62  1  0  0  0  0
 30 73  2  0  0  0  0
 31 58  1  0  0  0  0
 31 68  1  0  0  0  0
 31 74  2  0  0  0  0
 32 63  1  0  0  0  0
 32 64  1  0  0  0  0
 32 75  2  0  0  0  0
 33 36  1  0  0  0  0
 34 46  1  0  0  0  0
 35 62  1  0  0  0  0
 36 38  1  0  0  0  0
 37 39  1  0  0  0  0
 37 41  1  0  0  0  0
 38 45  1  0  0  0  0
 39 47  1  0  0  0  0
 40 42  1  0  0  0  0
 40 48  1  0  0  0  0
 41 63  1  0  0  0  0
 42 64  1  0  0  0  0
 43 47  1  0  0  0  0
 43 63  1  0  0  0  0
 44 48  1  0  0  0  0
 44 64  1  0  0  0  0
 45 67  1  0  0  0  0
 46 62  1  0  0  0  0
 47 61  1  0  0  0  0
 48 69  1  0  0  0  0
 49 58  1  0  0  0  0
 50 59  1  0  0  0  0
 51 59  1  0  0  0  0
 52 59  1  0  0  0  0
 53 70  1  0  0  0  0
 54 55  1  0  0  0  0
 54 56  1  0  0  0  0
 55 69  1  0  0  0  0
 56 77  1  0  0  0  0
 57 59  1  0  0  0  0
 57 68  1  0  0  0  0
 58 70  1  0  0  0  0
 60 61  1  0  0  0  0
M  CHG  2  69   1  70   1
M  ISO  4  32 100  56 101  64 100  77 101
M  END
> <Batch ID>
0191

> <Smiles>
CNC(C)C(=O)NC(C(=O)N1Cc2cc([101O:1][101CH2:1]CCNC3CC[100N:0]([100C:0](=O)N4CCCC(n5nc(-c6ccc(Oc7ccc(F)cc7F)cc6)c(C(N)=O)c5N)C4)C3)ccc2CC1C(=O)NC1CCCc2ccccc21)C(C)(C)C

> <Shape>
0.175

> <Color>
0.071

> <Negative vol penalty>
0.000

$$$$

  -OEChem-04052323273D

 81 89  0     1  0  0  0  0  0999 V2000
  -28.4399  -26.6037   29.1741 C   0  0  0  0  0  0  0  0  0  0  0  0
  -28.3512  -26.3076   27.8176 C   0  0  0  0  0  0  0  0  0  0  0  0
  -22.9239  -10.4032   21.6517 C   0  0  0  0  0  0  0  0  0  0  0  0
  -24.7041   -8.7784   21.8195 C   0  0  0  0  0  0  0  0  0  0  0  0
  -27.4341  -27.3459   29.7916 C   0  0  0  0  0  0  0  0  0  0  0  0
  -27.2560  -26.7528   27.0781 C   0  0  0  0  0  0  0  0  0  0  0  0
  -28.6000  -28.7249   22.6116 C   0  0  0  0  0  0  0  0  0  0  0  0
  -22.0066   -9.3756   21.4323 C   0  0  0  0  0  0  0  0  0  0  0  0
  -23.7868   -7.7508   21.6002 C   0  0  0  0  0  0  0  0  0  0  0  0
  -28.9169  -27.8305   21.5902 C   0  0  0  0  0  0  0  0  0  0  0  0
  -21.4696   -6.0592   23.3862 C   0  0  0  0  0  0  0  0  0  0  0  0
  -21.5506   -4.9342   24.2068 C   0  0  0  0  0  0  0  0  0  0  0  0
  -26.7182  -28.1382   20.6467 C   0  0  0  0  0  0  0  0  0  0  0  0
  -21.9387   -3.5473   22.2669 C   0  0  0  0  0  0  0  0  0  0  0  0
  -24.2727  -10.1047   21.8453 C   0  0  0  0  0  0  0  0  0  0  0  0
  -25.6042  -11.7135   23.3102 C   0  0  0  0  0  0  0  0  0  0  0  0
  -26.3309  -27.8087   29.0572 C   0  0  0  0  0  0  0  0  0  0  0  0
  -27.3338  -29.3253   22.6645 C   0  0  0  0  0  0  0  0  0  0  0  0
  -26.2339  -27.5008   27.6867 C   0  0  0  0  0  0  0  0  0  0  0  0
  -26.3886  -29.0418   21.6684 C   0  0  0  0  0  0  0  0  0  0  0  0
  -22.4380   -8.0494   21.4066 C   0  0  0  0  0  0  0  0  0  0  0  0
  -27.9750  -27.5348   20.6092 C   0  0  0  0  0  0  0  0  0  0  0  0
  -21.6231   -5.9283   22.0060 C   0  0  0  0  0  0  0  0  0  0  0  0
  -21.7852   -3.6782   23.6471 C   0  0  0  0  0  0  0  0  0  0  0  0
  -21.8577   -4.6724   21.4463 C   0  0  0  0  0  0  0  0  0  0  0  0
  -25.2208  -11.1658   22.0714 C   0  0  0  0  0  0  0  0  0  0  0  0
  -26.5213  -12.6838   22.9876 C   0  0  0  0  0  0  0  0  0  0  0  0
  -25.1702  -11.3755   24.6343 C   0  0  0  0  0  0  0  0  0  0  0  0
  -24.9240  -29.2999   24.7371 C   0  0  0  0  0  0  0  0  0  0  0  0
  -23.6904  -31.5341   22.7348 C   0  0  0  0  0  0  0  0  0  0  0  0
  -23.5990  -32.8810   19.6005 C   0  0  0  0  0  0  0  0  0  0  0  0
  -27.7110  -17.0570   19.7087 C   0  0  0  0  0  0  0  0  0  0  0  0
  -25.2451  -28.5671   29.7787 C   0  0  0  0  0  0  0  0  0  0  0  0
  -27.0168  -30.3084   23.7579 C   0  0  0  0  0  0  0  0  0  0  0  0
  -25.0221  -29.6753   21.6686 C   0  0  0  0  0  0  0  0  0  0  0  0
  -24.3038  -29.3210   28.8428 C   0  0  0  0  0  0  0  0  0  0  0  0
  -28.8511  -13.7005   18.6182 C   0  0  0  0  0  0  0  0  0  0  0  0
  -23.8692  -28.4249   27.6873 C   0  0  0  0  0  0  0  0  0  0  0  0
  -27.9981  -12.7914   19.5042 C   0  0  0  0  0  0  0  0  0  0  0  0
  -30.9708  -18.4969   18.8076 C   0  0  0  0  0  0  0  0  0  0  0  0
  -28.1162  -14.9959   18.2993 C   0  0  0  0  0  0  0  0  0  0  0  0
  -30.0709  -17.2677   18.7285 C   0  0  0  0  0  0  0  0  0  0  0  0
  -26.8169  -14.8594   20.3898 C   0  0  0  0  0  0  0  0  0  0  0  0
  -28.7146  -19.2263   19.0504 C   0  0  0  0  0  0  0  0  0  0  0  0
  -25.0738  -27.9872   26.8454 C   0  0  1  0  0  0  0  0  0  0  0  0
  -25.5194  -30.4676   24.0025 C   0  0  1  0  0  0  0  0  0  0  0  0
  -27.5103  -13.5363   20.7601 C   0  0  1  0  0  0  0  0  0  0  0  0
  -30.0209  -19.6043   18.3765 C   0  0  1  0  0  0  0  0  0  0  0  0
  -22.4659  -34.6739   18.2591 C   0  0  0  0  0  0  0  0  0  0  0  0
  -21.1715  -29.8196   22.5755 C   0  0  0  0  0  0  0  0  0  0  0  0
  -20.4960  -31.1240   20.5481 C   0  0  0  0  0  0  0  0  0  0  0  0
  -20.7505  -32.2790   22.7444 C   0  0  0  0  0  0  0  0  0  0  0  0
  -26.1642  -34.2486   19.0453 C   0  0  0  0  0  0  0  0  0  0  0  0
  -31.8923  -21.2464   18.3344 C   0  0  0  0  0  0  0  0  0  0  0  0
  -29.8551  -23.2515   19.3560 C   0  0  0  0  0  0  0  0  0  0  0  0
  -28.8825  -24.3961   19.0821 C   0  0  0  0  0  0  0  0  0  0  0  0
  -29.5385  -22.0451   18.4848 C   0  0  0  0  0  0  0  0  0  0  0  0
  -29.2128  -25.6261   19.9157 C   0  0  0  0  0  0  0  0  0  1  0  0
  -22.8133  -31.5013   21.5066 C   0  0  1  0  0  0  0  0  0  0  0  0
  -23.6686  -34.3193   19.1197 C   0  0  2  0  0  0  0  0  0  0  0  0
  -21.3328  -31.1674   21.8444 C   0  0  0  0  0  0  0  0  0  0  0  0
  -25.8433  -11.7404   21.0387 N   0  0  0  0  0  0  0  0  0  0  0  0
  -26.6271  -12.6594   21.6280 N   0  0  0  0  0  0  0  0  0  0  0  0
  -24.7576  -30.6250   22.7619 N   0  0  0  0  0  0  0  0  0  0  0  0
  -27.6753  -15.6703   19.5235 N   0  0  0  0  0  0  0  0  0  0  0  0
  -28.7383  -17.7649   19.0863 N   0  0  0  0  0  0  0  0  0  0  0  0
  -27.2394  -13.5469   23.7371 N   0  0  0  0  0  0  0  0  0  0  0  0
  -24.2227  -10.3541   24.7864 N   0  0  0  0  0  0  0  0  0  0  0  0
  -25.4966  -29.0606   25.9717 N   0  0  0  0  0  0  0  0  0  0  0  0
  -22.9988  -32.7847   20.8381 N   0  0  0  0  0  0  0  0  0  0  0  0
  -24.9034  -34.5370   18.3144 N   0  3  0  0  0  0  0  0  0  0  0  0
  -30.4968  -20.9236   18.8237 N   0  3  1  0  0  0  0  0  0  0  0  0
  -25.5975  -11.9729   25.6511 O   0  0  0  0  0  0  0  0  0  0  0  0
  -24.0115  -28.6640   24.2225 O   0  0  0  0  0  0  0  0  0  0  0  0
  -23.4423  -32.3415   23.6338 O   0  0  0  0  0  0  0  0  0  0  0  0
  -24.0303  -31.9370   18.9421 O   0  0  0  0  0  0  0  0  0  0  0  0
  -26.8909  -17.6313   20.4370 O   0  0  0  0  0  0  0  0  0  0  0  0
  -21.5432   -7.0463   21.1928 O   0  0  0  0  0  0  0  0  0  0  0  0
  -28.2838  -26.6552   19.6041 O   0  0  0  0  0  0  0  0  0  1  0  0
  -21.8645   -2.5982   24.4354 F   0  0  0  0  0  0  0  0  0  0  0  0
  -22.0071   -4.5405   20.1212 F   0  0  0  0  0  0  0  0  0  0  0  0
  1  2  1  0  0  0  0
  1  5  2  0  0  0  0
  2  6  2  0  0  0  0
  3  8  2  0  0  0  0
  3 15  1  0  0  0  0
  4  9  1  0  0  0  0
  4 15  2  0  0  0  0
  5 17  1  0  0  0  0
  6 19  1  0  0  0  0
  7 10  2  0  0  0  0
  7 18  1  0  0  0  0
  8 21  1  0  0  0  0
  9 21  2  0  0  0  0
 10 22  1  0  0  0  0
 11 12  2  0  0  0  0
 11 23  1  0  0  0  0
 12 24  1  0  0  0  0
 13 20  1  0  0  0  0
 13 22  2  0  0  0  0
 14 24  2  0  0  0  0
 14 25  1  0  0  0  0
 15 26  1  0  0  0  0
 16 26  1  0  0  0  0
 16 27  2  0  0  0  0
 16 28  1  0  0  0  0
 17 19  2  0  0  0  0
 17 33  1  0  0  0  0
 18 20  2  0  0  0  0
 18 34  1  0  0  0  0
 19 45  1  0  0  0  0
 20 35  1  0  0  0  0
 21 78  1  0  0  0  0
 22 79  1  0  0  0  0
 23 25  2  0  0  0  0
 23 78  1  0  0  0  0
 24 80  1  0  0  0  0
 25 81  1  0  0  0  0
 26 62  2  0  0  0  0
 27 63  1  0  0  0  0
 27 67  1  0  0  0  0
 28 68  1  0  0  0  0
 28 73  2  0  0  0  0
 29 46  1  0  0  0  0
 29 69  1  0  0  0  0
 29 74  2  0  0  0  0
 30 59  1  0  0  0  0
 30 64  1  0  0  0  0
 30 75  2  0  0  0  0
 31 60  1  0  0  0  0
 31 70  1  0  0  0  0
 31 76  2  0  0  0  0
 32 65  1  0  0  0  0
 32 66  1  0  0  0  0
 32 77  2  0  0  0  0
 33 36  1  0  0  0  0
 34 46  1  0  0  0  0
 35 64  1  0  0  0  0
 36 38  1  0  0  0  0
 37 39  1  0  0  0  0
 37 41  1  0  0  0  0
 38 45  1  0  0  0  0
 39 47  1  0  0  0  0
 40 42  1  0  0  0  0
 40 48  1  0  0  0  0
 41 65  1  0  0  0  0
 42 66  1  0  0  0  0
 43 47  1  0  0  0  0
 43 65  1  0  0  0  0
 44 48  1  0  0  0  0
 44 66  1  0  0  0  0
 45 69  1  0  0  0  0
 46 64  1  0  0  0  0
 47 63  1  0  0  0  0
 48 72  1  0  0  0  0
 49 60  1  0  0  0  0
 50 61  1  0  0  0  0
 51 61  1  0  0  0  0
 52 61  1  0  0  0  0
 53 71  1  0  0  0  0
 54 72  1  0  0  0  0
 55 56  1  0  0  0  0
 55 57  1  0  0  0  0
 56 58  1  0  0  0  0
 57 72  1  0  0  0  0
 58 79  1  0  0  0  0
 59 61  1  0  0  0  0
 59 70  1  0  0  0  0
 60 71  1  0  0  0  0
 62 63  1  0  0  0  0
M  CHG  2  71   1  72   1
M  ISO  4  32 100  58 101  66 100  79 101
M  END
> <Batch ID>
0191

> <Smiles>
CNC(C)C(=O)NC(C(=O)N1Cc2cc([101O:1][101CH2:1]CCCN(C)C3CC[100N:0]([100C:0](=O)N4CCCC(n5nc(-c6ccc(Oc7ccc(F)cc7F)cc6)c(C(N)=O)c5N)C4)C3)ccc2CC1C(=O)NC1CCCc2ccccc21)C(C)(C)C

> <Shape>
0.248

> <Color>
0.102

> <Negative vol penalty>
0.000

$$$$

  -OEChem-04052323273D

 88 98  0     1  0  0  0  0  0999 V2000
  -19.3927  -25.7390   24.0935 C   0  0  0  0  0  0  0  0  0  0  0  0
  -20.4705  -25.6442   23.2190 C   0  0  0  0  0  0  0  0  0  0  0  0
  -23.4757  -10.3193   21.5758 C   0  0  0  0  0  0  0  0  0  0  0  0
  -24.9690   -8.4952   22.1046 C   0  0  0  0  0  0  0  0  0  0  0  0
  -18.5987  -26.8851   24.0979 C   0  0  0  0  0  0  0  0  0  0  0  0
  -20.7543  -26.6952   22.3475 C   0  0  0  0  0  0  0  0  0  0  0  0
  -25.6921  -27.8076   22.1886 C   0  0  0  0  0  0  0  0  0  0  0  0
  -22.4311   -9.4124   21.3972 C   0  0  0  0  0  0  0  0  0  0  0  0
  -23.9244   -7.5882   21.9261 C   0  0  0  0  0  0  0  0  0  0  0  0
  -26.5097  -26.9691   21.4322 C   0  0  0  0  0  0  0  0  0  0  0  0
  -21.2490   -6.4964   23.6784 C   0  0  0  0  0  0  0  0  0  0  0  0
  -21.0956   -5.4908   24.6328 C   0  0  0  0  0  0  0  0  0  0  0  0
  -26.4691  -28.5683   19.6267 C   0  0  0  0  0  0  0  0  0  0  0  0
  -21.4109   -3.8167   22.9196 C   0  0  0  0  0  0  0  0  0  0  0  0
  -31.0986  -23.8711   18.5041 C   0  0  0  0  0  0  0  0  0  0  0  0
  -28.4815  -23.9110   17.9786 C   0  0  0  0  0  0  0  0  0  0  0  0
  -24.7447   -9.8607   21.9295 C   0  0  0  0  0  0  0  0  0  0  0  0
  -26.1933  -11.4450   23.3076 C   0  0  0  0  0  0  0  0  0  0  0  0
  -18.8787  -27.9546   23.2327 C   0  0  0  0  0  0  0  0  0  0  0  0
  -25.2472  -29.0299   21.6647 C   0  0  0  0  0  0  0  0  0  0  0  0
  -19.9625  -27.8561   22.3394 C   0  0  0  0  0  0  0  0  0  0  0  0
  -25.6481  -29.4217   20.3794 C   0  0  0  0  0  0  0  0  0  0  0  0
  -22.6554   -8.0469   21.5724 C   0  0  0  0  0  0  0  0  0  0  0  0
  -26.8959  -27.3481   20.1499 C   0  0  0  0  0  0  0  0  0  0  0  0
  -21.4833   -6.1621   22.3446 C   0  0  0  0  0  0  0  0  0  0  0  0
  -21.1765   -4.1510   24.2534 C   0  0  0  0  0  0  0  0  0  0  0  0
  -21.5643   -4.8223   21.9652 C   0  0  0  0  0  0  0  0  0  0  0  0
  -25.8243  -10.7970   22.1136 C   0  0  0  0  0  0  0  0  0  0  0  0
  -30.5849  -23.2230   17.4025 C   0  0  0  0  0  0  0  0  0  0  0  0
  -28.9950  -24.5585   19.0806 C   0  0  0  0  0  0  0  0  0  0  0  0
  -27.2694  -12.2233   22.9575 C   0  0  0  0  0  0  0  0  0  0  0  0
  -25.6150  -11.3516   24.6163 C   0  0  0  0  0  0  0  0  0  0  0  0
  -22.4035  -30.2776   20.9863 C   0  0  0  0  0  0  0  0  0  0  0  0
  -24.1514  -32.9415   20.3774 C   0  0  0  0  0  0  0  0  0  0  0  0
  -27.1669  -34.2975   19.5321 C   0  0  0  0  0  0  0  0  0  0  0  0
  -29.8240  -15.6748   19.7354 C   0  0  0  0  0  0  0  0  0  0  0  0
  -17.9637  -29.1535   23.2407 C   0  0  0  0  0  0  0  0  0  0  0  0
  -24.3876  -29.9353   22.5036 C   0  0  0  0  0  0  0  0  0  0  0  0
  -25.2143  -30.7330   19.7787 C   0  0  0  0  0  0  0  0  0  0  0  0
  -18.5571  -30.3772   22.5475 C   0  0  0  0  0  0  0  0  0  0  0  0
  -30.0498  -12.3127   18.7411 C   0  0  0  0  0  0  0  0  0  0  0  0
  -19.1711  -29.9861   21.2070 C   0  0  0  0  0  0  0  0  0  0  0  0
  -28.9914  -11.6616   19.6310 C   0  0  0  0  0  0  0  0  0  0  0  0
  -32.5968  -23.2722   15.7925 C   0  0  0  0  0  0  0  0  0  0  0  0
  -31.4173  -22.8019   15.0002 C   0  0  0  0  0  0  0  0  0  0  0  0
  -29.5910  -13.6692   18.2030 C   0  0  0  0  0  0  0  0  0  0  0  0
  -30.2573  -16.4141   17.3500 C   0  0  0  0  0  0  0  0  0  0  0  0
  -31.5733  -17.3482   19.2165 C   0  0  0  0  0  0  0  0  0  0  0  0
  -28.0842  -13.9597   20.1432 C   0  0  0  0  0  0  0  0  0  0  0  0
  -29.8264  -17.8183   16.9386 C   0  0  0  0  0  0  0  0  0  0  0  0
  -31.1439  -18.7596   18.8505 C   0  0  0  0  0  0  0  0  0  0  0  0
  -20.3172  -28.9851   21.3963 C   0  0  1  0  0  0  0  0  0  0  0  0
  -23.5730  -30.9232   21.6741 C   0  0  1  0  0  0  0  0  0  0  0  0
  -28.5406  -12.6220   20.7459 C   0  0  1  0  0  0  0  0  0  0  0  0
  -31.4968  -22.4861   16.4830 C   0  0  0  0  0  0  0  0  0  0  0  0
  -28.2767  -36.5008   19.0725 C   0  0  0  0  0  0  0  0  0  0  0  0
  -22.8148  -33.0402   17.6364 C   0  0  0  0  0  0  0  0  0  0  0  0
  -24.6043  -34.6279   16.8982 C   0  0  0  0  0  0  0  0  0  0  0  0
  -23.0649  -35.2626   18.7557 C   0  0  0  0  0  0  0  0  0  0  0  0
  -29.0662  -33.9400   21.7735 C   0  0  0  0  0  0  0  0  0  0  0  0
  -28.0971  -25.3004   20.0084 C   0  0  0  0  0  0  0  0  0  1  0  0
  -31.7971  -21.0520   16.8879 C   0  0  0  0  0  0  0  0  0  0  0  0
  -30.5304  -20.2117   16.9161 C   0  0  0  0  0  0  0  0  0  0  0  0
  -24.8430  -33.5119   19.1628 C   0  0  1  0  0  0  0  0  0  0  0  0
  -27.9541  -35.4519   20.1254 C   0  0  2  0  0  0  0  0  0  0  0  0
  -23.8385  -34.0850   18.1235 C   0  0  0  0  0  0  0  0  0  0  0  0
  -29.2671  -23.2316   17.1197 N   0  0  0  0  0  0  0  0  0  0  0  0
  -30.3129  -24.5503   19.3631 N   0  0  0  0  0  0  0  0  0  0  0  0
  -26.6026  -11.1345   21.0820 N   0  0  0  0  0  0  0  0  0  0  0  0
  -27.4714  -12.0031   21.6268 N   0  0  0  0  0  0  0  0  0  0  0  0
  -24.3692  -31.5807   20.6359 N   0  0  0  0  0  0  0  0  0  0  0  0
  -29.1322  -14.5355   19.2978 N   0  0  0  0  0  0  0  0  0  0  0  0
  -30.5856  -16.3637   18.7798 N   0  0  0  0  0  0  0  0  0  0  0  0
  -28.0530  -13.0679   23.6611 N   0  0  0  0  0  0  0  0  0  0  0  0
  -24.5138  -10.5046   24.8013 N   0  0  0  0  0  0  0  0  0  0  0  0
  -21.5127  -29.6650   21.8470 N   0  0  0  0  0  0  0  0  0  0  0  0
  -25.8073  -34.4862   19.6620 N   0  0  0  0  0  0  0  0  0  0  0  0
  -30.8736  -18.8189   17.3651 N   0  3  0  0  0  0  0  0  0  0  0  0
  -29.2351  -34.9605   20.7072 N   0  3  0  0  0  0  0  0  0  0  0  0
  -26.0515  -12.0125   25.5891 O   0  0  0  0  0  0  0  0  0  0  0  0
  -22.3149  -30.3326   19.7653 O   0  0  0  0  0  0  0  0  0  0  0  0
  -23.4498  -33.6778   21.0754 O   0  0  0  0  0  0  0  0  0  0  0  0
  -27.7044  -33.3272   19.0027 O   0  0  0  0  0  0  0  0  0  0  0  0
  -29.7640  -16.0549   20.9116 O   0  0  0  0  0  0  0  0  0  0  0  0
  -21.6362   -7.1616   21.3984 O   0  0  0  0  0  0  0  0  0  0  0  0
  -27.6987  -26.5258   19.4043 O   0  0  0  0  0  0  0  0  0  1  0  0
  -21.0307   -3.1854   25.1703 F   0  0  0  0  0  0  0  0  0  0  0  0
  -21.7905   -4.4951   20.6855 F   0  0  0  0  0  0  0  0  0  0  0  0
  1  2  1  0  0  0  0
  1  5  2  0  0  0  0
  2  6  2  0  0  0  0
  3  8  2  0  0  0  0
  3 17  1  0  0  0  0
  4  9  1  0  0  0  0
  4 17  2  0  0  0  0
  5 19  1  0  0  0  0
  6 21  1  0  0  0  0
  7 10  2  0  0  0  0
  7 20  1  0  0  0  0
  8 23  1  0  0  0  0
  9 23  2  0  0  0  0
 10 24  1  0  0  0  0
 11 12  2  0  0  0  0
 11 25  1  0  0  0  0
 12 26  1  0  0  0  0
 13 22  1  0  0  0  0
 13 24  2  0  0  0  0
 14 26  2  0  0  0  0
 14 27  1  0  0  0  0
 15 29  2  0  0  0  0
 15 68  1  0  0  0  0
 16 30  1  0  0  0  0
 16 67  2  0  0  0  0
 17 28  1  0  0  0  0
 18 28  1  0  0  0  0
 18 31  2  0  0  0  0
 18 32  1  0  0  0  0
 19 21  2  0  0  0  0
 19 37  1  0  0  0  0
 20 22  2  0  0  0  0
 20 38  1  0  0  0  0
 21 52  1  0  0  0  0
 22 39  1  0  0  0  0
 23 85  1  0  0  0  0
 24 86  1  0  0  0  0
 25 27  2  0  0  0  0
 25 85  1  0  0  0  0
 26 87  1  0  0  0  0
 27 88  1  0  0  0  0
 28 69  2  0  0  0  0
 29 55  1  0  0  0  0
 29 67  1  0  0  0  0
 30 61  1  0  0  0  0
 30 68  2  0  0  0  0
 31 70  1  0  0  0  0
 31 74  1  0  0  0  0
 32 75  1  0  0  0  0
 32 80  2  0  0  0  0
 33 53  1  0  0  0  0
 33 76  1  0  0  0  0
 33 81  2  0  0  0  0
 34 64  1  0  0  0  0
 34 71  1  0  0  0  0
 34 82  2  0  0  0  0
 35 65  1  0  0  0  0
 35 77  1  0  0  0  0
 35 83  2  0  0  0  0
 36 72  1  0  0  0  0
 36 73  1  0  0  0  0
 36 84  2  0  0  0  0
 37 40  1  0  0  0  0
 38 53  1  0  0  0  0
 39 71  1  0  0  0  0
 40 42  1  0  0  0  0
 41 43  1  0  0  0  0
 41 46  1  0  0  0  0
 42 52  1  0  0  0  0
 43 54  1  0  0  0  0
 44 45  1  0  0  0  0
 44 55  1  0  0  0  0
 45 55  1  0  0  0  0
 46 72  1  0  0  0  0
 47 50  1  0  0  0  0
 47 73  1  0  0  0  0
 48 51  1  0  0  0  0
 48 73  1  0  0  0  0
 49 54  1  0  0  0  0
 49 72  1  0  0  0  0
 50 78  1  0  0  0  0
 51 78  1  0  0  0  0
 52 76  1  0  0  0  0
 53 71  1  0  0  0  0
 54 70  1  0  0  0  0
 55 62  1  0  0  0  0
 56 65  1  0  0  0  0
 57 66  1  0  0  0  0
 58 66  1  0  0  0  0
 59 66  1  0  0  0  0
 60 79  1  0  0  0  0
 61 86  1  0  0  0  0
 62 63  1  0  0  0  0
 63 78  1  0  0  0  0
 64 66  1  0  0  0  0
 64 77  1  0  0  0  0
 65 79  1  0  0  0  0
 69 70  1  0  0  0  0
M  CHG  2  78   1  79   1
M  ISO  4  36 100  61 101  73 100  86 101
M  END
> <Batch ID>
0191

> <Smiles>
CNC(C)C(=O)NC(C(=O)N1Cc2cc([101O:1][101CH2:1]c3cnc(C4(CCN5CC[100N:0]([100C:0](=O)N6CCCC(n7nc(-c8ccc(Oc9ccc(F)cc9F)cc8)c(C(N)=O)c7N)C6)CC5)CC4)cn3)ccc2CC1C(=O)NC1CCCc2ccccc21)C(C)(C)C

> <Shape>
0.277

> <Color>
0.139

> <Negative vol penalty>
0.000

$$$$

  -OEChem-04052323273D

 86 96  0     1  0  0  0  0  0999 V2000
  -17.2479  -26.1192   21.9320 C   0  0  0  0  0  0  0  0  0  0  0  0
  -18.5539  -25.7398   21.6390 C   0  0  0  0  0  0  0  0  0  0  0  0
  -23.5699  -12.8725   22.3679 C   0  0  0  0  0  0  0  0  0  0  0  0
  -23.3072  -13.4618   20.0397 C   0  0  0  0  0  0  0  0  0  0  0  0
  -16.9985  -27.3586   22.5199 C   0  0  0  0  0  0  0  0  0  0  0  0
  -19.6112  -26.6002   21.9327 C   0  0  0  0  0  0  0  0  0  0  0  0
  -23.5086  -24.2143   24.1151 C   0  0  0  0  0  0  0  0  0  0  0  0
  -22.7100  -13.9101   22.7277 C   0  0  0  0  0  0  0  0  0  0  0  0
  -22.4471  -14.4994   20.3994 C   0  0  0  0  0  0  0  0  0  0  0  0
  -24.3497  -23.4762   23.2835 C   0  0  0  0  0  0  0  0  0  0  0  0
  -20.8661  -16.6309   24.2835 C   0  0  0  0  0  0  0  0  0  0  0  0
  -21.2402  -17.4439   25.3535 C   0  0  0  0  0  0  0  0  0  0  0  0
  -25.9377  -25.2921   23.2879 C   0  0  0  0  0  0  0  0  0  0  0  0
  -23.2466  -18.0810   24.1679 C   0  0  0  0  0  0  0  0  0  0  0  0
  -23.8686  -12.6484   21.0239 C   0  0  0  0  0  0  0  0  0  0  0  0
  -24.4070  -10.2464   20.3542 C   0  0  0  0  0  0  0  0  0  0  0  0
  -18.0541  -28.2306   22.8297 C   0  0  0  0  0  0  0  0  0  0  0  0
  -23.8714  -25.5034   24.5311 C   0  0  0  0  0  0  0  0  0  0  0  0
  -19.3756  -27.8530   22.5240 C   0  0  0  0  0  0  0  0  0  0  0  0
  -25.1006  -26.0435   24.1268 C   0  0  0  0  0  0  0  0  0  0  0  0
  -22.1485  -14.7235   21.7434 C   0  0  0  0  0  0  0  0  0  0  0  0
  -25.5631  -24.0162   22.8674 C   0  0  0  0  0  0  0  0  0  0  0  0
  -21.6823  -16.5429   23.1558 C   0  0  0  0  0  0  0  0  0  0  0  0
  -22.4304  -18.1689   25.2956 C   0  0  0  0  0  0  0  0  0  0  0  0
  -22.8725  -17.2680   23.0980 C   0  0  0  0  0  0  0  0  0  0  0  0
  -24.7573  -11.5771   20.6517 C   0  0  0  0  0  0  0  0  0  0  0  0
  -25.6013   -9.6337   20.0635 C   0  0  0  0  0  0  0  0  0  0  0  0
  -23.1172   -9.6203   20.3418 C   0  0  0  0  0  0  0  0  0  0  0  0
  -22.6471  -28.4117   24.1482 C   0  0  0  0  0  0  0  0  0  0  0  0
  -25.0100  -29.2529   26.2053 C   0  0  0  0  0  0  0  0  0  0  0  0
  -28.0639  -28.5465   27.5548 C   0  0  0  0  0  0  0  0  0  0  0  0
  -29.2809  -13.7328   21.3256 C   0  0  0  0  0  0  0  0  0  0  0  0
  -17.7313  -29.5798   23.4215 C   0  0  0  0  0  0  0  0  0  0  0  0
  -22.9651  -26.2761   25.4498 C   0  0  0  0  0  0  0  0  0  0  0  0
  -25.5457  -27.4150   24.5619 C   0  0  0  0  0  0  0  0  0  0  0  0
  -18.9385  -30.2764   24.0442 C   0  0  0  0  0  0  0  0  0  0  0  0
  -28.5076  -12.0565   18.0690 C   0  0  0  0  0  0  0  0  0  0  0  0
  -20.1395  -30.2031   23.1066 C   0  0  0  0  0  0  0  0  0  0  0  0
  -28.4402  -10.5941   18.5039 C   0  0  0  0  0  0  0  0  0  0  0  0
  -31.4502  -17.9482   17.1813 C   0  0  0  0  0  0  0  0  0  0  0  0
  -31.2364  -19.3960   16.8491 C   0  0  0  0  0  0  0  0  0  0  0  0
  -30.4963  -17.1426   20.5144 C   0  0  0  0  0  0  0  0  0  0  0  0
  -28.5222  -16.5924   19.0281 C   0  0  0  0  0  0  0  0  0  0  0  0
  -28.4344  -18.7410   20.5117 C   0  0  0  0  0  0  0  0  0  0  0  0
  -29.4398  -12.8496   18.9736 C   0  0  0  0  0  0  0  0  0  0  0  0
  -30.0138  -16.0832   21.5056 C   0  0  0  0  0  0  0  0  0  0  0  0
  -28.0795  -15.5528   20.0533 C   0  0  0  0  0  0  0  0  0  0  0  0
  -28.9641  -11.3265   20.8715 C   0  0  0  0  0  0  0  0  0  0  0  0
  -20.5512  -28.7483   22.8502 C   0  0  1  0  0  0  0  0  0  0  0  0
  -23.2018  -27.7822   25.3947 C   0  0  1  0  0  0  0  0  0  0  0  0
  -28.0597  -10.4417   19.9899 C   0  0  1  0  0  0  0  0  0  0  0  0
  -30.9787  -18.9005   18.2453 C   0  0  0  0  0  0  0  0  0  0  0  0
  -29.2913  -19.8191   19.8092 C   0  0  2  0  0  0  0  0  0  0  0  0
  -29.3049  -17.7091   19.7275 C   0  0  0  0  0  0  0  0  0  0  0  0
  -29.7521  -29.4389   29.1830 C   0  0  0  0  0  0  0  0  0  0  0  0
  -25.8810  -31.3384   24.1554 C   0  0  0  0  0  0  0  0  0  0  0  0
  -28.0624  -31.5202   25.3706 C   0  0  0  0  0  0  0  0  0  0  0  0
  -25.9371  -32.1223   26.5296 C   0  0  0  0  0  0  0  0  0  0  0  0
  -27.8454  -26.1477   29.2744 C   0  0  0  0  0  0  0  0  0  0  0  0
  -28.5426  -21.0141   19.2517 C   0  0  0  0  0  0  0  0  0  0  0  0
  -27.5228  -23.1894   19.9350 C   0  0  0  0  0  0  0  0  0  0  0  0
  -27.2162  -24.0315   21.1577 C   0  0  0  0  0  0  0  0  0  1  0  0
  -26.4474  -29.6909   26.0609 C   0  0  1  0  0  0  0  0  0  0  0  0
  -28.5496  -28.5275   28.9930 C   0  0  2  0  0  0  0  0  0  0  0  0
  -26.5730  -31.1428   25.5192 C   0  0  0  0  0  0  0  0  0  0  0  0
  -26.0714  -11.7974   20.5587 N   0  0  0  0  0  0  0  0  0  0  0  0
  -26.5573  -10.5969   20.1995 N   0  0  0  0  0  0  0  0  0  0  0  0
  -24.6220  -28.1338   25.4550 N   0  0  0  0  0  0  0  0  0  0  0  0
  -29.0763  -12.7055   20.3877 N   0  0  0  0  0  0  0  0  0  0  0  0
  -29.2139  -15.0512   20.8432 N   0  0  0  0  0  0  0  0  0  0  0  0
  -29.6024  -18.8138   18.7674 N   0  0  2  0  0  0  0  0  0  0  0  0
  -25.9166   -8.3703   19.7073 N   0  0  0  0  0  0  0  0  0  0  0  0
  -21.9951  -10.3952   20.6653 N   0  0  0  0  0  0  0  0  0  0  0  0
  -21.2883  -28.2250   23.9804 N   0  0  0  0  0  0  0  0  0  0  0  0
  -27.0703  -29.4832   27.3637 N   0  0  0  0  0  0  0  0  0  0  0  0
  -28.9403  -27.1451   29.3895 N   0  3  0  0  0  0  0  0  0  0  0  0
  -28.2137  -21.9397   20.3594 N   0  3  0  0  0  0  0  0  0  0  0  0
  -22.9661   -8.4054   20.0682 O   0  0  0  0  0  0  0  0  0  0  0  0
  -23.3962  -29.0228   23.3952 O   0  0  0  0  0  0  0  0  0  0  0  0
  -24.2609  -29.8763   26.9616 O   0  0  0  0  0  0  0  0  0  0  0  0
  -28.5228  -27.8072   26.6869 O   0  0  0  0  0  0  0  0  0  0  0  0
  -29.5037  -13.4879   22.5178 O   0  0  0  0  0  0  0  0  0  0  0  0
  -21.3091  -15.7360   22.0941 O   0  0  0  0  0  0  0  0  0  0  0  0
  -26.3916  -23.2930   22.0494 O   0  0  0  0  0  0  0  0  0  1  0  0
  -22.7887  -18.9508   26.3225 F   0  0  0  0  0  0  0  0  0  0  0  0
  -23.6601  -17.1884   22.0167 F   0  0  0  0  0  0  0  0  0  0  0  0
  1  2  1  0  0  0  0
  1  5  2  0  0  0  0
  2  6  2  0  0  0  0
  3  8  2  0  0  0  0
  3 15  1  0  0  0  0
  4  9  1  0  0  0  0
  4 15  2  0  0  0  0
  5 17  1  0  0  0  0
  6 19  1  0  0  0  0
  7 10  2  0  0  0  0
  7 18  1  0  0  0  0
  8 21  1  0  0  0  0
  9 21  2  0  0  0  0
 10 22  1  0  0  0  0
 11 12  2  0  0  0  0
 11 23  1  0  0  0  0
 12 24  1  0  0  0  0
 13 20  1  0  0  0  0
 13 22  2  0  0  0  0
 14 24  2  0  0  0  0
 14 25  1  0  0  0  0
 15 26  1  0  0  0  0
 16 26  1  0  0  0  0
 16 27  2  0  0  0  0
 16 28  1  0  0  0  0
 17 19  2  0  0  0  0
 17 33  1  0  0  0  0
 18 20  2  0  0  0  0
 18 34  1  0  0  0  0
 19 49  1  0  0  0  0
 20 35  1  0  0  0  0
 21 83  1  0  0  0  0
 22 84  1  0  0  0  0
 23 25  2  0  0  0  0
 23 83  1  0  0  0  0
 24 85  1  0  0  0  0
 25 86  1  0  0  0  0
 26 66  2  0  0  0  0
 27 67  1  0  0  0  0
 27 72  1  0  0  0  0
 28 73  1  0  0  0  0
 28 78  2  0  0  0  0
 29 50  1  0  0  0  0
 29 74  1  0  0  0  0
 29 79  2  0  0  0  0
 30 63  1  0  0  0  0
 30 68  1  0  0  0  0
 30 80  2  0  0  0  0
 31 64  1  0  0  0  0
 31 75  1  0  0  0  0
 31 81  2  0  0  0  0
 32 69  1  0  0  0  0
 32 70  1  0  0  0  0
 32 82  2  0  0  0  0
 33 36  1  0  0  0  0
 34 50  1  0  0  0  0
 35 68  1  0  0  0  0
 36 38  1  0  0  0  0
 37 39  1  0  0  0  0
 37 45  1  0  0  0  0
 38 49  1  0  0  0  0
 39 51  1  0  0  0  0
 40 41  1  0  0  0  0
 40 52  1  0  0  0  0
 41 52  1  0  0  0  0
 42 46  1  0  0  0  0
 42 54  1  0  0  0  0
 43 47  1  0  0  0  0
 43 54  1  0  0  0  0
 44 53  1  0  0  0  0
 44 54  1  0  0  0  0
 45 69  1  0  0  0  0
 46 70  1  0  0  0  0
 47 70  1  0  0  0  0
 48 51  1  0  0  0  0
 48 69  1  0  0  0  0
 49 74  1  0  0  0  0
 50 68  1  0  0  0  0
 51 67  1  0  0  0  0
 52 71  1  0  0  0  0
 53 60  1  0  0  0  0
 53 71  1  0  0  0  0
 54 71  1  0  0  0  0
 55 64  1  0  0  0  0
 56 65  1  0  0  0  0
 57 65  1  0  0  0  0
 58 65  1  0  0  0  0
 59 76  1  0  0  0  0
 60 77  1  0  0  0  0
 61 62  1  0  0  0  0
 61 77  1  0  0  0  0
 62 84  1  0  0  0  0
 63 65  1  0  0  0  0
 63 75  1  0  0  0  0
 64 76  1  0  0  0  0
 66 67  1  0  0  0  0
M  CHG  2  76   1  77   1
M  ISO  4  32 100  62 101  70 100  84 101
M  END
> <Batch ID>
0191

> <Smiles>
CNC(C)C(=O)NC(C(=O)N1Cc2cc([101O:1][101CH2:1]CNCC3CC4(CC[100N:0]([100C:0](=O)N5CCCC(n6nc(-c7ccc(Oc8ccc(F)cc8F)cc7)c(C(N)=O)c6N)C5)CC4)N3C3CC3)ccc2CC1C(=O)NC1CCCc2ccccc21)C(C)(C)C

> <Shape>
0.263

> <Color>
0.068

> <Negative vol penalty>
0.000

$$$$

  -OEChem-04052323273D

 81 90  0     1  0  0  0  0  0999 V2000
  -22.4563   -7.5881   23.3107 C   0  0  0  0  0  0  0  0  0  0  0  0
  -23.3098   -8.3373   22.5071 C   0  0  0  0  0  0  0  0  0  0  0  0
  -21.4646  -27.4696   20.8960 C   0  0  0  0  0  0  0  0  0  0  0  0
  -22.3732  -26.2095   22.7464 C   0  0  0  0  0  0  0  0  0  0  0  0
  -21.1517   -8.0248   23.5370 C   0  0  0  0  0  0  0  0  0  0  0  0
  -22.8588   -9.5231   21.9284 C   0  0  0  0  0  0  0  0  0  0  0  0
  -26.2196  -13.2884   22.3434 C   0  0  0  0  0  0  0  0  0  0  0  0
  -20.2527  -27.5935   21.5754 C   0  0  0  0  0  0  0  0  0  0  0  0
  -21.1613  -26.3334   23.4258 C   0  0  0  0  0  0  0  0  0  0  0  0
  -27.2998  -13.2777   21.4621 C   0  0  0  0  0  0  0  0  0  0  0  0
  -18.9791  -29.4836   24.0731 C   0  0  0  0  0  0  0  0  0  0  0  0
  -18.3698  -30.7382   24.0883 C   0  0  0  0  0  0  0  0  0  0  0  0
  -26.1869  -14.9181   20.0875 C   0  0  0  0  0  0  0  0  0  0  0  0
  -16.4278  -29.8084   22.9924 C   0  0  0  0  0  0  0  0  0  0  0  0
  -30.0713  -16.7148   18.1012 C   0  0  0  0  0  0  0  0  0  0  0  0
  -22.5249  -26.7776   21.4815 C   0  0  0  0  0  0  0  0  0  0  0  0
  -24.8771  -27.5251   20.8366 C   0  0  0  0  0  0  0  0  0  0  0  0
  -20.6875   -9.2216   22.9687 C   0  0  0  0  0  0  0  0  0  0  0  0
  -25.1082  -14.1074   22.0972 C   0  0  0  0  0  0  0  0  0  0  0  0
  -21.5463   -9.9755   22.1463 C   0  0  0  0  0  0  0  0  0  0  0  0
  -25.0949  -14.9393   20.9686 C   0  0  0  0  0  0  0  0  0  0  0  0
  -20.1011  -27.0254   22.8403 C   0  0  0  0  0  0  0  0  0  0  0  0
  -27.2823  -14.0905   20.3324 C   0  0  0  0  0  0  0  0  0  0  0  0
  -18.3128  -28.3914   23.5174 C   0  0  0  0  0  0  0  0  0  0  0  0
  -17.0941  -30.9006   23.5481 C   0  0  0  0  0  0  0  0  0  0  0  0
  -17.0371  -28.5538   22.9771 C   0  0  0  0  0  0  0  0  0  0  0  0
  -23.7768  -26.6488   20.7799 C   0  0  0  0  0  0  0  0  0  0  0  0
  -30.1672  -17.9971   18.5803 C   0  0  0  0  0  0  0  0  0  0  0  0
  -25.8077  -26.9625   19.9976 C   0  0  0  0  0  0  0  0  0  0  0  0
  -25.0432  -28.7390   21.5812 C   0  0  0  0  0  0  0  0  0  0  0  0
  -22.0180  -13.5929   21.5587 C   0  0  0  0  0  0  0  0  0  0  0  0
  -21.8527  -16.8291   21.7072 C   0  0  0  0  0  0  0  0  0  0  0  0
  -23.4496  -19.8290   21.3952 C   0  0  0  0  0  0  0  0  0  0  0  0
  -28.5889  -22.5004   18.3787 C   0  0  0  0  0  0  0  0  0  0  0  0
  -19.2544   -9.6287   23.2036 C   0  0  0  0  0  0  0  0  0  0  0  0
  -23.9626  -14.1272   23.0717 C   0  0  0  0  0  0  0  0  0  0  0  0
  -23.9346  -15.8518   20.6697 C   0  0  0  0  0  0  0  0  0  0  0  0
  -18.9715  -11.0884   22.8579 C   0  0  0  0  0  0  0  0  0  0  0  0
  -25.4210  -23.2181   16.6569 C   0  0  0  0  0  0  0  0  0  0  0  0
  -19.5770  -11.4434   21.5036 C   0  0  0  0  0  0  0  0  0  0  0  0
  -24.7738  -24.1961   17.6312 C   0  0  0  0  0  0  0  0  0  0  0  0
  -26.2815  -22.1716   17.3654 C   0  0  0  0  0  0  0  0  0  0  0  0
  -28.3460  -19.9293   18.0971 C   0  0  0  0  0  0  0  0  0  0  0  0
  -30.3360  -20.6644   18.2138 C   0  0  0  0  0  0  0  0  0  0  0  0
  -26.6436  -23.7457   19.2559 C   0  0  0  0  0  0  0  0  0  0  0  0
  -21.1016  -11.2799   21.5211 C   0  0  1  0  0  0  0  0  0  0  0  0
  -29.7305  -19.3071   17.8003 C   0  0  0  0  0  0  0  0  0  0  0  0
  -22.6585  -14.6183   22.4509 C   0  0  1  0  0  0  0  0  0  0  0  0
  -25.8385  -24.8350   18.5345 C   0  0  2  0  0  0  0  0  0  0  0  0
  -23.0436  -22.3011   21.5399 C   0  0  0  0  0  0  0  0  0  0  0  0
  -20.4664  -16.7579   18.9900 C   0  0  0  0  0  0  0  0  0  0  0  0
  -20.9426  -19.2052   18.7609 C   0  0  0  0  0  0  0  0  0  0  0  0
  -19.4902  -18.3873   20.6169 C   0  0  0  0  0  0  0  0  0  0  0  0
  -25.3980  -20.1372   23.6015 C   0  0  0  0  0  0  0  0  0  0  0  0
  -30.7017  -14.4541   19.1663 C   0  0  0  0  0  0  0  0  0  0  0  0
  -29.6215  -13.7973   20.0188 C   0  0  0  0  0  0  0  0  0  1  0  0
  -21.9793  -17.9530   20.7073 C   0  0  1  0  0  0  0  0  0  0  0  0
  -23.4780  -21.0531   22.2925 C   0  0  2  0  0  0  0  0  0  0  0  0
  -20.7408  -18.0573   19.7731 C   0  0  0  0  0  0  0  0  0  0  0  0
  -23.9873  -25.6086   19.9689 N   0  0  0  0  0  0  0  0  0  0  0  0
  -30.6971  -17.9784   19.8406 N   0  0  0  0  0  0  0  0  0  0  0  0
  -30.9372  -16.7123   20.1636 N   0  0  0  0  0  0  0  0  0  0  0  0
  -30.5615  -15.9563   19.1194 N   0  0  0  0  0  0  0  0  0  0  0  0
  -25.2306  -25.8278   19.5082 N   0  0  0  0  0  0  0  0  0  0  0  0
  -22.8356  -15.8308   21.6491 N   0  0  0  0  0  0  0  0  0  0  0  0
  -27.2188  -22.7764   18.3173 N   0  0  0  0  0  0  0  0  0  0  0  0
  -29.0020  -21.2296   18.0319 N   0  0  0  0  0  0  0  0  0  0  0  0
  -27.0551  -27.3327   19.6381 N   0  0  0  0  0  0  0  0  0  0  0  0
  -23.9877  -29.1737   22.3945 N   0  0  0  0  0  0  0  0  0  0  0  0
  -21.7224  -12.4013   22.1930 N   0  0  0  0  0  0  0  0  0  0  0  0
  -22.2470  -19.1601   21.4817 N   0  0  0  0  0  0  0  0  0  0  0  0
  -24.8538  -21.2772   22.8196 N   0  3  0  0  0  0  0  0  0  0  0  0
  -26.0901  -29.4268   21.5142 O   0  0  0  0  0  0  0  0  0  0  0  0
  -21.8063  -13.8632   20.3824 O   0  0  0  0  0  0  0  0  0  0  0  0
  -20.9204  -16.8402   22.5148 O   0  0  0  0  0  0  0  0  0  0  0  0
  -24.3980  -19.5012   20.6855 O   0  0  0  0  0  0  0  0  0  0  0  0
  -29.4122  -23.3421   18.7600 O   0  0  0  0  0  0  0  0  0  0  0  0
  -18.9188  -27.1463   23.5037 O   0  0  0  0  0  0  0  0  0  0  0  0
  -28.3351  -14.0814   19.4702 O   0  0  0  0  0  0  0  0  0  1  0  0
  -16.5085  -32.1052   23.5642 F   0  0  0  0  0  0  0  0  0  0  0  0
  -16.3916  -27.5079   22.4430 F   0  0  0  0  0  0  0  0  0  0  0  0
  1  2  1  0  0  0  0
  1  5  2  0  0  0  0
  2  6  2  0  0  0  0
  3  8  2  0  0  0  0
  3 16  1  0  0  0  0
  4  9  1  0  0  0  0
  4 16  2  0  0  0  0
  5 18  1  0  0  0  0
  6 20  1  0  0  0  0
  7 10  2  0  0  0  0
  7 19  1  0  0  0  0
  8 22  1  0  0  0  0
  9 22  2  0  0  0  0
 10 23  1  0  0  0  0
 11 12  2  0  0  0  0
 11 24  1  0  0  0  0
 12 25  1  0  0  0  0
 13 21  1  0  0  0  0
 13 23  2  0  0  0  0
 14 25  2  0  0  0  0
 14 26  1  0  0  0  0
 15 28  2  0  0  0  0
 15 63  1  0  0  0  0
 16 27  1  0  0  0  0
 17 27  1  0  0  0  0
 17 29  2  0  0  0  0
 17 30  1  0  0  0  0
 18 20  2  0  0  0  0
 18 35  1  0  0  0  0
 19 21  2  0  0  0  0
 19 36  1  0  0  0  0
 20 46  1  0  0  0  0
 21 37  1  0  0  0  0
 22 78  1  0  0  0  0
 23 79  1  0  0  0  0
 24 26  2  0  0  0  0
 24 78  1  0  0  0  0
 25 80  1  0  0  0  0
 26 81  1  0  0  0  0
 27 60  2  0  0  0  0
 28 47  1  0  0  0  0
 28 61  1  0  0  0  0
 29 64  1  0  0  0  0
 29 68  1  0  0  0  0
 30 69  1  0  0  0  0
 30 73  2  0  0  0  0
 31 48  1  0  0  0  0
 31 70  1  0  0  0  0
 31 74  2  0  0  0  0
 32 57  1  0  0  0  0
 32 65  1  0  0  0  0
 32 75  2  0  0  0  0
 33 58  1  0  0  0  0
 33 71  1  0  0  0  0
 33 76  2  0  0  0  0
 34 66  1  0  0  0  0
 34 67  1  0  0  0  0
 34 77  2  0  0  0  0
 35 38  1  0  0  0  0
 36 48  1  0  0  0  0
 37 65  1  0  0  0  0
 38 40  1  0  0  0  0
 39 41  1  0  0  0  0
 39 42  1  0  0  0  0
 40 46  1  0  0  0  0
 41 49  1  0  0  0  0
 42 66  1  0  0  0  0
 43 47  1  0  0  0  0
 43 67  1  0  0  0  0
 44 47  1  0  0  0  0
 44 67  1  0  0  0  0
 45 49  1  0  0  0  0
 45 66  1  0  0  0  0
 46 70  1  0  0  0  0
 48 65  1  0  0  0  0
 49 64  1  0  0  0  0
 50 58  1  0  0  0  0
 51 59  1  0  0  0  0
 52 59  1  0  0  0  0
 53 59  1  0  0  0  0
 54 72  1  0  0  0  0
 55 56  1  0  0  0  0
 55 63  1  0  0  0  0
 56 79  1  0  0  0  0
 57 59  1  0  0  0  0
 57 71  1  0  0  0  0
 58 72  1  0  0  0  0
 60 64  1  0  0  0  0
 61 62  2  0  0  0  0
 62 63  1  0  0  0  0
M  CHG  1  72   1
M  ISO  4  34 100  56 101  67 100  79 101
M  END
> <Batch ID>
0191

> <Smiles>
CNC(C)C(=O)NC(C(=O)N1Cc2cc([101O:1][101CH2:1]Cn3cc(C4C[100N:0]([100C:0](=O)N5CCCC(n6nc(-c7ccc(Oc8ccc(F)cc8F)cc7)c(C(N)=O)c6N)C5)C4)nn3)ccc2CC1C(=O)NC1CCCc2ccccc21)C(C)(C)C

> <Shape>
0.220

> <Color>
0.077

> <Negative vol penalty>
0.000

$$$$

  -OEChem-04052323273D

 88 98  0     1  0  0  0  0  0999 V2000
  -18.6345  -33.5150   22.4840 C   0  0  0  0  0  0  0  0  0  0  0  0
  -19.9974  -33.4389   22.2158 C   0  0  0  0  0  0  0  0  0  0  0  0
  -26.5839  -11.3814   21.1201 C   0  0  0  0  0  0  0  0  0  0  0  0
  -26.4682  -11.5446   18.7124 C   0  0  0  0  0  0  0  0  0  0  0  0
  -17.9907  -32.4561   23.1229 C   0  0  0  0  0  0  0  0  0  0  0  0
  -20.7177  -32.3041   22.5874 C   0  0  0  0  0  0  0  0  0  0  0  0
  -25.4306  -29.7904   19.5916 C   0  0  0  0  0  0  0  0  0  0  0  0
  -25.4564  -10.5603   21.1187 C   0  0  0  0  0  0  0  0  0  0  0  0
  -25.3406  -10.7234   18.7110 C   0  0  0  0  0  0  0  0  0  0  0  0
  -26.8105  -29.8803   19.7695 C   0  0  0  0  0  0  0  0  0  0  0  0
  -22.1069  -10.9298   20.8567 C   0  0  0  0  0  0  0  0  0  0  0  0
  -21.1124  -11.1941   21.7983 C   0  0  0  0  0  0  0  0  0  0  0  0
  -26.7720  -27.8378   21.0525 C   0  0  0  0  0  0  0  0  0  0  0  0
  -21.3982   -8.9798   22.7216 C   0  0  0  0  0  0  0  0  0  0  0  0
  -34.2175  -26.4885   19.0706 C   0  0  0  0  0  0  0  0  0  0  0  0
  -27.0898  -11.8736   19.9169 C   0  0  0  0  0  0  0  0  0  0  0  0
  -29.5999  -12.3195   19.8256 C   0  0  0  0  0  0  0  0  0  0  0  0
  -18.7014  -31.3038   23.4939 C   0  0  0  0  0  0  0  0  0  0  0  0
  -24.7083  -28.7276   20.1529 C   0  0  0  0  0  0  0  0  0  0  0  0
  -20.0830  -31.2294   23.2331 C   0  0  0  0  0  0  0  0  0  0  0  0
  -25.3834  -27.7354   20.8781 C   0  0  0  0  0  0  0  0  0  0  0  0
  -34.0889  -25.1424   18.7953 C   0  0  0  0  0  0  0  0  0  0  0  0
  -24.8348  -10.2313   19.9141 C   0  0  0  0  0  0  0  0  0  0  0  0
  -27.4810  -28.9054   20.5025 C   0  0  0  0  0  0  0  0  0  0  0  0
  -22.7470   -9.6904   20.8474 C   0  0  0  0  0  0  0  0  0  0  0  0
  -20.7581  -10.2191   22.7308 C   0  0  0  0  0  0  0  0  0  0  0  0
  -22.3927   -8.7155   21.7799 C   0  0  0  0  0  0  0  0  0  0  0  0
  -28.2542  -12.7224   19.9178 C   0  0  0  0  0  0  0  0  0  0  0  0
  -32.7946  -24.6758   18.6889 C   0  0  0  0  0  0  0  0  0  0  0  0
  -30.3133  -13.4923   19.8699 C   0  0  0  0  0  0  0  0  0  0  0  0
  -31.9595  -26.7489   19.1036 C   0  0  0  0  0  0  0  0  0  0  0  0
  -30.1554  -11.0027   19.7101 C   0  0  0  0  0  0  0  0  0  0  0  0
  -22.3760  -28.4866   22.2991 C   0  0  0  0  0  0  0  0  0  0  0  0
  -22.4407  -25.3585   21.4432 C   0  0  0  0  0  0  0  0  0  0  0  0
  -24.2062  -22.7503   20.1287 C   0  0  0  0  0  0  0  0  0  0  0  0
  -28.6861  -19.0544   18.4076 C   0  0  0  0  0  0  0  0  0  0  0  0
  -17.9718  -30.2047   24.2248 C   0  0  0  0  0  0  0  0  0  0  0  0
  -23.2240  -28.6307   19.9293 C   0  0  0  0  0  0  0  0  0  0  0  0
  -24.6570  -26.5633   21.4840 C   0  0  0  0  0  0  0  0  0  0  0  0
  -18.7316  -28.8810   24.2496 C   0  0  0  0  0  0  0  0  0  0  0  0
  -30.1016  -17.9446   21.6032 C   0  0  0  0  0  0  0  0  0  0  0  0
  -35.4179  -23.0366   19.4831 C   0  0  0  0  0  0  0  0  0  0  0  0
  -36.3114  -24.2119   19.7296 C   0  0  0  0  0  0  0  0  0  0  0  0
  -20.1915  -29.1105   24.6274 C   0  0  0  0  0  0  0  0  0  0  0  0
  -29.8876  -16.4324   21.5221 C   0  0  0  0  0  0  0  0  0  0  0  0
  -28.9648  -18.6937   20.9184 C   0  0  0  0  0  0  0  0  0  0  0  0
  -28.5280  -16.8003   19.4068 C   0  0  0  0  0  0  0  0  0  0  0  0
  -30.5663  -20.7643   19.0379 C   0  0  0  0  0  0  0  0  0  0  0  0
  -29.3237  -21.3110   17.3982 C   0  0  0  0  0  0  0  0  0  0  0  0
  -35.2819  -24.2723   18.6282 C   0  0  0  0  0  0  0  0  0  0  0  0
  -20.8936  -30.0048   23.5985 C   0  0  1  0  0  0  0  0  0  0  0  0
  -22.5157  -27.7811   20.9799 C   0  0  1  0  0  0  0  0  0  0  0  0
  -29.6499  -15.9797   20.0697 C   0  0  2  0  0  0  0  0  0  0  0  0
  -30.7981  -21.5521   17.7412 C   0  0  0  0  0  0  0  0  0  0  0  0
  -24.0050  -20.3073   19.5915 C   0  0  0  0  0  0  0  0  0  0  0  0
  -22.7537  -24.6844   24.4025 C   0  0  0  0  0  0  0  0  0  0  0  0
  -23.4901  -22.3880   23.7301 C   0  0  0  0  0  0  0  0  0  0  0  0
  -21.1973  -23.1808   23.1491 C   0  0  0  0  0  0  0  0  0  0  0  0
  -24.6608  -23.2285   17.2437 C   0  0  0  0  0  0  0  0  0  0  0  0
  -32.5308  -23.2287   18.3933 C   0  0  0  0  0  0  0  0  0  0  0  0
  -30.9562  -28.9898   19.5480 C   0  0  0  0  0  0  0  0  0  0  0  0
  -29.5793  -29.6250   19.6450 C   0  0  0  0  0  0  0  0  0  1  0  0
  -23.1882  -24.1356   21.9174 C   0  0  1  0  0  0  0  0  0  0  0  0
  -23.8494  -21.7261   19.0666 C   0  0  2  0  0  0  0  0  0  0  0  0
  -22.6710  -23.6202   23.2901 C   0  0  0  0  0  0  0  0  0  0  0  0
  -33.1704  -27.3241   19.2315 N   0  0  0  0  0  0  0  0  0  0  0  0
  -28.1181  -14.0476   20.0136 N   0  0  0  0  0  0  0  0  0  0  0  0
  -31.7025  -25.4539   18.8379 N   0  0  0  0  0  0  0  0  0  0  0  0
  -29.3876  -14.4876   19.9820 N   0  0  0  0  0  0  0  0  0  0  0  0
  -23.2054  -26.5165   21.2429 N   0  0  0  0  0  0  0  0  0  0  0  0
  -28.7953  -18.2366   19.5357 N   0  0  0  0  0  0  0  0  0  0  0  0
  -29.3571  -20.2547   18.4071 N   0  0  0  0  0  0  0  0  0  0  0  0
  -31.6358  -13.7590   19.8237 N   0  0  0  0  0  0  0  0  0  0  0  0
  -29.2800   -9.9086   19.6788 N   0  0  0  0  0  0  0  0  0  0  0  0
  -30.8399  -27.5936   19.2641 N   0  0  0  0  0  0  0  0  0  0  0  0
  -21.2267  -29.2454   22.4124 N   0  0  0  0  0  0  0  0  0  0  0  0
  -23.0965  -23.1574   20.8388 N   0  0  0  0  0  0  0  0  0  0  0  0
  -31.1231  -22.9657   17.9636 N   0  3  0  0  0  0  0  0  0  0  0  0
  -24.7312  -21.8860   17.8759 N   0  3  0  0  0  0  0  0  0  0  0  0
  -31.3922  -10.8012   19.6533 O   0  0  0  0  0  0  0  0  0  0  0  0
  -23.2458  -28.3514   23.1517 O   0  0  0  0  0  0  0  0  0  0  0  0
  -21.2244  -25.2869   21.2505 O   0  0  0  0  0  0  0  0  0  0  0  0
  -25.3549  -23.1466   20.3127 O   0  0  0  0  0  0  0  0  0  0  0  0
  -28.0339  -18.7100   17.4130 O   0  0  0  0  0  0  0  0  0  0  0  0
  -23.7346   -9.4298   19.9124 O   0  0  0  0  0  0  0  0  0  0  0  0
  -28.8371  -28.9917   20.6794 O   0  0  0  0  0  0  0  0  0  1  0  0
  -19.8042  -10.4736   23.6361 F   0  0  0  0  0  0  0  0  0  0  0  0
  -23.0049   -7.5234   21.7767 F   0  0  0  0  0  0  0  0  0  0  0  0
  1  2  1  0  0  0  0
  1  5  2  0  0  0  0
  2  6  2  0  0  0  0
  3  8  2  0  0  0  0
  3 16  1  0  0  0  0
  4  9  1  0  0  0  0
  4 16  2  0  0  0  0
  5 18  1  0  0  0  0
  6 20  1  0  0  0  0
  7 10  2  0  0  0  0
  7 19  1  0  0  0  0
  8 23  1  0  0  0  0
  9 23  2  0  0  0  0
 10 24  1  0  0  0  0
 11 12  2  0  0  0  0
 11 25  1  0  0  0  0
 12 26  1  0  0  0  0
 13 21  1  0  0  0  0
 13 24  2  0  0  0  0
 14 26  2  0  0  0  0
 14 27  1  0  0  0  0
 15 22  1  0  0  0  0
 15 66  2  0  0  0  0
 16 28  1  0  0  0  0
 17 28  1  0  0  0  0
 17 30  2  0  0  0  0
 17 32  1  0  0  0  0
 18 20  2  0  0  0  0
 18 37  1  0  0  0  0
 19 21  2  0  0  0  0
 19 38  1  0  0  0  0
 20 51  1  0  0  0  0
 21 39  1  0  0  0  0
 22 29  2  0  0  0  0
 22 50  1  0  0  0  0
 23 85  1  0  0  0  0
 24 86  1  0  0  0  0
 25 27  2  0  0  0  0
 25 85  1  0  0  0  0
 26 87  1  0  0  0  0
 27 88  1  0  0  0  0
 28 67  2  0  0  0  0
 29 60  1  0  0  0  0
 29 68  1  0  0  0  0
 30 69  1  0  0  0  0
 30 73  1  0  0  0  0
 31 66  1  0  0  0  0
 31 68  2  0  0  0  0
 31 75  1  0  0  0  0
 32 74  1  0  0  0  0
 32 80  2  0  0  0  0
 33 52  1  0  0  0  0
 33 76  1  0  0  0  0
 33 81  2  0  0  0  0
 34 63  1  0  0  0  0
 34 70  1  0  0  0  0
 34 82  2  0  0  0  0
 35 64  1  0  0  0  0
 35 77  1  0  0  0  0
 35 83  2  0  0  0  0
 36 71  1  0  0  0  0
 36 72  1  0  0  0  0
 36 84  2  0  0  0  0
 37 40  1  0  0  0  0
 38 52  1  0  0  0  0
 39 70  1  0  0  0  0
 40 44  1  0  0  0  0
 41 45  1  0  0  0  0
 41 46  1  0  0  0  0
 42 43  1  0  0  0  0
 42 50  1  0  0  0  0
 43 50  1  0  0  0  0
 44 51  1  0  0  0  0
 45 53  1  0  0  0  0
 46 71  1  0  0  0  0
 47 53  1  0  0  0  0
 47 71  1  0  0  0  0
 48 54  1  0  0  0  0
 48 72  1  0  0  0  0
 49 54  1  0  0  0  0
 49 72  1  0  0  0  0
 51 76  1  0  0  0  0
 52 70  1  0  0  0  0
 53 69  1  0  0  0  0
 54 78  1  0  0  0  0
 55 64  1  0  0  0  0
 56 65  1  0  0  0  0
 57 65  1  0  0  0  0
 58 65  1  0  0  0  0
 59 79  1  0  0  0  0
 60 78  1  0  0  0  0
 61 62  1  0  0  0  0
 61 75  1  0  0  0  0
 62 86  1  0  0  0  0
 63 65  1  0  0  0  0
 63 77  1  0  0  0  0
 64 79  1  0  0  0  0
 67 69  1  0  0  0  0
M  CHG  2  78   1  79   1
M  ISO  4  36 100  62 101  72 100  86 101
M  END
> <Batch ID>
0191

> <Smiles>
CNC(C)C(=O)NC(C(=O)N1Cc2cc([101O:1][101CH2:1]CNc3ncc(C4CC4)c(CNC4C[100N:0]([100C:0](=O)N5CCCC(n6nc(-c7ccc(Oc8ccc(F)cc8F)cc7)c(C(N)=O)c6N)C5)C4)n3)ccc2CC1C(=O)NC1CCCc2ccccc21)C(C)(C)C

> <Shape>
0.240

> <Color>
0.069

> <Negative vol penalty>
0.000

$$$$

  -OEChem-04052323273D

 85 94  0     1  0  0  0  0  0999 V2000
  -27.0001  -19.0338   19.9398 C   0  0  0  0  0  0  0  0  0  0  0  0
  -26.1937  -20.1635   20.0348 C   0  0  0  0  0  0  0  0  0  0  0  0
  -25.4970  -15.7513   20.9155 C   0  0  0  0  0  0  0  0  0  0  0  0
  -26.0555  -15.7663   23.2660 C   0  0  0  0  0  0  0  0  0  0  0  0
  -28.2875  -19.0508   20.4747 C   0  0  0  0  0  0  0  0  0  0  0  0
  -26.6739  -21.3105   20.6658 C   0  0  0  0  0  0  0  0  0  0  0  0
  -25.4395  -27.1215   19.1779 C   0  0  0  0  0  0  0  0  0  0  0  0
  -26.7783  -15.2897   20.6140 C   0  0  0  0  0  0  0  0  0  0  0  0
  -27.3368  -15.3046   22.9645 C   0  0  0  0  0  0  0  0  0  0  0  0
  -24.5371  -28.0505   19.6941 C   0  0  0  0  0  0  0  0  0  0  0  0
  -29.7849  -13.7636   19.2553 C   0  0  0  0  0  0  0  0  0  0  0  0
  -29.8989  -12.7206   18.3362 C   0  0  0  0  0  0  0  0  0  0  0  0
  -26.2844  -28.9678   21.0814 C   0  0  0  0  0  0  0  0  0  0  0  0
  -28.5654  -11.3085   19.7732 C   0  0  0  0  0  0  0  0  0  0  0  0
  -25.1356  -15.9896   22.2415 C   0  0  0  0  0  0  0  0  0  0  0  0
  -22.5899  -15.8285   22.2716 C   0  0  0  0  0  0  0  0  0  0  0  0
  -28.7873  -20.2018   21.1041 C   0  0  0  0  0  0  0  0  0  0  0  0
  -26.7706  -27.1016   19.6183 C   0  0  0  0  0  0  0  0  0  0  0  0
  -27.9688  -21.3424   21.2108 C   0  0  0  0  0  0  0  0  0  0  0  0
  -27.2023  -28.0392   20.5673 C   0  0  0  0  0  0  0  0  0  0  0  0
  -27.6981  -15.0664   21.6384 C   0  0  0  0  0  0  0  0  0  0  0  0
  -24.9588  -28.9720   20.6481 C   0  0  0  0  0  0  0  0  0  0  0  0
  -29.0613  -13.5790   20.4335 C   0  0  0  0  0  0  0  0  0  0  0  0
  -29.2891  -11.4931   18.5951 C   0  0  0  0  0  0  0  0  0  0  0  0
  -28.4515  -12.3515   20.6924 C   0  0  0  0  0  0  0  0  0  0  0  0
  -23.8124  -16.4670   22.5535 C   0  0  0  0  0  0  0  0  0  0  0  0
  -21.6345  -16.6824   22.7661 C   0  0  0  0  0  0  0  0  0  0  0  0
  -22.3402  -14.5755   21.6210 C   0  0  0  0  0  0  0  0  0  0  0  0
  -28.6079  -24.9803   21.1111 C   0  0  0  0  0  0  0  0  0  0  0  0
  -30.9283  -27.1762   20.5487 C   0  0  0  0  0  0  0  0  0  0  0  0
  -31.7495  -30.4318   19.9372 C   0  0  0  0  0  0  0  0  0  0  0  0
  -20.4122  -22.0947   23.2886 C   0  0  0  0  0  0  0  0  0  0  0  0
  -30.1681  -20.1569   21.7089 C   0  0  0  0  0  0  0  0  0  0  0  0
  -27.7382  -26.1104   19.0320 C   0  0  0  0  0  0  0  0  0  0  0  0
  -28.6258  -28.0728   21.0584 C   0  0  0  0  0  0  0  0  0  0  0  0
  -30.7373  -21.5363   22.0307 C   0  0  0  0  0  0  0  0  0  0  0  0
  -21.5930  -20.3331   26.0898 C   0  0  0  0  0  0  0  0  0  0  0  0
  -29.6963  -22.3891   22.7490 C   0  0  0  0  0  0  0  0  0  0  0  0
  -22.1741  -19.0795   25.4366 C   0  0  0  0  0  0  0  0  0  0  0  0
  -21.8979  -21.5951   25.2806 C   0  0  0  0  0  0  0  0  0  0  0  0
  -21.0852  -24.2833   24.3756 C   0  0  0  0  0  0  0  0  0  0  0  0
  -18.8134  -23.9769   23.4631 C   0  0  0  0  0  0  0  0  0  0  0  0
  -22.0707  -20.2568   23.2074 C   0  0  0  0  0  0  0  0  0  0  0  0
  -20.0166  -30.5457   23.6606 C   0  0  0  0  0  0  0  0  0  0  0  0
  -21.2904  -25.5018   23.4813 C   0  0  0  0  0  0  0  0  0  0  0  0
  -18.9923  -25.1711   22.5398 C   0  0  0  0  0  0  0  0  0  0  0  0
  -28.4629  -22.6139   21.8660 C   0  0  1  0  0  0  0  0  0  0  0  0
  -28.9427  -25.8478   19.9308 C   0  0  1  0  0  0  0  0  0  0  0  0
  -21.7299  -18.9657   23.9675 C   0  0  1  0  0  0  0  0  0  0  0  0
  -19.3062  -29.2257   24.0232 C   0  0  1  0  0  0  0  0  0  0  0  0
  -20.4811  -28.5470   23.2740 C   0  0  1  0  0  0  0  0  0  0  0  0
  -33.7296  -31.9266   19.5604 C   0  0  0  0  0  0  0  0  0  0  0  0
  -31.5557  -27.0935   23.5336 C   0  0  0  0  0  0  0  0  0  0  0  0
  -32.8306  -29.2300   23.2539 C   0  0  0  0  0  0  0  0  0  0  0  0
  -33.5652  -27.1742   22.0471 C   0  0  0  0  0  0  0  0  0  0  0  0
  -18.3698  -29.8144   26.2627 C   0  0  0  0  0  0  0  0  0  0  0  0
  -30.8098  -31.1895   17.2350 C   0  0  0  0  0  0  0  0  0  0  0  0
  -20.1125  -27.3936   22.3594 C   0  0  0  0  0  0  0  0  0  0  0  0
  -22.0574  -30.1792   22.4118 C   0  0  0  0  0  0  0  0  0  0  0  0
  -22.7101  -29.4897   21.2236 C   0  0  0  0  0  0  0  0  0  1  0  0
  -31.4709  -28.3727   21.2925 C   0  0  1  0  0  0  0  0  0  0  0  0
  -32.6645  -31.0627   18.9032 C   0  0  2  0  0  0  0  0  0  0  0  0
  -32.3282  -27.9660   22.5242 C   0  0  0  0  0  0  0  0  0  0  0  0
  -23.6513  -17.6364   23.1785 N   0  0  0  0  0  0  0  0  0  0  0  0
  -22.3163  -17.7395   23.2932 N   0  0  0  0  0  0  0  0  0  0  0  0
  -29.5325  -27.0794   20.4596 N   0  0  0  0  0  0  0  0  0  0  0  0
  -21.4946  -21.4244   23.8779 N   0  0  0  0  0  0  0  0  0  0  0  0
  -20.0987  -23.3653   23.7936 N   0  0  0  0  0  0  0  0  0  0  0  0
  -20.6463  -29.8252   22.5241 N   0  0  2  0  0  0  0  0  0  0  0  0
  -20.2861  -16.6247   22.7969 N   0  0  0  0  0  0  0  0  0  0  0  0
  -22.2732  -13.4166   22.4064 N   0  0  0  0  0  0  0  0  0  0  0  0
  -28.7339  -23.6260   20.8676 N   0  0  0  0  0  0  0  0  0  0  0  0
  -32.1850  -29.1768   20.3067 N   0  0  0  0  0  0  0  0  0  0  0  0
  -19.9573  -26.1427   23.1783 N   0  3  0  0  0  0  0  0  0  0  0  0
  -19.2847  -28.9434   25.4622 N   0  3  0  0  0  0  0  0  0  0  0  0
  -31.8784  -31.9161   17.9679 N   0  3  0  0  0  0  0  0  0  0  0  0
  -22.1976  -14.4839   20.3781 O   0  0  0  0  0  0  0  0  0  0  0  0
  -28.2625  -25.5013   22.1651 O   0  0  0  0  0  0  0  0  0  0  0  0
  -31.7142  -26.3615   20.0586 O   0  0  0  0  0  0  0  0  0  0  0  0
  -30.7505  -30.9974   20.3762 O   0  0  0  0  0  0  0  0  0  0  0  0
  -19.7640  -21.5876   22.3644 O   0  0  0  0  0  0  0  0  0  0  0  0
  -28.9484  -14.6157   21.3446 O   0  0  0  0  0  0  0  0  0  0  0  0
  -24.0736  -29.8859   21.1577 O   0  0  0  0  0  0  0  0  0  1  0  0
  -29.3974  -10.4921   17.7117 F   0  0  0  0  0  0  0  0  0  0  0  0
  -27.7540  -12.1686   21.8219 F   0  0  0  0  0  0  0  0  0  0  0  0
  1  2  1  0  0  0  0
  1  5  2  0  0  0  0
  2  6  2  0  0  0  0
  3  8  2  0  0  0  0
  3 15  1  0  0  0  0
  4  9  1  0  0  0  0
  4 15  2  0  0  0  0
  5 17  1  0  0  0  0
  6 19  1  0  0  0  0
  7 10  2  0  0  0  0
  7 18  1  0  0  0  0
  8 21  1  0  0  0  0
  9 21  2  0  0  0  0
 10 22  1  0  0  0  0
 11 12  2  0  0  0  0
 11 23  1  0  0  0  0
 12 24  1  0  0  0  0
 13 20  1  0  0  0  0
 13 22  2  0  0  0  0
 14 24  2  0  0  0  0
 14 25  1  0  0  0  0
 15 26  1  0  0  0  0
 16 26  1  0  0  0  0
 16 27  2  0  0  0  0
 16 28  1  0  0  0  0
 17 19  2  0  0  0  0
 17 33  1  0  0  0  0
 18 20  2  0  0  0  0
 18 34  1  0  0  0  0
 19 47  1  0  0  0  0
 20 35  1  0  0  0  0
 21 82  1  0  0  0  0
 22 83  1  0  0  0  0
 23 25  2  0  0  0  0
 23 82  1  0  0  0  0
 24 84  1  0  0  0  0
 25 85  1  0  0  0  0
 26 64  2  0  0  0  0
 27 65  1  0  0  0  0
 27 70  1  0  0  0  0
 28 71  1  0  0  0  0
 28 77  2  0  0  0  0
 29 48  1  0  0  0  0
 29 72  1  0  0  0  0
 29 78  2  0  0  0  0
 30 61  1  0  0  0  0
 30 66  1  0  0  0  0
 30 79  2  0  0  0  0
 31 62  1  0  0  0  0
 31 73  1  0  0  0  0
 31 80  2  0  0  0  0
 32 67  1  0  0  0  0
 32 68  1  0  0  0  0
 32 81  2  0  0  0  0
 33 36  1  0  0  0  0
 34 48  1  0  0  0  0
 35 66  1  0  0  0  0
 36 38  1  0  0  0  0
 37 39  1  0  0  0  0
 37 40  1  0  0  0  0
 38 47  1  0  0  0  0
 39 49  1  0  0  0  0
 40 67  1  0  0  0  0
 41 45  1  0  0  0  0
 41 68  1  0  0  0  0
 42 46  1  0  0  0  0
 42 68  1  0  0  0  0
 43 49  1  0  0  0  0
 43 67  1  0  0  0  0
 44 50  1  0  0  0  0
 44 69  1  0  0  0  0
 45 74  1  0  0  0  0
 46 74  1  0  0  0  0
 47 72  1  0  0  0  0
 48 66  1  0  0  0  0
 49 65  1  0  0  0  0
 50 51  1  0  0  0  0
 50 75  1  0  0  0  0
 51 58  1  0  0  0  0
 51 69  1  0  0  0  0
 52 62  1  0  0  0  0
 53 63  1  0  0  0  0
 54 63  1  0  0  0  0
 55 63  1  0  0  0  0
 56 75  1  0  0  0  0
 57 76  1  0  0  0  0
 58 74  1  0  0  0  0
 59 60  1  0  0  0  0
 59 69  1  0  0  0  0
 60 83  1  0  0  0  0
 61 63  1  0  0  0  0
 61 73  1  0  0  0  0
 62 76  1  0  0  0  0
 64 65  1  0  0  0  0
M  CHG  3  74   1  75   1  76   1
M  ISO  4  32 100  60 101  68 100  83 101
M  END
> <Batch ID>
0191

> <Smiles>
CNC(C)C(=O)NC(C(=O)N1Cc2cc([101O:1][101CH2:1]CN3CC(NC)C3CN3CC[100N:0]([100C:0](=O)N4CCCC(n5nc(-c6ccc(Oc7ccc(F)cc7F)cc6)c(C(N)=O)c5N)C4)CC3)ccc2CC1C(=O)NC1CCCc2ccccc21)C(C)(C)C

> <Shape>
0.234

> <Color>
0.061

> <Negative vol penalty>
0.000

$$$$

  -OEChem-04052323273D

 86 95  0     1  0  0  0  0  0999 V2000
  -31.2564  -25.9593   17.2330 C   0  0  0  0  0  0  0  0  0  0  0  0
  -29.8951  -25.7121   17.3785 C   0  0  0  0  0  0  0  0  0  0  0  0
  -25.4287  -14.0421   20.1391 C   0  0  0  0  0  0  0  0  0  0  0  0
  -23.4190  -15.1451   19.3765 C   0  0  0  0  0  0  0  0  0  0  0  0
  -31.9616  -26.5939   18.2546 C   0  0  0  0  0  0  0  0  0  0  0  0
  -29.2384  -26.0986   18.5464 C   0  0  0  0  0  0  0  0  0  0  0  0
  -23.4755  -28.1124   19.0353 C   0  0  0  0  0  0  0  0  0  0  0  0
  -24.6547  -13.1018   20.8190 C   0  0  0  0  0  0  0  0  0  0  0  0
  -22.6450  -14.2048   20.0564 C   0  0  0  0  0  0  0  0  0  0  0  0
  -22.2879  -27.4783   19.3976 C   0  0  0  0  0  0  0  0  0  0  0  0
  -22.8778  -10.3253   20.0665 C   0  0  0  0  0  0  0  0  0  0  0  0
  -23.2347   -8.9824   19.9454 C   0  0  0  0  0  0  0  0  0  0  0  0
  -20.8105  -23.0686   17.2222 C   0  0  0  0  0  0  0  0  0  0  0  0
  -22.5634  -28.2682   21.6602 C   0  0  0  0  0  0  0  0  0  0  0  0
  -23.5610   -8.8536   22.3358 C   0  0  0  0  0  0  0  0  0  0  0  0
  -21.8947  -23.5325   16.5054 C   0  0  0  0  0  0  0  0  0  0  0  0
  -24.8109  -15.0638   19.4179 C   0  0  0  0  0  0  0  0  0  0  0  0
  -26.0708  -15.9579   17.3879 C   0  0  0  0  0  0  0  0  0  0  0  0
  -31.3113  -26.9970   19.4316 C   0  0  0  0  0  0  0  0  0  0  0  0
  -24.2229  -28.8212   19.9868 C   0  0  0  0  0  0  0  0  0  0  0  0
  -29.9359  -26.7380   19.5853 C   0  0  0  0  0  0  0  0  0  0  0  0
  -23.7589  -28.9126   21.3069 C   0  0  0  0  0  0  0  0  0  0  0  0
  -23.2628  -13.1831   20.7777 C   0  0  0  0  0  0  0  0  0  0  0  0
  -21.8332  -27.5537   20.7109 C   0  0  0  0  0  0  0  0  0  0  0  0
  -22.8625  -10.9325   21.3222 C   0  0  0  0  0  0  0  0  0  0  0  0
  -23.5763   -8.2465   21.0801 C   0  0  0  0  0  0  0  0  0  0  0  0
  -23.2041  -10.1966   22.4569 C   0  0  0  0  0  0  0  0  0  0  0  0
  -25.6100  -16.0358   18.7158 C   0  0  0  0  0  0  0  0  0  0  0  0
  -21.0350  -22.8424   18.5648 C   0  0  0  0  0  0  0  0  0  0  0  0
  -26.7785  -17.1201   17.2013 C   0  0  0  0  0  0  0  0  0  0  0  0
  -23.2008  -23.5031   18.3656 C   0  0  0  0  0  0  0  0  0  0  0  0
  -25.8766  -14.9271   16.4104 C   0  0  0  0  0  0  0  0  0  0  0  0
  -27.1474  -28.5450   21.2013 C   0  0  0  0  0  0  0  0  0  0  0  0
  -26.3862  -31.3435   22.6544 C   0  0  0  0  0  0  0  0  0  0  0  0
  -23.9536  -33.4479   23.7949 C   0  0  0  0  0  0  0  0  0  0  0  0
  -26.5264  -22.5090   19.7989 C   0  0  0  0  0  0  0  0  0  0  0  0
  -32.1253  -27.6373   20.5280 C   0  0  0  0  0  0  0  0  0  0  0  0
  -25.4881  -29.5221   19.5740 C   0  0  0  0  0  0  0  0  0  0  0  0
  -24.5137  -29.6782   22.3616 C   0  0  0  0  0  0  0  0  0  0  0  0
  -31.2780  -28.3513   21.5780 C   0  0  0  0  0  0  0  0  0  0  0  0
  -29.3576  -20.3595   19.5984 C   0  0  0  0  0  0  0  0  0  0  0  0
  -30.1096  -27.4709   22.0098 C   0  0  0  0  0  0  0  0  0  0  0  0
  -28.7598  -19.0006   19.2297 C   0  0  0  0  0  0  0  0  0  0  0  0
  -19.0108  -20.8073   20.2233 C   0  0  0  0  0  0  0  0  0  0  0  0
  -28.4485  -21.1372   20.5474 C   0  0  0  0  0  0  0  0  0  0  0  0
  -18.8776  -21.5637   18.8982 C   0  0  0  0  0  0  0  0  0  0  0  0
  -26.4620  -19.9430   19.7098 C   0  0  0  0  0  0  0  0  0  0  0  0
  -29.1832  -27.1644   20.8269 C   0  0  1  0  0  0  0  0  0  0  0  0
  -26.4339  -29.7850   20.7418 C   0  0  1  0  0  0  0  0  0  0  0  0
  -27.3167  -19.1452   18.7102 C   0  0  2  0  0  0  0  0  0  0  0  0
  -19.9400  -21.9447   20.6830 C   0  0  2  0  0  0  0  0  0  0  0  0
  -23.6398  -35.6423   24.9712 C   0  0  0  0  0  0  0  0  0  0  0  0
  -27.1400  -30.0290   25.3027 C   0  0  0  0  0  0  0  0  0  0  0  0
  -25.9325  -31.8770   26.4838 C   0  0  0  0  0  0  0  0  0  0  0  0
  -27.9112  -32.3951   25.0558 C   0  0  0  0  0  0  0  0  0  0  0  0
  -22.5002  -34.6067   21.4920 C   0  0  0  0  0  0  0  0  0  0  0  0
  -24.5281  -23.7453   19.0005 C   0  0  0  0  0  0  0  0  0  0  0  0
  -19.3283  -22.9578   21.6257 C   0  0  0  0  0  0  0  0  0  0  0  0
  -19.6269  -25.2887   22.4723 C   0  0  0  0  0  0  0  0  0  0  0  0
  -20.5734  -26.4714   22.4131 C   0  0  0  0  0  0  0  0  0  1  0  0
  -25.7329  -31.7270   23.9601 C   0  0  1  0  0  0  0  0  0  0  0  0
  -23.7547  -34.9433   23.6254 C   0  0  2  0  0  0  0  0  0  0  0  0
  -26.6657  -31.4909   25.1814 C   0  0  0  0  0  0  0  0  0  0  0  0
  -23.1089  -23.7617   17.0472 N   0  0  0  0  0  0  0  0  0  0  0  0
  -25.9928  -17.1586   19.3294 N   0  0  0  0  0  0  0  0  0  0  0  0
  -22.2221  -23.0496   19.1717 N   0  0  0  0  0  0  0  0  0  0  0  0
  -26.7018  -17.7970   18.3829 N   0  0  0  0  0  0  0  0  0  0  0  0
  -19.9676  -22.3760   19.3214 N   0  0  1  0  0  0  0  0  0  0  0  0
  -25.7484  -30.3410   21.9101 N   0  0  0  0  0  0  0  0  0  0  0  0
  -27.0954  -21.2399   19.9954 N   0  0  0  0  0  0  0  0  0  0  0  0
  -27.4528  -17.6189   16.1435 N   0  0  0  0  0  0  0  0  0  0  0  0
  -25.1234  -13.8005   16.7681 N   0  0  0  0  0  0  0  0  0  0  0  0
  -28.3362  -28.3023   20.5401 N   0  0  0  0  0  0  0  0  0  0  0  0
  -25.2900  -33.1084   23.8048 N   0  0  0  0  0  0  0  0  0  0  0  0
  -25.2433  -22.5169   19.2658 N   0  0  0  0  0  0  0  0  0  0  0  0
  -22.5134  -35.2158   22.8469 N   0  3  0  0  0  0  0  0  0  0  0  0
  -20.1600  -24.1916   21.6258 N   0  3  0  0  0  0  0  0  0  0  0  0
  -26.3704  -14.9953   15.2593 O   0  0  0  0  0  0  0  0  0  0  0  0
  -26.6564  -27.8601   22.0910 O   0  0  0  0  0  0  0  0  0  0  0  0
  -27.4204  -31.9175   22.3041 O   0  0  0  0  0  0  0  0  0  0  0  0
  -23.0173  -32.6603   23.9109 O   0  0  0  0  0  0  0  0  0  0  0  0
  -27.1201  -23.5575   20.0729 O   0  0  0  0  0  0  0  0  0  0  0  0
  -22.5072  -12.2656   21.4408 O   0  0  0  0  0  0  0  0  0  0  0  0
  -20.6746  -26.9352   21.0673 O   0  0  0  0  0  0  0  0  0  1  0  0
  -23.9175   -6.9564   20.9638 F   0  0  0  0  0  0  0  0  0  0  0  0
  -23.1901  -10.7741   23.6660 F   0  0  0  0  0  0  0  0  0  0  0  0
  1  2  1  0  0  0  0
  1  5  2  0  0  0  0
  2  6  2  0  0  0  0
  3  8  2  0  0  0  0
  3 17  1  0  0  0  0
  4  9  1  0  0  0  0
  4 17  2  0  0  0  0
  5 19  1  0  0  0  0
  6 21  1  0  0  0  0
  7 10  2  0  0  0  0
  7 20  1  0  0  0  0
  8 23  1  0  0  0  0
  9 23  2  0  0  0  0
 10 24  1  0  0  0  0
 11 12  2  0  0  0  0
 11 25  1  0  0  0  0
 12 26  1  0  0  0  0
 13 16  2  0  0  0  0
 13 29  1  0  0  0  0
 14 22  1  0  0  0  0
 14 24  2  0  0  0  0
 15 26  2  0  0  0  0
 15 27  1  0  0  0  0
 16 64  1  0  0  0  0
 17 28  1  0  0  0  0
 18 28  1  0  0  0  0
 18 30  2  0  0  0  0
 18 32  1  0  0  0  0
 19 21  2  0  0  0  0
 19 37  1  0  0  0  0
 20 22  2  0  0  0  0
 20 38  1  0  0  0  0
 21 48  1  0  0  0  0
 22 39  1  0  0  0  0
 23 83  1  0  0  0  0
 24 84  1  0  0  0  0
 25 27  2  0  0  0  0
 25 83  1  0  0  0  0
 26 85  1  0  0  0  0
 27 86  1  0  0  0  0
 28 65  2  0  0  0  0
 29 66  2  0  0  0  0
 29 68  1  0  0  0  0
 30 67  1  0  0  0  0
 30 71  1  0  0  0  0
 31 57  1  0  0  0  0
 31 64  2  0  0  0  0
 31 66  1  0  0  0  0
 32 72  1  0  0  0  0
 32 78  2  0  0  0  0
 33 49  1  0  0  0  0
 33 73  1  0  0  0  0
 33 79  2  0  0  0  0
 34 61  1  0  0  0  0
 34 69  1  0  0  0  0
 34 80  2  0  0  0  0
 35 62  1  0  0  0  0
 35 74  1  0  0  0  0
 35 81  2  0  0  0  0
 36 70  1  0  0  0  0
 36 75  1  0  0  0  0
 36 82  2  0  0  0  0
 37 40  1  0  0  0  0
 38 49  1  0  0  0  0
 39 69  1  0  0  0  0
 40 42  1  0  0  0  0
 41 43  1  0  0  0  0
 41 45  1  0  0  0  0
 42 48  1  0  0  0  0
 43 50  1  0  0  0  0
 44 46  1  0  0  0  0
 44 51  1  0  0  0  0
 45 70  1  0  0  0  0
 46 68  1  0  0  0  0
 47 50  1  0  0  0  0
 47 70  1  0  0  0  0
 48 73  1  0  0  0  0
 49 69  1  0  0  0  0
 50 67  1  0  0  0  0
 51 58  1  0  0  0  0
 51 68  1  0  0  0  0
 52 62  1  0  0  0  0
 53 63  1  0  0  0  0
 54 63  1  0  0  0  0
 55 63  1  0  0  0  0
 56 76  1  0  0  0  0
 57 75  1  0  0  0  0
 58 77  1  0  0  0  0
 59 60  1  0  0  0  0
 59 77  1  0  0  0  0
 60 84  1  0  0  0  0
 61 63  1  0  0  0  0
 61 74  1  0  0  0  0
 62 76  1  0  0  0  0
 65 67  1  0  0  0  0
M  CHG  2  76   1  77   1
M  ISO  4  36 100  60 101  75 100  84 101
M  END
> <Batch ID>
0191

> <Smiles>
CNC(C)C(=O)NC(C(=O)N1Cc2cc([101O:1][101CH2:1]CNCC3CCN3c3ccnc(C[100NH:0][100C:0](=O)N4CCCC(n5nc(-c6ccc(Oc7ccc(F)cc7F)cc6)c(C(N)=O)c5N)C4)n3)ccc2CC1C(=O)NC1CCCc2ccccc21)C(C)(C)C

> <Shape>
0.276

> <Color>
0.062

> <Negative vol penalty>
0.000

$$$$

  -OEChem-04052323273D

 83 92  0     1  0  0  0  0  0999 V2000
  -28.0785  -36.1039   23.4641 C   0  0  0  0  0  0  0  0  0  0  0  0
  -28.4993  -34.8281   23.1023 C   0  0  0  0  0  0  0  0  0  0  0  0
  -23.1790   -9.9160   21.4108 C   0  0  0  0  0  0  0  0  0  0  0  0
  -23.8891  -10.8672   23.5150 C   0  0  0  0  0  0  0  0  0  0  0  0
  -26.8337  -36.2814   24.0663 C   0  0  0  0  0  0  0  0  0  0  0  0
  -27.6759  -33.7290   23.3436 C   0  0  0  0  0  0  0  0  0  0  0  0
  -27.1182  -28.7142   19.8729 C   0  0  0  0  0  0  0  0  0  0  0  0
  -22.4622   -8.9351   22.0960 C   0  0  0  0  0  0  0  0  0  0  0  0
  -23.1723   -9.8863   24.2003 C   0  0  0  0  0  0  0  0  0  0  0  0
  -27.6805  -27.4418   19.9659 C   0  0  0  0  0  0  0  0  0  0  0  0
  -19.5068   -8.6870   23.7199 C   0  0  0  0  0  0  0  0  0  0  0  0
  -18.2124   -8.4058   23.2829 C   0  0  0  0  0  0  0  0  0  0  0  0
  -25.7010  -26.6565   21.0990 C   0  0  0  0  0  0  0  0  0  0  0  0
  -18.8540   -6.1160   22.8562 C   0  0  0  0  0  0  0  0  0  0  0  0
  -28.4899  -22.5438   19.7354 C   0  0  0  0  0  0  0  0  0  0  0  0
  -30.6946  -22.0190   21.1465 C   0  0  0  0  0  0  0  0  0  0  0  0
  -23.8925  -10.8821   22.1202 C   0  0  0  0  0  0  0  0  0  0  0  0
  -24.1666  -13.1575   21.0001 C   0  0  0  0  0  0  0  0  0  0  0  0
  -25.9905  -35.1851   24.3064 C   0  0  0  0  0  0  0  0  0  0  0  0
  -25.8455  -28.9704   20.4028 C   0  0  0  0  0  0  0  0  0  0  0  0
  -26.4191  -33.8919   23.9509 C   0  0  0  0  0  0  0  0  0  0  0  0
  -25.1237  -27.9323   21.0091 C   0  0  0  0  0  0  0  0  0  0  0  0
  -22.4588   -8.9203   23.4908 C   0  0  0  0  0  0  0  0  0  0  0  0
  -26.9731  -26.4134   20.5816 C   0  0  0  0  0  0  0  0  0  0  0  0
  -20.4749   -7.6828   23.7250 C   0  0  0  0  0  0  0  0  0  0  0  0
  -17.8860   -7.1203   22.8511 C   0  0  0  0  0  0  0  0  0  0  0  0
  -20.1485   -6.3972   23.2931 C   0  0  0  0  0  0  0  0  0  0  0  0
  -24.6336  -11.8953   21.4129 C   0  0  0  0  0  0  0  0  0  0  0  0
  -29.2351  -23.5591   20.2936 C   0  0  0  0  0  0  0  0  0  0  0  0
  -29.9491  -21.0037   20.5890 C   0  0  0  0  0  0  0  0  0  0  0  0
  -25.2451  -13.7353   20.3759 C   0  0  0  0  0  0  0  0  0  0  0  0
  -22.8736  -13.7545   21.1661 C   0  0  0  0  0  0  0  0  0  0  0  0
  -24.7040  -30.8783   22.6745 C   0  0  0  0  0  0  0  0  0  0  0  0
  -21.8401  -29.8042   21.5943 C   0  0  0  0  0  0  0  0  0  0  0  0
  -20.0817  -27.3628   19.9835 C   0  0  0  0  0  0  0  0  0  0  0  0
  -30.6931  -14.9303   20.1861 C   0  0  0  0  0  0  0  0  0  0  0  0
  -24.6737  -35.4209   25.0029 C   0  0  0  0  0  0  0  0  0  0  0  0
  -25.2419  -30.3417   20.2706 C   0  0  0  0  0  0  0  0  0  0  0  0
  -23.7455  -28.1505   21.5759 C   0  0  0  0  0  0  0  0  0  0  0  0
  -23.7028  -34.2490   24.8830 C   0  0  0  0  0  0  0  0  0  0  0  0
  -29.6735  -11.7520   18.9470 C   0  0  0  0  0  0  0  0  0  0  0  0
  -24.4150  -32.9331   25.1797 C   0  0  0  0  0  0  0  0  0  0  0  0
  -28.2358  -11.6076   19.4492 C   0  0  0  0  0  0  0  0  0  0  0  0
  -31.4353  -17.8180   21.7056 C   0  0  0  0  0  0  0  0  0  0  0  0
  -30.5582  -12.4666   19.9661 C   0  0  0  0  0  0  0  0  0  0  0  0
  -31.5624  -19.3316   21.5348 C   0  0  0  0  0  0  0  0  0  0  0  0
  -28.6077  -13.6269   20.9267 C   0  0  0  0  0  0  0  0  0  0  0  0
  -29.6637  -18.5307   20.2653 C   0  0  0  0  0  0  0  0  0  0  0  0
  -25.5438  -32.6777   24.1737 C   0  0  1  0  0  0  0  0  0  0  0  0
  -24.1518  -30.6167   21.3018 C   0  0  1  0  0  0  0  0  0  0  0  0
  -27.6642  -12.9620   19.9099 C   0  0  2  0  0  0  0  0  0  0  0  0
  -30.6728  -17.3972   20.4568 C   0  0  2  0  0  0  0  0  0  0  0  0
  -17.7507  -26.7476   19.2870 C   0  0  0  0  0  0  0  0  0  0  0  0
  -21.1898  -29.0215   24.4708 C   0  0  0  0  0  0  0  0  0  0  0  0
  -19.3320  -27.5937   23.5888 C   0  0  0  0  0  0  0  0  0  0  0  0
  -19.2911  -30.0602   23.2176 C   0  0  0  0  0  0  0  0  0  0  0  0
  -20.8161  -27.3543   17.1165 C   0  0  0  0  0  0  0  0  0  0  0  0
  -28.8221  -24.9910   20.1194 C   0  0  0  0  0  0  0  0  0  1  0  0
  -20.9393  -28.6401   21.9296 C   0  0  1  0  0  0  0  0  0  0  0  0
  -19.0454  -27.4317   18.8764 C   0  0  2  0  0  0  0  0  0  0  0  0
  -20.2148  -28.8249   23.2929 C   0  0  0  0  0  0  0  0  0  0  0  0
  -30.3510  -23.3149   21.0088 N   0  0  0  0  0  0  0  0  0  0  0  0
  -28.8334  -21.2479   19.8734 N   0  0  0  0  0  0  0  0  0  0  0  0
  -25.9093  -11.6829   21.0789 N   0  0  0  0  0  0  0  0  0  0  0  0
  -26.2531  -12.8195   20.4496 N   0  0  0  0  0  0  0  0  0  0  0  0
  -30.3694  -19.7042   20.7772 N   0  0  3  0  0  0  0  0  0  0  0  0
  -23.2009  -29.5103   21.4278 N   0  0  0  0  0  0  0  0  0  0  0  0
  -29.9605  -13.7446   20.3603 N   0  0  0  0  0  0  0  0  0  0  0  0
  -25.4199  -14.9322   19.7766 N   0  0  0  0  0  0  0  0  0  0  0  0
  -21.8803  -13.0228   21.8312 N   0  0  0  0  0  0  0  0  0  0  0  0
  -25.0034  -32.2053   22.9170 N   0  0  0  0  0  0  0  0  0  0  0  0
  -20.0401  -28.4789   20.7921 N   0  0  0  0  0  0  0  0  0  0  0  0
  -30.0505  -16.0977   20.5796 N   0  0  0  0  0  0  0  0  0  0  0  0
  -19.5580  -26.7671   17.6449 N   0  3  0  0  0  0  0  0  0  0  0  0
  -22.6021  -14.8961   20.7228 O   0  0  0  0  0  0  0  0  0  0  0  0
  -24.8464  -29.9454   23.4563 O   0  0  0  0  0  0  0  0  0  0  0  0
  -21.3532  -30.9315   21.4771 O   0  0  0  0  0  0  0  0  0  0  0  0
  -20.8488  -26.4123   20.1197 O   0  0  0  0  0  0  0  0  0  0  0  0
  -31.8332  -14.9478   19.7098 O   0  0  0  0  0  0  0  0  0  0  0  0
  -21.7593   -7.9634   24.1599 O   0  0  0  0  0  0  0  0  0  0  0  0
  -27.5198  -25.1707   20.6744 O   0  0  0  0  0  0  0  0  0  1  0  0
  -16.6425   -6.8500   22.4329 F   0  0  0  0  0  0  0  0  0  0  0  0
  -21.0739   -5.4280   23.2968 F   0  0  0  0  0  0  0  0  0  0  0  0
  1  2  1  0  0  0  0
  1  5  2  0  0  0  0
  2  6  2  0  0  0  0
  3  8  2  0  0  0  0
  3 17  1  0  0  0  0
  4  9  1  0  0  0  0
  4 17  2  0  0  0  0
  5 19  1  0  0  0  0
  6 21  1  0  0  0  0
  7 10  2  0  0  0  0
  7 20  1  0  0  0  0
  8 23  1  0  0  0  0
  9 23  2  0  0  0  0
 10 24  1  0  0  0  0
 11 12  2  0  0  0  0
 11 25  1  0  0  0  0
 12 26  1  0  0  0  0
 13 22  1  0  0  0  0
 13 24  2  0  0  0  0
 14 26  2  0  0  0  0
 14 27  1  0  0  0  0
 15 29  1  0  0  0  0
 15 63  2  0  0  0  0
 16 30  2  0  0  0  0
 16 62  1  0  0  0  0
 17 28  1  0  0  0  0
 18 28  1  0  0  0  0
 18 31  2  0  0  0  0
 18 32  1  0  0  0  0
 19 21  2  0  0  0  0
 19 37  1  0  0  0  0
 20 22  2  0  0  0  0
 20 38  1  0  0  0  0
 21 49  1  0  0  0  0
 22 39  1  0  0  0  0
 23 80  1  0  0  0  0
 24 81  1  0  0  0  0
 25 27  2  0  0  0  0
 25 80  1  0  0  0  0
 26 82  1  0  0  0  0
 27 83  1  0  0  0  0
 28 64  2  0  0  0  0
 29 58  1  0  0  0  0
 29 62  2  0  0  0  0
 30 63  1  0  0  0  0
 30 66  1  0  0  0  0
 31 65  1  0  0  0  0
 31 69  1  0  0  0  0
 32 70  1  0  0  0  0
 32 75  2  0  0  0  0
 33 50  1  0  0  0  0
 33 71  1  0  0  0  0
 33 76  2  0  0  0  0
 34 59  1  0  0  0  0
 34 67  1  0  0  0  0
 34 77  2  0  0  0  0
 35 60  1  0  0  0  0
 35 72  1  0  0  0  0
 35 78  2  0  0  0  0
 36 68  1  0  0  0  0
 36 73  1  0  0  0  0
 36 79  2  0  0  0  0
 37 40  1  0  0  0  0
 38 50  1  0  0  0  0
 39 67  1  0  0  0  0
 40 42  1  0  0  0  0
 41 43  1  0  0  0  0
 41 45  1  0  0  0  0
 42 49  1  0  0  0  0
 43 51  1  0  0  0  0
 44 46  1  0  0  0  0
 44 52  1  0  0  0  0
 45 68  1  0  0  0  0
 46 66  1  0  0  0  0
 47 51  1  0  0  0  0
 47 68  1  0  0  0  0
 48 52  1  0  0  0  0
 48 66  1  0  0  0  0
 49 71  1  0  0  0  0
 50 67  1  0  0  0  0
 51 65  1  0  0  0  0
 52 73  1  0  0  0  0
 53 60  1  0  0  0  0
 54 61  1  0  0  0  0
 55 61  1  0  0  0  0
 56 61  1  0  0  0  0
 57 74  1  0  0  0  0
 58 81  1  0  0  0  0
 59 61  1  0  0  0  0
 59 72  1  0  0  0  0
 60 74  1  0  0  0  0
 64 65  1  0  0  0  0
M  CHG  1  74   1
M  ISO  4  36 100  58 101  73 100  81 101
M  END
> <Batch ID>
0191

> <Smiles>
CNC(C)C(=O)NC(C(=O)N1Cc2cc([101O:1][101CH2:1]c3cnc(N4CCC([100NH:0][100C:0](=O)N5CCCC(n6nc(-c7ccc(Oc8ccc(F)cc8F)cc7)c(C(N)=O)c6N)C5)C4)cn3)ccc2CC1C(=O)NC1CCCc2ccccc21)C(C)(C)C

> <Shape>
0.364

> <Color>
0.164

> <Negative vol penalty>
0.000

$$$$

  -OEChem-04052323273D

 86 95  0     1  0  0  0  0  0999 V2000
  -18.2165  -30.7985   18.6289 C   0  0  0  0  0  0  0  0  0  0  0  0
  -18.8811  -29.7467   18.0066 C   0  0  0  0  0  0  0  0  0  0  0  0
  -23.2352   -9.7805   19.9734 C   0  0  0  0  0  0  0  0  0  0  0  0
  -23.8950   -9.9668   22.2901 C   0  0  0  0  0  0  0  0  0  0  0  0
  -18.9278  -31.7021   19.4171 C   0  0  0  0  0  0  0  0  0  0  0  0
  -20.2578  -29.5985   18.1712 C   0  0  0  0  0  0  0  0  0  0  0  0
  -25.3185  -24.5458   18.5916 C   0  0  0  0  0  0  0  0  0  0  0  0
  -22.5580   -8.5956   20.2616 C   0  0  0  0  0  0  0  0  0  0  0  0
  -23.2178   -8.7819   22.5783 C   0  0  0  0  0  0  0  0  0  0  0  0
  -26.5432  -24.1982   18.0233 C   0  0  0  0  0  0  0  0  0  0  0  0
  -20.0258   -7.8031   23.1013 C   0  0  0  0  0  0  0  0  0  0  0  0
  -19.2241   -7.7777   24.2424 C   0  0  0  0  0  0  0  0  0  0  0  0
  -27.6558  -25.7737   19.4722 C   0  0  0  0  0  0  0  0  0  0  0  0
  -20.5566   -5.9725   25.1385 C   0  0  0  0  0  0  0  0  0  0  0  0
  -23.9037  -10.4661   20.9877 C   0  0  0  0  0  0  0  0  0  0  0  0
  -24.0852  -12.9979   20.7333 C   0  0  0  0  0  0  0  0  0  0  0  0
  -20.3124  -31.5594   19.5994 C   0  0  0  0  0  0  0  0  0  0  0  0
  -25.2518  -25.5195   19.5985 C   0  0  0  0  0  0  0  0  0  0  0  0
  -20.9886  -30.5019   18.9615 C   0  0  0  0  0  0  0  0  0  0  0  0
  -26.4293  -26.1300   20.0534 C   0  0  0  0  0  0  0  0  0  0  0  0
  -22.5493   -8.0963   21.5640 C   0  0  0  0  0  0  0  0  0  0  0  0
  -27.7118  -24.8142   18.4616 C   0  0  0  0  0  0  0  0  0  0  0  0
  -21.0929   -6.9132   22.9787 C   0  0  0  0  0  0  0  0  0  0  0  0
  -19.4895   -6.8624   25.2610 C   0  0  0  0  0  0  0  0  0  0  0  0
  -21.3583   -5.9979   23.9973 C   0  0  0  0  0  0  0  0  0  0  0  0
  -24.6039  -11.6899   20.6906 C   0  0  0  0  0  0  0  0  0  0  0  0
  -25.1407  -13.7978   20.3693 C   0  0  0  0  0  0  0  0  0  0  0  0
  -22.7672  -13.4495   21.0720 C   0  0  0  0  0  0  0  0  0  0  0  0
  -23.8564  -28.3614   19.8820 C   0  0  0  0  0  0  0  0  0  0  0  0
  -24.9322  -28.1509   22.9349 C   0  0  0  0  0  0  0  0  0  0  0  0
  -27.1779  -26.8143   25.1297 C   0  0  0  0  0  0  0  0  0  0  0  0
  -30.6619  -14.9021   21.1794 C   0  0  0  0  0  0  0  0  0  0  0  0
  -21.0462  -32.5886   20.4222 C   0  0  0  0  0  0  0  0  0  0  0  0
  -23.9261  -25.8640   20.2199 C   0  0  0  0  0  0  0  0  0  0  0  0
  -26.4141  -27.1668   21.1458 C   0  0  0  0  0  0  0  0  0  0  0  0
  -22.4425  -32.1437   20.8498 C   0  0  0  0  0  0  0  0  0  0  0  0
  -29.6511  -12.6445   18.4186 C   0  0  0  0  0  0  0  0  0  0  0  0
  -23.1953  -31.5394   19.6687 C   0  0  0  0  0  0  0  0  0  0  0  0
  -28.2309  -12.2491   18.8188 C   0  0  0  0  0  0  0  0  0  0  0  0
  -31.0451  -17.8303   23.0004 C   0  0  0  0  0  0  0  0  0  0  0  0
  -29.1265  -18.0671   21.3739 C   0  0  0  0  0  0  0  0  0  0  0  0
  -32.8156  -21.6489   19.9711 C   0  0  0  0  0  0  0  0  0  0  0  0
  -30.5084  -12.9841   19.6338 C   0  0  0  0  0  0  0  0  0  0  0  0
  -30.6682  -16.3621   23.1803 C   0  0  0  0  0  0  0  0  0  0  0  0
  -28.8031  -16.5825   21.5666 C   0  0  0  0  0  0  0  0  0  0  0  0
  -28.4940  -13.6342   20.9150 C   0  0  0  0  0  0  0  0  0  0  0  0
  -32.4830  -22.8179   19.0592 C   0  0  0  0  0  0  0  0  0  0  0  0
  -30.4601  -21.6316   19.7537 C   0  0  0  0  0  0  0  0  0  0  0  0
  -22.4773  -30.2934   19.1361 C   0  0  1  0  0  0  0  0  0  0  0  0
  -23.9148  -27.2395   20.8797 C   0  0  1  0  0  0  0  0  0  0  0  0
  -31.5516  -21.4597   20.7969 C   0  0  1  0  0  0  0  0  0  0  0  0
  -27.5924  -13.3288   19.7093 C   0  0  2  0  0  0  0  0  0  0  0  0
  -29.8142  -18.6453   22.6089 C   0  0  0  0  0  0  0  0  0  0  0  0
  -27.8310  -26.8599   27.5523 C   0  0  0  0  0  0  0  0  0  0  0  0
  -26.2484  -30.8732   22.5263 C   0  0  0  0  0  0  0  0  0  0  0  0
  -27.6327  -30.4321   24.5653 C   0  0  0  0  0  0  0  0  0  0  0  0
  -25.1490  -30.5695   24.7520 C   0  0  0  0  0  0  0  0  0  0  0  0
  -26.6342  -23.9229   25.4505 C   0  0  0  0  0  0  0  0  0  0  0  0
  -30.3392  -20.8797   23.5744 C   0  0  0  0  0  0  0  0  0  0  0  0
  -31.4916  -20.1168   21.5030 C   0  0  0  0  0  0  0  0  0  0  0  0
  -30.5040  -22.7240   17.4830 C   0  0  0  0  0  0  0  0  0  0  0  0
  -29.0485  -23.1438   17.4230 C   0  0  0  0  0  0  0  0  0  1  0  0
  -26.1994  -28.5500   23.6518 C   0  0  1  0  0  0  0  0  0  0  0  0
  -26.9934  -26.1656   26.4897 C   0  0  2  0  0  0  0  0  0  0  0  0
  -26.3078  -30.0881   23.8519 C   0  0  0  0  0  0  0  0  0  0  0  0
  -25.8889  -11.6563   20.3278 N   0  0  0  0  0  0  0  0  0  0  0  0
  -26.1865  -12.9532   20.1392 N   0  0  0  0  0  0  0  0  0  0  0  0
  -25.0926  -27.4741   21.7175 N   0  0  0  0  0  0  0  0  0  0  0  0
  -29.8598  -13.9773   20.4901 N   0  0  0  0  0  0  0  0  0  0  0  0
  -29.9996  -15.8386   21.9875 N   0  0  0  0  0  0  0  0  0  0  0  0
  -25.2669  -15.1343   20.2266 N   0  0  0  0  0  0  0  0  0  0  0  0
  -21.8032  -12.4944   21.4225 N   0  0  0  0  0  0  0  0  0  0  0  0
  -22.7324  -29.1571   19.9953 N   0  0  0  0  0  0  0  0  0  0  0  0
  -26.2255  -27.7827   24.8924 N   0  0  0  0  0  0  0  0  0  0  0  0
  -30.9737  -22.7733   18.9013 N   0  3  2  0  0  0  0  0  0  0  0  0
  -27.3946  -24.7312   26.4381 N   0  3  0  0  0  0  0  0  0  0  0  0
  -30.2285  -20.0435   22.3241 N   0  3  1  0  0  0  0  0  0  0  0  0
  -22.4491  -14.6626   21.0480 O   0  0  0  0  0  0  0  0  0  0  0  0
  -24.7645  -28.4960   19.0703 O   0  0  0  0  0  0  0  0  0  0  0  0
  -23.8402  -28.4231   23.4401 O   0  0  0  0  0  0  0  0  0  0  0  0
  -28.0792  -26.4965   24.3569 O   0  0  0  0  0  0  0  0  0  0  0  0
  -31.8950  -14.8917   21.0762 O   0  0  0  0  0  0  0  0  0  0  0  0
  -21.8884   -6.9402   21.8455 O   0  0  0  0  0  0  0  0  0  0  0  0
  -28.9170  -24.4748   17.9042 O   0  0  0  0  0  0  0  0  0  1  0  0
  -18.7204   -6.8392   26.3575 F   0  0  0  0  0  0  0  0  0  0  0  0
  -22.3828   -5.1413   23.8857 F   0  0  0  0  0  0  0  0  0  0  0  0
  1  2  1  0  0  0  0
  1  5  2  0  0  0  0
  2  6  2  0  0  0  0
  3  8  2  0  0  0  0
  3 15  1  0  0  0  0
  4  9  1  0  0  0  0
  4 15  2  0  0  0  0
  5 17  1  0  0  0  0
  6 19  1  0  0  0  0
  7 10  2  0  0  0  0
  7 18  1  0  0  0  0
  8 21  1  0  0  0  0
  9 21  2  0  0  0  0
 10 22  1  0  0  0  0
 11 12  2  0  0  0  0
 11 23  1  0  0  0  0
 12 24  1  0  0  0  0
 13 20  1  0  0  0  0
 13 22  2  0  0  0  0
 14 24  2  0  0  0  0
 14 25  1  0  0  0  0
 15 26  1  0  0  0  0
 16 26  1  0  0  0  0
 16 27  2  0  0  0  0
 16 28  1  0  0  0  0
 17 19  2  0  0  0  0
 17 33  1  0  0  0  0
 18 20  2  0  0  0  0
 18 34  1  0  0  0  0
 19 49  1  0  0  0  0
 20 35  1  0  0  0  0
 21 83  1  0  0  0  0
 22 84  1  0  0  0  0
 23 25  2  0  0  0  0
 23 83  1  0  0  0  0
 24 85  1  0  0  0  0
 25 86  1  0  0  0  0
 26 66  2  0  0  0  0
 27 67  1  0  0  0  0
 27 71  1  0  0  0  0
 28 72  1  0  0  0  0
 28 78  2  0  0  0  0
 29 50  1  0  0  0  0
 29 73  1  0  0  0  0
 29 79  2  0  0  0  0
 30 63  1  0  0  0  0
 30 68  1  0  0  0  0
 30 80  2  0  0  0  0
 31 64  1  0  0  0  0
 31 74  1  0  0  0  0
 31 81  2  0  0  0  0
 32 69  1  0  0  0  0
 32 70  1  0  0  0  0
 32 82  2  0  0  0  0
 33 36  1  0  0  0  0
 34 50  1  0  0  0  0
 35 68  1  0  0  0  0
 36 38  1  0  0  0  0
 37 39  1  0  0  0  0
 37 43  1  0  0  0  0
 38 49  1  0  0  0  0
 39 52  1  0  0  0  0
 40 44  1  0  0  0  0
 40 53  1  0  0  0  0
 41 45  1  0  0  0  0
 41 53  1  0  0  0  0
 42 47  1  0  0  0  0
 42 51  1  0  0  0  0
 43 69  1  0  0  0  0
 44 70  1  0  0  0  0
 45 70  1  0  0  0  0
 46 52  1  0  0  0  0
 46 69  1  0  0  0  0
 47 75  1  0  0  0  0
 48 51  1  0  0  0  0
 48 75  1  0  0  0  0
 49 73  1  0  0  0  0
 50 68  1  0  0  0  0
 51 60  1  0  0  0  0
 52 67  1  0  0  0  0
 53 77  1  0  0  0  0
 54 64  1  0  0  0  0
 55 65  1  0  0  0  0
 56 65  1  0  0  0  0
 57 65  1  0  0  0  0
 58 76  1  0  0  0  0
 59 77  1  0  0  0  0
 60 77  1  0  0  0  0
 61 62  1  0  0  0  0
 61 75  1  0  0  0  0
 62 84  1  0  0  0  0
 63 65  1  0  0  0  0
 63 74  1  0  0  0  0
 64 76  1  0  0  0  0
 66 67  1  0  0  0  0
M  CHG  3  75   1  76   1  77   1
M  ISO  4  32 100  62 101  70 100  84 101
M  END
> <Batch ID>
0191

> <Smiles>
CNC(C)C(=O)NC(C(=O)N1Cc2cc([101O:1][101CH2:1]CN3CCC(CN(C)C4CC[100N:0]([100C:0](=O)N5CCCC(n6nc(-c7ccc(Oc8ccc(F)cc8F)cc7)c(C(N)=O)c6N)C5)CC4)C3)ccc2CC1C(=O)NC1CCCc2ccccc21)C(C)(C)C

> <Shape>
0.289

> <Color>
0.185

> <Negative vol penalty>
0.000

$$$$

  -OEChem-04052323273D

 85 94  0     1  0  0  0  0  0999 V2000
  -29.7224  -35.6728   20.3063 C   0  0  0  0  0  0  0  0  0  0  0  0
  -30.0454  -34.4414   19.7452 C   0  0  0  0  0  0  0  0  0  0  0  0
  -23.2997  -11.1184   23.1659 C   0  0  0  0  0  0  0  0  0  0  0  0
  -23.1358   -9.7558   21.1776 C   0  0  0  0  0  0  0  0  0  0  0  0
  -28.9545  -35.7279   21.4687 C   0  0  0  0  0  0  0  0  0  0  0  0
  -29.6015  -33.2644   20.3468 C   0  0  0  0  0  0  0  0  0  0  0  0
  -27.4871  -26.6162   18.7197 C   0  0  0  0  0  0  0  0  0  0  0  0
  -22.5074  -10.2031   23.8586 C   0  0  0  0  0  0  0  0  0  0  0  0
  -22.3434   -8.8404   21.8703 C   0  0  0  0  0  0  0  0  0  0  0  0
  -27.7543  -25.2891   19.0531 C   0  0  0  0  0  0  0  0  0  0  0  0
  -20.5761   -5.9619   23.2152 C   0  0  0  0  0  0  0  0  0  0  0  0
  -20.8633   -4.6059   23.0591 C   0  0  0  0  0  0  0  0  0  0  0  0
  -26.3673  -25.5090   21.0145 C   0  0  0  0  0  0  0  0  0  0  0  0
  -23.0843   -4.9753   23.9354 C   0  0  0  0  0  0  0  0  0  0  0  0
  -23.6139  -10.8949   21.8254 C   0  0  0  0  0  0  0  0  0  0  0  0
  -25.8351  -11.8362   20.9961 C   0  0  0  0  0  0  0  0  0  0  0  0
  -28.4928  -34.5513   22.0795 C   0  0  0  0  0  0  0  0  0  0  0  0
  -26.6655  -27.4042   19.5384 C   0  0  0  0  0  0  0  0  0  0  0  0
  -28.8278  -33.3038   21.5192 C   0  0  0  0  0  0  0  0  0  0  0  0
  -26.0892  -26.8451   20.6879 C   0  0  0  0  0  0  0  0  0  0  0  0
  -22.0292   -9.0640   23.2108 C   0  0  0  0  0  0  0  0  0  0  0  0
  -27.1967  -24.7361   20.2022 C   0  0  0  0  0  0  0  0  0  0  0  0
  -21.5431   -6.8246   23.7313 C   0  0  0  0  0  0  0  0  0  0  0  0
  -22.1173   -4.1126   23.4192 C   0  0  0  0  0  0  0  0  0  0  0  0
  -22.7971   -6.3313   24.0915 C   0  0  0  0  0  0  0  0  0  0  0  0
  -24.4319  -11.8404   21.1092 C   0  0  0  0  0  0  0  0  0  0  0  0
  -26.1203  -12.9329   20.2199 C   0  0  0  0  0  0  0  0  0  0  0  0
  -26.7950  -10.9226   21.5435 C   0  0  0  0  0  0  0  0  0  0  0  0
  -27.0736  -30.0647   21.2292 C   0  0  0  0  0  0  0  0  0  0  0  0
  -23.8743  -29.7966   21.6933 C   0  0  0  0  0  0  0  0  0  0  0  0
  -21.1198  -27.7843   21.7926 C   0  0  0  0  0  0  0  0  0  0  0  0
  -25.1950  -18.4183   19.2596 C   0  0  0  0  0  0  0  0  0  0  0  0
  -27.7054  -34.6596   23.3613 C   0  0  0  0  0  0  0  0  0  0  0  0
  -26.3655  -28.8262   19.1506 C   0  0  0  0  0  0  0  0  0  0  0  0
  -25.1840  -27.6427   21.5895 C   0  0  0  0  0  0  0  0  0  0  0  0
  -26.9590  -33.3794   23.7276 C   0  0  0  0  0  0  0  0  0  0  0  0
  -23.0920  -15.9584   17.5281 C   0  0  0  0  0  0  0  0  0  0  0  0
  -31.8804  -20.9430   18.6789 C   0  0  0  0  0  0  0  0  0  0  0  0
  -27.8732  -32.1673   23.5790 C   0  0  0  0  0  0  0  0  0  0  0  0
  -23.3357  -14.6794   18.3306 C   0  0  0  0  0  0  0  0  0  0  0  0
  -31.4113  -21.6786   19.9296 C   0  0  0  0  0  0  0  0  0  0  0  0
  -28.7432  -18.0909   18.3552 C   0  0  0  0  0  0  0  0  0  0  0  0
  -23.2254  -17.2100   18.3927 C   0  0  0  0  0  0  0  0  0  0  0  0
  -30.9402  -19.7577   18.5394 C   0  0  0  0  0  0  0  0  0  0  0  0
  -27.4481  -17.3491   18.6675 C   0  0  0  0  0  0  0  0  0  0  0  0
  -24.7295  -16.0256   19.9444 C   0  0  0  0  0  0  0  0  0  0  0  0
  -27.3708  -19.5353   19.6576 C   0  0  0  0  0  0  0  0  0  0  0  0
  -28.3440  -32.0058   22.1286 C   0  0  1  0  0  0  0  0  0  0  0  0
  -25.9292  -29.6882   20.3312 C   0  0  1  0  0  0  0  0  0  0  0  0
  -24.6715  -14.7490   19.0941 C   0  0  1  0  0  0  0  0  0  0  0  0
  -28.8211  -19.1013   19.4959 C   0  0  2  0  0  0  0  0  0  0  0  0
  -30.2023  -20.8880   20.4348 C   0  0  1  0  0  0  0  0  0  0  0  0
  -30.4962  -22.2267   24.6087 C   0  0  0  0  0  0  0  0  0  0  0  0
  -18.6506  -27.8453   22.2363 C   0  0  0  0  0  0  0  0  0  0  0  0
  -24.4198  -29.9827   24.6896 C   0  0  0  0  0  0  0  0  0  0  0  0
  -22.1122  -29.0998   25.0939 C   0  0  0  0  0  0  0  0  0  0  0  0
  -22.4245  -31.2734   23.9104 C   0  0  0  0  0  0  0  0  0  0  0  0
  -20.4875  -26.8512   19.0561 C   0  0  0  0  0  0  0  0  0  0  0  0
  -29.8187  -21.5099   23.4614 C   0  0  0  0  0  0  0  0  0  0  0  0
  -28.7170  -22.9089   20.1264 C   0  0  0  0  0  0  0  0  0  1  0  0
  -22.9956  -29.1190   22.7169 C   0  0  1  0  0  0  0  0  0  0  0  0
  -19.7397  -27.9349   21.1786 C   0  0  2  0  0  0  0  0  0  0  0  0
  -29.1577  -21.7971   21.0698 C   0  0  2  0  0  0  0  0  0  0  0  0
  -23.0066  -29.8540   24.0870 C   0  0  0  0  0  0  0  0  0  0  0  0
  -23.8651  -12.8590   20.4572 N   0  0  0  0  0  0  0  0  0  0  0  0
  -24.9175  -13.5052   19.9271 N   0  0  0  0  0  0  0  0  0  0  0  0
  -24.9260  -29.0305   21.1710 N   0  0  0  0  0  0  0  0  0  0  0  0
  -24.4968  -17.2142   19.1168 N   0  0  0  0  0  0  0  0  0  0  0  0
  -26.5877  -18.3581   19.2903 N   0  0  0  0  0  0  0  0  0  0  0  0
  -29.7252  -20.2115   19.2206 N   0  0  1  0  0  0  0  0  0  0  0  0
  -27.2801  -13.4539   19.7664 N   0  0  0  0  0  0  0  0  0  0  0  0
  -26.3308   -9.8503   22.3176 N   0  0  0  0  0  0  0  0  0  0  0  0
  -27.2946  -31.4259   21.3182 N   0  0  0  0  0  0  0  0  0  0  0  0
  -21.6739  -29.0065   22.1097 N   0  0  0  0  0  0  0  0  0  0  0  0
  -19.5027  -26.8654   20.1683 N   0  3  0  0  0  0  0  0  0  0  0  0
  -29.7608  -22.4150   22.2849 N   0  3  0  0  0  0  0  0  0  0  0  0
  -28.0288  -11.0626   21.3657 O   0  0  0  0  0  0  0  0  0  0  0  0
  -27.7081  -29.1855   21.8002 O   0  0  0  0  0  0  0  0  0  0  0  0
  -23.6321  -30.9604   21.3639 O   0  0  0  0  0  0  0  0  0  0  0  0
  -21.6515  -26.6916   21.9763 O   0  0  0  0  0  0  0  0  0  0  0  0
  -24.6026  -19.5043   19.3102 O   0  0  0  0  0  0  0  0  0  0  0  0
  -21.2562   -8.1705   23.8865 O   0  0  0  0  0  0  0  0  0  0  0  0
  -27.4581  -23.4324   20.5325 O   0  0  0  0  0  0  0  0  0  1  0  0
  -22.3924   -2.8101   23.2707 F   0  0  0  0  0  0  0  0  0  0  0  0
  -23.7297   -7.1551   24.5890 F   0  0  0  0  0  0  0  0  0  0  0  0
  1  2  1  0  0  0  0
  1  5  2  0  0  0  0
  2  6  2  0  0  0  0
  3  8  2  0  0  0  0
  3 15  1  0  0  0  0
  4  9  1  0  0  0  0
  4 15  2  0  0  0  0
  5 17  1  0  0  0  0
  6 19  1  0  0  0  0
  7 10  2  0  0  0  0
  7 18  1  0  0  0  0
  8 21  1  0  0  0  0
  9 21  2  0  0  0  0
 10 22  1  0  0  0  0
 11 12  2  0  0  0  0
 11 23  1  0  0  0  0
 12 24  1  0  0  0  0
 13 20  1  0  0  0  0
 13 22  2  0  0  0  0
 14 24  2  0  0  0  0
 14 25  1  0  0  0  0
 15 26  1  0  0  0  0
 16 26  1  0  0  0  0
 16 27  2  0  0  0  0
 16 28  1  0  0  0  0
 17 19  2  0  0  0  0
 17 33  1  0  0  0  0
 18 20  2  0  0  0  0
 18 34  1  0  0  0  0
 19 48  1  0  0  0  0
 20 35  1  0  0  0  0
 21 82  1  0  0  0  0
 22 83  1  0  0  0  0
 23 25  2  0  0  0  0
 23 82  1  0  0  0  0
 24 84  1  0  0  0  0
 25 85  1  0  0  0  0
 26 65  2  0  0  0  0
 27 66  1  0  0  0  0
 27 71  1  0  0  0  0
 28 72  1  0  0  0  0
 28 77  2  0  0  0  0
 29 49  1  0  0  0  0
 29 73  1  0  0  0  0
 29 78  2  0  0  0  0
 30 61  1  0  0  0  0
 30 67  1  0  0  0  0
 30 79  2  0  0  0  0
 31 62  1  0  0  0  0
 31 74  1  0  0  0  0
 31 80  2  0  0  0  0
 32 68  1  0  0  0  0
 32 69  1  0  0  0  0
 32 81  2  0  0  0  0
 33 36  1  0  0  0  0
 34 49  1  0  0  0  0
 35 67  1  0  0  0  0
 36 39  1  0  0  0  0
 37 40  1  0  0  0  0
 37 43  1  0  0  0  0
 38 41  1  0  0  0  0
 38 44  1  0  0  0  0
 39 48  1  0  0  0  0
 40 50  1  0  0  0  0
 41 52  1  0  0  0  0
 42 45  1  0  0  0  0
 42 51  1  0  0  0  0
 43 68  1  0  0  0  0
 44 70  1  0  0  0  0
 45 69  1  0  0  0  0
 46 50  1  0  0  0  0
 46 68  1  0  0  0  0
 47 51  1  0  0  0  0
 47 69  1  0  0  0  0
 48 73  1  0  0  0  0
 49 67  1  0  0  0  0
 50 66  1  0  0  0  0
 51 70  1  0  0  0  0
 52 63  1  0  0  0  0
 52 70  1  0  0  0  0
 53 59  1  0  0  0  0
 54 62  1  0  0  0  0
 55 64  1  0  0  0  0
 56 64  1  0  0  0  0
 57 64  1  0  0  0  0
 58 75  1  0  0  0  0
 59 76  1  0  0  0  0
 60 63  1  0  0  0  0
 60 83  1  0  0  0  0
 61 64  1  0  0  0  0
 61 74  1  0  0  0  0
 62 75  1  0  0  0  0
 63 76  1  0  0  0  0
 65 66  1  0  0  0  0
M  CHG  2  75   1  76   1
M  ISO  4  32 100  60 101  69 100  83 101
M  END
> <Batch ID>
0191

> <Smiles>
CCNC(C1CCCN1C1CC[100N:0]([100C:0](=O)N2CCCC(n3nc(-c4ccc(Oc5ccc(F)cc5F)cc4)c(C(N)=O)c3N)C2)C1)[101CH2:1][101O:1]c1ccc2c(c1)CN(C(=O)C(NC(=O)C(C)NC)C(C)(C)C)C(C(=O)NC1CCCc3ccccc31)C2

> <Shape>
0.271

> <Color>
0.068

> <Negative vol penalty>
0.000

$$$$

  -OEChem-04052323273D

 83 91  0     1  0  0  0  0  0999 V2000
  -26.8790  -37.6698   21.0615 C   0  0  0  0  0  0  0  0  0  0  0  0
  -27.4198  -36.4681   20.6155 C   0  0  0  0  0  0  0  0  0  0  0  0
  -21.4391  -14.6216   20.2034 C   0  0  0  0  0  0  0  0  0  0  0  0
  -21.9121  -13.7585   17.9970 C   0  0  0  0  0  0  0  0  0  0  0  0
  -26.0908  -37.6941   22.2112 C   0  0  0  0  0  0  0  0  0  0  0  0
  -27.1735  -35.2901   21.3198 C   0  0  0  0  0  0  0  0  0  0  0  0
  -26.4808  -29.6753   18.9746 C   0  0  0  0  0  0  0  0  0  0  0  0
  -20.1641  -14.9995   19.7823 C   0  0  0  0  0  0  0  0  0  0  0  0
  -20.6371  -14.1363   17.5759 C   0  0  0  0  0  0  0  0  0  0  0  0
  -27.3576  -28.5994   18.8419 C   0  0  0  0  0  0  0  0  0  0  0  0
  -17.4782  -12.9659   17.8446 C   0  0  0  0  0  0  0  0  0  0  0  0
  -16.7476  -12.0472   17.0911 C   0  0  0  0  0  0  0  0  0  0  0  0
  -26.4971  -27.6537   20.8875 C   0  0  0  0  0  0  0  0  0  0  0  0
  -16.6461  -13.6258   15.2649 C   0  0  0  0  0  0  0  0  0  0  0  0
  -22.3131  -14.0012   19.3107 C   0  0  0  0  0  0  0  0  0  0  0  0
  -24.0094  -12.3780   20.3084 C   0  0  0  0  0  0  0  0  0  0  0  0
  -25.8267  -36.5142   22.9245 C   0  0  0  0  0  0  0  0  0  0  0  0
  -25.6117  -29.7540   20.0723 C   0  0  0  0  0  0  0  0  0  0  0  0
  -26.3821  -35.2988   22.4809 C   0  0  0  0  0  0  0  0  0  0  0  0
  -25.6085  -28.7302   21.0304 C   0  0  0  0  0  0  0  0  0  0  0  0
  -19.7631  -14.7568   18.4686 C   0  0  0  0  0  0  0  0  0  0  0  0
  -27.3678  -27.5899   19.7999 C   0  0  0  0  0  0  0  0  0  0  0  0
  -17.7928  -14.2145   17.3083 C   0  0  0  0  0  0  0  0  0  0  0  0
  -16.3315  -12.3772   15.8013 C   0  0  0  0  0  0  0  0  0  0  0  0
  -17.3768  -14.5445   16.0185 C   0  0  0  0  0  0  0  0  0  0  0  0
  -23.6304  -13.6111   19.7450 C   0  0  0  0  0  0  0  0  0  0  0  0
  -25.3560  -12.5081   20.5453 C   0  0  0  0  0  0  0  0  0  0  0  0
  -23.2152  -11.2185   20.5922 C   0  0  0  0  0  0  0  0  0  0  0  0
  -25.2173  -31.7922   22.4793 C   0  0  0  0  0  0  0  0  0  0  0  0
  -22.6385  -29.9315   23.1197 C   0  0  0  0  0  0  0  0  0  0  0  0
  -30.0847  -25.3700   20.6823 C   0  0  0  0  0  0  0  0  0  0  0  0
  -21.1110  -26.8945   22.8195 C   0  0  0  0  0  0  0  0  0  0  0  0
  -28.8190  -17.0060   21.6340 C   0  0  0  0  0  0  0  0  0  0  0  0
  -25.0079  -36.5978   24.1883 C   0  0  0  0  0  0  0  0  0  0  0  0
  -24.6533  -30.9076   20.1869 C   0  0  0  0  0  0  0  0  0  0  0  0
  -24.6811  -28.7574   22.2169 C   0  0  0  0  0  0  0  0  0  0  0  0
  -24.4859  -35.2453   24.6664 C   0  0  0  0  0  0  0  0  0  0  0  0
  -29.2447  -14.7815   18.9481 C   0  0  0  0  0  0  0  0  0  0  0  0
  -25.5977  -34.2015   24.6318 C   0  0  0  0  0  0  0  0  0  0  0  0
  -27.8774  -14.1005   18.8989 C   0  0  0  0  0  0  0  0  0  0  0  0
  -29.1286  -16.2815   19.2248 C   0  0  0  0  0  0  0  0  0  0  0  0
  -30.2440  -18.7284   20.4392 C   0  0  0  0  0  0  0  0  0  0  0  0
  -30.7183  -18.1062   22.7793 C   0  0  0  0  0  0  0  0  0  0  0  0
  -26.9721  -15.9284   20.3840 C   0  0  0  0  0  0  0  0  0  0  0  0
  -30.1035  -20.1915   20.8468 C   0  0  0  0  0  0  0  0  0  0  0  0
  -30.5607  -19.5507   23.2253 C   0  0  0  0  0  0  0  0  0  0  0  0
  -26.1172  -33.9959   23.2037 C   0  0  1  0  0  0  0  0  0  0  0  0
  -24.1723  -31.1452   21.6150 C   0  0  1  0  0  0  0  0  0  0  0  0
  -27.0603  -14.4100   20.1659 C   0  0  1  0  0  0  0  0  0  0  0  0
  -19.0257  -25.6644   23.4798 C   0  0  0  0  0  0  0  0  0  0  0  0
  -23.7191  -29.6276   25.9569 C   0  0  0  0  0  0  0  0  0  0  0  0
  -22.1695  -27.6854   26.2645 C   0  0  0  0  0  0  0  0  0  0  0  0
  -21.2443  -29.9575   25.8129 C   0  0  0  0  0  0  0  0  0  0  0  0
  -20.3329  -26.4625   19.9969 C   0  0  0  0  0  0  0  0  0  0  0  0
  -28.6855  -25.9191   20.8621 C   0  0  0  0  0  0  0  0  0  1  0  0
  -31.8212  -22.7037   21.5722 C   0  0  0  0  0  0  0  0  0  0  0  0
  -31.8684  -24.1831   21.9453 C   0  0  0  0  0  0  0  0  0  0  0  0
  -30.8886  -21.9087   22.4775 C   0  0  0  0  0  0  0  0  0  0  0  0
  -22.3925  -28.6938   23.9484 C   0  0  1  0  0  0  0  0  0  0  0  0
  -19.6992  -26.5129   22.4124 C   0  0  2  0  0  0  0  0  0  0  0  0
  -22.4003  -28.9913   25.4744 C   0  0  0  0  0  0  0  0  0  0  0  0
  -24.6536  -14.4621   19.6309 N   0  0  0  0  0  0  0  0  0  0  0  0
  -25.6888  -13.7625   20.1260 N   0  0  0  0  0  0  0  0  0  0  0  0
  -23.7670  -29.9094   22.2879 N   0  0  0  0  0  0  0  0  0  0  0  0
  -28.3073  -16.5289   20.4180 N   0  0  0  0  0  0  0  0  0  0  0  0
  -29.9463  -17.8383   21.5679 N   0  0  0  0  0  0  0  0  0  0  0  0
  -26.2761  -11.6707   21.0693 N   0  0  0  0  0  0  0  0  0  0  0  0
  -21.8479  -11.2539   20.2861 N   0  0  0  0  0  0  0  0  0  0  0  0
  -25.1990  -33.1735   22.4454 N   0  0  0  0  0  0  0  0  0  0  0  0
  -30.5591  -24.7829   21.8455 N   0  0  0  0  0  0  0  0  0  0  0  0
  -21.1458  -28.1158   23.4586 N   0  0  0  0  0  0  0  0  0  0  0  0
  -30.9346  -20.4604   22.0783 N   0  3  0  0  0  0  0  0  0  0  0  0
  -19.7187  -25.7383   21.1394 N   0  3  0  0  0  0  0  0  0  0  0  0
  -23.7002  -10.1877   21.1173 O   0  0  0  0  0  0  0  0  0  0  0  0
  -25.9824  -31.0903   23.1301 O   0  0  0  0  0  0  0  0  0  0  0  0
  -21.8542  -30.8800   23.2018 O   0  0  0  0  0  0  0  0  0  0  0  0
  -30.6993  -25.4515   19.6223 O   0  0  0  0  0  0  0  0  0  0  0  0
  -22.0850  -26.1789   22.5964 O   0  0  0  0  0  0  0  0  0  0  0  0
  -28.2985  -16.7063   22.7159 O   0  0  0  0  0  0  0  0  0  0  0  0
  -18.5190  -15.1252   18.0574 O   0  0  0  0  0  0  0  0  0  0  0  0
  -28.2320  -26.5281   19.6718 O   0  0  0  0  0  0  0  0  0  1  0  0
  -15.6312  -11.4943   15.0772 F   0  0  0  0  0  0  0  0  0  0  0  0
  -17.6770  -15.7421   15.4975 F   0  0  0  0  0  0  0  0  0  0  0  0
  1  2  1  0  0  0  0
  1  5  2  0  0  0  0
  2  6  2  0  0  0  0
  3  8  2  0  0  0  0
  3 15  1  0  0  0  0
  4  9  1  0  0  0  0
  4 15  2  0  0  0  0
  5 17  1  0  0  0  0
  6 19  1  0  0  0  0
  7 10  2  0  0  0  0
  7 18  1  0  0  0  0
  8 21  1  0  0  0  0
  9 21  2  0  0  0  0
 10 22  1  0  0  0  0
 11 12  2  0  0  0  0
 11 23  1  0  0  0  0
 12 24  1  0  0  0  0
 13 20  1  0  0  0  0
 13 22  2  0  0  0  0
 14 24  2  0  0  0  0
 14 25  1  0  0  0  0
 15 26  1  0  0  0  0
 16 26  1  0  0  0  0
 16 27  2  0  0  0  0
 16 28  1  0  0  0  0
 17 19  2  0  0  0  0
 17 34  1  0  0  0  0
 18 20  2  0  0  0  0
 18 35  1  0  0  0  0
 19 47  1  0  0  0  0
 20 36  1  0  0  0  0
 21 80  1  0  0  0  0
 22 81  1  0  0  0  0
 23 25  2  0  0  0  0
 23 80  1  0  0  0  0
 24 82  1  0  0  0  0
 25 83  1  0  0  0  0
 26 62  2  0  0  0  0
 27 63  1  0  0  0  0
 27 67  1  0  0  0  0
 28 68  1  0  0  0  0
 28 74  2  0  0  0  0
 29 48  1  0  0  0  0
 29 69  1  0  0  0  0
 29 75  2  0  0  0  0
 30 59  1  0  0  0  0
 30 64  1  0  0  0  0
 30 76  2  0  0  0  0
 31 55  1  0  0  0  0
 31 70  1  0  0  0  0
 31 77  2  0  0  0  0
 32 60  1  0  0  0  0
 32 71  1  0  0  0  0
 32 78  2  0  0  0  0
 33 65  1  0  0  0  0
 33 66  1  0  0  0  0
 33 79  2  0  0  0  0
 34 37  1  0  0  0  0
 35 48  1  0  0  0  0
 36 64  1  0  0  0  0
 37 39  1  0  0  0  0
 38 40  1  0  0  0  0
 38 41  1  0  0  0  0
 39 47  1  0  0  0  0
 40 49  1  0  0  0  0
 41 65  1  0  0  0  0
 42 45  1  0  0  0  0
 42 66  1  0  0  0  0
 43 46  1  0  0  0  0
 43 66  1  0  0  0  0
 44 49  1  0  0  0  0
 44 65  1  0  0  0  0
 45 72  1  0  0  0  0
 46 72  1  0  0  0  0
 47 69  1  0  0  0  0
 48 64  1  0  0  0  0
 49 63  1  0  0  0  0
 50 60  1  0  0  0  0
 51 61  1  0  0  0  0
 52 61  1  0  0  0  0
 53 61  1  0  0  0  0
 54 73  1  0  0  0  0
 55 81  1  0  0  0  0
 56 57  1  0  0  0  0
 56 58  1  0  0  0  0
 57 70  1  0  0  0  0
 58 72  1  0  0  0  0
 59 61  1  0  0  0  0
 59 71  1  0  0  0  0
 60 73  1  0  0  0  0
 62 63  1  0  0  0  0
M  CHG  2  72   1  73   1
M  ISO  4  33 100  55 101  66 100  81 101
M  END
> <Batch ID>
0191

> <Smiles>
CNC(C)C(=O)NC(C(=O)N1Cc2cc([101O:1][101CH2:1]C(=O)NCCCN3CC[100N:0]([100C:0](=O)N4CCCC(n5nc(-c6ccc(Oc7ccc(F)cc7F)cc6)c(C(N)=O)c5N)C4)CC3)ccc2CC1C(=O)NC1CCCc2ccccc21)C(C)(C)C

> <Shape>
0.264

> <Color>
0.088

> <Negative vol penalty>
0.000

$$$$

  -OEChem-04052323273D

 82 91  0     1  0  0  0  0  0999 V2000
  -27.1952  -34.9308   22.1832 C   0  0  0  0  0  0  0  0  0  0  0  0
  -27.5151  -33.5842   22.3237 C   0  0  0  0  0  0  0  0  0  0  0  0
  -22.9428  -15.7506   21.1218 C   0  0  0  0  0  0  0  0  0  0  0  0
  -22.3716  -14.4193   19.1883 C   0  0  0  0  0  0  0  0  0  0  0  0
  -25.8822  -35.3581   22.3764 C   0  0  0  0  0  0  0  0  0  0  0  0
  -26.5222  -32.6641   22.6585 C   0  0  0  0  0  0  0  0  0  0  0  0
  -26.7547  -28.4504   19.8594 C   0  0  0  0  0  0  0  0  0  0  0  0
  -21.8508  -16.5818   20.8721 C   0  0  0  0  0  0  0  0  0  0  0  0
  -21.2796  -15.2505   18.9386 C   0  0  0  0  0  0  0  0  0  0  0  0
  -27.7285  -27.5126   20.2001 C   0  0  0  0  0  0  0  0  0  0  0  0
  -18.5044  -16.5094   21.3507 C   0  0  0  0  0  0  0  0  0  0  0  0
  -17.6995  -16.8650   22.4330 C   0  0  0  0  0  0  0  0  0  0  0  0
  -26.0602  -26.2094   21.3567 C   0  0  0  0  0  0  0  0  0  0  0  0
  -18.1965  -19.1959   22.0367 C   0  0  0  0  0  0  0  0  0  0  0  0
  -23.2032  -14.6693   20.2799 C   0  0  0  0  0  0  0  0  0  0  0  0
  -24.3515  -12.6484   21.3310 C   0  0  0  0  0  0  0  0  0  0  0  0
  -24.8708  -34.4413   22.7043 C   0  0  0  0  0  0  0  0  0  0  0  0
  -25.4262  -28.2800   20.2748 C   0  0  0  0  0  0  0  0  0  0  0  0
  -25.1946  -33.0797   22.8575 C   0  0  0  0  0  0  0  0  0  0  0  0
  -25.0710  -27.1452   21.0178 C   0  0  0  0  0  0  0  0  0  0  0  0
  -21.0192  -16.3318   19.7806 C   0  0  0  0  0  0  0  0  0  0  0  0
  -27.3819  -26.3934   20.9513 C   0  0  0  0  0  0  0  0  0  0  0  0
  -19.1554  -17.4971   20.6114 C   0  0  0  0  0  0  0  0  0  0  0  0
  -17.5456  -18.2083   22.7760 C   0  0  0  0  0  0  0  0  0  0  0  0
  -19.0014  -18.8403   20.9544 C   0  0  0  0  0  0  0  0  0  0  0  0
  -24.3313  -13.8107   20.5369 C   0  0  0  0  0  0  0  0  0  0  0  0
  -25.6482  -12.2024   21.2539 C   0  0  0  0  0  0  0  0  0  0  0  0
  -23.2926  -12.0274   22.0719 C   0  0  0  0  0  0  0  0  0  0  0  0
  -23.4253  -29.9206   22.1210 C   0  0  0  0  0  0  0  0  0  0  0  0
  -21.2879  -27.7004   21.1090 C   0  0  0  0  0  0  0  0  0  0  0  0
  -20.7296  -24.5711   19.8670 C   0  0  0  0  0  0  0  0  0  0  0  0
  -30.8191  -15.0109   20.0676 C   0  0  0  0  0  0  0  0  0  0  0  0
  -23.4750  -34.9573   22.9497 C   0  0  0  0  0  0  0  0  0  0  0  0
  -24.3824  -29.2870   19.8763 C   0  0  0  0  0  0  0  0  0  0  0  0
  -23.6548  -26.9054   21.4711 C   0  0  0  0  0  0  0  0  0  0  0  0
  -22.4100  -33.8638   22.9349 C   0  0  0  0  0  0  0  0  0  0  0  0
  -29.4577  -12.1976   18.3904 C   0  0  0  0  0  0  0  0  0  0  0  0
  -22.8607  -32.6683   23.7683 C   0  0  0  0  0  0  0  0  0  0  0  0
  -27.9837  -12.1995   18.7851 C   0  0  0  0  0  0  0  0  0  0  0  0
  -28.1086  -19.7804   20.0823 C   0  0  0  0  0  0  0  0  0  0  0  0
  -29.9713  -13.6197   18.2115 C   0  0  0  0  0  0  0  0  0  0  0  0
  -27.8998  -21.2951   20.0553 C   0  0  0  0  0  0  0  0  0  0  0  0
  -31.7420  -16.9088   21.3595 C   0  0  0  0  0  0  0  0  0  0  0  0
  -28.3388  -14.4771   19.8715 C   0  0  0  0  0  0  0  0  0  0  0  0
  -29.8242  -20.9132   21.3260 C   0  0  0  0  0  0  0  0  0  0  0  0
  -31.2113  -18.2607   21.7893 C   0  0  0  0  0  0  0  0  0  0  0  0
  -29.5314  -17.1745   20.4928 C   0  0  0  0  0  0  0  0  0  0  0  0
  -24.1407  -32.0477   23.1955 C   0  0  1  0  0  0  0  0  0  0  0  0
  -23.1609  -29.2750   20.7902 C   0  0  1  0  0  0  0  0  0  0  0  0
  -27.7620  -13.0564   20.0406 C   0  0  1  0  0  0  0  0  0  0  0  0
  -29.1555  -19.5626   21.1654 C   0  0  2  0  0  0  0  0  0  0  0  0
  -18.8753  -23.0271   19.1778 C   0  0  0  0  0  0  0  0  0  0  0  0
  -20.6561  -27.1531   24.0435 C   0  0  0  0  0  0  0  0  0  0  0  0
  -19.5561  -25.0181   23.3364 C   0  0  0  0  0  0  0  0  0  0  0  0
  -18.6594  -27.2049   22.5386 C   0  0  0  0  0  0  0  0  0  0  0  0
  -21.7266  -24.4280   17.0841 C   0  0  0  0  0  0  0  0  0  0  0  0
  -29.0423  -23.1965   21.0488 C   0  0  0  0  0  0  0  0  0  0  0  0
  -27.9034  -24.1253   21.4409 C   0  0  0  0  0  0  0  0  0  1  0  0
  -20.8428  -26.3436   21.5989 C   0  0  1  0  0  0  0  0  0  0  0  0
  -19.8679  -24.0829   18.7165 C   0  0  2  0  0  0  0  0  0  0  0  0
  -19.9558  -26.4351   22.8726 C   0  0  0  0  0  0  0  0  0  0  0  0
  -25.5209  -14.0859   19.9954 N   0  0  0  0  0  0  0  0  0  0  0  0
  -26.3006  -13.0902   20.4500 N   0  0  0  0  0  0  0  0  0  0  0  0
  -22.6715  -27.9219   21.0618 N   0  0  0  0  0  0  0  0  0  0  0  0
  -29.7291  -14.4414   19.3992 N   0  0  0  0  0  0  0  0  0  0  0  0
  -30.6314  -16.2444   20.6902 N   0  0  0  0  0  0  0  0  0  0  0  0
  -28.6647  -21.7997   21.2004 N   0  0  1  0  0  0  0  0  0  0  0  0
  -26.2827  -11.1413   21.7961 N   0  0  0  0  0  0  0  0  0  0  0  0
  -22.0215  -12.6170   22.0424 N   0  0  0  0  0  0  0  0  0  0  0  0
  -23.8346  -31.2377   22.0359 N   0  0  0  0  0  0  0  0  0  0  0  0
  -20.1952  -25.6925   20.4653 N   0  0  0  0  0  0  0  0  0  0  0  0
  -30.1280  -18.5265   20.7730 N   0  3  1  0  0  0  0  0  0  0  0  0
  -20.7195  -23.4915   17.6460 N   0  3  0  0  0  0  0  0  0  0  0  0
  -23.4725  -10.9898   22.7535 O   0  0  0  0  0  0  0  0  0  0  0  0
  -23.2681  -29.2723   23.1489 O   0  0  0  0  0  0  0  0  0  0  0  0
  -20.4393  -28.5305   20.7735 O   0  0  0  0  0  0  0  0  0  0  0  0
  -21.7706  -24.0112   20.2037 O   0  0  0  0  0  0  0  0  0  0  0  0
  -31.9287  -14.4607   20.0729 O   0  0  0  0  0  0  0  0  0  0  0  0
  -19.9535  -17.1425   19.5368 O   0  0  0  0  0  0  0  0  0  0  0  0
  -28.3373  -25.4703   21.2882 O   0  0  0  0  0  0  0  0  0  1  0  0
  -16.7714  -18.5497   23.8144 F   0  0  0  0  0  0  0  0  0  0  0  0
  -19.6233  -19.7937   20.2473 F   0  0  0  0  0  0  0  0  0  0  0  0
  1  2  1  0  0  0  0
  1  5  2  0  0  0  0
  2  6  2  0  0  0  0
  3  8  2  0  0  0  0
  3 15  1  0  0  0  0
  4  9  1  0  0  0  0
  4 15  2  0  0  0  0
  5 17  1  0  0  0  0
  6 19  1  0  0  0  0
  7 10  2  0  0  0  0
  7 18  1  0  0  0  0
  8 21  1  0  0  0  0
  9 21  2  0  0  0  0
 10 22  1  0  0  0  0
 11 12  2  0  0  0  0
 11 23  1  0  0  0  0
 12 24  1  0  0  0  0
 13 20  1  0  0  0  0
 13 22  2  0  0  0  0
 14 24  2  0  0  0  0
 14 25  1  0  0  0  0
 15 26  1  0  0  0  0
 16 26  1  0  0  0  0
 16 27  2  0  0  0  0
 16 28  1  0  0  0  0
 17 19  2  0  0  0  0
 17 33  1  0  0  0  0
 18 20  2  0  0  0  0
 18 34  1  0  0  0  0
 19 48  1  0  0  0  0
 20 35  1  0  0  0  0
 21 79  1  0  0  0  0
 22 80  1  0  0  0  0
 23 25  2  0  0  0  0
 23 79  1  0  0  0  0
 24 81  1  0  0  0  0
 25 82  1  0  0  0  0
 26 62  2  0  0  0  0
 27 63  1  0  0  0  0
 27 68  1  0  0  0  0
 28 69  1  0  0  0  0
 28 74  2  0  0  0  0
 29 49  1  0  0  0  0
 29 70  1  0  0  0  0
 29 75  2  0  0  0  0
 30 59  1  0  0  0  0
 30 64  1  0  0  0  0
 30 76  2  0  0  0  0
 31 60  1  0  0  0  0
 31 71  1  0  0  0  0
 31 77  2  0  0  0  0
 32 65  1  0  0  0  0
 32 66  1  0  0  0  0
 32 78  2  0  0  0  0
 33 36  1  0  0  0  0
 34 49  1  0  0  0  0
 35 64  1  0  0  0  0
 36 38  1  0  0  0  0
 37 39  1  0  0  0  0
 37 41  1  0  0  0  0
 38 48  1  0  0  0  0
 39 50  1  0  0  0  0
 40 42  1  0  0  0  0
 40 51  1  0  0  0  0
 41 65  1  0  0  0  0
 42 67  1  0  0  0  0
 43 46  1  0  0  0  0
 43 66  1  0  0  0  0
 44 50  1  0  0  0  0
 44 65  1  0  0  0  0
 45 51  1  0  0  0  0
 45 67  1  0  0  0  0
 46 72  1  0  0  0  0
 47 66  1  0  0  0  0
 47 72  1  0  0  0  0
 48 70  1  0  0  0  0
 49 64  1  0  0  0  0
 50 63  1  0  0  0  0
 51 72  1  0  0  0  0
 52 60  1  0  0  0  0
 53 61  1  0  0  0  0
 54 61  1  0  0  0  0
 55 61  1  0  0  0  0
 56 73  1  0  0  0  0
 57 58  1  0  0  0  0
 57 67  1  0  0  0  0
 58 80  1  0  0  0  0
 59 61  1  0  0  0  0
 59 71  1  0  0  0  0
 60 73  1  0  0  0  0
 62 63  1  0  0  0  0
M  CHG  2  72   1  73   1
M  ISO  4  32 100  58 101  66 100  80 101
M  END
> <Batch ID>
0191

> <Smiles>
CNC(C)C(=O)NC(C(=O)N1Cc2cc([101O:1][101CH2:1]CN3CCC(N4CC[100N:0]([100C:0](=O)N5CCCC(n6nc(-c7ccc(Oc8ccc(F)cc8F)cc7)c(C(N)=O)c6N)C5)C4)C3)ccc2CC1C(=O)NC1CCCc2ccccc21)C(C)(C)C

> <Shape>
0.287

> <Color>
0.091

> <Negative vol penalty>
0.000

$$$$

  -OEChem-04052323273D

 82 91  0     1  0  0  0  0  0999 V2000
  -22.0322  -24.4849   20.3789 C   0  0  0  0  0  0  0  0  0  0  0  0
  -23.0947  -23.6187   20.1419 C   0  0  0  0  0  0  0  0  0  0  0  0
  -22.5354  -29.1028   19.4804 C   0  0  0  0  0  0  0  0  0  0  0  0
  -22.7425  -27.9599   21.5989 C   0  0  0  0  0  0  0  0  0  0  0  0
  -21.0863  -24.1752   21.3553 C   0  0  0  0  0  0  0  0  0  0  0  0
  -23.2126  -22.4428   20.8820 C   0  0  0  0  0  0  0  0  0  0  0  0
  -24.3442  -18.4371   17.9977 C   0  0  0  0  0  0  0  0  0  0  0  0
  -21.1462  -29.0767   19.6021 C   0  0  0  0  0  0  0  0  0  0  0  0
  -21.3532  -27.9339   21.7206 C   0  0  0  0  0  0  0  0  0  0  0  0
  -25.6695  -18.3027   17.5866 C   0  0  0  0  0  0  0  0  0  0  0  0
  -18.8916  -30.0728   22.6069 C   0  0  0  0  0  0  0  0  0  0  0  0
  -18.3442  -30.4180   23.8426 C   0  0  0  0  0  0  0  0  0  0  0  0
  -26.0413  -16.6829   19.3351 C   0  0  0  0  0  0  0  0  0  0  0  0
  -17.3232  -28.2340   24.0003 C   0  0  0  0  0  0  0  0  0  0  0  0
  -23.3336  -28.5444   20.4787 C   0  0  0  0  0  0  0  0  0  0  0  0
  -25.6439  -29.5745   20.8096 C   0  0  0  0  0  0  0  0  0  0  0  0
  -21.1873  -22.9902   22.1011 C   0  0  0  0  0  0  0  0  0  0  0  0
  -23.8596  -17.7023   19.0894 C   0  0  0  0  0  0  0  0  0  0  0  0
  -22.2679  -22.1176   21.8703 C   0  0  0  0  0  0  0  0  0  0  0  0
  -24.7087  -16.8079   19.7565 C   0  0  0  0  0  0  0  0  0  0  0  0
  -20.5551  -28.4923   20.7222 C   0  0  0  0  0  0  0  0  0  0  0  0
  -26.5191  -17.4276   18.2570 C   0  0  0  0  0  0  0  0  0  0  0  0
  -18.6547  -28.8083   22.0679 C   0  0  0  0  0  0  0  0  0  0  0  0
  -17.5601  -29.4986   24.5393 C   0  0  0  0  0  0  0  0  0  0  0  0
  -17.8705  -27.8889   22.7646 C   0  0  0  0  0  0  0  0  0  0  0  0
  -24.7688  -28.5705   20.3533 C   0  0  0  0  0  0  0  0  0  0  0  0
  -26.8929  -29.1311   20.4492 C   0  0  0  0  0  0  0  0  0  0  0  0
  -30.5158  -19.4528   19.9642 C   0  0  0  0  0  0  0  0  0  0  0  0
  -30.3184  -17.7869   21.2065 C   0  0  0  0  0  0  0  0  0  0  0  0
  -25.3537  -30.7984   21.4977 C   0  0  0  0  0  0  0  0  0  0  0  0
  -22.6625  -18.4444   21.9389 C   0  0  0  0  0  0  0  0  0  0  0  0
  -22.1335  -15.2489   22.1158 C   0  0  0  0  0  0  0  0  0  0  0  0
  -22.9762  -12.1107   21.0727 C   0  0  0  0  0  0  0  0  0  0  0  0
  -29.7384  -24.1603   20.1807 C   0  0  0  0  0  0  0  0  0  0  0  0
  -20.1668  -22.7214   23.1786 C   0  0  0  0  0  0  0  0  0  0  0  0
  -22.4201  -17.8389   19.5036 C   0  0  0  0  0  0  0  0  0  0  0  0
  -24.2319  -15.9810   20.9215 C   0  0  0  0  0  0  0  0  0  0  0  0
  -20.1566  -21.2728   23.6601 C   0  0  0  0  0  0  0  0  0  0  0  0
  -28.6659  -25.9449   17.1509 C   0  0  0  0  0  0  0  0  0  0  0  0
  -21.5790  -20.7865   23.9195 C   0  0  0  0  0  0  0  0  0  0  0  0
  -27.5763  -26.8499   17.7150 C   0  0  0  0  0  0  0  0  0  0  0  0
  -28.7487  -24.6050   17.8825 C   0  0  0  0  0  0  0  0  0  0  0  0
  -29.6269  -21.8281   19.0415 C   0  0  0  0  0  0  0  0  0  0  0  0
  -31.0242  -22.0168   20.6309 C   0  0  0  0  0  0  0  0  0  0  0  0
  -27.7893  -25.6562   19.9214 C   0  0  0  0  0  0  0  0  0  0  0  0
  -22.4164  -20.8204   22.6353 C   0  0  1  0  0  0  0  0  0  0  0  0
  -30.8022  -20.9527   19.5362 C   0  0  0  0  0  0  0  0  0  0  0  0
  -22.1728  -17.4239   20.9507 C   0  0  1  0  0  0  0  0  0  0  0  0
  -27.7577  -27.0257   19.2296 C   0  0  2  0  0  0  0  0  0  0  0  0
  -30.2771  -16.8588   22.3331 C   0  0  0  0  0  0  0  0  0  0  0  0
  -22.3928   -9.6953   21.4232 C   0  0  0  0  0  0  0  0  0  0  0  0
  -23.6371  -15.2735   24.7707 C   0  0  0  0  0  0  0  0  0  0  0  0
  -23.8502  -12.7853   24.5933 C   0  0  0  0  0  0  0  0  0  0  0  0
  -21.5920  -13.8343   24.7433 C   0  0  0  0  0  0  0  0  0  0  0  0
  -22.1821  -11.7716   18.2419 C   0  0  0  0  0  0  0  0  0  0  0  0
  -29.9149  -18.4588   17.6111 C   0  0  0  0  0  0  0  0  0  0  0  0
  -28.4302  -18.4364   17.2641 C   0  0  0  0  0  0  0  0  0  1  0  0
  -22.9240  -14.0600   22.6063 C   0  0  1  0  0  0  0  0  0  0  0  0
  -22.1273  -10.9450   20.5982 C   0  0  2  0  0  0  0  0  0  0  0  0
  -23.0106  -14.0051   24.1577 C   0  0  0  0  0  0  0  0  0  0  0  0
  -25.4077  -27.5652   19.7490 N   0  0  0  0  0  0  0  0  0  0  0  0
  -30.6284  -19.0611   21.2675 N   0  0  0  0  0  0  0  0  0  0  0  0
  -30.0358  -17.4458   19.9206 N   0  0  0  0  0  0  0  0  0  0  0  0
  -26.6976  -27.9352   19.8231 N   0  0  0  0  0  0  0  0  0  0  0  0
  -30.1556  -18.5010   19.1006 N   0  0  0  0  0  0  0  0  0  0  0  0
  -22.8178  -16.1546   21.2928 N   0  0  0  0  0  0  0  0  0  0  0  0
  -28.8027  -24.7704   19.3386 N   0  0  0  0  0  0  0  0  0  0  0  0
  -30.2121  -22.9159   19.8160 N   0  0  0  0  0  0  0  0  0  0  0  0
  -28.1281  -29.6513   20.6099 N   0  0  0  0  0  0  0  0  0  0  0  0
  -24.0165  -31.0996   21.7901 N   0  0  0  0  0  0  0  0  0  0  0  0
  -22.0895  -19.6929   21.7889 N   0  0  0  0  0  0  0  0  0  0  0  0
  -22.3100  -12.8835   22.0001 N   0  0  0  0  0  0  0  0  0  0  0  0
  -22.4221  -10.6369   19.1703 N   0  3  0  0  0  0  0  0  0  0  0  0
  -26.2520  -31.6089   21.8286 O   0  0  0  0  0  0  0  0  0  0  0  0
  -23.4971  -18.1225   22.7765 O   0  0  0  0  0  0  0  0  0  0  0  0
  -20.9504  -15.3659   22.4447 O   0  0  0  0  0  0  0  0  0  0  0  0
  -24.1176  -12.3131   20.6643 O   0  0  0  0  0  0  0  0  0  0  0  0
  -30.1144  -24.6866   21.2358 O   0  0  0  0  0  0  0  0  0  0  0  0
  -19.1994  -28.4668   20.8414 O   0  0  0  0  0  0  0  0  0  0  0  0
  -27.8134  -17.2949   17.8582 O   0  0  0  0  0  0  0  0  0  1  0  0
  -17.0358  -29.8297   25.7266 F   0  0  0  0  0  0  0  0  0  0  0  0
  -17.6404  -26.6721   22.2524 F   0  0  0  0  0  0  0  0  0  0  0  0
  1  2  1  0  0  0  0
  1  5  2  0  0  0  0
  2  6  2  0  0  0  0
  3  8  2  0  0  0  0
  3 15  1  0  0  0  0
  4  9  1  0  0  0  0
  4 15  2  0  0  0  0
  5 17  1  0  0  0  0
  6 19  1  0  0  0  0
  7 10  2  0  0  0  0
  7 18  1  0  0  0  0
  8 21  1  0  0  0  0
  9 21  2  0  0  0  0
 10 22  1  0  0  0  0
 11 12  2  0  0  0  0
 11 23  1  0  0  0  0
 12 24  1  0  0  0  0
 13 20  1  0  0  0  0
 13 22  2  0  0  0  0
 14 24  2  0  0  0  0
 14 25  1  0  0  0  0
 15 26  1  0  0  0  0
 16 26  1  0  0  0  0
 16 27  2  0  0  0  0
 16 30  1  0  0  0  0
 17 19  2  0  0  0  0
 17 35  1  0  0  0  0
 18 20  2  0  0  0  0
 18 36  1  0  0  0  0
 19 46  1  0  0  0  0
 20 37  1  0  0  0  0
 21 79  1  0  0  0  0
 22 80  1  0  0  0  0
 23 25  2  0  0  0  0
 23 79  1  0  0  0  0
 24 81  1  0  0  0  0
 25 82  1  0  0  0  0
 26 61  2  0  0  0  0
 27 64  1  0  0  0  0
 27 69  1  0  0  0  0
 28 47  1  0  0  0  0
 28 62  2  0  0  0  0
 28 65  1  0  0  0  0
 29 50  1  0  0  0  0
 29 62  1  0  0  0  0
 29 63  2  0  0  0  0
 30 70  1  0  0  0  0
 30 74  2  0  0  0  0
 31 48  1  0  0  0  0
 31 71  1  0  0  0  0
 31 75  2  0  0  0  0
 32 58  1  0  0  0  0
 32 66  1  0  0  0  0
 32 76  2  0  0  0  0
 33 59  1  0  0  0  0
 33 72  1  0  0  0  0
 33 77  2  0  0  0  0
 34 67  1  0  0  0  0
 34 68  1  0  0  0  0
 34 78  2  0  0  0  0
 35 38  1  0  0  0  0
 36 48  1  0  0  0  0
 37 66  1  0  0  0  0
 38 40  1  0  0  0  0
 39 41  1  0  0  0  0
 39 42  1  0  0  0  0
 40 46  1  0  0  0  0
 41 49  1  0  0  0  0
 42 67  1  0  0  0  0
 43 47  1  0  0  0  0
 43 68  1  0  0  0  0
 44 47  1  0  0  0  0
 44 68  1  0  0  0  0
 45 49  1  0  0  0  0
 45 67  1  0  0  0  0
 46 71  1  0  0  0  0
 48 66  1  0  0  0  0
 49 64  1  0  0  0  0
 51 59  1  0  0  0  0
 52 60  1  0  0  0  0
 53 60  1  0  0  0  0
 54 60  1  0  0  0  0
 55 73  1  0  0  0  0
 56 57  1  0  0  0  0
 56 65  1  0  0  0  0
 57 80  1  0  0  0  0
 58 60  1  0  0  0  0
 58 72  1  0  0  0  0
 59 73  1  0  0  0  0
 61 64  1  0  0  0  0
 63 65  1  0  0  0  0
M  CHG  1  73   1
M  ISO  4  34 100  57 101  68 100  80 101
M  END
> <Batch ID>
0191

> <Smiles>
CNC(C)C(=O)NC(C(=O)N1Cc2cc([101O:1][101CH2:1]Cn3nc(C)nc3C3C[100N:0]([100C:0](=O)N4CCCC(n5nc(-c6ccc(Oc7ccc(F)cc7F)cc6)c(C(N)=O)c5N)C4)C3)ccc2CC1C(=O)NC1CCCc2ccccc21)C(C)(C)C

> <Shape>
0.231

> <Color>
0.069

> <Negative vol penalty>
0.000

$$$$

  -OEChem-04052323273D

 84 93  0     1  0  0  0  0  0999 V2000
  -28.5052  -37.7963   21.4932 C   0  0  0  0  0  0  0  0  0  0  0  0
  -28.8795  -36.6188   20.8540 C   0  0  0  0  0  0  0  0  0  0  0  0
  -23.4612   -9.9852   22.1231 C   0  0  0  0  0  0  0  0  0  0  0  0
  -24.2368   -8.4125   20.4611 C   0  0  0  0  0  0  0  0  0  0  0  0
  -27.6990  -37.7454   22.6296 C   0  0  0  0  0  0  0  0  0  0  0  0
  -28.4486  -35.3894   21.3514 C   0  0  0  0  0  0  0  0  0  0  0  0
  -26.5696  -28.8313   19.1659 C   0  0  0  0  0  0  0  0  0  0  0  0
  -22.1580   -9.5160   21.9590 C   0  0  0  0  0  0  0  0  0  0  0  0
  -22.9335   -7.9432   20.2971 C   0  0  0  0  0  0  0  0  0  0  0  0
  -26.8618  -27.4900   19.4092 C   0  0  0  0  0  0  0  0  0  0  0  0
  -19.8672   -6.0828   19.7013 C   0  0  0  0  0  0  0  0  0  0  0  0
  -19.6761   -4.7021   19.6485 C   0  0  0  0  0  0  0  0  0  0  0  0
  -26.8646  -22.6772   21.0267 C   0  0  0  0  0  0  0  0  0  0  0  0
  -27.4417  -21.3833   21.0318 C   0  0  0  0  0  0  0  0  0  0  0  0
  -25.4068  -27.5282   21.3330 C   0  0  0  0  0  0  0  0  0  0  0  0
  -20.6190   -4.4870   21.8625 C   0  0  0  0  0  0  0  0  0  0  0  0
  -24.5006   -9.4335   21.3740 C   0  0  0  0  0  0  0  0  0  0  0  0
  -26.8155   -9.4410   22.4460 C   0  0  0  0  0  0  0  0  0  0  0  0
  -27.2500  -36.5153   23.1356 C   0  0  0  0  0  0  0  0  0  0  0  0
  -25.7008  -29.5353   20.0120 C   0  0  0  0  0  0  0  0  0  0  0  0
  -27.6367  -35.3219   22.4964 C   0  0  0  0  0  0  0  0  0  0  0  0
  -25.1032  -28.8776   21.0967 C   0  0  0  0  0  0  0  0  0  0  0  0
  -21.8941   -8.4949   21.0460 C   0  0  0  0  0  0  0  0  0  0  0  0
  -26.2827  -26.8390   20.4946 C   0  0  0  0  0  0  0  0  0  0  0  0
  -20.4342   -6.6656   20.8347 C   0  0  0  0  0  0  0  0  0  0  0  0
  -20.0520   -3.9042   20.7291 C   0  0  0  0  0  0  0  0  0  0  0  0
  -20.8101   -5.8677   21.9153 C   0  0  0  0  0  0  0  0  0  0  0  0
  -25.8470   -9.9183   21.5426 C   0  0  0  0  0  0  0  0  0  0  0  0
  -27.6263  -23.4640   20.1913 C   0  0  0  0  0  0  0  0  0  0  0  0
  -28.5386  -21.4189   20.1994 C   0  0  0  0  0  0  0  0  0  0  0  0
  -27.9176  -10.2273   22.2149 C   0  0  0  0  0  0  0  0  0  0  0  0
  -26.7268   -8.3815   23.4079 C   0  0  0  0  0  0  0  0  0  0  0  0
  -25.9816  -32.0712   21.9079 C   0  0  0  0  0  0  0  0  0  0  0  0
  -22.7775  -31.6901   22.2412 C   0  0  0  0  0  0  0  0  0  0  0  0
  -20.0770  -29.6084   22.0972 C   0  0  0  0  0  0  0  0  0  0  0  0
  -27.9736  -15.8034   19.7945 C   0  0  0  0  0  0  0  0  0  0  0  0
  -26.4190  -36.5079   24.3942 C   0  0  0  0  0  0  0  0  0  0  0  0
  -25.3749  -30.9744   19.7204 C   0  0  0  0  0  0  0  0  0  0  0  0
  -24.1480  -29.5830   22.0233 C   0  0  0  0  0  0  0  0  0  0  0  0
  -25.6963  -35.1858   24.6391 C   0  0  0  0  0  0  0  0  0  0  0  0
  -29.5108  -12.6692   18.3452 C   0  0  0  0  0  0  0  0  0  0  0  0
  -26.6474  -34.0112   24.4327 C   0  0  0  0  0  0  0  0  0  0  0  0
  -29.2587  -11.6300   19.4356 C   0  0  0  0  0  0  0  0  0  0  0  0
  -30.7115  -18.3435   20.1508 C   0  0  0  0  0  0  0  0  0  0  0  0
  -29.6290  -14.0832   18.9053 C   0  0  0  0  0  0  0  0  0  0  0  0
  -30.2935  -16.8748   20.1685 C   0  0  0  0  0  0  0  0  0  0  0  0
  -27.5909  -13.4046   20.1725 C   0  0  0  0  0  0  0  0  0  0  0  0
  -28.4124  -18.2293   19.5623 C   0  0  0  0  0  0  0  0  0  0  0  0
  -27.1690  -33.9704   22.9913 C   0  0  1  0  0  0  0  0  0  0  0  0
  -24.8774  -31.7347   20.9459 C   0  0  1  0  0  0  0  0  0  0  0  0
  -28.4119  -12.1788   20.5980 C   0  0  1  0  0  0  0  0  0  0  0  0
  -29.3959  -19.0807   20.3475 C   0  0  2  0  0  0  0  0  0  0  0  0
  -30.9883  -23.4058   19.4708 C   0  0  0  0  0  0  0  0  0  0  0  0
  -17.5940  -29.5750   22.4596 C   0  0  0  0  0  0  0  0  0  0  0  0
  -23.2208  -31.6649   25.2600 C   0  0  0  0  0  0  0  0  0  0  0  0
  -20.9262  -30.6974   25.5187 C   0  0  0  0  0  0  0  0  0  0  0  0
  -21.2172  -32.9605   24.5106 C   0  0  0  0  0  0  0  0  0  0  0  0
  -19.5589  -28.8673   19.2792 C   0  0  0  0  0  0  0  0  0  0  0  0
  -27.4690  -24.8880   19.8295 C   0  0  0  0  0  0  0  0  0  1  0  0
  -29.6623  -23.1493   18.7754 C   0  0  0  0  0  0  0  0  0  0  0  0
  -21.8850  -30.9162   23.1813 C   0  0  1  0  0  0  0  0  0  0  0  0
  -18.7138  -29.7703   21.4492 C   0  0  2  0  0  0  0  0  0  0  0  0
  -21.8318  -31.5467   24.6015 C   0  0  0  0  0  0  0  0  0  0  0  0
  -26.2945  -10.9296   20.7937 N   0  0  0  0  0  0  0  0  0  0  0  0
  -28.6413  -22.6888   19.6943 N   0  0  0  0  0  0  0  0  0  0  0  0
  -27.5562  -11.0943   21.2260 N   0  0  0  0  0  0  0  0  0  0  0  0
  -23.8660  -30.9914   21.7000 N   0  0  0  0  0  0  0  0  0  0  0  0
  -28.4493  -14.4897   19.6777 N   0  0  0  0  0  0  0  0  0  0  0  0
  -28.8845  -16.8592   19.7629 N   0  0  0  0  0  0  0  0  0  0  0  0
  -29.1509  -10.2549   22.7633 N   0  0  0  0  0  0  0  0  0  0  0  0
  -25.5210   -7.6752   23.5146 N   0  0  0  0  0  0  0  0  0  0  0  0
  -29.4489  -20.4302   19.8513 N   0  0  0  0  0  0  0  0  0  0  0  0
  -26.1624  -33.4269   22.1048 N   0  0  0  0  0  0  0  0  0  0  0  0
  -20.5871  -30.8168   22.5226 N   0  0  0  0  0  0  0  0  0  0  0  0
  -18.5387  -28.7738   20.3551 N   0  3  0  0  0  0  0  0  0  0  0  0
  -27.6831   -8.0811   24.1621 O   0  0  0  0  0  0  0  0  0  0  0  0
  -26.6210  -31.1677   22.4337 O   0  0  0  0  0  0  0  0  0  0  0  0
  -22.5144  -32.8689   21.9907 O   0  0  0  0  0  0  0  0  0  0  0  0
  -20.6320  -28.5185   22.2177 O   0  0  0  0  0  0  0  0  0  0  0  0
  -26.7634  -16.0197   19.9576 O   0  0  0  0  0  0  0  0  0  0  0  0
  -20.6226   -8.0366   20.8859 O   0  0  0  0  0  0  0  0  0  0  0  0
  -26.5683  -25.5230   20.7360 O   0  0  0  0  0  0  0  0  0  1  0  0
  -19.8671   -2.5785   20.6789 F   0  0  0  0  0  0  0  0  0  0  0  0
  -21.3543   -6.4220   23.0073 F   0  0  0  0  0  0  0  0  0  0  0  0
  1  2  1  0  0  0  0
  1  5  2  0  0  0  0
  2  6  2  0  0  0  0
  3  8  2  0  0  0  0
  3 17  1  0  0  0  0
  4  9  1  0  0  0  0
  4 17  2  0  0  0  0
  5 19  1  0  0  0  0
  6 21  1  0  0  0  0
  7 10  2  0  0  0  0
  7 20  1  0  0  0  0
  8 23  1  0  0  0  0
  9 23  2  0  0  0  0
 10 24  1  0  0  0  0
 11 12  2  0  0  0  0
 11 25  1  0  0  0  0
 12 26  1  0  0  0  0
 13 14  1  0  0  0  0
 13 29  2  0  0  0  0
 14 30  2  0  0  0  0
 15 22  1  0  0  0  0
 15 24  2  0  0  0  0
 16 26  2  0  0  0  0
 16 27  1  0  0  0  0
 17 28  1  0  0  0  0
 18 28  1  0  0  0  0
 18 31  2  0  0  0  0
 18 32  1  0  0  0  0
 19 21  2  0  0  0  0
 19 37  1  0  0  0  0
 20 22  2  0  0  0  0
 20 38  1  0  0  0  0
 21 49  1  0  0  0  0
 22 39  1  0  0  0  0
 23 81  1  0  0  0  0
 24 82  1  0  0  0  0
 25 27  2  0  0  0  0
 25 81  1  0  0  0  0
 26 83  1  0  0  0  0
 27 84  1  0  0  0  0
 28 64  2  0  0  0  0
 29 59  1  0  0  0  0
 29 65  1  0  0  0  0
 30 65  1  0  0  0  0
 30 72  1  0  0  0  0
 31 66  1  0  0  0  0
 31 70  1  0  0  0  0
 32 71  1  0  0  0  0
 32 76  2  0  0  0  0
 33 50  1  0  0  0  0
 33 73  1  0  0  0  0
 33 77  2  0  0  0  0
 34 61  1  0  0  0  0
 34 67  1  0  0  0  0
 34 78  2  0  0  0  0
 35 62  1  0  0  0  0
 35 74  1  0  0  0  0
 35 79  2  0  0  0  0
 36 68  1  0  0  0  0
 36 69  1  0  0  0  0
 36 80  2  0  0  0  0
 37 40  1  0  0  0  0
 38 50  1  0  0  0  0
 39 67  1  0  0  0  0
 40 42  1  0  0  0  0
 41 43  1  0  0  0  0
 41 45  1  0  0  0  0
 42 49  1  0  0  0  0
 43 51  1  0  0  0  0
 44 46  1  0  0  0  0
 44 52  1  0  0  0  0
 45 68  1  0  0  0  0
 46 69  1  0  0  0  0
 47 51  1  0  0  0  0
 47 68  1  0  0  0  0
 48 52  1  0  0  0  0
 48 69  1  0  0  0  0
 49 73  1  0  0  0  0
 50 67  1  0  0  0  0
 51 66  1  0  0  0  0
 52 72  1  0  0  0  0
 53 60  1  0  0  0  0
 54 62  1  0  0  0  0
 55 63  1  0  0  0  0
 56 63  1  0  0  0  0
 57 63  1  0  0  0  0
 58 75  1  0  0  0  0
 59 82  1  0  0  0  0
 60 65  1  0  0  0  0
 61 63  1  0  0  0  0
 61 74  1  0  0  0  0
 62 75  1  0  0  0  0
 64 66  1  0  0  0  0
M  CHG  1  75   1
M  ISO  4  36 100  59 101  69 100  82 101
M  END
> <Batch ID>
0191

> <Smiles>
CCn1c(NC2CC[100N:0]([100C:0](=O)N3CCCC(n4nc(-c5ccc(Oc6ccc(F)cc6F)cc5)c(C(N)=O)c4N)C3)C2)ccc1[101CH2:1][101O:1]c1ccc2c(c1)CN(C(=O)C(NC(=O)C(C)NC)C(C)(C)C)C(C(=O)NC1CCCc3ccccc31)C2

> <Shape>
0.292

> <Color>
0.087

> <Negative vol penalty>
0.000

$$$$

  -OEChem-04052323273D

 84 93  0     1  0  0  0  0  0999 V2000
  -17.2708  -30.4166   23.4036 C   0  0  0  0  0  0  0  0  0  0  0  0
  -18.6389  -30.5283   23.1773 C   0  0  0  0  0  0  0  0  0  0  0  0
  -24.7057  -13.9110   20.9759 C   0  0  0  0  0  0  0  0  0  0  0  0
  -27.0300  -13.2537   21.0248 C   0  0  0  0  0  0  0  0  0  0  0  0
  -16.6949  -29.1592   23.5796 C   0  0  0  0  0  0  0  0  0  0  0  0
  -19.4321  -29.3825   23.1279 C   0  0  0  0  0  0  0  0  0  0  0  0
  -24.3451  -28.4556   19.5911 C   0  0  0  0  0  0  0  0  0  0  0  0
  -24.3530  -12.6321   20.5452 C   0  0  0  0  0  0  0  0  0  0  0  0
  -26.6774  -11.9747   20.5942 C   0  0  0  0  0  0  0  0  0  0  0  0
  -25.7131  -28.5557   19.8409 C   0  0  0  0  0  0  0  0  0  0  0  0
  -23.9243   -9.5716   21.9173 C   0  0  0  0  0  0  0  0  0  0  0  0
  -22.8320   -8.9591   22.5314 C   0  0  0  0  0  0  0  0  0  0  0  0
  -25.8018  -26.1839   20.2721 C   0  0  0  0  0  0  0  0  0  0  0  0
  -21.7099   -8.8194   20.3963 C   0  0  0  0  0  0  0  0  0  0  0  0
  -32.4161  -26.1902   17.6479 C   0  0  0  0  0  0  0  0  0  0  0  0
  -26.0442  -14.2219   21.2156 C   0  0  0  0  0  0  0  0  0  0  0  0
  -26.5093  -15.9954   22.9893 C   0  0  0  0  0  0  0  0  0  0  0  0
  -17.4798  -27.9968   23.5227 C   0  0  0  0  0  0  0  0  0  0  0  0
  -23.6920  -27.2186   19.6907 C   0  0  0  0  0  0  0  0  0  0  0  0
  -18.8663  -28.1084   23.3046 C   0  0  0  0  0  0  0  0  0  0  0  0
  -24.4260  -26.0703   20.0205 C   0  0  0  0  0  0  0  0  0  0  0  0
  -25.3388  -11.6639   20.3544 C   0  0  0  0  0  0  0  0  0  0  0  0
  -26.4411  -27.4203   20.1843 C   0  0  0  0  0  0  0  0  0  0  0  0
  -23.9095   -9.8082   20.5427 C   0  0  0  0  0  0  0  0  0  0  0  0
  -21.7248   -8.5830   21.7709 C   0  0  0  0  0  0  0  0  0  0  0  0
  -22.8023   -9.4321   19.7822 C   0  0  0  0  0  0  0  0  0  0  0  0
  -26.4092  -15.5430   21.6600 C   0  0  0  0  0  0  0  0  0  0  0  0
  -31.2818  -26.1733   18.4335 C   0  0  0  0  0  0  0  0  0  0  0  0
  -33.2814  -25.1301   17.8257 C   0  0  0  0  0  0  0  0  0  0  0  0
  -26.8848  -17.3117   22.8767 C   0  0  0  0  0  0  0  0  0  0  0  0
  -31.9246  -24.2227   19.4077 C   0  0  0  0  0  0  0  0  0  0  0  0
  -26.2832  -15.2888   24.2162 C   0  0  0  0  0  0  0  0  0  0  0  0
  -21.3564  -26.0550   21.5058 C   0  0  0  0  0  0  0  0  0  0  0  0
  -21.6498  -23.4812   19.5533 C   0  0  0  0  0  0  0  0  0  0  0  0
  -23.6089  -21.6625   17.4317 C   0  0  0  0  0  0  0  0  0  0  0  0
  -30.2465  -21.0620   20.6274 C   0  0  0  0  0  0  0  0  0  0  0  0
  -16.8199  -26.6626   23.7659 C   0  0  0  0  0  0  0  0  0  0  0  0
  -22.2210  -27.1228   19.3919 C   0  0  0  0  0  0  0  0  0  0  0  0
  -23.7759  -24.7154   20.1208 C   0  0  0  0  0  0  0  0  0  0  0  0
  -17.6700  -25.4734   23.3261 C   0  0  0  0  0  0  0  0  0  0  0  0
  -27.0643  -20.3681   18.8751 C   0  0  0  0  0  0  0  0  0  0  0  0
  -19.1056  -25.6331   23.8162 C   0  0  0  0  0  0  0  0  0  0  0  0
  -26.6571  -19.0483   19.5224 C   0  0  0  0  0  0  0  0  0  0  0  0
  -30.7698  -28.7074   18.4643 C   0  0  0  0  0  0  0  0  0  0  0  0
  -28.5816  -20.5072   18.7566 C   0  0  0  0  0  0  0  0  0  0  0  0
  -28.8883  -18.9965   20.7005 C   0  0  0  0  0  0  0  0  0  0  0  0
  -19.7560  -26.8871   23.2195 C   0  0  1  0  0  0  0  0  0  0  0  0
  -30.3008  -27.2776   18.3032 C   0  0  2  0  0  0  0  0  0  0  0  0
  -21.5610  -25.9018   20.0251 C   0  0  1  0  0  0  0  0  0  0  0  0
  -29.9234  -28.0795   19.5313 C   0  0  2  0  0  0  0  0  0  0  0  0
  -27.3674  -18.8663   20.8720 C   0  0  2  0  0  0  0  0  0  0  0  0
  -34.3412  -24.3097   15.7066 C   0  0  0  0  0  0  0  0  0  0  0  0
  -23.5854  -19.5884   16.0193 C   0  0  0  0  0  0  0  0  0  0  0  0
  -21.9732  -21.7730   22.0608 C   0  0  0  0  0  0  0  0  0  0  0  0
  -22.8763  -19.9415   20.6122 C   0  0  0  0  0  0  0  0  0  0  0  0
  -20.5410  -20.7540   20.2818 C   0  0  0  0  0  0  0  0  0  0  0  0
  -24.0640  -23.2080   14.9492 C   0  0  0  0  0  0  0  0  0  0  0  0
  -34.5356  -25.0615   17.0207 C   0  0  0  0  0  0  0  0  0  0  0  0
  -31.6517  -23.1301   20.3850 C   0  0  0  0  0  0  0  0  0  0  0  0
  -28.4936  -28.5336   19.7330 C   0  0  0  0  0  0  0  0  0  1  0  0
  -22.4750  -22.2172   19.5674 C   0  0  1  0  0  0  0  0  0  0  0  0
  -23.3375  -21.0884   16.0529 C   0  0  2  0  0  0  0  0  0  0  0  0
  -21.9785  -21.1971   20.6306 C   0  0  0  0  0  0  0  0  0  0  0  0
  -26.6976  -16.4947   20.7683 N   0  0  0  0  0  0  0  0  0  0  0  0
  -31.0033  -25.2015   19.3271 N   0  0  0  0  0  0  0  0  0  0  0  0
  -33.0663  -24.1254   18.7001 N   0  0  0  0  0  0  0  0  0  0  0  0
  -26.9827  -17.5583   21.5389 N   0  0  0  0  0  0  0  0  0  0  0  0
  -22.3341  -24.6743   19.8256 N   0  0  0  0  0  0  0  0  0  0  0  0
  -29.2537  -20.2564   20.0415 N   0  0  0  0  0  0  0  0  0  0  0  0
  -27.1375  -18.2708   23.7925 N   0  0  0  0  0  0  0  0  0  0  0  0
  -25.9028  -13.9415   24.1510 N   0  0  0  0  0  0  0  0  0  0  0  0
  -20.1556  -26.6460   21.8496 N   0  0  0  0  0  0  0  0  0  0  0  0
  -22.4650  -21.7079   18.2003 N   0  0  0  0  0  0  0  0  0  0  0  0
  -30.6171  -22.1916   19.9043 N   0  0  0  0  0  0  0  0  0  0  0  0
  -24.2203  -21.7335   15.0403 N   0  3  0  0  0  0  0  0  0  0  0  0
  -26.3987  -15.8406   25.3368 O   0  0  0  0  0  0  0  0  0  0  0  0
  -22.2231  -25.6644   22.2790 O   0  0  0  0  0  0  0  0  0  0  0  0
  -20.4439  -23.4134   19.3026 O   0  0  0  0  0  0  0  0  0  0  0  0
  -24.7249  -22.0302   17.7923 O   0  0  0  0  0  0  0  0  0  0  0  0
  -30.7739  -20.7960   21.7128 O   0  0  0  0  0  0  0  0  0  0  0  0
  -24.9951  -10.4157   19.9344 O   0  0  0  0  0  0  0  0  0  0  0  0
  -27.7763  -27.5153   20.4293 O   0  0  0  0  0  0  0  0  0  1  0  0
  -20.6765   -7.9933   22.3605 F   0  0  0  0  0  0  0  0  0  0  0  0
  -22.7828   -9.6556   18.4610 F   0  0  0  0  0  0  0  0  0  0  0  0
  1  2  1  0  0  0  0
  1  5  2  0  0  0  0
  2  6  2  0  0  0  0
  3  8  2  0  0  0  0
  3 16  1  0  0  0  0
  4  9  1  0  0  0  0
  4 16  2  0  0  0  0
  5 18  1  0  0  0  0
  6 20  1  0  0  0  0
  7 10  2  0  0  0  0
  7 19  1  0  0  0  0
  8 22  1  0  0  0  0
  9 22  2  0  0  0  0
 10 23  1  0  0  0  0
 11 12  2  0  0  0  0
 11 24  1  0  0  0  0
 12 25  1  0  0  0  0
 13 21  1  0  0  0  0
 13 23  2  0  0  0  0
 14 25  2  0  0  0  0
 14 26  1  0  0  0  0
 15 28  2  0  0  0  0
 15 29  1  0  0  0  0
 16 27  1  0  0  0  0
 17 27  1  0  0  0  0
 17 30  2  0  0  0  0
 17 32  1  0  0  0  0
 18 20  2  0  0  0  0
 18 37  1  0  0  0  0
 19 21  2  0  0  0  0
 19 38  1  0  0  0  0
 20 47  1  0  0  0  0
 21 39  1  0  0  0  0
 22 81  1  0  0  0  0
 23 82  1  0  0  0  0
 24 26  2  0  0  0  0
 24 81  1  0  0  0  0
 25 83  1  0  0  0  0
 26 84  1  0  0  0  0
 27 64  2  0  0  0  0
 28 48  1  0  0  0  0
 28 65  1  0  0  0  0
 29 58  1  0  0  0  0
 29 66  2  0  0  0  0
 30 67  1  0  0  0  0
 30 70  1  0  0  0  0
 31 59  1  0  0  0  0
 31 65  2  0  0  0  0
 31 66  1  0  0  0  0
 32 71  1  0  0  0  0
 32 76  2  0  0  0  0
 33 49  1  0  0  0  0
 33 72  1  0  0  0  0
 33 77  2  0  0  0  0
 34 61  1  0  0  0  0
 34 68  1  0  0  0  0
 34 78  2  0  0  0  0
 35 62  1  0  0  0  0
 35 73  1  0  0  0  0
 35 79  2  0  0  0  0
 36 69  1  0  0  0  0
 36 74  1  0  0  0  0
 36 80  2  0  0  0  0
 37 40  1  0  0  0  0
 38 49  1  0  0  0  0
 39 68  1  0  0  0  0
 40 42  1  0  0  0  0
 41 43  1  0  0  0  0
 41 45  1  0  0  0  0
 42 47  1  0  0  0  0
 43 51  1  0  0  0  0
 44 48  1  0  0  0  0
 44 50  1  0  0  0  0
 45 69  1  0  0  0  0
 46 51  1  0  0  0  0
 46 69  1  0  0  0  0
 47 72  1  0  0  0  0
 48 50  1  0  0  0  0
 49 68  1  0  0  0  0
 50 60  1  0  0  0  0
 51 67  1  0  0  0  0
 52 58  1  0  0  0  0
 53 62  1  0  0  0  0
 54 63  1  0  0  0  0
 55 63  1  0  0  0  0
 56 63  1  0  0  0  0
 57 75  1  0  0  0  0
 59 74  1  0  0  0  0
 60 82  1  0  0  0  0
 61 63  1  0  0  0  0
 61 73  1  0  0  0  0
 62 75  1  0  0  0  0
 64 67  1  0  0  0  0
M  CHG  1  75   1
M  ISO  4  36 100  60 101  74 100  82 101
M  END
> <Batch ID>
0191

> <Smiles>
CCc1cc(C2CC2[101CH2:1][101O:1]c2ccc3c(c2)CN(C(=O)C(NC(=O)C(C)NC)C(C)(C)C)C(C(=O)NC2CCCc4ccccc42)C3)nc(C[100NH:0][100C:0](=O)N2CCCC(n3nc(-c4ccc(Oc5ccc(F)cc5F)cc4)c(C(N)=O)c3N)C2)n1

> <Shape>
0.223

> <Color>
0.078

> <Negative vol penalty>
0.000

$$$$

  -OEChem-04052323273D

 87 97  0     1  0  0  0  0  0999 V2000
  -23.8276  -34.3501   27.5816 C   0  0  0  0  0  0  0  0  0  0  0  0
  -24.7994  -33.6611   26.8632 C   0  0  0  0  0  0  0  0  0  0  0  0
  -22.5490  -10.5103   21.6845 C   0  0  0  0  0  0  0  0  0  0  0  0
  -24.5760   -9.2001   21.7923 C   0  0  0  0  0  0  0  0  0  0  0  0
  -22.5211  -33.8654   27.6269 C   0  0  0  0  0  0  0  0  0  0  0  0
  -24.4656  -32.4862   26.1905 C   0  0  0  0  0  0  0  0  0  0  0  0
  -26.3936  -32.3120   21.5110 C   0  0  0  0  0  0  0  0  0  0  0  0
  -21.8136   -9.3519   21.4336 C   0  0  0  0  0  0  0  0  0  0  0  0
  -23.8407   -8.0417   21.5415 C   0  0  0  0  0  0  0  0  0  0  0  0
  -27.7444  -31.9885   21.3906 C   0  0  0  0  0  0  0  0  0  0  0  0
  -21.8527   -5.9306   23.2769 C   0  0  0  0  0  0  0  0  0  0  0  0
  -22.1268   -4.8087   24.0590 C   0  0  0  0  0  0  0  0  0  0  0  0
  -27.1450  -29.7203   20.8294 C   0  0  0  0  0  0  0  0  0  0  0  0
  -22.7235   -3.5697   22.0726 C   0  0  0  0  0  0  0  0  0  0  0  0
  -30.9612  -25.7237   20.1062 C   0  0  0  0  0  0  0  0  0  0  0  0
  -23.9302  -10.4344   21.8638 C   0  0  0  0  0  0  0  0  0  0  0  0
  -24.9881  -12.1941   23.3778 C   0  0  0  0  0  0  0  0  0  0  0  0
  -22.1688  -32.6891   26.9464 C   0  0  0  0  0  0  0  0  0  0  0  0
  -25.4070  -31.3376   21.3019 C   0  0  0  0  0  0  0  0  0  0  0  0
  -23.1534  -31.9845   26.2278 C   0  0  0  0  0  0  0  0  0  0  0  0
  -25.7824  -30.0345   20.9453 C   0  0  0  0  0  0  0  0  0  0  0  0
  -22.4594   -8.1176   21.3621 C   0  0  0  0  0  0  0  0  0  0  0  0
  -28.1204  -30.6918   21.0525 C   0  0  0  0  0  0  0  0  0  0  0  0
  -22.0139   -5.8721   21.8926 C   0  0  0  0  0  0  0  0  0  0  0  0
  -22.5622   -3.6283   23.4569 C   0  0  0  0  0  0  0  0  0  0  0  0
  -22.4494   -4.6917   21.2905 C   0  0  0  0  0  0  0  0  0  0  0  0
  -24.6905  -11.6307   22.1225 C   0  0  0  0  0  0  0  0  0  0  0  0
  -30.0662  -26.7649   19.9959 C   0  0  0  0  0  0  0  0  0  0  0  0
  -29.5207  -24.3643   18.9630 C   0  0  0  0  0  0  0  0  0  0  0  0
  -28.6253  -25.4053   18.8534 C   0  0  0  0  0  0  0  0  0  0  0  0
  -25.7282  -13.3135   23.0851 C   0  0  0  0  0  0  0  0  0  0  0  0
  -24.6278  -11.7456   24.6911 C   0  0  0  0  0  0  0  0  0  0  0  0
  -23.1365  -30.0231   23.0964 C   0  0  0  0  0  0  0  0  0  0  0  0
  -22.2932  -28.6054   20.3033 C   0  0  0  0  0  0  0  0  0  0  0  0
  -23.2211  -27.5550   17.1916 C   0  0  0  0  0  0  0  0  0  0  0  0
  -26.1454  -17.9282   19.9509 C   0  0  0  0  0  0  0  0  0  0  0  0
  -20.7545  -32.1786   27.0635 C   0  0  0  0  0  0  0  0  0  0  0  0
  -23.9535  -31.7091   21.4095 C   0  0  0  0  0  0  0  0  0  0  0  0
  -24.7615  -28.9569   20.6904 C   0  0  0  0  0  0  0  0  0  0  0  0
  -20.3972  -31.1285   26.0147 C   0  0  0  0  0  0  0  0  0  0  0  0
  -27.8186  -14.8457   18.7451 C   0  0  0  0  0  0  0  0  0  0  0  0
  -21.5024  -30.0825   25.9086 C   0  0  0  0  0  0  0  0  0  0  0  0
  -27.1364  -13.7789   19.6027 C   0  0  0  0  0  0  0  0  0  0  0  0
  -29.1124  -19.9195   19.0886 C   0  0  0  0  0  0  0  0  0  0  0  0
  -31.2201  -29.0668   19.7828 C   0  0  0  0  0  0  0  0  0  0  0  0
  -26.8757  -16.0103   18.4720 C   0  0  0  0  0  0  0  0  0  0  0  0
  -28.4289  -18.5608   18.9711 C   0  0  0  0  0  0  0  0  0  0  0  0
  -25.6353  -15.5914   20.5607 C   0  0  0  0  0  0  0  0  0  0  0  0
  -26.7684  -20.2545   19.3626 C   0  0  0  0  0  0  0  0  0  0  0  0
  -22.8245  -30.7198   25.4646 C   0  0  1  0  0  0  0  0  0  0  0  0
  -30.3945  -28.0927   20.5843 C   0  0  1  0  0  0  0  0  0  0  0  0
  -23.0487  -30.5105   21.6778 C   0  0  1  0  0  0  0  0  0  0  0  0
  -26.5424  -14.3909   20.8844 C   0  0  1  0  0  0  0  0  0  0  0  0
  -27.9877  -20.8666   18.6978 C   0  0  1  0  0  0  0  0  0  0  0  0
  -29.7613  -29.3314   19.9977 C   0  0  1  0  0  0  0  0  0  1  0  0
  -22.3234  -26.3968   15.1544 C   0  0  0  0  0  0  0  0  0  0  0  0
  -22.4470  -25.9288   21.7602 C   0  0  0  0  0  0  0  0  0  0  0  0
  -22.4874  -24.7953   19.5282 C   0  0  0  0  0  0  0  0  0  0  0  0
  -20.5072  -26.1564   20.1982 C   0  0  0  0  0  0  0  0  0  0  0  0
  -23.7483  -29.9098   15.4782 C   0  0  0  0  0  0  0  0  0  0  0  0
  -29.2335  -23.0091   18.3871 C   0  0  0  0  0  0  0  0  0  0  0  0
  -22.6682  -27.3238   19.5990 C   0  0  1  0  0  0  0  0  0  0  0  0
  -22.5706  -27.7357   15.8320 C   0  0  2  0  0  0  0  0  0  0  0  0
  -22.0470  -26.0707   20.2781 C   0  0  0  0  0  0  0  0  0  0  0  0
  -30.7046  -24.5047   19.5917 N   0  0  0  0  0  0  0  0  0  0  0  0
  -25.1998  -12.3343   21.1078 N   0  0  0  0  0  0  0  0  0  0  0  0
  -28.8821  -26.6244   19.3675 N   0  0  0  0  0  0  0  0  0  0  0  0
  -25.8248  -13.3513   21.7251 N   0  0  0  0  0  0  0  0  0  0  0  0
  -23.3532  -29.3679   20.8141 N   0  0  0  0  0  0  0  0  0  0  0  0
  -26.3393  -16.5617   19.7195 N   0  0  0  0  0  0  0  0  0  0  0  0
  -27.0352  -18.8171   19.3495 N   0  0  0  0  0  0  0  0  0  0  0  0
  -26.2991  -14.2593   23.8608 N   0  0  0  0  0  0  0  0  0  0  0  0
  -23.8647  -10.5762   24.8118 N   0  0  0  0  0  0  0  0  0  0  0  0
  -22.8083  -30.9773   24.0405 N   0  0  0  0  0  0  0  0  0  0  0  0
  -22.2848  -27.4985   18.2023 N   0  0  0  0  0  0  0  0  0  0  0  0
  -28.2414  -22.2315   19.1875 N   0  3  0  0  0  0  0  0  0  0  0  0
  -23.4428  -28.5570   14.9456 N   0  3  0  0  0  0  0  0  0  0  0  0
  -24.9585  -12.3724   25.7261 O   0  0  0  0  0  0  0  0  0  0  0  0
  -23.4753  -28.8664   23.3180 O   0  0  0  0  0  0  0  0  0  0  0  0
  -21.1042  -28.9218   20.3906 O   0  0  0  0  0  0  0  0  0  0  0  0
  -24.4378  -27.4686   17.3418 O   0  0  0  0  0  0  0  0  0  0  0  0
  -25.2475  -18.3339   20.7006 O   0  0  0  0  0  0  0  0  0  0  0  0
  -21.7421   -6.9871   21.1175 O   0  0  0  0  0  0  0  0  0  0  0  0
  -29.4409  -30.3726   20.9347 O   0  0  0  0  0  0  0  0  0  1  0  0
  -22.8269   -2.5514   24.2082 F   0  0  0  0  0  0  0  0  0  0  0  0
  -22.6073   -4.6297   19.9612 F   0  0  0  0  0  0  0  0  0  0  0  0
  -27.1111  -25.2697   18.0606 Cl  0  0  0  0  0  0  0  0  0  0  0  0
  1  2  1  0  0  0  0
  1  5  2  0  0  0  0
  2  6  2  0  0  0  0
  3  8  2  0  0  0  0
  3 16  1  0  0  0  0
  4  9  1  0  0  0  0
  4 16  2  0  0  0  0
  5 18  1  0  0  0  0
  6 20  1  0  0  0  0
  7 10  2  0  0  0  0
  7 19  1  0  0  0  0
  8 22  1  0  0  0  0
  9 22  2  0  0  0  0
 10 23  1  0  0  0  0
 11 12  2  0  0  0  0
 11 24  1  0  0  0  0
 12 25  1  0  0  0  0
 13 21  1  0  0  0  0
 13 23  2  0  0  0  0
 14 25  2  0  0  0  0
 14 26  1  0  0  0  0
 15 28  1  0  0  0  0
 15 65  2  0  0  0  0
 16 27  1  0  0  0  0
 17 27  1  0  0  0  0
 17 31  2  0  0  0  0
 17 32  1  0  0  0  0
 18 20  2  0  0  0  0
 18 37  1  0  0  0  0
 19 21  2  0  0  0  0
 19 38  1  0  0  0  0
 20 50  1  0  0  0  0
 21 39  1  0  0  0  0
 22 83  1  0  0  0  0
 23 84  1  0  0  0  0
 24 26  2  0  0  0  0
 24 83  1  0  0  0  0
 25 85  1  0  0  0  0
 26 86  1  0  0  0  0
 27 66  2  0  0  0  0
 28 51  1  0  0  0  0
 28 67  2  0  0  0  0
 29 30  2  0  0  0  0
 29 61  1  0  0  0  0
 29 65  1  0  0  0  0
 30 67  1  0  0  0  0
 30 87  1  0  0  0  0
 31 68  1  0  0  0  0
 31 72  1  0  0  0  0
 32 73  1  0  0  0  0
 32 78  2  0  0  0  0
 33 52  1  0  0  0  0
 33 74  1  0  0  0  0
 33 79  2  0  0  0  0
 34 62  1  0  0  0  0
 34 69  1  0  0  0  0
 34 80  2  0  0  0  0
 35 63  1  0  0  0  0
 35 75  1  0  0  0  0
 35 81  2  0  0  0  0
 36 70  1  0  0  0  0
 36 71  1  0  0  0  0
 36 82  2  0  0  0  0
 37 40  1  0  0  0  0
 38 52  1  0  0  0  0
 39 69  1  0  0  0  0
 40 42  1  0  0  0  0
 41 43  1  0  0  0  0
 41 46  1  0  0  0  0
 42 50  1  0  0  0  0
 43 53  1  0  0  0  0
 44 47  1  0  0  0  0
 44 54  1  0  0  0  0
 45 51  1  0  0  0  0
 45 55  1  0  0  0  0
 46 70  1  0  0  0  0
 47 71  1  0  0  0  0
 48 53  1  0  0  0  0
 48 70  1  0  0  0  0
 49 54  1  0  0  0  0
 49 71  1  0  0  0  0
 50 74  1  0  0  0  0
 51 55  1  0  0  0  0
 52 69  1  0  0  0  0
 53 68  1  0  0  0  0
 54 76  1  0  0  0  0
 55 84  1  0  0  0  0
 56 63  1  0  0  0  0
 57 64  1  0  0  0  0
 58 64  1  0  0  0  0
 59 64  1  0  0  0  0
 60 77  1  0  0  0  0
 61 76  1  0  0  0  0
 62 64  1  0  0  0  0
 62 75  1  0  0  0  0
 63 77  1  0  0  0  0
 66 68  1  0  0  0  0
M  CHG  2  76   1  77   1
M  ISO  4  36 100  55 101  71 100  84 101
M  END
> <Batch ID>
0191

> <Smiles>
CNC(C)C(=O)NC(C(=O)N1Cc2cc([101O:1][101CH:1]3CC3c3cnc(CNC4CC[100N:0]([100C:0](=O)N5CCCC(n6nc(-c7ccc(Oc8ccc(F)cc8F)cc7)c(C(N)=O)c6N)C5)C4)c(Cl)n3)ccc2CC1C(=O)NC1CCCc2ccccc21)C(C)(C)C

> <Shape>
0.259

> <Color>
0.098

> <Negative vol penalty>
0.000

$$$$

  -OEChem-04052323273D

 86 96  0     1  0  0  0  0  0999 V2000
  -29.0207  -36.4630   18.7188 C   0  0  0  0  0  0  0  0  0  0  0  0
  -29.1992  -35.0890   18.5938 C   0  0  0  0  0  0  0  0  0  0  0  0
  -23.1667   -9.9353   21.5456 C   0  0  0  0  0  0  0  0  0  0  0  0
  -23.8840  -10.9768   23.6042 C   0  0  0  0  0  0  0  0  0  0  0  0
  -28.4863  -36.9914   19.8931 C   0  0  0  0  0  0  0  0  0  0  0  0
  -28.8444  -34.2426   19.6436 C   0  0  0  0  0  0  0  0  0  0  0  0
  -26.5427  -28.5852   19.1943 C   0  0  0  0  0  0  0  0  0  0  0  0
  -22.4699   -8.9724   22.2754 C   0  0  0  0  0  0  0  0  0  0  0  0
  -23.1871  -10.0138   24.3341 C   0  0  0  0  0  0  0  0  0  0  0  0
  -27.1290  -27.3238   19.2880 C   0  0  0  0  0  0  0  0  0  0  0  0
  -23.1821   -6.1434   23.9825 C   0  0  0  0  0  0  0  0  0  0  0  0
  -23.3112   -4.8122   23.5865 C   0  0  0  0  0  0  0  0  0  0  0  0
  -26.4871  -27.2045   21.6103 C   0  0  0  0  0  0  0  0  0  0  0  0
  -20.9284   -4.6949   23.2046 C   0  0  0  0  0  0  0  0  0  0  0  0
  -28.6243  -21.2438   19.4954 C   0  0  0  0  0  0  0  0  0  0  0  0
  -23.8738  -10.9375   22.2099 C   0  0  0  0  0  0  0  0  0  0  0  0
  -24.1065  -13.1712   20.9999 C   0  0  0  0  0  0  0  0  0  0  0  0
  -28.1157  -36.1502   20.9542 C   0  0  0  0  0  0  0  0  0  0  0  0
  -25.9326  -29.1714   20.3126 C   0  0  0  0  0  0  0  0  0  0  0  0
  -28.3058  -34.7603   20.8338 C   0  0  0  0  0  0  0  0  0  0  0  0
  -25.8914  -28.4723   21.5275 C   0  0  0  0  0  0  0  0  0  0  0  0
  -22.4800   -9.0117   23.6697 C   0  0  0  0  0  0  0  0  0  0  0  0
  -27.1039  -26.6345   20.4968 C   0  0  0  0  0  0  0  0  0  0  0  0
  -21.9262   -6.7504   23.9896 C   0  0  0  0  0  0  0  0  0  0  0  0
  -22.1843   -4.0880   23.1976 C   0  0  0  0  0  0  0  0  0  0  0  0
  -20.7994   -6.0261   23.6006 C   0  0  0  0  0  0  0  0  0  0  0  0
  -24.5944  -11.9321   21.4565 C   0  0  0  0  0  0  0  0  0  0  0  0
  -29.9818  -23.3385   20.4425 C   0  0  0  0  0  0  0  0  0  0  0  0
  -28.8284  -23.5114   19.7096 C   0  0  0  0  0  0  0  0  0  0  0  0
  -29.7781  -21.0708   20.2277 C   0  0  0  0  0  0  0  0  0  0  0  0
  -25.1710  -13.7384   20.3431 C   0  0  0  0  0  0  0  0  0  0  0  0
  -22.8072  -13.7571   21.1557 C   0  0  0  0  0  0  0  0  0  0  0  0
  -26.4413  -31.8008   22.0246 C   0  0  0  0  0  0  0  0  0  0  0  0
  -23.6927  -30.9051   23.4962 C   0  0  0  0  0  0  0  0  0  0  0  0
  -21.5245  -28.3973   24.3064 C   0  0  0  0  0  0  0  0  0  0  0  0
  -30.6003  -14.9967   20.0524 C   0  0  0  0  0  0  0  0  0  0  0  0
  -27.5861  -36.7715   22.2222 C   0  0  0  0  0  0  0  0  0  0  0  0
  -25.2811  -30.5213   20.1881 C   0  0  0  0  0  0  0  0  0  0  0  0
  -25.2311  -29.0490   22.7522 C   0  0  0  0  0  0  0  0  0  0  0  0
  -26.8873  -35.7747   23.1432 C   0  0  0  0  0  0  0  0  0  0  0  0
  -29.6120  -11.7595   18.9475 C   0  0  0  0  0  0  0  0  0  0  0  0
  -27.7242  -34.5081   23.2922 C   0  0  0  0  0  0  0  0  0  0  0  0
  -31.6037  -24.3359   22.1885 C   0  0  0  0  0  0  0  0  0  0  0  0
  -30.3285  -25.1132   22.2887 C   0  0  0  0  0  0  0  0  0  0  0  0
  -28.1813  -11.6159   19.4693 C   0  0  0  0  0  0  0  0  0  0  0  0
  -31.3178  -17.9506   21.4516 C   0  0  0  0  0  0  0  0  0  0  0  0
  -30.4967  -12.5247   19.9293 C   0  0  0  0  0  0  0  0  0  0  0  0
  -31.4228  -19.4580   21.2211 C   0  0  0  0  0  0  0  0  0  0  0  0
  -28.5399  -13.6957   20.8638 C   0  0  0  0  0  0  0  0  0  0  0  0
  -29.5232  -18.5836   20.0027 C   0  0  0  0  0  0  0  0  0  0  0  0
  -27.9100  -33.8075   21.9409 C   0  0  1  0  0  0  0  0  0  0  0  0
  -30.7369  -24.5120   20.9696 C   0  0  0  0  0  0  0  0  0  0  0  0
  -25.1391  -31.2419   21.5253 C   0  0  1  0  0  0  0  0  0  0  0  0
  -27.5958  -12.9795   19.8830 C   0  0  2  0  0  0  0  0  0  0  0  0
  -30.5492  -17.4717   20.2277 C   0  0  2  0  0  0  0  0  0  0  0  0
  -19.3872  -27.9659   25.5486 C   0  0  0  0  0  0  0  0  0  0  0  0
  -25.1974  -31.0895   26.1442 C   0  0  0  0  0  0  0  0  0  0  0  0
  -23.3556  -29.7649   27.2030 C   0  0  0  0  0  0  0  0  0  0  0  0
  -22.8679  -31.9974   26.2026 C   0  0  0  0  0  0  0  0  0  0  0  0
  -20.1557  -27.4547   21.8576 C   0  0  0  0  0  0  0  0  0  0  0  0
  -28.2847  -24.8780   19.4123 C   0  0  0  0  0  0  0  0  0  1  0  0
  -23.3489  -30.0360   24.6816 C   0  0  1  0  0  0  0  0  0  0  0  0
  -20.0131  -28.3001   24.2035 C   0  0  2  0  0  0  0  0  0  0  0  0
  -23.7067  -30.7116   26.0355 C   0  0  0  0  0  0  0  0  0  0  0  0
  -28.1287  -22.4673   19.2232 N   0  0  0  0  0  0  0  0  0  0  0  0
  -25.8696  -11.7238   21.1182 N   0  0  0  0  0  0  0  0  0  0  0  0
  -30.4776  -22.1150   20.7144 N   0  0  0  0  0  0  0  0  0  0  0  0
  -26.1920  -12.8395   20.4420 N   0  0  0  0  0  0  0  0  0  0  0  0
  -30.2177  -19.7853   20.4617 N   0  0  3  0  0  0  0  0  0  0  0  0
  -24.6136  -30.3746   22.5817 N   0  0  0  0  0  0  0  0  0  0  0  0
  -29.8855  -13.8091   20.2797 N   0  0  0  0  0  0  0  0  0  0  0  0
  -25.3240  -14.9134   19.6962 N   0  0  0  0  0  0  0  0  0  0  0  0
  -21.8302  -13.0387   21.8586 N   0  0  0  0  0  0  0  0  0  0  0  0
  -26.7118  -33.0807   21.5795 N   0  0  0  0  0  0  0  0  0  0  0  0
  -21.9383  -29.6917   24.5399 N   0  0  0  0  0  0  0  0  0  0  0  0
  -29.9458  -16.1700   20.4070 N   0  0  0  0  0  0  0  0  0  0  0  0
  -19.6273  -27.2404   23.2293 N   0  3  0  0  0  0  0  0  0  0  0  0
  -22.5160  -14.8770   20.6714 O   0  0  0  0  0  0  0  0  0  0  0  0
  -27.1477  -31.1217   22.7606 O   0  0  0  0  0  0  0  0  0  0  0  0
  -23.1584  -32.0110   23.3819 O   0  0  0  0  0  0  0  0  0  0  0  0
  -22.2639  -27.4219   24.1947 O   0  0  0  0  0  0  0  0  0  0  0  0
  -31.7355  -15.0107   19.5644 O   0  0  0  0  0  0  0  0  0  0  0  0
  -21.7999   -8.0723   24.3823 O   0  0  0  0  0  0  0  0  0  0  0  0
  -27.6760  -25.4034   20.5912 O   0  0  0  0  0  0  0  0  0  1  0  0
  -22.3086   -2.8101   22.8158 F   0  0  0  0  0  0  0  0  0  0  0  0
  -19.5904   -6.6042   23.6043 F   0  0  0  0  0  0  0  0  0  0  0  0
  1  2  1  0  0  0  0
  1  5  2  0  0  0  0
  2  6  2  0  0  0  0
  3  8  2  0  0  0  0
  3 16  1  0  0  0  0
  4  9  1  0  0  0  0
  4 16  2  0  0  0  0
  5 18  1  0  0  0  0
  6 20  1  0  0  0  0
  7 10  2  0  0  0  0
  7 19  1  0  0  0  0
  8 22  1  0  0  0  0
  9 22  2  0  0  0  0
 10 23  1  0  0  0  0
 11 12  2  0  0  0  0
 11 24  1  0  0  0  0
 12 25  1  0  0  0  0
 13 21  1  0  0  0  0
 13 23  2  0  0  0  0
 14 25  2  0  0  0  0
 14 26  1  0  0  0  0
 15 30  1  0  0  0  0
 15 65  2  0  0  0  0
 16 27  1  0  0  0  0
 17 27  1  0  0  0  0
 17 31  2  0  0  0  0
 17 32  1  0  0  0  0
 18 20  2  0  0  0  0
 18 37  1  0  0  0  0
 19 21  2  0  0  0  0
 19 38  1  0  0  0  0
 20 51  1  0  0  0  0
 21 39  1  0  0  0  0
 22 83  1  0  0  0  0
 23 84  1  0  0  0  0
 24 26  2  0  0  0  0
 24 83  1  0  0  0  0
 25 85  1  0  0  0  0
 26 86  1  0  0  0  0
 27 66  2  0  0  0  0
 28 29  2  0  0  0  0
 28 52  1  0  0  0  0
 28 67  1  0  0  0  0
 29 61  1  0  0  0  0
 29 65  1  0  0  0  0
 30 67  2  0  0  0  0
 30 69  1  0  0  0  0
 31 68  1  0  0  0  0
 31 72  1  0  0  0  0
 32 73  1  0  0  0  0
 32 78  2  0  0  0  0
 33 53  1  0  0  0  0
 33 74  1  0  0  0  0
 33 79  2  0  0  0  0
 34 62  1  0  0  0  0
 34 70  1  0  0  0  0
 34 80  2  0  0  0  0
 35 63  1  0  0  0  0
 35 75  1  0  0  0  0
 35 81  2  0  0  0  0
 36 71  1  0  0  0  0
 36 76  1  0  0  0  0
 36 82  2  0  0  0  0
 37 40  1  0  0  0  0
 38 53  1  0  0  0  0
 39 70  1  0  0  0  0
 40 42  1  0  0  0  0
 41 45  1  0  0  0  0
 41 47  1  0  0  0  0
 42 51  1  0  0  0  0
 43 44  1  0  0  0  0
 43 52  1  0  0  0  0
 44 52  1  0  0  0  0
 45 54  1  0  0  0  0
 46 48  1  0  0  0  0
 46 55  1  0  0  0  0
 47 71  1  0  0  0  0
 48 69  1  0  0  0  0
 49 54  1  0  0  0  0
 49 71  1  0  0  0  0
 50 55  1  0  0  0  0
 50 69  1  0  0  0  0
 51 74  1  0  0  0  0
 53 70  1  0  0  0  0
 54 68  1  0  0  0  0
 55 76  1  0  0  0  0
 56 63  1  0  0  0  0
 57 64  1  0  0  0  0
 58 64  1  0  0  0  0
 59 64  1  0  0  0  0
 60 77  1  0  0  0  0
 61 84  1  0  0  0  0
 62 64  1  0  0  0  0
 62 75  1  0  0  0  0
 63 77  1  0  0  0  0
 66 68  1  0  0  0  0
M  CHG  1  77   1
M  ISO  4  36 100  61 101  76 100  84 101
M  END
> <Batch ID>
0191

> <Smiles>
CNC(C)C(=O)NC(C(=O)N1Cc2cc([101O:1][101CH2:1]c3ncc(N4CCC([100NH:0][100C:0](=O)N5CCCC(n6nc(-c7ccc(Oc8ccc(F)cc8F)cc7)c(C(N)=O)c6N)C5)C4)nc3C3CC3)ccc2CC1C(=O)NC1CCCc2ccccc21)C(C)(C)C

> <Shape>
0.335

> <Color>
0.196

> <Negative vol penalty>
0.000

$$$$

  -OEChem-04052323273D

 85 94  0     1  0  0  0  0  0999 V2000
  -29.4613  -35.2683   23.8057 C   0  0  0  0  0  0  0  0  0  0  0  0
  -29.8438  -34.4528   22.7455 C   0  0  0  0  0  0  0  0  0  0  0  0
  -22.8404  -15.3163   19.9654 C   0  0  0  0  0  0  0  0  0  0  0  0
  -22.5310  -13.3012   18.6690 C   0  0  0  0  0  0  0  0  0  0  0  0
  -28.6888  -34.7458   24.8421 C   0  0  0  0  0  0  0  0  0  0  0  0
  -29.4547  -33.1139   22.7216 C   0  0  0  0  0  0  0  0  0  0  0  0
  -27.6622  -27.9021   18.1456 C   0  0  0  0  0  0  0  0  0  0  0  0
  -21.7543  -15.9017   19.3148 C   0  0  0  0  0  0  0  0  0  0  0  0
  -21.4448  -13.8865   18.0184 C   0  0  0  0  0  0  0  0  0  0  0  0
  -27.9912  -26.5841   17.8317 C   0  0  0  0  0  0  0  0  0  0  0  0
  -21.1346  -17.3768   16.3375 C   0  0  0  0  0  0  0  0  0  0  0  0
  -21.2794  -18.6896   15.8891 C   0  0  0  0  0  0  0  0  0  0  0  0
  -26.5905  -25.8109   19.6371 C   0  0  0  0  0  0  0  0  0  0  0  0
  -19.4322  -19.3716   17.2890 C   0  0  0  0  0  0  0  0  0  0  0  0
  -27.1905  -21.3417   17.4697 C   0  0  0  0  0  0  0  0  0  0  0  0
  -23.2288  -14.0160   19.6425 C   0  0  0  0  0  0  0  0  0  0  0  0
  -24.3242  -12.6522   21.4993 C   0  0  0  0  0  0  0  0  0  0  0  0
  -28.2819  -33.4023   24.8260 C   0  0  0  0  0  0  0  0  0  0  0  0
  -26.8020  -28.1853   19.2162 C   0  0  0  0  0  0  0  0  0  0  0  0
  -28.6771  -32.5727   23.7593 C   0  0  0  0  0  0  0  0  0  0  0  0
  -26.2501  -27.1332   19.9609 C   0  0  0  0  0  0  0  0  0  0  0  0
  -21.0565  -15.1868   18.3413 C   0  0  0  0  0  0  0  0  0  0  0  0
  -27.4576  -25.5384   18.5793 C   0  0  0  0  0  0  0  0  0  0  0  0
  -20.1385  -17.0613   17.2616 C   0  0  0  0  0  0  0  0  0  0  0  0
  -20.4283  -19.6870   16.3649 C   0  0  0  0  0  0  0  0  0  0  0  0
  -19.2873  -18.0587   17.7374 C   0  0  0  0  0  0  0  0  0  0  0  0
  -24.3510  -13.4110   20.3138 C   0  0  0  0  0  0  0  0  0  0  0  0
  -27.6863  -21.8933   18.6334 C   0  0  0  0  0  0  0  0  0  0  0  0
  -27.7001  -20.1048   17.1309 C   0  0  0  0  0  0  0  0  0  0  0  0
  -25.6363  -12.3095   21.7173 C   0  0  0  0  0  0  0  0  0  0  0  0
  -29.0268  -20.0899   18.9767 C   0  0  0  0  0  0  0  0  0  0  0  0
  -23.2127  -12.2896   22.3292 C   0  0  0  0  0  0  0  0  0  0  0  0
  -27.0793  -29.7703   21.9575 C   0  0  0  0  0  0  0  0  0  0  0  0
  -23.8952  -29.1868   22.1666 C   0  0  0  0  0  0  0  0  0  0  0  0
  -21.2390  -27.2480   21.2544 C   0  0  0  0  0  0  0  0  0  0  0  0
  -30.7964  -14.8919   19.8554 C   0  0  0  0  0  0  0  0  0  0  0  0
  -27.4871  -32.8706   25.9923 C   0  0  0  0  0  0  0  0  0  0  0  0
  -26.4359  -29.6112   19.5251 C   0  0  0  0  0  0  0  0  0  0  0  0
  -25.3058  -27.3831   21.1073 C   0  0  0  0  0  0  0  0  0  0  0  0
  -26.8013  -31.5374   25.7048 C   0  0  0  0  0  0  0  0  0  0  0  0
  -29.7342  -11.4822   19.4351 C   0  0  0  0  0  0  0  0  0  0  0  0
  -27.7723  -30.5715   25.0332 C   0  0  0  0  0  0  0  0  0  0  0  0
  -28.2267  -11.5263   19.6614 C   0  0  0  0  0  0  0  0  0  0  0  0
  -30.2202  -12.7575   18.7597 C   0  0  0  0  0  0  0  0  0  0  0  0
  -28.3815  -14.0643   19.7927 C   0  0  0  0  0  0  0  0  0  0  0  0
  -31.2823  -17.3671   20.2314 C   0  0  0  0  0  0  0  0  0  0  0  0
  -29.3774  -17.0301   19.3455 C   0  0  0  0  0  0  0  0  0  0  0  0
  -28.2539  -31.1216   23.6852 C   0  0  1  0  0  0  0  0  0  0  0  0
  -25.9563  -29.8075   20.9599 C   0  0  1  0  0  0  0  0  0  0  0  0
  -27.8396  -12.7821   20.4555 C   0  0  1  0  0  0  0  0  0  0  0  0
  -30.4026  -18.1718   19.2658 C   0  0  0  0  0  0  0  0  0  0  0  0
  -18.7686  -26.9950   21.6158 C   0  0  0  0  0  0  0  0  0  0  0  0
  -24.4238  -27.9820   24.9196 C   0  0  0  0  0  0  0  0  0  0  0  0
  -22.1596  -26.9188   24.8122 C   0  0  0  0  0  0  0  0  0  0  0  0
  -22.3714  -29.4042   24.7799 C   0  0  0  0  0  0  0  0  0  0  0  0
  -20.6585  -27.6677   18.3828 C   0  0  0  0  0  0  0  0  0  0  0  0
  -27.1954  -23.2288   19.0822 C   0  0  0  0  0  0  0  0  0  1  0  0
  -27.2268  -19.4298   15.8874 C   0  0  0  0  0  0  0  0  0  0  0  0
  -23.0471  -28.0760   22.7375 C   0  0  1  0  0  0  0  0  0  0  0  0
  -19.8548  -27.6100   20.7470 C   0  0  2  0  0  0  0  0  0  0  0  0
  -23.0198  -28.0903   24.2920 C   0  0  0  0  0  0  0  0  0  0  0  0
  -25.5825  -13.5430   19.8138 N   0  0  0  0  0  0  0  0  0  0  0  0
  -28.6084  -21.2928   19.4141 N   0  0  0  0  0  0  0  0  0  0  0  0
  -28.6228  -19.4478   17.8640 N   0  0  0  0  0  0  0  0  0  0  0  0
  -26.3417  -12.8626   20.6894 N   0  0  0  0  0  0  0  0  0  0  0  0
  -24.9833  -28.7946   21.3742 N   0  0  0  0  0  0  0  0  0  0  0  0
  -29.8168  -13.9599   19.4953 N   0  0  0  0  0  0  0  0  0  0  0  0
  -30.4399  -16.2195   19.9165 N   0  0  0  0  0  0  0  0  0  0  0  0
  -26.2438  -11.5921   22.6861 N   0  0  0  0  0  0  0  0  0  0  0  0
  -21.9328  -12.7248   21.9595 N   0  0  0  0  0  0  0  0  0  0  0  0
  -27.2352  -30.9421   22.6731 N   0  0  0  0  0  0  0  0  0  0  0  0
  -21.7337  -28.2045   22.1155 N   0  0  0  0  0  0  0  0  0  0  0  0
  -19.6713  -27.1234   19.3504 N   0  3  0  0  0  0  0  0  0  0  0  0
  -23.3526  -11.6138   23.3767 O   0  0  0  0  0  0  0  0  0  0  0  0
  -27.7533  -28.7532   22.0708 O   0  0  0  0  0  0  0  0  0  0  0  0
  -23.5988  -30.3595   22.4089 O   0  0  0  0  0  0  0  0  0  0  0  0
  -21.8215  -26.2177   20.9230 O   0  0  0  0  0  0  0  0  0  0  0  0
  -31.9655  -14.5549   20.0856 O   0  0  0  0  0  0  0  0  0  0  0  0
  -19.9965  -15.7576   17.7064 O   0  0  0  0  0  0  0  0  0  0  0  0
  -27.7798  -24.2421   18.2734 O   0  0  0  0  0  0  0  0  0  1  0  0
  -29.9614  -19.4555   19.7398 O   0  0  0  0  0  0  0  0  0  0  0  0
  -20.5685  -20.9480   15.9354 F   0  0  0  0  0  0  0  0  0  0  0  0
  -18.3293  -17.7619   18.6262 F   0  0  0  0  0  0  0  0  0  0  0  0
  -25.8897  -19.1949   15.9442 F   0  0  0  0  0  0  0  0  0  0  0  0
  -27.8250  -18.2190   15.7382 F   0  0  0  0  0  0  0  0  0  0  0  0
  1  2  1  0  0  0  0
  1  5  2  0  0  0  0
  2  6  2  0  0  0  0
  3  8  2  0  0  0  0
  3 16  1  0  0  0  0
  4  9  1  0  0  0  0
  4 16  2  0  0  0  0
  5 18  1  0  0  0  0
  6 20  1  0  0  0  0
  7 10  2  0  0  0  0
  7 19  1  0  0  0  0
  8 22  1  0  0  0  0
  9 22  2  0  0  0  0
 10 23  1  0  0  0  0
 11 12  2  0  0  0  0
 11 24  1  0  0  0  0
 12 25  1  0  0  0  0
 13 21  1  0  0  0  0
 13 23  2  0  0  0  0
 14 25  2  0  0  0  0
 14 26  1  0  0  0  0
 15 28  1  0  0  0  0
 15 29  2  0  0  0  0
 16 27  1  0  0  0  0
 17 27  1  0  0  0  0
 17 30  2  0  0  0  0
 17 32  1  0  0  0  0
 18 20  2  0  0  0  0
 18 37  1  0  0  0  0
 19 21  2  0  0  0  0
 19 38  1  0  0  0  0
 20 48  1  0  0  0  0
 21 39  1  0  0  0  0
 22 79  1  0  0  0  0
 23 80  1  0  0  0  0
 24 26  2  0  0  0  0
 24 79  1  0  0  0  0
 25 82  1  0  0  0  0
 26 83  1  0  0  0  0
 27 62  2  0  0  0  0
 28 57  1  0  0  0  0
 28 63  2  0  0  0  0
 29 58  1  0  0  0  0
 29 64  1  0  0  0  0
 30 65  1  0  0  0  0
 30 69  1  0  0  0  0
 31 63  1  0  0  0  0
 31 64  2  0  0  0  0
 31 81  1  0  0  0  0
 32 70  1  0  0  0  0
 32 74  2  0  0  0  0
 33 49  1  0  0  0  0
 33 71  1  0  0  0  0
 33 75  2  0  0  0  0
 34 59  1  0  0  0  0
 34 66  1  0  0  0  0
 34 76  2  0  0  0  0
 35 60  1  0  0  0  0
 35 72  1  0  0  0  0
 35 77  2  0  0  0  0
 36 67  1  0  0  0  0
 36 68  1  0  0  0  0
 36 78  2  0  0  0  0
 37 40  1  0  0  0  0
 38 49  1  0  0  0  0
 39 66  1  0  0  0  0
 40 42  1  0  0  0  0
 41 43  1  0  0  0  0
 41 44  1  0  0  0  0
 42 48  1  0  0  0  0
 43 50  1  0  0  0  0
 44 67  1  0  0  0  0
 45 50  1  0  0  0  0
 45 67  1  0  0  0  0
 46 51  1  0  0  0  0
 46 68  1  0  0  0  0
 47 51  1  0  0  0  0
 47 68  1  0  0  0  0
 48 71  1  0  0  0  0
 49 66  1  0  0  0  0
 50 65  1  0  0  0  0
 51 81  1  0  0  0  0
 52 60  1  0  0  0  0
 53 61  1  0  0  0  0
 54 61  1  0  0  0  0
 55 61  1  0  0  0  0
 56 73  1  0  0  0  0
 57 80  1  0  0  0  0
 58 84  1  0  0  0  0
 58 85  1  0  0  0  0
 59 61  1  0  0  0  0
 59 72  1  0  0  0  0
 60 73  1  0  0  0  0
 62 65  1  0  0  0  0
M  CHG  1  73   1
M  ISO  4  36 100  57 101  68 100  80 101
M  END
> <Batch ID>
0191

> <Smiles>
CNC(C)C(=O)NC(C(=O)N1Cc2cc([101O:1][101CH2:1]c3cc(C(F)F)nc(OC4C[100N:0]([100C:0](=O)N5CCCC(n6nc(-c7ccc(Oc8ccc(F)cc8F)cc7)c(C(N)=O)c6N)C5)C4)n3)ccc2CC1C(=O)NC1CCCc2ccccc21)C(C)(C)C

> <Shape>
0.251

> <Color>
0.110

> <Negative vol penalty>
0.000

$$$$

  -OEChem-04052323273D

 86 95  0     1  0  0  0  0  0999 V2000
  -17.9052  -27.8821   18.7856 C   0  0  0  0  0  0  0  0  0  0  0  0
  -19.0604  -27.1324   18.9829 C   0  0  0  0  0  0  0  0  0  0  0  0
  -22.9543  -10.4562   19.9436 C   0  0  0  0  0  0  0  0  0  0  0  0
  -23.7944   -9.7888   22.1083 C   0  0  0  0  0  0  0  0  0  0  0  0
  -17.7917  -29.1490   19.3565 C   0  0  0  0  0  0  0  0  0  0  0  0
  -20.1033  -27.6497   19.7505 C   0  0  0  0  0  0  0  0  0  0  0  0
  -21.9830  -24.2604   23.0099 C   0  0  0  0  0  0  0  0  0  0  0  0
  -22.0679   -9.3793   19.9556 C   0  0  0  0  0  0  0  0  0  0  0  0
  -22.9079   -8.7119   22.1203 C   0  0  0  0  0  0  0  0  0  0  0  0
  -22.8489  -23.2957   22.4967 C   0  0  0  0  0  0  0  0  0  0  0  0
  -19.6256   -8.1967   22.7378 C   0  0  0  0  0  0  0  0  0  0  0  0
  -18.9154   -7.9569   23.9141 C   0  0  0  0  0  0  0  0  0  0  0  0
  -24.7337  -24.5667   23.3038 C   0  0  0  0  0  0  0  0  0  0  0  0
  -19.9034   -5.7571   24.0623 C   0  0  0  0  0  0  0  0  0  0  0  0
  -29.6315  -23.2993   17.9011 C   0  0  0  0  0  0  0  0  0  0  0  0
  -23.8177  -10.6609   21.0200 C   0  0  0  0  0  0  0  0  0  0  0  0
  -24.5013  -13.0715   21.4988 C   0  0  0  0  0  0  0  0  0  0  0  0
  -18.8298  -29.6781   20.1395 C   0  0  0  0  0  0  0  0  0  0  0  0
  -22.4872  -25.3928   23.6655 C   0  0  0  0  0  0  0  0  0  0  0  0
  -20.0041  -28.9254   20.3313 C   0  0  0  0  0  0  0  0  0  0  0  0
  -23.8720  -25.5430   23.8267 C   0  0  0  0  0  0  0  0  0  0  0  0
  -22.0446   -8.5072   21.0439 C   0  0  0  0  0  0  0  0  0  0  0  0
  -24.2245  -23.4502   22.6410 C   0  0  0  0  0  0  0  0  0  0  0  0
  -20.4746   -7.2166   22.2236 C   0  0  0  0  0  0  0  0  0  0  0  0
  -19.0543   -6.7372   24.5764 C   0  0  0  0  0  0  0  0  0  0  0  0
  -20.6136   -5.9969   22.8859 C   0  0  0  0  0  0  0  0  0  0  0  0
  -28.4801  -23.4945   18.6364 C   0  0  0  0  0  0  0  0  0  0  0  0
  -24.7340  -11.7728   21.0079 C   0  0  0  0  0  0  0  0  0  0  0  0
  -27.8034  -22.3485   19.0014 C   0  0  0  0  0  0  0  0  0  0  0  0
  -25.6722  -13.7462   21.2534 C   0  0  0  0  0  0  0  0  0  0  0  0
  -29.3472  -21.0448   17.9602 C   0  0  0  0  0  0  0  0  0  0  0  0
  -23.3314  -13.6190   22.1211 C   0  0  0  0  0  0  0  0  0  0  0  0
  -22.3677  -28.5260   23.1433 C   0  0  0  0  0  0  0  0  0  0  0  0
  -23.8409  -28.6694   26.0297 C   0  0  0  0  0  0  0  0  0  0  0  0
  -25.7772  -27.1201   28.3743 C   0  0  0  0  0  0  0  0  0  0  0  0
  -29.7526  -14.9448   17.5397 C   0  0  0  0  0  0  0  0  0  0  0  0
  -18.6807  -31.0715   20.6970 C   0  0  0  0  0  0  0  0  0  0  0  0
  -21.5390  -26.4110   24.2369 C   0  0  0  0  0  0  0  0  0  0  0  0
  -24.4631  -26.7304   24.5402 C   0  0  0  0  0  0  0  0  0  0  0  0
  -19.6780  -31.3934   21.8071 C   0  0  0  0  0  0  0  0  0  0  0  0
  -30.2078  -12.0697   19.7756 C   0  0  0  0  0  0  0  0  0  0  0  0
  -21.0833  -30.9573   21.4050 C   0  0  0  0  0  0  0  0  0  0  0  0
  -28.7919  -11.8175   20.2958 C   0  0  0  0  0  0  0  0  0  0  0  0
  -29.4726  -18.1111   19.3871 C   0  0  0  0  0  0  0  0  0  0  0  0
  -30.2027  -12.6645   18.3693 C   0  0  0  0  0  0  0  0  0  0  0  0
  -29.1029  -16.6318   19.3571 C   0  0  0  0  0  0  0  0  0  0  0  0
  -27.9602  -13.6177   18.7379 C   0  0  0  0  0  0  0  0  0  0  0  0
  -29.5779  -17.3820   17.1263 C   0  0  0  0  0  0  0  0  0  0  0  0
  -21.1470  -29.4420   21.1782 C   0  0  1  0  0  0  0  0  0  0  0  0
  -22.1810  -27.7807   24.4346 C   0  0  1  0  0  0  0  0  0  0  0  0
  -27.9229  -13.0834   20.1764 C   0  0  1  0  0  0  0  0  0  0  0  0
  -29.1205  -18.5601   17.9731 C   0  0  2  0  0  0  0  0  0  0  0  0
  -26.8463  -27.5034   30.6120 C   0  0  0  0  0  0  0  0  0  0  0  0
  -25.9951  -30.3768   24.7053 C   0  0  0  0  0  0  0  0  0  0  0  0
  -27.4659  -29.9302   26.6815 C   0  0  0  0  0  0  0  0  0  0  0  0
  -25.3087  -31.1459   26.9838 C   0  0  0  0  0  0  0  0  0  0  0  0
  -24.2399  -24.9169   29.6159 C   0  0  0  0  0  0  0  0  0  0  0  0
  -25.8469  -21.3433   20.1792 C   0  0  0  0  0  0  0  0  0  0  0  0
  -24.6401  -21.7952   20.9844 C   0  0  0  0  0  0  0  0  0  1  0  0
  -25.2757  -28.6648   26.4990 C   0  0  1  0  0  0  0  0  0  0  0  0
  -25.6210  -26.9815   29.8779 C   0  0  2  0  0  0  0  0  0  0  0  0
  -26.0006  -30.0079   26.2022 C   0  0  0  0  0  0  0  0  0  0  0  0
  -30.0959  -22.0840   17.5441 N   0  0  0  0  0  0  0  0  0  0  0  0
  -25.9566  -11.6288   20.4896 N   0  0  0  0  0  0  0  0  0  0  0  0
  -28.2099  -21.1031   18.6790 N   0  0  0  0  0  0  0  0  0  0  0  0
  -26.5026  -12.8458   20.6535 N   0  0  0  0  0  0  0  0  0  0  0  0
  -23.4951  -27.7017   25.0758 N   0  0  0  0  0  0  0  0  0  0  0  0
  -29.3422  -13.8460   18.3025 N   0  0  0  0  0  0  0  0  0  0  0  0
  -29.3774  -16.2135   17.9800 N   0  0  0  0  0  0  0  0  0  0  0  0
  -26.0622  -15.0160   21.4944 N   0  0  0  0  0  0  0  0  0  0  0  0
  -22.2168  -12.7876   22.2965 N   0  0  0  0  0  0  0  0  0  0  0  0
  -26.6120  -22.4715   19.7577 N   0  0  0  0  0  0  0  0  0  0  0  0
  -29.7956  -19.7782   17.6108 N   0  0  0  0  0  0  0  0  0  0  0  0
  -21.1955  -28.7430   22.4444 N   0  0  0  0  0  0  0  0  0  0  0  0
  -25.2418  -28.3037   27.9121 N   0  0  0  0  0  0  0  0  0  0  0  0
  -25.4247  -25.5515   30.2487 N   0  3  0  0  0  0  0  0  0  0  0  0
  -23.2703  -14.8147   22.4953 O   0  0  0  0  0  0  0  0  0  0  0  0
  -23.4917  -28.8794   22.8067 O   0  0  0  0  0  0  0  0  0  0  0  0
  -23.0542  -29.4962   26.4976 O   0  0  0  0  0  0  0  0  0  0  0  0
  -26.3232  -26.2656   27.6798 O   0  0  0  0  0  0  0  0  0  0  0  0
  -30.4628  -14.8026   16.5356 O   0  0  0  0  0  0  0  0  0  0  0  0
  -21.1796   -7.4565   21.0561 O   0  0  0  0  0  0  0  0  0  0  0  0
  -25.0779  -22.5038   22.1369 O   0  0  0  0  0  0  0  0  0  1  0  0
  -18.3735   -6.5077   25.7068 F   0  0  0  0  0  0  0  0  0  0  0  0
  -21.4286   -5.0520   22.3974 F   0  0  0  0  0  0  0  0  0  0  0  0
  -27.9692  -25.0815   19.0425 Cl  0  0  0  0  0  0  0  0  0  0  0  0
  1  2  1  0  0  0  0
  1  5  2  0  0  0  0
  2  6  2  0  0  0  0
  3  8  2  0  0  0  0
  3 16  1  0  0  0  0
  4  9  1  0  0  0  0
  4 16  2  0  0  0  0
  5 18  1  0  0  0  0
  6 20  1  0  0  0  0
  7 10  2  0  0  0  0
  7 19  1  0  0  0  0
  8 22  1  0  0  0  0
  9 22  2  0  0  0  0
 10 23  1  0  0  0  0
 11 12  2  0  0  0  0
 11 24  1  0  0  0  0
 12 25  1  0  0  0  0
 13 21  1  0  0  0  0
 13 23  2  0  0  0  0
 14 25  2  0  0  0  0
 14 26  1  0  0  0  0
 15 27  1  0  0  0  0
 15 63  2  0  0  0  0
 16 28  1  0  0  0  0
 17 28  1  0  0  0  0
 17 30  2  0  0  0  0
 17 32  1  0  0  0  0
 18 20  2  0  0  0  0
 18 37  1  0  0  0  0
 19 21  2  0  0  0  0
 19 38  1  0  0  0  0
 20 49  1  0  0  0  0
 21 39  1  0  0  0  0
 22 82  1  0  0  0  0
 23 83  1  0  0  0  0
 24 26  2  0  0  0  0
 24 82  1  0  0  0  0
 25 84  1  0  0  0  0
 26 85  1  0  0  0  0
 27 29  2  0  0  0  0
 27 86  1  0  0  0  0
 28 64  2  0  0  0  0
 29 65  1  0  0  0  0
 29 72  1  0  0  0  0
 30 66  1  0  0  0  0
 30 70  1  0  0  0  0
 31 63  1  0  0  0  0
 31 65  2  0  0  0  0
 31 73  1  0  0  0  0
 32 71  1  0  0  0  0
 32 77  2  0  0  0  0
 33 50  1  0  0  0  0
 33 74  1  0  0  0  0
 33 78  2  0  0  0  0
 34 60  1  0  0  0  0
 34 67  1  0  0  0  0
 34 79  2  0  0  0  0
 35 61  1  0  0  0  0
 35 75  1  0  0  0  0
 35 80  2  0  0  0  0
 36 68  1  0  0  0  0
 36 69  1  0  0  0  0
 36 81  2  0  0  0  0
 37 40  1  0  0  0  0
 38 50  1  0  0  0  0
 39 67  1  0  0  0  0
 40 42  1  0  0  0  0
 41 43  1  0  0  0  0
 41 45  1  0  0  0  0
 42 49  1  0  0  0  0
 43 51  1  0  0  0  0
 44 46  1  0  0  0  0
 44 52  1  0  0  0  0
 45 68  1  0  0  0  0
 46 69  1  0  0  0  0
 47 51  1  0  0  0  0
 47 68  1  0  0  0  0
 48 52  1  0  0  0  0
 48 69  1  0  0  0  0
 49 74  1  0  0  0  0
 50 67  1  0  0  0  0
 51 66  1  0  0  0  0
 52 73  1  0  0  0  0
 53 61  1  0  0  0  0
 54 62  1  0  0  0  0
 55 62  1  0  0  0  0
 56 62  1  0  0  0  0
 57 76  1  0  0  0  0
 58 59  1  0  0  0  0
 58 72  1  0  0  0  0
 59 83  1  0  0  0  0
 60 62  1  0  0  0  0
 60 75  1  0  0  0  0
 61 76  1  0  0  0  0
 64 66  1  0  0  0  0
M  CHG  1  76   1
M  ISO  4  36 100  59 101  69 100  83 101
M  END
> <Batch ID>
0191

> <Smiles>
CNC(C)C(=O)NC(C(=O)N1Cc2cc([101O:1][101CH2:1]CNc3nc(NC4CC[100N:0]([100C:0](=O)N5CCCC(n6nc(-c7ccc(Oc8ccc(F)cc8F)cc7)c(C(N)=O)c6N)C5)C4)ncc3Cl)ccc2CC1C(=O)NC1CCCc2ccccc21)C(C)(C)C

> <Shape>
0.226

> <Color>
0.138

> <Negative vol penalty>
0.000

$$$$

  -OEChem-04052323273D

 82 91  0     1  0  0  0  0  0999 V2000
  -26.1663  -18.5133   16.1948 C   0  0  0  0  0  0  0  0  0  0  0  0
  -26.4482  -18.8025   17.5261 C   0  0  0  0  0  0  0  0  0  0  0  0
  -23.0868   -9.8600   19.9597 C   0  0  0  0  0  0  0  0  0  0  0  0
  -23.8680   -9.8967   22.2457 C   0  0  0  0  0  0  0  0  0  0  0  0
  -25.9013  -19.5481   15.2988 C   0  0  0  0  0  0  0  0  0  0  0  0
  -26.4662  -20.1270   17.9619 C   0  0  0  0  0  0  0  0  0  0  0  0
  -24.0393  -20.7576   22.3616 C   0  0  0  0  0  0  0  0  0  0  0  0
  -28.5096  -17.4922   25.1182 C   0  0  0  0  0  0  0  0  0  0  0  0
  -22.3597   -8.7000   20.2268 C   0  0  0  0  0  0  0  0  0  0  0  0
  -23.1409   -8.7367   22.5128 C   0  0  0  0  0  0  0  0  0  0  0  0
  -24.7126  -20.3745   23.5208 C   0  0  0  0  0  0  0  0  0  0  0  0
  -19.9287   -7.9044   23.1528 C   0  0  0  0  0  0  0  0  0  0  0  0
  -19.1833   -7.8655   24.3312 C   0  0  0  0  0  0  0  0  0  0  0  0
  -27.9852  -18.5411   25.8653 C   0  0  0  0  0  0  0  0  0  0  0  0
  -25.2955  -22.6782   23.9362 C   0  0  0  0  0  0  0  0  0  0  0  0
  -20.4556   -5.9501   25.0727 C   0  0  0  0  0  0  0  0  0  0  0  0
  -30.2534  -18.9425   24.4025 C   0  0  0  0  0  0  0  0  0  0  0  0
  -23.8410  -10.4583   20.9692 C   0  0  0  0  0  0  0  0  0  0  0  0
  -24.1502  -12.9863   20.8238 C   0  0  0  0  0  0  0  0  0  0  0  0
  -29.6651  -17.6885   24.3702 C   0  0  0  0  0  0  0  0  0  0  0  0
  -25.9066  -20.8853   15.7260 C   0  0  0  0  0  0  0  0  0  0  0  0
  -23.9983  -22.1048   21.9745 C   0  0  0  0  0  0  0  0  0  0  0  0
  -26.2023  -21.1807   17.0705 C   0  0  0  0  0  0  0  0  0  0  0  0
  -24.6189  -23.0761   22.7730 C   0  0  0  0  0  0  0  0  0  0  0  0
  -22.3867   -8.1383   21.5033 C   0  0  0  0  0  0  0  0  0  0  0  0
  -25.3433  -21.3345   24.3067 C   0  0  0  0  0  0  0  0  0  0  0  0
  -20.9375   -6.9661   22.9344 C   0  0  0  0  0  0  0  0  0  0  0  0
  -19.4468   -6.8884   25.2911 C   0  0  0  0  0  0  0  0  0  0  0  0
  -21.2010   -5.9890   23.8943 C   0  0  0  0  0  0  0  0  0  0  0  0
  -24.5928  -11.6563   20.6937 C   0  0  0  0  0  0  0  0  0  0  0  0
  -28.6488  -19.7569   25.8309 C   0  0  0  0  0  0  0  0  0  0  0  0
  -25.2295  -13.7460   20.4437 C   0  0  0  0  0  0  0  0  0  0  0  0
  -22.8774  -13.4901   21.2503 C   0  0  0  0  0  0  0  0  0  0  0  0
  -25.0262  -23.7470   19.4546 C   0  0  0  0  0  0  0  0  0  0  0  0
  -23.4382  -26.1864   20.8863 C   0  0  0  0  0  0  0  0  0  0  0  0
  -22.1839  -27.5367   23.7586 C   0  0  0  0  0  0  0  0  0  0  0  0
  -30.7850  -14.6979   20.7419 C   0  0  0  0  0  0  0  0  0  0  0  0
  -25.6606  -21.9728   14.7104 C   0  0  0  0  0  0  0  0  0  0  0  0
  -23.2451  -22.5050   20.7356 C   0  0  0  0  0  0  0  0  0  0  0  0
  -24.5869  -24.5380   22.4122 C   0  0  0  0  0  0  0  0  0  0  0  0
  -25.3307  -23.3261   15.3349 C   0  0  0  0  0  0  0  0  0  0  0  0
  -29.5554  -12.4657   18.2047 C   0  0  0  0  0  0  0  0  0  0  0  0
  -26.3045  -23.6442   16.4650 C   0  0  0  0  0  0  0  0  0  0  0  0
  -28.1417  -12.1192   18.6599 C   0  0  0  0  0  0  0  0  0  0  0  0
  -30.4817  -12.6502   19.3992 C   0  0  0  0  0  0  0  0  0  0  0  0
  -29.3428  -15.5459   22.7572 C   0  0  0  0  0  0  0  0  0  0  0  0
  -30.8963  -16.8416   22.1238 C   0  0  0  0  0  0  0  0  0  0  0  0
  -28.5874  -13.3985   20.8154 C   0  0  0  0  0  0  0  0  0  0  0  0
  -30.2893  -16.5141   23.5075 C   0  0  0  0  0  0  0  0  0  0  0  0
  -26.2069  -22.6033   17.5868 C   0  0  1  0  0  0  0  0  0  0  0  0
  -23.7045  -23.8422   20.1628 C   0  0  1  0  0  0  0  0  0  0  0  0
  -27.6170  -13.1806   19.6375 C   0  0  2  0  0  0  0  0  0  0  0  0
  -20.9719  -29.5584   24.6195 C   0  0  0  0  0  0  0  0  0  0  0  0
  -26.0159  -27.8083   20.6995 C   0  0  0  0  0  0  0  0  0  0  0  0
  -25.0551  -29.3980   22.3782 C   0  0  0  0  0  0  0  0  0  0  0  0
  -23.9354  -29.0913   20.1703 C   0  0  0  0  0  0  0  0  0  0  0  0
  -19.8923  -25.9107   24.6878 C   0  0  0  0  0  0  0  0  0  0  0  0
  -28.1141  -20.9045   26.6208 C   0  0  0  0  0  0  0  0  0  0  0  0
  -27.1177  -21.7593   25.8322 C   0  0  0  0  0  0  0  0  0  1  0  0
  -23.7976  -27.2492   21.8964 C   0  0  1  0  0  0  0  0  0  0  0  0
  -20.8300  -28.1442   24.0787 C   0  0  2  0  0  0  0  0  0  0  0  0
  -24.7034  -28.3590   21.2921 C   0  0  0  0  0  0  0  0  0  0  0  0
  -29.7733  -19.9855   25.1162 N   0  0  0  0  0  0  0  0  0  0  0  0
  -25.8547  -11.5724   20.2643 N   0  0  0  0  0  0  0  0  0  0  0  0
  -26.2144  -12.8593   20.1212 N   0  0  0  0  0  0  0  0  0  0  0  0
  -23.8431  -24.8785   21.1881 N   0  0  0  0  0  0  0  0  0  0  0  0
  -29.9623  -13.6347   20.3535 N   0  0  0  0  0  0  0  0  0  0  0  0
  -30.2974  -15.5950   21.6629 N   0  0  0  0  0  0  0  0  0  0  0  0
  -25.4227  -15.0793   20.3570 N   0  0  0  0  0  0  0  0  0  0  0  0
  -21.8801  -12.5715   21.6051 N   0  0  0  0  0  0  0  0  0  0  0  0
  -25.0382  -22.8492   18.4042 N   0  0  0  0  0  0  0  0  0  0  0  0
  -22.5356  -27.7385   22.4407 N   0  0  0  0  0  0  0  0  0  0  0  0
  -20.1205  -27.3202   25.0978 N   0  3  0  0  0  0  0  0  0  0  0  0
  -22.6264  -14.7182   21.2991 O   0  0  0  0  0  0  0  0  0  0  0  0
  -25.9651  -24.4380   19.8321 O   0  0  0  0  0  0  0  0  0  0  0  0
  -22.8146  -26.5039   19.8704 O   0  0  0  0  0  0  0  0  0  0  0  0
  -22.8634  -26.9458   24.5951 O   0  0  0  0  0  0  0  0  0  0  0  0
  -31.9352  -14.8282   20.3024 O   0  0  0  0  0  0  0  0  0  0  0  0
  -21.6772   -7.0066   21.7644 O   0  0  0  0  0  0  0  0  0  0  0  0
  -26.0064  -20.9607   25.4463 O   0  0  0  0  0  0  0  0  0  1  0  0
  -18.7320   -6.8521   26.4233 F   0  0  0  0  0  0  0  0  0  0  0  0
  -22.1697   -5.0857   23.6906 F   0  0  0  0  0  0  0  0  0  0  0  0
  1  2  1  0  0  0  0
  1  5  2  0  0  0  0
  2  6  2  0  0  0  0
  3  9  2  0  0  0  0
  3 18  1  0  0  0  0
  4 10  1  0  0  0  0
  4 18  2  0  0  0  0
  5 21  1  0  0  0  0
  6 23  1  0  0  0  0
  7 11  2  0  0  0  0
  7 22  1  0  0  0  0
  8 14  2  0  0  0  0
  8 20  1  0  0  0  0
  9 25  1  0  0  0  0
 10 25  2  0  0  0  0
 11 26  1  0  0  0  0
 12 13  2  0  0  0  0
 12 27  1  0  0  0  0
 13 28  1  0  0  0  0
 14 31  1  0  0  0  0
 15 24  1  0  0  0  0
 15 26  2  0  0  0  0
 16 28  2  0  0  0  0
 16 29  1  0  0  0  0
 17 20  2  0  0  0  0
 17 63  1  0  0  0  0
 18 30  1  0  0  0  0
 19 30  1  0  0  0  0
 19 32  2  0  0  0  0
 19 33  1  0  0  0  0
 20 49  1  0  0  0  0
 21 23  2  0  0  0  0
 21 38  1  0  0  0  0
 22 24  2  0  0  0  0
 22 39  1  0  0  0  0
 23 50  1  0  0  0  0
 24 40  1  0  0  0  0
 25 79  1  0  0  0  0
 26 80  1  0  0  0  0
 27 29  2  0  0  0  0
 27 79  1  0  0  0  0
 28 81  1  0  0  0  0
 29 82  1  0  0  0  0
 30 64  2  0  0  0  0
 31 58  1  0  0  0  0
 31 63  2  0  0  0  0
 32 65  1  0  0  0  0
 32 69  1  0  0  0  0
 33 70  1  0  0  0  0
 33 74  2  0  0  0  0
 34 51  1  0  0  0  0
 34 71  1  0  0  0  0
 34 75  2  0  0  0  0
 35 60  1  0  0  0  0
 35 66  1  0  0  0  0
 35 76  2  0  0  0  0
 36 61  1  0  0  0  0
 36 72  1  0  0  0  0
 36 77  2  0  0  0  0
 37 67  1  0  0  0  0
 37 68  1  0  0  0  0
 37 78  2  0  0  0  0
 38 41  1  0  0  0  0
 39 51  1  0  0  0  0
 40 66  1  0  0  0  0
 41 43  1  0  0  0  0
 42 44  1  0  0  0  0
 42 45  1  0  0  0  0
 43 50  1  0  0  0  0
 44 52  1  0  0  0  0
 45 67  1  0  0  0  0
 46 49  1  0  0  0  0
 46 68  1  0  0  0  0
 47 49  1  0  0  0  0
 47 68  1  0  0  0  0
 48 52  1  0  0  0  0
 48 67  1  0  0  0  0
 50 71  1  0  0  0  0
 51 66  1  0  0  0  0
 52 65  1  0  0  0  0
 53 61  1  0  0  0  0
 54 62  1  0  0  0  0
 55 62  1  0  0  0  0
 56 62  1  0  0  0  0
 57 73  1  0  0  0  0
 58 59  1  0  0  0  0
 59 80  1  0  0  0  0
 60 62  1  0  0  0  0
 60 72  1  0  0  0  0
 61 73  1  0  0  0  0
 64 65  1  0  0  0  0
M  CHG  1  73   1
M  ISO  4  37 100  59 101  68 100  80 101
M  END
> <Batch ID>
0191

> <Smiles>
CNC(C)C(=O)NC(C(=O)N1Cc2cc([101O:1][101CH2:1]Cc3ccc(C4C[100N:0]([100C:0](=O)N5CCCC(n6nc(-c7ccc(Oc8ccc(F)cc8F)cc7)c(C(N)=O)c6N)C5)C4)cn3)ccc2CC1C(=O)NC1CCCc2ccccc21)C(C)(C)C

> <Shape>
0.214

> <Color>
0.196

> <Negative vol penalty>
0.000

$$$$

  -OEChem-04052323273D

 84 93  0     1  0  0  0  0  0999 V2000
  -17.5807  -26.3428   21.6108 C   0  0  0  0  0  0  0  0  0  0  0  0
  -18.8167  -25.8338   21.9961 C   0  0  0  0  0  0  0  0  0  0  0  0
  -22.9729  -15.8084   21.3354 C   0  0  0  0  0  0  0  0  0  0  0  0
  -22.3220  -14.5463   19.3808 C   0  0  0  0  0  0  0  0  0  0  0  0
  -17.5006  -27.6030   21.0195 C   0  0  0  0  0  0  0  0  0  0  0  0
  -19.9737  -26.5842   21.7893 C   0  0  0  0  0  0  0  0  0  0  0  0
  -24.9326  -26.7685   25.3783 C   0  0  0  0  0  0  0  0  0  0  0  0
  -21.8859  -16.6617   21.1464 C   0  0  0  0  0  0  0  0  0  0  0  0
  -21.2349  -15.3996   19.1918 C   0  0  0  0  0  0  0  0  0  0  0  0
  -26.1665  -26.1233   25.3071 C   0  0  0  0  0  0  0  0  0  0  0  0
  -21.0927  -19.2833   19.1659 C   0  0  0  0  0  0  0  0  0  0  0  0
  -21.3181  -20.6547   19.2843 C   0  0  0  0  0  0  0  0  0  0  0  0
  -27.1082  -28.0574   24.2156 C   0  0  0  0  0  0  0  0  0  0  0  0
  -19.7142  -20.7625   21.0879 C   0  0  0  0  0  0  0  0  0  0  0  0
  -23.1910  -14.7506   20.4526 C   0  0  0  0  0  0  0  0  0  0  0  0
  -24.3423  -12.6824   21.4036 C   0  0  0  0  0  0  0  0  0  0  0  0
  -18.6561  -28.3733   20.8143 C   0  0  0  0  0  0  0  0  0  0  0  0
  -24.7743  -28.0610   24.8579 C   0  0  0  0  0  0  0  0  0  0  0  0
  -19.9092  -27.8553   21.1936 C   0  0  0  0  0  0  0  0  0  0  0  0
  -25.8720  -28.7179   24.2837 C   0  0  0  0  0  0  0  0  0  0  0  0
  -21.0169  -16.4574   20.0747 C   0  0  0  0  0  0  0  0  0  0  0  0
  -27.2538  -26.7666   24.7232 C   0  0  0  0  0  0  0  0  0  0  0  0
  -20.1780  -18.6515   20.0084 C   0  0  0  0  0  0  0  0  0  0  0  0
  -20.6288  -21.3943   20.2453 C   0  0  0  0  0  0  0  0  0  0  0  0
  -19.4888  -19.3911   20.9694 C   0  0  0  0  0  0  0  0  0  0  0  0
  -24.3141  -13.8691   20.6469 C   0  0  0  0  0  0  0  0  0  0  0  0
  -25.6294  -12.2214   21.2715 C   0  0  0  0  0  0  0  0  0  0  0  0
  -23.2983  -12.0528   22.1583 C   0  0  0  0  0  0  0  0  0  0  0  0
  -23.0001  -29.3513   22.5577 C   0  0  0  0  0  0  0  0  0  0  0  0
  -24.2376  -32.1254   23.6958 C   0  0  0  0  0  0  0  0  0  0  0  0
  -26.7528  -33.6994   25.3819 C   0  0  0  0  0  0  0  0  0  0  0  0
  -30.8043  -14.9567   20.0343 C   0  0  0  0  0  0  0  0  0  0  0  0
  -18.5250  -29.7100   20.1283 C   0  0  0  0  0  0  0  0  0  0  0  0
  -23.4436  -28.7537   24.9665 C   0  0  0  0  0  0  0  0  0  0  0  0
  -25.7595  -30.1135   23.7286 C   0  0  0  0  0  0  0  0  0  0  0  0
  -19.7559  -30.5990   20.2861 C   0  0  0  0  0  0  0  0  0  0  0  0
  -29.3460  -12.2554   18.2868 C   0  0  0  0  0  0  0  0  0  0  0  0
  -21.0278  -29.8033   20.0106 C   0  0  0  0  0  0  0  0  0  0  0  0
  -27.8857  -12.2642   18.7304 C   0  0  0  0  0  0  0  0  0  0  0  0
  -31.3381  -18.1154   21.8879 C   0  0  0  0  0  0  0  0  0  0  0  0
  -30.6007  -22.9891   21.0201 C   0  0  0  0  0  0  0  0  0  0  0  0
  -29.8746  -13.6758   18.1384 C   0  0  0  0  0  0  0  0  0  0  0  0
  -31.8221  -16.7636   21.3868 C   0  0  0  0  0  0  0  0  0  0  0  0
  -30.4090  -21.5641   20.4993 C   0  0  0  0  0  0  0  0  0  0  0  0
  -29.5953  -17.1535   20.5811 C   0  0  0  0  0  0  0  0  0  0  0  0
  -28.3080  -14.5017   19.8743 C   0  0  0  0  0  0  0  0  0  0  0  0
  -29.2829  -21.6803   22.5443 C   0  0  0  0  0  0  0  0  0  0  0  0
  -21.1839  -28.6496   21.0085 C   0  0  1  0  0  0  0  0  0  0  0  0
  -23.2660  -29.8705   23.9424 C   0  0  1  0  0  0  0  0  0  0  0  0
  -30.2747  -18.4948   20.8567 C   0  0  1  0  0  0  0  0  0  0  0  0
  -27.7161  -13.0844   20.0186 C   0  0  1  0  0  0  0  0  0  0  0  0
  -30.1425  -22.9263   22.4700 C   0  0  2  0  0  0  0  0  0  0  0  0
  -27.5059  -35.9766   26.1198 C   0  0  0  0  0  0  0  0  0  0  0  0
  -25.1285  -32.7517   20.8455 C   0  0  0  0  0  0  0  0  0  0  0  0
  -26.6562  -34.5004   21.7816 C   0  0  0  0  0  0  0  0  0  0  0  0
  -24.1901  -34.7026   22.0976 C   0  0  0  0  0  0  0  0  0  0  0  0
  -26.6457  -32.9363   28.2394 C   0  0  0  0  0  0  0  0  0  0  0  0
  -29.3175  -19.5655   21.3491 C   0  0  0  0  0  0  0  0  0  0  0  0
  -30.2107  -25.3067   23.2238 C   0  0  0  0  0  0  0  0  0  0  0  0
  -29.3045  -26.4761   23.5544 C   0  0  0  0  0  0  0  0  0  1  0  0
  -25.4667  -32.9497   23.3975 C   0  0  1  0  0  0  0  0  0  0  0  0
  -26.7276  -34.7265   26.4995 C   0  0  2  0  0  0  0  0  0  0  0  0
  -25.3623  -33.6990   22.0392 C   0  0  0  0  0  0  0  0  0  0  0  0
  -25.4899  -14.1450   20.0766 N   0  0  0  0  0  0  0  0  0  0  0  0
  -26.2690  -13.1251   20.4751 N   0  0  0  0  0  0  0  0  0  0  0  0
  -24.4361  -30.7463   23.8526 N   0  0  0  0  0  0  0  0  0  0  0  0
  -29.6835  -14.4577   19.3614 N   0  0  0  0  0  0  0  0  0  0  0  0
  -30.6741  -16.1703   20.7082 N   0  0  0  0  0  0  0  0  0  0  0  0
  -30.0505  -20.7769   21.6837 N   0  0  1  0  0  0  0  0  0  0  0  0
  -26.2650  -11.1354   21.7602 N   0  0  0  0  0  0  0  0  0  0  0  0
  -22.0356  -12.6602   22.1875 N   0  0  0  0  0  0  0  0  0  0  0  0
  -21.6620  -29.1440   22.2819 N   0  0  0  0  0  0  0  0  0  0  0  0
  -25.6611  -33.8241   24.5490 N   0  0  0  0  0  0  0  0  0  0  0  0
  -29.3765  -24.1288   22.8448 N   0  3  0  0  0  0  0  0  0  0  0  0
  -27.3277  -34.1577   27.7394 N   0  3  0  0  0  0  0  0  0  0  0  0
  -23.4844  -10.9921   22.8015 O   0  0  0  0  0  0  0  0  0  0  0  0
  -23.9393  -29.1549   21.7954 O   0  0  0  0  0  0  0  0  0  0  0  0
  -23.1429  -32.6855   23.7934 O   0  0  0  0  0  0  0  0  0  0  0  0
  -27.6530  -32.8718   25.2580 O   0  0  0  0  0  0  0  0  0  0  0  0
  -31.8913  -14.3641   20.0000 O   0  0  0  0  0  0  0  0  0  0  0  0
  -19.9559  -17.2897   19.8901 O   0  0  0  0  0  0  0  0  0  0  0  0
  -28.4677  -26.1343   24.6514 O   0  0  0  0  0  0  0  0  0  1  0  0
  -20.8465  -22.7110   20.3600 F   0  0  0  0  0  0  0  0  0  0  0  0
  -18.6097  -18.7894   21.7825 F   0  0  0  0  0  0  0  0  0  0  0  0
  1  2  1  0  0  0  0
  1  5  2  0  0  0  0
  2  6  2  0  0  0  0
  3  8  2  0  0  0  0
  3 15  1  0  0  0  0
  4  9  1  0  0  0  0
  4 15  2  0  0  0  0
  5 17  1  0  0  0  0
  6 19  1  0  0  0  0
  7 10  2  0  0  0  0
  7 18  1  0  0  0  0
  8 21  1  0  0  0  0
  9 21  2  0  0  0  0
 10 22  1  0  0  0  0
 11 12  2  0  0  0  0
 11 23  1  0  0  0  0
 12 24  1  0  0  0  0
 13 20  1  0  0  0  0
 13 22  2  0  0  0  0
 14 24  2  0  0  0  0
 14 25  1  0  0  0  0
 15 26  1  0  0  0  0
 16 26  1  0  0  0  0
 16 27  2  0  0  0  0
 16 28  1  0  0  0  0
 17 19  2  0  0  0  0
 17 33  1  0  0  0  0
 18 20  2  0  0  0  0
 18 34  1  0  0  0  0
 19 48  1  0  0  0  0
 20 35  1  0  0  0  0
 21 81  1  0  0  0  0
 22 82  1  0  0  0  0
 23 25  2  0  0  0  0
 23 81  1  0  0  0  0
 24 83  1  0  0  0  0
 25 84  1  0  0  0  0
 26 64  2  0  0  0  0
 27 65  1  0  0  0  0
 27 70  1  0  0  0  0
 28 71  1  0  0  0  0
 28 76  2  0  0  0  0
 29 49  1  0  0  0  0
 29 72  1  0  0  0  0
 29 77  2  0  0  0  0
 30 61  1  0  0  0  0
 30 66  1  0  0  0  0
 30 78  2  0  0  0  0
 31 62  1  0  0  0  0
 31 73  1  0  0  0  0
 31 79  2  0  0  0  0
 32 67  1  0  0  0  0
 32 68  1  0  0  0  0
 32 80  2  0  0  0  0
 33 36  1  0  0  0  0
 34 49  1  0  0  0  0
 35 66  1  0  0  0  0
 36 38  1  0  0  0  0
 37 39  1  0  0  0  0
 37 42  1  0  0  0  0
 38 48  1  0  0  0  0
 39 51  1  0  0  0  0
 40 43  1  0  0  0  0
 40 50  1  0  0  0  0
 41 44  1  0  0  0  0
 41 52  1  0  0  0  0
 42 67  1  0  0  0  0
 43 68  1  0  0  0  0
 44 69  1  0  0  0  0
 45 50  1  0  0  0  0
 45 68  1  0  0  0  0
 46 51  1  0  0  0  0
 46 67  1  0  0  0  0
 47 52  1  0  0  0  0
 47 69  1  0  0  0  0
 48 72  1  0  0  0  0
 49 66  1  0  0  0  0
 50 58  1  0  0  0  0
 51 65  1  0  0  0  0
 52 74  1  0  0  0  0
 53 62  1  0  0  0  0
 54 63  1  0  0  0  0
 55 63  1  0  0  0  0
 56 63  1  0  0  0  0
 57 75  1  0  0  0  0
 58 69  1  0  0  0  0
 59 60  1  0  0  0  0
 59 74  1  0  0  0  0
 60 82  1  0  0  0  0
 61 63  1  0  0  0  0
 61 73  1  0  0  0  0
 62 75  1  0  0  0  0
 64 65  1  0  0  0  0
M  CHG  2  74   1  75   1
M  ISO  4  32 100  60 101  68 100  82 101
M  END
> <Batch ID>
0191

> <Smiles>
CNC(C)C(=O)NC(C(=O)N1Cc2cc([101O:1][101CH2:1]CNC3CCN(CC4CC[100N:0]([100C:0](=O)N5CCCC(n6nc(-c7ccc(Oc8ccc(F)cc8F)cc7)c(C(N)=O)c6N)C5)C4)C3)ccc2CC1C(=O)NC1CCCc2ccccc21)C(C)(C)C

> <Shape>
0.252

> <Color>
0.121

> <Negative vol penalty>
0.000

$$$$

  -OEChem-04052323273D

 84 93  0     1  0  0  0  0  0999 V2000
  -33.6400  -20.0346   26.8429 C   0  0  0  0  0  0  0  0  0  0  0  0
  -32.4471  -19.7063   26.2067 C   0  0  0  0  0  0  0  0  0  0  0  0
  -23.2911   -9.7939   19.9079 C   0  0  0  0  0  0  0  0  0  0  0  0
  -23.7082   -9.9421   22.2830 C   0  0  0  0  0  0  0  0  0  0  0  0
  -33.7012  -21.1533   27.6727 C   0  0  0  0  0  0  0  0  0  0  0  0
  -31.3144  -20.4960   26.4010 C   0  0  0  0  0  0  0  0  0  0  0  0
  -28.8613  -21.4706   22.0792 C   0  0  0  0  0  0  0  0  0  0  0  0
  -22.5566   -8.6254   20.1098 C   0  0  0  0  0  0  0  0  0  0  0  0
  -22.9736   -8.7736   22.4849 C   0  0  0  0  0  0  0  0  0  0  0  0
  -28.0567  -20.4566   21.5612 C   0  0  0  0  0  0  0  0  0  0  0  0
  -20.2685   -5.8014   20.0406 C   0  0  0  0  0  0  0  0  0  0  0  0
  -19.0501   -5.6778   19.3729 C   0  0  0  0  0  0  0  0  0  0  0  0
  -26.1080  -21.5417   22.4802 C   0  0  0  0  0  0  0  0  0  0  0  0
  -18.2358   -7.6581   20.4920 C   0  0  0  0  0  0  0  0  0  0  0  0
  -23.8669  -10.4522   20.9945 C   0  0  0  0  0  0  0  0  0  0  0  0
  -24.1403  -12.9803   20.7896 C   0  0  0  0  0  0  0  0  0  0  0  0
  -32.5712  -21.9627   27.8696 C   0  0  0  0  0  0  0  0  0  0  0  0
  -28.2955  -22.5237   22.8122 C   0  0  0  0  0  0  0  0  0  0  0  0
  -31.3602  -21.6259   27.2353 C   0  0  0  0  0  0  0  0  0  0  0  0
  -26.9073  -22.5691   23.0043 C   0  0  0  0  0  0  0  0  0  0  0  0
  -22.3978   -8.1153   21.3983 C   0  0  0  0  0  0  0  0  0  0  0  0
  -26.6802  -20.4905   21.7641 C   0  0  0  0  0  0  0  0  0  0  0  0
  -20.4706   -6.8534   20.9341 C   0  0  0  0  0  0  0  0  0  0  0  0
  -18.0338   -6.6061   19.5986 C   0  0  0  0  0  0  0  0  0  0  0  0
  -19.4542   -7.7817   21.1598 C   0  0  0  0  0  0  0  0  0  0  0  0
  -24.6262  -11.6590   20.7866 C   0  0  0  0  0  0  0  0  0  0  0  0
  -25.2488  -13.7543   20.5475 C   0  0  0  0  0  0  0  0  0  0  0  0
  -22.8063  -13.4646   20.9932 C   0  0  0  0  0  0  0  0  0  0  0  0
  -28.5838  -23.5912   25.7924 C   0  0  0  0  0  0  0  0  0  0  0  0
  -26.6910  -25.9894   24.7023 C   0  0  0  0  0  0  0  0  0  0  0  0
  -24.3750  -27.0474   22.4300 C   0  0  0  0  0  0  0  0  0  0  0  0
  -29.9221  -14.8596   17.9217 C   0  0  0  0  0  0  0  0  0  0  0  0
  -32.6734  -23.1348   28.8131 C   0  0  0  0  0  0  0  0  0  0  0  0
  -29.1741  -23.6238   23.3416 C   0  0  0  0  0  0  0  0  0  0  0  0
  -26.2484  -23.6885   23.7668 C   0  0  0  0  0  0  0  0  0  0  0  0
  -31.5277  -24.1335   28.6700 C   0  0  0  0  0  0  0  0  0  0  0  0
  -30.1600  -12.5729   20.5038 C   0  0  0  0  0  0  0  0  0  0  0  0
  -30.1884  -23.4053   28.6159 C   0  0  0  0  0  0  0  0  0  0  0  0
  -28.7042  -12.2303   20.8196 C   0  0  0  0  0  0  0  0  0  0  0  0
  -25.6884  -19.7219   15.9028 C   0  0  0  0  0  0  0  0  0  0  0  0
  -25.0163  -18.6293   15.1235 C   0  0  0  0  0  0  0  0  0  0  0  0
  -30.3823  -12.6779   18.9993 C   0  0  0  0  0  0  0  0  0  0  0  0
  -29.1838  -17.1690   17.4593 C   0  0  0  0  0  0  0  0  0  0  0  0
  -28.0516  -15.3261   16.2913 C   0  0  0  0  0  0  0  0  0  0  0  0
  -27.8528  -17.9175   17.5188 C   0  0  0  0  0  0  0  0  0  0  0  0
  -26.7354  -16.0943   16.3804 C   0  0  0  0  0  0  0  0  0  0  0  0
  -28.0263  -13.3350   18.6314 C   0  0  0  0  0  0  0  0  0  0  0  0
  -30.1166  -22.4720   27.4013 C   0  0  1  0  0  0  0  0  0  0  0  0
  -28.5491  -24.3767   24.5120 C   0  0  1  0  0  0  0  0  0  0  0  0
  -27.7435  -13.2245   20.1432 C   0  0  1  0  0  0  0  0  0  0  0  0
  -25.6980  -18.3059   16.4345 C   0  0  0  0  0  0  0  0  0  0  0  0
  -22.9876  -29.0464   21.8162 C   0  0  0  0  0  0  0  0  0  0  0  0
  -22.6119  -19.2895   19.3916 C   0  0  0  0  0  0  0  0  0  0  0  0
  -24.8149  -25.4006   27.0354 C   0  0  0  0  0  0  0  0  0  0  0  0
  -23.0469  -26.7250   25.8572 C   0  0  0  0  0  0  0  0  0  0  0  0
  -25.1665  -27.8320   26.5674 C   0  0  0  0  0  0  0  0  0  0  0  0
  -25.6402  -27.2516   19.7623 C   0  0  0  0  0  0  0  0  0  0  0  0
  -24.8229  -18.0005   17.6198 C   0  0  0  0  0  0  0  0  0  0  0  0
  -24.5568  -19.8538   20.9029 C   0  0  0  0  0  0  0  0  0  1  0  0
  -25.2018  -26.2220   24.6185 C   0  0  1  0  0  0  0  0  0  0  0  0
  -24.2953  -28.3055   21.5842 C   0  0  2  0  0  0  0  0  0  0  0  0
  -24.0369  -18.9459   19.7940 C   0  0  2  0  0  0  0  0  0  0  0  0
  -24.5698  -26.5226   26.0069 C   0  0  0  0  0  0  0  0  0  0  0  0
  -25.9410  -11.5936   20.5603 N   0  0  0  0  0  0  0  0  0  0  0  0
  -26.2906  -12.8835   20.4188 N   0  0  0  0  0  0  0  0  0  0  0  0
  -27.1507  -24.7373   24.2700 N   0  0  0  0  0  0  0  0  0  0  0  0
  -29.4481  -13.6263   18.3932 N   0  0  0  0  0  0  0  0  0  0  0  0
  -28.9754  -15.7277   17.3572 N   0  0  0  0  0  0  0  0  0  0  0  0
  -26.9732  -17.5448   16.4021 N   0  0  0  0  0  0  0  0  0  0  0  0
  -25.4242  -15.0880   20.4342 N   0  0  0  0  0  0  0  0  0  0  0  0
  -21.7861  -12.5331   21.2297 N   0  0  0  0  0  0  0  0  0  0  0  0
  -29.8548  -23.2298   26.1965 N   0  0  0  0  0  0  0  0  0  0  0  0
  -25.0087  -27.2797   23.6324 N   0  0  0  0  0  0  0  0  0  0  0  0
  -24.3912  -27.9635   20.1368 N   0  3  0  0  0  0  0  0  0  0  0  0
  -24.9092  -19.1119   18.5999 N   0  3  0  0  0  0  0  0  0  0  0  0
  -22.5244  -14.6861   20.9499 O   0  0  0  0  0  0  0  0  0  0  0  0
  -27.5351  -23.3333   26.3716 O   0  0  0  0  0  0  0  0  0  0  0  0
  -27.4204  -26.8882   25.1287 O   0  0  0  0  0  0  0  0  0  0  0  0
  -23.9174  -25.9676   22.0625 O   0  0  0  0  0  0  0  0  0  0  0  0
  -31.1166  -15.1712   18.0041 O   0  0  0  0  0  0  0  0  0  0  0  0
  -21.6810   -6.9752   21.5957 O   0  0  0  0  0  0  0  0  0  0  0  0
  -25.8873  -19.4951   21.2567 O   0  0  0  0  0  0  0  0  0  1  0  0
  -16.8644   -6.4881   18.9561 F   0  0  0  0  0  0  0  0  0  0  0  0
  -19.6429   -8.7951   22.0161 F   0  0  0  0  0  0  0  0  0  0  0  0
  1  2  1  0  0  0  0
  1  5  2  0  0  0  0
  2  6  2  0  0  0  0
  3  8  2  0  0  0  0
  3 15  1  0  0  0  0
  4  9  1  0  0  0  0
  4 15  2  0  0  0  0
  5 17  1  0  0  0  0
  6 19  1  0  0  0  0
  7 10  2  0  0  0  0
  7 18  1  0  0  0  0
  8 21  1  0  0  0  0
  9 21  2  0  0  0  0
 10 22  1  0  0  0  0
 11 12  2  0  0  0  0
 11 23  1  0  0  0  0
 12 24  1  0  0  0  0
 13 20  1  0  0  0  0
 13 22  2  0  0  0  0
 14 24  2  0  0  0  0
 14 25  1  0  0  0  0
 15 26  1  0  0  0  0
 16 26  1  0  0  0  0
 16 27  2  0  0  0  0
 16 28  1  0  0  0  0
 17 19  2  0  0  0  0
 17 33  1  0  0  0  0
 18 20  2  0  0  0  0
 18 34  1  0  0  0  0
 19 48  1  0  0  0  0
 20 35  1  0  0  0  0
 21 81  1  0  0  0  0
 22 82  1  0  0  0  0
 23 25  2  0  0  0  0
 23 81  1  0  0  0  0
 24 83  1  0  0  0  0
 25 84  1  0  0  0  0
 26 64  2  0  0  0  0
 27 65  1  0  0  0  0
 27 70  1  0  0  0  0
 28 71  1  0  0  0  0
 28 76  2  0  0  0  0
 29 49  1  0  0  0  0
 29 72  1  0  0  0  0
 29 77  2  0  0  0  0
 30 60  1  0  0  0  0
 30 66  1  0  0  0  0
 30 78  2  0  0  0  0
 31 61  1  0  0  0  0
 31 73  1  0  0  0  0
 31 79  2  0  0  0  0
 32 67  1  0  0  0  0
 32 68  1  0  0  0  0
 32 80  2  0  0  0  0
 33 36  1  0  0  0  0
 34 49  1  0  0  0  0
 35 66  1  0  0  0  0
 36 38  1  0  0  0  0
 37 39  1  0  0  0  0
 37 42  1  0  0  0  0
 38 48  1  0  0  0  0
 39 50  1  0  0  0  0
 40 41  1  0  0  0  0
 40 51  1  0  0  0  0
 41 51  1  0  0  0  0
 42 67  1  0  0  0  0
 43 45  1  0  0  0  0
 43 68  1  0  0  0  0
 44 46  1  0  0  0  0
 44 68  1  0  0  0  0
 45 69  1  0  0  0  0
 46 69  1  0  0  0  0
 47 50  1  0  0  0  0
 47 67  1  0  0  0  0
 48 72  1  0  0  0  0
 49 66  1  0  0  0  0
 50 65  1  0  0  0  0
 51 58  1  0  0  0  0
 51 69  1  0  0  0  0
 52 61  1  0  0  0  0
 53 62  1  0  0  0  0
 54 63  1  0  0  0  0
 55 63  1  0  0  0  0
 56 63  1  0  0  0  0
 57 74  1  0  0  0  0
 58 75  1  0  0  0  0
 59 62  1  0  0  0  0
 59 82  1  0  0  0  0
 60 63  1  0  0  0  0
 60 73  1  0  0  0  0
 61 74  1  0  0  0  0
 62 75  1  0  0  0  0
 64 65  1  0  0  0  0
M  CHG  2  74   1  75   1
M  ISO  4  32 100  59 101  68 100  82 101
M  END
> <Batch ID>
0191

> <Smiles>
CNC(C)C(=O)NC(C(=O)N1Cc2cc([101O:1][101CH2:1]C(C)NCC3(N4CC[100N:0]([100C:0](=O)N5CCCC(n6nc(-c7ccc(Oc8ccc(F)cc8F)cc7)c(C(N)=O)c6N)C5)CC4)CC3)ccc2CC1C(=O)NC1CCCc2ccccc21)C(C)(C)C

> <Shape>
0.151

> <Color>
0.173

> <Negative vol penalty>
0.000

$$$$

  -OEChem-04052323273D

 80 88  0     1  0  0  0  0  0999 V2000
  -21.7002   -9.6684   26.2743 C   0  0  0  0  0  0  0  0  0  0  0  0
  -23.0719   -9.7985   26.0823 C   0  0  0  0  0  0  0  0  0  0  0  0
  -26.4831  -28.3166   19.2773 C   0  0  0  0  0  0  0  0  0  0  0  0
  -26.3270  -27.0456   21.3260 C   0  0  0  0  0  0  0  0  0  0  0  0
  -20.8368   -9.7149   25.1806 C   0  0  0  0  0  0  0  0  0  0  0  0
  -23.5812   -9.9741   24.7961 C   0  0  0  0  0  0  0  0  0  0  0  0
  -28.9185  -13.2325   21.3015 C   0  0  0  0  0  0  0  0  0  0  0  0
  -25.2259  -28.8681   19.5236 C   0  0  0  0  0  0  0  0  0  0  0  0
  -25.0697  -27.5972   21.5724 C   0  0  0  0  0  0  0  0  0  0  0  0
  -29.9346  -12.9560   20.3879 C   0  0  0  0  0  0  0  0  0  0  0  0
  -23.8151  -30.5039   22.7545 C   0  0  0  0  0  0  0  0  0  0  0  0
  -23.5505  -30.9586   24.0463 C   0  0  0  0  0  0  0  0  0  0  0  0
  -28.3418  -13.1002   18.5819 C   0  0  0  0  0  0  0  0  0  0  0  0
  -21.7117  -29.4009   24.2180 C   0  0  0  0  0  0  0  0  0  0  0  0
  -27.0336  -27.4052   20.1784 C   0  0  0  0  0  0  0  0  0  0  0  0
  -29.5791  -27.3428   20.3347 C   0  0  0  0  0  0  0  0  0  0  0  0
  -21.3350   -9.9008   23.8814 C   0  0  0  0  0  0  0  0  0  0  0  0
  -27.6021  -13.4344   20.8625 C   0  0  0  0  0  0  0  0  0  0  0  0
  -22.7237  -10.0218   23.6838 C   0  0  0  0  0  0  0  0  0  0  0  0
  -27.3113  -13.3816   19.4918 C   0  0  0  0  0  0  0  0  0  0  0  0
  -24.5192  -28.5085   20.6712 C   0  0  0  0  0  0  0  0  0  0  0  0
  -29.6459  -12.8870   19.0281 C   0  0  0  0  0  0  0  0  0  0  0  0
  -23.0280  -29.4977   22.1944 C   0  0  0  0  0  0  0  0  0  0  0  0
  -22.4988  -30.4071   24.7781 C   0  0  0  0  0  0  0  0  0  0  0  0
  -21.9763  -28.9461   22.9262 C   0  0  0  0  0  0  0  0  0  0  0  0
  -28.3321  -26.8346   19.9242 C   0  0  0  0  0  0  0  0  0  0  0  0
  -30.4943  -26.4423   19.8467 C   0  0  0  0  0  0  0  0  0  0  0  0
  -29.8830  -28.5232   21.0896 C   0  0  0  0  0  0  0  0  0  0  0  0
  -24.8255  -11.9650   21.3472 C   0  0  0  0  0  0  0  0  0  0  0  0
  -23.6487  -14.4709   19.6567 C   0  0  0  0  0  0  0  0  0  0  0  0
  -24.2119  -16.9494   17.3794 C   0  0  0  0  0  0  0  0  0  0  0  0
  -29.8619  -20.6622   18.4702 C   0  0  0  0  0  0  0  0  0  0  0  0
  -20.3665   -9.8970   22.7251 C   0  0  0  0  0  0  0  0  0  0  0  0
  -26.5224  -13.7581   21.8584 C   0  0  0  0  0  0  0  0  0  0  0  0
  -25.9181  -13.6108   18.9674 C   0  0  0  0  0  0  0  0  0  0  0  0
  -20.9560  -10.4613   21.4350 C   0  0  0  0  0  0  0  0  0  0  0  0
  -31.1427  -23.3144   16.2863 C   0  0  0  0  0  0  0  0  0  0  0  0
  -22.3399   -9.8732   21.1785 C   0  0  0  0  0  0  0  0  0  0  0  0
  -30.6564  -24.5690   17.0136 C   0  0  0  0  0  0  0  0  0  0  0  0
  -30.1410  -22.1755   16.4342 C   0  0  0  0  0  0  0  0  0  0  0  0
  -30.3166  -18.1714   18.1429 C   0  0  0  0  0  0  0  0  0  0  0  0
  -30.9382  -19.3441   16.4806 C   0  0  0  0  0  0  0  0  0  0  0  0
  -29.3256  -23.0716   18.5774 C   0  0  0  0  0  0  0  0  0  0  0  0
  -23.3123  -10.2385   22.3066 C   0  0  1  0  0  0  0  0  0  0  0  0
  -25.1215  -13.4381   21.3460 C   0  0  1  0  0  0  0  0  0  0  0  0
  -31.4766  -18.0596   17.1387 C   0  0  0  0  0  0  0  0  0  0  0  0
  -30.2990  -24.2608   18.4792 C   0  0  2  0  0  0  0  0  0  0  0  0
  -23.0479  -18.8144   16.1692 C   0  0  0  0  0  0  0  0  0  0  0  0
  -22.3186  -12.4388   17.8097 C   0  0  0  0  0  0  0  0  0  0  0  0
  -21.9943  -14.2745   16.1383 C   0  0  0  0  0  0  0  0  0  0  0  0
  -20.9002  -14.4194   18.3755 C   0  0  0  0  0  0  0  0  0  0  0  0
  -25.9933  -18.9903   18.5713 C   0  0  0  0  0  0  0  0  0  0  0  0
  -31.5040  -16.8151   16.2744 C   0  0  0  0  0  0  0  0  0  0  0  0
  -32.1440  -14.4012   16.3211 C   0  0  0  0  0  0  0  0  0  0  0  0
  -31.9537  -13.0467   18.4763 C   0  0  0  0  0  0  0  0  0  1  0  0
  -23.4000  -14.7515   18.1944 C   0  0  1  0  0  0  0  0  0  0  0  0
  -23.8645  -18.4272   17.3923 C   0  0  2  0  0  0  0  0  0  0  0  0
  -32.7607  -13.3147   17.2022 C   0  0  1  0  0  0  0  0  0  0  0  0
  -22.1793  -13.9648   17.6392 C   0  0  0  0  0  0  0  0  0  0  0  0
  -28.4414  -25.6995   19.2289 N   0  0  0  0  0  0  0  0  0  0  0  0
  -29.7681  -25.4869   19.1986 N   0  0  0  0  0  0  0  0  0  0  0  0
  -24.8956  -13.9178   19.9811 N   0  0  0  0  0  0  0  0  0  0  0  0
  -29.8521  -21.9134   17.8477 N   0  0  0  0  0  0  0  0  0  0  0  0
  -30.2027  -19.5636   17.7168 N   0  0  0  0  0  0  0  0  0  0  0  0
  -31.8413  -26.3825   19.9131 N   0  0  0  0  0  0  0  0  0  0  0  0
  -28.8233  -29.3369   21.5128 N   0  0  0  0  0  0  0  0  0  0  0  0
  -32.8310  -12.0774   16.4158 N   0  0  0  0  0  0  0  0  0  0  0  0
  -23.7672  -11.6044   22.1593 N   0  0  0  0  0  0  0  0  0  0  0  0
  -23.2834  -16.2005   18.0709 N   0  0  0  0  0  0  0  0  0  0  0  0
  -25.1063  -19.2510   17.4085 N   0  3  0  0  0  0  0  0  0  0  0  0
  -32.1097  -15.7037   17.0428 N   0  3  0  0  0  0  0  0  0  0  0  0
  -31.0606  -28.8555   21.3662 O   0  0  0  0  0  0  0  0  0  0  0  0
  -25.5060  -11.2114   20.6611 O   0  0  0  0  0  0  0  0  0  0  0  0
  -22.7717  -14.7393   20.4817 O   0  0  0  0  0  0  0  0  0  0  0  0
  -25.2054  -16.5037   16.8096 O   0  0  0  0  0  0  0  0  0  0  0  0
  -29.6047  -20.5306   19.6742 O   0  0  0  0  0  0  0  0  0  0  0  0
  -23.2925  -29.0467   20.9121 O   0  0  0  0  0  0  0  0  0  0  0  0
  -30.6419  -12.6149   18.1286 O   0  0  0  0  0  0  0  0  0  1  0  0
  -22.2458  -30.8428   26.0191 F   0  0  0  0  0  0  0  0  0  0  0  0
  -21.2174  -27.9784   22.3938 F   0  0  0  0  0  0  0  0  0  0  0  0
  1  2  1  0  0  0  0
  1  5  2  0  0  0  0
  2  6  2  0  0  0  0
  3  8  2  0  0  0  0
  3 15  1  0  0  0  0
  4  9  1  0  0  0  0
  4 15  2  0  0  0  0
  5 17  1  0  0  0  0
  6 19  1  0  0  0  0
  7 10  2  0  0  0  0
  7 18  1  0  0  0  0
  8 21  1  0  0  0  0
  9 21  2  0  0  0  0
 10 22  1  0  0  0  0
 11 12  2  0  0  0  0
 11 23  1  0  0  0  0
 12 24  1  0  0  0  0
 13 20  1  0  0  0  0
 13 22  2  0  0  0  0
 14 24  2  0  0  0  0
 14 25  1  0  0  0  0
 15 26  1  0  0  0  0
 16 26  1  0  0  0  0
 16 27  2  0  0  0  0
 16 28  1  0  0  0  0
 17 19  2  0  0  0  0
 17 33  1  0  0  0  0
 18 20  2  0  0  0  0
 18 34  1  0  0  0  0
 19 44  1  0  0  0  0
 20 35  1  0  0  0  0
 21 77  1  0  0  0  0
 22 78  1  0  0  0  0
 23 25  2  0  0  0  0
 23 77  1  0  0  0  0
 24 79  1  0  0  0  0
 25 80  1  0  0  0  0
 26 60  2  0  0  0  0
 27 61  1  0  0  0  0
 27 65  1  0  0  0  0
 28 66  1  0  0  0  0
 28 72  2  0  0  0  0
 29 45  1  0  0  0  0
 29 68  1  0  0  0  0
 29 73  2  0  0  0  0
 30 56  1  0  0  0  0
 30 62  1  0  0  0  0
 30 74  2  0  0  0  0
 31 57  1  0  0  0  0
 31 69  1  0  0  0  0
 31 75  2  0  0  0  0
 32 63  1  0  0  0  0
 32 64  1  0  0  0  0
 32 76  2  0  0  0  0
 33 36  1  0  0  0  0
 34 45  1  0  0  0  0
 35 62  1  0  0  0  0
 36 38  1  0  0  0  0
 37 39  1  0  0  0  0
 37 40  1  0  0  0  0
 38 44  1  0  0  0  0
 39 47  1  0  0  0  0
 40 63  1  0  0  0  0
 41 46  1  0  0  0  0
 41 64  1  0  0  0  0
 42 46  1  0  0  0  0
 42 64  1  0  0  0  0
 43 47  1  0  0  0  0
 43 63  1  0  0  0  0
 44 68  1  0  0  0  0
 45 62  1  0  0  0  0
 46 53  1  0  0  0  0
 47 61  1  0  0  0  0
 48 57  1  0  0  0  0
 49 59  1  0  0  0  0
 50 59  1  0  0  0  0
 51 59  1  0  0  0  0
 52 70  1  0  0  0  0
 53 71  1  0  0  0  0
 54 58  1  0  0  0  0
 54 71  1  0  0  0  0
 55 58  1  0  0  0  0
 55 78  1  0  0  0  0
 56 59  1  0  0  0  0
 56 69  1  0  0  0  0
 57 70  1  0  0  0  0
 58 67  1  0  0  0  0
 60 61  1  0  0  0  0
M  CHG  2  70   1  71   1
M  ISO  4  32 100  55 101  64 100  78 101
M  END
> <Batch ID>
0191

> <Smiles>
CNC(C)C(=O)NC(C(=O)N1Cc2cc([101O:1][101CH2:1]C(N)CNCC3C[100N:0]([100C:0](=O)N4CCCC(n5nc(-c6ccc(Oc7ccc(F)cc7F)cc6)c(C(N)=O)c5N)C4)C3)ccc2CC1C(=O)NC1CCCc2ccccc21)C(C)(C)C

> <Shape>
0.242

> <Color>
0.080

> <Negative vol penalty>
0.000

$$$$

  -OEChem-04052323273D

 84 93  0     1  0  0  0  0  0999 V2000
  -16.9970  -28.5779   24.4214 C   0  0  0  0  0  0  0  0  0  0  0  0
  -17.6868  -27.6148   23.6921 C   0  0  0  0  0  0  0  0  0  0  0  0
  -28.3468  -16.5195   19.0371 C   0  0  0  0  0  0  0  0  0  0  0  0
  -27.6903  -15.9323   21.2868 C   0  0  0  0  0  0  0  0  0  0  0  0
  -17.3133  -29.9270   24.2666 C   0  0  0  0  0  0  0  0  0  0  0  0
  -18.6926  -28.0002   22.8065 C   0  0  0  0  0  0  0  0  0  0  0  0
  -22.8342  -25.1121   23.1945 C   0  0  0  0  0  0  0  0  0  0  0  0
  -27.9910  -17.8463   19.2795 C   0  0  0  0  0  0  0  0  0  0  0  0
  -27.3346  -17.2591   21.5293 C   0  0  0  0  0  0  0  0  0  0  0  0
  -22.7936  -23.8563   22.5904 C   0  0  0  0  0  0  0  0  0  0  0  0
  -27.5940  -21.4569   19.4229 C   0  0  0  0  0  0  0  0  0  0  0  0
  -28.4755  -22.4522   19.0009 C   0  0  0  0  0  0  0  0  0  0  0  0
  -24.0279  -24.7276   20.7098 C   0  0  0  0  0  0  0  0  0  0  0  0
  -30.1970  -21.5307   20.4237 C   0  0  0  0  0  0  0  0  0  0  0  0
  -28.1964  -15.5625   20.0407 C   0  0  0  0  0  0  0  0  0  0  0  0
  -29.8210  -13.5961   20.0024 C   0  0  0  0  0  0  0  0  0  0  0  0
  -18.3301  -30.3284   23.3859 C   0  0  0  0  0  0  0  0  0  0  0  0
  -23.4636  -26.1896   22.5548 C   0  0  0  0  0  0  0  0  0  0  0  0
  -19.0219  -29.3560   22.6387 C   0  0  0  0  0  0  0  0  0  0  0  0
  -24.0774  -25.9955   21.3091 C   0  0  0  0  0  0  0  0  0  0  0  0
  -27.4850  -18.2161   20.5257 C   0  0  0  0  0  0  0  0  0  0  0  0
  -23.3880  -23.6646   21.3465 C   0  0  0  0  0  0  0  0  0  0  0  0
  -28.0140  -20.4986   20.3453 C   0  0  0  0  0  0  0  0  0  0  0  0
  -29.7770  -22.4891   19.5013 C   0  0  0  0  0  0  0  0  0  0  0  0
  -29.3155  -20.5355   20.8457 C   0  0  0  0  0  0  0  0  0  0  0  0
  -28.5631  -14.1918   19.7907 C   0  0  0  0  0  0  0  0  0  0  0  0
  -29.6522  -12.2898   19.6131 C   0  0  0  0  0  0  0  0  0  0  0  0
  -31.0335  -14.1721   20.5061 C   0  0  0  0  0  0  0  0  0  0  0  0
  -22.5099  -29.0198   21.4665 C   0  0  0  0  0  0  0  0  0  0  0  0
  -25.6809  -29.4475   20.9337 C   0  0  0  0  0  0  0  0  0  0  0  0
  -28.7432  -28.0418   20.3925 C   0  0  0  0  0  0  0  0  0  0  0  0
  -24.2533  -12.4440   18.4783 C   0  0  0  0  0  0  0  0  0  0  0  0
  -18.6042  -31.8019   23.2169 C   0  0  0  0  0  0  0  0  0  0  0  0
  -23.5220  -27.5315   23.2319 C   0  0  0  0  0  0  0  0  0  0  0  0
  -24.7833  -27.1148   20.5898 C   0  0  0  0  0  0  0  0  0  0  0  0
  -19.9381  -32.0992   22.5367 C   0  0  0  0  0  0  0  0  0  0  0  0
  -26.9631  -11.5880   16.3123 C   0  0  0  0  0  0  0  0  0  0  0  0
  -21.9448  -10.9921   20.8683 C   0  0  0  0  0  0  0  0  0  0  0  0
  -20.1172  -31.2178   21.3046 C   0  0  0  0  0  0  0  0  0  0  0  0
  -27.9030  -10.7521   17.1739 C   0  0  0  0  0  0  0  0  0  0  0  0
  -21.8849  -12.4414   21.3298 C   0  0  0  0  0  0  0  0  0  0  0  0
  -21.8806  -17.2974   22.7840 C   0  0  0  0  0  0  0  0  0  0  0  0
  -25.5130  -11.3146   16.6805 C   0  0  0  0  0  0  0  0  0  0  0  0
  -23.3417  -10.8894   20.2759 C   0  0  0  0  0  0  0  0  0  0  0  0
  -22.0566  -18.7835   22.4692 C   0  0  0  0  0  0  0  0  0  0  0  0
  -26.1496  -10.8360   19.0368 C   0  0  0  0  0  0  0  0  0  0  0  0
  -23.2064  -17.6120   20.8050 C   0  0  0  0  0  0  0  0  0  0  0  0
  -20.1363  -29.7328   21.6867 C   0  0  1  0  0  0  0  0  0  0  0  0
  -23.7429  -28.6837   22.2567 C   0  0  1  0  0  0  0  0  0  0  0  0
  -27.6498  -10.9428   18.6780 C   0  0  2  0  0  0  0  0  0  0  0  0
  -22.8931  -16.5988   21.8878 C   0  0  2  0  0  0  0  0  0  0  0  0
  -22.6435  -13.1916   20.2315 C   0  0  1  0  0  0  0  0  0  0  0  0
  -31.1389  -28.6470   19.9542 C   0  0  0  0  0  0  0  0  0  0  0  0
  -24.9746  -30.1435   18.0481 C   0  0  0  0  0  0  0  0  0  0  0  0
  -27.3820  -29.8037   17.4503 C   0  0  0  0  0  0  0  0  0  0  0  0
  -26.7407  -31.5910   19.0681 C   0  0  0  0  0  0  0  0  0  0  0  0
  -29.6564  -26.6974   22.8659 C   0  0  0  0  0  0  0  0  0  0  0  0
  -23.3513  -14.4277   20.7714 C   0  0  0  0  0  0  0  0  0  0  0  0
  -23.2519  -20.0407   20.7667 C   0  0  0  0  0  0  0  0  0  0  0  0
  -23.3159  -21.3025   21.6136 C   0  0  0  0  0  0  0  0  0  1  0  0
  -26.6189  -29.1693   19.7840 C   0  0  1  0  0  0  0  0  0  0  0  0
  -30.1008  -28.3143   21.0147 C   0  0  2  0  0  0  0  0  0  0  0  0
  -26.4142  -30.1560   18.6000 C   0  0  0  0  0  0  0  0  0  0  0  0
  -27.6619  -13.3343   19.3044 N   0  0  0  0  0  0  0  0  0  0  0  0
  -28.3542  -12.1865   19.2073 N   0  0  0  0  0  0  0  0  0  0  0  0
  -24.8080  -28.4097   21.2899 N   0  0  0  0  0  0  0  0  0  0  0  0
  -25.2580  -11.5396   18.1035 N   0  0  0  0  0  0  0  0  0  0  0  0
  -23.5770  -12.2040   19.6765 N   0  0  0  0  0  0  0  0  0  0  0  0
  -23.2330  -18.8451   21.5955 N   0  0  1  0  0  0  0  0  0  0  0  0
  -30.4890  -11.2309   19.5817 N   0  0  0  0  0  0  0  0  0  0  0  0
  -31.0326  -15.5285   20.8590 N   0  0  0  0  0  0  0  0  0  0  0  0
  -21.4221  -29.3706   22.2432 N   0  0  0  0  0  0  0  0  0  0  0  0
  -27.9658  -29.1796   20.3444 N   0  0  0  0  0  0  0  0  0  0  0  0
  -22.3397  -15.3577   21.3163 N   0  3  0  0  0  0  0  0  0  0  0  0
  -30.5710  -27.1218   21.7748 N   0  3  0  0  0  0  0  0  0  0  0  0
  -32.0911  -13.5078   20.6237 O   0  0  0  0  0  0  0  0  0  0  0  0
  -22.5433  -28.9663   20.2427 O   0  0  0  0  0  0  0  0  0  0  0  0
  -25.7261  -30.5426   21.4996 O   0  0  0  0  0  0  0  0  0  0  0  0
  -28.4075  -26.9315   19.9861 O   0  0  0  0  0  0  0  0  0  0  0  0
  -23.9659  -13.4174   17.7691 O   0  0  0  0  0  0  0  0  0  0  0  0
  -27.1380  -19.5107   20.7627 O   0  0  0  0  0  0  0  0  0  0  0  0
  -23.3489  -22.4312   20.7501 O   0  0  0  0  0  0  0  0  0  1  0  0
  -30.6238  -23.4440   19.0948 F   0  0  0  0  0  0  0  0  0  0  0  0
  -29.7251  -19.6168   21.7312 F   0  0  0  0  0  0  0  0  0  0  0  0
  1  2  1  0  0  0  0
  1  5  2  0  0  0  0
  2  6  2  0  0  0  0
  3  8  2  0  0  0  0
  3 15  1  0  0  0  0
  4  9  1  0  0  0  0
  4 15  2  0  0  0  0
  5 17  1  0  0  0  0
  6 19  1  0  0  0  0
  7 10  2  0  0  0  0
  7 18  1  0  0  0  0
  8 21  1  0  0  0  0
  9 21  2  0  0  0  0
 10 22  1  0  0  0  0
 11 12  2  0  0  0  0
 11 23  1  0  0  0  0
 12 24  1  0  0  0  0
 13 20  1  0  0  0  0
 13 22  2  0  0  0  0
 14 24  2  0  0  0  0
 14 25  1  0  0  0  0
 15 26  1  0  0  0  0
 16 26  1  0  0  0  0
 16 27  2  0  0  0  0
 16 28  1  0  0  0  0
 17 19  2  0  0  0  0
 17 33  1  0  0  0  0
 18 20  2  0  0  0  0
 18 34  1  0  0  0  0
 19 48  1  0  0  0  0
 20 35  1  0  0  0  0
 21 81  1  0  0  0  0
 22 82  1  0  0  0  0
 23 25  2  0  0  0  0
 23 81  1  0  0  0  0
 24 83  1  0  0  0  0
 25 84  1  0  0  0  0
 26 64  2  0  0  0  0
 27 65  1  0  0  0  0
 27 70  1  0  0  0  0
 28 71  1  0  0  0  0
 28 76  2  0  0  0  0
 29 49  1  0  0  0  0
 29 72  1  0  0  0  0
 29 77  2  0  0  0  0
 30 61  1  0  0  0  0
 30 66  1  0  0  0  0
 30 78  2  0  0  0  0
 31 62  1  0  0  0  0
 31 73  1  0  0  0  0
 31 79  2  0  0  0  0
 32 67  1  0  0  0  0
 32 68  1  0  0  0  0
 32 80  2  0  0  0  0
 33 36  1  0  0  0  0
 34 49  1  0  0  0  0
 35 66  1  0  0  0  0
 36 39  1  0  0  0  0
 37 40  1  0  0  0  0
 37 43  1  0  0  0  0
 38 41  1  0  0  0  0
 38 44  1  0  0  0  0
 39 48  1  0  0  0  0
 40 50  1  0  0  0  0
 41 52  1  0  0  0  0
 42 45  1  0  0  0  0
 42 51  1  0  0  0  0
 43 67  1  0  0  0  0
 44 68  1  0  0  0  0
 45 69  1  0  0  0  0
 46 50  1  0  0  0  0
 46 67  1  0  0  0  0
 47 51  1  0  0  0  0
 47 69  1  0  0  0  0
 48 72  1  0  0  0  0
 49 66  1  0  0  0  0
 50 65  1  0  0  0  0
 51 74  1  0  0  0  0
 52 58  1  0  0  0  0
 52 68  1  0  0  0  0
 53 62  1  0  0  0  0
 54 63  1  0  0  0  0
 55 63  1  0  0  0  0
 56 63  1  0  0  0  0
 57 75  1  0  0  0  0
 58 74  1  0  0  0  0
 59 60  1  0  0  0  0
 59 69  1  0  0  0  0
 60 82  1  0  0  0  0
 61 63  1  0  0  0  0
 61 73  1  0  0  0  0
 62 75  1  0  0  0  0
 64 65  1  0  0  0  0
M  CHG  2  74   1  75   1
M  ISO  4  32 100  60 101  68 100  82 101
M  END
> <Batch ID>
0191

> <Smiles>
CNC(C)C(=O)NC(C(=O)N1Cc2cc([101O:1][101CH2:1]CN3CCC(NCC4CCC[100N:0]4[100C:0](=O)N4CCCC(n5nc(-c6ccc(Oc7ccc(F)cc7F)cc6)c(C(N)=O)c5N)C4)C3)ccc2CC1C(=O)NC1CCCc2ccccc21)C(C)(C)C

> <Shape>
0.264

> <Color>
0.071

> <Negative vol penalty>
0.000

$$$$

  -OEChem-04052323273D

 89 99  0     1  0  0  0  0  0999 V2000
  -30.9480  -12.2759   19.8563 C   0  0  0  0  0  0  0  0  0  0  0  0
  -30.2514  -12.7673   20.9546 C   0  0  0  0  0  0  0  0  0  0  0  0
  -27.3328  -28.8949   20.2930 C   0  0  0  0  0  0  0  0  0  0  0  0
  -25.7575  -27.0753   20.5039 C   0  0  0  0  0  0  0  0  0  0  0  0
  -30.4248  -12.4368   18.5751 C   0  0  0  0  0  0  0  0  0  0  0  0
  -29.0258  -13.4092   20.7731 C   0  0  0  0  0  0  0  0  0  0  0  0
  -26.5011  -14.5930   24.8262 C   0  0  0  0  0  0  0  0  0  0  0  0
  -26.2754  -29.7956   20.1655 C   0  0  0  0  0  0  0  0  0  0  0  0
  -24.7000  -27.9760   20.3765 C   0  0  0  0  0  0  0  0  0  0  0  0
  -26.8900  -15.6220   25.6828 C   0  0  0  0  0  0  0  0  0  0  0  0
  -21.5810  -29.8419   20.4681 C   0  0  0  0  0  0  0  0  0  0  0  0
  -20.5082  -29.7127   21.3502 C   0  0  0  0  0  0  0  0  0  0  0  0
  -25.1643  -17.0333   24.7612 C   0  0  0  0  0  0  0  0  0  0  0  0
  -21.9996  -30.0723   23.2166 C   0  0  0  0  0  0  0  0  0  0  0  0
  -30.0246  -20.5417   21.3749 C   0  0  0  0  0  0  0  0  0  0  0  0
  -27.0738  -27.5347   20.4622 C   0  0  0  0  0  0  0  0  0  0  0  0
  -28.7964  -26.1954   21.7838 C   0  0  0  0  0  0  0  0  0  0  0  0
  -29.1982  -13.0921   18.3776 C   0  0  0  0  0  0  0  0  0  0  0  0
  -25.4462  -14.7804   23.9216 C   0  0  0  0  0  0  0  0  0  0  0  0
  -28.4697  -13.5602   19.4900 C   0  0  0  0  0  0  0  0  0  0  0  0
  -24.7623  -16.0042   23.8960 C   0  0  0  0  0  0  0  0  0  0  0  0
  -30.1154  -19.3670   20.6564 C   0  0  0  0  0  0  0  0  0  0  0  0
  -24.9591  -29.3362   20.2073 C   0  0  0  0  0  0  0  0  0  0  0  0
  -26.2235  -16.8433   25.6484 C   0  0  0  0  0  0  0  0  0  0  0  0
  -22.8631  -30.0861   20.9603 C   0  0  0  0  0  0  0  0  0  0  0  0
  -20.7175  -29.8280   22.7244 C   0  0  0  0  0  0  0  0  0  0  0  0
  -23.0724  -30.2013   22.3345 C   0  0  0  0  0  0  0  0  0  0  0  0
  -28.1657  -26.6037   20.5933 C   0  0  0  0  0  0  0  0  0  0  0  0
  -30.0910  -18.2069   21.4033 C   0  0  0  0  0  0  0  0  0  0  0  0
  -29.7630  -25.3099   21.3741 C   0  0  0  0  0  0  0  0  0  0  0  0
  -29.9048  -19.3935   23.3331 C   0  0  0  0  0  0  0  0  0  0  0  0
  -28.5320  -26.5820   23.1390 C   0  0  0  0  0  0  0  0  0  0  0  0
  -27.6726  -19.4473   18.7622 C   0  0  0  0  0  0  0  0  0  0  0  0
  -25.1733  -14.7421   20.7549 C   0  0  0  0  0  0  0  0  0  0  0  0
  -22.0124  -15.0544   21.4132 C   0  0  0  0  0  0  0  0  0  0  0  0
  -19.5943  -16.0585   23.6021 C   0  0  0  0  0  0  0  0  0  0  0  0
  -30.6231  -21.1750   17.4818 C   0  0  0  0  0  0  0  0  0  0  0  0
  -28.6746  -13.2318   16.9699 C   0  0  0  0  0  0  0  0  0  0  0  0
  -25.0215  -13.6515   23.0228 C   0  0  0  0  0  0  0  0  0  0  0  0
  -23.6101  -16.2494   22.9574 C   0  0  0  0  0  0  0  0  0  0  0  0
  -27.6003  -14.3065   16.8391 C   0  0  0  0  0  0  0  0  0  0  0  0
  -32.1138  -24.3979   17.1222 C   0  0  0  0  0  0  0  0  0  0  0  0
  -26.5423  -14.1175   17.9160 C   0  0  0  0  0  0  0  0  0  0  0  0
  -31.2952  -25.2708   18.0758 C   0  0  0  0  0  0  0  0  0  0  0  0
  -26.9326  -20.1602   27.0589 C   0  0  0  0  0  0  0  0  0  0  0  0
  -31.2451  -23.3469   16.4353 C   0  0  0  0  0  0  0  0  0  0  0  0
  -29.6410  -23.3721   18.3194 C   0  0  0  0  0  0  0  0  0  0  0  0
  -28.4285  -20.1388   26.8178 C   0  0  0  0  0  0  0  0  0  0  0  0
  -27.2541  -19.4396   24.7852 C   0  0  0  0  0  0  0  0  0  0  0  0
  -30.2335  -19.3774   19.1526 C   0  0  1  0  0  0  0  0  0  0  0  0
  -27.1496  -14.2888   19.3142 C   0  0  1  0  0  0  0  0  0  0  0  0
  -29.0459  -19.4195   18.2514 C   0  0  2  0  0  0  0  0  0  0  0  0
  -24.2683  -14.1253   21.7836 C   0  0  1  0  0  0  0  0  0  0  0  0
  -30.4958  -24.4074   19.0693 C   0  0  2  0  0  0  0  0  0  0  0  0
  -26.4047  -19.1852   26.0207 C   0  0  1  0  0  0  0  0  0  1  0  0
  -30.1835  -16.8751   20.7346 C   0  0  0  0  0  0  0  0  0  0  0  0
  -17.1020  -16.2224   23.8449 C   0  0  0  0  0  0  0  0  0  0  0  0
  -21.9935  -17.4775   19.5591 C   0  0  0  0  0  0  0  0  0  0  0  0
  -19.7984  -18.1416   20.5636 C   0  0  0  0  0  0  0  0  0  0  0  0
  -20.0037  -15.9789   19.3375 C   0  0  0  0  0  0  0  0  0  0  0  0
  -19.5883  -14.2580   25.9510 C   0  0  0  0  0  0  0  0  0  0  0  0
  -29.7884  -19.4082   24.8289 C   0  0  0  0  0  0  0  0  0  0  0  0
  -21.0725  -16.2181   21.6162 C   0  0  1  0  0  0  0  0  0  0  0  0
  -18.3356  -15.3699   24.0981 C   0  0  2  0  0  0  0  0  0  0  0  0
  -20.7399  -16.9504   20.2856 C   0  0  0  0  0  0  0  0  0  0  0  0
  -29.9178  -20.5919   22.7190 N   0  0  0  0  0  0  0  0  0  0  0  0
  -28.6878  -26.0252   19.5086 N   0  0  0  0  0  0  0  0  0  0  0  0
  -29.9865  -18.1832   22.7482 N   0  0  0  0  0  0  0  0  0  0  0  0
  -29.6569  -25.2444   20.0159 N   0  0  0  0  0  0  0  0  0  0  0  0
  -23.2365  -15.1169   22.0940 N   0  0  0  0  0  0  0  0  0  0  0  0
  -30.4877  -22.5753   17.4204 N   0  0  0  0  0  0  0  0  0  0  0  0
  -29.8433  -20.5852   18.4754 N   0  0  0  0  0  0  0  0  0  0  0  0
  -30.6850  -24.5887   22.0466 N   0  0  0  0  0  0  0  0  0  0  0  0
  -27.5032  -27.5020   23.3827 N   0  0  0  0  0  0  0  0  0  0  0  0
  -27.1006  -18.2029   18.8831 N   0  0  0  0  0  0  0  0  0  0  0  0
  -26.1709  -13.8984   20.3049 N   0  0  0  0  0  0  0  0  0  0  0  0
  -19.9066  -15.6846   22.3122 N   0  0  0  0  0  0  0  0  0  0  0  0
  -28.5365  -20.0668   25.3125 N   0  3  2  0  0  0  0  0  0  0  0  0
  -18.4321  -15.1057   25.5616 N   0  3  0  0  0  0  0  0  0  0  0  0
  -29.1995  -26.1376   24.1036 O   0  0  0  0  0  0  0  0  0  0  0  0
  -27.1096  -20.4966   19.0645 O   0  0  0  0  0  0  0  0  0  0  0  0
  -24.9798  -15.8974   20.3949 O   0  0  0  0  0  0  0  0  0  0  0  0
  -21.6700  -14.1207   20.6834 O   0  0  0  0  0  0  0  0  0  0  0  0
  -20.2342  -16.8519   24.2889 O   0  0  0  0  0  0  0  0  0  0  0  0
  -31.3641  -20.5316   16.7341 O   0  0  0  0  0  0  0  0  0  0  0  0
  -23.9270  -30.2148   20.0832 O   0  0  0  0  0  0  0  0  0  0  0  0
  -26.6015  -17.8495   26.4829 O   0  0  0  0  0  0  0  0  0  1  0  0
  -19.6870  -29.7055   23.5713 F   0  0  0  0  0  0  0  0  0  0  0  0
  -24.3017  -30.4372   22.8132 F   0  0  0  0  0  0  0  0  0  0  0  0
  1  2  1  0  0  0  0
  1  5  2  0  0  0  0
  2  6  2  0  0  0  0
  3  8  2  0  0  0  0
  3 16  1  0  0  0  0
  4  9  1  0  0  0  0
  4 16  2  0  0  0  0
  5 18  1  0  0  0  0
  6 20  1  0  0  0  0
  7 10  2  0  0  0  0
  7 19  1  0  0  0  0
  8 23  1  0  0  0  0
  9 23  2  0  0  0  0
 10 24  1  0  0  0  0
 11 12  2  0  0  0  0
 11 25  1  0  0  0  0
 12 26  1  0  0  0  0
 13 21  1  0  0  0  0
 13 24  2  0  0  0  0
 14 26  2  0  0  0  0
 14 27  1  0  0  0  0
 15 22  1  0  0  0  0
 15 66  2  0  0  0  0
 16 28  1  0  0  0  0
 17 28  1  0  0  0  0
 17 30  2  0  0  0  0
 17 32  1  0  0  0  0
 18 20  2  0  0  0  0
 18 38  1  0  0  0  0
 19 21  2  0  0  0  0
 19 39  1  0  0  0  0
 20 51  1  0  0  0  0
 21 40  1  0  0  0  0
 22 29  2  0  0  0  0
 22 50  1  0  0  0  0
 23 86  1  0  0  0  0
 24 87  1  0  0  0  0
 25 27  2  0  0  0  0
 25 86  1  0  0  0  0
 26 88  1  0  0  0  0
 27 89  1  0  0  0  0
 28 67  2  0  0  0  0
 29 56  1  0  0  0  0
 29 68  1  0  0  0  0
 30 69  1  0  0  0  0
 30 73  1  0  0  0  0
 31 62  1  0  0  0  0
 31 66  1  0  0  0  0
 31 68  2  0  0  0  0
 32 74  1  0  0  0  0
 32 80  2  0  0  0  0
 33 52  1  0  0  0  0
 33 75  1  0  0  0  0
 33 81  2  0  0  0  0
 34 53  1  0  0  0  0
 34 76  1  0  0  0  0
 34 82  2  0  0  0  0
 35 63  1  0  0  0  0
 35 70  1  0  0  0  0
 35 83  2  0  0  0  0
 36 64  1  0  0  0  0
 36 77  1  0  0  0  0
 36 84  2  0  0  0  0
 37 71  1  0  0  0  0
 37 72  1  0  0  0  0
 37 85  2  0  0  0  0
 38 41  1  0  0  0  0
 39 53  1  0  0  0  0
 40 70  1  0  0  0  0
 41 43  1  0  0  0  0
 42 44  1  0  0  0  0
 42 46  1  0  0  0  0
 43 51  1  0  0  0  0
 44 54  1  0  0  0  0
 45 48  1  0  0  0  0
 45 55  1  0  0  0  0
 46 71  1  0  0  0  0
 47 54  1  0  0  0  0
 47 71  1  0  0  0  0
 48 78  1  0  0  0  0
 49 55  1  0  0  0  0
 49 78  1  0  0  0  0
 50 52  1  0  0  0  0
 50 72  1  0  0  0  0
 51 76  1  0  0  0  0
 52 72  1  0  0  0  0
 53 70  1  0  0  0  0
 54 69  1  0  0  0  0
 55 87  1  0  0  0  0
 57 64  1  0  0  0  0
 58 65  1  0  0  0  0
 59 65  1  0  0  0  0
 60 65  1  0  0  0  0
 61 79  1  0  0  0  0
 62 78  1  0  0  0  0
 63 65  1  0  0  0  0
 63 77  1  0  0  0  0
 64 79  1  0  0  0  0
 67 69  1  0  0  0  0
M  CHG  2  78   1  79   1
M  ISO  4  37 100  55 101  72 100  87 101
M  END
> <Batch ID>
0191

> <Smiles>
CNC(C)C(=O)NC(C(=O)N1Cc2cc([101O:1][101CH:1]3CCN(Cc4ncc(C5C(C(N)=O)[100N:0]5[100C:0](=O)N5CCCC(n6nc(-c7ccc(Oc8ccc(F)cc8F)cc7)c(C(N)=O)c6N)C5)c(C)n4)C3)ccc2CC1C(=O)NC1CCCc2ccccc21)C(C)(C)C

> <Shape>
0.241

> <Color>
0.054

> <Negative vol penalty>
0.000

$$$$

  -OEChem-04052323273D

 86 96  0     1  0  0  0  0  0999 V2000
  -28.9536  -35.8883   26.7133 C   0  0  0  0  0  0  0  0  0  0  0  0
  -29.1986  -34.6877   26.0545 C   0  0  0  0  0  0  0  0  0  0  0  0
  -24.4655   -9.1959   22.2156 C   0  0  0  0  0  0  0  0  0  0  0  0
  -23.6460   -9.5853   19.9764 C   0  0  0  0  0  0  0  0  0  0  0  0
  -27.6421  -36.2905   26.9622 C   0  0  0  0  0  0  0  0  0  0  0  0
  -28.1321  -33.8880   25.6452 C   0  0  0  0  0  0  0  0  0  0  0  0
  -27.8547  -30.4165   20.6076 C   0  0  0  0  0  0  0  0  0  0  0  0
  -23.3771   -8.3613   22.4689 C   0  0  0  0  0  0  0  0  0  0  0  0
  -22.5575   -8.7505   20.2297 C   0  0  0  0  0  0  0  0  0  0  0  0
  -28.0597  -29.0540   20.3950 C   0  0  0  0  0  0  0  0  0  0  0  0
  -22.4592   -5.1831   21.7688 C   0  0  0  0  0  0  0  0  0  0  0  0
  -22.7087   -3.9682   22.4069 C   0  0  0  0  0  0  0  0  0  0  0  0
  -25.6834  -28.6759   20.5661 C   0  0  0  0  0  0  0  0  0  0  0  0
  -29.4761  -23.0048   18.7493 C   0  0  0  0  0  0  0  0  0  0  0  0
  -21.2562   -4.6236   24.2229 C   0  0  0  0  0  0  0  0  0  0  0  0
  -24.6000   -9.8080   20.9694 C   0  0  0  0  0  0  0  0  0  0  0  0
  -26.9768  -10.2994   20.1839 C   0  0  0  0  0  0  0  0  0  0  0  0
  -26.5588  -35.5001   26.5472 C   0  0  0  0  0  0  0  0  0  0  0  0
  -26.5614  -30.9183   20.8123 C   0  0  0  0  0  0  0  0  0  0  0  0
  -26.8048  -34.2794   25.8900 C   0  0  0  0  0  0  0  0  0  0  0  0
  -25.4644  -30.0456   20.7786 C   0  0  0  0  0  0  0  0  0  0  0  0
  -29.5169  -24.3748   18.9404 C   0  0  0  0  0  0  0  0  0  0  0  0
  -22.4231   -8.1385   21.4759 C   0  0  0  0  0  0  0  0  0  0  0  0
  -26.9743  -28.1831   20.3771 C   0  0  0  0  0  0  0  0  0  0  0  0
  -21.6083   -6.1184   22.3578 C   0  0  0  0  0  0  0  0  0  0  0  0
  -22.1072   -3.6884   23.6339 C   0  0  0  0  0  0  0  0  0  0  0  0
  -21.0068   -5.8387   23.5848 C   0  0  0  0  0  0  0  0  0  0  0  0
  -25.7238  -10.6708   20.7073 C   0  0  0  0  0  0  0  0  0  0  0  0
  -28.5379  -24.9466   19.7278 C   0  0  0  0  0  0  0  0  0  0  0  0
  -28.4593  -22.2974   19.3586 C   0  0  0  0  0  0  0  0  0  0  0  0
  -27.6869  -11.4737   20.1273 C   0  0  0  0  0  0  0  0  0  0  0  0
  -27.4559   -9.0084   19.7846 C   0  0  0  0  0  0  0  0  0  0  0  0
  -25.0900  -32.4228   23.1946 C   0  0  0  0  0  0  0  0  0  0  0  0
  -22.6737  -32.6477   21.0422 C   0  0  0  0  0  0  0  0  0  0  0  0
  -21.1648  -31.4136   18.2409 C   0  0  0  0  0  0  0  0  0  0  0  0
  -28.2121  -16.6917   18.9692 C   0  0  0  0  0  0  0  0  0  0  0  0
  -25.1595  -35.9535   26.8806 C   0  0  0  0  0  0  0  0  0  0  0  0
  -26.3545  -32.3945   21.0137 C   0  0  0  0  0  0  0  0  0  0  0  0
  -24.0539  -30.5369   20.9728 C   0  0  0  0  0  0  0  0  0  0  0  0
  -24.0782  -35.2300   26.0821 C   0  0  0  0  0  0  0  0  0  0  0  0
  -26.6953  -16.0305   22.0679 C   0  0  0  0  0  0  0  0  0  0  0  0
  -32.0330  -24.8242   18.5647 C   0  0  0  0  0  0  0  0  0  0  0  0
  -31.4577  -26.0652   19.1723 C   0  0  0  0  0  0  0  0  0  0  0  0
  -24.3341  -33.7262   26.0776 C   0  0  0  0  0  0  0  0  0  0  0  0
  -26.4031  -14.5350   21.9502 C   0  0  0  0  0  0  0  0  0  0  0  0
  -26.4204  -16.7729   20.7592 C   0  0  0  0  0  0  0  0  0  0  0  0
  -29.5561  -20.0908   19.5949 C   0  0  0  0  0  0  0  0  0  0  0  0
  -27.1003  -20.2608   19.1633 C   0  0  0  0  0  0  0  0  0  0  0  0
  -29.5718  -18.7472   18.8708 C   0  0  0  0  0  0  0  0  0  0  0  0
  -27.1619  -18.9218   18.4367 C   0  0  0  0  0  0  0  0  0  0  0  0
  -26.8226  -14.7022   19.4675 C   0  0  0  0  0  0  0  0  0  0  0  0
  -30.5932  -25.1860   18.3058 C   0  0  0  0  0  0  0  0  0  0  0  0
  -25.6739  -33.3966   25.4086 C   0  0  1  0  0  0  0  0  0  0  0  0
  -25.0444  -32.7229   21.7231 C   0  0  1  0  0  0  0  0  0  0  0  0
  -27.1452  -13.9200   20.7502 C   0  0  2  0  0  0  0  0  0  0  0  0
  -19.1850  -31.7843   16.7442 C   0  0  0  0  0  0  0  0  0  0  0  0
  -20.8535  -31.3873   23.1418 C   0  0  0  0  0  0  0  0  0  0  0  0
  -19.1986  -30.9156   21.3231 C   0  0  0  0  0  0  0  0  0  0  0  0
  -19.8207  -33.2707   21.8610 C   0  0  0  0  0  0  0  0  0  0  0  0
  -22.8903  -31.9246   15.8913 C   0  0  0  0  0  0  0  0  0  0  0  0
  -28.5164  -26.4169   19.9790 C   0  0  0  0  0  0  0  0  0  1  0  0
  -21.4886  -31.7890   20.6717 C   0  0  1  0  0  0  0  0  0  0  0  0
  -20.6527  -32.0997   16.9874 C   0  0  2  0  0  0  0  0  0  0  0  0
  -20.3670  -31.8308   21.7476 C   0  0  0  0  0  0  0  0  0  0  0  0
  -25.6398  -11.9787   20.9650 N   0  0  0  0  0  0  0  0  0  0  0  0
  -27.5544  -24.2298   20.3118 N   0  0  0  0  0  0  0  0  0  0  0  0
  -27.5147  -22.8833   20.1243 N   0  0  0  0  0  0  0  0  0  0  0  0
  -26.8489  -12.4394   20.6020 N   0  0  0  0  0  0  0  0  0  0  0  0
  -28.4182  -20.9107   19.1653 N   0  0  0  0  0  0  0  0  0  0  0  0
  -23.9039  -31.9878   21.1725 N   0  0  0  0  0  0  0  0  0  0  0  0
  -27.1159  -16.1267   19.6381 N   0  0  0  0  0  0  0  0  0  0  0  0
  -28.2696  -18.0933   18.9170 N   0  0  0  0  0  0  0  0  0  0  0  0
  -28.9403  -11.7641   19.7183 N   0  0  0  0  0  0  0  0  0  0  0  0
  -26.5959   -7.9088   19.9090 N   0  0  0  0  0  0  0  0  0  0  0  0
  -25.5515  -33.4705   23.9685 N   0  0  0  0  0  0  0  0  0  0  0  0
  -21.0632  -32.2298   19.3476 N   0  0  0  0  0  0  0  0  0  0  0  0
  -21.4324  -31.6546   15.7979 N   0  3  0  0  0  0  0  0  0  0  0  0
  -28.6180   -8.8325   19.3463 O   0  0  0  0  0  0  0  0  0  0  0  0
  -24.7317  -31.3226   23.5983 O   0  0  0  0  0  0  0  0  0  0  0  0
  -22.5151  -33.8604   21.2028 O   0  0  0  0  0  0  0  0  0  0  0  0
  -21.6070  -30.2669   18.2393 O   0  0  0  0  0  0  0  0  0  0  0  0
  -29.0890  -15.9886   18.4521 O   0  0  0  0  0  0  0  0  0  0  0  0
  -21.3610   -7.3239   21.7227 O   0  0  0  0  0  0  0  0  0  0  0  0
  -27.1730  -26.8434   20.1690 O   0  0  0  0  0  0  0  0  0  1  0  0
  -22.3457   -2.5210   24.2458 F   0  0  0  0  0  0  0  0  0  0  0  0
  -20.1874   -6.7328   24.1549 F   0  0  0  0  0  0  0  0  0  0  0  0
  1  2  1  0  0  0  0
  1  5  2  0  0  0  0
  2  6  2  0  0  0  0
  3  8  2  0  0  0  0
  3 16  1  0  0  0  0
  4  9  1  0  0  0  0
  4 16  2  0  0  0  0
  5 18  1  0  0  0  0
  6 20  1  0  0  0  0
  7 10  2  0  0  0  0
  7 19  1  0  0  0  0
  8 23  1  0  0  0  0
  9 23  2  0  0  0  0
 10 24  1  0  0  0  0
 11 12  2  0  0  0  0
 11 25  1  0  0  0  0
 12 26  1  0  0  0  0
 13 21  1  0  0  0  0
 13 24  2  0  0  0  0
 14 22  1  0  0  0  0
 14 30  2  0  0  0  0
 15 26  2  0  0  0  0
 15 27  1  0  0  0  0
 16 28  1  0  0  0  0
 17 28  1  0  0  0  0
 17 31  2  0  0  0  0
 17 32  1  0  0  0  0
 18 20  2  0  0  0  0
 18 37  1  0  0  0  0
 19 21  2  0  0  0  0
 19 38  1  0  0  0  0
 20 53  1  0  0  0  0
 21 39  1  0  0  0  0
 22 29  2  0  0  0  0
 22 52  1  0  0  0  0
 23 83  1  0  0  0  0
 24 84  1  0  0  0  0
 25 27  2  0  0  0  0
 25 83  1  0  0  0  0
 26 85  1  0  0  0  0
 27 86  1  0  0  0  0
 28 65  2  0  0  0  0
 29 61  1  0  0  0  0
 29 66  1  0  0  0  0
 30 67  1  0  0  0  0
 30 69  1  0  0  0  0
 31 68  1  0  0  0  0
 31 73  1  0  0  0  0
 32 74  1  0  0  0  0
 32 78  2  0  0  0  0
 33 54  1  0  0  0  0
 33 75  1  0  0  0  0
 33 79  2  0  0  0  0
 34 62  1  0  0  0  0
 34 70  1  0  0  0  0
 34 80  2  0  0  0  0
 35 63  1  0  0  0  0
 35 76  1  0  0  0  0
 35 81  2  0  0  0  0
 36 71  1  0  0  0  0
 36 72  1  0  0  0  0
 36 82  2  0  0  0  0
 37 40  1  0  0  0  0
 38 54  1  0  0  0  0
 39 70  1  0  0  0  0
 40 44  1  0  0  0  0
 41 45  1  0  0  0  0
 41 46  1  0  0  0  0
 42 43  1  0  0  0  0
 42 52  1  0  0  0  0
 43 52  1  0  0  0  0
 44 53  1  0  0  0  0
 45 55  1  0  0  0  0
 46 71  1  0  0  0  0
 47 49  1  0  0  0  0
 47 69  1  0  0  0  0
 48 50  1  0  0  0  0
 48 69  1  0  0  0  0
 49 72  1  0  0  0  0
 50 72  1  0  0  0  0
 51 55  1  0  0  0  0
 51 71  1  0  0  0  0
 53 75  1  0  0  0  0
 54 70  1  0  0  0  0
 55 68  1  0  0  0  0
 56 63  1  0  0  0  0
 57 64  1  0  0  0  0
 58 64  1  0  0  0  0
 59 64  1  0  0  0  0
 60 77  1  0  0  0  0
 61 84  1  0  0  0  0
 62 64  1  0  0  0  0
 62 76  1  0  0  0  0
 63 77  1  0  0  0  0
 65 68  1  0  0  0  0
 66 67  2  0  0  0  0
M  CHG  1  77   1
M  ISO  4  36 100  61 101  72 100  84 101
M  END
> <Batch ID>
0191

> <Smiles>
CNC(C)C(=O)NC(C(=O)N1Cc2cc([101O:1][101CH2:1]c3nnc(N4CC[100N:0]([100C:0](=O)N5CCCC(n6nc(-c7ccc(Oc8ccc(F)cc8F)cc7)c(C(N)=O)c6N)C5)CC4)cc3C3CC3)ccc2CC1C(=O)NC1CCCc2ccccc21)C(C)(C)C

> <Shape>
0.298

> <Color>
0.082

> <Negative vol penalty>
0.000

$$$$

  -OEChem-04052323273D

 82 91  0     1  0  0  0  0  0999 V2000
  -27.2806  -34.4584   25.0336 C   0  0  0  0  0  0  0  0  0  0  0  0
  -27.5912  -33.1907   24.5522 C   0  0  0  0  0  0  0  0  0  0  0  0
  -21.1847  -19.0070   19.0736 C   0  0  0  0  0  0  0  0  0  0  0  0
  -21.3164  -17.6757   17.0618 C   0  0  0  0  0  0  0  0  0  0  0  0
  -25.9700  -34.7618   25.4002 C   0  0  0  0  0  0  0  0  0  0  0  0
  -26.5916  -32.2251   24.4383 C   0  0  0  0  0  0  0  0  0  0  0  0
  -26.8013  -29.7214   20.0414 C   0  0  0  0  0  0  0  0  0  0  0  0
  -19.9866  -19.5639   18.6266 C   0  0  0  0  0  0  0  0  0  0  0  0
  -20.1182  -18.2326   16.6148 C   0  0  0  0  0  0  0  0  0  0  0  0
  -27.7682  -28.7241   19.9221 C   0  0  0  0  0  0  0  0  0  0  0  0
  -16.8145  -17.8293   17.2007 C   0  0  0  0  0  0  0  0  0  0  0  0
  -15.8615  -16.9653   16.6612 C   0  0  0  0  0  0  0  0  0  0  0  0
  -26.0892  -27.0510   20.3704 C   0  0  0  0  0  0  0  0  0  0  0  0
  -15.9543  -18.1695   14.5688 C   0  0  0  0  0  0  0  0  0  0  0  0
  -21.8497  -18.0629   18.2912 C   0  0  0  0  0  0  0  0  0  0  0  0
  -23.2473  -16.3259   19.5310 C   0  0  0  0  0  0  0  0  0  0  0  0
  -24.9520  -33.8025   25.2815 C   0  0  0  0  0  0  0  0  0  0  0  0
  -25.4710  -29.3912   20.3374 C   0  0  0  0  0  0  0  0  0  0  0  0
  -25.2665  -32.5156   24.8049 C   0  0  0  0  0  0  0  0  0  0  0  0
  -25.1068  -28.0458   20.4904 C   0  0  0  0  0  0  0  0  0  0  0  0
  -19.4533  -19.1767   17.3973 C   0  0  0  0  0  0  0  0  0  0  0  0
  -27.4128  -27.3889   20.0895 C   0  0  0  0  0  0  0  0  0  0  0  0
  -17.3373  -18.8634   16.4242 C   0  0  0  0  0  0  0  0  0  0  0  0
  -15.4314  -17.1354   15.3453 C   0  0  0  0  0  0  0  0  0  0  0  0
  -16.9072  -19.0335   15.1082 C   0  0  0  0  0  0  0  0  0  0  0  0
  -23.0878  -17.4876   18.7521 C   0  0  0  0  0  0  0  0  0  0  0  0
  -24.6056  -16.2078   19.6971 C   0  0  0  0  0  0  0  0  0  0  0  0
  -22.2564  -15.4333   20.0573 C   0  0  0  0  0  0  0  0  0  0  0  0
  -23.4776  -30.0384   22.7273 C   0  0  0  0  0  0  0  0  0  0  0  0
  -21.3273  -28.5261   20.8269 C   0  0  0  0  0  0  0  0  0  0  0  0
  -20.7506  -26.2950   18.3097 C   0  0  0  0  0  0  0  0  0  0  0  0
  -28.8392  -20.5075   19.3736 C   0  0  0  0  0  0  0  0  0  0  0  0
  -23.5593  -34.1622   25.7349 C   0  0  0  0  0  0  0  0  0  0  0  0
  -24.4346  -30.4768   20.4364 C   0  0  0  0  0  0  0  0  0  0  0  0
  -23.6882  -27.6373   20.7891 C   0  0  0  0  0  0  0  0  0  0  0  0
  -22.4870  -33.1997   25.2307 C   0  0  0  0  0  0  0  0  0  0  0  0
  -28.7516  -17.2709   17.5648 C   0  0  0  0  0  0  0  0  0  0  0  0
  -22.9282  -31.7540   25.4360 C   0  0  0  0  0  0  0  0  0  0  0  0
  -27.2778  -16.8879   17.7062 C   0  0  0  0  0  0  0  0  0  0  0  0
  -32.3753  -19.9771   20.2257 C   0  0  0  0  0  0  0  0  0  0  0  0
  -33.9392  -24.5177   21.7327 C   0  0  0  0  0  0  0  0  0  0  0  0
  -28.9198  -18.7842   17.5236 C   0  0  0  0  0  0  0  0  0  0  0  0
  -31.1915  -19.4876   19.3974 C   0  0  0  0  0  0  0  0  0  0  0  0
  -26.8661  -19.1219   18.8447 C   0  0  0  0  0  0  0  0  0  0  0  0
  -30.8715  -21.8056   19.9485 C   0  0  0  0  0  0  0  0  0  0  0  0
  -24.2051  -31.4490   24.6435 C   0  0  1  0  0  0  0  0  0  0  0  0
  -23.2114  -30.0629   21.2487 C   0  0  1  0  0  0  0  0  0  0  0  0
  -26.6295  -17.6024   18.9060 C   0  0  1  0  0  0  0  0  0  0  0  0
  -32.4352  -24.5934   21.7288 C   0  0  2  0  0  0  0  0  0  0  0  0
  -32.3522  -21.4722   19.9454 C   0  0  1  0  0  0  0  0  0  0  0  0
  -33.1504  -23.6971   20.7522 C   0  0  2  0  0  0  0  0  0  0  0  0
  -18.8873  -25.2392   17.0016 C   0  0  0  0  0  0  0  0  0  0  0  0
  -20.6865  -26.7205   23.2016 C   0  0  0  0  0  0  0  0  0  0  0  0
  -19.5737  -25.1400   21.6104 C   0  0  0  0  0  0  0  0  0  0  0  0
  -18.6930  -27.4578   21.8839 C   0  0  0  0  0  0  0  0  0  0  0  0
  -21.7518  -27.4134   15.7591 C   0  0  0  0  0  0  0  0  0  0  0  0
  -30.3900  -25.5183   20.8789 C   0  0  0  0  0  0  0  0  0  0  0  0
  -29.6918  -26.7545   20.3334 C   0  0  0  0  0  0  0  0  0  1  0  0
  -20.8723  -27.0971   20.6541 C   0  0  1  0  0  0  0  0  0  0  0  0
  -19.8878  -26.3829   17.0638 C   0  0  2  0  0  0  0  0  0  0  0  0
  -19.9836  -26.6113   21.8338 C   0  0  0  0  0  0  0  0  0  0  0  0
  -24.2517  -18.0663   18.4447 N   0  0  0  0  0  0  0  0  0  0  0  0
  -25.1556  -17.2650   19.0337 N   0  0  0  0  0  0  0  0  0  0  0  0
  -22.7125  -28.7358   20.8826 N   0  0  0  0  0  0  0  0  0  0  0  0
  -28.2913  -19.4190   18.6855 N   0  0  0  0  0  0  0  0  0  0  0  0
  -30.2289  -20.5932   19.4439 N   0  0  0  0  0  0  0  0  0  0  0  0
  -25.3712  -15.3039   20.3445 N   0  0  0  0  0  0  0  0  0  0  0  0
  -20.9067  -15.7021   19.7920 N   0  0  0  0  0  0  0  0  0  0  0  0
  -23.8958  -31.2500   23.2438 N   0  0  0  0  0  0  0  0  0  0  0  0
  -20.2225  -27.0305   19.3496 N   0  0  0  0  0  0  0  0  0  0  0  0
  -31.7653  -25.8061   21.2504 N   0  0  0  0  0  0  0  0  0  0  0  0
  -33.0769  -22.2238   20.9831 N   0  3  0  0  0  0  0  0  0  0  0  0
  -20.7375  -26.3310   15.8406 N   0  3  0  0  0  0  0  0  0  0  0  0
  -22.5579  -14.4364   20.7564 O   0  0  0  0  0  0  0  0  0  0  0  0
  -23.3142  -28.9978   23.3534 O   0  0  0  0  0  0  0  0  0  0  0  0
  -20.4849  -29.4240   20.9022 O   0  0  0  0  0  0  0  0  0  0  0  0
  -21.7872  -25.6364   18.3569 O   0  0  0  0  0  0  0  0  0  0  0  0
  -28.1193  -21.3394   19.9417 O   0  0  0  0  0  0  0  0  0  0  0  0
  -18.2840  -19.7198   16.9609 O   0  0  0  0  0  0  0  0  0  0  0  0
  -28.3615  -26.4065   19.9734 O   0  0  0  0  0  0  0  0  0  1  0  0
  -14.5174  -16.3048   14.8269 F   0  0  0  0  0  0  0  0  0  0  0  0
  -17.4068  -20.0244   14.3570 F   0  0  0  0  0  0  0  0  0  0  0  0
  1  2  1  0  0  0  0
  1  5  2  0  0  0  0
  2  6  2  0  0  0  0
  3  8  2  0  0  0  0
  3 15  1  0  0  0  0
  4  9  1  0  0  0  0
  4 15  2  0  0  0  0
  5 17  1  0  0  0  0
  6 19  1  0  0  0  0
  7 10  2  0  0  0  0
  7 18  1  0  0  0  0
  8 21  1  0  0  0  0
  9 21  2  0  0  0  0
 10 22  1  0  0  0  0
 11 12  2  0  0  0  0
 11 23  1  0  0  0  0
 12 24  1  0  0  0  0
 13 20  1  0  0  0  0
 13 22  2  0  0  0  0
 14 24  2  0  0  0  0
 14 25  1  0  0  0  0
 15 26  1  0  0  0  0
 16 26  1  0  0  0  0
 16 27  2  0  0  0  0
 16 28  1  0  0  0  0
 17 19  2  0  0  0  0
 17 33  1  0  0  0  0
 18 20  2  0  0  0  0
 18 34  1  0  0  0  0
 19 46  1  0  0  0  0
 20 35  1  0  0  0  0
 21 79  1  0  0  0  0
 22 80  1  0  0  0  0
 23 25  2  0  0  0  0
 23 79  1  0  0  0  0
 24 81  1  0  0  0  0
 25 82  1  0  0  0  0
 26 62  2  0  0  0  0
 27 63  1  0  0  0  0
 27 67  1  0  0  0  0
 28 68  1  0  0  0  0
 28 74  2  0  0  0  0
 29 47  1  0  0  0  0
 29 69  1  0  0  0  0
 29 75  2  0  0  0  0
 30 59  1  0  0  0  0
 30 64  1  0  0  0  0
 30 76  2  0  0  0  0
 31 60  1  0  0  0  0
 31 70  1  0  0  0  0
 31 77  2  0  0  0  0
 32 65  1  0  0  0  0
 32 66  1  0  0  0  0
 32 78  2  0  0  0  0
 33 36  1  0  0  0  0
 34 47  1  0  0  0  0
 35 64  1  0  0  0  0
 36 38  1  0  0  0  0
 37 39  1  0  0  0  0
 37 42  1  0  0  0  0
 38 46  1  0  0  0  0
 39 48  1  0  0  0  0
 40 43  1  0  0  0  0
 40 50  1  0  0  0  0
 41 49  1  0  0  0  0
 41 51  1  0  0  0  0
 42 65  1  0  0  0  0
 43 66  1  0  0  0  0
 44 48  1  0  0  0  0
 44 65  1  0  0  0  0
 45 50  1  0  0  0  0
 45 66  1  0  0  0  0
 46 69  1  0  0  0  0
 47 64  1  0  0  0  0
 48 63  1  0  0  0  0
 49 51  1  0  0  0  0
 49 71  1  0  0  0  0
 50 72  1  0  0  0  0
 51 72  1  0  0  0  0
 52 60  1  0  0  0  0
 53 61  1  0  0  0  0
 54 61  1  0  0  0  0
 55 61  1  0  0  0  0
 56 73  1  0  0  0  0
 57 58  1  0  0  0  0
 57 71  1  0  0  0  0
 58 80  1  0  0  0  0
 59 61  1  0  0  0  0
 59 70  1  0  0  0  0
 60 73  1  0  0  0  0
 62 63  1  0  0  0  0
M  CHG  2  72   1  73   1
M  ISO  4  32 100  58 101  66 100  80 101
M  END
> <Batch ID>
0191

> <Smiles>
CNC(C)C(=O)NC(C(=O)N1Cc2cc([101O:1][101CH2:1]CNC3CC3NC3CC[100N:0]([100C:0](=O)N4CCCC(n5nc(-c6ccc(Oc7ccc(F)cc7F)cc6)c(C(N)=O)c5N)C4)C3)ccc2CC1C(=O)NC1CCCc2ccccc21)C(C)(C)C

> <Shape>
0.199

> <Color>
0.115

> <Negative vol penalty>
0.000

$$$$

  -OEChem-04052323273D

 83 91  0     1  0  0  0  0  0999 V2000
  -22.7371  -22.2773   16.7976 C   0  0  0  0  0  0  0  0  0  0  0  0
  -23.2849  -21.5121   17.8222 C   0  0  0  0  0  0  0  0  0  0  0  0
  -23.2881   -9.8002   19.9131 C   0  0  0  0  0  0  0  0  0  0  0  0
  -23.7395   -9.9404   22.2824 C   0  0  0  0  0  0  0  0  0  0  0  0
  -22.6924  -23.6659   16.9137 C   0  0  0  0  0  0  0  0  0  0  0  0
  -23.7892  -22.1353   18.9632 C   0  0  0  0  0  0  0  0  0  0  0  0
  -22.3508  -19.8263   23.2345 C   0  0  0  0  0  0  0  0  0  0  0  0
  -22.5615   -8.6278   20.1209 C   0  0  0  0  0  0  0  0  0  0  0  0
  -23.0128   -8.7681   22.4903 C   0  0  0  0  0  0  0  0  0  0  0  0
  -23.0247  -18.6569   23.5842 C   0  0  0  0  0  0  0  0  0  0  0  0
  -20.9733   -6.0083   23.6913 C   0  0  0  0  0  0  0  0  0  0  0  0
  -20.0719   -5.9832   24.7554 C   0  0  0  0  0  0  0  0  0  0  0  0
  -24.3690  -19.9068   25.1494 C   0  0  0  0  0  0  0  0  0  0  0  0
  -18.8626   -7.8307   23.7749 C   0  0  0  0  0  0  0  0  0  0  0  0
  -30.7236  -16.1643   24.5166 C   0  0  0  0  0  0  0  0  0  0  0  0
  -23.8771  -10.4565   20.9939 C   0  0  0  0  0  0  0  0  0  0  0  0
  -24.1371  -12.9864   20.7955 C   0  0  0  0  0  0  0  0  0  0  0  0
  -23.1876  -24.3058   18.0608 C   0  0  0  0  0  0  0  0  0  0  0  0
  -22.6890  -21.0487   23.8328 C   0  0  0  0  0  0  0  0  0  0  0  0
  -23.7522  -23.5339   19.0941 C   0  0  0  0  0  0  0  0  0  0  0  0
  -23.6962  -21.0898   24.8074 C   0  0  0  0  0  0  0  0  0  0  0  0
  -29.6488  -16.9793   24.2577 C   0  0  0  0  0  0  0  0  0  0  0  0
  -22.4238   -8.1118   21.4095 C   0  0  0  0  0  0  0  0  0  0  0  0
  -24.0359  -18.6975   24.5397 C   0  0  0  0  0  0  0  0  0  0  0  0
  -20.8194   -6.9447   22.6689 C   0  0  0  0  0  0  0  0  0  0  0  0
  -19.0166   -6.8943   24.7973 C   0  0  0  0  0  0  0  0  0  0  0  0
  -19.7641   -7.8559   22.7107 C   0  0  0  0  0  0  0  0  0  0  0  0
  -24.6283  -11.6672   20.7798 C   0  0  0  0  0  0  0  0  0  0  0  0
  -28.5352  -16.1196   24.3073 C   0  0  0  0  0  0  0  0  0  0  0  0
  -25.2387  -13.7661   20.5403 C   0  0  0  0  0  0  0  0  0  0  0  0
  -22.8042  -13.4644   21.0207 C   0  0  0  0  0  0  0  0  0  0  0  0
  -23.8165  -23.8267   22.7769 C   0  0  0  0  0  0  0  0  0  0  0  0
  -23.3178  -24.7513   25.8459 C   0  0  0  0  0  0  0  0  0  0  0  0
  -22.9890  -23.8591   29.1235 C   0  0  0  0  0  0  0  0  0  0  0  0
  -31.1097  -12.9215   21.3585 C   0  0  0  0  0  0  0  0  0  0  0  0
  -23.1605  -25.8126   18.1204 C   0  0  0  0  0  0  0  0  0  0  0  0
  -21.9344  -22.2965   23.4640 C   0  0  0  0  0  0  0  0  0  0  0  0
  -24.0834  -22.3732   25.4940 C   0  0  0  0  0  0  0  0  0  0  0  0
  -23.3753  -26.3706   19.5249 C   0  0  0  0  0  0  0  0  0  0  0  0
  -29.4603  -13.6617   18.2912 C   0  0  0  0  0  0  0  0  0  0  0  0
  -24.5513  -25.6740   20.2020 C   0  0  0  0  0  0  0  0  0  0  0  0
  -27.9906  -13.3535   18.5826 C   0  0  0  0  0  0  0  0  0  0  0  0
  -30.3935  -12.6820   18.9993 C   0  0  0  0  0  0  0  0  0  0  0  0
  -28.7071  -12.2528   20.7445 C   0  0  0  0  0  0  0  0  0  0  0  0
  -24.2869  -24.1715   20.3581 C   0  0  1  0  0  0  0  0  0  0  0  0
  -22.7113  -23.5749   23.7632 C   0  0  1  0  0  0  0  0  0  0  0  0
  -27.7293  -13.2483   20.0972 C   0  0  2  0  0  0  0  0  0  0  0  0
  -29.6815  -18.4284   23.9900 C   0  0  0  0  0  0  0  0  0  0  0  0
  -22.6263  -24.8391   31.4050 C   0  0  0  0  0  0  0  0  0  0  0  0
  -32.4268  -11.8612   24.1342 C   0  0  0  0  0  0  0  0  0  0  0  0
  -26.2245  -25.6770   25.9076 C   0  0  0  0  0  0  0  0  0  0  0  0
  -26.0759  -25.7483   28.4058 C   0  0  0  0  0  0  0  0  0  0  0  0
  -24.6124  -27.2260   27.0284 C   0  0  0  0  0  0  0  0  0  0  0  0
  -20.4553  -22.3732   29.4862 C   0  0  0  0  0  0  0  0  0  0  0  0
  -30.9550  -13.7155   24.9952 C   0  0  0  0  0  0  0  0  0  0  0  0
  -26.0761  -15.7339   24.1350 C   0  0  0  0  0  0  0  0  0  0  0  0
  -24.8229  -16.5535   23.8765 C   0  0  0  0  0  0  0  0  0  1  0  0
  -24.1402  -24.7436   27.1119 C   0  0  1  0  0  0  0  0  0  0  0  0
  -21.9622  -24.2428   30.1738 C   0  0  2  0  0  0  0  0  0  0  0  0
  -31.6722  -13.1349   23.7663 C   0  0  2  0  0  0  0  0  0  0  0  0
  -25.2575  -25.8247   27.0993 C   0  0  0  0  0  0  0  0  0  0  0  0
  -25.9399  -11.6083   20.5340 N   0  0  0  0  0  0  0  0  0  0  0  0
  -28.8714  -14.8553   24.5764 N   0  0  0  0  0  0  0  0  0  0  0  0
  -30.2085  -14.9145   24.6982 N   0  0  0  0  0  0  0  0  0  0  0  0
  -26.2821  -12.9002   20.3927 N   0  0  0  0  0  0  0  0  0  0  0  0
  -23.3207  -23.5675   25.0947 N   0  0  0  0  0  0  0  0  0  0  0  0
  -30.0945  -12.6305   20.4324 N   0  0  0  0  0  0  0  0  0  0  0  0
  -25.4070  -15.1010   20.4300 N   0  0  0  0  0  0  0  0  0  0  0  0
  -21.7915  -12.5277   21.2683 N   0  0  0  0  0  0  0  0  0  0  0  0
  -27.2466  -16.5802   24.0935 N   0  0  0  0  0  0  0  0  0  0  0  0
  -23.3890  -23.9289   21.4668 N   0  0  0  0  0  0  0  0  0  0  0  0
  -23.1937  -24.8753   28.2143 N   0  0  0  0  0  0  0  0  0  0  0  0
  -30.7403  -12.8560   22.6964 N   0  0  0  0  0  0  0  0  0  0  0  0
  -21.1799  -23.0462   30.5948 N   0  3  0  0  0  0  0  0  0  0  0  0
  -22.5166  -14.6849   20.9865 O   0  0  0  0  0  0  0  0  0  0  0  0
  -24.9714  -23.9229   23.1752 O   0  0  0  0  0  0  0  0  0  0  0  0
  -22.6901  -25.7678   25.5388 O   0  0  0  0  0  0  0  0  0  0  0  0
  -23.5556  -22.7685   29.1131 O   0  0  0  0  0  0  0  0  0  0  0  0
  -32.2587  -13.2231   21.0182 O   0  0  0  0  0  0  0  0  0  0  0  0
  -21.7146   -6.9679   21.6127 O   0  0  0  0  0  0  0  0  0  0  0  0
  -24.6957  -17.5577   24.8823 O   0  0  0  0  0  0  0  0  0  1  0  0
  -18.1502   -6.8690   25.8185 F   0  0  0  0  0  0  0  0  0  0  0  0
  -19.6104   -8.7570   21.7308 F   0  0  0  0  0  0  0  0  0  0  0  0
  1  2  1  0  0  0  0
  1  5  2  0  0  0  0
  2  6  2  0  0  0  0
  3  8  2  0  0  0  0
  3 16  1  0  0  0  0
  4  9  1  0  0  0  0
  4 16  2  0  0  0  0
  5 18  1  0  0  0  0
  6 20  1  0  0  0  0
  7 10  2  0  0  0  0
  7 19  1  0  0  0  0
  8 23  1  0  0  0  0
  9 23  2  0  0  0  0
 10 24  1  0  0  0  0
 11 12  2  0  0  0  0
 11 25  1  0  0  0  0
 12 26  1  0  0  0  0
 13 21  1  0  0  0  0
 13 24  2  0  0  0  0
 14 26  2  0  0  0  0
 14 27  1  0  0  0  0
 15 22  2  0  0  0  0
 15 64  1  0  0  0  0
 16 28  1  0  0  0  0
 17 28  1  0  0  0  0
 17 30  2  0  0  0  0
 17 31  1  0  0  0  0
 18 20  2  0  0  0  0
 18 36  1  0  0  0  0
 19 21  2  0  0  0  0
 19 37  1  0  0  0  0
 20 45  1  0  0  0  0
 21 38  1  0  0  0  0
 22 29  1  0  0  0  0
 22 48  1  0  0  0  0
 23 80  1  0  0  0  0
 24 81  1  0  0  0  0
 25 27  2  0  0  0  0
 25 80  1  0  0  0  0
 26 82  1  0  0  0  0
 27 83  1  0  0  0  0
 28 62  2  0  0  0  0
 29 63  2  0  0  0  0
 29 70  1  0  0  0  0
 30 65  1  0  0  0  0
 30 68  1  0  0  0  0
 31 69  1  0  0  0  0
 31 75  2  0  0  0  0
 32 46  1  0  0  0  0
 32 71  1  0  0  0  0
 32 76  2  0  0  0  0
 33 58  1  0  0  0  0
 33 66  1  0  0  0  0
 33 77  2  0  0  0  0
 34 59  1  0  0  0  0
 34 72  1  0  0  0  0
 34 78  2  0  0  0  0
 35 67  1  0  0  0  0
 35 73  1  0  0  0  0
 35 79  2  0  0  0  0
 36 39  1  0  0  0  0
 37 46  1  0  0  0  0
 38 66  1  0  0  0  0
 39 41  1  0  0  0  0
 40 42  1  0  0  0  0
 40 43  1  0  0  0  0
 41 45  1  0  0  0  0
 42 47  1  0  0  0  0
 43 67  1  0  0  0  0
 44 47  1  0  0  0  0
 44 67  1  0  0  0  0
 45 71  1  0  0  0  0
 46 66  1  0  0  0  0
 47 65  1  0  0  0  0
 49 59  1  0  0  0  0
 50 60  1  0  0  0  0
 51 61  1  0  0  0  0
 52 61  1  0  0  0  0
 53 61  1  0  0  0  0
 54 74  1  0  0  0  0
 55 60  1  0  0  0  0
 55 64  1  0  0  0  0
 56 57  1  0  0  0  0
 56 70  1  0  0  0  0
 57 81  1  0  0  0  0
 58 61  1  0  0  0  0
 58 72  1  0  0  0  0
 59 74  1  0  0  0  0
 60 73  1  0  0  0  0
 62 65  1  0  0  0  0
 63 64  1  0  0  0  0
M  CHG  1  74   1
M  ISO  4  35 100  57 101  73 100  81 101
M  END
> <Batch ID>
0191

> <Smiles>
CNC(C)C(=O)NC(C(=O)N1Cc2cc([101O:1][101CH2:1]CNc3nn(CC(C)[100NH:0][100C:0](=O)N4CCCC(n5nc(-c6ccc(Oc7ccc(F)cc7F)cc6)c(C(N)=O)c5N)C4)cc3C)ccc2CC1C(=O)NC1CCCc2ccccc21)C(C)(C)C

> <Shape>
0.136

> <Color>
0.174

> <Negative vol penalty>
0.000

$$$$

  -OEChem-04052323273D

 81 90  0     1  0  0  0  0  0999 V2000
  -32.1333  -13.6170   21.2464 C   0  0  0  0  0  0  0  0  0  0  0  0
  -31.4540  -14.8216   21.3983 C   0  0  0  0  0  0  0  0  0  0  0  0
  -29.8084  -23.7408   21.0129 C   0  0  0  0  0  0  0  0  0  0  0  0
  -29.2736  -23.7161   18.6570 C   0  0  0  0  0  0  0  0  0  0  0  0
  -31.4938  -12.5268   20.6579 C   0  0  0  0  0  0  0  0  0  0  0  0
  -30.1351  -14.9369   20.9606 C   0  0  0  0  0  0  0  0  0  0  0  0
  -27.1697  -17.2864   24.3269 C   0  0  0  0  0  0  0  0  0  0  0  0
  -29.9802  -22.3568   20.9885 C   0  0  0  0  0  0  0  0  0  0  0  0
  -29.4454  -22.3320   18.6325 C   0  0  0  0  0  0  0  0  0  0  0  0
  -27.2609  -18.6759   24.3952 C   0  0  0  0  0  0  0  0  0  0  0  0
  -29.3911  -18.7484   18.0285 C   0  0  0  0  0  0  0  0  0  0  0  0
  -28.4339  -17.9881   17.3569 C   0  0  0  0  0  0  0  0  0  0  0  0
  -25.2633  -18.8669   23.0565 C   0  0  0  0  0  0  0  0  0  0  0  0
  -26.7247  -18.8249   18.8453 C   0  0  0  0  0  0  0  0  0  0  0  0
  -29.4551  -24.4204   19.8472 C   0  0  0  0  0  0  0  0  0  0  0  0
  -30.2573  -26.8330   19.6388 C   0  0  0  0  0  0  0  0  0  0  0  0
  -30.1632  -12.6259   20.2216 C   0  0  0  0  0  0  0  0  0  0  0  0
  -26.1290  -16.6757   23.6124 C   0  0  0  0  0  0  0  0  0  0  0  0
  -29.4776  -13.8474   20.3645 C   0  0  0  0  0  0  0  0  0  0  0  0
  -25.1597  -17.4694   22.9827 C   0  0  0  0  0  0  0  0  0  0  0  0
  -29.7988  -21.6524   19.7983 C   0  0  0  0  0  0  0  0  0  0  0  0
  -26.3093  -19.4664   23.7576 C   0  0  0  0  0  0  0  0  0  0  0  0
  -29.0152  -19.5470   19.1087 C   0  0  0  0  0  0  0  0  0  0  0  0
  -27.1007  -18.0263   17.7652 C   0  0  0  0  0  0  0  0  0  0  0  0
  -27.6820  -19.5853   19.5170 C   0  0  0  0  0  0  0  0  0  0  0  0
  -29.2769  -25.8500   19.8719 C   0  0  0  0  0  0  0  0  0  0  0  0
  -29.5884  -28.0247   19.7773 C   0  0  0  0  0  0  0  0  0  0  0  0
  -31.6482  -26.6825   19.3251 C   0  0  0  0  0  0  0  0  0  0  0  0
  -25.9689  -14.7537   21.0858 C   0  0  0  0  0  0  0  0  0  0  0  0
  -22.8132  -14.6765   21.8329 C   0  0  0  0  0  0  0  0  0  0  0  0
  -20.1561  -16.1927   23.3454 C   0  0  0  0  0  0  0  0  0  0  0  0
  -24.6334  -29.5661   22.7546 C   0  0  0  0  0  0  0  0  0  0  0  0
  -29.5293  -11.4345   19.5484 C   0  0  0  0  0  0  0  0  0  0  0  0
  -26.0296  -15.1755   23.5706 C   0  0  0  0  0  0  0  0  0  0  0  0
  -24.0114  -16.8628   22.2199 C   0  0  0  0  0  0  0  0  0  0  0  0
  -28.0086  -11.5270   19.4519 C   0  0  0  0  0  0  0  0  0  0  0  0
  -25.2701  -29.9876   19.3057 C   0  0  0  0  0  0  0  0  0  0  0  0
  -27.5883  -12.9061   18.9537 C   0  0  0  0  0  0  0  0  0  0  0  0
  -26.4365  -29.0456   19.0201 C   0  0  0  0  0  0  0  0  0  0  0  0
  -24.4367  -28.2057   26.1910 C   0  0  0  0  0  0  0  0  0  0  0  0
  -26.1949  -22.8797   25.2856 C   0  0  0  0  0  0  0  0  0  0  0  0
  -24.3373  -22.0794   24.6031 C   0  0  0  0  0  0  0  0  0  0  0  0
  -24.3106  -29.3699   20.3139 C   0  0  0  0  0  0  0  0  0  0  0  0
  -24.3141  -29.3533   25.2005 C   0  0  0  0  0  0  0  0  0  0  0  0
  -24.8876  -27.3459   24.0166 C   0  0  0  0  0  0  0  0  0  0  0  0
  -26.1503  -28.0771   21.3596 C   0  0  0  0  0  0  0  0  0  0  0  0
  -28.0381  -14.0043   19.9249 C   0  0  1  0  0  0  0  0  0  0  0  0
  -25.2185  -14.6632   22.3844 C   0  0  1  0  0  0  0  0  0  0  0  0
  -24.1737  -26.9785   25.3175 C   0  0  1  0  0  0  0  0  0  0  0  0
  -27.1428  -28.6472   20.3253 C   0  0  1  0  0  0  0  0  0  0  0  0
  -24.7177  -23.2381   25.5472 C   0  0  0  0  0  0  0  0  0  0  0  0
  -25.7166  -21.4538   24.9218 C   0  0  0  0  0  0  0  0  0  1  0  0
  -17.6969  -15.9074   23.7559 C   0  0  0  0  0  0  0  0  0  0  0  0
  -22.2390  -15.5021   18.9522 C   0  0  0  0  0  0  0  0  0  0  0  0
  -19.9186  -16.1160   19.6641 C   0  0  0  0  0  0  0  0  0  0  0  0
  -20.6989  -13.7550   19.8634 C   0  0  0  0  0  0  0  0  0  0  0  0
  -20.5345  -16.1364   26.2801 C   0  0  0  0  0  0  0  0  0  0  0  0
  -24.6740  -25.6850   25.9351 C   0  0  0  0  0  0  0  0  0  0  0  0
  -21.6046  -15.4983   21.4549 C   0  0  1  0  0  0  0  0  0  0  0  0
  -19.0976  -15.6590   24.2936 C   0  0  2  0  0  0  0  0  0  0  0  0
  -21.1379  -15.2296   19.9963 C   0  0  0  0  0  0  0  0  0  0  0  0
  -28.0766  -26.3719   20.1384 N   0  0  0  0  0  0  0  0  0  0  0  0
  -28.2984  -27.6958   20.0737 N   0  0  0  0  0  0  0  0  0  0  0  0
  -23.9612  -15.3915   22.2026 N   0  0  0  0  0  0  0  0  0  0  0  0
  -24.9974  -28.9682   21.5430 N   0  0  0  0  0  0  0  0  0  0  0  0
  -24.7262  -28.7985   23.9148 N   0  0  0  0  0  0  0  0  0  0  0  0
  -29.9838  -29.3112   19.6733 N   0  0  0  0  0  0  0  0  0  0  0  0
  -32.1731  -25.3872   19.2203 N   0  0  0  0  0  0  0  0  0  0  0  0
  -27.1599  -14.0532   21.0742 N   0  0  0  0  0  0  0  0  0  0  0  0
  -20.5908  -15.2227   22.4671 N   0  0  0  0  0  0  0  0  0  0  0  0
  -24.3364  -24.5586   25.0366 N   0  3  0  0  0  0  0  0  0  0  0  0
  -19.2140  -16.3194   25.6245 N   0  3  0  0  0  0  0  0  0  0  0  0
  -32.4069  -27.6676   19.1592 O   0  0  0  0  0  0  0  0  0  0  0  0
  -25.5011  -15.4093   20.1621 O   0  0  0  0  0  0  0  0  0  0  0  0
  -22.7392  -13.4454   21.8082 O   0  0  0  0  0  0  0  0  0  0  0  0
  -20.5545  -17.3548   23.3779 O   0  0  0  0  0  0  0  0  0  0  0  0
  -24.2019  -30.7263   22.7948 O   0  0  0  0  0  0  0  0  0  0  0  0
  -29.9665  -20.3019   19.7740 O   0  0  0  0  0  0  0  0  0  0  0  0
  -26.3965  -20.8257   23.8223 O   0  0  0  0  0  0  0  0  0  1  0  0
  -26.1814  -17.2973   17.1191 F   0  0  0  0  0  0  0  0  0  0  0  0
  -27.3146  -20.3515   20.5532 F   0  0  0  0  0  0  0  0  0  0  0  0
  1  2  1  0  0  0  0
  1  5  2  0  0  0  0
  2  6  2  0  0  0  0
  3  8  2  0  0  0  0
  3 15  1  0  0  0  0
  4  9  1  0  0  0  0
  4 15  2  0  0  0  0
  5 17  1  0  0  0  0
  6 19  1  0  0  0  0
  7 10  2  0  0  0  0
  7 18  1  0  0  0  0
  8 21  1  0  0  0  0
  9 21  2  0  0  0  0
 10 22  1  0  0  0  0
 11 12  2  0  0  0  0
 11 23  1  0  0  0  0
 12 24  1  0  0  0  0
 13 20  1  0  0  0  0
 13 22  2  0  0  0  0
 14 24  2  0  0  0  0
 14 25  1  0  0  0  0
 15 26  1  0  0  0  0
 16 26  1  0  0  0  0
 16 27  2  0  0  0  0
 16 28  1  0  0  0  0
 17 19  2  0  0  0  0
 17 33  1  0  0  0  0
 18 20  2  0  0  0  0
 18 34  1  0  0  0  0
 19 47  1  0  0  0  0
 20 35  1  0  0  0  0
 21 78  1  0  0  0  0
 22 79  1  0  0  0  0
 23 25  2  0  0  0  0
 23 78  1  0  0  0  0
 24 80  1  0  0  0  0
 25 81  1  0  0  0  0
 26 62  2  0  0  0  0
 27 63  1  0  0  0  0
 27 67  1  0  0  0  0
 28 68  1  0  0  0  0
 28 73  2  0  0  0  0
 29 48  1  0  0  0  0
 29 69  1  0  0  0  0
 29 74  2  0  0  0  0
 30 59  1  0  0  0  0
 30 64  1  0  0  0  0
 30 75  2  0  0  0  0
 31 60  1  0  0  0  0
 31 70  1  0  0  0  0
 31 76  2  0  0  0  0
 32 65  1  0  0  0  0
 32 66  1  0  0  0  0
 32 77  2  0  0  0  0
 33 36  1  0  0  0  0
 34 48  1  0  0  0  0
 35 64  1  0  0  0  0
 36 38  1  0  0  0  0
 37 39  1  0  0  0  0
 37 43  1  0  0  0  0
 38 47  1  0  0  0  0
 39 50  1  0  0  0  0
 40 44  1  0  0  0  0
 40 49  1  0  0  0  0
 41 51  1  0  0  0  0
 41 52  1  0  0  0  0
 42 51  1  0  0  0  0
 42 52  1  0  0  0  0
 43 65  1  0  0  0  0
 44 66  1  0  0  0  0
 45 49  1  0  0  0  0
 45 66  1  0  0  0  0
 46 50  1  0  0  0  0
 46 65  1  0  0  0  0
 47 69  1  0  0  0  0
 48 64  1  0  0  0  0
 49 58  1  0  0  0  0
 50 63  1  0  0  0  0
 51 71  1  0  0  0  0
 52 79  1  0  0  0  0
 53 60  1  0  0  0  0
 54 61  1  0  0  0  0
 55 61  1  0  0  0  0
 56 61  1  0  0  0  0
 57 72  1  0  0  0  0
 58 71  1  0  0  0  0
 59 61  1  0  0  0  0
 59 70  1  0  0  0  0
 60 72  1  0  0  0  0
 62 63  1  0  0  0  0
M  CHG  2  71   1  72   1
M  ISO  4  32 100  52 101  66 100  79 101
M  END
> <Batch ID>
0191

> <Smiles>
CNC(C)C(=O)NC(C(=O)N1Cc2cc([101O:1][101CH:1]3CC(NCC4CC[100N:0]([100C:0](=O)N5CCCC(n6nc(-c7ccc(Oc8ccc(F)cc8F)cc7)c(C(N)=O)c6N)C5)C4)C3)ccc2CC1C(=O)NC1CCCc2ccccc21)C(C)(C)C

> <Shape>
0.215

> <Color>
0.075

> <Negative vol penalty>
0.000

$$$$

  -OEChem-04052323273D

 87 96  0     1  0  0  0  0  0999 V2000
  -28.0208  -37.8790   24.2839 C   0  0  0  0  0  0  0  0  0  0  0  0
  -28.3680  -37.0673   23.2088 C   0  0  0  0  0  0  0  0  0  0  0  0
  -23.3776   -9.3182   22.3629 C   0  0  0  0  0  0  0  0  0  0  0  0
  -24.9302   -7.6614   21.5372 C   0  0  0  0  0  0  0  0  0  0  0  0
  -27.4592  -37.3151   25.4288 C   0  0  0  0  0  0  0  0  0  0  0  0
  -28.1547  -35.6910   23.2782 C   0  0  0  0  0  0  0  0  0  0  0  0
  -26.4844  -30.0847   19.1434 C   0  0  0  0  0  0  0  0  0  0  0  0
  -22.3170   -8.4454   22.1198 C   0  0  0  0  0  0  0  0  0  0  0  0
  -23.8696   -6.7887   21.2941 C   0  0  0  0  0  0  0  0  0  0  0  0
  -26.9380  -28.8041   18.8306 C   0  0  0  0  0  0  0  0  0  0  0  0
  -21.9021   -4.7032   23.0831 C   0  0  0  0  0  0  0  0  0  0  0  0
  -22.0542   -3.3746   23.4796 C   0  0  0  0  0  0  0  0  0  0  0  0
  -25.8880  -27.9509   20.8278 C   0  0  0  0  0  0  0  0  0  0  0  0
  -21.7590   -2.6578   21.1913 C   0  0  0  0  0  0  0  0  0  0  0  0
  -27.8557  -22.9359   16.8738 C   0  0  0  0  0  0  0  0  0  0  0  0
  -24.6842   -8.9262   22.0715 C   0  0  0  0  0  0  0  0  0  0  0  0
  -26.5328   -9.9424   23.5060 C   0  0  0  0  0  0  0  0  0  0  0  0
  -27.2300  -35.9325   25.5085 C   0  0  0  0  0  0  0  0  0  0  0  0
  -25.7372  -30.3104   20.3084 C   0  0  0  0  0  0  0  0  0  0  0  0
  -27.5907  -35.1080   24.4257 C   0  0  0  0  0  0  0  0  0  0  0  0
  -25.4239  -29.2349   21.1518 C   0  0  0  0  0  0  0  0  0  0  0  0
  -22.5630   -7.1807   21.5855 C   0  0  0  0  0  0  0  0  0  0  0  0
  -26.6423  -27.7374   19.6743 C   0  0  0  0  0  0  0  0  0  0  0  0
  -21.6784   -5.0091   21.7406 C   0  0  0  0  0  0  0  0  0  0  0  0
  -21.9827   -2.3519   22.5338 C   0  0  0  0  0  0  0  0  0  0  0  0
  -21.6069   -3.9865   20.7948 C   0  0  0  0  0  0  0  0  0  0  0  0
  -25.7802   -9.8275   22.3219 C   0  0  0  0  0  0  0  0  0  0  0  0
  -28.8436  -22.3372   17.6242 C   0  0  0  0  0  0  0  0  0  0  0  0
  -29.1952  -24.3065   18.7325 C   0  0  0  0  0  0  0  0  0  0  0  0
  -28.2078  -24.9053   17.9815 C   0  0  0  0  0  0  0  0  0  0  0  0
  -27.4469  -10.9317   23.2372 C   0  0  0  0  0  0  0  0  0  0  0  0
  -26.4162   -9.2194   24.7386 C   0  0  0  0  0  0  0  0  0  0  0  0
  -26.1522  -32.0466   22.9384 C   0  0  0  0  0  0  0  0  0  0  0  0
  -23.1220  -31.0847   23.5824 C   0  0  0  0  0  0  0  0  0  0  0  0
  -20.6437  -28.7910   23.0885 C   0  0  0  0  0  0  0  0  0  0  0  0
  -27.1123  -15.3771   19.1577 C   0  0  0  0  0  0  0  0  0  0  0  0
  -26.6641  -35.3629   26.7852 C   0  0  0  0  0  0  0  0  0  0  0  0
  -25.2325  -31.6931   20.6178 C   0  0  0  0  0  0  0  0  0  0  0  0
  -24.6078  -29.4207   22.4040 C   0  0  0  0  0  0  0  0  0  0  0  0
  -26.1249  -33.9430   26.6323 C   0  0  0  0  0  0  0  0  0  0  0  0
  -29.8589  -12.9286   19.6232 C   0  0  0  0  0  0  0  0  0  0  0  0
  -27.1195  -33.0735   25.8696 C   0  0  0  0  0  0  0  0  0  0  0  0
  -29.1586  -11.8445   20.4437 C   0  0  0  0  0  0  0  0  0  0  0  0
  -29.5495  -18.1167   18.9002 C   0  0  0  0  0  0  0  0  0  0  0  0
  -28.8769  -13.6258   18.6907 C   0  0  0  0  0  0  0  0  0  0  0  0
  -29.3536  -16.6046   18.9473 C   0  0  0  0  0  0  0  0  0  0  0  0
  -26.9880  -13.1427   20.1992 C   0  0  0  0  0  0  0  0  0  0  0  0
  -27.3269  -17.6451   18.1798 C   0  0  0  0  0  0  0  0  0  0  0  0
  -27.3519  -33.6139   24.4534 C   0  0  1  0  0  0  0  0  0  0  0  0
  -24.9168  -31.8970   22.0964 C   0  0  1  0  0  0  0  0  0  0  0  0
  -27.9257  -12.4080   21.1736 C   0  0  1  0  0  0  0  0  0  0  0  0
  -28.5178  -18.5304   17.8615 C   0  0  1  0  0  0  0  0  0  0  0  0
  -30.2600  -25.4751   22.2546 C   0  0  0  0  0  0  0  0  0  0  0  0
  -18.2922  -28.2521   23.7792 C   0  0  0  0  0  0  0  0  0  0  0  0
  -24.1450  -30.0875   26.2785 C   0  0  0  0  0  0  0  0  0  0  0  0
  -22.0413  -28.7487   26.5030 C   0  0  0  0  0  0  0  0  0  0  0  0
  -21.9255  -31.2367   26.3652 C   0  0  0  0  0  0  0  0  0  0  0  0
  -19.6558  -28.9980   20.3064 C   0  0  0  0  0  0  0  0  0  0  0  0
  -29.9475  -25.0639   19.7727 C   0  0  0  0  0  0  0  0  0  0  0  0
  -29.1912  -20.8932   17.4119 C   0  0  0  0  0  0  0  0  0  0  0  0
  -27.8459  -26.3384   18.1743 C   0  0  0  0  0  0  0  0  0  1  0  0
  -29.4683  -24.7276   21.1934 C   0  0  0  0  0  0  0  0  0  0  0  0
  -22.5030  -29.9061   24.2943 C   0  0  1  0  0  0  0  0  0  0  0  0
  -19.1715  -28.9544   22.7564 C   0  0  2  0  0  0  0  0  0  0  0  0
  -22.6708  -29.9912   25.8377 C   0  0  0  0  0  0  0  0  0  0  0  0
  -27.5201  -24.2308   17.0389 N   0  0  0  0  0  0  0  0  0  0  0  0
  -26.1811  -10.6762   21.3716 N   0  0  0  0  0  0  0  0  0  0  0  0
  -29.5310  -23.0117   18.5671 N   0  0  0  0  0  0  0  0  0  0  0  0
  -27.1957  -11.3338   21.9583 N   0  0  0  0  0  0  0  0  0  0  0  0
  -24.1426  -30.7926   22.6666 N   0  0  0  0  0  0  0  0  0  0  0  0
  -27.7240  -14.1481   19.4296 N   0  0  0  0  0  0  0  0  0  0  0  0
  -27.9222  -16.4119   18.6920 N   0  0  0  0  0  0  0  0  0  0  0  0
  -28.4329  -11.4883   23.9723 N   0  0  0  0  0  0  0  0  0  0  0  0
  -25.4229   -8.2365   24.8453 N   0  0  0  0  0  0  0  0  0  0  0  0
  -26.2451  -33.2616   23.5901 N   0  0  0  0  0  0  0  0  0  0  0  0
  -21.1160  -29.8414   23.8467 N   0  0  0  0  0  0  0  0  0  0  0  0
  -28.1772  -19.9574   17.9824 N   0  3  0  0  0  0  0  0  0  0  0  0
  -18.8772  -28.3827   21.4120 N   0  3  0  0  0  0  0  0  0  0  0  0
  -27.1599   -9.4500   25.7221 O   0  0  0  0  0  0  0  0  0  0  0  0
  -26.9605  -31.1273   22.9939 O   0  0  0  0  0  0  0  0  0  0  0  0
  -22.7101  -32.2219   23.8246 O   0  0  0  0  0  0  0  0  0  0  0  0
  -21.3075  -27.8260   22.7160 O   0  0  0  0  0  0  0  0  0  0  0  0
  -25.9055  -15.5569   19.3679 O   0  0  0  0  0  0  0  0  0  0  0  0
  -21.5284   -6.3287   21.3484 O   0  0  0  0  0  0  0  0  0  0  0  0
  -27.0874  -26.4779   19.3696 O   0  0  0  0  0  0  0  0  0  1  0  0
  -22.1303   -1.0762   22.9145 F   0  0  0  0  0  0  0  0  0  0  0  0
  -21.3934   -4.2743   19.5035 F   0  0  0  0  0  0  0  0  0  0  0  0
  1  2  1  0  0  0  0
  1  5  2  0  0  0  0
  2  6  2  0  0  0  0
  3  8  2  0  0  0  0
  3 16  1  0  0  0  0
  4  9  1  0  0  0  0
  4 16  2  0  0  0  0
  5 18  1  0  0  0  0
  6 20  1  0  0  0  0
  7 10  2  0  0  0  0
  7 19  1  0  0  0  0
  8 22  1  0  0  0  0
  9 22  2  0  0  0  0
 10 23  1  0  0  0  0
 11 12  2  0  0  0  0
 11 24  1  0  0  0  0
 12 25  1  0  0  0  0
 13 21  1  0  0  0  0
 13 23  2  0  0  0  0
 14 25  2  0  0  0  0
 14 26  1  0  0  0  0
 15 28  1  0  0  0  0
 15 66  2  0  0  0  0
 16 27  1  0  0  0  0
 17 27  1  0  0  0  0
 17 31  2  0  0  0  0
 17 32  1  0  0  0  0
 18 20  2  0  0  0  0
 18 37  1  0  0  0  0
 19 21  2  0  0  0  0
 19 38  1  0  0  0  0
 20 49  1  0  0  0  0
 21 39  1  0  0  0  0
 22 84  1  0  0  0  0
 23 85  1  0  0  0  0
 24 26  2  0  0  0  0
 24 84  1  0  0  0  0
 25 86  1  0  0  0  0
 26 87  1  0  0  0  0
 27 67  2  0  0  0  0
 28 60  1  0  0  0  0
 28 68  2  0  0  0  0
 29 30  2  0  0  0  0
 29 59  1  0  0  0  0
 29 68  1  0  0  0  0
 30 61  1  0  0  0  0
 30 66  1  0  0  0  0
 31 69  1  0  0  0  0
 31 73  1  0  0  0  0
 32 74  1  0  0  0  0
 32 79  2  0  0  0  0
 33 50  1  0  0  0  0
 33 75  1  0  0  0  0
 33 80  2  0  0  0  0
 34 63  1  0  0  0  0
 34 70  1  0  0  0  0
 34 81  2  0  0  0  0
 35 64  1  0  0  0  0
 35 76  1  0  0  0  0
 35 82  2  0  0  0  0
 36 71  1  0  0  0  0
 36 72  1  0  0  0  0
 36 83  2  0  0  0  0
 37 40  1  0  0  0  0
 38 50  1  0  0  0  0
 39 70  1  0  0  0  0
 40 42  1  0  0  0  0
 41 43  1  0  0  0  0
 41 45  1  0  0  0  0
 42 49  1  0  0  0  0
 43 51  1  0  0  0  0
 44 46  1  0  0  0  0
 44 52  1  0  0  0  0
 45 71  1  0  0  0  0
 46 72  1  0  0  0  0
 47 51  1  0  0  0  0
 47 71  1  0  0  0  0
 48 52  1  0  0  0  0
 48 72  1  0  0  0  0
 49 75  1  0  0  0  0
 50 70  1  0  0  0  0
 51 69  1  0  0  0  0
 52 77  1  0  0  0  0
 53 62  1  0  0  0  0
 54 64  1  0  0  0  0
 55 65  1  0  0  0  0
 56 65  1  0  0  0  0
 57 65  1  0  0  0  0
 58 78  1  0  0  0  0
 59 62  1  0  0  0  0
 60 77  1  0  0  0  0
 61 85  1  0  0  0  0
 63 65  1  0  0  0  0
 63 76  1  0  0  0  0
 64 78  1  0  0  0  0
 67 69  1  0  0  0  0
M  CHG  2  77   1  78   1
M  ISO  4  36 100  61 101  72 100  85 101
M  END
> <Batch ID>
0191

> <Smiles>
CCCc1nc(CNC2CC[100N:0]([100C:0](=O)N3CCCC(n4nc(-c5ccc(Oc6ccc(F)cc6F)cc5)c(C(N)=O)c4N)C3)C2)cnc1[101CH2:1][101O:1]c1ccc2c(c1)CN(C(=O)C(NC(=O)C(C)NC)C(C)(C)C)C(C(=O)NC1CCCc3ccccc31)C2

> <Shape>
0.313

> <Color>
0.085

> <Negative vol penalty>
0.000

$$$$

  -OEChem-04052323273D

 81 90  0     1  0  0  0  0  0999 V2000
  -20.6848  -29.9433   20.1055 C   0  0  0  0  0  0  0  0  0  0  0  0
  -21.7228  -29.0182   20.1504 C   0  0  0  0  0  0  0  0  0  0  0  0
  -23.0372   -9.8210   19.9948 C   0  0  0  0  0  0  0  0  0  0  0  0
  -23.6529  -10.0257   22.3220 C   0  0  0  0  0  0  0  0  0  0  0  0
  -19.5739  -29.7835   20.9327 C   0  0  0  0  0  0  0  0  0  0  0  0
  -21.6511  -27.9333   21.0235 C   0  0  0  0  0  0  0  0  0  0  0  0
  -23.8028  -22.2816   20.0571 C   0  0  0  0  0  0  0  0  0  0  0  0
  -22.2697   -8.6961   20.2967 C   0  0  0  0  0  0  0  0  0  0  0  0
  -22.8854   -8.9008   22.6240 C   0  0  0  0  0  0  0  0  0  0  0  0
  -24.9758  -21.6433   20.4576 C   0  0  0  0  0  0  0  0  0  0  0  0
  -23.1831   -5.5421   22.3765 C   0  0  0  0  0  0  0  0  0  0  0  0
  -23.7442   -4.5815   23.2179 C   0  0  0  0  0  0  0  0  0  0  0  0
  -23.8041  -20.6802   22.3335 C   0  0  0  0  0  0  0  0  0  0  0  0
  -21.9414   -4.9079   24.7929 C   0  0  0  0  0  0  0  0  0  0  0  0
  -23.7289  -10.4857   21.0074 C   0  0  0  0  0  0  0  0  0  0  0  0
  -24.0983  -12.9899   20.6903 C   0  0  0  0  0  0  0  0  0  0  0  0
  -19.4841  -28.6908   21.8094 C   0  0  0  0  0  0  0  0  0  0  0  0
  -22.6223  -22.1325   20.7992 C   0  0  0  0  0  0  0  0  0  0  0  0
  -20.5386  -27.7595   21.8642 C   0  0  0  0  0  0  0  0  0  0  0  0
  -22.6169  -21.3156   21.9389 C   0  0  0  0  0  0  0  0  0  0  0  0
  -29.1814  -19.9472   22.9317 C   0  0  0  0  0  0  0  0  0  0  0  0
  -22.1938   -8.2360   21.6114 C   0  0  0  0  0  0  0  0  0  0  0  0
  -24.9773  -20.8448   21.5976 C   0  0  0  0  0  0  0  0  0  0  0  0
  -22.0011   -6.1856   22.7433 C   0  0  0  0  0  0  0  0  0  0  0  0
  -23.1234   -4.2644   24.4261 C   0  0  0  0  0  0  0  0  0  0  0  0
  -21.3802   -5.8685   23.9514 C   0  0  0  0  0  0  0  0  0  0  0  0
  -24.5223  -11.6475   20.6960 C   0  0  0  0  0  0  0  0  0  0  0  0
  -30.0836  -18.9241   22.9989 C   0  0  0  0  0  0  0  0  0  0  0  0
  -28.4227  -19.6414   21.7655 C   0  0  0  0  0  0  0  0  0  0  0  0
  -25.2171  -13.7018   20.3326 C   0  0  0  0  0  0  0  0  0  0  0  0
  -22.8085  -13.5438   20.9824 C   0  0  0  0  0  0  0  0  0  0  0  0
  -20.7143  -24.1077   22.3996 C   0  0  0  0  0  0  0  0  0  0  0  0
  -18.8726  -21.4551   22.7068 C   0  0  0  0  0  0  0  0  0  0  0  0
  -18.6835  -18.0478   22.7439 C   0  0  0  0  0  0  0  0  0  0  0  0
  -30.6867  -14.7180   20.7753 C   0  0  0  0  0  0  0  0  0  0  0  0
  -18.2851  -28.5860   22.7183 C   0  0  0  0  0  0  0  0  0  0  0  0
  -21.3588  -22.8062   20.3389 C   0  0  0  0  0  0  0  0  0  0  0  0
  -21.3709  -21.1067   22.7589 C   0  0  0  0  0  0  0  0  0  0  0  0
  -31.2207  -18.4032   23.7779 C   0  0  0  0  0  0  0  0  0  0  0  0
  -18.1154  -27.2049   23.3460 C   0  0  0  0  0  0  0  0  0  0  0  0
  -31.3439  -16.9522   23.2280 C   0  0  0  0  0  0  0  0  0  0  0  0
  -29.6802  -12.1378   18.5379 C   0  0  0  0  0  0  0  0  0  0  0  0
  -19.4458  -26.7020   23.8973 C   0  0  0  0  0  0  0  0  0  0  0  0
  -28.2162  -11.8869   18.9037 C   0  0  0  0  0  0  0  0  0  0  0  0
  -30.5226  -12.4599   19.7703 C   0  0  0  0  0  0  0  0  0  0  0  0
  -28.5443  -13.3143   20.9661 C   0  0  0  0  0  0  0  0  0  0  0  0
  -20.4861  -26.5560   22.7802 C   0  0  1  0  0  0  0  0  0  0  0  0
  -20.3410  -22.9969   21.4593 C   0  0  1  0  0  0  0  0  0  0  0  0
  -27.6440  -13.0405   19.7493 C   0  0  2  0  0  0  0  0  0  0  0  0
  -30.6931  -16.9680   21.8225 C   0  0  2  0  0  0  0  0  0  0  0  0
  -29.0381  -21.0942   23.8415 C   0  0  0  0  0  0  0  0  0  0  0  0
  -17.0495  -16.1689   23.0554 C   0  0  0  0  0  0  0  0  0  0  0  0
  -18.8800  -21.9510   25.7175 C   0  0  0  0  0  0  0  0  0  0  0  0
  -18.0802  -19.6001   26.0363 C   0  0  0  0  0  0  0  0  0  0  0  0
  -16.6733  -21.2352   24.7835 C   0  0  0  0  0  0  0  0  0  0  0  0
  -19.1821  -17.0080   20.0183 C   0  0  0  0  0  0  0  0  0  0  0  0
  -27.2830  -20.4289   21.1891 C   0  0  0  0  0  0  0  0  0  1  0  0
  -18.7760  -20.3310   23.7098 C   0  0  1  0  0  0  0  0  0  0  0  0
  -17.7356  -17.0840   22.0532 C   0  0  2  0  0  0  0  0  0  0  0  0
  -18.1265  -20.7846   25.0476 C   0  0  0  0  0  0  0  0  0  0  0  0
  -25.8099  -11.5120   20.3678 N   0  0  0  0  0  0  0  0  0  0  0  0
  -28.8206  -18.5137   21.1506 N   0  0  0  0  0  0  0  0  0  0  0  0
  -29.8097  -18.1174   21.9449 N   0  0  0  0  0  0  0  0  0  0  0  0
  -26.2046  -12.7785   20.1524 N   0  0  0  0  0  0  0  0  0  0  0  0
  -20.1623  -21.7917   22.2716 N   0  0  0  0  0  0  0  0  0  0  0  0
  -29.9265  -13.5632   20.5273 N   0  0  0  0  0  0  0  0  0  0  0  0
  -25.4426  -15.0212   20.1576 N   0  0  0  0  0  0  0  0  0  0  0  0
  -21.7701  -12.6703   21.3331 N   0  0  0  0  0  0  0  0  0  0  0  0
  -20.2436  -25.3497   22.0182 N   0  0  0  0  0  0  0  0  0  0  0  0
  -18.0679  -19.2457   23.0396 N   0  0  0  0  0  0  0  0  0  0  0  0
  -30.0440  -15.7184   21.4943 N   0  0  0  0  0  0  0  0  0  0  0  0
  -18.4780  -16.2383   21.0761 N   0  3  0  0  0  0  0  0  0  0  0  0
  -22.5793  -14.7754   20.9177 O   0  0  0  0  0  0  0  0  0  0  0  0
  -21.3787  -23.8564   23.3981 O   0  0  0  0  0  0  0  0  0  0  0  0
  -17.8413  -22.0092   22.3182 O   0  0  0  0  0  0  0  0  0  0  0  0
  -19.8520  -17.7649   22.9992 O   0  0  0  0  0  0  0  0  0  0  0  0
  -31.8501  -14.8501   20.3803 O   0  0  0  0  0  0  0  0  0  0  0  0
  -21.4448   -7.1385   21.9064 O   0  0  0  0  0  0  0  0  0  0  0  0
  -26.1211  -20.2211   21.9911 O   0  0  0  0  0  0  0  0  0  1  0  0
  -23.6615   -3.3409   25.2333 F   0  0  0  0  0  0  0  0  0  0  0  0
  -20.2439   -6.4826   24.3086 F   0  0  0  0  0  0  0  0  0  0  0  0
  1  2  1  0  0  0  0
  1  5  2  0  0  0  0
  2  6  2  0  0  0  0
  3  8  2  0  0  0  0
  3 15  1  0  0  0  0
  4  9  1  0  0  0  0
  4 15  2  0  0  0  0
  5 17  1  0  0  0  0
  6 19  1  0  0  0  0
  7 10  2  0  0  0  0
  7 18  1  0  0  0  0
  8 22  1  0  0  0  0
  9 22  2  0  0  0  0
 10 23  1  0  0  0  0
 11 12  2  0  0  0  0
 11 24  1  0  0  0  0
 12 25  1  0  0  0  0
 13 20  1  0  0  0  0
 13 23  2  0  0  0  0
 14 25  2  0  0  0  0
 14 26  1  0  0  0  0
 15 27  1  0  0  0  0
 16 27  1  0  0  0  0
 16 30  2  0  0  0  0
 16 31  1  0  0  0  0
 17 19  2  0  0  0  0
 17 36  1  0  0  0  0
 18 20  2  0  0  0  0
 18 37  1  0  0  0  0
 19 47  1  0  0  0  0
 20 38  1  0  0  0  0
 21 28  2  0  0  0  0
 21 29  1  0  0  0  0
 21 51  1  0  0  0  0
 22 78  1  0  0  0  0
 23 79  1  0  0  0  0
 24 26  2  0  0  0  0
 24 78  1  0  0  0  0
 25 80  1  0  0  0  0
 26 81  1  0  0  0  0
 27 61  2  0  0  0  0
 28 39  1  0  0  0  0
 28 63  1  0  0  0  0
 29 57  1  0  0  0  0
 29 62  2  0  0  0  0
 30 64  1  0  0  0  0
 30 67  1  0  0  0  0
 31 68  1  0  0  0  0
 31 73  2  0  0  0  0
 32 48  1  0  0  0  0
 32 69  1  0  0  0  0
 32 74  2  0  0  0  0
 33 58  1  0  0  0  0
 33 65  1  0  0  0  0
 33 75  2  0  0  0  0
 34 59  1  0  0  0  0
 34 70  1  0  0  0  0
 34 76  2  0  0  0  0
 35 66  1  0  0  0  0
 35 71  1  0  0  0  0
 35 77  2  0  0  0  0
 36 40  1  0  0  0  0
 37 48  1  0  0  0  0
 38 65  1  0  0  0  0
 39 41  1  0  0  0  0
 40 43  1  0  0  0  0
 41 50  1  0  0  0  0
 42 44  1  0  0  0  0
 42 45  1  0  0  0  0
 43 47  1  0  0  0  0
 44 49  1  0  0  0  0
 45 66  1  0  0  0  0
 46 49  1  0  0  0  0
 46 66  1  0  0  0  0
 47 69  1  0  0  0  0
 48 65  1  0  0  0  0
 49 64  1  0  0  0  0
 50 63  1  0  0  0  0
 50 71  1  0  0  0  0
 52 59  1  0  0  0  0
 53 60  1  0  0  0  0
 54 60  1  0  0  0  0
 55 60  1  0  0  0  0
 56 72  1  0  0  0  0
 57 79  1  0  0  0  0
 58 60  1  0  0  0  0
 58 70  1  0  0  0  0
 59 72  1  0  0  0  0
 61 64  1  0  0  0  0
 62 63  1  0  0  0  0
M  CHG  1  72   1
M  ISO  4  35 100  57 101  71 100  79 101
M  END
> <Batch ID>
0191

> <Smiles>
CNC(C)C(=O)NC(C(=O)N1Cc2cc([101O:1][101CH2:1]c3nn4c(c3C)CCC4[100NH:0][100C:0](=O)N3CCCC(n4nc(-c5ccc(Oc6ccc(F)cc6F)cc5)c(C(N)=O)c4N)C3)ccc2CC1C(=O)NC1CCCc2ccccc21)C(C)(C)C

> <Shape>
0.244

> <Color>
0.218

> <Negative vol penalty>
0.000

$$$$

  -OEChem-04052323273D

 84 94  0     1  0  0  0  0  0999 V2000
  -16.5659  -30.6131   23.3319 C   0  0  0  0  0  0  0  0  0  0  0  0
  -17.6717  -31.0902   22.6355 C   0  0  0  0  0  0  0  0  0  0  0  0
  -23.7205  -15.1946   23.5391 C   0  0  0  0  0  0  0  0  0  0  0  0
  -22.8211  -15.6872   21.3516 C   0  0  0  0  0  0  0  0  0  0  0  0
  -16.7183  -29.5819   24.2578 C   0  0  0  0  0  0  0  0  0  0  0  0
  -18.9309  -30.5370   22.8655 C   0  0  0  0  0  0  0  0  0  0  0  0
  -25.0672  -29.0291   19.4909 C   0  0  0  0  0  0  0  0  0  0  0  0
  -22.4459  -15.3199   24.0915 C   0  0  0  0  0  0  0  0  0  0  0  0
  -21.5464  -15.8125   21.9039 C   0  0  0  0  0  0  0  0  0  0  0  0
  -26.4410  -29.2341   19.6110 C   0  0  0  0  0  0  0  0  0  0  0  0
  -20.3671  -17.8197   25.0158 C   0  0  0  0  0  0  0  0  0  0  0  0
  -20.2422  -18.5522   26.1962 C   0  0  0  0  0  0  0  0  0  0  0  0
  -26.5713  -27.4030   21.1761 C   0  0  0  0  0  0  0  0  0  0  0  0
  -19.3624  -16.5999   27.3149 C   0  0  0  0  0  0  0  0  0  0  0  0
  -30.9305  -25.3351   20.4697 C   0  0  0  0  0  0  0  0  0  0  0  0
  -23.9082  -15.3782   22.1692 C   0  0  0  0  0  0  0  0  0  0  0  0
  -25.8201  -14.0795   21.0897 C   0  0  0  0  0  0  0  0  0  0  0  0
  -17.9783  -29.0093   24.4922 C   0  0  0  0  0  0  0  0  0  0  0  0
  -24.4323  -28.0148   20.2220 C   0  0  0  0  0  0  0  0  0  0  0  0
  -19.1005  -29.4981   23.7964 C   0  0  0  0  0  0  0  0  0  0  0  0
  -25.1897  -27.1855   21.0615 C   0  0  0  0  0  0  0  0  0  0  0  0
  -21.3588  -15.6289   23.2739 C   0  0  0  0  0  0  0  0  0  0  0  0
  -27.1928  -28.4228   20.4559 C   0  0  0  0  0  0  0  0  0  0  0  0
  -19.9895  -16.4772   24.9849 C   0  0  0  0  0  0  0  0  0  0  0  0
  -19.7399  -17.9424   27.3457 C   0  0  0  0  0  0  0  0  0  0  0  0
  -19.4872  -15.8673   26.1344 C   0  0  0  0  0  0  0  0  0  0  0  0
  -25.2247  -15.2494   21.5981 C   0  0  0  0  0  0  0  0  0  0  0  0
  -31.2711  -26.4659   21.1838 C   0  0  0  0  0  0  0  0  0  0  0  0
  -29.7280  -25.3944   19.7956 C   0  0  0  0  0  0  0  0  0  0  0  0
  -27.0637  -14.4823   20.6681 C   0  0  0  0  0  0  0  0  0  0  0  0
  -29.3561  -27.5090   20.5422 C   0  0  0  0  0  0  0  0  0  1  0  0
  -25.2958  -12.7476   21.0058 C   0  0  0  0  0  0  0  0  0  0  0  0
  -22.1684  -27.9381   22.4519 C   0  0  0  0  0  0  0  0  0  0  0  0
  -22.4314  -24.7294   22.0551 C   0  0  0  0  0  0  0  0  0  0  0  0
  -24.3449  -22.0783   21.0769 C   0  0  0  0  0  0  0  0  0  0  0  0
  -28.9733  -19.8409   18.9226 C   0  0  0  0  0  0  0  0  0  0  0  0
  -18.1016  -27.9287   25.5372 C   0  0  0  0  0  0  0  0  0  0  0  0
  -22.9539  -27.7894   20.0609 C   0  0  0  0  0  0  0  0  0  0  0  0
  -24.5593  -26.0697   21.8526 C   0  0  0  0  0  0  0  0  0  0  0  0
  -19.4071  -27.1424   25.4492 C   0  0  0  0  0  0  0  0  0  0  0  0
  -30.4639  -17.7019   21.5218 C   0  0  0  0  0  0  0  0  0  0  0  0
  -20.5918  -28.0905   25.2932 C   0  0  0  0  0  0  0  0  0  0  0  0
  -32.8248  -25.3987   22.9504 C   0  0  0  0  0  0  0  0  0  0  0  0
  -32.5336  -26.7914   23.4150 C   0  0  0  0  0  0  0  0  0  0  0  0
  -29.2983  -16.7712   21.8367 C   0  0  0  0  0  0  0  0  0  0  0  0
  -30.0014  -19.1053   21.1288 C   0  0  0  0  0  0  0  0  0  0  0  0
  -27.8341  -18.1730   20.3440 C   0  0  0  0  0  0  0  0  0  0  0  0
  -29.7627  -22.0531   20.0450 C   0  0  0  0  0  0  0  0  0  0  0  0
  -29.5570  -22.1008   17.9178 C   0  0  0  0  0  0  0  0  0  0  0  0
  -20.4786  -28.9069   24.0001 C   0  0  1  0  0  0  0  0  0  0  0  0
  -32.5560  -26.4835   21.9408 C   0  0  0  0  0  0  0  0  0  0  0  0
  -22.3286  -27.0580   21.2447 C   0  0  1  0  0  0  0  0  0  0  0  0
  -28.3025  -16.7481   20.6683 C   0  0  2  0  0  0  0  0  0  0  0  0
  -30.1107  -23.0751   18.9575 C   0  0  0  0  0  0  0  0  0  0  0  0
  -24.3021  -19.5751   20.9046 C   0  0  0  0  0  0  0  0  0  0  0  0
  -22.8530  -24.5172   25.0696 C   0  0  0  0  0  0  0  0  0  0  0  0
  -23.7322  -22.2002   24.7133 C   0  0  0  0  0  0  0  0  0  0  0  0
  -21.3783  -22.7479   24.0954 C   0  0  0  0  0  0  0  0  0  0  0  0
  -24.7040  -22.1583   18.1403 C   0  0  0  0  0  0  0  0  0  0  0  0
  -23.2716  -23.6405   22.6775 C   0  0  1  0  0  0  0  0  0  0  0  0
  -24.0375  -20.8887   20.1854 C   0  0  2  0  0  0  0  0  0  0  0  0
  -22.8206  -23.2986   24.1256 C   0  0  0  0  0  0  0  0  0  0  0  0
  -26.0244  -16.3156   21.5088 N   0  0  0  0  0  0  0  0  0  0  0  0
  -30.5048  -27.5747   21.2421 N   0  0  0  0  0  0  0  0  0  0  0  0
  -28.9128  -26.4694   19.8099 N   0  0  0  0  0  0  0  0  0  0  0  0
  -27.1350  -15.8170   20.9395 N   0  0  0  0  0  0  0  0  0  0  0  0
  -23.1096  -25.8932   21.6660 N   0  0  0  0  0  0  0  0  0  0  0  0
  -28.9609  -19.0790   20.0957 N   0  0  0  0  0  0  0  0  0  0  0  0
  -29.5700  -21.0848   18.9697 N   0  0  0  0  0  0  0  0  0  0  0  0
  -28.0923  -13.8215   20.0957 N   0  0  0  0  0  0  0  0  0  0  0  0
  -24.0008  -12.5080   21.4851 N   0  0  0  0  0  0  0  0  0  0  0  0
  -29.3461  -24.2682   19.0587 N   0  0  0  0  0  0  0  0  0  0  0  0
  -20.8581  -28.1015   22.8591 N   0  0  0  0  0  0  0  0  0  0  0  0
  -23.2251  -22.5113   21.7548 N   0  0  0  0  0  0  0  0  0  0  0  0
  -24.8806  -20.9302   18.9572 N   0  3  0  0  0  0  0  0  0  0  0  0
  -25.9624  -11.7949   20.5352 O   0  0  0  0  0  0  0  0  0  0  0  0
  -23.1603  -28.4312   22.9760 O   0  0  0  0  0  0  0  0  0  0  0  0
  -21.2192  -24.5510   21.9126 O   0  0  0  0  0  0  0  0  0  0  0  0
  -25.4671  -22.5716   21.1659 O   0  0  0  0  0  0  0  0  0  0  0  0
  -28.4410  -19.4447   17.8778 O   0  0  0  0  0  0  0  0  0  0  0  0
  -20.1148  -15.7510   23.8125 O   0  0  0  0  0  0  0  0  0  0  0  0
  -28.5508  -28.6237   20.5770 O   0  0  0  0  0  0  0  0  0  1  0  0
  -19.6215  -18.6456   28.4796 F   0  0  0  0  0  0  0  0  0  0  0  0
  -19.1239  -14.5776   26.1112 F   0  0  0  0  0  0  0  0  0  0  0  0
  1  2  1  0  0  0  0
  1  5  2  0  0  0  0
  2  6  2  0  0  0  0
  3  8  2  0  0  0  0
  3 16  1  0  0  0  0
  4  9  1  0  0  0  0
  4 16  2  0  0  0  0
  5 18  1  0  0  0  0
  6 20  1  0  0  0  0
  7 10  2  0  0  0  0
  7 19  1  0  0  0  0
  8 22  1  0  0  0  0
  9 22  2  0  0  0  0
 10 23  1  0  0  0  0
 11 12  2  0  0  0  0
 11 24  1  0  0  0  0
 12 25  1  0  0  0  0
 13 21  1  0  0  0  0
 13 23  2  0  0  0  0
 14 25  2  0  0  0  0
 14 26  1  0  0  0  0
 15 28  2  0  0  0  0
 15 29  1  0  0  0  0
 16 27  1  0  0  0  0
 17 27  1  0  0  0  0
 17 30  2  0  0  0  0
 17 32  1  0  0  0  0
 18 20  2  0  0  0  0
 18 37  1  0  0  0  0
 19 21  2  0  0  0  0
 19 38  1  0  0  0  0
 20 50  1  0  0  0  0
 21 39  1  0  0  0  0
 22 81  1  0  0  0  0
 23 82  1  0  0  0  0
 24 26  2  0  0  0  0
 24 81  1  0  0  0  0
 25 83  1  0  0  0  0
 26 84  1  0  0  0  0
 27 63  2  0  0  0  0
 28 51  1  0  0  0  0
 28 64  1  0  0  0  0
 29 65  2  0  0  0  0
 29 72  1  0  0  0  0
 30 66  1  0  0  0  0
 30 70  1  0  0  0  0
 31 64  2  0  0  0  0
 31 65  1  0  0  0  0
 31 82  1  0  0  0  0
 32 71  1  0  0  0  0
 32 76  2  0  0  0  0
 33 52  1  0  0  0  0
 33 73  1  0  0  0  0
 33 77  2  0  0  0  0
 34 60  1  0  0  0  0
 34 67  1  0  0  0  0
 34 78  2  0  0  0  0
 35 61  1  0  0  0  0
 35 74  1  0  0  0  0
 35 79  2  0  0  0  0
 36 68  1  0  0  0  0
 36 69  1  0  0  0  0
 36 80  2  0  0  0  0
 37 40  1  0  0  0  0
 38 52  1  0  0  0  0
 39 67  1  0  0  0  0
 40 42  1  0  0  0  0
 41 45  1  0  0  0  0
 41 46  1  0  0  0  0
 42 50  1  0  0  0  0
 43 44  1  0  0  0  0
 43 51  1  0  0  0  0
 44 51  1  0  0  0  0
 45 53  1  0  0  0  0
 46 68  1  0  0  0  0
 47 53  1  0  0  0  0
 47 68  1  0  0  0  0
 48 54  1  0  0  0  0
 48 69  1  0  0  0  0
 49 54  1  0  0  0  0
 49 69  1  0  0  0  0
 50 73  1  0  0  0  0
 52 67  1  0  0  0  0
 53 66  1  0  0  0  0
 54 72  1  0  0  0  0
 55 61  1  0  0  0  0
 56 62  1  0  0  0  0
 57 62  1  0  0  0  0
 58 62  1  0  0  0  0
 59 75  1  0  0  0  0
 60 62  1  0  0  0  0
 60 74  1  0  0  0  0
 61 75  1  0  0  0  0
 63 66  1  0  0  0  0
M  CHG  1  75   1
M  ISO  4  31 101  36 100  69 100  82 101
M  END
> <Batch ID>
0191

> <Smiles>
CNC(C)C(=O)NC(C(=O)N1Cc2cc([101O:1][101c:1]3nc(NC4C[100N:0]([100C:0](=O)N5CCCC(n6nc(-c7ccc(Oc8ccc(F)cc8F)cc7)c(C(N)=O)c6N)C5)C4)cc(C4CC4)n3)ccc2CC1C(=O)NC1CCCc2ccccc21)C(C)(C)C

> <Shape>
0.221

> <Color>
0.079

> <Negative vol penalty>
0.000

$$$$

  -OEChem-04052323273D

 86 95  0     1  0  0  0  0  0999 V2000
  -17.8707  -14.9535   22.9416 C   0  0  0  0  0  0  0  0  0  0  0  0
  -18.6861  -16.0075   22.5423 C   0  0  0  0  0  0  0  0  0  0  0  0
  -23.0186  -27.9548   22.1168 C   0  0  0  0  0  0  0  0  0  0  0  0
  -23.6736  -30.2401   21.6865 C   0  0  0  0  0  0  0  0  0  0  0  0
  -18.4350  -13.8179   23.5211 C   0  0  0  0  0  0  0  0  0  0  0  0
  -20.0664  -15.9270   22.7232 C   0  0  0  0  0  0  0  0  0  0  0  0
  -24.4004  -18.2227   19.0556 C   0  0  0  0  0  0  0  0  0  0  0  0
  -21.9280  -28.4071   22.8594 C   0  0  0  0  0  0  0  0  0  0  0  0
  -22.5829  -30.6925   22.4291 C   0  0  0  0  0  0  0  0  0  0  0  0
  -25.1551  -19.3935   19.1140 C   0  0  0  0  0  0  0  0  0  0  0  0
  -18.8431  -29.6502   22.2502 C   0  0  0  0  0  0  0  0  0  0  0  0
  -17.6088  -29.0402   22.0266 C   0  0  0  0  0  0  0  0  0  0  0  0
  -26.9500  -18.1766   20.1709 C   0  0  0  0  0  0  0  0  0  0  0  0
  -17.5296  -28.3520   24.3412 C   0  0  0  0  0  0  0  0  0  0  0  0
  -23.8915  -28.8713   21.5304 C   0  0  0  0  0  0  0  0  0  0  0  0
  -25.0540  -28.1346   19.3825 C   0  0  0  0  0  0  0  0  0  0  0  0
  -19.8238  -13.7193   23.7004 C   0  0  0  0  0  0  0  0  0  0  0  0
  -24.9114  -17.0203   19.5651 C   0  0  0  0  0  0  0  0  0  0  0  0
  -20.6497  -14.7895   23.3069 C   0  0  0  0  0  0  0  0  0  0  0  0
  -26.2008  -16.9914   20.1154 C   0  0  0  0  0  0  0  0  0  0  0  0
  -21.7101  -29.7760   23.0155 C   0  0  0  0  0  0  0  0  0  0  0  0
  -26.4290  -19.3712   19.6743 C   0  0  0  0  0  0  0  0  0  0  0  0
  -19.4207  -29.6111   23.5193 C   0  0  0  0  0  0  0  0  0  0  0  0
  -16.9520  -28.3912   23.0721 C   0  0  0  0  0  0  0  0  0  0  0  0
  -18.7639  -28.9620   24.5648 C   0  0  0  0  0  0  0  0  0  0  0  0
  -25.0186  -28.4046   20.7637 C   0  0  0  0  0  0  0  0  0  0  0  0
  -26.3425  -27.7217   19.1463 C   0  0  0  0  0  0  0  0  0  0  0  0
  -24.0151  -28.2470   18.4008 C   0  0  0  0  0  0  0  0  0  0  0  0
  -24.0501  -15.0189   21.8794 C   0  0  0  0  0  0  0  0  0  0  0  0
  -26.4756  -13.2207   20.6938 C   0  0  0  0  0  0  0  0  0  0  0  0
  -29.4082  -13.0980   18.9526 C   0  0  0  0  0  0  0  0  0  0  0  0
  -30.2890  -25.4036   23.1570 C   0  0  0  0  0  0  0  0  0  0  0  0
  -20.3834  -12.4917   24.3746 C   0  0  0  0  0  0  0  0  0  0  0  0
  -24.0953  -15.7604   19.4703 C   0  0  0  0  0  0  0  0  0  0  0  0
  -26.8032  -15.7221   20.6578 C   0  0  0  0  0  0  0  0  0  0  0  0
  -21.8896  -12.3278   24.1885 C   0  0  0  0  0  0  0  0  0  0  0  0
  -30.8066  -28.2308   20.7567 C   0  0  0  0  0  0  0  0  0  0  0  0
  -22.6069  -13.6479   24.4523 C   0  0  0  0  0  0  0  0  0  0  0  0
  -29.3606  -28.6091   20.4396 C   0  0  0  0  0  0  0  0  0  0  0  0
  -29.6950  -23.9060   18.8340 C   0  0  0  0  0  0  0  0  0  0  0  0
  -30.9265  -27.6202   22.1479 C   0  0  0  0  0  0  0  0  0  0  0  0
  -32.0964  -24.4382   24.5244 C   0  0  0  0  0  0  0  0  0  0  0  0
  -28.5884  -26.8120   22.0526 C   0  0  0  0  0  0  0  0  0  0  0  0
  -31.0849  -23.9127   19.4554 C   0  0  0  0  0  0  0  0  0  0  0  0
  -33.5465  -24.7627   24.8373 C   0  0  0  0  0  0  0  0  0  0  0  0
  -30.4655  -21.9263   20.8656 C   0  0  0  0  0  0  0  0  0  0  0  0
  -33.9743  -25.1643   22.4159 C   0  0  0  0  0  0  0  0  0  0  0  0
  -22.1537  -14.7291   23.4639 C   0  0  1  0  0  0  0  0  0  0  0  0
  -24.5120  -14.7007   20.4855 C   0  0  1  0  0  0  0  0  0  0  0  0
  -29.0499  -22.5110   18.8193 C   0  0  2  0  0  0  0  0  0  0  0  0
  -29.0650  -21.9134   20.2454 C   0  0  1  0  0  0  0  0  0  0  0  0
  -28.4210  -27.4090   20.6459 C   0  0  1  0  0  0  0  0  0  0  0  0
  -32.5161  -24.8423   22.0904 C   0  0  1  0  0  0  0  0  0  0  0  0
  -29.6456  -22.2355   16.4072 C   0  0  0  0  0  0  0  0  0  0  0  0
  -31.1746  -11.4918   18.1798 C   0  0  0  0  0  0  0  0  0  0  0  0
  -27.6125  -13.1135   23.5233 C   0  0  0  0  0  0  0  0  0  0  0  0
  -29.7872  -12.3499   22.5457 C   0  0  0  0  0  0  0  0  0  0  0  0
  -27.7380  -10.9552   22.2661 C   0  0  0  0  0  0  0  0  0  0  0  0
  -28.8847  -13.7117   16.1051 C   0  0  0  0  0  0  0  0  0  0  0  0
  -29.7102  -21.6169   17.7624 C   0  0  0  0  0  0  0  0  0  0  0  0
  -28.4757  -20.5031   20.3056 C   0  0  0  0  0  0  0  0  0  1  0  0
  -32.3444  -23.4171   21.5470 C   0  0  0  0  0  0  0  0  0  0  0  0
  -27.9568  -13.1116   20.9645 C   0  0  1  0  0  0  0  0  0  0  0  0
  -29.8732  -12.1941   17.8252 C   0  0  2  0  0  0  0  0  0  0  0  0
  -28.2618  -12.4070   22.3165 C   0  0  0  0  0  0  0  0  0  0  0  0
  -26.1914  -28.1818   21.3628 N   0  0  0  0  0  0  0  0  0  0  0  0
  -26.9758  -27.7674   20.3533 N   0  0  0  0  0  0  0  0  0  0  0  0
  -25.9635  -14.5178   20.5480 N   0  0  0  0  0  0  0  0  0  0  0  0
  -29.9913  -26.5027   22.3344 N   0  0  0  0  0  0  0  0  0  0  0  0
  -31.6479  -25.0551   23.2730 N   0  0  0  0  0  0  0  0  0  0  0  0
  -26.9842  -27.3276   18.0259 N   0  0  0  0  0  0  0  0  0  0  0  0
  -22.7500  -28.6866   18.8141 N   0  0  0  0  0  0  0  0  0  0  0  0
  -22.7898  -14.5373   22.1782 N   0  0  0  0  0  0  0  0  0  0  0  0
  -28.5366  -12.4489   19.8012 N   0  0  0  0  0  0  0  0  0  0  0  0
  -34.3948  -24.4444   23.6535 N   0  3  0  0  0  0  0  0  0  0  0  0
  -31.0160  -23.3326   20.8457 N   0  3  1  0  0  0  0  0  0  0  0  0
  -30.0905  -12.9867   16.5819 N   0  3  0  0  0  0  0  0  0  0  0  0
  -24.1985  -27.9503   17.1959 O   0  0  0  0  0  0  0  0  0  0  0  0
  -24.7834  -15.6531   22.6289 O   0  0  0  0  0  0  0  0  0  0  0  0
  -25.7993  -12.1927   20.6076 O   0  0  0  0  0  0  0  0  0  0  0  0
  -29.7838  -14.2623   19.0709 O   0  0  0  0  0  0  0  0  0  0  0  0
  -29.4034  -24.7738   23.7479 O   0  0  0  0  0  0  0  0  0  0  0  0
  -20.6458  -30.2178   23.7399 O   0  0  0  0  0  0  0  0  0  0  0  0
  -27.1819  -20.5351   19.7344 O   0  0  0  0  0  0  0  0  0  1  0  0
  -15.7660  -27.8068   22.8576 F   0  0  0  0  0  0  0  0  0  0  0  0
  -19.3133  -28.9221   25.7864 F   0  0  0  0  0  0  0  0  0  0  0  0
  1  2  1  0  0  0  0
  1  5  2  0  0  0  0
  2  6  2  0  0  0  0
  3  8  2  0  0  0  0
  3 15  1  0  0  0  0
  4  9  1  0  0  0  0
  4 15  2  0  0  0  0
  5 17  1  0  0  0  0
  6 19  1  0  0  0  0
  7 10  2  0  0  0  0
  7 18  1  0  0  0  0
  8 21  1  0  0  0  0
  9 21  2  0  0  0  0
 10 22  1  0  0  0  0
 11 12  2  0  0  0  0
 11 23  1  0  0  0  0
 12 24  1  0  0  0  0
 13 20  1  0  0  0  0
 13 22  2  0  0  0  0
 14 24  2  0  0  0  0
 14 25  1  0  0  0  0
 15 26  1  0  0  0  0
 16 26  1  0  0  0  0
 16 27  2  0  0  0  0
 16 28  1  0  0  0  0
 17 19  2  0  0  0  0
 17 33  1  0  0  0  0
 18 20  2  0  0  0  0
 18 34  1  0  0  0  0
 19 48  1  0  0  0  0
 20 35  1  0  0  0  0
 21 83  1  0  0  0  0
 22 84  1  0  0  0  0
 23 25  2  0  0  0  0
 23 83  1  0  0  0  0
 24 85  1  0  0  0  0
 25 86  1  0  0  0  0
 26 66  2  0  0  0  0
 27 67  1  0  0  0  0
 27 71  1  0  0  0  0
 28 72  1  0  0  0  0
 28 78  2  0  0  0  0
 29 49  1  0  0  0  0
 29 73  1  0  0  0  0
 29 79  2  0  0  0  0
 30 63  1  0  0  0  0
 30 68  1  0  0  0  0
 30 80  2  0  0  0  0
 31 64  1  0  0  0  0
 31 74  1  0  0  0  0
 31 81  2  0  0  0  0
 32 69  1  0  0  0  0
 32 70  1  0  0  0  0
 32 82  2  0  0  0  0
 33 36  1  0  0  0  0
 34 49  1  0  0  0  0
 35 68  1  0  0  0  0
 36 38  1  0  0  0  0
 37 39  1  0  0  0  0
 37 41  1  0  0  0  0
 38 48  1  0  0  0  0
 39 52  1  0  0  0  0
 40 44  1  0  0  0  0
 40 50  1  0  0  0  0
 41 69  1  0  0  0  0
 42 45  1  0  0  0  0
 42 70  1  0  0  0  0
 43 52  1  0  0  0  0
 43 69  1  0  0  0  0
 44 76  1  0  0  0  0
 45 75  1  0  0  0  0
 46 51  1  0  0  0  0
 46 76  1  0  0  0  0
 47 53  1  0  0  0  0
 47 75  1  0  0  0  0
 48 73  1  0  0  0  0
 49 68  1  0  0  0  0
 50 51  1  0  0  0  0
 50 60  1  0  0  0  0
 51 61  1  0  0  0  0
 52 67  1  0  0  0  0
 53 62  1  0  0  0  0
 53 70  1  0  0  0  0
 54 60  1  0  0  0  0
 55 64  1  0  0  0  0
 56 65  1  0  0  0  0
 57 65  1  0  0  0  0
 58 65  1  0  0  0  0
 59 77  1  0  0  0  0
 61 84  1  0  0  0  0
 62 76  1  0  0  0  0
 63 65  1  0  0  0  0
 63 74  1  0  0  0  0
 64 77  1  0  0  0  0
 66 67  1  0  0  0  0
M  CHG  3  75   1  76   1  77   1
M  ISO  4  32 100  61 101  70 100  84 101
M  END
> <Batch ID>
0191

> <Smiles>
CCC1CCN(CC2CNCC[100N:0]2[100C:0](=O)N2CCCC(n3nc(-c4ccc(Oc5ccc(F)cc5F)cc4)c(C(N)=O)c3N)C2)CC1[101CH2:1][101O:1]c1ccc2c(c1)CN(C(=O)C(NC(=O)C(C)NC)C(C)(C)C)C(C(=O)NC1CCCc3ccccc31)C2

> <Shape>
0.249

> <Color>
0.044

> <Negative vol penalty>
0.000

$$$$

  -OEChem-04052323273D

 82 91  0     1  0  0  0  0  0999 V2000
  -30.9477  -11.3651   19.6521 C   0  0  0  0  0  0  0  0  0  0  0  0
  -30.7062  -12.7078   19.3800 C   0  0  0  0  0  0  0  0  0  0  0  0
  -19.9137  -25.7163   20.2613 C   0  0  0  0  0  0  0  0  0  0  0  0
  -21.6297  -24.1513   20.9271 C   0  0  0  0  0  0  0  0  0  0  0  0
  -29.8949  -10.5300   20.0241 C   0  0  0  0  0  0  0  0  0  0  0  0
  -29.4115  -13.2161   19.4786 C   0  0  0  0  0  0  0  0  0  0  0  0
  -29.2495  -17.6648   21.8927 C   0  0  0  0  0  0  0  0  0  0  0  0
  -19.2675  -24.7052   19.5502 C   0  0  0  0  0  0  0  0  0  0  0  0
  -20.9834  -23.1402   20.2160 C   0  0  0  0  0  0  0  0  0  0  0  0
  -29.6305  -18.7951   21.1710 C   0  0  0  0  0  0  0  0  0  0  0  0
  -20.6996  -22.1494   16.9960 C   0  0  0  0  0  0  0  0  0  0  0  0
  -21.4824  -21.3197   16.1932 C   0  0  0  0  0  0  0  0  0  0  0  0
  -30.9583  -22.9854   18.8549 C   0  0  0  0  0  0  0  0  0  0  0  0
  -27.3086  -19.3324   20.7981 C   0  0  0  0  0  0  0  0  0  0  0  0
  -29.0364  -24.3476   18.3702 C   0  0  0  0  0  0  0  0  0  0  0  0
  -20.7639  -19.4018   17.4748 C   0  0  0  0  0  0  0  0  0  0  0  0
  -31.5727  -24.1237   19.3513 C   0  0  0  0  0  0  0  0  0  0  0  0
  -21.0949  -25.4394   20.9497 C   0  0  0  0  0  0  0  0  0  0  0  0
  -21.5628  -26.8370   23.0319 C   0  0  0  0  0  0  0  0  0  0  0  0
  -28.5882  -11.0305   20.1366 C   0  0  0  0  0  0  0  0  0  0  0  0
  -27.8929  -17.3532   22.0636 C   0  0  0  0  0  0  0  0  0  0  0  0
  -28.3400  -12.3867   19.8510 C   0  0  0  0  0  0  0  0  0  0  0  0
  -26.9129  -18.1989   21.5245 C   0  0  0  0  0  0  0  0  0  0  0  0
  -29.6659  -23.1079   18.3569 C   0  0  0  0  0  0  0  0  0  0  0  0
  -19.8023  -23.4172   19.5275 C   0  0  0  0  0  0  0  0  0  0  0  0
  -28.6601  -19.6275   20.6211 C   0  0  0  0  0  0  0  0  0  0  0  0
  -19.9491  -21.6053   18.0383 C   0  0  0  0  0  0  0  0  0  0  0  0
  -21.5145  -19.9459   16.4326 C   0  0  0  0  0  0  0  0  0  0  0  0
  -19.9812  -20.2315   18.2777 C   0  0  0  0  0  0  0  0  0  0  0  0
  -21.7632  -26.4835   21.6840 C   0  0  0  0  0  0  0  0  0  0  0  0
  -29.7368  -25.4250   18.8885 C   0  0  0  0  0  0  0  0  0  0  0  0
  -22.4313  -27.8792   23.2463 C   0  0  0  0  0  0  0  0  0  0  0  0
  -20.6714  -26.2735   24.0033 C   0  0  0  0  0  0  0  0  0  0  0  0
  -26.0277  -14.9193   21.2267 C   0  0  0  0  0  0  0  0  0  0  0  0
  -23.8281  -16.4974   23.0138 C   0  0  0  0  0  0  0  0  0  0  0  0
  -22.7585  -19.4508   24.3480 C   0  0  0  0  0  0  0  0  0  0  0  0
  -27.5434  -29.4599   20.3950 C   0  0  0  0  0  0  0  0  0  0  0  0
  -27.4748  -10.0788   20.4960 C   0  0  0  0  0  0  0  0  0  0  0  0
  -27.4980  -16.1449   22.8675 C   0  0  0  0  0  0  0  0  0  0  0  0
  -25.4429  -17.9198   21.6966 C   0  0  0  0  0  0  0  0  0  0  0  0
  -26.1940  -10.7801   20.9412 C   0  0  0  0  0  0  0  0  0  0  0  0
  -24.6225  -31.4672   21.0051 C   0  0  0  0  0  0  0  0  0  0  0  0
  -25.8485  -11.9177   19.9855 C   0  0  0  0  0  0  0  0  0  0  0  0
  -23.5260  -30.4534   21.3143 C   0  0  0  0  0  0  0  0  0  0  0  0
  -25.5971  -30.9165   19.9727 C   0  0  0  0  0  0  0  0  0  0  0  0
  -27.6408  -27.0730   19.3213 C   0  0  0  0  0  0  0  0  0  0  0  0
  -29.4417  -27.7642   20.2000 C   0  0  0  0  0  0  0  0  0  0  0  0
  -25.1639  -28.5942   20.7297 C   0  0  0  0  0  0  0  0  0  0  0  0
  -26.9534  -12.9809   19.9710 C   0  0  1  0  0  0  0  0  0  0  0  0
  -29.1354  -26.8899   18.9623 C   0  0  0  0  0  0  0  0  0  0  0  0
  -26.0946  -15.6431   22.5417 C   0  0  1  0  0  0  0  0  0  0  0  0
  -24.1393  -29.1169   21.7560 C   0  0  2  0  0  0  0  0  0  0  0  0
  -20.9082  -20.4327   25.7299 C   0  0  0  0  0  0  0  0  0  0  0  0
  -21.9655  -16.3785   20.6000 C   0  0  0  0  0  0  0  0  0  0  0  0
  -20.5657  -18.1508   21.6805 C   0  0  0  0  0  0  0  0  0  0  0  0
  -20.8550  -15.9391   22.7973 C   0  0  0  0  0  0  0  0  0  0  0  0
  -24.6390  -20.3084   26.4664 C   0  0  0  0  0  0  0  0  0  0  0  0
  -28.9495  -21.9000   17.8039 C   0  0  0  0  0  0  0  0  0  0  0  0
  -28.1541  -21.1580   18.8725 C   0  0  0  0  0  0  0  0  0  1  0  0
  -22.7930  -17.5617   22.7404 C   0  0  1  0  0  0  0  0  0  0  0  0
  -22.2981  -19.8157   25.7477 C   0  0  2  0  0  0  0  0  0  0  0  0
  -21.5724  -17.0120   21.9495 C   0  0  0  0  0  0  0  0  0  0  0  0
  -30.9932  -25.3447   19.3810 N   0  0  0  0  0  0  0  0  0  0  0  0
  -22.6864  -27.2399   21.0843 N   0  0  0  0  0  0  0  0  0  0  0  0
  -23.0738  -28.0791   22.0599 N   0  0  0  0  0  0  0  0  0  0  0  0
  -25.1071  -16.7229   22.4854 N   0  0  0  0  0  0  0  0  0  0  0  0
  -26.1535  -29.6210   20.3747 N   0  0  0  0  0  0  0  0  0  0  0  0
  -28.0584  -28.2163   20.1148 N   0  0  0  0  0  0  0  0  0  0  0  0
  -22.7004  -28.6350   24.3320 N   0  0  0  0  0  0  0  0  0  0  0  0
  -19.8484  -25.2073   23.6157 N   0  0  0  0  0  0  0  0  0  0  0  0
  -26.8621  -13.8207   21.1461 N   0  0  0  0  0  0  0  0  0  0  0  0
  -22.4536  -18.1431   24.0347 N   0  0  0  0  0  0  0  0  0  0  0  0
  -23.2386  -20.7938   26.3639 N   0  3  0  0  0  0  0  0  0  0  0  0
  -20.5949  -26.7135   25.1755 O   0  0  0  0  0  0  0  0  0  0  0  0
  -25.2738  -15.3263   20.3506 O   0  0  0  0  0  0  0  0  0  0  0  0
  -23.5154  -15.5061   23.6779 O   0  0  0  0  0  0  0  0  0  0  0  0
  -23.3281  -20.2474   23.6053 O   0  0  0  0  0  0  0  0  0  0  0  0
  -28.3073  -30.4063   20.6274 O   0  0  0  0  0  0  0  0  0  0  0  0
  -19.1719  -22.4303   18.8339 O   0  0  0  0  0  0  0  0  0  0  0  0
  -29.0293  -20.7311   19.9156 O   0  0  0  0  0  0  0  0  0  1  0  0
  -22.2650  -19.1490   15.6606 F   0  0  0  0  0  0  0  0  0  0  0  0
  -19.2614  -19.7029   19.2768 F   0  0  0  0  0  0  0  0  0  0  0  0
  1  2  1  0  0  0  0
  1  5  2  0  0  0  0
  2  6  2  0  0  0  0
  3  8  2  0  0  0  0
  3 18  1  0  0  0  0
  4  9  1  0  0  0  0
  4 18  2  0  0  0  0
  5 20  1  0  0  0  0
  6 22  1  0  0  0  0
  7 10  2  0  0  0  0
  7 21  1  0  0  0  0
  8 25  1  0  0  0  0
  9 25  2  0  0  0  0
 10 26  1  0  0  0  0
 11 12  2  0  0  0  0
 11 27  1  0  0  0  0
 12 28  1  0  0  0  0
 13 17  2  0  0  0  0
 13 24  1  0  0  0  0
 14 23  1  0  0  0  0
 14 26  2  0  0  0  0
 15 24  2  0  0  0  0
 15 31  1  0  0  0  0
 16 28  2  0  0  0  0
 16 29  1  0  0  0  0
 17 63  1  0  0  0  0
 18 30  1  0  0  0  0
 19 30  1  0  0  0  0
 19 32  2  0  0  0  0
 19 33  1  0  0  0  0
 20 22  2  0  0  0  0
 20 38  1  0  0  0  0
 21 23  2  0  0  0  0
 21 39  1  0  0  0  0
 22 49  1  0  0  0  0
 23 40  1  0  0  0  0
 24 58  1  0  0  0  0
 25 79  1  0  0  0  0
 26 80  1  0  0  0  0
 27 29  2  0  0  0  0
 27 79  1  0  0  0  0
 28 81  1  0  0  0  0
 29 82  1  0  0  0  0
 30 64  2  0  0  0  0
 31 50  1  0  0  0  0
 31 63  2  0  0  0  0
 32 65  1  0  0  0  0
 32 69  1  0  0  0  0
 33 70  1  0  0  0  0
 33 74  2  0  0  0  0
 34 51  1  0  0  0  0
 34 71  1  0  0  0  0
 34 75  2  0  0  0  0
 35 60  1  0  0  0  0
 35 66  1  0  0  0  0
 35 76  2  0  0  0  0
 36 61  1  0  0  0  0
 36 72  1  0  0  0  0
 36 77  2  0  0  0  0
 37 67  1  0  0  0  0
 37 68  1  0  0  0  0
 37 78  2  0  0  0  0
 38 41  1  0  0  0  0
 39 51  1  0  0  0  0
 40 66  1  0  0  0  0
 41 43  1  0  0  0  0
 42 44  1  0  0  0  0
 42 45  1  0  0  0  0
 43 49  1  0  0  0  0
 44 52  1  0  0  0  0
 45 67  1  0  0  0  0
 46 50  1  0  0  0  0
 46 68  1  0  0  0  0
 47 50  1  0  0  0  0
 47 68  1  0  0  0  0
 48 52  1  0  0  0  0
 48 67  1  0  0  0  0
 49 71  1  0  0  0  0
 51 66  1  0  0  0  0
 52 65  1  0  0  0  0
 53 61  1  0  0  0  0
 54 62  1  0  0  0  0
 55 62  1  0  0  0  0
 56 62  1  0  0  0  0
 57 73  1  0  0  0  0
 58 59  1  0  0  0  0
 59 80  1  0  0  0  0
 60 62  1  0  0  0  0
 60 72  1  0  0  0  0
 61 73  1  0  0  0  0
 64 65  1  0  0  0  0
M  CHG  1  73   1
M  ISO  4  37 100  59 101  68 100  80 101
M  END
> <Batch ID>
0191

> <Smiles>
CNC(C)C(=O)NC(C(=O)N1Cc2cc([101O:1][101CH2:1]Cc3ccnc(C4C[100N:0]([100C:0](=O)N5CCCC(n6nc(-c7ccc(Oc8ccc(F)cc8F)cc7)c(C(N)=O)c6N)C5)C4)c3)ccc2CC1C(=O)NC1CCCc2ccccc21)C(C)(C)C

> <Shape>
0.218

> <Color>
0.083

> <Negative vol penalty>
0.000

$$$$

  -OEChem-04052323273D

 86 96  0     1  0  0  0  0  0999 V2000
  -20.2795  -32.8848   14.8895 C   0  0  0  0  0  0  0  0  0  0  0  0
  -21.1751  -31.8432   15.1094 C   0  0  0  0  0  0  0  0  0  0  0  0
  -24.9911  -14.3646   21.2518 C   0  0  0  0  0  0  0  0  0  0  0  0
  -24.9279  -13.0136   23.2538 C   0  0  0  0  0  0  0  0  0  0  0  0
  -20.4507  -34.1009   15.5496 C   0  0  0  0  0  0  0  0  0  0  0  0
  -22.2432  -32.0176   15.9888 C   0  0  0  0  0  0  0  0  0  0  0  0
  -24.7061  -27.7908   19.6731 C   0  0  0  0  0  0  0  0  0  0  0  0
  -25.7968  -13.4091   20.6324 C   0  0  0  0  0  0  0  0  0  0  0  0
  -25.7336  -12.0581   22.6344 C   0  0  0  0  0  0  0  0  0  0  0  0
  -25.8359  -26.9831   19.5505 C   0  0  0  0  0  0  0  0  0  0  0  0
  -29.0522  -12.5002   20.6607 C   0  0  0  0  0  0  0  0  0  0  0  0
  -30.1623  -12.9533   19.9481 C   0  0  0  0  0  0  0  0  0  0  0  0
  -27.1098  -28.5807   20.8327 C   0  0  0  0  0  0  0  0  0  0  0  0
  -29.2798  -11.9495   17.9354 C   0  0  0  0  0  0  0  0  0  0  0  0
  -30.3898  -25.5548   22.3065 C   0  0  0  0  0  0  0  0  0  0  0  0
  -24.5567  -14.1668   22.5625 C   0  0  0  0  0  0  0  0  0  0  0  0
  -22.3184  -15.2123   23.1984 C   0  0  0  0  0  0  0  0  0  0  0  0
  -21.5158  -34.2870   16.4448 C   0  0  0  0  0  0  0  0  0  0  0  0
  -24.7726  -29.0068   20.3684 C   0  0  0  0  0  0  0  0  0  0  0  0
  -22.4296  -33.2378   16.6604 C   0  0  0  0  0  0  0  0  0  0  0  0
  -25.9789  -29.4008   20.9649 C   0  0  0  0  0  0  0  0  0  0  0  0
  -26.1680  -12.2559   21.3237 C   0  0  0  0  0  0  0  0  0  0  0  0
  -27.0387  -27.3794   20.1278 C   0  0  0  0  0  0  0  0  0  0  0  0
  -28.0559  -11.7717   20.0108 C   0  0  0  0  0  0  0  0  0  0  0  0
  -30.2761  -12.6779   18.5854 C   0  0  0  0  0  0  0  0  0  0  0  0
  -28.1697  -11.4963   18.6481 C   0  0  0  0  0  0  0  0  0  0  0  0
  -23.7249  -15.1537   23.2030 C   0  0  0  0  0  0  0  0  0  0  0  0
  -30.2917  -25.5560   23.6693 C   0  0  0  0  0  0  0  0  0  0  0  0
  -22.0188  -16.3273   23.9424 C   0  0  0  0  0  0  0  0  0  0  0  0
  -28.7102  -24.2282   22.8717 C   0  0  0  0  0  0  0  0  0  0  0  0
  -21.3677  -14.3371   22.5773 C   0  0  0  0  0  0  0  0  0  0  0  0
  -24.3413  -32.0596   19.5947 C   0  0  0  0  0  0  0  0  0  0  0  0
  -24.7094  -32.5159   22.7851 C   0  0  0  0  0  0  0  0  0  0  0  0
  -25.9587  -31.3767   25.7496 C   0  0  0  0  0  0  0  0  0  0  0  0
  -24.8375  -21.3188   25.2019 C   0  0  0  0  0  0  0  0  0  0  0  0
  -21.6872  -35.6351   17.0990 C   0  0  0  0  0  0  0  0  0  0  0  0
  -23.5383  -29.8539   20.5145 C   0  0  0  0  0  0  0  0  0  0  0  0
  -26.0977  -30.6873   21.7390 C   0  0  0  0  0  0  0  0  0  0  0  0
  -22.6292  -35.6140   18.3000 C   0  0  0  0  0  0  0  0  0  0  0  0
  -23.6962  -19.0180   27.5153 C   0  0  0  0  0  0  0  0  0  0  0  0
  -23.9016  -34.8415   17.9669 C   0  0  0  0  0  0  0  0  0  0  0  0
  -30.5146  -27.2647   25.6448 C   0  0  0  0  0  0  0  0  0  0  0  0
  -31.2953  -27.8311   24.5003 C   0  0  0  0  0  0  0  0  0  0  0  0
  -23.4309  -17.7649   26.6812 C   0  0  0  0  0  0  0  0  0  0  0  0
  -27.8444  -21.9305   23.4985 C   0  0  0  0  0  0  0  0  0  0  0  0
  -26.2500  -23.8935   23.3799 C   0  0  0  0  0  0  0  0  0  0  0  0
  -24.9833  -19.7049   27.0740 C   0  0  0  0  0  0  0  0  0  0  0  0
  -26.6437  -20.9810   23.4572 C   0  0  0  0  0  0  0  0  0  0  0  0
  -25.0926  -22.9011   23.3151 C   0  0  0  0  0  0  0  0  0  0  0  0
  -24.7454  -18.8206   24.7763 C   0  0  0  0  0  0  0  0  0  0  0  0
  -23.5864  -33.3801   17.6257 C   0  0  1  0  0  0  0  0  0  0  0  0
  -31.1674  -26.3238   24.6458 C   0  0  0  0  0  0  0  0  0  0  0  0
  -27.5355  -23.2703   22.8064 C   0  0  0  0  0  0  0  0  0  0  0  0
  -23.8498  -31.3186   20.8059 C   0  0  1  0  0  0  0  0  0  0  0  0
  -23.4485  -18.0882   25.1766 C   0  0  1  0  0  0  0  0  0  0  0  0
  -26.1331  -31.9856   28.1778 C   0  0  0  0  0  0  0  0  0  0  0  0
  -26.8847  -34.5484   22.1166 C   0  0  0  0  0  0  0  0  0  0  0  0
  -27.6518  -34.4057   24.4956 C   0  0  0  0  0  0  0  0  0  0  0  0
  -25.3557  -35.2298   23.9747 C   0  0  0  0  0  0  0  0  0  0  0  0
  -24.4622  -28.9628   26.5819 C   0  0  0  0  0  0  0  0  0  0  0  0
  -29.1450  -24.4347   20.4420 C   0  0  0  0  0  0  0  0  0  0  0  0
  -27.9318  -25.1865   19.9054 C   0  0  0  0  0  0  0  0  0  1  0  0
  -25.8825  -32.7724   23.7000 C   0  0  1  0  0  0  0  0  0  0  0  0
  -25.3274  -31.2424   27.1236 C   0  0  2  0  0  0  0  0  0  0  0  0
  -26.4422  -34.2157   23.5556 C   0  0  0  0  0  0  0  0  0  0  0  0
  -24.2804  -16.1521   23.8949 N   0  0  0  0  0  0  0  0  0  0  0  0
  -29.3995  -24.7246   21.8392 N   0  0  0  0  0  0  0  0  0  0  0  0
  -23.2174  -16.8487   24.3319 N   0  0  0  0  0  0  0  0  0  0  0  0
  -29.2442  -24.7271   23.9912 N   0  3  0  0  0  0  0  0  0  0  0  0
  -24.8645  -31.4840   21.8486 N   0  0  0  0  0  0  0  0  0  0  0  0
  -24.9627  -19.9918   25.6398 N   0  0  0  0  0  0  0  0  0  0  0  0
  -25.4396  -21.6437   23.9770 N   0  0  0  0  0  0  0  0  0  0  0  0
  -20.8496  -16.9029   24.2948 N   0  0  0  0  0  0  0  0  0  0  0  0
  -21.8463  -13.2387   21.8502 N   0  0  0  0  0  0  0  0  0  0  0  0
  -23.3352  -32.6221   18.8326 N   0  0  0  0  0  0  0  0  0  0  0  0
  -25.4305  -32.4387   25.0465 N   0  0  0  0  0  0  0  0  0  0  0  0
  -25.2468  -29.8077   27.5187 N   0  3  0  0  0  0  0  0  0  0  0  0
  -20.1308  -14.5329   22.6507 O   0  0  0  0  0  0  0  0  0  0  0  0
  -25.5443  -32.1179   19.3691 O   0  0  0  0  0  0  0  0  0  0  0  0
  -23.6902  -33.2009   22.9019 O   0  0  0  0  0  0  0  0  0  0  0  0
  -26.8355  -30.6178   25.3423 O   0  0  0  0  0  0  0  0  0  0  0  0
  -24.2234  -22.1638   25.8652 O   0  0  0  0  0  0  0  0  0  0  0  0
  -26.9540  -11.3232   20.7196 O   0  0  0  0  0  0  0  0  0  0  0  0
  -28.1508  -26.5877   20.0082 O   0  0  0  0  0  0  0  0  0  1  0  0
  -31.3415  -13.1144   17.9008 F   0  0  0  0  0  0  0  0  0  0  0  0
  -27.2152  -10.7980   18.0180 F   0  0  0  0  0  0  0  0  0  0  0  0
  1  2  1  0  0  0  0
  1  5  2  0  0  0  0
  2  6  2  0  0  0  0
  3  8  2  0  0  0  0
  3 16  1  0  0  0  0
  4  9  1  0  0  0  0
  4 16  2  0  0  0  0
  5 18  1  0  0  0  0
  6 20  1  0  0  0  0
  7 10  2  0  0  0  0
  7 19  1  0  0  0  0
  8 22  1  0  0  0  0
  9 22  2  0  0  0  0
 10 23  1  0  0  0  0
 11 12  2  0  0  0  0
 11 24  1  0  0  0  0
 12 25  1  0  0  0  0
 13 21  1  0  0  0  0
 13 23  2  0  0  0  0
 14 25  2  0  0  0  0
 14 26  1  0  0  0  0
 15 28  2  0  0  0  0
 15 67  1  0  0  0  0
 16 27  1  0  0  0  0
 17 27  1  0  0  0  0
 17 29  2  0  0  0  0
 17 31  1  0  0  0  0
 18 20  2  0  0  0  0
 18 36  1  0  0  0  0
 19 21  2  0  0  0  0
 19 37  1  0  0  0  0
 20 51  1  0  0  0  0
 21 38  1  0  0  0  0
 22 83  1  0  0  0  0
 23 84  1  0  0  0  0
 24 26  2  0  0  0  0
 24 83  1  0  0  0  0
 25 85  1  0  0  0  0
 26 86  1  0  0  0  0
 27 66  2  0  0  0  0
 28 52  1  0  0  0  0
 28 69  1  0  0  0  0
 29 68  1  0  0  0  0
 29 73  1  0  0  0  0
 30 53  1  0  0  0  0
 30 67  1  0  0  0  0
 30 69  2  0  0  0  0
 31 74  1  0  0  0  0
 31 78  2  0  0  0  0
 32 54  1  0  0  0  0
 32 75  1  0  0  0  0
 32 79  2  0  0  0  0
 33 63  1  0  0  0  0
 33 70  1  0  0  0  0
 33 80  2  0  0  0  0
 34 64  1  0  0  0  0
 34 76  1  0  0  0  0
 34 81  2  0  0  0  0
 35 71  1  0  0  0  0
 35 72  1  0  0  0  0
 35 82  2  0  0  0  0
 36 39  1  0  0  0  0
 37 54  1  0  0  0  0
 38 70  1  0  0  0  0
 39 41  1  0  0  0  0
 40 44  1  0  0  0  0
 40 47  1  0  0  0  0
 41 51  1  0  0  0  0
 42 43  1  0  0  0  0
 42 52  1  0  0  0  0
 43 52  1  0  0  0  0
 44 55  1  0  0  0  0
 45 48  1  0  0  0  0
 45 53  1  0  0  0  0
 46 49  1  0  0  0  0
 46 53  1  0  0  0  0
 47 71  1  0  0  0  0
 48 72  1  0  0  0  0
 49 72  1  0  0  0  0
 50 55  1  0  0  0  0
 50 71  1  0  0  0  0
 51 75  1  0  0  0  0
 54 70  1  0  0  0  0
 55 68  1  0  0  0  0
 56 64  1  0  0  0  0
 57 65  1  0  0  0  0
 58 65  1  0  0  0  0
 59 65  1  0  0  0  0
 60 77  1  0  0  0  0
 61 62  1  0  0  0  0
 61 67  1  0  0  0  0
 62 84  1  0  0  0  0
 63 65  1  0  0  0  0
 63 76  1  0  0  0  0
 64 77  1  0  0  0  0
 66 68  1  0  0  0  0
M  CHG  2  69   1  77   1
M  ISO  4  35 100  62 101  72 100  84 101
M  END
> <Batch ID>
0191

> <Smiles>
CNC(C)C(=O)NC(C(=O)N1Cc2cc([101O:1][101CH2:1]Cn3cc(C4CC4)nc3C3CC[100N:0]([100C:0](=O)N4CCCC(n5nc(-c6ccc(Oc7ccc(F)cc7F)cc6)c(C(N)=O)c5N)C4)CC3)ccc2CC1C(=O)NC1CCCc2ccccc21)C(C)(C)C

> <Shape>
0.207

> <Color>
0.096

> <Negative vol penalty>
0.000

$$$$

  -OEChem-04052323273D

 84 94  0     1  0  0  0  0  0999 V2000
  -21.3824  -36.8575   17.9823 C   0  0  0  0  0  0  0  0  0  0  0  0
  -21.8849  -35.6925   17.4114 C   0  0  0  0  0  0  0  0  0  0  0  0
  -26.3234  -12.4654   20.9878 C   0  0  0  0  0  0  0  0  0  0  0  0
  -23.9900  -12.7184   20.4152 C   0  0  0  0  0  0  0  0  0  0  0  0
  -21.9041  -37.3225   19.1887 C   0  0  0  0  0  0  0  0  0  0  0  0
  -22.9103  -34.9925   18.0463 C   0  0  0  0  0  0  0  0  0  0  0  0
  -25.3345  -28.3255   19.0418 C   0  0  0  0  0  0  0  0  0  0  0  0
  -26.0387  -11.2507   21.6116 C   0  0  0  0  0  0  0  0  0  0  0  0
  -23.7052  -11.5037   21.0389 C   0  0  0  0  0  0  0  0  0  0  0  0
  -26.5023  -27.5742   18.9169 C   0  0  0  0  0  0  0  0  0  0  0  0
  -23.9852   -8.2126   20.3241 C   0  0  0  0  0  0  0  0  0  0  0  0
  -23.1493   -7.3210   19.6520 C   0  0  0  0  0  0  0  0  0  0  0  0
  -27.2716  -28.4287   21.0376 C   0  0  0  0  0  0  0  0  0  0  0  0
  -21.5845   -7.4016   21.4910 C   0  0  0  0  0  0  0  0  0  0  0  0
  -32.0102  -26.6218   20.1651 C   0  0  0  0  0  0  0  0  0  0  0  0
  -25.2991  -13.1993   20.3896 C   0  0  0  0  0  0  0  0  0  0  0  0
  -25.9450  -14.6563   18.3977 C   0  0  0  0  0  0  0  0  0  0  0  0
  -22.9297  -36.6225   19.8436 C   0  0  0  0  0  0  0  0  0  0  0  0
  -25.1310  -29.1439   20.1622 C   0  0  0  0  0  0  0  0  0  0  0  0
  -23.4471  -35.4493   19.2620 C   0  0  0  0  0  0  0  0  0  0  0  0
  -26.0992  -29.1875   21.1755 C   0  0  0  0  0  0  0  0  0  0  0  0
  -24.7296  -10.7699   21.6371 C   0  0  0  0  0  0  0  0  0  0  0  0
  -27.4723  -27.6280   19.9135 C   0  0  0  0  0  0  0  0  0  0  0  0
  -23.6208   -8.6987   21.5798 C   0  0  0  0  0  0  0  0  0  0  0  0
  -21.9489   -6.9155   20.2354 C   0  0  0  0  0  0  0  0  0  0  0  0
  -22.4204   -8.2933   22.1632 C   0  0  0  0  0  0  0  0  0  0  0  0
  -25.5925  -14.4544   19.7456 C   0  0  0  0  0  0  0  0  0  0  0  0
  -30.7659  -26.2199   20.5614 C   0  0  0  0  0  0  0  0  0  0  0  0
  -26.1183  -16.0143   18.2879 C   0  0  0  0  0  0  0  0  0  0  0  0
  -32.0221  -24.4134   20.3183 C   0  0  0  0  0  0  0  0  0  0  0  0
  -26.1016  -13.7016   17.3396 C   0  0  0  0  0  0  0  0  0  0  0  0
  -24.7406  -32.2652   20.6189 C   0  0  0  0  0  0  0  0  0  0  0  0
  -24.1861  -31.3523   23.6818 C   0  0  0  0  0  0  0  0  0  0  0  0
  -24.6384  -29.0277   26.1392 C   0  0  0  0  0  0  0  0  0  0  0  0
  -28.1799  -20.6951   20.0974 C   0  0  0  0  0  0  0  0  0  0  0  0
  -23.4941  -37.1897   21.1220 C   0  0  0  0  0  0  0  0  0  0  0  0
  -23.8540  -29.9275   20.2946 C   0  0  0  0  0  0  0  0  0  0  0  0
  -25.9199  -30.0346   22.4078 C   0  0  0  0  0  0  0  0  0  0  0  0
  -24.3226  -36.1862   21.9200 C   0  0  0  0  0  0  0  0  0  0  0  0
  -24.9793  -19.7629   21.4593 C   0  0  0  0  0  0  0  0  0  0  0  0
  -25.2936  -35.4476   21.0044 C   0  0  0  0  0  0  0  0  0  0  0  0
  -33.9364  -22.6636   20.6589 C   0  0  0  0  0  0  0  0  0  0  0  0
  -33.5131  -22.5606   19.2270 C   0  0  0  0  0  0  0  0  0  0  0  0
  -24.9012  -18.2933   21.0554 C   0  0  0  0  0  0  0  0  0  0  0  0
  -29.9092  -23.0899   22.2837 C   0  0  0  0  0  0  0  0  0  0  0  0
  -26.3995  -20.1884   21.8380 C   0  0  0  0  0  0  0  0  0  0  0  0
  -28.8040  -22.0450   22.1865 C   0  0  0  0  0  0  0  0  0  0  0  0
  -27.3304  -18.3947   20.4012 C   0  0  0  0  0  0  0  0  0  0  0  0
  -29.2373  -22.9329   19.9964 C   0  0  0  0  0  0  0  0  0  0  0  0
  -24.5421  -34.6486   19.9328 C   0  0  1  0  0  0  0  0  0  0  0  0
  -32.4995  -22.9658   20.2799 C   0  0  0  0  0  0  0  0  0  0  0  0
  -23.9814  -31.1234   21.2333 C   0  0  1  0  0  0  0  0  0  0  0  0
  -25.9228  -17.9800   19.9507 C   0  0  1  0  0  0  0  0  0  0  0  0
  -29.6493  -23.9639   21.0501 C   0  0  2  0  0  0  0  0  0  0  0  0
  -24.0986  -28.5772   28.5481 C   0  0  0  0  0  0  0  0  0  0  0  0
  -26.3305  -33.3489   24.5332 C   0  0  0  0  0  0  0  0  0  0  0  0
  -26.4196  -32.1996   26.7556 C   0  0  0  0  0  0  0  0  0  0  0  0
  -24.3093  -33.2979   26.0051 C   0  0  0  0  0  0  0  0  0  0  0  0
  -23.1237  -26.5770   25.4619 C   0  0  0  0  0  0  0  0  0  0  0  0
  -29.5628  -27.0056   20.8615 C   0  0  0  0  0  0  0  0  0  1  0  0
  -25.0432  -31.1423   24.9066 C   0  0  1  0  0  0  0  0  0  0  0  0
  -23.6625  -28.3797   27.1047 C   0  0  2  0  0  0  0  0  0  0  0  0
  -25.5302  -32.4826   25.5261 C   0  0  0  0  0  0  0  0  0  0  0  0
  -25.5445  -15.5930   20.4422 N   0  0  0  0  0  0  0  0  0  0  0  0
  -30.8016  -24.8490   20.6475 N   0  0  0  0  0  0  0  0  0  0  0  0
  -25.8692  -16.5234   19.5284 N   0  0  0  0  0  0  0  0  0  0  0  0
  -32.7667  -25.4837   20.0226 N   0  3  0  0  0  0  0  0  0  0  0  0
  -24.6572  -30.7874   22.4882 N   0  0  0  0  0  0  0  0  0  0  0  0
  -27.3711  -19.8020   20.8089 N   0  0  0  0  0  0  0  0  0  0  0  0
  -28.6014  -21.8538   20.7487 N   0  0  0  0  0  0  0  0  0  0  0  0
  -26.4581  -16.8107   17.2522 N   0  0  0  0  0  0  0  0  0  0  0  0
  -25.8854  -12.3465   17.6248 N   0  0  0  0  0  0  0  0  0  0  0  0
  -24.0049  -33.4285   20.4960 N   0  0  0  0  0  0  0  0  0  0  0  0
  -24.2594  -30.3135   25.8162 N   0  0  0  0  0  0  0  0  0  0  0  0
  -23.5656  -26.9165   26.8391 N   0  3  0  0  0  0  0  0  0  0  0  0
  -26.4397  -14.0384   16.1795 O   0  0  0  0  0  0  0  0  0  0  0  0
  -25.9078  -32.1033   20.2827 O   0  0  0  0  0  0  0  0  0  0  0  0
  -23.1336  -31.9878   23.7820 O   0  0  0  0  0  0  0  0  0  0  0  0
  -25.6389  -28.4522   25.7169 O   0  0  0  0  0  0  0  0  0  0  0  0
  -28.5471  -20.4479   18.9408 O   0  0  0  0  0  0  0  0  0  0  0  0
  -24.4514   -9.5845   22.2455 O   0  0  0  0  0  0  0  0  0  0  0  0
  -28.6182  -26.8930   19.7933 O   0  0  0  0  0  0  0  0  0  1  0  0
  -21.1455   -6.0605   19.5891 F   0  0  0  0  0  0  0  0  0  0  0  0
  -22.0644   -8.7578   23.3687 F   0  0  0  0  0  0  0  0  0  0  0  0
  1  2  1  0  0  0  0
  1  5  2  0  0  0  0
  2  6  2  0  0  0  0
  3  8  2  0  0  0  0
  3 16  1  0  0  0  0
  4  9  1  0  0  0  0
  4 16  2  0  0  0  0
  5 18  1  0  0  0  0
  6 20  1  0  0  0  0
  7 10  2  0  0  0  0
  7 19  1  0  0  0  0
  8 22  1  0  0  0  0
  9 22  2  0  0  0  0
 10 23  1  0  0  0  0
 11 12  2  0  0  0  0
 11 24  1  0  0  0  0
 12 25  1  0  0  0  0
 13 21  1  0  0  0  0
 13 23  2  0  0  0  0
 14 25  2  0  0  0  0
 14 26  1  0  0  0  0
 15 28  2  0  0  0  0
 15 67  1  0  0  0  0
 16 27  1  0  0  0  0
 17 27  1  0  0  0  0
 17 29  2  0  0  0  0
 17 31  1  0  0  0  0
 18 20  2  0  0  0  0
 18 36  1  0  0  0  0
 19 21  2  0  0  0  0
 19 37  1  0  0  0  0
 20 50  1  0  0  0  0
 21 38  1  0  0  0  0
 22 81  1  0  0  0  0
 23 82  1  0  0  0  0
 24 26  2  0  0  0  0
 24 81  1  0  0  0  0
 25 83  1  0  0  0  0
 26 84  1  0  0  0  0
 27 64  2  0  0  0  0
 28 60  1  0  0  0  0
 28 65  1  0  0  0  0
 29 66  1  0  0  0  0
 29 71  1  0  0  0  0
 30 51  1  0  0  0  0
 30 65  1  0  0  0  0
 30 67  2  0  0  0  0
 31 72  1  0  0  0  0
 31 76  2  0  0  0  0
 32 52  1  0  0  0  0
 32 73  1  0  0  0  0
 32 77  2  0  0  0  0
 33 61  1  0  0  0  0
 33 68  1  0  0  0  0
 33 78  2  0  0  0  0
 34 62  1  0  0  0  0
 34 74  1  0  0  0  0
 34 79  2  0  0  0  0
 35 69  1  0  0  0  0
 35 70  1  0  0  0  0
 35 80  2  0  0  0  0
 36 39  1  0  0  0  0
 37 52  1  0  0  0  0
 38 68  1  0  0  0  0
 39 41  1  0  0  0  0
 40 44  1  0  0  0  0
 40 46  1  0  0  0  0
 41 50  1  0  0  0  0
 42 43  1  0  0  0  0
 42 51  1  0  0  0  0
 43 51  1  0  0  0  0
 44 53  1  0  0  0  0
 45 47  1  0  0  0  0
 45 54  1  0  0  0  0
 46 69  1  0  0  0  0
 47 70  1  0  0  0  0
 48 53  1  0  0  0  0
 48 69  1  0  0  0  0
 49 54  1  0  0  0  0
 49 70  1  0  0  0  0
 50 73  1  0  0  0  0
 52 68  1  0  0  0  0
 53 66  1  0  0  0  0
 54 65  1  0  0  0  0
 55 62  1  0  0  0  0
 56 63  1  0  0  0  0
 57 63  1  0  0  0  0
 58 63  1  0  0  0  0
 59 75  1  0  0  0  0
 60 82  1  0  0  0  0
 61 63  1  0  0  0  0
 61 74  1  0  0  0  0
 62 75  1  0  0  0  0
 64 66  1  0  0  0  0
M  CHG  2  67   1  75   1
M  ISO  4  35 100  60 101  70 100  82 101
M  END
> <Batch ID>
0191

> <Smiles>
CNC(C)C(=O)NC(C(=O)N1Cc2cc([101O:1][101CH2:1]c3cnc(C4CC4)n3C3CC[100N:0]([100C:0](=O)N4CCCC(n5nc(-c6ccc(Oc7ccc(F)cc7F)cc6)c(C(N)=O)c5N)C4)C3)ccc2CC1C(=O)NC1CCCc2ccccc21)C(C)(C)C

> <Shape>
0.256

> <Color>
0.103

> <Negative vol penalty>
0.000

$$$$

  -OEChem-04052323273D

 84 93  0     1  0  0  0  0  0999 V2000
  -16.6893  -30.0607   23.5326 C   0  0  0  0  0  0  0  0  0  0  0  0
  -17.8030  -30.7677   23.9744 C   0  0  0  0  0  0  0  0  0  0  0  0
  -28.6952  -15.1046   18.7246 C   0  0  0  0  0  0  0  0  0  0  0  0
  -26.4736  -14.8378   19.6359 C   0  0  0  0  0  0  0  0  0  0  0  0
  -16.8457  -28.7900   22.9804 C   0  0  0  0  0  0  0  0  0  0  0  0
  -19.0737  -30.2040   23.8653 C   0  0  0  0  0  0  0  0  0  0  0  0
  -25.9131  -32.0255   22.7603 C   0  0  0  0  0  0  0  0  0  0  0  0
  -28.9165  -13.7344   18.8629 C   0  0  0  0  0  0  0  0  0  0  0  0
  -26.6949  -13.4676   19.7742 C   0  0  0  0  0  0  0  0  0  0  0  0
  -27.1780  -31.8518   23.3205 C   0  0  0  0  0  0  0  0  0  0  0  0
  -28.3073  -11.4081   21.9165 C   0  0  0  0  0  0  0  0  0  0  0  0
  -27.9227  -10.8072   23.1150 C   0  0  0  0  0  0  0  0  0  0  0  0
  -27.3355  -29.6825   22.2772 C   0  0  0  0  0  0  0  0  0  0  0  0
  -26.4202   -9.3534   21.9041 C   0  0  0  0  0  0  0  0  0  0  0  0
  -27.4737  -15.6564   19.1112 C   0  0  0  0  0  0  0  0  0  0  0  0
  -26.7062  -17.7379   17.8519 C   0  0  0  0  0  0  0  0  0  0  0  0
  -18.1200  -28.2144   22.8556 C   0  0  0  0  0  0  0  0  0  0  0  0
  -25.3444  -31.0227   21.9620 C   0  0  0  0  0  0  0  0  0  0  0  0
  -19.2472  -28.9239   23.3122 C   0  0  0  0  0  0  0  0  0  0  0  0
  -26.0644  -29.8470   21.7060 C   0  0  0  0  0  0  0  0  0  0  0  0
  -27.9163  -12.9159   19.3876 C   0  0  0  0  0  0  0  0  0  0  0  0
  -27.8882  -30.6790   23.0813 C   0  0  0  0  0  0  0  0  0  0  0  0
  -27.7484  -10.9817   20.7117 C   0  0  0  0  0  0  0  0  0  0  0  0
  -26.9792   -9.7799   23.1088 C   0  0  0  0  0  0  0  0  0  0  0  0
  -26.8049   -9.9544   20.7055 C   0  0  0  0  0  0  0  0  0  0  0  0
  -27.2447  -17.0718   18.9691 C   0  0  0  0  0  0  0  0  0  0  0  0
  -26.6950  -19.0626   18.2145 C   0  0  0  0  0  0  0  0  0  0  0  0
  -26.2563  -17.2067   16.5985 C   0  0  0  0  0  0  0  0  0  0  0  0
  -22.7470  -29.2012   22.1601 C   0  0  0  0  0  0  0  0  0  0  0  0
  -23.6587  -28.2559   19.1941 C   0  0  0  0  0  0  0  0  0  0  0  0
  -26.1728  -27.8873   16.9158 C   0  0  0  0  0  0  0  0  0  0  0  0
  -28.9287  -23.4512   20.3525 C   0  0  0  0  0  0  0  0  0  0  0  0
  -18.2344  -26.8188   22.2955 C   0  0  0  0  0  0  0  0  0  0  0  0
  -23.9903  -31.2366   21.3432 C   0  0  0  0  0  0  0  0  0  0  0  0
  -25.5069  -28.7485   20.8394 C   0  0  0  0  0  0  0  0  0  0  0  0
  -19.6531  -26.4469   21.8720 C   0  0  0  0  0  0  0  0  0  0  0  0
  -27.4743  -21.2695   22.6910 C   0  0  0  0  0  0  0  0  0  0  0  0
  -20.6538  -26.8410   22.9537 C   0  0  0  0  0  0  0  0  0  0  0  0
  -27.2389  -20.0236   21.8376 C   0  0  0  0  0  0  0  0  0  0  0  0
  -32.3581  -32.4683   23.4618 C   0  0  0  0  0  0  0  0  0  0  0  0
  -28.8170  -21.9328   22.3792 C   0  0  0  0  0  0  0  0  0  0  0  0
  -30.4410  -24.3864   22.1589 C   0  0  0  0  0  0  0  0  0  0  0  0
  -29.1106  -25.8918   20.7264 C   0  0  0  0  0  0  0  0  0  0  0  0
  -28.7809  -20.9926   20.0914 C   0  0  0  0  0  0  0  0  0  0  0  0
  -33.0153  -31.5027   22.4636 C   0  0  0  0  0  0  0  0  0  0  0  0
  -31.7214  -25.0976   21.7333 C   0  0  0  0  0  0  0  0  0  0  0  0
  -30.3684  -26.6072   20.2610 C   0  0  0  0  0  0  0  0  0  0  0  0
  -20.6445  -28.3564   23.1881 C   0  0  1  0  0  0  0  0  0  0  0  0
  -23.2927  -29.9332   20.9667 C   0  0  1  0  0  0  0  0  0  0  0  0
  -27.4135  -20.3380   20.3412 C   0  0  1  0  0  0  0  0  0  0  0  0
  -31.3736  -31.3145   23.7458 C   0  0  1  0  0  0  0  0  0  0  0  0
  -26.6185  -27.0511   14.5921 C   0  0  0  0  0  0  0  0  0  0  0  0
  -23.5257  -25.3804   20.2059 C   0  0  0  0  0  0  0  0  0  0  0  0
  -24.8622  -24.6883   18.2052 C   0  0  0  0  0  0  0  0  0  0  0  0
  -22.6110  -25.7194   17.9031 C   0  0  0  0  0  0  0  0  0  0  0  0
  -27.0679  -30.5562   16.0023 C   0  0  0  0  0  0  0  0  0  0  0  0
  -29.9060  -31.6765   23.8490 C   0  0  0  0  0  0  0  0  0  1  0  0
  -32.4052  -28.7933   21.0909 C   0  0  0  0  0  0  0  0  0  0  0  0
  -32.6528  -27.2916   20.9958 C   0  0  0  0  0  0  0  0  0  0  0  0
  -31.9354  -29.3055   22.4484 C   0  0  0  0  0  0  0  0  0  0  0  0
  -24.5472  -27.1658   18.6454 C   0  0  1  0  0  0  0  0  0  0  0  0
  -26.2630  -28.2579   15.4465 C   0  0  2  0  0  0  0  0  0  0  0  0
  -23.8965  -25.7582   18.7578 C   0  0  0  0  0  0  0  0  0  0  0  0
  -27.5534  -17.9047   19.9667 N   0  0  0  0  0  0  0  0  0  0  0  0
  -27.2077  -19.1077   19.4775 N   0  0  0  0  0  0  0  0  0  0  0  0
  -24.1764  -29.0021   20.2622 N   0  0  0  0  0  0  0  0  0  0  0  0
  -28.9551  -22.1759   20.9365 N   0  0  0  0  0  0  0  0  0  0  0  0
  -29.4011  -24.5181   21.1312 N   0  0  0  0  0  0  0  0  0  0  0  0
  -26.2966  -20.1816   17.5730 N   0  0  0  0  0  0  0  0  0  0  0  0
  -26.3383  -15.8230   16.3912 N   0  0  0  0  0  0  0  0  0  0  0  0
  -21.3754  -29.0345   22.1391 N   0  0  0  0  0  0  0  0  0  0  0  0
  -24.8841  -27.5612   17.2821 N   0  0  0  0  0  0  0  0  0  0  0  0
  -31.4100  -26.5251   21.3525 N   0  3  0  0  0  0  0  0  0  0  0  0
  -31.7330  -30.7711   22.4127 N   0  3  2  0  0  0  0  0  0  0  0  0
  -27.3043  -29.3037   15.2391 N   0  3  0  0  0  0  0  0  0  0  0  0
  -25.8105  -17.9392   15.6830 O   0  0  0  0  0  0  0  0  0  0  0  0
  -23.5138  -28.8149   23.0345 O   0  0  0  0  0  0  0  0  0  0  0  0
  -22.5492  -28.4434   18.6887 O   0  0  0  0  0  0  0  0  0  0  0  0
  -27.1486  -27.8835   17.6630 O   0  0  0  0  0  0  0  0  0  0  0  0
  -28.5081  -23.6263   19.2020 O   0  0  0  0  0  0  0  0  0  0  0  0
  -28.1319  -11.5787   19.5225 O   0  0  0  0  0  0  0  0  0  0  0  0
  -29.1319  -30.5054   23.6314 O   0  0  0  0  0  0  0  0  0  1  0  0
  -26.6110   -9.2019   24.2598 F   0  0  0  0  0  0  0  0  0  0  0  0
  -26.2653   -9.5397   19.5510 F   0  0  0  0  0  0  0  0  0  0  0  0
  1  2  1  0  0  0  0
  1  5  2  0  0  0  0
  2  6  2  0  0  0  0
  3  8  2  0  0  0  0
  3 15  1  0  0  0  0
  4  9  1  0  0  0  0
  4 15  2  0  0  0  0
  5 17  1  0  0  0  0
  6 19  1  0  0  0  0
  7 10  2  0  0  0  0
  7 18  1  0  0  0  0
  8 21  1  0  0  0  0
  9 21  2  0  0  0  0
 10 22  1  0  0  0  0
 11 12  2  0  0  0  0
 11 23  1  0  0  0  0
 12 24  1  0  0  0  0
 13 20  1  0  0  0  0
 13 22  2  0  0  0  0
 14 24  2  0  0  0  0
 14 25  1  0  0  0  0
 15 26  1  0  0  0  0
 16 26  1  0  0  0  0
 16 27  2  0  0  0  0
 16 28  1  0  0  0  0
 17 19  2  0  0  0  0
 17 33  1  0  0  0  0
 18 20  2  0  0  0  0
 18 34  1  0  0  0  0
 19 48  1  0  0  0  0
 20 35  1  0  0  0  0
 21 81  1  0  0  0  0
 22 82  1  0  0  0  0
 23 25  2  0  0  0  0
 23 81  1  0  0  0  0
 24 83  1  0  0  0  0
 25 84  1  0  0  0  0
 26 64  2  0  0  0  0
 27 65  1  0  0  0  0
 27 69  1  0  0  0  0
 28 70  1  0  0  0  0
 28 76  2  0  0  0  0
 29 49  1  0  0  0  0
 29 71  1  0  0  0  0
 29 77  2  0  0  0  0
 30 61  1  0  0  0  0
 30 66  1  0  0  0  0
 30 78  2  0  0  0  0
 31 62  1  0  0  0  0
 31 72  1  0  0  0  0
 31 79  2  0  0  0  0
 32 67  1  0  0  0  0
 32 68  1  0  0  0  0
 32 80  2  0  0  0  0
 33 36  1  0  0  0  0
 34 49  1  0  0  0  0
 35 66  1  0  0  0  0
 36 38  1  0  0  0  0
 37 39  1  0  0  0  0
 37 41  1  0  0  0  0
 38 48  1  0  0  0  0
 39 50  1  0  0  0  0
 40 45  1  0  0  0  0
 40 51  1  0  0  0  0
 41 67  1  0  0  0  0
 42 46  1  0  0  0  0
 42 68  1  0  0  0  0
 43 47  1  0  0  0  0
 43 68  1  0  0  0  0
 44 50  1  0  0  0  0
 44 67  1  0  0  0  0
 45 74  1  0  0  0  0
 46 73  1  0  0  0  0
 47 73  1  0  0  0  0
 48 71  1  0  0  0  0
 49 66  1  0  0  0  0
 50 65  1  0  0  0  0
 51 57  1  0  0  0  0
 51 74  1  0  0  0  0
 52 62  1  0  0  0  0
 53 63  1  0  0  0  0
 54 63  1  0  0  0  0
 55 63  1  0  0  0  0
 56 75  1  0  0  0  0
 57 82  1  0  0  0  0
 58 59  1  0  0  0  0
 58 60  1  0  0  0  0
 59 73  1  0  0  0  0
 60 74  1  0  0  0  0
 61 63  1  0  0  0  0
 61 72  1  0  0  0  0
 62 75  1  0  0  0  0
 64 65  1  0  0  0  0
M  CHG  3  73   1  74   1  75   1
M  ISO  4  32 100  57 101  68 100  82 101
M  END
> <Batch ID>
0191

> <Smiles>
CNC(C)C(=O)NC(C(=O)N1Cc2cc([101O:1][101CH2:1]C3CCN3CCCN3CC[100N:0]([100C:0](=O)N4CCCC(n5nc(-c6ccc(Oc7ccc(F)cc7F)cc6)c(C(N)=O)c5N)C4)CC3)ccc2CC1C(=O)NC1CCCc2ccccc21)C(C)(C)C

> <Shape>
0.262

> <Color>
0.098

> <Negative vol penalty>
0.000

$$$$

  -OEChem-04052323273D

 93102  0     1  0  0  0  0  0999 V2000
  -20.0414   -7.5461   23.0135 C   0  0  0  0  0  0  0  0  0  0  0  0
  -20.2353   -8.7904   23.6047 C   0  0  0  0  0  0  0  0  0  0  0  0
  -29.2979  -24.2008   20.7271 C   0  0  0  0  0  0  0  0  0  0  0  0
  -27.6895  -23.7376   18.9848 C   0  0  0  0  0  0  0  0  0  0  0  0
  -20.9265   -7.0948   22.0353 C   0  0  0  0  0  0  0  0  0  0  0  0
  -21.3151   -9.5838   23.2187 C   0  0  0  0  0  0  0  0  0  0  0  0
  -21.4497  -15.6959   22.8584 C   0  0  0  0  0  0  0  0  0  0  0  0
  -29.6754  -22.8581   20.7356 C   0  0  0  0  0  0  0  0  0  0  0  0
  -28.0671  -22.3948   18.9933 C   0  0  0  0  0  0  0  0  0  0  0  0
  -21.9269  -16.6764   23.7271 C   0  0  0  0  0  0  0  0  0  0  0  0
  -30.5965  -20.5126   17.7768 C   0  0  0  0  0  0  0  0  0  0  0  0
  -30.7984  -19.8899   16.5451 C   0  0  0  0  0  0  0  0  0  0  0  0
  -24.0051  -16.7400   22.5040 C   0  0  0  0  0  0  0  0  0  0  0  0
  -23.9060  -20.4737   24.9097 C   0  0  0  0  0  0  0  0  0  0  0  0
  -29.0633  -18.2922   17.0685 C   0  0  0  0  0  0  0  0  0  0  0  0
  -28.3049  -24.6406   19.8518 C   0  0  0  0  0  0  0  0  0  0  0  0
  -28.4638  -27.0605   19.0605 C   0  0  0  0  0  0  0  0  0  0  0  0
  -22.0122   -7.8872   21.6303 C   0  0  0  0  0  0  0  0  0  0  0  0
  -22.2521  -15.2214   21.8108 C   0  0  0  0  0  0  0  0  0  0  0  0
  -22.2164   -9.1421   22.2352 C   0  0  0  0  0  0  0  0  0  0  0  0
  -23.5348  -15.7553   21.6218 C   0  0  0  0  0  0  0  0  0  0  0  0
  -23.6588  -21.7951   24.5541 C   0  0  0  0  0  0  0  0  0  0  0  0
  -22.9641  -22.0756   23.3828 C   0  0  0  0  0  0  0  0  0  0  0  0
  -29.0601  -21.9551   19.8687 C   0  0  0  0  0  0  0  0  0  0  0  0
  -23.2058  -17.1966   23.5517 C   0  0  0  0  0  0  0  0  0  0  0  0
  -29.6281  -20.0250   18.6544 C   0  0  0  0  0  0  0  0  0  0  0  0
  -30.0318  -18.7798   16.1909 C   0  0  0  0  0  0  0  0  0  0  0  0
  -28.8615  -18.9148   18.3002 C   0  0  0  0  0  0  0  0  0  0  0  0
  -27.9140  -26.0274   19.8429 C   0  0  0  0  0  0  0  0  0  0  0  0
  -23.4411  -19.4774   24.0665 C   0  0  0  0  0  0  0  0  0  1  0  0
  -22.5413  -21.0077   22.6078 C   0  0  0  0  0  0  0  0  0  0  0  0
  -27.7517  -28.1789   19.4193 C   0  0  0  0  0  0  0  0  0  0  0  0
  -29.5232  -27.0135   18.0956 C   0  0  0  0  0  0  0  0  0  0  0  0
  -19.1378  -27.9394   23.0481 C   0  0  0  0  0  0  0  0  0  0  0  0
  -23.4848  -12.3971   21.0315 C   0  0  0  0  0  0  0  0  0  0  0  0
  -24.4032  -13.9747   18.3501 C   0  0  0  0  0  0  0  0  0  0  0  0
  -25.1483  -16.9481   16.8499 C   0  0  0  0  0  0  0  0  0  0  0  0
  -22.3000  -28.8438   21.5852 C   0  0  0  0  0  0  0  0  0  0  0  0
  -22.9694   -7.3366   20.6029 C   0  0  0  0  0  0  0  0  0  0  0  0
  -21.7126  -14.1826   20.8662 C   0  0  0  0  0  0  0  0  0  0  0  0
  -24.4283  -15.2944   20.5003 C   0  0  0  0  0  0  0  0  0  0  0  0
  -23.8740   -8.3983   19.9827 C   0  0  0  0  0  0  0  0  0  0  0  0
  -25.3492  -30.0665   23.1033 C   0  0  0  0  0  0  0  0  0  0  0  0
  -24.4647   -9.2954   21.0659 C   0  0  0  0  0  0  0  0  0  0  0  0
  -26.4083  -29.2565   22.3534 C   0  0  0  0  0  0  0  0  0  0  0  0
  -19.9310  -31.4390   21.6527 C   0  0  0  0  0  0  0  0  0  0  0  0
  -24.1020  -29.2300   23.3731 C   0  0  0  0  0  0  0  0  0  0  0  0
  -24.5475  -27.8150   21.4051 C   0  0  0  0  0  0  0  0  0  0  0  0
  -18.5046  -31.7911   21.2548 C   0  0  0  0  0  0  0  0  0  0  0  0
  -17.6455  -29.8064   22.5208 C   0  0  0  0  0  0  0  0  0  0  0  0
  -23.3618  -10.0423   21.8256 C   0  0  1  0  0  0  0  0  0  0  0  0
  -19.0699  -29.4329   22.9242 C   0  0  2  0  0  0  0  0  0  0  0  0
  -22.8086  -13.4042   20.1449 C   0  0  1  0  0  0  0  0  0  0  0  0
  -25.8246  -28.6118   21.0823 C   0  0  2  0  0  0  0  0  0  0  0  0
  -20.0959  -29.9388   21.9019 C   0  0  2  0  0  0  0  0  0  0  0  0
  -24.1483  -22.8898   25.4437 C   0  0  0  0  0  0  0  0  0  0  0  0
  -25.9036  -17.9154   14.6609 C   0  0  0  0  0  0  0  0  0  0  0  0
  -27.2446  -13.0131   18.9083 C   0  0  0  0  0  0  0  0  0  0  0  0
  -28.0717  -14.7418   17.2971 C   0  0  0  0  0  0  0  0  0  0  0  0
  -26.5650  -12.9190   16.5034 C   0  0  0  0  0  0  0  0  0  0  0  0
  -16.1395  -31.7333   22.0379 C   0  0  0  0  0  0  0  0  0  0  0  0
  -22.6778  -18.5542   16.5747 C   0  0  0  0  0  0  0  0  0  0  0  0
  -22.6900  -23.4879   22.9853 C   0  0  0  0  0  0  0  0  0  0  0  0
  -20.2345  -26.0949   24.3042 C   0  0  0  0  0  0  0  0  0  0  0  0
  -21.3601  -25.5517   23.4443 C   0  0  0  0  0  0  0  0  0  0  0  0
  -25.6191  -14.7707   17.9416 C   0  0  1  0  0  0  0  0  0  0  0  0
  -24.7084  -17.5465   15.5259 C   0  0  2  0  0  0  0  0  0  0  0  0
  -26.8592  -13.8686   17.6850 C   0  0  0  0  0  0  0  0  0  0  0  0
  -26.9289  -26.4517   20.6388 N   0  0  0  0  0  0  0  0  0  0  0  0
  -22.7627  -19.7112   22.9207 N   0  0  0  0  0  0  0  0  0  0  0  0
  -26.8540  -27.7639   20.3584 N   0  0  0  0  0  0  0  0  0  0  0  0
  -23.8580  -14.2724   19.6071 N   0  0  0  0  0  0  0  0  0  0  0  0
  -23.5858  -28.6604   22.1204 N   0  0  0  0  0  0  0  0  0  0  0  0
  -27.8123  -29.4670   19.0199 N   0  0  0  0  0  0  0  0  0  0  0  0
  -30.1471  -25.7832   17.8478 N   0  0  0  0  0  0  0  0  0  0  0  0
  -22.8746  -11.1574   21.0422 N   0  0  0  0  0  0  0  0  0  0  0  0
  -20.0111  -27.5282   24.0106 N   0  0  0  0  0  0  0  0  0  0  0  0
  -25.2149  -15.5721   16.7915 N   0  0  0  0  0  0  0  0  0  0  0  0
  -21.4480  -29.6526   22.3273 N   0  0  0  0  0  0  0  0  0  0  0  0
  -17.5522  -31.2985   22.3161 N   0  3  2  0  0  0  0  0  0  0  0  0
  -23.8981  -18.7757   15.7568 N   0  3  0  0  0  0  0  0  0  0  0  0
  -21.6100  -24.1270   23.7860 N   0  3  0  0  0  0  0  0  0  0  0  0
  -29.9164  -28.0354   17.4836 O   0  0  0  0  0  0  0  0  0  0  0  0
  -18.4434  -27.2405   22.3194 O   0  0  0  0  0  0  0  0  0  0  0  0
  -24.4870  -12.7204   21.6584 O   0  0  0  0  0  0  0  0  0  0  0  0
  -23.9495  -13.1253   17.5793 O   0  0  0  0  0  0  0  0  0  0  0  0
  -25.4106  -17.6331   17.8361 O   0  0  0  0  0  0  0  0  0  0  0  0
  -21.9392  -28.3290   20.5213 O   0  0  0  0  0  0  0  0  0  0  0  0
  -29.4284  -20.6448   19.8766 O   0  0  0  0  0  0  0  0  0  0  0  0
  -23.6743  -18.1533   24.3985 O   0  0  0  0  0  0  0  0  0  1  0  0
  -30.2246  -18.1829   15.0074 F   0  0  0  0  0  0  0  0  0  0  0  0
  -27.9289  -18.4426   19.1387 F   0  0  0  0  0  0  0  0  0  0  0  0
  -21.6736  -21.2225   21.1378 Cl  0  0  0  0  0  0  0  0  0  0  0  0
  1  2  1  0  0  0  0
  1  5  2  0  0  0  0
  2  6  2  0  0  0  0
  3  8  2  0  0  0  0
  3 16  1  0  0  0  0
  4  9  1  0  0  0  0
  4 16  2  0  0  0  0
  5 18  1  0  0  0  0
  6 20  1  0  0  0  0
  7 10  2  0  0  0  0
  7 19  1  0  0  0  0
  8 24  1  0  0  0  0
  9 24  2  0  0  0  0
 10 25  1  0  0  0  0
 11 12  2  0  0  0  0
 11 26  1  0  0  0  0
 12 27  1  0  0  0  0
 13 21  1  0  0  0  0
 13 25  2  0  0  0  0
 14 22  2  0  0  0  0
 14 30  1  0  0  0  0
 15 27  2  0  0  0  0
 15 28  1  0  0  0  0
 16 29  1  0  0  0  0
 17 29  1  0  0  0  0
 17 32  2  0  0  0  0
 17 33  1  0  0  0  0
 18 20  2  0  0  0  0
 18 39  1  0  0  0  0
 19 21  2  0  0  0  0
 19 40  1  0  0  0  0
 20 51  1  0  0  0  0
 21 41  1  0  0  0  0
 22 23  1  0  0  0  0
 22 56  1  0  0  0  0
 23 31  2  0  0  0  0
 23 63  1  0  0  0  0
 24 89  1  0  0  0  0
 25 90  1  0  0  0  0
 26 28  2  0  0  0  0
 26 89  1  0  0  0  0
 27 91  1  0  0  0  0
 28 92  1  0  0  0  0
 29 69  2  0  0  0  0
 30 70  2  0  0  0  0
 30 90  1  0  0  0  0
 31 70  1  0  0  0  0
 31 93  1  0  0  0  0
 32 71  1  0  0  0  0
 32 74  1  0  0  0  0
 33 75  1  0  0  0  0
 33 83  2  0  0  0  0
 34 52  1  0  0  0  0
 34 77  1  0  0  0  0
 34 84  2  0  0  0  0
 35 53  1  0  0  0  0
 35 76  1  0  0  0  0
 35 85  2  0  0  0  0
 36 66  1  0  0  0  0
 36 72  1  0  0  0  0
 36 86  2  0  0  0  0
 37 67  1  0  0  0  0
 37 78  1  0  0  0  0
 37 87  2  0  0  0  0
 38 73  1  0  0  0  0
 38 79  1  0  0  0  0
 38 88  2  0  0  0  0
 39 42  1  0  0  0  0
 40 53  1  0  0  0  0
 41 72  1  0  0  0  0
 42 44  1  0  0  0  0
 43 45  1  0  0  0  0
 43 47  1  0  0  0  0
 44 51  1  0  0  0  0
 45 54  1  0  0  0  0
 46 49  1  0  0  0  0
 46 55  1  0  0  0  0
 47 73  1  0  0  0  0
 48 54  1  0  0  0  0
 48 73  1  0  0  0  0
 49 80  1  0  0  0  0
 50 52  1  0  0  0  0
 50 80  1  0  0  0  0
 51 76  1  0  0  0  0
 52 55  1  0  0  0  0
 53 72  1  0  0  0  0
 54 71  1  0  0  0  0
 55 79  1  0  0  0  0
 57 67  1  0  0  0  0
 58 68  1  0  0  0  0
 59 68  1  0  0  0  0
 60 68  1  0  0  0  0
 61 80  1  0  0  0  0
 62 81  1  0  0  0  0
 63 82  1  0  0  0  0
 64 65  1  0  0  0  0
 64 77  1  0  0  0  0
 65 82  1  0  0  0  0
 66 68  1  0  0  0  0
 66 78  1  0  0  0  0
 67 81  1  0  0  0  0
 69 71  1  0  0  0  0
M  CHG  3  80   1  81   1  82   1
M  ISO  4  30 101  38 100  79 100  90 101
M  END
> <Batch ID>
0191

> <Smiles>
CNC(C)C(=O)NC(C(=O)N1Cc2cc([101O:1][101c:1]3cc(C)c(CNCCNC(=O)C4CN(C)CCC4[100NH:0][100C:0](=O)N4CCCC(n5nc(-c6ccc(Oc7ccc(F)cc7F)cc6)c(C(N)=O)c5N)C4)c(Cl)n3)ccc2CC1C(=O)NC1CCCc2ccccc21)C(C)(C)C

> <Shape>
0.219

> <Color>
0.047

> <Negative vol penalty>
0.000

$$$$

  -OEChem-04052323273D

 84 93  0     1  0  0  0  0  0999 V2000
  -33.4286  -30.9736   15.5636 C   0  0  0  0  0  0  0  0  0  0  0  0
  -32.6723  -29.8373   15.8322 C   0  0  0  0  0  0  0  0  0  0  0  0
  -23.1525   -9.9668   19.8820 C   0  0  0  0  0  0  0  0  0  0  0  0
  -23.8522   -9.7842   22.1872 C   0  0  0  0  0  0  0  0  0  0  0  0
  -33.6366  -31.9233   16.5630 C   0  0  0  0  0  0  0  0  0  0  0  0
  -32.1245  -29.6494   17.1007 C   0  0  0  0  0  0  0  0  0  0  0  0
  -27.3057  -28.1024   16.9261 C   0  0  0  0  0  0  0  0  0  0  0  0
  -22.4256   -8.7831   20.0088 C   0  0  0  0  0  0  0  0  0  0  0  0
  -23.1253   -8.6005   22.3141 C   0  0  0  0  0  0  0  0  0  0  0  0
  -27.0788  -26.7575   16.6369 C   0  0  0  0  0  0  0  0  0  0  0  0
  -23.4970   -5.3465   21.4748 C   0  0  0  0  0  0  0  0  0  0  0  0
  -24.1140   -4.2727   22.1165 C   0  0  0  0  0  0  0  0  0  0  0  0
  -26.7488  -26.3144   18.9851 C   0  0  0  0  0  0  0  0  0  0  0  0
  -22.3657   -4.2646   23.7840 C   0  0  0  0  0  0  0  0  0  0  0  0
  -27.2907  -21.7727   16.2719 C   0  0  0  0  0  0  0  0  0  0  0  0
  -23.8659  -10.4673   20.9712 C   0  0  0  0  0  0  0  0  0  0  0  0
  -24.1601  -12.9988   21.0833 C   0  0  0  0  0  0  0  0  0  0  0  0
  -33.0830  -31.7518   17.8415 C   0  0  0  0  0  0  0  0  0  0  0  0
  -27.2665  -28.5621   18.2503 C   0  0  0  0  0  0  0  0  0  0  0  0
  -32.3265  -30.5971   18.1184 C   0  0  0  0  0  0  0  0  0  0  0  0
  -26.9730  -27.6661   19.2882 C   0  0  0  0  0  0  0  0  0  0  0  0
  -22.4120   -8.1000   21.2248 C   0  0  0  0  0  0  0  0  0  0  0  0
  -26.8032  -25.8628   17.6667 C   0  0  0  0  0  0  0  0  0  0  0  0
  -22.3144   -5.8794   21.9877 C   0  0  0  0  0  0  0  0  0  0  0  0
  -23.5484   -3.7317   23.2711 C   0  0  0  0  0  0  0  0  0  0  0  0
  -21.7487   -5.3384   23.1423 C   0  0  0  0  0  0  0  0  0  0  0  0
  -24.6174  -11.6897   20.8406 C   0  0  0  0  0  0  0  0  0  0  0  0
  -26.3411  -22.7011   15.8969 C   0  0  0  0  0  0  0  0  0  0  0  0
  -26.9229  -20.4506   16.1271 C   0  0  0  0  0  0  0  0  0  0  0  0
  -25.2461  -13.7967   20.8178 C   0  0  0  0  0  0  0  0  0  0  0  0
  -24.8844  -21.0535   15.3221 C   0  0  0  0  0  0  0  0  0  0  0  0
  -22.8691  -13.4530   21.5107 C   0  0  0  0  0  0  0  0  0  0  0  0
  -29.3662  -29.9094   20.2200 C   0  0  0  0  0  0  0  0  0  0  0  0
  -26.7815  -30.1839   22.1608 C   0  0  0  0  0  0  0  0  0  0  0  0
  -23.6811  -29.0560   23.0338 C   0  0  0  0  0  0  0  0  0  0  0  0
  -29.4789  -15.0021   17.2812 C   0  0  0  0  0  0  0  0  0  0  0  0
  -33.3748  -32.7825   18.9032 C   0  0  0  0  0  0  0  0  0  0  0  0
  -27.4871  -30.0209   18.5430 C   0  0  0  0  0  0  0  0  0  0  0  0
  -26.8994  -28.1130   20.7246 C   0  0  0  0  0  0  0  0  0  0  0  0
  -32.4467  -32.6916   20.1118 C   0  0  0  0  0  0  0  0  0  0  0  0
  -30.0952  -12.6180   20.0031 C   0  0  0  0  0  0  0  0  0  0  0  0
  -32.3117  -31.2440   20.5734 C   0  0  0  0  0  0  0  0  0  0  0  0
  -28.6819  -12.2385   20.4474 C   0  0  0  0  0  0  0  0  0  0  0  0
  -26.8395  -17.5408   17.6052 C   0  0  0  0  0  0  0  0  0  0  0  0
  -30.1512  -12.9762   18.5198 C   0  0  0  0  0  0  0  0  0  0  0  0
  -27.1564  -16.0496   17.5633 C   0  0  0  0  0  0  0  0  0  0  0  0
  -27.7734  -13.6232   18.5457 C   0  0  0  0  0  0  0  0  0  0  0  0
  -28.9064  -17.2696   16.4614 C   0  0  0  0  0  0  0  0  0  0  0  0
  -31.6950  -30.3698   19.4748 C   0  0  1  0  0  0  0  0  0  0  0  0
  -27.9306  -30.2818   19.9792 C   0  0  1  0  0  0  0  0  0  0  0  0
  -27.6640  -13.3227   20.0470 C   0  0  1  0  0  0  0  0  0  0  0  0
  -27.6133  -18.0688   16.4021 C   0  0  2  0  0  0  0  0  0  0  0  0
  -23.5482  -20.6542   14.7944 C   0  0  0  0  0  0  0  0  0  0  0  0
  -21.8327  -29.4537   24.6838 C   0  0  0  0  0  0  0  0  0  0  0  0
  -28.4116  -28.7765   24.3223 C   0  0  0  0  0  0  0  0  0  0  0  0
  -26.2767  -28.3571   25.5612 C   0  0  0  0  0  0  0  0  0  0  0  0
  -27.0331  -30.6965   25.1395 C   0  0  0  0  0  0  0  0  0  0  0  0
  -21.7541  -29.7255   20.8896 C   0  0  0  0  0  0  0  0  0  0  0  0
  -26.6474  -24.1562   16.0176 C   0  0  0  0  0  0  0  0  0  1  0  0
  -26.1413  -29.3167   23.2177 C   0  0  1  0  0  0  0  0  0  0  0  0
  -22.3815  -29.7917   23.3064 C   0  0  2  0  0  0  0  0  0  0  0  0
  -26.9689  -29.2776   24.5334 C   0  0  0  0  0  0  0  0  0  0  0  0
  -25.8944  -11.6536   20.4507 N   0  0  0  0  0  0  0  0  0  0  0  0
  -25.1233  -22.3755   15.4161 N   0  0  0  0  0  0  0  0  0  0  0  0
  -25.7234  -20.0537   15.6539 N   0  0  0  0  0  0  0  0  0  0  0  0
  -26.2488  -12.9499   20.4463 N   0  0  0  0  0  0  0  0  0  0  0  0
  -27.1287  -29.5480   20.9604 N   0  0  0  0  0  0  0  0  0  0  0  0
  -29.1480  -13.9876   18.1861 N   0  0  0  0  0  0  0  0  0  0  0  0
  -28.5178  -15.9794   17.0260 N   0  0  0  0  0  0  0  0  0  0  0  0
  -25.4317  -15.1329   20.8680 N   0  0  0  0  0  0  0  0  0  0  0  0
  -21.8672  -12.4999   21.7385 N   0  0  0  0  0  0  0  0  0  0  0  0
  -27.8508  -19.4852   16.4936 N   0  0  0  0  0  0  0  0  0  0  0  0
  -30.2641  -30.5761   19.4084 N   0  0  0  0  0  0  0  0  0  0  0  0
  -24.7794  -29.8130   23.3830 N   0  0  0  0  0  0  0  0  0  0  0  0
  -21.3559  -29.4256   22.2890 N   0  3  0  0  0  0  0  0  0  0  0  0
  -22.6069  -14.6694   21.6695 O   0  0  0  0  0  0  0  0  0  0  0  0
  -29.6391  -29.0798   21.0797 O   0  0  0  0  0  0  0  0  0  0  0  0
  -26.9603  -31.3829   22.3891 O   0  0  0  0  0  0  0  0  0  0  0  0
  -23.7182  -27.9218   22.5619 O   0  0  0  0  0  0  0  0  0  0  0  0
  -30.6005  -15.0595   16.7597 O   0  0  0  0  0  0  0  0  0  0  0  0
  -21.7026   -6.9450   21.3491 O   0  0  0  0  0  0  0  0  0  0  0  0
  -26.5804  -24.5403   17.3853 O   0  0  0  0  0  0  0  0  0  1  0  0
  -24.1402   -2.6995   23.8863 F   0  0  0  0  0  0  0  0  0  0  0  0
  -20.6120   -5.8454   23.6391 F   0  0  0  0  0  0  0  0  0  0  0  0
  1  2  1  0  0  0  0
  1  5  2  0  0  0  0
  2  6  2  0  0  0  0
  3  8  2  0  0  0  0
  3 16  1  0  0  0  0
  4  9  1  0  0  0  0
  4 16  2  0  0  0  0
  5 18  1  0  0  0  0
  6 20  1  0  0  0  0
  7 10  2  0  0  0  0
  7 19  1  0  0  0  0
  8 22  1  0  0  0  0
  9 22  2  0  0  0  0
 10 23  1  0  0  0  0
 11 12  2  0  0  0  0
 11 24  1  0  0  0  0
 12 25  1  0  0  0  0
 13 21  1  0  0  0  0
 13 23  2  0  0  0  0
 14 25  2  0  0  0  0
 14 26  1  0  0  0  0
 15 28  1  0  0  0  0
 15 29  2  0  0  0  0
 16 27  1  0  0  0  0
 17 27  1  0  0  0  0
 17 30  2  0  0  0  0
 17 32  1  0  0  0  0
 18 20  2  0  0  0  0
 18 37  1  0  0  0  0
 19 21  2  0  0  0  0
 19 38  1  0  0  0  0
 20 49  1  0  0  0  0
 21 39  1  0  0  0  0
 22 81  1  0  0  0  0
 23 82  1  0  0  0  0
 24 26  2  0  0  0  0
 24 81  1  0  0  0  0
 25 83  1  0  0  0  0
 26 84  1  0  0  0  0
 27 63  2  0  0  0  0
 28 59  1  0  0  0  0
 28 64  2  0  0  0  0
 29 65  1  0  0  0  0
 29 72  1  0  0  0  0
 30 66  1  0  0  0  0
 30 70  1  0  0  0  0
 31 53  1  0  0  0  0
 31 64  1  0  0  0  0
 31 65  2  0  0  0  0
 32 71  1  0  0  0  0
 32 76  2  0  0  0  0
 33 50  1  0  0  0  0
 33 73  1  0  0  0  0
 33 77  2  0  0  0  0
 34 60  1  0  0  0  0
 34 67  1  0  0  0  0
 34 78  2  0  0  0  0
 35 61  1  0  0  0  0
 35 74  1  0  0  0  0
 35 79  2  0  0  0  0
 36 68  1  0  0  0  0
 36 69  1  0  0  0  0
 36 80  2  0  0  0  0
 37 40  1  0  0  0  0
 38 50  1  0  0  0  0
 39 67  1  0  0  0  0
 40 42  1  0  0  0  0
 41 43  1  0  0  0  0
 41 45  1  0  0  0  0
 42 49  1  0  0  0  0
 43 51  1  0  0  0  0
 44 46  1  0  0  0  0
 44 52  1  0  0  0  0
 45 68  1  0  0  0  0
 46 69  1  0  0  0  0
 47 51  1  0  0  0  0
 47 68  1  0  0  0  0
 48 52  1  0  0  0  0
 48 69  1  0  0  0  0
 49 73  1  0  0  0  0
 50 67  1  0  0  0  0
 51 66  1  0  0  0  0
 52 72  1  0  0  0  0
 54 61  1  0  0  0  0
 55 62  1  0  0  0  0
 56 62  1  0  0  0  0
 57 62  1  0  0  0  0
 58 75  1  0  0  0  0
 59 82  1  0  0  0  0
 60 62  1  0  0  0  0
 60 74  1  0  0  0  0
 61 75  1  0  0  0  0
 63 66  1  0  0  0  0
M  CHG  1  75   1
M  ISO  4  36 100  59 101  69 100  82 101
M  END
> <Batch ID>
0191

> <Smiles>
CNC(C)C(=O)NC(C(=O)N1Cc2cc([101O:1][101CH2:1]c3cc(NC4CC[100N:0]([100C:0](=O)N5CCCC(n6nc(-c7ccc(Oc8ccc(F)cc8F)cc7)c(C(N)=O)c6N)C5)C4)nc(C)n3)ccc2CC1C(=O)NC1CCCc2ccccc21)C(C)(C)C

> <Shape>
0.232

> <Color>
0.185

> <Negative vol penalty>
0.000

$$$$

  -OEChem-04052323273D

 84 93  0     1  0  0  0  0  0999 V2000
  -30.7373  -35.2978   25.2229 C   0  0  0  0  0  0  0  0  0  0  0  0
  -30.8369  -34.3960   24.1682 C   0  0  0  0  0  0  0  0  0  0  0  0
  -24.6643   -8.7140   22.0847 C   0  0  0  0  0  0  0  0  0  0  0  0
  -23.7627   -9.0747   19.8724 C   0  0  0  0  0  0  0  0  0  0  0  0
  -29.7538  -35.1248   26.1958 C   0  0  0  0  0  0  0  0  0  0  0  0
  -29.9537  -33.3200   24.0865 C   0  0  0  0  0  0  0  0  0  0  0  0
  -26.5606  -29.2350   19.2786 C   0  0  0  0  0  0  0  0  0  0  0  0
  -23.4899   -8.0598   22.4567 C   0  0  0  0  0  0  0  0  0  0  0  0
  -22.5883   -8.4204   20.2444 C   0  0  0  0  0  0  0  0  0  0  0  0
  -26.3630  -27.8939   18.9528 C   0  0  0  0  0  0  0  0  0  0  0  0
  -22.0991   -5.0066   22.0364 C   0  0  0  0  0  0  0  0  0  0  0  0
  -22.2196   -3.8109   22.7444 C   0  0  0  0  0  0  0  0  0  0  0  0
  -24.6535  -27.7402   20.6478 C   0  0  0  0  0  0  0  0  0  0  0  0
  -20.9923   -4.7783   24.5870 C   0  0  0  0  0  0  0  0  0  0  0  0
  -24.8007   -9.2215   20.7925 C   0  0  0  0  0  0  0  0  0  0  0  0
  -27.1665   -9.3204   19.8435 C   0  0  0  0  0  0  0  0  0  0  0  0
  -28.8519  -34.0517   26.1208 C   0  0  0  0  0  0  0  0  0  0  0  0
  -25.8125  -29.8368   20.3006 C   0  0  0  0  0  0  0  0  0  0  0  0
  -28.9580  -33.1318   25.0602 C   0  0  0  0  0  0  0  0  0  0  0  0
  -24.8417  -29.0898   20.9830 C   0  0  0  0  0  0  0  0  0  0  0  0
  -22.4519   -7.9129   21.5365 C   0  0  0  0  0  0  0  0  0  0  0  0
  -25.4114  -27.1455   19.6393 C   0  0  0  0  0  0  0  0  0  0  0  0
  -21.4253   -6.0882   22.6037 C   0  0  0  0  0  0  0  0  0  0  0  0
  -21.6662   -3.6967   24.0197 C   0  0  0  0  0  0  0  0  0  0  0  0
  -20.8719   -5.9741   23.8789 C   0  0  0  0  0  0  0  0  0  0  0  0
  -26.0495  -22.8990   18.9394 C   0  0  0  0  0  0  0  0  0  0  0  0
  -26.0134   -9.8979   20.4078 C   0  0  0  0  0  0  0  0  0  0  0  0
  -25.6466  -23.8683   18.0437 C   0  0  0  0  0  0  0  0  0  0  0  0
  -25.6571  -21.6101   18.6409 C   0  0  0  0  0  0  0  0  0  0  0  0
  -28.0266  -10.3761   19.6641 C   0  0  0  0  0  0  0  0  0  0  0  0
  -24.5970  -22.3153   16.7578 C   0  0  0  0  0  0  0  0  0  0  0  0
  -27.4361   -7.9520   19.5110 C   0  0  0  0  0  0  0  0  0  0  0  0
  -26.5085  -31.1870   23.0928 C   0  0  0  0  0  0  0  0  0  0  0  0
  -23.3464  -31.9103   23.0893 C   0  0  0  0  0  0  0  0  0  0  0  0
  -20.2081  -31.1784   21.9656 C   0  0  0  0  0  0  0  0  0  0  0  0
  -26.9432  -16.1501   18.8947 C   0  0  0  0  0  0  0  0  0  0  0  0
  -27.8356  -33.8792   27.2218 C   0  0  0  0  0  0  0  0  0  0  0  0
  -26.0189  -31.2917   20.6219 C   0  0  0  0  0  0  0  0  0  0  0  0
  -23.9982  -29.6943   22.0745 C   0  0  0  0  0  0  0  0  0  0  0  0
  -26.7004  -32.9254   26.8589 C   0  0  0  0  0  0  0  0  0  0  0  0
  -29.1340  -14.6611   21.4279 C   0  0  0  0  0  0  0  0  0  0  0  0
  -27.2540  -31.6533   26.2247 C   0  0  0  0  0  0  0  0  0  0  0  0
  -28.6354  -13.2198   21.4350 C   0  0  0  0  0  0  0  0  0  0  0  0
  -28.0106  -15.6638   21.1611 C   0  0  0  0  0  0  0  0  0  0  0  0
  -26.7339  -13.9228   19.9404 C   0  0  0  0  0  0  0  0  0  0  0  0
  -26.4841  -18.5656   18.2017 C   0  0  0  0  0  0  0  0  0  0  0  0
  -26.5033  -18.3077   20.3136 C   0  0  0  0  0  0  0  0  0  0  0  0
  -28.0026  -31.9662   24.9235 C   0  0  1  0  0  0  0  0  0  0  0  0
  -25.5608  -31.6637   22.0288 C   0  0  1  0  0  0  0  0  0  0  0  0
  -27.8692  -12.9091   20.1406 C   0  0  2  0  0  0  0  0  0  0  0  0
  -25.7230  -19.2216   19.3592 C   0  0  0  0  0  0  0  0  0  0  0  0
  -23.7890  -21.9919   15.5470 C   0  0  0  0  0  0  0  0  0  0  0  0
  -17.8202  -31.9233   22.1666 C   0  0  0  0  0  0  0  0  0  0  0  0
  -23.1711  -30.5986   25.8387 C   0  0  0  0  0  0  0  0  0  0  0  0
  -20.6839  -30.5172   25.5643 C   0  0  0  0  0  0  0  0  0  0  0  0
  -21.8608  -32.7162   25.6077 C   0  0  0  0  0  0  0  0  0  0  0  0
  -20.0339  -31.7893   19.0751 C   0  0  0  0  0  0  0  0  0  0  0  0
  -26.0221  -25.2928   18.2791 C   0  0  0  0  0  0  0  0  0  1  0  0
  -22.0926  -31.2262   23.5784 C   0  0  1  0  0  0  0  0  0  0  0  0
  -19.1164  -32.0575   21.3827 C   0  0  2  0  0  0  0  0  0  0  0  0
  -21.9692  -31.2523   25.1280 C   0  0  0  0  0  0  0  0  0  0  0  0
  -26.1274  -11.2180   20.5761 N   0  0  0  0  0  0  0  0  0  0  0  0
  -24.9169  -23.6108   16.9385 N   0  0  0  0  0  0  0  0  0  0  0  0
  -24.9275  -21.2812   17.5547 N   0  0  0  0  0  0  0  0  0  0  0  0
  -27.3624  -11.4788   20.1148 N   0  0  0  0  0  0  0  0  0  0  0  0
  -24.2418  -31.1187   22.3563 N   0  0  0  0  0  0  0  0  0  0  0  0
  -27.2269  -15.3048   19.9729 N   0  0  0  0  0  0  0  0  0  0  0  0
  -26.8083  -17.4963   19.1431 N   0  0  0  0  0  0  0  0  0  0  0  0
  -29.2788  -10.4594   19.1666 N   0  0  0  0  0  0  0  0  0  0  0  0
  -26.4425   -6.9955   19.7608 N   0  0  0  0  0  0  0  0  0  0  0  0
  -26.0445  -20.5951   19.5223 N   0  0  0  0  0  0  0  0  0  0  0  0
  -27.0659  -32.2027   23.8459 N   0  0  0  0  0  0  0  0  0  0  0  0
  -20.9813  -31.8626   22.8796 N   0  0  0  0  0  0  0  0  0  0  0  0
  -18.8498  -31.6810   19.9656 N   0  3  0  0  0  0  0  0  0  0  0  0
  -28.5319   -7.5857   19.0225 O   0  0  0  0  0  0  0  0  0  0  0  0
  -26.7173  -29.9864   23.2221 O   0  0  0  0  0  0  0  0  0  0  0  0
  -23.5212  -33.1049   23.3421 O   0  0  0  0  0  0  0  0  0  0  0  0
  -20.3576  -30.0013   21.6453 O   0  0  0  0  0  0  0  0  0  0  0  0
  -26.7834  -15.7139   17.7470 O   0  0  0  0  0  0  0  0  0  0  0  0
  -21.3059   -7.2744   21.8991 O   0  0  0  0  0  0  0  0  0  0  0  0
  -25.2156  -25.8270   19.3215 O   0  0  0  0  0  0  0  0  0  1  0  0
  -21.7806   -2.5479   24.6989 F   0  0  0  0  0  0  0  0  0  0  0  0
  -20.2224   -7.0094   24.4286 F   0  0  0  0  0  0  0  0  0  0  0  0
  -26.7737  -23.1939   20.0253 F   0  0  0  0  0  0  0  0  0  0  0  0
  1  2  1  0  0  0  0
  1  5  2  0  0  0  0
  2  6  2  0  0  0  0
  3  8  2  0  0  0  0
  3 15  1  0  0  0  0
  4  9  1  0  0  0  0
  4 15  2  0  0  0  0
  5 17  1  0  0  0  0
  6 19  1  0  0  0  0
  7 10  2  0  0  0  0
  7 18  1  0  0  0  0
  8 21  1  0  0  0  0
  9 21  2  0  0  0  0
 10 22  1  0  0  0  0
 11 12  2  0  0  0  0
 11 23  1  0  0  0  0
 12 24  1  0  0  0  0
 13 20  1  0  0  0  0
 13 22  2  0  0  0  0
 14 24  2  0  0  0  0
 14 25  1  0  0  0  0
 15 27  1  0  0  0  0
 16 27  1  0  0  0  0
 16 30  2  0  0  0  0
 16 32  1  0  0  0  0
 17 19  2  0  0  0  0
 17 37  1  0  0  0  0
 18 20  2  0  0  0  0
 18 38  1  0  0  0  0
 19 48  1  0  0  0  0
 20 39  1  0  0  0  0
 21 80  1  0  0  0  0
 22 81  1  0  0  0  0
 23 25  2  0  0  0  0
 23 80  1  0  0  0  0
 24 82  1  0  0  0  0
 25 83  1  0  0  0  0
 26 28  2  0  0  0  0
 26 29  1  0  0  0  0
 26 84  1  0  0  0  0
 27 62  2  0  0  0  0
 28 58  1  0  0  0  0
 28 63  1  0  0  0  0
 29 64  2  0  0  0  0
 29 71  1  0  0  0  0
 30 65  1  0  0  0  0
 30 69  1  0  0  0  0
 31 52  1  0  0  0  0
 31 63  2  0  0  0  0
 31 64  1  0  0  0  0
 32 70  1  0  0  0  0
 32 75  2  0  0  0  0
 33 49  1  0  0  0  0
 33 72  1  0  0  0  0
 33 76  2  0  0  0  0
 34 59  1  0  0  0  0
 34 66  1  0  0  0  0
 34 77  2  0  0  0  0
 35 60  1  0  0  0  0
 35 73  1  0  0  0  0
 35 78  2  0  0  0  0
 36 67  1  0  0  0  0
 36 68  1  0  0  0  0
 36 79  2  0  0  0  0
 37 40  1  0  0  0  0
 38 49  1  0  0  0  0
 39 66  1  0  0  0  0
 40 42  1  0  0  0  0
 41 43  1  0  0  0  0
 41 44  1  0  0  0  0
 42 48  1  0  0  0  0
 43 50  1  0  0  0  0
 44 67  1  0  0  0  0
 45 50  1  0  0  0  0
 45 67  1  0  0  0  0
 46 51  1  0  0  0  0
 46 68  1  0  0  0  0
 47 51  1  0  0  0  0
 47 68  1  0  0  0  0
 48 72  1  0  0  0  0
 49 66  1  0  0  0  0
 50 65  1  0  0  0  0
 51 71  1  0  0  0  0
 53 60  1  0  0  0  0
 54 61  1  0  0  0  0
 55 61  1  0  0  0  0
 56 61  1  0  0  0  0
 57 74  1  0  0  0  0
 58 81  1  0  0  0  0
 59 61  1  0  0  0  0
 59 73  1  0  0  0  0
 60 74  1  0  0  0  0
 62 65  1  0  0  0  0
M  CHG  1  74   1
M  ISO  4  36 100  58 101  68 100  81 101
M  END
> <Batch ID>
0191

> <Smiles>
CNC(C)C(=O)NC(C(=O)N1Cc2cc([101O:1][101CH2:1]c3nc(C)nc(NC4C[100N:0]([100C:0](=O)N5CCCC(n6nc(-c7ccc(Oc8ccc(F)cc8F)cc7)c(C(N)=O)c6N)C5)C4)c3F)ccc2CC1C(=O)NC1CCCc2ccccc21)C(C)(C)C

> <Shape>
0.233

> <Color>
0.086

> <Negative vol penalty>
0.000

$$$$

  -OEChem-04052323273D

 83 91  0     1  0  0  0  0  0999 V2000
  -30.6119  -25.5767   17.4048 C   0  0  0  0  0  0  0  0  0  0  0  0
  -29.2244  -25.5247   17.4925 C   0  0  0  0  0  0  0  0  0  0  0  0
  -24.1186  -11.0192   23.9466 C   0  0  0  0  0  0  0  0  0  0  0  0
  -23.5314  -10.0653   21.8060 C   0  0  0  0  0  0  0  0  0  0  0  0
  -31.3578  -26.0853   18.4673 C   0  0  0  0  0  0  0  0  0  0  0  0
  -28.5821  -25.9802   18.6433 C   0  0  0  0  0  0  0  0  0  0  0  0
  -23.1499  -28.7903   18.9598 C   0  0  0  0  0  0  0  0  0  0  0  0
  -23.9967   -9.7628   24.5400 C   0  0  0  0  0  0  0  0  0  0  0  0
  -23.4095   -8.8088   22.3994 C   0  0  0  0  0  0  0  0  0  0  0  0
  -21.8702  -28.3266   19.2616 C   0  0  0  0  0  0  0  0  0  0  0  0
  -25.4662   -6.3372   23.4396 C   0  0  0  0  0  0  0  0  0  0  0  0
  -26.0423   -5.2519   22.7796 C   0  0  0  0  0  0  0  0  0  0  0  0
  -22.1623  -29.0282   21.5510 C   0  0  0  0  0  0  0  0  0  0  0  0
  -23.8743   -4.1975   22.6209 C   0  0  0  0  0  0  0  0  0  0  0  0
  -23.8859  -11.1705   22.5796 C   0  0  0  0  0  0  0  0  0  0  0  0
  -25.1691  -13.0314   21.3973 C   0  0  0  0  0  0  0  0  0  0  0  0
  -30.7238  -26.5562   19.6278 C   0  0  0  0  0  0  0  0  0  0  0  0
  -23.9510  -29.3675   19.9556 C   0  0  0  0  0  0  0  0  0  0  0  0
  -29.3204  -26.4943   19.7229 C   0  0  0  0  0  0  0  0  0  0  0  0
  -23.4509  -29.5008   21.2588 C   0  0  0  0  0  0  0  0  0  0  0  0
  -23.6422   -8.6575   23.7664 C   0  0  0  0  0  0  0  0  0  0  0  0
  -21.3773  -28.4429   20.5579 C   0  0  0  0  0  0  0  0  0  0  0  0
  -24.0941   -6.3527   23.6904 C   0  0  0  0  0  0  0  0  0  0  0  0
  -25.2464   -4.1820   22.3702 C   0  0  0  0  0  0  0  0  0  0  0  0
  -23.2982   -5.2829   23.2809 C   0  0  0  0  0  0  0  0  0  0  0  0
  -24.0111  -12.4682   21.9662 C   0  0  0  0  0  0  0  0  0  0  0  0
  -24.7677  -14.2684   20.9553 C   0  0  0  0  0  0  0  0  0  0  0  0
  -26.4895  -12.4853   21.2790 C   0  0  0  0  0  0  0  0  0  0  0  0
  -26.7538  -28.6532   21.2737 C   0  0  0  0  0  0  0  0  0  0  0  0
  -26.3403  -31.5054   22.7625 C   0  0  0  0  0  0  0  0  0  0  0  0
  -24.1877  -33.9160   23.8589 C   0  0  0  0  0  0  0  0  0  0  0  0
  -22.1979  -18.9465   21.5305 C   0  0  0  0  0  0  0  0  0  0  0  0
  -31.5750  -27.0534   20.7692 C   0  0  0  0  0  0  0  0  0  0  0  0
  -25.3190  -29.8870   19.6079 C   0  0  0  0  0  0  0  0  0  0  0  0
  -24.2632  -30.1312   22.3593 C   0  0  0  0  0  0  0  0  0  0  0  0
  -30.7957  -27.8626   21.8028 C   0  0  0  0  0  0  0  0  0  0  0  0
  -20.1558  -16.2788   20.5027 C   0  0  0  0  0  0  0  0  0  0  0  0
  -29.4970  -27.1512   22.1689 C   0  0  0  0  0  0  0  0  0  0  0  0
  -21.0743  -15.0820   20.7477 C   0  0  0  0  0  0  0  0  0  0  0  0
  -20.2575  -17.3181   21.6206 C   0  0  0  0  0  0  0  0  0  0  0  0
  -20.1704  -20.1421   22.4710 C   0  0  0  0  0  0  0  0  0  0  0  0
  -21.7217  -21.3043   20.9443 C   0  0  0  0  0  0  0  0  0  0  0  0
  -22.5583  -16.5732   22.1407 C   0  0  0  0  0  0  0  0  0  0  0  0
  -20.3917  -21.2176   23.5297 C   0  0  0  0  0  0  0  0  0  0  0  0
  -21.9854  -22.3801   21.9852 C   0  0  0  0  0  0  0  0  0  0  0  0
  -28.5857  -27.0019   20.9446 C   0  0  1  0  0  0  0  0  0  0  0  0
  -26.2439  -29.9907   20.8167 C   0  0  1  0  0  0  0  0  0  0  0  0
  -22.5211  -15.5397   21.0043 C   0  0  1  0  0  0  0  0  0  0  0  0
  -24.1419  -36.1112   25.0739 C   0  0  0  0  0  0  0  0  0  0  0  0
  -19.7504  -25.2983   25.3160 C   0  0  0  0  0  0  0  0  0  0  0  0
  -26.7896  -30.0491   25.4058 C   0  0  0  0  0  0  0  0  0  0  0  0
  -25.8104  -32.0296   26.5833 C   0  0  0  0  0  0  0  0  0  0  0  0
  -27.8997  -32.2843   25.2444 C   0  0  0  0  0  0  0  0  0  0  0  0
  -23.0101  -35.3123   21.5303 C   0  0  0  0  0  0  0  0  0  0  0  0
  -20.9206  -23.6330   23.8623 C   0  0  0  0  0  0  0  0  0  0  0  0
  -18.7321  -26.0315   20.9591 C   0  0  0  0  0  0  0  0  0  0  0  0
  -18.7050  -24.7153   23.0817 C   0  0  0  0  0  0  0  0  0  0  0  0
  -19.6385  -26.8874   20.0965 C   0  0  0  0  0  0  0  0  0  1  0  0
  -25.6952  -31.9551   24.0511 C   0  0  1  0  0  0  0  0  0  0  0  0
  -24.2111  -35.4272   23.7174 C   0  0  2  0  0  0  0  0  0  0  0  0
  -19.5542  -24.2079   24.2567 C   0  0  2  0  0  0  0  0  0  0  0  0
  -26.5339  -31.5658   25.3011 C   0  0  0  0  0  0  0  0  0  0  0  0
  -22.9534  -13.2807   21.8937 N   0  0  0  0  0  0  0  0  0  0  0  0
  -23.4453  -14.3671   21.2742 N   0  0  0  0  0  0  0  0  0  0  0  0
  -25.5972  -30.6181   21.9710 N   0  0  0  0  0  0  0  0  0  0  0  0
  -21.6585  -17.6933   21.8568 N   0  0  0  0  0  0  0  0  0  0  0  0
  -21.3266  -20.0451   21.5718 N   0  0  0  0  0  0  0  0  0  0  0  0
  -25.4205  -15.2703   20.3289 N   0  0  0  0  0  0  0  0  0  0  0  0
  -26.7293  -11.2010   21.7863 N   0  0  0  0  0  0  0  0  0  0  0  0
  -27.9221  -28.2544   20.6527 N   0  0  0  0  0  0  0  0  0  0  0  0
  -25.4605  -33.3883   23.9116 N   0  0  0  0  0  0  0  0  0  0  0  0
  -20.7642  -22.5204   22.8638 N   0  3  0  0  0  0  0  0  0  0  0  0
  -23.0544  -35.8887   22.8988 N   0  3  0  0  0  0  0  0  0  0  0  0
  -19.4951  -25.5445   22.1414 N   0  3  0  0  0  0  0  0  0  0  0  0
  -27.4328  -13.1240   20.7540 O   0  0  0  0  0  0  0  0  0  0  0  0
  -26.1341  -28.0299   22.1276 O   0  0  0  0  0  0  0  0  0  0  0  0
  -27.4592  -31.9314   22.4655 O   0  0  0  0  0  0  0  0  0  0  0  0
  -23.1447  -33.2688   23.9206 O   0  0  0  0  0  0  0  0  0  0  0  0
  -23.3890  -19.0765   21.2210 O   0  0  0  0  0  0  0  0  0  0  0  0
  -23.5234   -7.4313   24.3450 O   0  0  0  0  0  0  0  0  0  0  0  0
  -20.1198  -27.9873   20.8574 O   0  0  0  0  0  0  0  0  0  1  0  0
  -25.7996   -3.1406   21.7350 F   0  0  0  0  0  0  0  0  0  0  0  0
  -21.9793   -5.2926   23.5179 F   0  0  0  0  0  0  0  0  0  0  0  0
  1  2  1  0  0  0  0
  1  5  2  0  0  0  0
  2  6  2  0  0  0  0
  3  8  2  0  0  0  0
  3 15  1  0  0  0  0
  4  9  1  0  0  0  0
  4 15  2  0  0  0  0
  5 17  1  0  0  0  0
  6 19  1  0  0  0  0
  7 10  2  0  0  0  0
  7 18  1  0  0  0  0
  8 21  1  0  0  0  0
  9 21  2  0  0  0  0
 10 22  1  0  0  0  0
 11 12  2  0  0  0  0
 11 23  1  0  0  0  0
 12 24  1  0  0  0  0
 13 20  1  0  0  0  0
 13 22  2  0  0  0  0
 14 24  2  0  0  0  0
 14 25  1  0  0  0  0
 15 26  1  0  0  0  0
 16 26  1  0  0  0  0
 16 27  2  0  0  0  0
 16 28  1  0  0  0  0
 17 19  2  0  0  0  0
 17 33  1  0  0  0  0
 18 20  2  0  0  0  0
 18 34  1  0  0  0  0
 19 46  1  0  0  0  0
 20 35  1  0  0  0  0
 21 80  1  0  0  0  0
 22 81  1  0  0  0  0
 23 25  2  0  0  0  0
 23 80  1  0  0  0  0
 24 82  1  0  0  0  0
 25 83  1  0  0  0  0
 26 63  2  0  0  0  0
 27 64  1  0  0  0  0
 27 68  1  0  0  0  0
 28 69  1  0  0  0  0
 28 75  2  0  0  0  0
 29 47  1  0  0  0  0
 29 70  1  0  0  0  0
 29 76  2  0  0  0  0
 30 59  1  0  0  0  0
 30 65  1  0  0  0  0
 30 77  2  0  0  0  0
 31 60  1  0  0  0  0
 31 71  1  0  0  0  0
 31 78  2  0  0  0  0
 32 66  1  0  0  0  0
 32 67  1  0  0  0  0
 32 79  2  0  0  0  0
 33 36  1  0  0  0  0
 34 47  1  0  0  0  0
 35 65  1  0  0  0  0
 36 38  1  0  0  0  0
 37 39  1  0  0  0  0
 37 40  1  0  0  0  0
 38 46  1  0  0  0  0
 39 48  1  0  0  0  0
 40 66  1  0  0  0  0
 41 44  1  0  0  0  0
 41 67  1  0  0  0  0
 42 45  1  0  0  0  0
 42 67  1  0  0  0  0
 43 48  1  0  0  0  0
 43 66  1  0  0  0  0
 44 72  1  0  0  0  0
 45 72  1  0  0  0  0
 46 70  1  0  0  0  0
 47 65  1  0  0  0  0
 48 64  1  0  0  0  0
 49 60  1  0  0  0  0
 50 61  1  0  0  0  0
 51 62  1  0  0  0  0
 52 62  1  0  0  0  0
 53 62  1  0  0  0  0
 54 73  1  0  0  0  0
 55 61  1  0  0  0  0
 55 72  1  0  0  0  0
 56 58  1  0  0  0  0
 56 74  1  0  0  0  0
 57 61  1  0  0  0  0
 57 74  1  0  0  0  0
 58 81  1  0  0  0  0
 59 62  1  0  0  0  0
 59 71  1  0  0  0  0
 60 73  1  0  0  0  0
 63 64  1  0  0  0  0
M  CHG  3  72   1  73   1  74   1
M  ISO  4  32 100  58 101  67 100  81 101
M  END
> <Batch ID>
0191

> <Smiles>
CNC(C)C(=O)NC(C(=O)N1Cc2cc([101O:1][101CH2:1]CNCC(C)CN3CC[100N:0]([100C:0](=O)N4CCCC(n5nc(-c6ccc(Oc7ccc(F)cc7F)cc6)c(C(N)=O)c5N)C4)CC3)ccc2CC1C(=O)NC1CCCc2ccccc21)C(C)(C)C

> <Shape>
0.277

> <Color>
0.092

> <Negative vol penalty>
0.000

$$$$

  -OEChem-04052323273D

 80 89  0     1  0  0  0  0  0999 V2000
  -27.5128  -37.6759   21.3824 C   0  0  0  0  0  0  0  0  0  0  0  0
  -28.0653  -36.5434   20.7929 C   0  0  0  0  0  0  0  0  0  0  0  0
  -23.0595   -9.5198   19.7619 C   0  0  0  0  0  0  0  0  0  0  0  0
  -24.5486   -9.2569   21.6461 C   0  0  0  0  0  0  0  0  0  0  0  0
  -26.6839  -37.5468   22.4960 C   0  0  0  0  0  0  0  0  0  0  0  0
  -27.7900  -35.2810   21.3175 C   0  0  0  0  0  0  0  0  0  0  0  0
  -26.8973  -28.4676   19.2933 C   0  0  0  0  0  0  0  0  0  0  0  0
  -21.9941   -9.0684   20.5409 C   0  0  0  0  0  0  0  0  0  0  0  0
  -23.4832   -8.8056   22.4252 C   0  0  0  0  0  0  0  0  0  0  0  0
  -27.3617  -27.1867   19.5886 C   0  0  0  0  0  0  0  0  0  0  0  0
  -21.7343   -5.9412   22.8345 C   0  0  0  0  0  0  0  0  0  0  0  0
  -21.9445   -4.8146   23.6295 C   0  0  0  0  0  0  0  0  0  0  0  0
  -25.8523  -27.0789   21.4672 C   0  0  0  0  0  0  0  0  0  0  0  0
  -21.4371   -6.1126   25.6031 C   0  0  0  0  0  0  0  0  0  0  0  0
  -24.3368   -9.6140   20.3145 C   0  0  0  0  0  0  0  0  0  0  0  0
  -25.9278   -9.5019   18.3236 C   0  0  0  0  0  0  0  0  0  0  0  0
  -26.3906  -36.2815   23.0286 C   0  0  0  0  0  0  0  0  0  0  0  0
  -25.9130  -29.0692   20.0906 C   0  0  0  0  0  0  0  0  0  0  0  0
  -26.9575  -35.1350   22.4401 C   0  0  0  0  0  0  0  0  0  0  0  0
  -25.3752  -28.3666   21.1784 C   0  0  0  0  0  0  0  0  0  0  0  0
  -22.2060   -8.7113   21.8725 C   0  0  0  0  0  0  0  0  0  0  0  0
  -26.8413  -26.4932   20.6773 C   0  0  0  0  0  0  0  0  0  0  0  0
  -21.3756   -7.1536   23.4238 C   0  0  0  0  0  0  0  0  0  0  0  0
  -21.7958   -4.9002   25.0138 C   0  0  0  0  0  0  0  0  0  0  0  0
  -21.2270   -7.2393   24.8080 C   0  0  0  0  0  0  0  0  0  0  0  0
  -25.4378  -10.0796   19.5102 C   0  0  0  0  0  0  0  0  0  0  0  0
  -26.9715  -10.3137   17.9519 C   0  0  0  0  0  0  0  0  0  0  0  0
  -25.4796   -8.3356   17.6203 C   0  0  0  0  0  0  0  0  0  0  0  0
  -25.7821  -31.6722   21.9102 C   0  0  0  0  0  0  0  0  0  0  0  0
  -22.6508  -30.8639   22.1631 C   0  0  0  0  0  0  0  0  0  0  0  0
  -20.2660  -28.4275   22.0090 C   0  0  0  0  0  0  0  0  0  0  0  0
  -28.0938  -16.0055   19.0062 C   0  0  0  0  0  0  0  0  0  0  0  0
  -25.5272  -36.1956   24.2623 C   0  0  0  0  0  0  0  0  0  0  0  0
  -25.4035  -30.4411   19.7430 C   0  0  0  0  0  0  0  0  0  0  0  0
  -24.3025  -28.9599   22.0535 C   0  0  0  0  0  0  0  0  0  0  0  0
  -24.9841  -34.7941   24.5291 C   0  0  0  0  0  0  0  0  0  0  0  0
  -30.2832  -13.2354   19.7955 C   0  0  0  0  0  0  0  0  0  0  0  0
  -26.0929  -33.7561   24.3887 C   0  0  0  0  0  0  0  0  0  0  0  0
  -29.3205  -12.0511   19.6946 C   0  0  0  0  0  0  0  0  0  0  0  0
  -29.9782  -19.3404   18.8985 C   0  0  0  0  0  0  0  0  0  0  0  0
  -27.8635  -19.2089   19.1525 C   0  0  0  0  0  0  0  0  0  0  0  0
  -29.5974  -14.4566   20.4016 C   0  0  0  0  0  0  0  0  0  0  0  0
  -27.3974  -13.7022   19.5897 C   0  0  0  0  0  0  0  0  0  0  0  0
  -27.7183  -22.1690   20.2497 C   0  0  0  0  0  0  0  0  0  0  0  0
  -29.7206  -22.5428   19.8009 C   0  0  0  0  0  0  0  0  0  0  0  0
  -26.6626  -33.7466   22.9650 C   0  0  1  0  0  0  0  0  0  0  0  0
  -24.7666  -31.1600   20.9282 C   0  0  1  0  0  0  0  0  0  0  0  0
  -28.6717  -23.3231   20.6178 C   0  0  0  0  0  0  0  0  0  0  0  0
  -28.0243  -12.4441   18.9619 C   0  0  2  0  0  0  0  0  0  0  0  0
  -28.9160  -18.2969   18.4791 C   0  0  0  0  0  0  0  0  0  0  0  0
  -28.8382  -20.3830   18.9117 C   0  0  0  0  0  0  0  0  0  0  0  0
  -17.8002  -28.0633   22.3003 C   0  0  0  0  0  0  0  0  0  0  0  0
  -22.9932  -30.9854   25.1926 C   0  0  0  0  0  0  0  0  0  0  0  0
  -20.8449  -29.7193   25.4163 C   0  0  0  0  0  0  0  0  0  0  0  0
  -20.8575  -31.9715   24.3438 C   0  0  0  0  0  0  0  0  0  0  0  0
  -19.9475  -27.5427   19.2028 C   0  0  0  0  0  0  0  0  0  0  0  0
  -28.3020  -24.7025   20.1157 C   0  0  0  0  0  0  0  0  0  1  0  0
  -21.8417  -30.0016   23.1016 C   0  0  1  0  0  0  0  0  0  0  0  0
  -18.9156  -28.3821   21.3170 C   0  0  2  0  0  0  0  0  0  0  0  0
  -21.6559  -30.6588   24.4984 C   0  0  0  0  0  0  0  0  0  0  0  0
  -26.1146  -11.1739   19.8686 N   0  0  0  0  0  0  0  0  0  0  0  0
  -27.0407  -11.2902   18.9016 N   0  0  0  0  0  0  0  0  0  0  0  0
  -23.8417  -30.3064   21.6766 N   0  0  0  0  0  0  0  0  0  0  0  0
  -28.3810  -14.7893   19.6461 N   0  0  0  0  0  0  0  0  0  0  0  0
  -27.8276  -10.2804   16.9087 N   0  0  0  0  0  0  0  0  0  0  0  0
  -26.0460   -7.0970   17.9512 N   0  0  0  0  0  0  0  0  0  0  0  0
  -25.7695  -33.0450   22.0680 N   0  0  0  0  0  0  0  0  0  0  0  0
  -20.5920  -29.7061   22.4093 N   0  0  0  0  0  0  0  0  0  0  0  0
  -29.0720  -16.9900   19.0977 N   0  0  0  0  0  0  0  0  0  0  0  0
  -28.9152  -21.3205   20.0363 N   0  3  0  0  0  0  0  0  0  0  0  0
  -18.9145  -27.3404   20.2512 N   0  3  0  0  0  0  0  0  0  0  0  0
  -24.6147   -8.3926   16.7135 O   0  0  0  0  0  0  0  0  0  0  0  0
  -26.5211  -30.8805   22.4834 O   0  0  0  0  0  0  0  0  0  0  0  0
  -22.2376  -31.9878   21.8668 O   0  0  0  0  0  0  0  0  0  0  0  0
  -20.9604  -27.4281   22.1809 O   0  0  0  0  0  0  0  0  0  0  0  0
  -27.0422  -16.2059   18.3884 O   0  0  0  0  0  0  0  0  0  0  0  0
  -21.1665   -8.2711   22.6330 O   0  0  0  0  0  0  0  0  0  0  0  0
  -27.2933  -25.2430   20.9681 O   0  0  0  0  0  0  0  0  0  1  0  0
  -21.9962   -3.8179   25.7770 F   0  0  0  0  0  0  0  0  0  0  0  0
  -20.8814   -8.4010   25.3797 F   0  0  0  0  0  0  0  0  0  0  0  0
  1  2  1  0  0  0  0
  1  5  2  0  0  0  0
  2  6  2  0  0  0  0
  3  8  2  0  0  0  0
  3 15  1  0  0  0  0
  4  9  1  0  0  0  0
  4 15  2  0  0  0  0
  5 17  1  0  0  0  0
  6 19  1  0  0  0  0
  7 10  2  0  0  0  0
  7 18  1  0  0  0  0
  8 21  1  0  0  0  0
  9 21  2  0  0  0  0
 10 22  1  0  0  0  0
 11 12  2  0  0  0  0
 11 23  1  0  0  0  0
 12 24  1  0  0  0  0
 13 20  1  0  0  0  0
 13 22  2  0  0  0  0
 14 24  2  0  0  0  0
 14 25  1  0  0  0  0
 15 26  1  0  0  0  0
 16 26  1  0  0  0  0
 16 27  2  0  0  0  0
 16 28  1  0  0  0  0
 17 19  2  0  0  0  0
 17 33  1  0  0  0  0
 18 20  2  0  0  0  0
 18 34  1  0  0  0  0
 19 46  1  0  0  0  0
 20 35  1  0  0  0  0
 21 77  1  0  0  0  0
 22 78  1  0  0  0  0
 23 25  2  0  0  0  0
 23 77  1  0  0  0  0
 24 79  1  0  0  0  0
 25 80  1  0  0  0  0
 26 61  2  0  0  0  0
 27 62  1  0  0  0  0
 27 65  1  0  0  0  0
 28 66  1  0  0  0  0
 28 72  2  0  0  0  0
 29 47  1  0  0  0  0
 29 67  1  0  0  0  0
 29 73  2  0  0  0  0
 30 58  1  0  0  0  0
 30 63  1  0  0  0  0
 30 74  2  0  0  0  0
 31 59  1  0  0  0  0
 31 68  1  0  0  0  0
 31 75  2  0  0  0  0
 32 64  1  0  0  0  0
 32 69  1  0  0  0  0
 32 76  2  0  0  0  0
 33 36  1  0  0  0  0
 34 47  1  0  0  0  0
 35 63  1  0  0  0  0
 36 38  1  0  0  0  0
 37 39  1  0  0  0  0
 37 42  1  0  0  0  0
 38 46  1  0  0  0  0
 39 49  1  0  0  0  0
 40 50  1  0  0  0  0
 40 51  1  0  0  0  0
 41 50  1  0  0  0  0
 41 51  1  0  0  0  0
 42 64  1  0  0  0  0
 43 49  1  0  0  0  0
 43 64  1  0  0  0  0
 44 48  1  0  0  0  0
 44 70  1  0  0  0  0
 45 48  1  0  0  0  0
 45 70  1  0  0  0  0
 46 67  1  0  0  0  0
 47 63  1  0  0  0  0
 48 57  1  0  0  0  0
 49 62  1  0  0  0  0
 50 69  1  0  0  0  0
 51 70  1  0  0  0  0
 52 59  1  0  0  0  0
 53 60  1  0  0  0  0
 54 60  1  0  0  0  0
 55 60  1  0  0  0  0
 56 71  1  0  0  0  0
 57 78  1  0  0  0  0
 58 60  1  0  0  0  0
 58 68  1  0  0  0  0
 59 71  1  0  0  0  0
 61 62  1  0  0  0  0
M  CHG  2  70   1  71   1
M  ISO  4  32 100  57 101  69 100  78 101
M  END
> <Batch ID>
0191

> <Smiles>
CNC(C)C(=O)NC(C(=O)N1Cc2cc([101O:1][101CH2:1]C3CN(C4CC([100NH:0][100C:0](=O)N5CCCC(n6nc(-c7ccc(Oc8ccc(F)cc8F)cc7)c(C(N)=O)c6N)C5)C4)C3)ccc2CC1C(=O)NC1CCCc2ccccc21)C(C)(C)C

> <Shape>
0.339

> <Color>
0.083

> <Negative vol penalty>
0.000

$$$$

  -OEChem-04052323273D

 86 95  0     1  0  0  0  0  0999 V2000
  -26.6650  -37.3765   22.6694 C   0  0  0  0  0  0  0  0  0  0  0  0
  -27.2736  -36.2241   22.1827 C   0  0  0  0  0  0  0  0  0  0  0  0
  -23.1646  -10.6428   21.7910 C   0  0  0  0  0  0  0  0  0  0  0  0
  -24.3050   -8.6920   20.9361 C   0  0  0  0  0  0  0  0  0  0  0  0
  -25.6269  -37.2775   23.5949 C   0  0  0  0  0  0  0  0  0  0  0  0
  -26.8451  -34.9719   22.6220 C   0  0  0  0  0  0  0  0  0  0  0  0
  -26.6240  -29.7998   19.3501 C   0  0  0  0  0  0  0  0  0  0  0  0
  -21.9369  -10.0087   21.6002 C   0  0  0  0  0  0  0  0  0  0  0  0
  -23.0774   -8.0579   20.7453 C   0  0  0  0  0  0  0  0  0  0  0  0
  -27.4869  -28.7083   19.2614 C   0  0  0  0  0  0  0  0  0  0  0  0
  -20.7893   -6.4432   22.6368 C   0  0  0  0  0  0  0  0  0  0  0  0
  -20.6765   -5.1153   23.0486 C   0  0  0  0  0  0  0  0  0  0  0  0
  -26.1478  -27.5257   20.8824 C   0  0  0  0  0  0  0  0  0  0  0  0
  -20.1505   -4.4578   20.7840 C   0  0  0  0  0  0  0  0  0  0  0  0
  -24.3487   -9.9845   21.4589 C   0  0  0  0  0  0  0  0  0  0  0  0
  -26.4223  -10.6038   22.8094 C   0  0  0  0  0  0  0  0  0  0  0  0
  -25.1790  -36.0232   24.0385 C   0  0  0  0  0  0  0  0  0  0  0  0
  -25.5208  -29.7665   20.2151 C   0  0  0  0  0  0  0  0  0  0  0  0
  -25.8009  -34.8562   23.5553 C   0  0  0  0  0  0  0  0  0  0  0  0
  -25.2710  -28.6170   20.9782 C   0  0  0  0  0  0  0  0  0  0  0  0
  -21.8933   -8.7163   21.0774 C   0  0  0  0  0  0  0  0  0  0  0  0
  -27.2506  -27.5722   20.0298 C   0  0  0  0  0  0  0  0  0  0  0  0
  -20.5825   -6.7785   21.2987 C   0  0  0  0  0  0  0  0  0  0  0  0
  -20.3572   -4.1226   22.1222 C   0  0  0  0  0  0  0  0  0  0  0  0
  -20.2632   -5.7858   20.3723 C   0  0  0  0  0  0  0  0  0  0  0  0
  -25.6171  -10.6391   21.6552 C   0  0  0  0  0  0  0  0  0  0  0  0
  -29.9734  -25.3768   19.0148 C   0  0  0  0  0  0  0  0  0  0  0  0
  -29.5514  -24.1172   18.6600 C   0  0  0  0  0  0  0  0  0  0  0  0
  -27.5113  -11.3784   22.4922 C   0  0  0  0  0  0  0  0  0  0  0  0
  -31.6791  -24.1225   19.2341 C   0  0  0  0  0  0  0  0  0  0  0  0
  -26.2054   -9.9309   24.0567 C   0  0  0  0  0  0  0  0  0  0  0  0
  -24.6044  -31.4549   22.7475 C   0  0  0  0  0  0  0  0  0  0  0  0
  -21.9130  -29.6640   22.4802 C   0  0  0  0  0  0  0  0  0  0  0  0
  -20.4438  -26.7894   21.3733 C   0  0  0  0  0  0  0  0  0  0  0  0
  -29.8163  -15.7709   20.4395 C   0  0  0  0  0  0  0  0  0  0  0  0
  -24.0852  -35.9681   25.0754 C   0  0  0  0  0  0  0  0  0  0  0  0
  -24.5844  -30.9418   20.2793 C   0  0  0  0  0  0  0  0  0  0  0  0
  -24.0891  -28.5232   21.9071 C   0  0  0  0  0  0  0  0  0  0  0  0
  -23.4394  -34.5911   25.2069 C   0  0  0  0  0  0  0  0  0  0  0  0
  -29.0249  -13.2986   18.0720 C   0  0  0  0  0  0  0  0  0  0  0  0
  -24.5079  -33.5044   25.2719 C   0  0  0  0  0  0  0  0  0  0  0  0
  -28.1236  -12.3737   18.8893 C   0  0  0  0  0  0  0  0  0  0  0  0
  -28.7503  -14.7744   18.3669 C   0  0  0  0  0  0  0  0  0  0  0  0
  -29.7542  -17.5371   18.6226 C   0  0  0  0  0  0  0  0  0  0  0  0
  -31.6896  -17.3623   20.1431 C   0  0  0  0  0  0  0  0  0  0  0  0
  -27.9134  -14.1960   20.6217 C   0  0  0  0  0  0  0  0  0  0  0  0
  -29.5499  -18.9915   19.0347 C   0  0  0  0  0  0  0  0  0  0  0  0
  -31.5003  -18.8009   20.5957 C   0  0  0  0  0  0  0  0  0  0  0  0
  -25.3476  -33.4790   23.9890 C   0  0  1  0  0  0  0  0  0  0  0  0
  -23.7826  -30.9968   21.5760 C   0  0  1  0  0  0  0  0  0  0  0  0
  -28.2069  -12.7058   20.3898 C   0  0  1  0  0  0  0  0  0  0  0  0
  -28.2428  -23.6087   18.2109 C   0  0  0  0  0  0  0  0  0  0  0  0
  -33.0319  -23.5919   19.5016 C   0  0  0  0  0  0  0  0  0  0  0  0
  -18.2388  -25.5920   21.3360 C   0  0  0  0  0  0  0  0  0  0  0  0
  -22.2831  -28.8961   25.4099 C   0  0  0  0  0  0  0  0  0  0  0  0
  -20.6688  -27.0168   25.0491 C   0  0  0  0  0  0  0  0  0  0  0  0
  -19.9199  -29.3772   24.7482 C   0  0  0  0  0  0  0  0  0  0  0  0
  -20.3501  -26.8117   18.4153 C   0  0  0  0  0  0  0  0  0  0  0  0
  -29.1979  -26.6269   19.0446 C   0  0  0  0  0  0  0  0  0  1  0  0
  -30.7250  -21.8895   18.5515 C   0  0  0  0  0  0  0  0  0  0  0  0
  -30.7318  -21.0442   19.8184 C   0  0  0  0  0  0  0  0  0  0  0  0
  -21.4541  -28.3350   23.0300 C   0  0  1  0  0  0  0  0  0  0  0  0
  -19.1622  -26.5477   20.5965 C   0  0  2  0  0  0  0  0  0  0  0  0
  -21.1049  -28.4085   24.5433 C   0  0  0  0  0  0  0  0  0  0  0  0
  -26.1490  -11.3779   20.6778 N   0  0  0  0  0  0  0  0  0  0  0  0
  -31.2989  -25.3734   19.3709 N   0  0  0  0  0  0  0  0  0  0  0  0
  -30.6550  -23.3246   18.8050 N   0  0  0  0  0  0  0  0  0  0  0  0
  -27.3002  -11.8140   21.2171 N   0  0  0  0  0  0  0  0  0  0  0  0
  -23.2061  -29.7008   21.9395 N   0  0  0  0  0  0  0  0  0  0  0  0
  -28.8002  -15.0345   19.8124 N   0  0  0  0  0  0  0  0  0  0  0  0
  -30.4300  -16.7810   19.6839 N   0  0  0  0  0  0  0  0  0  0  0  0
  -28.6192  -11.7228   23.1824 N   0  0  0  0  0  0  0  0  0  0  0  0
  -25.0340   -9.1778   24.2147 N   0  0  0  0  0  0  0  0  0  0  0  0
  -24.6205  -32.8256   22.9219 N   0  0  0  0  0  0  0  0  0  0  0  0
  -20.3487  -27.9021   22.1820 N   0  0  0  0  0  0  0  0  0  0  0  0
  -30.8662  -19.5877   19.4723 N   0  3  0  0  0  0  0  0  0  0  0  0
  -19.4688  -25.9648   19.2597 N   0  3  0  0  0  0  0  0  0  0  0  0
  -27.0182  -10.0090   25.0090 O   0  0  0  0  0  0  0  0  0  0  0  0
  -25.1799  -30.6260   23.4428 O   0  0  0  0  0  0  0  0  0  0  0  0
  -21.1495  -30.6319   22.5223 O   0  0  0  0  0  0  0  0  0  0  0  0
  -21.4294  -26.0616   21.2755 O   0  0  0  0  0  0  0  0  0  0  0  0
  -30.1551  -15.5398   21.6071 O   0  0  0  0  0  0  0  0  0  0  0  0
  -20.6956   -8.0972   20.8913 O   0  0  0  0  0  0  0  0  0  0  0  0
  -28.0956  -26.5007   19.9453 O   0  0  0  0  0  0  0  0  0  1  0  0
  -20.2505   -2.8473   22.5175 F   0  0  0  0  0  0  0  0  0  0  0  0
  -20.0646   -6.1016   19.0852 F   0  0  0  0  0  0  0  0  0  0  0  0
  1  2  1  0  0  0  0
  1  5  2  0  0  0  0
  2  6  2  0  0  0  0
  3  8  2  0  0  0  0
  3 15  1  0  0  0  0
  4  9  1  0  0  0  0
  4 15  2  0  0  0  0
  5 17  1  0  0  0  0
  6 19  1  0  0  0  0
  7 10  2  0  0  0  0
  7 18  1  0  0  0  0
  8 21  1  0  0  0  0
  9 21  2  0  0  0  0
 10 22  1  0  0  0  0
 11 12  2  0  0  0  0
 11 23  1  0  0  0  0
 12 24  1  0  0  0  0
 13 20  1  0  0  0  0
 13 22  2  0  0  0  0
 14 24  2  0  0  0  0
 14 25  1  0  0  0  0
 15 26  1  0  0  0  0
 16 26  1  0  0  0  0
 16 29  2  0  0  0  0
 16 31  1  0  0  0  0
 17 19  2  0  0  0  0
 17 36  1  0  0  0  0
 18 20  2  0  0  0  0
 18 37  1  0  0  0  0
 19 49  1  0  0  0  0
 20 38  1  0  0  0  0
 21 83  1  0  0  0  0
 22 84  1  0  0  0  0
 23 25  2  0  0  0  0
 23 83  1  0  0  0  0
 24 85  1  0  0  0  0
 25 86  1  0  0  0  0
 26 65  2  0  0  0  0
 27 28  2  0  0  0  0
 27 59  1  0  0  0  0
 27 66  1  0  0  0  0
 28 52  1  0  0  0  0
 28 67  1  0  0  0  0
 29 68  1  0  0  0  0
 29 72  1  0  0  0  0
 30 53  1  0  0  0  0
 30 66  2  0  0  0  0
 30 67  1  0  0  0  0
 31 73  1  0  0  0  0
 31 78  2  0  0  0  0
 32 50  1  0  0  0  0
 32 74  1  0  0  0  0
 32 79  2  0  0  0  0
 33 62  1  0  0  0  0
 33 69  1  0  0  0  0
 33 80  2  0  0  0  0
 34 63  1  0  0  0  0
 34 75  1  0  0  0  0
 34 81  2  0  0  0  0
 35 70  1  0  0  0  0
 35 71  1  0  0  0  0
 35 82  2  0  0  0  0
 36 39  1  0  0  0  0
 37 50  1  0  0  0  0
 38 69  1  0  0  0  0
 39 41  1  0  0  0  0
 40 42  1  0  0  0  0
 40 43  1  0  0  0  0
 41 49  1  0  0  0  0
 42 51  1  0  0  0  0
 43 70  1  0  0  0  0
 44 47  1  0  0  0  0
 44 71  1  0  0  0  0
 45 48  1  0  0  0  0
 45 71  1  0  0  0  0
 46 51  1  0  0  0  0
 46 70  1  0  0  0  0
 47 76  1  0  0  0  0
 48 76  1  0  0  0  0
 49 74  1  0  0  0  0
 50 69  1  0  0  0  0
 51 68  1  0  0  0  0
 54 63  1  0  0  0  0
 55 64  1  0  0  0  0
 56 64  1  0  0  0  0
 57 64  1  0  0  0  0
 58 77  1  0  0  0  0
 59 84  1  0  0  0  0
 60 61  1  0  0  0  0
 60 67  1  0  0  0  0
 61 76  1  0  0  0  0
 62 64  1  0  0  0  0
 62 75  1  0  0  0  0
 63 77  1  0  0  0  0
 65 68  1  0  0  0  0
M  CHG  2  76   1  77   1
M  ISO  4  35 100  59 101  71 100  84 101
M  END
> <Batch ID>
0191

> <Smiles>
CNC(C)C(=O)NC(C(=O)N1Cc2cc([101O:1][101CH2:1]c3nc(C)n(CCN4CC[100N:0]([100C:0](=O)N5CCCC(n6nc(-c7ccc(Oc8ccc(F)cc8F)cc7)c(C(N)=O)c6N)C5)CC4)c3C)ccc2CC1C(=O)NC1CCCc2ccccc21)C(C)(C)C

> <Shape>
0.350

> <Color>
0.103

> <Negative vol penalty>
0.000

$$$$

  -OEChem-04052323273D

 80 88  0     1  0  0  0  0  0999 V2000
  -32.2712  -14.0577   21.3267 C   0  0  0  0  0  0  0  0  0  0  0  0
  -31.4677  -15.1664   21.5732 C   0  0  0  0  0  0  0  0  0  0  0  0
  -27.1494  -25.0417   21.1259 C   0  0  0  0  0  0  0  0  0  0  0  0
  -24.8289  -24.7979   20.4991 C   0  0  0  0  0  0  0  0  0  0  0  0
  -31.7553  -12.9650   20.6312 C   0  0  0  0  0  0  0  0  0  0  0  0
  -30.1480  -15.1834   21.1233 C   0  0  0  0  0  0  0  0  0  0  0  0
  -25.3449  -17.7765   23.9002 C   0  0  0  0  0  0  0  0  0  0  0  0
  -27.2387  -23.6649   21.3310 C   0  0  0  0  0  0  0  0  0  0  0  0
  -24.9182  -23.4210   20.7041 C   0  0  0  0  0  0  0  0  0  0  0  0
  -24.6991  -18.9976   23.7115 C   0  0  0  0  0  0  0  0  0  0  0  0
  -27.5754  -20.8817   19.4407 C   0  0  0  0  0  0  0  0  0  0  0  0
  -28.6912  -20.2209   18.9271 C   0  0  0  0  0  0  0  0  0  0  0  0
  -23.0682  -17.9109   22.3050 C   0  0  0  0  0  0  0  0  0  0  0  0
  -29.2937  -19.5067   21.1551 C   0  0  0  0  0  0  0  0  0  0  0  0
  -25.9445  -25.6082   20.7100 C   0  0  0  0  0  0  0  0  0  0  0  0
  -26.5988  -27.8058   19.5920 C   0  0  0  0  0  0  0  0  0  0  0  0
  -30.4256  -12.9647   20.1810 C   0  0  0  0  0  0  0  0  0  0  0  0
  -24.8627  -16.6135   23.2829 C   0  0  0  0  0  0  0  0  0  0  0  0
  -29.6142  -14.0902   20.4199 C   0  0  0  0  0  0  0  0  0  0  0  0
  -23.7082  -16.6758   22.4895 C   0  0  0  0  0  0  0  0  0  0  0  0
  -26.1232  -22.8546   21.1200 C   0  0  0  0  0  0  0  0  0  0  0  0
  -23.5623  -19.0655   22.9115 C   0  0  0  0  0  0  0  0  0  0  0  0
  -27.3187  -20.8551   20.8115 C   0  0  0  0  0  0  0  0  0  0  0  0
  -29.5504  -19.5334   19.7843 C   0  0  0  0  0  0  0  0  0  0  0  0
  -28.1779  -20.1676   21.6687 C   0  0  0  0  0  0  0  0  0  0  0  0
  -25.8514  -27.0304   20.4986 C   0  0  0  0  0  0  0  0  0  0  0  0
  -26.1384  -29.0868   19.7748 C   0  0  0  0  0  0  0  0  0  0  0  0
  -27.6180  -27.4040   18.6671 C   0  0  0  0  0  0  0  0  0  0  0  0
  -26.0232  -14.5577   21.1542 C   0  0  0  0  0  0  0  0  0  0  0  0
  -23.2934  -12.9342   21.8138 C   0  0  0  0  0  0  0  0  0  0  0  0
  -20.0738  -13.0174   22.9425 C   0  0  0  0  0  0  0  0  0  0  0  0
  -22.1433  -28.0277   23.4323 C   0  0  0  0  0  0  0  0  0  0  0  0
  -29.9266  -11.7800   19.3922 C   0  0  0  0  0  0  0  0  0  0  0  0
  -25.5553  -15.2991   23.5180 C   0  0  0  0  0  0  0  0  0  0  0  0
  -23.1385  -15.4524   21.8209 C   0  0  0  0  0  0  0  0  0  0  0  0
  -28.4056  -11.7225   19.2762 C   0  0  0  0  0  0  0  0  0  0  0  0
  -24.9802  -30.1708   23.7877 C   0  0  0  0  0  0  0  0  0  0  0  0
  -18.7055  -28.0152   22.2785 C   0  0  0  0  0  0  0  0  0  0  0  0
  -27.8472  -13.0900   18.8957 C   0  0  0  0  0  0  0  0  0  0  0  0
  -25.1084  -30.8757   22.4419 C   0  0  0  0  0  0  0  0  0  0  0  0
  -18.9976  -26.5251   22.1724 C   0  0  0  0  0  0  0  0  0  0  0  0
  -23.5172  -29.9524   24.1411 C   0  0  0  0  0  0  0  0  0  0  0  0
  -20.0780  -28.6382   22.0755 C   0  0  0  0  0  0  0  0  0  0  0  0
  -22.9124  -29.7665   21.7357 C   0  0  0  0  0  0  0  0  0  0  0  0
  -28.1701  -14.1360   19.9695 C   0  0  1  0  0  0  0  0  0  0  0  0
  -25.2747  -14.2720   22.4254 C   0  0  1  0  0  0  0  0  0  0  0  0
  -24.3525  -30.1460   21.3200 C   0  0  2  0  0  0  0  0  0  0  0  0
  -20.3550  -26.3827   22.8665 C   0  0  1  0  0  0  0  0  0  0  0  0
  -18.0833  -11.5392   23.3296 C   0  0  0  0  0  0  0  0  0  0  0  0
  -22.7319  -12.9091   18.8147 C   0  0  0  0  0  0  0  0  0  0  0  0
  -20.3598  -12.3000   19.3346 C   0  0  0  0  0  0  0  0  0  0  0  0
  -22.2126  -10.7642   19.9913 C   0  0  0  0  0  0  0  0  0  0  0  0
  -20.0668  -13.5909   25.8460 C   0  0  0  0  0  0  0  0  0  0  0  0
  -21.1790  -25.2452   22.2770 C   0  0  0  0  0  0  0  0  0  0  0  0
  -20.8998  -21.5041   23.0274 C   0  0  0  0  0  0  0  0  0  0  0  0
  -21.4180  -22.7598   22.3426 C   0  0  0  0  0  0  0  0  0  0  0  0
  -21.5224  -20.2170   22.5006 C   0  0  0  0  0  0  0  0  0  1  0  0
  -21.8908  -12.9298   21.2556 C   0  0  1  0  0  0  0  0  0  0  0  0
  -19.3345  -12.1478   23.9434 C   0  0  2  0  0  0  0  0  0  0  0  0
  -21.8104  -12.2494   19.8600 C   0  0  0  0  0  0  0  0  0  0  0  0
  -24.9823  -27.7581   21.2051 N   0  0  0  0  0  0  0  0  0  0  0  0
  -25.1808  -29.0042   20.7425 N   0  0  0  0  0  0  0  0  0  0  0  0
  -23.8549  -14.1918   22.0761 N   0  0  0  0  0  0  0  0  0  0  0  0
  -22.8054  -29.2176   23.0952 N   0  0  0  0  0  0  0  0  0  0  0  0
  -21.0006  -27.6909   22.7031 N   0  0  0  0  0  0  0  0  0  0  0  0
  -26.4633  -30.2646   19.2008 N   0  0  0  0  0  0  0  0  0  0  0  0
  -27.2353  -27.0320   17.3711 N   0  0  0  0  0  0  0  0  0  0  0  0
  -27.2813  -13.9887   21.1021 N   0  0  0  0  0  0  0  0  0  0  0  0
  -21.0488  -12.3090   22.2725 N   0  0  0  0  0  0  0  0  0  0  0  0
  -18.9316  -12.9529   25.1309 N   0  3  0  0  0  0  0  0  0  0  0  0
  -20.7299  -23.9701   22.8751 N   0  3  0  0  0  0  0  0  0  0  0  0
  -28.8305  -27.3599   18.9856 O   0  0  0  0  0  0  0  0  0  0  0  0
  -25.4975  -15.2425   20.2845 O   0  0  0  0  0  0  0  0  0  0  0  0
  -23.8670  -11.8611   22.0163 O   0  0  0  0  0  0  0  0  0  0  0  0
  -19.8102  -14.2053   22.7696 O   0  0  0  0  0  0  0  0  0  0  0  0
  -22.5488  -27.3032   24.3508 O   0  0  0  0  0  0  0  0  0  0  0  0
  -26.2100  -21.5110   21.3197 O   0  0  0  0  0  0  0  0  0  0  0  0
  -22.9259  -20.2646   22.7238 O   0  0  0  0  0  0  0  0  0  1  0  0
  -30.6211  -18.8975   19.2908 F   0  0  0  0  0  0  0  0  0  0  0  0
  -27.9358  -20.1375   22.9864 F   0  0  0  0  0  0  0  0  0  0  0  0
  1  2  1  0  0  0  0
  1  5  2  0  0  0  0
  2  6  2  0  0  0  0
  3  8  2  0  0  0  0
  3 15  1  0  0  0  0
  4  9  1  0  0  0  0
  4 15  2  0  0  0  0
  5 17  1  0  0  0  0
  6 19  1  0  0  0  0
  7 10  2  0  0  0  0
  7 18  1  0  0  0  0
  8 21  1  0  0  0  0
  9 21  2  0  0  0  0
 10 22  1  0  0  0  0
 11 12  2  0  0  0  0
 11 23  1  0  0  0  0
 12 24  1  0  0  0  0
 13 20  1  0  0  0  0
 13 22  2  0  0  0  0
 14 24  2  0  0  0  0
 14 25  1  0  0  0  0
 15 26  1  0  0  0  0
 16 26  1  0  0  0  0
 16 27  2  0  0  0  0
 16 28  1  0  0  0  0
 17 19  2  0  0  0  0
 17 33  1  0  0  0  0
 18 20  2  0  0  0  0
 18 34  1  0  0  0  0
 19 45  1  0  0  0  0
 20 35  1  0  0  0  0
 21 77  1  0  0  0  0
 22 78  1  0  0  0  0
 23 25  2  0  0  0  0
 23 77  1  0  0  0  0
 24 79  1  0  0  0  0
 25 80  1  0  0  0  0
 26 61  2  0  0  0  0
 27 62  1  0  0  0  0
 27 66  1  0  0  0  0
 28 67  1  0  0  0  0
 28 72  2  0  0  0  0
 29 46  1  0  0  0  0
 29 68  1  0  0  0  0
 29 73  2  0  0  0  0
 30 58  1  0  0  0  0
 30 63  1  0  0  0  0
 30 74  2  0  0  0  0
 31 59  1  0  0  0  0
 31 69  1  0  0  0  0
 31 75  2  0  0  0  0
 32 64  1  0  0  0  0
 32 65  1  0  0  0  0
 32 76  2  0  0  0  0
 33 36  1  0  0  0  0
 34 46  1  0  0  0  0
 35 63  1  0  0  0  0
 36 39  1  0  0  0  0
 37 40  1  0  0  0  0
 37 42  1  0  0  0  0
 38 41  1  0  0  0  0
 38 43  1  0  0  0  0
 39 45  1  0  0  0  0
 40 47  1  0  0  0  0
 41 48  1  0  0  0  0
 42 64  1  0  0  0  0
 43 65  1  0  0  0  0
 44 47  1  0  0  0  0
 44 64  1  0  0  0  0
 45 68  1  0  0  0  0
 46 63  1  0  0  0  0
 47 62  1  0  0  0  0
 48 54  1  0  0  0  0
 48 65  1  0  0  0  0
 49 59  1  0  0  0  0
 50 60  1  0  0  0  0
 51 60  1  0  0  0  0
 52 60  1  0  0  0  0
 53 70  1  0  0  0  0
 54 71  1  0  0  0  0
 55 56  1  0  0  0  0
 55 57  1  0  0  0  0
 56 71  1  0  0  0  0
 57 78  1  0  0  0  0
 58 60  1  0  0  0  0
 58 69  1  0  0  0  0
 59 70  1  0  0  0  0
 61 62  1  0  0  0  0
M  CHG  2  70   1  71   1
M  ISO  4  32 100  57 101  65 100  78 101
M  END
> <Batch ID>
0191

> <Smiles>
CNC(C)C(=O)NC(C(=O)N1Cc2cc([101O:1][101CH2:1]CCNCC3CCC[100N:0]3[100C:0](=O)N3CCCC(n4nc(-c5ccc(Oc6ccc(F)cc6F)cc5)c(C(N)=O)c4N)C3)ccc2CC1C(=O)NC1CCCc2ccccc21)C(C)(C)C

> <Shape>
0.244

> <Color>
0.079

> <Negative vol penalty>
0.000

$$$$

  -OEChem-04052323273D

 83 92  0     1  0  0  0  0  0999 V2000
  -22.7110   -8.6954   21.1828 C   0  0  0  0  0  0  0  0  0  0  0  0
  -23.6861   -9.2070   20.3325 C   0  0  0  0  0  0  0  0  0  0  0  0
  -22.4525  -26.5880   20.5659 C   0  0  0  0  0  0  0  0  0  0  0  0
  -22.7532  -27.5362   22.7677 C   0  0  0  0  0  0  0  0  0  0  0  0
  -21.9891   -9.5544   22.0104 C   0  0  0  0  0  0  0  0  0  0  0  0
  -23.9389  -10.5781   20.3085 C   0  0  0  0  0  0  0  0  0  0  0  0
  -29.3499  -13.3090   19.4317 C   0  0  0  0  0  0  0  0  0  0  0  0
  -21.0782  -26.5049   20.7894 C   0  0  0  0  0  0  0  0  0  0  0  0
  -21.3789  -27.4531   22.9911 C   0  0  0  0  0  0  0  0  0  0  0  0
  -29.9414  -13.8790   18.3051 C   0  0  0  0  0  0  0  0  0  0  0  0
  -17.9069  -27.8252   24.0036 C   0  0  0  0  0  0  0  0  0  0  0  0
  -17.2738  -28.9299   24.5731 C   0  0  0  0  0  0  0  0  0  0  0  0
  -29.1624  -16.0527   19.0033 C   0  0  0  0  0  0  0  0  0  0  0  0
  -17.9725  -30.2934   22.7050 C   0  0  0  0  0  0  0  0  0  0  0  0
  -23.2900  -27.1036   21.5551 C   0  0  0  0  0  0  0  0  0  0  0  0
  -25.4165  -28.2695   20.7635 C   0  0  0  0  0  0  0  0  0  0  0  0
  -22.2399  -10.9355   22.0035 C   0  0  0  0  0  0  0  0  0  0  0  0
  -28.6498  -14.1065   20.3484 C   0  0  0  0  0  0  0  0  0  0  0  0
  -23.2187  -11.4565   21.1358 C   0  0  0  0  0  0  0  0  0  0  0  0
  -28.5652  -15.4908   20.1420 C   0  0  0  0  0  0  0  0  0  0  0  0
  -20.5414  -26.9375   22.0020 C   0  0  0  0  0  0  0  0  0  0  0  0
  -29.8452  -15.2505   18.0893 C   0  0  0  0  0  0  0  0  0  0  0  0
  -18.5729  -27.9546   22.7848 C   0  0  0  0  0  0  0  0  0  0  0  0
  -17.3065  -30.1640   23.9239 C   0  0  0  0  0  0  0  0  0  0  0  0
  -18.6056  -29.1887   22.1355 C   0  0  0  0  0  0  0  0  0  0  0  0
  -24.7099  -27.1892   21.3251 C   0  0  0  0  0  0  0  0  0  0  0  0
  -26.7272  -27.8590   20.7622 C   0  0  0  0  0  0  0  0  0  0  0  0
  -24.9314  -29.5314   20.2859 C   0  0  0  0  0  0  0  0  0  0  0  0
  -25.6432  -14.2348   21.3718 C   0  0  0  0  0  0  0  0  0  0  0  0
  -26.8464  -16.4398   23.4243 C   0  0  0  0  0  0  0  0  0  0  0  0
  -29.2778  -18.7331   24.1141 C   0  0  0  0  0  0  0  0  0  0  0  0
  -30.6032  -24.2478   19.8872 C   0  0  0  0  0  0  0  0  0  0  0  0
  -21.4011  -11.8300   22.8816 C   0  0  0  0  0  0  0  0  0  0  0  0
  -28.0403  -13.4802   21.5726 C   0  0  0  0  0  0  0  0  0  0  0  0
  -27.8421  -16.3937   21.1066 C   0  0  0  0  0  0  0  0  0  0  0  0
  -21.9897  -13.2262   23.0678 C   0  0  0  0  0  0  0  0  0  0  0  0
  -28.9487  -23.8927   22.9650 C   0  0  0  0  0  0  0  0  0  0  0  0
  -22.4391  -13.7992   21.7275 C   0  0  0  0  0  0  0  0  0  0  0  0
  -27.7437  -24.8123   22.7698 C   0  0  0  0  0  0  0  0  0  0  0  0
  -34.9765  -20.4778   16.8442 C   0  0  0  0  0  0  0  0  0  0  0  0
  -29.2670  -23.0894   21.7027 C   0  0  0  0  0  0  0  0  0  0  0  0
  -31.2657  -21.8022   19.9574 C   0  0  0  0  0  0  0  0  0  0  0  0
  -32.9550  -23.5541   19.5413 C   0  0  0  0  0  0  0  0  0  0  0  0
  -28.2330  -24.8405   20.2946 C   0  0  0  0  0  0  0  0  0  0  0  0
  -31.6392  -21.1168   18.6467 C   0  0  0  0  0  0  0  0  0  0  0  0
  -33.3369  -22.9122   18.2175 C   0  0  0  0  0  0  0  0  0  0  0  0
  -23.5391  -12.9351   21.0991 C   0  0  1  0  0  0  0  0  0  0  0  0
  -26.9124  -14.3145   22.1720 C   0  0  1  0  0  0  0  0  0  0  0  0
  -34.0630  -19.3288   17.1788 C   0  0  1  0  0  0  0  0  0  0  0  0
  -27.9239  -25.7032   21.5279 C   0  0  1  0  0  0  0  0  0  0  0  0
  -33.5045  -20.7200   17.0407 C   0  0  1  0  0  0  0  0  0  0  0  0
  -29.9720  -20.4061   25.8510 C   0  0  0  0  0  0  0  0  0  0  0  0
  -24.6731  -18.3478   22.4516 C   0  0  0  0  0  0  0  0  0  0  0  0
  -25.9680  -20.2320   23.4720 C   0  0  0  0  0  0  0  0  0  0  0  0
  -25.0819  -18.4028   24.9182 C   0  0  0  0  0  0  0  0  0  0  0  0
  -31.8367  -17.3310   24.6089 C   0  0  0  0  0  0  0  0  0  0  0  0
  -33.7555  -18.2944   16.1520 C   0  0  0  0  0  0  0  0  0  0  0  0
  -32.4582  -16.1953   15.7649 C   0  0  0  0  0  0  0  0  0  0  0  0
  -31.5896  -15.1755   16.4745 C   0  0  0  0  0  0  0  0  0  1  0  0
  -27.0423  -17.9363   23.3914 C   0  0  1  0  0  0  0  0  0  0  0  0
  -30.1114  -18.9736   25.3598 C   0  0  2  0  0  0  0  0  0  0  0  0
  -25.7034  -18.7127   23.5389 C   0  0  0  0  0  0  0  0  0  0  0  0
  -25.5057  -26.1689   21.6563 N   0  0  0  0  0  0  0  0  0  0  0  0
  -26.7260  -26.6064   21.3018 N   0  0  0  0  0  0  0  0  0  0  0  0
  -27.2574  -15.7331   22.2853 N   0  0  0  0  0  0  0  0  0  0  0  0
  -29.3904  -23.9772   20.5383 N   0  0  0  0  0  0  0  0  0  0  0  0
  -31.5754  -23.2368   19.9062 N   0  0  0  0  0  0  0  0  0  0  0  0
  -27.8691  -28.4509   20.3522 N   0  0  0  0  0  0  0  0  0  0  0  0
  -23.5561  -29.7904   20.3613 N   0  0  0  0  0  0  0  0  0  0  0  0
  -24.8117  -13.1936   21.7379 N   0  0  0  0  0  0  0  0  0  0  0  0
  -28.0271  -18.2418   24.4235 N   0  0  0  0  0  0  0  0  0  0  0  0
  -33.0738  -21.4289   18.3038 N   0  3  0  0  0  0  0  0  0  0  0  0
  -31.5511  -18.7113   25.0782 N   0  3  0  0  0  0  0  0  0  0  0  0
  -32.8695  -17.2465   16.7312 N   0  3  0  0  0  0  0  0  0  0  0  0
  -25.6929  -30.3968   19.7912 O   0  0  0  0  0  0  0  0  0  0  0  0
  -25.4330  -15.0580   20.4887 O   0  0  0  0  0  0  0  0  0  0  0  0
  -26.3535  -15.9163   24.4267 O   0  0  0  0  0  0  0  0  0  0  0  0
  -29.6931  -18.9620   22.9803 O   0  0  0  0  0  0  0  0  0  0  0  0
  -30.8055  -25.3295   19.3213 O   0  0  0  0  0  0  0  0  0  0  0  0
  -19.2003  -26.8567   22.2203 O   0  0  0  0  0  0  0  0  0  0  0  0
  -30.4252  -15.8133   16.9822 O   0  0  0  0  0  0  0  0  0  1  0  0
  -16.6971  -31.2244   24.4701 F   0  0  0  0  0  0  0  0  0  0  0  0
  -19.2429  -29.3189   20.9639 F   0  0  0  0  0  0  0  0  0  0  0  0
  1  2  1  0  0  0  0
  1  5  2  0  0  0  0
  2  6  2  0  0  0  0
  3  8  2  0  0  0  0
  3 15  1  0  0  0  0
  4  9  1  0  0  0  0
  4 15  2  0  0  0  0
  5 17  1  0  0  0  0
  6 19  1  0  0  0  0
  7 10  2  0  0  0  0
  7 18  1  0  0  0  0
  8 21  1  0  0  0  0
  9 21  2  0  0  0  0
 10 22  1  0  0  0  0
 11 12  2  0  0  0  0
 11 23  1  0  0  0  0
 12 24  1  0  0  0  0
 13 20  1  0  0  0  0
 13 22  2  0  0  0  0
 14 24  2  0  0  0  0
 14 25  1  0  0  0  0
 15 26  1  0  0  0  0
 16 26  1  0  0  0  0
 16 27  2  0  0  0  0
 16 28  1  0  0  0  0
 17 19  2  0  0  0  0
 17 33  1  0  0  0  0
 18 20  2  0  0  0  0
 18 34  1  0  0  0  0
 19 47  1  0  0  0  0
 20 35  1  0  0  0  0
 21 80  1  0  0  0  0
 22 81  1  0  0  0  0
 23 25  2  0  0  0  0
 23 80  1  0  0  0  0
 24 82  1  0  0  0  0
 25 83  1  0  0  0  0
 26 63  2  0  0  0  0
 27 64  1  0  0  0  0
 27 68  1  0  0  0  0
 28 69  1  0  0  0  0
 28 75  2  0  0  0  0
 29 48  1  0  0  0  0
 29 70  1  0  0  0  0
 29 76  2  0  0  0  0
 30 60  1  0  0  0  0
 30 65  1  0  0  0  0
 30 77  2  0  0  0  0
 31 61  1  0  0  0  0
 31 71  1  0  0  0  0
 31 78  2  0  0  0  0
 32 66  1  0  0  0  0
 32 67  1  0  0  0  0
 32 79  2  0  0  0  0
 33 36  1  0  0  0  0
 34 48  1  0  0  0  0
 35 65  1  0  0  0  0
 36 38  1  0  0  0  0
 37 39  1  0  0  0  0
 37 41  1  0  0  0  0
 38 47  1  0  0  0  0
 39 50  1  0  0  0  0
 40 49  1  0  0  0  0
 40 51  1  0  0  0  0
 41 66  1  0  0  0  0
 42 45  1  0  0  0  0
 42 67  1  0  0  0  0
 43 46  1  0  0  0  0
 43 67  1  0  0  0  0
 44 50  1  0  0  0  0
 44 66  1  0  0  0  0
 45 72  1  0  0  0  0
 46 72  1  0  0  0  0
 47 70  1  0  0  0  0
 48 65  1  0  0  0  0
 49 51  1  0  0  0  0
 49 57  1  0  0  0  0
 50 64  1  0  0  0  0
 51 72  1  0  0  0  0
 52 61  1  0  0  0  0
 53 62  1  0  0  0  0
 54 62  1  0  0  0  0
 55 62  1  0  0  0  0
 56 73  1  0  0  0  0
 57 74  1  0  0  0  0
 58 59  1  0  0  0  0
 58 74  1  0  0  0  0
 59 81  1  0  0  0  0
 60 62  1  0  0  0  0
 60 71  1  0  0  0  0
 61 73  1  0  0  0  0
 63 64  1  0  0  0  0
M  CHG  3  72   1  73   1  74   1
M  ISO  4  32 100  59 101  67 100  81 101
M  END
> <Batch ID>
0191

> <Smiles>
CNC(C)C(=O)NC(C(=O)N1Cc2cc([101O:1][101CH2:1]CNCC3CC3N3CC[100N:0]([100C:0](=O)N4CCCC(n5nc(-c6ccc(Oc7ccc(F)cc7F)cc6)c(C(N)=O)c5N)C4)CC3)ccc2CC1C(=O)NC1CCCc2ccccc21)C(C)(C)C

> <Shape>
0.218

> <Color>
0.065

> <Negative vol penalty>
0.000

$$$$

  -OEChem-04052323273D

 89 99  0     1  0  0  0  0  0999 V2000
  -29.5948  -32.4813   25.6583 C   0  0  0  0  0  0  0  0  0  0  0  0
  -29.4401  -31.1671   25.2291 C   0  0  0  0  0  0  0  0  0  0  0  0
  -24.2266  -14.5463   22.0321 C   0  0  0  0  0  0  0  0  0  0  0  0
  -25.1824  -12.3747   22.4876 C   0  0  0  0  0  0  0  0  0  0  0  0
  -28.5163  -33.3631   25.6030 C   0  0  0  0  0  0  0  0  0  0  0  0
  -28.2062  -30.7335   24.7453 C   0  0  0  0  0  0  0  0  0  0  0  0
  -28.6350  -27.9913   20.5096 C   0  0  0  0  0  0  0  0  0  0  0  0
  -24.9548  -14.6178   20.8446 C   0  0  0  0  0  0  0  0  0  0  0  0
  -25.9106  -12.4461   21.3001 C   0  0  0  0  0  0  0  0  0  0  0  0
  -29.0388  -26.6641   20.6484 C   0  0  0  0  0  0  0  0  0  0  0  0
  -28.7280  -13.9512   20.1921 C   0  0  0  0  0  0  0  0  0  0  0  0
  -30.0722  -13.5811   20.2329 C   0  0  0  0  0  0  0  0  0  0  0  0
  -26.7441  -25.9503   20.4378 C   0  0  0  0  0  0  0  0  0  0  0  0
  -29.6434  -11.8444   18.6090 C   0  0  0  0  0  0  0  0  0  0  0  0
  -28.7691  -21.3916   19.9068 C   0  0  0  0  0  0  0  0  0  0  0  0
  -24.3404  -13.4248   22.8537 C   0  0  0  0  0  0  0  0  0  0  0  0
  -22.2972  -12.8187   24.2558 C   0  0  0  0  0  0  0  0  0  0  0  0
  -27.2712  -32.9428   25.1092 C   0  0  0  0  0  0  0  0  0  0  0  0
  -27.2793  -28.3093   20.3444 C   0  0  0  0  0  0  0  0  0  0  0  0
  -27.1096  -31.6102   24.6846 C   0  0  0  0  0  0  0  0  0  0  0  0
  -26.3261  -27.2822   20.2945 C   0  0  0  0  0  0  0  0  0  0  0  0
  -25.7968  -13.5677   20.4786 C   0  0  0  0  0  0  0  0  0  0  0  0
  -28.0930  -25.6436   20.6155 C   0  0  0  0  0  0  0  0  0  0  0  0
  -27.8414  -13.2678   19.3598 C   0  0  0  0  0  0  0  0  0  0  0  0
  -30.5299  -12.5277   19.4414 C   0  0  0  0  0  0  0  0  0  0  0  0
  -28.2991  -12.2144   18.5682 C   0  0  0  0  0  0  0  0  0  0  0  0
  -23.5888  -13.3506   24.0808 C   0  0  0  0  0  0  0  0  0  0  0  0
  -29.1409  -19.5888   21.2637 C   0  0  0  0  0  0  0  0  0  0  0  0
  -28.0601  -22.0050   20.9160 C   0  0  0  0  0  0  0  0  0  0  0  0
  -28.4325  -20.2025   22.2733 C   0  0  0  0  0  0  0  0  0  0  0  0
  -22.0364  -12.9836   25.5941 C   0  0  0  0  0  0  0  0  0  0  0  0
  -21.4124  -12.2281   23.2945 C   0  0  0  0  0  0  0  0  0  0  0  0
  -25.1509  -29.9889   22.0036 C   0  0  0  0  0  0  0  0  0  0  0  0
  -23.2640  -29.4048   19.4304 C   0  0  0  0  0  0  0  0  0  0  0  0
  -22.5691  -27.4288   16.7362 C   0  0  0  0  0  0  0  0  0  0  0  0
  -24.1455  -16.7986   29.6917 C   0  0  0  0  0  0  0  0  0  0  0  0
  -26.1217  -33.9192   25.1129 C   0  0  0  0  0  0  0  0  0  0  0  0
  -26.8630  -29.7440   20.1692 C   0  0  0  0  0  0  0  0  0  0  0  0
  -24.8605  -27.5692   20.0990 C   0  0  0  0  0  0  0  0  0  0  0  0
  -24.9498  -33.4836   24.2370 C   0  0  0  0  0  0  0  0  0  0  0  0
  -24.1921  -13.2695   29.8361 C   0  0  0  0  0  0  0  0  0  0  0  0
  -24.6113  -32.0176   24.4885 C   0  0  0  0  0  0  0  0  0  0  0  0
  -31.1051  -18.1327   22.0976 C   0  0  0  0  0  0  0  0  0  0  0  0
  -30.9390  -17.8410   20.6390 C   0  0  0  0  0  0  0  0  0  0  0  0
  -23.9576  -12.8303   28.3934 C   0  0  0  0  0  0  0  0  0  0  0  0
  -24.3480  -20.3104   28.5409 C   0  0  0  0  0  0  0  0  0  0  0  0
  -25.0664  -14.5153   29.8868 C   0  0  0  0  0  0  0  0  0  0  0  0
  -23.9597  -19.2647   29.5746 C   0  0  0  0  0  0  0  0  0  0  0  0
  -25.0332  -18.1823   27.7210 C   0  0  0  0  0  0  0  0  0  0  0  0
  -24.2364  -15.2581   27.6712 C   0  0  0  0  0  0  0  0  0  0  0  0
  -25.7936  -31.1091   24.1302 C   0  0  1  0  0  0  0  0  0  0  0  0
  -29.7432  -18.2389   21.4636 C   0  0  0  0  0  0  0  0  0  0  0  0
  -25.3990  -29.9887   20.5216 C   0  0  1  0  0  0  0  0  0  0  0  0
  -25.5012  -19.6356   27.7973 C   0  0  1  0  0  0  0  0  0  0  0  0
  -23.3726  -13.9843   27.5645 C   0  0  1  0  0  0  0  0  0  0  0  0
  -20.9422  -27.1822   14.8415 C   0  0  0  0  0  0  0  0  0  0  0  0
  -21.1815  -28.2974   21.3661 C   0  0  0  0  0  0  0  0  0  0  0  0
  -20.0385  -27.2254   19.4135 C   0  0  0  0  0  0  0  0  0  0  0  0
  -20.2479  -29.7086   19.5246 C   0  0  0  0  0  0  0  0  0  0  0  0
  -24.7024  -27.7474   14.7097 C   0  0  0  0  0  0  0  0  0  0  0  0
  -28.2355  -19.5445   23.6071 C   0  0  0  0  0  0  0  0  0  0  0  0
  -27.4619  -23.3525   20.7080 C   0  0  0  0  0  0  0  0  0  1  0  0
  -25.7795  -20.2515   26.4378 C   0  0  0  0  0  0  0  0  0  0  0  0
  -26.9058  -19.5220   25.7214 C   0  0  0  0  0  0  0  0  0  0  0  0
  -22.2988  -28.3123   19.0385 C   0  0  1  0  0  0  0  0  0  0  0  0
  -22.2723  -27.7695   15.2869 C   0  0  2  0  0  0  0  0  0  0  0  0
  -20.9690  -28.3803   19.8413 C   0  0  0  0  0  0  0  0  0  0  0  0
  -29.3222  -20.1724   20.0625 N   0  0  0  0  0  0  0  0  0  0  0  0
  -24.1120  -13.8187   25.2171 N   0  0  0  0  0  0  0  0  0  0  0  0
  -27.8791  -21.4215   22.1174 N   0  0  0  0  0  0  0  0  0  0  0  0
  -23.1443  -13.5814   26.1189 N   0  0  0  0  0  0  0  0  0  0  0  0
  -24.5025  -28.9882   19.9388 N   0  0  0  0  0  0  0  0  0  0  0  0
  -24.5154  -15.5998   29.0720 N   0  0  0  0  0  0  0  0  0  0  0  0
  -24.2837  -17.9794   28.9634 N   0  0  0  0  0  0  0  0  0  0  0  0
  -20.9697  -12.6743   26.3615 N   0  0  0  0  0  0  0  0  0  0  0  0
  -21.8381  -12.1368   21.9622 N   0  0  0  0  0  0  0  0  0  0  0  0
  -25.8812  -30.9357   22.6961 N   0  0  0  0  0  0  0  0  0  0  0  0
  -22.1301  -28.4158   17.5931 N   0  0  0  0  0  0  0  0  0  0  0  0
  -23.3432  -27.2344   14.3993 N   0  3  0  0  0  0  0  0  0  0  0  0
  -27.1683  -20.1870   24.4225 N   0  3  0  0  0  0  0  0  0  0  0  0
  -20.2714  -11.8091   23.6045 O   0  0  0  0  0  0  0  0  0  0  0  0
  -24.3547  -29.1902   22.4830 O   0  0  0  0  0  0  0  0  0  0  0  0
  -22.9341  -30.5844   19.2841 O   0  0  0  0  0  0  0  0  0  0  0  0
  -23.1306  -26.3892   17.0745 O   0  0  0  0  0  0  0  0  0  0  0  0
  -23.7475  -16.8199   30.8643 O   0  0  0  0  0  0  0  0  0  0  0  0
  -26.5073  -13.6370   19.3198 O   0  0  0  0  0  0  0  0  0  0  0  0
  -28.4869  -24.3388   20.7523 O   0  0  0  0  0  0  0  0  0  1  0  0
  -31.8211  -12.1734   19.4795 F   0  0  0  0  0  0  0  0  0  0  0  0
  -27.4524  -11.5550   17.7658 F   0  0  0  0  0  0  0  0  0  0  0  0
  1  2  1  0  0  0  0
  1  5  2  0  0  0  0
  2  6  2  0  0  0  0
  3  8  2  0  0  0  0
  3 16  1  0  0  0  0
  4  9  1  0  0  0  0
  4 16  2  0  0  0  0
  5 18  1  0  0  0  0
  6 20  1  0  0  0  0
  7 10  2  0  0  0  0
  7 19  1  0  0  0  0
  8 22  1  0  0  0  0
  9 22  2  0  0  0  0
 10 23  1  0  0  0  0
 11 12  2  0  0  0  0
 11 24  1  0  0  0  0
 12 25  1  0  0  0  0
 13 21  1  0  0  0  0
 13 23  2  0  0  0  0
 14 25  2  0  0  0  0
 14 26  1  0  0  0  0
 15 29  1  0  0  0  0
 15 68  2  0  0  0  0
 16 27  1  0  0  0  0
 17 27  1  0  0  0  0
 17 31  2  0  0  0  0
 17 32  1  0  0  0  0
 18 20  2  0  0  0  0
 18 37  1  0  0  0  0
 19 21  2  0  0  0  0
 19 38  1  0  0  0  0
 20 51  1  0  0  0  0
 21 39  1  0  0  0  0
 22 86  1  0  0  0  0
 23 87  1  0  0  0  0
 24 26  2  0  0  0  0
 24 86  1  0  0  0  0
 25 88  1  0  0  0  0
 26 89  1  0  0  0  0
 27 69  2  0  0  0  0
 28 30  2  0  0  0  0
 28 52  1  0  0  0  0
 28 68  1  0  0  0  0
 29 62  1  0  0  0  0
 29 70  2  0  0  0  0
 30 61  1  0  0  0  0
 30 70  1  0  0  0  0
 31 71  1  0  0  0  0
 31 75  1  0  0  0  0
 32 76  1  0  0  0  0
 32 81  2  0  0  0  0
 33 53  1  0  0  0  0
 33 77  1  0  0  0  0
 33 82  2  0  0  0  0
 34 65  1  0  0  0  0
 34 72  1  0  0  0  0
 34 83  2  0  0  0  0
 35 66  1  0  0  0  0
 35 78  1  0  0  0  0
 35 84  2  0  0  0  0
 36 73  1  0  0  0  0
 36 74  1  0  0  0  0
 36 85  2  0  0  0  0
 37 40  1  0  0  0  0
 38 53  1  0  0  0  0
 39 72  1  0  0  0  0
 40 42  1  0  0  0  0
 41 45  1  0  0  0  0
 41 47  1  0  0  0  0
 42 51  1  0  0  0  0
 43 44  1  0  0  0  0
 43 52  1  0  0  0  0
 44 52  1  0  0  0  0
 45 55  1  0  0  0  0
 46 48  1  0  0  0  0
 46 54  1  0  0  0  0
 47 73  1  0  0  0  0
 48 74  1  0  0  0  0
 49 54  1  0  0  0  0
 49 74  1  0  0  0  0
 50 55  1  0  0  0  0
 50 73  1  0  0  0  0
 51 77  1  0  0  0  0
 53 72  1  0  0  0  0
 54 63  1  0  0  0  0
 55 71  1  0  0  0  0
 56 66  1  0  0  0  0
 57 67  1  0  0  0  0
 58 67  1  0  0  0  0
 59 67  1  0  0  0  0
 60 79  1  0  0  0  0
 61 80  1  0  0  0  0
 62 87  1  0  0  0  0
 63 64  1  0  0  0  0
 64 80  1  0  0  0  0
 65 67  1  0  0  0  0
 65 78  1  0  0  0  0
 66 79  1  0  0  0  0
 69 71  1  0  0  0  0
M  CHG  2  79   1  80   1
M  ISO  4  36 100  62 101  74 100  87 101
M  END
> <Batch ID>
0191

> <Smiles>
CNC(C)C(=O)NC(C(=O)N1Cc2cc([101O:1][101CH2:1]c3cnc(C4CC4)c(CNCCC4CC[100N:0]([100C:0](=O)N5CCCC(n6nc(-c7ccc(Oc8ccc(F)cc8F)cc7)c(C(N)=O)c6N)C5)C4)n3)ccc2CC1C(=O)NC1CCCc2ccccc21)C(C)(C)C

> <Shape>
0.262

> <Color>
0.068

> <Negative vol penalty>
0.000

$$$$

  -OEChem-04052323273D

 90101  0     1  0  0  0  0  0999 V2000
  -25.5663  -11.8588   20.5740 C   0  0  0  0  0  0  0  0  0  0  0  0
  -26.2921  -12.9104   20.0238 C   0  0  0  0  0  0  0  0  0  0  0  0
  -18.9238  -24.9670   25.4887 C   0  0  0  0  0  0  0  0  0  0  0  0
  -17.6908  -24.0698   23.6147 C   0  0  0  0  0  0  0  0  0  0  0  0
  -24.3449  -12.1079   21.1986 C   0  0  0  0  0  0  0  0  0  0  0  0
  -25.7963  -14.2117   20.0970 C   0  0  0  0  0  0  0  0  0  0  0  0
  -29.0496  -19.3597   20.7450 C   0  0  0  0  0  0  0  0  0  0  0  0
  -18.5788  -23.8505   26.2502 C   0  0  0  0  0  0  0  0  0  0  0  0
  -17.3459  -22.9532   24.3762 C   0  0  0  0  0  0  0  0  0  0  0  0
  -29.4875  -20.3143   19.8280 C   0  0  0  0  0  0  0  0  0  0  0  0
  -15.1118  -22.1795   26.7930 C   0  0  0  0  0  0  0  0  0  0  0  0
  -13.7861  -21.7483   26.7473 C   0  0  0  0  0  0  0  0  0  0  0  0
  -27.5659  -21.6795   20.3408 C   0  0  0  0  0  0  0  0  0  0  0  0
  -29.6627  -29.3939   20.9751 C   0  0  0  0  0  0  0  0  0  0  0  0
  -14.5119  -19.6070   25.8958 C   0  0  0  0  0  0  0  0  0  0  0  0
  -27.2658  -28.1620   20.5477 C   0  0  0  0  0  0  0  0  0  0  0  0
  -18.4797  -25.0767   24.1709 C   0  0  0  0  0  0  0  0  0  0  0  0
  -18.5307  -27.5760   23.6625 C   0  0  0  0  0  0  0  0  0  0  0  0
  -23.8385  -13.4141   21.2879 C   0  0  0  0  0  0  0  0  0  0  0  0
  -27.8589  -19.5532   21.4600 C   0  0  0  0  0  0  0  0  0  0  0  0
  -24.5664  -14.4783   20.7222 C   0  0  0  0  0  0  0  0  0  0  0  0
  -27.1165  -20.7271   21.2681 C   0  0  0  0  0  0  0  0  0  0  0  0
  -28.4847  -30.0841   21.2379 C   0  0  0  0  0  0  0  0  0  0  0  0
  -27.2591  -29.4635   21.0228 C   0  0  0  0  0  0  0  0  0  0  0  0
  -17.7899  -22.8436   25.6940 C   0  0  0  0  0  0  0  0  0  0  0  0
  -28.7441  -21.4730   19.6237 C   0  0  0  0  0  0  0  0  0  0  0  0
  -16.1376  -21.3245   26.3901 C   0  0  0  0  0  0  0  0  0  0  0  0
  -13.4861  -20.4620   26.2988 C   0  0  0  0  0  0  0  0  0  0  0  0
  -15.8377  -20.0382   25.9415 C   0  0  0  0  0  0  0  0  0  0  0  0
  -18.8352  -26.2301   23.3839 C   0  0  0  0  0  0  0  0  0  0  0  0
  -29.5618  -28.0954   20.5023 C   0  0  0  0  0  0  0  0  0  0  0  0
  -19.0861  -28.2766   22.6199 C   0  0  0  0  0  0  0  0  0  0  0  0
  -17.8102  -28.1423   24.7652 C   0  0  0  0  0  0  0  0  0  0  0  0
  -25.0828  -18.0169   21.6519 C   0  0  0  0  0  0  0  0  0  0  0  0
  -24.4927  -20.1795   23.9965 C   0  0  0  0  0  0  0  0  0  0  0  0
  -25.1679  -23.2365   25.3552 C   0  0  0  0  0  0  0  0  0  0  0  0
  -23.4853  -29.1305   19.1938 C   0  0  0  0  0  0  0  0  0  0  0  0
  -22.4911  -13.6279   21.9310 C   0  0  0  0  0  0  0  0  0  0  0  0
  -27.4141  -18.5263   22.4651 C   0  0  0  0  0  0  0  0  0  0  0  0
  -25.8418  -20.9919   22.0254 C   0  0  0  0  0  0  0  0  0  0  0  0
  -22.2149  -15.0841   22.2964 C   0  0  0  0  0  0  0  0  0  0  0  0
  -21.0069  -26.7145   18.2346 C   0  0  0  0  0  0  0  0  0  0  0  0
  -27.8316  -32.5721   20.9987 C   0  0  0  0  0  0  0  0  0  0  0  0
  -29.3267  -32.5118   20.9633 C   0  0  0  0  0  0  0  0  0  0  0  0
  -22.5798  -16.0042   21.1358 C   0  0  0  0  0  0  0  0  0  0  0  0
  -32.0689  -27.8895   19.5198 C   0  0  0  0  0  0  0  0  0  0  0  0
  -20.2307  -26.4405   19.5187 C   0  0  0  0  0  0  0  0  0  0  0  0
  -32.3192  -26.5802   18.7475 C   0  0  0  0  0  0  0  0  0  0  0  0
  -22.4768  -26.9772   18.5332 C   0  0  0  0  0  0  0  0  0  0  0  0
  -25.1145  -30.8554   20.1253 C   0  0  0  0  0  0  0  0  0  0  0  0
  -24.6019  -29.3569   21.5458 C   0  0  0  0  0  0  0  0  0  0  0  0
  -21.9117  -27.8845   20.7718 C   0  0  0  0  0  0  0  0  0  0  0  0
  -28.5546  -31.4840   21.7480 C   0  0  0  0  0  0  0  0  0  0  0  0
  -25.8744  -30.2077   21.3071 C   0  0  0  0  0  0  0  0  0  0  0  0
  -24.0737  -15.9069   20.8033 C   0  0  1  0  0  0  0  0  0  0  0  0
  -30.8269  -27.1987   20.1636 C   0  0  2  0  0  0  0  0  0  0  0  0
  -25.9189  -18.5889   22.7615 C   0  0  1  0  0  0  0  0  0  0  0  0
  -20.4196  -27.5920   20.5168 C   0  0  2  0  0  0  0  0  0  0  0  0
  -30.8078  -26.3011   18.8857 C   0  0  2  0  0  0  0  0  0  0  0  0
  -24.5003  -24.7413   27.2492 C   0  0  0  0  0  0  0  0  0  0  0  0
  -21.9160  -20.8868   22.5232 C   0  0  0  0  0  0  0  0  0  0  0  0
  -21.7911  -22.9804   23.8904 C   0  0  0  0  0  0  0  0  0  0  0  0
  -21.6926  -20.7537   25.0105 C   0  0  0  0  0  0  0  0  0  0  0  0
  -27.9050  -23.2267   26.4808 C   0  0  0  0  0  0  0  0  0  0  0  0
  -30.9199  -23.9339   18.0961 C   0  0  0  0  0  0  0  0  0  0  0  0
  -30.5759  -22.5221   18.5281 C   0  0  0  0  0  0  0  0  0  1  0  0
  -23.8868  -21.5613   24.0487 C   0  0  1  0  0  0  0  0  0  0  0  0
  -25.4639  -23.6614   26.7822 C   0  0  2  0  0  0  0  0  0  0  0  0
  -22.3446  -21.5399   23.8524 C   0  0  0  0  0  0  0  0  0  0  0  0
  -28.3895  -27.4594   20.2810 N   0  0  0  0  0  0  0  0  0  0  0  0
  -19.5301  -26.0821   22.2529 N   0  0  0  0  0  0  0  0  0  0  0  0
  -19.6667  -27.3441   21.8115 N   0  0  0  0  0  0  0  0  0  0  0  0
  -25.4452  -19.9551   22.9925 N   0  0  0  0  0  0  0  0  0  0  0  0
  -22.6561  -28.0503   19.5156 N   0  0  0  0  0  0  0  0  0  0  0  0
  -24.1757  -29.7456   20.2133 N   0  0  0  0  0  0  0  0  0  0  0  0
  -19.1296  -29.5932   22.3248 N   0  0  0  0  0  0  0  0  0  0  0  0
  -17.3071  -27.2794   25.7484 N   0  0  0  0  0  0  0  0  0  0  0  0
  -24.8549  -16.6585   21.7621 N   0  0  0  0  0  0  0  0  0  0  0  0
  -24.3204  -22.1497   25.3113 N   0  0  0  0  0  0  0  0  0  0  0  0
  -30.5044  -24.8922   19.1656 N   0  3  0  0  0  0  0  0  0  0  0  0
  -26.8522  -24.1930   26.8869 N   0  3  0  0  0  0  0  0  0  0  0  0
  -17.6040  -29.3754   24.8668 O   0  0  0  0  0  0  0  0  0  0  0  0
  -24.6734  -18.7538   20.7624 O   0  0  0  0  0  0  0  0  0  0  0  0
  -24.1392  -19.3327   24.8209 O   0  0  0  0  0  0  0  0  0  0  0  0
  -25.6383  -23.8134   24.3772 O   0  0  0  0  0  0  0  0  0  0  0  0
  -23.6313  -29.5166   18.0265 O   0  0  0  0  0  0  0  0  0  0  0  0
  -17.4534  -21.7538   26.4368 O   0  0  0  0  0  0  0  0  0  0  0  0
  -29.1720  -22.4128   18.7223 O   0  0  0  0  0  0  0  0  0  1  0  0
  -12.2131  -20.0475   26.2564 F   0  0  0  0  0  0  0  0  0  0  0  0
  -16.8190  -19.2119   25.5542 F   0  0  0  0  0  0  0  0  0  0  0  0
  1  2  1  0  0  0  0
  1  5  2  0  0  0  0
  2  6  2  0  0  0  0
  3  8  2  0  0  0  0
  3 17  1  0  0  0  0
  4  9  1  0  0  0  0
  4 17  2  0  0  0  0
  5 19  1  0  0  0  0
  6 21  1  0  0  0  0
  7 10  2  0  0  0  0
  7 20  1  0  0  0  0
  8 25  1  0  0  0  0
  9 25  2  0  0  0  0
 10 26  1  0  0  0  0
 11 12  2  0  0  0  0
 11 27  1  0  0  0  0
 12 28  1  0  0  0  0
 13 22  1  0  0  0  0
 13 26  2  0  0  0  0
 14 23  2  0  0  0  0
 14 31  1  0  0  0  0
 15 28  2  0  0  0  0
 15 29  1  0  0  0  0
 16 24  2  0  0  0  0
 16 70  1  0  0  0  0
 17 30  1  0  0  0  0
 18 30  1  0  0  0  0
 18 32  2  0  0  0  0
 18 33  1  0  0  0  0
 19 21  2  0  0  0  0
 19 38  1  0  0  0  0
 20 22  2  0  0  0  0
 20 39  1  0  0  0  0
 21 55  1  0  0  0  0
 22 40  1  0  0  0  0
 23 24  1  0  0  0  0
 23 53  1  0  0  0  0
 24 54  1  0  0  0  0
 25 87  1  0  0  0  0
 26 88  1  0  0  0  0
 27 29  2  0  0  0  0
 27 87  1  0  0  0  0
 28 89  1  0  0  0  0
 29 90  1  0  0  0  0
 30 71  2  0  0  0  0
 31 56  1  0  0  0  0
 31 70  2  0  0  0  0
 32 72  1  0  0  0  0
 32 76  1  0  0  0  0
 33 77  1  0  0  0  0
 33 82  2  0  0  0  0
 34 57  1  0  0  0  0
 34 78  1  0  0  0  0
 34 83  2  0  0  0  0
 35 67  1  0  0  0  0
 35 73  1  0  0  0  0
 35 84  2  0  0  0  0
 36 68  1  0  0  0  0
 36 79  1  0  0  0  0
 36 85  2  0  0  0  0
 37 74  1  0  0  0  0
 37 75  1  0  0  0  0
 37 86  2  0  0  0  0
 38 41  1  0  0  0  0
 39 57  1  0  0  0  0
 40 73  1  0  0  0  0
 41 45  1  0  0  0  0
 42 47  1  0  0  0  0
 42 49  1  0  0  0  0
 43 44  1  0  0  0  0
 43 53  1  0  0  0  0
 44 53  1  0  0  0  0
 45 55  1  0  0  0  0
 46 48  1  0  0  0  0
 46 56  1  0  0  0  0
 47 58  1  0  0  0  0
 48 59  1  0  0  0  0
 49 74  1  0  0  0  0
 50 54  1  0  0  0  0
 50 75  1  0  0  0  0
 51 54  1  0  0  0  0
 51 75  1  0  0  0  0
 52 58  1  0  0  0  0
 52 74  1  0  0  0  0
 55 78  1  0  0  0  0
 56 59  1  0  0  0  0
 57 73  1  0  0  0  0
 58 72  1  0  0  0  0
 59 80  1  0  0  0  0
 60 68  1  0  0  0  0
 61 69  1  0  0  0  0
 62 69  1  0  0  0  0
 63 69  1  0  0  0  0
 64 81  1  0  0  0  0
 65 66  1  0  0  0  0
 65 80  1  0  0  0  0
 66 88  1  0  0  0  0
 67 69  1  0  0  0  0
 67 79  1  0  0  0  0
 68 81  1  0  0  0  0
 71 72  1  0  0  0  0
M  CHG  2  80   1  81   1
M  ISO  4  37 100  66 101  75 100  88 101
M  END
> <Batch ID>
0191

> <Smiles>
CNC(C)C(=O)NC(C(=O)N1Cc2cc([101O:1][101CH2:1]CNC3CCC3c3cc(C4CC4)c(C4C[100N:0]([100C:0](=O)N5CCCC(n6nc(-c7ccc(Oc8ccc(F)cc8F)cc7)c(C(N)=O)c6N)C5)C4)cn3)ccc2CC1C(=O)NC1CCCc2ccccc21)C(C)(C)C

> <Shape>
0.211

> <Color>
0.066

> <Negative vol penalty>
0.000

$$$$

  -OEChem-04052323273D

 86 95  0     1  0  0  0  0  0999 V2000
  -21.8466  -10.8663   19.5135 C   0  0  0  0  0  0  0  0  0  0  0  0
  -21.5361  -12.0988   20.0790 C   0  0  0  0  0  0  0  0  0  0  0  0
  -24.1016  -32.8590   21.3157 C   0  0  0  0  0  0  0  0  0  0  0  0
  -24.9215  -32.2226   23.4974 C   0  0  0  0  0  0  0  0  0  0  0  0
  -23.1696  -10.4271   19.4850 C   0  0  0  0  0  0  0  0  0  0  0  0
  -22.5483  -12.8925   20.6175 C   0  0  0  0  0  0  0  0  0  0  0  0
  -22.8494  -19.0091   20.5698 C   0  0  0  0  0  0  0  0  0  0  0  0
  -24.8783  -34.0167   21.3615 C   0  0  0  0  0  0  0  0  0  0  0  0
  -25.6983  -33.3803   23.5432 C   0  0  0  0  0  0  0  0  0  0  0  0
  -22.5320  -19.9713   21.5275 C   0  0  0  0  0  0  0  0  0  0  0  0
  -27.6213  -36.3455   24.3915 C   0  0  0  0  0  0  0  0  0  0  0  0
  -27.6182  -37.0819   25.5760 C   0  0  0  0  0  0  0  0  0  0  0  0
  -24.8440  -20.0442   22.2119 C   0  0  0  0  0  0  0  0  0  0  0  0
  -22.2490  -25.0315   25.3145 C   0  0  0  0  0  0  0  0  0  0  0  0
  -25.2328  -37.4049   25.3689 C   0  0  0  0  0  0  0  0  0  0  0  0
  -24.1232  -31.9620   22.3838 C   0  0  0  0  0  0  0  0  0  0  0  0
  -23.6975  -29.5086   21.8291 C   0  0  0  0  0  0  0  0  0  0  0  0
  -24.1998  -11.2201   20.0147 C   0  0  0  0  0  0  0  0  0  0  0  0
  -24.1668  -18.5484   20.4331 C   0  0  0  0  0  0  0  0  0  0  0  0
  -23.8862  -12.4629   20.5972 C   0  0  0  0  0  0  0  0  0  0  0  0
  -25.1760  -19.0779   21.2500 C   0  0  0  0  0  0  0  0  0  0  0  0
  -22.4178  -24.0837   24.3113 C   0  0  0  0  0  0  0  0  0  0  0  0
  -21.3978  -24.7632   26.3807 C   0  0  0  0  0  0  0  0  0  0  0  0
  -25.6766  -34.2773   22.4752 C   0  0  0  0  0  0  0  0  0  0  0  0
  -23.5288  -20.4869   22.3506 C   0  0  0  0  0  0  0  0  0  0  0  0
  -26.4302  -36.1388   23.6955 C   0  0  0  0  0  0  0  0  0  0  0  0
  -26.4240  -37.6116   26.0648 C   0  0  0  0  0  0  0  0  0  0  0  0
  -25.2360  -36.6685   24.1843 C   0  0  0  0  0  0  0  0  0  0  0  0
  -23.3206  -30.7662   22.3373 C   0  0  0  0  0  0  0  0  0  0  0  0
  -21.7182  -22.8927   24.4200 C   0  0  0  0  0  0  0  0  0  0  0  0
  -20.7437  -23.5418   26.3967 C   0  0  0  0  0  0  0  0  0  0  0  0
  -22.5905  -28.7173   22.0153 C   0  0  0  0  0  0  0  0  0  0  0  0
  -24.9375  -29.0930   21.2414 C   0  0  0  0  0  0  0  0  0  0  0  0
  -25.6028  -15.7311   20.7555 C   0  0  0  0  0  0  0  0  0  0  0  0
  -28.1748  -17.3503   19.6218 C   0  0  0  0  0  0  0  0  0  0  0  0
  -29.7533  -20.3452   19.1907 C   0  0  0  0  0  0  0  0  0  0  0  0
  -18.0204  -29.2983   25.9685 C   0  0  0  0  0  0  0  0  0  0  0  0
  -25.6087  -10.6821   20.0035 C   0  0  0  0  0  0  0  0  0  0  0  0
  -24.4977  -17.5296   19.3772 C   0  0  0  0  0  0  0  0  0  0  0  0
  -26.6095  -18.6316   21.1296 C   0  0  0  0  0  0  0  0  0  0  0  0
  -26.6702  -11.7492   20.2585 C   0  0  0  0  0  0  0  0  0  0  0  0
  -17.8174  -28.9518   22.3275 C   0  0  0  0  0  0  0  0  0  0  0  0
  -26.2742  -12.6235   21.4441 C   0  0  0  0  0  0  0  0  0  0  0  0
  -19.2330  -29.3109   21.8723 C   0  0  0  0  0  0  0  0  0  0  0  0
  -17.4219  -29.6896   23.6050 C   0  0  0  0  0  0  0  0  0  0  0  0
  -19.7871  -29.9095   24.2575 C   0  0  0  0  0  0  0  0  0  0  0  0
  -18.4205  -28.1808   28.1402 C   0  0  0  0  0  0  0  0  0  0  0  0
  -19.8654  -27.5783   26.3356 C   0  0  0  0  0  0  0  0  0  0  0  0
  -24.9595  -13.3634   21.1692 C   0  0  1  0  0  0  0  0  0  0  0  0
  -25.7799  -16.7576   19.6727 C   0  0  1  0  0  0  0  0  0  0  0  0
  -20.2477  -29.1316   23.0173 C   0  0  2  0  0  0  0  0  0  0  0  0
  -19.4479  -27.1824   28.6560 C   0  0  1  0  0  0  0  0  0  0  0  0
  -23.3284  -24.3650   23.1665 C   0  0  0  0  0  0  0  0  0  0  0  0
  -19.8184  -23.1996   27.5182 C   0  0  0  0  0  0  0  0  0  0  0  0
  -18.8710  -26.1782   29.6364 C   0  0  0  0  0  0  0  0  0  0  0  0
  -31.8595  -21.3464   18.2640 C   0  0  0  0  0  0  0  0  0  0  0  0
  -29.7157  -16.3622   22.0630 C   0  0  0  0  0  0  0  0  0  0  0  0
  -31.4422  -18.1141   21.5956 C   0  0  0  0  0  0  0  0  0  0  0  0
  -31.0094  -16.3145   19.9232 C   0  0  0  0  0  0  0  0  0  0  0  0
  -28.2532  -21.9705   17.2243 C   0  0  0  0  0  0  0  0  0  0  0  0
  -21.2110  -25.7818   27.4663 C   0  0  0  0  0  0  0  0  0  0  0  0
  -21.8591  -21.8378   23.3720 C   0  0  0  0  0  0  0  0  0  1  0  0
  -29.2965  -18.1462   20.2443 C   0  0  1  0  0  0  0  0  0  0  0  0
  -30.4148  -20.9694   17.9753 C   0  0  2  0  0  0  0  0  0  0  0  0
  -30.3387  -17.2414   20.9603 C   0  0  0  0  0  0  0  0  0  0  0  0
  -22.0717  -30.7778   22.8106 N   0  0  0  0  0  0  0  0  0  0  0  0
  -20.8825  -22.5962   25.4405 N   0  0  0  0  0  0  0  0  0  0  0  0
  -21.6542  -29.5178   22.6005 N   0  0  0  0  0  0  0  0  0  0  0  0
  -26.8816  -17.6289   20.0865 N   0  0  0  0  0  0  0  0  0  0  0  0
  -18.4318  -29.5068   24.6476 N   0  0  0  0  0  0  0  0  0  0  0  0
  -18.8176  -28.4840   26.7728 N   0  0  0  0  0  0  0  0  0  0  0  0
  -22.3364  -27.4217   21.7337 N   0  0  0  0  0  0  0  0  0  0  0  0
  -25.9707  -30.0330   21.1265 N   0  0  0  0  0  0  0  0  0  0  0  0
  -25.1893  -14.4950   20.2967 N   0  0  0  0  0  0  0  0  0  0  0  0
  -29.8536  -18.9700   19.1769 N   0  0  0  0  0  0  0  0  0  0  0  0
  -19.8991  -26.4935   27.3822 N   0  3  2  0  0  0  0  0  0  0  0  0
  -29.6819  -22.1992   17.5611 N   0  3  0  0  0  0  0  0  0  0  0  0
  -25.1181  -27.9270   20.8154 O   0  0  0  0  0  0  0  0  0  0  0  0
  -25.8263  -16.0373   21.9209 O   0  0  0  0  0  0  0  0  0  0  0  0
  -28.4356  -16.5173   18.7502 O   0  0  0  0  0  0  0  0  0  0  0  0
  -29.2058  -21.0111   20.0667 O   0  0  0  0  0  0  0  0  0  0  0  0
  -16.9629  -29.7790   26.3970 O   0  0  0  0  0  0  0  0  0  0  0  0
  -26.4348  -35.4068   22.5200 O   0  0  0  0  0  0  0  0  0  0  0  0
  -23.2194  -21.4324   23.2933 O   0  0  0  0  0  0  0  0  0  1  0  0
  -26.4208  -38.3175   27.2031 F   0  0  0  0  0  0  0  0  0  0  0  0
  -24.0884  -36.4723   23.5207 F   0  0  0  0  0  0  0  0  0  0  0  0
  1  2  1  0  0  0  0
  1  5  2  0  0  0  0
  2  6  2  0  0  0  0
  3  8  2  0  0  0  0
  3 16  1  0  0  0  0
  4  9  1  0  0  0  0
  4 16  2  0  0  0  0
  5 18  1  0  0  0  0
  6 20  1  0  0  0  0
  7 10  2  0  0  0  0
  7 19  1  0  0  0  0
  8 24  1  0  0  0  0
  9 24  2  0  0  0  0
 10 25  1  0  0  0  0
 11 12  2  0  0  0  0
 11 26  1  0  0  0  0
 12 27  1  0  0  0  0
 13 21  1  0  0  0  0
 13 25  2  0  0  0  0
 14 22  1  0  0  0  0
 14 23  2  0  0  0  0
 15 27  2  0  0  0  0
 15 28  1  0  0  0  0
 16 29  1  0  0  0  0
 17 29  1  0  0  0  0
 17 32  2  0  0  0  0
 17 33  1  0  0  0  0
 18 20  2  0  0  0  0
 18 38  1  0  0  0  0
 19 21  2  0  0  0  0
 19 39  1  0  0  0  0
 20 49  1  0  0  0  0
 21 40  1  0  0  0  0
 22 30  2  0  0  0  0
 22 53  1  0  0  0  0
 23 31  1  0  0  0  0
 23 61  1  0  0  0  0
 24 83  1  0  0  0  0
 25 84  1  0  0  0  0
 26 28  2  0  0  0  0
 26 83  1  0  0  0  0
 27 85  1  0  0  0  0
 28 86  1  0  0  0  0
 29 66  2  0  0  0  0
 30 62  1  0  0  0  0
 30 67  1  0  0  0  0
 31 54  1  0  0  0  0
 31 67  2  0  0  0  0
 32 68  1  0  0  0  0
 32 72  1  0  0  0  0
 33 73  1  0  0  0  0
 33 78  2  0  0  0  0
 34 50  1  0  0  0  0
 34 74  1  0  0  0  0
 34 79  2  0  0  0  0
 35 63  1  0  0  0  0
 35 69  1  0  0  0  0
 35 80  2  0  0  0  0
 36 64  1  0  0  0  0
 36 75  1  0  0  0  0
 36 81  2  0  0  0  0
 37 70  1  0  0  0  0
 37 71  1  0  0  0  0
 37 82  2  0  0  0  0
 38 41  1  0  0  0  0
 39 50  1  0  0  0  0
 40 69  1  0  0  0  0
 41 43  1  0  0  0  0
 42 44  1  0  0  0  0
 42 45  1  0  0  0  0
 43 49  1  0  0  0  0
 44 51  1  0  0  0  0
 45 70  1  0  0  0  0
 46 51  1  0  0  0  0
 46 70  1  0  0  0  0
 47 52  1  0  0  0  0
 47 71  1  0  0  0  0
 48 71  1  0  0  0  0
 48 76  1  0  0  0  0
 49 74  1  0  0  0  0
 50 69  1  0  0  0  0
 51 68  1  0  0  0  0
 52 55  1  0  0  0  0
 52 76  1  0  0  0  0
 56 64  1  0  0  0  0
 57 65  1  0  0  0  0
 58 65  1  0  0  0  0
 59 65  1  0  0  0  0
 60 77  1  0  0  0  0
 61 76  1  0  0  0  0
 62 84  1  0  0  0  0
 63 65  1  0  0  0  0
 63 75  1  0  0  0  0
 64 77  1  0  0  0  0
 66 68  1  0  0  0  0
M  CHG  2  76   1  77   1
M  ISO  4  37 100  62 101  71 100  84 101
M  END
> <Batch ID>
0191

> <Smiles>
CNC(C)C(=O)NC(C(=O)N1Cc2cc([101O:1][101CH2:1]c3nc(C)c(CN4C[100N:0]([100C:0](=O)N5CCCC(n6nc(-c7ccc(Oc8ccc(F)cc8F)cc7)c(C(N)=O)c6N)C5)CC4C)cc3C)ccc2CC1C(=O)NC1CCCc2ccccc21)C(C)(C)C

> <Shape>
0.255

> <Color>
0.059

> <Negative vol penalty>
0.000

$$$$

  -OEChem-04052323273D

 83 92  0     1  0  0  0  0  0999 V2000
  -29.3632  -35.5095   24.0442 C   0  0  0  0  0  0  0  0  0  0  0  0
  -29.4325  -34.1801   23.6402 C   0  0  0  0  0  0  0  0  0  0  0  0
  -23.9013   -9.2731   20.4662 C   0  0  0  0  0  0  0  0  0  0  0  0
  -23.1688   -9.6904   22.7303 C   0  0  0  0  0  0  0  0  0  0  0  0
  -28.2273  -35.9785   24.7028 C   0  0  0  0  0  0  0  0  0  0  0  0
  -28.3662  -33.3185   23.8956 C   0  0  0  0  0  0  0  0  0  0  0  0
  -27.1900  -30.4443   19.8955 C   0  0  0  0  0  0  0  0  0  0  0  0
  -23.9598   -7.9061   20.7371 C   0  0  0  0  0  0  0  0  0  0  0  0
  -23.2272   -8.3234   23.0012 C   0  0  0  0  0  0  0  0  0  0  0  0
  -28.0077  -29.3447   19.6391 C   0  0  0  0  0  0  0  0  0  0  0  0
  -22.8367   -4.9076   24.1838 C   0  0  0  0  0  0  0  0  0  0  0  0
  -21.7687   -4.3366   24.8759 C   0  0  0  0  0  0  0  0  0  0  0  0
  -26.3845  -27.9007   20.6875 C   0  0  0  0  0  0  0  0  0  0  0  0
  -20.2634   -5.0133   23.1114 C   0  0  0  0  0  0  0  0  0  0  0  0
  -23.5058  -10.1653   21.4629 C   0  0  0  0  0  0  0  0  0  0  0  0
  -22.3421  -12.3011   20.6936 C   0  0  0  0  0  0  0  0  0  0  0  0
  -27.1426  -35.1246   24.9578 C   0  0  0  0  0  0  0  0  0  0  0  0
  -25.9662  -30.2816   20.5607 C   0  0  0  0  0  0  0  0  0  0  0  0
  -27.2153  -33.7761   24.5594 C   0  0  0  0  0  0  0  0  0  0  0  0
  -25.5518  -28.9996   20.9489 C   0  0  0  0  0  0  0  0  0  0  0  0
  -23.6227   -7.4312   22.0046 C   0  0  0  0  0  0  0  0  0  0  0  0
  -27.6064  -28.0730   20.0377 C   0  0  0  0  0  0  0  0  0  0  0  0
  -22.6180   -5.5315   22.9555 C   0  0  0  0  0  0  0  0  0  0  0  0
  -20.4821   -4.3894   24.3397 C   0  0  0  0  0  0  0  0  0  0  0  0
  -21.3314   -5.5843   22.4193 C   0  0  0  0  0  0  0  0  0  0  0  0
  -23.4458  -11.5776   21.1838 C   0  0  0  0  0  0  0  0  0  0  0  0
  -22.7932  -13.5952   20.6019 C   0  0  0  0  0  0  0  0  0  0  0  0
  -21.0268  -11.8443   20.3518 C   0  0  0  0  0  0  0  0  0  0  0  0
  -24.7451  -31.3337   23.3003 C   0  0  0  0  0  0  0  0  0  0  0  0
  -22.0514  -29.9001   22.1997 C   0  0  0  0  0  0  0  0  0  0  0  0
  -20.6463  -27.5372   20.1775 C   0  0  0  0  0  0  0  0  0  0  0  0
  -26.6406  -17.1400   18.9675 C   0  0  0  0  0  0  0  0  0  0  0  0
  -25.9555  -35.6653   25.7148 C   0  0  0  0  0  0  0  0  0  0  0  0
  -25.0833  -31.4744   20.8060 C   0  0  0  0  0  0  0  0  0  0  0  0
  -24.2380  -28.7687   21.6481 C   0  0  0  0  0  0  0  0  0  0  0  0
  -24.7150  -34.7814   25.6143 C   0  0  0  0  0  0  0  0  0  0  0  0
  -26.9868  -15.7689   22.3498 C   0  0  0  0  0  0  0  0  0  0  0  0
  -25.0799  -33.3199   25.8547 C   0  0  0  0  0  0  0  0  0  0  0  0
  -26.0425  -14.5735   22.2790 C   0  0  0  0  0  0  0  0  0  0  0  0
  -27.0825  -23.2149   16.4740 C   0  0  0  0  0  0  0  0  0  0  0  0
  -29.3138  -18.4036   17.3747 C   0  0  0  0  0  0  0  0  0  0  0  0
  -27.6863  -16.0373   21.0168 C   0  0  0  0  0  0  0  0  0  0  0  0
  -26.8900  -21.7497   16.8673 C   0  0  0  0  0  0  0  0  0  0  0  0
  -29.2061  -17.4714   18.5854 C   0  0  0  0  0  0  0  0  0  0  0  0
  -25.8022  -14.9730   19.8038 C   0  0  0  0  0  0  0  0  0  0  0  0
  -28.4998  -22.6209   18.3210 C   0  0  0  0  0  0  0  0  0  0  0  0
  -26.0690  -32.8170   24.7963 C   0  0  1  0  0  0  0  0  0  0  0  0
  -24.0944  -31.2610   21.9479 C   0  0  1  0  0  0  0  0  0  0  0  0
  -25.0480  -14.7417   21.1207 C   0  0  1  0  0  0  0  0  0  0  0  0
  -28.3436  -23.6416   17.2115 C   0  0  2  0  0  0  0  0  0  0  0  0
  -27.9349  -18.9721   17.7432 C   0  0  2  0  0  0  0  0  0  0  0  0
  -18.4231  -26.5760   19.5210 C   0  0  0  0  0  0  0  0  0  0  0  0
  -21.9317  -28.3786   24.8418 C   0  0  0  0  0  0  0  0  0  0  0  0
  -20.3117  -26.7948   23.7762 C   0  0  0  0  0  0  0  0  0  0  0  0
  -19.7220  -29.2069   24.0140 C   0  0  0  0  0  0  0  0  0  0  0  0
  -21.0107  -28.3251   17.3482 C   0  0  0  0  0  0  0  0  0  0  0  0
  -27.8976  -20.2756   18.5164 C   0  0  0  0  0  0  0  0  0  0  0  0
  -29.5063  -25.6566   18.1208 C   0  0  0  0  0  0  0  0  0  0  0  0
  -29.2339  -27.0575   18.6320 C   0  0  0  0  0  0  0  0  0  1  0  0
  -21.4557  -28.5172   22.3080 C   0  0  1  0  0  0  0  0  0  0  0  0
  -19.4903  -27.6096   19.1962 C   0  0  2  0  0  0  0  0  0  0  0  0
  -20.8810  -28.2286   23.7236 C   0  0  0  0  0  0  0  0  0  0  0  0
  -24.5174  -12.3480   21.3890 N   0  0  0  0  0  0  0  0  0  0  0  0
  -24.0893  -13.5691   21.0259 N   0  0  0  0  0  0  0  0  0  0  0  0
  -23.4128  -29.9674   21.8710 N   0  0  0  0  0  0  0  0  0  0  0  0
  -26.7342  -16.1026   19.9016 N   0  0  0  0  0  0  0  0  0  0  0  0
  -27.7924  -17.8155   18.6304 N   0  0  0  0  0  0  0  0  0  0  0  0
  -28.1017  -21.4001   17.6161 N   0  0  1  0  0  0  0  0  0  0  0  0
  -22.2037  -14.7414   20.2006 N   0  0  0  0  0  0  0  0  0  0  0  0
  -20.7311  -10.4830   20.5063 N   0  0  0  0  0  0  0  0  0  0  0  0
  -25.3806  -32.5340   23.5551 N   0  0  0  0  0  0  0  0  0  0  0  0
  -20.4764  -28.4092   21.2321 N   0  0  0  0  0  0  0  0  0  0  0  0
  -28.2143  -25.0065   17.7533 N   0  3  0  0  0  0  0  0  0  0  0  0
  -19.9736  -27.3658   17.8077 N   0  3  0  0  0  0  0  0  0  0  0  0
  -20.1449  -12.6174   19.9066 O   0  0  0  0  0  0  0  0  0  0  0  0
  -24.6744  -30.3725   24.0572 O   0  0  0  0  0  0  0  0  0  0  0  0
  -21.3336  -30.8845   22.3925 O   0  0  0  0  0  0  0  0  0  0  0  0
  -21.6024  -26.7800   20.0258 O   0  0  0  0  0  0  0  0  0  0  0  0
  -25.5678  -17.4368   18.4254 O   0  0  0  0  0  0  0  0  0  0  0  0
  -23.6795   -6.0973   22.2692 O   0  0  0  0  0  0  0  0  0  0  0  0
  -28.4087  -26.9903   19.7874 O   0  0  0  0  0  0  0  0  0  1  0  0
  -19.4569   -3.8397   25.0037 F   0  0  0  0  0  0  0  0  0  0  0  0
  -21.1154   -6.1813   21.2391 F   0  0  0  0  0  0  0  0  0  0  0  0
  1  2  1  0  0  0  0
  1  5  2  0  0  0  0
  2  6  2  0  0  0  0
  3  8  2  0  0  0  0
  3 15  1  0  0  0  0
  4  9  1  0  0  0  0
  4 15  2  0  0  0  0
  5 17  1  0  0  0  0
  6 19  1  0  0  0  0
  7 10  2  0  0  0  0
  7 18  1  0  0  0  0
  8 21  1  0  0  0  0
  9 21  2  0  0  0  0
 10 22  1  0  0  0  0
 11 12  2  0  0  0  0
 11 23  1  0  0  0  0
 12 24  1  0  0  0  0
 13 20  1  0  0  0  0
 13 22  2  0  0  0  0
 14 24  2  0  0  0  0
 14 25  1  0  0  0  0
 15 26  1  0  0  0  0
 16 26  1  0  0  0  0
 16 27  2  0  0  0  0
 16 28  1  0  0  0  0
 17 19  2  0  0  0  0
 17 33  1  0  0  0  0
 18 20  2  0  0  0  0
 18 34  1  0  0  0  0
 19 47  1  0  0  0  0
 20 35  1  0  0  0  0
 21 80  1  0  0  0  0
 22 81  1  0  0  0  0
 23 25  2  0  0  0  0
 23 80  1  0  0  0  0
 24 82  1  0  0  0  0
 25 83  1  0  0  0  0
 26 63  2  0  0  0  0
 27 64  1  0  0  0  0
 27 69  1  0  0  0  0
 28 70  1  0  0  0  0
 28 75  2  0  0  0  0
 29 48  1  0  0  0  0
 29 71  1  0  0  0  0
 29 76  2  0  0  0  0
 30 60  1  0  0  0  0
 30 65  1  0  0  0  0
 30 77  2  0  0  0  0
 31 61  1  0  0  0  0
 31 72  1  0  0  0  0
 31 78  2  0  0  0  0
 32 66  1  0  0  0  0
 32 67  1  0  0  0  0
 32 79  2  0  0  0  0
 33 36  1  0  0  0  0
 34 48  1  0  0  0  0
 35 65  1  0  0  0  0
 36 38  1  0  0  0  0
 37 39  1  0  0  0  0
 37 42  1  0  0  0  0
 38 47  1  0  0  0  0
 39 49  1  0  0  0  0
 40 43  1  0  0  0  0
 40 50  1  0  0  0  0
 41 44  1  0  0  0  0
 41 51  1  0  0  0  0
 42 66  1  0  0  0  0
 43 68  1  0  0  0  0
 44 67  1  0  0  0  0
 45 49  1  0  0  0  0
 45 66  1  0  0  0  0
 46 50  1  0  0  0  0
 46 68  1  0  0  0  0
 47 71  1  0  0  0  0
 48 65  1  0  0  0  0
 49 64  1  0  0  0  0
 50 73  1  0  0  0  0
 51 57  1  0  0  0  0
 51 67  1  0  0  0  0
 52 61  1  0  0  0  0
 53 62  1  0  0  0  0
 54 62  1  0  0  0  0
 55 62  1  0  0  0  0
 56 74  1  0  0  0  0
 57 68  1  0  0  0  0
 58 59  1  0  0  0  0
 58 73  1  0  0  0  0
 59 81  1  0  0  0  0
 60 62  1  0  0  0  0
 60 72  1  0  0  0  0
 61 74  1  0  0  0  0
 63 64  1  0  0  0  0
M  CHG  2  73   1  74   1
M  ISO  4  32 100  59 101  67 100  81 101
M  END
> <Batch ID>
0191

> <Smiles>
CNC(C)C(=O)NC(C(=O)N1Cc2cc([101O:1][101CH2:1]CNC3CCN(CC4CC[100N:0]4[100C:0](=O)N4CCCC(n5nc(-c6ccc(Oc7ccc(F)cc7F)cc6)c(C(N)=O)c5N)C4)C3)ccc2CC1C(=O)NC1CCCc2ccccc21)C(C)(C)C

> <Shape>
0.302

> <Color>
0.087

> <Negative vol penalty>
0.000

$$$$

  -OEChem-04052323273D

 82 90  0     1  0  0  0  0  0999 V2000
  -16.0420  -26.2828   25.1660 C   0  0  0  0  0  0  0  0  0  0  0  0
  -16.9834  -25.6211   24.3841 C   0  0  0  0  0  0  0  0  0  0  0  0
  -22.6967  -11.7778   18.9579 C   0  0  0  0  0  0  0  0  0  0  0  0
  -22.9094  -10.2795   20.8412 C   0  0  0  0  0  0  0  0  0  0  0  0
  -15.9704  -27.6749   25.1401 C   0  0  0  0  0  0  0  0  0  0  0  0
  -17.8531  -26.3513   23.5748 C   0  0  0  0  0  0  0  0  0  0  0  0
  -22.6316  -24.7020   23.8742 C   0  0  0  0  0  0  0  0  0  0  0  0
  -21.6149  -11.0333   18.4878 C   0  0  0  0  0  0  0  0  0  0  0  0
  -21.8275   -9.5350   20.3711 C   0  0  0  0  0  0  0  0  0  0  0  0
  -22.9520  -23.5462   23.1633 C   0  0  0  0  0  0  0  0  0  0  0  0
  -21.2569   -7.1940   17.9995 C   0  0  0  0  0  0  0  0  0  0  0  0
  -21.3777   -5.8044   17.9992 C   0  0  0  0  0  0  0  0  0  0  0  0
  -23.9184  -24.8973   21.4141 C   0  0  0  0  0  0  0  0  0  0  0  0
  -19.4717   -5.6384   19.4745 C   0  0  0  0  0  0  0  0  0  0  0  0
  -23.3440  -11.4008   20.1346 C   0  0  0  0  0  0  0  0  0  0  0  0
  -24.4205  -13.2678   21.4995 C   0  0  0  0  0  0  0  0  0  0  0  0
  -16.8460  -28.4230   24.3374 C   0  0  0  0  0  0  0  0  0  0  0  0
  -22.9430  -25.9666   23.3545 C   0  0  0  0  0  0  0  0  0  0  0  0
  -17.7922  -27.7547   23.5370 C   0  0  0  0  0  0  0  0  0  0  0  0
  -23.6032  -26.0675   22.1216 C   0  0  0  0  0  0  0  0  0  0  0  0
  -21.1802   -9.9120   19.1944 C   0  0  0  0  0  0  0  0  0  0  0  0
  -23.5929  -23.6439   21.9317 C   0  0  0  0  0  0  0  0  0  0  0  0
  -20.2435   -7.8058   18.7374 C   0  0  0  0  0  0  0  0  0  0  0  0
  -20.4851   -5.0266   18.7366 C   0  0  0  0  0  0  0  0  0  0  0  0
  -19.3509   -7.0280   19.4749 C   0  0  0  0  0  0  0  0  0  0  0  0
  -24.4620  -12.1691   20.6204 C   0  0  0  0  0  0  0  0  0  0  0  0
  -25.7346  -13.6390   21.6475 C   0  0  0  0  0  0  0  0  0  0  0  0
  -23.2948  -13.8967   22.1264 C   0  0  0  0  0  0  0  0  0  0  0  0
  -21.2504  -28.5100   22.4770 C   0  0  0  0  0  0  0  0  0  0  0  0
  -24.1820  -29.8481   22.1069 C   0  0  0  0  0  0  0  0  0  0  0  0
  -27.5223  -29.4038   21.5666 C   0  0  0  0  0  0  0  0  0  0  0  0
  -30.7467  -14.6447   19.7010 C   0  0  0  0  0  0  0  0  0  0  0  0
  -16.6993  -29.9237   24.3064 C   0  0  0  0  0  0  0  0  0  0  0  0
  -22.6146  -27.2027   24.1461 C   0  0  0  0  0  0  0  0  0  0  0  0
  -23.9775  -27.4007   21.5292 C   0  0  0  0  0  0  0  0  0  0  0  0
  -17.9057  -30.6415   23.7068 C   0  0  0  0  0  0  0  0  0  0  0  0
  -30.0012  -11.3180   20.2591 C   0  0  0  0  0  0  0  0  0  0  0  0
  -18.3408  -29.9634   22.4115 C   0  0  0  0  0  0  0  0  0  0  0  0
  -28.4885  -11.3183   20.4792 C   0  0  0  0  0  0  0  0  0  0  0  0
  -30.3886  -12.2625   19.1269 C   0  0  0  0  0  0  0  0  0  0  0  0
  -30.8201  -16.8193   20.8666 C   0  0  0  0  0  0  0  0  0  0  0  0
  -29.2884  -16.5676   18.9596 C   0  0  0  0  0  0  0  0  0  0  0  0
  -29.7912  -17.7260   21.5421 C   0  0  0  0  0  0  0  0  0  0  0  0
  -28.2783  -17.4673   19.6687 C   0  0  0  0  0  0  0  0  0  0  0  0
  -28.4078  -13.6825   19.5459 C   0  0  0  0  0  0  0  0  0  0  0  0
  -18.7693  -28.5130   22.6650 C   0  0  1  0  0  0  0  0  0  0  0  0
  -22.5175  -28.4568   23.2828 C   0  0  1  0  0  0  0  0  0  0  0  0
  -27.9607  -12.7487   20.6886 C   0  0  1  0  0  0  0  0  0  0  0  0
  -29.6587  -30.6878   21.2756 C   0  0  0  0  0  0  0  0  0  0  0  0
  -28.4759  -21.2917   19.6877 C   0  0  0  0  0  0  0  0  0  0  0  0
  -23.3481  -30.5873   19.2664 C   0  0  0  0  0  0  0  0  0  0  0  0
  -25.7622  -30.9857   18.7359 C   0  0  0  0  0  0  0  0  0  0  0  0
  -24.6249  -32.3659   20.4750 C   0  0  0  0  0  0  0  0  0  0  0  0
  -28.7418  -28.1405   23.9491 C   0  0  0  0  0  0  0  0  0  0  0  0
  -27.9930  -19.2970   21.2119 C   0  0  0  0  0  0  0  0  0  0  0  0
  -25.1216  -20.4383   21.2174 C   0  0  0  0  0  0  0  0  0  0  0  0
  -24.1809  -21.3403   21.9918 C   0  0  0  0  0  0  0  0  0  1  0  0
  -25.1757  -29.9495   20.9749 C   0  0  1  0  0  0  0  0  0  0  0  0
  -28.7410  -29.9827   22.2623 C   0  0  2  0  0  0  0  0  0  0  0  0
  -27.4261  -20.3477   20.2584 C   0  0  1  0  0  0  0  0  0  0  0  0
  -24.7191  -30.9469   19.8730 C   0  0  0  0  0  0  0  0  0  0  0  0
  -25.7040  -11.8623   20.2367 N   0  0  0  0  0  0  0  0  0  0  0  0
  -26.4552  -12.7738   20.8777 N   0  0  0  0  0  0  0  0  0  0  0  0
  -23.6296  -28.5804   22.3383 N   0  0  0  0  0  0  0  0  0  0  0  0
  -29.8649  -13.6079   19.3609 N   0  0  0  0  0  0  0  0  0  0  0  0
  -30.1814  -15.9100   19.9195 N   0  0  0  0  0  0  0  0  0  0  0  0
  -28.9618  -18.4242   20.5505 N   0  0  0  0  0  0  0  0  0  0  0  0
  -26.3325  -14.6177   22.3595 N   0  0  0  0  0  0  0  0  0  0  0  0
  -22.0149  -13.3886   21.8658 N   0  0  0  0  0  0  0  0  0  0  0  0
  -20.0976  -28.4713   23.2381 N   0  0  0  0  0  0  0  0  0  0  0  0
  -26.4584  -30.2806   21.5862 N   0  0  0  0  0  0  0  0  0  0  0  0
  -29.5157  -28.9019   22.9350 N   0  3  0  0  0  0  0  0  0  0  0  0
  -26.3977  -21.1577   20.9695 N   0  3  0  0  0  0  0  0  0  0  0  0
  -23.4188  -14.8903   22.8819 O   0  0  0  0  0  0  0  0  0  0  0  0
  -21.3138  -28.5824   21.2554 O   0  0  0  0  0  0  0  0  0  0  0  0
  -23.9115  -30.8550   22.7661 O   0  0  0  0  0  0  0  0  0  0  0  0
  -27.5161  -28.2869   21.0536 O   0  0  0  0  0  0  0  0  0  0  0  0
  -31.9641  -14.4531   19.8097 O   0  0  0  0  0  0  0  0  0  0  0  0
  -20.1245   -9.1855   18.7361 O   0  0  0  0  0  0  0  0  0  0  0  0
  -23.9085  -22.5093   21.2305 O   0  0  0  0  0  0  0  0  0  1  0  0
  -20.6002   -3.6920   18.7350 F   0  0  0  0  0  0  0  0  0  0  0  0
  -18.3746   -7.6100   20.1848 F   0  0  0  0  0  0  0  0  0  0  0  0
  1  2  1  0  0  0  0
  1  5  2  0  0  0  0
  2  6  2  0  0  0  0
  3  8  2  0  0  0  0
  3 15  1  0  0  0  0
  4  9  1  0  0  0  0
  4 15  2  0  0  0  0
  5 17  1  0  0  0  0
  6 19  1  0  0  0  0
  7 10  2  0  0  0  0
  7 18  1  0  0  0  0
  8 21  1  0  0  0  0
  9 21  2  0  0  0  0
 10 22  1  0  0  0  0
 11 12  2  0  0  0  0
 11 23  1  0  0  0  0
 12 24  1  0  0  0  0
 13 20  1  0  0  0  0
 13 22  2  0  0  0  0
 14 24  2  0  0  0  0
 14 25  1  0  0  0  0
 15 26  1  0  0  0  0
 16 26  1  0  0  0  0
 16 27  2  0  0  0  0
 16 28  1  0  0  0  0
 17 19  2  0  0  0  0
 17 33  1  0  0  0  0
 18 20  2  0  0  0  0
 18 34  1  0  0  0  0
 19 46  1  0  0  0  0
 20 35  1  0  0  0  0
 21 79  1  0  0  0  0
 22 80  1  0  0  0  0
 23 25  2  0  0  0  0
 23 79  1  0  0  0  0
 24 81  1  0  0  0  0
 25 82  1  0  0  0  0
 26 62  2  0  0  0  0
 27 63  1  0  0  0  0
 27 68  1  0  0  0  0
 28 69  1  0  0  0  0
 28 74  2  0  0  0  0
 29 47  1  0  0  0  0
 29 70  1  0  0  0  0
 29 75  2  0  0  0  0
 30 58  1  0  0  0  0
 30 64  1  0  0  0  0
 30 76  2  0  0  0  0
 31 59  1  0  0  0  0
 31 71  1  0  0  0  0
 31 77  2  0  0  0  0
 32 65  1  0  0  0  0
 32 66  1  0  0  0  0
 32 78  2  0  0  0  0
 33 36  1  0  0  0  0
 34 47  1  0  0  0  0
 35 64  1  0  0  0  0
 36 38  1  0  0  0  0
 37 39  1  0  0  0  0
 37 40  1  0  0  0  0
 38 46  1  0  0  0  0
 39 48  1  0  0  0  0
 40 65  1  0  0  0  0
 41 43  1  0  0  0  0
 41 66  1  0  0  0  0
 42 44  1  0  0  0  0
 42 66  1  0  0  0  0
 43 67  1  0  0  0  0
 44 67  1  0  0  0  0
 45 48  1  0  0  0  0
 45 65  1  0  0  0  0
 46 70  1  0  0  0  0
 47 64  1  0  0  0  0
 48 63  1  0  0  0  0
 49 59  1  0  0  0  0
 50 60  1  0  0  0  0
 51 61  1  0  0  0  0
 52 61  1  0  0  0  0
 53 61  1  0  0  0  0
 54 72  1  0  0  0  0
 55 60  1  0  0  0  0
 55 67  1  0  0  0  0
 56 57  1  0  0  0  0
 56 73  1  0  0  0  0
 57 80  1  0  0  0  0
 58 61  1  0  0  0  0
 58 71  1  0  0  0  0
 59 72  1  0  0  0  0
 60 73  1  0  0  0  0
 62 63  1  0  0  0  0
M  CHG  2  72   1  73   1
M  ISO  4  32 100  57 101  66 100  80 101
M  END
> <Batch ID>
0191

> <Smiles>
CNC(C)C(=O)NC(C(=O)N1Cc2cc([101O:1][101CH2:1]CNC(C)CN3CC[100N:0]([100C:0](=O)N4CCCC(n5nc(-c6ccc(Oc7ccc(F)cc7F)cc6)c(C(N)=O)c5N)C4)CC3)ccc2CC1C(=O)NC1CCCc2ccccc21)C(C)(C)C

> <Shape>
0.266

> <Color>
0.102

> <Negative vol penalty>
0.000

$$$$

  -OEChem-04052323273D

 87 97  0     1  0  0  0  0  0999 V2000
  -26.2112  -24.3960   23.4791 C   0  0  0  0  0  0  0  0  0  0  0  0
  -25.4726  -23.3612   22.9142 C   0  0  0  0  0  0  0  0  0  0  0  0
  -24.3812  -31.8565   21.6314 C   0  0  0  0  0  0  0  0  0  0  0  0
  -25.8736  -31.2418   23.4291 C   0  0  0  0  0  0  0  0  0  0  0  0
  -27.5181  -24.6310   23.0538 C   0  0  0  0  0  0  0  0  0  0  0  0
  -26.0402  -22.5614   21.9229 C   0  0  0  0  0  0  0  0  0  0  0  0
  -25.1388  -17.6317   22.6512 C   0  0  0  0  0  0  0  0  0  0  0  0
  -24.9360  -33.1361   21.6083 C   0  0  0  0  0  0  0  0  0  0  0  0
  -26.4285  -32.5214   23.4060 C   0  0  0  0  0  0  0  0  0  0  0  0
  -23.8756  -17.1569   22.3010 C   0  0  0  0  0  0  0  0  0  0  0  0
  -27.9917  -35.7358   24.0643 C   0  0  0  0  0  0  0  0  0  0  0  0
  -28.1985  -36.3750   25.2867 C   0  0  0  0  0  0  0  0  0  0  0  0
  -24.7755  -16.3079   20.2301 C   0  0  0  0  0  0  0  0  0  0  0  0
  -25.8316  -36.2466   25.7541 C   0  0  0  0  0  0  0  0  0  0  0  0
  -20.3463  -18.8489   20.5016 C   0  0  0  0  0  0  0  0  0  0  0  0
  -19.3818  -17.2866   21.9460 C   0  0  0  0  0  0  0  0  0  0  0  0
  -24.8500  -30.9094   22.5419 C   0  0  0  0  0  0  0  0  0  0  0  0
  -24.6997  -28.4639   21.8316 C   0  0  0  0  0  0  0  0  0  0  0  0
  -28.1052  -23.8276   22.0636 C   0  0  0  0  0  0  0  0  0  0  0  0
  -26.2294  -17.4575   21.7871 C   0  0  0  0  0  0  0  0  0  0  0  0
  -27.3556  -22.7868   21.4830 C   0  0  0  0  0  0  0  0  0  0  0  0
  -26.0520  -16.7792   20.5729 C   0  0  0  0  0  0  0  0  0  0  0  0
  -19.2935  -18.5186   21.3304 C   0  0  0  0  0  0  0  0  0  0  0  0
  -25.9597  -33.4685   22.4956 C   0  0  0  0  0  0  0  0  0  0  0  0
  -23.6932  -16.4974   21.0891 C   0  0  0  0  0  0  0  0  0  0  0  0
  -26.7049  -35.3521   23.6868 C   0  0  0  0  0  0  0  0  0  0  0  0
  -27.1184  -36.6304   26.1317 C   0  0  0  0  0  0  0  0  0  0  0  0
  -25.6248  -35.6075   24.5317 C   0  0  0  0  0  0  0  0  0  0  0  0
  -24.2769  -29.5876   22.5666 C   0  0  0  0  0  0  0  0  0  0  0  0
  -23.8368  -27.4635   22.2071 C   0  0  0  0  0  0  0  0  0  0  0  0
  -21.3779  -16.8715   20.9407 C   0  0  0  0  0  0  0  0  0  1  0  0
  -25.7763  -28.3357   20.8934 C   0  0  0  0  0  0  0  0  0  0  0  0
  -28.1894  -19.4136   20.2263 C   0  0  0  0  0  0  0  0  0  0  0  0
  -29.7108  -16.6514   19.4661 C   0  0  0  0  0  0  0  0  0  0  0  0
  -29.5392  -13.2681   19.0533 C   0  0  0  0  0  0  0  0  0  0  0  0
  -18.7049  -25.7469   23.0772 C   0  0  0  0  0  0  0  0  0  0  0  0
  -29.5047  -24.1499   21.6028 C   0  0  0  0  0  0  0  0  0  0  0  0
  -27.5911  -17.9521   22.1916 C   0  0  0  0  0  0  0  0  0  0  0  0
  -27.1946  -16.5486   19.6191 C   0  0  0  0  0  0  0  0  0  0  0  0
  -30.1613  -23.0203   20.8135 C   0  0  0  0  0  0  0  0  0  0  0  0
  -20.4559  -27.2359   25.9332 C   0  0  0  0  0  0  0  0  0  0  0  0
  -29.1985  -22.4716   19.7654 C   0  0  0  0  0  0  0  0  0  0  0  0
  -21.6123  -27.9408   25.2323 C   0  0  0  0  0  0  0  0  0  0  0  0
  -15.3487  -25.6361   23.0237 C   0  0  0  0  0  0  0  0  0  0  0  0
  -17.5192  -21.2322   24.5658 C   0  0  0  0  0  0  0  0  0  0  0  0
  -19.1784  -27.2377   25.0927 C   0  0  0  0  0  0  0  0  0  0  0  0
  -16.3189  -26.4779   23.8583 C   0  0  0  0  0  0  0  0  0  0  0  0
  -20.5315  -27.4078   23.0206 C   0  0  0  0  0  0  0  0  0  0  0  0
  -18.4854  -20.2540   23.9190 C   0  0  0  0  0  0  0  0  0  0  0  0
  -17.5282  -21.7796   22.2645 C   0  0  0  0  0  0  0  0  0  0  0  0
  -27.9449  -21.8819   20.4228 C   0  0  1  0  0  0  0  0  0  0  0  0
  -28.5236  -18.1724   21.0044 C   0  0  1  0  0  0  0  0  0  0  0  0
  -17.5416  -22.4357   23.6350 C   0  0  1  0  0  0  0  0  0  0  0  0
  -21.8333  -27.3495   23.8322 C   0  0  1  0  0  0  0  0  0  0  0  0
  -16.4449  -24.5663   22.9057 C   0  0  2  0  0  0  0  0  0  0  0  0
  -30.9354  -11.2912   18.3900 C   0  0  0  0  0  0  0  0  0  0  0  0
  -29.4978  -17.4861   16.5390 C   0  0  0  0  0  0  0  0  0  0  0  0
  -30.0175  -15.1220   15.8993 C   0  0  0  0  0  0  0  0  0  0  0  0
  -31.6895  -16.4634   17.1752 C   0  0  0  0  0  0  0  0  0  0  0  0
  -29.1698  -11.9757   21.6901 C   0  0  0  0  0  0  0  0  0  0  0  0
  -18.1290  -19.4391   21.5486 C   0  0  0  0  0  0  0  0  0  0  0  0
  -16.3749  -23.3832   23.8510 C   0  0  0  0  0  0  0  0  0  0  0  0
  -29.6034  -15.6450   18.3460 C   0  0  1  0  0  0  0  0  0  0  0  0
  -30.4369  -12.1466   19.5443 C   0  0  2  0  0  0  0  0  0  0  0  0
  -30.1799  -16.1850   17.0068 C   0  0  0  0  0  0  0  0  0  0  0  0
  -21.4084  -18.0462   20.2830 N   0  0  0  0  0  0  0  0  0  0  0  0
  -20.4135  -16.4345   21.7730 N   0  0  0  0  0  0  0  0  0  0  0  0
  -23.2269  -29.3264   23.3496 N   0  0  0  0  0  0  0  0  0  0  0  0
  -22.9826  -28.0270   23.1087 N   0  0  0  0  0  0  0  0  0  0  0  0
  -28.5054  -17.0564   20.0566 N   0  0  0  0  0  0  0  0  0  0  0  0
  -19.4205  -26.7588   23.7266 N   0  0  0  0  0  0  0  0  0  0  0  0
  -17.3734  -25.5895   23.3917 N   0  0  0  0  0  0  0  0  0  0  0  0
  -23.7328  -26.1656   21.8505 N   0  0  0  0  0  0  0  0  0  0  0  0
  -26.5648  -29.4625   20.6232 N   0  0  0  0  0  0  0  0  0  0  0  0
  -28.2307  -20.5747   20.9743 N   0  0  0  0  0  0  0  0  0  0  0  0
  -30.2490  -14.4284   18.8270 N   0  0  0  0  0  0  0  0  0  0  0  0
  -18.4545  -20.5944   22.4399 N   0  3  2  0  0  0  0  0  0  0  0  0
  -29.6966  -11.2688   20.4943 N   0  3  0  0  0  0  0  0  0  0  0  0
  -26.0214  -27.2583   20.2997 O   0  0  0  0  0  0  0  0  0  0  0  0
  -27.9157  -19.3245   19.0352 O   0  0  0  0  0  0  0  0  0  0  0  0
  -30.8238  -17.0577   19.8093 O   0  0  0  0  0  0  0  0  0  0  0  0
  -28.3301  -13.1277   18.8837 O   0  0  0  0  0  0  0  0  0  0  0  0
  -19.2279  -25.0238   22.2191 O   0  0  0  0  0  0  0  0  0  0  0  0
  -26.5014  -34.7169   22.4732 O   0  0  0  0  0  0  0  0  0  0  0  0
  -22.4454  -16.0276   20.7401 O   0  0  0  0  0  0  0  0  0  1  0  0
  -27.3173  -37.2428   27.3062 F   0  0  0  0  0  0  0  0  0  0  0  0
  -24.3865  -35.2401   24.1749 F   0  0  0  0  0  0  0  0  0  0  0  0
  1  2  1  0  0  0  0
  1  5  2  0  0  0  0
  2  6  2  0  0  0  0
  3  8  2  0  0  0  0
  3 17  1  0  0  0  0
  4  9  1  0  0  0  0
  4 17  2  0  0  0  0
  5 19  1  0  0  0  0
  6 21  1  0  0  0  0
  7 10  2  0  0  0  0
  7 20  1  0  0  0  0
  8 24  1  0  0  0  0
  9 24  2  0  0  0  0
 10 25  1  0  0  0  0
 11 12  2  0  0  0  0
 11 26  1  0  0  0  0
 12 27  1  0  0  0  0
 13 22  1  0  0  0  0
 13 25  2  0  0  0  0
 14 27  2  0  0  0  0
 14 28  1  0  0  0  0
 15 23  1  0  0  0  0
 15 66  2  0  0  0  0
 16 23  2  0  0  0  0
 16 67  1  0  0  0  0
 17 29  1  0  0  0  0
 18 29  1  0  0  0  0
 18 30  2  0  0  0  0
 18 32  1  0  0  0  0
 19 21  2  0  0  0  0
 19 37  1  0  0  0  0
 20 22  2  0  0  0  0
 20 38  1  0  0  0  0
 21 51  1  0  0  0  0
 22 39  1  0  0  0  0
 23 61  1  0  0  0  0
 24 84  1  0  0  0  0
 25 85  1  0  0  0  0
 26 28  2  0  0  0  0
 26 84  1  0  0  0  0
 27 86  1  0  0  0  0
 28 87  1  0  0  0  0
 29 68  2  0  0  0  0
 30 69  1  0  0  0  0
 30 73  1  0  0  0  0
 31 66  1  0  0  0  0
 31 67  2  0  0  0  0
 31 85  1  0  0  0  0
 32 74  1  0  0  0  0
 32 79  2  0  0  0  0
 33 52  1  0  0  0  0
 33 75  1  0  0  0  0
 33 80  2  0  0  0  0
 34 63  1  0  0  0  0
 34 70  1  0  0  0  0
 34 81  2  0  0  0  0
 35 64  1  0  0  0  0
 35 76  1  0  0  0  0
 35 82  2  0  0  0  0
 36 71  1  0  0  0  0
 36 72  1  0  0  0  0
 36 83  2  0  0  0  0
 37 40  1  0  0  0  0
 38 52  1  0  0  0  0
 39 70  1  0  0  0  0
 40 42  1  0  0  0  0
 41 43  1  0  0  0  0
 41 46  1  0  0  0  0
 42 51  1  0  0  0  0
 43 54  1  0  0  0  0
 44 47  1  0  0  0  0
 44 55  1  0  0  0  0
 45 49  1  0  0  0  0
 45 53  1  0  0  0  0
 46 71  1  0  0  0  0
 47 72  1  0  0  0  0
 48 54  1  0  0  0  0
 48 71  1  0  0  0  0
 49 77  1  0  0  0  0
 50 53  1  0  0  0  0
 50 77  1  0  0  0  0
 51 75  1  0  0  0  0
 52 70  1  0  0  0  0
 53 62  1  0  0  0  0
 54 69  1  0  0  0  0
 55 62  1  0  0  0  0
 55 72  1  0  0  0  0
 56 64  1  0  0  0  0
 57 65  1  0  0  0  0
 58 65  1  0  0  0  0
 59 65  1  0  0  0  0
 60 78  1  0  0  0  0
 61 77  1  0  0  0  0
 63 65  1  0  0  0  0
 63 76  1  0  0  0  0
 64 78  1  0  0  0  0
 68 69  1  0  0  0  0
M  CHG  2  77   1  78   1
M  ISO  4  31 101  36 100  72 100  85 101
M  END
> <Batch ID>
0191

> <Smiles>
CNC(C)C(=O)NC(C(=O)N1Cc2cc([101O:1][101c:1]3ncc(CN4CCC(CC5CC[100N:0]5[100C:0](=O)N5CCCC(n6nc(-c7ccc(Oc8ccc(F)cc8F)cc7)c(C(N)=O)c6N)C5)C4)cn3)ccc2CC1C(=O)NC1CCCc2ccccc21)C(C)(C)C

> <Shape>
0.229

> <Color>
0.042

> <Negative vol penalty>
0.000

$$$$

  -OEChem-04052323273D

 84 93  0     1  0  0  0  0  0999 V2000
  -25.7592  -25.8397   16.1473 C   0  0  0  0  0  0  0  0  0  0  0  0
  -24.9603  -26.2836   17.1962 C   0  0  0  0  0  0  0  0  0  0  0  0
  -26.6260  -15.2780   21.3369 C   0  0  0  0  0  0  0  0  0  0  0  0
  -26.8699  -14.9095   18.9616 C   0  0  0  0  0  0  0  0  0  0  0  0
  -27.1471  -25.9313   16.2425 C   0  0  0  0  0  0  0  0  0  0  0  0
  -25.5491  -26.8184   18.3415 C   0  0  0  0  0  0  0  0  0  0  0  0
  -23.2557  -31.0526   19.9088 C   0  0  0  0  0  0  0  0  0  0  0  0
  -26.2320  -13.9502   21.5024 C   0  0  0  0  0  0  0  0  0  0  0  0
  -26.4759  -13.5817   19.1272 C   0  0  0  0  0  0  0  0  0  0  0  0
  -22.0552  -30.9071   20.6026 C   0  0  0  0  0  0  0  0  0  0  0  0
  -27.8666  -10.6846   20.1727 C   0  0  0  0  0  0  0  0  0  0  0  0
  -28.6065   -9.7036   19.5126 C   0  0  0  0  0  0  0  0  0  0  0  0
  -23.2300  -31.2124   22.6873 C   0  0  0  0  0  0  0  0  0  0  0  0
  -26.6251   -9.0162   18.3133 C   0  0  0  0  0  0  0  0  0  0  0  0
  -18.4045  -27.4865   21.8388 C   0  0  0  0  0  0  0  0  0  0  0  0
  -19.9144  -27.2649   23.4218 C   0  0  0  0  0  0  0  0  0  0  0  0
  -26.9448  -15.7577   20.0665 C   0  0  0  0  0  0  0  0  0  0  0  0
  -28.6617  -17.6409   19.9497 C   0  0  0  0  0  0  0  0  0  0  0  0
  -27.7529  -26.4763   17.3856 C   0  0  0  0  0  0  0  0  0  0  0  0
  -24.4561  -31.2686   20.6008 C   0  0  0  0  0  0  0  0  0  0  0  0
  -26.9465  -26.9161   18.4527 C   0  0  0  0  0  0  0  0  0  0  0  0
  -24.4440  -31.3629   21.9997 C   0  0  0  0  0  0  0  0  0  0  0  0
  -19.3225  -26.5742   22.3927 C   0  0  0  0  0  0  0  0  0  0  0  0
  -26.1570  -13.1021   20.3976 C   0  0  0  0  0  0  0  0  0  0  0  0
  -22.0427  -30.9841   21.9922 C   0  0  0  0  0  0  0  0  0  0  0  0
  -26.5059  -10.8314   19.9032 C   0  0  0  0  0  0  0  0  0  0  0  0
  -27.9858   -8.8694   18.5829 C   0  0  0  0  0  0  0  0  0  0  0  0
  -25.8852   -9.9972   18.9735 C   0  0  0  0  0  0  0  0  0  0  0  0
  -27.3513  -17.1293   19.8947 C   0  0  0  0  0  0  0  0  0  0  0  0
  -28.5141  -18.9878   19.7248 C   0  0  0  0  0  0  0  0  0  0  0  0
  -29.9014  -16.9595   20.1831 C   0  0  0  0  0  0  0  0  0  0  0  0
  -27.1957  -29.6828   20.8891 C   0  0  0  0  0  0  0  0  0  0  0  0
  -28.1065  -32.3319   22.5247 C   0  0  0  0  0  0  0  0  0  0  0  0
  -27.1927  -35.0647   24.3532 C   0  0  0  0  0  0  0  0  0  0  0  0
  -24.2377  -22.7632   20.6562 C   0  0  0  0  0  0  0  0  0  0  0  0
  -29.2588  -26.5111   17.4625 C   0  0  0  0  0  0  0  0  0  0  0  0
  -25.7385  -31.4502   19.8361 C   0  0  0  0  0  0  0  0  0  0  0  0
  -25.7023  -31.6137   22.7885 C   0  0  0  0  0  0  0  0  0  0  0  0
  -29.7917  -27.4352   18.5544 C   0  0  0  0  0  0  0  0  0  0  0  0
  -25.6769  -22.1344   17.5134 C   0  0  0  0  0  0  0  0  0  0  0  0
  -29.0387  -27.2071   19.8612 C   0  0  0  0  0  0  0  0  0  0  0  0
  -26.4051  -20.8158   17.7719 C   0  0  0  0  0  0  0  0  0  0  0  0
  -24.3062  -22.1750   18.1916 C   0  0  0  0  0  0  0  0  0  0  0  0
  -22.1848  -23.7309   19.5276 C   0  0  0  0  0  0  0  0  0  0  0  0
  -23.3509  -24.9813   21.3065 C   0  0  0  0  0  0  0  0  0  0  0  0
  -25.0731  -20.5578   19.8992 C   0  0  0  0  0  0  0  0  0  0  0  0
  -20.8846  -23.7937   20.3226 C   0  0  0  0  0  0  0  0  0  0  0  0
  -22.0794  -25.0412   22.1373 C   0  0  0  0  0  0  0  0  0  0  0  0
  -27.5471  -27.5250   19.7012 C   0  0  1  0  0  0  0  0  0  0  0  0
  -26.9797  -31.1538   20.6721 C   0  0  1  0  0  0  0  0  0  0  0  0
  -26.4780  -20.5112   19.2787 C   0  0  1  0  0  0  0  0  0  0  0  0
  -28.1619  -37.0234   25.5868 C   0  0  0  0  0  0  0  0  0  0  0  0
  -28.9083  -30.4870   24.8190 C   0  0  0  0  0  0  0  0  0  0  0  0
  -28.9582  -32.4901   26.3200 C   0  0  0  0  0  0  0  0  0  0  0  0
  -30.5112  -32.3540   24.3727 C   0  0  0  0  0  0  0  0  0  0  0  0
  -25.8109  -37.0037   22.5954 C   0  0  0  0  0  0  0  0  0  0  0  0
  -19.5933  -25.1634   21.9601 C   0  0  0  0  0  0  0  0  0  0  0  0
  -19.6350  -29.5846   24.3271 C   0  0  0  0  0  0  0  0  0  0  0  0
  -20.9454  -30.2842   23.9828 C   0  0  0  0  0  0  0  0  0  1  0  0
  -28.0502  -32.7688   23.9687 C   0  0  1  0  0  0  0  0  0  0  0  0
  -27.6077  -36.5221   24.2623 C   0  0  2  0  0  0  0  0  0  0  0  0
  -29.0834  -32.0183   24.8556 C   0  0  0  0  0  0  0  0  0  0  0  0
  -18.4091  -28.6666   22.4643 N   0  0  0  0  0  0  0  0  0  0  0  0
  -26.4385  -18.0743   19.6539 N   0  0  0  0  0  0  0  0  0  0  0  0
  -19.3372  -28.5006   23.4220 N   0  0  0  0  0  0  0  0  0  0  0  0
  -27.1765  -19.1931   19.5557 N   0  0  0  0  0  0  0  0  0  0  0  0
  -26.9320  -31.7782   21.9958 N   0  0  0  0  0  0  0  0  0  0  0  0
  -24.4206  -21.8383   19.6175 N   0  0  0  0  0  0  0  0  0  0  0  0
  -23.3489  -23.8218   20.4173 N   0  0  0  0  0  0  0  0  0  0  0  0
  -29.3995  -20.0047   19.6572 N   0  0  0  0  0  0  0  0  0  0  0  0
  -29.8728  -15.5745   20.3958 N   0  0  0  0  0  0  0  0  0  0  0  0
  -27.3302  -28.9557   19.7218 N   0  0  0  0  0  0  0  0  0  0  0  0
  -28.2094  -34.2190   23.9628 N   0  0  0  0  0  0  0  0  0  0  0  0
  -20.8872  -25.0156   21.2095 N   0  3  0  0  0  0  0  0  0  0  0  0
  -26.4405  -37.3707   23.8900 N   0  3  0  0  0  0  0  0  0  0  0  0
  -31.0002  -17.5636   20.2189 O   0  0  0  0  0  0  0  0  0  0  0  0
  -27.2387  -29.2404   22.0311 O   0  0  0  0  0  0  0  0  0  0  0  0
  -29.1518  -32.4830   21.8875 O   0  0  0  0  0  0  0  0  0  0  0  0
  -26.0795  -34.7117   24.7360 O   0  0  0  0  0  0  0  0  0  0  0  0
  -24.8336  -22.6495   21.7349 O   0  0  0  0  0  0  0  0  0  0  0  0
  -25.7729  -11.8063   20.5588 O   0  0  0  0  0  0  0  0  0  0  0  0
  -20.8642  -30.8407   22.6767 O   0  0  0  0  0  0  0  0  0  1  0  0
  -28.6968   -7.9284   17.9480 F   0  0  0  0  0  0  0  0  0  0  0  0
  -24.5785  -10.1342   18.7095 F   0  0  0  0  0  0  0  0  0  0  0  0
  1  2  1  0  0  0  0
  1  5  2  0  0  0  0
  2  6  2  0  0  0  0
  3  8  2  0  0  0  0
  3 17  1  0  0  0  0
  4  9  1  0  0  0  0
  4 17  2  0  0  0  0
  5 19  1  0  0  0  0
  6 21  1  0  0  0  0
  7 10  2  0  0  0  0
  7 20  1  0  0  0  0
  8 24  1  0  0  0  0
  9 24  2  0  0  0  0
 10 25  1  0  0  0  0
 11 12  2  0  0  0  0
 11 26  1  0  0  0  0
 12 27  1  0  0  0  0
 13 22  1  0  0  0  0
 13 25  2  0  0  0  0
 14 27  2  0  0  0  0
 14 28  1  0  0  0  0
 15 23  1  0  0  0  0
 15 63  2  0  0  0  0
 16 23  2  0  0  0  0
 16 65  1  0  0  0  0
 17 29  1  0  0  0  0
 18 29  1  0  0  0  0
 18 30  2  0  0  0  0
 18 31  1  0  0  0  0
 19 21  2  0  0  0  0
 19 36  1  0  0  0  0
 20 22  2  0  0  0  0
 20 37  1  0  0  0  0
 21 49  1  0  0  0  0
 22 38  1  0  0  0  0
 23 57  1  0  0  0  0
 24 81  1  0  0  0  0
 25 82  1  0  0  0  0
 26 28  2  0  0  0  0
 26 81  1  0  0  0  0
 27 83  1  0  0  0  0
 28 84  1  0  0  0  0
 29 64  2  0  0  0  0
 30 66  1  0  0  0  0
 30 70  1  0  0  0  0
 31 71  1  0  0  0  0
 31 76  2  0  0  0  0
 32 50  1  0  0  0  0
 32 72  1  0  0  0  0
 32 77  2  0  0  0  0
 33 60  1  0  0  0  0
 33 67  1  0  0  0  0
 33 78  2  0  0  0  0
 34 61  1  0  0  0  0
 34 73  1  0  0  0  0
 34 79  2  0  0  0  0
 35 68  1  0  0  0  0
 35 69  1  0  0  0  0
 35 80  2  0  0  0  0
 36 39  1  0  0  0  0
 37 50  1  0  0  0  0
 38 67  1  0  0  0  0
 39 41  1  0  0  0  0
 40 42  1  0  0  0  0
 40 43  1  0  0  0  0
 41 49  1  0  0  0  0
 42 51  1  0  0  0  0
 43 68  1  0  0  0  0
 44 47  1  0  0  0  0
 44 69  1  0  0  0  0
 45 48  1  0  0  0  0
 45 69  1  0  0  0  0
 46 51  1  0  0  0  0
 46 68  1  0  0  0  0
 47 74  1  0  0  0  0
 48 74  1  0  0  0  0
 49 72  1  0  0  0  0
 50 67  1  0  0  0  0
 51 66  1  0  0  0  0
 52 61  1  0  0  0  0
 53 62  1  0  0  0  0
 54 62  1  0  0  0  0
 55 62  1  0  0  0  0
 56 75  1  0  0  0  0
 57 74  1  0  0  0  0
 58 59  1  0  0  0  0
 58 65  1  0  0  0  0
 59 82  1  0  0  0  0
 60 62  1  0  0  0  0
 60 73  1  0  0  0  0
 61 75  1  0  0  0  0
 63 65  1  0  0  0  0
 64 66  1  0  0  0  0
M  CHG  2  74   1  75   1
M  ISO  4  35 100  59 101  69 100  82 101
M  END
> <Batch ID>
0191

> <Smiles>
CNC(C)C(=O)NC(C(=O)N1Cc2cc([101O:1][101CH2:1]Cn3cc(CN4CC[100N:0]([100C:0](=O)N5CCCC(n6nc(-c7ccc(Oc8ccc(F)cc8F)cc7)c(C(N)=O)c6N)C5)CC4)cn3)ccc2CC1C(=O)NC1CCCc2ccccc21)C(C)(C)C

> <Shape>
0.262

> <Color>
0.104

> <Negative vol penalty>
0.000

$$$$

  -OEChem-04052323273D

 87 96  0     1  0  0  0  0  0999 V2000
  -28.1695  -33.5020   26.4475 C   0  0  0  0  0  0  0  0  0  0  0  0
  -28.2738  -32.3035   25.7488 C   0  0  0  0  0  0  0  0  0  0  0  0
  -29.6250  -24.0538   16.2805 C   0  0  0  0  0  0  0  0  0  0  0  0
  -25.9610  -10.4451   17.8605 C   0  0  0  0  0  0  0  0  0  0  0  0
  -27.9681  -11.5678   18.6009 C   0  0  0  0  0  0  0  0  0  0  0  0
  -26.9127  -34.0185   26.7597 C   0  0  0  0  0  0  0  0  0  0  0  0
  -27.1212  -31.6203   25.3628 C   0  0  0  0  0  0  0  0  0  0  0  0
  -27.3566  -29.9574   20.5853 C   0  0  0  0  0  0  0  0  0  0  0  0
  -26.6810   -9.8351   16.8334 C   0  0  0  0  0  0  0  0  0  0  0  0
  -28.6882  -10.9577   17.5738 C   0  0  0  0  0  0  0  0  0  0  0  0
  -28.1089  -28.8080   20.3475 C   0  0  0  0  0  0  0  0  0  0  0  0
  -30.0696   -7.9359   16.9567 C   0  0  0  0  0  0  0  0  0  0  0  0
  -31.3109   -7.3856   17.2758 C   0  0  0  0  0  0  0  0  0  0  0  0
  -28.7815  -23.1924   17.0245 C   0  0  0  0  0  0  0  0  0  0  0  0
  -26.0841  -27.4971   20.3134 C   0  0  0  0  0  0  0  0  0  0  0  0
  -32.3744   -8.8638   15.6881 C   0  0  0  0  0  0  0  0  0  0  0  0
  -30.2549  -24.8881   17.1774 C   0  0  0  0  0  0  0  0  0  0  0  0
  -26.6045  -11.3115   18.7443 C   0  0  0  0  0  0  0  0  0  0  0  0
  -25.1581  -11.3060   20.8456 C   0  0  0  0  0  0  0  0  0  0  0  0
  -25.7440  -33.3461   26.3689 C   0  0  0  0  0  0  0  0  0  0  0  0
  -25.9609  -29.8836   20.6999 C   0  0  0  0  0  0  0  0  0  0  0  0
  -25.8475  -32.1276   25.6712 C   0  0  0  0  0  0  0  0  0  0  0  0
  -25.3162  -28.6475   20.5501 C   0  0  0  0  0  0  0  0  0  0  0  0
  -28.0446  -10.0914   16.6901 C   0  0  0  0  0  0  0  0  0  0  0  0
  -27.4729  -27.5771   20.2144 C   0  0  0  0  0  0  0  0  0  0  0  0
  -29.9807   -8.9502   16.0032 C   0  0  0  0  0  0  0  0  0  0  0  0
  -32.4633   -7.8495   16.6416 C   0  0  0  0  0  0  0  0  0  0  0  0
  -31.1331   -9.4142   15.3690 C   0  0  0  0  0  0  0  0  0  0  0  0
  -25.8610  -11.9424   19.8051 C   0  0  0  0  0  0  0  0  0  0  0  0
  -28.9215  -23.5266   18.3534 C   0  0  0  0  0  0  0  0  0  0  0  0
  -24.6290  -12.3368   21.5832 C   0  0  0  0  0  0  0  0  0  0  0  0
  -24.9978   -9.9081   21.1208 C   0  0  0  0  0  0  0  0  0  0  0  0
  -23.8625  -30.5207   23.0009 C   0  0  0  0  0  0  0  0  0  0  0  0
  -21.6999  -29.8872   20.6676 C   0  0  0  0  0  0  0  0  0  0  0  0
  -19.9726  -28.8313   17.9202 C   0  0  0  0  0  0  0  0  0  0  0  0
  -26.3553  -17.9338   22.3240 C   0  0  0  0  0  0  0  0  0  0  0  0
  -24.4080  -33.9194   26.7703 C   0  0  0  0  0  0  0  0  0  0  0  0
  -25.1615  -31.1368   20.9299 C   0  0  0  0  0  0  0  0  0  0  0  0
  -23.8186  -28.5176   20.6445 C   0  0  0  0  0  0  0  0  0  0  0  0
  -23.2331  -33.3247   25.9981 C   0  0  0  0  0  0  0  0  0  0  0  0
  -23.1062  -16.8537   21.1518 C   0  0  0  0  0  0  0  0  0  0  0  0
  -23.3442  -31.8043   25.9447 C   0  0  0  0  0  0  0  0  0  0  0  0
  -23.3881  -15.3990   20.7717 C   0  0  0  0  0  0  0  0  0  0  0  0
  -24.2897  -17.7539   20.8095 C   0  0  0  0  0  0  0  0  0  0  0  0
  -29.0042  -21.8821   20.1729 C   0  0  0  0  0  0  0  0  0  0  0  0
  -26.8626  -23.0328   19.6394 C   0  0  0  0  0  0  0  0  0  0  0  0
  -25.8670  -15.8738   21.0354 C   0  0  0  0  0  0  0  0  0  0  0  0
  -28.5974  -21.8081   21.6384 C   0  0  0  0  0  0  0  0  0  0  0  0
  -26.4581  -22.9515   21.1059 C   0  0  0  0  0  0  0  0  0  0  0  0
  -24.6202  -31.3697   25.2136 C   0  0  1  0  0  0  0  0  0  0  0  0
  -23.7898  -30.8668   21.5406 C   0  0  1  0  0  0  0  0  0  0  0  0
  -24.7169  -14.9091   21.3771 C   0  0  2  0  0  0  0  0  0  0  0  0
  -17.6376  -28.4091   17.1035 C   0  0  0  0  0  0  0  0  0  0  0  0
  -26.2892  -19.8018   24.9940 C   0  0  0  0  0  0  0  0  0  0  0  0
  -21.5986  -27.3095   22.2970 C   0  0  0  0  0  0  0  0  0  0  0  0
  -19.7835  -26.5004   20.7741 C   0  0  0  0  0  0  0  0  0  0  0  0
  -19.4276  -28.5433   22.1606 C   0  0  0  0  0  0  0  0  0  0  0  0
  -20.2404  -30.8385   15.7619 C   0  0  0  0  0  0  0  0  0  0  0  0
  -30.2763  -25.2451   19.6987 C   0  0  0  0  0  0  0  0  0  0  0  0
  -26.6321  -21.5322   23.1490 C   0  0  0  0  0  0  0  0  0  0  0  0
  -29.6203  -26.6085   19.8878 C   0  0  0  0  0  0  0  0  0  1  0  0
  -20.9898  -28.6492   20.1756 C   0  0  1  0  0  0  0  0  0  0  0  0
  -18.7725  -29.4170   17.1984 C   0  0  2  0  0  0  0  0  0  0  0  0
  -26.7139  -20.0602   23.5516 C   0  0  2  0  0  0  0  0  0  0  0  0
  -20.4752  -27.7584   21.3413 C   0  0  0  0  0  0  0  0  0  0  0  0
  -25.7870  -13.2744   19.8722 N   0  0  0  0  0  0  0  0  0  0  0  0
  -29.8194  -24.5588   18.4344 N   0  0  0  0  0  0  0  0  0  0  0  0
  -25.0313  -13.4833   20.9636 N   0  0  0  0  0  0  0  0  0  0  0  0
  -28.3220  -22.9964   19.5018 N   0  0  0  0  0  0  0  0  0  0  0  0
  -23.0814  -29.7707   20.8767 N   0  0  0  0  0  0  0  0  0  0  0  0
  -25.5194  -17.2426   21.4313 N   0  0  0  0  0  0  0  0  0  0  0  0
  -23.8636  -12.3652   22.6948 N   0  0  0  0  0  0  0  0  0  0  0  0
  -25.9378   -9.2778   21.9476 N   0  0  0  0  0  0  0  0  0  0  0  0
  -24.4507  -31.4971   23.7820 N   0  0  0  0  0  0  0  0  0  0  0  0
  -19.9435  -29.1115   19.2700 N   0  0  0  0  0  0  0  0  0  0  0  0
  -25.9590  -19.2270   22.6422 N   0  0  0  0  0  0  0  0  0  0  0  0
  -27.0944  -21.7383   21.7341 N   0  3  0  0  0  0  0  0  0  0  0  0
  -19.1499  -29.8310   15.8174 N   0  3  0  0  0  0  0  0  0  0  0  0
  -24.0583   -9.2341   20.6344 O   0  0  0  0  0  0  0  0  0  0  0  0
  -23.4165  -29.4478   23.3904 O   0  0  0  0  0  0  0  0  0  0  0  0
  -21.0538  -30.9217   20.8526 O   0  0  0  0  0  0  0  0  0  0  0  0
  -20.8464  -28.1862   17.3449 O   0  0  0  0  0  0  0  0  0  0  0  0
  -27.3770  -17.4334   22.8064 O   0  0  0  0  0  0  0  0  0  0  0  0
  -28.7476   -9.4961   15.6881 O   0  0  0  0  0  0  0  0  0  0  0  0
  -28.2049  -26.4535   19.9830 O   0  0  0  0  0  0  0  0  0  1  0  0
  -33.6555   -7.3220   16.9492 F   0  0  0  0  0  0  0  0  0  0  0  0
  -31.0541  -10.3892   14.4530 F   0  0  0  0  0  0  0  0  0  0  0  0
  1  2  1  0  0  0  0
  1  6  2  0  0  0  0
  2  7  2  0  0  0  0
  3 14  1  0  0  0  0
  3 17  2  0  0  0  0
  4  9  2  0  0  0  0
  4 18  1  0  0  0  0
  5 10  1  0  0  0  0
  5 18  2  0  0  0  0
  6 20  1  0  0  0  0
  7 22  1  0  0  0  0
  8 11  2  0  0  0  0
  8 21  1  0  0  0  0
  9 24  1  0  0  0  0
 10 24  2  0  0  0  0
 11 25  1  0  0  0  0
 12 13  2  0  0  0  0
 12 26  1  0  0  0  0
 13 27  1  0  0  0  0
 14 30  2  0  0  0  0
 15 23  1  0  0  0  0
 15 25  2  0  0  0  0
 16 27  2  0  0  0  0
 16 28  1  0  0  0  0
 17 67  1  0  0  0  0
 18 29  1  0  0  0  0
 19 29  1  0  0  0  0
 19 31  2  0  0  0  0
 19 32  1  0  0  0  0
 20 22  2  0  0  0  0
 20 37  1  0  0  0  0
 21 23  2  0  0  0  0
 21 38  1  0  0  0  0
 22 50  1  0  0  0  0
 23 39  1  0  0  0  0
 24 84  1  0  0  0  0
 25 85  1  0  0  0  0
 26 28  2  0  0  0  0
 26 84  1  0  0  0  0
 27 86  1  0  0  0  0
 28 87  1  0  0  0  0
 29 66  2  0  0  0  0
 30 67  1  0  0  0  0
 30 69  1  0  0  0  0
 31 68  1  0  0  0  0
 31 72  1  0  0  0  0
 32 73  1  0  0  0  0
 32 79  2  0  0  0  0
 33 51  1  0  0  0  0
 33 74  1  0  0  0  0
 33 80  2  0  0  0  0
 34 62  1  0  0  0  0
 34 70  1  0  0  0  0
 34 81  2  0  0  0  0
 35 63  1  0  0  0  0
 35 75  1  0  0  0  0
 35 82  2  0  0  0  0
 36 71  1  0  0  0  0
 36 76  1  0  0  0  0
 36 83  2  0  0  0  0
 37 40  1  0  0  0  0
 38 51  1  0  0  0  0
 39 70  1  0  0  0  0
 40 42  1  0  0  0  0
 41 43  1  0  0  0  0
 41 44  1  0  0  0  0
 42 50  1  0  0  0  0
 43 52  1  0  0  0  0
 44 71  1  0  0  0  0
 45 48  1  0  0  0  0
 45 69  1  0  0  0  0
 46 49  1  0  0  0  0
 46 69  1  0  0  0  0
 47 52  1  0  0  0  0
 47 71  1  0  0  0  0
 48 77  1  0  0  0  0
 49 77  1  0  0  0  0
 50 74  1  0  0  0  0
 51 70  1  0  0  0  0
 52 68  1  0  0  0  0
 53 63  1  0  0  0  0
 54 64  1  0  0  0  0
 55 65  1  0  0  0  0
 56 65  1  0  0  0  0
 57 65  1  0  0  0  0
 58 78  1  0  0  0  0
 59 61  1  0  0  0  0
 59 67  1  0  0  0  0
 60 64  1  0  0  0  0
 60 77  1  0  0  0  0
 61 85  1  0  0  0  0
 62 65  1  0  0  0  0
 62 75  1  0  0  0  0
 63 78  1  0  0  0  0
 64 76  1  0  0  0  0
 66 68  1  0  0  0  0
M  CHG  2  77   1  78   1
M  ISO  4  36 100  61 101  76 100  85 101
M  END
> <Batch ID>
0191

> <Smiles>
CNC(C)C(=O)NC(C(=O)N1Cc2cc([101O:1][101CH2:1]Cn3cccc3N3CCN(CC(C)[100NH:0][100C:0](=O)N4CCCC(n5nc(-c6ccc(Oc7ccc(F)cc7F)cc6)c(C(N)=O)c5N)C4)CC3)ccc2CC1C(=O)NC1CCCc2ccccc21)C(C)(C)C

> <Shape>
0.269

> <Color>
0.074

> <Negative vol penalty>
0.000

$$$$

  -OEChem-04052323273D

 83 92  0     1  0  0  0  0  0999 V2000
  -35.4873  -32.4432   20.8262 C   0  0  0  0  0  0  0  0  0  0  0  0
  -34.6076  -31.3655   20.8390 C   0  0  0  0  0  0  0  0  0  0  0  0
  -24.5082   -9.2414   22.1874 C   0  0  0  0  0  0  0  0  0  0  0  0
  -23.8893   -9.2480   19.8520 C   0  0  0  0  0  0  0  0  0  0  0  0
  -35.3433  -33.4701   21.7582 C   0  0  0  0  0  0  0  0  0  0  0  0
  -33.5840  -31.3136   21.7845 C   0  0  0  0  0  0  0  0  0  0  0  0
  -29.1450  -29.9437   19.7687 C   0  0  0  0  0  0  0  0  0  0  0  0
  -23.3487   -8.5288   22.4927 C   0  0  0  0  0  0  0  0  0  0  0  0
  -22.7298   -8.5353   20.1573 C   0  0  0  0  0  0  0  0  0  0  0  0
  -28.9579  -28.5880   19.5024 C   0  0  0  0  0  0  0  0  0  0  0  0
  -20.7315   -6.3946   23.8385 C   0  0  0  0  0  0  0  0  0  0  0  0
  -20.8465   -5.3113   24.7094 C   0  0  0  0  0  0  0  0  0  0  0  0
  -26.9726  -24.1165   18.7188 C   0  0  0  0  0  0  0  0  0  0  0  0
  -26.7116  -22.7640   18.5870 C   0  0  0  0  0  0  0  0  0  0  0  0
  -27.6807  -28.3706   21.5372 C   0  0  0  0  0  0  0  0  0  0  0  0
  -22.3840   -4.2454   23.1806 C   0  0  0  0  0  0  0  0  0  0  0  0
  -24.7785   -9.6010   20.8671 C   0  0  0  0  0  0  0  0  0  0  0  0
  -27.2362   -9.8079   20.2155 C   0  0  0  0  0  0  0  0  0  0  0  0
  -34.3115  -33.4355   22.7095 C   0  0  0  0  0  0  0  0  0  0  0  0
  -28.6096  -30.5216   20.9288 C   0  0  0  0  0  0  0  0  0  0  0  0
  -33.4269  -32.3403   22.7309 C   0  0  0  0  0  0  0  0  0  0  0  0
  -27.8602  -29.7344   21.8147 C   0  0  0  0  0  0  0  0  0  0  0  0
  -22.4595   -8.1757   21.4777 C   0  0  0  0  0  0  0  0  0  0  0  0
  -28.2281  -27.8006   20.3881 C   0  0  0  0  0  0  0  0  0  0  0  0
  -21.4427   -6.4034   22.6385 C   0  0  0  0  0  0  0  0  0  0  0  0
  -21.6728   -4.2367   24.3806 C   0  0  0  0  0  0  0  0  0  0  0  0
  -22.2689   -5.3288   22.3096 C   0  0  0  0  0  0  0  0  0  0  0  0
  -25.9759  -10.3377   20.5512 C   0  0  0  0  0  0  0  0  0  0  0  0
  -28.2919  -24.5155   18.7946 C   0  0  0  0  0  0  0  0  0  0  0  0
  -27.7872  -21.9000   18.5393 C   0  0  0  0  0  0  0  0  0  0  0  0
  -28.0280  -10.9108   20.0079 C   0  0  0  0  0  0  0  0  0  0  0  0
  -27.6539   -8.4411   20.1014 C   0  0  0  0  0  0  0  0  0  0  0  0
  -29.8304  -31.9586   23.4878 C   0  0  0  0  0  0  0  0  0  0  0  0
  -26.7104  -32.5056   24.1868 C   0  0  0  0  0  0  0  0  0  0  0  0
  -23.4487  -31.5807   23.7964 C   0  0  0  0  0  0  0  0  0  0  0  0
  -26.9823  -16.3379   18.3105 C   0  0  0  0  0  0  0  0  0  0  0  0
  -34.2246  -34.5455   23.7269 C   0  0  0  0  0  0  0  0  0  0  0  0
  -28.7977  -31.9912   21.1881 C   0  0  0  0  0  0  0  0  0  0  0  0
  -27.2474  -30.3110   23.0639 C   0  0  0  0  0  0  0  0  0  0  0  0
  -32.8849  -34.5992   24.4568 C   0  0  0  0  0  0  0  0  0  0  0  0
  -28.5336  -15.4718   21.3408 C   0  0  0  0  0  0  0  0  0  0  0  0
  -32.4725  -33.2052   24.9188 C   0  0  0  0  0  0  0  0  0  0  0  0
  -28.1738  -13.9907   21.4538 C   0  0  0  0  0  0  0  0  0  0  0  0
  -27.3650  -16.3069   20.8150 C   0  0  0  0  0  0  0  0  0  0  0  0
  -28.4903  -19.6734   17.7171 C   0  0  0  0  0  0  0  0  0  0  0  0
  -26.7001  -19.8932   19.4472 C   0  0  0  0  0  0  0  0  0  0  0  0
  -27.8349  -18.3842   17.2291 C   0  0  0  0  0  0  0  0  0  0  0  0
  -26.0701  -18.6084   18.9208 C   0  0  0  0  0  0  0  0  0  0  0  0
  -26.4375  -14.3294   19.6544 C   0  0  0  0  0  0  0  0  0  0  0  0
  -32.2888  -32.2603   23.7251 C   0  0  1  0  0  0  0  0  0  0  0  0
  -28.6436  -32.3628   22.6597 C   0  0  1  0  0  0  0  0  0  0  0  0
  -27.6110  -13.4561   20.1249 C   0  0  2  0  0  0  0  0  0  0  0  0
  -21.1264  -32.1958   24.5218 C   0  0  0  0  0  0  0  0  0  0  0  0
  -27.2283  -31.2363   26.9128 C   0  0  0  0  0  0  0  0  0  0  0  0
  -24.7514  -31.0123   27.2013 C   0  0  0  0  0  0  0  0  0  0  0  0
  -25.7789  -33.2735   26.9690 C   0  0  0  0  0  0  0  0  0  0  0  0
  -22.6000  -32.1286   21.0146 C   0  0  0  0  0  0  0  0  0  0  0  0
  -28.6274  -25.9606   18.9352 C   0  0  0  0  0  0  0  0  0  1  0  0
  -25.6390  -31.7621   24.9472 C   0  0  1  0  0  0  0  0  0  0  0  0
  -22.2054  -32.3873   23.4674 C   0  0  2  0  0  0  0  0  0  0  0  0
  -25.8624  -31.8094   26.4851 C   0  0  0  0  0  0  0  0  0  0  0  0
  -25.9631  -11.6733   20.5578 N   0  0  0  0  0  0  0  0  0  0  0  0
  -29.3248  -23.6477   18.7454 N   0  0  0  0  0  0  0  0  0  0  0  0
  -29.0682  -22.3185   18.6154 N   0  0  0  0  0  0  0  0  0  0  0  0
  -27.2252  -11.9920   20.2238 N   0  0  0  0  0  0  0  0  0  0  0  0
  -27.5219  -20.5307   18.4093 N   0  0  0  0  0  0  0  0  0  0  0  0
  -27.4645  -31.7516   23.2765 N   0  0  0  0  0  0  0  0  0  0  0  0
  -26.8360  -15.7359   19.5692 N   0  0  0  0  0  0  0  0  0  0  0  0
  -27.0608  -17.7391   18.2827 N   0  0  0  0  0  0  0  0  0  0  0  0
  -29.3258  -11.0515   19.6636 N   0  0  0  0  0  0  0  0  0  0  0  0
  -26.7130   -7.4321   20.3487 N   0  0  0  0  0  0  0  0  0  0  0  0
  -31.0242  -32.5146   23.0690 N   0  0  0  0  0  0  0  0  0  0  0  0
  -24.3649  -32.3232   24.5109 N   0  0  0  0  0  0  0  0  0  0  0  0
  -21.6522  -31.9711   22.1477 N   0  3  0  0  0  0  0  0  0  0  0  0
  -28.8308   -8.1238   19.8055 O   0  0  0  0  0  0  0  0  0  0  0  0
  -29.6745  -31.1997   24.4372 O   0  0  0  0  0  0  0  0  0  0  0  0
  -26.8676  -33.7124   24.3878 O   0  0  0  0  0  0  0  0  0  0  0  0
  -23.5911  -30.4081   23.4570 O   0  0  0  0  0  0  0  0  0  0  0  0
  -27.0426  -15.6660   17.2733 O   0  0  0  0  0  0  0  0  0  0  0  0
  -21.3280   -7.4801   21.7752 O   0  0  0  0  0  0  0  0  0  0  0  0
  -28.0434  -26.4680   20.1291 O   0  0  0  0  0  0  0  0  0  1  0  0
  -21.7844   -3.1971   25.2178 F   0  0  0  0  0  0  0  0  0  0  0  0
  -22.9556   -5.3321   21.1588 F   0  0  0  0  0  0  0  0  0  0  0  0
  1  2  1  0  0  0  0
  1  5  2  0  0  0  0
  2  6  2  0  0  0  0
  3  8  2  0  0  0  0
  3 17  1  0  0  0  0
  4  9  1  0  0  0  0
  4 17  2  0  0  0  0
  5 19  1  0  0  0  0
  6 21  1  0  0  0  0
  7 10  2  0  0  0  0
  7 20  1  0  0  0  0
  8 23  1  0  0  0  0
  9 23  2  0  0  0  0
 10 24  1  0  0  0  0
 11 12  2  0  0  0  0
 11 25  1  0  0  0  0
 12 26  1  0  0  0  0
 13 14  2  0  0  0  0
 13 29  1  0  0  0  0
 14 30  1  0  0  0  0
 15 22  1  0  0  0  0
 15 24  2  0  0  0  0
 16 26  2  0  0  0  0
 16 27  1  0  0  0  0
 17 28  1  0  0  0  0
 18 28  1  0  0  0  0
 18 31  2  0  0  0  0
 18 32  1  0  0  0  0
 19 21  2  0  0  0  0
 19 37  1  0  0  0  0
 20 22  2  0  0  0  0
 20 38  1  0  0  0  0
 21 50  1  0  0  0  0
 22 39  1  0  0  0  0
 23 80  1  0  0  0  0
 24 81  1  0  0  0  0
 25 27  2  0  0  0  0
 25 80  1  0  0  0  0
 26 82  1  0  0  0  0
 27 83  1  0  0  0  0
 28 62  2  0  0  0  0
 29 58  1  0  0  0  0
 29 63  2  0  0  0  0
 30 64  2  0  0  0  0
 30 66  1  0  0  0  0
 31 65  1  0  0  0  0
 31 70  1  0  0  0  0
 32 71  1  0  0  0  0
 32 75  2  0  0  0  0
 33 51  1  0  0  0  0
 33 72  1  0  0  0  0
 33 76  2  0  0  0  0
 34 59  1  0  0  0  0
 34 67  1  0  0  0  0
 34 77  2  0  0  0  0
 35 60  1  0  0  0  0
 35 73  1  0  0  0  0
 35 78  2  0  0  0  0
 36 68  1  0  0  0  0
 36 69  1  0  0  0  0
 36 79  2  0  0  0  0
 37 40  1  0  0  0  0
 38 51  1  0  0  0  0
 39 67  1  0  0  0  0
 40 42  1  0  0  0  0
 41 43  1  0  0  0  0
 41 44  1  0  0  0  0
 42 50  1  0  0  0  0
 43 52  1  0  0  0  0
 44 68  1  0  0  0  0
 45 47  1  0  0  0  0
 45 66  1  0  0  0  0
 46 48  1  0  0  0  0
 46 66  1  0  0  0  0
 47 69  1  0  0  0  0
 48 69  1  0  0  0  0
 49 52  1  0  0  0  0
 49 68  1  0  0  0  0
 50 72  1  0  0  0  0
 51 67  1  0  0  0  0
 52 65  1  0  0  0  0
 53 60  1  0  0  0  0
 54 61  1  0  0  0  0
 55 61  1  0  0  0  0
 56 61  1  0  0  0  0
 57 74  1  0  0  0  0
 58 81  1  0  0  0  0
 59 61  1  0  0  0  0
 59 73  1  0  0  0  0
 60 74  1  0  0  0  0
 62 65  1  0  0  0  0
 63 64  1  0  0  0  0
M  CHG  1  74   1
M  ISO  4  36 100  58 101  69 100  81 101
M  END
> <Batch ID>
0191

> <Smiles>
CNC(C)C(=O)NC(C(=O)N1Cc2cc([101O:1][101CH2:1]c3ccc(N4CC[100N:0]([100C:0](=O)N5CCCC(n6nc(-c7ccc(Oc8ccc(F)cc8F)cc7)c(C(N)=O)c6N)C5)CC4)nn3)ccc2CC1C(=O)NC1CCCc2ccccc21)C(C)(C)C

> <Shape>
0.237

> <Color>
0.107

> <Negative vol penalty>
0.000

$$$$

  -OEChem-04052323273D

 83 92  0     1  0  0  0  0  0999 V2000
  -26.0301  -35.5621   22.7511 C   0  0  0  0  0  0  0  0  0  0  0  0
  -26.5687  -34.2832   22.6524 C   0  0  0  0  0  0  0  0  0  0  0  0
  -25.8333  -12.9484   20.5230 C   0  0  0  0  0  0  0  0  0  0  0  0
  -26.6310  -12.3345   18.3267 C   0  0  0  0  0  0  0  0  0  0  0  0
  -24.7083  -35.7309   23.1613 C   0  0  0  0  0  0  0  0  0  0  0  0
  -25.7859  -33.1723   22.9649 C   0  0  0  0  0  0  0  0  0  0  0  0
  -26.2581  -29.4457   19.5687 C   0  0  0  0  0  0  0  0  0  0  0  0
  -24.7942  -12.0257   20.4035 C   0  0  0  0  0  0  0  0  0  0  0  0
  -25.5919  -11.4117   18.2072 C   0  0  0  0  0  0  0  0  0  0  0  0
  -27.4022  -28.6529   19.6483 C   0  0  0  0  0  0  0  0  0  0  0  0
  -24.3859   -8.6820   20.6970 C   0  0  0  0  0  0  0  0  0  0  0  0
  -24.1222   -7.8575   21.7907 C   0  0  0  0  0  0  0  0  0  0  0  0
  -31.3496  -25.9724   21.1501 C   0  0  0  0  0  0  0  0  0  0  0  0
  -26.1346  -26.9490   20.7923 C   0  0  0  0  0  0  0  0  0  0  0  0
  -21.8798   -8.7472   21.9207 C   0  0  0  0  0  0  0  0  0  0  0  0
  -32.3600  -25.0333   21.1902 C   0  0  0  0  0  0  0  0  0  0  0  0
  -26.7518  -13.1029   19.4846 C   0  0  0  0  0  0  0  0  0  0  0  0
  -29.1090  -13.8275   20.1373 C   0  0  0  0  0  0  0  0  0  0  0  0
  -23.9060  -34.6211   23.4696 C   0  0  0  0  0  0  0  0  0  0  0  0
  -25.0442  -29.0000   20.1109 C   0  0  0  0  0  0  0  0  0  0  0  0
  -24.4525  -33.3265   23.3808 C   0  0  0  0  0  0  0  0  0  0  0  0
  -24.9759  -27.7369   20.7160 C   0  0  0  0  0  0  0  0  0  0  0  0
  -24.6734  -11.2573   19.2457 C   0  0  0  0  0  0  0  0  0  0  0  0
  -27.3412  -27.4056   20.2627 C   0  0  0  0  0  0  0  0  0  0  0  0
  -23.3966   -9.5392   20.2152 C   0  0  0  0  0  0  0  0  0  0  0  0
  -22.8692   -7.8900   22.4026 C   0  0  0  0  0  0  0  0  0  0  0  0
  -22.1435   -9.5718   20.8271 C   0  0  0  0  0  0  0  0  0  0  0  0
  -27.8251  -14.0563   19.6072 C   0  0  0  0  0  0  0  0  0  0  0  0
  -30.7575  -26.1600   19.9178 C   0  0  0  0  0  0  0  0  0  0  0  0
  -29.7462  -15.0394   20.0290 C   0  0  0  0  0  0  0  0  0  0  0  0
  -32.1133  -24.5994   18.9726 C   0  0  0  0  0  0  0  0  0  0  0  0
  -29.6751  -12.6267   20.6790 C   0  0  0  0  0  0  0  0  0  0  0  0
  -23.0998  -30.0294   22.4051 C   0  0  0  0  0  0  0  0  0  0  0  0
  -21.2044  -27.6214   21.3413 C   0  0  0  0  0  0  0  0  0  0  0  0
  -20.9596  -24.6239   19.7283 C   0  0  0  0  0  0  0  0  0  0  0  0
  -31.0222  -19.4276   16.9086 C   0  0  0  0  0  0  0  0  0  0  0  0
  -22.4972  -34.8559   23.9540 C   0  0  0  0  0  0  0  0  0  0  0  0
  -23.8128  -29.8557   19.9932 C   0  0  0  0  0  0  0  0  0  0  0  0
  -23.6922  -27.2037   21.2957 C   0  0  0  0  0  0  0  0  0  0  0  0
  -21.6206  -33.6071   23.9064 C   0  0  0  0  0  0  0  0  0  0  0  0
  -27.9418  -19.6228   18.8878 C   0  0  0  0  0  0  0  0  0  0  0  0
  -22.3626  -32.4112   24.4945 C   0  0  0  0  0  0  0  0  0  0  0  0
  -27.7378  -18.1583   19.2788 C   0  0  0  0  0  0  0  0  0  0  0  0
  -28.5584  -19.7357   17.4988 C   0  0  0  0  0  0  0  0  0  0  0  0
  -32.5349  -21.4669   16.6432 C   0  0  0  0  0  0  0  0  0  0  0  0
  -30.8866  -21.8311   17.9375 C   0  0  0  0  0  0  0  0  0  0  0  0
  -29.6509  -17.5410   17.7240 C   0  0  0  0  0  0  0  0  0  0  0  0
  -23.6276  -32.0954   23.6873 C   0  0  1  0  0  0  0  0  0  0  0  0
  -22.7503  -29.5204   21.0352 C   0  0  1  0  0  0  0  0  0  0  0  0
  -32.3441  -22.3288   17.9030 C   0  0  0  0  0  0  0  0  0  0  0  0
  -29.0414  -17.3533   19.1256 C   0  0  2  0  0  0  0  0  0  0  0  0
  -33.9998  -24.1509   17.3619 C   0  0  0  0  0  0  0  0  0  0  0  0
  -19.2838  -22.8847   19.0470 C   0  0  0  0  0  0  0  0  0  0  0  0
  -21.0883  -26.6100   24.2177 C   0  0  0  0  0  0  0  0  0  0  0  0
  -20.2379  -24.4244   23.3412 C   0  0  0  0  0  0  0  0  0  0  0  0
  -18.9133  -26.5084   22.9874 C   0  0  0  0  0  0  0  0  0  0  0  0
  -21.5600  -25.0040   16.8553 C   0  0  0  0  0  0  0  0  0  0  0  0
  -29.6556  -27.1556   19.7758 C   0  0  0  0  0  0  0  0  0  1  0  0
  -32.5471  -23.8214   17.7373 C   0  0  2  0  0  0  0  0  0  0  0  0
  -21.0462  -26.1579   21.6760 C   0  0  1  0  0  0  0  0  0  0  0  0
  -20.0275  -24.1440   18.6303 C   0  0  2  0  0  0  0  0  0  0  0  0
  -20.3462  -25.9358   23.0465 C   0  0  0  0  0  0  0  0  0  0  0  0
  -32.7689  -24.3258   20.1166 N   0  0  0  0  0  0  0  0  0  0  0  0
  -27.6550  -15.3147   19.1931 N   0  0  0  0  0  0  0  0  0  0  0  0
  -31.1158  -25.4883   18.8039 N   0  0  0  0  0  0  0  0  0  0  0  0
  -28.8404  -15.8875   19.4631 N   0  0  0  0  0  0  0  0  0  0  0  0
  -22.5170  -28.0803   21.1615 N   0  0  0  0  0  0  0  0  0  0  0  0
  -29.8041  -18.9667   17.4155 N   0  0  0  0  0  0  0  0  0  0  0  0
  -31.3242  -20.7611   17.0538 N   0  0  0  0  0  0  0  0  0  0  0  0
  -30.9873  -15.4517   20.3638 N   0  0  0  0  0  0  0  0  0  0  0  0
  -28.8825  -11.4714   20.7148 N   0  0  0  0  0  0  0  0  0  0  0  0
  -23.2868  -31.3971   22.4663 N   0  0  0  0  0  0  0  0  0  0  0  0
  -20.3509  -25.5533   20.5450 N   0  0  0  0  0  0  0  0  0  0  0  0
  -20.7983  -23.8461   17.3901 N   0  3  0  0  0  0  0  0  0  0  0  0
  -30.8436  -12.5839   21.1333 O   0  0  0  0  0  0  0  0  0  0  0  0
  -23.1915  -29.2398   23.3378 O   0  0  0  0  0  0  0  0  0  0  0  0
  -20.2000  -28.3297   21.2359 O   0  0  0  0  0  0  0  0  0  0  0  0
  -22.1111  -24.2124   19.8516 O   0  0  0  0  0  0  0  0  0  0  0  0
  -31.8345  -18.6649   16.3686 O   0  0  0  0  0  0  0  0  0  0  0  0
  -23.6597  -10.3567   19.1288 O   0  0  0  0  0  0  0  0  0  0  0  0
  -28.4644  -26.6247   20.3429 O   0  0  0  0  0  0  0  0  0  1  0  0
  -22.6156   -7.0970   23.4519 F   0  0  0  0  0  0  0  0  0  0  0  0
  -21.1887  -10.3923   20.3679 F   0  0  0  0  0  0  0  0  0  0  0  0
  1  2  1  0  0  0  0
  1  5  2  0  0  0  0
  2  6  2  0  0  0  0
  3  8  2  0  0  0  0
  3 17  1  0  0  0  0
  4  9  1  0  0  0  0
  4 17  2  0  0  0  0
  5 19  1  0  0  0  0
  6 21  1  0  0  0  0
  7 10  2  0  0  0  0
  7 20  1  0  0  0  0
  8 23  1  0  0  0  0
  9 23  2  0  0  0  0
 10 24  1  0  0  0  0
 11 12  2  0  0  0  0
 11 25  1  0  0  0  0
 12 26  1  0  0  0  0
 13 16  2  0  0  0  0
 13 29  1  0  0  0  0
 14 22  1  0  0  0  0
 14 24  2  0  0  0  0
 15 26  2  0  0  0  0
 15 27  1  0  0  0  0
 16 63  1  0  0  0  0
 17 28  1  0  0  0  0
 18 28  1  0  0  0  0
 18 30  2  0  0  0  0
 18 32  1  0  0  0  0
 19 21  2  0  0  0  0
 19 37  1  0  0  0  0
 20 22  2  0  0  0  0
 20 38  1  0  0  0  0
 21 48  1  0  0  0  0
 22 39  1  0  0  0  0
 23 80  1  0  0  0  0
 24 81  1  0  0  0  0
 25 27  2  0  0  0  0
 25 80  1  0  0  0  0
 26 82  1  0  0  0  0
 27 83  1  0  0  0  0
 28 64  2  0  0  0  0
 29 58  1  0  0  0  0
 29 65  2  0  0  0  0
 30 66  1  0  0  0  0
 30 70  1  0  0  0  0
 31 59  1  0  0  0  0
 31 63  2  0  0  0  0
 31 65  1  0  0  0  0
 32 71  1  0  0  0  0
 32 75  2  0  0  0  0
 33 49  1  0  0  0  0
 33 72  1  0  0  0  0
 33 76  2  0  0  0  0
 34 60  1  0  0  0  0
 34 67  1  0  0  0  0
 34 77  2  0  0  0  0
 35 61  1  0  0  0  0
 35 73  1  0  0  0  0
 35 78  2  0  0  0  0
 36 68  1  0  0  0  0
 36 69  1  0  0  0  0
 36 79  2  0  0  0  0
 37 40  1  0  0  0  0
 38 49  1  0  0  0  0
 39 67  1  0  0  0  0
 40 42  1  0  0  0  0
 41 43  1  0  0  0  0
 41 44  1  0  0  0  0
 42 48  1  0  0  0  0
 43 51  1  0  0  0  0
 44 68  1  0  0  0  0
 45 50  1  0  0  0  0
 45 69  1  0  0  0  0
 46 50  1  0  0  0  0
 46 69  1  0  0  0  0
 47 51  1  0  0  0  0
 47 68  1  0  0  0  0
 48 72  1  0  0  0  0
 49 67  1  0  0  0  0
 50 59  1  0  0  0  0
 51 66  1  0  0  0  0
 52 59  1  0  0  0  0
 53 61  1  0  0  0  0
 54 62  1  0  0  0  0
 55 62  1  0  0  0  0
 56 62  1  0  0  0  0
 57 74  1  0  0  0  0
 58 81  1  0  0  0  0
 60 62  1  0  0  0  0
 60 73  1  0  0  0  0
 61 74  1  0  0  0  0
 64 66  1  0  0  0  0
M  CHG  1  74   1
M  ISO  4  36 100  58 101  69 100  81 101
M  END
> <Batch ID>
0191

> <Smiles>
CNC(C)C(=O)NC(C(=O)N1Cc2cc([101O:1][101CH2:1]c3ccnc(C(C)C4C[100N:0]([100C:0](=O)N5CCCC(n6nc(-c7ccc(Oc8ccc(F)cc8F)cc7)c(C(N)=O)c6N)C5)C4)n3)ccc2CC1C(=O)NC1CCCc2ccccc21)C(C)(C)C

> <Shape>
0.295

> <Color>
0.084

> <Negative vol penalty>
0.000

$$$$

  -OEChem-04052323273D

 86 96  0     1  0  0  0  0  0999 V2000
  -29.1173  -31.9768   20.8454 C   0  0  0  0  0  0  0  0  0  0  0  0
  -28.7832  -30.6307   20.9541 C   0  0  0  0  0  0  0  0  0  0  0  0
  -23.8998  -15.6607   22.5621 C   0  0  0  0  0  0  0  0  0  0  0  0
  -22.9081  -15.6663   20.3590 C   0  0  0  0  0  0  0  0  0  0  0  0
  -28.2889  -32.9471   21.4077 C   0  0  0  0  0  0  0  0  0  0  0  0
  -27.6210  -30.2541   21.6263 C   0  0  0  0  0  0  0  0  0  0  0  0
  -24.9857  -26.7274   19.1237 C   0  0  0  0  0  0  0  0  0  0  0  0
  -23.1085  -16.7518   22.9211 C   0  0  0  0  0  0  0  0  0  0  0  0
  -22.1167  -16.7574   20.7181 C   0  0  0  0  0  0  0  0  0  0  0  0
  -25.4471  -25.4140   19.2004 C   0  0  0  0  0  0  0  0  0  0  0  0
  -21.0895  -19.3084   24.5343 C   0  0  0  0  0  0  0  0  0  0  0  0
  -20.4579  -19.2703   25.7774 C   0  0  0  0  0  0  0  0  0  0  0  0
  -23.7846  -24.9344   20.8812 C   0  0  0  0  0  0  0  0  0  0  0  0
  -19.2794  -17.2672   25.1173 C   0  0  0  0  0  0  0  0  0  0  0  0
  -27.9381  -23.3089   21.9497 C   0  0  0  0  0  0  0  0  0  0  0  0
  -23.7997  -15.1180   21.2810 C   0  0  0  0  0  0  0  0  0  0  0  0
  -24.2989  -12.6271   21.0490 C   0  0  0  0  0  0  0  0  0  0  0  0
  -27.1110  -32.5827   22.0788 C   0  0  0  0  0  0  0  0  0  0  0  0
  -23.9257  -27.1579   19.9345 C   0  0  0  0  0  0  0  0  0  0  0  0
  -26.7768  -31.2203   22.1993 C   0  0  0  0  0  0  0  0  0  0  0  0
  -23.3100  -26.2531   20.8111 C   0  0  0  0  0  0  0  0  0  0  0  0
  -22.2170  -17.3001   21.9992 C   0  0  0  0  0  0  0  0  0  0  0  0
  -24.8484  -24.5180   20.0813 C   0  0  0  0  0  0  0  0  0  0  0  0
  -20.8160  -18.3259   23.5826 C   0  0  0  0  0  0  0  0  0  0  0  0
  -19.5529  -18.2497   26.0689 C   0  0  0  0  0  0  0  0  0  0  0  0
  -19.9110  -17.3053   23.8741 C   0  0  0  0  0  0  0  0  0  0  0  0
  -24.6173  -13.9913   20.9093 C   0  0  0  0  0  0  0  0  0  0  0  0
  -29.2788  -23.4393   21.7211 C   0  0  0  0  0  0  0  0  0  0  0  0
  -25.3957  -11.9660   20.5526 C   0  0  0  0  0  0  0  0  0  0  0  0
  -28.6585  -21.4328   21.0214 C   0  0  0  0  0  0  0  0  0  0  0  0
  -23.1173  -12.0125   21.5798 C   0  0  0  0  0  0  0  0  0  0  0  0
  -23.5906  -29.3492   22.2126 C   0  0  0  0  0  0  0  0  0  0  0  0
  -20.4649  -28.5023   22.0258 C   0  0  0  0  0  0  0  0  0  0  0  0
  -18.1481  -26.1412   21.1863 C   0  0  0  0  0  0  0  0  0  0  0  0
  -28.4208  -16.2660   18.5370 C   0  0  0  0  0  0  0  0  0  0  0  0
  -26.2716  -33.6644   22.7113 C   0  0  0  0  0  0  0  0  0  0  0  0
  -23.4222  -28.5707   19.8206 C   0  0  0  0  0  0  0  0  0  0  0  0
  -22.1553  -26.6600   21.6885 C   0  0  0  0  0  0  0  0  0  0  0  0
  -24.8642  -33.2044   23.0827 C   0  0  0  0  0  0  0  0  0  0  0  0
  -29.1937  -13.8278   21.2548 C   0  0  0  0  0  0  0  0  0  0  0  0
  -24.9143  -31.8600   23.8017 C   0  0  0  0  0  0  0  0  0  0  0  0
  -29.7589  -26.0048   21.4770 C   0  0  0  0  0  0  0  0  0  0  0  0
  -30.9553  -25.2925   20.9280 C   0  0  0  0  0  0  0  0  0  0  0  0
  -28.7286  -12.5190   20.6186 C   0  0  0  0  0  0  0  0  0  0  0  0
  -29.6511  -14.8124   20.1888 C   0  0  0  0  0  0  0  0  0  0  0  0
  -29.6856  -19.7275   19.4021 C   0  0  0  0  0  0  0  0  0  0  0  0
  -27.7816  -19.0265   20.9130 C   0  0  0  0  0  0  0  0  0  0  0  0
  -29.1507  -18.6105   18.5154 C   0  0  0  0  0  0  0  0  0  0  0  0
  -28.3740  -17.6406   20.6747 C   0  0  0  0  0  0  0  0  0  0  0  0
  -28.1029  -13.8190   18.5343 C   0  0  0  0  0  0  0  0  0  0  0  0
  -25.5116  -30.7736   22.8993 C   0  0  1  0  0  0  0  0  0  0  0  0
  -30.1448  -24.6469   22.0398 C   0  0  0  0  0  0  0  0  0  0  0  0
  -22.6728  -29.0400   21.0638 C   0  0  1  0  0  0  0  0  0  0  0  0
  -27.6490  -12.7400   19.5394 C   0  0  2  0  0  0  0  0  0  0  0  0
  -15.6738  -25.7230   21.1828 C   0  0  0  0  0  0  0  0  0  0  0  0
  -20.5442  -28.0223   25.0380 C   0  0  0  0  0  0  0  0  0  0  0  0
  -18.4088  -26.7340   24.8187 C   0  0  0  0  0  0  0  0  0  0  0  0
  -18.4709  -29.1539   24.2162 C   0  0  0  0  0  0  0  0  0  0  0  0
  -18.0878  -25.8288   18.2439 C   0  0  0  0  0  0  0  0  0  0  0  0
  -26.2423  -21.5047   21.5590 C   0  0  0  0  0  0  0  0  0  0  0  0
  -25.1662  -22.5756   21.4161 C   0  0  0  0  0  0  0  0  0  1  0  0
  -19.5947  -27.4702   22.7014 C   0  0  1  0  0  0  0  0  0  0  0  0
  -16.8631  -26.2317   20.3832 C   0  0  2  0  0  0  0  0  0  0  0  0
  -19.2777  -27.8376   24.1786 C   0  0  0  0  0  0  0  0  0  0  0  0
  -25.8221  -14.1867   20.3669 N   0  0  0  0  0  0  0  0  0  0  0  0
  -27.5810  -22.0581   21.5068 N   0  0  0  0  0  0  0  0  0  0  0  0
  -26.2705  -12.9366   20.1614 N   0  0  0  0  0  0  0  0  0  0  0  0
  -29.6983  -22.2638   21.1465 N   0  3  0  0  0  0  0  0  0  0  0  0
  -28.7065  -20.0962   20.4566 N   0  0  0  0  0  0  0  0  0  0  0  0
  -21.7034  -28.0538   21.5453 N   0  0  0  0  0  0  0  0  0  0  0  0
  -28.6096  -15.0333   19.1815 N   0  0  0  0  0  0  0  0  0  0  0  0
  -28.7249  -17.4298   19.2651 N   0  0  0  0  0  0  0  0  0  0  0  0
  -25.6877  -10.6550   20.4170 N   0  0  0  0  0  0  0  0  0  0  0  0
  -22.0864  -12.8391   22.0468 N   0  0  0  0  0  0  0  0  0  0  0  0
  -24.5314  -30.3224   21.9349 N   0  0  0  0  0  0  0  0  0  0  0  0
  -18.4146  -27.3157   21.8576 N   0  0  0  0  0  0  0  0  0  0  0  0
  -16.9728  -25.4215   19.1372 N   0  3  0  0  0  0  0  0  0  0  0  0
  -22.9866  -10.7671   21.6534 O   0  0  0  0  0  0  0  0  0  0  0  0
  -23.4543  -28.7502   23.2729 O   0  0  0  0  0  0  0  0  0  0  0  0
  -20.0577  -29.6620   21.9216 O   0  0  0  0  0  0  0  0  0  0  0  0
  -18.8438  -25.1285   21.2180 O   0  0  0  0  0  0  0  0  0  0  0  0
  -27.9752  -16.3274   17.3835 O   0  0  0  0  0  0  0  0  0  0  0  0
  -21.4444  -18.3647   22.3493 O   0  0  0  0  0  0  0  0  0  0  0  0
  -25.3004  -23.2267   20.1591 O   0  0  0  0  0  0  0  0  0  1  0  0
  -18.9477  -18.2124   27.2632 F   0  0  0  0  0  0  0  0  0  0  0  0
  -19.6451  -16.3580   22.9644 F   0  0  0  0  0  0  0  0  0  0  0  0
  1  2  1  0  0  0  0
  1  5  2  0  0  0  0
  2  6  2  0  0  0  0
  3  8  2  0  0  0  0
  3 16  1  0  0  0  0
  4  9  1  0  0  0  0
  4 16  2  0  0  0  0
  5 18  1  0  0  0  0
  6 20  1  0  0  0  0
  7 10  2  0  0  0  0
  7 19  1  0  0  0  0
  8 22  1  0  0  0  0
  9 22  2  0  0  0  0
 10 23  1  0  0  0  0
 11 12  2  0  0  0  0
 11 24  1  0  0  0  0
 12 25  1  0  0  0  0
 13 21  1  0  0  0  0
 13 23  2  0  0  0  0
 14 25  2  0  0  0  0
 14 26  1  0  0  0  0
 15 28  2  0  0  0  0
 15 66  1  0  0  0  0
 16 27  1  0  0  0  0
 17 27  1  0  0  0  0
 17 29  2  0  0  0  0
 17 31  1  0  0  0  0
 18 20  2  0  0  0  0
 18 36  1  0  0  0  0
 19 21  2  0  0  0  0
 19 37  1  0  0  0  0
 20 51  1  0  0  0  0
 21 38  1  0  0  0  0
 22 83  1  0  0  0  0
 23 84  1  0  0  0  0
 24 26  2  0  0  0  0
 24 83  1  0  0  0  0
 25 85  1  0  0  0  0
 26 86  1  0  0  0  0
 27 65  2  0  0  0  0
 28 52  1  0  0  0  0
 28 68  1  0  0  0  0
 29 67  1  0  0  0  0
 29 73  1  0  0  0  0
 30 66  1  0  0  0  0
 30 68  2  0  0  0  0
 30 69  1  0  0  0  0
 31 74  1  0  0  0  0
 31 78  2  0  0  0  0
 32 53  1  0  0  0  0
 32 75  1  0  0  0  0
 32 79  2  0  0  0  0
 33 62  1  0  0  0  0
 33 70  1  0  0  0  0
 33 80  2  0  0  0  0
 34 63  1  0  0  0  0
 34 76  1  0  0  0  0
 34 81  2  0  0  0  0
 35 71  1  0  0  0  0
 35 72  1  0  0  0  0
 35 82  2  0  0  0  0
 36 39  1  0  0  0  0
 37 53  1  0  0  0  0
 38 70  1  0  0  0  0
 39 41  1  0  0  0  0
 40 44  1  0  0  0  0
 40 45  1  0  0  0  0
 41 51  1  0  0  0  0
 42 43  1  0  0  0  0
 42 52  1  0  0  0  0
 43 52  1  0  0  0  0
 44 54  1  0  0  0  0
 45 71  1  0  0  0  0
 46 48  1  0  0  0  0
 46 69  1  0  0  0  0
 47 49  1  0  0  0  0
 47 69  1  0  0  0  0
 48 72  1  0  0  0  0
 49 72  1  0  0  0  0
 50 54  1  0  0  0  0
 50 71  1  0  0  0  0
 51 75  1  0  0  0  0
 53 70  1  0  0  0  0
 54 67  1  0  0  0  0
 55 63  1  0  0  0  0
 56 64  1  0  0  0  0
 57 64  1  0  0  0  0
 58 64  1  0  0  0  0
 59 77  1  0  0  0  0
 60 61  1  0  0  0  0
 60 66  1  0  0  0  0
 61 84  1  0  0  0  0
 62 64  1  0  0  0  0
 62 76  1  0  0  0  0
 63 77  1  0  0  0  0
 65 67  1  0  0  0  0
M  CHG  2  68   1  77   1
M  ISO  4  35 100  61 101  72 100  84 101
M  END
> <Batch ID>
0191

> <Smiles>
CNC(C)C(=O)NC(C(=O)N1Cc2cc([101O:1][101CH2:1]Cn3cc(C4CC4)nc3N3CC[100N:0]([100C:0](=O)N4CCCC(n5nc(-c6ccc(Oc7ccc(F)cc7F)cc6)c(C(N)=O)c5N)C4)CC3)ccc2CC1C(=O)NC1CCCc2ccccc21)C(C)(C)C

> <Shape>
0.278

> <Color>
0.070

> <Negative vol penalty>
0.000

$$$$

  -OEChem-04052323273D

 82 90  0     1  0  0  0  0  0999 V2000
  -24.1659  -36.6262   22.5489 C   0  0  0  0  0  0  0  0  0  0  0  0
  -23.1491  -35.7340   22.8736 C   0  0  0  0  0  0  0  0  0  0  0  0
  -26.0123   -9.0339   21.4839 C   0  0  0  0  0  0  0  0  0  0  0  0
  -25.8977   -9.4752   19.1113 C   0  0  0  0  0  0  0  0  0  0  0  0
  -24.7072  -36.6269   21.2640 C   0  0  0  0  0  0  0  0  0  0  0  0
  -22.6722  -34.8426   21.9132 C   0  0  0  0  0  0  0  0  0  0  0  0
  -25.4975  -27.9214   18.8418 C   0  0  0  0  0  0  0  0  0  0  0  0
  -26.5351   -7.7673   21.2231 C   0  0  0  0  0  0  0  0  0  0  0  0
  -26.4205   -8.2086   18.8505 C   0  0  0  0  0  0  0  0  0  0  0  0
  -26.7201  -27.3229   19.1472 C   0  0  0  0  0  0  0  0  0  0  0  0
  -27.5639   -4.2798   21.1715 C   0  0  0  0  0  0  0  0  0  0  0  0
  -27.0417   -3.2014   21.8856 C   0  0  0  0  0  0  0  0  0  0  0  0
  -27.0152  -28.8472   21.0013 C   0  0  0  0  0  0  0  0  0  0  0  0
  -24.8505   -3.6611   20.9774 C   0  0  0  0  0  0  0  0  0  0  0  0
  -25.6936   -9.8878   20.4280 C   0  0  0  0  0  0  0  0  0  0  0  0
  -23.9608  -11.4991   21.3814 C   0  0  0  0  0  0  0  0  0  0  0  0
  -24.2433  -35.7285   20.2902 C   0  0  0  0  0  0  0  0  0  0  0  0
  -25.0213  -28.9763   19.6253 C   0  0  0  0  0  0  0  0  0  0  0  0
  -23.2068  -34.8322   20.6137 C   0  0  0  0  0  0  0  0  0  0  0  0
  -25.7854  -29.4424   20.7077 C   0  0  0  0  0  0  0  0  0  0  0  0
  -26.7392   -7.3546   19.9064 C   0  0  0  0  0  0  0  0  0  0  0  0
  -27.4771  -27.7849   20.2241 C   0  0  0  0  0  0  0  0  0  0  0  0
  -26.7294   -5.0490   20.3604 C   0  0  0  0  0  0  0  0  0  0  0  0
  -25.6850   -2.8920   21.7885 C   0  0  0  0  0  0  0  0  0  0  0  0
  -25.3727   -4.7396   20.2634 C   0  0  0  0  0  0  0  0  0  0  0  0
  -25.1530  -11.1961   20.6967 C   0  0  0  0  0  0  0  0  0  0  0  0
  -23.8974  -12.8711   21.3697 C   0  0  0  0  0  0  0  0  0  0  0  0
  -22.9970  -10.6191   21.9750 C   0  0  0  0  0  0  0  0  0  0  0  0
  -22.2807  -31.4620   20.2464 C   0  0  0  0  0  0  0  0  0  0  0  0
  -28.8329  -19.9287   21.7006 C   0  0  0  0  0  0  0  0  0  0  0  0
  -23.1961  -30.4407   22.9904 C   0  0  0  0  0  0  0  0  0  0  0  0
  -20.9474  -27.8992   23.3388 C   0  0  0  0  0  0  0  0  0  0  0  0
  -28.3136  -16.9189   20.7647 C   0  0  0  0  0  0  0  0  0  0  0  0
  -24.8267  -35.7986   18.9011 C   0  0  0  0  0  0  0  0  0  0  0  0
  -23.7391  -29.6911   19.2958 C   0  0  0  0  0  0  0  0  0  0  0  0
  -25.2499  -30.6024   21.5017 C   0  0  0  0  0  0  0  0  0  0  0  0
  -24.5238  -34.5678   18.0504 C   0  0  0  0  0  0  0  0  0  0  0  0
  -25.8634  -15.6665   18.0801 C   0  0  0  0  0  0  0  0  0  0  0  0
  -23.0499  -34.1912   18.1621 C   0  0  0  0  0  0  0  0  0  0  0  0
  -24.8068  -15.2563   19.1015 C   0  0  0  0  0  0  0  0  0  0  0  0
  -26.8725  -16.6309   18.6957 C   0  0  0  0  0  0  0  0  0  0  0  0
  -28.1777  -22.3526   22.0992 C   0  0  0  0  0  0  0  0  0  0  0  0
  -29.8181  -21.7539   20.3542 C   0  0  0  0  0  0  0  0  0  0  0  0
  -26.9557  -14.8643   20.4548 C   0  0  0  0  0  0  0  0  0  0  0  0
  -27.4433  -23.2576   21.1191 C   0  0  0  0  0  0  0  0  0  0  0  0
  -29.1057  -22.6490   19.3507 C   0  0  0  0  0  0  0  0  0  0  0  0
  -22.6799  -33.8331   19.6065 C   0  0  1  0  0  0  0  0  0  0  0  0
  -22.9745  -30.1654   20.5447 C   0  0  1  0  0  0  0  0  0  0  0  0
  -25.4238  -14.7232   20.4129 C   0  0  2  0  0  0  0  0  0  0  0  0
  -22.0993  -26.1289   21.9837 C   0  0  0  0  0  0  0  0  0  0  0  0
  -20.0013  -32.1801   23.1516 C   0  0  0  0  0  0  0  0  0  0  0  0
  -20.0967  -30.7192   21.1206 C   0  0  0  0  0  0  0  0  0  0  0  0
  -21.9559  -32.3126   21.5971 C   0  0  0  0  0  0  0  0  0  0  0  0
  -18.5980  -25.8666   21.6165 C   0  0  0  0  0  0  0  0  0  0  0  0
  -29.6643  -19.0021   20.8497 C   0  0  0  0  0  0  0  0  0  0  0  0
  -29.2971  -24.8723   20.5359 C   0  0  0  0  0  0  0  0  0  0  0  0
  -29.0772  -26.1089   19.6870 C   0  0  0  0  0  0  0  0  0  1  0  0
  -21.7019  -30.2415   23.0248 C   0  0  1  0  0  0  0  0  0  0  0  0
  -20.7823  -26.5900   22.5883 C   0  0  2  0  0  0  0  0  0  0  0  0
  -20.9381  -31.3519   22.2496 C   0  0  0  0  0  0  0  0  0  0  0  0
  -25.8001  -12.2878   20.2802 N   0  0  0  0  0  0  0  0  0  0  0  0
  -25.0118  -13.2902   20.7043 N   0  0  0  0  0  0  0  0  0  0  0  0
  -23.8066  -30.4310   21.7304 N   0  0  0  0  0  0  0  0  0  0  0  0
  -28.9015  -21.2879   21.3954 N   0  0  0  0  0  0  0  0  0  0  0  0
  -27.3896  -16.1850   19.9957 N   0  0  0  0  0  0  0  0  0  0  0  0
  -22.9975  -13.7479   21.8637 N   0  0  0  0  0  0  0  0  0  0  0  0
  -23.2164   -9.2371   21.8961 N   0  0  0  0  0  0  0  0  0  0  0  0
  -23.1376  -32.4987   19.9295 N   0  0  0  0  0  0  0  0  0  0  0  0
  -21.4586  -28.8912   22.5290 N   0  0  0  0  0  0  0  0  0  0  0  0
  -28.7187  -18.1248   20.1980 N   0  0  0  0  0  0  0  0  0  0  0  0
  -28.3871  -23.7740   20.0584 N   0  3  0  0  0  0  0  0  0  0  0  0
  -19.7889  -26.7453   21.4883 N   0  3  0  0  0  0  0  0  0  0  0  0
  -21.9633  -11.0452   22.5436 O   0  0  0  0  0  0  0  0  0  0  0  0
  -21.0577  -31.5187   20.2982 O   0  0  0  0  0  0  0  0  0  0  0  0
  -28.1460  -19.4572   22.6105 O   0  0  0  0  0  0  0  0  0  0  0  0
  -23.8086  -30.5952   24.0508 O   0  0  0  0  0  0  0  0  0  0  0  0
  -20.6490  -28.0299   24.5239 O   0  0  0  0  0  0  0  0  0  0  0  0
  -28.7406  -16.5323   21.8568 O   0  0  0  0  0  0  0  0  0  0  0  0
  -27.2495   -6.1188   19.6515 O   0  0  0  0  0  0  0  0  0  0  0  0
  -28.6677  -27.1931   20.5195 O   0  0  0  0  0  0  0  0  0  1  0  0
  -25.1840   -1.8555   22.4731 F   0  0  0  0  0  0  0  0  0  0  0  0
  -24.5664   -5.4741   19.4849 F   0  0  0  0  0  0  0  0  0  0  0  0
  1  2  1  0  0  0  0
  1  5  2  0  0  0  0
  2  6  2  0  0  0  0
  3  8  2  0  0  0  0
  3 15  1  0  0  0  0
  4  9  1  0  0  0  0
  4 15  2  0  0  0  0
  5 17  1  0  0  0  0
  6 19  1  0  0  0  0
  7 10  2  0  0  0  0
  7 18  1  0  0  0  0
  8 21  1  0  0  0  0
  9 21  2  0  0  0  0
 10 22  1  0  0  0  0
 11 12  2  0  0  0  0
 11 23  1  0  0  0  0
 12 24  1  0  0  0  0
 13 20  1  0  0  0  0
 13 22  2  0  0  0  0
 14 24  2  0  0  0  0
 14 25  1  0  0  0  0
 15 26  1  0  0  0  0
 16 26  1  0  0  0  0
 16 27  2  0  0  0  0
 16 28  1  0  0  0  0
 17 19  2  0  0  0  0
 17 34  1  0  0  0  0
 18 20  2  0  0  0  0
 18 35  1  0  0  0  0
 19 47  1  0  0  0  0
 20 36  1  0  0  0  0
 21 79  1  0  0  0  0
 22 80  1  0  0  0  0
 23 25  2  0  0  0  0
 23 79  1  0  0  0  0
 24 81  1  0  0  0  0
 25 82  1  0  0  0  0
 26 61  2  0  0  0  0
 27 62  1  0  0  0  0
 27 66  1  0  0  0  0
 28 67  1  0  0  0  0
 28 73  2  0  0  0  0
 29 48  1  0  0  0  0
 29 68  1  0  0  0  0
 29 74  2  0  0  0  0
 30 55  1  0  0  0  0
 30 64  1  0  0  0  0
 30 75  2  0  0  0  0
 31 58  1  0  0  0  0
 31 63  1  0  0  0  0
 31 76  2  0  0  0  0
 32 59  1  0  0  0  0
 32 69  1  0  0  0  0
 32 77  2  0  0  0  0
 33 65  1  0  0  0  0
 33 70  1  0  0  0  0
 33 78  2  0  0  0  0
 34 37  1  0  0  0  0
 35 48  1  0  0  0  0
 36 63  1  0  0  0  0
 37 39  1  0  0  0  0
 38 40  1  0  0  0  0
 38 41  1  0  0  0  0
 39 47  1  0  0  0  0
 40 49  1  0  0  0  0
 41 65  1  0  0  0  0
 42 45  1  0  0  0  0
 42 64  1  0  0  0  0
 43 46  1  0  0  0  0
 43 64  1  0  0  0  0
 44 49  1  0  0  0  0
 44 65  1  0  0  0  0
 45 71  1  0  0  0  0
 46 71  1  0  0  0  0
 47 68  1  0  0  0  0
 48 63  1  0  0  0  0
 49 62  1  0  0  0  0
 50 59  1  0  0  0  0
 51 60  1  0  0  0  0
 52 60  1  0  0  0  0
 53 60  1  0  0  0  0
 54 72  1  0  0  0  0
 55 70  1  0  0  0  0
 56 57  1  0  0  0  0
 56 71  1  0  0  0  0
 57 80  1  0  0  0  0
 58 60  1  0  0  0  0
 58 69  1  0  0  0  0
 59 72  1  0  0  0  0
 61 62  1  0  0  0  0
M  CHG  2  71   1  72   1
M  ISO  4  33 100  57 101  70 100  80 101
M  END
> <Batch ID>
0191

> <Smiles>
CNC(C)C(=O)NC(C(=O)N1Cc2cc([101O:1][101CH2:1]CN3CCN(C(=O)C[100NH:0][100C:0](=O)N4CCCC(n5nc(-c6ccc(Oc7ccc(F)cc7F)cc6)c(C(N)=O)c5N)C4)CC3)ccc2CC1C(=O)NC1CCCc2ccccc21)C(C)(C)C

> <Shape>
0.257

> <Color>
0.088

> <Negative vol penalty>
0.000

$$$$

  -OEChem-04052323273D

 82 91  0     1  0  0  0  0  0999 V2000
  -17.5659  -26.3961   21.6252 C   0  0  0  0  0  0  0  0  0  0  0  0
  -18.7504  -26.5791   20.9189 C   0  0  0  0  0  0  0  0  0  0  0  0
  -25.9084  -13.4262   19.4831 C   0  0  0  0  0  0  0  0  0  0  0  0
  -25.6408  -12.9696   21.8404 C   0  0  0  0  0  0  0  0  0  0  0  0
  -17.3632  -27.0676   22.8301 C   0  0  0  0  0  0  0  0  0  0  0  0
  -19.7326  -27.4347   21.4167 C   0  0  0  0  0  0  0  0  0  0  0  0
  -24.3792  -25.4446   21.1112 C   0  0  0  0  0  0  0  0  0  0  0  0
  -25.5921  -12.0997   19.1902 C   0  0  0  0  0  0  0  0  0  0  0  0
  -25.3244  -11.6430   21.5475 C   0  0  0  0  0  0  0  0  0  0  0  0
  -25.0012  -25.4681   19.8637 C   0  0  0  0  0  0  0  0  0  0  0  0
  -24.0938   -8.2252   21.3981 C   0  0  0  0  0  0  0  0  0  0  0  0
  -23.0059   -7.6558   22.0597 C   0  0  0  0  0  0  0  0  0  0  0  0
  -26.2752  -27.4010   20.5421 C   0  0  0  0  0  0  0  0  0  0  0  0
  -21.5506   -9.3359   21.1128 C   0  0  0  0  0  0  0  0  0  0  0  0
  -25.9328  -13.8612   20.8083 C   0  0  0  0  0  0  0  0  0  0  0  0
  -25.3675  -16.3144   21.2202 C   0  0  0  0  0  0  0  0  0  0  0  0
  -18.3474  -27.9244   23.3478 C   0  0  0  0  0  0  0  0  0  0  0  0
  -24.6931  -26.4073   22.0813 C   0  0  0  0  0  0  0  0  0  0  0  0
  -19.5423  -28.1193   22.6290 C   0  0  0  0  0  0  0  0  0  0  0  0
  -25.6576  -27.3859   21.8020 C   0  0  0  0  0  0  0  0  0  0  0  0
  -25.3001  -11.2081   20.2224 C   0  0  0  0  0  0  0  0  0  0  0  0
  -25.9472  -26.4482   19.5779 C   0  0  0  0  0  0  0  0  0  0  0  0
  -23.9102   -9.3500   20.5938 C   0  0  0  0  0  0  0  0  0  0  0  0
  -21.7343   -8.2112   21.9171 C   0  0  0  0  0  0  0  0  0  0  0  0
  -22.6386   -9.9053   20.4511 C   0  0  0  0  0  0  0  0  0  0  0  0
  -26.2600  -15.2312   21.1115 C   0  0  0  0  0  0  0  0  0  0  0  0
  -26.1675  -17.3898   21.5203 C   0  0  0  0  0  0  0  0  0  0  0  0
  -23.9426  -16.3457   21.0640 C   0  0  0  0  0  0  0  0  0  0  0  0
  -23.0635  -28.6731   23.6026 C   0  0  0  0  0  0  0  0  0  0  0  0
  -25.8300  -29.0027   25.2639 C   0  0  0  0  0  0  0  0  0  0  0  0
  -29.2154  -28.5838   25.3665 C   0  0  0  0  0  0  0  0  0  0  0  0
  -30.7793  -20.3746   20.5256 C   0  0  0  0  0  0  0  0  0  0  0  0
  -18.0634  -28.6651   24.6305 C   0  0  0  0  0  0  0  0  0  0  0  0
  -24.0328  -26.3521   23.4317 C   0  0  0  0  0  0  0  0  0  0  0  0
  -26.0449  -28.4299   22.8163 C   0  0  0  0  0  0  0  0  0  0  0  0
  -19.3099  -29.2644   25.2766 C   0  0  0  0  0  0  0  0  0  0  0  0
  -31.0463  -17.6247   22.8434 C   0  0  0  0  0  0  0  0  0  0  0  0
  -20.1560  -29.9883   24.2341 C   0  0  0  0  0  0  0  0  0  0  0  0
  -29.7633  -16.8281   22.5951 C   0  0  0  0  0  0  0  0  0  0  0  0
  -31.5714  -18.2767   21.5649 C   0  0  0  0  0  0  0  0  0  0  0  0
  -29.3117  -18.2908   20.5924 C   0  0  0  0  0  0  0  0  0  0  0  0
  -28.9157  -22.9868   22.6520 C   0  0  0  0  0  0  0  0  0  0  0  0
  -20.6418  -29.0200   23.1488 C   0  0  1  0  0  0  0  0  0  0  0  0
  -24.0536  -27.6912   24.1622 C   0  0  1  0  0  0  0  0  0  0  0  0
  -28.5827  -22.8877   21.1657 C   0  0  1  0  0  0  0  0  0  0  0  0
  -28.7085  -17.6828   21.8662 C   0  0  1  0  0  0  0  0  0  0  0  0
  -29.7858  -22.7070   20.2369 C   0  0  2  0  0  0  0  0  0  0  0  0
  -28.5219  -21.3797   21.3477 C   0  0  1  0  0  0  0  0  0  0  0  0
  -31.2059  -28.9832   26.8415 C   0  0  0  0  0  0  0  0  0  0  0  0
  -30.6359  -22.3823   17.8818 C   0  0  0  0  0  0  0  0  0  0  0  0
  -25.7521  -31.9710   24.5614 C   0  0  0  0  0  0  0  0  0  0  0  0
  -28.1647  -32.1174   25.2139 C   0  0  0  0  0  0  0  0  0  0  0  0
  -26.4527  -31.4728   26.9099 C   0  0  0  0  0  0  0  0  0  0  0  0
  -29.8427  -25.6945   25.4989 C   0  0  0  0  0  0  0  0  0  0  0  0
  -28.6344  -26.3141   17.1674 C   0  0  0  0  0  0  0  0  0  0  0  0
  -28.7126  -24.8004   17.2980 C   0  0  0  0  0  0  0  0  0  0  0  0
  -27.8840  -26.9899   18.3085 C   0  0  0  0  0  0  0  0  0  1  0  0
  -27.0847  -29.8259   25.0987 C   0  0  1  0  0  0  0  0  0  0  0  0
  -30.1258  -27.9952   26.4291 C   0  0  2  0  0  0  0  0  0  0  0  0
  -29.5316  -22.9497   18.7618 C   0  0  2  0  0  0  0  0  0  0  0  0
  -26.8551  -31.3284   25.4259 C   0  0  0  0  0  0  0  0  0  0  0  0
  -27.5299  -15.5861   21.3250 N   0  0  0  0  0  0  0  0  0  0  0  0
  -27.4410  -16.9044   21.5707 N   0  0  0  0  0  0  0  0  0  0  0  0
  -25.3668  -28.3378   24.1198 N   0  0  0  0  0  0  0  0  0  0  0  0
  -30.5179  -19.0592   20.9154 N   0  0  0  0  0  0  0  0  0  0  0  0
  -29.7374  -21.2775   20.5594 N   0  0  0  0  0  0  0  0  0  0  0  0
  -25.8987  -18.6938   21.7431 N   0  0  0  0  0  0  0  0  0  0  0  0
  -23.2778  -15.1508   20.7563 N   0  0  0  0  0  0  0  0  0  0  0  0
  -21.7542  -28.2324   23.6353 N   0  0  0  0  0  0  0  0  0  0  0  0
  -28.1049  -29.1844   25.9209 N   0  0  0  0  0  0  0  0  0  0  0  0
  -28.6733  -21.5419   22.7919 N   0  3  0  0  0  0  0  0  0  0  0  0
  -30.7875  -26.7613   25.9187 N   0  3  0  0  0  0  0  0  0  0  0  0
  -29.4540  -24.4189   18.5278 N   0  3  0  0  0  0  0  0  0  0  0  0
  -23.2804  -17.4050   21.1773 O   0  0  0  0  0  0  0  0  0  0  0  0
  -23.4580  -29.7513   23.1742 O   0  0  0  0  0  0  0  0  0  0  0  0
  -25.2852  -28.9459   26.3692 O   0  0  0  0  0  0  0  0  0  0  0  0
  -29.4663  -28.5206   24.1650 O   0  0  0  0  0  0  0  0  0  0  0  0
  -31.9128  -20.7451   20.1937 O   0  0  0  0  0  0  0  0  0  0  0  0
  -24.9911   -9.9136   19.9369 O   0  0  0  0  0  0  0  0  0  0  0  0
  -26.5596  -26.4740   18.3523 O   0  0  0  0  0  0  0  0  0  1  0  0
  -20.6894   -7.6634   22.5514 F   0  0  0  0  0  0  0  0  0  0  0  0
  -22.4558  -10.9851   19.6789 F   0  0  0  0  0  0  0  0  0  0  0  0
  1  2  1  0  0  0  0
  1  5  2  0  0  0  0
  2  6  2  0  0  0  0
  3  8  2  0  0  0  0
  3 15  1  0  0  0  0
  4  9  1  0  0  0  0
  4 15  2  0  0  0  0
  5 17  1  0  0  0  0
  6 19  1  0  0  0  0
  7 10  2  0  0  0  0
  7 18  1  0  0  0  0
  8 21  1  0  0  0  0
  9 21  2  0  0  0  0
 10 22  1  0  0  0  0
 11 12  2  0  0  0  0
 11 23  1  0  0  0  0
 12 24  1  0  0  0  0
 13 20  1  0  0  0  0
 13 22  2  0  0  0  0
 14 24  2  0  0  0  0
 14 25  1  0  0  0  0
 15 26  1  0  0  0  0
 16 26  1  0  0  0  0
 16 27  2  0  0  0  0
 16 28  1  0  0  0  0
 17 19  2  0  0  0  0
 17 33  1  0  0  0  0
 18 20  2  0  0  0  0
 18 34  1  0  0  0  0
 19 43  1  0  0  0  0
 20 35  1  0  0  0  0
 21 79  1  0  0  0  0
 22 80  1  0  0  0  0
 23 25  2  0  0  0  0
 23 79  1  0  0  0  0
 24 81  1  0  0  0  0
 25 82  1  0  0  0  0
 26 62  2  0  0  0  0
 27 63  1  0  0  0  0
 27 67  1  0  0  0  0
 28 68  1  0  0  0  0
 28 74  2  0  0  0  0
 29 44  1  0  0  0  0
 29 69  1  0  0  0  0
 29 75  2  0  0  0  0
 30 58  1  0  0  0  0
 30 64  1  0  0  0  0
 30 76  2  0  0  0  0
 31 59  1  0  0  0  0
 31 70  1  0  0  0  0
 31 77  2  0  0  0  0
 32 65  1  0  0  0  0
 32 66  1  0  0  0  0
 32 78  2  0  0  0  0
 33 36  1  0  0  0  0
 34 44  1  0  0  0  0
 35 64  1  0  0  0  0
 36 38  1  0  0  0  0
 37 39  1  0  0  0  0
 37 40  1  0  0  0  0
 38 43  1  0  0  0  0
 39 46  1  0  0  0  0
 40 65  1  0  0  0  0
 41 46  1  0  0  0  0
 41 65  1  0  0  0  0
 42 45  1  0  0  0  0
 42 71  1  0  0  0  0
 43 69  1  0  0  0  0
 44 64  1  0  0  0  0
 45 47  1  0  0  0  0
 45 48  1  0  0  0  0
 46 63  1  0  0  0  0
 47 60  1  0  0  0  0
 47 66  1  0  0  0  0
 48 66  1  0  0  0  0
 48 71  1  0  0  0  0
 49 59  1  0  0  0  0
 50 60  1  0  0  0  0
 51 61  1  0  0  0  0
 52 61  1  0  0  0  0
 53 61  1  0  0  0  0
 54 72  1  0  0  0  0
 55 56  1  0  0  0  0
 55 57  1  0  0  0  0
 56 73  1  0  0  0  0
 57 80  1  0  0  0  0
 58 61  1  0  0  0  0
 58 70  1  0  0  0  0
 59 72  1  0  0  0  0
 60 73  1  0  0  0  0
 62 63  1  0  0  0  0
M  CHG  3  71   1  72   1  73   1
M  ISO  4  32 100  57 101  66 100  80 101
M  END
> <Batch ID>
0191

> <Smiles>
CNC(C)C(=O)NC(C(=O)N1Cc2cc([101O:1][101CH2:1]CCNC(C)C3C4CNC4[100N:0]3[100C:0](=O)N3CCCC(n4nc(-c5ccc(Oc6ccc(F)cc6F)cc5)c(C(N)=O)c4N)C3)ccc2CC1C(=O)NC1CCCc2ccccc21)C(C)(C)C

> <Shape>
0.292

> <Color>
0.059

> <Negative vol penalty>
0.000

$$$$

  -OEChem-04052323273D

 82 91  0     1  0  0  0  0  0999 V2000
  -22.8848   -8.0184   22.0758 C   0  0  0  0  0  0  0  0  0  0  0  0
  -24.1570   -8.5815   22.0846 C   0  0  0  0  0  0  0  0  0  0  0  0
  -22.9369  -27.3151   20.4716 C   0  0  0  0  0  0  0  0  0  0  0  0
  -24.2685  -26.9339   22.4511 C   0  0  0  0  0  0  0  0  0  0  0  0
  -21.8690   -8.6057   21.3228 C   0  0  0  0  0  0  0  0  0  0  0  0
  -24.4142   -9.7317   21.3394 C   0  0  0  0  0  0  0  0  0  0  0  0
  -28.3934  -15.6873   21.4589 C   0  0  0  0  0  0  0  0  0  0  0  0
  -21.8258  -26.7687   21.1138 C   0  0  0  0  0  0  0  0  0  0  0  0
  -23.1574  -26.3876   23.0934 C   0  0  0  0  0  0  0  0  0  0  0  0
  -29.2884  -16.4008   20.6629 C   0  0  0  0  0  0  0  0  0  0  0  0
  -19.5317  -27.7546   23.3937 C   0  0  0  0  0  0  0  0  0  0  0  0
  -18.3176  -28.4313   23.2767 C   0  0  0  0  0  0  0  0  0  0  0  0
  -27.4360  -17.3736   19.4625 C   0  0  0  0  0  0  0  0  0  0  0  0
  -17.3321  -26.4837   22.2408 C   0  0  0  0  0  0  0  0  0  0  0  0
  -31.6764  -19.9957   18.2313 C   0  0  0  0  0  0  0  0  0  0  0  0
  -24.1583  -27.3977   21.1402 C   0  0  0  0  0  0  0  0  0  0  0  0
  -25.7056  -29.3115   20.4689 C   0  0  0  0  0  0  0  0  0  0  0  0
  -22.1115   -9.7692   20.5757 C   0  0  0  0  0  0  0  0  0  0  0  0
  -27.0109  -15.8034   21.2552 C   0  0  0  0  0  0  0  0  0  0  0  0
  -23.4010  -10.3344   20.5747 C   0  0  0  0  0  0  0  0  0  0  0  0
  -26.5254  -16.6625   20.2589 C   0  0  0  0  0  0  0  0  0  0  0  0
  -21.9360  -26.3050   22.4247 C   0  0  0  0  0  0  0  0  0  0  0  0
  -28.8099  -17.2419   19.6626 C   0  0  0  0  0  0  0  0  0  0  0  0
  -19.6461  -26.4426   22.9342 C   0  0  0  0  0  0  0  0  0  0  0  0
  -17.2178  -27.7958   22.7003 C   0  0  0  0  0  0  0  0  0  0  0  0
  -18.5463  -25.8072   22.3578 C   0  0  0  0  0  0  0  0  0  0  0  0
  -25.3066  -27.9615   20.4771 C   0  0  0  0  0  0  0  0  0  0  0  0
  -32.4432  -20.7158   17.3381 C   0  0  0  0  0  0  0  0  0  0  0  0
  -31.8622  -18.6284   18.2109 C   0  0  0  0  0  0  0  0  0  0  0  0
  -26.8471  -29.3274   19.7051 C   0  0  0  0  0  0  0  0  0  0  0  0
  -33.4167  -18.8136   16.5628 C   0  0  0  0  0  0  0  0  0  0  0  0
  -25.0989  -30.4493   21.0956 C   0  0  0  0  0  0  0  0  0  0  0  0
  -24.6880  -13.7951   20.4337 C   0  0  0  0  0  0  0  0  0  0  0  0
  -22.7919  -16.3583   21.0313 C   0  0  0  0  0  0  0  0  0  0  0  0
  -22.4937  -19.7500   21.2640 C   0  0  0  0  0  0  0  0  0  0  0  0
  -30.7948  -25.0156   18.6056 C   0  0  0  0  0  0  0  0  0  0  0  0
  -20.9940  -10.3411   19.7396 C   0  0  0  0  0  0  0  0  0  0  0  0
  -26.0578  -15.0475   22.1399 C   0  0  0  0  0  0  0  0  0  0  0  0
  -25.0499  -16.8379   20.0131 C   0  0  0  0  0  0  0  0  0  0  0  0
  -21.2520  -11.7721   19.2750 C   0  0  0  0  0  0  0  0  0  0  0  0
  -29.0095  -27.0578   16.1243 C   0  0  0  0  0  0  0  0  0  0  0  0
  -22.6670  -11.9068   18.7214 C   0  0  0  0  0  0  0  0  0  0  0  0
  -27.8466  -27.5819   16.9593 C   0  0  0  0  0  0  0  0  0  0  0  0
  -29.4472  -25.6555   16.5480 C   0  0  0  0  0  0  0  0  0  0  0  0
  -30.9947  -22.9701   17.0164 C   0  0  0  0  0  0  0  0  0  0  0  0
  -32.5225  -23.1581   18.4809 C   0  0  0  0  0  0  0  0  0  0  0  0
  -28.5739  -26.0726   18.8385 C   0  0  0  0  0  0  0  0  0  0  0  0
  -23.7128  -11.5958   19.7990 C   0  0  1  0  0  0  0  0  0  0  0  0
  -32.3726  -22.2950   17.2111 C   0  0  0  0  0  0  0  0  0  0  0  0
  -24.6847  -14.8478   21.5059 C   0  0  1  0  0  0  0  0  0  0  0  0
  -28.1853  -27.5068   18.4551 C   0  0  2  0  0  0  0  0  0  0  0  0
  -34.3831  -18.1572   15.6363 C   0  0  0  0  0  0  0  0  0  0  0  0
  -20.8111  -21.5521   21.7319 C   0  0  0  0  0  0  0  0  0  0  0  0
  -21.6151  -15.9805   18.2416 C   0  0  0  0  0  0  0  0  0  0  0  0
  -20.6790  -18.2972   18.3987 C   0  0  0  0  0  0  0  0  0  0  0  0
  -19.9413  -16.5438   20.0124 C   0  0  0  0  0  0  0  0  0  0  0  0
  -24.0031  -20.7079   23.6226 C   0  0  0  0  0  0  0  0  0  0  0  0
  -31.0726  -17.7610   19.1465 C   0  0  0  0  0  0  0  0  0  1  0  0
  -22.2674  -17.5139   20.2138 C   0  0  1  0  0  0  0  0  0  0  0  0
  -21.8689  -20.6357   22.3269 C   0  0  2  0  0  0  0  0  0  0  0  0
  -21.1536  -17.0793   19.2197 C   0  0  0  0  0  0  0  0  0  0  0  0
  -26.1277  -27.1768   19.7743 N   0  0  0  0  0  0  0  0  0  0  0  0
  -33.3265  -20.1551   16.4863 N   0  0  0  0  0  0  0  0  0  0  0  0
  -32.7270  -18.0016   17.3865 N   0  0  0  0  0  0  0  0  0  0  0  0
  -27.0540  -28.0364   19.3171 N   0  0  0  0  0  0  0  0  0  0  0  0
  -24.1582  -16.0726   20.9001 N   0  0  0  0  0  0  0  0  0  0  0  0
  -29.6565  -25.5536   17.9959 N   0  0  0  0  0  0  0  0  0  0  0  0
  -31.4513  -23.9949   17.9475 N   0  0  0  0  0  0  0  0  0  0  0  0
  -27.6838  -30.3197   19.3342 N   0  0  0  0  0  0  0  0  0  0  0  0
  -23.9297  -30.2556   21.8439 N   0  0  0  0  0  0  0  0  0  0  0  0
  -23.8614  -12.7199   20.6984 N   0  0  0  0  0  0  0  0  0  0  0  0
  -21.8503  -18.5341   21.1696 N   0  0  0  0  0  0  0  0  0  0  0  0
  -22.9114  -21.4803   22.9756 N   0  3  0  0  0  0  0  0  0  0  0  0
  -25.5701  -31.6063   20.9815 O   0  0  0  0  0  0  0  0  0  0  0  0
  -25.3875  -13.9479   19.4392 O   0  0  0  0  0  0  0  0  0  0  0  0
  -22.0192  -15.7367   21.7650 O   0  0  0  0  0  0  0  0  0  0  0  0
  -23.4539  -20.1030   20.5829 O   0  0  0  0  0  0  0  0  0  0  0  0
  -31.1944  -25.4045   19.7104 O   0  0  0  0  0  0  0  0  0  0  0  0
  -20.8519  -25.7719   23.0518 O   0  0  0  0  0  0  0  0  0  0  0  0
  -29.6813  -17.9389   18.8838 O   0  0  0  0  0  0  0  0  0  1  0  0
  -16.0515  -28.4452   22.5894 F   0  0  0  0  0  0  0  0  0  0  0  0
  -18.6497  -24.5464   21.9155 F   0  0  0  0  0  0  0  0  0  0  0  0
  1  2  1  0  0  0  0
  1  5  2  0  0  0  0
  2  6  2  0  0  0  0
  3  8  2  0  0  0  0
  3 16  1  0  0  0  0
  4  9  1  0  0  0  0
  4 16  2  0  0  0  0
  5 18  1  0  0  0  0
  6 20  1  0  0  0  0
  7 10  2  0  0  0  0
  7 19  1  0  0  0  0
  8 22  1  0  0  0  0
  9 22  2  0  0  0  0
 10 23  1  0  0  0  0
 11 12  2  0  0  0  0
 11 24  1  0  0  0  0
 12 25  1  0  0  0  0
 13 21  1  0  0  0  0
 13 23  2  0  0  0  0
 14 25  2  0  0  0  0
 14 26  1  0  0  0  0
 15 28  2  0  0  0  0
 15 29  1  0  0  0  0
 16 27  1  0  0  0  0
 17 27  1  0  0  0  0
 17 30  2  0  0  0  0
 17 32  1  0  0  0  0
 18 20  2  0  0  0  0
 18 37  1  0  0  0  0
 19 21  2  0  0  0  0
 19 38  1  0  0  0  0
 20 48  1  0  0  0  0
 21 39  1  0  0  0  0
 22 79  1  0  0  0  0
 23 80  1  0  0  0  0
 24 26  2  0  0  0  0
 24 79  1  0  0  0  0
 25 81  1  0  0  0  0
 26 82  1  0  0  0  0
 27 62  2  0  0  0  0
 28 49  1  0  0  0  0
 28 63  1  0  0  0  0
 29 58  1  0  0  0  0
 29 64  2  0  0  0  0
 30 65  1  0  0  0  0
 30 69  1  0  0  0  0
 31 52  1  0  0  0  0
 31 63  2  0  0  0  0
 31 64  1  0  0  0  0
 32 70  1  0  0  0  0
 32 74  2  0  0  0  0
 33 50  1  0  0  0  0
 33 71  1  0  0  0  0
 33 75  2  0  0  0  0
 34 59  1  0  0  0  0
 34 66  1  0  0  0  0
 34 76  2  0  0  0  0
 35 60  1  0  0  0  0
 35 72  1  0  0  0  0
 35 77  2  0  0  0  0
 36 67  1  0  0  0  0
 36 68  1  0  0  0  0
 36 78  2  0  0  0  0
 37 40  1  0  0  0  0
 38 50  1  0  0  0  0
 39 66  1  0  0  0  0
 40 42  1  0  0  0  0
 41 43  1  0  0  0  0
 41 44  1  0  0  0  0
 42 48  1  0  0  0  0
 43 51  1  0  0  0  0
 44 67  1  0  0  0  0
 45 49  1  0  0  0  0
 45 68  1  0  0  0  0
 46 49  1  0  0  0  0
 46 68  1  0  0  0  0
 47 51  1  0  0  0  0
 47 67  1  0  0  0  0
 48 71  1  0  0  0  0
 50 66  1  0  0  0  0
 51 65  1  0  0  0  0
 53 60  1  0  0  0  0
 54 61  1  0  0  0  0
 55 61  1  0  0  0  0
 56 61  1  0  0  0  0
 57 73  1  0  0  0  0
 58 80  1  0  0  0  0
 59 61  1  0  0  0  0
 59 72  1  0  0  0  0
 60 73  1  0  0  0  0
 62 65  1  0  0  0  0
M  CHG  1  73   1
M  ISO  4  36 100  58 101  68 100  80 101
M  END
> <Batch ID>
0191

> <Smiles>
CNC(C)C(=O)NC(C(=O)N1Cc2cc([101O:1][101CH2:1]c3cc(C4C[100N:0]([100C:0](=O)N5CCCC(n6nc(-c7ccc(Oc8ccc(F)cc8F)cc7)c(C(N)=O)c6N)C5)C4)nc(C)n3)ccc2CC1C(=O)NC1CCCc2ccccc21)C(C)(C)C

> <Shape>
0.233

> <Color>
0.064

> <Negative vol penalty>
0.000

$$$$

  -OEChem-04052323273D

 83 92  0     1  0  0  0  0  0999 V2000
  -19.7697  -23.8919   22.4240 C   0  0  0  0  0  0  0  0  0  0  0  0
  -20.9452  -24.2640   21.7797 C   0  0  0  0  0  0  0  0  0  0  0  0
  -24.3563  -13.7406   20.4687 C   0  0  0  0  0  0  0  0  0  0  0  0
  -26.3014  -12.3444   20.7914 C   0  0  0  0  0  0  0  0  0  0  0  0
  -18.8722  -24.8686   22.8536 C   0  0  0  0  0  0  0  0  0  0  0  0
  -21.2234  -25.6132   21.5636 C   0  0  0  0  0  0  0  0  0  0  0  0
  -26.0140  -26.8126   22.6844 C   0  0  0  0  0  0  0  0  0  0  0  0
  -23.5997  -12.6130   20.1497 C   0  0  0  0  0  0  0  0  0  0  0  0
  -25.5449  -11.2167   20.4724 C   0  0  0  0  0  0  0  0  0  0  0  0
  -26.9914  -26.4691   21.7514 C   0  0  0  0  0  0  0  0  0  0  0  0
  -23.2977   -9.2116   22.0054 C   0  0  0  0  0  0  0  0  0  0  0  0
  -23.4400   -8.0866   22.8175 C   0  0  0  0  0  0  0  0  0  0  0  0
  -27.0030  -28.7396   20.9365 C   0  0  0  0  0  0  0  0  0  0  0  0
  -24.1816   -6.8032   20.9096 C   0  0  0  0  0  0  0  0  0  0  0  0
  -25.7071  -13.6063   20.7895 C   0  0  0  0  0  0  0  0  0  0  0  0
  -26.6813  -15.3330   22.3949 C   0  0  0  0  0  0  0  0  0  0  0  0
  -19.1442  -26.2309   22.6513 C   0  0  0  0  0  0  0  0  0  0  0  0
  -25.5151  -28.1219   22.7433 C   0  0  0  0  0  0  0  0  0  0  0  0
  -20.3281  -26.6091   21.9897 C   0  0  0  0  0  0  0  0  0  0  0  0
  -26.0212  -29.0978   21.8729 C   0  0  0  0  0  0  0  0  0  0  0  0
  -24.1940  -11.3511   20.1515 C   0  0  0  0  0  0  0  0  0  0  0  0
  -27.4840  -27.4319   20.8753 C   0  0  0  0  0  0  0  0  0  0  0  0
  -23.5972   -9.1325   20.6453 C   0  0  0  0  0  0  0  0  0  0  0  0
  -23.8821   -6.8824   22.2696 C   0  0  0  0  0  0  0  0  0  0  0  0
  -24.0392   -7.9283   20.0974 C   0  0  0  0  0  0  0  0  0  0  0  0
  -26.4892  -14.7708   21.1186 C   0  0  0  0  0  0  0  0  0  0  0  0
  -27.4965  -16.4161   22.1739 C   0  0  0  0  0  0  0  0  0  0  0  0
  -26.1687  -14.9136   23.6666 C   0  0  0  0  0  0  0  0  0  0  0  0
  -22.6603  -29.4554   22.3249 C   0  0  0  0  0  0  0  0  0  0  0  0
  -24.1979  -32.1333   23.3183 C   0  0  0  0  0  0  0  0  0  0  0  0
  -27.1436  -33.8194   23.6741 C   0  0  0  0  0  0  0  0  0  0  0  0
  -28.9549  -20.8293   19.4825 C   0  0  0  0  0  0  0  0  0  0  0  0
  -18.1216  -27.2484   23.0911 C   0  0  0  0  0  0  0  0  0  0  0  0
  -24.4802  -28.4828   23.7733 C   0  0  0  0  0  0  0  0  0  0  0  0
  -25.5334  -30.5223   21.9090 C   0  0  0  0  0  0  0  0  0  0  0  0
  -18.6684  -28.6721   23.1576 C   0  0  0  0  0  0  0  0  0  0  0  0
  -30.0879  -17.8174   18.0706 C   0  0  0  0  0  0  0  0  0  0  0  0
  -19.4681  -28.9961   21.8996 C   0  0  0  0  0  0  0  0  0  0  0  0
  -29.2624  -16.7899   18.8444 C   0  0  0  0  0  0  0  0  0  0  0  0
  -29.2650  -19.0528   17.7010 C   0  0  0  0  0  0  0  0  0  0  0  0
  -29.1290  -21.9592   17.2193 C   0  0  0  0  0  0  0  0  0  0  0  0
  -30.1652  -22.9747   19.2220 C   0  0  0  0  0  0  0  0  0  0  0  0
  -27.7635  -18.6626   19.6278 C   0  0  0  0  0  0  0  0  0  0  0  0
  -28.3204  -23.2320   16.9808 C   0  0  0  0  0  0  0  0  0  0  0  0
  -29.3576  -24.2494   19.0283 C   0  0  0  0  0  0  0  0  0  0  0  0
  -20.6771  -28.0634   21.7590 C   0  0  1  0  0  0  0  0  0  0  0  0
  -23.6740  -29.7233   23.4012 C   0  0  1  0  0  0  0  0  0  0  0  0
  -28.5789  -17.4351   20.0630 C   0  0  1  0  0  0  0  0  0  0  0  0
  -28.2311  -25.6232   17.3766 C   0  0  2  0  0  0  0  0  0  0  0  0
  -28.1775  -26.1156   15.9223 C   0  0  1  0  0  0  0  0  0  0  0  0
  -28.9928  -26.9312   17.6401 C   0  0  2  0  0  0  0  0  0  0  0  0
  -28.0782  -36.0029   24.4842 C   0  0  0  0  0  0  0  0  0  0  0  0
  -23.1828  -33.5037   20.7882 C   0  0  0  0  0  0  0  0  0  0  0  0
  -24.8817  -35.3037   21.1653 C   0  0  0  0  0  0  0  0  0  0  0  0
  -23.0838  -34.9151   22.8504 C   0  0  0  0  0  0  0  0  0  0  0  0
  -28.7976  -32.4811   25.7313 C   0  0  0  0  0  0  0  0  0  0  0  0
  -26.8061  -26.1833   15.2816 C   0  0  0  0  0  0  0  0  0  0  0  0
  -28.4456  -27.8232   18.7357 C   0  0  0  0  0  0  0  0  0  1  0  0
  -24.9657  -33.2402   22.6370 C   0  0  1  0  0  0  0  0  0  0  0  0
  -27.7405  -34.5667   24.8530 C   0  0  2  0  0  0  0  0  0  0  0  0
  -24.0365  -34.2135   21.8580 C   0  0  0  0  0  0  0  0  0  0  0  0
  -27.1306  -15.4415   20.1580 N   0  0  0  0  0  0  0  0  0  0  0  0
  -27.7336  -16.4362   20.8309 N   0  0  0  0  0  0  0  0  0  0  0  0
  -24.5164  -30.8244   22.9297 N   0  0  0  0  0  0  0  0  0  0  0  0
  -28.6000  -19.6094   18.8874 N   0  0  0  0  0  0  0  0  0  0  0  0
  -29.4814  -21.8195   18.6396 N   0  0  0  0  0  0  0  0  0  0  0  0
  -28.0263  -17.3437   22.9992 N   0  0  0  0  0  0  0  0  0  0  0  0
  -25.3461  -13.7798   23.7144 N   0  0  0  0  0  0  0  0  0  0  0  0
  -21.7404  -28.4766   22.6495 N   0  0  0  0  0  0  0  0  0  0  0  0
  -25.7661  -33.8807   23.6750 N   0  0  0  0  0  0  0  0  0  0  0  0
  -29.0642  -24.4026   17.5607 N   0  3  0  0  0  0  0  0  0  0  0  0
  -26.9385  -26.7140   13.9055 N   0  3  0  0  0  0  0  0  0  0  0  0
  -28.9878  -33.8943   25.3147 N   0  3  0  0  0  0  0  0  0  0  0  0
  -26.4191  -15.5356   24.7267 O   0  0  0  0  0  0  0  0  0  0  0  0
  -22.7081  -30.0908   21.2782 O   0  0  0  0  0  0  0  0  0  0  0  0
  -23.3519  -32.4192   24.1693 O   0  0  0  0  0  0  0  0  0  0  0  0
  -27.8308  -33.2424   22.8342 O   0  0  0  0  0  0  0  0  0  0  0  0
  -28.8091  -21.0229   20.6960 O   0  0  0  0  0  0  0  0  0  0  0  0
  -28.6264  -27.4381   16.3273 O   0  0  0  0  0  0  0  0  0  0  0  0
  -23.4561  -10.2505   19.8405 O   0  0  0  0  0  0  0  0  0  0  0  0
  -28.4446  -27.0966   19.9564 O   0  0  0  0  0  0  0  0  0  1  0  0
  -24.0202   -5.8024   23.0499 F   0  0  0  0  0  0  0  0  0  0  0  0
  -24.3296   -7.8464   18.7918 F   0  0  0  0  0  0  0  0  0  0  0  0
  1  2  1  0  0  0  0
  1  5  2  0  0  0  0
  2  6  2  0  0  0  0
  3  8  2  0  0  0  0
  3 15  1  0  0  0  0
  4  9  1  0  0  0  0
  4 15  2  0  0  0  0
  5 17  1  0  0  0  0
  6 19  1  0  0  0  0
  7 10  2  0  0  0  0
  7 18  1  0  0  0  0
  8 21  1  0  0  0  0
  9 21  2  0  0  0  0
 10 22  1  0  0  0  0
 11 12  2  0  0  0  0
 11 23  1  0  0  0  0
 12 24  1  0  0  0  0
 13 20  1  0  0  0  0
 13 22  2  0  0  0  0
 14 24  2  0  0  0  0
 14 25  1  0  0  0  0
 15 26  1  0  0  0  0
 16 26  1  0  0  0  0
 16 27  2  0  0  0  0
 16 28  1  0  0  0  0
 17 19  2  0  0  0  0
 17 33  1  0  0  0  0
 18 20  2  0  0  0  0
 18 34  1  0  0  0  0
 19 46  1  0  0  0  0
 20 35  1  0  0  0  0
 21 80  1  0  0  0  0
 22 81  1  0  0  0  0
 23 25  2  0  0  0  0
 23 80  1  0  0  0  0
 24 82  1  0  0  0  0
 25 83  1  0  0  0  0
 26 62  2  0  0  0  0
 27 63  1  0  0  0  0
 27 67  1  0  0  0  0
 28 68  1  0  0  0  0
 28 74  2  0  0  0  0
 29 47  1  0  0  0  0
 29 69  1  0  0  0  0
 29 75  2  0  0  0  0
 30 59  1  0  0  0  0
 30 64  1  0  0  0  0
 30 76  2  0  0  0  0
 31 60  1  0  0  0  0
 31 70  1  0  0  0  0
 31 77  2  0  0  0  0
 32 65  1  0  0  0  0
 32 66  1  0  0  0  0
 32 78  2  0  0  0  0
 33 36  1  0  0  0  0
 34 47  1  0  0  0  0
 35 64  1  0  0  0  0
 36 38  1  0  0  0  0
 37 39  1  0  0  0  0
 37 40  1  0  0  0  0
 38 46  1  0  0  0  0
 39 48  1  0  0  0  0
 40 65  1  0  0  0  0
 41 44  1  0  0  0  0
 41 66  1  0  0  0  0
 42 45  1  0  0  0  0
 42 66  1  0  0  0  0
 43 48  1  0  0  0  0
 43 65  1  0  0  0  0
 44 71  1  0  0  0  0
 45 71  1  0  0  0  0
 46 69  1  0  0  0  0
 47 64  1  0  0  0  0
 48 63  1  0  0  0  0
 49 50  1  0  0  0  0
 49 51  1  0  0  0  0
 49 71  1  0  0  0  0
 50 57  1  0  0  0  0
 50 79  1  0  0  0  0
 51 58  1  0  0  0  0
 51 79  1  0  0  0  0
 52 60  1  0  0  0  0
 53 61  1  0  0  0  0
 54 61  1  0  0  0  0
 55 61  1  0  0  0  0
 56 73  1  0  0  0  0
 57 72  1  0  0  0  0
 58 81  1  0  0  0  0
 59 61  1  0  0  0  0
 59 70  1  0  0  0  0
 60 73  1  0  0  0  0
 62 63  1  0  0  0  0
M  CHG  3  71   1  72   1  73   1
M  ISO  4  32 100  58 101  66 100  81 101
M  END
> <Batch ID>
0191

> <Smiles>
CNC(C)C(=O)NC(C(=O)N1Cc2cc([101O:1][101CH2:1]C3OC(CN)C3N3CC[100N:0]([100C:0](=O)N4CCCC(n5nc(-c6ccc(Oc7ccc(F)cc7F)cc6)c(C(N)=O)c5N)C4)CC3)ccc2CC1C(=O)NC1CCCc2ccccc21)C(C)(C)C

> <Shape>
0.294

> <Color>
0.096

> <Negative vol penalty>
0.000

$$$$

  -OEChem-04052323273D

 87 96  0     1  0  0  0  0  0999 V2000
  -17.3948  -29.2358   19.8511 C   0  0  0  0  0  0  0  0  0  0  0  0
  -18.3473  -28.4604   19.1976 C   0  0  0  0  0  0  0  0  0  0  0  0
  -27.4107  -26.2253   17.4663 C   0  0  0  0  0  0  0  0  0  0  0  0
  -26.6826  -25.6697   19.7020 C   0  0  0  0  0  0  0  0  0  0  0  0
  -17.3268  -29.2271   21.2437 C   0  0  0  0  0  0  0  0  0  0  0  0
  -19.2330  -27.6768   19.9363 C   0  0  0  0  0  0  0  0  0  0  0  0
  -20.6210  -19.9980   19.5675 C   0  0  0  0  0  0  0  0  0  0  0  0
  -26.5463  -27.3200   17.4568 C   0  0  0  0  0  0  0  0  0  0  0  0
  -25.8183  -26.7645   19.6926 C   0  0  0  0  0  0  0  0  0  0  0  0
  -20.8398  -18.6271   19.7048 C   0  0  0  0  0  0  0  0  0  0  0  0
  -26.0348  -30.1107   20.1129 C   0  0  0  0  0  0  0  0  0  0  0  0
  -26.0048  -30.9206   21.2481 C   0  0  0  0  0  0  0  0  0  0  0  0
  -21.4785  -18.9495   22.0148 C   0  0  0  0  0  0  0  0  0  0  0  0
  -25.3365  -13.4945   21.3237 C   0  0  0  0  0  0  0  0  0  0  0  0
  -23.6556  -30.4337   21.5334 C   0  0  0  0  0  0  0  0  0  0  0  0
  -25.0058  -10.8595   20.6968 C   0  0  0  0  0  0  0  0  0  0  0  0
  -27.4788  -25.4001   18.5889 C   0  0  0  0  0  0  0  0  0  0  0  0
  -29.7110  -24.2468   19.0302 C   0  0  0  0  0  0  0  0  0  0  0  0
  -18.2058  -28.4355   21.9995 C   0  0  0  0  0  0  0  0  0  0  0  0
  -20.8156  -20.8489   20.6591 C   0  0  0  0  0  0  0  0  0  0  0  0
  -19.1776  -27.6586   21.3404 C   0  0  0  0  0  0  0  0  0  0  0  0
  -21.2490  -20.3219   21.8868 C   0  0  0  0  0  0  0  0  0  0  0  0
  -24.1553  -12.8521   21.6779 C   0  0  0  0  0  0  0  0  0  0  0  0
  -25.7502  -27.5896   18.5699 C   0  0  0  0  0  0  0  0  0  0  0  0
  -21.2678  -18.1042   20.9254 C   0  0  0  0  0  0  0  0  0  0  0  0
  -24.8752  -29.4623   19.6879 C   0  0  0  0  0  0  0  0  0  0  0  0
  -24.8152  -31.0821   21.9584 C   0  0  0  0  0  0  0  0  0  0  0  0
  -23.6856  -29.6238   20.3982 C   0  0  0  0  0  0  0  0  0  0  0  0
  -23.9789  -11.5096   21.3622 C   0  0  0  0  0  0  0  0  0  0  0  0
  -28.3711  -24.2688   18.5991 C   0  0  0  0  0  0  0  0  0  0  0  0
  -26.3027  -12.7555   20.6602 C   0  0  0  0  0  0  0  0  0  0  0  0
  -30.1120  -22.9471   18.8388 C   0  0  0  0  0  0  0  0  0  0  0  0
  -30.5208  -25.3063   19.5567 C   0  0  0  0  0  0  0  0  0  0  0  0
  -20.6979  -24.3544   21.9910 C   0  0  0  0  0  0  0  0  0  0  0  0
  -19.5987  -22.5261   24.1955 C   0  0  0  0  0  0  0  0  0  0  0  0
  -18.0653  -20.2273   26.1959 C   0  0  0  0  0  0  0  0  0  0  0  0
  -29.1702  -17.5850   19.4555 C   0  0  0  0  0  0  0  0  0  0  0  0
  -18.1250  -28.4953   23.5044 C   0  0  0  0  0  0  0  0  0  0  0  0
  -20.6514  -22.3398   20.5398 C   0  0  0  0  0  0  0  0  0  0  0  0
  -21.4786  -21.2796   23.0240 C   0  0  0  0  0  0  0  0  0  0  0  0
  -18.8552  -27.3491   24.1996 C   0  0  0  0  0  0  0  0  0  0  0  0
  -27.9207  -19.1368   16.3791 C   0  0  0  0  0  0  0  0  0  0  0  0
  -20.2392  -27.1500   23.5898 C   0  0  0  0  0  0  0  0  0  0  0  0
  -27.9847  -20.6147   16.7502 C   0  0  0  0  0  0  0  0  0  0  0  0
  -27.5764  -18.2507   17.5770 C   0  0  0  0  0  0  0  0  0  0  0  0
  -28.5295  -19.9456   19.1166 C   0  0  0  0  0  0  0  0  0  0  0  0
  -29.2105  -15.1701   20.2877 C   0  0  0  0  0  0  0  0  0  0  0  0
  -27.3334  -15.7173   19.4486 C   0  0  0  0  0  0  0  0  0  0  0  0
  -20.1397  -26.7763   22.1059 C   0  0  1  0  0  0  0  0  0  0  0  0
  -20.0970  -22.9902   21.8200 C   0  0  1  0  0  0  0  0  0  0  0  0
  -28.9409  -20.8317   17.9324 C   0  0  2  0  0  0  0  0  0  0  0  0
  -27.7587  -14.7803   20.5872 C   0  0  0  0  0  0  0  0  0  0  0  0
  -16.9042  -20.0050   28.4094 C   0  0  0  0  0  0  0  0  0  0  0  0
  -19.5774  -14.5442   21.4388 C   0  0  0  0  0  0  0  0  0  0  0  0
  -22.2937  -22.6569   25.6181 C   0  0  0  0  0  0  0  0  0  0  0  0
  -21.2342  -21.5157   27.5786 C   0  0  0  0  0  0  0  0  0  0  0  0
  -20.4111  -23.7537   26.8460 C   0  0  0  0  0  0  0  0  0  0  0  0
  -15.5492  -19.3362   24.9176 C   0  0  0  0  0  0  0  0  0  0  0  0
  -23.1027  -13.6355   22.3921 C   0  0  0  0  0  0  0  0  0  0  0  0
  -21.2623  -16.1950   22.3447 C   0  0  0  0  0  0  0  0  0  1  0  0
  -19.8946  -21.7203   25.4350 C   0  0  1  0  0  0  0  0  0  0  0  0
  -16.7307  -20.2515   26.9188 C   0  0  2  0  0  0  0  0  0  0  0  0
  -20.8626  -14.7284   22.2293 C   0  0  2  0  0  0  0  0  0  0  0  0
  -20.9578  -22.3996   26.3436 C   0  0  0  0  0  0  0  0  0  0  0  0
  -26.1673  -11.4499   20.3363 N   0  0  0  0  0  0  0  0  0  0  0  0
  -27.9490  -23.0778   18.1663 N   0  0  0  0  0  0  0  0  0  0  0  0
  -29.0301  -22.2952   18.3243 N   0  0  0  0  0  0  0  0  0  0  0  0
  -20.3939  -22.2725   23.0713 N   0  0  0  0  0  0  0  0  0  0  0  0
  -28.4376  -18.5322   18.7319 N   0  0  0  0  0  0  0  0  0  0  0  0
  -28.6572  -16.3133   19.5655 N   0  0  0  0  0  0  0  0  0  0  0  0
  -31.2810  -22.3099   19.0619 N   0  0  0  0  0  0  0  0  0  0  0  0
  -29.9517  -26.5805   19.6872 N   0  0  0  0  0  0  0  0  0  0  0  0
  -27.4861  -13.4144   20.3103 N   0  0  0  0  0  0  0  0  0  0  0  0
  -19.7761  -25.3833   21.9588 N   0  0  0  0  0  0  0  0  0  0  0  0
  -18.6106  -21.4892   26.0879 N   0  0  0  0  0  0  0  0  0  0  0  0
  -15.8257  -19.2018   26.3710 N   0  3  0  0  0  0  0  0  0  0  0  0
  -21.9487  -13.9974   21.5251 N   0  3  0  0  0  0  0  0  0  0  0  0
  -31.7187  -25.1323   19.8860 O   0  0  0  0  0  0  0  0  0  0  0  0
  -21.9088  -24.4665   22.1428 O   0  0  0  0  0  0  0  0  0  0  0  0
  -18.6914  -23.3624   24.2221 O   0  0  0  0  0  0  0  0  0  0  0  0
  -18.5750  -19.1921   25.7728 O   0  0  0  0  0  0  0  0  0  0  0  0
  -30.2368  -17.8720   20.0148 O   0  0  0  0  0  0  0  0  0  0  0  0
  -24.9068  -28.6579   18.5611 O   0  0  0  0  0  0  0  0  0  0  0  0
  -21.4765  -16.7552   21.0546 O   0  0  0  0  0  0  0  0  0  1  0  0
  -24.7869  -31.8587   23.0494 F   0  0  0  0  0  0  0  0  0  0  0  0
  -22.5687  -29.0025   19.9954 F   0  0  0  0  0  0  0  0  0  0  0  0
  -22.5446  -10.6519   21.7682 Cl  0  0  0  0  0  0  0  0  0  0  0  0
  1  2  1  0  0  0  0
  1  5  2  0  0  0  0
  2  6  2  0  0  0  0
  3  8  2  0  0  0  0
  3 17  1  0  0  0  0
  4  9  1  0  0  0  0
  4 17  2  0  0  0  0
  5 19  1  0  0  0  0
  6 21  1  0  0  0  0
  7 10  2  0  0  0  0
  7 20  1  0  0  0  0
  8 24  1  0  0  0  0
  9 24  2  0  0  0  0
 10 25  1  0  0  0  0
 11 12  2  0  0  0  0
 11 26  1  0  0  0  0
 12 27  1  0  0  0  0
 13 22  1  0  0  0  0
 13 25  2  0  0  0  0
 14 23  1  0  0  0  0
 14 31  2  0  0  0  0
 15 27  2  0  0  0  0
 15 28  1  0  0  0  0
 16 29  1  0  0  0  0
 16 65  2  0  0  0  0
 17 30  1  0  0  0  0
 18 30  1  0  0  0  0
 18 32  2  0  0  0  0
 18 33  1  0  0  0  0
 19 21  2  0  0  0  0
 19 38  1  0  0  0  0
 20 22  2  0  0  0  0
 20 39  1  0  0  0  0
 21 49  1  0  0  0  0
 22 40  1  0  0  0  0
 23 29  2  0  0  0  0
 23 59  1  0  0  0  0
 24 83  1  0  0  0  0
 25 84  1  0  0  0  0
 26 28  2  0  0  0  0
 26 83  1  0  0  0  0
 27 85  1  0  0  0  0
 28 86  1  0  0  0  0
 29 87  1  0  0  0  0
 30 66  2  0  0  0  0
 31 65  1  0  0  0  0
 31 73  1  0  0  0  0
 32 67  1  0  0  0  0
 32 71  1  0  0  0  0
 33 72  1  0  0  0  0
 33 78  2  0  0  0  0
 34 50  1  0  0  0  0
 34 74  1  0  0  0  0
 34 79  2  0  0  0  0
 35 61  1  0  0  0  0
 35 68  1  0  0  0  0
 35 80  2  0  0  0  0
 36 62  1  0  0  0  0
 36 75  1  0  0  0  0
 36 81  2  0  0  0  0
 37 69  1  0  0  0  0
 37 70  1  0  0  0  0
 37 82  2  0  0  0  0
 38 41  1  0  0  0  0
 39 50  1  0  0  0  0
 40 68  1  0  0  0  0
 41 43  1  0  0  0  0
 42 44  1  0  0  0  0
 42 45  1  0  0  0  0
 43 49  1  0  0  0  0
 44 51  1  0  0  0  0
 45 69  1  0  0  0  0
 46 51  1  0  0  0  0
 46 69  1  0  0  0  0
 47 52  1  0  0  0  0
 47 70  1  0  0  0  0
 48 52  1  0  0  0  0
 48 70  1  0  0  0  0
 49 74  1  0  0  0  0
 50 68  1  0  0  0  0
 51 67  1  0  0  0  0
 52 73  1  0  0  0  0
 53 62  1  0  0  0  0
 54 63  1  0  0  0  0
 55 64  1  0  0  0  0
 56 64  1  0  0  0  0
 57 64  1  0  0  0  0
 58 76  1  0  0  0  0
 59 77  1  0  0  0  0
 60 63  1  0  0  0  0
 60 84  1  0  0  0  0
 61 64  1  0  0  0  0
 61 75  1  0  0  0  0
 62 76  1  0  0  0  0
 63 77  1  0  0  0  0
 66 67  1  0  0  0  0
M  CHG  2  76   1  77   1
M  ISO  4  37 100  60 101  70 100  84 101
M  END
> <Batch ID>
0191

> <Smiles>
CNC(C)C(=O)NC(C(=O)N1Cc2cc([101O:1][101CH2:1]C(C)NCc3cc(NC4C[100N:0]([100C:0](=O)N5CCCC(n6nc(-c7ccc(Oc8ccc(F)cc8F)cc7)c(C(N)=O)c6N)C5)C4)ncc3Cl)ccc2CC1C(=O)NC1CCCc2ccccc21)C(C)(C)C

> <Shape>
0.235

> <Color>
0.096

> <Negative vol penalty>
0.000

$$$$
