
  -OEChem-04052323293D

 80 89  0     1  0  0  0  0  0999 V2000
  -32.7801  -29.2926   18.3526 C   0  0  0  0  0  0  0  0  0  0  0  0
  -32.0793  -28.2205   18.8954 C   0  0  0  0  0  0  0  0  0  0  0  0
  -23.7828   -9.9675   22.2089 C   0  0  0  0  0  0  0  0  0  0  0  0
  -22.6488  -10.1162   20.0807 C   0  0  0  0  0  0  0  0  0  0  0  0
  -32.4537  -30.5966   18.7229 C   0  0  0  0  0  0  0  0  0  0  0  0
  -31.0522  -28.4517   19.8098 C   0  0  0  0  0  0  0  0  0  0  0  0
  -26.9347  -25.6633   18.8523 C   0  0  0  0  0  0  0  0  0  0  0  0
  -23.5083   -8.6008   22.2596 C   0  0  0  0  0  0  0  0  0  0  0  0
  -22.3743   -8.7496   20.1314 C   0  0  0  0  0  0  0  0  0  0  0  0
  -26.9683  -24.3244   19.2395 C   0  0  0  0  0  0  0  0  0  0  0  0
  -20.8793   -6.6152   23.0146 C   0  0  0  0  0  0  0  0  0  0  0  0
  -20.4090   -6.0937   24.2198 C   0  0  0  0  0  0  0  0  0  0  0  0
  -25.6883  -24.8685   21.2105 C   0  0  0  0  0  0  0  0  0  0  0  0
  -22.3204   -4.6201   24.3281 C   0  0  0  0  0  0  0  0  0  0  0  0
  -23.3530  -10.7252   21.1194 C   0  0  0  0  0  0  0  0  0  0  0  0
  -24.7687  -12.7568   20.5061 C   0  0  0  0  0  0  0  0  0  0  0  0
  -31.4157  -30.8443   19.6349 C   0  0  0  0  0  0  0  0  0  0  0  0
  -26.2859  -26.6184   19.6482 C   0  0  0  0  0  0  0  0  0  0  0  0
  -30.7124  -29.7601   20.1936 C   0  0  0  0  0  0  0  0  0  0  0  0
  -25.6457  -26.2185   20.8299 C   0  0  0  0  0  0  0  0  0  0  0  0
  -22.8041   -7.9919   21.2209 C   0  0  0  0  0  0  0  0  0  0  0  0
  -26.3475  -23.9273   20.4202 C   0  0  0  0  0  0  0  0  0  0  0  0
  -22.0702   -6.1390   22.4661 C   0  0  0  0  0  0  0  0  0  0  0  0
  -21.1295   -5.0962   24.8766 C   0  0  0  0  0  0  0  0  0  0  0  0
  -22.7907   -5.1415   23.1229 C   0  0  0  0  0  0  0  0  0  0  0  0
  -23.6358  -12.1371   21.0667 C   0  0  0  0  0  0  0  0  0  0  0  0
  -24.5616  -14.0993   20.7094 C   0  0  0  0  0  0  0  0  0  0  0  0
  -25.8883  -19.5831   22.6248 C   0  0  0  0  0  0  0  0  0  0  0  0
  -24.7097  -18.6447   22.6225 C   0  0  0  0  0  0  0  0  0  0  0  0
  -26.5675  -19.8085   21.4960 C   0  0  0  0  0  0  0  0  0  0  0  0
  -25.9065  -12.1713   19.8594 C   0  0  0  0  0  0  0  0  0  0  0  0
  -27.2011  -29.2287   21.2141 C   0  0  0  0  0  0  0  0  0  0  0  0
  -24.0170  -29.5576   21.7388 C   0  0  0  0  0  0  0  0  0  0  0  0
  -20.9505  -28.0774   21.9687 C   0  0  0  0  0  0  0  0  0  0  0  0
  -23.0444  -18.0990   24.4507 C   0  0  0  0  0  0  0  0  0  0  0  0
  -31.1305  -32.2686   20.0407 C   0  0  0  0  0  0  0  0  0  0  0  0
  -26.2358  -28.0542   19.2030 C   0  0  0  0  0  0  0  0  0  0  0  0
  -24.9184  -27.2013   21.7094 C   0  0  0  0  0  0  0  0  0  0  0  0
  -29.7804  -32.4467   20.7306 C   0  0  0  0  0  0  0  0  0  0  0  0
  -20.4731  -16.6319   22.2332 C   0  0  0  0  0  0  0  0  0  0  0  0
  -29.5785  -31.3720   21.7941 C   0  0  0  0  0  0  0  0  0  0  0  0
  -21.1382  -15.3432   21.7542 C   0  0  0  0  0  0  0  0  0  0  0  0
  -25.0613  -20.9978   24.6166 C   0  0  0  0  0  0  0  0  0  0  0  0
  -20.9722  -17.0466   23.6137 C   0  0  0  0  0  0  0  0  0  0  0  0
  -23.1251  -15.8870   23.2184 C   0  0  0  0  0  0  0  0  0  0  0  0
  -29.5754  -29.9715   21.1697 C   0  0  1  0  0  0  0  0  0  0  0  0
  -26.1202  -20.1621   23.9557 C   0  0  1  0  0  0  0  0  0  0  0  0
  -25.9876  -29.0275   20.3513 C   0  0  1  0  0  0  0  0  0  0  0  0
  -22.6700  -15.4674   21.8122 C   0  0  1  0  0  0  0  0  0  0  0  0
  -25.0444  -19.5089   24.8116 C   0  0  2  0  0  0  0  0  0  0  0  0
  -18.5427  -28.5980   22.4473 C   0  0  0  0  0  0  0  0  0  0  0  0
  -24.6557  -29.7638   24.7153 C   0  0  0  0  0  0  0  0  0  0  0  0
  -22.2374  -29.3260   25.1934 C   0  0  0  0  0  0  0  0  0  0  0  0
  -22.9053  -31.3587   23.9110 C   0  0  0  0  0  0  0  0  0  0  0  0
  -20.0990  -27.1630   19.2858 C   0  0  0  0  0  0  0  0  0  0  0  0
  -27.7540  -20.7248   21.3961 C   0  0  0  0  0  0  0  0  0  0  0  0
  -27.5141  -21.8549   20.4021 C   0  0  0  0  0  0  0  0  0  1  0  0
  -23.0552  -29.0904   22.8045 C   0  0  1  0  0  0  0  0  0  0  0  0
  -19.6056  -28.4481   21.3700 C   0  0  2  0  0  0  0  0  0  0  0  0
  -23.2287  -29.8663   24.1407 C   0  0  0  0  0  0  0  0  0  0  0  0
  -22.7730  -13.0138   21.5871 N   0  0  0  0  0  0  0  0  0  0  0  0
  -23.3640  -14.1982   21.3545 N   0  0  0  0  0  0  0  0  0  0  0  0
  -24.2710  -18.5964   23.9787 N   0  0  0  0  0  0  0  0  0  0  0  0
  -24.9027  -28.5948   21.2345 N   0  0  0  0  0  0  0  0  0  0  0  0
  -22.4337  -17.1052   23.6669 N   0  0  0  0  0  0  0  0  0  0  0  0
  -25.2889  -15.1929   20.3975 N   0  0  0  0  0  0  0  0  0  0  0  0
  -25.9596  -10.7763   19.7344 N   0  0  0  0  0  0  0  0  0  0  0  0
  -28.3040  -29.7055   20.5316 N   0  0  0  0  0  0  0  0  0  0  0  0
  -21.7209  -29.1923   22.2233 N   0  0  0  0  0  0  0  0  0  0  0  0
  -19.1584  -27.3984   20.4113 N   0  3  0  0  0  0  0  0  0  0  0  0
  -24.2510  -18.0907   21.6384 O   0  0  0  0  0  0  0  0  0  0  0  0
  -26.8560  -12.8635   19.4204 O   0  0  0  0  0  0  0  0  0  0  0  0
  -27.1409  -28.9720   22.4108 O   0  0  0  0  0  0  0  0  0  0  0  0
  -23.9788  -30.7317   21.3624 O   0  0  0  0  0  0  0  0  0  0  0  0
  -21.2827  -26.9154   22.1919 O   0  0  0  0  0  0  0  0  0  0  0  0
  -22.5210  -18.5597   25.4718 O   0  0  0  0  0  0  0  0  0  0  0  0
  -22.5362   -6.6583   21.2700 O   0  0  0  0  0  0  0  0  0  0  0  0
  -26.3796  -22.6119   20.8035 O   0  0  0  0  0  0  0  0  0  1  0  0
  -20.6785   -4.5966   26.0347 F   0  0  0  0  0  0  0  0  0  0  0  0
  -23.9361   -4.6809   22.6015 F   0  0  0  0  0  0  0  0  0  0  0  0
  1  2  1  0  0  0  0
  1  5  2  0  0  0  0
  2  6  2  0  0  0  0
  3  8  2  0  0  0  0
  3 15  1  0  0  0  0
  4  9  1  0  0  0  0
  4 15  2  0  0  0  0
  5 17  1  0  0  0  0
  6 19  1  0  0  0  0
  7 10  2  0  0  0  0
  7 18  1  0  0  0  0
  8 21  1  0  0  0  0
  9 21  2  0  0  0  0
 10 22  1  0  0  0  0
 11 12  2  0  0  0  0
 11 23  1  0  0  0  0
 12 24  1  0  0  0  0
 13 20  1  0  0  0  0
 13 22  2  0  0  0  0
 14 24  2  0  0  0  0
 14 25  1  0  0  0  0
 15 26  1  0  0  0  0
 16 26  1  0  0  0  0
 16 27  2  0  0  0  0
 16 31  1  0  0  0  0
 17 19  2  0  0  0  0
 17 36  1  0  0  0  0
 18 20  2  0  0  0  0
 18 37  1  0  0  0  0
 19 46  1  0  0  0  0
 20 38  1  0  0  0  0
 21 77  1  0  0  0  0
 22 78  1  0  0  0  0
 23 25  2  0  0  0  0
 23 77  1  0  0  0  0
 24 79  1  0  0  0  0
 25 80  1  0  0  0  0
 26 61  2  0  0  0  0
 27 62  1  0  0  0  0
 27 66  1  0  0  0  0
 28 29  1  0  0  0  0
 28 30  2  0  0  0  0
 28 47  1  0  0  0  0
 29 63  1  0  0  0  0
 29 71  2  0  0  0  0
 30 56  1  0  0  0  0
 31 67  1  0  0  0  0
 31 72  2  0  0  0  0
 32 48  1  0  0  0  0
 32 68  1  0  0  0  0
 32 73  2  0  0  0  0
 33 58  1  0  0  0  0
 33 64  1  0  0  0  0
 33 74  2  0  0  0  0
 34 59  1  0  0  0  0
 34 69  1  0  0  0  0
 34 75  2  0  0  0  0
 35 63  1  0  0  0  0
 35 65  1  0  0  0  0
 35 76  2  0  0  0  0
 36 39  1  0  0  0  0
 37 48  1  0  0  0  0
 38 64  1  0  0  0  0
 39 41  1  0  0  0  0
 40 42  1  0  0  0  0
 40 44  1  0  0  0  0
 41 46  1  0  0  0  0
 42 49  1  0  0  0  0
 43 47  1  0  0  0  0
 43 50  1  0  0  0  0
 44 65  1  0  0  0  0
 45 49  1  0  0  0  0
 45 65  1  0  0  0  0
 46 68  1  0  0  0  0
 47 50  1  0  0  0  0
 48 64  1  0  0  0  0
 49 62  1  0  0  0  0
 50 63  1  0  0  0  0
 51 59  1  0  0  0  0
 52 60  1  0  0  0  0
 53 60  1  0  0  0  0
 54 60  1  0  0  0  0
 55 70  1  0  0  0  0
 56 57  1  0  0  0  0
 57 78  1  0  0  0  0
 58 60  1  0  0  0  0
 58 69  1  0  0  0  0
 59 70  1  0  0  0  0
 61 62  1  0  0  0  0
M  CHG  1  70   1
M  ISO  4  35 100  57 101  63 100  78 101
M  END
> <Batch ID>
0192

> <Smiles>
CNC(C)C(=O)NC(C(=O)N1Cc2cc([101O:1][101CH2:1]CC=C3C(=O)[100N:0]([100C:0](=O)N4CCCC(n5nc(-c6ccc(Oc7ccc(F)cc7F)cc6)c(C(N)=O)c5N)C4)C4CC34)ccc2CC1C(=O)NC1CCCc2ccccc21)C(C)(C)C

> <Shape>
0.233

> <Color>
0.112

> <Negative vol penalty>
0.000

$$$$

  -OEChem-04052323293D

 89 99  0     1  0  0  0  0  0999 V2000
  -29.1900  -36.0952   20.5301 C   0  0  0  0  0  0  0  0  0  0  0  0
  -29.2964  -34.7109   20.6183 C   0  0  0  0  0  0  0  0  0  0  0  0
  -21.8904  -12.6340   19.2561 C   0  0  0  0  0  0  0  0  0  0  0  0
  -22.9717  -12.3487   21.3977 C   0  0  0  0  0  0  0  0  0  0  0  0
  -28.1890  -36.7626   21.2348 C   0  0  0  0  0  0  0  0  0  0  0  0
  -28.4024  -33.9932   21.4121 C   0  0  0  0  0  0  0  0  0  0  0  0
  -26.6506  -29.8425   19.0996 C   0  0  0  0  0  0  0  0  0  0  0  0
  -22.3433  -11.3757   18.8598 C   0  0  0  0  0  0  0  0  0  0  0  0
  -23.4245  -11.0903   21.0014 C   0  0  0  0  0  0  0  0  0  0  0  0
  -27.4937  -28.7329   19.0583 C   0  0  0  0  0  0  0  0  0  0  0  0
  -22.1652   -7.9671   20.7184 C   0  0  0  0  0  0  0  0  0  0  0  0
  -22.0372   -6.9178   21.6283 C   0  0  0  0  0  0  0  0  0  0  0  0
  -26.2924  -27.7589   20.9096 C   0  0  0  0  0  0  0  0  0  0  0  0
  -24.4322   -6.6008   21.5997 C   0  0  0  0  0  0  0  0  0  0  0  0
  -22.2046  -13.1206   20.5251 C   0  0  0  0  0  0  0  0  0  0  0  0
  -20.5268  -14.7224   21.5866 C   0  0  0  0  0  0  0  0  0  0  0  0
  -27.2764  -36.0518   22.0301 C   0  0  0  0  0  0  0  0  0  0  0  0
  -25.6273  -29.9238   20.0548 C   0  0  0  0  0  0  0  0  0  0  0  0
  -27.3892  -34.6518   22.1292 C   0  0  0  0  0  0  0  0  0  0  0  0
  -25.4361  -28.8695   20.9593 C   0  0  0  0  0  0  0  0  0  0  0  0
  -29.8813  -24.2565   20.0234 C   0  0  0  0  0  0  0  0  0  0  0  0
  -23.1103  -10.6038   19.7324 C   0  0  0  0  0  0  0  0  0  0  0  0
  -27.3165  -27.6922   19.9653 C   0  0  0  0  0  0  0  0  0  0  0  0
  -23.4267   -8.3333   20.2490 C   0  0  0  0  0  0  0  0  0  0  0  0
  -23.1707   -6.2347   22.0691 C   0  0  0  0  0  0  0  0  0  0  0  0
  -24.5602   -7.6502   20.6897 C   0  0  0  0  0  0  0  0  0  0  0  0
  -21.7376  -14.4206   20.9348 C   0  0  0  0  0  0  0  0  0  0  0  0
  -30.5642  -24.5386   18.8579 C   0  0  0  0  0  0  0  0  0  0  0  0
  -29.3277  -22.9948   20.1005 C   0  0  0  0  0  0  0  0  0  0  0  0
  -20.5573  -16.0853   21.7537 C   0  0  0  0  0  0  0  0  0  0  0  0
  -30.1177  -22.4670   18.0355 C   0  0  0  0  0  0  0  0  0  0  0  0
  -19.4692  -13.8488   22.0037 C   0  0  0  0  0  0  0  0  0  0  0  0
  -24.9499  -31.8955   22.4542 C   0  0  0  0  0  0  0  0  0  0  0  0
  -22.2311  -30.1339   22.6200 C   0  0  0  0  0  0  0  0  0  0  0  0
  -20.6476  -27.1817   21.9691 C   0  0  0  0  0  0  0  0  0  0  0  0
  -25.1365  -19.8227   22.1631 C   0  0  0  0  0  0  0  0  0  0  0  0
  -26.2406  -36.8214   22.8109 C   0  0  0  0  0  0  0  0  0  0  0  0
  -24.7095  -31.1154   20.0690 C   0  0  0  0  0  0  0  0  0  0  0  0
  -24.3394  -28.8990   21.9913 C   0  0  0  0  0  0  0  0  0  0  0  0
  -25.1007  -35.9509   23.3334 C   0  0  0  0  0  0  0  0  0  0  0  0
  -22.3237  -20.0680   19.8261 C   0  0  0  0  0  0  0  0  0  0  0  0
  -25.6501  -34.6826   23.9787 C   0  0  0  0  0  0  0  0  0  0  0  0
  -29.7953  -21.8547   15.5465 C   0  0  0  0  0  0  0  0  0  0  0  0
  -29.0037  -20.8642   16.3418 C   0  0  0  0  0  0  0  0  0  0  0  0
  -21.7824  -18.6429   19.8693 C   0  0  0  0  0  0  0  0  0  0  0  0
  -23.8441  -20.1177   19.9825 C   0  0  0  0  0  0  0  0  0  0  0  0
  -23.7956  -17.9726   21.2264 C   0  0  0  0  0  0  0  0  0  0  0  0
  -27.0836  -21.3853   22.7042 C   0  0  0  0  0  0  0  0  0  0  0  0
  -26.7505  -21.1837   20.6125 C   0  0  0  0  0  0  0  0  0  0  0  0
  -26.4230  -33.8358   22.9603 C   0  0  1  0  0  0  0  0  0  0  0  0
  -30.2489  -21.4730   16.9308 C   0  0  0  0  0  0  0  0  0  0  0  0
  -24.0249  -31.3264   21.4159 C   0  0  1  0  0  0  0  0  0  0  0  0
  -22.2639  -17.9227   21.1376 C   0  0  2  0  0  0  0  0  0  0  0  0
  -28.0016  -21.3908   21.4768 C   0  0  0  0  0  0  0  0  0  0  0  0
  -18.4382  -26.0266   22.2549 C   0  0  0  0  0  0  0  0  0  0  0  0
  -22.8505  -29.6855   25.5738 C   0  0  0  0  0  0  0  0  0  0  0  0
  -21.1956  -27.8068   25.5639 C   0  0  0  0  0  0  0  0  0  0  0  0
  -20.4422  -30.1327   25.0691 C   0  0  0  0  0  0  0  0  0  0  0  0
  -32.2775  -27.4371   17.0339 C   0  0  0  0  0  0  0  0  0  0  0  0
  -20.2952  -26.8812   19.0460 C   0  0  0  0  0  0  0  0  0  0  0  0
  -29.7555  -25.2556   21.1199 C   0  0  0  0  0  0  0  0  0  0  0  0
  -31.2065  -25.8721   18.6595 C   0  0  0  0  0  0  0  0  0  0  0  0
  -28.3811  -25.9331   21.1602 C   0  0  0  0  0  0  0  0  0  1  0  0
  -21.8116  -28.8816   23.3511 C   0  0  1  0  0  0  0  0  0  0  0  0
  -19.3009  -26.8789   21.3373 C   0  0  2  0  0  0  0  0  0  0  0  0
  -21.5970  -29.1267   24.8714 C   0  0  0  0  0  0  0  0  0  0  0  0
  -22.4828  -15.5046   20.7036 N   0  0  0  0  0  0  0  0  0  0  0  0
  -30.7025  -23.6642   17.8398 N   0  0  0  0  0  0  0  0  0  0  0  0
  -29.4267  -22.0716   19.1216 N   0  0  0  0  0  0  0  0  0  0  0  0
  -21.7383  -16.5009   21.2127 N   0  0  0  0  0  0  0  0  0  0  0  0
  -23.4721  -30.0884   21.9690 N   0  0  0  0  0  0  0  0  0  0  0  0
  -24.3004  -19.3485   21.1465 N   0  0  0  0  0  0  0  0  0  0  0  0
  -26.0831  -20.7664   21.8379 N   0  0  0  0  0  0  0  0  0  0  0  0
  -19.6888  -16.9569   22.3091 N   0  0  0  0  0  0  0  0  0  0  0  0
  -19.5992  -12.4758   21.7543 N   0  0  0  0  0  0  0  0  0  0  0  0
  -28.6226  -22.6491   21.2583 N   0  0  0  0  0  0  0  0  0  0  0  0
  -25.5065  -33.1114   22.1061 N   0  0  0  0  0  0  0  0  0  0  0  0
  -20.6327  -28.3779   22.6548 N   0  0  0  0  0  0  0  0  0  0  0  0
  -31.5849  -26.1390   17.2451 N   0  3  0  0  0  0  0  0  0  0  0  0
  -19.4845  -26.1477   20.0518 N   0  3  0  0  0  0  0  0  0  0  0  0
  -18.4320  -14.2752   22.5657 O   0  0  0  0  0  0  0  0  0  0  0  0
  -25.1430  -31.2780   23.4949 O   0  0  0  0  0  0  0  0  0  0  0  0
  -21.4820  -31.1140   22.6202 O   0  0  0  0  0  0  0  0  0  0  0  0
  -21.6149  -26.4303   21.8678 O   0  0  0  0  0  0  0  0  0  0  0  0
  -25.0630  -19.3945   23.3225 O   0  0  0  0  0  0  0  0  0  0  0  0
  -23.5522   -9.3758   19.3462 O   0  0  0  0  0  0  0  0  0  0  0  0
  -28.1441  -26.6006   19.9273 O   0  0  0  0  0  0  0  0  0  1  0  0
  -23.0478   -5.2280   22.9441 F   0  0  0  0  0  0  0  0  0  0  0  0
  -25.7748   -7.9982   20.2432 F   0  0  0  0  0  0  0  0  0  0  0  0
  1  2  1  0  0  0  0
  1  5  2  0  0  0  0
  2  6  2  0  0  0  0
  3  8  2  0  0  0  0
  3 15  1  0  0  0  0
  4  9  1  0  0  0  0
  4 15  2  0  0  0  0
  5 17  1  0  0  0  0
  6 19  1  0  0  0  0
  7 10  2  0  0  0  0
  7 18  1  0  0  0  0
  8 22  1  0  0  0  0
  9 22  2  0  0  0  0
 10 23  1  0  0  0  0
 11 12  2  0  0  0  0
 11 24  1  0  0  0  0
 12 25  1  0  0  0  0
 13 20  1  0  0  0  0
 13 23  2  0  0  0  0
 14 25  2  0  0  0  0
 14 26  1  0  0  0  0
 15 27  1  0  0  0  0
 16 27  1  0  0  0  0
 16 30  2  0  0  0  0
 16 32  1  0  0  0  0
 17 19  2  0  0  0  0
 17 37  1  0  0  0  0
 18 20  2  0  0  0  0
 18 38  1  0  0  0  0
 19 50  1  0  0  0  0
 20 39  1  0  0  0  0
 21 28  2  0  0  0  0
 21 29  1  0  0  0  0
 21 61  1  0  0  0  0
 22 86  1  0  0  0  0
 23 87  1  0  0  0  0
 24 26  2  0  0  0  0
 24 86  1  0  0  0  0
 25 88  1  0  0  0  0
 26 89  1  0  0  0  0
 27 67  2  0  0  0  0
 28 62  1  0  0  0  0
 28 68  1  0  0  0  0
 29 69  2  0  0  0  0
 29 76  1  0  0  0  0
 30 70  1  0  0  0  0
 30 74  1  0  0  0  0
 31 51  1  0  0  0  0
 31 68  2  0  0  0  0
 31 69  1  0  0  0  0
 32 75  1  0  0  0  0
 32 81  2  0  0  0  0
 33 52  1  0  0  0  0
 33 77  1  0  0  0  0
 33 82  2  0  0  0  0
 34 64  1  0  0  0  0
 34 71  1  0  0  0  0
 34 83  2  0  0  0  0
 35 65  1  0  0  0  0
 35 78  1  0  0  0  0
 35 84  2  0  0  0  0
 36 72  1  0  0  0  0
 36 73  1  0  0  0  0
 36 85  2  0  0  0  0
 37 40  1  0  0  0  0
 38 52  1  0  0  0  0
 39 71  1  0  0  0  0
 40 42  1  0  0  0  0
 41 45  1  0  0  0  0
 41 46  1  0  0  0  0
 42 50  1  0  0  0  0
 43 44  1  0  0  0  0
 43 51  1  0  0  0  0
 44 51  1  0  0  0  0
 45 53  1  0  0  0  0
 46 72  1  0  0  0  0
 47 53  1  0  0  0  0
 47 72  1  0  0  0  0
 48 54  1  0  0  0  0
 48 73  1  0  0  0  0
 49 54  1  0  0  0  0
 49 73  1  0  0  0  0
 50 77  1  0  0  0  0
 52 71  1  0  0  0  0
 53 70  1  0  0  0  0
 54 76  1  0  0  0  0
 55 65  1  0  0  0  0
 56 66  1  0  0  0  0
 57 66  1  0  0  0  0
 58 66  1  0  0  0  0
 59 79  1  0  0  0  0
 60 80  1  0  0  0  0
 61 63  1  0  0  0  0
 62 79  1  0  0  0  0
 63 87  1  0  0  0  0
 64 66  1  0  0  0  0
 64 78  1  0  0  0  0
 65 80  1  0  0  0  0
 67 70  1  0  0  0  0
M  CHG  2  79   1  80   1
M  ISO  4  36 100  63 101  73 100  87 101
M  END
> <Batch ID>
0192

> <Smiles>
CNCc1nc(C2CC2)nc(NC2C[100N:0]([100C:0](=O)N3CCCC(n4nc(-c5ccc(Oc6ccc(F)cc6F)cc5)c(C(N)=O)c4N)C3)C2)c1C[101CH2:1][101O:1]c1ccc2c(c1)CN(C(=O)C(NC(=O)C(C)NC)C(C)(C)C)C(C(=O)NC1CCCc3ccccc31)C2

> <Shape>
0.268

> <Color>
0.064

> <Negative vol penalty>
0.000

$$$$

  -OEChem-04052323293D

 86 95  0     1  0  0  0  0  0999 V2000
  -24.6482  -33.4626   14.4304 C   0  0  0  0  0  0  0  0  0  0  0  0
  -25.3768  -32.4659   15.0716 C   0  0  0  0  0  0  0  0  0  0  0  0
  -27.3432  -15.5332   23.5349 C   0  0  0  0  0  0  0  0  0  0  0  0
  -26.4487  -16.6827   21.6073 C   0  0  0  0  0  0  0  0  0  0  0  0
  -24.2479  -34.5960   15.1369 C   0  0  0  0  0  0  0  0  0  0  0  0
  -25.7064  -32.6026   16.4196 C   0  0  0  0  0  0  0  0  0  0  0  0
  -24.9205  -28.3487   19.0526 C   0  0  0  0  0  0  0  0  0  0  0  0
  -27.3778  -16.7378   24.2373 C   0  0  0  0  0  0  0  0  0  0  0  0
  -26.4832  -17.8874   22.3097 C   0  0  0  0  0  0  0  0  0  0  0  0
  -25.8734  -27.3385   18.9294 C   0  0  0  0  0  0  0  0  0  0  0  0
  -24.6281  -19.4514   24.6619 C   0  0  0  0  0  0  0  0  0  0  0  0
  -23.5086  -20.2795   24.5807 C   0  0  0  0  0  0  0  0  0  0  0  0
  -26.8545  -28.0165   21.0263 C   0  0  0  0  0  0  0  0  0  0  0  0
  -24.8745  -22.0331   23.6340 C   0  0  0  0  0  0  0  0  0  0  0  0
  -26.8787  -15.5057   22.2199 C   0  0  0  0  0  0  0  0  0  0  0  0
  -25.7805  -13.3403   21.4372 C   0  0  0  0  0  0  0  0  0  0  0  0
  -24.5644  -34.7421   16.4967 C   0  0  0  0  0  0  0  0  0  0  0  0
  -24.9342  -29.2088   20.1600 C   0  0  0  0  0  0  0  0  0  0  0  0
  -25.3111  -33.7396   17.1447 C   0  0  0  0  0  0  0  0  0  0  0  0
  -25.8991  -29.0353   21.1624 C   0  0  0  0  0  0  0  0  0  0  0  0
  -26.9478  -17.9149   23.6247 C   0  0  0  0  0  0  0  0  0  0  0  0
  -26.8423  -27.1741   19.9149 C   0  0  0  0  0  0  0  0  0  0  0  0
  -25.8708  -19.9141   24.2292 C   0  0  0  0  0  0  0  0  0  0  0  0
  -23.6318  -21.5703   24.0667 C   0  0  0  0  0  0  0  0  0  0  0  0
  -25.9940  -21.2050   23.7152 C   0  0  0  0  0  0  0  0  0  0  0  0
  -26.8433  -14.2617   21.4937 C   0  0  0  0  0  0  0  0  0  0  0  0
  -26.2408  -12.3346   20.6228 C   0  0  0  0  0  0  0  0  0  0  0  0
  -24.4923  -13.3891   22.0647 C   0  0  0  0  0  0  0  0  0  0  0  0
  -25.3063  -32.3396   20.5642 C   0  0  0  0  0  0  0  0  0  0  0  0
  -24.5936  -31.6320   23.6486 C   0  0  0  0  0  0  0  0  0  0  0  0
  -24.5130  -29.3041   26.1428 C   0  0  0  0  0  0  0  0  0  0  0  0
  -31.0985  -14.5481   19.2214 C   0  0  0  0  0  0  0  0  0  0  0  0
  -24.1506  -36.0068   17.2065 C   0  0  0  0  0  0  0  0  0  0  0  0
  -23.8830  -30.2767   20.2913 C   0  0  0  0  0  0  0  0  0  0  0  0
  -25.9446  -29.9193   22.3810 C   0  0  0  0  0  0  0  0  0  0  0  0
  -24.2178  -35.9012   18.7279 C   0  0  0  0  0  0  0  0  0  0  0  0
  -30.4549  -11.4356   20.8541 C   0  0  0  0  0  0  0  0  0  0  0  0
  -31.4369  -16.0233   15.9262 C   0  0  0  0  0  0  0  0  0  0  0  0
  -25.5350  -35.2657   19.1613 C   0  0  0  0  0  0  0  0  0  0  0  0
  -29.2366  -10.8633   20.1380 C   0  0  0  0  0  0  0  0  0  0  0  0
  -31.0970  -17.2796   16.7156 C   0  0  0  0  0  0  0  0  0  0  0  0
  -29.7614  -22.1180   21.0756 C   0  0  0  0  0  0  0  0  0  0  0  0
  -29.8720  -21.9838   18.5627 C   0  0  0  0  0  0  0  0  0  0  0  0
  -31.3500  -12.1812   19.8765 C   0  0  0  0  0  0  0  0  0  0  0  0
  -30.7493  -14.9300   16.7292 C   0  0  0  0  0  0  0  0  0  0  0  0
  -29.3884  -12.8095   18.4824 C   0  0  0  0  0  0  0  0  0  0  0  0
  -30.2266  -23.5664   21.0123 C   0  0  0  0  0  0  0  0  0  0  0  0
  -30.3369  -23.4328   18.5122 C   0  0  0  0  0  0  0  0  0  0  0  0
  -25.6666  -33.8399   18.6122 C   0  0  1  0  0  0  0  0  0  0  0  0
  -24.3054  -31.4216   21.2068 C   0  0  1  0  0  0  0  0  0  0  0  0
  -30.2690  -21.3052   19.8789 C   0  0  0  0  0  0  0  0  0  0  0  0
  -28.4593  -11.9314   19.3521 C   0  0  2  0  0  0  0  0  0  0  0  0
  -31.1682  -16.8100   18.1713 C   0  0  1  0  0  0  0  0  0  0  0  0
  -23.9157  -29.0320   28.5649 C   0  0  0  0  0  0  0  0  0  0  0  0
  -27.1644  -33.0714   24.4418 C   0  0  0  0  0  0  0  0  0  0  0  0
  -27.0083  -31.9677   26.6836 C   0  0  0  0  0  0  0  0  0  0  0  0
  -25.2106  -33.5267   25.9350 C   0  0  0  0  0  0  0  0  0  0  0  0
  -22.4479  -27.2761   25.5255 C   0  0  0  0  0  0  0  0  0  0  0  0
  -29.7393  -19.8739   19.9322 C   0  0  0  0  0  0  0  0  0  0  0  0
  -30.2025  -17.5778   19.0648 C   0  0  0  0  0  0  0  0  0  0  0  0
  -30.1148  -25.6448   19.6403 C   0  0  0  0  0  0  0  0  0  0  0  0
  -29.0511  -26.4278   20.3844 C   0  0  0  0  0  0  0  0  0  1  0  0
  -25.3932  -31.2419   24.8682 C   0  0  1  0  0  0  0  0  0  0  0  0
  -23.4246  -28.9225   27.1298 C   0  0  2  0  0  0  0  0  0  0  0  0
  -26.1947  -32.4363   25.4584 C   0  0  0  0  0  0  0  0  0  0  0  0
  -27.8993  -13.8756   20.7728 N   0  0  0  0  0  0  0  0  0  0  0  0
  -27.5024  -12.7004   20.2556 N   0  0  0  0  0  0  0  0  0  0  0  0
  -24.8993  -30.9529   22.4606 N   0  0  0  0  0  0  0  0  0  0  0  0
  -30.6236  -13.2295   19.1596 N   0  0  0  0  0  0  0  0  0  0  0  0
  -30.8682  -15.3741   18.1189 N   0  0  0  0  0  0  0  0  0  0  0  0
  -25.6856  -11.1820   20.1922 N   0  0  0  0  0  0  0  0  0  0  0  0
  -24.1821  -14.4944   22.8687 N   0  0  0  0  0  0  0  0  0  0  0  0
  -24.8639  -32.9221   19.3918 N   0  0  0  0  0  0  0  0  0  0  0  0
  -24.4473  -30.6381   25.8005 N   0  0  0  0  0  0  0  0  0  0  0  0
  -29.7874  -24.1783   19.7042 N   0  3  0  0  0  0  0  0  0  0  0  0
  -22.9775  -27.5210   26.8917 N   0  3  0  0  0  0  0  0  0  0  0  0
  -30.5725  -19.0090   19.0493 N   0  3  0  0  0  0  0  0  0  0  0  0
  -23.6475  -12.4716   21.9300 O   0  0  0  0  0  0  0  0  0  0  0  0
  -26.3985  -32.5083   21.0936 O   0  0  0  0  0  0  0  0  0  0  0  0
  -23.7247  -32.5019   23.7480 O   0  0  0  0  0  0  0  0  0  0  0  0
  -25.3412  -28.5000   25.7208 O   0  0  0  0  0  0  0  0  0  0  0  0
  -31.7101  -14.9664   20.2134 O   0  0  0  0  0  0  0  0  0  0  0  0
  -26.9812  -19.0905   24.3098 O   0  0  0  0  0  0  0  0  0  0  0  0
  -27.7807  -26.1821   19.7960 O   0  0  0  0  0  0  0  0  0  1  0  0
  -22.5564  -22.3649   23.9873 F   0  0  0  0  0  0  0  0  0  0  0  0
  -27.1851  -21.6547   23.2969 F   0  0  0  0  0  0  0  0  0  0  0  0
  1  2  1  0  0  0  0
  1  5  2  0  0  0  0
  2  6  2  0  0  0  0
  3  8  2  0  0  0  0
  3 15  1  0  0  0  0
  4  9  1  0  0  0  0
  4 15  2  0  0  0  0
  5 17  1  0  0  0  0
  6 19  1  0  0  0  0
  7 10  2  0  0  0  0
  7 18  1  0  0  0  0
  8 21  1  0  0  0  0
  9 21  2  0  0  0  0
 10 22  1  0  0  0  0
 11 12  2  0  0  0  0
 11 23  1  0  0  0  0
 12 24  1  0  0  0  0
 13 20  1  0  0  0  0
 13 22  2  0  0  0  0
 14 24  2  0  0  0  0
 14 25  1  0  0  0  0
 15 26  1  0  0  0  0
 16 26  1  0  0  0  0
 16 27  2  0  0  0  0
 16 28  1  0  0  0  0
 17 19  2  0  0  0  0
 17 33  1  0  0  0  0
 18 20  2  0  0  0  0
 18 34  1  0  0  0  0
 19 49  1  0  0  0  0
 20 35  1  0  0  0  0
 21 83  1  0  0  0  0
 22 84  1  0  0  0  0
 23 25  2  0  0  0  0
 23 83  1  0  0  0  0
 24 85  1  0  0  0  0
 25 86  1  0  0  0  0
 26 66  2  0  0  0  0
 27 67  1  0  0  0  0
 27 71  1  0  0  0  0
 28 72  1  0  0  0  0
 28 78  2  0  0  0  0
 29 50  1  0  0  0  0
 29 73  1  0  0  0  0
 29 79  2  0  0  0  0
 30 63  1  0  0  0  0
 30 68  1  0  0  0  0
 30 80  2  0  0  0  0
 31 64  1  0  0  0  0
 31 74  1  0  0  0  0
 31 81  2  0  0  0  0
 32 69  1  0  0  0  0
 32 70  1  0  0  0  0
 32 82  2  0  0  0  0
 33 36  1  0  0  0  0
 34 50  1  0  0  0  0
 35 68  1  0  0  0  0
 36 39  1  0  0  0  0
 37 40  1  0  0  0  0
 37 44  1  0  0  0  0
 38 41  1  0  0  0  0
 38 45  1  0  0  0  0
 39 49  1  0  0  0  0
 40 52  1  0  0  0  0
 41 53  1  0  0  0  0
 42 47  1  0  0  0  0
 42 51  1  0  0  0  0
 43 48  1  0  0  0  0
 43 51  1  0  0  0  0
 44 69  1  0  0  0  0
 45 70  1  0  0  0  0
 46 52  1  0  0  0  0
 46 69  1  0  0  0  0
 47 75  1  0  0  0  0
 48 75  1  0  0  0  0
 49 73  1  0  0  0  0
 50 68  1  0  0  0  0
 51 59  1  0  0  0  0
 52 67  1  0  0  0  0
 53 60  1  0  0  0  0
 53 70  1  0  0  0  0
 54 64  1  0  0  0  0
 55 65  1  0  0  0  0
 56 65  1  0  0  0  0
 57 65  1  0  0  0  0
 58 76  1  0  0  0  0
 59 77  1  0  0  0  0
 60 77  1  0  0  0  0
 61 62  1  0  0  0  0
 61 75  1  0  0  0  0
 62 84  1  0  0  0  0
 63 65  1  0  0  0  0
 63 74  1  0  0  0  0
 64 76  1  0  0  0  0
 66 67  1  0  0  0  0
M  CHG  3  75   1  76   1  77   1
M  ISO  4  32 100  62 101  70 100  84 101
M  END
> <Batch ID>
0192

> <Smiles>
CNC(C)C(=O)NC(C(=O)N1Cc2cc([101O:1][101CH2:1]CN3CCC(CNCC4CCC[100N:0]4[100C:0](=O)N4CCCC(n5nc(-c6ccc(Oc7ccc(F)cc7F)cc6)c(C(N)=O)c5N)C4)CC3)ccc2CC1C(=O)NC1CCCc2ccccc21)C(C)(C)C

> <Shape>
0.247

> <Color>
0.098

> <Negative vol penalty>
0.000

$$$$

  -OEChem-04052323293D

 84 93  0     1  0  0  0  0  0999 V2000
  -27.9032  -20.1681   15.0186 C   0  0  0  0  0  0  0  0  0  0  0  0
  -28.4964  -19.2889   15.9190 C   0  0  0  0  0  0  0  0  0  0  0  0
  -24.4219  -28.1660   21.6126 C   0  0  0  0  0  0  0  0  0  0  0  0
  -25.4043  -29.6543   19.9826 C   0  0  0  0  0  0  0  0  0  0  0  0
  -26.6190  -20.6529   15.2626 C   0  0  0  0  0  0  0  0  0  0  0  0
  -27.8059  -18.8950   17.0646 C   0  0  0  0  0  0  0  0  0  0  0  0
  -28.1504  -13.9163   17.9247 C   0  0  0  0  0  0  0  0  0  0  0  0
  -24.1710  -29.2512   22.4523 C   0  0  0  0  0  0  0  0  0  0  0  0
  -25.1534  -30.7395   20.8222 C   0  0  0  0  0  0  0  0  0  0  0  0
  -29.3369  -13.4480   18.4874 C   0  0  0  0  0  0  0  0  0  0  0  0
  -23.5975  -31.5864   25.1801 C   0  0  0  0  0  0  0  0  0  0  0  0
  -23.9063  -31.4465   26.5331 C   0  0  0  0  0  0  0  0  0  0  0  0
  -28.2740  -13.3736   20.6516 C   0  0  0  0  0  0  0  0  0  0  0  0
  -26.2202  -31.0481   25.9637 C   0  0  0  0  0  0  0  0  0  0  0  0
  -25.0386  -28.3675   20.3778 C   0  0  0  0  0  0  0  0  0  0  0  0
  -24.4468  -26.7237   18.5189 C   0  0  0  0  0  0  0  0  0  0  0  0
  -25.9087  -20.2571   16.4069 C   0  0  0  0  0  0  0  0  0  0  0  0
  -27.0181  -14.1275   18.7245 C   0  0  0  0  0  0  0  0  0  0  0  0
  -26.5115  -19.3760   17.3249 C   0  0  0  0  0  0  0  0  0  0  0  0
  -27.0736  -13.8422   20.0962 C   0  0  0  0  0  0  0  0  0  0  0  0
  -24.5368  -30.5379   22.0571 C   0  0  0  0  0  0  0  0  0  0  0  0
  -29.3997  -13.1793   19.8516 C   0  0  0  0  0  0  0  0  0  0  0  0
  -24.6000  -31.4571   24.2189 C   0  0  0  0  0  0  0  0  0  0  0  0
  -25.2177  -31.1774   26.9249 C   0  0  0  0  0  0  0  0  0  0  0  0
  -25.9113  -31.1880   24.6107 C   0  0  0  0  0  0  0  0  0  0  0  0
  -25.2985  -27.2468   19.5102 C   0  0  0  0  0  0  0  0  0  0  0  0
  -25.1497  -25.6730   17.9819 C   0  0  0  0  0  0  0  0  0  0  0  0
  -33.0767  -14.2627   22.3101 C   0  0  0  0  0  0  0  0  0  0  0  0
  -32.3587  -15.7107   20.7531 C   0  0  0  0  0  0  0  0  0  0  0  0
  -31.4598  -13.6581   20.8760 C   0  0  0  0  0  0  0  0  0  1  0  0
  -23.1374  -27.1496   18.1192 C   0  0  0  0  0  0  0  0  0  0  0  0
  -25.2476  -16.6561   19.4830 C   0  0  0  0  0  0  0  0  0  0  0  0
  -23.3892  -14.4304   20.9375 C   0  0  0  0  0  0  0  0  0  0  0  0
  -23.1508  -11.3397   22.3649 C   0  0  0  0  0  0  0  0  0  0  0  0
  -29.5995  -22.4356   20.4785 C   0  0  0  0  0  0  0  0  0  0  0  0
  -24.5415  -20.8447   16.6521 C   0  0  0  0  0  0  0  0  0  0  0  0
  -25.7379  -14.6077   18.0975 C   0  0  0  0  0  0  0  0  0  0  0  0
  -25.8800  -14.0329   20.9948 C   0  0  0  0  0  0  0  0  0  0  0  0
  -23.7310  -20.0854   17.6994 C   0  0  0  0  0  0  0  0  0  0  0  0
  -29.6174  -24.1606   17.1953 C   0  0  0  0  0  0  0  0  0  0  0  0
  -24.5870  -19.7925   18.9275 C   0  0  0  0  0  0  0  0  0  0  0  0
  -28.4499  -25.1344   17.3617 C   0  0  0  0  0  0  0  0  0  0  0  0
  -31.0613  -19.4301   18.9481 C   0  0  0  0  0  0  0  0  0  0  0  0
  -30.2974  -23.8919   18.5314 C   0  0  0  0  0  0  0  0  0  0  0  0
  -30.7037  -20.8995   18.7478 C   0  0  0  0  0  0  0  0  0  0  0  0
  -28.2144  -24.3509   19.7673 C   0  0  0  0  0  0  0  0  0  0  0  0
  -30.9591  -20.4569   21.0968 C   0  0  0  0  0  0  0  0  0  0  0  0
  -25.7849  -18.9059   18.5664 C   0  0  1  0  0  0  0  0  0  0  0  0
  -24.7975  -15.2758   19.0959 C   0  0  1  0  0  0  0  0  0  0  0  0
  -27.4750  -24.6538   18.4520 C   0  0  1  0  0  0  0  0  0  0  0  0
  -31.7778  -19.4660   20.2897 C   0  0  1  0  0  0  0  0  0  0  0  0
  -33.9717  -13.9404   23.4582 C   0  0  0  0  0  0  0  0  0  0  0  0
  -21.5118   -9.8144   23.4982 C   0  0  0  0  0  0  0  0  0  0  0  0
  -23.5982  -16.1007   23.4824 C   0  0  0  0  0  0  0  0  0  0  0  0
  -22.7848  -14.1136   24.7701 C   0  0  0  0  0  0  0  0  0  0  0  0
  -21.3252  -15.1575   23.0373 C   0  0  0  0  0  0  0  0  0  0  0  0
  -23.4567   -9.2674   20.2742 C   0  0  0  0  0  0  0  0  0  0  0  0
  -32.4297  -17.0620   20.1050 C   0  0  0  0  0  0  0  0  0  0  0  0
  -23.3403  -13.8128   22.3141 C   0  0  1  0  0  0  0  0  0  0  0  0
  -22.1458  -10.2178   22.1760 C   0  0  2  0  0  0  0  0  0  0  0  0
  -22.7854  -14.7943   23.3847 C   0  0  0  0  0  0  0  0  0  0  0  0
  -26.4541  -26.5830   19.5999 N   0  0  0  0  0  0  0  0  0  0  0  0
  -33.1950  -15.4909   21.7804 N   0  0  0  0  0  0  0  0  0  0  0  0
  -32.2339  -13.2962   21.9117 N   0  0  0  0  0  0  0  0  0  0  0  0
  -31.4663  -14.8444   20.2470 N   0  0  0  0  0  0  0  0  0  0  0  0
  -26.3334  -25.6320   18.6581 N   0  0  0  0  0  0  0  0  0  0  0  0
  -24.6531  -14.5103   20.3358 N   0  0  0  0  0  0  0  0  0  0  0  0
  -29.3323  -23.4337   19.5347 N   0  0  0  0  0  0  0  0  0  0  0  0
  -30.4614  -21.4063   20.1026 N   0  0  0  0  0  0  0  0  0  0  0  0
  -24.8644  -24.7893   17.0021 N   0  0  0  0  0  0  0  0  0  0  0  0
  -22.5623  -28.2465   18.7752 N   0  0  0  0  0  0  0  0  0  0  0  0
  -25.3675  -17.5282   18.4179 N   0  0  0  0  0  0  0  0  0  0  0  0
  -22.5740  -12.5785   22.1807 N   0  0  0  0  0  0  0  0  0  0  0  0
  -31.7959  -18.1376   20.9239 N   0  3  0  0  0  0  0  0  0  0  0  0
  -22.8106   -9.0202   21.5889 N   0  3  0  0  0  0  0  0  0  0  0  0
  -22.4896  -26.5642   17.2185 O   0  0  0  0  0  0  0  0  0  0  0  0
  -25.4682  -16.9114   20.6611 O   0  0  0  0  0  0  0  0  0  0  0  0
  -22.3436  -14.8210   20.4124 O   0  0  0  0  0  0  0  0  0  0  0  0
  -24.3288  -11.1376   22.6511 O   0  0  0  0  0  0  0  0  0  0  0  0
  -29.0546  -22.4372   21.5903 O   0  0  0  0  0  0  0  0  0  0  0  0
  -24.2919  -31.5971   22.8760 O   0  0  0  0  0  0  0  0  0  0  0  0
  -30.5715  -12.7169   20.4106 O   0  0  0  0  0  0  0  0  0  1  0  0
  -25.5144  -31.0446   28.2243 F   0  0  0  0  0  0  0  0  0  0  0  0
  -26.8789  -31.0639   23.6919 F   0  0  0  0  0  0  0  0  0  0  0  0
  1  2  1  0  0  0  0
  1  5  2  0  0  0  0
  2  6  2  0  0  0  0
  3  8  2  0  0  0  0
  3 15  1  0  0  0  0
  4  9  1  0  0  0  0
  4 15  2  0  0  0  0
  5 17  1  0  0  0  0
  6 19  1  0  0  0  0
  7 10  2  0  0  0  0
  7 18  1  0  0  0  0
  8 21  1  0  0  0  0
  9 21  2  0  0  0  0
 10 22  1  0  0  0  0
 11 12  2  0  0  0  0
 11 23  1  0  0  0  0
 12 24  1  0  0  0  0
 13 20  1  0  0  0  0
 13 22  2  0  0  0  0
 14 24  2  0  0  0  0
 14 25  1  0  0  0  0
 15 26  1  0  0  0  0
 16 26  1  0  0  0  0
 16 27  2  0  0  0  0
 16 31  1  0  0  0  0
 17 19  2  0  0  0  0
 17 36  1  0  0  0  0
 18 20  2  0  0  0  0
 18 37  1  0  0  0  0
 19 48  1  0  0  0  0
 20 38  1  0  0  0  0
 21 81  1  0  0  0  0
 22 82  1  0  0  0  0
 23 25  2  0  0  0  0
 23 81  1  0  0  0  0
 24 83  1  0  0  0  0
 25 84  1  0  0  0  0
 26 62  2  0  0  0  0
 27 66  1  0  0  0  0
 27 70  1  0  0  0  0
 28 52  1  0  0  0  0
 28 63  1  0  0  0  0
 28 64  2  0  0  0  0
 29 58  1  0  0  0  0
 29 63  2  0  0  0  0
 29 65  1  0  0  0  0
 30 64  1  0  0  0  0
 30 65  2  0  0  0  0
 30 82  1  0  0  0  0
 31 71  1  0  0  0  0
 31 76  2  0  0  0  0
 32 49  1  0  0  0  0
 32 72  1  0  0  0  0
 32 77  2  0  0  0  0
 33 59  1  0  0  0  0
 33 67  1  0  0  0  0
 33 78  2  0  0  0  0
 34 60  1  0  0  0  0
 34 73  1  0  0  0  0
 34 79  2  0  0  0  0
 35 68  1  0  0  0  0
 35 69  1  0  0  0  0
 35 80  2  0  0  0  0
 36 39  1  0  0  0  0
 37 49  1  0  0  0  0
 38 67  1  0  0  0  0
 39 41  1  0  0  0  0
 40 42  1  0  0  0  0
 40 44  1  0  0  0  0
 41 48  1  0  0  0  0
 42 50  1  0  0  0  0
 43 45  1  0  0  0  0
 43 51  1  0  0  0  0
 44 68  1  0  0  0  0
 45 69  1  0  0  0  0
 46 50  1  0  0  0  0
 46 68  1  0  0  0  0
 47 51  1  0  0  0  0
 47 69  1  0  0  0  0
 48 72  1  0  0  0  0
 49 67  1  0  0  0  0
 50 66  1  0  0  0  0
 51 74  1  0  0  0  0
 53 60  1  0  0  0  0
 54 61  1  0  0  0  0
 55 61  1  0  0  0  0
 56 61  1  0  0  0  0
 57 75  1  0  0  0  0
 58 74  1  0  0  0  0
 59 61  1  0  0  0  0
 59 73  1  0  0  0  0
 60 75  1  0  0  0  0
 62 66  1  0  0  0  0
M  CHG  2  74   1  75   1
M  ISO  4  30 101  35 100  69 100  82 101
M  END
> <Batch ID>
0192

> <Smiles>
CNC(C)C(=O)NC(C(=O)N1Cc2cc([101O:1][101c:1]3nc(C)nc(CNC4CC[100N:0]([100C:0](=O)N5CCCC(n6nc(-c7ccc(Oc8ccc(F)cc8F)cc7)c(C(N)=O)c6N)C5)C4)n3)ccc2CC1C(=O)NC1CCCc2ccccc21)C(C)(C)C

> <Shape>
0.256

> <Color>
0.064

> <Negative vol penalty>
0.000

$$$$

  -OEChem-04052323293D

 80 88  0     1  0  0  0  0  0999 V2000
  -18.5364  -30.5266   23.9070 C   0  0  0  0  0  0  0  0  0  0  0  0
  -19.9142  -30.5852   23.7235 C   0  0  0  0  0  0  0  0  0  0  0  0
  -26.2590  -13.0871   20.1921 C   0  0  0  0  0  0  0  0  0  0  0  0
  -23.9973  -13.3458   21.0013 C   0  0  0  0  0  0  0  0  0  0  0  0
  -17.8506  -29.3391   23.6552 C   0  0  0  0  0  0  0  0  0  0  0  0
  -20.6072  -29.4558   23.2892 C   0  0  0  0  0  0  0  0  0  0  0  0
  -25.5082  -29.3291   19.6191 C   0  0  0  0  0  0  0  0  0  0  0  0
  -26.1954  -11.7181   20.4521 C   0  0  0  0  0  0  0  0  0  0  0  0
  -23.9337  -11.9768   21.2613 C   0  0  0  0  0  0  0  0  0  0  0  0
  -26.8732  -29.2179   19.8805 C   0  0  0  0  0  0  0  0  0  0  0  0
  -23.4558   -9.1293   19.5053 C   0  0  0  0  0  0  0  0  0  0  0  0
  -22.3039   -8.4490   19.1105 C   0  0  0  0  0  0  0  0  0  0  0  0
  -26.7477  -26.8403   19.4926 C   0  0  0  0  0  0  0  0  0  0  0  0
  -21.8939   -7.8118   21.4046 C   0  0  0  0  0  0  0  0  0  0  0  0
  -25.1599  -13.9009   20.4668 C   0  0  0  0  0  0  0  0  0  0  0  0
  -24.8727  -15.9713   19.0044 C   0  0  0  0  0  0  0  0  0  0  0  0
  -18.5342  -28.1973   23.2083 C   0  0  0  0  0  0  0  0  0  0  0  0
  -24.7493  -28.1932   19.3026 C   0  0  0  0  0  0  0  0  0  0  0  0
  -19.9301  -28.2515   23.0325 C   0  0  0  0  0  0  0  0  0  0  0  0
  -25.3738  -26.9401   19.2251 C   0  0  0  0  0  0  0  0  0  0  0  0
  -25.0328  -11.1630   20.9867 C   0  0  0  0  0  0  0  0  0  0  0  0
  -27.4925  -27.9730   19.8201 C   0  0  0  0  0  0  0  0  0  0  0  0
  -23.8268   -9.1507   20.8498 C   0  0  0  0  0  0  0  0  0  0  0  0
  -21.5229   -7.7903   20.0601 C   0  0  0  0  0  0  0  0  0  0  0  0
  -23.0459   -8.4920   21.7994 C   0  0  0  0  0  0  0  0  0  0  0  0
  -25.2252  -15.3152   20.1990 C   0  0  0  0  0  0  0  0  0  0  0  0
  -25.1144  -17.2994   19.2579 C   0  0  0  0  0  0  0  0  0  0  0  0
  -24.3714  -15.4288   17.7755 C   0  0  0  0  0  0  0  0  0  0  0  0
  -22.2786  -26.7032   20.6366 C   0  0  0  0  0  0  0  0  0  0  0  0
  -22.3983  -24.9134   17.9339 C   0  0  0  0  0  0  0  0  0  0  0  0
  -24.2459  -23.7404   15.3153 C   0  0  0  0  0  0  0  0  0  0  0  0
  -28.7176  -21.0707   21.2794 C   0  0  0  0  0  0  0  0  0  0  0  0
  -17.7566  -26.9228   22.9947 C   0  0  0  0  0  0  0  0  0  0  0  0
  -23.2833  -28.3339   18.9972 C   0  0  0  0  0  0  0  0  0  0  0  0
  -24.6077  -25.6930   18.8699 C   0  0  0  0  0  0  0  0  0  0  0  0
  -18.5122  -25.8780   22.1777 C   0  0  0  0  0  0  0  0  0  0  0  0
  -26.1573  -19.6968   23.5843 C   0  0  0  0  0  0  0  0  0  0  0  0
  -19.9438  -25.7366   22.6850 C   0  0  0  0  0  0  0  0  0  0  0  0
  -25.6928  -18.4600   22.8139 C   0  0  0  0  0  0  0  0  0  0  0  0
  -28.0969  -24.4623   22.5534 C   0  0  0  0  0  0  0  0  0  0  0  0
  -27.6207  -20.0024   23.2930 C   0  0  0  0  0  0  0  0  0  0  0  0
  -27.8279  -22.9736   22.7496 C   0  0  0  0  0  0  0  0  0  0  0  0
  -27.4741  -18.9488   21.0691 C   0  0  0  0  0  0  0  0  0  0  0  0
  -29.8662  -23.2559   21.5066 C   0  0  0  0  0  0  0  0  0  0  0  0
  -20.7137  -27.0546   22.5387 C   0  0  1  0  0  0  0  0  0  0  0  0
  -22.5057  -27.0354   19.1889 C   0  0  1  0  0  0  0  0  0  0  0  0
  -25.9961  -18.5940   21.3105 C   0  0  1  0  0  0  0  0  0  0  0  0
  -29.6062  -24.4817   22.3629 C   0  0  1  0  0  0  0  0  0  0  0  0
  -24.0795  -22.2674   13.2904 C   0  0  0  0  0  0  0  0  0  0  0  0
  -22.5123  -22.4447   19.7234 C   0  0  0  0  0  0  0  0  0  0  0  0
  -23.2904  -21.1291   17.7405 C   0  0  0  0  0  0  0  0  0  0  0  0
  -21.0422  -22.2096   17.7139 C   0  0  0  0  0  0  0  0  0  0  0  0
  -24.8927  -25.9788   13.4905 C   0  0  0  0  0  0  0  0  0  0  0  0
  -30.0969  -26.9224   22.5645 C   0  0  0  0  0  0  0  0  0  0  0  0
  -29.3908  -28.8022   20.9885 C   0  0  0  0  0  0  0  0  0  1  0  0
  -23.1115  -23.6490   17.5196 C   0  0  1  0  0  0  0  0  0  0  0  0
  -23.9603  -23.6860   13.8253 C   0  0  2  0  0  0  0  0  0  0  0  0
  -30.5382  -28.1480   21.7642 C   0  0  1  0  0  0  0  0  0  0  0  0
  -22.5034  -22.3811   18.1830 C   0  0  0  0  0  0  0  0  0  0  0  0
  -25.6581  -16.1570   21.1412 N   0  0  0  0  0  0  0  0  0  0  0  0
  -25.5792  -17.3558   20.5389 N   0  0  0  0  0  0  0  0  0  0  0  0
  -23.1754  -25.8812   18.5859 N   0  0  0  0  0  0  0  0  0  0  0  0
  -27.8600  -20.1247   21.8522 N   0  0  0  0  0  0  0  0  0  0  0  0
  -28.8325  -22.3061   21.9151 N   0  0  0  0  0  0  0  0  0  0  0  0
  -24.9726  -18.4128   18.5077 N   0  0  0  0  0  0  0  0  0  0  0  0
  -24.1814  -14.0431   17.6852 N   0  0  0  0  0  0  0  0  0  0  0  0
  -31.0954  -29.1280   22.7041 N   0  0  0  0  0  0  0  0  0  0  0  0
  -21.1248  -27.2500   21.1650 N   0  0  0  0  0  0  0  0  0  0  0  0
  -23.0916  -23.6282   16.0610 N   0  0  0  0  0  0  0  0  0  0  0  0
  -30.0459  -25.7142   21.6886 N   0  3  0  0  0  0  0  0  0  0  0  0
  -24.9198  -24.5507   13.0821 N   0  3  0  0  0  0  0  0  0  0  0  0
  -24.1156  -16.1496   16.7813 O   0  0  0  0  0  0  0  0  0  0  0  0
  -23.0893  -26.0015   21.2298 O   0  0  0  0  0  0  0  0  0  0  0  0
  -21.1976  -25.0408   17.6816 O   0  0  0  0  0  0  0  0  0  0  0  0
  -25.3800  -23.8657   15.7719 O   0  0  0  0  0  0  0  0  0  0  0  0
  -29.3164  -20.8401   20.2205 O   0  0  0  0  0  0  0  0  0  0  0  0
  -24.9703   -9.8272   21.2403 O   0  0  0  0  0  0  0  0  0  0  0  0
  -28.8329  -27.8609   20.0771 O   0  0  0  0  0  0  0  0  0  1  0  0
  -20.4159   -7.1383   19.6810 F   0  0  0  0  0  0  0  0  0  0  0  0
  -23.3966   -8.5102   23.0927 F   0  0  0  0  0  0  0  0  0  0  0  0
  1  2  1  0  0  0  0
  1  5  2  0  0  0  0
  2  6  2  0  0  0  0
  3  8  2  0  0  0  0
  3 15  1  0  0  0  0
  4  9  1  0  0  0  0
  4 15  2  0  0  0  0
  5 17  1  0  0  0  0
  6 19  1  0  0  0  0
  7 10  2  0  0  0  0
  7 18  1  0  0  0  0
  8 21  1  0  0  0  0
  9 21  2  0  0  0  0
 10 22  1  0  0  0  0
 11 12  2  0  0  0  0
 11 23  1  0  0  0  0
 12 24  1  0  0  0  0
 13 20  1  0  0  0  0
 13 22  2  0  0  0  0
 14 24  2  0  0  0  0
 14 25  1  0  0  0  0
 15 26  1  0  0  0  0
 16 26  1  0  0  0  0
 16 27  2  0  0  0  0
 16 28  1  0  0  0  0
 17 19  2  0  0  0  0
 17 33  1  0  0  0  0
 18 20  2  0  0  0  0
 18 34  1  0  0  0  0
 19 45  1  0  0  0  0
 20 35  1  0  0  0  0
 21 77  1  0  0  0  0
 22 78  1  0  0  0  0
 23 25  2  0  0  0  0
 23 77  1  0  0  0  0
 24 79  1  0  0  0  0
 25 80  1  0  0  0  0
 26 60  2  0  0  0  0
 27 61  1  0  0  0  0
 27 65  1  0  0  0  0
 28 66  1  0  0  0  0
 28 72  2  0  0  0  0
 29 46  1  0  0  0  0
 29 68  1  0  0  0  0
 29 73  2  0  0  0  0
 30 56  1  0  0  0  0
 30 62  1  0  0  0  0
 30 74  2  0  0  0  0
 31 57  1  0  0  0  0
 31 69  1  0  0  0  0
 31 75  2  0  0  0  0
 32 63  1  0  0  0  0
 32 64  1  0  0  0  0
 32 76  2  0  0  0  0
 33 36  1  0  0  0  0
 34 46  1  0  0  0  0
 35 62  1  0  0  0  0
 36 38  1  0  0  0  0
 37 39  1  0  0  0  0
 37 41  1  0  0  0  0
 38 45  1  0  0  0  0
 39 47  1  0  0  0  0
 40 42  1  0  0  0  0
 40 48  1  0  0  0  0
 41 63  1  0  0  0  0
 42 64  1  0  0  0  0
 43 47  1  0  0  0  0
 43 63  1  0  0  0  0
 44 48  1  0  0  0  0
 44 64  1  0  0  0  0
 45 68  1  0  0  0  0
 46 62  1  0  0  0  0
 47 61  1  0  0  0  0
 48 70  1  0  0  0  0
 49 57  1  0  0  0  0
 50 59  1  0  0  0  0
 51 59  1  0  0  0  0
 52 59  1  0  0  0  0
 53 71  1  0  0  0  0
 54 58  1  0  0  0  0
 54 70  1  0  0  0  0
 55 58  1  0  0  0  0
 55 78  1  0  0  0  0
 56 59  1  0  0  0  0
 56 69  1  0  0  0  0
 57 71  1  0  0  0  0
 58 67  1  0  0  0  0
 60 61  1  0  0  0  0
M  CHG  2  70   1  71   1
M  ISO  4  32 100  55 101  64 100  78 101
M  END
> <Batch ID>
0192

> <Smiles>
CNC(C)C(=O)NC(C(=O)N1Cc2cc([101O:1][101CH2:1]C(N)CNC3CC[100N:0]([100C:0](=O)N4CCCC(n5nc(-c6ccc(Oc7ccc(F)cc7F)cc6)c(C(N)=O)c5N)C4)C3)ccc2CC1C(=O)NC1CCCc2ccccc21)C(C)(C)C

> <Shape>
0.226

> <Color>
0.075

> <Negative vol penalty>
0.000

$$$$

  -OEChem-04052323293D

 84 93  0     1  0  0  0  0  0999 V2000
  -25.4625  -38.2449   20.0061 C   0  0  0  0  0  0  0  0  0  0  0  0
  -25.8157  -37.1565   19.2149 C   0  0  0  0  0  0  0  0  0  0  0  0
  -24.5843   -9.3303   21.7596 C   0  0  0  0  0  0  0  0  0  0  0  0
  -22.7605  -10.4136   20.6031 C   0  0  0  0  0  0  0  0  0  0  0  0
  -25.5006  -38.1367   21.3956 C   0  0  0  0  0  0  0  0  0  0  0  0
  -26.2082  -35.9595   19.8128 C   0  0  0  0  0  0  0  0  0  0  0  0
  -25.9500  -28.8710   18.8112 C   0  0  0  0  0  0  0  0  0  0  0  0
  -23.6695   -8.6169   22.5340 C   0  0  0  0  0  0  0  0  0  0  0  0
  -21.8457   -9.7001   21.3775 C   0  0  0  0  0  0  0  0  0  0  0  0
  -26.7870  -27.7565   18.7801 C   0  0  0  0  0  0  0  0  0  0  0  0
  -21.8131   -6.2434   24.5676 C   0  0  0  0  0  0  0  0  0  0  0  0
  -22.0442   -4.8805   24.7530 C   0  0  0  0  0  0  0  0  0  0  0  0
  -26.7389  -27.6605   21.1900 C   0  0  0  0  0  0  0  0  0  0  0  0
  -28.7452  -23.1317   18.5248 C   0  0  0  0  0  0  0  0  0  0  0  0
  -21.9210   -4.5347   22.3651 C   0  0  0  0  0  0  0  0  0  0  0  0
  -24.1298  -10.2287   20.7941 C   0  0  0  0  0  0  0  0  0  0  0  0
  -25.6273  -10.5791   18.7588 C   0  0  0  0  0  0  0  0  0  0  0  0
  -25.8846  -36.9348   22.0109 C   0  0  0  0  0  0  0  0  0  0  0  0
  -25.5092  -29.3962   20.0345 C   0  0  0  0  0  0  0  0  0  0  0  0
  -26.2528  -35.8355   21.2118 C   0  0  0  0  0  0  0  0  0  0  0  0
  -25.8943  -28.7803   21.2339 C   0  0  0  0  0  0  0  0  0  0  0  0
  -29.2629  -24.3814   18.8164 C   0  0  0  0  0  0  0  0  0  0  0  0
  -22.3002   -8.8018   22.3430 C   0  0  0  0  0  0  0  0  0  0  0  0
  -27.1839  -27.1528   19.9696 C   0  0  0  0  0  0  0  0  0  0  0  0
  -21.6359   -6.7521   23.2809 C   0  0  0  0  0  0  0  0  0  0  0  0
  -22.0982   -4.0261   23.6518 C   0  0  0  0  0  0  0  0  0  0  0  0
  -21.6898   -5.8977   22.1796 C   0  0  0  0  0  0  0  0  0  0  0  0
  -25.0743  -10.9664   19.9941 C   0  0  0  0  0  0  0  0  0  0  0  0
  -30.5714  -24.4535   19.2501 C   0  0  0  0  0  0  0  0  0  0  0  0
  -29.5703  -22.0368   18.6859 C   0  0  0  0  0  0  0  0  0  0  0  0
  -26.4599  -11.6160   18.4153 C   0  0  0  0  0  0  0  0  0  0  0  0
  -25.4080   -9.3886   17.9906 C   0  0  0  0  0  0  0  0  0  0  0  0
  -25.8530  -32.1766   21.5361 C   0  0  0  0  0  0  0  0  0  0  0  0
  -23.7627  -30.8569   23.6364 C   0  0  0  0  0  0  0  0  0  0  0  0
  -22.4003  -28.0306   24.9792 C   0  0  0  0  0  0  0  0  0  0  0  0
  -27.6182  -16.8292   17.8450 C   0  0  0  0  0  0  0  0  0  0  0  0
  -25.9559  -36.8804   23.5164 C   0  0  0  0  0  0  0  0  0  0  0  0
  -24.5851  -30.5828   20.0501 C   0  0  0  0  0  0  0  0  0  0  0  0
  -25.4324  -29.2930   22.5726 C   0  0  0  0  0  0  0  0  0  0  0  0
  -26.0230  -35.4602   24.0721 C   0  0  0  0  0  0  0  0  0  0  0  0
  -28.0787  -15.5796   21.0955 C   0  0  0  0  0  0  0  0  0  0  0  0
  -27.0478  -34.6335   23.3020 C   0  0  0  0  0  0  0  0  0  0  0  0
  -27.3766  -14.2252   21.0025 C   0  0  0  0  0  0  0  0  0  0  0  0
  -27.3101  -16.6755   20.3553 C   0  0  0  0  0  0  0  0  0  0  0  0
  -29.9429  -19.7178   17.9039 C   0  0  0  0  0  0  0  0  0  0  0  0
  -27.8580  -20.3345   19.1363 C   0  0  0  0  0  0  0  0  0  0  0  0
  -29.1654  -18.6279   17.1708 C   0  0  0  0  0  0  0  0  0  0  0  0
  -27.1153  -19.2434   18.3730 C   0  0  0  0  0  0  0  0  0  0  0  0
  -26.2990  -14.9906   18.8531 C   0  0  0  0  0  0  0  0  0  0  0  0
  -26.6602  -34.5126   21.8232 C   0  0  1  0  0  0  0  0  0  0  0  0
  -24.6128  -31.3444   21.3717 C   0  0  1  0  0  0  0  0  0  0  0  0
  -27.0781  -13.8571   19.5383 C   0  0  2  0  0  0  0  0  0  0  0  0
  -31.1968  -25.7661   19.5832 C   0  0  0  0  0  0  0  0  0  0  0  0
  -20.7435  -27.2699   26.7037 C   0  0  0  0  0  0  0  0  0  0  0  0
  -25.7698  -31.4969   25.8436 C   0  0  0  0  0  0  0  0  0  0  0  0
  -24.5339  -29.9080   27.3323 C   0  0  0  0  0  0  0  0  0  0  0  0
  -23.3823  -31.9353   26.4454 C   0  0  0  0  0  0  0  0  0  0  0  0
  -20.7234  -26.6874   22.9438 C   0  0  0  0  0  0  0  0  0  0  0  0
  -28.4143  -25.5955   18.6594 C   0  0  0  0  0  0  0  0  0  1  0  0
  -23.8879  -30.0136   24.8823 C   0  0  1  0  0  0  0  0  0  0  0  0
  -20.9588  -27.6345   25.2430 C   0  0  2  0  0  0  0  0  0  0  0  0
  -24.4039  -30.8297   26.1009 C   0  0  0  0  0  0  0  0  0  0  0  0
  -25.5183  -12.1563   20.4075 N   0  0  0  0  0  0  0  0  0  0  0  0
  -31.3561  -23.3652   19.3987 N   0  0  0  0  0  0  0  0  0  0  0  0
  -30.8473  -22.1369   19.1117 N   0  0  0  0  0  0  0  0  0  0  0  0
  -26.3592  -12.5257   19.4264 N   0  0  0  0  0  0  0  0  0  0  0  0
  -29.0463  -20.7717   18.3908 N   0  0  0  0  0  0  0  0  0  0  0  0
  -24.5349  -30.4595   22.5357 N   0  0  0  0  0  0  0  0  0  0  0  0
  -27.0132  -16.2630   18.9770 N   0  0  0  0  0  0  0  0  0  0  0  0
  -28.0160  -18.1718   17.9430 N   0  0  0  0  0  0  0  0  0  0  0  0
  -27.2612  -11.8292   17.3499 N   0  0  0  0  0  0  0  0  0  0  0  0
  -24.5205   -8.4254   18.4896 N   0  0  0  0  0  0  0  0  0  0  0  0
  -25.6096  -33.5317   21.6547 N   0  0  0  0  0  0  0  0  0  0  0  0
  -22.5837  -29.3929   25.0879 N   0  0  0  0  0  0  0  0  0  0  0  0
  -20.5825  -26.4608   24.4053 N   0  3  0  0  0  0  0  0  0  0  0  0
  -25.9945   -9.1775   16.9020 O   0  0  0  0  0  0  0  0  0  0  0  0
  -26.9494  -31.6297   21.5555 O   0  0  0  0  0  0  0  0  0  0  0  0
  -23.0021  -31.8280   23.6374 O   0  0  0  0  0  0  0  0  0  0  0  0
  -23.2768  -27.2129   24.7079 O   0  0  0  0  0  0  0  0  0  0  0  0
  -27.7960  -16.1759   16.8094 O   0  0  0  0  0  0  0  0  0  0  0  0
  -21.4073   -8.1056   23.0984 O   0  0  0  0  0  0  0  0  0  0  0  0
  -28.0068  -26.0579   19.9419 O   0  0  0  0  0  0  0  0  0  1  0  0
  -22.3217   -2.7174   23.8299 F   0  0  0  0  0  0  0  0  0  0  0  0
  -21.5215   -6.3807   20.9410 F   0  0  0  0  0  0  0  0  0  0  0  0
  1  2  1  0  0  0  0
  1  5  2  0  0  0  0
  2  6  2  0  0  0  0
  3  8  2  0  0  0  0
  3 16  1  0  0  0  0
  4  9  1  0  0  0  0
  4 16  2  0  0  0  0
  5 18  1  0  0  0  0
  6 20  1  0  0  0  0
  7 10  2  0  0  0  0
  7 19  1  0  0  0  0
  8 23  1  0  0  0  0
  9 23  2  0  0  0  0
 10 24  1  0  0  0  0
 11 12  2  0  0  0  0
 11 25  1  0  0  0  0
 12 26  1  0  0  0  0
 13 21  1  0  0  0  0
 13 24  2  0  0  0  0
 14 22  1  0  0  0  0
 14 30  2  0  0  0  0
 15 26  2  0  0  0  0
 15 27  1  0  0  0  0
 16 28  1  0  0  0  0
 17 28  1  0  0  0  0
 17 31  2  0  0  0  0
 17 32  1  0  0  0  0
 18 20  2  0  0  0  0
 18 37  1  0  0  0  0
 19 21  2  0  0  0  0
 19 38  1  0  0  0  0
 20 50  1  0  0  0  0
 21 39  1  0  0  0  0
 22 29  2  0  0  0  0
 22 59  1  0  0  0  0
 23 81  1  0  0  0  0
 24 82  1  0  0  0  0
 25 27  2  0  0  0  0
 25 81  1  0  0  0  0
 26 83  1  0  0  0  0
 27 84  1  0  0  0  0
 28 63  2  0  0  0  0
 29 53  1  0  0  0  0
 29 64  1  0  0  0  0
 30 65  1  0  0  0  0
 30 67  1  0  0  0  0
 31 66  1  0  0  0  0
 31 71  1  0  0  0  0
 32 72  1  0  0  0  0
 32 76  2  0  0  0  0
 33 51  1  0  0  0  0
 33 73  1  0  0  0  0
 33 77  2  0  0  0  0
 34 60  1  0  0  0  0
 34 68  1  0  0  0  0
 34 78  2  0  0  0  0
 35 61  1  0  0  0  0
 35 74  1  0  0  0  0
 35 79  2  0  0  0  0
 36 69  1  0  0  0  0
 36 70  1  0  0  0  0
 36 80  2  0  0  0  0
 37 40  1  0  0  0  0
 38 51  1  0  0  0  0
 39 68  1  0  0  0  0
 40 42  1  0  0  0  0
 41 43  1  0  0  0  0
 41 44  1  0  0  0  0
 42 50  1  0  0  0  0
 43 52  1  0  0  0  0
 44 69  1  0  0  0  0
 45 47  1  0  0  0  0
 45 67  1  0  0  0  0
 46 48  1  0  0  0  0
 46 67  1  0  0  0  0
 47 70  1  0  0  0  0
 48 70  1  0  0  0  0
 49 52  1  0  0  0  0
 49 69  1  0  0  0  0
 50 73  1  0  0  0  0
 51 68  1  0  0  0  0
 52 66  1  0  0  0  0
 54 61  1  0  0  0  0
 55 62  1  0  0  0  0
 56 62  1  0  0  0  0
 57 62  1  0  0  0  0
 58 75  1  0  0  0  0
 59 82  1  0  0  0  0
 60 62  1  0  0  0  0
 60 74  1  0  0  0  0
 61 75  1  0  0  0  0
 63 66  1  0  0  0  0
 64 65  2  0  0  0  0
M  CHG  1  75   1
M  ISO  4  36 100  59 101  70 100  82 101
M  END
> <Batch ID>
0192

> <Smiles>
CNC(C)C(=O)NC(C(=O)N1Cc2cc([101O:1][101CH2:1]c3cc(N4CC[100N:0]([100C:0](=O)N5CCCC(n6nc(-c7ccc(Oc8ccc(F)cc8F)cc7)c(C(N)=O)c6N)C5)CC4)nnc3C)ccc2CC1C(=O)NC1CCCc2ccccc21)C(C)(C)C

> <Shape>
0.303

> <Color>
0.105

> <Negative vol penalty>
0.000

$$$$

  -OEChem-04052323293D

 86 96  0     1  0  0  0  0  0999 V2000
  -25.8754  -37.9412   20.8366 C   0  0  0  0  0  0  0  0  0  0  0  0
  -26.5829  -36.7957   20.4864 C   0  0  0  0  0  0  0  0  0  0  0  0
  -24.1627   -9.1432   22.3238 C   0  0  0  0  0  0  0  0  0  0  0  0
  -23.3588   -9.7761   20.1351 C   0  0  0  0  0  0  0  0  0  0  0  0
  -24.9737  -37.9046   21.8994 C   0  0  0  0  0  0  0  0  0  0  0  0
  -26.3900  -35.6131   21.1995 C   0  0  0  0  0  0  0  0  0  0  0  0
  -26.5388  -29.9081   18.9777 C   0  0  0  0  0  0  0  0  0  0  0  0
  -23.1924   -8.1434   22.3910 C   0  0  0  0  0  0  0  0  0  0  0  0
  -22.3885   -8.7763   20.2024 C   0  0  0  0  0  0  0  0  0  0  0  0
  -27.5329  -28.9306   18.9689 C   0  0  0  0  0  0  0  0  0  0  0  0
  -22.7381   -5.0264   21.1619 C   0  0  0  0  0  0  0  0  0  0  0  0
  -23.1343   -3.7680   21.6148 C   0  0  0  0  0  0  0  0  0  0  0  0
  -26.5687  -27.9409   20.9463 C   0  0  0  0  0  0  0  0  0  0  0  0
  -21.5568   -3.9275   23.4378 C   0  0  0  0  0  0  0  0  0  0  0  0
  -28.1952  -23.8717   20.3816 C   0  0  0  0  0  0  0  0  0  0  0  0
  -24.2459   -9.9596   21.1958 C   0  0  0  0  0  0  0  0  0  0  0  0
  -26.5534  -10.8777   20.6128 C   0  0  0  0  0  0  0  0  0  0  0  0
  -24.7625  -36.7184   22.6198 C   0  0  0  0  0  0  0  0  0  0  0  0
  -25.5570  -29.9158   19.9789 C   0  0  0  0  0  0  0  0  0  0  0  0
  -25.4856  -35.5609   22.2739 C   0  0  0  0  0  0  0  0  0  0  0  0
  -25.5618  -28.9181   20.9641 C   0  0  0  0  0  0  0  0  0  0  0  0
  -22.3054   -7.9599   21.3303 C   0  0  0  0  0  0  0  0  0  0  0  0
  -27.5496  -27.9485   19.9549 C   0  0  0  0  0  0  0  0  0  0  0  0
  -21.7513   -5.7354   21.8469 C   0  0  0  0  0  0  0  0  0  0  0  0
  -22.5436   -3.2186   22.7527 C   0  0  0  0  0  0  0  0  0  0  0  0
  -21.1607   -5.1860   22.9848 C   0  0  0  0  0  0  0  0  0  0  0  0
  -25.2476  -10.9929   21.1260 C   0  0  0  0  0  0  0  0  0  0  0  0
  -26.8168  -22.7808   18.3723 C   0  0  0  0  0  0  0  0  0  0  0  0
  -28.4710  -24.1966   19.0717 C   0  0  0  0  0  0  0  0  0  0  0  0
  -26.5416  -22.4553   19.6823 C   0  0  0  0  0  0  0  0  0  0  0  0
  -27.0973  -12.1287   20.7739 C   0  0  0  0  0  0  0  0  0  0  0  0
  -27.2156   -9.7416   20.0415 C   0  0  0  0  0  0  0  0  0  0  0  0
  -24.7024  -31.9499   22.2670 C   0  0  0  0  0  0  0  0  0  0  0  0
  -22.2811  -29.8358   22.7028 C   0  0  0  0  0  0  0  0  0  0  0  0
  -21.1208  -26.6461   22.3473 C   0  0  0  0  0  0  0  0  0  0  0  0
  -24.6341  -17.4772   21.0797 C   0  0  0  0  0  0  0  0  0  0  0  0
  -23.8125  -36.7398   23.7910 C   0  0  0  0  0  0  0  0  0  0  0  0
  -24.4759  -30.9614   19.9589 C   0  0  0  0  0  0  0  0  0  0  0  0
  -24.5184  -28.8701   22.0492 C   0  0  0  0  0  0  0  0  0  0  0  0
  -23.3888  -35.3493   24.2571 C   0  0  0  0  0  0  0  0  0  0  0  0
  -26.8114  -16.0048   23.5660 C   0  0  0  0  0  0  0  0  0  0  0  0
  -24.6017  -34.4310   24.3685 C   0  0  0  0  0  0  0  0  0  0  0  0
  -25.3654  -23.0797   16.2562 C   0  0  0  0  0  0  0  0  0  0  0  0
  -24.5477  -22.2959   17.2346 C   0  0  0  0  0  0  0  0  0  0  0  0
  -26.7771  -14.5299   23.1624 C   0  0  0  0  0  0  0  0  0  0  0  0
  -25.4471  -16.6624   23.3780 C   0  0  0  0  0  0  0  0  0  0  0  0
  -24.8529  -15.0660   21.5986 C   0  0  0  0  0  0  0  0  0  0  0  0
  -25.4593  -20.1893   19.5256 C   0  0  0  0  0  0  0  0  0  0  0  0
  -24.9230  -21.3031   21.2260 C   0  0  0  0  0  0  0  0  0  0  0  0
  -25.2855  -34.2526   23.0076 C   0  0  1  0  0  0  0  0  0  0  0  0
  -26.0482  -22.1737   17.2458 C   0  0  0  0  0  0  0  0  0  0  0  0
  -23.8268  -31.1758   21.3227 C   0  0  1  0  0  0  0  0  0  0  0  0
  -26.2087  -14.3512   21.7423 C   0  0  2  0  0  0  0  0  0  0  0  0
  -24.4630  -19.9487   20.6685 C   0  0  0  0  0  0  0  0  0  0  0  0
  -19.1191  -25.2125   22.8326 C   0  0  0  0  0  0  0  0  0  0  0  0
  -23.0868  -29.7102   25.6430 C   0  0  0  0  0  0  0  0  0  0  0  0
  -21.7265  -27.6191   25.8545 C   0  0  0  0  0  0  0  0  0  0  0  0
  -20.6195  -29.7681   25.2391 C   0  0  0  0  0  0  0  0  0  0  0  0
  -20.6900  -26.0732   19.4759 C   0  0  0  0  0  0  0  0  0  0  0  0
  -29.5648  -25.1827   18.7410 C   0  0  0  0  0  0  0  0  0  0  0  0
  -29.0529  -26.6177   18.6801 C   0  0  0  0  0  0  0  0  0  1  0  0
  -22.0818  -28.5966   23.5417 C   0  0  1  0  0  0  0  0  0  0  0  0
  -19.8069  -26.1059   21.8121 C   0  0  2  0  0  0  0  0  0  0  0  0
  -21.8996  -28.9253   25.0504 C   0  0  0  0  0  0  0  0  0  0  0  0
  -27.2257  -22.9952   20.7104 N   0  0  0  0  0  0  0  0  0  0  0  0
  -24.9781  -12.2201   21.5793 N   0  0  0  0  0  0  0  0  0  0  0  0
  -27.7867  -23.6570   18.0435 N   0  0  0  0  0  0  0  0  0  0  0  0
  -26.1222  -12.8874   21.3516 N   0  0  0  0  0  0  0  0  0  0  0  0
  -25.5126  -21.5287   19.9647 N   0  0  0  0  0  0  0  0  0  0  0  0
  -23.4859  -29.9180   21.9905 N   0  0  0  0  0  0  0  0  0  0  0  0
  -24.9716  -16.4721   22.0001 N   0  0  0  0  0  0  0  0  0  0  0  0
  -28.3096  -12.6425   20.4764 N   0  0  0  0  0  0  0  0  0  0  0  0
  -26.5113   -8.5332   19.9515 N   0  0  0  0  0  0  0  0  0  0  0  0
  -24.5427  -33.3202   22.1871 N   0  0  0  0  0  0  0  0  0  0  0  0
  -20.9604  -27.8772   22.9472 N   0  0  0  0  0  0  0  0  0  0  0  0
  -24.7736  -18.7868   21.5268 N   0  0  0  0  0  0  0  0  0  0  0  0
  -20.0399  -25.3113   20.5731 N   0  3  0  0  0  0  0  0  0  0  0  0
  -28.4023   -9.7920   19.6382 O   0  0  0  0  0  0  0  0  0  0  0  0
  -25.4653  -31.3485   23.0140 O   0  0  0  0  0  0  0  0  0  0  0  0
  -21.3971  -30.6957   22.6748 O   0  0  0  0  0  0  0  0  0  0  0  0
  -22.1825  -26.0351   22.2469 O   0  0  0  0  0  0  0  0  0  0  0  0
  -24.2403  -17.2322   19.9341 O   0  0  0  0  0  0  0  0  0  0  0  0
  -21.3586   -6.9843   21.3955 O   0  0  0  0  0  0  0  0  0  0  0  0
  -28.5191  -26.9935   19.9490 O   0  0  0  0  0  0  0  0  0  1  0  0
  -22.9231   -2.0095   23.1867 F   0  0  0  0  0  0  0  0  0  0  0  0
  -20.2113   -5.8618   23.6464 F   0  0  0  0  0  0  0  0  0  0  0  0
  1  2  1  0  0  0  0
  1  5  2  0  0  0  0
  2  6  2  0  0  0  0
  3  8  2  0  0  0  0
  3 16  1  0  0  0  0
  4  9  1  0  0  0  0
  4 16  2  0  0  0  0
  5 18  1  0  0  0  0
  6 20  1  0  0  0  0
  7 10  2  0  0  0  0
  7 19  1  0  0  0  0
  8 22  1  0  0  0  0
  9 22  2  0  0  0  0
 10 23  1  0  0  0  0
 11 12  2  0  0  0  0
 11 24  1  0  0  0  0
 12 25  1  0  0  0  0
 13 21  1  0  0  0  0
 13 23  2  0  0  0  0
 14 25  2  0  0  0  0
 14 26  1  0  0  0  0
 15 29  1  0  0  0  0
 15 65  2  0  0  0  0
 16 27  1  0  0  0  0
 17 27  1  0  0  0  0
 17 31  2  0  0  0  0
 17 32  1  0  0  0  0
 18 20  2  0  0  0  0
 18 37  1  0  0  0  0
 19 21  2  0  0  0  0
 19 38  1  0  0  0  0
 20 50  1  0  0  0  0
 21 39  1  0  0  0  0
 22 83  1  0  0  0  0
 23 84  1  0  0  0  0
 24 26  2  0  0  0  0
 24 83  1  0  0  0  0
 25 85  1  0  0  0  0
 26 86  1  0  0  0  0
 27 66  2  0  0  0  0
 28 30  2  0  0  0  0
 28 51  1  0  0  0  0
 28 67  1  0  0  0  0
 29 60  1  0  0  0  0
 29 67  2  0  0  0  0
 30 65  1  0  0  0  0
 30 69  1  0  0  0  0
 31 68  1  0  0  0  0
 31 72  1  0  0  0  0
 32 73  1  0  0  0  0
 32 78  2  0  0  0  0
 33 52  1  0  0  0  0
 33 74  1  0  0  0  0
 33 79  2  0  0  0  0
 34 62  1  0  0  0  0
 34 70  1  0  0  0  0
 34 80  2  0  0  0  0
 35 63  1  0  0  0  0
 35 75  1  0  0  0  0
 35 81  2  0  0  0  0
 36 71  1  0  0  0  0
 36 76  1  0  0  0  0
 36 82  2  0  0  0  0
 37 40  1  0  0  0  0
 38 52  1  0  0  0  0
 39 70  1  0  0  0  0
 40 42  1  0  0  0  0
 41 45  1  0  0  0  0
 41 46  1  0  0  0  0
 42 50  1  0  0  0  0
 43 44  1  0  0  0  0
 43 51  1  0  0  0  0
 44 51  1  0  0  0  0
 45 53  1  0  0  0  0
 46 71  1  0  0  0  0
 47 53  1  0  0  0  0
 47 71  1  0  0  0  0
 48 54  1  0  0  0  0
 48 69  1  0  0  0  0
 49 54  1  0  0  0  0
 49 69  1  0  0  0  0
 50 74  1  0  0  0  0
 52 70  1  0  0  0  0
 53 68  1  0  0  0  0
 54 76  1  0  0  0  0
 55 63  1  0  0  0  0
 56 64  1  0  0  0  0
 57 64  1  0  0  0  0
 58 64  1  0  0  0  0
 59 77  1  0  0  0  0
 60 61  1  0  0  0  0
 61 84  1  0  0  0  0
 62 64  1  0  0  0  0
 62 75  1  0  0  0  0
 63 77  1  0  0  0  0
 66 68  1  0  0  0  0
M  CHG  1  77   1
M  ISO  4  36 100  61 101  76 100  84 101
M  END
> <Batch ID>
0192

> <Smiles>
CNC(C)C(=O)NC(C(=O)N1Cc2cc([101O:1][101CH2:1]Cc3cnc(N4CC([100NH:0][100C:0](=O)N5CCCC(n6nc(-c7ccc(Oc8ccc(F)cc8F)cc7)c(C(N)=O)c6N)C5)C4)c(C4CC4)n3)ccc2CC1C(=O)NC1CCCc2ccccc21)C(C)(C)C

> <Shape>
0.278

> <Color>
0.091

> <Negative vol penalty>
0.000

$$$$

  -OEChem-04052323293D

 86 95  0     1  0  0  0  0  0999 V2000
  -27.1506  -30.0637   23.6341 C   0  0  0  0  0  0  0  0  0  0  0  0
  -27.6646  -29.0670   22.8107 C   0  0  0  0  0  0  0  0  0  0  0  0
  -22.9866  -10.0468   19.9032 C   0  0  0  0  0  0  0  0  0  0  0  0
  -24.0200   -9.7408   22.0655 C   0  0  0  0  0  0  0  0  0  0  0  0
  -25.9884  -30.7401   23.2656 C   0  0  0  0  0  0  0  0  0  0  0  0
  -27.0160  -28.7454   21.6189 C   0  0  0  0  0  0  0  0  0  0  0  0
  -30.2268  -28.2353   17.7362 C   0  0  0  0  0  0  0  0  0  0  0  0
  -22.2654   -8.8662   20.0808 C   0  0  0  0  0  0  0  0  0  0  0  0
  -23.2987   -8.5602   22.2431 C   0  0  0  0  0  0  0  0  0  0  0  0
  -30.9466  -27.0439   17.6576 C   0  0  0  0  0  0  0  0  0  0  0  0
  -20.1589   -7.6694   23.1196 C   0  0  0  0  0  0  0  0  0  0  0  0
  -19.5496   -7.4639   24.3575 C   0  0  0  0  0  0  0  0  0  0  0  0
  -29.3957  -26.2231   16.0023 C   0  0  0  0  0  0  0  0  0  0  0  0
  -20.8489   -5.4500   24.6626 C   0  0  0  0  0  0  0  0  0  0  0  0
  -23.8639  -10.4841   20.8955 C   0  0  0  0  0  0  0  0  0  0  0  0
  -24.2178  -13.0034   21.0838 C   0  0  0  0  0  0  0  0  0  0  0  0
  -25.3306  -30.4333   22.0641 C   0  0  0  0  0  0  0  0  0  0  0  0
  -29.0778  -28.4255   16.9552 C   0  0  0  0  0  0  0  0  0  0  0  0
  -25.8432  -29.4174   21.2348 C   0  0  0  0  0  0  0  0  0  0  0  0
  -28.6645  -27.4188   16.0710 C   0  0  0  0  0  0  0  0  0  0  0  0
  -22.4214   -8.1229   21.2507 C   0  0  0  0  0  0  0  0  0  0  0  0
  -30.5295  -26.0364   16.7927 C   0  0  0  0  0  0  0  0  0  0  0  0
  -21.1131   -6.7651   22.6532 C   0  0  0  0  0  0  0  0  0  0  0  0
  -19.8947   -6.3542   25.1290 C   0  0  0  0  0  0  0  0  0  0  0  0
  -21.4581   -5.6554   23.4248 C   0  0  0  0  0  0  0  0  0  0  0  0
  -24.6097  -11.7033   20.7124 C   0  0  0  0  0  0  0  0  0  0  0  0
  -29.5320  -23.0694   19.2113 C   0  0  0  0  0  0  0  0  0  0  0  0
  -30.2067  -21.8762   19.1724 C   0  0  0  0  0  0  0  0  0  0  0  0
  -25.2663  -13.8018   20.6967 C   0  0  0  0  0  0  0  0  0  0  0  0
  -30.8707  -23.8435   17.5654 C   0  0  0  0  0  0  0  0  0  1  0  0
  -23.0138  -13.4495   21.7219 C   0  0  0  0  0  0  0  0  0  0  0  0
  -26.0006  -28.9242   17.5762 C   0  0  0  0  0  0  0  0  0  0  0  0
  -25.8159  -29.3136   14.3612 C   0  0  0  0  0  0  0  0  0  0  0  0
  -27.1402  -28.6652   11.2834 C   0  0  0  0  0  0  0  0  0  0  0  0
  -30.9199  -14.4307   20.7317 C   0  0  0  0  0  0  0  0  0  0  0  0
  -24.0511  -31.1590   21.7311 C   0  0  0  0  0  0  0  0  0  0  0  0
  -28.3277  -29.7270   17.0320 C   0  0  0  0  0  0  0  0  0  0  0  0
  -27.4493  -27.5816   15.1961 C   0  0  0  0  0  0  0  0  0  0  0  0
  -23.6326  -31.0165   20.2700 C   0  0  0  0  0  0  0  0  0  0  0  0
  -29.2940  -12.8139   17.8191 C   0  0  0  0  0  0  0  0  0  0  0  0
  -23.7372  -29.5615   19.8241 C   0  0  0  0  0  0  0  0  0  0  0  0
  -27.9271  -12.4241   18.3785 C   0  0  0  0  0  0  0  0  0  0  0  0
  -31.8317  -17.7311   21.2907 C   0  0  0  0  0  0  0  0  0  0  0  0
  -29.5521  -17.6347   20.2061 C   0  0  0  0  0  0  0  0  0  0  0  0
  -30.3595  -12.8631   18.9096 C   0  0  0  0  0  0  0  0  0  0  0  0
  -31.4896  -16.4504   22.0475 C   0  0  0  0  0  0  0  0  0  0  0  0
  -29.2645  -16.3369   20.9668 C   0  0  0  0  0  0  0  0  0  0  0  0
  -28.6374  -13.3562   20.6165 C   0  0  0  0  0  0  0  0  0  0  0  0
  -25.1820  -29.0570   19.9221 C   0  0  1  0  0  0  0  0  0  0  0  0
  -26.8790  -29.6099   16.5683 C   0  0  1  0  0  0  0  0  0  0  0  0
  -27.5328  -13.3411   19.5490 C   0  0  2  0  0  0  0  0  0  0  0  0
  -30.5563  -18.5037   20.9602 C   0  0  0  0  0  0  0  0  0  0  0  0
  -27.6023  -24.5490   19.8224 C   0  0  0  0  0  0  0  0  0  0  0  0
  -26.7463  -29.0859    8.8410 C   0  0  0  0  0  0  0  0  0  0  0  0
  -23.5969  -27.2193   14.3608 C   0  0  0  0  0  0  0  0  0  0  0  0
  -23.9079  -26.9914   11.8870 C   0  0  0  0  0  0  0  0  0  0  0  0
  -23.1867  -29.1741   12.8557 C   0  0  0  0  0  0  0  0  0  0  0  0
  -29.7101  -30.1050   10.9982 C   0  0  0  0  0  0  0  0  0  0  0  0
  -28.4040  -23.2940   20.1592 C   0  0  0  0  0  0  0  0  0  0  0  0
  -29.8514  -20.7290   20.0717 C   0  0  0  0  0  0  0  0  0  0  0  0
  -25.5704  -28.3986   13.1858 C   0  0  1  0  0  0  0  0  0  0  0  0
  -27.4394  -29.5729   10.1040 C   0  0  2  0  0  0  0  0  0  0  0  0
  -24.0873  -27.9417   13.0901 C   0  0  0  0  0  0  0  0  0  0  0  0
  -25.8130  -11.6730   20.1336 N   0  0  0  0  0  0  0  0  0  0  0  0
  -29.8510  -24.0904   18.4013 N   0  0  0  0  0  0  0  0  0  0  0  0
  -31.2228  -21.6865   18.3112 N   0  0  0  0  0  0  0  0  0  0  0  0
  -31.5686  -22.6936   17.4826 N   0  0  0  0  0  0  0  0  0  0  0  0
  -26.1863  -12.9640   20.1383 N   0  0  0  0  0  0  0  0  0  0  0  0
  -26.7457  -28.8696   15.3120 N   0  0  0  0  0  0  0  0  0  0  0  0
  -29.9424  -13.7026   20.0329 N   0  0  0  0  0  0  0  0  0  0  0  0
  -30.5160  -15.6444   21.3083 N   0  0  0  0  0  0  0  0  0  0  0  0
  -25.4816  -15.1317   20.7827 N   0  0  0  0  0  0  0  0  0  0  0  0
  -22.0400  -12.4970   22.0516 N   0  0  0  0  0  0  0  0  0  0  0  0
  -25.9654  -29.5481   18.8087 N   0  0  0  0  0  0  0  0  0  0  0  0
  -26.0539  -29.1095   12.0071 N   0  0  0  0  0  0  0  0  0  0  0  0
  -30.9052  -19.6805   20.1230 N   0  3  0  0  0  0  0  0  0  0  0  0
  -28.9065  -29.6208    9.8464 N   0  3  0  0  0  0  0  0  0  0  0  0
  -22.8006  -14.6591   21.9767 O   0  0  0  0  0  0  0  0  0  0  0  0
  -25.3982  -27.9054   17.2588 O   0  0  0  0  0  0  0  0  0  0  0  0
  -25.2104  -30.3862   14.4294 O   0  0  0  0  0  0  0  0  0  0  0  0
  -27.8015  -27.6603   11.5352 O   0  0  0  0  0  0  0  0  0  0  0  0
  -32.0831  -14.0207   20.8316 O   0  0  0  0  0  0  0  0  0  0  0  0
  -21.7176   -6.9709   21.4245 O   0  0  0  0  0  0  0  0  0  0  0  0
  -31.2391  -24.8570   16.7134 O   0  0  0  0  0  0  0  0  0  1  0  0
  -19.3107   -6.1579   26.3183 F   0  0  0  0  0  0  0  0  0  0  0  0
  -22.3750   -4.7839   22.9825 F   0  0  0  0  0  0  0  0  0  0  0  0
  1  2  1  0  0  0  0
  1  5  2  0  0  0  0
  2  6  2  0  0  0  0
  3  8  2  0  0  0  0
  3 15  1  0  0  0  0
  4  9  1  0  0  0  0
  4 15  2  0  0  0  0
  5 17  1  0  0  0  0
  6 19  1  0  0  0  0
  7 10  2  0  0  0  0
  7 18  1  0  0  0  0
  8 21  1  0  0  0  0
  9 21  2  0  0  0  0
 10 22  1  0  0  0  0
 11 12  2  0  0  0  0
 11 23  1  0  0  0  0
 12 24  1  0  0  0  0
 13 20  1  0  0  0  0
 13 22  2  0  0  0  0
 14 24  2  0  0  0  0
 14 25  1  0  0  0  0
 15 26  1  0  0  0  0
 16 26  1  0  0  0  0
 16 29  2  0  0  0  0
 16 31  1  0  0  0  0
 17 19  2  0  0  0  0
 17 36  1  0  0  0  0
 18 20  2  0  0  0  0
 18 37  1  0  0  0  0
 19 49  1  0  0  0  0
 20 38  1  0  0  0  0
 21 83  1  0  0  0  0
 22 84  1  0  0  0  0
 23 25  2  0  0  0  0
 23 83  1  0  0  0  0
 24 85  1  0  0  0  0
 25 86  1  0  0  0  0
 26 64  2  0  0  0  0
 27 28  2  0  0  0  0
 27 59  1  0  0  0  0
 27 65  1  0  0  0  0
 28 60  1  0  0  0  0
 28 66  1  0  0  0  0
 29 68  1  0  0  0  0
 29 72  1  0  0  0  0
 30 65  2  0  0  0  0
 30 67  1  0  0  0  0
 30 84  1  0  0  0  0
 31 73  1  0  0  0  0
 31 78  2  0  0  0  0
 32 50  1  0  0  0  0
 32 74  1  0  0  0  0
 32 79  2  0  0  0  0
 33 61  1  0  0  0  0
 33 69  1  0  0  0  0
 33 80  2  0  0  0  0
 34 62  1  0  0  0  0
 34 75  1  0  0  0  0
 34 81  2  0  0  0  0
 35 70  1  0  0  0  0
 35 71  1  0  0  0  0
 35 82  2  0  0  0  0
 36 39  1  0  0  0  0
 37 50  1  0  0  0  0
 38 69  1  0  0  0  0
 39 41  1  0  0  0  0
 40 42  1  0  0  0  0
 40 45  1  0  0  0  0
 41 49  1  0  0  0  0
 42 51  1  0  0  0  0
 43 46  1  0  0  0  0
 43 52  1  0  0  0  0
 44 47  1  0  0  0  0
 44 52  1  0  0  0  0
 45 70  1  0  0  0  0
 46 71  1  0  0  0  0
 47 71  1  0  0  0  0
 48 51  1  0  0  0  0
 48 70  1  0  0  0  0
 49 74  1  0  0  0  0
 50 69  1  0  0  0  0
 51 68  1  0  0  0  0
 52 76  1  0  0  0  0
 53 59  1  0  0  0  0
 54 62  1  0  0  0  0
 55 63  1  0  0  0  0
 56 63  1  0  0  0  0
 57 63  1  0  0  0  0
 58 77  1  0  0  0  0
 60 76  1  0  0  0  0
 61 63  1  0  0  0  0
 61 75  1  0  0  0  0
 62 77  1  0  0  0  0
 64 68  1  0  0  0  0
 66 67  2  0  0  0  0
M  CHG  2  76   1  77   1
M  ISO  4  30 101  35 100  71 100  84 101
M  END
> <Batch ID>
0192

> <Smiles>
CCc1n[101c:1]([101O:1]c2ccc3c(c2)CN(C(=O)C(NC(=O)C(C)NC)C(C)(C)C)C(C(=O)NC2CCCc4ccccc42)C3)nnc1CNC1CC[100N:0]([100C:0](=O)N2CCCC(n3nc(-c4ccc(Oc5ccc(F)cc5F)cc4)c(C(N)=O)c3N)C2)CC1

> <Shape>
0.309

> <Color>
0.171

> <Negative vol penalty>
0.000

$$$$

  -OEChem-04052323293D

 83 92  0     1  0  0  0  0  0999 V2000
  -22.0779  -30.1504   23.4187 C   0  0  0  0  0  0  0  0  0  0  0  0
  -22.6419  -29.0272   24.0152 C   0  0  0  0  0  0  0  0  0  0  0  0
  -29.5207  -23.6523   18.7050 C   0  0  0  0  0  0  0  0  0  0  0  0
  -28.0951  -23.3662   20.6344 C   0  0  0  0  0  0  0  0  0  0  0  0
  -20.9199  -30.0240   22.6526 C   0  0  0  0  0  0  0  0  0  0  0  0
  -22.0475  -27.7771   23.8467 C   0  0  0  0  0  0  0  0  0  0  0  0
  -23.7132  -20.8312   23.3026 C   0  0  0  0  0  0  0  0  0  0  0  0
  -29.4045  -25.0371   18.8244 C   0  0  0  0  0  0  0  0  0  0  0  0
  -27.9788  -24.7510   20.7539 C   0  0  0  0  0  0  0  0  0  0  0  0
  -23.3834  -19.5975   23.8620 C   0  0  0  0  0  0  0  0  0  0  0  0
  -26.2351  -27.2416   19.2749 C   0  0  0  0  0  0  0  0  0  0  0  0
  -24.9642  -27.7677   19.5059 C   0  0  0  0  0  0  0  0  0  0  0  0
  -21.4295  -19.4871   22.4516 C   0  0  0  0  0  0  0  0  0  0  0  0
  -25.7402  -28.7312   21.5812 C   0  0  0  0  0  0  0  0  0  0  0  0
  -28.8659  -22.8168   19.6099 C   0  0  0  0  0  0  0  0  0  0  0  0
  -29.9567  -20.5596   20.0823 C   0  0  0  0  0  0  0  0  0  0  0  0
  -20.3165  -28.7703   22.4666 C   0  0  0  0  0  0  0  0  0  0  0  0
  -22.8964  -21.4082   22.3197 C   0  0  0  0  0  0  0  0  0  0  0  0
  -20.8796  -27.6341   23.0784 C   0  0  0  0  0  0  0  0  0  0  0  0
  -21.7525  -20.7271   21.8795 C   0  0  0  0  0  0  0  0  0  0  0  0
  -28.6336  -25.5865   19.8489 C   0  0  0  0  0  0  0  0  0  0  0  0
  -22.2399  -18.9266   23.4386 C   0  0  0  0  0  0  0  0  0  0  0  0
  -27.2586  -27.4602   20.1971 C   0  0  0  0  0  0  0  0  0  0  0  0
  -24.7167  -28.5126   20.6590 C   0  0  0  0  0  0  0  0  0  0  0  0
  -27.0112  -28.2050   21.3502 C   0  0  0  0  0  0  0  0  0  0  0  0
  -28.9852  -21.3862   19.4867 C   0  0  0  0  0  0  0  0  0  0  0  0
  -29.6363  -19.2930   19.6587 C   0  0  0  0  0  0  0  0  0  0  0  0
  -22.9656  -14.6798   21.8905 C   0  0  0  0  0  0  0  0  0  0  0  0
  -21.0109  -14.4143   21.2080 C   0  0  0  0  0  0  0  0  0  0  0  0
  -31.0510  -20.9059   20.9416 C   0  0  0  0  0  0  0  0  0  0  0  0
  -21.1928  -24.0832   22.1057 C   0  0  0  0  0  0  0  0  0  0  0  0
  -20.7488  -23.0945   19.0483 C   0  0  0  0  0  0  0  0  0  0  0  0
  -20.6738  -20.5097   16.8211 C   0  0  0  0  0  0  0  0  0  0  0  0
  -25.6798  -15.3755   18.7525 C   0  0  0  0  0  0  0  0  0  0  0  0
  -19.0390  -28.6906   21.6689 C   0  0  0  0  0  0  0  0  0  0  0  0
  -23.2804  -22.7272   21.7071 C   0  0  0  0  0  0  0  0  0  0  0  0
  -20.8533  -21.2941   20.8126 C   0  0  0  0  0  0  0  0  0  0  0  0
  -18.6822  -27.2726   21.2303 C   0  0  0  0  0  0  0  0  0  0  0  0
  -26.4281  -17.7001   16.1190 C   0  0  0  0  0  0  0  0  0  0  0  0
  -18.8300  -26.3001   22.3962 C   0  0  0  0  0  0  0  0  0  0  0  0
  -27.1904  -18.8240   16.8134 C   0  0  0  0  0  0  0  0  0  0  0  0
  -25.3601  -17.1197   17.0362 C   0  0  0  0  0  0  0  0  0  0  0  0
  -25.3104  -13.8867   20.7883 C   0  0  0  0  0  0  0  0  0  0  0  0
  -25.2721  -15.9592   21.2671 C   0  0  0  0  0  0  0  0  0  0  0  0
  -26.6980  -17.6988   19.0433 C   0  0  0  0  0  0  0  0  0  0  0  0
  -20.2782  -26.2571   22.8985 C   0  0  1  0  0  0  0  0  0  0  0  0
  -24.5624  -14.7159   21.8591 C   0  0  0  0  0  0  0  0  0  0  0  0
  -22.0990  -23.4617   21.0809 C   0  0  1  0  0  0  0  0  0  0  0  0
  -27.7781  -18.3323   18.1440 C   0  0  2  0  0  0  0  0  0  0  0  0
  -19.4533  -15.2660   19.4374 C   0  0  0  0  0  0  0  0  0  0  0  0
  -20.5135  -19.3546   14.5991 C   0  0  0  0  0  0  0  0  0  0  0  0
  -17.7486  -23.3839   19.5226 C   0  0  0  0  0  0  0  0  0  0  0  0
  -17.3616  -21.9988   17.4732 C   0  0  0  0  0  0  0  0  0  0  0  0
  -18.5347  -24.1927   17.2905 C   0  0  0  0  0  0  0  0  0  0  0  0
  -23.5865  -20.7509   16.3551 C   0  0  0  0  0  0  0  0  0  0  0  0
  -19.8118  -14.1388   20.4214 C   0  0  0  0  0  0  0  0  0  0  0  0
  -22.5835  -15.4351   24.3743 C   0  0  0  0  0  0  0  0  0  0  0  0
  -22.9922  -16.9028   24.4358 C   0  0  0  0  0  0  0  0  0  1  0  0
  -19.7332  -22.2301   18.3410 C   0  0  1  0  0  0  0  0  0  0  0  0
  -21.2955  -20.3467   15.4458 C   0  0  2  0  0  0  0  0  0  0  0  0
  -18.3602  -22.9413   18.1783 C   0  0  0  0  0  0  0  0  0  0  0  0
  -28.1130  -20.7021   18.7414 N   0  0  0  0  0  0  0  0  0  0  0  0
  -22.2499  -14.3197   20.7846 N   0  0  0  0  0  0  0  0  0  0  0  0
  -21.0007  -14.8133   22.5082 N   0  0  0  0  0  0  0  0  0  0  0  0
  -28.5354  -19.4324   18.8658 N   0  0  0  0  0  0  0  0  0  0  0  0
  -22.2473  -14.9912   22.9714 N   0  0  0  0  0  0  0  0  0  0  0  0
  -21.2678  -22.5894   20.2488 N   0  0  0  0  0  0  0  0  0  0  0  0
  -25.9148  -16.6860   18.3219 N   0  0  0  0  0  0  0  0  0  0  0  0
  -25.5812  -15.1443   20.1058 N   0  0  0  0  0  0  0  0  0  0  0  0
  -30.1918  -18.0847   19.8908 N   0  0  0  0  0  0  0  0  0  0  0  0
  -31.2361  -22.2539   21.2774 N   0  0  0  0  0  0  0  0  0  0  0  0
  -21.0971  -25.4585   22.0119 N   0  0  0  0  0  0  0  0  0  0  0  0
  -20.3487  -21.8240   17.0822 N   0  0  0  0  0  0  0  0  0  0  0  0
  -22.6985  -19.8587   15.5661 N   0  3  0  0  0  0  0  0  0  0  0  0
  -31.8509  -20.0473   21.3849 O   0  0  0  0  0  0  0  0  0  0  0  0
  -20.6214  -23.3678   22.9201 O   0  0  0  0  0  0  0  0  0  0  0  0
  -21.0751  -24.1748   18.5501 O   0  0  0  0  0  0  0  0  0  0  0  0
  -20.4913  -19.5650   17.5858 O   0  0  0  0  0  0  0  0  0  0  0  0
  -25.5308  -14.4422   17.9528 O   0  0  0  0  0  0  0  0  0  0  0  0
  -28.5201  -26.9378   19.9659 O   0  0  0  0  0  0  0  0  0  0  0  0
  -21.9153  -17.7225   23.9834 O   0  0  0  0  0  0  0  0  0  1  0  0
  -23.4965  -29.0191   20.8800 F   0  0  0  0  0  0  0  0  0  0  0  0
  -27.9908  -28.4193   22.2392 F   0  0  0  0  0  0  0  0  0  0  0  0
  1  2  1  0  0  0  0
  1  5  2  0  0  0  0
  2  6  2  0  0  0  0
  3  8  2  0  0  0  0
  3 15  1  0  0  0  0
  4  9  1  0  0  0  0
  4 15  2  0  0  0  0
  5 17  1  0  0  0  0
  6 19  1  0  0  0  0
  7 10  2  0  0  0  0
  7 18  1  0  0  0  0
  8 21  1  0  0  0  0
  9 21  2  0  0  0  0
 10 22  1  0  0  0  0
 11 12  2  0  0  0  0
 11 23  1  0  0  0  0
 12 24  1  0  0  0  0
 13 20  1  0  0  0  0
 13 22  2  0  0  0  0
 14 24  2  0  0  0  0
 14 25  1  0  0  0  0
 15 26  1  0  0  0  0
 16 26  1  0  0  0  0
 16 27  2  0  0  0  0
 16 30  1  0  0  0  0
 17 19  2  0  0  0  0
 17 35  1  0  0  0  0
 18 20  2  0  0  0  0
 18 36  1  0  0  0  0
 19 46  1  0  0  0  0
 20 37  1  0  0  0  0
 21 80  1  0  0  0  0
 22 81  1  0  0  0  0
 23 25  2  0  0  0  0
 23 80  1  0  0  0  0
 24 82  1  0  0  0  0
 25 83  1  0  0  0  0
 26 62  2  0  0  0  0
 27 65  1  0  0  0  0
 27 70  1  0  0  0  0
 28 47  1  0  0  0  0
 28 63  2  0  0  0  0
 28 66  1  0  0  0  0
 29 56  1  0  0  0  0
 29 63  1  0  0  0  0
 29 64  2  0  0  0  0
 30 71  1  0  0  0  0
 30 75  2  0  0  0  0
 31 48  1  0  0  0  0
 31 72  1  0  0  0  0
 31 76  2  0  0  0  0
 32 59  1  0  0  0  0
 32 67  1  0  0  0  0
 32 77  2  0  0  0  0
 33 60  1  0  0  0  0
 33 73  1  0  0  0  0
 33 78  2  0  0  0  0
 34 68  1  0  0  0  0
 34 69  1  0  0  0  0
 34 79  2  0  0  0  0
 35 38  1  0  0  0  0
 36 48  1  0  0  0  0
 37 67  1  0  0  0  0
 38 40  1  0  0  0  0
 39 41  1  0  0  0  0
 39 42  1  0  0  0  0
 40 46  1  0  0  0  0
 41 49  1  0  0  0  0
 42 68  1  0  0  0  0
 43 47  1  0  0  0  0
 43 69  1  0  0  0  0
 44 47  1  0  0  0  0
 44 69  1  0  0  0  0
 45 49  1  0  0  0  0
 45 68  1  0  0  0  0
 46 72  1  0  0  0  0
 48 67  1  0  0  0  0
 49 65  1  0  0  0  0
 50 56  1  0  0  0  0
 51 60  1  0  0  0  0
 52 61  1  0  0  0  0
 53 61  1  0  0  0  0
 54 61  1  0  0  0  0
 55 74  1  0  0  0  0
 57 58  1  0  0  0  0
 57 66  1  0  0  0  0
 58 81  1  0  0  0  0
 59 61  1  0  0  0  0
 59 73  1  0  0  0  0
 60 74  1  0  0  0  0
 62 65  1  0  0  0  0
 64 66  1  0  0  0  0
M  CHG  1  74   1
M  ISO  4  34 100  58 101  69 100  81 101
M  END
> <Batch ID>
0192

> <Smiles>
CCc1nc(C2C[100N:0]([100C:0](=O)N3CCCC(n4nc(-c5ccc(Oc6ccc(F)cc6F)cc5)c(C(N)=O)c4N)C3)C2)n(C[101CH2:1][101O:1]c2ccc3c(c2)CN(C(=O)C(NC(=O)C(C)NC)C(C)(C)C)C(C(=O)NC2CCCc4ccccc42)C3)n1

> <Shape>
0.188

> <Color>
0.084

> <Negative vol penalty>
0.000

$$$$

  -OEChem-04052323293D

 86 95  0     1  0  0  0  0  0999 V2000
  -25.3371  -35.4572   21.1104 C   0  0  0  0  0  0  0  0  0  0  0  0
  -26.0167  -34.2468   21.2029 C   0  0  0  0  0  0  0  0  0  0  0  0
  -22.4010  -14.8355   21.6723 C   0  0  0  0  0  0  0  0  0  0  0  0
  -22.8449  -16.7217   20.2294 C   0  0  0  0  0  0  0  0  0  0  0  0
  -24.0489  -35.5737   21.6308 C   0  0  0  0  0  0  0  0  0  0  0  0
  -25.4088  -33.1524   21.8170 C   0  0  0  0  0  0  0  0  0  0  0  0
  -26.0136  -28.8663   19.1885 C   0  0  0  0  0  0  0  0  0  0  0  0
  -21.4144  -15.5705   22.3296 C   0  0  0  0  0  0  0  0  0  0  0  0
  -21.8583  -17.4567   20.8866 C   0  0  0  0  0  0  0  0  0  0  0  0
  -27.2486  -28.2272   19.2883 C   0  0  0  0  0  0  0  0  0  0  0  0
  -18.5303  -16.8275   24.1508 C   0  0  0  0  0  0  0  0  0  0  0  0
  -17.3157  -16.1937   24.4126 C   0  0  0  0  0  0  0  0  0  0  0  0
  -26.3123  -26.6804   20.8852 C   0  0  0  0  0  0  0  0  0  0  0  0
  -16.9879  -15.8441   22.0446 C   0  0  0  0  0  0  0  0  0  0  0  0
  -23.1163  -15.4112   20.6222 C   0  0  0  0  0  0  0  0  0  0  0  0
  -23.9719  -13.8278   18.8142 C   0  0  0  0  0  0  0  0  0  0  0  0
  -23.4212  -34.4774   22.2430 C   0  0  0  0  0  0  0  0  0  0  0  0
  -24.9197  -28.4234   19.9459 C   0  0  0  0  0  0  0  0  0  0  0  0
  -24.1115  -33.2547   22.3474 C   0  0  0  0  0  0  0  0  0  0  0  0
  -25.0638  -27.3141   20.7913 C   0  0  0  0  0  0  0  0  0  0  0  0
  -21.1430  -16.8811   21.9368 C   0  0  0  0  0  0  0  0  0  0  0  0
  -27.3989  -27.1358   20.1388 C   0  0  0  0  0  0  0  0  0  0  0  0
  -18.9737  -16.9697   22.8360 C   0  0  0  0  0  0  0  0  0  0  0  0
  -16.5445  -15.7020   23.3595 C   0  0  0  0  0  0  0  0  0  0  0  0
  -18.2025  -16.4779   21.7829 C   0  0  0  0  0  0  0  0  0  0  0  0
  -24.1360  -14.6526   19.9432 C   0  0  0  0  0  0  0  0  0  0  0  0
  -30.4935  -20.3179   19.9643 C   0  0  0  0  0  0  0  0  0  0  0  0
  -28.8441  -21.8683   19.6396 C   0  0  0  0  0  0  0  0  0  0  0  0
  -31.4438  -21.2607   19.6396 C   0  0  0  0  0  0  0  0  0  0  0  0
  -29.7944  -22.8115   19.3156 C   0  0  0  0  0  0  0  0  0  0  0  0
  -25.2300  -13.3388   18.5605 C   0  0  0  0  0  0  0  0  0  0  0  0
  -22.7881  -13.5305   18.0621 C   0  0  0  0  0  0  0  0  0  0  0  0
  -23.0876  -29.7073   22.2040 C   0  0  0  0  0  0  0  0  0  0  0  0
  -21.4104  -26.9517   21.8634 C   0  0  0  0  0  0  0  0  0  0  0  0
  -21.3845  -23.6746   20.9113 C   0  0  0  0  0  0  0  0  0  0  0  0
  -30.7107  -15.4896   20.0090 C   0  0  0  0  0  0  0  0  0  0  0  0
  -22.0459  -34.6648   22.8330 C   0  0  0  0  0  0  0  0  0  0  0  0
  -23.5871  -29.1071   19.8068 C   0  0  0  0  0  0  0  0  0  0  0  0
  -23.9152  -26.7868   21.6105 C   0  0  0  0  0  0  0  0  0  0  0  0
  -21.3284  -33.3516   23.1346 C   0  0  0  0  0  0  0  0  0  0  0  0
  -29.3386  -12.2397   20.7075 C   0  0  0  0  0  0  0  0  0  0  0  0
  -22.2634  -32.3858   23.8557 C   0  0  0  0  0  0  0  0  0  0  0  0
  -27.8332  -12.4231   20.5461 C   0  0  0  0  0  0  0  0  0  0  0  0
  -29.9826  -13.4990   21.2719 C   0  0  0  0  0  0  0  0  0  0  0  0
  -29.6246  -17.8195   20.5113 C   0  0  0  0  0  0  0  0  0  0  0  0
  -31.3566  -17.8523   19.2896 C   0  0  0  0  0  0  0  0  0  0  0  0
  -28.2316  -14.9184   20.2359 C   0  0  0  0  0  0  0  0  0  0  0  0
  -23.4761  -32.0378   22.9842 C   0  0  1  0  0  0  0  0  0  0  0  0
  -30.8008  -18.8150   20.3641 C   0  0  0  0  0  0  0  0  0  0  0  0
  -22.6762  -28.8911   21.0114 C   0  0  1  0  0  0  0  0  0  0  0  0
  -27.5320  -13.6593   19.6866 C   0  0  2  0  0  0  0  0  0  0  0  0
  -27.3877  -22.1895   19.6453 C   0  0  0  0  0  0  0  0  0  0  0  0
  -19.8781  -21.6715   20.7859 C   0  0  0  0  0  0  0  0  0  0  0  0
  -21.6894  -26.5563   24.8760 C   0  0  0  0  0  0  0  0  0  0  0  0
  -21.0349  -24.1615   24.5519 C   0  0  0  0  0  0  0  0  0  0  0  0
  -19.4375  -25.9813   23.9525 C   0  0  0  0  0  0  0  0  0  0  0  0
  -33.8610  -21.7970   19.3312 C   0  0  0  0  0  0  0  0  0  0  0  0
  -21.6617  -23.5055   17.9696 C   0  0  0  0  0  0  0  0  0  0  0  0
  -30.2603  -25.2466   19.0353 C   0  0  0  0  0  0  0  0  0  0  0  0
  -29.4405  -26.5252   19.0829 C   0  0  0  0  0  0  0  0  0  1  0  0
  -21.4648  -25.5819   22.4956 C   0  0  1  0  0  0  0  0  0  0  0  0
  -20.4194  -22.8847   20.0457 C   0  0  2  0  0  0  0  0  0  0  0  0
  -20.9290  -25.5811   23.9551 C   0  0  0  0  0  0  0  0  0  0  0  0
  -25.3988  -14.6878   20.3769 N   0  0  0  0  0  0  0  0  0  0  0  0
  -29.1766  -20.6047   19.9701 N   0  0  0  0  0  0  0  0  0  0  0  0
  -31.1113  -22.5245   19.3094 N   0  0  0  0  0  0  0  0  0  0  0  0
  -26.0396  -13.8790   19.5160 N   0  0  0  0  0  0  0  0  0  0  0  0
  -22.6341  -27.4930   21.4447 N   0  0  0  0  0  0  0  0  0  0  0  0
  -29.6631  -14.6871   20.4746 N   0  0  0  0  0  0  0  0  0  0  0  0
  -30.4850  -16.8389   19.8713 N   0  0  0  0  0  0  0  0  0  0  0  0
  -25.7117  -12.5035   17.6157 N   0  0  0  0  0  0  0  0  0  0  0  0
  -21.5790  -14.1178   18.4591 N   0  0  0  0  0  0  0  0  0  0  0  0
  -32.8064  -20.8887   19.6550 N   0  0  0  0  0  0  0  0  0  0  0  0
  -29.3900  -24.0942   18.9847 N   0  0  0  0  0  0  0  0  0  0  0  0
  -23.1104  -31.0694   21.9727 N   0  0  0  0  0  0  0  0  0  0  0  0
  -20.7458  -24.6877   21.5946 N   0  0  0  0  0  0  0  0  0  0  0  0
  -21.1011  -22.4139   18.8069 N   0  3  0  0  0  0  0  0  0  0  0  0
  -22.7989  -12.7536   17.0772 O   0  0  0  0  0  0  0  0  0  0  0  0
  -23.3625  -29.1431   23.2565 O   0  0  0  0  0  0  0  0  0  0  0  0
  -20.3213  -27.5175   21.7389 O   0  0  0  0  0  0  0  0  0  0  0  0
  -22.5842  -23.4162   20.9777 O   0  0  0  0  0  0  0  0  0  0  0  0
  -31.8274  -15.0211   19.7508 O   0  0  0  0  0  0  0  0  0  0  0  0
  -20.1802  -17.5985   22.5778 O   0  0  0  0  0  0  0  0  0  0  0  0
  -28.6034  -26.5105   20.2386 O   0  0  0  0  0  0  0  0  0  1  0  0
  -15.3788  -15.0920   23.6111 F   0  0  0  0  0  0  0  0  0  0  0  0
  -18.6238  -16.6105   20.5177 F   0  0  0  0  0  0  0  0  0  0  0  0
  1  2  1  0  0  0  0
  1  5  2  0  0  0  0
  2  6  2  0  0  0  0
  3  8  2  0  0  0  0
  3 15  1  0  0  0  0
  4  9  1  0  0  0  0
  4 15  2  0  0  0  0
  5 17  1  0  0  0  0
  6 19  1  0  0  0  0
  7 10  2  0  0  0  0
  7 18  1  0  0  0  0
  8 21  1  0  0  0  0
  9 21  2  0  0  0  0
 10 22  1  0  0  0  0
 11 12  2  0  0  0  0
 11 23  1  0  0  0  0
 12 24  1  0  0  0  0
 13 20  1  0  0  0  0
 13 22  2  0  0  0  0
 14 24  2  0  0  0  0
 14 25  1  0  0  0  0
 15 26  1  0  0  0  0
 16 26  1  0  0  0  0
 16 31  2  0  0  0  0
 16 32  1  0  0  0  0
 17 19  2  0  0  0  0
 17 37  1  0  0  0  0
 18 20  2  0  0  0  0
 18 38  1  0  0  0  0
 19 48  1  0  0  0  0
 20 39  1  0  0  0  0
 21 83  1  0  0  0  0
 22 84  1  0  0  0  0
 23 25  2  0  0  0  0
 23 83  1  0  0  0  0
 24 85  1  0  0  0  0
 25 86  1  0  0  0  0
 26 64  2  0  0  0  0
 27 29  2  0  0  0  0
 27 49  1  0  0  0  0
 27 65  1  0  0  0  0
 28 30  1  0  0  0  0
 28 52  1  0  0  0  0
 28 65  2  0  0  0  0
 29 66  1  0  0  0  0
 29 73  1  0  0  0  0
 30 66  2  0  0  0  0
 30 74  1  0  0  0  0
 31 67  1  0  0  0  0
 31 71  1  0  0  0  0
 32 72  1  0  0  0  0
 32 78  2  0  0  0  0
 33 50  1  0  0  0  0
 33 75  1  0  0  0  0
 33 79  2  0  0  0  0
 34 61  1  0  0  0  0
 34 68  1  0  0  0  0
 34 80  2  0  0  0  0
 35 62  1  0  0  0  0
 35 76  1  0  0  0  0
 35 81  2  0  0  0  0
 36 69  1  0  0  0  0
 36 70  1  0  0  0  0
 36 82  2  0  0  0  0
 37 40  1  0  0  0  0
 38 50  1  0  0  0  0
 39 68  1  0  0  0  0
 40 42  1  0  0  0  0
 41 43  1  0  0  0  0
 41 44  1  0  0  0  0
 42 48  1  0  0  0  0
 43 51  1  0  0  0  0
 44 69  1  0  0  0  0
 45 49  1  0  0  0  0
 45 70  1  0  0  0  0
 46 49  1  0  0  0  0
 46 70  1  0  0  0  0
 47 51  1  0  0  0  0
 47 69  1  0  0  0  0
 48 75  1  0  0  0  0
 50 68  1  0  0  0  0
 51 67  1  0  0  0  0
 53 62  1  0  0  0  0
 54 63  1  0  0  0  0
 55 63  1  0  0  0  0
 56 63  1  0  0  0  0
 57 73  1  0  0  0  0
 58 77  1  0  0  0  0
 59 60  1  0  0  0  0
 59 74  1  0  0  0  0
 60 84  1  0  0  0  0
 61 63  1  0  0  0  0
 61 76  1  0  0  0  0
 62 77  1  0  0  0  0
 64 67  1  0  0  0  0
M  CHG  1  77   1
M  ISO  4  36 100  60 101  70 100  84 101
M  END
> <Batch ID>
0192

> <Smiles>
CNc1nc(NC[101CH2:1][101O:1]c2ccc3c(c2)CN(C(=O)C(NC(=O)C(C)NC)C(C)(C)C)C(C(=O)NC2CCCc4ccccc42)C3)c(C)nc1C1C[100N:0]([100C:0](=O)N2CCCC(n3nc(-c4ccc(Oc5ccc(F)cc5F)cc4)c(C(N)=O)c3N)C2)C1

> <Shape>
0.221

> <Color>
0.101

> <Negative vol penalty>
0.000

$$$$

  -OEChem-04052323293D

 81 90  0     1  0  0  0  0  0999 V2000
  -25.9728  -33.8485   14.7136 C   0  0  0  0  0  0  0  0  0  0  0  0
  -26.4309  -32.6829   15.3194 C   0  0  0  0  0  0  0  0  0  0  0  0
  -22.5448  -10.4185   21.4606 C   0  0  0  0  0  0  0  0  0  0  0  0
  -24.2582   -9.1941   22.6446 C   0  0  0  0  0  0  0  0  0  0  0  0
  -25.7022  -34.9755   15.4886 C   0  0  0  0  0  0  0  0  0  0  0  0
  -26.6197  -32.6440   16.7004 C   0  0  0  0  0  0  0  0  0  0  0  0
  -24.7818  -28.4152   18.7943 C   0  0  0  0  0  0  0  0  0  0  0  0
  -21.9026   -9.2198   21.1503 C   0  0  0  0  0  0  0  0  0  0  0  0
  -23.6160   -7.9954   22.3344 C   0  0  0  0  0  0  0  0  0  0  0  0
  -25.5459  -27.2563   18.6644 C   0  0  0  0  0  0  0  0  0  0  0  0
  -20.9569   -6.2343   23.4518 C   0  0  0  0  0  0  0  0  0  0  0  0
  -20.8116   -5.2955   24.4731 C   0  0  0  0  0  0  0  0  0  0  0  0
  -26.3806  -27.5626   20.9069 C   0  0  0  0  0  0  0  0  0  0  0  0
  -22.0877   -3.6979   23.1860 C   0  0  0  0  0  0  0  0  0  0  0  0
  -27.3876  -22.4720   18.5052 C   0  0  0  0  0  0  0  0  0  0  0  0
  -23.7227  -10.4057   22.2077 C   0  0  0  0  0  0  0  0  0  0  0  0
  -24.1797  -12.4505   23.6628 C   0  0  0  0  0  0  0  0  0  0  0  0
  -25.8786  -34.9474   16.8810 C   0  0  0  0  0  0  0  0  0  0  0  0
  -24.8198  -29.1637   19.9795 C   0  0  0  0  0  0  0  0  0  0  0  0
  -26.3525  -33.7721   17.4946 C   0  0  0  0  0  0  0  0  0  0  0  0
  -25.6141  -28.7292   21.0502 C   0  0  0  0  0  0  0  0  0  0  0  0
  -22.4381   -8.0083   21.5872 C   0  0  0  0  0  0  0  0  0  0  0  0
  -26.3477  -26.8314   19.7197 C   0  0  0  0  0  0  0  0  0  0  0  0
  -21.6676   -5.9050   22.2975 C   0  0  0  0  0  0  0  0  0  0  0  0
  -21.3770   -4.0273   24.3402 C   0  0  0  0  0  0  0  0  0  0  0  0
  -22.2330   -4.6368   22.1647 C   0  0  0  0  0  0  0  0  0  0  0  0
  -24.3869  -11.6435   22.5281 C   0  0  0  0  0  0  0  0  0  0  0  0
  -27.8059  -23.7736   18.3871 C   0  0  0  0  0  0  0  0  0  0  0  0
  -25.0466  -13.5031   23.4985 C   0  0  0  0  0  0  0  0  0  0  0  0
  -23.2838  -12.2652   24.7667 C   0  0  0  0  0  0  0  0  0  0  0  0
  -25.6972  -32.1237   20.7359 C   0  0  0  0  0  0  0  0  0  0  0  0
  -24.5135  -31.3141   23.6455 C   0  0  0  0  0  0  0  0  0  0  0  0
  -23.7259  -28.8476   25.8688 C   0  0  0  0  0  0  0  0  0  0  0  0
  -27.2339  -17.4142   20.4402 C   0  0  0  0  0  0  0  0  0  0  0  0
  -25.6181  -36.2053   17.6712 C   0  0  0  0  0  0  0  0  0  0  0  0
  -23.9690  -30.3969   20.1134 C   0  0  0  0  0  0  0  0  0  0  0  0
  -25.6744  -29.4860   22.3510 C   0  0  0  0  0  0  0  0  0  0  0  0
  -25.4869  -35.9649   19.1730 C   0  0  0  0  0  0  0  0  0  0  0  0
  -28.8336  -14.1940   20.2446 C   0  0  0  0  0  0  0  0  0  0  0  0
  -26.6091  -35.0582   19.6685 C   0  0  0  0  0  0  0  0  0  0  0  0
  -27.7764  -13.2977   20.8830 C   0  0  0  0  0  0  0  0  0  0  0  0
  -28.0059  -19.4643   17.4896 C   0  0  0  0  0  0  0  0  0  0  0  0
  -28.2175  -15.3135   19.4030 C   0  0  0  0  0  0  0  0  0  0  0  0
  -27.9802  -18.0564   18.0724 C   0  0  0  0  0  0  0  0  0  0  0  0
  -26.1514  -15.2176   20.7707 C   0  0  0  0  0  0  0  0  0  0  0  0
  -28.1476  -19.6443   19.8677 C   0  0  0  0  0  0  0  0  0  0  0  0
  -26.5462  -33.6831   18.9928 C   0  0  1  0  0  0  0  0  0  0  0  0
  -24.4798  -31.3623   21.1785 C   0  0  1  0  0  0  0  0  0  0  0  0
  -26.7608  -14.1369   21.6746 C   0  0  1  0  0  0  0  0  0  0  0  0
  -28.7144  -20.2659   18.5889 C   0  0  2  0  0  0  0  0  0  0  0  0
  -22.8105  -28.4965   28.1788 C   0  0  0  0  0  0  0  0  0  0  0  0
  -27.1900  -32.1710   24.8338 C   0  0  0  0  0  0  0  0  0  0  0  0
  -26.5775  -30.9375   26.9246 C   0  0  0  0  0  0  0  0  0  0  0  0
  -25.1884  -32.8645   26.1632 C   0  0  0  0  0  0  0  0  0  0  0  0
  -21.4173  -27.3046   24.8449 C   0  0  0  0  0  0  0  0  0  0  0  0
  -27.0032  -25.0028   18.3477 C   0  0  0  0  0  0  0  0  0  1  0  0
  -25.0821  -30.6813   24.8926 C   0  0  1  0  0  0  0  0  0  0  0  0
  -22.4789  -28.5997   26.6982 C   0  0  2  0  0  0  0  0  0  0  0  0
  -26.0101  -31.6502   25.6785 C   0  0  0  0  0  0  0  0  0  0  0  0
  -25.3126  -12.1409   21.7037 N   0  0  0  0  0  0  0  0  0  0  0  0
  -29.1702  -23.8123   18.3059 N   0  0  0  0  0  0  0  0  0  0  0  0
  -29.6185  -22.5632   18.3695 N   0  0  0  0  0  0  0  0  0  0  0  0
  -28.5481  -21.7612   18.4888 N   0  0  0  0  0  0  0  0  0  0  0  0
  -25.6948  -13.2718   22.3210 N   0  0  0  0  0  0  0  0  0  0  0  0
  -24.8293  -30.6889   22.4309 N   0  0  0  0  0  0  0  0  0  0  0  0
  -27.1889  -16.0462   20.1496 N   0  0  0  0  0  0  0  0  0  0  0  0
  -27.8530  -18.2567   19.5176 N   0  0  0  0  0  0  0  0  0  0  0  0
  -25.3099  -14.5947   24.2477 N   0  0  0  0  0  0  0  0  0  0  0  0
  -22.4632  -11.1291   24.7778 N   0  0  0  0  0  0  0  0  0  0  0  0
  -25.5065  -32.8732   19.5907 N   0  0  0  0  0  0  0  0  0  0  0  0
  -23.9409  -30.1935   25.6594 N   0  0  0  0  0  0  0  0  0  0  0  0
  -21.8188  -27.3323   26.2749 N   0  3  0  0  0  0  0  0  0  0  0  0
  -23.2012  -13.0913   25.7071 O   0  0  0  0  0  0  0  0  0  0  0  0
  -26.7324  -32.0387   21.3861 O   0  0  0  0  0  0  0  0  0  0  0  0
  -23.8090  -32.3217   23.7459 O   0  0  0  0  0  0  0  0  0  0  0  0
  -24.4402  -27.9385   25.4517 O   0  0  0  0  0  0  0  0  0  0  0  0
  -26.7048  -17.8718   21.4622 O   0  0  0  0  0  0  0  0  0  0  0  0
  -21.8116   -6.8384   21.2848 O   0  0  0  0  0  0  0  0  0  0  0  0
  -27.0983  -25.6961   19.5949 O   0  0  0  0  0  0  0  0  0  1  0  0
  -21.2387   -3.1264   25.3217 F   0  0  0  0  0  0  0  0  0  0  0  0
  -22.9178   -4.3149   21.0587 F   0  0  0  0  0  0  0  0  0  0  0  0
  1  2  1  0  0  0  0
  1  5  2  0  0  0  0
  2  6  2  0  0  0  0
  3  8  2  0  0  0  0
  3 16  1  0  0  0  0
  4  9  1  0  0  0  0
  4 16  2  0  0  0  0
  5 18  1  0  0  0  0
  6 20  1  0  0  0  0
  7 10  2  0  0  0  0
  7 19  1  0  0  0  0
  8 22  1  0  0  0  0
  9 22  2  0  0  0  0
 10 23  1  0  0  0  0
 11 12  2  0  0  0  0
 11 24  1  0  0  0  0
 12 25  1  0  0  0  0
 13 21  1  0  0  0  0
 13 23  2  0  0  0  0
 14 25  2  0  0  0  0
 14 26  1  0  0  0  0
 15 28  2  0  0  0  0
 15 63  1  0  0  0  0
 16 27  1  0  0  0  0
 17 27  1  0  0  0  0
 17 29  2  0  0  0  0
 17 30  1  0  0  0  0
 18 20  2  0  0  0  0
 18 35  1  0  0  0  0
 19 21  2  0  0  0  0
 19 36  1  0  0  0  0
 20 47  1  0  0  0  0
 21 37  1  0  0  0  0
 22 78  1  0  0  0  0
 23 79  1  0  0  0  0
 24 26  2  0  0  0  0
 24 78  1  0  0  0  0
 25 80  1  0  0  0  0
 26 81  1  0  0  0  0
 27 60  2  0  0  0  0
 28 56  1  0  0  0  0
 28 61  1  0  0  0  0
 29 64  1  0  0  0  0
 29 68  1  0  0  0  0
 30 69  1  0  0  0  0
 30 73  2  0  0  0  0
 31 48  1  0  0  0  0
 31 70  1  0  0  0  0
 31 74  2  0  0  0  0
 32 57  1  0  0  0  0
 32 65  1  0  0  0  0
 32 75  2  0  0  0  0
 33 58  1  0  0  0  0
 33 71  1  0  0  0  0
 33 76  2  0  0  0  0
 34 66  1  0  0  0  0
 34 67  1  0  0  0  0
 34 77  2  0  0  0  0
 35 38  1  0  0  0  0
 36 48  1  0  0  0  0
 37 65  1  0  0  0  0
 38 40  1  0  0  0  0
 39 41  1  0  0  0  0
 39 43  1  0  0  0  0
 40 47  1  0  0  0  0
 41 49  1  0  0  0  0
 42 44  1  0  0  0  0
 42 50  1  0  0  0  0
 43 66  1  0  0  0  0
 44 67  1  0  0  0  0
 45 49  1  0  0  0  0
 45 66  1  0  0  0  0
 46 50  1  0  0  0  0
 46 67  1  0  0  0  0
 47 70  1  0  0  0  0
 48 65  1  0  0  0  0
 49 64  1  0  0  0  0
 50 63  1  0  0  0  0
 51 58  1  0  0  0  0
 52 59  1  0  0  0  0
 53 59  1  0  0  0  0
 54 59  1  0  0  0  0
 55 72  1  0  0  0  0
 56 79  1  0  0  0  0
 57 59  1  0  0  0  0
 57 71  1  0  0  0  0
 58 72  1  0  0  0  0
 60 64  1  0  0  0  0
 61 62  2  0  0  0  0
 62 63  1  0  0  0  0
M  CHG  1  72   1
M  ISO  4  34 100  56 101  67 100  79 101
M  END
> <Batch ID>
0192

> <Smiles>
CNC(C)C(=O)NC(C(=O)N1Cc2cc([101O:1][101CH2:1]c3cn(C4CC[100N:0]([100C:0](=O)N5CCCC(n6nc(-c7ccc(Oc8ccc(F)cc8F)cc7)c(C(N)=O)c6N)C5)C4)nn3)ccc2CC1C(=O)NC1CCCc2ccccc21)C(C)(C)C

> <Shape>
0.260

> <Color>
0.130

> <Negative vol penalty>
0.000

$$$$

  -OEChem-04052323293D

 80 89  0     1  0  0  0  0  0999 V2000
  -30.0398  -34.9726   17.5343 C   0  0  0  0  0  0  0  0  0  0  0  0
  -30.2766  -33.6091   17.6758 C   0  0  0  0  0  0  0  0  0  0  0  0
  -23.3576  -10.0346   21.9368 C   0  0  0  0  0  0  0  0  0  0  0  0
  -22.7451  -12.3637   21.7438 C   0  0  0  0  0  0  0  0  0  0  0  0
  -29.1967  -35.6292   18.4298 C   0  0  0  0  0  0  0  0  0  0  0  0
  -29.6712  -32.9015   18.7137 C   0  0  0  0  0  0  0  0  0  0  0  0
  -27.7050  -27.1035   18.5600 C   0  0  0  0  0  0  0  0  0  0  0  0
  -22.4070   -9.8680   22.9438 C   0  0  0  0  0  0  0  0  0  0  0  0
  -21.7944  -12.1971   22.7509 C   0  0  0  0  0  0  0  0  0  0  0  0
  -28.2729  -25.9085   18.9996 C   0  0  0  0  0  0  0  0  0  0  0  0
  -19.0566   -9.4699   23.1656 C   0  0  0  0  0  0  0  0  0  0  0  0
  -18.2353   -8.3443   23.1020 C   0  0  0  0  0  0  0  0  0  0  0  0
  -27.0314  -26.0836   21.0605 C   0  0  0  0  0  0  0  0  0  0  0  0
  -19.0673   -7.6159   25.2501 C   0  0  0  0  0  0  0  0  0  0  0  0
  -30.3590  -19.1199   19.5383 C   0  0  0  0  0  0  0  0  0  0  0  0
  -23.5267  -11.2825   21.3368 C   0  0  0  0  0  0  0  0  0  0  0  0
  -24.3184  -11.2907   18.9117 C   0  0  0  0  0  0  0  0  0  0  0  0
  -28.5730  -34.9274   19.4733 C   0  0  0  0  0  0  0  0  0  0  0  0
  -26.8028  -27.8043   19.3733 C   0  0  0  0  0  0  0  0  0  0  0  0
  -28.8200  -33.5495   19.6248 C   0  0  0  0  0  0  0  0  0  0  0  0
  -26.4515  -27.2859   20.6278 C   0  0  0  0  0  0  0  0  0  0  0  0
  -21.6254  -10.9492   23.3509 C   0  0  0  0  0  0  0  0  0  0  0  0
  -27.9384  -25.3998   20.2512 C   0  0  0  0  0  0  0  0  0  0  0  0
  -19.8833   -9.6685   24.2714 C   0  0  0  0  0  0  0  0  0  0  0  0
  -18.2407   -7.4173   24.1442 C   0  0  0  0  0  0  0  0  0  0  0  0
  -19.8887   -8.7415   25.3136 C   0  0  0  0  0  0  0  0  0  0  0  0
  -24.5089  -11.4553   20.2968 C   0  0  0  0  0  0  0  0  0  0  0  0
  -25.5455  -11.5687   18.3609 C   0  0  0  0  0  0  0  0  0  0  0  0
  -29.4558  -17.2641   19.8503 C   0  0  0  0  0  0  0  0  0  0  0  0
  -23.1377  -10.9197   18.1877 C   0  0  0  0  0  0  0  0  0  0  0  0
  -26.7712  -30.6794   20.7284 C   0  0  0  0  0  0  0  0  0  0  0  0
  -23.7487  -29.8317   21.5458 C   0  0  0  0  0  0  0  0  0  0  0  0
  -21.4999  -27.3336   22.1369 C   0  0  0  0  0  0  0  0  0  0  0  0
  -30.1808  -14.8736   20.1764 C   0  0  0  0  0  0  0  0  0  0  0  0
  -27.7070  -35.6896   20.4449 C   0  0  0  0  0  0  0  0  0  0  0  0
  -26.1785  -29.0782   18.8735 C   0  0  0  0  0  0  0  0  0  0  0  0
  -25.4725  -27.9894   21.5307 C   0  0  0  0  0  0  0  0  0  0  0  0
  -26.8086  -34.7930   21.2930 C   0  0  0  0  0  0  0  0  0  0  0  0
  -30.2249  -11.4067   19.3666 C   0  0  0  0  0  0  0  0  0  0  0  0
  -27.6029  -33.6168   21.8519 C   0  0  0  0  0  0  0  0  0  0  0  0
  -28.7463  -11.0121   19.3812 C   0  0  0  0  0  0  0  0  0  0  0  0
  -27.4053  -21.2329   20.3941 C   0  0  0  0  0  0  0  0  0  0  0  0
  -30.5492  -12.4316   20.4520 C   0  0  0  0  0  0  0  0  0  0  0  0
  -28.2200  -13.2341   20.4642 C   0  0  0  0  0  0  0  0  0  0  0  0
  -28.1621  -32.7425   20.7230 C   0  0  1  0  0  0  0  0  0  0  0  0
  -25.6649  -29.9729   19.9973 C   0  0  1  0  0  0  0  0  0  0  0  0
  -28.7412  -21.9016   20.2630 C   0  0  1  0  0  0  0  0  0  0  0  0
  -27.8318  -12.2523   19.3466 C   0  0  2  0  0  0  0  0  0  0  0  0
  -28.3992  -20.7260   19.3715 C   0  0  1  0  0  0  0  0  0  0  0  0
  -19.1172  -26.9502   22.8246 C   0  0  0  0  0  0  0  0  0  0  0  0
  -24.4790  -30.4899   24.4343 C   0  0  0  0  0  0  0  0  0  0  0  0
  -22.4505  -29.2168   25.1640 C   0  0  0  0  0  0  0  0  0  0  0  0
  -22.2000  -31.2468   23.7361 C   0  0  0  0  0  0  0  0  0  0  0  0
  -20.8640  -25.9638   19.5917 C   0  0  0  0  0  0  0  0  0  0  0  0
  -28.8399  -23.2725   19.6876 C   0  0  0  0  0  0  0  0  0  1  0  0
  -23.1178  -29.1218   22.7193 C   0  0  1  0  0  0  0  0  0  0  0  0
  -20.0748  -27.1268   21.6565 C   0  0  2  0  0  0  0  0  0  0  0  0
  -23.0818  -30.0063   23.9975 C   0  0  0  0  0  0  0  0  0  0  0  0
  -30.6483  -17.7983   19.7238 N   0  0  0  0  0  0  0  0  0  0  0  0
  -25.7586  -11.8102   20.6068 N   0  0  0  0  0  0  0  0  0  0  0  0
  -28.5068  -18.2324   19.7434 N   0  0  0  0  0  0  0  0  0  0  0  0
  -29.0625  -19.4370   19.5421 N   0  0  0  0  0  0  0  0  0  0  0  0
  -26.3646  -11.8708   19.4088 N   0  0  0  0  0  0  0  0  0  0  0  0
  -24.8939  -29.2348   20.9998 N   0  0  0  0  0  0  0  0  0  0  0  0
  -29.6458  -13.5802   20.3547 N   0  0  0  0  0  0  0  0  0  0  0  0
  -25.9930  -11.5816   17.0874 N   0  0  0  0  0  0  0  0  0  0  0  0
  -21.9625  -10.6696   18.9092 N   0  0  0  0  0  0  0  0  0  0  0  0
  -29.2248  -15.8826   20.0645 N   0  0  0  0  0  0  0  0  0  0  0  0
  -27.1226  -31.8966   20.1767 N   0  0  0  0  0  0  0  0  0  0  0  0
  -21.8059  -28.6718   22.2669 N   0  0  0  0  0  0  0  0  0  0  0  0
  -19.9902  -25.9157   20.7922 N   0  3  0  0  0  0  0  0  0  0  0  0
  -23.1295  -10.7972   16.9394 O   0  0  0  0  0  0  0  0  0  0  0  0
  -27.2682  -30.1595   21.7205 O   0  0  0  0  0  0  0  0  0  0  0  0
  -23.2399  -30.8734   21.1246 O   0  0  0  0  0  0  0  0  0  0  0  0
  -22.2639  -26.4013   22.3767 O   0  0  0  0  0  0  0  0  0  0  0  0
  -31.3966  -15.0680   20.0994 O   0  0  0  0  0  0  0  0  0  0  0  0
  -20.6976  -10.7869   24.3334 O   0  0  0  0  0  0  0  0  0  0  0  0
  -28.4917  -24.2340   20.6829 O   0  0  0  0  0  0  0  0  0  1  0  0
  -17.4508   -6.3372   24.0837 F   0  0  0  0  0  0  0  0  0  0  0  0
  -20.6799   -8.9275   26.3791 F   0  0  0  0  0  0  0  0  0  0  0  0
  1  2  1  0  0  0  0
  1  5  2  0  0  0  0
  2  6  2  0  0  0  0
  3  8  2  0  0  0  0
  3 16  1  0  0  0  0
  4  9  1  0  0  0  0
  4 16  2  0  0  0  0
  5 18  1  0  0  0  0
  6 20  1  0  0  0  0
  7 10  2  0  0  0  0
  7 19  1  0  0  0  0
  8 22  1  0  0  0  0
  9 22  2  0  0  0  0
 10 23  1  0  0  0  0
 11 12  2  0  0  0  0
 11 24  1  0  0  0  0
 12 25  1  0  0  0  0
 13 21  1  0  0  0  0
 13 23  2  0  0  0  0
 14 25  2  0  0  0  0
 14 26  1  0  0  0  0
 15 59  2  0  0  0  0
 15 62  1  0  0  0  0
 16 27  1  0  0  0  0
 17 27  1  0  0  0  0
 17 28  2  0  0  0  0
 17 30  1  0  0  0  0
 18 20  2  0  0  0  0
 18 35  1  0  0  0  0
 19 21  2  0  0  0  0
 19 36  1  0  0  0  0
 20 45  1  0  0  0  0
 21 37  1  0  0  0  0
 22 77  1  0  0  0  0
 23 78  1  0  0  0  0
 24 26  2  0  0  0  0
 24 77  1  0  0  0  0
 25 79  1  0  0  0  0
 26 80  1  0  0  0  0
 27 60  2  0  0  0  0
 28 63  1  0  0  0  0
 28 66  1  0  0  0  0
 29 59  1  0  0  0  0
 29 61  2  0  0  0  0
 29 68  1  0  0  0  0
 30 67  1  0  0  0  0
 30 72  2  0  0  0  0
 31 46  1  0  0  0  0
 31 69  1  0  0  0  0
 31 73  2  0  0  0  0
 32 56  1  0  0  0  0
 32 64  1  0  0  0  0
 32 74  2  0  0  0  0
 33 57  1  0  0  0  0
 33 70  1  0  0  0  0
 33 75  2  0  0  0  0
 34 65  1  0  0  0  0
 34 68  1  0  0  0  0
 34 76  2  0  0  0  0
 35 38  1  0  0  0  0
 36 46  1  0  0  0  0
 37 64  1  0  0  0  0
 38 40  1  0  0  0  0
 39 41  1  0  0  0  0
 39 43  1  0  0  0  0
 40 45  1  0  0  0  0
 41 48  1  0  0  0  0
 42 47  1  0  0  0  0
 42 49  1  0  0  0  0
 43 65  1  0  0  0  0
 44 48  1  0  0  0  0
 44 65  1  0  0  0  0
 45 69  1  0  0  0  0
 46 64  1  0  0  0  0
 47 49  1  0  0  0  0
 47 55  1  0  0  0  0
 48 63  1  0  0  0  0
 49 62  1  0  0  0  0
 50 57  1  0  0  0  0
 51 58  1  0  0  0  0
 52 58  1  0  0  0  0
 53 58  1  0  0  0  0
 54 71  1  0  0  0  0
 55 78  1  0  0  0  0
 56 58  1  0  0  0  0
 56 70  1  0  0  0  0
 57 71  1  0  0  0  0
 60 63  1  0  0  0  0
 61 62  1  0  0  0  0
M  CHG  1  71   1
M  ISO  4  34 100  55 101  68 100  78 101
M  END
> <Batch ID>
0192

> <Smiles>
CNC(C)C(=O)NC(C(=O)N1Cc2cc([101O:1][101CH2:1]C3CC3n3cnc([100NH:0][100C:0](=O)N4CCCC(n5nc(-c6ccc(Oc7ccc(F)cc7F)cc6)c(C(N)=O)c5N)C4)n3)ccc2CC1C(=O)NC1CCCc2ccccc21)C(C)(C)C

> <Shape>
0.264

> <Color>
0.095

> <Negative vol penalty>
0.000

$$$$

  -OEChem-04052323293D

 81 90  0     1  0  0  0  0  0999 V2000
  -31.3149  -35.1053   22.7867 C   0  0  0  0  0  0  0  0  0  0  0  0
  -31.1796  -33.8826   22.1371 C   0  0  0  0  0  0  0  0  0  0  0  0
  -23.4585  -10.2736   22.0676 C   0  0  0  0  0  0  0  0  0  0  0  0
  -24.5788   -8.7778   20.5364 C   0  0  0  0  0  0  0  0  0  0  0  0
  -30.5196  -35.3968   23.8941 C   0  0  0  0  0  0  0  0  0  0  0  0
  -30.2496  -32.9501   22.5953 C   0  0  0  0  0  0  0  0  0  0  0  0
  -26.9682  -29.0495   19.2006 C   0  0  0  0  0  0  0  0  0  0  0  0
  -22.2778   -9.5471   21.9134 C   0  0  0  0  0  0  0  0  0  0  0  0
  -23.3981   -8.0513   20.3822 C   0  0  0  0  0  0  0  0  0  0  0  0
  -27.1393  -27.7004   18.8932 C   0  0  0  0  0  0  0  0  0  0  0  0
  -21.6710   -5.7131   22.1058 C   0  0  0  0  0  0  0  0  0  0  0  0
  -21.7575   -4.3217   22.1504 C   0  0  0  0  0  0  0  0  0  0  0  0
  -25.6455  -27.1072   20.6920 C   0  0  0  0  0  0  0  0  0  0  0  0
  -20.8625   -4.1942   19.9099 C   0  0  0  0  0  0  0  0  0  0  0  0
  -24.6090   -9.8890   21.3790 C   0  0  0  0  0  0  0  0  0  0  0  0
  -26.8424  -10.4229   22.4901 C   0  0  0  0  0  0  0  0  0  0  0  0
  -29.5726  -34.4714   24.3602 C   0  0  0  0  0  0  0  0  0  0  0  0
  -26.1416  -29.4377   20.2648 C   0  0  0  0  0  0  0  0  0  0  0  0
  -29.4418  -33.2290   23.7108 C   0  0  0  0  0  0  0  0  0  0  0  0
  -25.4635  -28.4620   21.0093 C   0  0  0  0  0  0  0  0  0  0  0  0
  -22.2476   -8.4360   21.0707 C   0  0  0  0  0  0  0  0  0  0  0  0
  -26.4802  -26.7289   19.6407 C   0  0  0  0  0  0  0  0  0  0  0  0
  -21.1802   -6.3452   20.9632 C   0  0  0  0  0  0  0  0  0  0  0  0
  -21.3533   -3.5623   21.0525 C   0  0  0  0  0  0  0  0  0  0  0  0
  -20.7760   -5.5857   19.8653 C   0  0  0  0  0  0  0  0  0  0  0  0
  -25.8288  -10.6393   21.5374 C   0  0  0  0  0  0  0  0  0  0  0  0
  -27.7767  -11.3938   22.2240 C   0  0  0  0  0  0  0  0  0  0  0  0
  -27.8736  -21.5537   18.2327 C   0  0  0  0  0  0  0  0  0  0  0  0
  -27.5384  -23.6072   18.0653 C   0  0  0  0  0  0  0  0  0  0  0  0
  -26.9314   -9.4327   23.5232 C   0  0  0  0  0  0  0  0  0  0  0  0
  -26.5897  -30.9891   23.0027 C   0  0  0  0  0  0  0  0  0  0  0  0
  -23.3575  -30.7908   23.1933 C   0  0  0  0  0  0  0  0  0  0  0  0
  -20.4943  -29.1793   22.2702 C   0  0  0  0  0  0  0  0  0  0  0  0
  -27.1483  -16.7291   19.6475 C   0  0  0  0  0  0  0  0  0  0  0  0
  -28.7686  -34.8123   25.5899 C   0  0  0  0  0  0  0  0  0  0  0  0
  -25.9465  -30.8983   20.5667 C   0  0  0  0  0  0  0  0  0  0  0  0
  -24.5490  -28.8274   22.1489 C   0  0  0  0  0  0  0  0  0  0  0  0
  -27.5449  -33.9205   25.7841 C   0  0  0  0  0  0  0  0  0  0  0  0
  -29.5092  -14.0655   18.6757 C   0  0  0  0  0  0  0  0  0  0  0  0
  -27.9162  -32.4542   25.5865 C   0  0  0  0  0  0  0  0  0  0  0  0
  -28.8789  -12.8529   19.3543 C   0  0  0  0  0  0  0  0  0  0  0  0
  -28.1521  -19.9004   20.2474 C   0  0  0  0  0  0  0  0  0  0  0  0
  -28.4578  -15.0657   18.1970 C   0  0  0  0  0  0  0  0  0  0  0  0
  -26.8881  -14.2870   19.9503 C   0  0  0  0  0  0  0  0  0  0  0  0
  -28.4268  -32.2015   24.1628 C   0  0  1  0  0  0  0  0  0  0  0  0
  -28.4190  -20.2298   18.7991 C   0  0  1  0  0  0  0  0  0  0  0  0
  -25.4852  -31.1562   21.9978 C   0  0  1  0  0  0  0  0  0  0  0  0
  -27.9324  -13.2932   20.4816 C   0  0  1  0  0  0  0  0  0  0  0  0
  -27.4314  -19.1427   19.1719 C   0  0  1  0  0  0  0  0  0  0  0  0
  -18.0093  -29.2245   22.6166 C   0  0  0  0  0  0  0  0  0  0  0  0
  -23.7219  -29.5424   25.9535 C   0  0  0  0  0  0  0  0  0  0  0  0
  -21.3477  -28.7568   25.8349 C   0  0  0  0  0  0  0  0  0  0  0  0
  -21.8549  -31.1989   25.7960 C   0  0  0  0  0  0  0  0  0  0  0  0
  -26.5362  -20.6587   16.2513 C   0  0  0  0  0  0  0  0  0  0  0  0
  -19.9853  -29.6540   19.3937 C   0  0  0  0  0  0  0  0  0  0  0  0
  -27.5097  -25.0957   18.2520 C   0  0  0  0  0  0  0  0  0  1  0  0
  -22.3794  -29.7915   23.7622 C   0  0  1  0  0  0  0  0  0  0  0  0
  -19.1663  -29.7020   21.7529 C   0  0  2  0  0  0  0  0  0  0  0  0
  -22.3447  -29.8151   25.3165 C   0  0  0  0  0  0  0  0  0  0  0  0
  -26.0941  -11.6672   20.7268 N   0  0  0  0  0  0  0  0  0  0  0  0
  -28.1742  -22.7464   18.8258 N   0  0  0  0  0  0  0  0  0  0  0  0
  -26.8919  -22.9463   17.0677 N   0  0  0  0  0  0  0  0  0  0  0  0
  -27.2850  -12.1053   21.1694 N   0  0  0  0  0  0  0  0  0  0  0  0
  -27.0918  -21.6223   17.1531 N   0  0  0  0  0  0  0  0  0  0  0  0
  -24.3958  -30.2683   22.4091 N   0  0  0  0  0  0  0  0  0  0  0  0
  -27.5228  -15.4255   19.2747 N   0  0  0  0  0  0  0  0  0  0  0  0
  -28.9627  -11.6998   22.7917 N   0  0  0  0  0  0  0  0  0  0  0  0
  -25.8837   -8.5114   23.6577 N   0  0  0  0  0  0  0  0  0  0  0  0
  -27.3200  -32.1394   23.2325 N   0  0  0  0  0  0  0  0  0  0  0  0
  -21.0945  -30.0734   23.1315 N   0  0  0  0  0  0  0  0  0  0  0  0
  -27.7234  -17.7585   18.9109 N   0  0  0  0  0  0  0  0  0  0  0  0
  -18.9345  -29.2353   20.3567 N   0  3  0  0  0  0  0  0  0  0  0  0
  -27.9032   -9.3770   24.3144 O   0  0  0  0  0  0  0  0  0  0  0  0
  -26.7653  -29.8977   23.5317 O   0  0  0  0  0  0  0  0  0  0  0  0
  -23.2018  -31.9914   23.4298 O   0  0  0  0  0  0  0  0  0  0  0  0
  -20.9516  -28.0856   21.9460 O   0  0  0  0  0  0  0  0  0  0  0  0
  -26.3547  -16.9612   20.5661 O   0  0  0  0  0  0  0  0  0  0  0  0
  -21.0957   -7.7267   20.9202 O   0  0  0  0  0  0  0  0  0  0  0  0
  -26.6459  -25.4114   19.3432 O   0  0  0  0  0  0  0  0  0  1  0  0
  -21.4379   -2.2261   21.0949 F   0  0  0  0  0  0  0  0  0  0  0  0
  -20.3048   -6.1873   18.7645 F   0  0  0  0  0  0  0  0  0  0  0  0
  1  2  1  0  0  0  0
  1  5  2  0  0  0  0
  2  6  2  0  0  0  0
  3  8  2  0  0  0  0
  3 15  1  0  0  0  0
  4  9  1  0  0  0  0
  4 15  2  0  0  0  0
  5 17  1  0  0  0  0
  6 19  1  0  0  0  0
  7 10  2  0  0  0  0
  7 18  1  0  0  0  0
  8 21  1  0  0  0  0
  9 21  2  0  0  0  0
 10 22  1  0  0  0  0
 11 12  2  0  0  0  0
 11 23  1  0  0  0  0
 12 24  1  0  0  0  0
 13 20  1  0  0  0  0
 13 22  2  0  0  0  0
 14 24  2  0  0  0  0
 14 25  1  0  0  0  0
 15 26  1  0  0  0  0
 16 26  1  0  0  0  0
 16 27  2  0  0  0  0
 16 30  1  0  0  0  0
 17 19  2  0  0  0  0
 17 35  1  0  0  0  0
 18 20  2  0  0  0  0
 18 36  1  0  0  0  0
 19 45  1  0  0  0  0
 20 37  1  0  0  0  0
 21 78  1  0  0  0  0
 22 79  1  0  0  0  0
 23 25  2  0  0  0  0
 23 78  1  0  0  0  0
 24 80  1  0  0  0  0
 25 81  1  0  0  0  0
 26 60  2  0  0  0  0
 27 63  1  0  0  0  0
 27 67  1  0  0  0  0
 28 46  1  0  0  0  0
 28 61  2  0  0  0  0
 28 64  1  0  0  0  0
 29 56  1  0  0  0  0
 29 61  1  0  0  0  0
 29 62  2  0  0  0  0
 30 68  1  0  0  0  0
 30 73  2  0  0  0  0
 31 47  1  0  0  0  0
 31 69  1  0  0  0  0
 31 74  2  0  0  0  0
 32 57  1  0  0  0  0
 32 65  1  0  0  0  0
 32 75  2  0  0  0  0
 33 58  1  0  0  0  0
 33 70  1  0  0  0  0
 33 76  2  0  0  0  0
 34 66  1  0  0  0  0
 34 71  1  0  0  0  0
 34 77  2  0  0  0  0
 35 38  1  0  0  0  0
 36 47  1  0  0  0  0
 37 65  1  0  0  0  0
 38 40  1  0  0  0  0
 39 41  1  0  0  0  0
 39 43  1  0  0  0  0
 40 45  1  0  0  0  0
 41 48  1  0  0  0  0
 42 46  1  0  0  0  0
 42 49  1  0  0  0  0
 43 66  1  0  0  0  0
 44 48  1  0  0  0  0
 44 66  1  0  0  0  0
 45 69  1  0  0  0  0
 46 49  1  0  0  0  0
 47 65  1  0  0  0  0
 48 63  1  0  0  0  0
 49 71  1  0  0  0  0
 50 58  1  0  0  0  0
 51 59  1  0  0  0  0
 52 59  1  0  0  0  0
 53 59  1  0  0  0  0
 54 64  1  0  0  0  0
 55 72  1  0  0  0  0
 56 79  1  0  0  0  0
 57 59  1  0  0  0  0
 57 70  1  0  0  0  0
 58 72  1  0  0  0  0
 60 63  1  0  0  0  0
 62 64  1  0  0  0  0
M  CHG  1  72   1
M  ISO  4  34 100  56 101  71 100  79 101
M  END
> <Batch ID>
0192

> <Smiles>
CNC(C)C(=O)NC(C(=O)N1Cc2cc([101O:1][101CH2:1]c3nc(C4CC4[100NH:0][100C:0](=O)N4CCCC(n5nc(-c6ccc(Oc7ccc(F)cc7F)cc6)c(C(N)=O)c5N)C4)n(C)n3)ccc2CC1C(=O)NC1CCCc2ccccc21)C(C)(C)C

> <Shape>
0.246

> <Color>
0.104

> <Negative vol penalty>
0.000

$$$$

  -OEChem-04052323293D

 83 91  0     1  0  0  0  0  0999 V2000
  -30.0281  -21.9691   29.9488 C   0  0  0  0  0  0  0  0  0  0  0  0
  -30.5163  -21.8487   28.6517 C   0  0  0  0  0  0  0  0  0  0  0  0
  -23.0000   -9.9068   19.9667 C   0  0  0  0  0  0  0  0  0  0  0  0
  -23.8390   -9.8769   22.2321 C   0  0  0  0  0  0  0  0  0  0  0  0
  -28.7432  -22.4650   30.1656 C   0  0  0  0  0  0  0  0  0  0  0  0
  -29.7194  -22.2231   27.5704 C   0  0  0  0  0  0  0  0  0  0  0  0
  -32.2548  -24.9553   24.1423 C   0  0  0  0  0  0  0  0  0  0  0  0
  -22.2590   -8.7538   20.2259 C   0  0  0  0  0  0  0  0  0  0  0  0
  -23.0979   -8.7240   22.4914 C   0  0  0  0  0  0  0  0  0  0  0  0
  -33.0968  -24.2632   23.2729 C   0  0  0  0  0  0  0  0  0  0  0  0
  -23.3512   -5.4090   21.8771 C   0  0  0  0  0  0  0  0  0  0  0  0
  -23.9856   -4.3704   22.5586 C   0  0  0  0  0  0  0  0  0  0  0  0
  -31.4026  -24.3677   21.5588 C   0  0  0  0  0  0  0  0  0  0  0  0
  -22.3454   -4.5278   24.3255 C   0  0  0  0  0  0  0  0  0  0  0  0
  -29.7121  -18.3252   21.2932 C   0  0  0  0  0  0  0  0  0  0  0  0
  -23.7901  -10.4683   20.9698 C   0  0  0  0  0  0  0  0  0  0  0  0
  -24.1413  -12.9932   20.8739 C   0  0  0  0  0  0  0  0  0  0  0  0
  -27.9337  -22.8547   29.0870 C   0  0  0  0  0  0  0  0  0  0  0  0
  -30.9741  -25.3499   23.7294 C   0  0  0  0  0  0  0  0  0  0  0  0
  -28.4219  -22.7234   27.7729 C   0  0  0  0  0  0  0  0  0  0  0  0
  -30.5473  -25.0669   22.4241 C   0  0  0  0  0  0  0  0  0  0  0  0
  -22.3079   -8.1625   21.4883 C   0  0  0  0  0  0  0  0  0  0  0  0
  -32.6696  -23.9668   21.9819 C   0  0  0  0  0  0  0  0  0  0  0  0
  -22.2139   -6.0071   22.4198 C   0  0  0  0  0  0  0  0  0  0  0  0
  -23.4827   -3.9298   23.7827 C   0  0  0  0  0  0  0  0  0  0  0  0
  -21.7110   -5.5665   23.6440 C   0  0  0  0  0  0  0  0  0  0  0  0
  -24.5562  -11.6590   20.7025 C   0  0  0  0  0  0  0  0  0  0  0  0
  -25.2243  -13.7424   20.4836 C   0  0  0  0  0  0  0  0  0  0  0  0
  -30.4481  -17.2011   21.0451 C   0  0  0  0  0  0  0  0  0  0  0  0
  -31.8537  -18.8615   21.4552 C   0  0  0  0  0  0  0  0  0  0  0  0
  -22.8889  -13.5092   21.3440 C   0  0  0  0  0  0  0  0  0  0  0  0
  -28.0110  -24.6905   24.6721 C   0  0  0  0  0  0  0  0  0  0  0  0
  -27.2291  -26.9676   22.4983 C   0  0  0  0  0  0  0  0  0  0  0  0
  -28.0776  -28.6962   19.6807 C   0  0  0  0  0  0  0  0  0  0  0  0
  -30.6989  -14.7583   20.4832 C   0  0  0  0  0  0  0  0  0  0  0  0
  -26.5339  -23.3407   29.3683 C   0  0  0  0  0  0  0  0  0  0  0  0
  -30.0882  -26.1191   24.6706 C   0  0  0  0  0  0  0  0  0  0  0  0
  -29.1894  -25.4862   21.9254 C   0  0  0  0  0  0  0  0  0  0  0  0
  -25.8926  -24.0667   28.1885 C   0  0  0  0  0  0  0  0  0  0  0  0
  -29.4898  -12.3844   18.1209 C   0  0  0  0  0  0  0  0  0  0  0  0
  -26.1042  -23.2803   26.8988 C   0  0  0  0  0  0  0  0  0  0  0  0
  -28.0644  -12.0938   18.5960 C   0  0  0  0  0  0  0  0  0  0  0  0
  -30.4473  -12.5913   19.2931 C   0  0  0  0  0  0  0  0  0  0  0  0
  -28.5934  -13.3052   20.7500 C   0  0  0  0  0  0  0  0  0  0  0  0
  -27.5969  -23.1423   26.5754 C   0  0  1  0  0  0  0  0  0  0  0  0
  -28.6085  -26.0214   24.3125 C   0  0  1  0  0  0  0  0  0  0  0  0
  -27.5794  -13.1538   19.6044 C   0  0  2  0  0  0  0  0  0  0  0  0
  -30.3884  -21.0137   23.3376 C   0  0  0  0  0  0  0  0  0  0  0  0
  -27.2201  -30.4667   18.1226 C   0  0  0  0  0  0  0  0  0  0  0  0
  -35.2384  -21.7183   19.4098 C   0  0  0  0  0  0  0  0  0  0  0  0
  -25.3291  -24.9378   21.2414 C   0  0  0  0  0  0  0  0  0  0  0  0
  -25.2376  -26.3895   19.2037 C   0  0  0  0  0  0  0  0  0  0  0  0
  -24.4204  -27.2629   21.3927 C   0  0  0  0  0  0  0  0  0  0  0  0
  -30.3551  -30.4891   20.2783 C   0  0  0  0  0  0  0  0  0  0  0  0
  -33.1282  -19.6296   21.6550 C   0  0  0  0  0  0  0  0  0  0  0  0
  -30.2514  -20.7071   21.8562 C   0  0  0  0  0  0  0  0  0  0  0  0
  -34.4132  -22.3720   21.7129 C   0  0  0  0  0  0  0  0  0  1  0  0
  -26.9046  -26.9716   21.0239 C   0  0  1  0  0  0  0  0  0  0  0  0
  -28.0516  -30.1805   19.3634 C   0  0  2  0  0  0  0  0  0  0  0  0
  -34.6758  -21.2204   20.7414 C   0  0  1  0  0  0  0  0  0  0  0  0
  -25.4978  -26.3807   20.7252 C   0  0  0  0  0  0  0  0  0  0  0  0
  -25.8053  -11.5629   20.2392 N   0  0  0  0  0  0  0  0  0  0  0  0
  -30.6073  -19.3370   21.5443 N   0  0  0  0  0  0  0  0  0  0  0  0
  -26.1845  -12.8463   20.1161 N   0  0  0  0  0  0  0  0  0  0  0  0
  -31.7696  -17.5621   21.1518 N   0  3  0  0  0  0  0  0  0  0  0  0
  -28.3573  -26.2305   22.8852 N   0  0  0  0  0  0  0  0  0  0  0  0
  -29.9247  -13.6121   20.2040 N   0  0  0  0  0  0  0  0  0  0  0  0
  -25.4393  -15.0737   20.4223 N   0  0  0  0  0  0  0  0  0  0  0  0
  -21.8844  -12.6003   21.7033 N   0  0  0  0  0  0  0  0  0  0  0  0
  -29.9539  -15.9094   20.7371 N   0  0  0  0  0  0  0  0  0  0  0  0
  -28.1083  -24.3741   26.0137 N   0  0  0  0  0  0  0  0  0  0  0  0
  -27.0838  -28.3466   20.5703 N   0  0  0  0  0  0  0  0  0  0  0  0
  -33.4327  -20.4841   20.5177 N   0  0  0  0  0  0  0  0  0  0  0  0
  -29.4343  -30.6844   19.1289 N   0  3  0  0  0  0  0  0  0  0  0  0
  -22.6615  -14.7400   21.4270 O   0  0  0  0  0  0  0  0  0  0  0  0
  -27.4982  -24.0022   23.7974 O   0  0  0  0  0  0  0  0  0  0  0  0
  -26.5123  -27.6011   23.2770 O   0  0  0  0  0  0  0  0  0  0  0  0
  -28.8952  -27.9235   19.1857 O   0  0  0  0  0  0  0  0  0  0  0  0
  -31.9321  -14.7276   20.4693 O   0  0  0  0  0  0  0  0  0  0  0  0
  -21.5847   -7.0376   21.7416 O   0  0  0  0  0  0  0  0  0  0  0  0
  -33.4891  -23.2908   21.1314 O   0  0  0  0  0  0  0  0  0  1  0  0
  -24.0912   -2.9314   24.4363 F   0  0  0  0  0  0  0  0  0  0  0  0
  -20.6180   -6.1364   24.1698 F   0  0  0  0  0  0  0  0  0  0  0  0
  1  2  1  0  0  0  0
  1  5  2  0  0  0  0
  2  6  2  0  0  0  0
  3  8  2  0  0  0  0
  3 16  1  0  0  0  0
  4  9  1  0  0  0  0
  4 16  2  0  0  0  0
  5 18  1  0  0  0  0
  6 20  1  0  0  0  0
  7 10  2  0  0  0  0
  7 19  1  0  0  0  0
  8 22  1  0  0  0  0
  9 22  2  0  0  0  0
 10 23  1  0  0  0  0
 11 12  2  0  0  0  0
 11 24  1  0  0  0  0
 12 25  1  0  0  0  0
 13 21  1  0  0  0  0
 13 23  2  0  0  0  0
 14 25  2  0  0  0  0
 14 26  1  0  0  0  0
 15 29  2  0  0  0  0
 15 63  1  0  0  0  0
 16 27  1  0  0  0  0
 17 27  1  0  0  0  0
 17 28  2  0  0  0  0
 17 31  1  0  0  0  0
 18 20  2  0  0  0  0
 18 36  1  0  0  0  0
 19 21  2  0  0  0  0
 19 37  1  0  0  0  0
 20 45  1  0  0  0  0
 21 38  1  0  0  0  0
 22 80  1  0  0  0  0
 23 81  1  0  0  0  0
 24 26  2  0  0  0  0
 24 80  1  0  0  0  0
 25 82  1  0  0  0  0
 26 83  1  0  0  0  0
 27 62  2  0  0  0  0
 28 64  1  0  0  0  0
 28 68  1  0  0  0  0
 29 65  1  0  0  0  0
 29 70  1  0  0  0  0
 30 55  1  0  0  0  0
 30 63  1  0  0  0  0
 30 65  2  0  0  0  0
 31 69  1  0  0  0  0
 31 75  2  0  0  0  0
 32 46  1  0  0  0  0
 32 71  1  0  0  0  0
 32 76  2  0  0  0  0
 33 58  1  0  0  0  0
 33 66  1  0  0  0  0
 33 77  2  0  0  0  0
 34 59  1  0  0  0  0
 34 72  1  0  0  0  0
 34 78  2  0  0  0  0
 35 67  1  0  0  0  0
 35 70  1  0  0  0  0
 35 79  2  0  0  0  0
 36 39  1  0  0  0  0
 37 46  1  0  0  0  0
 38 66  1  0  0  0  0
 39 41  1  0  0  0  0
 40 42  1  0  0  0  0
 40 43  1  0  0  0  0
 41 45  1  0  0  0  0
 42 47  1  0  0  0  0
 43 67  1  0  0  0  0
 44 47  1  0  0  0  0
 44 67  1  0  0  0  0
 45 71  1  0  0  0  0
 46 66  1  0  0  0  0
 47 64  1  0  0  0  0
 48 56  1  0  0  0  0
 49 59  1  0  0  0  0
 50 60  1  0  0  0  0
 51 61  1  0  0  0  0
 52 61  1  0  0  0  0
 53 61  1  0  0  0  0
 54 74  1  0  0  0  0
 55 73  1  0  0  0  0
 56 63  1  0  0  0  0
 57 60  1  0  0  0  0
 57 81  1  0  0  0  0
 58 61  1  0  0  0  0
 58 72  1  0  0  0  0
 59 74  1  0  0  0  0
 60 73  1  0  0  0  0
 62 64  1  0  0  0  0
M  CHG  2  65   1  74   1
M  ISO  4  35 100  57 101  70 100  81 101
M  END
> <Batch ID>
0192

> <Smiles>
CCn1cc([100NH:0][100C:0](=O)N2CCCC(n3nc(-c4ccc(Oc5ccc(F)cc5F)cc4)c(C(N)=O)c3N)C2)nc1CNC(C)[101CH2:1][101O:1]c1ccc2c(c1)CN(C(=O)C(NC(=O)C(C)NC)C(C)(C)C)C(C(=O)NC1CCCc3ccccc31)C2

> <Shape>
0.216

> <Color>
0.185

> <Negative vol penalty>
0.000

$$$$

  -OEChem-04052323293D

 86 95  0     1  0  0  0  0  0999 V2000
  -24.4314   -9.5932   16.3545 C   0  0  0  0  0  0  0  0  0  0  0  0
  -24.7327  -10.9377   16.1623 C   0  0  0  0  0  0  0  0  0  0  0  0
  -21.7880  -25.3781   21.1849 C   0  0  0  0  0  0  0  0  0  0  0  0
  -21.1513  -27.3492   19.9414 C   0  0  0  0  0  0  0  0  0  0  0  0
  -24.0016   -9.1480   17.6040 C   0  0  0  0  0  0  0  0  0  0  0  0
  -24.6033  -11.8381   17.2192 C   0  0  0  0  0  0  0  0  0  0  0  0
  -28.1145  -16.7291   18.3395 C   0  0  0  0  0  0  0  0  0  0  0  0
  -20.6233  -25.4815   21.9454 C   0  0  0  0  0  0  0  0  0  0  0  0
  -19.9865  -27.4527   20.7019 C   0  0  0  0  0  0  0  0  0  0  0  0
  -27.9461  -18.0864   18.0690 C   0  0  0  0  0  0  0  0  0  0  0  0
  -17.0215  -28.4454   22.5548 C   0  0  0  0  0  0  0  0  0  0  0  0
  -16.6707  -29.7071   23.0350 C   0  0  0  0  0  0  0  0  0  0  0  0
  -27.0882  -18.4183   20.2990 C   0  0  0  0  0  0  0  0  0  0  0  0
  -18.7540  -29.8227   24.2531 C   0  0  0  0  0  0  0  0  0  0  0  0
  -28.1996  -22.4630   18.8198 C   0  0  0  0  0  0  0  0  0  0  0  0
  -22.0521  -26.3120   20.1830 C   0  0  0  0  0  0  0  0  0  0  0  0
  -23.4238  -25.4997   18.1914 C   0  0  0  0  0  0  0  0  0  0  0  0
  -23.8762  -10.0417   18.6793 C   0  0  0  0  0  0  0  0  0  0  0  0
  -27.7602  -16.2033   19.5903 C   0  0  0  0  0  0  0  0  0  0  0  0
  -24.1702  -11.4047   18.4838 C   0  0  0  0  0  0  0  0  0  0  0  0
  -27.2555  -17.0544   20.5838 C   0  0  0  0  0  0  0  0  0  0  0  0
  -19.7225  -26.5188   21.7038 C   0  0  0  0  0  0  0  0  0  0  0  0
  -27.4302  -18.9307   19.0478 C   0  0  0  0  0  0  0  0  0  0  0  0
  -18.2386  -27.8723   22.9237 C   0  0  0  0  0  0  0  0  0  0  0  0
  -17.5369  -30.3957   23.8841 C   0  0  0  0  0  0  0  0  0  0  0  0
  -19.1048  -28.5610   23.7729 C   0  0  0  0  0  0  0  0  0  0  0  0
  -23.2554  -26.2060   19.3975 C   0  0  0  0  0  0  0  0  0  0  0  0
  -30.4346  -21.4191   19.8405 C   0  0  0  0  0  0  0  0  0  0  0  0
  -30.3279  -22.7709   19.5977 C   0  0  0  0  0  0  0  0  0  0  0  0
  -28.3065  -21.1112   19.0623 C   0  0  0  0  0  0  0  0  0  1  0  0
  -24.7376  -25.7103   17.8508 C   0  0  0  0  0  0  0  0  0  0  0  0
  -22.4772  -24.7229   17.4456 C   0  0  0  0  0  0  0  0  0  0  0  0
  -25.6632  -14.0390   20.6013 C   0  0  0  0  0  0  0  0  0  0  0  0
  -27.1171  -14.5353   23.4583 C   0  0  0  0  0  0  0  0  0  0  0  0
  -28.9477  -16.6103   25.4558 C   0  0  0  0  0  0  0  0  0  0  0  0
  -29.3221  -27.2657   21.5383 C   0  0  0  0  0  0  0  0  0  0  0  0
  -23.3626   -9.5222   19.9988 C   0  0  0  0  0  0  0  0  0  0  0  0
  -27.9730  -14.7419   19.8753 C   0  0  0  0  0  0  0  0  0  0  0  0
  -26.8788  -16.5433   21.9495 C   0  0  0  0  0  0  0  0  0  0  0  0
  -23.6110  -10.4738   21.1663 C   0  0  0  0  0  0  0  0  0  0  0  0
  -28.2809  -28.8734   18.3206 C   0  0  0  0  0  0  0  0  0  0  0  0
  -23.2206  -11.8986   20.7860 C   0  0  0  0  0  0  0  0  0  0  0  0
  -26.8498  -28.3550   18.1883 C   0  0  0  0  0  0  0  0  0  0  0  0
  -28.7051  -28.9605   19.7818 C   0  0  0  0  0  0  0  0  0  0  0  0
  -31.3703  -27.8812   22.7606 C   0  0  0  0  0  0  0  0  0  0  0  0
  -27.1339  -27.1502   20.4009 C   0  0  0  0  0  0  0  0  0  0  0  0
  -32.4378  -28.9574   22.6680 C   0  0  0  0  0  0  0  0  0  0  0  0
  -32.5877  -28.5904   20.2082 C   0  0  0  0  0  0  0  0  0  0  0  0
  -24.0660  -12.4076   19.6123 C   0  0  1  0  0  0  0  0  0  0  0  0
  -27.0974  -14.2209   21.0108 C   0  0  1  0  0  0  0  0  0  0  0  0
  -26.6762  -27.0237   18.9388 C   0  0  1  0  0  0  0  0  0  0  0  0
  -31.5120  -27.5078   20.2900 C   0  0  1  0  0  0  0  0  0  0  0  0
  -31.6784  -20.8276   20.4102 C   0  0  0  0  0  0  0  0  0  0  0  0
  -29.9501  -16.7556   27.7518 C   0  0  0  0  0  0  0  0  0  0  0  0
  -24.3533  -15.0869   24.6274 C   0  0  0  0  0  0  0  0  0  0  0  0
  -25.4756  -16.1293   26.6078 C   0  0  0  0  0  0  0  0  0  0  0  0
  -25.8504  -13.7180   26.0900 C   0  0  0  0  0  0  0  0  0  0  0  0
  -31.6903  -16.8497   24.3696 C   0  0  0  0  0  0  0  0  0  0  0  0
  -31.4587  -23.7109   19.8953 C   0  0  0  0  0  0  0  0  0  0  0  0
  -32.1092  -26.0939   20.2649 C   0  0  0  0  0  0  0  0  0  0  0  0
  -26.9049  -15.4807   24.6159 C   0  0  1  0  0  0  0  0  0  0  0  0
  -30.1838  -16.3624   26.3014 C   0  0  2  0  0  0  0  0  0  0  0  0
  -25.6512  -15.1133   25.4590 C   0  0  0  0  0  0  0  0  0  0  0  0
  -29.2084  -23.3172   19.0831 N   0  0  0  0  0  0  0  0  0  0  0  0
  -24.3729  -26.8192   19.7963 N   0  0  0  0  0  0  0  0  0  0  0  0
  -29.4259  -20.5649   19.5772 N   0  0  0  0  0  0  0  0  0  0  0  0
  -25.2561  -26.4988   18.8354 N   0  0  0  0  0  0  0  0  0  0  0  0
  -27.0994  -15.1057   22.1776 N   0  0  0  0  0  0  0  0  0  0  0  0
  -28.4922  -27.6894   20.4871 N   0  0  0  0  0  0  0  0  0  0  0  0
  -30.6629  -27.6914   21.4913 N   0  0  0  0  0  0  0  0  0  0  0  0
  -25.4883  -25.2959   16.8081 N   0  0  0  0  0  0  0  0  0  0  0  0
  -21.1698  -24.6102   17.9378 N   0  0  0  0  0  0  0  0  0  0  0  0
  -25.3836  -12.7949   20.0690 N   0  0  0  0  0  0  0  0  0  0  0  0
  -28.1526  -15.4869   25.3719 N   0  0  0  0  0  0  0  0  0  0  0  0
  -33.3249  -28.6800   21.5025 N   0  3  0  0  0  0  0  0  0  0  0  0
  -31.3350  -17.1523   25.7800 N   0  3  0  0  0  0  0  0  0  0  0  0
  -31.0411  -25.1434   19.9050 N   0  3  0  0  0  0  0  0  0  0  0  0
  -22.7861  -24.1323   16.3829 O   0  0  0  0  0  0  0  0  0  0  0  0
  -24.8688  -14.9588   20.7582 O   0  0  0  0  0  0  0  0  0  0  0  0
  -27.2992  -13.3360   23.6825 O   0  0  0  0  0  0  0  0  0  0  0  0
  -28.7093  -17.6933   24.9260 O   0  0  0  0  0  0  0  0  0  0  0  0
  -28.8973  -26.5546   22.4571 O   0  0  0  0  0  0  0  0  0  0  0  0
  -18.5858  -26.6199   22.4455 O   0  0  0  0  0  0  0  0  0  0  0  0
  -27.2616  -20.2768   18.7820 O   0  0  0  0  0  0  0  0  0  1  0  0
  -17.2006  -31.6080   24.3440 F   0  0  0  0  0  0  0  0  0  0  0  0
  -20.2759  -28.0160   24.1299 F   0  0  0  0  0  0  0  0  0  0  0  0
  1  2  1  0  0  0  0
  1  5  2  0  0  0  0
  2  6  2  0  0  0  0
  3  8  2  0  0  0  0
  3 16  1  0  0  0  0
  4  9  1  0  0  0  0
  4 16  2  0  0  0  0
  5 18  1  0  0  0  0
  6 20  1  0  0  0  0
  7 10  2  0  0  0  0
  7 19  1  0  0  0  0
  8 22  1  0  0  0  0
  9 22  2  0  0  0  0
 10 23  1  0  0  0  0
 11 12  2  0  0  0  0
 11 24  1  0  0  0  0
 12 25  1  0  0  0  0
 13 21  1  0  0  0  0
 13 23  2  0  0  0  0
 14 25  2  0  0  0  0
 14 26  1  0  0  0  0
 15 30  1  0  0  0  0
 15 64  2  0  0  0  0
 16 27  1  0  0  0  0
 17 27  1  0  0  0  0
 17 31  2  0  0  0  0
 17 32  1  0  0  0  0
 18 20  2  0  0  0  0
 18 37  1  0  0  0  0
 19 21  2  0  0  0  0
 19 38  1  0  0  0  0
 20 49  1  0  0  0  0
 21 39  1  0  0  0  0
 22 83  1  0  0  0  0
 23 84  1  0  0  0  0
 24 26  2  0  0  0  0
 24 83  1  0  0  0  0
 25 85  1  0  0  0  0
 26 86  1  0  0  0  0
 27 65  2  0  0  0  0
 28 29  2  0  0  0  0
 28 53  1  0  0  0  0
 28 66  1  0  0  0  0
 29 59  1  0  0  0  0
 29 64  1  0  0  0  0
 30 66  2  0  0  0  0
 30 84  1  0  0  0  0
 31 67  1  0  0  0  0
 31 71  1  0  0  0  0
 32 72  1  0  0  0  0
 32 78  2  0  0  0  0
 33 50  1  0  0  0  0
 33 73  1  0  0  0  0
 33 79  2  0  0  0  0
 34 61  1  0  0  0  0
 34 68  1  0  0  0  0
 34 80  2  0  0  0  0
 35 62  1  0  0  0  0
 35 74  1  0  0  0  0
 35 81  2  0  0  0  0
 36 69  1  0  0  0  0
 36 70  1  0  0  0  0
 36 82  2  0  0  0  0
 37 40  1  0  0  0  0
 38 50  1  0  0  0  0
 39 68  1  0  0  0  0
 40 42  1  0  0  0  0
 41 43  1  0  0  0  0
 41 44  1  0  0  0  0
 42 49  1  0  0  0  0
 43 51  1  0  0  0  0
 44 69  1  0  0  0  0
 45 47  1  0  0  0  0
 45 70  1  0  0  0  0
 46 51  1  0  0  0  0
 46 69  1  0  0  0  0
 47 75  1  0  0  0  0
 48 52  1  0  0  0  0
 48 75  1  0  0  0  0
 49 73  1  0  0  0  0
 50 68  1  0  0  0  0
 51 67  1  0  0  0  0
 52 60  1  0  0  0  0
 52 70  1  0  0  0  0
 54 62  1  0  0  0  0
 55 63  1  0  0  0  0
 56 63  1  0  0  0  0
 57 63  1  0  0  0  0
 58 76  1  0  0  0  0
 59 77  1  0  0  0  0
 60 77  1  0  0  0  0
 61 63  1  0  0  0  0
 61 74  1  0  0  0  0
 62 76  1  0  0  0  0
 65 67  1  0  0  0  0
M  CHG  3  75   1  76   1  77   1
M  ISO  4  30 101  36 100  70 100  84 101
M  END
> <Batch ID>
0192

> <Smiles>
CNC(C)C(=O)NC(C(=O)N1Cc2cc([101O:1][101c:1]3cnc(CNCC4CNCC[100N:0]4[100C:0](=O)N4CCCC(n5nc(-c6ccc(Oc7ccc(F)cc7F)cc6)c(C(N)=O)c5N)C4)c(C)n3)ccc2CC1C(=O)NC1CCCc2ccccc21)C(C)(C)C

> <Shape>
0.218

> <Color>
0.058

> <Negative vol penalty>
0.000

$$$$

  -OEChem-04052323293D

 83 92  0     1  0  0  0  0  0999 V2000
  -18.3866  -27.7174   22.0941 C   0  0  0  0  0  0  0  0  0  0  0  0
  -18.9634  -26.6850   21.3614 C   0  0  0  0  0  0  0  0  0  0  0  0
  -28.3164  -23.7895   18.6909 C   0  0  0  0  0  0  0  0  0  0  0  0
  -30.2911  -22.6826   17.8468 C   0  0  0  0  0  0  0  0  0  0  0  0
  -19.0264  -28.2043   23.2332 C   0  0  0  0  0  0  0  0  0  0  0  0
  -20.1810  -26.1396   21.7668 C   0  0  0  0  0  0  0  0  0  0  0  0
  -20.7738  -19.1280   23.3087 C   0  0  0  0  0  0  0  0  0  0  0  0
  -28.7733  -25.0007   18.1715 C   0  0  0  0  0  0  0  0  0  0  0  0
  -30.7480  -23.8939   17.3274 C   0  0  0  0  0  0  0  0  0  0  0  0
  -21.0176  -17.7588   23.4180 C   0  0  0  0  0  0  0  0  0  0  0  0
  -31.0163  -27.3843   19.0153 C   0  0  0  0  0  0  0  0  0  0  0  0
  -30.9293  -28.5123   19.8310 C   0  0  0  0  0  0  0  0  0  0  0  0
  -23.3157  -18.2055   24.0241 C   0  0  0  0  0  0  0  0  0  0  0  0
  -29.5062  -29.5831   18.1985 C   0  0  0  0  0  0  0  0  0  0  0  0
  -29.0753  -22.6304   18.5286 C   0  0  0  0  0  0  0  0  0  0  0  0
  -27.4067  -20.7128   18.7429 C   0  0  0  0  0  0  0  0  0  0  0  0
  -20.2477  -27.6580   23.6582 C   0  0  0  0  0  0  0  0  0  0  0  0
  -21.7972  -20.0427   23.5721 C   0  0  0  0  0  0  0  0  0  0  0  0
  -20.8385  -26.6205   22.9118 C   0  0  0  0  0  0  0  0  0  0  0  0
  -23.0741  -19.5785   23.9285 C   0  0  0  0  0  0  0  0  0  0  0  0
  -29.9890  -25.0529   17.4898 C   0  0  0  0  0  0  0  0  0  0  0  0
  -22.2855  -17.2987   23.7745 C   0  0  0  0  0  0  0  0  0  0  0  0
  -30.3483  -27.3556   17.7910 C   0  0  0  0  0  0  0  0  0  0  0  0
  -30.1742  -29.6118   19.4227 C   0  0  0  0  0  0  0  0  0  0  0  0
  -29.5932  -28.4551   17.3827 C   0  0  0  0  0  0  0  0  0  0  0  0
  -28.6041  -21.3790   19.0653 C   0  0  0  0  0  0  0  0  0  0  0  0
  -27.4261  -19.5780   19.5164 C   0  0  0  0  0  0  0  0  0  0  0  0
  -26.3696  -21.0862   17.8260 C   0  0  0  0  0  0  0  0  0  0  0  0
  -22.8379  -23.6406   23.7922 C   0  0  0  0  0  0  0  0  0  0  0  0
  -24.1517  -22.1870   26.1526 C   0  0  0  0  0  0  0  0  0  0  0  0
  -25.5410  -21.3243   29.1464 C   0  0  0  0  0  0  0  0  0  0  0  0
  -30.1019  -15.1643   21.6236 C   0  0  0  0  0  0  0  0  0  0  0  0
  -20.9251  -28.2492   24.8691 C   0  0  0  0  0  0  0  0  0  0  0  0
  -21.5964  -21.5247   23.4069 C   0  0  0  0  0  0  0  0  0  0  0  0
  -24.1538  -20.5980   24.1687 C   0  0  0  0  0  0  0  0  0  0  0  0
  -22.0279  -27.3635   25.4433 C   0  0  0  0  0  0  0  0  0  0  0  0
  -30.4602  -18.2517   23.3415 C   0  0  0  0  0  0  0  0  0  0  0  0
  -22.9328  -26.8476   24.3289 C   0  0  0  0  0  0  0  0  0  0  0  0
  -29.9131  -19.2863   22.3565 C   0  0  0  0  0  0  0  0  0  0  0  0
  -28.4646  -11.7071   19.1372 C   0  0  0  0  0  0  0  0  0  0  0  0
  -29.7693  -12.4330   19.5362 C   0  0  0  0  0  0  0  0  0  0  0  0
  -24.1777  -12.4939   20.3394 C   0  0  0  0  0  0  0  0  0  0  0  0
  -31.2159  -17.1348   22.6249 C   0  0  0  0  0  0  0  0  0  0  0  0
  -25.4365  -12.1831   19.5278 C   0  0  0  0  0  0  0  0  0  0  0  0
  -29.9152  -17.4994   20.5654 C   0  0  0  0  0  0  0  0  0  0  0  0
  -26.0547  -13.7449   21.1575 C   0  0  0  0  0  0  0  0  0  0  0  0
  -22.1461  -25.9862   23.3336 C   0  0  1  0  0  0  0  0  0  0  0  0
  -22.3885  -22.3587   24.4297 C   0  0  1  0  0  0  0  0  0  0  0  0
  -29.0962  -18.6164   21.2349 C   0  0  2  0  0  0  0  0  0  0  0  0
  -27.7183  -12.9841   19.5803 C   0  0  2  0  0  0  0  0  0  0  0  0
  -28.9142  -13.2701   20.5213 C   0  0  2  0  0  0  0  0  0  0  0  0
  -24.6938  -13.2225   21.5713 C   0  0  1  0  0  0  0  0  0  0  0  0
  -27.3694  -21.9856   30.7329 C   0  0  0  0  0  0  0  0  0  0  0  0
  -26.2144  -20.9165   24.2991 C   0  0  0  0  0  0  0  0  0  0  0  0
  -27.7625  -20.7406   26.2589 C   0  0  0  0  0  0  0  0  0  0  0  0
  -26.9977  -22.9812   25.4730 C   0  0  0  0  0  0  0  0  0  0  0  0
  -23.6118  -21.8805   31.3208 C   0  0  0  0  0  0  0  0  0  0  0  0
  -22.5659  -13.8830   22.6743 C   0  0  0  0  0  0  0  0  0  0  0  0
  -21.7426  -15.0997   23.0485 C   0  0  0  0  0  0  0  0  0  1  0  0
  -25.3689  -21.4671   26.6757 C   0  0  1  0  0  0  0  0  0  0  0  0
  -25.9034  -22.1536   30.3652 C   0  0  2  0  0  0  0  0  0  0  0  0
  -26.5600  -21.5144   25.6775 C   0  0  0  0  0  0  0  0  0  0  0  0
  -29.3313  -20.7223   19.9731 N   0  0  0  0  0  0  0  0  0  0  0  0
  -28.5886  -19.6316   20.2277 N   0  0  0  0  0  0  0  0  0  0  0  0
  -23.6155  -21.7268   24.9438 N   0  0  0  0  0  0  0  0  0  0  0  0
  -30.3815  -16.5392   21.5781 N   0  0  0  0  0  0  0  0  0  0  0  0
  -26.5525  -12.6024   20.3849 N   0  0  2  0  0  0  0  0  0  0  0  0
  -26.5620  -18.5495   19.6508 N   0  0  0  0  0  0  0  0  0  0  0  0
  -26.4663  -20.6547   16.4961 N   0  0  0  0  0  0  0  0  0  0  0  0
  -21.9157  -24.6659   23.8798 N   0  0  0  0  0  0  0  0  0  0  0  0
  -25.6592  -22.0512   27.9806 N   0  0  0  0  0  0  0  0  0  0  0  0
  -29.2964  -14.6727   20.6016 N   0  0  0  0  0  0  0  0  0  0  0  0
  -23.7931  -14.3216   21.9630 N   0  3  0  0  0  0  0  0  0  0  0  0
  -25.0756  -21.7443   31.5349 N   0  3  0  0  0  0  0  0  0  0  0  0
  -25.3946  -21.7957   18.1719 O   0  0  0  0  0  0  0  0  0  0  0  0
  -23.9407  -23.6970   23.2610 O   0  0  0  0  0  0  0  0  0  0  0  0
  -23.6903  -23.1356   26.7933 O   0  0  0  0  0  0  0  0  0  0  0  0
  -25.1919  -20.1483   29.2207 O   0  0  0  0  0  0  0  0  0  0  0  0
  -30.5300  -14.4219   22.5140 O   0  0  0  0  0  0  0  0  0  0  0  0
  -30.4350  -26.2347   16.9826 O   0  0  0  0  0  0  0  0  0  0  0  0
  -22.5154  -15.9608   23.8838 O   0  0  0  0  0  0  0  0  0  1  0  0
  -30.0895  -30.6944   20.2068 F   0  0  0  0  0  0  0  0  0  0  0  0
  -28.9483  -28.4330   16.2082 F   0  0  0  0  0  0  0  0  0  0  0  0
  1  2  1  0  0  0  0
  1  5  2  0  0  0  0
  2  6  2  0  0  0  0
  3  8  2  0  0  0  0
  3 15  1  0  0  0  0
  4  9  1  0  0  0  0
  4 15  2  0  0  0  0
  5 17  1  0  0  0  0
  6 19  1  0  0  0  0
  7 10  2  0  0  0  0
  7 18  1  0  0  0  0
  8 21  1  0  0  0  0
  9 21  2  0  0  0  0
 10 22  1  0  0  0  0
 11 12  2  0  0  0  0
 11 23  1  0  0  0  0
 12 24  1  0  0  0  0
 13 20  1  0  0  0  0
 13 22  2  0  0  0  0
 14 24  2  0  0  0  0
 14 25  1  0  0  0  0
 15 26  1  0  0  0  0
 16 26  1  0  0  0  0
 16 27  2  0  0  0  0
 16 28  1  0  0  0  0
 17 19  2  0  0  0  0
 17 33  1  0  0  0  0
 18 20  2  0  0  0  0
 18 34  1  0  0  0  0
 19 47  1  0  0  0  0
 20 35  1  0  0  0  0
 21 80  1  0  0  0  0
 22 81  1  0  0  0  0
 23 25  2  0  0  0  0
 23 80  1  0  0  0  0
 24 82  1  0  0  0  0
 25 83  1  0  0  0  0
 26 63  2  0  0  0  0
 27 64  1  0  0  0  0
 27 68  1  0  0  0  0
 28 69  1  0  0  0  0
 28 75  2  0  0  0  0
 29 48  1  0  0  0  0
 29 70  1  0  0  0  0
 29 76  2  0  0  0  0
 30 60  1  0  0  0  0
 30 65  1  0  0  0  0
 30 77  2  0  0  0  0
 31 61  1  0  0  0  0
 31 71  1  0  0  0  0
 31 78  2  0  0  0  0
 32 66  1  0  0  0  0
 32 72  1  0  0  0  0
 32 79  2  0  0  0  0
 33 36  1  0  0  0  0
 34 48  1  0  0  0  0
 35 65  1  0  0  0  0
 36 38  1  0  0  0  0
 37 39  1  0  0  0  0
 37 43  1  0  0  0  0
 38 47  1  0  0  0  0
 39 49  1  0  0  0  0
 40 41  1  0  0  0  0
 40 50  1  0  0  0  0
 41 51  1  0  0  0  0
 42 44  1  0  0  0  0
 42 52  1  0  0  0  0
 43 66  1  0  0  0  0
 44 67  1  0  0  0  0
 45 49  1  0  0  0  0
 45 66  1  0  0  0  0
 46 52  1  0  0  0  0
 46 67  1  0  0  0  0
 47 70  1  0  0  0  0
 48 65  1  0  0  0  0
 49 64  1  0  0  0  0
 50 51  1  0  0  0  0
 50 67  1  0  0  0  0
 51 72  1  0  0  0  0
 52 73  1  0  0  0  0
 53 61  1  0  0  0  0
 54 62  1  0  0  0  0
 55 62  1  0  0  0  0
 56 62  1  0  0  0  0
 57 74  1  0  0  0  0
 58 59  1  0  0  0  0
 58 73  1  0  0  0  0
 59 81  1  0  0  0  0
 60 62  1  0  0  0  0
 60 71  1  0  0  0  0
 61 74  1  0  0  0  0
 63 64  1  0  0  0  0
M  CHG  2  73   1  74   1
M  ISO  4  32 100  59 101  72 100  81 101
M  END
> <Batch ID>
0192

> <Smiles>
CNC(C)C(=O)NC(C(=O)N1Cc2cc([101O:1][101CH2:1]CNC3CCN(C4CCC4[100NH:0][100C:0](=O)N4CCCC(n5nc(-c6ccc(Oc7ccc(F)cc7F)cc6)c(C(N)=O)c5N)C4)C3)ccc2CC1C(=O)NC1CCCc2ccccc21)C(C)(C)C

> <Shape>
0.206

> <Color>
0.064

> <Negative vol penalty>
0.000

$$$$

  -OEChem-04052323293D

 79 87  0     1  0  0  0  0  0999 V2000
  -32.4765  -31.2511   15.7912 C   0  0  0  0  0  0  0  0  0  0  0  0
  -31.7915  -30.0856   15.4629 C   0  0  0  0  0  0  0  0  0  0  0  0
  -24.3737  -15.3979   23.1286 C   0  0  0  0  0  0  0  0  0  0  0  0
  -23.5401  -16.1356   20.9843 C   0  0  0  0  0  0  0  0  0  0  0  0
  -32.6016  -31.6322   17.1265 C   0  0  0  0  0  0  0  0  0  0  0  0
  -31.2321  -29.2999   16.4700 C   0  0  0  0  0  0  0  0  0  0  0  0
  -25.6419  -25.0054   17.7442 C   0  0  0  0  0  0  0  0  0  0  0  0
  -23.7677  -16.4946   23.7415 C   0  0  0  0  0  0  0  0  0  0  0  0
  -22.9341  -17.2323   21.5971 C   0  0  0  0  0  0  0  0  0  0  0  0
  -25.3521  -23.7266   18.2181 C   0  0  0  0  0  0  0  0  0  0  0  0
  -22.1369  -18.9040   25.9211 C   0  0  0  0  0  0  0  0  0  0  0  0
  -21.4312  -18.6784   27.1029 C   0  0  0  0  0  0  0  0  0  0  0  0
  -25.5629  -24.5254   20.4846 C   0  0  0  0  0  0  0  0  0  0  0  0
  -19.9598  -17.1596   25.9343 C   0  0  0  0  0  0  0  0  0  0  0  0
  -24.2600  -15.2184   21.7500 C   0  0  0  0  0  0  0  0  0  0  0  0
  -24.3225  -12.8148   20.8978 C   0  0  0  0  0  0  0  0  0  0  0  0
  -32.0351  -30.8559   18.1497 C   0  0  0  0  0  0  0  0  0  0  0  0
  -25.9056  -26.0530   18.6383 C   0  0  0  0  0  0  0  0  0  0  0  0
  -31.3508  -29.6703   17.8203 C   0  0  0  0  0  0  0  0  0  0  0  0
  -25.8533  -25.8171   20.0195 C   0  0  0  0  0  0  0  0  0  0  0  0
  -23.0478  -17.4118   22.9758 C   0  0  0  0  0  0  0  0  0  0  0  0
  -25.3154  -23.4858   19.5884 C   0  0  0  0  0  0  0  0  0  0  0  0
  -21.7540  -18.2574   24.7458 C   0  0  0  0  0  0  0  0  0  0  0  0
  -20.3427  -17.8062   27.1095 C   0  0  0  0  0  0  0  0  0  0  0  0
  -20.6655  -17.3852   24.7525 C   0  0  0  0  0  0  0  0  0  0  0  0
  -24.8863  -14.0861   21.1162 C   0  0  0  0  0  0  0  0  0  0  0  0
  -25.3136  -12.1034   20.2669 C   0  0  0  0  0  0  0  0  0  0  0  0
  -23.0193  -12.3211   21.2350 C   0  0  0  0  0  0  0  0  0  0  0  0
  -28.4009  -27.9360   19.2142 C   0  0  0  0  0  0  0  0  0  0  0  0
  -26.3252  -29.4183   21.2183 C   0  0  0  0  0  0  0  0  0  0  0  0
  -23.5013  -29.2261   23.1251 C   0  0  0  0  0  0  0  0  0  0  0  0
  -29.0551  -16.1311   19.7781 C   0  0  0  0  0  0  0  0  0  0  0  0
  -32.2370  -31.2836   19.5819 C   0  0  0  0  0  0  0  0  0  0  0  0
  -26.1903  -27.4328   18.1114 C   0  0  0  0  0  0  0  0  0  0  0  0
  -26.1089  -26.9123   21.0213 C   0  0  0  0  0  0  0  0  0  0  0  0
  -31.2930  -30.5928   20.5627 C   0  0  0  0  0  0  0  0  0  0  0  0
  -29.3717  -12.9839   21.4400 C   0  0  0  0  0  0  0  0  0  0  0  0
  -27.7614  -17.5452   16.6998 C   0  0  0  0  0  0  0  0  0  0  0  0
  -31.2445  -29.0927   20.2903 C   0  0  0  0  0  0  0  0  0  0  0  0
  -28.6744  -11.9856   20.5225 C   0  0  0  0  0  0  0  0  0  0  0  0
  -27.1813  -18.5497   17.6854 C   0  0  0  0  0  0  0  0  0  0  0  0
  -30.0836  -14.0533   20.6260 C   0  0  0  0  0  0  0  0  0  0  0  0
  -27.8600  -16.2784   17.5356 C   0  0  0  0  0  0  0  0  0  0  0  0
  -28.3927  -13.8683   18.8115 C   0  0  0  0  0  0  0  0  0  0  0  0
  -30.7087  -28.8047   18.8826 C   0  0  1  0  0  0  0  0  0  0  0  0
  -26.9489  -28.3070   19.1051 C   0  0  1  0  0  0  0  0  0  0  0  0
  -27.7273  -12.6669   19.5217 C   0  0  2  0  0  0  0  0  0  0  0  0
  -27.8672  -18.1841   19.0046 C   0  0  1  0  0  0  0  0  0  0  0  0
  -22.0769  -30.5881   24.6785 C   0  0  0  0  0  0  0  0  0  0  0  0
  -28.4001  -29.0646   23.4272 C   0  0  0  0  0  0  0  0  0  0  0  0
  -26.6014  -29.5522   25.0991 C   0  0  0  0  0  0  0  0  0  0  0  0
  -27.2478  -31.2841   23.4242 C   0  0  0  0  0  0  0  0  0  0  0  0
  -21.1394  -28.9838   21.3584 C   0  0  0  0  0  0  0  0  0  0  0  0
  -26.9817  -18.4813   20.2079 C   0  0  0  0  0  0  0  0  0  0  0  0
  -25.7940  -20.3576   21.3514 C   0  0  0  0  0  0  0  0  0  0  0  0
  -25.6148  -21.8620   21.3000 C   0  0  0  0  0  0  0  0  0  1  0  0
  -25.9396  -29.2567   22.6689 C   0  0  1  0  0  0  0  0  0  0  0  0
  -22.2993  -30.1460   23.2405 C   0  0  2  0  0  0  0  0  0  0  0  0
  -27.0443  -29.7681   23.6362 C   0  0  0  0  0  0  0  0  0  0  0  0
  -26.1385  -14.1799   20.6611 N   0  0  0  0  0  0  0  0  0  0  0  0
  -26.3698  -12.9585   20.1506 N   0  0  0  0  0  0  0  0  0  0  0  0
  -26.3892  -28.2428   20.4567 N   0  0  0  0  0  0  0  0  0  0  0  0
  -29.1746  -14.7354   19.7047 N   0  0  0  0  0  0  0  0  0  0  0  0
  -28.1888  -16.7573   18.8792 N   0  0  0  0  0  0  0  0  0  0  0  0
  -25.3760  -10.8361   19.8059 N   0  0  0  0  0  0  0  0  0  0  0  0
  -22.1242  -13.1847   21.8809 N   0  0  0  0  0  0  0  0  0  0  0  0
  -29.2690  -28.9478   18.8507 N   0  0  0  0  0  0  0  0  0  0  0  0
  -24.6520  -29.9244   22.8259 N   0  0  0  0  0  0  0  0  0  0  0  0
  -21.0686  -29.4521   22.7664 N   0  3  0  0  0  0  0  0  0  0  0  0
  -26.7024  -19.9323   20.2488 N   0  3  0  0  0  0  0  0  0  0  0  0
  -22.6651  -11.1437   20.9861 O   0  0  0  0  0  0  0  0  0  0  0  0
  -28.7106  -26.8152   19.6009 O   0  0  0  0  0  0  0  0  0  0  0  0
  -26.5539  -30.5466   20.7755 O   0  0  0  0  0  0  0  0  0  0  0  0
  -23.4276  -28.0101   23.2880 O   0  0  0  0  0  0  0  0  0  0  0  0
  -29.7012  -16.7902   20.6035 O   0  0  0  0  0  0  0  0  0  0  0  0
  -22.4561  -18.4819   23.5735 O   0  0  0  0  0  0  0  0  0  0  0  0
  -25.0314  -22.2295   20.0570 O   0  0  0  0  0  0  0  0  0  1  0  0
  -19.6661  -17.5884   28.2449 F   0  0  0  0  0  0  0  0  0  0  0  0
  -20.2937  -16.7603   23.6269 F   0  0  0  0  0  0  0  0  0  0  0  0
  1  2  1  0  0  0  0
  1  5  2  0  0  0  0
  2  6  2  0  0  0  0
  3  8  2  0  0  0  0
  3 15  1  0  0  0  0
  4  9  1  0  0  0  0
  4 15  2  0  0  0  0
  5 17  1  0  0  0  0
  6 19  1  0  0  0  0
  7 10  2  0  0  0  0
  7 18  1  0  0  0  0
  8 21  1  0  0  0  0
  9 21  2  0  0  0  0
 10 22  1  0  0  0  0
 11 12  2  0  0  0  0
 11 23  1  0  0  0  0
 12 24  1  0  0  0  0
 13 20  1  0  0  0  0
 13 22  2  0  0  0  0
 14 24  2  0  0  0  0
 14 25  1  0  0  0  0
 15 26  1  0  0  0  0
 16 26  1  0  0  0  0
 16 27  2  0  0  0  0
 16 28  1  0  0  0  0
 17 19  2  0  0  0  0
 17 33  1  0  0  0  0
 18 20  2  0  0  0  0
 18 34  1  0  0  0  0
 19 45  1  0  0  0  0
 20 35  1  0  0  0  0
 21 76  1  0  0  0  0
 22 77  1  0  0  0  0
 23 25  2  0  0  0  0
 23 76  1  0  0  0  0
 24 78  1  0  0  0  0
 25 79  1  0  0  0  0
 26 60  2  0  0  0  0
 27 61  1  0  0  0  0
 27 65  1  0  0  0  0
 28 66  1  0  0  0  0
 28 71  2  0  0  0  0
 29 46  1  0  0  0  0
 29 67  1  0  0  0  0
 29 72  2  0  0  0  0
 30 57  1  0  0  0  0
 30 62  1  0  0  0  0
 30 73  2  0  0  0  0
 31 58  1  0  0  0  0
 31 68  1  0  0  0  0
 31 74  2  0  0  0  0
 32 63  1  0  0  0  0
 32 64  1  0  0  0  0
 32 75  2  0  0  0  0
 33 36  1  0  0  0  0
 34 46  1  0  0  0  0
 35 62  1  0  0  0  0
 36 39  1  0  0  0  0
 37 40  1  0  0  0  0
 37 42  1  0  0  0  0
 38 41  1  0  0  0  0
 38 43  1  0  0  0  0
 39 45  1  0  0  0  0
 40 47  1  0  0  0  0
 41 48  1  0  0  0  0
 42 63  1  0  0  0  0
 43 64  1  0  0  0  0
 44 47  1  0  0  0  0
 44 63  1  0  0  0  0
 45 67  1  0  0  0  0
 46 62  1  0  0  0  0
 47 61  1  0  0  0  0
 48 54  1  0  0  0  0
 48 64  1  0  0  0  0
 49 58  1  0  0  0  0
 50 59  1  0  0  0  0
 51 59  1  0  0  0  0
 52 59  1  0  0  0  0
 53 69  1  0  0  0  0
 54 70  1  0  0  0  0
 55 56  1  0  0  0  0
 55 70  1  0  0  0  0
 56 77  1  0  0  0  0
 57 59  1  0  0  0  0
 57 68  1  0  0  0  0
 58 69  1  0  0  0  0
 60 61  1  0  0  0  0
M  CHG  2  69   1  70   1
M  ISO  4  32 100  56 101  64 100  77 101
M  END
> <Batch ID>
0192

> <Smiles>
CNC(C)C(=O)NC(C(=O)N1Cc2cc([101O:1][101CH2:1]CNCC3CCC[100N:0]3[100C:0](=O)N3CCCC(n4nc(-c5ccc(Oc6ccc(F)cc6F)cc5)c(C(N)=O)c4N)C3)ccc2CC1C(=O)NC1CCCc2ccccc21)C(C)(C)C

> <Shape>
0.200

> <Color>
0.098

> <Negative vol penalty>
0.000

$$$$

  -OEChem-04052323293D

 80 89  0     1  0  0  0  0  0999 V2000
  -30.8047  -35.7424   19.8955 C   0  0  0  0  0  0  0  0  0  0  0  0
  -30.5778  -34.4253   19.5093 C   0  0  0  0  0  0  0  0  0  0  0  0
  -22.6890  -10.0368   20.4392 C   0  0  0  0  0  0  0  0  0  0  0  0
  -24.2001   -9.3678   22.2017 C   0  0  0  0  0  0  0  0  0  0  0  0
  -30.3805  -36.1832   21.1484 C   0  0  0  0  0  0  0  0  0  0  0  0
  -29.9275  -33.5479   20.3763 C   0  0  0  0  0  0  0  0  0  0  0  0
  -26.0929  -29.0252   18.8443 C   0  0  0  0  0  0  0  0  0  0  0  0
  -22.2235   -8.7257   20.3406 C   0  0  0  0  0  0  0  0  0  0  0  0
  -23.7345   -8.0566   22.1031 C   0  0  0  0  0  0  0  0  0  0  0  0
  -26.2752  -27.6511   18.6952 C   0  0  0  0  0  0  0  0  0  0  0  0
  -21.0438   -6.2870   23.1273 C   0  0  0  0  0  0  0  0  0  0  0  0
  -20.7573   -5.6118   24.3136 C   0  0  0  0  0  0  0  0  0  0  0  0
  -25.4893  -27.3083   20.9500 C   0  0  0  0  0  0  0  0  0  0  0  0
  -22.3996   -3.9307   23.7534 C   0  0  0  0  0  0  0  0  0  0  0  0
  -27.8529  -22.6978   18.2132 C   0  0  0  0  0  0  0  0  0  0  0  0
  -23.6774  -10.3579   21.3697 C   0  0  0  0  0  0  0  0  0  0  0  0
  -23.6519  -12.7350   22.2951 C   0  0  0  0  0  0  0  0  0  0  0  0
  -29.7162  -35.3134   22.0274 C   0  0  0  0  0  0  0  0  0  0  0  0
  -25.6170  -29.5531   20.0532 C   0  0  0  0  0  0  0  0  0  0  0  0
  -29.4953  -33.9771   21.6427 C   0  0  0  0  0  0  0  0  0  0  0  0
  -25.2995  -28.6893   21.1111 C   0  0  0  0  0  0  0  0  0  0  0  0
  -22.7462   -7.7356   21.1726 C   0  0  0  0  0  0  0  0  0  0  0  0
  -25.9761  -26.7926   19.7491 C   0  0  0  0  0  0  0  0  0  0  0  0
  -22.0081   -5.7841   22.2539 C   0  0  0  0  0  0  0  0  0  0  0  0
  -21.4352   -4.4336   24.6267 C   0  0  0  0  0  0  0  0  0  0  0  0
  -22.6860   -4.6060   22.5669 C   0  0  0  0  0  0  0  0  0  0  0  0
  -24.1591  -11.7120   21.4716 C   0  0  0  0  0  0  0  0  0  0  0  0
  -26.7482  -23.4946   18.3802 C   0  0  0  0  0  0  0  0  0  0  0  0
  -24.4491  -13.8203   22.0247 C   0  0  0  0  0  0  0  0  0  0  0  0
  -22.5581  -12.7068   23.2215 C   0  0  0  0  0  0  0  0  0  0  0  0
  -26.7746  -31.5492   22.2393 C   0  0  0  0  0  0  0  0  0  0  0  0
  -23.8015  -31.2679   23.5059 C   0  0  0  0  0  0  0  0  0  0  0  0
  -20.9467  -29.4236   23.8151 C   0  0  0  0  0  0  0  0  0  0  0  0
  -26.8340  -17.0948   18.2907 C   0  0  0  0  0  0  0  0  0  0  0  0
  -29.3184  -35.8227   23.3901 C   0  0  0  0  0  0  0  0  0  0  0  0
  -25.4006  -31.0353   20.1889 C   0  0  0  0  0  0  0  0  0  0  0  0
  -24.7666  -29.2039   22.4224 C   0  0  0  0  0  0  0  0  0  0  0  0
  -28.3035  -34.9312   24.1011 C   0  0  0  0  0  0  0  0  0  0  0  0
  -28.7773  -14.1875   19.4674 C   0  0  0  0  0  0  0  0  0  0  0  0
  -28.7199  -33.4669   24.0058 C   0  0  0  0  0  0  0  0  0  0  0  0
  -27.6823  -13.3460   20.1163 C   0  0  0  0  0  0  0  0  0  0  0  0
  -29.0201  -19.9577   17.0414 C   0  0  0  0  0  0  0  0  0  0  0  0
  -28.2622  -14.9631   18.2556 C   0  0  0  0  0  0  0  0  0  0  0  0
  -25.9713  -14.9620   19.2020 C   0  0  0  0  0  0  0  0  0  0  0  0
  -28.7713  -33.0019   22.5454 C   0  0  1  0  0  0  0  0  0  0  0  0
  -25.3976  -31.5084   21.6393 C   0  0  1  0  0  0  0  0  0  0  0  0
  -26.4589  -14.2127   20.4515 C   0  0  1  0  0  0  0  0  0  0  0  0
  -28.1482  -20.2266   18.2438 C   0  0  2  0  0  0  0  0  0  0  0  0
  -27.7847  -19.1346   17.2577 C   0  0  2  0  0  0  0  0  0  0  0  0
  -18.7071  -29.4350   24.9470 C   0  0  0  0  0  0  0  0  0  0  0  0
  -25.1332  -30.5050   26.1430 C   0  0  0  0  0  0  0  0  0  0  0  0
  -22.9233  -29.6249   26.9241 C   0  0  0  0  0  0  0  0  0  0  0  0
  -23.1752  -32.0441   26.3701 C   0  0  0  0  0  0  0  0  0  0  0  0
  -19.5095  -29.3995   21.2280 C   0  0  0  0  0  0  0  0  0  0  0  0
  -26.6498  -24.9915   18.3498 C   0  0  0  0  0  0  0  0  0  1  0  0
  -23.1470  -30.3410   24.5017 C   0  0  1  0  0  0  0  0  0  0  0  0
  -19.4826  -29.8055   23.6924 C   0  0  2  0  0  0  0  0  0  0  0  0
  -23.6065  -30.6189   25.9608 C   0  0  0  0  0  0  0  0  0  0  0  0
  -25.1980  -12.1117   20.7334 N   0  0  0  0  0  0  0  0  0  0  0  0
  -25.6469  -22.7137   18.5966 N   0  0  0  0  0  0  0  0  0  0  0  0
  -26.0355  -21.4435   18.5702 N   0  0  0  0  0  0  0  0  0  0  0  0
  -27.3586  -21.4361   18.3404 N   0  0  0  0  0  0  0  0  0  0  0  0
  -25.3500  -13.3980   21.0919 N   0  0  0  0  0  0  0  0  0  0  0  0
  -24.5781  -30.6615   22.5084 N   0  0  0  0  0  0  0  0  0  0  0  0
  -27.0535  -15.7362   18.5817 N   0  0  0  0  0  0  0  0  0  0  0  0
  -24.4603  -15.0852   22.4963 N   0  0  0  0  0  0  0  0  0  0  0  0
  -21.8452  -11.5101   23.3774 N   0  0  0  0  0  0  0  0  0  0  0  0
  -27.4360  -32.7474   22.0487 N   0  0  0  0  0  0  0  0  0  0  0  0
  -21.7086  -30.4685   24.2937 N   0  0  0  0  0  0  0  0  0  0  0  0
  -27.8672  -17.7468   17.6272 N   0  0  0  0  0  0  0  0  0  0  0  0
  -18.8606  -29.1072   22.5320 N   0  3  0  0  0  0  0  0  0  0  0  0
  -22.2123  -13.7174   23.8792 O   0  0  0  0  0  0  0  0  0  0  0  0
  -27.2045  -30.5669   22.8326 O   0  0  0  0  0  0  0  0  0  0  0  0
  -23.6243  -32.4846   23.6051 O   0  0  0  0  0  0  0  0  0  0  0  0
  -21.3713  -28.3088   23.5196 O   0  0  0  0  0  0  0  0  0  0  0  0
  -25.7912  -17.6847   18.5942 O   0  0  0  0  0  0  0  0  0  0  0  0
  -22.2920   -6.4561   21.0768 O   0  0  0  0  0  0  0  0  0  0  0  0
  -26.1537  -25.4510   19.6065 O   0  0  0  0  0  0  0  0  0  1  0  0
  -21.1611   -3.7861   25.7668 F   0  0  0  0  0  0  0  0  0  0  0  0
  -23.6144   -4.1186   21.7324 F   0  0  0  0  0  0  0  0  0  0  0  0
  1  2  1  0  0  0  0
  1  5  2  0  0  0  0
  2  6  2  0  0  0  0
  3  8  2  0  0  0  0
  3 16  1  0  0  0  0
  4  9  1  0  0  0  0
  4 16  2  0  0  0  0
  5 18  1  0  0  0  0
  6 20  1  0  0  0  0
  7 10  2  0  0  0  0
  7 19  1  0  0  0  0
  8 22  1  0  0  0  0
  9 22  2  0  0  0  0
 10 23  1  0  0  0  0
 11 12  2  0  0  0  0
 11 24  1  0  0  0  0
 12 25  1  0  0  0  0
 13 21  1  0  0  0  0
 13 23  2  0  0  0  0
 14 25  2  0  0  0  0
 14 26  1  0  0  0  0
 15 28  2  0  0  0  0
 15 62  1  0  0  0  0
 16 27  1  0  0  0  0
 17 27  1  0  0  0  0
 17 29  2  0  0  0  0
 17 30  1  0  0  0  0
 18 20  2  0  0  0  0
 18 35  1  0  0  0  0
 19 21  2  0  0  0  0
 19 36  1  0  0  0  0
 20 45  1  0  0  0  0
 21 37  1  0  0  0  0
 22 77  1  0  0  0  0
 23 78  1  0  0  0  0
 24 26  2  0  0  0  0
 24 77  1  0  0  0  0
 25 79  1  0  0  0  0
 26 80  1  0  0  0  0
 27 59  2  0  0  0  0
 28 55  1  0  0  0  0
 28 60  1  0  0  0  0
 29 63  1  0  0  0  0
 29 66  1  0  0  0  0
 30 67  1  0  0  0  0
 30 72  2  0  0  0  0
 31 46  1  0  0  0  0
 31 68  1  0  0  0  0
 31 73  2  0  0  0  0
 32 56  1  0  0  0  0
 32 64  1  0  0  0  0
 32 74  2  0  0  0  0
 33 57  1  0  0  0  0
 33 69  1  0  0  0  0
 33 75  2  0  0  0  0
 34 65  1  0  0  0  0
 34 70  1  0  0  0  0
 34 76  2  0  0  0  0
 35 38  1  0  0  0  0
 36 46  1  0  0  0  0
 37 64  1  0  0  0  0
 38 40  1  0  0  0  0
 39 41  1  0  0  0  0
 39 43  1  0  0  0  0
 40 45  1  0  0  0  0
 41 47  1  0  0  0  0
 42 48  1  0  0  0  0
 42 49  1  0  0  0  0
 43 65  1  0  0  0  0
 44 47  1  0  0  0  0
 44 65  1  0  0  0  0
 45 68  1  0  0  0  0
 46 64  1  0  0  0  0
 47 63  1  0  0  0  0
 48 49  1  0  0  0  0
 48 62  1  0  0  0  0
 49 70  1  0  0  0  0
 50 57  1  0  0  0  0
 51 58  1  0  0  0  0
 52 58  1  0  0  0  0
 53 58  1  0  0  0  0
 54 71  1  0  0  0  0
 55 78  1  0  0  0  0
 56 58  1  0  0  0  0
 56 69  1  0  0  0  0
 57 71  1  0  0  0  0
 59 63  1  0  0  0  0
 60 61  2  0  0  0  0
 61 62  1  0  0  0  0
M  CHG  1  71   1
M  ISO  4  34 100  55 101  70 100  78 101
M  END
> <Batch ID>
0192

> <Smiles>
CNC(C)C(=O)NC(C(=O)N1Cc2cc([101O:1][101CH2:1]c3cn(C4CC4[100NH:0][100C:0](=O)N4CCCC(n5nc(-c6ccc(Oc7ccc(F)cc7F)cc6)c(C(N)=O)c5N)C4)nn3)ccc2CC1C(=O)NC1CCCc2ccccc21)C(C)(C)C

> <Shape>
0.259

> <Color>
0.113

> <Negative vol penalty>
0.000

$$$$

  -OEChem-04052323293D

 86 95  0     1  0  0  0  0  0999 V2000
  -21.7773  -14.6266   25.1412 C   0  0  0  0  0  0  0  0  0  0  0  0
  -22.4949  -15.6217   24.4852 C   0  0  0  0  0  0  0  0  0  0  0  0
  -24.1906   -9.6728   21.3279 C   0  0  0  0  0  0  0  0  0  0  0  0
  -24.8147  -10.6695   23.4384 C   0  0  0  0  0  0  0  0  0  0  0  0
  -20.6471  -14.9600   25.8865 C   0  0  0  0  0  0  0  0  0  0  0  0
  -22.0821  -16.9507   24.5733 C   0  0  0  0  0  0  0  0  0  0  0  0
  -25.9302  -20.1273   25.4372 C   0  0  0  0  0  0  0  0  0  0  0  0
  -27.5132  -17.7162   20.3460 C   0  0  0  0  0  0  0  0  0  0  0  0
  -23.7859   -8.5160   21.9938 C   0  0  0  0  0  0  0  0  0  0  0  0
  -24.4099   -9.5127   24.1044 C   0  0  0  0  0  0  0  0  0  0  0  0
  -26.7389  -20.4581   24.3508 C   0  0  0  0  0  0  0  0  0  0  0  0
  -22.2525   -5.4379   23.1725 C   0  0  0  0  0  0  0  0  0  0  0  0
  -21.0349   -4.8681   22.8008 C   0  0  0  0  0  0  0  0  0  0  0  0
  -28.1403  -16.8921   21.2739 C   0  0  0  0  0  0  0  0  0  0  0  0
  -25.5540  -22.5457   24.1121 C   0  0  0  0  0  0  0  0  0  0  0  0
  -19.8935   -6.9077   23.4127 C   0  0  0  0  0  0  0  0  0  0  0  0
  -24.7051  -10.7496   22.0501 C   0  0  0  0  0  0  0  0  0  0  0  0
  -24.3371  -13.0728   21.0628 C   0  0  0  0  0  0  0  0  0  0  0  0
  -20.2258  -16.2949   25.9917 C   0  0  0  0  0  0  0  0  0  0  0  0
  -24.9184  -20.9999   25.8631 C   0  0  0  0  0  0  0  0  0  0  0  0
  -20.9444  -17.3021   25.3196 C   0  0  0  0  0  0  0  0  0  0  0  0
  -24.7355  -22.2248   25.2057 C   0  0  0  0  0  0  0  0  0  0  0  0
  -28.2670  -18.3433   19.3601 C   0  0  0  0  0  0  0  0  0  0  0  0
  -23.8955   -8.4359   23.3820 C   0  0  0  0  0  0  0  0  0  0  0  0
  -26.5491  -21.6661   23.6863 C   0  0  0  0  0  0  0  0  0  0  0  0
  -22.2907   -6.7427   23.6644 C   0  0  0  0  0  0  0  0  0  0  0  0
  -19.8554   -5.6029   22.9209 C   0  0  0  0  0  0  0  0  0  0  0  0
  -21.1112   -7.4775   23.7844 C   0  0  0  0  0  0  0  0  0  0  0  0
  -25.1239  -11.9446   21.3627 C   0  0  0  0  0  0  0  0  0  0  0  0
  -29.5125  -16.7291   21.1736 C   0  0  0  0  0  0  0  0  0  0  0  0
  -29.6336  -18.1155   19.3457 C   0  0  0  0  0  0  0  0  0  0  0  0
  -25.1933  -13.9244   20.4085 C   0  0  0  0  0  0  0  0  0  0  0  0
  -22.9558  -13.3282   21.3502 C   0  0  0  0  0  0  0  0  0  0  0  0
  -21.7522  -20.8257   26.0838 C   0  0  0  0  0  0  0  0  0  0  0  0
  -22.0838  -23.7122   27.5262 C   0  0  0  0  0  0  0  0  0  0  0  0
  -23.9522  -26.5342   27.9650 C   0  0  0  0  0  0  0  0  0  0  0  0
  -31.3559  -13.9856   20.5527 C   0  0  0  0  0  0  0  0  0  0  0  0
  -18.9707  -16.6008   26.7700 C   0  0  0  0  0  0  0  0  0  0  0  0
  -24.0720  -20.6403   27.0534 C   0  0  0  0  0  0  0  0  0  0  0  0
  -23.6765  -23.2055   25.6363 C   0  0  0  0  0  0  0  0  0  0  0  0
  -18.8161  -18.0786   27.1201 C   0  0  0  0  0  0  0  0  0  0  0  0
  -29.0638  -13.9592   17.6415 C   0  0  0  0  0  0  0  0  0  0  0  0
  -19.1015  -18.9490   25.9004 C   0  0  0  0  0  0  0  0  0  0  0  0
  -27.7589  -13.4455   18.2422 C   0  0  0  0  0  0  0  0  0  0  0  0
  -31.5632  -16.4869   22.8483 C   0  0  0  0  0  0  0  0  0  0  0  0
  -30.2763  -13.4502   18.4126 C   0  0  0  0  0  0  0  0  0  0  0  0
  -32.4070  -15.2732   22.4764 C   0  0  0  0  0  0  0  0  0  0  0  0
  -28.9283  -13.2697   20.4774 C   0  0  0  0  0  0  0  0  0  0  0  0
  -20.5424  -18.7581   25.4115 C   0  0  1  0  0  0  0  0  0  0  0  0
  -30.3482  -15.8178   22.1670 C   0  0  2  0  0  0  0  0  0  0  0  0
  -22.7349  -21.3743   27.0794 C   0  0  1  0  0  0  0  0  0  0  0  0
  -27.6832  -13.7867   19.7379 C   0  0  2  0  0  0  0  0  0  0  0  0
  -30.4931  -18.7630   18.3097 C   0  0  0  0  0  0  0  0  0  0  0  0
  -23.9457  -28.7326   29.1750 C   0  0  0  0  0  0  0  0  0  0  0  0
  -20.0574  -24.8054   25.5241 C   0  0  0  0  0  0  0  0  0  0  0  0
  -20.7970  -27.1159   26.1430 C   0  0  0  0  0  0  0  0  0  0  0  0
  -19.7636  -25.6359   27.8647 C   0  0  0  0  0  0  0  0  0  0  0  0
  -26.4200  -25.8555   29.4510 C   0  0  0  0  0  0  0  0  0  0  0  0
  -27.5955  -19.2342   18.3554 C   0  0  0  0  0  0  0  0  0  0  0  0
  -27.8090  -20.7227   18.6112 C   0  0  0  0  0  0  0  0  0  0  0  0
  -27.4287  -22.5372   20.2851 C   0  0  0  0  0  0  0  0  0  0  0  0
  -26.7577  -22.8168   21.6154 C   0  0  0  0  0  0  0  0  0  1  0  0
  -22.1082  -25.1463   27.0552 C   0  0  1  0  0  0  0  0  0  0  0  0
  -24.3781  -27.2753   29.2195 C   0  0  2  0  0  0  0  0  0  0  0  0
  -20.7003  -25.6568   26.6372 C   0  0  0  0  0  0  0  0  0  0  0  0
  -26.3831  -12.0654   20.9339 N   0  0  0  0  0  0  0  0  0  0  0  0
  -30.2781  -17.3217   20.2301 N   0  0  0  0  0  0  0  0  0  0  0  0
  -26.3940  -13.2795   20.3578 N   0  0  0  0  0  0  0  0  0  0  0  0
  -22.8703  -22.8056   26.8015 N   0  0  0  0  0  0  0  0  0  0  0  0
  -30.1737  -13.7286   19.8476 N   0  0  0  0  0  0  0  0  0  0  0  0
  -31.3033  -14.8442   21.6265 N   0  0  0  0  0  0  0  0  0  0  0  0
  -25.0286  -15.1545   19.8771 N   0  0  0  0  0  0  0  0  0  0  0  0
  -22.2222  -12.3464   22.0299 N   0  0  0  0  0  0  0  0  0  0  0  0
  -21.4638  -19.4856   26.2578 N   0  0  0  0  0  0  0  0  0  0  0  0
  -22.7296  -25.9173   28.1265 N   0  0  0  0  0  0  0  0  0  0  0  0
  -25.8600  -27.2292   29.3705 N   0  3  0  0  0  0  0  0  0  0  0  0
  -27.2181  -21.1137   19.9196 N   0  3  0  0  0  0  0  0  0  0  0  0
  -22.3847  -14.3886   20.9996 O   0  0  0  0  0  0  0  0  0  0  0  0
  -21.2888  -21.5641   25.2225 O   0  0  0  0  0  0  0  0  0  0  0  0
  -21.3980  -23.4090   28.5057 O   0  0  0  0  0  0  0  0  0  0  0  0
  -24.6340  -26.5084   26.9427 O   0  0  0  0  0  0  0  0  0  0  0  0
  -32.4364  -13.4830   20.2150 O   0  0  0  0  0  0  0  0  0  0  0  0
  -23.5004   -7.3073   24.0322 O   0  0  0  0  0  0  0  0  0  0  0  0
  -27.3366  -21.9912   22.6252 O   0  0  0  0  0  0  0  0  0  1  0  0
  -18.6863   -5.0561   22.5624 F   0  0  0  0  0  0  0  0  0  0  0  0
  -21.1417   -8.7318   24.2552 F   0  0  0  0  0  0  0  0  0  0  0  0
  1  2  1  0  0  0  0
  1  5  2  0  0  0  0
  2  6  2  0  0  0  0
  3  9  2  0  0  0  0
  3 17  1  0  0  0  0
  4 10  1  0  0  0  0
  4 17  2  0  0  0  0
  5 19  1  0  0  0  0
  6 21  1  0  0  0  0
  7 11  2  0  0  0  0
  7 20  1  0  0  0  0
  8 14  2  0  0  0  0
  8 23  1  0  0  0  0
  9 24  1  0  0  0  0
 10 24  2  0  0  0  0
 11 25  1  0  0  0  0
 12 13  2  0  0  0  0
 12 26  1  0  0  0  0
 13 27  1  0  0  0  0
 14 30  1  0  0  0  0
 15 22  1  0  0  0  0
 15 25  2  0  0  0  0
 16 27  2  0  0  0  0
 16 28  1  0  0  0  0
 17 29  1  0  0  0  0
 18 29  1  0  0  0  0
 18 32  2  0  0  0  0
 18 33  1  0  0  0  0
 19 21  2  0  0  0  0
 19 38  1  0  0  0  0
 20 22  2  0  0  0  0
 20 39  1  0  0  0  0
 21 49  1  0  0  0  0
 22 40  1  0  0  0  0
 23 31  2  0  0  0  0
 23 59  1  0  0  0  0
 24 83  1  0  0  0  0
 25 84  1  0  0  0  0
 26 28  2  0  0  0  0
 26 83  1  0  0  0  0
 27 85  1  0  0  0  0
 28 86  1  0  0  0  0
 29 66  2  0  0  0  0
 30 50  1  0  0  0  0
 30 67  2  0  0  0  0
 31 53  1  0  0  0  0
 31 67  1  0  0  0  0
 32 68  1  0  0  0  0
 32 72  1  0  0  0  0
 33 73  1  0  0  0  0
 33 78  2  0  0  0  0
 34 51  1  0  0  0  0
 34 74  1  0  0  0  0
 34 79  2  0  0  0  0
 35 63  1  0  0  0  0
 35 69  1  0  0  0  0
 35 80  2  0  0  0  0
 36 64  1  0  0  0  0
 36 75  1  0  0  0  0
 36 81  2  0  0  0  0
 37 70  1  0  0  0  0
 37 71  1  0  0  0  0
 37 82  2  0  0  0  0
 38 41  1  0  0  0  0
 39 51  1  0  0  0  0
 40 69  1  0  0  0  0
 41 43  1  0  0  0  0
 42 44  1  0  0  0  0
 42 46  1  0  0  0  0
 43 49  1  0  0  0  0
 44 52  1  0  0  0  0
 45 47  1  0  0  0  0
 45 50  1  0  0  0  0
 46 70  1  0  0  0  0
 47 71  1  0  0  0  0
 48 52  1  0  0  0  0
 48 70  1  0  0  0  0
 49 74  1  0  0  0  0
 50 71  1  0  0  0  0
 51 69  1  0  0  0  0
 52 68  1  0  0  0  0
 54 64  1  0  0  0  0
 55 65  1  0  0  0  0
 56 65  1  0  0  0  0
 57 65  1  0  0  0  0
 58 76  1  0  0  0  0
 59 60  1  0  0  0  0
 60 77  1  0  0  0  0
 61 62  1  0  0  0  0
 61 77  1  0  0  0  0
 62 84  1  0  0  0  0
 63 65  1  0  0  0  0
 63 75  1  0  0  0  0
 64 76  1  0  0  0  0
 66 68  1  0  0  0  0
M  CHG  2  76   1  77   1
M  ISO  4  37 100  62 101  71 100  84 101
M  END
> <Batch ID>
0192

> <Smiles>
CNC(C)C(=O)NC(C(=O)N1Cc2cc([101O:1][101CH2:1]CNCCc3ccc(C4CC[100N:0]4[100C:0](=O)N4CCCC(n5nc(-c6ccc(Oc7ccc(F)cc7F)cc6)c(C(N)=O)c5N)C4)nc3C)ccc2CC1C(=O)NC1CCCc2ccccc21)C(C)(C)C

> <Shape>
0.190

> <Color>
0.119

> <Negative vol penalty>
0.000

$$$$

  -OEChem-04052323293D

 84 93  0     1  0  0  0  0  0999 V2000
  -21.0945  -28.4918   25.9568 C   0  0  0  0  0  0  0  0  0  0  0  0
  -22.1542  -27.9235   25.2571 C   0  0  0  0  0  0  0  0  0  0  0  0
  -24.5120  -17.1818   20.7597 C   0  0  0  0  0  0  0  0  0  0  0  0
  -25.3197  -15.4235   19.3130 C   0  0  0  0  0  0  0  0  0  0  0  0
  -19.8397  -28.5934   25.3575 C   0  0  0  0  0  0  0  0  0  0  0  0
  -21.9594  -27.4556   23.9580 C   0  0  0  0  0  0  0  0  0  0  0  0
  -25.6813  -28.8409   20.8157 C   0  0  0  0  0  0  0  0  0  0  0  0
  -23.3711  -16.4290   21.0378 C   0  0  0  0  0  0  0  0  0  0  0  0
  -24.1789  -14.6706   19.5911 C   0  0  0  0  0  0  0  0  0  0  0  0
  -26.8749  -28.1240   20.8873 C   0  0  0  0  0  0  0  0  0  0  0  0
  -23.0439  -12.7029   22.0932 C   0  0  0  0  0  0  0  0  0  0  0  0
  -23.2167  -11.3484   22.3776 C   0  0  0  0  0  0  0  0  0  0  0  0
  -26.2164  -26.8460   18.9502 C   0  0  0  0  0  0  0  0  0  0  0  0
  -21.8248  -10.7742   20.4882 C   0  0  0  0  0  0  0  0  0  0  0  0
  -25.4863  -16.6791   19.8972 C   0  0  0  0  0  0  0  0  0  0  0  0
  -27.8857  -17.4409   20.3096 C   0  0  0  0  0  0  0  0  0  0  0  0
  -19.6318  -28.1353   24.0469 C   0  0  0  0  0  0  0  0  0  0  0  0
  -24.7398  -28.5578   19.8157 C   0  0  0  0  0  0  0  0  0  0  0  0
  -20.7004  -27.5500   23.3412 C   0  0  0  0  0  0  0  0  0  0  0  0
  -25.0127  -27.5625   18.8666 C   0  0  0  0  0  0  0  0  0  0  0  0
  -23.2046  -15.1734   20.4535 C   0  0  0  0  0  0  0  0  0  0  0  0
  -27.1413  -27.1244   19.9562 C   0  0  0  0  0  0  0  0  0  0  0  0
  -22.2615  -13.0932   21.0063 C   0  0  0  0  0  0  0  0  0  0  0  0
  -22.6071  -10.3840   21.5751 C   0  0  0  0  0  0  0  0  0  0  0  0
  -21.6520  -12.1288   20.2038 C   0  0  0  0  0  0  0  0  0  0  0  0
  -26.6647  -17.4566   19.6092 C   0  0  0  0  0  0  0  0  0  0  0  0
  -28.6742  -18.3484   19.6455 C   0  0  0  0  0  0  0  0  0  0  0  0
  -31.8271  -24.3814   21.8442 C   0  0  0  0  0  0  0  0  0  0  0  0
  -30.4346  -25.9054   20.9639 C   0  0  0  0  0  0  0  0  0  0  0  0
  -32.2186  -25.2076   19.7946 C   0  0  0  0  0  0  0  0  0  0  0  0
  -28.2725  -16.6745   21.4579 C   0  0  0  0  0  0  0  0  0  0  0  0
  -21.7311  -27.5328   19.7929 C   0  0  0  0  0  0  0  0  0  0  0  0
  -21.9730  -28.0977   16.6078 C   0  0  0  0  0  0  0  0  0  0  0  0
  -23.9806  -28.4218   13.8671 C   0  0  0  0  0  0  0  0  0  0  0  0
  -29.2399  -23.3641   17.4375 C   0  0  0  0  0  0  0  0  0  0  0  0
  -18.2461  -28.2235   23.4583 C   0  0  0  0  0  0  0  0  0  0  0  0
  -23.4689  -29.3584   19.7361 C   0  0  0  0  0  0  0  0  0  0  0  0
  -24.0439  -27.2337   17.7612 C   0  0  0  0  0  0  0  0  0  0  0  0
  -18.2156  -28.0448   21.9426 C   0  0  0  0  0  0  0  0  0  0  0  0
  -28.0274  -20.6753   15.2211 C   0  0  0  0  0  0  0  0  0  0  0  0
  -19.0666  -26.8483   21.5290 C   0  0  0  0  0  0  0  0  0  0  0  0
  -27.6161  -19.6175   16.2409 C   0  0  0  0  0  0  0  0  0  0  0  0
  -30.9965  -26.1839   15.5545 C   0  0  0  0  0  0  0  0  0  0  0  0
  -27.7944  -22.0935   15.7400 C   0  0  0  0  0  0  0  0  0  0  0  0
  -28.0329  -21.3005   18.0764 C   0  0  0  0  0  0  0  0  0  0  0  0
  -20.5347  -27.0535   21.9212 C   0  0  1  0  0  0  0  0  0  0  0  0
  -22.3540  -28.6364   18.9856 C   0  0  1  0  0  0  0  0  0  0  0  0
  -31.8115  -25.3946   16.5396 C   0  0  2  0  0  0  0  0  0  0  0  0
  -28.3054  -19.8686   17.5909 C   0  0  1  0  0  0  0  0  0  0  0  0
  -30.3132  -25.4668   16.6901 C   0  0  2  0  0  0  0  0  0  0  0  0
  -32.2110  -23.4802   22.9678 C   0  0  0  0  0  0  0  0  0  0  0  0
  -23.8867  -28.8453   11.3955 C   0  0  0  0  0  0  0  0  0  0  0  0
  -21.0307  -25.2312   16.1548 C   0  0  0  0  0  0  0  0  0  0  0  0
  -21.8554  -25.4064   13.7974 C   0  0  0  0  0  0  0  0  0  0  0  0
  -20.0361  -26.9149   14.5959 C   0  0  0  0  0  0  0  0  0  0  0  0
  -25.5842  -30.8971   14.1130 C   0  0  0  0  0  0  0  0  0  0  0  0
  -29.2084  -26.7630   21.0753 C   0  0  0  0  0  0  0  0  0  1  0  0
  -32.6975  -26.0955   17.5125 C   0  0  0  0  0  0  0  0  0  0  0  0
  -22.4012  -27.2878   15.4079 C   0  0  1  0  0  0  0  0  0  0  0  0
  -24.0299  -29.4731   12.7732 C   0  0  2  0  0  0  0  0  0  0  0  0
  -21.3485  -26.2147   15.0109 C   0  0  0  0  0  0  0  0  0  0  0  0
  -26.6720  -18.3068   18.5791 N   0  0  0  0  0  0  0  0  0  0  0  0
  -30.7180  -25.1191   22.0147 N   0  0  0  0  0  0  0  0  0  0  0  0
  -32.6254  -24.3730   20.7645 N   0  0  0  0  0  0  0  0  0  0  0  0
  -31.1367  -26.0024   19.8235 N   0  0  0  0  0  0  0  0  0  0  0  0
  -27.9073  -18.8339   18.6274 N   0  0  0  0  0  0  0  0  0  0  0  0
  -22.8125  -28.0400   17.7293 N   0  0  0  0  0  0  0  0  0  0  0  0
  -28.4082  -22.2936   17.0623 N   0  0  0  0  0  0  0  0  0  0  0  0
  -29.9418  -18.7706   19.8389 N   0  0  0  0  0  0  0  0  0  0  0  0
  -27.3402  -15.7887   22.0151 N   0  0  0  0  0  0  0  0  0  0  0  0
  -33.0086  -25.2543   18.6256 N   0  0  0  0  0  0  0  0  0  0  0  0
  -21.1855  -27.9515   20.9914 N   0  0  0  0  0  0  0  0  0  0  0  0
  -22.7016  -28.2493   14.3526 N   0  0  0  0  0  0  0  0  0  0  0  0
  -29.4869  -24.3135   16.4523 N   0  0  0  0  0  0  0  0  0  0  0  0
  -25.3239  -30.2107   12.8215 N   0  3  0  0  0  0  0  0  0  0  0  0
  -29.4058  -16.7842   21.9845 O   0  0  0  0  0  0  0  0  0  0  0  0
  -21.7431  -26.3866   19.3597 O   0  0  0  0  0  0  0  0  0  0  0  0
  -20.9358  -28.7628   16.5496 O   0  0  0  0  0  0  0  0  0  0  0  0
  -24.9765  -27.8117   14.2500 O   0  0  0  0  0  0  0  0  0  0  0  0
  -29.7238  -23.4714   18.5698 O   0  0  0  0  0  0  0  0  0  0  0  0
  -22.0916  -14.4384   20.7248 O   0  0  0  0  0  0  0  0  0  0  0  0
  -28.3053  -26.4226   20.0242 O   0  0  0  0  0  0  0  0  0  1  0  0
  -22.7744   -9.0832   21.8474 F   0  0  0  0  0  0  0  0  0  0  0  0
  -20.9002  -12.4975   19.1576 F   0  0  0  0  0  0  0  0  0  0  0  0
  1  2  1  0  0  0  0
  1  5  2  0  0  0  0
  2  6  2  0  0  0  0
  3  8  2  0  0  0  0
  3 15  1  0  0  0  0
  4  9  1  0  0  0  0
  4 15  2  0  0  0  0
  5 17  1  0  0  0  0
  6 19  1  0  0  0  0
  7 10  2  0  0  0  0
  7 18  1  0  0  0  0
  8 21  1  0  0  0  0
  9 21  2  0  0  0  0
 10 22  1  0  0  0  0
 11 12  2  0  0  0  0
 11 23  1  0  0  0  0
 12 24  1  0  0  0  0
 13 20  1  0  0  0  0
 13 22  2  0  0  0  0
 14 24  2  0  0  0  0
 14 25  1  0  0  0  0
 15 26  1  0  0  0  0
 16 26  1  0  0  0  0
 16 27  2  0  0  0  0
 16 31  1  0  0  0  0
 17 19  2  0  0  0  0
 17 36  1  0  0  0  0
 18 20  2  0  0  0  0
 18 37  1  0  0  0  0
 19 46  1  0  0  0  0
 20 38  1  0  0  0  0
 21 81  1  0  0  0  0
 22 82  1  0  0  0  0
 23 25  2  0  0  0  0
 23 81  1  0  0  0  0
 24 83  1  0  0  0  0
 25 84  1  0  0  0  0
 26 62  2  0  0  0  0
 27 66  1  0  0  0  0
 27 69  1  0  0  0  0
 28 51  1  0  0  0  0
 28 63  2  0  0  0  0
 28 64  1  0  0  0  0
 29 57  1  0  0  0  0
 29 63  1  0  0  0  0
 29 65  2  0  0  0  0
 30 64  2  0  0  0  0
 30 65  1  0  0  0  0
 30 71  1  0  0  0  0
 31 70  1  0  0  0  0
 31 76  2  0  0  0  0
 32 47  1  0  0  0  0
 32 72  1  0  0  0  0
 32 77  2  0  0  0  0
 33 59  1  0  0  0  0
 33 67  1  0  0  0  0
 33 78  2  0  0  0  0
 34 60  1  0  0  0  0
 34 73  1  0  0  0  0
 34 79  2  0  0  0  0
 35 68  1  0  0  0  0
 35 74  1  0  0  0  0
 35 80  2  0  0  0  0
 36 39  1  0  0  0  0
 37 47  1  0  0  0  0
 38 67  1  0  0  0  0
 39 41  1  0  0  0  0
 40 42  1  0  0  0  0
 40 44  1  0  0  0  0
 41 46  1  0  0  0  0
 42 49  1  0  0  0  0
 43 48  1  0  0  0  0
 43 50  1  0  0  0  0
 44 68  1  0  0  0  0
 45 49  1  0  0  0  0
 45 68  1  0  0  0  0
 46 72  1  0  0  0  0
 47 67  1  0  0  0  0
 48 50  1  0  0  0  0
 48 58  1  0  0  0  0
 49 66  1  0  0  0  0
 50 74  1  0  0  0  0
 52 60  1  0  0  0  0
 53 61  1  0  0  0  0
 54 61  1  0  0  0  0
 55 61  1  0  0  0  0
 56 75  1  0  0  0  0
 57 82  1  0  0  0  0
 58 71  1  0  0  0  0
 59 61  1  0  0  0  0
 59 73  1  0  0  0  0
 60 75  1  0  0  0  0
 62 66  1  0  0  0  0
M  CHG  1  75   1
M  ISO  4  35 100  57 101  74 100  82 101
M  END
> <Batch ID>
0192

> <Smiles>
CNC(C)C(=O)NC(C(=O)N1Cc2cc([101O:1][101CH2:1]c3nc(C)nc(NCC4CC4[100NH:0][100C:0](=O)N4CCCC(n5nc(-c6ccc(Oc7ccc(F)cc7F)cc6)c(C(N)=O)c5N)C4)n3)ccc2CC1C(=O)NC1CCCc2ccccc21)C(C)(C)C

> <Shape>
0.217

> <Color>
0.090

> <Negative vol penalty>
0.000

$$$$

  -OEChem-04052323293D

 84 93  0     1  0  0  0  0  0999 V2000
  -23.4836  -34.1939   25.6343 C   0  0  0  0  0  0  0  0  0  0  0  0
  -22.8563  -33.4855   24.6145 C   0  0  0  0  0  0  0  0  0  0  0  0
  -27.0118  -13.0005   20.8408 C   0  0  0  0  0  0  0  0  0  0  0  0
  -27.3864  -12.6982   18.4732 C   0  0  0  0  0  0  0  0  0  0  0  0
  -24.8403  -34.5000   25.5365 C   0  0  0  0  0  0  0  0  0  0  0  0
  -23.5852  -33.0838   23.4956 C   0  0  0  0  0  0  0  0  0  0  0  0
  -22.8275  -27.9388   20.2612 C   0  0  0  0  0  0  0  0  0  0  0  0
  -26.3600  -11.7685   20.8950 C   0  0  0  0  0  0  0  0  0  0  0  0
  -26.7346  -11.4661   18.5274 C   0  0  0  0  0  0  0  0  0  0  0  0
  -22.1605  -27.6717   19.0664 C   0  0  0  0  0  0  0  0  0  0  0  0
  -24.2809   -8.8659   21.5849 C   0  0  0  0  0  0  0  0  0  0  0  0
  -23.0829   -8.7951   22.2957 C   0  0  0  0  0  0  0  0  0  0  0  0
  -24.2370  -27.9078   17.8615 C   0  0  0  0  0  0  0  0  0  0  0  0
  -22.1146  -10.4530   20.8290 C   0  0  0  0  0  0  0  0  0  0  0  0
  -21.0055  -22.9278   16.5425 C   0  0  0  0  0  0  0  0  0  0  0  0
  -27.5250  -13.4654   19.6298 C   0  0  0  0  0  0  0  0  0  0  0  0
  -29.5718  -14.9825   19.7590 C   0  0  0  0  0  0  0  0  0  0  0  0
  -25.5884  -34.0935   24.4204 C   0  0  0  0  0  0  0  0  0  0  0  0
  -24.2046  -28.2037   20.2638 C   0  0  0  0  0  0  0  0  0  0  0  0
  -24.9528  -33.3859   23.3822 C   0  0  0  0  0  0  0  0  0  0  0  0
  -24.9195  -28.1755   19.0579 C   0  0  0  0  0  0  0  0  0  0  0  0
  -26.2214  -11.0013   19.7383 C   0  0  0  0  0  0  0  0  0  0  0  0
  -22.8647  -27.6589   17.8660 C   0  0  0  0  0  0  0  0  0  0  0  0
  -24.3958   -9.7304   20.4961 C   0  0  0  0  0  0  0  0  0  0  0  0
  -21.9997   -9.5886   21.9178 C   0  0  0  0  0  0  0  0  0  0  0  0
  -23.3127  -10.5238   20.1182 C   0  0  0  0  0  0  0  0  0  0  0  0
  -28.1979  -14.7382   19.5730 C   0  0  0  0  0  0  0  0  0  0  0  0
  -19.9794  -23.8729   16.7312 C   0  0  0  0  0  0  0  0  0  0  0  0
  -21.9380  -23.5819   15.7751 C   0  0  0  0  0  0  0  0  0  0  0  0
  -29.7028  -16.3410   19.6054 C   0  0  0  0  0  0  0  0  0  0  0  0
  -30.6345  -14.0635   20.0449 C   0  0  0  0  0  0  0  0  0  0  0  0
  -26.0100  -30.6849   21.0932 C   0  0  0  0  0  0  0  0  0  0  0  0
  -28.4393  -28.6227   20.4862 C   0  0  0  0  0  0  0  0  0  0  0  0
  -29.5304  -25.8310   18.8543 C   0  0  0  0  0  0  0  0  0  0  0  0
  -26.4026  -20.2194   16.5768 C   0  0  0  0  0  0  0  0  0  0  0  0
  -27.0415  -34.4887   24.3373 C   0  0  0  0  0  0  0  0  0  0  0  0
  -24.9143  -28.4637   21.5642 C   0  0  0  0  0  0  0  0  0  0  0  0
  -26.4026  -28.4334   19.0091 C   0  0  0  0  0  0  0  0  0  0  0  0
  -27.8281  -33.7013   23.2925 C   0  0  0  0  0  0  0  0  0  0  0  0
  -27.3099  -20.4283   20.1218 C   0  0  0  0  0  0  0  0  0  0  0  0
  -27.0543  -33.6354   21.9796 C   0  0  0  0  0  0  0  0  0  0  0  0
  -27.7125  -18.9850   20.4062 C   0  0  0  0  0  0  0  0  0  0  0  0
  -26.1761  -20.5253   19.1002 C   0  0  0  0  0  0  0  0  0  0  0  0
  -26.8567  -18.3492   18.1242 C   0  0  0  0  0  0  0  0  0  0  0  0
  -25.2141  -21.8327   14.9924 C   0  0  0  0  0  0  0  0  0  0  0  0
  -24.2443  -21.6727   16.8794 C   0  0  0  0  0  0  0  0  0  0  0  0
  -25.7153  -32.9113   22.1642 C   0  0  1  0  0  0  0  0  0  0  0  0
  -26.2233  -29.2271   21.3883 C   0  0  1  0  0  0  0  0  0  0  0  0
  -28.0394  -18.2498   19.0979 C   0  0  2  0  0  0  0  0  0  0  0  0
  -23.7510  -21.9001   15.4441 C   0  0  0  0  0  0  0  0  0  0  0  0
  -18.7261  -23.6979   17.4841 C   0  0  0  0  0  0  0  0  0  0  0  0
  -31.0863  -23.9724   18.2047 C   0  0  0  0  0  0  0  0  0  0  0  0
  -20.9768  -26.7641   14.1177 C   0  0  0  0  0  0  0  0  0  0  0  0
  -29.5988  -30.7355   18.6150 C   0  0  0  0  0  0  0  0  0  0  0  0
  -31.0548  -28.9570   17.6223 C   0  0  0  0  0  0  0  0  0  0  0  0
  -31.2888  -29.5567   20.0323 C   0  0  0  0  0  0  0  0  0  0  0  0
  -28.5653  -24.0991   21.0516 C   0  0  0  0  0  0  0  0  0  0  0  0
  -22.9686  -26.7645   15.6648 C   0  0  0  0  0  0  0  0  0  1  0  0
  -29.2561  -28.2615   19.2691 C   0  0  1  0  0  0  0  0  0  0  0  0
  -30.3071  -24.6200   19.3388 C   0  0  2  0  0  0  0  0  0  0  0  0
  -22.0411  -25.9001   14.7999 C   0  0  1  0  0  0  0  0  0  0  0  0
  -30.2713  -29.3747   18.8850 C   0  0  0  0  0  0  0  0  0  0  0  0
  -27.5056  -15.8522   19.3208 N   0  0  0  0  0  0  0  0  0  0  0  0
  -20.2357  -25.0388   16.1321 N   0  0  0  0  0  0  0  0  0  0  0  0
  -28.4483  -16.8097   19.3472 N   0  0  0  0  0  0  0  0  0  0  0  0
  -21.4336  -24.8307   15.5595 N   0  0  0  0  0  0  0  0  0  0  0  0
  -27.0504  -28.6890   20.3063 N   0  0  0  0  0  0  0  0  0  0  0  0
  -26.4600  -19.7429   17.8910 N   0  0  0  0  0  0  0  0  0  0  0  0
  -25.4866  -21.2024   16.2820 N   0  0  0  0  0  0  0  0  0  0  0  0
  -30.7676  -17.1686   19.6674 N   0  0  0  0  0  0  0  0  0  0  0  0
  -30.3251  -12.7023   20.1705 N   0  0  0  0  0  0  0  0  0  0  0  0
  -23.1739  -23.1837   15.2545 N   0  0  0  0  0  0  0  0  0  0  0  0
  -25.9185  -31.4795   22.2200 N   0  0  0  0  0  0  0  0  0  0  0  0
  -29.8676  -26.9686   19.5569 N   0  0  0  0  0  0  0  0  0  0  0  0
  -29.3788  -23.6043   19.9112 N   0  3  0  0  0  0  0  0  0  0  0  0
  -31.8207  -14.4404   20.2011 O   0  0  0  0  0  0  0  0  0  0  0  0
  -25.9355  -31.0611   19.9293 O   0  0  0  0  0  0  0  0  0  0  0  0
  -29.0119  -28.8311   21.5587 O   0  0  0  0  0  0  0  0  0  0  0  0
  -28.7096  -25.7744   17.9413 O   0  0  0  0  0  0  0  0  0  0  0  0
  -27.1259  -19.7600   15.6831 O   0  0  0  0  0  0  0  0  0  0  0  0
  -25.5857   -9.7990   19.7909 O   0  0  0  0  0  0  0  0  0  0  0  0
  -22.2117  -27.3974   16.6906 O   0  0  0  0  0  0  0  0  0  1  0  0
  -20.8488   -9.5193   22.5995 F   0  0  0  0  0  0  0  0  0  0  0  0
  -23.4167  -11.3553   19.0724 F   0  0  0  0  0  0  0  0  0  0  0  0
  1  2  1  0  0  0  0
  1  5  2  0  0  0  0
  2  6  2  0  0  0  0
  3  8  2  0  0  0  0
  3 16  1  0  0  0  0
  4  9  1  0  0  0  0
  4 16  2  0  0  0  0
  5 18  1  0  0  0  0
  6 20  1  0  0  0  0
  7 10  2  0  0  0  0
  7 19  1  0  0  0  0
  8 22  1  0  0  0  0
  9 22  2  0  0  0  0
 10 23  1  0  0  0  0
 11 12  2  0  0  0  0
 11 24  1  0  0  0  0
 12 25  1  0  0  0  0
 13 21  1  0  0  0  0
 13 23  2  0  0  0  0
 14 25  2  0  0  0  0
 14 26  1  0  0  0  0
 15 28  1  0  0  0  0
 15 29  2  0  0  0  0
 16 27  1  0  0  0  0
 17 27  1  0  0  0  0
 17 30  2  0  0  0  0
 17 31  1  0  0  0  0
 18 20  2  0  0  0  0
 18 36  1  0  0  0  0
 19 21  2  0  0  0  0
 19 37  1  0  0  0  0
 20 47  1  0  0  0  0
 21 38  1  0  0  0  0
 22 81  1  0  0  0  0
 23 82  1  0  0  0  0
 24 26  2  0  0  0  0
 24 81  1  0  0  0  0
 25 83  1  0  0  0  0
 26 84  1  0  0  0  0
 27 63  2  0  0  0  0
 28 51  1  0  0  0  0
 28 64  2  0  0  0  0
 29 66  1  0  0  0  0
 29 72  1  0  0  0  0
 30 65  1  0  0  0  0
 30 70  1  0  0  0  0
 31 71  1  0  0  0  0
 31 76  2  0  0  0  0
 32 48  1  0  0  0  0
 32 73  1  0  0  0  0
 32 77  2  0  0  0  0
 33 59  1  0  0  0  0
 33 67  1  0  0  0  0
 33 78  2  0  0  0  0
 34 60  1  0  0  0  0
 34 74  1  0  0  0  0
 34 79  2  0  0  0  0
 35 68  1  0  0  0  0
 35 69  1  0  0  0  0
 35 80  2  0  0  0  0
 36 39  1  0  0  0  0
 37 48  1  0  0  0  0
 38 67  1  0  0  0  0
 39 41  1  0  0  0  0
 40 42  1  0  0  0  0
 40 43  1  0  0  0  0
 41 47  1  0  0  0  0
 42 49  1  0  0  0  0
 43 68  1  0  0  0  0
 44 49  1  0  0  0  0
 44 68  1  0  0  0  0
 45 50  1  0  0  0  0
 45 69  1  0  0  0  0
 46 50  1  0  0  0  0
 46 69  1  0  0  0  0
 47 73  1  0  0  0  0
 48 67  1  0  0  0  0
 49 65  1  0  0  0  0
 50 72  1  0  0  0  0
 52 60  1  0  0  0  0
 53 61  1  0  0  0  0
 54 62  1  0  0  0  0
 55 62  1  0  0  0  0
 56 62  1  0  0  0  0
 57 75  1  0  0  0  0
 58 61  1  0  0  0  0
 58 82  1  0  0  0  0
 59 62  1  0  0  0  0
 59 74  1  0  0  0  0
 60 75  1  0  0  0  0
 61 66  1  0  0  0  0
 63 65  1  0  0  0  0
 64 66  1  0  0  0  0
M  CHG  1  75   1
M  ISO  4  35 100  58 101  69 100  82 101
M  END
> <Batch ID>
0192

> <Smiles>
CNC(C)C(=O)NC(C(=O)N1Cc2cc([101O:1][101CH2:1]C(C)n3nc(C)cc3NC3C[100N:0]([100C:0](=O)N4CCCC(n5nc(-c6ccc(Oc7ccc(F)cc7F)cc6)c(C(N)=O)c5N)C4)C3)ccc2CC1C(=O)NC1CCCc2ccccc21)C(C)(C)C

> <Shape>
0.245

> <Color>
0.060

> <Negative vol penalty>
0.000

$$$$

  -OEChem-04052323293D

 86 95  0     1  0  0  0  0  0999 V2000
  -17.7539  -26.6983   23.6194 C   0  0  0  0  0  0  0  0  0  0  0  0
  -19.0808  -26.2822   23.6592 C   0  0  0  0  0  0  0  0  0  0  0  0
  -25.6354  -13.4127   22.1362 C   0  0  0  0  0  0  0  0  0  0  0  0
  -26.1884  -13.8681   19.8288 C   0  0  0  0  0  0  0  0  0  0  0  0
  -17.3845  -27.7693   22.8067 C   0  0  0  0  0  0  0  0  0  0  0  0
  -20.0389  -26.9362   22.8855 C   0  0  0  0  0  0  0  0  0  0  0  0
  -26.9595  -28.7849   22.9570 C   0  0  0  0  0  0  0  0  0  0  0  0
  -24.6098  -12.5626   21.7226 C   0  0  0  0  0  0  0  0  0  0  0  0
  -25.1628  -13.0179   19.4152 C   0  0  0  0  0  0  0  0  0  0  0  0
  -28.1083  -28.6882   22.1730 C   0  0  0  0  0  0  0  0  0  0  0  0
  -24.3112   -9.4022   20.5582 C   0  0  0  0  0  0  0  0  0  0  0  0
  -24.1932   -8.1691   21.1994 C   0  0  0  0  0  0  0  0  0  0  0  0
  -27.3686  -30.5767   20.8669 C   0  0  0  0  0  0  0  0  0  0  0  0
  -21.9616   -8.7554   21.9161 C   0  0  0  0  0  0  0  0  0  0  0  0
  -26.4246  -14.0655   21.1893 C   0  0  0  0  0  0  0  0  0  0  0  0
  -28.8249  -14.5988   21.8689 C   0  0  0  0  0  0  0  0  0  0  0  0
  -18.3403  -28.4430   22.0300 C   0  0  0  0  0  0  0  0  0  0  0  0
  -25.9997  -29.7731   22.6945 C   0  0  0  0  0  0  0  0  0  0  0  0
  -19.6818  -28.0164   22.0607 C   0  0  0  0  0  0  0  0  0  0  0  0
  -26.2097  -30.6854   21.6506 C   0  0  0  0  0  0  0  0  0  0  0  0
  -29.1130  -21.3986   17.4317 C   0  0  0  0  0  0  0  0  0  0  0  0
  -24.3735  -12.3651   20.3622 C   0  0  0  0  0  0  0  0  0  0  0  0
  -28.3116  -29.5823   21.1259 C   0  0  0  0  0  0  0  0  0  0  0  0
  -23.2545  -10.3120   20.5960 C   0  0  0  0  0  0  0  0  0  0  0  0
  -23.0184   -7.8457   21.8783 C   0  0  0  0  0  0  0  0  0  0  0  0
  -22.0797   -9.9886   21.2749 C   0  0  0  0  0  0  0  0  0  0  0  0
  -27.4838  -14.9443   21.6159 C   0  0  0  0  0  0  0  0  0  0  0  0
  -29.5001  -22.5065   16.7182 C   0  0  0  0  0  0  0  0  0  0  0  0
  -28.8617  -21.8853   18.7285 C   0  0  0  0  0  0  0  0  0  0  0  0
  -29.4188  -15.7794   22.2433 C   0  0  0  0  0  0  0  0  0  0  0  0
  -29.4757  -13.3248   21.7739 C   0  0  0  0  0  0  0  0  0  0  0  0
  -22.9350  -29.7557   21.8513 C   0  0  0  0  0  0  0  0  0  0  0  0
  -23.2005  -32.9596   22.2840 C   0  0  0  0  0  0  0  0  0  0  0  0
  -25.2156  -35.7120   22.3871 C   0  0  0  0  0  0  0  0  0  0  0  0
  -28.1682  -21.5137   21.1217 C   0  0  0  0  0  0  0  0  0  0  0  0
  -17.8851  -29.5650   21.1309 C   0  0  0  0  0  0  0  0  0  0  0  0
  -24.7787  -29.8809   23.5662 C   0  0  0  0  0  0  0  0  0  0  0  0
  -25.2196  -31.7771   21.3404 C   0  0  0  0  0  0  0  0  0  0  0  0
  -19.0272  -30.4439   20.6276 C   0  0  0  0  0  0  0  0  0  0  0  0
  -28.4240  -19.9769   24.3232 C   0  0  0  0  0  0  0  0  0  0  0  0
  -20.1824  -29.5829   20.1264 C   0  0  0  0  0  0  0  0  0  0  0  0
  -28.3401  -18.4802   24.0147 C   0  0  0  0  0  0  0  0  0  0  0  0
  -28.5570  -25.8292   17.5475 C   0  0  0  0  0  0  0  0  0  0  0  0
  -30.9714  -25.3892   18.1821 C   0  0  0  0  0  0  0  0  0  0  0  0
  -27.5146  -20.7962   23.4093 C   0  0  0  0  0  0  0  0  0  0  0  0
  -27.6166  -19.0607   21.6638 C   0  0  0  0  0  0  0  0  0  0  0  0
  -28.8948  -27.2988   17.3326 C   0  0  0  0  0  0  0  0  0  0  0  0
  -31.2846  -26.8633   17.9616 C   0  0  0  0  0  0  0  0  0  0  0  0
  -20.7545  -28.7163   21.2548 C   0  0  1  0  0  0  0  0  0  0  0  0
  -23.6204  -30.6034   22.8854 C   0  0  1  0  0  0  0  0  0  0  0  0
  -28.5642  -18.2004   22.5157 C   0  0  2  0  0  0  0  0  0  0  0  0
  -29.7840  -24.9331   17.3206 C   0  0  0  0  0  0  0  0  0  0  0  0
  -28.9921  -20.0148   16.9386 C   0  0  0  0  0  0  0  0  0  0  0  0
  -29.8983  -22.6665   15.3065 C   0  0  0  0  0  0  0  0  0  0  0  0
  -25.1396  -38.1975   22.7251 C   0  0  0  0  0  0  0  0  0  0  0  0
  -22.0871  -33.3065   19.4645 C   0  0  0  0  0  0  0  0  0  0  0  0
  -22.9136  -35.6694   19.5039 C   0  0  0  0  0  0  0  0  0  0  0  0
  -21.1903  -34.9252   21.1467 C   0  0  0  0  0  0  0  0  0  0  0  0
  -26.9650  -35.5583   24.7693 C   0  0  0  0  0  0  0  0  0  0  0  0
  -30.3347  -29.1606   18.1544 C   0  0  0  0  0  0  0  0  0  0  0  0
  -29.3248  -29.9115   18.9996 C   0  0  0  0  0  0  0  0  0  1  0  0
  -23.5759  -34.1294   21.4068 C   0  0  1  0  0  0  0  0  0  0  0  0
  -25.3242  -36.8438   23.3931 C   0  0  2  0  0  0  0  0  0  0  0  0
  -22.4596  -34.4860   20.3848 C   0  0  0  0  0  0  0  0  0  0  0  0
  -27.2398  -16.2425   21.8131 N   0  0  0  0  0  0  0  0  0  0  0  0
  -29.0718  -23.2000   18.8355 N   0  0  0  0  0  0  0  0  0  0  0  0
  -29.4591  -23.5488   17.5968 N   0  0  0  0  0  0  0  0  0  0  0  0
  -28.4355  -16.7233   22.1941 N   0  0  0  0  0  0  0  0  0  0  0  0
  -24.0385  -31.8374   22.2172 N   0  0  0  0  0  0  0  0  0  0  0  0
  -27.7864  -20.4818   22.0050 N   0  0  0  0  0  0  0  0  0  0  0  0
  -30.6808  -16.0917   22.6067 N   0  0  0  0  0  0  0  0  0  0  0  0
  -28.7179  -12.2156   21.3741 N   0  0  0  0  0  0  0  0  0  0  0  0
  -28.4322  -21.0899   19.8197 N   0  0  0  0  0  0  0  0  0  0  0  0
  -21.6023  -29.5082   22.1200 N   0  0  0  0  0  0  0  0  0  0  0  0
  -23.9300  -35.2195   22.3094 N   0  0  0  0  0  0  0  0  0  0  0  0
  -30.0504  -27.7053   18.2287 N   0  3  0  0  0  0  0  0  0  0  0  0
  -26.6602  -36.8237   24.0531 N   0  3  0  0  0  0  0  0  0  0  0  0
  -30.6893  -13.1713   22.0516 O   0  0  0  0  0  0  0  0  0  0  0  0
  -23.5680  -29.3571   20.8807 O   0  0  0  0  0  0  0  0  0  0  0  0
  -22.2047  -33.0412   23.0075 O   0  0  0  0  0  0  0  0  0  0  0  0
  -26.1743  -35.3080   21.7329 O   0  0  0  0  0  0  0  0  0  0  0  0
  -28.2809  -22.6827   21.4995 O   0  0  0  0  0  0  0  0  0  0  0  0
  -23.3730  -11.5355   19.9583 O   0  0  0  0  0  0  0  0  0  0  0  0
  -29.4318  -29.4897   20.3587 O   0  0  0  0  0  0  0  0  0  1  0  0
  -22.9046   -6.6609   22.4927 F   0  0  0  0  0  0  0  0  0  0  0  0
  -21.0607  -10.8580   21.3137 F   0  0  0  0  0  0  0  0  0  0  0  0
  1  2  1  0  0  0  0
  1  5  2  0  0  0  0
  2  6  2  0  0  0  0
  3  8  2  0  0  0  0
  3 15  1  0  0  0  0
  4  9  1  0  0  0  0
  4 15  2  0  0  0  0
  5 17  1  0  0  0  0
  6 19  1  0  0  0  0
  7 10  2  0  0  0  0
  7 18  1  0  0  0  0
  8 22  1  0  0  0  0
  9 22  2  0  0  0  0
 10 23  1  0  0  0  0
 11 12  2  0  0  0  0
 11 24  1  0  0  0  0
 12 25  1  0  0  0  0
 13 20  1  0  0  0  0
 13 23  2  0  0  0  0
 14 25  2  0  0  0  0
 14 26  1  0  0  0  0
 15 27  1  0  0  0  0
 16 27  1  0  0  0  0
 16 30  2  0  0  0  0
 16 31  1  0  0  0  0
 17 19  2  0  0  0  0
 17 36  1  0  0  0  0
 18 20  2  0  0  0  0
 18 37  1  0  0  0  0
 19 49  1  0  0  0  0
 20 38  1  0  0  0  0
 21 28  2  0  0  0  0
 21 29  1  0  0  0  0
 21 53  1  0  0  0  0
 22 83  1  0  0  0  0
 23 84  1  0  0  0  0
 24 26  2  0  0  0  0
 24 83  1  0  0  0  0
 25 85  1  0  0  0  0
 26 86  1  0  0  0  0
 27 65  2  0  0  0  0
 28 54  1  0  0  0  0
 28 67  1  0  0  0  0
 29 66  2  0  0  0  0
 29 73  1  0  0  0  0
 30 68  1  0  0  0  0
 30 71  1  0  0  0  0
 31 72  1  0  0  0  0
 31 78  2  0  0  0  0
 32 50  1  0  0  0  0
 32 74  1  0  0  0  0
 32 79  2  0  0  0  0
 33 62  1  0  0  0  0
 33 69  1  0  0  0  0
 33 80  2  0  0  0  0
 34 63  1  0  0  0  0
 34 75  1  0  0  0  0
 34 81  2  0  0  0  0
 35 70  1  0  0  0  0
 35 73  1  0  0  0  0
 35 82  2  0  0  0  0
 36 39  1  0  0  0  0
 37 50  1  0  0  0  0
 38 69  1  0  0  0  0
 39 41  1  0  0  0  0
 40 42  1  0  0  0  0
 40 45  1  0  0  0  0
 41 49  1  0  0  0  0
 42 51  1  0  0  0  0
 43 47  1  0  0  0  0
 43 52  1  0  0  0  0
 44 48  1  0  0  0  0
 44 52  1  0  0  0  0
 45 70  1  0  0  0  0
 46 51  1  0  0  0  0
 46 70  1  0  0  0  0
 47 76  1  0  0  0  0
 48 76  1  0  0  0  0
 49 74  1  0  0  0  0
 50 69  1  0  0  0  0
 51 68  1  0  0  0  0
 52 67  1  0  0  0  0
 55 63  1  0  0  0  0
 56 64  1  0  0  0  0
 57 64  1  0  0  0  0
 58 64  1  0  0  0  0
 59 77  1  0  0  0  0
 60 61  1  0  0  0  0
 60 76  1  0  0  0  0
 61 84  1  0  0  0  0
 62 64  1  0  0  0  0
 62 75  1  0  0  0  0
 63 77  1  0  0  0  0
 65 68  1  0  0  0  0
 66 67  1  0  0  0  0
M  CHG  2  76   1  77   1
M  ISO  4  35 100  61 101  73 100  84 101
M  END
> <Batch ID>
0192

> <Smiles>
CNC(C)C(=O)NC(C(=O)N1Cc2cc([101O:1][101CH2:1]CN3CCC(n4nc([100NH:0][100C:0](=O)N5CCCC(n6nc(-c7ccc(Oc8ccc(F)cc8F)cc7)c(C(N)=O)c6N)C5)c(C)c4C)CC3)ccc2CC1C(=O)NC1CCCc2ccccc21)C(C)(C)C

> <Shape>
0.308

> <Color>
0.118

> <Negative vol penalty>
0.000

$$$$

  -OEChem-04052323293D

 84 94  0     1  0  0  0  0  0999 V2000
  -26.7657  -10.5537   17.9105 C   0  0  0  0  0  0  0  0  0  0  0  0
  -26.3042  -10.6692   19.2169 C   0  0  0  0  0  0  0  0  0  0  0  0
  -21.2694  -29.7258   20.1459 C   0  0  0  0  0  0  0  0  0  0  0  0
  -21.5922  -28.2173   22.0052 C   0  0  0  0  0  0  0  0  0  0  0  0
  -28.0239  -11.0481   17.5735 C   0  0  0  0  0  0  0  0  0  0  0  0
  -27.0958  -11.2898   20.1839 C   0  0  0  0  0  0  0  0  0  0  0  0
  -29.2477  -18.3194   22.4666 C   0  0  0  0  0  0  0  0  0  0  0  0
  -19.9372  -29.3237   20.0509 C   0  0  0  0  0  0  0  0  0  0  0  0
  -20.2600  -27.8152   21.9103 C   0  0  0  0  0  0  0  0  0  0  0  0
  -29.4551  -19.4632   21.6968 C   0  0  0  0  0  0  0  0  0  0  0  0
  -17.2303  -29.0034   22.8212 C   0  0  0  0  0  0  0  0  0  0  0  0
  -16.4982  -28.9066   24.0045 C   0  0  0  0  0  0  0  0  0  0  0  0
  -27.4567  -18.9712   20.4383 C   0  0  0  0  0  0  0  0  0  0  0  0
  -16.1151  -26.5600   23.5756 C   0  0  0  0  0  0  0  0  0  0  0  0
  -29.7662  -23.9757   17.0010 C   0  0  0  0  0  0  0  0  0  0  0  0
  -22.0970  -29.1726   21.1231 C   0  0  0  0  0  0  0  0  0  0  0  0
  -23.9892  -30.6466   21.9916 C   0  0  0  0  0  0  0  0  0  0  0  0
  -28.8358  -11.6638   18.5403 C   0  0  0  0  0  0  0  0  0  0  0  0
  -28.1474  -17.4856   22.2204 C   0  0  0  0  0  0  0  0  0  0  0  0
  -28.3587  -11.8167   19.8580 C   0  0  0  0  0  0  0  0  0  0  0  0
  -27.2362  -17.8188   21.2080 C   0  0  0  0  0  0  0  0  0  0  0  0
  -29.9342  -23.3923   18.2893 C   0  0  0  0  0  0  0  0  0  0  0  0
  -19.4324  -28.3684   20.9331 C   0  0  0  0  0  0  0  0  0  0  0  0
  -28.5611  -19.7877   20.6806 C   0  0  0  0  0  0  0  0  0  0  0  0
  -17.4047  -27.8785   22.0150 C   0  0  0  0  0  0  0  0  0  0  0  0
  -15.9406  -27.6850   24.3818 C   0  0  0  0  0  0  0  0  0  0  0  0
  -16.8471  -26.6568   22.3923 C   0  0  0  0  0  0  0  0  0  0  0  0
  -23.4734  -29.5871   21.2213 C   0  0  0  0  0  0  0  0  0  0  0  0
  -29.6398  -22.0738   18.0813 C   0  0  0  0  0  0  0  0  0  0  0  0
  -25.3397  -30.6267   21.7421 C   0  0  0  0  0  0  0  0  0  0  0  0
  -23.3085  -31.5663   22.8554 C   0  0  0  0  0  0  0  0  0  0  0  0
  -27.7835  -14.4553   21.3325 C   0  0  0  0  0  0  0  0  0  0  0  0
  -24.6461  -15.0828   21.8666 C   0  0  0  0  0  0  0  0  0  0  0  0
  -22.1512  -17.4012   22.0831 C   0  0  0  0  0  0  0  0  0  0  0  0
  -28.5685  -25.8366   19.7325 C   0  0  0  0  0  0  0  0  0  0  0  0
  -30.1859  -12.1882   18.1191 C   0  0  0  0  0  0  0  0  0  0  0  0
  -27.9231  -16.2699   23.0771 C   0  0  0  0  0  0  0  0  0  0  0  0
  -26.0282  -16.9678   20.9168 C   0  0  0  0  0  0  0  0  0  0  0  0
  -31.1252  -12.4261   19.2970 C   0  0  0  0  0  0  0  0  0  0  0  0
  -32.0856  -25.3706   20.5836 C   0  0  0  0  0  0  0  0  0  0  0  0
  -28.0764  -29.1334   18.0251 C   0  0  0  0  0  0  0  0  0  0  0  0
  -31.8589  -24.1081   19.7642 C   0  0  0  0  0  0  0  0  0  0  0  0
  -30.4151  -13.2338   20.3731 C   0  0  0  0  0  0  0  0  0  0  0  0
  -27.2108  -29.9322   18.9992 C   0  0  0  0  0  0  0  0  0  0  0  0
  -28.7732  -19.9175   17.6798 C   0  0  0  0  0  0  0  0  0  0  0  0
  -28.9927  -20.6308   16.3285 C   0  0  0  0  0  0  0  0  0  0  0  0
  -28.9858  -28.1383   18.7378 C   0  0  0  0  0  0  0  0  0  0  0  0
  -31.0536  -26.3351   20.0198 C   0  0  0  0  0  0  0  0  0  0  0  0
  -26.9099  -27.6299   20.0339 C   0  0  0  0  0  0  0  0  0  0  0  0
  -30.3371  -24.0784   19.5754 C   0  0  1  0  0  0  0  0  0  0  0  0
  -29.2148  -12.4605   20.9336 C   0  0  1  0  0  0  0  0  0  0  0  0
  -27.0514  -15.2156   22.4019 C   0  0  1  0  0  0  0  0  0  0  0  0
  -26.8634  -29.1447   20.2760 C   0  0  2  0  0  0  0  0  0  0  0  0
  -29.5434  -20.7582   18.7484 C   0  0  1  0  0  0  0  0  0  1  0  0
  -30.9068  -20.1758   19.0898 C   0  0  0  0  0  0  0  0  0  0  0  0
  -19.6845  -17.6080   22.4956 C   0  0  0  0  0  0  0  0  0  0  0  0
  -24.0913  -14.0681   19.0430 C   0  0  0  0  0  0  0  0  0  0  0  0
  -21.8428  -15.1623   19.1666 C   0  0  0  0  0  0  0  0  0  0  0  0
  -22.4280  -13.3349   20.7606 C   0  0  0  0  0  0  0  0  0  0  0  0
  -22.5757  -19.0778   24.4847 C   0  0  0  0  0  0  0  0  0  0  0  0
  -23.5033  -15.6070   21.0310 C   0  0  1  0  0  0  0  0  0  0  0  0
  -21.0691  -17.6222   23.1245 C   0  0  2  0  0  0  0  0  0  0  0  0
  -22.9901  -14.5583   20.0043 C   0  0  0  0  0  0  0  0  0  0  0  0
  -29.3960  -23.0906   16.0592 N   0  0  0  0  0  0  0  0  0  0  0  0
  -24.4191  -28.9414   20.5338 N   0  0  0  0  0  0  0  0  0  0  0  0
  -29.3329  -21.9677   16.7655 N   0  0  0  0  0  0  0  0  0  0  0  0
  -25.5428  -29.5969   20.8712 N   0  0  0  0  0  0  0  0  0  0  0  0
  -25.8558  -15.7860   21.7778 N   0  0  0  0  0  0  0  0  0  0  0  0
  -28.2292  -27.1885   19.5662 N   0  0  0  0  0  0  0  0  0  0  0  0
  -29.9188  -25.4874   19.6546 N   0  0  0  0  0  0  0  0  0  0  0  0
  -26.3615  -31.3899   22.1848 N   0  0  0  0  0  0  0  0  0  0  0  0
  -21.9194  -31.4459   22.9980 N   0  0  0  0  0  0  0  0  0  0  0  0
  -28.4493  -13.3357   21.7937 N   0  0  0  0  0  0  0  0  0  0  0  0
  -22.4882  -16.0689   21.9716 N   0  0  0  0  0  0  0  0  0  0  0  0
  -21.2635  -18.9348   23.8031 N   0  3  0  0  0  0  0  0  0  0  0  0
  -23.9119  -32.4786   23.4696 O   0  0  0  0  0  0  0  0  0  0  0  0
  -27.7459  -14.8540   20.1743 O   0  0  0  0  0  0  0  0  0  0  0  0
  -24.4698  -14.0903   22.5776 O   0  0  0  0  0  0  0  0  0  0  0  0
  -22.6452  -18.3184   21.4309 O   0  0  0  0  0  0  0  0  0  0  0  0
  -27.6991  -24.9797   19.9422 O   0  0  0  0  0  0  0  0  0  0  0  0
  -18.1324  -27.9760   20.8409 O   0  0  0  0  0  0  0  0  0  0  0  0
  -28.7630  -20.9112   19.9220 O   0  0  0  0  0  0  0  0  0  1  0  0
  -15.2389  -27.5918   25.5190 F   0  0  0  0  0  0  0  0  0  0  0  0
  -17.0123  -25.5724   21.6225 F   0  0  0  0  0  0  0  0  0  0  0  0
  1  2  1  0  0  0  0
  1  5  2  0  0  0  0
  2  6  2  0  0  0  0
  3  8  2  0  0  0  0
  3 16  1  0  0  0  0
  4  9  1  0  0  0  0
  4 16  2  0  0  0  0
  5 18  1  0  0  0  0
  6 20  1  0  0  0  0
  7 10  2  0  0  0  0
  7 19  1  0  0  0  0
  8 23  1  0  0  0  0
  9 23  2  0  0  0  0
 10 24  1  0  0  0  0
 11 12  2  0  0  0  0
 11 25  1  0  0  0  0
 12 26  1  0  0  0  0
 13 21  1  0  0  0  0
 13 24  2  0  0  0  0
 14 26  2  0  0  0  0
 14 27  1  0  0  0  0
 15 22  1  0  0  0  0
 15 64  2  0  0  0  0
 16 28  1  0  0  0  0
 17 28  1  0  0  0  0
 17 30  2  0  0  0  0
 17 31  1  0  0  0  0
 18 20  2  0  0  0  0
 18 36  1  0  0  0  0
 19 21  2  0  0  0  0
 19 37  1  0  0  0  0
 20 51  1  0  0  0  0
 21 38  1  0  0  0  0
 22 29  2  0  0  0  0
 22 50  1  0  0  0  0
 23 81  1  0  0  0  0
 24 82  1  0  0  0  0
 25 27  2  0  0  0  0
 25 81  1  0  0  0  0
 26 83  1  0  0  0  0
 27 84  1  0  0  0  0
 28 65  2  0  0  0  0
 29 54  1  0  0  0  0
 29 66  1  0  0  0  0
 30 67  1  0  0  0  0
 30 71  1  0  0  0  0
 31 72  1  0  0  0  0
 31 76  2  0  0  0  0
 32 52  1  0  0  0  0
 32 73  1  0  0  0  0
 32 77  2  0  0  0  0
 33 61  1  0  0  0  0
 33 68  1  0  0  0  0
 33 78  2  0  0  0  0
 34 62  1  0  0  0  0
 34 74  1  0  0  0  0
 34 79  2  0  0  0  0
 35 69  1  0  0  0  0
 35 70  1  0  0  0  0
 35 80  2  0  0  0  0
 36 39  1  0  0  0  0
 37 52  1  0  0  0  0
 38 68  1  0  0  0  0
 39 43  1  0  0  0  0
 40 42  1  0  0  0  0
 40 48  1  0  0  0  0
 41 44  1  0  0  0  0
 41 47  1  0  0  0  0
 42 50  1  0  0  0  0
 43 51  1  0  0  0  0
 44 53  1  0  0  0  0
 45 46  1  0  0  0  0
 45 54  1  0  0  0  0
 46 66  1  0  0  0  0
 47 69  1  0  0  0  0
 48 70  1  0  0  0  0
 49 53  1  0  0  0  0
 49 69  1  0  0  0  0
 50 70  1  0  0  0  0
 51 73  1  0  0  0  0
 52 68  1  0  0  0  0
 53 67  1  0  0  0  0
 54 55  1  0  0  0  0
 54 82  1  0  0  0  0
 56 62  1  0  0  0  0
 57 63  1  0  0  0  0
 58 63  1  0  0  0  0
 59 63  1  0  0  0  0
 60 75  1  0  0  0  0
 61 63  1  0  0  0  0
 61 74  1  0  0  0  0
 62 75  1  0  0  0  0
 64 66  1  0  0  0  0
 65 67  1  0  0  0  0
M  CHG  1  75   1
M  ISO  4  35 100  54 101  70 100  82 101
M  END
> <Batch ID>
0192

> <Smiles>
CNC(C)C(=O)NC(C(=O)N1Cc2cc([101O:1][101C:1]3(C)CCn4ncc(C5CCC[100N:0]5[100C:0](=O)N5CCCC(n6nc(-c7ccc(Oc8ccc(F)cc8F)cc7)c(C(N)=O)c6N)C5)c43)ccc2CC1C(=O)NC1CCCc2ccccc21)C(C)(C)C

> <Shape>
0.292

> <Color>
0.051

> <Negative vol penalty>
0.000

$$$$

  -OEChem-04052323293D

 85 94  0     1  0  0  0  0  0999 V2000
  -26.7246  -21.9734   18.7955 C   0  0  0  0  0  0  0  0  0  0  0  0
  -25.5988  -22.7052   19.1593 C   0  0  0  0  0  0  0  0  0  0  0  0
  -27.5054  -13.7969   20.1716 C   0  0  0  0  0  0  0  0  0  0  0  0
  -26.9716  -14.7943   18.0368 C   0  0  0  0  0  0  0  0  0  0  0  0
  -27.9474  -22.2223   19.4173 C   0  0  0  0  0  0  0  0  0  0  0  0
  -25.6949  -23.6858   20.1460 C   0  0  0  0  0  0  0  0  0  0  0  0
  -23.3081  -27.9661   18.8705 C   0  0  0  0  0  0  0  0  0  0  0  0
  -27.5280  -12.5355   19.5766 C   0  0  0  0  0  0  0  0  0  0  0  0
  -26.9943  -13.5329   17.4418 C   0  0  0  0  0  0  0  0  0  0  0  0
  -21.9199  -27.9835   18.9986 C   0  0  0  0  0  0  0  0  0  0  0  0
  -28.0818   -9.0926   18.5495 C   0  0  0  0  0  0  0  0  0  0  0  0
  -29.1359   -8.2399   18.8770 C   0  0  0  0  0  0  0  0  0  0  0  0
  -22.1340  -29.1627   21.0922 C   0  0  0  0  0  0  0  0  0  0  0  0
  -30.7112   -9.8561   18.0148 C   0  0  0  0  0  0  0  0  0  0  0  0
  -27.2271  -14.9263   19.4017 C   0  0  0  0  0  0  0  0  0  0  0  0
  -28.2831  -17.1205   20.1619 C   0  0  0  0  0  0  0  0  0  0  0  0
  -28.0607  -23.2131   20.4054 C   0  0  0  0  0  0  0  0  0  0  0  0
  -24.1214  -28.5382   19.8593 C   0  0  0  0  0  0  0  0  0  0  0  0
  -26.9201  -23.9473   20.7827 C   0  0  0  0  0  0  0  0  0  0  0  0
  -23.5321  -29.1535   20.9730 C   0  0  0  0  0  0  0  0  0  0  0  0
  -18.4275  -27.6319   23.8745 C   0  0  0  0  0  0  0  0  0  0  0  0
  -27.2725  -12.4035   18.2117 C   0  0  0  0  0  0  0  0  0  0  0  0
  -21.3327  -28.5793   20.1110 C   0  0  0  0  0  0  0  0  0  0  0  0
  -28.3423  -10.3271   17.9546 C   0  0  0  0  0  0  0  0  0  0  0  0
  -30.4506   -8.6217   18.6097 C   0  0  0  0  0  0  0  0  0  0  0  0
  -29.6570  -10.7088   17.6873 C   0  0  0  0  0  0  0  0  0  0  0  0
  -27.2030  -16.2295   20.0158 C   0  0  0  0  0  0  0  0  0  0  0  0
  -17.7918  -28.5070   23.0175 C   0  0  0  0  0  0  0  0  0  0  0  0
  -19.6183  -27.1066   23.4162 C   0  0  0  0  0  0  0  0  0  0  0  0
  -27.7456  -18.2092   20.8040 C   0  0  0  0  0  0  0  0  0  0  0  0
  -19.4419  -28.2711   21.4720 C   0  0  0  0  0  0  0  0  0  1  0  0
  -29.6500  -16.9770   19.7536 C   0  0  0  0  0  0  0  0  0  0  0  0
  -26.3495  -27.4407   21.8428 C   0  0  0  0  0  0  0  0  0  0  0  0
  -26.7032  -30.5838   22.5625 C   0  0  0  0  0  0  0  0  0  0  0  0
  -25.3328  -33.7081   22.6495 C   0  0  0  0  0  0  0  0  0  0  0  0
  -22.1122  -20.1944   20.9735 C   0  0  0  0  0  0  0  0  0  0  0  0
  -29.3932  -23.4137   21.0828 C   0  0  0  0  0  0  0  0  0  0  0  0
  -25.6163  -28.5348   19.6931 C   0  0  0  0  0  0  0  0  0  0  0  0
  -24.3601  -29.7996   22.0526 C   0  0  0  0  0  0  0  0  0  0  0  0
  -29.4928  -24.7274   21.8538 C   0  0  0  0  0  0  0  0  0  0  0  0
  -24.2578  -19.4219   23.8447 C   0  0  0  0  0  0  0  0  0  0  0  0
  -28.2458  -24.9423   22.7057 C   0  0  0  0  0  0  0  0  0  0  0  0
  -25.3502  -18.5752   23.1894 C   0  0  0  0  0  0  0  0  0  0  0  0
  -22.9088  -19.1832   23.1773 C   0  0  0  0  0  0  0  0  0  0  0  0
  -20.6058  -22.2555   20.9866 C   0  0  0  0  0  0  0  0  0  0  0  0
  -21.8259  -22.1201   22.7239 C   0  0  0  0  0  0  0  0  0  0  0  0
  -23.9855  -18.5849   21.0456 C   0  0  0  0  0  0  0  0  0  0  0  0
  -26.9897  -25.0363   21.8312 C   0  0  1  0  0  0  0  0  0  0  0  0
  -26.3646  -28.6933   21.0131 C   0  0  1  0  0  0  0  0  0  0  0  0
  -21.2867  -23.2979   21.8901 C   0  0  0  0  0  0  0  0  0  0  0  0
  -25.3808  -18.7873   21.6647 C   0  0  2  0  0  0  0  0  0  0  0  0
  -17.8652  -27.2759   25.2050 C   0  0  0  0  0  0  0  0  0  0  0  0
  -16.4959  -29.1393   23.4066 C   0  0  0  0  0  0  0  0  0  0  0  0
  -25.8517  -36.0686   23.3248 C   0  0  0  0  0  0  0  0  0  0  0  0
  -26.3175  -29.8275   25.4932 C   0  0  0  0  0  0  0  0  0  0  0  0
  -25.8965  -32.2451   25.9894 C   0  0  0  0  0  0  0  0  0  0  0  0
  -28.1057  -31.5265   25.0810 C   0  0  0  0  0  0  0  0  0  0  0  0
  -24.9770  -34.7004   19.8840 C   0  0  0  0  0  0  0  0  0  0  0  0
  -20.3991  -26.1427   24.2602 C   0  0  0  0  0  0  0  0  0  0  0  0
  -20.3723  -24.2722   22.6050 C   0  0  0  0  0  0  0  0  0  0  0  0
  -26.0829  -31.5275   23.5643 C   0  0  1  0  0  0  0  0  0  0  0  0
  -25.8645  -35.0543   22.1918 C   0  0  2  0  0  0  0  0  0  0  0  0
  -26.5848  -31.2679   25.0128 C   0  0  0  0  0  0  0  0  0  0  0  0
  -26.0654  -16.7104   20.5244 N   0  0  0  0  0  0  0  0  0  0  0  0
  -18.2725  -28.8503   21.8044 N   0  0  0  0  0  0  0  0  0  0  0  0
  -20.1568  -27.4055   22.2158 N   0  0  0  0  0  0  0  0  0  0  0  0
  -26.4277  -17.9154   20.9964 N   0  0  0  0  0  0  0  0  0  0  0  0
  -25.8176  -29.7649   21.8477 N   0  0  0  0  0  0  0  0  0  0  0  0
  -22.9917  -19.4170   21.7321 N   0  0  0  0  0  0  0  0  0  0  0  0
  -21.5229  -21.2822   21.5734 N   0  0  0  0  0  0  0  0  0  0  0  0
  -28.2765  -19.3796   21.2173 N   0  0  0  0  0  0  0  0  0  0  0  0
  -30.0332  -15.7945   19.1061 N   0  0  0  0  0  0  0  0  0  0  0  0
  -26.9011  -26.3416   21.2125 N   0  0  0  0  0  0  0  0  0  0  0  0
  -26.3471  -32.8756   23.0730 N   0  0  0  0  0  0  0  0  0  0  0  0
  -25.0339  -35.5868   21.0749 N   0  3  0  0  0  0  0  0  0  0  0  0
  -21.1881  -25.1687   23.4554 N   0  3  0  0  0  0  0  0  0  0  0  0
  -30.5098  -17.8640   19.9715 O   0  0  0  0  0  0  0  0  0  0  0  0
  -25.8741  -27.4695   22.9719 O   0  0  0  0  0  0  0  0  0  0  0  0
  -27.9278  -30.5786   22.4144 O   0  0  0  0  0  0  0  0  0  0  0  0
  -24.1370  -33.4248   22.6363 O   0  0  0  0  0  0  0  0  0  0  0  0
  -21.8820  -19.9448   19.7828 O   0  0  0  0  0  0  0  0  0  0  0  0
  -27.2947  -11.1729   17.6307 O   0  0  0  0  0  0  0  0  0  0  0  0
  -19.9609  -28.5973   20.2404 O   0  0  0  0  0  0  0  0  0  1  0  0
  -31.4629   -7.8034   18.9257 F   0  0  0  0  0  0  0  0  0  0  0  0
  -29.9136  -11.8941   17.1170 F   0  0  0  0  0  0  0  0  0  0  0  0
  1  2  1  0  0  0  0
  1  5  2  0  0  0  0
  2  6  2  0  0  0  0
  3  8  2  0  0  0  0
  3 15  1  0  0  0  0
  4  9  1  0  0  0  0
  4 15  2  0  0  0  0
  5 17  1  0  0  0  0
  6 19  1  0  0  0  0
  7 10  2  0  0  0  0
  7 18  1  0  0  0  0
  8 22  1  0  0  0  0
  9 22  2  0  0  0  0
 10 23  1  0  0  0  0
 11 12  2  0  0  0  0
 11 24  1  0  0  0  0
 12 25  1  0  0  0  0
 13 20  1  0  0  0  0
 13 23  2  0  0  0  0
 14 25  2  0  0  0  0
 14 26  1  0  0  0  0
 15 27  1  0  0  0  0
 16 27  1  0  0  0  0
 16 30  2  0  0  0  0
 16 32  1  0  0  0  0
 17 19  2  0  0  0  0
 17 37  1  0  0  0  0
 18 20  2  0  0  0  0
 18 38  1  0  0  0  0
 19 48  1  0  0  0  0
 20 39  1  0  0  0  0
 21 28  1  0  0  0  0
 21 29  2  0  0  0  0
 21 52  1  0  0  0  0
 22 82  1  0  0  0  0
 23 83  1  0  0  0  0
 24 26  2  0  0  0  0
 24 82  1  0  0  0  0
 25 84  1  0  0  0  0
 26 85  1  0  0  0  0
 27 64  2  0  0  0  0
 28 53  1  0  0  0  0
 28 65  2  0  0  0  0
 29 59  1  0  0  0  0
 29 66  1  0  0  0  0
 30 67  1  0  0  0  0
 30 71  1  0  0  0  0
 31 65  1  0  0  0  0
 31 66  2  0  0  0  0
 31 83  1  0  0  0  0
 32 72  1  0  0  0  0
 32 77  2  0  0  0  0
 33 49  1  0  0  0  0
 33 73  1  0  0  0  0
 33 78  2  0  0  0  0
 34 61  1  0  0  0  0
 34 68  1  0  0  0  0
 34 79  2  0  0  0  0
 35 62  1  0  0  0  0
 35 74  1  0  0  0  0
 35 80  2  0  0  0  0
 36 69  1  0  0  0  0
 36 70  1  0  0  0  0
 36 81  2  0  0  0  0
 37 40  1  0  0  0  0
 38 49  1  0  0  0  0
 39 68  1  0  0  0  0
 40 42  1  0  0  0  0
 41 43  1  0  0  0  0
 41 44  1  0  0  0  0
 42 48  1  0  0  0  0
 43 51  1  0  0  0  0
 44 69  1  0  0  0  0
 45 50  1  0  0  0  0
 45 70  1  0  0  0  0
 46 50  1  0  0  0  0
 46 70  1  0  0  0  0
 47 51  1  0  0  0  0
 47 69  1  0  0  0  0
 48 73  1  0  0  0  0
 49 68  1  0  0  0  0
 50 60  1  0  0  0  0
 51 67  1  0  0  0  0
 54 62  1  0  0  0  0
 55 63  1  0  0  0  0
 56 63  1  0  0  0  0
 57 63  1  0  0  0  0
 58 75  1  0  0  0  0
 59 76  1  0  0  0  0
 60 76  1  0  0  0  0
 61 63  1  0  0  0  0
 61 74  1  0  0  0  0
 62 75  1  0  0  0  0
 64 67  1  0  0  0  0
M  CHG  2  75   1  76   1
M  ISO  4  31 101  36 100  70 100  83 101
M  END
> <Batch ID>
0192

> <Smiles>
CNC(C)C(=O)NC(C(=O)N1Cc2cc([101O:1][101c:1]3nc(C)c(C)c(CNCC4C[100N:0]([100C:0](=O)N5CCCC(n6nc(-c7ccc(Oc8ccc(F)cc8F)cc7)c(C(N)=O)c6N)C5)C4)n3)ccc2CC1C(=O)NC1CCCc2ccccc21)C(C)(C)C

> <Shape>
0.237

> <Color>
0.059

> <Negative vol penalty>
0.000

$$$$

  -OEChem-04052323293D

 83 91  0     1  0  0  0  0  0999 V2000
  -31.5882  -33.7166   17.8274 C   0  0  0  0  0  0  0  0  0  0  0  0
  -32.2809  -32.5339   18.0660 C   0  0  0  0  0  0  0  0  0  0  0  0
  -23.0784   -9.8587   19.9456 C   0  0  0  0  0  0  0  0  0  0  0  0
  -23.8372   -9.8763   22.2393 C   0  0  0  0  0  0  0  0  0  0  0  0
  -30.3415  -33.9238   18.4162 C   0  0  0  0  0  0  0  0  0  0  0  0
  -31.7277  -31.5582   18.8945 C   0  0  0  0  0  0  0  0  0  0  0  0
  -32.2748  -25.4870   18.3058 C   0  0  0  0  0  0  0  0  0  0  0  0
  -22.3364   -8.7053   20.2000 C   0  0  0  0  0  0  0  0  0  0  0  0
  -23.0952   -8.7229   22.4937 C   0  0  0  0  0  0  0  0  0  0  0  0
  -33.1093  -24.5561   18.9230 C   0  0  0  0  0  0  0  0  0  0  0  0
  -19.8682   -7.9220   23.0980 C   0  0  0  0  0  0  0  0  0  0  0  0
  -19.1108   -7.8855   24.2687 C   0  0  0  0  0  0  0  0  0  0  0  0
  -31.3683  -24.0619   20.5179 C   0  0  0  0  0  0  0  0  0  0  0  0
  -20.3552   -5.9533   25.0136 C   0  0  0  0  0  0  0  0  0  0  0  0
  -29.7628  -17.7379   22.6929 C   0  0  0  0  0  0  0  0  0  0  0  0
  -23.8289  -10.4442   20.9653 C   0  0  0  0  0  0  0  0  0  0  0  0
  -24.1664  -12.9694   20.8351 C   0  0  0  0  0  0  0  0  0  0  0  0
  -29.7684  -32.9460   19.2446 C   0  0  0  0  0  0  0  0  0  0  0  0
  -30.9825  -25.7205   18.7975 C   0  0  0  0  0  0  0  0  0  0  0  0
  -30.4728  -31.7531   19.4960 C   0  0  0  0  0  0  0  0  0  0  0  0
  -30.5184  -24.9944   19.9036 C   0  0  0  0  0  0  0  0  0  0  0  0
  -22.3448   -8.1374   21.4740 C   0  0  0  0  0  0  0  0  0  0  0  0
  -32.6571  -23.8455   20.0310 C   0  0  0  0  0  0  0  0  0  0  0  0
  -20.8691   -6.9740   22.8850 C   0  0  0  0  0  0  0  0  0  0  0  0
  -19.3543   -6.9012   25.2266 C   0  0  0  0  0  0  0  0  0  0  0  0
  -21.1126   -5.9897   23.8429 C   0  0  0  0  0  0  0  0  0  0  0  0
  -24.5960  -11.6353   20.7030 C   0  0  0  0  0  0  0  0  0  0  0  0
  -31.3845  -19.3492   22.7495 C   0  0  0  0  0  0  0  0  0  0  0  0
  -32.1849  -18.5721   21.9414 C   0  0  0  0  0  0  0  0  0  0  0  0
  -30.5628  -16.9610   21.8842 C   0  0  0  0  0  0  0  0  0  0  0  0
  -25.2574  -13.7193   20.4692 C   0  0  0  0  0  0  0  0  0  0  0  0
  -22.8948  -13.4847   21.2513 C   0  0  0  0  0  0  0  0  0  0  0  0
  -29.4651  -28.2358   20.0118 C   0  0  0  0  0  0  0  0  0  0  0  0
  -26.9046  -26.2466   19.9163 C   0  0  0  0  0  0  0  0  0  0  0  0
  -25.7228  -23.0452   19.8743 C   0  0  0  0  0  0  0  0  0  0  0  0
  -30.7217  -14.7751   20.6421 C   0  0  0  0  0  0  0  0  0  0  0  0
  -28.4395  -33.2351   19.8967 C   0  0  0  0  0  0  0  0  0  0  0  0
  -30.0851  -26.7086   18.1041 C   0  0  0  0  0  0  0  0  0  0  0  0
  -29.1323  -25.1933   20.4580 C   0  0  0  0  0  0  0  0  0  0  0  0
  -27.7553  -31.9929   20.4617 C   0  0  0  0  0  0  0  0  0  0  0  0
  -29.6125  -12.3497   18.2832 C   0  0  0  0  0  0  0  0  0  0  0  0
  -28.7478  -31.1531   21.2595 C   0  0  0  0  0  0  0  0  0  0  0  0
  -28.1732  -12.0574   18.7133 C   0  0  0  0  0  0  0  0  0  0  0  0
  -30.5267  -12.5850   19.4843 C   0  0  0  0  0  0  0  0  0  0  0  0
  -28.6179  -13.3118   20.8618 C   0  0  0  0  0  0  0  0  0  0  0  0
  -29.8947  -30.6604   20.3689 C   0  0  1  0  0  0  0  0  0  0  0  0
  -28.9717  -27.2377   19.0029 C   0  0  1  0  0  0  0  0  0  0  0  0
  -27.6459  -13.1320   19.6842 C   0  0  2  0  0  0  0  0  0  0  0  0
  -31.8350  -20.6839   23.2367 C   0  0  0  0  0  0  0  0  0  0  0  0
  -23.5824  -21.7359   19.8335 C   0  0  0  0  0  0  0  0  0  0  0  0
  -26.4760  -26.8594   22.8745 C   0  0  0  0  0  0  0  0  0  0  0  0
  -24.9773  -24.8579   23.0004 C   0  0  0  0  0  0  0  0  0  0  0  0
  -24.3799  -26.7696   21.5134 C   0  0  0  0  0  0  0  0  0  0  0  0
  -26.4110  -21.7794   17.2892 C   0  0  0  0  0  0  0  0  0  0  0  0
  -33.1464  -19.5074   19.1026 C   0  0  0  0  0  0  0  0  0  0  0  0
  -33.5472  -19.0331   21.5141 C   0  0  0  0  0  0  0  0  0  0  0  0
  -34.7435  -20.9109   20.3992 C   0  0  0  0  0  0  0  0  0  0  0  0
  -34.4272  -22.2723   19.8122 C   0  0  0  0  0  0  0  0  0  1  0  0
  -26.2916  -25.2466   20.8667 C   0  0  1  0  0  0  0  0  0  0  0  0
  -24.6862  -22.3656   18.9980 C   0  0  2  0  0  0  0  0  0  0  0  0
  -25.5581  -25.9308   22.0547 C   0  0  0  0  0  0  0  0  0  0  0  0
  -30.1592  -18.9459   23.1400 N   0  0  0  0  0  0  0  0  0  0  0  0
  -25.8612  -11.5400   20.2857 N   0  0  0  0  0  0  0  0  0  0  0  0
  -31.7882  -17.3642   21.4940 N   0  0  0  0  0  0  0  0  0  0  0  0
  -26.2359  -12.8237   20.1523 N   0  0  0  0  0  0  0  0  0  0  0  0
  -28.2948  -26.1751   19.7492 N   0  0  0  0  0  0  0  0  0  0  0  0
  -29.9655  -13.6184   20.3572 N   0  0  0  0  0  0  0  0  0  0  0  0
  -25.4655  -15.0508   20.3909 N   0  0  0  0  0  0  0  0  0  0  0  0
  -21.8843  -12.5752   21.5919 N   0  0  0  0  0  0  0  0  0  0  0  0
  -30.0723  -15.7024   21.4564 N   0  0  0  0  0  0  0  0  0  0  0  0
  -29.4614  -29.5416   19.5597 N   0  0  0  0  0  0  0  0  0  0  0  0
  -25.4400  -24.3824   20.0566 N   0  0  0  0  0  0  0  0  0  0  0  0
  -25.3223  -21.2966   18.1773 N   0  3  0  0  0  0  0  0  0  0  0  0
  -33.5029  -20.0967   20.4449 N   0  3  1  0  0  0  0  0  0  0  0  0
  -22.6564  -14.7152   21.3035 O   0  0  0  0  0  0  0  0  0  0  0  0
  -29.8212  -27.8500   21.1191 O   0  0  0  0  0  0  0  0  0  0  0  0
  -26.1758  -27.0565   19.3378 O   0  0  0  0  0  0  0  0  0  0  0  0
  -26.6851  -22.4487   20.3526 O   0  0  0  0  0  0  0  0  0  0  0  0
  -31.8507  -14.9439   20.1743 O   0  0  0  0  0  0  0  0  0  0  0  0
  -21.6207   -7.0120   21.7226 O   0  0  0  0  0  0  0  0  0  0  0  0
  -33.4698  -22.9369   20.6357 O   0  0  0  0  0  0  0  0  0  1  0  0
  -18.6279   -6.8673   26.3515 F   0  0  0  0  0  0  0  0  0  0  0  0
  -22.0736   -5.0771   23.6444 F   0  0  0  0  0  0  0  0  0  0  0  0
  1  2  1  0  0  0  0
  1  5  2  0  0  0  0
  2  6  2  0  0  0  0
  3  8  2  0  0  0  0
  3 16  1  0  0  0  0
  4  9  1  0  0  0  0
  4 16  2  0  0  0  0
  5 18  1  0  0  0  0
  6 20  1  0  0  0  0
  7 10  2  0  0  0  0
  7 19  1  0  0  0  0
  8 22  1  0  0  0  0
  9 22  2  0  0  0  0
 10 23  1  0  0  0  0
 11 12  2  0  0  0  0
 11 24  1  0  0  0  0
 12 25  1  0  0  0  0
 13 21  1  0  0  0  0
 13 23  2  0  0  0  0
 14 25  2  0  0  0  0
 14 26  1  0  0  0  0
 15 30  1  0  0  0  0
 15 62  2  0  0  0  0
 16 27  1  0  0  0  0
 17 27  1  0  0  0  0
 17 31  2  0  0  0  0
 17 32  1  0  0  0  0
 18 20  2  0  0  0  0
 18 37  1  0  0  0  0
 19 21  2  0  0  0  0
 19 38  1  0  0  0  0
 20 46  1  0  0  0  0
 21 39  1  0  0  0  0
 22 80  1  0  0  0  0
 23 81  1  0  0  0  0
 24 26  2  0  0  0  0
 24 80  1  0  0  0  0
 25 82  1  0  0  0  0
 26 83  1  0  0  0  0
 27 63  2  0  0  0  0
 28 29  2  0  0  0  0
 28 49  1  0  0  0  0
 28 62  1  0  0  0  0
 29 56  1  0  0  0  0
 29 64  1  0  0  0  0
 30 64  2  0  0  0  0
 30 70  1  0  0  0  0
 31 65  1  0  0  0  0
 31 68  1  0  0  0  0
 32 69  1  0  0  0  0
 32 75  2  0  0  0  0
 33 47  1  0  0  0  0
 33 71  1  0  0  0  0
 33 76  2  0  0  0  0
 34 59  1  0  0  0  0
 34 66  1  0  0  0  0
 34 77  2  0  0  0  0
 35 60  1  0  0  0  0
 35 72  1  0  0  0  0
 35 78  2  0  0  0  0
 36 67  1  0  0  0  0
 36 70  1  0  0  0  0
 36 79  2  0  0  0  0
 37 40  1  0  0  0  0
 38 47  1  0  0  0  0
 39 66  1  0  0  0  0
 40 42  1  0  0  0  0
 41 43  1  0  0  0  0
 41 44  1  0  0  0  0
 42 46  1  0  0  0  0
 43 48  1  0  0  0  0
 44 67  1  0  0  0  0
 45 48  1  0  0  0  0
 45 67  1  0  0  0  0
 46 71  1  0  0  0  0
 47 66  1  0  0  0  0
 48 65  1  0  0  0  0
 50 60  1  0  0  0  0
 51 61  1  0  0  0  0
 52 61  1  0  0  0  0
 53 61  1  0  0  0  0
 54 73  1  0  0  0  0
 55 74  1  0  0  0  0
 56 74  1  0  0  0  0
 57 58  1  0  0  0  0
 57 74  1  0  0  0  0
 58 81  1  0  0  0  0
 59 61  1  0  0  0  0
 59 72  1  0  0  0  0
 60 73  1  0  0  0  0
 63 65  1  0  0  0  0
M  CHG  2  73   1  74   1
M  ISO  4  36 100  58 101  70 100  81 101
M  END
> <Batch ID>
0192

> <Smiles>
CNC(C)C(=O)NC(C(=O)N1Cc2cc([101O:1][101CH2:1]CN(C)Cc3nc([100NH:0][100C:0](=O)N4CCCC(n5nc(-c6ccc(Oc7ccc(F)cc7F)cc6)c(C(N)=O)c5N)C4)cnc3C)ccc2CC1C(=O)NC1CCCc2ccccc21)C(C)(C)C

> <Shape>
0.240

> <Color>
0.184

> <Negative vol penalty>
0.000

$$$$

  -OEChem-04052323293D

 81 89  0     1  0  0  0  0  0999 V2000
  -17.5708  -12.5735   23.4101 C   0  0  0  0  0  0  0  0  0  0  0  0
  -18.1502  -13.8081   23.1355 C   0  0  0  0  0  0  0  0  0  0  0  0
  -22.8594  -29.3610   21.5052 C   0  0  0  0  0  0  0  0  0  0  0  0
  -23.7646  -27.7113   23.0206 C   0  0  0  0  0  0  0  0  0  0  0  0
  -18.3725  -11.4967   23.7862 C   0  0  0  0  0  0  0  0  0  0  0  0
  -19.5317  -13.9669   23.2380 C   0  0  0  0  0  0  0  0  0  0  0  0
  -23.0963  -17.5288   19.7578 C   0  0  0  0  0  0  0  0  0  0  0  0
  -21.7579  -29.5276   22.3445 C   0  0  0  0  0  0  0  0  0  0  0  0
  -22.6630  -27.8779   23.8599 C   0  0  0  0  0  0  0  0  0  0  0  0
  -23.6287  -18.8021   19.9556 C   0  0  0  0  0  0  0  0  0  0  0  0
  -18.5305  -30.1249   23.9099 C   0  0  0  0  0  0  0  0  0  0  0  0
  -17.2664  -30.1705   23.3221 C   0  0  0  0  0  0  0  0  0  0  0  0
  -25.6871  -17.8139   20.7338 C   0  0  0  0  0  0  0  0  0  0  0  0
  -17.6024  -27.9516   22.4272 C   0  0  0  0  0  0  0  0  0  0  0  0
  -23.8628  -28.4528   21.8432 C   0  0  0  0  0  0  0  0  0  0  0  0
  -24.9896  -27.8603   19.6326 C   0  0  0  0  0  0  0  0  0  0  0  0
  -19.7656  -11.6398   23.8840 C   0  0  0  0  0  0  0  0  0  0  0  0
  -23.8527  -16.3866   20.0572 C   0  0  0  0  0  0  0  0  0  0  0  0
  -20.3528  -12.8913   23.6171 C   0  0  0  0  0  0  0  0  0  0  0  0
  -25.1630  -16.5273   20.5364 C   0  0  0  0  0  0  0  0  0  0  0  0
  -21.6597  -28.7861   23.5219 C   0  0  0  0  0  0  0  0  0  0  0  0
  -24.9233  -18.9448   20.4464 C   0  0  0  0  0  0  0  0  0  0  0  0
  -19.3306  -28.9926   23.7563 C   0  0  0  0  0  0  0  0  0  0  0  0
  -16.8023  -29.0839   22.5808 C   0  0  0  0  0  0  0  0  0  0  0  0
  -18.8665  -27.9060   23.0150 C   0  0  0  0  0  0  0  0  0  0  0  0
  -25.0006  -28.2798   20.9763 C   0  0  0  0  0  0  0  0  0  0  0  0
  -26.3124  -27.8580   19.2627 C   0  0  0  0  0  0  0  0  0  0  0  0
  -23.8827  -27.5045   18.7937 C   0  0  0  0  0  0  0  0  0  0  0  0
  -23.5409  -13.9575   22.0835 C   0  0  0  0  0  0  0  0  0  0  0  0
  -26.1580  -12.8343   20.5306 C   0  0  0  0  0  0  0  0  0  0  0  0
  -29.2509  -14.1908   19.2611 C   0  0  0  0  0  0  0  0  0  0  0  0
  -31.6513  -26.5112   20.4914 C   0  0  0  0  0  0  0  0  0  0  0  0
  -20.5863  -10.4595   24.3401 C   0  0  0  0  0  0  0  0  0  0  0  0
  -23.2735  -15.0202   19.8130 C   0  0  0  0  0  0  0  0  0  0  0  0
  -26.0236  -15.3328   20.8542 C   0  0  0  0  0  0  0  0  0  0  0  0
  -22.0795  -10.6120   24.0618 C   0  0  0  0  0  0  0  0  0  0  0  0
  -30.3955  -29.7033   21.5620 C   0  0  0  0  0  0  0  0  0  0  0  0
  -22.5633  -11.9949   24.4865 C   0  0  0  0  0  0  0  0  0  0  0  0
  -28.8803  -29.5694   21.4494 C   0  0  0  0  0  0  0  0  0  0  0  0
  -31.0290  -28.3817   21.9756 C   0  0  0  0  0  0  0  0  0  0  0  0
  -29.2002  -27.1068   20.8876 C   0  0  0  0  0  0  0  0  0  0  0  0
  -30.1238  -24.5708   19.6096 C   0  0  0  0  0  0  0  0  0  0  0  0
  -32.1254  -24.5821   18.8822 C   0  0  0  0  0  0  0  0  0  0  0  0
  -21.8502  -13.0965   23.6932 C   0  0  1  0  0  0  0  0  0  0  0  0
  -23.9489  -13.9288   20.6377 C   0  0  1  0  0  0  0  0  0  0  0  0
  -28.5117  -28.4280   20.4907 C   0  0  1  0  0  0  0  0  0  0  0  0
  -31.1249  -23.4735   19.2252 C   0  0  0  0  0  0  0  0  0  0  0  0
  -30.7218  -13.4169   17.3811 C   0  0  0  0  0  0  0  0  0  0  0  0
  -27.6780  -11.3457   22.7178 C   0  0  0  0  0  0  0  0  0  0  0  0
  -29.8069  -11.9186   21.5315 C   0  0  0  0  0  0  0  0  0  0  0  0
  -28.0930  -10.5025   20.4003 C   0  0  0  0  0  0  0  0  0  0  0  0
  -31.7983  -22.1364   17.3463 C   0  0  0  0  0  0  0  0  0  0  0  0
  -29.1303  -16.8295   17.9263 C   0  0  0  0  0  0  0  0  0  0  0  0
  -29.5917  -21.8925   18.2650 C   0  0  0  0  0  0  0  0  0  0  0  0
  -28.3895  -22.6324   18.8208 C   0  0  0  0  0  0  0  0  0  0  0  0
  -26.0548  -22.2902   19.6398 C   0  0  0  0  0  0  0  0  0  0  0  0
  -24.9827  -21.2282   19.7843 C   0  0  0  0  0  0  0  0  0  1  0  0
  -27.6503  -12.9720   20.7127 C   0  0  1  0  0  0  0  0  0  0  0  0
  -29.6276  -14.3848   17.8034 C   0  0  2  0  0  0  0  0  0  0  0  0
  -28.2891  -11.7052   21.3488 C   0  0  0  0  0  0  0  0  0  0  0  0
  -26.2327  -28.5261   21.4295 N   0  0  0  0  0  0  0  0  0  0  0  0
  -27.0082  -28.2604   20.3646 N   0  0  0  0  0  0  0  0  0  0  0  0
  -25.4102  -14.0179   20.6045 N   0  0  0  0  0  0  0  0  0  0  0  0
  -30.6458  -27.2835   21.0832 N   0  0  0  0  0  0  0  0  0  0  0  0
  -31.2754  -25.4627   19.6840 N   0  0  0  0  0  0  0  0  0  0  0  0
  -26.9365  -27.5511   18.1057 N   0  0  0  0  0  0  0  0  0  0  0  0
  -22.5902  -27.5621   19.3328 N   0  0  0  0  0  0  0  0  0  0  0  0
  -22.4142  -13.2087   22.3651 N   0  0  0  0  0  0  0  0  0  0  0  0
  -28.1909  -13.3204   19.4032 N   0  0  0  0  0  0  0  0  0  0  0  0
  -30.6837  -22.8300   17.9947 N   0  0  1  0  0  0  0  0  0  0  0  0
  -30.1154  -15.7743   17.5750 N   0  3  0  0  0  0  0  0  0  0  0  0
  -27.2729  -21.6803   19.0403 N   0  3  0  0  0  0  0  0  0  0  0  0
  -24.0365  -27.1303   17.6063 O   0  0  0  0  0  0  0  0  0  0  0  0
  -24.2004  -14.6095   22.8846 O   0  0  0  0  0  0  0  0  0  0  0  0
  -25.6745  -11.7186   20.3231 O   0  0  0  0  0  0  0  0  0  0  0  0
  -29.8405  -14.7521   20.1819 O   0  0  0  0  0  0  0  0  0  0  0  0
  -32.8518  -26.7301   20.7008 O   0  0  0  0  0  0  0  0  0  0  0  0
  -20.5851  -28.9486   24.3412 O   0  0  0  0  0  0  0  0  0  0  0  0
  -25.4488  -20.1953   20.6425 O   0  0  0  0  0  0  0  0  0  1  0  0
  -15.5877  -29.1272   22.0176 F   0  0  0  0  0  0  0  0  0  0  0  0
  -19.6302  -26.8151   22.8650 F   0  0  0  0  0  0  0  0  0  0  0  0
  1  2  1  0  0  0  0
  1  5  2  0  0  0  0
  2  6  2  0  0  0  0
  3  8  2  0  0  0  0
  3 15  1  0  0  0  0
  4  9  1  0  0  0  0
  4 15  2  0  0  0  0
  5 17  1  0  0  0  0
  6 19  1  0  0  0  0
  7 10  2  0  0  0  0
  7 18  1  0  0  0  0
  8 21  1  0  0  0  0
  9 21  2  0  0  0  0
 10 22  1  0  0  0  0
 11 12  2  0  0  0  0
 11 23  1  0  0  0  0
 12 24  1  0  0  0  0
 13 20  1  0  0  0  0
 13 22  2  0  0  0  0
 14 24  2  0  0  0  0
 14 25  1  0  0  0  0
 15 26  1  0  0  0  0
 16 26  1  0  0  0  0
 16 27  2  0  0  0  0
 16 28  1  0  0  0  0
 17 19  2  0  0  0  0
 17 33  1  0  0  0  0
 18 20  2  0  0  0  0
 18 34  1  0  0  0  0
 19 44  1  0  0  0  0
 20 35  1  0  0  0  0
 21 78  1  0  0  0  0
 22 79  1  0  0  0  0
 23 25  2  0  0  0  0
 23 78  1  0  0  0  0
 24 80  1  0  0  0  0
 25 81  1  0  0  0  0
 26 61  2  0  0  0  0
 27 62  1  0  0  0  0
 27 66  1  0  0  0  0
 28 67  1  0  0  0  0
 28 73  2  0  0  0  0
 29 45  1  0  0  0  0
 29 68  1  0  0  0  0
 29 74  2  0  0  0  0
 30 58  1  0  0  0  0
 30 63  1  0  0  0  0
 30 75  2  0  0  0  0
 31 59  1  0  0  0  0
 31 69  1  0  0  0  0
 31 76  2  0  0  0  0
 32 64  1  0  0  0  0
 32 65  1  0  0  0  0
 32 77  2  0  0  0  0
 33 36  1  0  0  0  0
 34 45  1  0  0  0  0
 35 63  1  0  0  0  0
 36 38  1  0  0  0  0
 37 39  1  0  0  0  0
 37 40  1  0  0  0  0
 38 44  1  0  0  0  0
 39 46  1  0  0  0  0
 40 64  1  0  0  0  0
 41 46  1  0  0  0  0
 41 64  1  0  0  0  0
 42 47  1  0  0  0  0
 42 65  1  0  0  0  0
 43 47  1  0  0  0  0
 43 65  1  0  0  0  0
 44 68  1  0  0  0  0
 45 63  1  0  0  0  0
 46 62  1  0  0  0  0
 47 70  1  0  0  0  0
 48 59  1  0  0  0  0
 49 60  1  0  0  0  0
 50 60  1  0  0  0  0
 51 60  1  0  0  0  0
 52 70  1  0  0  0  0
 53 71  1  0  0  0  0
 54 55  1  0  0  0  0
 54 70  1  0  0  0  0
 55 72  1  0  0  0  0
 56 57  1  0  0  0  0
 56 72  1  0  0  0  0
 57 79  1  0  0  0  0
 58 60  1  0  0  0  0
 58 69  1  0  0  0  0
 59 71  1  0  0  0  0
 61 62  1  0  0  0  0
M  CHG  2  71   1  72   1
M  ISO  4  32 100  57 101  65 100  79 101
M  END
> <Batch ID>
0192

> <Smiles>
CNC(C)C(=O)NC(C(=O)N1Cc2cc([101O:1][101CH2:1]CNCCN(C)C3C[100N:0]([100C:0](=O)N4CCCC(n5nc(-c6ccc(Oc7ccc(F)cc7F)cc6)c(C(N)=O)c5N)C4)C3)ccc2CC1C(=O)NC1CCCc2ccccc21)C(C)(C)C

> <Shape>
0.264

> <Color>
0.062

> <Negative vol penalty>
0.000

$$$$

  -OEChem-04052323293D

 80 89  0     1  0  0  0  0  0999 V2000
  -22.4767  -10.0330   17.3881 C   0  0  0  0  0  0  0  0  0  0  0  0
  -23.2254  -11.0755   16.8512 C   0  0  0  0  0  0  0  0  0  0  0  0
  -21.2810  -28.5575   21.1583 C   0  0  0  0  0  0  0  0  0  0  0  0
  -22.5465  -27.4393   22.8861 C   0  0  0  0  0  0  0  0  0  0  0  0
  -22.1231  -10.0527   18.7366 C   0  0  0  0  0  0  0  0  0  0  0  0
  -23.6200  -12.1388   17.6624 C   0  0  0  0  0  0  0  0  0  0  0  0
  -28.9833  -16.8077   18.5301 C   0  0  0  0  0  0  0  0  0  0  0  0
  -20.1767  -27.7565   21.4487 C   0  0  0  0  0  0  0  0  0  0  0  0
  -21.4421  -26.6383   23.1766 C   0  0  0  0  0  0  0  0  0  0  0  0
  -29.2094  -18.1782   18.6503 C   0  0  0  0  0  0  0  0  0  0  0  0
  -16.9098  -26.2523   21.9781 C   0  0  0  0  0  0  0  0  0  0  0  0
  -15.6643  -26.8735   22.0697 C   0  0  0  0  0  0  0  0  0  0  0  0
  -28.6082  -18.0665   20.9838 C   0  0  0  0  0  0  0  0  0  0  0  0
  -16.4859  -28.2548   23.8736 C   0  0  0  0  0  0  0  0  0  0  0  0
  -31.1047  -22.9318   19.2489 C   0  0  0  0  0  0  0  0  0  0  0  0
  -22.4660  -28.3989   21.8770 C   0  0  0  0  0  0  0  0  0  0  0  0
  -23.9282  -30.4715   22.1487 C   0  0  0  0  0  0  0  0  0  0  0  0
  -22.5218  -11.1121   19.5670 C   0  0  0  0  0  0  0  0  0  0  0  0
  -28.5567  -16.0570   19.6350 C   0  0  0  0  0  0  0  0  0  0  0  0
  -23.2702  -12.1734   19.0230 C   0  0  0  0  0  0  0  0  0  0  0  0
  -28.3799  -16.6862   20.8756 C   0  0  0  0  0  0  0  0  0  0  0  0
  -20.2572  -26.7969   22.4578 C   0  0  0  0  0  0  0  0  0  0  0  0
  -29.0191  -18.8083   19.8766 C   0  0  0  0  0  0  0  0  0  0  0  0
  -17.9434  -26.6323   22.8343 C   0  0  0  0  0  0  0  0  0  0  0  0
  -15.4523  -27.8747   23.0174 C   0  0  0  0  0  0  0  0  0  0  0  0
  -17.7314  -27.6336   23.7820 C   0  0  0  0  0  0  0  0  0  0  0  0
  -23.6073  -29.2256   21.5771 C   0  0  0  0  0  0  0  0  0  0  0  0
  -29.9304  -22.2465   19.1094 C   0  0  0  0  0  0  0  0  0  0  0  0
  -25.0985  -30.8410   21.5319 C   0  0  0  0  0  0  0  0  0  0  0  0
  -29.4332  -24.3606   19.5515 C   0  0  0  0  0  0  0  0  0  0  0  0
  -23.2308  -31.2272   23.1478 C   0  0  0  0  0  0  0  0  0  0  0  0
  -25.9709  -14.3385   20.3160 C   0  0  0  0  0  0  0  0  0  0  0  0
  -27.6568  -13.5755   22.9801 C   0  0  0  0  0  0  0  0  0  0  0  0
  -30.1228  -14.4109   25.1864 C   0  0  0  0  0  0  0  0  0  0  0  0
  -29.4905  -27.8607   18.9385 C   0  0  0  0  0  0  0  0  0  0  0  0
  -22.0754  -11.1129   21.0076 C   0  0  0  0  0  0  0  0  0  0  0  0
  -28.3429  -14.5748   19.4953 C   0  0  0  0  0  0  0  0  0  0  0  0
  -27.9424  -15.9216   22.0973 C   0  0  0  0  0  0  0  0  0  0  0  0
  -28.6986  -25.6258   19.8251 C   0  0  0  0  0  0  0  0  0  0  0  0
  -22.8519  -12.0911   21.8853 C   0  0  0  0  0  0  0  0  0  0  0  0
  -27.5196  -30.3131   17.4508 C   0  0  0  0  0  0  0  0  0  0  0  0
  -22.9691  -13.4478   21.1981 C   0  0  0  0  0  0  0  0  0  0  0  0
  -26.3163  -30.4367   18.3842 C   0  0  0  0  0  0  0  0  0  0  0  0
  -31.6779  -25.3661   19.7415 C   0  0  0  0  0  0  0  0  0  0  0  0
  -27.9359  -28.8561   17.2895 C   0  0  0  0  0  0  0  0  0  0  0  0
  -30.9349  -26.5078   20.4317 C   0  0  0  0  0  0  0  0  0  0  0  0
  -27.0576  -28.2899   19.5330 C   0  0  0  0  0  0  0  0  0  0  0  0
  -23.7382  -13.3321   19.8764 C   0  0  1  0  0  0  0  0  0  0  0  0
  -27.4145  -14.0018   20.5617 C   0  0  1  0  0  0  0  0  0  0  0  0
  -26.5915  -29.7467   19.7312 C   0  0  2  0  0  0  0  0  0  0  0  0
  -31.2444  -13.6094   27.2833 C   0  0  0  0  0  0  0  0  0  0  0  0
  -25.2460  -14.4849   24.6144 C   0  0  0  0  0  0  0  0  0  0  0  0
  -26.7304  -14.5668   26.6289 C   0  0  0  0  0  0  0  0  0  0  0  0
  -26.3475  -12.4014   25.4511 C   0  0  0  0  0  0  0  0  0  0  0  0
  -32.7516  -14.2098   23.8418 C   0  0  0  0  0  0  0  0  0  0  0  0
  -29.6639  -20.8360   18.8142 C   0  0  0  0  0  0  0  0  0  1  0  0
  -27.7956  -14.1652   24.3629 C   0  0  1  0  0  0  0  0  0  0  0  0
  -31.2737  -13.6062   25.7628 C   0  0  2  0  0  0  0  0  0  0  0  0
  -26.5363  -13.9196   25.2410 C   0  0  0  0  0  0  0  0  0  0  0  0
  -24.5014  -28.8302   20.6671 N   0  0  0  0  0  0  0  0  0  0  0  0
  -30.7733  -24.2420   19.5273 N   0  0  0  0  0  0  0  0  0  0  0  0
  -25.3956  -29.8334   20.6621 N   0  0  0  0  0  0  0  0  0  0  0  0
  -28.9162  -23.1515   19.3015 N   0  3  0  0  0  0  0  0  0  0  0  0
  -27.7402  -14.4756   21.9084 N   0  0  0  0  0  0  0  0  0  0  0  0
  -29.6395  -26.7506   19.7834 N   0  0  0  0  0  0  0  0  0  0  0  0
  -28.1829  -28.2279   18.5878 N   0  0  0  0  0  0  0  0  0  0  0  0
  -25.8920  -31.9263   21.6541 N   0  0  0  0  0  0  0  0  0  0  0  0
  -22.0438  -30.7013   23.6758 N   0  0  0  0  0  0  0  0  0  0  0  0
  -25.1604  -13.2355   20.1261 N   0  0  0  0  0  0  0  0  0  0  0  0
  -29.0279  -13.6167   24.9187 N   0  0  0  0  0  0  0  0  0  0  0  0
  -32.5774  -14.1740   25.3167 N   0  3  0  0  0  0  0  0  0  0  0  0
  -23.6393  -32.3435   23.5483 O   0  0  0  0  0  0  0  0  0  0  0  0
  -25.6182  -15.5119   20.3012 O   0  0  0  0  0  0  0  0  0  0  0  0
  -27.4880  -12.3599   22.8552 O   0  0  0  0  0  0  0  0  0  0  0  0
  -30.1872  -15.6234   24.9964 O   0  0  0  0  0  0  0  0  0  0  0  0
  -30.4720  -28.4833   18.5132 O   0  0  0  0  0  0  0  0  0  0  0  0
  -19.1796  -26.0152   22.7416 O   0  0  0  0  0  0  0  0  0  0  0  0
  -29.2393  -20.1513   19.9971 O   0  0  0  0  0  0  0  0  0  1  0  0
  -14.2567  -28.4722   23.1043 F   0  0  0  0  0  0  0  0  0  0  0  0
  -18.7209  -28.0038   24.6065 F   0  0  0  0  0  0  0  0  0  0  0  0
  1  2  1  0  0  0  0
  1  5  2  0  0  0  0
  2  6  2  0  0  0  0
  3  8  2  0  0  0  0
  3 16  1  0  0  0  0
  4  9  1  0  0  0  0
  4 16  2  0  0  0  0
  5 18  1  0  0  0  0
  6 20  1  0  0  0  0
  7 10  2  0  0  0  0
  7 19  1  0  0  0  0
  8 22  1  0  0  0  0
  9 22  2  0  0  0  0
 10 23  1  0  0  0  0
 11 12  2  0  0  0  0
 11 24  1  0  0  0  0
 12 25  1  0  0  0  0
 13 21  1  0  0  0  0
 13 23  2  0  0  0  0
 14 25  2  0  0  0  0
 14 26  1  0  0  0  0
 15 28  2  0  0  0  0
 15 61  1  0  0  0  0
 16 27  1  0  0  0  0
 17 27  1  0  0  0  0
 17 29  2  0  0  0  0
 17 31  1  0  0  0  0
 18 20  2  0  0  0  0
 18 36  1  0  0  0  0
 19 21  2  0  0  0  0
 19 37  1  0  0  0  0
 20 48  1  0  0  0  0
 21 38  1  0  0  0  0
 22 77  1  0  0  0  0
 23 78  1  0  0  0  0
 24 26  2  0  0  0  0
 24 77  1  0  0  0  0
 25 79  1  0  0  0  0
 26 80  1  0  0  0  0
 27 60  2  0  0  0  0
 28 56  1  0  0  0  0
 28 63  1  0  0  0  0
 29 62  1  0  0  0  0
 29 67  1  0  0  0  0
 30 39  1  0  0  0  0
 30 61  1  0  0  0  0
 30 63  2  0  0  0  0
 31 68  1  0  0  0  0
 31 72  2  0  0  0  0
 32 49  1  0  0  0  0
 32 69  1  0  0  0  0
 32 73  2  0  0  0  0
 33 57  1  0  0  0  0
 33 64  1  0  0  0  0
 33 74  2  0  0  0  0
 34 58  1  0  0  0  0
 34 70  1  0  0  0  0
 34 75  2  0  0  0  0
 35 65  1  0  0  0  0
 35 66  1  0  0  0  0
 35 76  2  0  0  0  0
 36 40  1  0  0  0  0
 37 49  1  0  0  0  0
 38 64  1  0  0  0  0
 39 65  1  0  0  0  0
 40 42  1  0  0  0  0
 41 43  1  0  0  0  0
 41 45  1  0  0  0  0
 42 48  1  0  0  0  0
 43 50  1  0  0  0  0
 44 46  1  0  0  0  0
 44 61  1  0  0  0  0
 45 66  1  0  0  0  0
 46 65  1  0  0  0  0
 47 50  1  0  0  0  0
 47 66  1  0  0  0  0
 48 69  1  0  0  0  0
 49 64  1  0  0  0  0
 50 62  1  0  0  0  0
 51 58  1  0  0  0  0
 52 59  1  0  0  0  0
 53 59  1  0  0  0  0
 54 59  1  0  0  0  0
 55 71  1  0  0  0  0
 56 78  1  0  0  0  0
 57 59  1  0  0  0  0
 57 70  1  0  0  0  0
 58 71  1  0  0  0  0
 60 62  1  0  0  0  0
M  CHG  2  63   1  71   1
M  ISO  4  35 100  56 101  65 100  78 101
M  END
> <Batch ID>
0192

> <Smiles>
CNC(C)C(=O)NC(C(=O)N1Cc2cc([101O:1][101CH2:1]c3cn4c(n3)C[100N:0]([100C:0](=O)N3CCCC(n5nc(-c6ccc(Oc7ccc(F)cc7F)cc6)c(C(N)=O)c5N)C3)CC4)ccc2CC1C(=O)NC1CCCc2ccccc21)C(C)(C)C

> <Shape>
0.272

> <Color>
0.067

> <Negative vol penalty>
0.000

$$$$

  -OEChem-04052323293D

 86 95  0     1  0  0  0  0  0999 V2000
  -30.3939  -32.2452   25.1480 C   0  0  0  0  0  0  0  0  0  0  0  0
  -29.9884  -31.0718   24.5201 C   0  0  0  0  0  0  0  0  0  0  0  0
  -26.4494   -7.1242   19.6769 C   0  0  0  0  0  0  0  0  0  0  0  0
  -26.0450   -6.7756   22.0332 C   0  0  0  0  0  0  0  0  0  0  0  0
  -29.4465  -33.0858   25.7309 C   0  0  0  0  0  0  0  0  0  0  0  0
  -28.6353  -30.7379   24.4757 C   0  0  0  0  0  0  0  0  0  0  0  0
  -27.1818  -29.1239   19.9011 C   0  0  0  0  0  0  0  0  0  0  0  0
  -26.8720   -5.8006   19.5536 C   0  0  0  0  0  0  0  0  0  0  0  0
  -26.4675   -5.4520   21.9099 C   0  0  0  0  0  0  0  0  0  0  0  0
  -27.5091  -27.8137   19.5545 C   0  0  0  0  0  0  0  0  0  0  0  0
  -29.6543   -4.0021   20.2230 C   0  0  0  0  0  0  0  0  0  0  0  0
  -30.8169   -3.7592   19.4915 C   0  0  0  0  0  0  0  0  0  0  0  0
  -25.2673  -27.1141   20.1057 C   0  0  0  0  0  0  0  0  0  0  0  0
  -28.3951  -23.4724   17.1789 C   0  0  0  0  0  0  0  0  0  0  0  0
  -29.5639   -2.3725   17.9605 C   0  0  0  0  0  0  0  0  0  0  0  0
  -26.0359   -7.6117   20.9167 C   0  0  0  0  0  0  0  0  0  0  0  0
  -24.2897   -9.4712   20.8930 C   0  0  0  0  0  0  0  0  0  0  0  0
  -28.0802  -32.7668   25.6852 C   0  0  0  0  0  0  0  0  0  0  0  0
  -25.8957  -29.4375   20.3638 C   0  0  0  0  0  0  0  0  0  0  0  0
  -27.6689  -31.5743   25.0597 C   0  0  0  0  0  0  0  0  0  0  0  0
  -24.9254  -28.4295   20.4551 C   0  0  0  0  0  0  0  0  0  0  0  0
  -28.5404  -22.1264   16.8922 C   0  0  0  0  0  0  0  0  0  0  0  0
  -26.8810   -4.9645   20.6701 C   0  0  0  0  0  0  0  0  0  0  0  0
  -26.5527  -26.8081   19.6595 C   0  0  0  0  0  0  0  0  0  0  0  0
  -28.4465   -3.4301   19.8232 C   0  0  0  0  0  0  0  0  0  0  0  0
  -30.7717   -2.9445   18.3603 C   0  0  0  0  0  0  0  0  0  0  0  0
  -28.4013   -2.6154   18.6920 C   0  0  0  0  0  0  0  0  0  0  0  0
  -25.5999   -8.9790   21.0449 C   0  0  0  0  0  0  0  0  0  0  0  0
  -28.3564  -23.8496   18.5062 C   0  0  0  0  0  0  0  0  0  0  0  0
  -28.6376  -21.2469   17.9517 C   0  0  0  0  0  0  0  0  0  0  0  0
  -24.4028  -10.8222   21.1132 C   0  0  0  0  0  0  0  0  0  0  0  0
  -23.0787   -8.7699   20.5809 C   0  0  0  0  0  0  0  0  0  0  0  0
  -24.7090  -30.6063   23.0711 C   0  0  0  0  0  0  0  0  0  0  0  0
  -21.9331  -30.6193   21.3927 C   0  0  0  0  0  0  0  0  0  0  0  0
  -20.1027  -29.3431   18.8105 C   0  0  0  0  0  0  0  0  0  0  0  0
  -26.7807  -15.5895   20.4506 C   0  0  0  0  0  0  0  0  0  0  0  0
  -27.0975  -33.6828   26.3706 C   0  0  0  0  0  0  0  0  0  0  0  0
  -25.5506  -30.8605   20.7082 C   0  0  0  0  0  0  0  0  0  0  0  0
  -23.5244  -28.7177   20.9271 C   0  0  0  0  0  0  0  0  0  0  0  0
  -25.6488  -33.4441   25.9529 C   0  0  0  0  0  0  0  0  0  0  0  0
  -28.2388  -13.5648   22.9241 C   0  0  0  0  0  0  0  0  0  0  0  0
  -25.3280  -31.9529   25.9668 C   0  0  0  0  0  0  0  0  0  0  0  0
  -27.5741  -12.2174   22.6436 C   0  0  0  0  0  0  0  0  0  0  0  0
  -28.6128  -14.2991   21.6352 C   0  0  0  0  0  0  0  0  0  0  0  0
  -28.9685  -16.8400   20.1780 C   0  0  0  0  0  0  0  0  0  0  0  0
  -26.8539  -18.0630   20.5259 C   0  0  0  0  0  0  0  0  0  0  0  0
  -26.8220  -13.1134   20.4080 C   0  0  0  0  0  0  0  0  0  0  0  0
  -29.2078  -17.6040   18.8797 C   0  0  0  0  0  0  0  0  0  0  0  0
  -27.0474  -18.8249   19.2249 C   0  0  0  0  0  0  0  0  0  0  0  0
  -26.2080  -31.1900   24.9692 C   0  0  1  0  0  0  0  0  0  0  0  0
  -24.3609  -30.9740   21.6564 C   0  0  1  0  0  0  0  0  0  0  0  0
  -26.3819  -12.3789   21.6839 C   0  0  1  0  0  0  0  0  0  0  0  0
  -27.2072  -21.6389   14.8254 C   0  0  0  0  0  0  0  0  0  0  0  0
  -17.8540  -29.5244   17.7114 C   0  0  0  0  0  0  0  0  0  0  0  0
  -20.6912  -29.0199   23.6752 C   0  0  0  0  0  0  0  0  0  0  0  0
  -18.8039  -28.4276   22.1405 C   0  0  0  0  0  0  0  0  0  0  0  0
  -19.2217  -30.8133   22.7378 C   0  0  0  0  0  0  0  0  0  0  0  0
  -21.2980  -30.2013   16.2427 C   0  0  0  0  0  0  0  0  0  0  0  0
  -28.5885  -21.6663   15.4763 C   0  0  0  0  0  0  0  0  0  0  0  0
  -28.7959  -19.7733   17.7182 C   0  0  0  0  0  0  0  0  0  0  0  0
  -28.2008  -25.2868   18.8688 C   0  0  0  0  0  0  0  0  0  1  0  0
  -20.8140  -29.6310   21.1697 C   0  0  1  0  0  0  0  0  0  0  0  0
  -19.2920  -30.0194   17.7197 C   0  0  2  0  0  0  0  0  0  0  0  0
  -19.9096  -29.4668   22.4237 C   0  0  0  0  0  0  0  0  0  0  0  0
  -26.4806   -9.9392   21.3386 N   0  0  0  0  0  0  0  0  0  0  0  0
  -28.4538  -22.9670   19.5229 N   0  0  0  0  0  0  0  0  0  0  0  0
  -28.5970  -21.6443   19.2411 N   0  0  0  0  0  0  0  0  0  0  0  0
  -25.7225  -11.0483   21.3730 N   0  0  0  0  0  0  0  0  0  0  0  0
  -23.2376  -30.1233   21.2581 N   0  0  0  0  0  0  0  0  0  0  0  0
  -27.4553  -14.3927   20.7347 N   0  0  0  0  0  0  0  0  0  0  0  0
  -27.5357  -16.7710   20.4899 N   0  0  0  0  0  0  0  0  0  0  0  0
  -23.5012  -11.8269   21.1078 N   0  0  0  0  0  0  0  0  0  0  0  0
  -23.1409   -7.3834   20.3857 N   0  0  0  0  0  0  0  0  0  0  0  0
  -25.7184  -31.3740   23.6198 N   0  0  0  0  0  0  0  0  0  0  0  0
  -20.1050  -30.0797   19.9762 N   0  0  0  0  0  0  0  0  0  0  0  0
  -28.5272  -18.9501   18.9468 N   0  3  0  0  0  0  0  0  0  0  0  0
  -19.8913  -29.7448   16.3832 N   0  3  0  0  0  0  0  0  0  0  0  0
  -21.9770   -9.3578   20.4621 O   0  0  0  0  0  0  0  0  0  0  0  0
  -24.1053  -29.6945   23.6243 O   0  0  0  0  0  0  0  0  0  0  0  0
  -21.6598  -31.7901   21.6690 O   0  0  0  0  0  0  0  0  0  0  0  0
  -20.6736  -28.2672   18.6462 O   0  0  0  0  0  0  0  0  0  0  0  0
  -25.5739  -15.6015   20.1769 O   0  0  0  0  0  0  0  0  0  0  0  0
  -27.2931   -3.6728   20.5500 O   0  0  0  0  0  0  0  0  0  0  0  0
  -26.8719  -25.5197   19.3202 O   0  0  0  0  0  0  0  0  0  1  0  0
  -31.8879   -2.7126   17.6571 F   0  0  0  0  0  0  0  0  0  0  0  0
  -27.2437   -2.0641   18.3024 F   0  0  0  0  0  0  0  0  0  0  0  0
  1  2  1  0  0  0  0
  1  5  2  0  0  0  0
  2  6  2  0  0  0  0
  3  8  2  0  0  0  0
  3 16  1  0  0  0  0
  4  9  1  0  0  0  0
  4 16  2  0  0  0  0
  5 18  1  0  0  0  0
  6 20  1  0  0  0  0
  7 10  2  0  0  0  0
  7 19  1  0  0  0  0
  8 23  1  0  0  0  0
  9 23  2  0  0  0  0
 10 24  1  0  0  0  0
 11 12  2  0  0  0  0
 11 25  1  0  0  0  0
 12 26  1  0  0  0  0
 13 21  1  0  0  0  0
 13 24  2  0  0  0  0
 14 22  1  0  0  0  0
 14 29  2  0  0  0  0
 15 26  2  0  0  0  0
 15 27  1  0  0  0  0
 16 28  1  0  0  0  0
 17 28  1  0  0  0  0
 17 31  2  0  0  0  0
 17 32  1  0  0  0  0
 18 20  2  0  0  0  0
 18 37  1  0  0  0  0
 19 21  2  0  0  0  0
 19 38  1  0  0  0  0
 20 50  1  0  0  0  0
 21 39  1  0  0  0  0
 22 30  2  0  0  0  0
 22 59  1  0  0  0  0
 23 83  1  0  0  0  0
 24 84  1  0  0  0  0
 25 27  2  0  0  0  0
 25 83  1  0  0  0  0
 26 85  1  0  0  0  0
 27 86  1  0  0  0  0
 28 65  2  0  0  0  0
 29 61  1  0  0  0  0
 29 66  1  0  0  0  0
 30 60  1  0  0  0  0
 30 67  1  0  0  0  0
 31 68  1  0  0  0  0
 31 72  1  0  0  0  0
 32 73  1  0  0  0  0
 32 78  2  0  0  0  0
 33 51  1  0  0  0  0
 33 74  1  0  0  0  0
 33 79  2  0  0  0  0
 34 62  1  0  0  0  0
 34 69  1  0  0  0  0
 34 80  2  0  0  0  0
 35 63  1  0  0  0  0
 35 75  1  0  0  0  0
 35 81  2  0  0  0  0
 36 70  1  0  0  0  0
 36 71  1  0  0  0  0
 36 82  2  0  0  0  0
 37 40  1  0  0  0  0
 38 51  1  0  0  0  0
 39 69  1  0  0  0  0
 40 42  1  0  0  0  0
 41 43  1  0  0  0  0
 41 44  1  0  0  0  0
 42 50  1  0  0  0  0
 43 52  1  0  0  0  0
 44 70  1  0  0  0  0
 45 48  1  0  0  0  0
 45 71  1  0  0  0  0
 46 49  1  0  0  0  0
 46 71  1  0  0  0  0
 47 52  1  0  0  0  0
 47 70  1  0  0  0  0
 48 76  1  0  0  0  0
 49 76  1  0  0  0  0
 50 74  1  0  0  0  0
 51 69  1  0  0  0  0
 52 68  1  0  0  0  0
 53 59  1  0  0  0  0
 54 63  1  0  0  0  0
 55 64  1  0  0  0  0
 56 64  1  0  0  0  0
 57 64  1  0  0  0  0
 58 77  1  0  0  0  0
 60 76  1  0  0  0  0
 61 84  1  0  0  0  0
 62 64  1  0  0  0  0
 62 75  1  0  0  0  0
 63 77  1  0  0  0  0
 65 68  1  0  0  0  0
 66 67  2  0  0  0  0
M  CHG  2  76   1  77   1
M  ISO  4  36 100  61 101  71 100  84 101
M  END
> <Batch ID>
0192

> <Smiles>
CCc1cc([101CH2:1][101O:1]c2ccc3c(c2)CN(C(=O)C(NC(=O)C(C)NC)C(C)(C)C)C(C(=O)NC2CCCc4ccccc42)C3)nnc1CN1CC[100N:0]([100C:0](=O)N2CCCC(n3nc(-c4ccc(Oc5ccc(F)cc5F)cc4)c(C(N)=O)c3N)C2)CC1

> <Shape>
0.262

> <Color>
0.064

> <Negative vol penalty>
0.000

$$$$

  -OEChem-04052323293D

 82 91  0     1  0  0  0  0  0999 V2000
  -22.1098  -31.5312   14.4361 C   0  0  0  0  0  0  0  0  0  0  0  0
  -23.2345  -30.9263   14.9882 C   0  0  0  0  0  0  0  0  0  0  0  0
  -26.1187  -11.9677   21.1279 C   0  0  0  0  0  0  0  0  0  0  0  0
  -25.5947  -13.8468   19.7025 C   0  0  0  0  0  0  0  0  0  0  0  0
  -21.5168  -32.6166   15.0797 C   0  0  0  0  0  0  0  0  0  0  0  0
  -23.7674  -31.4072   16.1837 C   0  0  0  0  0  0  0  0  0  0  0  0
  -24.9438  -27.6933   19.4191 C   0  0  0  0  0  0  0  0  0  0  0  0
  -24.7578  -11.7557   21.3487 C   0  0  0  0  0  0  0  0  0  0  0  0
  -24.2338  -13.6347   19.9232 C   0  0  0  0  0  0  0  0  0  0  0  0
  -26.1259  -26.9932   19.1822 C   0  0  0  0  0  0  0  0  0  0  0  0
  -22.3063  -13.0915   23.2539 C   0  0  0  0  0  0  0  0  0  0  0  0
  -21.8933  -12.8476   24.5637 C   0  0  0  0  0  0  0  0  0  0  0  0
  -27.2379  -28.3120   20.8684 C   0  0  0  0  0  0  0  0  0  0  0  0
  -21.0201  -10.6986   23.8880 C   0  0  0  0  0  0  0  0  0  0  0  0
  -26.5371  -13.0133   20.3048 C   0  0  0  0  0  0  0  0  0  0  0  0
  -28.7350  -12.6784   19.0538 C   0  0  0  0  0  0  0  0  0  0  0  0
  -22.0369  -33.1049   16.2887 C   0  0  0  0  0  0  0  0  0  0  0  0
  -24.9026  -28.7172   20.3764 C   0  0  0  0  0  0  0  0  0  0  0  0
  -23.1815  -32.5010   16.8433 C   0  0  0  0  0  0  0  0  0  0  0  0
  -26.0534  -29.0219   21.1174 C   0  0  0  0  0  0  0  0  0  0  0  0
  -23.8154  -12.5892   20.7464 C   0  0  0  0  0  0  0  0  0  0  0  0
  -27.2740  -27.3044   19.9048 C   0  0  0  0  0  0  0  0  0  0  0  0
  -22.0761  -12.1391   22.2611 C   0  0  0  0  0  0  0  0  0  0  0  0
  -21.2503  -11.6511   24.8808 C   0  0  0  0  0  0  0  0  0  0  0  0
  -21.4331  -10.9426   22.5782 C   0  0  0  0  0  0  0  0  0  0  0  0
  -27.9427  -13.2332   20.0768 C   0  0  0  0  0  0  0  0  0  0  0  0
  -29.9888  -13.1948   19.2723 C   0  0  0  0  0  0  0  0  0  0  0  0
  -28.3701  -11.7769   18.0003 C   0  0  0  0  0  0  0  0  0  0  0  0
  -24.3189  -31.8408   20.2964 C   0  0  0  0  0  0  0  0  0  0  0  0
  -24.5107  -31.5642   23.5227 C   0  0  0  0  0  0  0  0  0  0  0  0
  -25.6903  -29.8335   26.2171 C   0  0  0  0  0  0  0  0  0  0  0  0
  -31.9351  -18.1690   21.9780 C   0  0  0  0  0  0  0  0  0  0  0  0
  -21.3897  -34.3104   16.9232 C   0  0  0  0  0  0  0  0  0  0  0  0
  -23.6127  -29.4450   20.6389 C   0  0  0  0  0  0  0  0  0  0  0  0
  -26.0564  -30.0987   22.1705 C   0  0  0  0  0  0  0  0  0  0  0  0
  -21.7931  -34.5222   18.3801 C   0  0  0  0  0  0  0  0  0  0  0  0
  -32.8133  -14.8127   22.7788 C   0  0  0  0  0  0  0  0  0  0  0  0
  -23.3037  -34.3846   18.5412 C   0  0  0  0  0  0  0  0  0  0  0  0
  -30.1555  -20.1690   18.5400 C   0  0  0  0  0  0  0  0  0  0  0  0
  -31.7361  -13.9773   22.0848 C   0  0  0  0  0  0  0  0  0  0  0  0
  -31.5874  -19.7593   18.1533 C   0  0  0  0  0  0  0  0  0  0  0  0
  -32.2458  -16.1181   23.3321 C   0  0  0  0  0  0  0  0  0  0  0  0
  -30.4391  -16.1063   21.6560 C   0  0  0  0  0  0  0  0  0  0  0  0
  -31.8094  -22.6189   18.9050 C   0  0  0  0  0  0  0  0  0  0  0  0
  -23.7742  -32.9781   18.1515 C   0  0  1  0  0  0  0  0  0  0  0  0
  -23.8190  -30.8161   21.2751 C   0  0  1  0  0  0  0  0  0  0  0  0
  -30.2834  -20.8398   19.9259 C   0  0  2  0  0  0  0  0  0  0  0  0
  -30.9749  -14.8060   21.0327 C   0  0  2  0  0  0  0  0  0  0  0  0
  -30.6061  -22.3509   19.8150 C   0  0  2  0  0  0  0  0  0  0  0  0
  -31.5100  -20.1435   20.5358 C   0  0  2  0  0  0  0  0  0  0  0  0
  -32.4572  -20.1801   19.3419 C   0  0  2  0  0  0  0  0  0  0  0  0
  -25.7146  -29.8719   28.7262 C   0  0  0  0  0  0  0  0  0  0  0  0
  -26.5842  -33.8019   23.4659 C   0  0  0  0  0  0  0  0  0  0  0  0
  -27.2482  -33.1509   25.7905 C   0  0  0  0  0  0  0  0  0  0  0  0
  -24.9319  -33.9579   25.3368 C   0  0  0  0  0  0  0  0  0  0  0  0
  -24.3097  -27.2212   26.3861 C   0  0  0  0  0  0  0  0  0  0  0  0
  -29.5287  -24.4935   19.7148 C   0  0  0  0  0  0  0  0  0  0  0  0
  -28.3094  -25.2691   19.2405 C   0  0  0  0  0  0  0  0  0  1  0  0
  -25.6221  -31.6600   24.5397 C   0  0  1  0  0  0  0  0  0  0  0  0
  -25.0060  -29.3537   27.4844 C   0  0  2  0  0  0  0  0  0  0  0  0
  -26.0974  -33.1236   24.7621 C   0  0  0  0  0  0  0  0  0  0  0  0
  -28.6352  -14.0401   20.8851 N   0  0  0  0  0  0  0  0  0  0  0  0
  -29.8758  -13.9961   20.3702 N   0  0  0  0  0  0  0  0  0  0  0  0
  -24.7725  -30.7861   22.3861 N   0  0  0  0  0  0  0  0  0  0  0  0
  -31.5378  -16.8569   22.2839 N   0  0  0  0  0  0  0  0  0  0  0  0
  -31.1659  -13.0371   18.6305 N   0  0  0  0  0  0  0  0  0  0  0  0
  -27.0391  -11.3450   17.9216 N   0  0  0  0  0  0  0  0  0  0  0  0
  -23.4853  -32.0365   19.2118 N   0  0  0  0  0  0  0  0  0  0  0  0
  -25.1303  -31.0018   25.7452 N   0  0  0  0  0  0  0  0  0  0  0  0
  -31.2156  -18.7953   20.9676 N   0  0  0  0  0  0  0  0  0  0  0  0
  -29.4574  -23.0949   19.3158 N   0  0  0  0  0  0  0  0  0  0  0  0
  -32.8966  -21.6172   19.1674 N   0  3  0  0  0  0  0  0  0  0  0  0
  -24.9964  -27.8644   27.5358 N   0  3  0  0  0  0  0  0  0  0  0  0
  -29.2034  -11.3536   17.1637 O   0  0  0  0  0  0  0  0  0  0  0  0
  -25.3815  -32.4126   20.5101 O   0  0  0  0  0  0  0  0  0  0  0  0
  -23.4467  -32.1520   23.7324 O   0  0  0  0  0  0  0  0  0  0  0  0
  -26.6303  -29.2341   25.6998 O   0  0  0  0  0  0  0  0  0  0  0  0
  -32.8659  -18.7381   22.5583 O   0  0  0  0  0  0  0  0  0  0  0  0
  -22.4874  -12.3824   20.9614 O   0  0  0  0  0  0  0  0  0  0  0  0
  -28.4293  -26.6230   19.6751 O   0  0  0  0  0  0  0  0  0  1  0  0
  -20.8551  -11.4162   26.1389 F   0  0  0  0  0  0  0  0  0  0  0  0
  -21.2102  -10.0232   21.6290 F   0  0  0  0  0  0  0  0  0  0  0  0
  1  2  1  0  0  0  0
  1  5  2  0  0  0  0
  2  6  2  0  0  0  0
  3  8  2  0  0  0  0
  3 15  1  0  0  0  0
  4  9  1  0  0  0  0
  4 15  2  0  0  0  0
  5 17  1  0  0  0  0
  6 19  1  0  0  0  0
  7 10  2  0  0  0  0
  7 18  1  0  0  0  0
  8 21  1  0  0  0  0
  9 21  2  0  0  0  0
 10 22  1  0  0  0  0
 11 12  2  0  0  0  0
 11 23  1  0  0  0  0
 12 24  1  0  0  0  0
 13 20  1  0  0  0  0
 13 22  2  0  0  0  0
 14 24  2  0  0  0  0
 14 25  1  0  0  0  0
 15 26  1  0  0  0  0
 16 26  1  0  0  0  0
 16 27  2  0  0  0  0
 16 28  1  0  0  0  0
 17 19  2  0  0  0  0
 17 33  1  0  0  0  0
 18 20  2  0  0  0  0
 18 34  1  0  0  0  0
 19 45  1  0  0  0  0
 20 35  1  0  0  0  0
 21 79  1  0  0  0  0
 22 80  1  0  0  0  0
 23 25  2  0  0  0  0
 23 79  1  0  0  0  0
 24 81  1  0  0  0  0
 25 82  1  0  0  0  0
 26 62  2  0  0  0  0
 27 63  1  0  0  0  0
 27 66  1  0  0  0  0
 28 67  1  0  0  0  0
 28 74  2  0  0  0  0
 29 46  1  0  0  0  0
 29 68  1  0  0  0  0
 29 75  2  0  0  0  0
 30 59  1  0  0  0  0
 30 64  1  0  0  0  0
 30 76  2  0  0  0  0
 31 60  1  0  0  0  0
 31 69  1  0  0  0  0
 31 77  2  0  0  0  0
 32 65  1  0  0  0  0
 32 70  1  0  0  0  0
 32 78  2  0  0  0  0
 33 36  1  0  0  0  0
 34 46  1  0  0  0  0
 35 64  1  0  0  0  0
 36 38  1  0  0  0  0
 37 40  1  0  0  0  0
 37 42  1  0  0  0  0
 38 45  1  0  0  0  0
 39 41  1  0  0  0  0
 39 47  1  0  0  0  0
 40 48  1  0  0  0  0
 41 51  1  0  0  0  0
 42 65  1  0  0  0  0
 43 48  1  0  0  0  0
 43 65  1  0  0  0  0
 44 49  1  0  0  0  0
 44 72  1  0  0  0  0
 45 68  1  0  0  0  0
 46 64  1  0  0  0  0
 47 49  1  0  0  0  0
 47 50  1  0  0  0  0
 48 63  1  0  0  0  0
 49 71  1  0  0  0  0
 50 51  1  0  0  0  0
 50 70  1  0  0  0  0
 51 72  1  0  0  0  0
 52 60  1  0  0  0  0
 53 61  1  0  0  0  0
 54 61  1  0  0  0  0
 55 61  1  0  0  0  0
 56 73  1  0  0  0  0
 57 58  1  0  0  0  0
 57 71  1  0  0  0  0
 58 80  1  0  0  0  0
 59 61  1  0  0  0  0
 59 69  1  0  0  0  0
 60 73  1  0  0  0  0
 62 63  1  0  0  0  0
M  CHG  2  72   1  73   1
M  ISO  4  32 100  58 101  70 100  80 101
M  END
> <Batch ID>
0192

> <Smiles>
CNC(C)C(=O)NC(C(=O)N1Cc2cc([101O:1][101CH2:1]CNC3CNC4CCC3C4[100NH:0][100C:0](=O)N3CCCC(n4nc(-c5ccc(Oc6ccc(F)cc6F)cc5)c(C(N)=O)c4N)C3)ccc2CC1C(=O)NC1CCCc2ccccc21)C(C)(C)C

> <Shape>
0.286

> <Color>
0.090

> <Negative vol penalty>
0.000

$$$$

  -OEChem-04052323293D

 83 92  0     1  0  0  0  0  0999 V2000
  -29.1956  -23.2231   19.7723 C   0  0  0  0  0  0  0  0  0  0  0  0
  -27.8546  -23.5885   19.7129 C   0  0  0  0  0  0  0  0  0  0  0  0
  -26.4410  -13.5718   20.1741 C   0  0  0  0  0  0  0  0  0  0  0  0
  -24.2969  -13.7540   21.2726 C   0  0  0  0  0  0  0  0  0  0  0  0
  -30.0401  -23.8244   20.7046 C   0  0  0  0  0  0  0  0  0  0  0  0
  -27.3570  -24.5548   20.5865 C   0  0  0  0  0  0  0  0  0  0  0  0
  -23.0069  -28.6992   19.4010 C   0  0  0  0  0  0  0  0  0  0  0  0
  -26.4510  -12.1991   20.4212 C   0  0  0  0  0  0  0  0  0  0  0  0
  -24.3069  -12.3812   21.5197 C   0  0  0  0  0  0  0  0  0  0  0  0
  -21.6419  -28.7331   19.6827 C   0  0  0  0  0  0  0  0  0  0  0  0
  -23.6870   -9.5381   19.8013 C   0  0  0  0  0  0  0  0  0  0  0  0
  -22.5136   -8.8273   19.5495 C   0  0  0  0  0  0  0  0  0  0  0  0
  -18.3211  -26.4458   23.3947 C   0  0  0  0  0  0  0  0  0  0  0  0
  -22.0890  -30.0364   21.6628 C   0  0  0  0  0  0  0  0  0  0  0  0
  -22.4232   -8.1552   21.8684 C   0  0  0  0  0  0  0  0  0  0  0  0
  -17.5369  -27.4685   22.9013 C   0  0  0  0  0  0  0  0  0  0  0  0
  -25.3639  -14.3493   20.5998 C   0  0  0  0  0  0  0  0  0  0  0  0
  -24.8301  -16.4245   19.2156 C   0  0  0  0  0  0  0  0  0  0  0  0
  -29.5549  -24.8055   21.5835 C   0  0  0  0  0  0  0  0  0  0  0  0
  -23.9257  -29.3255   20.2554 C   0  0  0  0  0  0  0  0  0  0  0  0
  -28.1955  -25.1688   21.5323 C   0  0  0  0  0  0  0  0  0  0  0  0
  -23.4649  -30.0112   21.3884 C   0  0  0  0  0  0  0  0  0  0  0  0
  -25.3839  -11.6038   21.0940 C   0  0  0  0  0  0  0  0  0  0  0  0
  -21.1830  -29.3993   20.8153 C   0  0  0  0  0  0  0  0  0  0  0  0
  -24.2286   -9.5574   21.0866 C   0  0  0  0  0  0  0  0  0  0  0  0
  -21.8817   -8.1359   20.5831 C   0  0  0  0  0  0  0  0  0  0  0  0
  -23.5967   -8.8660   22.1202 C   0  0  0  0  0  0  0  0  0  0  0  0
  -25.3533  -15.7675   20.3453 C   0  0  0  0  0  0  0  0  0  0  0  0
  -19.6578  -26.5020   23.0567 C   0  0  0  0  0  0  0  0  0  0  0  0
  -25.0644  -17.7567   19.4539 C   0  0  0  0  0  0  0  0  0  0  0  0
  -19.3305  -28.4167   21.8761 C   0  0  0  0  0  0  0  0  0  1  0  0
  -24.1894  -15.8794   18.0545 C   0  0  0  0  0  0  0  0  0  0  0  0
  -26.3633  -28.3371   22.0401 C   0  0  0  0  0  0  0  0  0  0  0  0
  -26.7936  -31.5160   22.5215 C   0  0  0  0  0  0  0  0  0  0  0  0
  -25.4396  -34.6483   22.5698 C   0  0  0  0  0  0  0  0  0  0  0  0
  -25.0437  -22.1658   22.8751 C   0  0  0  0  0  0  0  0  0  0  0  0
  -30.4951  -25.3934   22.6058 C   0  0  0  0  0  0  0  0  0  0  0  0
  -25.3925  -29.3026   19.9232 C   0  0  0  0  0  0  0  0  0  0  0  0
  -24.4085  -30.7168   22.3266 C   0  0  0  0  0  0  0  0  0  0  0  0
  -29.9745  -26.6786   23.2442 C   0  0  0  0  0  0  0  0  0  0  0  0
  -27.8842  -20.0222   22.9898 C   0  0  0  0  0  0  0  0  0  0  0  0
  -28.5163  -26.5150   23.6608 C   0  0  0  0  0  0  0  0  0  0  0  0
  -27.4337  -18.7767   22.2246 C   0  0  0  0  0  0  0  0  0  0  0  0
  -22.0772  -23.4837   20.9420 C   0  0  0  0  0  0  0  0  0  0  0  0
  -26.7444  -20.6250   23.8080 C   0  0  0  0  0  0  0  0  0  0  0  0
  -25.0670  -19.6682   22.2767 C   0  0  0  0  0  0  0  0  0  0  0  0
  -21.3230  -24.7759   21.2142 C   0  0  0  0  0  0  0  0  0  0  0  0
  -22.7061  -24.1414   23.1294 C   0  0  0  0  0  0  0  0  0  0  0  0
  -27.6241  -26.2309   22.4464 C   0  0  1  0  0  0  0  0  0  0  0  0
  -26.2842  -29.5366   21.1387 C   0  0  1  0  0  0  0  0  0  0  0  0
  -26.1676  -19.0570   21.3928 C   0  0  2  0  0  0  0  0  0  0  0  0
  -23.2909  -23.5745   21.8509 C   0  0  1  0  0  0  0  0  0  0  0  0
  -26.0295  -37.0423   23.0367 C   0  0  0  0  0  0  0  0  0  0  0  0
  -26.7399  -30.9423   25.5178 C   0  0  0  0  0  0  0  0  0  0  0  0
  -26.3758  -33.3883   25.9089 C   0  0  0  0  0  0  0  0  0  0  0  0
  -28.4695  -32.6018   24.8041 C   0  0  0  0  0  0  0  0  0  0  0  0
  -24.7747  -35.4723   19.8061 C   0  0  0  0  0  0  0  0  0  0  0  0
  -20.5844  -25.4392   23.5440 C   0  0  0  0  0  0  0  0  0  0  0  0
  -26.2891  -32.5230   23.5267 C   0  0  1  0  0  0  0  0  0  0  0  0
  -25.9156  -35.9607   21.9737 C   0  0  2  0  0  0  0  0  0  0  0  0
  -26.9507  -32.3490   24.9230 C   0  0  0  0  0  0  0  0  0  0  0  0
  -18.0104  -28.4738   22.1361 N   0  0  0  0  0  0  0  0  0  0  0  0
  -25.8805  -16.6126   21.2352 N   0  0  0  0  0  0  0  0  0  0  0  0
  -20.1984  -27.4767   22.2964 N   0  0  0  0  0  0  0  0  0  0  0  0
  -25.6898  -17.8143   20.6646 N   0  0  0  0  0  0  0  0  0  0  0  0
  -25.8338  -30.6606   21.9621 N   0  0  0  0  0  0  0  0  0  0  0  0
  -25.5747  -20.8682   22.9601 N   0  0  0  0  0  0  0  0  0  0  0  0
  -24.7947  -18.8727   18.7439 N   0  0  0  0  0  0  0  0  0  0  0  0
  -24.0290  -14.4895   17.9705 N   0  0  0  0  0  0  0  0  0  0  0  0
  -27.3701  -27.4503   21.7095 N   0  0  0  0  0  0  0  0  0  0  0  0
  -26.4956  -33.8369   22.9272 N   0  0  0  0  0  0  0  0  0  0  0  0
  -23.9391  -22.3105   22.0446 N   0  0  0  0  0  0  0  0  0  0  0  0
  -21.7307  -25.1823   22.6195 N   0  3  2  0  0  0  0  0  0  0  0  0
  -24.9644  -36.4293   20.9265 N   0  3  0  0  0  0  0  0  0  0  0  0
  -23.7861  -16.6020   17.1118 O   0  0  0  0  0  0  0  0  0  0  0  0
  -25.5705  -28.2252   22.9678 O   0  0  0  0  0  0  0  0  0  0  0  0
  -27.9938  -31.4941   22.2375 O   0  0  0  0  0  0  0  0  0  0  0  0
  -24.2500  -34.3722   22.7082 O   0  0  0  0  0  0  0  0  0  0  0  0
  -25.5220  -23.1255   23.4893 O   0  0  0  0  0  0  0  0  0  0  0  0
  -25.3932  -10.2642   21.3351 O   0  0  0  0  0  0  0  0  0  0  0  0
  -19.8512  -29.4333   21.0930 O   0  0  0  0  0  0  0  0  0  1  0  0
  -20.7540   -7.4546   20.3415 F   0  0  0  0  0  0  0  0  0  0  0  0
  -24.1116   -8.8819   23.3573 F   0  0  0  0  0  0  0  0  0  0  0  0
  1  2  1  0  0  0  0
  1  5  2  0  0  0  0
  2  6  2  0  0  0  0
  3  8  2  0  0  0  0
  3 17  1  0  0  0  0
  4  9  1  0  0  0  0
  4 17  2  0  0  0  0
  5 19  1  0  0  0  0
  6 21  1  0  0  0  0
  7 10  2  0  0  0  0
  7 20  1  0  0  0  0
  8 23  1  0  0  0  0
  9 23  2  0  0  0  0
 10 24  1  0  0  0  0
 11 12  2  0  0  0  0
 11 25  1  0  0  0  0
 12 26  1  0  0  0  0
 13 16  1  0  0  0  0
 13 29  2  0  0  0  0
 14 22  1  0  0  0  0
 14 24  2  0  0  0  0
 15 26  2  0  0  0  0
 15 27  1  0  0  0  0
 16 62  2  0  0  0  0
 17 28  1  0  0  0  0
 18 28  1  0  0  0  0
 18 30  2  0  0  0  0
 18 32  1  0  0  0  0
 19 21  2  0  0  0  0
 19 37  1  0  0  0  0
 20 22  2  0  0  0  0
 20 38  1  0  0  0  0
 21 49  1  0  0  0  0
 22 39  1  0  0  0  0
 23 80  1  0  0  0  0
 24 81  1  0  0  0  0
 25 27  2  0  0  0  0
 25 80  1  0  0  0  0
 26 82  1  0  0  0  0
 27 83  1  0  0  0  0
 28 63  2  0  0  0  0
 29 58  1  0  0  0  0
 29 64  1  0  0  0  0
 30 65  1  0  0  0  0
 30 68  1  0  0  0  0
 31 62  1  0  0  0  0
 31 64  2  0  0  0  0
 31 81  1  0  0  0  0
 32 69  1  0  0  0  0
 32 75  2  0  0  0  0
 33 50  1  0  0  0  0
 33 70  1  0  0  0  0
 33 76  2  0  0  0  0
 34 59  1  0  0  0  0
 34 66  1  0  0  0  0
 34 77  2  0  0  0  0
 35 60  1  0  0  0  0
 35 71  1  0  0  0  0
 35 78  2  0  0  0  0
 36 67  1  0  0  0  0
 36 72  1  0  0  0  0
 36 79  2  0  0  0  0
 37 40  1  0  0  0  0
 38 50  1  0  0  0  0
 39 66  1  0  0  0  0
 40 42  1  0  0  0  0
 41 43  1  0  0  0  0
 41 45  1  0  0  0  0
 42 49  1  0  0  0  0
 43 51  1  0  0  0  0
 44 47  1  0  0  0  0
 44 52  1  0  0  0  0
 45 67  1  0  0  0  0
 46 51  1  0  0  0  0
 46 67  1  0  0  0  0
 47 73  1  0  0  0  0
 48 52  1  0  0  0  0
 48 73  1  0  0  0  0
 49 70  1  0  0  0  0
 50 66  1  0  0  0  0
 51 65  1  0  0  0  0
 52 72  1  0  0  0  0
 53 60  1  0  0  0  0
 54 61  1  0  0  0  0
 55 61  1  0  0  0  0
 56 61  1  0  0  0  0
 57 74  1  0  0  0  0
 58 73  1  0  0  0  0
 59 61  1  0  0  0  0
 59 71  1  0  0  0  0
 60 74  1  0  0  0  0
 63 65  1  0  0  0  0
M  CHG  2  73   1  74   1
M  ISO  4  31 101  36 100  72 100  81 101
M  END
> <Batch ID>
0192

> <Smiles>
CNC(C)C(=O)NC(C(=O)N1Cc2cc([101O:1][101c:1]3nccc(CN4CCC([100NH:0][100C:0](=O)N5CCCC(n6nc(-c7ccc(Oc8ccc(F)cc8F)cc7)c(C(N)=O)c6N)C5)C4)n3)ccc2CC1C(=O)NC1CCCc2ccccc21)C(C)(C)C

> <Shape>
0.270

> <Color>
0.069

> <Negative vol penalty>
0.000

$$$$

  -OEChem-04052323293D

 86 95  0     1  0  0  0  0  0999 V2000
  -30.3539  -30.4431   26.0749 C   0  0  0  0  0  0  0  0  0  0  0  0
  -29.8466  -29.2499   25.5705 C   0  0  0  0  0  0  0  0  0  0  0  0
  -23.8093  -18.0319   24.3244 C   0  0  0  0  0  0  0  0  0  0  0  0
  -24.5281  -19.1139   22.2873 C   0  0  0  0  0  0  0  0  0  0  0  0
  -29.5824  -31.6034   26.0255 C   0  0  0  0  0  0  0  0  0  0  0  0
  -28.5670  -29.2162   25.0172 C   0  0  0  0  0  0  0  0  0  0  0  0
  -28.4015  -26.6400   20.6606 C   0  0  0  0  0  0  0  0  0  0  0  0
  -24.1516  -19.1723   25.0509 C   0  0  0  0  0  0  0  0  0  0  0  0
  -24.8704  -20.2544   23.0138 C   0  0  0  0  0  0  0  0  0  0  0  0
  -28.3943  -25.2483   20.7437 C   0  0  0  0  0  0  0  0  0  0  0  0
  -23.2801  -22.9012   24.3871 C   0  0  0  0  0  0  0  0  0  0  0  0
  -22.8916  -24.1374   23.8709 C   0  0  0  0  0  0  0  0  0  0  0  0
  -26.0056  -25.2464   20.4073 C   0  0  0  0  0  0  0  0  0  0  0  0
  -25.2065  -24.8207   23.7651 C   0  0  0  0  0  0  0  0  0  0  0  0
  -23.9976  -18.0026   22.9426 C   0  0  0  0  0  0  0  0  0  0  0  0
  -22.4012  -16.5352   21.5988 C   0  0  0  0  0  0  0  0  0  0  0  0
  -28.2965  -31.5860   25.4626 C   0  0  0  0  0  0  0  0  0  0  0  0
  -27.2072  -27.3472   20.4607 C   0  0  0  0  0  0  0  0  0  0  0  0
  -27.7772  -30.3771   24.9614 C   0  0  0  0  0  0  0  0  0  0  0  0
  -26.0006  -26.6469   20.3195 C   0  0  0  0  0  0  0  0  0  0  0  0
  -24.6821  -20.2836   24.3956 C   0  0  0  0  0  0  0  0  0  0  0  0
  -27.1959  -24.5514   20.6199 C   0  0  0  0  0  0  0  0  0  0  0  0
  -24.6318  -22.6247   24.5924 C   0  0  0  0  0  0  0  0  0  0  0  0
  -23.8548  -25.0971   23.5599 C   0  0  0  0  0  0  0  0  0  0  0  0
  -25.5950  -23.5845   24.2814 C   0  0  0  0  0  0  0  0  0  0  0  0
  -23.6448  -16.8247   22.1916 C   0  0  0  0  0  0  0  0  0  0  0  0
  -22.5794  -15.3078   21.0088 C   0  0  0  0  0  0  0  0  0  0  0  0
  -32.3627  -16.1338   20.5027 C   0  0  0  0  0  0  0  0  0  0  0  0
  -30.6440  -15.2703   19.3464 C   0  0  0  0  0  0  0  0  0  0  0  0
  -30.7940  -17.4897   19.6438 C   0  0  0  0  0  0  0  0  0  0  0  0
  -21.1929  -17.3070   21.5829 C   0  0  0  0  0  0  0  0  0  0  0  0
  -25.5749  -29.5085   22.1245 C   0  0  0  0  0  0  0  0  0  0  0  0
  -23.7370  -29.6056   19.4533 C   0  0  0  0  0  0  0  0  0  0  0  0
  -22.6398  -28.0288   16.6326 C   0  0  0  0  0  0  0  0  0  0  0  0
  -28.0353  -12.6646   19.5357 C   0  0  0  0  0  0  0  0  0  0  0  0
  -27.4818  -32.8551   25.4743 C   0  0  0  0  0  0  0  0  0  0  0  0
  -27.2354  -28.8467   20.3467 C   0  0  0  0  0  0  0  0  0  0  0  0
  -24.6940  -27.3579   20.0836 C   0  0  0  0  0  0  0  0  0  0  0  0
  -26.2813  -32.8170   24.5322 C   0  0  0  0  0  0  0  0  0  0  0  0
  -25.3414  -11.3845   21.6905 C   0  0  0  0  0  0  0  0  0  0  0  0
  -25.5189  -31.5055   24.6918 C   0  0  0  0  0  0  0  0  0  0  0  0
  -24.3452  -12.5345   21.8497 C   0  0  0  0  0  0  0  0  0  0  0  0
  -27.4186  -21.0101   18.3607 C   0  0  0  0  0  0  0  0  0  0  0  0
  -26.0632  -11.4057   20.3501 C   0  0  0  0  0  0  0  0  0  0  0  0
  -26.0709  -13.8998   20.5740 C   0  0  0  0  0  0  0  0  0  0  0  0
  -26.4032  -30.3058   24.3310 C   0  0  1  0  0  0  0  0  0  0  0  0
  -25.8893  -29.4949   20.6552 C   0  0  1  0  0  0  0  0  0  0  0  0
  -28.8063  -20.5099   18.6655 C   0  0  1  0  0  0  0  0  0  0  0  0
  -27.9847  -21.1602   19.7484 C   0  0  1  0  0  0  0  0  0  0  0  0
  -24.5751  -13.6767   20.8459 C   0  0  2  0  0  0  0  0  0  0  0  0
  -33.6233  -15.9450   21.2755 C   0  0  0  0  0  0  0  0  0  0  0  0
  -29.8043  -14.1313   17.2585 C   0  0  0  0  0  0  0  0  0  0  0  0
  -21.1127  -28.3450   14.6665 C   0  0  0  0  0  0  0  0  0  0  0  0
  -21.3243  -29.0799   21.2457 C   0  0  0  0  0  0  0  0  0  0  0  0
  -20.0228  -28.4683   19.1962 C   0  0  0  0  0  0  0  0  0  0  0  0
  -20.9386  -30.7749   19.4478 C   0  0  0  0  0  0  0  0  0  0  0  0
  -24.8765  -27.7897   14.7094 C   0  0  0  0  0  0  0  0  0  0  0  0
  -29.0808  -19.0466   18.7129 C   0  0  0  0  0  0  0  0  0  0  0  0
  -28.3585  -22.5076   20.2631 C   0  0  0  0  0  0  0  0  0  1  0  0
  -29.9273  -14.0881   18.7889 C   0  0  2  0  0  0  0  0  0  0  0  0
  -22.5178  -28.8600   18.9668 C   0  0  1  0  0  0  0  0  0  0  0  0
  -22.5310  -28.4990   15.1933 C   0  0  2  0  0  0  0  0  0  0  0  0
  -21.2250  -29.2822   19.7205 C   0  0  0  0  0  0  0  0  0  0  0  0
  -24.5464  -15.8588   21.9961 N   0  0  0  0  0  0  0  0  0  0  0  0
  -31.7724  -15.0236   20.0310 N   0  0  0  0  0  0  0  0  0  0  0  0
  -31.9329  -17.3967   20.3489 N   0  0  0  0  0  0  0  0  0  0  0  0
  -30.0953  -16.4733   19.1129 N   0  0  0  0  0  0  0  0  0  0  0  0
  -23.8686  -14.9504   21.2740 N   0  0  0  0  0  0  0  0  0  0  0  0
  -24.7726  -28.8248   19.9858 N   0  0  0  0  0  0  0  0  0  0  0  0
  -26.7626  -12.6756   20.1389 N   0  0  0  0  0  0  0  0  0  0  0  0
  -21.7574  -14.5101   20.2942 N   0  0  0  0  0  0  0  0  0  0  0  0
  -21.1827  -18.5458   22.2382 N   0  0  0  0  0  0  0  0  0  0  0  0
  -30.2869  -18.7675   19.4431 N   0  0  0  0  0  0  0  0  0  0  0  0
  -26.5115  -30.1717   22.8941 N   0  0  0  0  0  0  0  0  0  0  0  0
  -22.4623  -29.0660   17.5236 N   0  0  0  0  0  0  0  0  0  0  0  0
  -28.6213  -13.9182   19.3833 N   0  0  0  0  0  0  0  0  0  0  0  0
  -23.4451  -27.7098   14.3201 N   0  3  0  0  0  0  0  0  0  0  0  0
  -20.1482  -16.9023   21.0187 O   0  0  0  0  0  0  0  0  0  0  0  0
  -24.5570  -28.9594   22.5296 O   0  0  0  0  0  0  0  0  0  0  0  0
  -23.7721  -30.8350   19.3577 O   0  0  0  0  0  0  0  0  0  0  0  0
  -22.8565  -26.8577   16.9362 O   0  0  0  0  0  0  0  0  0  0  0  0
  -28.5989  -11.6282   19.1713 O   0  0  0  0  0  0  0  0  0  0  0  0
  -25.0159  -21.3967   25.1042 O   0  0  0  0  0  0  0  0  0  0  0  0
  -27.1861  -23.1931   20.7013 O   0  0  0  0  0  0  0  0  0  1  0  0
  -23.4817  -26.2836   23.0627 F   0  0  0  0  0  0  0  0  0  0  0  0
  -26.8952  -23.3242   24.4753 F   0  0  0  0  0  0  0  0  0  0  0  0
  1  2  1  0  0  0  0
  1  5  2  0  0  0  0
  2  6  2  0  0  0  0
  3  8  2  0  0  0  0
  3 15  1  0  0  0  0
  4  9  1  0  0  0  0
  4 15  2  0  0  0  0
  5 17  1  0  0  0  0
  6 19  1  0  0  0  0
  7 10  2  0  0  0  0
  7 18  1  0  0  0  0
  8 21  1  0  0  0  0
  9 21  2  0  0  0  0
 10 22  1  0  0  0  0
 11 12  2  0  0  0  0
 11 23  1  0  0  0  0
 12 24  1  0  0  0  0
 13 20  1  0  0  0  0
 13 22  2  0  0  0  0
 14 24  2  0  0  0  0
 14 25  1  0  0  0  0
 15 26  1  0  0  0  0
 16 26  1  0  0  0  0
 16 27  2  0  0  0  0
 16 31  1  0  0  0  0
 17 19  2  0  0  0  0
 17 36  1  0  0  0  0
 18 20  2  0  0  0  0
 18 37  1  0  0  0  0
 19 46  1  0  0  0  0
 20 38  1  0  0  0  0
 21 83  1  0  0  0  0
 22 84  1  0  0  0  0
 23 25  2  0  0  0  0
 23 83  1  0  0  0  0
 24 85  1  0  0  0  0
 25 86  1  0  0  0  0
 26 64  2  0  0  0  0
 27 68  1  0  0  0  0
 27 71  1  0  0  0  0
 28 51  1  0  0  0  0
 28 65  1  0  0  0  0
 28 66  2  0  0  0  0
 29 60  1  0  0  0  0
 29 65  2  0  0  0  0
 29 67  1  0  0  0  0
 30 66  1  0  0  0  0
 30 67  2  0  0  0  0
 30 73  1  0  0  0  0
 31 72  1  0  0  0  0
 31 78  2  0  0  0  0
 32 47  1  0  0  0  0
 32 74  1  0  0  0  0
 32 79  2  0  0  0  0
 33 61  1  0  0  0  0
 33 69  1  0  0  0  0
 33 80  2  0  0  0  0
 34 62  1  0  0  0  0
 34 75  1  0  0  0  0
 34 81  2  0  0  0  0
 35 70  1  0  0  0  0
 35 76  1  0  0  0  0
 35 82  2  0  0  0  0
 36 39  1  0  0  0  0
 37 47  1  0  0  0  0
 38 69  1  0  0  0  0
 39 41  1  0  0  0  0
 40 42  1  0  0  0  0
 40 44  1  0  0  0  0
 41 46  1  0  0  0  0
 42 50  1  0  0  0  0
 43 48  1  0  0  0  0
 43 49  1  0  0  0  0
 44 70  1  0  0  0  0
 45 50  1  0  0  0  0
 45 70  1  0  0  0  0
 46 74  1  0  0  0  0
 47 69  1  0  0  0  0
 48 49  1  0  0  0  0
 48 58  1  0  0  0  0
 49 59  1  0  0  0  0
 50 68  1  0  0  0  0
 52 60  1  0  0  0  0
 53 62  1  0  0  0  0
 54 63  1  0  0  0  0
 55 63  1  0  0  0  0
 56 63  1  0  0  0  0
 57 77  1  0  0  0  0
 58 73  1  0  0  0  0
 59 84  1  0  0  0  0
 60 76  1  0  0  0  0
 61 63  1  0  0  0  0
 61 75  1  0  0  0  0
 62 77  1  0  0  0  0
 64 68  1  0  0  0  0
M  CHG  1  77   1
M  ISO  4  35 100  59 101  76 100  84 101
M  END
> <Batch ID>
0192

> <Smiles>
CNC(C)C(=O)NC(C(=O)N1Cc2cc([101O:1][101CH2:1]C3CC3CNc3nc(C)nc(C(C)[100NH:0][100C:0](=O)N4CCCC(n5nc(-c6ccc(Oc7ccc(F)cc7F)cc6)c(C(N)=O)c5N)C4)n3)ccc2CC1C(=O)NC1CCCc2ccccc21)C(C)(C)C

> <Shape>
0.225

> <Color>
0.067

> <Negative vol penalty>
0.000

$$$$

  -OEChem-04052323293D

 84 93  0     1  0  0  0  0  0999 V2000
  -18.2103  -29.1118   25.7998 C   0  0  0  0  0  0  0  0  0  0  0  0
  -19.4429  -28.5739   26.1559 C   0  0  0  0  0  0  0  0  0  0  0  0
  -24.9931  -14.6944   21.8394 C   0  0  0  0  0  0  0  0  0  0  0  0
  -25.4546  -13.6022   19.7343 C   0  0  0  0  0  0  0  0  0  0  0  0
  -17.7876  -29.0642   24.4720 C   0  0  0  0  0  0  0  0  0  0  0  0
  -20.2531  -27.9871   25.1845 C   0  0  0  0  0  0  0  0  0  0  0  0
  -26.3725  -28.0665   24.9559 C   0  0  0  0  0  0  0  0  0  0  0  0
  -24.0657  -13.7004   22.1518 C   0  0  0  0  0  0  0  0  0  0  0  0
  -24.5272  -12.6081   20.0468 C   0  0  0  0  0  0  0  0  0  0  0  0
  -27.3375  -27.1354   25.3372 C   0  0  0  0  0  0  0  0  0  0  0  0
  -22.5445   -9.5874   20.4488 C   0  0  0  0  0  0  0  0  0  0  0  0
  -22.9095   -8.2618   20.2137 C   0  0  0  0  0  0  0  0  0  0  0  0
  -27.4446  -26.3258   23.0673 C   0  0  0  0  0  0  0  0  0  0  0  0
  -24.7701   -8.5043   21.7357 C   0  0  0  0  0  0  0  0  0  0  0  0
  -32.6047  -26.4047   24.3959 C   0  0  0  0  0  0  0  0  0  0  0  0
  -33.0164  -25.9878   22.1854 C   0  0  0  0  0  0  0  0  0  0  0  0
  -25.6875  -14.6453   20.6306 C   0  0  0  0  0  0  0  0  0  0  0  0
  -28.0207  -15.6763   20.6062 C   0  0  0  0  0  0  0  0  0  0  0  0
  -18.5973  -28.4851   23.4822 C   0  0  0  0  0  0  0  0  0  0  0  0
  -25.9275  -28.1271   23.6275 C   0  0  0  0  0  0  0  0  0  0  0  0
  -19.8403  -27.9305   23.8424 C   0  0  0  0  0  0  0  0  0  0  0  0
  -26.4756  -27.2604   22.6712 C   0  0  0  0  0  0  0  0  0  0  0  0
  -23.8328  -12.6573   21.2555 C   0  0  0  0  0  0  0  0  0  0  0  0
  -27.8716  -26.2629   24.3935 C   0  0  0  0  0  0  0  0  0  0  0  0
  -23.2923  -10.3714   21.3272 C   0  0  0  0  0  0  0  0  0  0  0  0
  -24.0223   -7.7203   20.8572 C   0  0  0  0  0  0  0  0  0  0  0  0
  -24.4051   -9.8299   21.9707 C   0  0  0  0  0  0  0  0  0  0  0  0
  -26.6451  -15.6721   20.3070 C   0  0  0  0  0  0  0  0  0  0  0  0
  -31.7300  -25.3412   24.4336 C   0  0  0  0  0  0  0  0  0  0  0  0
  -32.1423  -24.9238   22.2232 C   0  0  0  0  0  0  0  0  0  0  0  0
  -28.4807  -16.8632   20.0903 C   0  0  0  0  0  0  0  0  0  0  0  0
  -28.8120  -14.6950   21.2894 C   0  0  0  0  0  0  0  0  0  0  0  0
  -23.1309  -27.7042   22.1771 C   0  0  0  0  0  0  0  0  0  0  0  0
  -24.7742  -28.7079   19.5666 C   0  0  0  0  0  0  0  0  0  0  0  0
  -27.7856  -29.0756   18.0035 C   0  0  0  0  0  0  0  0  0  0  0  0
  -27.6868  -22.4313   19.5978 C   0  0  0  0  0  0  0  0  0  0  0  0
  -18.0771  -28.4147   22.0683 C   0  0  0  0  0  0  0  0  0  0  0  0
  -24.9054  -29.1552   23.2267 C   0  0  0  0  0  0  0  0  0  0  0  0
  -26.0466  -27.2985   21.2280 C   0  0  0  0  0  0  0  0  0  0  0  0
  -19.1593  -28.1105   21.0355 C   0  0  0  0  0  0  0  0  0  0  0  0
  -26.2571  -20.2245   17.0368 C   0  0  0  0  0  0  0  0  0  0  0  0
  -20.0371  -26.9553   21.5066 C   0  0  0  0  0  0  0  0  0  0  0  0
  -26.3021  -18.8516   17.7092 C   0  0  0  0  0  0  0  0  0  0  0  0
  -31.3542  -22.2104   19.7324 C   0  0  0  0  0  0  0  0  0  0  0  0
  -26.0934  -21.3532   18.0521 C   0  0  0  0  0  0  0  0  0  0  0  0
  -30.0501  -21.4395   19.5558 C   0  0  0  0  0  0  0  0  0  0  0  0
  -27.1253  -19.9721   19.8131 C   0  0  0  0  0  0  0  0  0  0  0  0
  -29.6172  -23.4804   20.7443 C   0  0  0  0  0  0  0  0  0  0  0  0
  -20.7584  -27.3077   22.8132 C   0  0  1  0  0  0  0  0  0  0  0  0
  -24.1518  -28.7837   21.9533 C   0  0  1  0  0  0  0  0  0  0  0  0
  -27.3580  -18.8166   18.8299 C   0  0  1  0  0  0  0  0  0  0  0  0
  -31.0624  -23.0595   20.9648 C   0  0  2  0  0  0  0  0  0  0  0  0
  -28.8066  -29.8933   15.8620 C   0  0  0  0  0  0  0  0  0  0  0  0
  -23.8233  -26.1782   18.1502 C   0  0  0  0  0  0  0  0  0  0  0  0
  -25.5934  -26.5641   16.4222 C   0  0  0  0  0  0  0  0  0  0  0  0
  -23.7765  -28.2434   16.7405 C   0  0  0  0  0  0  0  0  0  0  0  0
  -29.3776  -31.1341   19.4131 C   0  0  0  0  0  0  0  0  0  0  0  0
  -31.0197  -24.9917   25.6945 C   0  0  0  0  0  0  0  0  0  0  0  0
  -29.6732  -25.7088   25.8437 C   0  0  0  0  0  0  0  0  0  1  0  0
  -25.5887  -28.0312   18.4907 C   0  0  1  0  0  0  0  0  0  0  0  0
  -28.4093  -30.2578   17.2840 C   0  0  2  0  0  0  0  0  0  0  0  0
  -24.7024  -27.2520   17.4784 C   0  0  0  0  0  0  0  0  0  0  0  0
  -33.2635  -26.7471   23.2711 N   0  0  0  0  0  0  0  0  0  0  0  0
  -26.2566  -16.7693   19.6520 N   0  0  0  0  0  0  0  0  0  0  0  0
  -31.4832  -24.5816   23.3480 N   0  0  0  0  0  0  0  0  0  0  0  0
  -27.3949  -17.4741   19.5354 N   0  0  0  0  0  0  0  0  0  0  0  0
  -25.0399  -28.3171   20.8867 N   0  0  0  0  0  0  0  0  0  0  0  0
  -27.1009  -21.2586   19.1088 N   0  0  0  0  0  0  0  0  0  0  0  0
  -29.0128  -22.3626   20.0234 N   0  0  0  0  0  0  0  0  0  0  0  0
  -29.7040  -17.4335   20.0618 N   0  0  0  0  0  0  0  0  0  0  0  0
  -28.1806  -13.5334   21.7545 N   0  0  0  0  0  0  0  0  0  0  0  0
  -31.9448  -24.1924   21.0599 N   0  0  0  0  0  0  0  0  0  0  0  0
  -21.8864  -28.1752   22.5496 N   0  0  0  0  0  0  0  0  0  0  0  0
  -26.4118  -29.0729   17.8859 N   0  0  0  0  0  0  0  0  0  0  0  0
  -29.6267  -30.7213   18.0079 N   0  3  0  0  0  0  0  0  0  0  0  0
  -30.0393  -14.8514   21.4961 O   0  0  0  0  0  0  0  0  0  0  0  0
  -23.4484  -26.5308   22.0217 O   0  0  0  0  0  0  0  0  0  0  0  0
  -23.9383  -29.5573   19.2482 O   0  0  0  0  0  0  0  0  0  0  0  0
  -28.4509  -28.2362   18.6064 O   0  0  0  0  0  0  0  0  0  0  0  0
  -27.0682  -23.5038   19.6098 O   0  0  0  0  0  0  0  0  0  0  0  0
  -22.9281  -11.6870   21.5602 O   0  0  0  0  0  0  0  0  0  0  0  0
  -28.8199  -25.3462   24.7657 O   0  0  0  0  0  0  0  0  0  1  0  0
  -24.3719   -6.4469   20.6325 F   0  0  0  0  0  0  0  0  0  0  0  0
  -25.1267  -10.5779   22.8166 F   0  0  0  0  0  0  0  0  0  0  0  0
  1  2  1  0  0  0  0
  1  5  2  0  0  0  0
  2  6  2  0  0  0  0
  3  8  2  0  0  0  0
  3 17  1  0  0  0  0
  4  9  1  0  0  0  0
  4 17  2  0  0  0  0
  5 19  1  0  0  0  0
  6 21  1  0  0  0  0
  7 10  2  0  0  0  0
  7 20  1  0  0  0  0
  8 23  1  0  0  0  0
  9 23  2  0  0  0  0
 10 24  1  0  0  0  0
 11 12  2  0  0  0  0
 11 25  1  0  0  0  0
 12 26  1  0  0  0  0
 13 22  1  0  0  0  0
 13 24  2  0  0  0  0
 14 26  2  0  0  0  0
 14 27  1  0  0  0  0
 15 29  1  0  0  0  0
 15 63  2  0  0  0  0
 16 30  2  0  0  0  0
 16 63  1  0  0  0  0
 17 28  1  0  0  0  0
 18 28  1  0  0  0  0
 18 31  2  0  0  0  0
 18 32  1  0  0  0  0
 19 21  2  0  0  0  0
 19 37  1  0  0  0  0
 20 22  2  0  0  0  0
 20 38  1  0  0  0  0
 21 49  1  0  0  0  0
 22 39  1  0  0  0  0
 23 81  1  0  0  0  0
 24 82  1  0  0  0  0
 25 27  2  0  0  0  0
 25 81  1  0  0  0  0
 26 83  1  0  0  0  0
 27 84  1  0  0  0  0
 28 64  2  0  0  0  0
 29 58  1  0  0  0  0
 29 65  2  0  0  0  0
 30 65  1  0  0  0  0
 30 72  1  0  0  0  0
 31 66  1  0  0  0  0
 31 70  1  0  0  0  0
 32 71  1  0  0  0  0
 32 76  2  0  0  0  0
 33 50  1  0  0  0  0
 33 73  1  0  0  0  0
 33 77  2  0  0  0  0
 34 60  1  0  0  0  0
 34 67  1  0  0  0  0
 34 78  2  0  0  0  0
 35 61  1  0  0  0  0
 35 74  1  0  0  0  0
 35 79  2  0  0  0  0
 36 68  1  0  0  0  0
 36 69  1  0  0  0  0
 36 80  2  0  0  0  0
 37 40  1  0  0  0  0
 38 50  1  0  0  0  0
 39 67  1  0  0  0  0
 40 42  1  0  0  0  0
 41 43  1  0  0  0  0
 41 45  1  0  0  0  0
 42 49  1  0  0  0  0
 43 51  1  0  0  0  0
 44 46  1  0  0  0  0
 44 52  1  0  0  0  0
 45 68  1  0  0  0  0
 46 69  1  0  0  0  0
 47 51  1  0  0  0  0
 47 68  1  0  0  0  0
 48 52  1  0  0  0  0
 48 69  1  0  0  0  0
 49 73  1  0  0  0  0
 50 67  1  0  0  0  0
 51 66  1  0  0  0  0
 52 72  1  0  0  0  0
 53 61  1  0  0  0  0
 54 62  1  0  0  0  0
 55 62  1  0  0  0  0
 56 62  1  0  0  0  0
 57 75  1  0  0  0  0
 58 59  1  0  0  0  0
 59 82  1  0  0  0  0
 60 62  1  0  0  0  0
 60 74  1  0  0  0  0
 61 75  1  0  0  0  0
 64 66  1  0  0  0  0
M  CHG  1  75   1
M  ISO  4  36 100  59 101  69 100  82 101
M  END
> <Batch ID>
0192

> <Smiles>
CNC(C)C(=O)NC(C(=O)N1Cc2cc([101O:1][101CH2:1]Cc3cncc(NC4CC[100N:0]([100C:0](=O)N5CCCC(n6nc(-c7ccc(Oc8ccc(F)cc8F)cc7)c(C(N)=O)c6N)C5)C4)n3)ccc2CC1C(=O)NC1CCCc2ccccc21)C(C)(C)C

> <Shape>
0.214

> <Color>
0.053

> <Negative vol penalty>
0.000

$$$$

  -OEChem-04052323293D

 87 97  0     1  0  0  0  0  0999 V2000
  -17.1254  -30.6698   24.1171 C   0  0  0  0  0  0  0  0  0  0  0  0
  -18.4071  -30.9460   24.5822 C   0  0  0  0  0  0  0  0  0  0  0  0
  -24.5715  -13.9861   19.7347 C   0  0  0  0  0  0  0  0  0  0  0  0
  -25.3904  -14.0493   22.0068 C   0  0  0  0  0  0  0  0  0  0  0  0
  -16.9082  -29.5717   23.2860 C   0  0  0  0  0  0  0  0  0  0  0  0
  -19.4723  -30.1235   24.2173 C   0  0  0  0  0  0  0  0  0  0  0  0
  -25.2627  -31.8351   23.1942 C   0  0  0  0  0  0  0  0  0  0  0  0
  -25.1272  -12.7175   19.5697 C   0  0  0  0  0  0  0  0  0  0  0  0
  -25.9461  -12.7806   21.8418 C   0  0  0  0  0  0  0  0  0  0  0  0
  -26.4064  -31.7982   23.9907 C   0  0  0  0  0  0  0  0  0  0  0  0
  -27.2699   -9.4072   22.1353 C   0  0  0  0  0  0  0  0  0  0  0  0
  -27.0814   -8.4778   23.1582 C   0  0  0  0  0  0  0  0  0  0  0  0
  -27.0381  -29.7028   22.9761 C   0  0  0  0  0  0  0  0  0  0  0  0
  -24.6887   -8.6429   22.8673 C   0  0  0  0  0  0  0  0  0  0  0  0
  -29.6220  -25.0901   24.9507 C   0  0  0  0  0  0  0  0  0  0  0  0
  -24.7032  -14.6521   20.9533 C   0  0  0  0  0  0  0  0  0  0  0  0
  -22.8350  -16.2713   21.5825 C   0  0  0  0  0  0  0  0  0  0  0  0
  -17.9729  -28.7408   22.9029 C   0  0  0  0  0  0  0  0  0  0  0  0
  -24.9921  -30.7989   22.2889 C   0  0  0  0  0  0  0  0  0  0  0  0
  -19.2690  -29.0124   23.3814 C   0  0  0  0  0  0  0  0  0  0  0  0
  -25.8916  -29.7301   22.1674 C   0  0  0  0  0  0  0  0  0  0  0  0
  -25.8144  -12.1146   20.6232 C   0  0  0  0  0  0  0  0  0  0  0  0
  -27.2928  -30.7305   23.8838 C   0  0  0  0  0  0  0  0  0  0  0  0
  -26.1678   -9.9545   21.4785 C   0  0  0  0  0  0  0  0  0  0  0  0
  -25.7908   -8.0956   23.5242 C   0  0  0  0  0  0  0  0  0  0  0  0
  -24.8772   -9.5724   21.8444 C   0  0  0  0  0  0  0  0  0  0  0  0
  -24.1299  -15.9629   21.1242 C   0  0  0  0  0  0  0  0  0  0  0  0
  -28.2482  -25.3972   24.9400 C   0  0  0  0  0  0  0  0  0  0  0  0
  -30.0848  -25.6269   26.1272 C   0  0  0  0  0  0  0  0  0  0  0  0
  -22.7821  -17.6436   21.5643 C   0  0  0  0  0  0  0  0  0  0  0  0
  -21.7749  -15.3955   21.9884 C   0  0  0  0  0  0  0  0  0  0  0  0
  -22.6588  -28.6667   21.9523 C   0  0  0  0  0  0  0  0  0  0  0  0
  -24.2416  -27.9458   19.2142 C   0  0  0  0  0  0  0  0  0  0  0  0
  -27.1762  -27.9689   17.4721 C   0  0  0  0  0  0  0  0  0  0  0  0
  -25.1135  -22.4556   22.8587 C   0  0  0  0  0  0  0  0  0  0  0  0
  -17.6813  -27.5379   22.0411 C   0  0  0  0  0  0  0  0  0  0  0  0
  -23.7678  -30.8668   21.4178 C   0  0  0  0  0  0  0  0  0  0  0  0
  -25.6573  -28.6029   21.1964 C   0  0  0  0  0  0  0  0  0  0  0  0
  -18.9266  -26.9334   21.3976 C   0  0  0  0  0  0  0  0  0  0  0  0
  -25.8901  -21.0519   19.5509 C   0  0  0  0  0  0  0  0  0  0  0  0
  -20.0436  -26.7911   22.4266 C   0  0  0  0  0  0  0  0  0  0  0  0
  -32.4323  -24.4624   26.1966 C   0  0  0  0  0  0  0  0  0  0  0  0
  -31.9211  -24.4767   27.6033 C   0  0  0  0  0  0  0  0  0  0  0  0
  -25.4571  -19.6024   19.7395 C   0  0  0  0  0  0  0  0  0  0  0  0
  -26.4386  -21.6695   20.8375 C   0  0  0  0  0  0  0  0  0  0  0  0
  -27.4295  -23.6095   23.0915 C   0  0  0  0  0  0  0  0  0  0  0  0
  -25.8236  -24.5380   24.1275 C   0  0  0  0  0  0  0  0  0  0  0  0
  -25.0802  -20.0795   22.1826 C   0  0  0  0  0  0  0  0  0  0  0  0
  -20.4543  -28.1579   22.9876 C   0  0  1  0  0  0  0  0  0  0  0  0
  -27.2561  -24.9872   23.7726 C   0  0  0  0  0  0  0  0  0  0  0  0
  -31.5174  -25.5848   26.6490 C   0  0  0  0  0  0  0  0  0  0  0  0
  -23.3281  -29.5018   20.8976 C   0  0  1  0  0  0  0  0  0  0  0  0
  -24.4662  -19.4875   20.9068 C   0  0  2  0  0  0  0  0  0  0  0  0
  -28.1671  -27.2763   15.2731 C   0  0  0  0  0  0  0  0  0  0  0  0
  -24.2816  -25.0417   20.1496 C   0  0  0  0  0  0  0  0  0  0  0  0
  -26.0580  -24.5898   18.4442 C   0  0  0  0  0  0  0  0  0  0  0  0
  -23.7957  -25.3471   17.7154 C   0  0  0  0  0  0  0  0  0  0  0  0
  -27.8847  -30.7580   16.7810 C   0  0  0  0  0  0  0  0  0  0  0  0
  -28.9843  -26.9067   28.0031 C   0  0  0  0  0  0  0  0  0  0  0  0
  -29.5658  -28.3126   27.9323 C   0  0  0  0  0  0  0  0  0  0  0  0
  -29.2115  -30.5702   26.9243 C   0  0  0  0  0  0  0  0  0  0  0  0
  -28.3323  -31.3172   25.9408 C   0  0  0  0  0  0  0  0  0  1  0  0
  -25.3510  -26.9928   18.8398 C   0  0  1  0  0  0  0  0  0  0  0  0
  -27.5020  -28.3995   16.0534 C   0  0  2  0  0  0  0  0  0  0  0  0
  -24.8753  -25.5130   18.8070 C   0  0  0  0  0  0  0  0  0  0  0  0
  -24.8477  -17.0518   20.8358 N   0  0  0  0  0  0  0  0  0  0  0  0
  -27.8633  -26.0764   26.0238 N   0  0  0  0  0  0  0  0  0  0  0  0
  -29.0021  -26.2003   26.7265 N   0  0  0  0  0  0  0  0  0  0  0  0
  -24.0009  -18.0577   21.1134 N   0  0  0  0  0  0  0  0  0  0  0  0
  -24.4430  -28.7116   20.3712 N   0  0  0  0  0  0  0  0  0  0  0  0
  -25.5447  -21.4559   21.9802 N   0  0  0  0  0  0  0  0  0  0  0  0
  -25.9753  -23.5052   23.1065 N   0  0  0  0  0  0  0  0  0  0  0  0
  -21.8124  -18.5245   21.8901 N   0  0  0  0  0  0  0  0  0  0  0  0
  -21.9975  -14.0124   21.9458 N   0  0  0  0  0  0  0  0  0  0  0  0
  -21.2936  -28.8611   22.0414 N   0  0  0  0  0  0  0  0  0  0  0  0
  -25.8930  -27.4745   17.5739 N   0  0  0  0  0  0  0  0  0  0  0  0
  -28.4221  -29.5718   16.0662 N   0  3  0  0  0  0  0  0  0  0  0  0
  -28.7573  -29.1596   27.0143 N   0  3  0  0  0  0  0  0  0  0  0  0
  -20.6575  -15.8263   22.3618 O   0  0  0  0  0  0  0  0  0  0  0  0
  -23.3310  -27.9015   22.6337 O   0  0  0  0  0  0  0  0  0  0  0  0
  -23.2366  -28.0134   18.5021 O   0  0  0  0  0  0  0  0  0  0  0  0
  -27.9808  -28.0585   18.3968 O   0  0  0  0  0  0  0  0  0  0  0  0
  -24.0163  -22.4009   23.4286 O   0  0  0  0  0  0  0  0  0  0  0  0
  -26.3566  -10.8766   20.4626 O   0  0  0  0  0  0  0  0  0  0  0  0
  -28.4096  -30.6917   24.6605 O   0  0  0  0  0  0  0  0  0  1  0  0
  -25.6100   -7.2020   24.5054 F   0  0  0  0  0  0  0  0  0  0  0  0
  -23.8145  -10.0938   21.2162 F   0  0  0  0  0  0  0  0  0  0  0  0
  1  2  1  0  0  0  0
  1  5  2  0  0  0  0
  2  6  2  0  0  0  0
  3  8  2  0  0  0  0
  3 16  1  0  0  0  0
  4  9  1  0  0  0  0
  4 16  2  0  0  0  0
  5 18  1  0  0  0  0
  6 20  1  0  0  0  0
  7 10  2  0  0  0  0
  7 19  1  0  0  0  0
  8 22  1  0  0  0  0
  9 22  2  0  0  0  0
 10 23  1  0  0  0  0
 11 12  2  0  0  0  0
 11 24  1  0  0  0  0
 12 25  1  0  0  0  0
 13 21  1  0  0  0  0
 13 23  2  0  0  0  0
 14 25  2  0  0  0  0
 14 26  1  0  0  0  0
 15 28  1  0  0  0  0
 15 29  2  0  0  0  0
 16 27  1  0  0  0  0
 17 27  1  0  0  0  0
 17 30  2  0  0  0  0
 17 31  1  0  0  0  0
 18 20  2  0  0  0  0
 18 36  1  0  0  0  0
 19 21  2  0  0  0  0
 19 37  1  0  0  0  0
 20 49  1  0  0  0  0
 21 38  1  0  0  0  0
 22 84  1  0  0  0  0
 23 85  1  0  0  0  0
 24 26  2  0  0  0  0
 24 84  1  0  0  0  0
 25 86  1  0  0  0  0
 26 87  1  0  0  0  0
 27 66  2  0  0  0  0
 28 50  1  0  0  0  0
 28 67  2  0  0  0  0
 29 51  1  0  0  0  0
 29 68  1  0  0  0  0
 30 69  1  0  0  0  0
 30 73  1  0  0  0  0
 31 74  1  0  0  0  0
 31 79  2  0  0  0  0
 32 52  1  0  0  0  0
 32 75  1  0  0  0  0
 32 80  2  0  0  0  0
 33 63  1  0  0  0  0
 33 70  1  0  0  0  0
 33 81  2  0  0  0  0
 34 64  1  0  0  0  0
 34 76  1  0  0  0  0
 34 82  2  0  0  0  0
 35 71  1  0  0  0  0
 35 72  1  0  0  0  0
 35 83  2  0  0  0  0
 36 39  1  0  0  0  0
 37 52  1  0  0  0  0
 38 70  1  0  0  0  0
 39 41  1  0  0  0  0
 40 44  1  0  0  0  0
 40 45  1  0  0  0  0
 41 49  1  0  0  0  0
 42 43  1  0  0  0  0
 42 51  1  0  0  0  0
 43 51  1  0  0  0  0
 44 53  1  0  0  0  0
 45 71  1  0  0  0  0
 46 50  1  0  0  0  0
 46 72  1  0  0  0  0
 47 50  1  0  0  0  0
 47 72  1  0  0  0  0
 48 53  1  0  0  0  0
 48 71  1  0  0  0  0
 49 75  1  0  0  0  0
 52 70  1  0  0  0  0
 53 69  1  0  0  0  0
 54 64  1  0  0  0  0
 55 65  1  0  0  0  0
 56 65  1  0  0  0  0
 57 65  1  0  0  0  0
 58 77  1  0  0  0  0
 59 60  1  0  0  0  0
 59 68  1  0  0  0  0
 60 78  1  0  0  0  0
 61 62  1  0  0  0  0
 61 78  1  0  0  0  0
 62 85  1  0  0  0  0
 63 65  1  0  0  0  0
 63 76  1  0  0  0  0
 64 77  1  0  0  0  0
 66 69  1  0  0  0  0
 67 68  1  0  0  0  0
M  CHG  2  77   1  78   1
M  ISO  4  35 100  62 101  72 100  85 101
M  END
> <Batch ID>
0192

> <Smiles>
CNC(C)C(=O)NC(C(=O)N1Cc2cc([101O:1][101CH2:1]CNCCn3nc(C4C[100N:0]([100C:0](=O)N5CCCC(n6nc(-c7ccc(Oc8ccc(F)cc8F)cc7)c(C(N)=O)c6N)C5)C4)cc3C3CC3)ccc2CC1C(=O)NC1CCCc2ccccc21)C(C)(C)C

> <Shape>
0.212

> <Color>
0.085

> <Negative vol penalty>
0.000

$$$$

  -OEChem-04052323293D

 84 93  0     1  0  0  0  0  0999 V2000
  -23.3631  -33.5997   24.9580 C   0  0  0  0  0  0  0  0  0  0  0  0
  -24.2025  -32.5761   24.5301 C   0  0  0  0  0  0  0  0  0  0  0  0
  -21.7177  -17.1902   24.4854 C   0  0  0  0  0  0  0  0  0  0  0  0
  -21.1049  -18.5692   22.5986 C   0  0  0  0  0  0  0  0  0  0  0  0
  -21.9912  -33.3756   25.0655 C   0  0  0  0  0  0  0  0  0  0  0  0
  -23.6706  -31.3274   24.2106 C   0  0  0  0  0  0  0  0  0  0  0  0
  -25.5687  -29.4506   19.9071 C   0  0  0  0  0  0  0  0  0  0  0  0
  -20.5790  -17.6180   25.1679 C   0  0  0  0  0  0  0  0  0  0  0  0
  -19.9662  -18.9970   23.2811 C   0  0  0  0  0  0  0  0  0  0  0  0
  -26.8418  -28.8852   19.9659 C   0  0  0  0  0  0  0  0  0  0  0  0
  -16.8840  -17.7985   23.9769 C   0  0  0  0  0  0  0  0  0  0  0  0
  -15.6809  -17.8291   23.2718 C   0  0  0  0  0  0  0  0  0  0  0  0
  -25.8543  -26.6861   20.0558 C   0  0  0  0  0  0  0  0  0  0  0  0
  -15.5036  -20.2043   23.6774 C   0  0  0  0  0  0  0  0  0  0  0  0
  -26.9513  -22.2109   17.7622 C   0  0  0  0  0  0  0  0  0  0  0  0
  -21.9807  -17.6658   23.2007 C   0  0  0  0  0  0  0  0  0  0  0  0
  -23.2695  -16.1095   21.6435 C   0  0  0  0  0  0  0  0  0  0  0  0
  -21.4410  -32.1264   24.7378 C   0  0  0  0  0  0  0  0  0  0  0  0
  -24.4267  -28.6372   19.9332 C   0  0  0  0  0  0  0  0  0  0  0  0
  -22.2902  -31.0859   24.3151 C   0  0  0  0  0  0  0  0  0  0  0  0
  -24.5680  -27.2435   19.9946 C   0  0  0  0  0  0  0  0  0  0  0  0
  -19.7032  -18.5214   24.5658 C   0  0  0  0  0  0  0  0  0  0  0  0
  -26.9847  -27.5030   20.0432 C   0  0  0  0  0  0  0  0  0  0  0  0
  -17.3969  -18.9708   24.5324 C   0  0  0  0  0  0  0  0  0  0  0  0
  -14.9907  -19.0320   23.1220 C   0  0  0  0  0  0  0  0  0  0  0  0
  -16.7067  -20.1736   24.3826 C   0  0  0  0  0  0  0  0  0  0  0  0
  -23.1572  -17.2247   22.4953 C   0  0  0  0  0  0  0  0  0  0  0  0
  -27.6200  -23.0042   16.8622 C   0  0  0  0  0  0  0  0  0  0  0  0
  -27.9463  -21.7833   18.6616 C   0  0  0  0  0  0  0  0  0  0  0  0
  -24.5787  -16.1249   21.2285 C   0  0  0  0  0  0  0  0  0  0  0  0
  -22.2789  -15.1459   21.2615 C   0  0  0  0  0  0  0  0  0  0  0  0
  -21.9474  -28.3140   21.8960 C   0  0  0  0  0  0  0  0  0  0  0  0
  -20.8854  -26.2918   19.5927 C   0  0  0  0  0  0  0  0  0  0  0  0
  -21.6337  -24.2245   16.9825 C   0  0  0  0  0  0  0  0  0  0  0  0
  -28.6420  -20.4738   20.6981 C   0  0  0  0  0  0  0  0  0  0  0  0
  -19.9579  -31.9174   24.9151 C   0  0  0  0  0  0  0  0  0  0  0  0
  -23.0612  -29.2612   19.8421 C   0  0  0  0  0  0  0  0  0  0  0  0
  -23.3742  -26.3252   20.0052 C   0  0  0  0  0  0  0  0  0  0  0  0
  -19.4275  -30.6781   24.1987 C   0  0  0  0  0  0  0  0  0  0  0  0
  -28.9398  -17.5071   22.6443 C   0  0  0  0  0  0  0  0  0  0  0  0
  -20.3308  -29.4787   24.4674 C   0  0  0  0  0  0  0  0  0  0  0  0
  -25.7488  -23.1922   15.0359 C   0  0  0  0  0  0  0  0  0  0  0  0
  -27.0483  -23.0649   14.3042 C   0  0  0  0  0  0  0  0  0  0  0  0
  -27.5017  -16.9933   22.7443 C   0  0  0  0  0  0  0  0  0  0  0  0
  -29.0014  -19.0328   22.6905 C   0  0  0  0  0  0  0  0  0  0  0  0
  -26.7045  -19.2048   21.8166 C   0  0  0  0  0  0  0  0  0  0  0  0
  -21.7478  -29.7251   23.9356 C   0  0  1  0  0  0  0  0  0  0  0  0
  -27.0182  -23.7339   15.6653 C   0  0  0  0  0  0  0  0  0  0  0  0
  -21.9568  -28.3652   20.3943 C   0  0  1  0  0  0  0  0  0  0  0  0
  -26.5862  -17.6757   21.7091 C   0  0  2  0  0  0  0  0  0  0  0  0
  -20.5589  -22.6800   15.3221 C   0  0  0  0  0  0  0  0  0  0  0  0
  -20.5534  -24.1831   21.7728 C   0  0  0  0  0  0  0  0  0  0  0  0
  -20.4076  -22.4473   19.9745 C   0  0  0  0  0  0  0  0  0  0  0  0
  -18.6950  -24.2566   20.1008 C   0  0  0  0  0  0  0  0  0  0  0  0
  -22.5807  -25.8408   14.6913 C   0  0  0  0  0  0  0  0  0  0  0  0
  -30.0311  -23.7073   16.6229 C   0  0  0  0  0  0  0  0  0  0  0  0
  -30.7384  -24.6956   17.5409 C   0  0  0  0  0  0  0  0  0  0  0  0
  -30.3552  -26.6727   19.0183 C   0  0  0  0  0  0  0  0  0  0  0  0
  -29.2832  -27.6531   19.4515 C   0  0  0  0  0  0  0  0  0  1  0  0
  -21.0325  -24.8151   19.3158 C   0  0  1  0  0  0  0  0  0  0  0  0
  -21.0346  -24.0988   15.5933 C   0  0  2  0  0  0  0  0  0  0  0  0
  -20.1948  -23.9426   20.2927 C   0  0  0  0  0  0  0  0  0  0  0  0
  -24.3036  -17.8994   22.6154 N   0  0  0  0  0  0  0  0  0  0  0  0
  -29.1551  -22.2650   18.3604 N   0  0  0  0  0  0  0  0  0  0  0  0
  -28.9241  -23.0034   17.2615 N   0  0  0  0  0  0  0  0  0  0  0  0
  -25.1488  -17.2061   21.8337 N   0  0  0  0  0  0  0  0  0  0  0  0
  -22.0601  -26.9835   19.9206 N   0  0  0  0  0  0  0  0  0  0  0  0
  -28.1123  -19.6097   21.6798 N   0  0  0  0  0  0  0  0  0  0  0  0
  -25.2863  -15.3190   20.4087 N   0  0  0  0  0  0  0  0  0  0  0  0
  -20.9834  -15.2780   21.7798 N   0  0  0  0  0  0  0  0  0  0  0  0
  -27.7079  -20.9346   19.7710 N   0  0  0  0  0  0  0  0  0  0  0  0
  -21.7870  -29.5465   22.4999 N   0  0  0  0  0  0  0  0  0  0  0  0
  -20.6953  -24.6281   17.9087 N   0  0  0  0  0  0  0  0  0  0  0  0
  -22.0443  -24.4618   14.5590 N   0  3  0  0  0  0  0  0  0  0  0  0
  -29.7707  -25.6978   18.0632 N   0  3  0  0  0  0  0  0  0  0  0  0
  -22.5392  -14.1864   20.4966 O   0  0  0  0  0  0  0  0  0  0  0  0
  -22.0748  -27.2360   22.4646 O   0  0  0  0  0  0  0  0  0  0  0  0
  -19.7706  -26.8138   19.5138 O   0  0  0  0  0  0  0  0  0  0  0  0
  -22.8149  -23.9848   17.2227 O   0  0  0  0  0  0  0  0  0  0  0  0
  -29.8415  -20.7606   20.6650 O   0  0  0  0  0  0  0  0  0  0  0  0
  -18.5918  -18.9389   25.2314 O   0  0  0  0  0  0  0  0  0  0  0  0
  -28.2261  -26.9485   20.1014 O   0  0  0  0  0  0  0  0  0  1  0  0
  -13.8361  -19.0615   22.4436 F   0  0  0  0  0  0  0  0  0  0  0  0
  -17.1951  -21.3033   24.9129 F   0  0  0  0  0  0  0  0  0  0  0  0
  1  2  1  0  0  0  0
  1  5  2  0  0  0  0
  2  6  2  0  0  0  0
  3  8  2  0  0  0  0
  3 16  1  0  0  0  0
  4  9  1  0  0  0  0
  4 16  2  0  0  0  0
  5 18  1  0  0  0  0
  6 20  1  0  0  0  0
  7 10  2  0  0  0  0
  7 19  1  0  0  0  0
  8 22  1  0  0  0  0
  9 22  2  0  0  0  0
 10 23  1  0  0  0  0
 11 12  2  0  0  0  0
 11 24  1  0  0  0  0
 12 25  1  0  0  0  0
 13 21  1  0  0  0  0
 13 23  2  0  0  0  0
 14 25  2  0  0  0  0
 14 26  1  0  0  0  0
 15 28  2  0  0  0  0
 15 29  1  0  0  0  0
 16 27  1  0  0  0  0
 17 27  1  0  0  0  0
 17 30  2  0  0  0  0
 17 31  1  0  0  0  0
 18 20  2  0  0  0  0
 18 36  1  0  0  0  0
 19 21  2  0  0  0  0
 19 37  1  0  0  0  0
 20 47  1  0  0  0  0
 21 38  1  0  0  0  0
 22 81  1  0  0  0  0
 23 82  1  0  0  0  0
 24 26  2  0  0  0  0
 24 81  1  0  0  0  0
 25 83  1  0  0  0  0
 26 84  1  0  0  0  0
 27 63  2  0  0  0  0
 28 48  1  0  0  0  0
 28 65  1  0  0  0  0
 29 64  2  0  0  0  0
 29 71  1  0  0  0  0
 30 66  1  0  0  0  0
 30 69  1  0  0  0  0
 31 70  1  0  0  0  0
 31 76  2  0  0  0  0
 32 49  1  0  0  0  0
 32 72  1  0  0  0  0
 32 77  2  0  0  0  0
 33 60  1  0  0  0  0
 33 67  1  0  0  0  0
 33 78  2  0  0  0  0
 34 61  1  0  0  0  0
 34 73  1  0  0  0  0
 34 79  2  0  0  0  0
 35 68  1  0  0  0  0
 35 71  1  0  0  0  0
 35 80  2  0  0  0  0
 36 39  1  0  0  0  0
 37 49  1  0  0  0  0
 38 67  1  0  0  0  0
 39 41  1  0  0  0  0
 40 44  1  0  0  0  0
 40 45  1  0  0  0  0
 41 47  1  0  0  0  0
 42 43  1  0  0  0  0
 42 48  1  0  0  0  0
 43 48  1  0  0  0  0
 44 50  1  0  0  0  0
 45 68  1  0  0  0  0
 46 50  1  0  0  0  0
 46 68  1  0  0  0  0
 47 72  1  0  0  0  0
 49 67  1  0  0  0  0
 50 66  1  0  0  0  0
 51 61  1  0  0  0  0
 52 62  1  0  0  0  0
 53 62  1  0  0  0  0
 54 62  1  0  0  0  0
 55 74  1  0  0  0  0
 56 57  1  0  0  0  0
 56 65  1  0  0  0  0
 57 75  1  0  0  0  0
 58 59  1  0  0  0  0
 58 75  1  0  0  0  0
 59 82  1  0  0  0  0
 60 62  1  0  0  0  0
 60 73  1  0  0  0  0
 61 74  1  0  0  0  0
 63 66  1  0  0  0  0
 64 65  1  0  0  0  0
M  CHG  2  74   1  75   1
M  ISO  4  35 100  59 101  71 100  82 101
M  END
> <Batch ID>
0192

> <Smiles>
CNC(C)C(=O)NC(C(=O)N1Cc2cc([101O:1][101CH2:1]CNCCn3nc([100NH:0][100C:0](=O)N4CCCC(n5nc(-c6ccc(Oc7ccc(F)cc7F)cc6)c(C(N)=O)c5N)C4)cc3C3CC3)ccc2CC1C(=O)NC1CCCc2ccccc21)C(C)(C)C

> <Shape>
0.162

> <Color>
0.123

> <Negative vol penalty>
0.000

$$$$

  -OEChem-04052323293D

 85 94  0     1  0  0  0  0  0999 V2000
  -18.2181  -30.5980   25.8448 C   0  0  0  0  0  0  0  0  0  0  0  0
  -19.5943  -30.4881   26.0164 C   0  0  0  0  0  0  0  0  0  0  0  0
  -26.8111  -14.7212   21.3216 C   0  0  0  0  0  0  0  0  0  0  0  0
  -24.6120  -14.8298   20.3268 C   0  0  0  0  0  0  0  0  0  0  0  0
  -17.5974  -29.9593   24.7722 C   0  0  0  0  0  0  0  0  0  0  0  0
  -20.3504  -29.7386   25.1159 C   0  0  0  0  0  0  0  0  0  0  0  0
  -26.0665  -30.8989   23.2488 C   0  0  0  0  0  0  0  0  0  0  0  0
  -26.4558  -13.5432   21.9785 C   0  0  0  0  0  0  0  0  0  0  0  0
  -24.2567  -13.6517   20.9837 C   0  0  0  0  0  0  0  0  0  0  0  0
  -27.3036  -30.3928   23.6450 C   0  0  0  0  0  0  0  0  0  0  0  0
  -24.7604  -10.3333   20.5904 C   0  0  0  0  0  0  0  0  0  0  0  0
  -24.0865   -9.3598   19.8530 C   0  0  0  0  0  0  0  0  0  0  0  0
  -27.2278  -28.8041   21.8314 C   0  0  0  0  0  0  0  0  0  0  0  0
  -22.2148   -9.5036   21.3739 C   0  0  0  0  0  0  0  0  0  0  0  0
  -25.8892  -15.3646   20.4958 C   0  0  0  0  0  0  0  0  0  0  0  0
  -26.8383  -16.7017   18.5415 C   0  0  0  0  0  0  0  0  0  0  0  0
  -18.3476  -29.2095   23.8526 C   0  0  0  0  0  0  0  0  0  0  0  0
  -25.3945  -30.3533   22.1455 C   0  0  0  0  0  0  0  0  0  0  0  0
  -19.7389  -29.0882   24.0307 C   0  0  0  0  0  0  0  0  0  0  0  0
  -25.9834  -29.3068   21.4216 C   0  0  0  0  0  0  0  0  0  0  0  0
  -25.1786  -13.0084   21.8096 C   0  0  0  0  0  0  0  0  0  0  0  0
  -27.8831  -29.3433   22.9381 C   0  0  0  0  0  0  0  0  0  0  0  0
  -24.1616  -10.8919   21.7196 C   0  0  0  0  0  0  0  0  0  0  0  0
  -22.8137   -8.9450   20.2447 C   0  0  0  0  0  0  0  0  0  0  0  0
  -22.8887  -10.4770   22.1113 C   0  0  0  0  0  0  0  0  0  0  0  0
  -26.2554  -16.5819   19.8174 C   0  0  0  0  0  0  0  0  0  0  0  0
  -26.9873  -18.0547   18.3578 C   0  0  0  0  0  0  0  0  0  0  0  0
  -32.2925  -29.9386   20.4321 C   0  0  0  0  0  0  0  0  0  0  0  0
  -31.8862  -28.1907   21.4984 C   0  0  0  0  0  0  0  0  0  0  0  0
  -27.2115  -15.6813   17.6061 C   0  0  0  0  0  0  0  0  0  0  0  0
  -22.6145  -28.8719   21.7204 C   0  0  0  0  0  0  0  0  0  0  0  0
  -23.4259  -29.0817   18.5867 C   0  0  0  0  0  0  0  0  0  0  0  0
  -25.8910  -29.3869   16.2464 C   0  0  0  0  0  0  0  0  0  0  0  0
  -28.3962  -22.9721   19.9871 C   0  0  0  0  0  0  0  0  0  0  0  0
  -17.6258  -28.4981   22.7356 C   0  0  0  0  0  0  0  0  0  0  0  0
  -24.0731  -30.9283   21.7147 C   0  0  0  0  0  0  0  0  0  0  0  0
  -25.3124  -28.6994   20.2178 C   0  0  0  0  0  0  0  0  0  0  0  0
  -18.5494  -28.0319   21.6132 C   0  0  0  0  0  0  0  0  0  0  0  0
  -25.1857  -21.9657   20.9988 C   0  0  0  0  0  0  0  0  0  0  0  0
  -19.7822  -27.3418   22.1884 C   0  0  0  0  0  0  0  0  0  0  0  0
  -25.2214  -20.4716   20.6786 C   0  0  0  0  0  0  0  0  0  0  0  0
  -26.5062  -22.4560   21.5954 C   0  0  0  0  0  0  0  0  0  0  0  0
  -28.4961  -24.6106   21.9184 C   0  0  0  0  0  0  0  0  0  0  0  0
  -29.0052  -25.3432   19.6179 C   0  0  0  0  0  0  0  0  0  0  0  0
  -27.7295  -20.6331   20.4554 C   0  0  0  0  0  0  0  0  0  0  0  0
  -29.8649  -25.0949   22.3856 C   0  0  0  0  0  0  0  0  0  0  0  0
  -30.3865  -25.8140   20.0430 C   0  0  0  0  0  0  0  0  0  0  0  0
  -20.5966  -28.3045   23.0610 C   0  0  1  0  0  0  0  0  0  0  0  0
  -23.2393  -29.9550   20.8871 C   0  0  1  0  0  0  0  0  0  0  0  0
  -26.4363  -20.1240   19.8002 C   0  0  1  0  0  0  0  0  0  0  0  0
  -32.6387  -30.8242   19.3142 C   0  0  0  0  0  0  0  0  0  0  0  0
  -26.2493  -29.4908   13.7648 C   0  0  0  0  0  0  0  0  0  0  0  0
  -22.9794  -26.0692   18.3985 C   0  0  0  0  0  0  0  0  0  0  0  0
  -24.2381  -26.0881   16.2344 C   0  0  0  0  0  0  0  0  0  0  0  0
  -22.1127  -27.3760   16.4503 C   0  0  0  0  0  0  0  0  0  0  0  0
  -27.0724  -32.0952   16.4135 C   0  0  0  0  0  0  0  0  0  0  0  0
  -31.6524  -26.7833   21.9626 C   0  0  0  0  0  0  0  0  0  0  0  0
  -31.4328  -29.3042   23.7161 C   0  0  0  0  0  0  0  0  0  0  0  0
  -29.9947  -29.7523   23.9530 C   0  0  0  0  0  0  0  0  0  1  0  0
  -24.1924  -28.2114   17.6203 C   0  0  1  0  0  0  0  0  0  0  0  0
  -26.0246  -30.2939   15.0365 C   0  0  2  0  0  0  0  0  0  0  0  0
  -23.3927  -26.9461   17.1996 C   0  0  0  0  0  0  0  0  0  0  0  0
  -26.0484  -17.7644   20.4028 N   0  0  0  0  0  0  0  0  0  0  0  0
  -32.2164  -28.5826   20.2898 N   0  0  0  0  0  0  0  0  0  0  0  0
  -32.0302  -30.4103   21.6528 N   0  0  0  0  0  0  0  0  0  0  0  0
  -26.5038  -18.6402   19.4908 N   0  0  0  0  0  0  0  0  0  0  0  0
  -31.7734  -29.2722   22.3154 N   0  0  0  0  0  0  0  0  0  0  0  0
  -24.0187  -29.2919   19.8398 N   0  0  0  0  0  0  0  0  0  0  0  0
  -27.6389  -22.0659   20.7443 N   0  0  0  0  0  0  0  0  0  0  0  0
  -28.5175  -24.2763   20.4892 N   0  0  0  0  0  0  0  0  0  0  0  0
  -27.4834  -18.7887   17.3393 N   0  0  0  0  0  0  0  0  0  0  0  0
  -26.9888  -14.3420   17.9541 N   0  0  0  0  0  0  0  0  0  0  0  0
  -21.3745  -29.2015   22.2335 N   0  0  0  0  0  0  0  0  0  0  0  0
  -24.5736  -29.0746   16.5076 N   0  0  0  0  0  0  0  0  0  0  0  0
  -30.3386  -26.2203   21.4975 N   0  3  0  0  0  0  0  0  0  0  0  0
  -27.1736  -31.2265   15.2126 N   0  3  0  0  0  0  0  0  0  0  0  0
  -27.7424  -15.9484   16.5014 O   0  0  0  0  0  0  0  0  0  0  0  0
  -23.2124  -27.8149   21.8843 O   0  0  0  0  0  0  0  0  0  0  0  0
  -22.3445  -29.5633   18.2399 O   0  0  0  0  0  0  0  0  0  0  0  0
  -26.8588  -28.9916   16.8927 O   0  0  0  0  0  0  0  0  0  0  0  0
  -28.9334  -22.6352   18.9244 O   0  0  0  0  0  0  0  0  0  0  0  0
  -24.8316  -11.8588   22.4502 O   0  0  0  0  0  0  0  0  0  0  0  0
  -29.0988  -28.8435   23.3258 O   0  0  0  0  0  0  0  0  0  1  0  0
  -22.1659   -8.0113   19.5356 F   0  0  0  0  0  0  0  0  0  0  0  0
  -22.3078  -11.0108   23.1946 F   0  0  0  0  0  0  0  0  0  0  0  0
  1  2  1  0  0  0  0
  1  5  2  0  0  0  0
  2  6  2  0  0  0  0
  3  8  2  0  0  0  0
  3 15  1  0  0  0  0
  4  9  1  0  0  0  0
  4 15  2  0  0  0  0
  5 17  1  0  0  0  0
  6 19  1  0  0  0  0
  7 10  2  0  0  0  0
  7 18  1  0  0  0  0
  8 21  1  0  0  0  0
  9 21  2  0  0  0  0
 10 22  1  0  0  0  0
 11 12  2  0  0  0  0
 11 23  1  0  0  0  0
 12 24  1  0  0  0  0
 13 20  1  0  0  0  0
 13 22  2  0  0  0  0
 14 24  2  0  0  0  0
 14 25  1  0  0  0  0
 15 26  1  0  0  0  0
 16 26  1  0  0  0  0
 16 27  2  0  0  0  0
 16 30  1  0  0  0  0
 17 19  2  0  0  0  0
 17 35  1  0  0  0  0
 18 20  2  0  0  0  0
 18 36  1  0  0  0  0
 19 48  1  0  0  0  0
 20 37  1  0  0  0  0
 21 82  1  0  0  0  0
 22 83  1  0  0  0  0
 23 25  2  0  0  0  0
 23 82  1  0  0  0  0
 24 84  1  0  0  0  0
 25 85  1  0  0  0  0
 26 63  2  0  0  0  0
 27 66  1  0  0  0  0
 27 71  1  0  0  0  0
 28 51  1  0  0  0  0
 28 64  1  0  0  0  0
 28 65  2  0  0  0  0
 29 57  1  0  0  0  0
 29 64  2  0  0  0  0
 29 67  1  0  0  0  0
 30 72  1  0  0  0  0
 30 77  2  0  0  0  0
 31 49  1  0  0  0  0
 31 73  1  0  0  0  0
 31 78  2  0  0  0  0
 32 60  1  0  0  0  0
 32 68  1  0  0  0  0
 32 79  2  0  0  0  0
 33 61  1  0  0  0  0
 33 74  1  0  0  0  0
 33 80  2  0  0  0  0
 34 69  1  0  0  0  0
 34 70  1  0  0  0  0
 34 81  2  0  0  0  0
 35 38  1  0  0  0  0
 36 49  1  0  0  0  0
 37 68  1  0  0  0  0
 38 40  1  0  0  0  0
 39 41  1  0  0  0  0
 39 42  1  0  0  0  0
 40 48  1  0  0  0  0
 41 50  1  0  0  0  0
 42 69  1  0  0  0  0
 43 46  1  0  0  0  0
 43 70  1  0  0  0  0
 44 47  1  0  0  0  0
 44 70  1  0  0  0  0
 45 50  1  0  0  0  0
 45 69  1  0  0  0  0
 46 75  1  0  0  0  0
 47 75  1  0  0  0  0
 48 73  1  0  0  0  0
 49 68  1  0  0  0  0
 50 66  1  0  0  0  0
 52 61  1  0  0  0  0
 53 62  1  0  0  0  0
 54 62  1  0  0  0  0
 55 62  1  0  0  0  0
 56 76  1  0  0  0  0
 57 75  1  0  0  0  0
 58 59  1  0  0  0  0
 58 67  1  0  0  0  0
 59 83  1  0  0  0  0
 60 62  1  0  0  0  0
 60 74  1  0  0  0  0
 61 76  1  0  0  0  0
 63 66  1  0  0  0  0
 65 67  1  0  0  0  0
M  CHG  2  75   1  76   1
M  ISO  4  34 100  59 101  70 100  83 101
M  END
> <Batch ID>
0192

> <Smiles>
CNC(C)C(=O)NC(C(=O)N1Cc2cc([101O:1][101CH2:1]Cn3nc(C)nc3CN3CC[100N:0]([100C:0](=O)N4CCCC(n5nc(-c6ccc(Oc7ccc(F)cc7F)cc6)c(C(N)=O)c5N)C4)CC3)ccc2CC1C(=O)NC1CCCc2ccccc21)C(C)(C)C

> <Shape>
0.234

> <Color>
0.072

> <Negative vol penalty>
0.000

$$$$

  -OEChem-04052323293D

 84 93  0     1  0  0  0  0  0999 V2000
  -17.9111  -33.6573   19.7569 C   0  0  0  0  0  0  0  0  0  0  0  0
  -19.2767  -33.8196   19.5466 C   0  0  0  0  0  0  0  0  0  0  0  0
  -24.6693   -9.2193   22.2988 C   0  0  0  0  0  0  0  0  0  0  0  0
  -23.4468  -10.0105   20.3710 C   0  0  0  0  0  0  0  0  0  0  0  0
  -17.4514  -33.1138   20.9558 C   0  0  0  0  0  0  0  0  0  0  0  0
  -20.1834  -33.4395   20.5354 C   0  0  0  0  0  0  0  0  0  0  0  0
  -25.2848  -28.5319   19.2008 C   0  0  0  0  0  0  0  0  0  0  0  0
  -23.5320   -8.5452   22.7434 C   0  0  0  0  0  0  0  0  0  0  0  0
  -22.3095   -9.3364   20.8155 C   0  0  0  0  0  0  0  0  0  0  0  0
  -26.4197  -27.7565   18.9623 C   0  0  0  0  0  0  0  0  0  0  0  0
  -21.9048   -5.6677   22.0328 C   0  0  0  0  0  0  0  0  0  0  0  0
  -22.0634   -4.3586   22.4875 C   0  0  0  0  0  0  0  0  0  0  0  0
  -27.0610  -27.9615   21.2850 C   0  0  0  0  0  0  0  0  0  0  0  0
  -21.2118   -5.0078   24.6533 C   0  0  0  0  0  0  0  0  0  0  0  0
  -24.6267   -9.9520   21.1126 C   0  0  0  0  0  0  0  0  0  0  0  0
  -27.0518  -10.0879   20.3326 C   0  0  0  0  0  0  0  0  0  0  0  0
  -18.3533  -32.7179   21.9560 C   0  0  0  0  0  0  0  0  0  0  0  0
  -25.0253  -29.0127   20.4872 C   0  0  0  0  0  0  0  0  0  0  0  0
  -19.7352  -32.8915   21.7493 C   0  0  0  0  0  0  0  0  0  0  0  0
  -25.9192  -28.7282   21.5326 C   0  0  0  0  0  0  0  0  0  0  0  0
  -22.3521   -8.6037   22.0018 C   0  0  0  0  0  0  0  0  0  0  0  0
  -27.3057  -27.4722   20.0018 C   0  0  0  0  0  0  0  0  0  0  0  0
  -21.3997   -6.6469   22.8883 C   0  0  0  0  0  0  0  0  0  0  0  0
  -21.7169   -4.0286   23.7977 C   0  0  0  0  0  0  0  0  0  0  0  0
  -21.0533   -6.3169   24.1986 C   0  0  0  0  0  0  0  0  0  0  0  0
  -25.8011  -10.6490   20.6532 C   0  0  0  0  0  0  0  0  0  0  0  0
  -27.8215  -11.1597   19.9517 C   0  0  0  0  0  0  0  0  0  0  0  0
  -27.4794   -8.7200   20.3753 C   0  0  0  0  0  0  0  0  0  0  0  0
  -22.7385  -30.9726   22.7245 C   0  0  0  0  0  0  0  0  0  0  0  0
  -23.6632  -28.5223   24.3219 C   0  0  0  0  0  0  0  0  0  0  0  0
  -23.9399  -25.8853   26.4682 C   0  0  0  0  0  0  0  0  0  0  0  0
  -27.3856  -16.9184   21.4167 C   0  0  0  0  0  0  0  0  0  0  0  0
  -17.8069  -32.1792   23.2543 C   0  0  0  0  0  0  0  0  0  0  0  0
  -23.8476  -29.9031   20.7770 C   0  0  0  0  0  0  0  0  0  0  0  0
  -25.6178  -29.2956   22.8928 C   0  0  0  0  0  0  0  0  0  0  0  0
  -18.8507  -31.4549   24.1007 C   0  0  0  0  0  0  0  0  0  0  0  0
  -27.5121  -15.5037   18.0115 C   0  0  0  0  0  0  0  0  0  0  0  0
  -20.1356  -32.2732   24.1790 C   0  0  0  0  0  0  0  0  0  0  0  0
  -27.1451  -14.0481   18.2848 C   0  0  0  0  0  0  0  0  0  0  0  0
  -29.4751  -19.3766   22.4290 C   0  0  0  0  0  0  0  0  0  0  0  0
  -26.7963  -16.4636   18.9609 C   0  0  0  0  0  0  0  0  0  0  0  0
  -30.0557  -23.2474   20.9035 C   0  0  0  0  0  0  0  0  0  0  0  0
  -29.7046  -22.6127   22.2540 C   0  0  0  0  0  0  0  0  0  0  0  0
  -26.6338  -14.6805   20.6751 C   0  0  0  0  0  0  0  0  0  0  0  0
  -27.7536  -23.0655   20.2130 C   0  0  0  0  0  0  0  0  0  0  0  0
  -20.7511  -32.4683   22.7881 C   0  0  1  0  0  0  0  0  0  0  0  0
  -23.2456  -29.6719   22.1746 C   0  0  1  0  0  0  0  0  0  0  0  0
  -27.3815  -13.6971   19.7617 C   0  0  1  0  0  0  0  0  0  0  0  0
  -28.8051  -20.4527   21.6218 C   0  0  1  0  0  0  0  0  0  0  0  0
  -28.0301  -19.2273   22.0375 C   0  0  1  0  0  0  0  0  0  0  0  0
  -27.3713  -22.4176   21.5598 C   0  0  2  0  0  0  0  0  0  0  0  0
  -23.8053  -25.3077   28.9066 C   0  0  0  0  0  0  0  0  0  0  0  0
  -26.4091  -29.7739   24.7661 C   0  0  0  0  0  0  0  0  0  0  0  0
  -26.6287  -28.3848   26.8374 C   0  0  0  0  0  0  0  0  0  0  0  0
  -24.8050  -30.0776   26.6606 C   0  0  0  0  0  0  0  0  0  0  0  0
  -21.6911  -24.0142   26.0198 C   0  0  0  0  0  0  0  0  0  0  0  0
  -26.7392  -23.4426   22.5142 C   0  0  0  0  0  0  0  0  0  0  0  0
  -29.2430  -24.5753   19.0633 C   0  0  0  0  0  0  0  0  0  0  0  0
  -28.3095  -25.7295   18.7319 C   0  0  0  0  0  0  0  0  0  1  0  0
  -24.6593  -27.9520   25.2995 C   0  0  1  0  0  0  0  0  0  0  0  0
  -23.0427  -25.4044   27.5944 C   0  0  2  0  0  0  0  0  0  0  0  0
  -25.6207  -29.0348   25.8657 C   0  0  0  0  0  0  0  0  0  0  0  0
  -25.7736  -11.9744   20.4902 N   0  0  0  0  0  0  0  0  0  0  0  0
  -27.0166  -12.2551   20.0632 N   0  0  0  0  0  0  0  0  0  0  0  0
  -24.1829  -29.1580   23.1877 N   0  0  0  0  0  0  0  0  0  0  0  0
  -26.9825  -16.0730   20.3673 N   0  0  0  0  0  0  0  0  0  0  0  0
  -28.9043  -23.9672   20.3486 N   0  0  2  0  0  0  0  0  0  0  0  0
  -28.5114  -21.7544   22.2234 N   0  0  2  0  0  0  0  0  0  0  0  0
  -29.1017  -11.2626   19.5356 N   0  0  0  0  0  0  0  0  0  0  0  0
  -27.3119   -7.9315   19.2288 N   0  0  0  0  0  0  0  0  0  0  0  0
  -21.4367  -31.2658   22.3656 N   0  0  0  0  0  0  0  0  0  0  0  0
  -23.8797  -27.2545   26.3164 N   0  0  0  0  0  0  0  0  0  0  0  0
  -27.6188  -18.2446   21.0708 N   0  0  0  0  0  0  0  0  0  0  0  0
  -25.3373  -23.6537   22.1090 N   0  3  0  0  0  0  0  0  0  0  0  0
  -22.4853  -24.0598   27.2745 N   0  3  0  0  0  0  0  0  0  0  0  0
  -27.9797   -8.2075   21.4051 O   0  0  0  0  0  0  0  0  0  0  0  0
  -23.4729  -31.6600   23.4245 O   0  0  0  0  0  0  0  0  0  0  0  0
  -22.4566  -28.4136   24.5576 O   0  0  0  0  0  0  0  0  0  0  0  0
  -24.6283  -25.1230   25.7933 O   0  0  0  0  0  0  0  0  0  0  0  0
  -27.5229  -16.5235   22.5799 O   0  0  0  0  0  0  0  0  0  0  0  0
  -21.2421   -7.9459   22.4352 O   0  0  0  0  0  0  0  0  0  0  0  0
  -28.4094  -26.7109   19.7631 O   0  0  0  0  0  0  0  0  0  1  0  0
  -21.8678   -2.7712   24.2338 F   0  0  0  0  0  0  0  0  0  0  0  0
  -20.5665   -7.2529   25.0248 F   0  0  0  0  0  0  0  0  0  0  0  0
  1  2  1  0  0  0  0
  1  5  2  0  0  0  0
  2  6  2  0  0  0  0
  3  8  2  0  0  0  0
  3 15  1  0  0  0  0
  4  9  1  0  0  0  0
  4 15  2  0  0  0  0
  5 17  1  0  0  0  0
  6 19  1  0  0  0  0
  7 10  2  0  0  0  0
  7 18  1  0  0  0  0
  8 21  1  0  0  0  0
  9 21  2  0  0  0  0
 10 22  1  0  0  0  0
 11 12  2  0  0  0  0
 11 23  1  0  0  0  0
 12 24  1  0  0  0  0
 13 20  1  0  0  0  0
 13 22  2  0  0  0  0
 14 24  2  0  0  0  0
 14 25  1  0  0  0  0
 15 26  1  0  0  0  0
 16 26  1  0  0  0  0
 16 27  2  0  0  0  0
 16 28  1  0  0  0  0
 17 19  2  0  0  0  0
 17 33  1  0  0  0  0
 18 20  2  0  0  0  0
 18 34  1  0  0  0  0
 19 46  1  0  0  0  0
 20 35  1  0  0  0  0
 21 81  1  0  0  0  0
 22 82  1  0  0  0  0
 23 25  2  0  0  0  0
 23 81  1  0  0  0  0
 24 83  1  0  0  0  0
 25 84  1  0  0  0  0
 26 63  2  0  0  0  0
 27 64  1  0  0  0  0
 27 69  1  0  0  0  0
 28 70  1  0  0  0  0
 28 76  2  0  0  0  0
 29 47  1  0  0  0  0
 29 71  1  0  0  0  0
 29 77  2  0  0  0  0
 30 60  1  0  0  0  0
 30 65  1  0  0  0  0
 30 78  2  0  0  0  0
 31 61  1  0  0  0  0
 31 72  1  0  0  0  0
 31 79  2  0  0  0  0
 32 66  1  0  0  0  0
 32 73  1  0  0  0  0
 32 80  2  0  0  0  0
 33 36  1  0  0  0  0
 34 47  1  0  0  0  0
 35 65  1  0  0  0  0
 36 38  1  0  0  0  0
 37 39  1  0  0  0  0
 37 41  1  0  0  0  0
 38 46  1  0  0  0  0
 39 48  1  0  0  0  0
 40 49  1  0  0  0  0
 40 50  1  0  0  0  0
 41 66  1  0  0  0  0
 42 43  1  0  0  0  0
 42 67  1  0  0  0  0
 43 68  1  0  0  0  0
 44 48  1  0  0  0  0
 44 66  1  0  0  0  0
 45 51  1  0  0  0  0
 45 67  1  0  0  0  0
 46 71  1  0  0  0  0
 47 65  1  0  0  0  0
 48 64  1  0  0  0  0
 49 50  1  0  0  0  0
 49 68  1  0  0  0  0
 50 73  1  0  0  0  0
 51 57  1  0  0  0  0
 51 68  1  0  0  0  0
 52 61  1  0  0  0  0
 53 62  1  0  0  0  0
 54 62  1  0  0  0  0
 55 62  1  0  0  0  0
 56 75  1  0  0  0  0
 57 74  1  0  0  0  0
 58 59  1  0  0  0  0
 58 67  1  0  0  0  0
 59 82  1  0  0  0  0
 60 62  1  0  0  0  0
 60 72  1  0  0  0  0
 61 75  1  0  0  0  0
 63 64  1  0  0  0  0
M  CHG  2  74   1  75   1
M  ISO  4  32 100  59 101  73 100  82 101
M  END
> <Batch ID>
0192

> <Smiles>
CNC(C)C(=O)NC(C(=O)N1Cc2cc([101O:1][101CH2:1]CN3CCN(C4CC4[100NH:0][100C:0](=O)N4CCCC(n5nc(-c6ccc(Oc7ccc(F)cc7F)cc6)c(C(N)=O)c5N)C4)C(CN)C3)ccc2CC1C(=O)NC1CCCc2ccccc21)C(C)(C)C

> <Shape>
0.248

> <Color>
0.108

> <Negative vol penalty>
0.000

$$$$

  -OEChem-04052323293D

 82 91  0     1  0  0  0  0  0999 V2000
  -27.3919  -35.0722   24.1579 C   0  0  0  0  0  0  0  0  0  0  0  0
  -28.3002  -34.1399   23.6666 C   0  0  0  0  0  0  0  0  0  0  0  0
  -23.8308   -9.7562   21.8788 C   0  0  0  0  0  0  0  0  0  0  0  0
  -24.5685  -11.0971   23.7483 C   0  0  0  0  0  0  0  0  0  0  0  0
  -26.1067  -34.6690   24.5179 C   0  0  0  0  0  0  0  0  0  0  0  0
  -27.9241  -32.8035   23.5361 C   0  0  0  0  0  0  0  0  0  0  0  0
  -29.0633  -27.0607   19.4083 C   0  0  0  0  0  0  0  0  0  0  0  0
  -23.3768   -8.7759   22.7611 C   0  0  0  0  0  0  0  0  0  0  0  0
  -24.1145  -10.1168   24.6306 C   0  0  0  0  0  0  0  0  0  0  0  0
  -29.4271  -25.7185   19.5070 C   0  0  0  0  0  0  0  0  0  0  0  0
  -20.6964   -8.2715   24.7596 C   0  0  0  0  0  0  0  0  0  0  0  0
  -19.4364   -7.7214   24.5248 C   0  0  0  0  0  0  0  0  0  0  0  0
  -27.1550  -25.1514   20.0857 C   0  0  0  0  0  0  0  0  0  0  0  0
  -20.4341   -5.5326   24.2992 C   0  0  0  0  0  0  0  0  0  0  0  0
  -29.1534  -19.3723   21.3418 C   0  0  0  0  0  0  0  0  0  0  0  0
  -24.4267  -10.9168   22.3724 C   0  0  0  0  0  0  0  0  0  0  0  0
  -24.1694  -13.0267   20.9617 C   0  0  0  0  0  0  0  0  0  0  0  0
  -25.7116  -33.3287   24.3826 C   0  0  0  0  0  0  0  0  0  0  0  0
  -27.7428  -27.4605   19.6587 C   0  0  0  0  0  0  0  0  0  0  0  0
  -26.6328  -32.3817   23.8959 C   0  0  0  0  0  0  0  0  0  0  0  0
  -26.7764  -26.4990   19.9871 C   0  0  0  0  0  0  0  0  0  0  0  0
  -23.5186   -8.9561   24.1370 C   0  0  0  0  0  0  0  0  0  0  0  0
  -28.4736  -24.7639   19.8485 C   0  0  0  0  0  0  0  0  0  0  0  0
  -21.8253   -7.4523   24.7642 C   0  0  0  0  0  0  0  0  0  0  0  0
  -19.3052   -6.3519   24.2946 C   0  0  0  0  0  0  0  0  0  0  0  0
  -21.6942   -6.0828   24.5340 C   0  0  0  0  0  0  0  0  0  0  0  0
  -24.8964  -11.9296   21.4615 C   0  0  0  0  0  0  0  0  0  0  0  0
  -28.7632  -20.3069   19.3766 C   0  0  0  0  0  0  0  0  0  0  0  0
  -28.3869  -21.1512   20.3846 C   0  0  0  0  0  0  0  0  0  0  0  0
  -25.0562  -13.6819   20.1428 C   0  0  0  0  0  0  0  0  0  0  0  0
  -22.8136  -13.4184   21.2151 C   0  0  0  0  0  0  0  0  0  0  0  0
  -26.3401  -29.3656   21.7816 C   0  0  0  0  0  0  0  0  0  0  0  0
  -23.7028  -28.7753   19.9875 C   0  0  0  0  0  0  0  0  0  0  0  0
  -22.0887  -26.7110   17.8011 C   0  0  0  0  0  0  0  0  0  0  0  0
  -30.1504  -15.7244   19.1315 C   0  0  0  0  0  0  0  0  0  0  0  0
  -24.3269  -32.9316   24.8293 C   0  0  0  0  0  0  0  0  0  0  0  0
  -27.3605  -28.9088   19.5220 C   0  0  0  0  0  0  0  0  0  0  0  0
  -25.3408  -26.8738   20.2459 C   0  0  0  0  0  0  0  0  0  0  0  0
  -23.8870  -31.5659   24.3081 C   0  0  0  0  0  0  0  0  0  0  0  0
  -29.6007  -12.2794   18.4202 C   0  0  0  0  0  0  0  0  0  0  0  0
  -24.9968  -30.5375   24.5027 C   0  0  0  0  0  0  0  0  0  0  0  0
  -28.2716  -11.9706   19.1118 C   0  0  0  0  0  0  0  0  0  0  0  0
  -29.0787  -18.6209   17.7644 C   0  0  0  0  0  0  0  0  0  0  0  0
  -30.4411  -13.2662   19.2275 C   0  0  0  0  0  0  0  0  0  0  0  0
  -28.4215  -14.2103   20.2781 C   0  0  0  0  0  0  0  0  0  0  0  0
  -26.2543  -30.9275   23.7165 C   0  0  1  0  0  0  0  0  0  0  0  0
  -26.0999  -29.2702   20.3014 C   0  0  1  0  0  0  0  0  0  0  0  0
  -27.5148  -13.2625   19.4743 C   0  0  2  0  0  0  0  0  0  0  0  0
  -29.7125  -18.1671   19.1044 C   0  0  1  0  0  0  0  0  0  0  0  0
  -28.8489  -20.1702   17.8994 C   0  0  0  0  0  0  0  0  0  0  0  0
  -30.0486  -20.9497   17.3507 C   0  0  0  0  0  0  0  0  0  0  0  0
  -27.5621  -20.6033   17.1998 C   0  0  0  0  0  0  0  0  0  0  0  0
  -19.9308  -26.4751   16.5421 C   0  0  0  0  0  0  0  0  0  0  0  0
  -22.3005  -27.9152   22.5572 C   0  0  0  0  0  0  0  0  0  0  0  0
  -20.5428  -26.8212   21.1495 C   0  0  0  0  0  0  0  0  0  0  0  0
  -20.8938  -29.2869   21.0100 C   0  0  0  0  0  0  0  0  0  0  0  0
  -23.4728  -26.7770   15.1859 C   0  0  0  0  0  0  0  0  0  0  0  0
  -27.7983  -22.5288   20.3003 C   0  0  0  0  0  0  0  0  0  1  0  0
  -22.6124  -27.7313   20.0009 C   0  0  1  0  0  0  0  0  0  0  0  0
  -21.3597  -26.9939   16.5000 C   0  0  2  0  0  0  0  0  0  0  0  0
  -21.6147  -27.9315   21.1765 C   0  0  0  0  0  0  0  0  0  0  0  0
  -28.6329  -20.5575   21.6133 N   0  0  0  0  0  0  0  0  0  0  0  0
  -26.1485  -11.8869   20.9987 N   0  0  0  0  0  0  0  0  0  0  0  0
  -29.2332  -19.1973   20.0118 N   0  0  0  0  0  0  0  0  0  0  0  0
  -26.2153  -12.9652   20.1994 N   0  0  0  0  0  0  0  0  0  0  0  0
  -25.0178  -28.3033   20.1059 N   0  0  0  0  0  0  0  0  0  0  0  0
  -29.6657  -14.4700   19.5370 N   0  0  0  0  0  0  0  0  0  0  0  0
  -24.9499  -14.7954   19.3870 N   0  0  0  0  0  0  0  0  0  0  0  0
  -22.0421  -12.6328   22.0822 N   0  0  0  0  0  0  0  0  0  0  0  0
  -26.0895  -30.6164   22.3128 N   0  0  0  0  0  0  0  0  0  0  0  0
  -21.9946  -27.7694   18.6798 N   0  0  0  0  0  0  0  0  0  0  0  0
  -29.3511  -16.8127   19.4592 N   0  0  0  0  0  0  0  0  0  0  0  0
  -22.0631  -26.3414   15.3596 N   0  3  0  0  0  0  0  0  0  0  0  0
  -22.2965  -14.4258   20.6755 O   0  0  0  0  0  0  0  0  0  0  0  0
  -26.7229  -28.3772   22.3965 O   0  0  0  0  0  0  0  0  0  0  0  0
  -23.3995  -29.9651   19.8689 O   0  0  0  0  0  0  0  0  0  0  0  0
  -22.6793  -25.6552   18.0178 O   0  0  0  0  0  0  0  0  0  0  0  0
  -31.2139  -15.8637   18.5179 O   0  0  0  0  0  0  0  0  0  0  0  0
  -23.0755   -7.9999   24.9982 O   0  0  0  0  0  0  0  0  0  0  0  0
  -28.8261  -23.4532   19.9462 O   0  0  0  0  0  0  0  0  0  1  0  0
  -18.0949   -5.8235   24.0706 F   0  0  0  0  0  0  0  0  0  0  0  0
  -22.7749   -5.2905   24.5383 F   0  0  0  0  0  0  0  0  0  0  0  0
  1  2  1  0  0  0  0
  1  5  2  0  0  0  0
  2  6  2  0  0  0  0
  3  8  2  0  0  0  0
  3 16  1  0  0  0  0
  4  9  1  0  0  0  0
  4 16  2  0  0  0  0
  5 18  1  0  0  0  0
  6 20  1  0  0  0  0
  7 10  2  0  0  0  0
  7 19  1  0  0  0  0
  8 22  1  0  0  0  0
  9 22  2  0  0  0  0
 10 23  1  0  0  0  0
 11 12  2  0  0  0  0
 11 24  1  0  0  0  0
 12 25  1  0  0  0  0
 13 21  1  0  0  0  0
 13 23  2  0  0  0  0
 14 25  2  0  0  0  0
 14 26  1  0  0  0  0
 15 62  2  0  0  0  0
 15 64  1  0  0  0  0
 16 27  1  0  0  0  0
 17 27  1  0  0  0  0
 17 30  2  0  0  0  0
 17 31  1  0  0  0  0
 18 20  2  0  0  0  0
 18 36  1  0  0  0  0
 19 21  2  0  0  0  0
 19 37  1  0  0  0  0
 20 46  1  0  0  0  0
 21 38  1  0  0  0  0
 22 79  1  0  0  0  0
 23 80  1  0  0  0  0
 24 26  2  0  0  0  0
 24 79  1  0  0  0  0
 25 81  1  0  0  0  0
 26 82  1  0  0  0  0
 27 63  2  0  0  0  0
 28 29  2  0  0  0  0
 28 50  1  0  0  0  0
 28 64  1  0  0  0  0
 29 58  1  0  0  0  0
 29 62  1  0  0  0  0
 30 65  1  0  0  0  0
 30 68  1  0  0  0  0
 31 69  1  0  0  0  0
 31 74  2  0  0  0  0
 32 47  1  0  0  0  0
 32 70  1  0  0  0  0
 32 75  2  0  0  0  0
 33 59  1  0  0  0  0
 33 66  1  0  0  0  0
 33 76  2  0  0  0  0
 34 60  1  0  0  0  0
 34 71  1  0  0  0  0
 34 77  2  0  0  0  0
 35 67  1  0  0  0  0
 35 72  1  0  0  0  0
 35 78  2  0  0  0  0
 36 39  1  0  0  0  0
 37 47  1  0  0  0  0
 38 66  1  0  0  0  0
 39 41  1  0  0  0  0
 40 42  1  0  0  0  0
 40 44  1  0  0  0  0
 41 46  1  0  0  0  0
 42 48  1  0  0  0  0
 43 49  1  0  0  0  0
 43 50  1  0  0  0  0
 44 67  1  0  0  0  0
 45 48  1  0  0  0  0
 45 67  1  0  0  0  0
 46 70  1  0  0  0  0
 47 66  1  0  0  0  0
 48 65  1  0  0  0  0
 49 64  1  0  0  0  0
 49 72  1  0  0  0  0
 50 51  1  0  0  0  0
 50 52  1  0  0  0  0
 53 60  1  0  0  0  0
 54 61  1  0  0  0  0
 55 61  1  0  0  0  0
 56 61  1  0  0  0  0
 57 73  1  0  0  0  0
 58 80  1  0  0  0  0
 59 61  1  0  0  0  0
 59 71  1  0  0  0  0
 60 73  1  0  0  0  0
 63 65  1  0  0  0  0
M  CHG  1  73   1
M  ISO  4  35 100  58 101  72 100  80 101
M  END
> <Batch ID>
0192

> <Smiles>
CNC(C)C(=O)NC(C(=O)N1Cc2cc([101O:1][101CH2:1]c3ncn4c3C(C)(C)CC4[100NH:0][100C:0](=O)N3CCCC(n4nc(-c5ccc(Oc6ccc(F)cc6F)cc5)c(C(N)=O)c4N)C3)ccc2CC1C(=O)NC1CCCc2ccccc21)C(C)(C)C

> <Shape>
0.336

> <Color>
0.115

> <Negative vol penalty>
0.000

$$$$

  -OEChem-04052323293D

 83 92  0     1  0  0  0  0  0999 V2000
  -27.5976  -31.3115   24.0578 C   0  0  0  0  0  0  0  0  0  0  0  0
  -27.2549  -30.4064   23.0583 C   0  0  0  0  0  0  0  0  0  0  0  0
  -26.3402  -12.7811   21.4691 C   0  0  0  0  0  0  0  0  0  0  0  0
  -26.0697  -13.3748   19.1429 C   0  0  0  0  0  0  0  0  0  0  0  0
  -26.9192  -31.2930   25.2758 C   0  0  0  0  0  0  0  0  0  0  0  0
  -26.2344  -29.4816   23.2767 C   0  0  0  0  0  0  0  0  0  0  0  0
  -23.0733  -29.1107   19.3378 C   0  0  0  0  0  0  0  0  0  0  0  0
  -25.1050  -12.1335   21.4475 C   0  0  0  0  0  0  0  0  0  0  0  0
  -24.8345  -12.7272   19.1212 C   0  0  0  0  0  0  0  0  0  0  0  0
  -23.5056  -28.3642   18.2425 C   0  0  0  0  0  0  0  0  0  0  0  0
  -23.8598   -9.1792   20.3729 C   0  0  0  0  0  0  0  0  0  0  0  0
  -23.7778   -7.9196   20.9664 C   0  0  0  0  0  0  0  0  0  0  0  0
  -22.1860  -26.4939   19.0040 C   0  0  0  0  0  0  0  0  0  0  0  0
  -22.1058   -8.7508   22.4996 C   0  0  0  0  0  0  0  0  0  0  0  0
  -26.1620  -24.1400   16.2653 C   0  0  0  0  0  0  0  0  0  0  0  0
  -26.8225  -13.4018   20.3168 C   0  0  0  0  0  0  0  0  0  0  0  0
  -26.8779  -24.1180   17.4449 C   0  0  0  0  0  0  0  0  0  0  0  0
  -29.3571  -13.5118   20.0493 C   0  0  0  0  0  0  0  0  0  0  0  0
  -25.8834  -30.3738   25.5056 C   0  0  0  0  0  0  0  0  0  0  0  0
  -22.2012  -28.5498   20.2819 C   0  0  0  0  0  0  0  0  0  0  0  0
  -25.5425  -29.4499   24.4993 C   0  0  0  0  0  0  0  0  0  0  0  0
  -21.7421  -27.2362   20.1090 C   0  0  0  0  0  0  0  0  0  0  0  0
  -24.3521  -12.1065   20.2736 C   0  0  0  0  0  0  0  0  0  0  0  0
  -23.0643  -27.0546   18.0771 C   0  0  0  0  0  0  0  0  0  0  0  0
  -23.0649  -10.2247   20.8428 C   0  0  0  0  0  0  0  0  0  0  0  0
  -22.9008   -7.7054   22.0297 C   0  0  0  0  0  0  0  0  0  0  0  0
  -22.1879  -10.0105   21.9061 C   0  0  0  0  0  0  0  0  0  0  0  0
  -28.0982  -14.0714   20.3387 C   0  0  0  0  0  0  0  0  0  0  0  0
  -26.3685  -24.8926   18.4670 C   0  0  0  0  0  0  0  0  0  0  0  0
  -30.2402  -14.5512   20.2110 C   0  0  0  0  0  0  0  0  0  0  0  0
  -24.6396  -25.5731   17.1575 C   0  0  0  0  0  0  0  0  0  1  0  0
  -28.0843  -23.3195   17.5629 C   0  0  0  0  0  0  0  0  0  0  0  0
  -28.1709  -21.9789   17.3889 C   0  0  0  0  0  0  0  0  0  0  0  0
  -29.6977  -12.1722   19.6682 C   0  0  0  0  0  0  0  0  0  0  0  0
  -22.3699  -27.9135   23.3916 C   0  0  0  0  0  0  0  0  0  0  0  0
  -19.2453  -27.1328   23.0045 C   0  0  0  0  0  0  0  0  0  0  0  0
  -16.7481  -26.1300   20.9057 C   0  0  0  0  0  0  0  0  0  0  0  0
  -29.6420  -20.4995   19.8773 C   0  0  0  0  0  0  0  0  0  0  0  0
  -25.2107  -30.3608   26.8555 C   0  0  0  0  0  0  0  0  0  0  0  0
  -21.7231  -29.3772   21.4434 C   0  0  0  0  0  0  0  0  0  0  0  0
  -20.7894  -26.5945   21.0832 C   0  0  0  0  0  0  0  0  0  0  0  0
  -23.8895  -29.5963   26.8702 C   0  0  0  0  0  0  0  0  0  0  0  0
  -30.8269  -18.6197   22.6592 C   0  0  0  0  0  0  0  0  0  0  0  0
  -24.0414  -28.2541   26.1615 C   0  0  0  0  0  0  0  0  0  0  0  0
  -26.7588  -23.8846   20.8134 C   0  0  0  0  0  0  0  0  0  0  0  0
  -26.2629  -25.2817   21.0196 C   0  0  0  0  0  0  0  0  0  0  0  0
  -30.3756  -17.1904   22.3538 C   0  0  0  0  0  0  0  0  0  0  0  0
  -29.7960  -19.6478   22.1983 C   0  0  0  0  0  0  0  0  0  0  0  0
  -28.9436  -18.1021   20.4784 C   0  0  0  0  0  0  0  0  0  0  0  0
  -24.4245  -28.4479   24.6893 C   0  0  1  0  0  0  0  0  0  0  0  0
  -27.0625  -24.9451   19.7910 C   0  0  0  0  0  0  0  0  0  0  0  0
  -21.2400  -28.5336   22.6192 C   0  0  1  0  0  0  0  0  0  0  0  0
  -29.9759  -17.0326   20.8744 C   0  0  2  0  0  0  0  0  0  0  0  0
  -14.3092  -25.5394   20.8866 C   0  0  0  0  0  0  0  0  0  0  0  0
  -19.8908  -24.4361   24.2776 C   0  0  0  0  0  0  0  0  0  0  0  0
  -17.7195  -23.5712   23.3800 C   0  0  0  0  0  0  0  0  0  0  0  0
  -17.7289  -25.4499   25.0211 C   0  0  0  0  0  0  0  0  0  0  0  0
  -16.1136  -28.3202   19.0191 C   0  0  0  0  0  0  0  0  0  0  0  0
  -29.4432  -21.2025   17.5055 C   0  0  0  0  0  0  0  0  0  0  0  0
  -18.4944  -25.8724   22.6488 C   0  0  1  0  0  0  0  0  0  0  0  0
  -15.3353  -26.6466   20.7019 C   0  0  2  0  0  0  0  0  0  0  0  0
  -18.4779  -24.8435   23.8144 C   0  0  0  0  0  0  0  0  0  0  0  0
  -25.0344  -24.8590   16.0862 N   0  0  0  0  0  0  0  0  0  0  0  0
  -28.1708  -15.3658   20.6601 N   0  0  0  0  0  0  0  0  0  0  0  0
  -25.2476  -25.6354   18.3575 N   0  0  0  0  0  0  0  0  0  0  0  0
  -29.4860  -15.6282   20.5737 N   0  0  0  0  0  0  0  0  0  0  0  0
  -20.3556  -27.4421   22.2061 N   0  0  0  0  0  0  0  0  0  0  0  0
  -29.4616  -19.4443   20.7867 N   0  0  0  0  0  0  0  0  0  0  0  0
  -31.5806  -14.6398   20.0770 N   0  0  0  0  0  0  0  0  0  0  0  0
  -28.6677  -11.2294   19.5481 N   0  0  0  0  0  0  0  0  0  0  0  0
  -23.2651  -28.8289   23.9114 N   0  0  0  0  0  0  0  0  0  0  0  0
  -17.1702  -26.2969   22.2077 N   0  0  0  0  0  0  0  0  0  0  0  0
  -29.3067  -20.2205   18.5580 N   0  0  0  0  0  0  0  0  0  0  0  0
  -15.1813  -27.2060   19.3292 N   0  3  0  0  0  0  0  0  0  0  0  0
  -30.8823  -11.8177   19.4569 O   0  0  0  0  0  0  0  0  0  0  0  0
  -22.4246  -26.6949   23.5087 O   0  0  0  0  0  0  0  0  0  0  0  0
  -18.8567  -27.8215   23.9513 O   0  0  0  0  0  0  0  0  0  0  0  0
  -17.4097  -25.6252   20.0012 O   0  0  0  0  0  0  0  0  0  0  0  0
  -30.0750  -21.6064   20.2150 O   0  0  0  0  0  0  0  0  0  0  0  0
  -23.1469  -11.4745   20.2520 O   0  0  0  0  0  0  0  0  0  0  0  0
  -23.4852  -26.3236   17.0093 O   0  0  0  0  0  0  0  0  0  1  0  0
  -22.8210   -6.4953   22.5985 F   0  0  0  0  0  0  0  0  0  0  0  0
  -21.4208  -11.0107   22.3611 F   0  0  0  0  0  0  0  0  0  0  0  0
  1  2  1  0  0  0  0
  1  5  2  0  0  0  0
  2  6  2  0  0  0  0
  3  8  2  0  0  0  0
  3 16  1  0  0  0  0
  4  9  1  0  0  0  0
  4 16  2  0  0  0  0
  5 19  1  0  0  0  0
  6 21  1  0  0  0  0
  7 10  2  0  0  0  0
  7 20  1  0  0  0  0
  8 23  1  0  0  0  0
  9 23  2  0  0  0  0
 10 24  1  0  0  0  0
 11 12  2  0  0  0  0
 11 25  1  0  0  0  0
 12 26  1  0  0  0  0
 13 22  1  0  0  0  0
 13 24  2  0  0  0  0
 14 26  2  0  0  0  0
 14 27  1  0  0  0  0
 15 17  1  0  0  0  0
 15 63  2  0  0  0  0
 16 28  1  0  0  0  0
 17 29  2  0  0  0  0
 17 32  1  0  0  0  0
 18 28  1  0  0  0  0
 18 30  2  0  0  0  0
 18 34  1  0  0  0  0
 19 21  2  0  0  0  0
 19 39  1  0  0  0  0
 20 22  2  0  0  0  0
 20 40  1  0  0  0  0
 21 50  1  0  0  0  0
 22 41  1  0  0  0  0
 23 80  1  0  0  0  0
 24 81  1  0  0  0  0
 25 27  2  0  0  0  0
 25 80  1  0  0  0  0
 26 82  1  0  0  0  0
 27 83  1  0  0  0  0
 28 64  2  0  0  0  0
 29 51  1  0  0  0  0
 29 65  1  0  0  0  0
 30 66  1  0  0  0  0
 30 69  1  0  0  0  0
 31 63  1  0  0  0  0
 31 65  2  0  0  0  0
 31 81  1  0  0  0  0
 32 33  2  0  0  0  0
 33 59  1  0  0  0  0
 34 70  1  0  0  0  0
 34 75  2  0  0  0  0
 35 52  1  0  0  0  0
 35 71  1  0  0  0  0
 35 76  2  0  0  0  0
 36 60  1  0  0  0  0
 36 67  1  0  0  0  0
 36 77  2  0  0  0  0
 37 61  1  0  0  0  0
 37 72  1  0  0  0  0
 37 78  2  0  0  0  0
 38 68  1  0  0  0  0
 38 73  1  0  0  0  0
 38 79  2  0  0  0  0
 39 42  1  0  0  0  0
 40 52  1  0  0  0  0
 41 67  1  0  0  0  0
 42 44  1  0  0  0  0
 43 47  1  0  0  0  0
 43 48  1  0  0  0  0
 44 50  1  0  0  0  0
 45 46  1  0  0  0  0
 45 51  1  0  0  0  0
 46 51  1  0  0  0  0
 47 53  1  0  0  0  0
 48 68  1  0  0  0  0
 49 53  1  0  0  0  0
 49 68  1  0  0  0  0
 50 71  1  0  0  0  0
 52 67  1  0  0  0  0
 53 66  1  0  0  0  0
 54 61  1  0  0  0  0
 55 62  1  0  0  0  0
 56 62  1  0  0  0  0
 57 62  1  0  0  0  0
 58 74  1  0  0  0  0
 59 73  1  0  0  0  0
 60 62  1  0  0  0  0
 60 72  1  0  0  0  0
 61 74  1  0  0  0  0
 64 66  1  0  0  0  0
M  CHG  1  74   1
M  ISO  4  31 101  38 100  73 100  81 101
M  END
> <Batch ID>
0192

> <Smiles>
CNC(C)C(=O)NC(C(=O)N1Cc2cc([101O:1][101c:1]3ncc(C=CC[100NH:0][100C:0](=O)N4CCCC(n5nc(-c6ccc(Oc7ccc(F)cc7F)cc6)c(C(N)=O)c5N)C4)c(C4CC4)n3)ccc2CC1C(=O)NC1CCCc2ccccc21)C(C)(C)C

> <Shape>
0.280

> <Color>
0.052

> <Negative vol penalty>
0.000

$$$$

  -OEChem-04052323293D

 84 93  0     1  0  0  0  0  0999 V2000
  -25.9268  -24.0678   16.6822 C   0  0  0  0  0  0  0  0  0  0  0  0
  -24.8784  -24.5499   17.4593 C   0  0  0  0  0  0  0  0  0  0  0  0
  -24.2039  -15.2008   20.8358 C   0  0  0  0  0  0  0  0  0  0  0  0
  -23.3005  -13.3566   22.1085 C   0  0  0  0  0  0  0  0  0  0  0  0
  -27.2449  -24.2694   17.0894 C   0  0  0  0  0  0  0  0  0  0  0  0
  -25.1475  -25.2329   18.6448 C   0  0  0  0  0  0  0  0  0  0  0  0
  -22.3419  -29.4178   19.1556 C   0  0  0  0  0  0  0  0  0  0  0  0
  -25.1991  -14.3644   20.3302 C   0  0  0  0  0  0  0  0  0  0  0  0
  -24.2957  -12.5201   21.6029 C   0  0  0  0  0  0  0  0  0  0  0  0
  -21.0182  -29.2514   19.5604 C   0  0  0  0  0  0  0  0  0  0  0  0
  -28.1370  -13.0687   21.3858 C   0  0  0  0  0  0  0  0  0  0  0  0
  -29.4434  -13.5570   21.3636 C   0  0  0  0  0  0  0  0  0  0  0  0
  -21.6405  -29.8391   21.8157 C   0  0  0  0  0  0  0  0  0  0  0  0
  -17.3591  -26.5397   22.5574 C   0  0  0  0  0  0  0  0  0  0  0  0
  -29.5020  -13.2908   18.9630 C   0  0  0  0  0  0  0  0  0  0  0  0
  -23.2547  -14.6969   21.7250 C   0  0  0  0  0  0  0  0  0  0  0  0
  -20.9551  -15.8009   21.6940 C   0  0  0  0  0  0  0  0  0  0  0  0
  -27.5305  -24.9638   18.2756 C   0  0  0  0  0  0  0  0  0  0  0  0
  -23.3285  -29.7861   20.0815 C   0  0  0  0  0  0  0  0  0  0  0  0
  -26.4707  -25.4429   19.0690 C   0  0  0  0  0  0  0  0  0  0  0  0
  -22.9755  -30.0120   21.4196 C   0  0  0  0  0  0  0  0  0  0  0  0
  -17.6850  -27.8175   22.1377 C   0  0  0  0  0  0  0  0  0  0  0  0
  -25.2450  -13.0241   20.7137 C   0  0  0  0  0  0  0  0  0  0  0  0
  -20.6678  -29.4593   20.8912 C   0  0  0  0  0  0  0  0  0  0  0  0
  -27.5131  -12.6914   20.1967 C   0  0  0  0  0  0  0  0  0  0  0  0
  -30.1259  -13.6681   20.1522 C   0  0  0  0  0  0  0  0  0  0  0  0
  -28.1956  -12.8025   18.9852 C   0  0  0  0  0  0  0  0  0  0  0  0
  -22.2268  -15.5605   22.2481 C   0  0  0  0  0  0  0  0  0  0  0  0
  -18.3499  -25.5790   22.5321 C   0  0  0  0  0  0  0  0  0  0  0  0
  -18.9801  -28.0499   21.7205 C   0  0  0  0  0  0  0  0  0  1  0  0
  -20.3647  -16.6874   22.5612 C   0  0  0  0  0  0  0  0  0  0  0  0
  -20.3607  -15.2701   20.5021 C   0  0  0  0  0  0  0  0  0  0  0  0
  -25.9917  -28.4398   21.1765 C   0  0  0  0  0  0  0  0  0  0  0  0
  -26.3526  -31.2922   22.6786 C   0  0  0  0  0  0  0  0  0  0  0  0
  -24.8943  -34.1125   23.9301 C   0  0  0  0  0  0  0  0  0  0  0  0
  -20.9065  -21.4334   25.5710 C   0  0  0  0  0  0  0  0  0  0  0  0
  -28.9701  -25.1159   18.6989 C   0  0  0  0  0  0  0  0  0  0  0  0
  -24.7470  -29.9875   19.6236 C   0  0  0  0  0  0  0  0  0  0  0  0
  -23.9933  -30.4283   22.4489 C   0  0  0  0  0  0  0  0  0  0  0  0
  -29.1791  -26.1763   19.7770 C   0  0  0  0  0  0  0  0  0  0  0  0
  -21.7651  -18.2404   27.1648 C   0  0  0  0  0  0  0  0  0  0  0  0
  -28.1456  -26.0192   20.8878 C   0  0  0  0  0  0  0  0  0  0  0  0
  -21.9033  -17.2929   25.9723 C   0  0  0  0  0  0  0  0  0  0  0  0
  -18.2444  -21.8525   23.0702 C   0  0  0  0  0  0  0  0  0  0  0  0
  -22.1306  -19.6771   26.7988 C   0  0  0  0  0  0  0  0  0  0  0  0
  -19.3496  -20.9418   23.5949 C   0  0  0  0  0  0  0  0  0  0  0  0
  -21.5548  -19.2640   24.4385 C   0  0  0  0  0  0  0  0  0  0  0  0
  -19.8126  -23.2096   24.2332 C   0  0  0  0  0  0  0  0  0  0  0  0
  -26.7228  -26.2103   20.3487 C   0  0  1  0  0  0  0  0  0  0  0  0
  -25.7633  -29.8637   20.7546 C   0  0  1  0  0  0  0  0  0  0  0  0
  -21.1301  -17.8223   24.7500 C   0  0  1  0  0  0  0  0  0  0  0  0
  -18.9532  -23.1994   22.9780 C   0  0  2  0  0  0  0  0  0  0  0  0
  -25.4419  -36.2454   25.1334 C   0  0  0  0  0  0  0  0  0  0  0  0
  -26.6669  -29.7379   25.2854 C   0  0  0  0  0  0  0  0  0  0  0  0
  -26.2568  -31.8731   26.5267 C   0  0  0  0  0  0  0  0  0  0  0  0
  -28.2377  -31.6663   25.0247 C   0  0  0  0  0  0  0  0  0  0  0  0
  -23.8840  -35.7688   21.6952 C   0  0  0  0  0  0  0  0  0  0  0  0
  -16.6564  -28.8944   22.1433 C   0  0  0  0  0  0  0  0  0  0  0  0
  -25.9292  -31.8593   24.0120 C   0  0  1  0  0  0  0  0  0  0  0  0
  -25.2478  -35.5811   23.7793 C   0  0  2  0  0  0  0  0  0  0  0  0
  -26.7536  -31.2745   25.1934 C   0  0  0  0  0  0  0  0  0  0  0  0
  -22.4330  -16.2397   23.3795 N   0  0  0  0  0  0  0  0  0  0  0  0
  -19.6093  -25.8347   22.1189 N   0  0  0  0  0  0  0  0  0  0  0  0
  -19.9296  -27.0905   21.7064 N   0  0  0  0  0  0  0  0  0  0  0  0
  -21.2830  -16.9156   23.5435 N   0  0  0  0  0  0  0  0  0  0  0  0
  -25.3681  -30.6061   21.9533 N   0  0  0  0  0  0  0  0  0  0  0  0
  -21.3912  -20.1217   25.6171 N   0  0  0  0  0  0  0  0  0  0  0  0
  -20.1610  -21.8081   24.4540 N   0  0  0  0  0  0  0  0  0  0  0  0
  -19.1549  -17.2863   22.5716 N   0  0  0  0  0  0  0  0  0  0  0  0
  -21.1059  -14.3711   19.7271 N   0  0  0  0  0  0  0  0  0  0  0  0
  -18.0230  -24.2971   22.9531 N   0  0  0  0  0  0  0  0  0  0  0  0
  -26.4383  -27.6167   20.1604 N   0  0  0  0  0  0  0  0  0  0  0  0
  -26.0147  -33.3101   23.8842 N   0  0  0  0  0  0  0  0  0  0  0  0
  -16.5993  -29.6534   23.4241 N   0  3  0  0  0  0  0  0  0  0  0  0
  -24.1649  -36.3026   23.0528 N   0  3  0  0  0  0  0  0  0  0  0  0
  -19.2091  -15.5964   20.1266 O   0  0  0  0  0  0  0  0  0  0  0  0
  -25.7799  -28.1126   22.3383 O   0  0  0  0  0  0  0  0  0  0  0  0
  -27.5120  -31.4581   22.2914 O   0  0  0  0  0  0  0  0  0  0  0  0
  -23.7400  -33.7169   24.0777 O   0  0  0  0  0  0  0  0  0  0  0  0
  -21.0910  -22.2216   26.5080 O   0  0  0  0  0  0  0  0  0  0  0  0
  -26.2158  -12.2075   20.2203 O   0  0  0  0  0  0  0  0  0  0  0  0
  -19.3571  -29.2945   21.2952 O   0  0  0  0  0  0  0  0  0  1  0  0
  -31.3799  -14.1384   20.1308 F   0  0  0  0  0  0  0  0  0  0  0  0
  -27.6010  -12.4427   17.8394 F   0  0  0  0  0  0  0  0  0  0  0  0
  1  2  1  0  0  0  0
  1  5  2  0  0  0  0
  2  6  2  0  0  0  0
  3  8  2  0  0  0  0
  3 16  1  0  0  0  0
  4  9  1  0  0  0  0
  4 16  2  0  0  0  0
  5 18  1  0  0  0  0
  6 20  1  0  0  0  0
  7 10  2  0  0  0  0
  7 19  1  0  0  0  0
  8 23  1  0  0  0  0
  9 23  2  0  0  0  0
 10 24  1  0  0  0  0
 11 12  2  0  0  0  0
 11 25  1  0  0  0  0
 12 26  1  0  0  0  0
 13 21  1  0  0  0  0
 13 24  2  0  0  0  0
 14 22  1  0  0  0  0
 14 29  2  0  0  0  0
 15 26  2  0  0  0  0
 15 27  1  0  0  0  0
 16 28  1  0  0  0  0
 17 28  1  0  0  0  0
 17 31  2  0  0  0  0
 17 32  1  0  0  0  0
 18 20  2  0  0  0  0
 18 37  1  0  0  0  0
 19 21  2  0  0  0  0
 19 38  1  0  0  0  0
 20 49  1  0  0  0  0
 21 39  1  0  0  0  0
 22 30  2  0  0  0  0
 22 58  1  0  0  0  0
 23 81  1  0  0  0  0
 24 82  1  0  0  0  0
 25 27  2  0  0  0  0
 25 81  1  0  0  0  0
 26 83  1  0  0  0  0
 27 84  1  0  0  0  0
 28 62  2  0  0  0  0
 29 63  1  0  0  0  0
 29 71  1  0  0  0  0
 30 64  1  0  0  0  0
 30 82  1  0  0  0  0
 31 65  1  0  0  0  0
 31 69  1  0  0  0  0
 32 70  1  0  0  0  0
 32 76  2  0  0  0  0
 33 50  1  0  0  0  0
 33 72  1  0  0  0  0
 33 77  2  0  0  0  0
 34 59  1  0  0  0  0
 34 66  1  0  0  0  0
 34 78  2  0  0  0  0
 35 60  1  0  0  0  0
 35 73  1  0  0  0  0
 35 79  2  0  0  0  0
 36 67  1  0  0  0  0
 36 68  1  0  0  0  0
 36 80  2  0  0  0  0
 37 40  1  0  0  0  0
 38 50  1  0  0  0  0
 39 66  1  0  0  0  0
 40 42  1  0  0  0  0
 41 43  1  0  0  0  0
 41 45  1  0  0  0  0
 42 49  1  0  0  0  0
 43 51  1  0  0  0  0
 44 46  1  0  0  0  0
 44 52  1  0  0  0  0
 45 67  1  0  0  0  0
 46 68  1  0  0  0  0
 47 51  1  0  0  0  0
 47 67  1  0  0  0  0
 48 52  1  0  0  0  0
 48 68  1  0  0  0  0
 49 72  1  0  0  0  0
 50 66  1  0  0  0  0
 51 65  1  0  0  0  0
 52 71  1  0  0  0  0
 53 60  1  0  0  0  0
 54 61  1  0  0  0  0
 55 61  1  0  0  0  0
 56 61  1  0  0  0  0
 57 75  1  0  0  0  0
 58 74  1  0  0  0  0
 59 61  1  0  0  0  0
 59 73  1  0  0  0  0
 60 75  1  0  0  0  0
 62 65  1  0  0  0  0
 63 64  2  0  0  0  0
M  CHG  2  74   1  75   1
M  ISO  4  30 101  36 100  68 100  82 101
M  END
> <Batch ID>
0192

> <Smiles>
CNC(C)C(=O)NC(C(=O)N1Cc2cc([101O:1][101c:1]3nnc(NC4CC[100N:0]([100C:0](=O)N5CCCC(n6nc(-c7ccc(Oc8ccc(F)cc8F)cc7)c(C(N)=O)c6N)C5)C4)cc3CN)ccc2CC1C(=O)NC1CCCc2ccccc21)C(C)(C)C

> <Shape>
0.306

> <Color>
0.068

> <Negative vol penalty>
0.000

$$$$

  -OEChem-04052323293D

 82 90  0     1  0  0  0  0  0999 V2000
  -20.2637  -23.9421   19.2181 C   0  0  0  0  0  0  0  0  0  0  0  0
  -21.5803  -23.6387   19.5494 C   0  0  0  0  0  0  0  0  0  0  0  0
  -24.0060  -29.9483   20.7726 C   0  0  0  0  0  0  0  0  0  0  0  0
  -24.0672  -27.7381   21.7463 C   0  0  0  0  0  0  0  0  0  0  0  0
  -19.2334  -23.0871   19.6071 C   0  0  0  0  0  0  0  0  0  0  0  0
  -21.8673  -22.4805   20.2710 C   0  0  0  0  0  0  0  0  0  0  0  0
  -25.8258  -19.9473   18.3847 C   0  0  0  0  0  0  0  0  0  0  0  0
  -22.7791  -30.1871   21.3917 C   0  0  0  0  0  0  0  0  0  0  0  0
  -22.8403  -27.9769   22.3655 C   0  0  0  0  0  0  0  0  0  0  0  0
  -27.0963  -20.4385   18.6818 C   0  0  0  0  0  0  0  0  0  0  0  0
  -19.5728  -27.9926   21.4971 C   0  0  0  0  0  0  0  0  0  0  0  0
  -18.6094  -26.9858   21.4363 C   0  0  0  0  0  0  0  0  0  0  0  0
  -27.3280  -18.7749   20.4132 C   0  0  0  0  0  0  0  0  0  0  0  0
  -18.5866  -26.8618   23.8490 C   0  0  0  0  0  0  0  0  0  0  0  0
  -24.6501  -28.7238   20.9499 C   0  0  0  0  0  0  0  0  0  0  0  0
  -27.1127  -29.1989   20.4839 C   0  0  0  0  0  0  0  0  0  0  0  0
  -19.5088  -21.9129   20.3254 C   0  0  0  0  0  0  0  0  0  0  0  0
  -25.2916  -18.8713   19.1081 C   0  0  0  0  0  0  0  0  0  0  0  0
  -20.8396  -21.6096   20.6711 C   0  0  0  0  0  0  0  0  0  0  0  0
  -26.0516  -18.2702   20.1216 C   0  0  0  0  0  0  0  0  0  0  0  0
  -22.1963  -29.2014   22.1882 C   0  0  0  0  0  0  0  0  0  0  0  0
  -27.8465  -19.8542   19.6981 C   0  0  0  0  0  0  0  0  0  0  0  0
  -20.0432  -28.4340   22.7339 C   0  0  0  0  0  0  0  0  0  0  0  0
  -18.1163  -26.4204   22.6122 C   0  0  0  0  0  0  0  0  0  0  0  0
  -19.5501  -27.8686   23.9098 C   0  0  0  0  0  0  0  0  0  0  0  0
  -25.9172  -28.4763   20.3102 C   0  0  0  0  0  0  0  0  0  0  0  0
  -28.0160  -28.5713   19.6613 C   0  0  0  0  0  0  0  0  0  0  0  0
  -33.1460  -24.1152   19.9563 C   0  0  0  0  0  0  0  0  0  0  0  0
  -33.3887  -23.0094   20.6757 C   0  0  0  0  0  0  0  0  0  0  0  0
  -27.3827  -30.3359   21.3148 C   0  0  0  0  0  0  0  0  0  0  0  0
  -22.7589  -18.4680   20.9860 C   0  0  0  0  0  0  0  0  0  0  0  0
  -23.7006  -15.3643   20.9323 C   0  0  0  0  0  0  0  0  0  0  0  0
  -26.2243  -13.1097   20.4916 C   0  0  0  0  0  0  0  0  0  0  0  0
  -30.3245  -23.9183   17.6205 C   0  0  0  0  0  0  0  0  0  0  0  0
  -18.3573  -21.0437   20.7649 C   0  0  0  0  0  0  0  0  0  0  0  0
  -23.9303  -18.3360   18.7575 C   0  0  0  0  0  0  0  0  0  0  0  0
  -25.5318  -17.0998   20.9143 C   0  0  0  0  0  0  0  0  0  0  0  0
  -33.4380  -25.4905   20.4883 C   0  0  0  0  0  0  0  0  0  0  0  0
  -18.7827  -19.6447   21.2030 C   0  0  0  0  0  0  0  0  0  0  0  0
  -27.3256  -25.0649   16.0816 C   0  0  0  0  0  0  0  0  0  0  0  0
  -19.9862  -19.7206   22.1371 C   0  0  0  0  0  0  0  0  0  0  0  0
  -26.7877  -26.1091   17.0615 C   0  0  0  0  0  0  0  0  0  0  0  0
  -33.4431  -24.9660   17.6096 C   0  0  0  0  0  0  0  0  0  0  0  0
  -27.9842  -23.8947   16.8090 C   0  0  0  0  0  0  0  0  0  0  0  0
  -28.4950  -25.3205   18.7532 C   0  0  0  0  0  0  0  0  0  0  0  0
  -33.6229  -26.3812   18.1520 C   0  0  0  0  0  0  0  0  0  0  0  0
  -21.1934  -20.3499   21.4314 C   0  0  1  0  0  0  0  0  0  0  0  0
  -32.6255  -24.0580   18.5398 C   0  0  2  0  0  0  0  0  0  0  0  0
  -23.2780  -17.5664   19.9019 C   0  0  1  0  0  0  0  0  0  0  0  0
  -27.8713  -26.5468   18.0652 C   0  0  2  0  0  0  0  0  0  0  0  0
  -26.6971  -10.6458   20.5493 C   0  0  0  0  0  0  0  0  0  0  0  0
  -23.6679  -15.4319   23.9826 C   0  0  0  0  0  0  0  0  0  0  0  0
  -25.0262  -13.3288   23.9744 C   0  0  0  0  0  0  0  0  0  0  0  0
  -22.7404  -13.3391   22.9755 C   0  0  0  0  0  0  0  0  0  0  0  0
  -27.0259  -13.0790   17.6428 C   0  0  0  0  0  0  0  0  0  0  0  0
  -33.1159  -21.6236   20.1911 C   0  0  0  0  0  0  0  0  0  0  0  0
  -31.4285  -19.7883   20.0393 C   0  0  0  0  0  0  0  0  0  0  0  0
  -30.0381  -19.3997   20.5019 C   0  0  0  0  0  0  0  0  0  1  0  0
  -24.6259  -14.5133   21.7681 C   0  0  1  0  0  0  0  0  0  0  0  0
  -26.3006  -11.8291   19.6800 C   0  0  2  0  0  0  0  0  0  0  0  0
  -24.0244  -14.1766   23.1617 C   0  0  0  0  0  0  0  0  0  0  0  0
  -26.0459  -27.4669   19.4450 N   0  0  0  0  0  0  0  0  0  0  0  0
  -27.3331  -27.5508   19.0677 N   0  0  0  0  0  0  0  0  0  0  0  0
  -24.1930  -16.6165   20.5382 N   0  0  0  0  0  0  0  0  0  0  0  0
  -29.0029  -24.3777   17.7443 N   0  0  0  0  0  0  0  0  0  0  0  0
  -29.3198  -28.7984   19.3950 N   0  0  0  0  0  0  0  0  0  0  0  0
  -26.3414  -30.8544   22.0966 N   0  0  0  0  0  0  0  0  0  0  0  0
  -21.8232  -19.3879   20.5527 N   0  0  0  0  0  0  0  0  0  0  0  0
  -24.9480  -13.3436   20.9578 N   0  0  0  0  0  0  0  0  0  0  0  0
  -31.2284  -24.4307   18.5431 N   0  0  0  0  0  0  0  0  0  0  0  0
  -34.2308  -26.3125   19.5170 N   0  3  0  0  0  0  0  0  0  0  0  0
  -27.3050  -11.9671   18.5877 N   0  3  0  0  0  0  0  0  0  0  0  0
  -31.7568  -21.1407   20.5564 N   0  3  0  0  0  0  0  0  0  0  0  0
  -28.5094  -30.8861   21.3500 O   0  0  0  0  0  0  0  0  0  0  0  0
  -23.1752  -18.3376   22.1311 O   0  0  0  0  0  0  0  0  0  0  0  0
  -22.5849  -14.9310   20.6340 O   0  0  0  0  0  0  0  0  0  0  0  0
  -27.2003  -13.8286   20.6949 O   0  0  0  0  0  0  0  0  0  0  0  0
  -30.6743  -23.1153   16.7488 O   0  0  0  0  0  0  0  0  0  0  0  0
  -20.9992  -29.4342   22.7926 O   0  0  0  0  0  0  0  0  0  0  0  0
  -29.0866  -20.3322   19.9905 O   0  0  0  0  0  0  0  0  0  1  0  0
  -17.1899  -25.4547   22.5537 F   0  0  0  0  0  0  0  0  0  0  0  0
  -19.9974  -28.2893   25.1010 F   0  0  0  0  0  0  0  0  0  0  0  0
  1  2  1  0  0  0  0
  1  5  2  0  0  0  0
  2  6  2  0  0  0  0
  3  8  2  0  0  0  0
  3 15  1  0  0  0  0
  4  9  1  0  0  0  0
  4 15  2  0  0  0  0
  5 17  1  0  0  0  0
  6 19  1  0  0  0  0
  7 10  2  0  0  0  0
  7 18  1  0  0  0  0
  8 21  1  0  0  0  0
  9 21  2  0  0  0  0
 10 22  1  0  0  0  0
 11 12  2  0  0  0  0
 11 23  1  0  0  0  0
 12 24  1  0  0  0  0
 13 20  1  0  0  0  0
 13 22  2  0  0  0  0
 14 24  2  0  0  0  0
 14 25  1  0  0  0  0
 15 26  1  0  0  0  0
 16 26  1  0  0  0  0
 16 27  2  0  0  0  0
 16 30  1  0  0  0  0
 17 19  2  0  0  0  0
 17 35  1  0  0  0  0
 18 20  2  0  0  0  0
 18 36  1  0  0  0  0
 19 47  1  0  0  0  0
 20 37  1  0  0  0  0
 21 79  1  0  0  0  0
 22 80  1  0  0  0  0
 23 25  2  0  0  0  0
 23 79  1  0  0  0  0
 24 81  1  0  0  0  0
 25 82  1  0  0  0  0
 26 62  2  0  0  0  0
 27 63  1  0  0  0  0
 27 66  1  0  0  0  0
 28 29  2  0  0  0  0
 28 38  1  0  0  0  0
 28 48  1  0  0  0  0
 29 56  1  0  0  0  0
 30 67  1  0  0  0  0
 30 74  2  0  0  0  0
 31 49  1  0  0  0  0
 31 68  1  0  0  0  0
 31 75  2  0  0  0  0
 32 59  1  0  0  0  0
 32 64  1  0  0  0  0
 32 76  2  0  0  0  0
 33 60  1  0  0  0  0
 33 69  1  0  0  0  0
 33 77  2  0  0  0  0
 34 65  1  0  0  0  0
 34 70  1  0  0  0  0
 34 78  2  0  0  0  0
 35 39  1  0  0  0  0
 36 49  1  0  0  0  0
 37 64  1  0  0  0  0
 38 71  1  0  0  0  0
 39 41  1  0  0  0  0
 40 42  1  0  0  0  0
 40 44  1  0  0  0  0
 41 47  1  0  0  0  0
 42 50  1  0  0  0  0
 43 46  1  0  0  0  0
 43 48  1  0  0  0  0
 44 65  1  0  0  0  0
 45 50  1  0  0  0  0
 45 65  1  0  0  0  0
 46 71  1  0  0  0  0
 47 68  1  0  0  0  0
 48 70  1  0  0  0  0
 49 64  1  0  0  0  0
 50 63  1  0  0  0  0
 51 60  1  0  0  0  0
 52 61  1  0  0  0  0
 53 61  1  0  0  0  0
 54 61  1  0  0  0  0
 55 72  1  0  0  0  0
 56 73  1  0  0  0  0
 57 58  1  0  0  0  0
 57 73  1  0  0  0  0
 58 80  1  0  0  0  0
 59 61  1  0  0  0  0
 59 69  1  0  0  0  0
 60 72  1  0  0  0  0
 62 63  1  0  0  0  0
M  CHG  3  71   1  72   1  73   1
M  ISO  4  34 100  58 101  70 100  80 101
M  END
> <Batch ID>
0192

> <Smiles>
CNC(C)C(=O)NC(C(=O)N1Cc2cc([101O:1][101CH2:1]CNCC=C3CNCCC3[100NH:0][100C:0](=O)N3CCCC(n4nc(-c5ccc(Oc6ccc(F)cc6F)cc5)c(C(N)=O)c4N)C3)ccc2CC1C(=O)NC1CCCc2ccccc21)C(C)(C)C

> <Shape>
0.214

> <Color>
0.058

> <Negative vol penalty>
0.000

$$$$

  -OEChem-04052323293D

 85 94  0     1  0  0  0  0  0999 V2000
  -27.6828  -37.5739   18.7117 C   0  0  0  0  0  0  0  0  0  0  0  0
  -28.1558  -36.2686   18.6234 C   0  0  0  0  0  0  0  0  0  0  0  0
  -24.8394  -10.0791   23.3485 C   0  0  0  0  0  0  0  0  0  0  0  0
  -24.0485   -9.1094   21.2818 C   0  0  0  0  0  0  0  0  0  0  0  0
  -26.8158  -37.9317   19.7433 C   0  0  0  0  0  0  0  0  0  0  0  0
  -27.7629  -35.3205   19.5674 C   0  0  0  0  0  0  0  0  0  0  0  0
  -26.7925  -29.3506   18.6056 C   0  0  0  0  0  0  0  0  0  0  0  0
  -23.8955   -9.3368   24.0581 C   0  0  0  0  0  0  0  0  0  0  0  0
  -23.1046   -8.3670   21.9914 C   0  0  0  0  0  0  0  0  0  0  0  0
  -27.5864  -28.2248   18.8201 C   0  0  0  0  0  0  0  0  0  0  0  0
  -23.0446   -5.5500   23.8573 C   0  0  0  0  0  0  0  0  0  0  0  0
  -22.8979   -4.2034   23.5244 C   0  0  0  0  0  0  0  0  0  0  0  0
  -26.5021  -27.8727   20.9461 C   0  0  0  0  0  0  0  0  0  0  0  0
  -20.5817   -4.5952   22.9598 C   0  0  0  0  0  0  0  0  0  0  0  0
  -24.9159   -9.9655   21.9603 C   0  0  0  0  0  0  0  0  0  0  0  0
  -27.2056  -10.3490   20.9031 C   0  0  0  0  0  0  0  0  0  0  0  0
  -26.4044  -36.9851   20.6948 C   0  0  0  0  0  0  0  0  0  0  0  0
  -25.8535  -29.7529   19.5663 C   0  0  0  0  0  0  0  0  0  0  0  0
  -26.8906  -35.6662   20.6135 C   0  0  0  0  0  0  0  0  0  0  0  0
  -25.6958  -29.0025   20.7402 C   0  0  0  0  0  0  0  0  0  0  0  0
  -23.0281   -8.4807   23.3796 C   0  0  0  0  0  0  0  0  0  0  0  0
  -27.4433  -27.4873   19.9917 C   0  0  0  0  0  0  0  0  0  0  0  0
  -21.9597   -6.4192   23.7416 C   0  0  0  0  0  0  0  0  0  0  0  0
  -21.6665   -3.7260   23.0756 C   0  0  0  0  0  0  0  0  0  0  0  0
  -20.7283   -5.9418   23.2928 C   0  0  0  0  0  0  0  0  0  0  0  0
  -25.8903  -10.7325   21.2267 C   0  0  0  0  0  0  0  0  0  0  0  0
  -27.7134  -11.4180   20.2061 C   0  0  0  0  0  0  0  0  0  0  0  0
  -28.9586  -24.5700   21.5543 C   0  0  0  0  0  0  0  0  0  0  0  0
  -29.8501  -22.7088   21.2407 C   0  0  0  0  0  0  0  0  0  0  0  0
  -27.9057   -9.1348   21.2054 C   0  0  0  0  0  0  0  0  0  0  0  0
  -25.4480  -32.3470   21.3580 C   0  0  0  0  0  0  0  0  0  0  0  0
  -22.6861  -30.8638   22.1914 C   0  0  0  0  0  0  0  0  0  0  0  0
  -20.9434  -27.9458   22.4999 C   0  0  0  0  0  0  0  0  0  0  0  0
  -28.5497  -16.6647   19.4451 C   0  0  0  0  0  0  0  0  0  0  0  0
  -25.5033  -37.4304   21.8192 C   0  0  0  0  0  0  0  0  0  0  0  0
  -24.9861  -30.9543   19.3078 C   0  0  0  0  0  0  0  0  0  0  0  0
  -24.6880  -29.3807   21.7937 C   0  0  0  0  0  0  0  0  0  0  0  0
  -24.8390  -36.2739   22.5619 C   0  0  0  0  0  0  0  0  0  0  0  0
  -25.4354  -15.5081   18.3084 C   0  0  0  0  0  0  0  0  0  0  0  0
  -25.8618  -35.1893   22.8850 C   0  0  0  0  0  0  0  0  0  0  0  0
  -25.3770  -14.1193   18.9441 C   0  0  0  0  0  0  0  0  0  0  0  0
  -28.3207  -19.9842   20.5926 C   0  0  0  0  0  0  0  0  0  0  0  0
  -30.4762  -19.5432   19.3567 C   0  0  0  0  0  0  0  0  0  0  0  0
  -26.0246  -16.5501   19.2608 C   0  0  0  0  0  0  0  0  0  0  0  0
  -27.6039  -19.0072   19.6559 C   0  0  0  0  0  0  0  0  0  0  0  0
  -29.7137  -18.6002   18.4302 C   0  0  0  0  0  0  0  0  0  0  0  0
  -27.2862  -14.7875   20.4526 C   0  0  0  0  0  0  0  0  0  0  0  0
  -26.4676  -34.6032   21.6040 C   0  0  1  0  0  0  0  0  0  0  0  0
  -24.4211  -31.5691   20.5846 C   0  0  1  0  0  0  0  0  0  0  0  0
  -26.7524  -13.7076   19.4988 C   0  0  1  0  0  0  0  0  0  0  0  0
  -29.5406  -20.6168   19.9187 C   0  0  0  0  0  0  0  0  0  0  0  0
  -31.4954  -22.0826   23.9929 C   0  0  0  0  0  0  0  0  0  0  0  0
  -18.7218  -27.0475   23.2446 C   0  0  0  0  0  0  0  0  0  0  0  0
  -23.5244  -31.2124   25.1044 C   0  0  0  0  0  0  0  0  0  0  0  0
  -21.8035  -29.5054   25.7312 C   0  0  0  0  0  0  0  0  0  0  0  0
  -21.1021  -31.6448   24.6570 C   0  0  0  0  0  0  0  0  0  0  0  0
  -20.3449  -26.8714   19.8080 C   0  0  0  0  0  0  0  0  0  0  0  0
  -28.0099  -25.6832   21.4340 C   0  0  0  0  0  0  0  0  0  1  0  0
  -31.7714  -23.0430   22.8488 C   0  0  0  0  0  0  0  0  0  0  0  0
  -22.2794  -29.8891   23.2701 C   0  0  1  0  0  0  0  0  0  0  0  0
  -19.5395  -27.5607   22.0696 C   0  0  2  0  0  0  0  0  0  0  0  0
  -22.1978  -30.5567   24.6719 C   0  0  0  0  0  0  0  0  0  0  0  0
  -25.5819  -11.9502   20.7728 N   0  0  0  0  0  0  0  0  0  0  0  0
  -28.8176  -23.4142   20.8409 N   0  0  0  0  0  0  0  0  0  0  0  0
  -30.0134  -24.6241   22.3704 N   0  0  0  0  0  0  0  0  0  0  0  0
  -26.7106  -12.3411   20.1569 N   0  0  0  0  0  0  0  0  0  0  0  0
  -30.5666  -23.4216   22.1508 N   0  0  0  0  0  0  0  0  0  0  0  0
  -23.8678  -30.5669   21.4977 N   0  0  0  0  0  0  0  0  0  0  0  0
  -27.3160  -16.0956   19.7949 N   0  0  0  0  0  0  0  0  0  0  0  0
  -28.5493  -18.0257   19.1050 N   0  0  0  0  0  0  0  0  0  0  0  0
  -28.9154  -11.6491   19.6368 N   0  0  0  0  0  0  0  0  0  0  0  0
  -27.2355   -8.1397   21.9297 N   0  0  0  0  0  0  0  0  0  0  0  0
  -30.2520  -21.4365   20.8747 N   0  0  0  0  0  0  0  0  0  0  0  0
  -25.5446  -33.6746   20.9873 N   0  0  0  0  0  0  0  0  0  0  0  0
  -21.0297  -29.2835   22.8230 N   0  0  0  0  0  0  0  0  0  0  0  0
  -19.5906  -26.4935   21.0307 N   0  3  0  0  0  0  0  0  0  0  0  0
  -29.0960   -8.9449   20.8580 O   0  0  0  0  0  0  0  0  0  0  0  0
  -26.1031  -31.7846   22.2276 O   0  0  0  0  0  0  0  0  0  0  0  0
  -21.9775  -31.8484   21.9676 O   0  0  0  0  0  0  0  0  0  0  0  0
  -21.8699  -27.1397   22.5484 O   0  0  0  0  0  0  0  0  0  0  0  0
  -29.5909  -15.9961   19.4373 O   0  0  0  0  0  0  0  0  0  0  0  0
  -22.1071   -7.7560   24.0717 O   0  0  0  0  0  0  0  0  0  0  0  0
  -28.2206  -26.3837   20.2048 O   0  0  0  0  0  0  0  0  0  1  0  0
  -21.5263   -2.4332   22.7545 F   0  0  0  0  0  0  0  0  0  0  0  0
  -19.6829   -6.7723   23.1784 F   0  0  0  0  0  0  0  0  0  0  0  0
  1  2  1  0  0  0  0
  1  5  2  0  0  0  0
  2  6  2  0  0  0  0
  3  8  2  0  0  0  0
  3 15  1  0  0  0  0
  4  9  1  0  0  0  0
  4 15  2  0  0  0  0
  5 17  1  0  0  0  0
  6 19  1  0  0  0  0
  7 10  2  0  0  0  0
  7 18  1  0  0  0  0
  8 21  1  0  0  0  0
  9 21  2  0  0  0  0
 10 22  1  0  0  0  0
 11 12  2  0  0  0  0
 11 23  1  0  0  0  0
 12 24  1  0  0  0  0
 13 20  1  0  0  0  0
 13 22  2  0  0  0  0
 14 24  2  0  0  0  0
 14 25  1  0  0  0  0
 15 26  1  0  0  0  0
 16 26  1  0  0  0  0
 16 27  2  0  0  0  0
 16 30  1  0  0  0  0
 17 19  2  0  0  0  0
 17 35  1  0  0  0  0
 18 20  2  0  0  0  0
 18 36  1  0  0  0  0
 19 48  1  0  0  0  0
 20 37  1  0  0  0  0
 21 82  1  0  0  0  0
 22 83  1  0  0  0  0
 23 25  2  0  0  0  0
 23 82  1  0  0  0  0
 24 84  1  0  0  0  0
 25 85  1  0  0  0  0
 26 63  2  0  0  0  0
 27 66  1  0  0  0  0
 27 71  1  0  0  0  0
 28 58  1  0  0  0  0
 28 64  1  0  0  0  0
 28 65  2  0  0  0  0
 29 64  2  0  0  0  0
 29 67  1  0  0  0  0
 29 73  1  0  0  0  0
 30 72  1  0  0  0  0
 30 77  2  0  0  0  0
 31 49  1  0  0  0  0
 31 74  1  0  0  0  0
 31 78  2  0  0  0  0
 32 60  1  0  0  0  0
 32 68  1  0  0  0  0
 32 79  2  0  0  0  0
 33 61  1  0  0  0  0
 33 75  1  0  0  0  0
 33 80  2  0  0  0  0
 34 69  1  0  0  0  0
 34 70  1  0  0  0  0
 34 81  2  0  0  0  0
 35 38  1  0  0  0  0
 36 49  1  0  0  0  0
 37 68  1  0  0  0  0
 38 40  1  0  0  0  0
 39 41  1  0  0  0  0
 39 44  1  0  0  0  0
 40 48  1  0  0  0  0
 41 50  1  0  0  0  0
 42 45  1  0  0  0  0
 42 51  1  0  0  0  0
 43 46  1  0  0  0  0
 43 51  1  0  0  0  0
 44 69  1  0  0  0  0
 45 70  1  0  0  0  0
 46 70  1  0  0  0  0
 47 50  1  0  0  0  0
 47 69  1  0  0  0  0
 48 74  1  0  0  0  0
 49 68  1  0  0  0  0
 50 66  1  0  0  0  0
 51 73  1  0  0  0  0
 52 59  1  0  0  0  0
 53 61  1  0  0  0  0
 54 62  1  0  0  0  0
 55 62  1  0  0  0  0
 56 62  1  0  0  0  0
 57 76  1  0  0  0  0
 58 83  1  0  0  0  0
 59 67  1  0  0  0  0
 60 62  1  0  0  0  0
 60 75  1  0  0  0  0
 61 76  1  0  0  0  0
 63 66  1  0  0  0  0
 65 67  1  0  0  0  0
M  CHG  1  76   1
M  ISO  4  34 100  58 101  70 100  83 101
M  END
> <Batch ID>
0192

> <Smiles>
CCn1nc([101CH2:1][101O:1]c2ccc3c(c2)CN(C(=O)C(NC(=O)C(C)NC)C(C)(C)C)C(C(=O)NC2CCCc4ccccc42)C3)nc1NC1CC[100N:0]([100C:0](=O)N2CCCC(n3nc(-c4ccc(Oc5ccc(F)cc5F)cc4)c(C(N)=O)c3N)C2)CC1

> <Shape>
0.291

> <Color>
0.090

> <Negative vol penalty>
0.000

$$$$

  -OEChem-04052323293D

 87 97  0     1  0  0  0  0  0999 V2000
  -28.5204  -35.5145   23.3116 C   0  0  0  0  0  0  0  0  0  0  0  0
  -28.5998  -34.1263   23.3562 C   0  0  0  0  0  0  0  0  0  0  0  0
  -24.6177  -10.3900   23.3106 C   0  0  0  0  0  0  0  0  0  0  0  0
  -24.2311   -9.1503   21.2733 C   0  0  0  0  0  0  0  0  0  0  0  0
  -27.2758  -36.1419   23.3491 C   0  0  0  0  0  0  0  0  0  0  0  0
  -27.4347  -33.3647   23.4393 C   0  0  0  0  0  0  0  0  0  0  0  0
  -27.4708  -29.4075   20.2796 C   0  0  0  0  0  0  0  0  0  0  0  0
  -23.5760   -9.6987   23.9290 C   0  0  0  0  0  0  0  0  0  0  0  0
  -23.1894   -8.4589   21.8918 C   0  0  0  0  0  0  0  0  0  0  0  0
  -28.2174  -28.2939   20.6622 C   0  0  0  0  0  0  0  0  0  0  0  0
  -22.8487   -5.8829   24.0525 C   0  0  0  0  0  0  0  0  0  0  0  0
  -22.7907   -4.5015   23.8686 C   0  0  0  0  0  0  0  0  0  0  0  0
  -26.1991  -27.2057   21.4115 C   0  0  0  0  0  0  0  0  0  0  0  0
  -20.6069   -4.7276   22.8599 C   0  0  0  0  0  0  0  0  0  0  0  0
  -24.9453  -10.1159   21.9828 C   0  0  0  0  0  0  0  0  0  0  0  0
  -27.3801  -10.4655   21.3070 C   0  0  0  0  0  0  0  0  0  0  0  0
  -26.0944  -35.3873   23.4231 C   0  0  0  0  0  0  0  0  0  0  0  0
  -26.0818  -29.4329   20.4704 C   0  0  0  0  0  0  0  0  0  0  0  0
  -26.1733  -33.9826   23.4792 C   0  0  0  0  0  0  0  0  0  0  0  0
  -25.4369  -28.3197   21.0281 C   0  0  0  0  0  0  0  0  0  0  0  0
  -29.2302  -23.9767   21.0034 C   0  0  0  0  0  0  0  0  0  0  0  0
  -22.8618   -8.7331   23.2196 C   0  0  0  0  0  0  0  0  0  0  0  0
  -27.5820  -27.1940   21.2309 C   0  0  0  0  0  0  0  0  0  0  0  0
  -21.7859   -6.6867   23.6402 C   0  0  0  0  0  0  0  0  0  0  0  0
  -21.6698   -3.9238   23.2723 C   0  0  0  0  0  0  0  0  0  0  0  0
  -20.6650   -6.1090   23.0439 C   0  0  0  0  0  0  0  0  0  0  0  0
  -26.0209  -10.8301   21.3432 C   0  0  0  0  0  0  0  0  0  0  0  0
  -29.3594  -23.0396   19.9987 C   0  0  0  0  0  0  0  0  0  0  0  0
  -28.5022  -25.1033   20.6790 C   0  0  0  0  0  0  0  0  0  1  0  0
  -27.9844  -11.4644   20.5834 C   0  0  0  0  0  0  0  0  0  0  0  0
  -28.1362  -24.3225   18.5758 C   0  0  0  0  0  0  0  0  0  0  0  0
  -28.0378   -9.3257   21.8763 C   0  0  0  0  0  0  0  0  0  0  0  0
  -24.0820  -31.2383   22.1571 C   0  0  0  0  0  0  0  0  0  0  0  0
  -21.8234  -29.5005   20.6076 C   0  0  0  0  0  0  0  0  0  0  0  0
  -20.9999  -26.6197   18.9737 C   0  0  0  0  0  0  0  0  0  0  0  0
  -28.8414  -16.6161   19.3399 C   0  0  0  0  0  0  0  0  0  0  0  0
  -24.7744  -36.1118   23.5089 C   0  0  0  0  0  0  0  0  0  0  0  0
  -25.2873  -30.6309   20.0277 C   0  0  0  0  0  0  0  0  0  0  0  0
  -23.9454  -28.2889   21.2356 C   0  0  0  0  0  0  0  0  0  0  0  0
  -23.5700  -35.2197   23.2192 C   0  0  0  0  0  0  0  0  0  0  0  0
  -26.0066  -15.2022   17.8205 C   0  0  0  0  0  0  0  0  0  0  0  0
  -30.7624  -24.8468   22.8926 C   0  0  0  0  0  0  0  0  0  0  0  0
  -31.3139  -23.5233   22.4631 C   0  0  0  0  0  0  0  0  0  0  0  0
  -23.6857  -33.9029   23.9805 C   0  0  0  0  0  0  0  0  0  0  0  0
  -25.8617  -13.8978   18.6036 C   0  0  0  0  0  0  0  0  0  0  0  0
  -26.3944  -16.3738   18.7245 C   0  0  0  0  0  0  0  0  0  0  0  0
  -27.8288  -18.9262   19.0897 C   0  0  0  0  0  0  0  0  0  0  0  0
  -30.1277  -18.4688   18.3191 C   0  0  0  0  0  0  0  0  0  0  0  0
  -27.4541  -14.8191   20.3304 C   0  0  0  0  0  0  0  0  0  0  0  0
  -28.3435  -20.0429   19.9924 C   0  0  0  0  0  0  0  0  0  0  0  0
  -30.6787  -19.5576   19.2255 C   0  0  0  0  0  0  0  0  0  0  0  0
  -29.8344  -23.7895   22.3512 C   0  0  0  0  0  0  0  0  0  0  0  0
  -24.9308  -33.1211   23.5446 C   0  0  1  0  0  0  0  0  0  0  0  0
  -23.9446  -30.7543   20.7413 C   0  0  1  0  0  0  0  0  0  0  0  0
  -27.1223  -13.6123   19.4391 C   0  0  1  0  0  0  0  0  0  0  0  0
  -27.5278  -24.5144   17.2281 C   0  0  0  0  0  0  0  0  0  0  0  0
  -19.0684  -25.4725   17.8552 C   0  0  0  0  0  0  0  0  0  0  0  0
  -20.6376  -28.8380   23.3398 C   0  0  0  0  0  0  0  0  0  0  0  0
  -19.3522  -26.9836   22.2549 C   0  0  0  0  0  0  0  0  0  0  0  0
  -18.9500  -29.3471   21.5659 C   0  0  0  0  0  0  0  0  0  0  0  0
  -22.4092  -26.5299   16.3728 C   0  0  0  0  0  0  0  0  0  0  0  0
  -30.1260  -21.7717   20.2349 C   0  0  0  0  0  0  0  0  0  0  0  0
  -21.0984  -28.2046   20.8797 C   0  0  1  0  0  0  0  0  0  0  0  0
  -20.2753  -26.3775   17.6619 C   0  0  2  0  0  0  0  0  0  0  0  0
  -20.0379  -28.3444   22.0081 C   0  0  0  0  0  0  0  0  0  0  0  0
  -25.7757  -11.9716   20.6945 N   0  0  0  0  0  0  0  0  0  0  0  0
  -28.8234  -23.1806   18.7686 N   0  0  0  0  0  0  0  0  0  0  0  0
  -27.9391  -25.3096   19.4705 N   0  0  0  0  0  0  0  0  0  0  0  0
  -26.9891  -12.3330   20.2438 N   0  0  0  0  0  0  0  0  0  0  0  0
  -23.2131  -29.4868   20.7924 N   0  0  0  0  0  0  0  0  0  0  0  0
  -27.5766  -16.0400   19.5311 N   0  0  0  0  0  0  0  0  0  0  0  0
  -28.8754  -17.9272   18.8422 N   0  0  0  0  0  0  0  0  0  0  0  0
  -29.2646  -11.6759   20.2110 N   0  0  0  0  0  0  0  0  0  0  0  0
  -27.2674   -8.3966   22.5888 N   0  0  0  0  0  0  0  0  0  0  0  0
  -24.6989  -32.4692   22.2735 N   0  0  0  0  0  0  0  0  0  0  0  0
  -20.5543  -27.7647   19.5995 N   0  0  0  0  0  0  0  0  0  0  0  0
  -29.6177  -20.6156   19.4197 N   0  3  0  0  0  0  0  0  0  0  0  0
  -21.1901  -25.7366   16.6754 N   0  3  0  0  0  0  0  0  0  0  0  0
  -29.2746   -9.1453   21.7708 O   0  0  0  0  0  0  0  0  0  0  0  0
  -23.6582  -30.5468   23.0758 O   0  0  0  0  0  0  0  0  0  0  0  0
  -21.1812  -30.4865   20.2376 O   0  0  0  0  0  0  0  0  0  0  0  0
  -21.8712  -25.8663   19.4023 O   0  0  0  0  0  0  0  0  0  0  0  0
  -29.8799  -15.9953   19.5996 O   0  0  0  0  0  0  0  0  0  0  0  0
  -21.8454   -8.0581   23.8228 O   0  0  0  0  0  0  0  0  0  0  0  0
  -28.3190  -26.0902   21.6113 O   0  0  0  0  0  0  0  0  0  1  0  0
  -21.6148   -2.5973   23.0943 F   0  0  0  0  0  0  0  0  0  0  0  0
  -19.6414   -6.8762   22.6447 F   0  0  0  0  0  0  0  0  0  0  0  0
  1  2  1  0  0  0  0
  1  5  2  0  0  0  0
  2  6  2  0  0  0  0
  3  8  2  0  0  0  0
  3 15  1  0  0  0  0
  4  9  1  0  0  0  0
  4 15  2  0  0  0  0
  5 17  1  0  0  0  0
  6 19  1  0  0  0  0
  7 10  2  0  0  0  0
  7 18  1  0  0  0  0
  8 22  1  0  0  0  0
  9 22  2  0  0  0  0
 10 23  1  0  0  0  0
 11 12  2  0  0  0  0
 11 24  1  0  0  0  0
 12 25  1  0  0  0  0
 13 20  1  0  0  0  0
 13 23  2  0  0  0  0
 14 25  2  0  0  0  0
 14 26  1  0  0  0  0
 15 27  1  0  0  0  0
 16 27  1  0  0  0  0
 16 30  2  0  0  0  0
 16 32  1  0  0  0  0
 17 19  2  0  0  0  0
 17 37  1  0  0  0  0
 18 20  2  0  0  0  0
 18 38  1  0  0  0  0
 19 53  1  0  0  0  0
 20 39  1  0  0  0  0
 21 28  1  0  0  0  0
 21 29  2  0  0  0  0
 21 52  1  0  0  0  0
 22 84  1  0  0  0  0
 23 85  1  0  0  0  0
 24 26  2  0  0  0  0
 24 84  1  0  0  0  0
 25 86  1  0  0  0  0
 26 87  1  0  0  0  0
 27 66  2  0  0  0  0
 28 62  1  0  0  0  0
 28 67  2  0  0  0  0
 29 68  1  0  0  0  0
 29 85  1  0  0  0  0
 30 69  1  0  0  0  0
 30 73  1  0  0  0  0
 31 56  1  0  0  0  0
 31 67  1  0  0  0  0
 31 68  2  0  0  0  0
 32 74  1  0  0  0  0
 32 79  2  0  0  0  0
 33 54  1  0  0  0  0
 33 75  1  0  0  0  0
 33 80  2  0  0  0  0
 34 63  1  0  0  0  0
 34 70  1  0  0  0  0
 34 81  2  0  0  0  0
 35 64  1  0  0  0  0
 35 76  1  0  0  0  0
 35 82  2  0  0  0  0
 36 71  1  0  0  0  0
 36 72  1  0  0  0  0
 36 83  2  0  0  0  0
 37 40  1  0  0  0  0
 38 54  1  0  0  0  0
 39 70  1  0  0  0  0
 40 44  1  0  0  0  0
 41 45  1  0  0  0  0
 41 46  1  0  0  0  0
 42 43  1  0  0  0  0
 42 52  1  0  0  0  0
 43 52  1  0  0  0  0
 44 53  1  0  0  0  0
 45 55  1  0  0  0  0
 46 71  1  0  0  0  0
 47 50  1  0  0  0  0
 47 72  1  0  0  0  0
 48 51  1  0  0  0  0
 48 72  1  0  0  0  0
 49 55  1  0  0  0  0
 49 71  1  0  0  0  0
 50 77  1  0  0  0  0
 51 77  1  0  0  0  0
 53 75  1  0  0  0  0
 54 70  1  0  0  0  0
 55 69  1  0  0  0  0
 57 64  1  0  0  0  0
 58 65  1  0  0  0  0
 59 65  1  0  0  0  0
 60 65  1  0  0  0  0
 61 78  1  0  0  0  0
 62 77  1  0  0  0  0
 63 65  1  0  0  0  0
 63 76  1  0  0  0  0
 64 78  1  0  0  0  0
 66 69  1  0  0  0  0
M  CHG  2  77   1  78   1
M  ISO  4  29 101  36 100  72 100  85 101
M  END
> <Batch ID>
0192

> <Smiles>
CNC(C)C(=O)NC(C(=O)N1Cc2cc([101O:1][101c:1]3nc(C)nc(CN4CC[100N:0]([100C:0](=O)N5CCCC(n6nc(-c7ccc(Oc8ccc(F)cc8F)cc7)c(C(N)=O)c6N)C5)CC4)c3C3CC3)ccc2CC1C(=O)NC1CCCc2ccccc21)C(C)(C)C

> <Shape>
0.313

> <Color>
0.076

> <Negative vol penalty>
0.000

$$$$

  -OEChem-04052323293D

 83 92  0     1  0  0  0  0  0999 V2000
  -29.1568  -24.3829   20.6886 C   0  0  0  0  0  0  0  0  0  0  0  0
  -28.4023  -23.4611   21.4073 C   0  0  0  0  0  0  0  0  0  0  0  0
  -25.0435  -28.9901   21.9037 C   0  0  0  0  0  0  0  0  0  0  0  0
  -23.9387  -29.7970   19.9124 C   0  0  0  0  0  0  0  0  0  0  0  0
  -29.8350  -23.9815   19.5385 C   0  0  0  0  0  0  0  0  0  0  0  0
  -28.3246  -22.1375   20.9754 C   0  0  0  0  0  0  0  0  0  0  0  0
  -28.8835  -18.8225   24.7627 C   0  0  0  0  0  0  0  0  0  0  0  0
  -25.6093  -30.2498   22.1003 C   0  0  0  0  0  0  0  0  0  0  0  0
  -24.5045  -31.0568   20.1090 C   0  0  0  0  0  0  0  0  0  0  0  0
  -27.7819  -18.6096   25.5903 C   0  0  0  0  0  0  0  0  0  0  0  0
  -27.0560  -33.3513   23.3262 C   0  0  0  0  0  0  0  0  0  0  0  0
  -27.0287  -33.8803   24.6166 C   0  0  0  0  0  0  0  0  0  0  0  0
  -27.2748  -16.5830   24.3839 C   0  0  0  0  0  0  0  0  0  0  0  0
  -24.6146  -33.7836   24.6051 C   0  0  0  0  0  0  0  0  0  0  0  0
  -24.2083  -28.7637   20.8097 C   0  0  0  0  0  0  0  0  0  0  0  0
  -22.3911  -26.9972   21.1011 C   0  0  0  0  0  0  0  0  0  0  0  0
  -29.7734  -22.6501   19.0977 C   0  0  0  0  0  0  0  0  0  0  0  0
  -29.1832  -17.9215   23.7308 C   0  0  0  0  0  0  0  0  0  0  0  0
  -29.0014  -21.7182   19.8175 C   0  0  0  0  0  0  0  0  0  0  0  0
  -28.3823  -16.7854   23.5462 C   0  0  0  0  0  0  0  0  0  0  0  0
  -25.3398  -31.2831   21.2029 C   0  0  0  0  0  0  0  0  0  0  0  0
  -26.9757  -17.4913   25.3991 C   0  0  0  0  0  0  0  0  0  0  0  0
  -25.8627  -33.0384   22.6753 C   0  0  0  0  0  0  0  0  0  0  0  0
  -25.8080  -34.0965   25.2560 C   0  0  0  0  0  0  0  0  0  0  0  0
  -24.6420  -33.2545   23.3147 C   0  0  0  0  0  0  0  0  0  0  0  0
  -23.6240  -27.4625   20.6058 C   0  0  0  0  0  0  0  0  0  0  0  0
  -22.2961  -25.7101   20.6312 C   0  0  0  0  0  0  0  0  0  0  0  0
  -23.0427  -15.4282   25.3395 C   0  0  0  0  0  0  0  0  0  0  0  0
  -23.0492  -17.3374   24.1599 C   0  0  0  0  0  0  0  0  0  0  0  0
  -24.7090  -16.9074   25.6079 C   0  0  0  0  0  0  0  0  0  1  0  0
  -21.4186  -27.6684   21.9131 C   0  0  0  0  0  0  0  0  0  0  0  0
  -29.3601  -18.1170   20.5631 C   0  0  0  0  0  0  0  0  0  0  0  0
  -30.4578  -15.0760   20.8262 C   0  0  0  0  0  0  0  0  0  0  0  0
  -30.5973  -12.1936   22.6481 C   0  0  0  0  0  0  0  0  0  0  0  0
  -24.8682  -20.7366   19.9063 C   0  0  0  0  0  0  0  0  0  0  0  0
  -30.4850  -22.2740   17.8223 C   0  0  0  0  0  0  0  0  0  0  0  0
  -30.3906  -18.1513   22.8637 C   0  0  0  0  0  0  0  0  0  0  0  0
  -28.6729  -15.7773   22.4656 C   0  0  0  0  0  0  0  0  0  0  0  0
  -30.6551  -20.7678   17.6411 C   0  0  0  0  0  0  0  0  0  0  0  0
  -25.0726  -23.2235   17.2144 C   0  0  0  0  0  0  0  0  0  0  0  0
  -29.3470  -20.0429   17.9415 C   0  0  0  0  0  0  0  0  0  0  0  0
  -24.6575  -24.5173   17.9163 C   0  0  0  0  0  0  0  0  0  0  0  0
  -21.9667  -20.3162   22.1246 C   0  0  0  0  0  0  0  0  0  0  0  0
  -25.7568  -22.2488   18.1701 C   0  0  0  0  0  0  0  0  0  0  0  0
  -22.8399  -21.3096   21.3652 C   0  0  0  0  0  0  0  0  0  0  0  0
  -24.5788  -23.2447   20.0921 C   0  0  0  0  0  0  0  0  0  0  0  0
  -24.0824  -19.2935   21.7613 C   0  0  0  0  0  0  0  0  0  0  0  0
  -28.9128  -20.2678   19.3948 C   0  0  1  0  0  0  0  0  0  0  0  0
  -30.3032  -17.4400   21.5169 C   0  0  1  0  0  0  0  0  0  0  0  0
  -23.8261  -24.2221   19.1787 C   0  0  1  0  0  0  0  0  0  0  0  0
  -23.0037  -19.4439   22.8235 C   0  0  2  0  0  0  0  0  0  0  0  0
  -22.4011  -14.1286   25.6890 C   0  0  0  0  0  0  0  0  0  0  0  0
  -31.5388   -9.8683   22.5871 C   0  0  0  0  0  0  0  0  0  0  0  0
  -28.3008  -14.2575   18.8294 C   0  0  0  0  0  0  0  0  0  0  0  0
  -28.6571  -11.8791   19.5255 C   0  0  0  0  0  0  0  0  0  0  0  0
  -30.5207  -13.1617   18.4746 C   0  0  0  0  0  0  0  0  0  0  0  0
  -32.2017  -12.6544   25.0919 C   0  0  0  0  0  0  0  0  0  0  0  0
  -29.8213  -13.7072   20.8422 C   0  0  1  0  0  0  0  0  0  0  0  0
  -31.7637  -11.3034   23.0373 C   0  0  2  0  0  0  0  0  0  0  0  0
  -29.3181  -13.2712   19.4372 C   0  0  0  0  0  0  0  0  0  0  0  0
  -24.2662  -26.5455   19.8774 N   0  0  0  0  0  0  0  0  0  0  0  0
  -22.4149  -16.1837   24.4240 N   0  0  0  0  0  0  0  0  0  0  0  0
  -24.1895  -15.7240   25.9722 N   0  0  0  0  0  0  0  0  0  0  0  0
  -24.1964  -17.7653   24.7111 N   0  0  0  0  0  0  0  0  0  0  0  0
  -23.4337  -25.4911   19.9115 N   0  0  0  0  0  0  0  0  0  0  0  0
  -29.8609  -16.0495   21.6398 N   0  0  0  0  0  0  0  0  0  0  0  0
  -24.9406  -22.0241   19.3635 N   0  0  0  0  0  0  0  0  0  0  0  0
  -24.0399  -20.5468   21.0117 N   0  0  0  0  0  0  0  0  0  0  0  0
  -21.3513  -24.7555   20.7678 N   0  0  0  0  0  0  0  0  0  0  0  0
  -21.6742  -28.9889   22.3073 N   0  0  0  0  0  0  0  0  0  0  0  0
  -22.4587  -18.1729   23.2215 N   0  0  0  0  0  0  0  0  0  0  0  0
  -29.6853  -19.4316   20.2883 N   0  0  0  0  0  0  0  0  0  0  0  0
  -30.8062  -12.8059   21.4304 N   0  0  0  0  0  0  0  0  0  0  0  0
  -31.9484  -11.3086   24.5161 N   0  3  0  0  0  0  0  0  0  0  0  0
  -20.3622  -27.1082   22.2920 O   0  0  0  0  0  0  0  0  0  0  0  0
  -28.4086  -17.4925   20.1088 O   0  0  0  0  0  0  0  0  0  0  0  0
  -31.4524  -15.2722   20.1235 O   0  0  0  0  0  0  0  0  0  0  0  0
  -29.5989  -12.3291   23.3520 O   0  0  0  0  0  0  0  0  0  0  0  0
  -25.4797  -19.7878   19.3974 O   0  0  0  0  0  0  0  0  0  0  0  0
  -25.8915  -32.5126   21.3945 O   0  0  0  0  0  0  0  0  0  0  0  0
  -25.8857  -17.2787   26.2154 O   0  0  0  0  0  0  0  0  0  1  0  0
  -25.7819  -34.6030   26.4957 F   0  0  0  0  0  0  0  0  0  0  0  0
  -23.4923  -32.9548   22.6949 F   0  0  0  0  0  0  0  0  0  0  0  0
  1  2  1  0  0  0  0
  1  5  2  0  0  0  0
  2  6  2  0  0  0  0
  3  8  2  0  0  0  0
  3 15  1  0  0  0  0
  4  9  1  0  0  0  0
  4 15  2  0  0  0  0
  5 17  1  0  0  0  0
  6 19  1  0  0  0  0
  7 10  2  0  0  0  0
  7 18  1  0  0  0  0
  8 21  1  0  0  0  0
  9 21  2  0  0  0  0
 10 22  1  0  0  0  0
 11 12  2  0  0  0  0
 11 23  1  0  0  0  0
 12 24  1  0  0  0  0
 13 20  1  0  0  0  0
 13 22  2  0  0  0  0
 14 24  2  0  0  0  0
 14 25  1  0  0  0  0
 15 26  1  0  0  0  0
 16 26  1  0  0  0  0
 16 27  2  0  0  0  0
 16 31  1  0  0  0  0
 17 19  2  0  0  0  0
 17 36  1  0  0  0  0
 18 20  2  0  0  0  0
 18 37  1  0  0  0  0
 19 48  1  0  0  0  0
 20 38  1  0  0  0  0
 21 80  1  0  0  0  0
 22 81  1  0  0  0  0
 23 25  2  0  0  0  0
 23 80  1  0  0  0  0
 24 82  1  0  0  0  0
 25 83  1  0  0  0  0
 26 61  2  0  0  0  0
 27 65  1  0  0  0  0
 27 69  1  0  0  0  0
 28 52  1  0  0  0  0
 28 62  1  0  0  0  0
 28 63  2  0  0  0  0
 29 62  2  0  0  0  0
 29 64  1  0  0  0  0
 29 71  1  0  0  0  0
 30 63  1  0  0  0  0
 30 64  2  0  0  0  0
 30 81  1  0  0  0  0
 31 70  1  0  0  0  0
 31 75  2  0  0  0  0
 32 49  1  0  0  0  0
 32 72  1  0  0  0  0
 32 76  2  0  0  0  0
 33 58  1  0  0  0  0
 33 66  1  0  0  0  0
 33 77  2  0  0  0  0
 34 59  1  0  0  0  0
 34 73  1  0  0  0  0
 34 78  2  0  0  0  0
 35 67  1  0  0  0  0
 35 68  1  0  0  0  0
 35 79  2  0  0  0  0
 36 39  1  0  0  0  0
 37 49  1  0  0  0  0
 38 66  1  0  0  0  0
 39 41  1  0  0  0  0
 40 42  1  0  0  0  0
 40 44  1  0  0  0  0
 41 48  1  0  0  0  0
 42 50  1  0  0  0  0
 43 45  1  0  0  0  0
 43 51  1  0  0  0  0
 44 67  1  0  0  0  0
 45 68  1  0  0  0  0
 46 50  1  0  0  0  0
 46 67  1  0  0  0  0
 47 51  1  0  0  0  0
 47 68  1  0  0  0  0
 48 72  1  0  0  0  0
 49 66  1  0  0  0  0
 50 65  1  0  0  0  0
 51 71  1  0  0  0  0
 53 59  1  0  0  0  0
 54 60  1  0  0  0  0
 55 60  1  0  0  0  0
 56 60  1  0  0  0  0
 57 74  1  0  0  0  0
 58 60  1  0  0  0  0
 58 73  1  0  0  0  0
 59 74  1  0  0  0  0
 61 65  1  0  0  0  0
M  CHG  1  74   1
M  ISO  4  30 101  35 100  68 100  81 101
M  END
> <Batch ID>
0192

> <Smiles>
CNC(C)C(=O)NC(C(=O)N1Cc2cc([101O:1][101c:1]3nc(C)nc(NC4CC[100N:0]([100C:0](=O)N5CCCC(n6nc(-c7ccc(Oc8ccc(F)cc8F)cc7)c(C(N)=O)c6N)C5)C4)n3)ccc2CC1C(=O)NC1CCCc2ccccc21)C(C)(C)C

> <Shape>
0.213

> <Color>
0.044

> <Negative vol penalty>
0.000

$$$$

  -OEChem-04052323293D

 81 89  0     1  0  0  0  0  0999 V2000
  -24.0747  -29.6732   11.2757 C   0  0  0  0  0  0  0  0  0  0  0  0
  -24.4176  -28.5298   11.9901 C   0  0  0  0  0  0  0  0  0  0  0  0
  -22.8083  -15.3506   20.2340 C   0  0  0  0  0  0  0  0  0  0  0  0
  -22.4608  -13.4529   18.7798 C   0  0  0  0  0  0  0  0  0  0  0  0
  -24.0061  -30.9051   11.9252 C   0  0  0  0  0  0  0  0  0  0  0  0
  -24.6932  -28.6177   13.3542 C   0  0  0  0  0  0  0  0  0  0  0  0
  -23.4329  -24.4308   17.6422 C   0  0  0  0  0  0  0  0  0  0  0  0
  -21.6903  -15.9772   19.6834 C   0  0  0  0  0  0  0  0  0  0  0  0
  -21.3428  -14.0794   18.2292 C   0  0  0  0  0  0  0  0  0  0  0  0
  -24.2117  -23.4474   18.2505 C   0  0  0  0  0  0  0  0  0  0  0  0
  -20.7113  -16.5039   15.9590 C   0  0  0  0  0  0  0  0  0  0  0  0
  -20.5741  -16.4822   14.5711 C   0  0  0  0  0  0  0  0  0  0  0  0
  -24.6459  -24.9405   20.0948 C   0  0  0  0  0  0  0  0  0  0  0  0
  -18.4724  -15.3122   14.7972 C   0  0  0  0  0  0  0  0  0  0  0  0
  -23.1936  -14.0885   19.7821 C   0  0  0  0  0  0  0  0  0  0  0  0
  -24.3793  -12.5812   21.4644 C   0  0  0  0  0  0  0  0  0  0  0  0
  -24.2716  -31.0066   13.2999 C   0  0  0  0  0  0  0  0  0  0  0  0
  -23.2633  -25.6824   18.2514 C   0  0  0  0  0  0  0  0  0  0  0  0
  -24.6295  -29.8523   14.0223 C   0  0  0  0  0  0  0  0  0  0  0  0
  -23.8623  -25.9372   19.4934 C   0  0  0  0  0  0  0  0  0  0  0  0
  -20.9576  -15.3416   18.6811 C   0  0  0  0  0  0  0  0  0  0  0  0
  -24.8207  -23.7031   19.4756 C   0  0  0  0  0  0  0  0  0  0  0  0
  -19.7291  -15.9296   16.7660 C   0  0  0  0  0  0  0  0  0  0  0  0
  -19.4546  -15.8864   13.9902 C   0  0  0  0  0  0  0  0  0  0  0  0
  -18.6097  -15.3338   16.1851 C   0  0  0  0  0  0  0  0  0  0  0  0
  -24.3487  -13.4409   20.3500 C   0  0  0  0  0  0  0  0  0  0  0  0
  -25.7023  -12.2369   21.5962 C   0  0  0  0  0  0  0  0  0  0  0  0
  -23.3075  -12.1338   22.3051 C   0  0  0  0  0  0  0  0  0  0  0  0
  -23.9874  -28.6761   17.4658 C   0  0  0  0  0  0  0  0  0  0  0  0
  -22.3220  -29.3739   20.1605 C   0  0  0  0  0  0  0  0  0  0  0  0
  -21.1705  -28.3432   23.2033 C   0  0  0  0  0  0  0  0  0  0  0  0
  -30.7744  -14.9225   19.9066 C   0  0  0  0  0  0  0  0  0  0  0  0
  -24.2309  -32.3676   13.9485 C   0  0  0  0  0  0  0  0  0  0  0  0
  -22.3982  -26.7232   17.5951 C   0  0  0  0  0  0  0  0  0  0  0  0
  -23.6948  -27.2575   20.1986 C   0  0  0  0  0  0  0  0  0  0  0  0
  -24.1721  -32.3143   15.4730 C   0  0  0  0  0  0  0  0  0  0  0  0
  -29.7054  -11.6606   19.0728 C   0  0  0  0  0  0  0  0  0  0  0  0
  -25.1980  -31.3227   16.0124 C   0  0  0  0  0  0  0  0  0  0  0  0
  -28.2090  -11.6664   19.3732 C   0  0  0  0  0  0  0  0  0  0  0  0
  -30.8829  -18.5539   20.6133 C   0  0  0  0  0  0  0  0  0  0  0  0
  -30.1454  -12.9979   18.4924 C   0  0  0  0  0  0  0  0  0  0  0  0
  -31.5118  -17.1695   20.6396 C   0  0  0  0  0  0  0  0  0  0  0  0
  -29.3621  -17.0404   19.5804 C   0  0  0  0  0  0  0  0  0  0  0  0
  -28.3478  -14.1872   19.7187 C   0  0  0  0  0  0  0  0  0  0  0  0
  -24.9113  -29.9031   15.5083 C   0  0  1  0  0  0  0  0  0  0  0  0
  -22.7144  -28.1419   18.0587 C   0  0  1  0  0  0  0  0  0  0  0  0
  -29.9119  -18.4594   19.4358 C   0  0  1  0  0  0  0  0  0  0  0  0
  -27.8452  -12.8450   20.2894 C   0  0  1  0  0  0  0  0  0  0  0  0
  -19.8713  -29.1480   25.1937 C   0  0  0  0  0  0  0  0  0  0  0  0
  -30.1483  -21.2512   18.1516 C   0  0  0  0  0  0  0  0  0  0  0  0
  -24.7505  -30.9649   21.0993 C   0  0  0  0  0  0  0  0  0  0  0  0
  -23.7904  -30.9330   23.4113 C   0  0  0  0  0  0  0  0  0  0  0  0
  -22.5473  -32.0541   21.5619 C   0  0  0  0  0  0  0  0  0  0  0  0
  -19.0783  -26.2864   22.8150 C   0  0  0  0  0  0  0  0  0  0  0  0
  -28.8345  -19.5288   19.4604 C   0  0  0  0  0  0  0  0  0  0  0  0
  -27.7553  -22.1416   20.9154 C   0  0  0  0  0  0  0  0  0  0  0  0
  -26.6589  -23.1883   20.8940 C   0  0  0  0  0  0  0  0  0  1  0  0
  -22.6688  -29.5295   21.6215 C   0  0  1  0  0  0  0  0  0  0  0  0
  -19.7999  -28.4429   23.8482 C   0  0  2  0  0  0  0  0  0  0  0  0
  -29.3847  -20.9597   19.4366 C   0  0  2  0  0  0  0  0  0  0  0  0
  -23.4442  -30.8461   21.9096 C   0  0  0  0  0  0  0  0  0  0  0  0
  -25.5564  -13.6312   19.8123 N   0  0  0  0  0  0  0  0  0  0  0  0
  -26.3583  -12.8863   20.5921 N   0  0  0  0  0  0  0  0  0  0  0  0
  -22.8447  -28.2452   19.5136 N   0  0  0  0  0  0  0  0  0  0  0  0
  -29.7700  -14.1168   19.3588 N   0  0  0  0  0  0  0  0  0  0  0  0
  -30.4876  -16.2707   20.1164 N   0  0  0  0  0  0  0  0  0  0  0  0
  -26.3570  -11.4451   22.4719 N   0  0  0  0  0  0  0  0  0  0  0  0
  -22.0092  -12.5840   22.0291 N   0  0  0  0  0  0  0  0  0  0  0  0
  -23.8183  -29.3139   16.2517 N   0  0  0  0  0  0  0  0  0  0  0  0
  -21.4140  -29.4024   22.3547 N   0  0  0  0  0  0  0  0  0  0  0  0
  -19.2269  -27.0835   24.0598 N   0  3  0  0  0  0  0  0  0  0  0  0
  -28.2614  -21.9334   19.5340 N   0  3  0  0  0  0  0  0  0  0  0  0
  -23.4979  -11.3708   23.2824 O   0  0  0  0  0  0  0  0  0  0  0  0
  -25.0447  -28.5224   18.0661 O   0  0  0  0  0  0  0  0  0  0  0  0
  -21.6075  -30.2188   19.6153 O   0  0  0  0  0  0  0  0  0  0  0  0
  -21.9490  -27.4201   23.4325 O   0  0  0  0  0  0  0  0  0  0  0  0
  -31.8978  -14.4665   20.1594 O   0  0  0  0  0  0  0  0  0  0  0  0
  -19.8664  -15.9527   18.1438 O   0  0  0  0  0  0  0  0  0  0  0  0
  -25.5874  -22.7383   20.0755 O   0  0  0  0  0  0  0  0  0  1  0  0
  -19.3222  -15.8670   12.6574 F   0  0  0  0  0  0  0  0  0  0  0  0
  -17.6622  -14.7816   16.9553 F   0  0  0  0  0  0  0  0  0  0  0  0
  1  2  1  0  0  0  0
  1  5  2  0  0  0  0
  2  6  2  0  0  0  0
  3  8  2  0  0  0  0
  3 15  1  0  0  0  0
  4  9  1  0  0  0  0
  4 15  2  0  0  0  0
  5 17  1  0  0  0  0
  6 19  1  0  0  0  0
  7 10  2  0  0  0  0
  7 18  1  0  0  0  0
  8 21  1  0  0  0  0
  9 21  2  0  0  0  0
 10 22  1  0  0  0  0
 11 12  2  0  0  0  0
 11 23  1  0  0  0  0
 12 24  1  0  0  0  0
 13 20  1  0  0  0  0
 13 22  2  0  0  0  0
 14 24  2  0  0  0  0
 14 25  1  0  0  0  0
 15 26  1  0  0  0  0
 16 26  1  0  0  0  0
 16 27  2  0  0  0  0
 16 28  1  0  0  0  0
 17 19  2  0  0  0  0
 17 33  1  0  0  0  0
 18 20  2  0  0  0  0
 18 34  1  0  0  0  0
 19 45  1  0  0  0  0
 20 35  1  0  0  0  0
 21 78  1  0  0  0  0
 22 79  1  0  0  0  0
 23 25  2  0  0  0  0
 23 78  1  0  0  0  0
 24 80  1  0  0  0  0
 25 81  1  0  0  0  0
 26 62  2  0  0  0  0
 27 63  1  0  0  0  0
 27 67  1  0  0  0  0
 28 68  1  0  0  0  0
 28 73  2  0  0  0  0
 29 46  1  0  0  0  0
 29 69  1  0  0  0  0
 29 74  2  0  0  0  0
 30 58  1  0  0  0  0
 30 64  1  0  0  0  0
 30 75  2  0  0  0  0
 31 59  1  0  0  0  0
 31 70  1  0  0  0  0
 31 76  2  0  0  0  0
 32 65  1  0  0  0  0
 32 66  1  0  0  0  0
 32 77  2  0  0  0  0
 33 36  1  0  0  0  0
 34 46  1  0  0  0  0
 35 64  1  0  0  0  0
 36 38  1  0  0  0  0
 37 39  1  0  0  0  0
 37 41  1  0  0  0  0
 38 45  1  0  0  0  0
 39 48  1  0  0  0  0
 40 42  1  0  0  0  0
 40 47  1  0  0  0  0
 41 65  1  0  0  0  0
 42 66  1  0  0  0  0
 43 47  1  0  0  0  0
 43 66  1  0  0  0  0
 44 48  1  0  0  0  0
 44 65  1  0  0  0  0
 45 69  1  0  0  0  0
 46 64  1  0  0  0  0
 47 55  1  0  0  0  0
 48 63  1  0  0  0  0
 49 59  1  0  0  0  0
 50 60  1  0  0  0  0
 51 61  1  0  0  0  0
 52 61  1  0  0  0  0
 53 61  1  0  0  0  0
 54 71  1  0  0  0  0
 55 60  1  0  0  0  0
 56 57  1  0  0  0  0
 56 72  1  0  0  0  0
 57 79  1  0  0  0  0
 58 61  1  0  0  0  0
 58 70  1  0  0  0  0
 59 71  1  0  0  0  0
 60 72  1  0  0  0  0
 62 63  1  0  0  0  0
M  CHG  2  71   1  72   1
M  ISO  4  32 100  57 101  66 100  79 101
M  END
> <Batch ID>
0192

> <Smiles>
CNC(C)C(=O)NC(C(=O)N1Cc2cc([101O:1][101CH2:1]CNC(C)CC3CC[100N:0]([100C:0](=O)N4CCCC(n5nc(-c6ccc(Oc7ccc(F)cc7F)cc6)c(C(N)=O)c5N)C4)C3)ccc2CC1C(=O)NC1CCCc2ccccc21)C(C)(C)C

> <Shape>
0.211

> <Color>
0.096

> <Negative vol penalty>
0.000

$$$$

  -OEChem-04052323293D

 80 88  0     1  0  0  0  0  0999 V2000
  -33.0316  -34.6888   19.2490 C   0  0  0  0  0  0  0  0  0  0  0  0
  -32.7358  -33.5219   18.5516 C   0  0  0  0  0  0  0  0  0  0  0  0
  -24.4777   -9.4326   21.5685 C   0  0  0  0  0  0  0  0  0  0  0  0
  -22.6178  -10.4679   20.4256 C   0  0  0  0  0  0  0  0  0  0  0  0
  -32.7462  -34.7770   20.6108 C   0  0  0  0  0  0  0  0  0  0  0  0
  -32.1554  -32.4420   19.2161 C   0  0  0  0  0  0  0  0  0  0  0  0
  -27.5895  -27.0273   18.1440 C   0  0  0  0  0  0  0  0  0  0  0  0
  -23.7219   -8.2743   21.7492 C   0  0  0  0  0  0  0  0  0  0  0  0
  -21.8620   -9.3095   20.6063 C   0  0  0  0  0  0  0  0  0  0  0  0
  -27.5045  -25.6440   18.2959 C   0  0  0  0  0  0  0  0  0  0  0  0
  -21.2727   -7.1957   23.8138 C   0  0  0  0  0  0  0  0  0  0  0  0
  -21.2990   -6.5954   25.0726 C   0  0  0  0  0  0  0  0  0  0  0  0
  -26.9831  -25.9388   20.6327 C   0  0  0  0  0  0  0  0  0  0  0  0
  -22.1847   -4.5737   24.0900 C   0  0  0  0  0  0  0  0  0  0  0  0
  -23.9256  -10.5294   20.9067 C   0  0  0  0  0  0  0  0  0  0  0  0
  -25.5447  -12.0334   19.6323 C   0  0  0  0  0  0  0  0  0  0  0  0
  -32.1531  -33.7012   21.2902 C   0  0  0  0  0  0  0  0  0  0  0  0
  -27.3824  -27.8777   19.2395 C   0  0  0  0  0  0  0  0  0  0  0  0
  -31.8631  -32.5154   20.5886 C   0  0  0  0  0  0  0  0  0  0  0  0
  -27.0636  -27.3326   20.4914 C   0  0  0  0  0  0  0  0  0  0  0  0
  -22.4140   -8.2127   21.2682 C   0  0  0  0  0  0  0  0  0  0  0  0
  -27.2041  -25.0994   19.5410 C   0  0  0  0  0  0  0  0  0  0  0  0
  -21.7023   -6.4849   22.6931 C   0  0  0  0  0  0  0  0  0  0  0  0
  -21.7551   -5.2845   25.2107 C   0  0  0  0  0  0  0  0  0  0  0  0
  -22.1584   -5.1740   22.8312 C   0  0  0  0  0  0  0  0  0  0  0  0
  -24.7057  -11.7264   20.7202 C   0  0  0  0  0  0  0  0  0  0  0  0
  -26.0520  -13.2747   19.9294 C   0  0  0  0  0  0  0  0  0  0  0  0
  -25.8392  -11.2652   18.4580 C   0  0  0  0  0  0  0  0  0  0  0  0
  -29.1593  -30.0055   20.7949 C   0  0  0  0  0  0  0  0  0  0  0  0
  -26.3826  -30.5973   22.3639 C   0  0  0  0  0  0  0  0  0  0  0  0
  -23.3156  -29.4717   23.3506 C   0  0  0  0  0  0  0  0  0  0  0  0
  -24.0665  -17.7828   23.3333 C   0  0  0  0  0  0  0  0  0  0  0  0
  -31.9066  -33.8261   22.7729 C   0  0  0  0  0  0  0  0  0  0  0  0
  -27.4514  -29.3687   19.0532 C   0  0  0  0  0  0  0  0  0  0  0  0
  -26.8124  -28.2030   21.6947 C   0  0  0  0  0  0  0  0  0  0  0  0
  -30.9475  -32.7730   23.3217 C   0  0  0  0  0  0  0  0  0  0  0  0
  -27.1721  -16.0700   23.6473 C   0  0  0  0  0  0  0  0  0  0  0  0
  -31.3173  -31.3891   22.7975 C   0  0  0  0  0  0  0  0  0  0  0  0
  -26.9678  -14.7903   22.8345 C   0  0  0  0  0  0  0  0  0  0  0  0
  -23.8485  -19.0321   17.4902 C   0  0  0  0  0  0  0  0  0  0  0  0
  -25.8973  -16.4829   24.3797 C   0  0  0  0  0  0  0  0  0  0  0  0
  -24.4995  -15.3291   22.7098 C   0  0  0  0  0  0  0  0  0  0  0  0
  -31.2106  -31.3315   21.2689 C   0  0  1  0  0  0  0  0  0  0  0  0
  -27.7284  -30.1209   20.3512 C   0  0  1  0  0  0  0  0  0  0  0  0
  -25.7418  -14.9038   21.9086 C   0  0  2  0  0  0  0  0  0  0  0  0
  -24.8033  -19.7522   18.4054 C   0  0  2  0  0  0  0  0  0  0  0  0
  -23.3192  -19.8256   18.6509 C   0  0  2  0  0  0  0  0  0  0  0  0
  -21.2874  -30.1680   24.6539 C   0  0  0  0  0  0  0  0  0  0  0  0
  -27.9033  -30.1409   24.9696 C   0  0  0  0  0  0  0  0  0  0  0  0
  -25.6992  -29.9054   26.1334 C   0  0  0  0  0  0  0  0  0  0  0  0
  -26.2967  -32.0568   25.0211 C   0  0  0  0  0  0  0  0  0  0  0  0
  -21.5599  -29.2061   20.9829 C   0  0  0  0  0  0  0  0  0  0  0  0
  -22.2036  -18.9565   22.1881 C   0  0  0  0  0  0  0  0  0  0  0  0
  -25.9917  -21.7372   19.0440 C   0  0  0  0  0  0  0  0  0  0  0  0
  -22.7618  -19.8368   21.0856 C   0  0  0  0  0  0  0  0  0  0  0  0
  -26.6977  -22.9938   18.5583 C   0  0  0  0  0  0  0  0  0  1  0  0
  -25.7157  -30.0471   23.6015 C   0  0  1  0  0  0  0  0  0  0  0  0
  -21.9390  -30.1077   23.2812 C   0  0  2  0  0  0  0  0  0  0  0  0
  -26.4103  -30.5208   24.9094 C   0  0  0  0  0  0  0  0  0  0  0  0
  -24.6788  -12.6946   21.6399 N   0  0  0  0  0  0  0  0  0  0  0  0
  -25.5074  -13.6221   21.1306 N   0  0  0  0  0  0  0  0  0  0  0  0
  -26.8976  -29.6544   21.4631 N   0  0  0  0  0  0  0  0  0  0  0  0
  -24.7730  -16.5739   23.4450 N   0  0  0  0  0  0  0  0  0  0  0  0
  -26.9064  -14.0919   19.2779 N   0  0  0  0  0  0  0  0  0  0  0  0
  -25.2322  -10.0105   18.3108 N   0  0  0  0  0  0  0  0  0  0  0  0
  -29.8264  -31.2137   20.8630 N   0  0  0  0  0  0  0  0  0  0  0  0
  -24.3077  -30.4167   23.5050 N   0  0  0  0  0  0  0  0  0  0  0  0
  -23.0194  -17.7853   22.4198 N   0  0  0  0  0  0  0  0  0  0  0  0
  -25.5187  -20.9285   17.9293 N   0  0  0  0  0  0  0  0  0  0  0  0
  -22.7813  -19.0811   19.7960 N   0  3  0  0  0  0  0  0  0  0  0  0
  -21.0522  -29.3257   22.3739 N   0  3  0  0  0  0  0  0  0  0  0  0
  -26.6303  -11.6720   17.5736 O   0  0  0  0  0  0  0  0  0  0  0  0
  -29.6233  -28.9021   21.0576 O   0  0  0  0  0  0  0  0  0  0  0  0
  -26.4380  -31.8185   22.1991 O   0  0  0  0  0  0  0  0  0  0  0  0
  -23.4928  -28.2576   23.2790 O   0  0  0  0  0  0  0  0  0  0  0  0
  -24.3513  -18.7871   23.9944 O   0  0  0  0  0  0  0  0  0  0  0  0
  -21.6763   -7.0825   21.4441 O   0  0  0  0  0  0  0  0  0  0  0  0
  -27.1211  -23.7496   19.6922 O   0  0  0  0  0  0  0  0  0  1  0  0
  -21.7817   -4.7087   26.4199 F   0  0  0  0  0  0  0  0  0  0  0  0
  -22.5735   -4.4866   21.7584 F   0  0  0  0  0  0  0  0  0  0  0  0
  1  2  1  0  0  0  0
  1  5  2  0  0  0  0
  2  6  2  0  0  0  0
  3  8  2  0  0  0  0
  3 15  1  0  0  0  0
  4  9  1  0  0  0  0
  4 15  2  0  0  0  0
  5 17  1  0  0  0  0
  6 19  1  0  0  0  0
  7 10  2  0  0  0  0
  7 18  1  0  0  0  0
  8 21  1  0  0  0  0
  9 21  2  0  0  0  0
 10 22  1  0  0  0  0
 11 12  2  0  0  0  0
 11 23  1  0  0  0  0
 12 24  1  0  0  0  0
 13 20  1  0  0  0  0
 13 22  2  0  0  0  0
 14 24  2  0  0  0  0
 14 25  1  0  0  0  0
 15 26  1  0  0  0  0
 16 26  1  0  0  0  0
 16 27  2  0  0  0  0
 16 28  1  0  0  0  0
 17 19  2  0  0  0  0
 17 33  1  0  0  0  0
 18 20  2  0  0  0  0
 18 34  1  0  0  0  0
 19 43  1  0  0  0  0
 20 35  1  0  0  0  0
 21 77  1  0  0  0  0
 22 78  1  0  0  0  0
 23 25  2  0  0  0  0
 23 77  1  0  0  0  0
 24 79  1  0  0  0  0
 25 80  1  0  0  0  0
 26 60  2  0  0  0  0
 27 61  1  0  0  0  0
 27 64  1  0  0  0  0
 28 65  1  0  0  0  0
 28 72  2  0  0  0  0
 29 44  1  0  0  0  0
 29 66  1  0  0  0  0
 29 73  2  0  0  0  0
 30 57  1  0  0  0  0
 30 62  1  0  0  0  0
 30 74  2  0  0  0  0
 31 58  1  0  0  0  0
 31 67  1  0  0  0  0
 31 75  2  0  0  0  0
 32 63  1  0  0  0  0
 32 68  1  0  0  0  0
 32 76  2  0  0  0  0
 33 36  1  0  0  0  0
 34 44  1  0  0  0  0
 35 62  1  0  0  0  0
 36 38  1  0  0  0  0
 37 39  1  0  0  0  0
 37 41  1  0  0  0  0
 38 43  1  0  0  0  0
 39 45  1  0  0  0  0
 40 46  1  0  0  0  0
 40 47  1  0  0  0  0
 41 63  1  0  0  0  0
 42 45  1  0  0  0  0
 42 63  1  0  0  0  0
 43 66  1  0  0  0  0
 44 62  1  0  0  0  0
 45 61  1  0  0  0  0
 46 47  1  0  0  0  0
 46 69  1  0  0  0  0
 47 70  1  0  0  0  0
 48 58  1  0  0  0  0
 49 59  1  0  0  0  0
 50 59  1  0  0  0  0
 51 59  1  0  0  0  0
 52 71  1  0  0  0  0
 53 55  1  0  0  0  0
 53 68  1  0  0  0  0
 54 56  1  0  0  0  0
 54 69  1  0  0  0  0
 55 70  1  0  0  0  0
 56 78  1  0  0  0  0
 57 59  1  0  0  0  0
 57 67  1  0  0  0  0
 58 71  1  0  0  0  0
 60 61  1  0  0  0  0
M  CHG  2  70   1  71   1
M  ISO  4  32 100  56 101  68 100  78 101
M  END
> <Batch ID>
0192

> <Smiles>
CNC(C)C(=O)NC(C(=O)N1Cc2cc([101O:1][101CH2:1]CNC3CC3NCC[100NH:0][100C:0](=O)N3CCCC(n4nc(-c5ccc(Oc6ccc(F)cc6F)cc5)c(C(N)=O)c4N)C3)ccc2CC1C(=O)NC1CCCc2ccccc21)C(C)(C)C

> <Shape>
0.220

> <Color>
0.115

> <Negative vol penalty>
0.000

$$$$

  -OEChem-04052323293D

 87 96  0     1  0  0  0  0  0999 V2000
  -27.6010  -37.3200   18.0981 C   0  0  0  0  0  0  0  0  0  0  0  0
  -27.7152  -36.0210   17.6135 C   0  0  0  0  0  0  0  0  0  0  0  0
  -25.1848   -8.3252   22.1306 C   0  0  0  0  0  0  0  0  0  0  0  0
  -25.0120   -7.7235   19.7972 C   0  0  0  0  0  0  0  0  0  0  0  0
  -27.5145  -37.5454   19.4713 C   0  0  0  0  0  0  0  0  0  0  0  0
  -27.7439  -34.9466   18.5019 C   0  0  0  0  0  0  0  0  0  0  0  0
  -25.7368  -28.0909   19.0386 C   0  0  0  0  0  0  0  0  0  0  0  0
  -23.8741   -7.8957   22.3385 C   0  0  0  0  0  0  0  0  0  0  0  0
  -23.7013   -7.2939   20.0050 C   0  0  0  0  0  0  0  0  0  0  0  0
  -26.2584  -26.8377   19.3567 C   0  0  0  0  0  0  0  0  0  0  0  0
  -22.2514   -4.9583   22.7523 C   0  0  0  0  0  0  0  0  0  0  0  0
  -21.9973   -4.1725   23.8764 C   0  0  0  0  0  0  0  0  0  0  0  0
  -26.0219  -27.3417   21.7039 C   0  0  0  0  0  0  0  0  0  0  0  0
  -20.4416   -5.8341   24.6862 C   0  0  0  0  0  0  0  0  0  0  0  0
  -25.7537   -8.2391   20.8599 C   0  0  0  0  0  0  0  0  0  0  0  0
  -28.2819   -7.9150   20.7553 C   0  0  0  0  0  0  0  0  0  0  0  0
  -27.5325  -36.4725   20.3765 C   0  0  0  0  0  0  0  0  0  0  0  0
  -25.3634  -28.9847   20.0526 C   0  0  0  0  0  0  0  0  0  0  0  0
  -27.6589  -35.1579   19.8885 C   0  0  0  0  0  0  0  0  0  0  0  0
  -25.4934  -28.6047   21.3960 C   0  0  0  0  0  0  0  0  0  0  0  0
  -23.1324   -7.3800   21.2757 C   0  0  0  0  0  0  0  0  0  0  0  0
  -26.4037  -26.4640   20.6895 C   0  0  0  0  0  0  0  0  0  0  0  0
  -21.6007   -6.1820   22.5952 C   0  0  0  0  0  0  0  0  0  0  0  0
  -21.0924   -4.6104   24.8433 C   0  0  0  0  0  0  0  0  0  0  0  0
  -20.6957   -6.6199   23.5621 C   0  0  0  0  0  0  0  0  0  0  0  0
  -27.1074   -8.6832   20.6444 C   0  0  0  0  0  0  0  0  0  0  0  0
  -27.7706  -23.0882   20.4366 C   0  0  0  0  0  0  0  0  0  0  0  0
  -28.4605  -22.2023   19.6495 C   0  0  0  0  0  0  0  0  0  0  0  0
  -29.2953   -8.7915   20.4534 C   0  0  0  0  0  0  0  0  0  0  0  0
  -28.6137  -20.8024   21.4148 C   0  0  0  0  0  0  0  0  0  0  0  0
  -28.4425   -6.5326   21.1004 C   0  0  0  0  0  0  0  0  0  0  0  0
  -26.3082  -31.8852   20.9459 C   0  0  0  0  0  0  0  0  0  0  0  0
  -23.8093  -31.6411   22.9998 C   0  0  0  0  0  0  0  0  0  0  0  0
  -21.6756  -29.6246   24.7399 C   0  0  0  0  0  0  0  0  0  0  0  0
  -29.9175  -14.5172   20.9216 C   0  0  0  0  0  0  0  0  0  0  0  0
  -27.4838  -36.7689   21.8545 C   0  0  0  0  0  0  0  0  0  0  0  0
  -24.7775  -30.3225   19.6927 C   0  0  0  0  0  0  0  0  0  0  0  0
  -25.0885  -29.5197   22.5217 C   0  0  0  0  0  0  0  0  0  0  0  0
  -27.1442  -35.5505   22.7091 C   0  0  0  0  0  0  0  0  0  0  0  0
  -30.2143  -12.7336   17.9116 C   0  0  0  0  0  0  0  0  0  0  0  0
  -27.9717  -34.3454   22.2734 C   0  0  0  0  0  0  0  0  0  0  0  0
  -29.5598  -11.4029   18.2817 C   0  0  0  0  0  0  0  0  0  0  0  0
  -28.8083  -17.8057   20.3355 C   0  0  0  0  0  0  0  0  0  0  0  0
  -30.5382  -17.6895   22.1690 C   0  0  0  0  0  0  0  0  0  0  0  0
  -29.4592  -13.9269   18.4998 C   0  0  0  0  0  0  0  0  0  0  0  0
  -29.5173  -16.6538   19.6172 C   0  0  0  0  0  0  0  0  0  0  0  0
  -31.2265  -16.5631   21.4031 C   0  0  0  0  0  0  0  0  0  0  0  0
  -28.5916  -12.5097   20.3322 C   0  0  0  0  0  0  0  0  0  0  0  0
  -27.6686  -33.9647   20.8193 C   0  0  1  0  0  0  0  0  0  0  0  0
  -24.9097  -31.3528   20.8099 C   0  0  1  0  0  0  0  0  0  0  0  0
  -29.3614  -11.2894   19.8037 C   0  0  1  0  0  0  0  0  0  0  0  0
  -29.7782  -18.6067   21.2073 C   0  0  0  0  0  0  0  0  0  0  0  0
  -30.1033  -23.2049   18.0097 C   0  0  0  0  0  0  0  0  0  0  0  0
  -19.7644  -29.7143   26.3636 C   0  0  0  0  0  0  0  0  0  0  0  0
  -25.7571  -32.3070   25.2520 C   0  0  0  0  0  0  0  0  0  0  0  0
  -24.0542  -31.4611   26.8808 C   0  0  0  0  0  0  0  0  0  0  0  0
  -23.5278  -33.4254   25.4360 C   0  0  0  0  0  0  0  0  0  0  0  0
  -19.8531  -28.2608   22.8486 C   0  0  0  0  0  0  0  0  0  0  0  0
  -27.2780  -24.3924   19.9152 C   0  0  0  0  0  0  0  0  0  1  0  0
  -28.7562  -22.4998   18.2194 C   0  0  1  0  0  0  0  0  0  0  0  0
  -23.6270  -31.1193   24.4045 C   0  0  1  0  0  0  0  0  0  0  0  0
  -20.1661  -29.6536   24.8981 C   0  0  2  0  0  0  0  0  0  0  0  0
  -24.2511  -32.0615   25.4724 C   0  0  0  0  0  0  0  0  0  0  0  0
  -27.3508   -9.9503   20.2992 N   0  0  0  0  0  0  0  0  0  0  0  0
  -28.9021  -21.0278   20.1244 N   0  0  0  0  0  0  0  0  0  0  0  0
  -27.5105  -22.8070   21.7263 N   0  0  0  0  0  0  0  0  0  0  0  0
  -27.9413  -21.6339   22.2348 N   0  0  0  0  0  0  0  0  0  0  0  0
  -28.6898   -9.9850   20.1906 N   0  0  0  0  0  0  0  0  0  0  0  0
  -24.5267  -30.8195   22.1188 N   0  0  0  0  0  0  0  0  0  0  0  0
  -29.2589  -13.7546   19.9454 N   0  0  0  0  0  0  0  0  0  0  0  0
  -30.2706  -15.8293   20.5730 N   0  0  0  0  0  0  0  0  0  0  0  0
  -30.6363   -8.6501   20.3898 N   0  0  0  0  0  0  0  0  0  0  0  0
  -27.2962   -5.7765   21.3810 N   0  0  0  0  0  0  0  0  0  0  0  0
  -29.0464  -19.6047   21.9559 N   0  0  0  0  0  0  0  0  0  0  0  0
  -26.4148  -33.2468   20.7356 N   0  0  0  0  0  0  0  0  0  0  0  0
  -22.1960  -30.8905   24.5726 N   0  0  0  0  0  0  0  0  0  0  0  0
  -28.7503  -21.2793   17.3411 N   0  3  0  0  0  0  0  0  0  0  0  0
  -19.5585  -28.4342   24.2943 N   0  3  0  0  0  0  0  0  0  0  0  0
  -29.5702   -5.9883   21.1741 O   0  0  0  0  0  0  0  0  0  0  0  0
  -27.2226  -31.1178   21.2227 O   0  0  0  0  0  0  0  0  0  0  0  0
  -23.3265  -32.7341   22.6933 O   0  0  0  0  0  0  0  0  0  0  0  0
  -22.3282  -28.5835   24.7661 O   0  0  0  0  0  0  0  0  0  0  0  0
  -30.1749  -14.0531   22.0394 O   0  0  0  0  0  0  0  0  0  0  0  0
  -21.8534   -6.9606   21.4782 O   0  0  0  0  0  0  0  0  0  0  0  0
  -26.9164  -25.2336   21.0048 O   0  0  0  0  0  0  0  0  0  1  0  0
  -20.8473   -3.8550   25.9220 F   0  0  0  0  0  0  0  0  0  0  0  0
  -20.0666   -7.7941   23.4161 F   0  0  0  0  0  0  0  0  0  0  0  0
  1  2  1  0  0  0  0
  1  5  2  0  0  0  0
  2  6  2  0  0  0  0
  3  8  2  0  0  0  0
  3 15  1  0  0  0  0
  4  9  1  0  0  0  0
  4 15  2  0  0  0  0
  5 17  1  0  0  0  0
  6 19  1  0  0  0  0
  7 10  2  0  0  0  0
  7 18  1  0  0  0  0
  8 21  1  0  0  0  0
  9 21  2  0  0  0  0
 10 22  1  0  0  0  0
 11 12  2  0  0  0  0
 11 23  1  0  0  0  0
 12 24  1  0  0  0  0
 13 20  1  0  0  0  0
 13 22  2  0  0  0  0
 14 24  2  0  0  0  0
 14 25  1  0  0  0  0
 15 26  1  0  0  0  0
 16 26  1  0  0  0  0
 16 29  2  0  0  0  0
 16 31  1  0  0  0  0
 17 19  2  0  0  0  0
 17 36  1  0  0  0  0
 18 20  2  0  0  0  0
 18 37  1  0  0  0  0
 19 49  1  0  0  0  0
 20 38  1  0  0  0  0
 21 84  1  0  0  0  0
 22 85  1  0  0  0  0
 23 25  2  0  0  0  0
 23 84  1  0  0  0  0
 24 86  1  0  0  0  0
 25 87  1  0  0  0  0
 26 64  2  0  0  0  0
 27 28  2  0  0  0  0
 27 59  1  0  0  0  0
 27 66  1  0  0  0  0
 28 60  1  0  0  0  0
 28 65  1  0  0  0  0
 29 68  1  0  0  0  0
 29 72  1  0  0  0  0
 30 65  2  0  0  0  0
 30 67  1  0  0  0  0
 30 74  1  0  0  0  0
 31 73  1  0  0  0  0
 31 79  2  0  0  0  0
 32 50  1  0  0  0  0
 32 75  1  0  0  0  0
 32 80  2  0  0  0  0
 33 61  1  0  0  0  0
 33 69  1  0  0  0  0
 33 81  2  0  0  0  0
 34 62  1  0  0  0  0
 34 76  1  0  0  0  0
 34 82  2  0  0  0  0
 35 70  1  0  0  0  0
 35 71  1  0  0  0  0
 35 83  2  0  0  0  0
 36 39  1  0  0  0  0
 37 50  1  0  0  0  0
 38 69  1  0  0  0  0
 39 41  1  0  0  0  0
 40 42  1  0  0  0  0
 40 45  1  0  0  0  0
 41 49  1  0  0  0  0
 42 51  1  0  0  0  0
 43 46  1  0  0  0  0
 43 52  1  0  0  0  0
 44 47  1  0  0  0  0
 44 52  1  0  0  0  0
 45 70  1  0  0  0  0
 46 71  1  0  0  0  0
 47 71  1  0  0  0  0
 48 51  1  0  0  0  0
 48 70  1  0  0  0  0
 49 75  1  0  0  0  0
 50 69  1  0  0  0  0
 51 68  1  0  0  0  0
 52 74  1  0  0  0  0
 53 60  1  0  0  0  0
 54 62  1  0  0  0  0
 55 63  1  0  0  0  0
 56 63  1  0  0  0  0
 57 63  1  0  0  0  0
 58 78  1  0  0  0  0
 59 85  1  0  0  0  0
 60 77  1  0  0  0  0
 61 63  1  0  0  0  0
 61 76  1  0  0  0  0
 62 78  1  0  0  0  0
 64 68  1  0  0  0  0
 66 67  2  0  0  0  0
M  CHG  2  77   1  78   1
M  ISO  4  35 100  59 101  71 100  85 101
M  END
> <Batch ID>
0192

> <Smiles>
CNC(C)C(=O)NC(C(=O)N1Cc2cc([101O:1][101CH2:1]c3nnc(NC4CC[100N:0]([100C:0](=O)N5CCCC(n6nc(-c7ccc(Oc8ccc(F)cc8F)cc7)c(C(N)=O)c6N)C5)CC4)nc3C(C)N)ccc2CC1C(=O)NC1CCCc2ccccc21)C(C)(C)C

> <Shape>
0.286

> <Color>
0.089

> <Negative vol penalty>
0.000

$$$$

  -OEChem-04052323293D

 82 90  0     1  0  0  0  0  0999 V2000
  -22.8470   -7.7841   24.6501 C   0  0  0  0  0  0  0  0  0  0  0  0
  -24.0296   -8.4975   24.8176 C   0  0  0  0  0  0  0  0  0  0  0  0
  -24.9585  -29.1564   21.9625 C   0  0  0  0  0  0  0  0  0  0  0  0
  -23.9020  -30.1256   20.0178 C   0  0  0  0  0  0  0  0  0  0  0  0
  -22.1759   -7.8261   23.4287 C   0  0  0  0  0  0  0  0  0  0  0  0
  -24.5423   -9.2525   23.7633 C   0  0  0  0  0  0  0  0  0  0  0  0
  -28.2147  -15.2660   22.4720 C   0  0  0  0  0  0  0  0  0  0  0  0
  -25.4372  -30.4141   22.3293 C   0  0  0  0  0  0  0  0  0  0  0  0
  -24.3807  -31.3833   20.3847 C   0  0  0  0  0  0  0  0  0  0  0  0
  -29.3392  -15.7137   21.7801 C   0  0  0  0  0  0  0  0  0  0  0  0
  -24.2324  -33.2015   23.8165 C   0  0  0  0  0  0  0  0  0  0  0  0
  -24.1088  -33.5773   25.1540 C   0  0  0  0  0  0  0  0  0  0  0  0
  -28.0524  -15.7754   19.7406 C   0  0  0  0  0  0  0  0  0  0  0  0
  -26.5089  -33.8056   25.3115 C   0  0  0  0  0  0  0  0  0  0  0  0
  -24.1909  -29.0121   20.8067 C   0  0  0  0  0  0  0  0  0  0  0  0
  -22.4721  -27.1271   20.7999 C   0  0  0  0  0  0  0  0  0  0  0  0
  -22.6756   -8.5898   22.3620 C   0  0  0  0  0  0  0  0  0  0  0  0
  -27.0014  -15.0589   21.8001 C   0  0  0  0  0  0  0  0  0  0  0  0
  -23.8780   -9.3037   22.5261 C   0  0  0  0  0  0  0  0  0  0  0  0
  -26.9132  -15.3275   20.4267 C   0  0  0  0  0  0  0  0  0  0  0  0
  -25.1483  -31.5276   21.5404 C   0  0  0  0  0  0  0  0  0  0  0  0
  -29.2590  -15.9658   20.4136 C   0  0  0  0  0  0  0  0  0  0  0  0
  -25.4942  -33.1276   23.2264 C   0  0  0  0  0  0  0  0  0  0  0  0
  -25.2471  -33.8794   25.9015 C   0  0  0  0  0  0  0  0  0  0  0  0
  -26.6324  -33.4297   23.9739 C   0  0  0  0  0  0  0  0  0  0  0  0
  -23.6966  -27.7130   20.4270 C   0  0  0  0  0  0  0  0  0  0  0  0
  -22.4774  -25.8993   20.1841 C   0  0  0  0  0  0  0  0  0  0  0  0
  -21.4237  -27.6461   21.6288 C   0  0  0  0  0  0  0  0  0  0  0  0
  -25.1336  -12.5427   21.2670 C   0  0  0  0  0  0  0  0  0  0  0  0
  -23.1542  -14.7730   19.9903 C   0  0  0  0  0  0  0  0  0  0  0  0
  -31.6229  -18.4689   17.7773 C   0  0  0  0  0  0  0  0  0  0  0  0
  -22.7973  -17.8494   18.5568 C   0  0  0  0  0  0  0  0  0  0  0  0
  -26.6546  -22.2772   18.4989 C   0  0  0  0  0  0  0  0  0  0  0  0
  -21.9401   -8.5665   21.0455 C   0  0  0  0  0  0  0  0  0  0  0  0
  -25.7904  -14.6012   22.5660 C   0  0  0  0  0  0  0  0  0  0  0  0
  -25.6287  -15.1404   19.6629 C   0  0  0  0  0  0  0  0  0  0  0  0
  -22.3518   -9.6903   20.0979 C   0  0  0  0  0  0  0  0  0  0  0  0
  -24.2195  -23.6282   16.3568 C   0  0  0  0  0  0  0  0  0  0  0  0
  -23.8714   -9.8081   20.0379 C   0  0  0  0  0  0  0  0  0  0  0  0
  -23.6826  -24.7848   17.1994 C   0  0  0  0  0  0  0  0  0  0  0  0
  -25.7389  -23.4922   16.4715 C   0  0  0  0  0  0  0  0  0  0  0  0
  -28.1337  -21.7689   16.5043 C   0  0  0  0  0  0  0  0  0  0  0  0
  -27.6270  -20.0238   18.1734 C   0  0  0  0  0  0  0  0  0  0  0  0
  -25.6920  -24.5498   18.7072 C   0  0  0  0  0  0  0  0  0  0  0  0
  -29.6279  -21.5763   16.7425 C   0  0  0  0  0  0  0  0  0  0  0  0
  -29.1072  -19.8228   18.4546 C   0  0  0  0  0  0  0  0  0  0  0  0
  -24.4528  -10.1541   21.4140 C   0  0  1  0  0  0  0  0  0  0  0  0
  -24.7419  -13.9326   21.6822 C   0  0  1  0  0  0  0  0  0  0  0  0
  -24.1613  -24.6743   18.6579 C   0  0  1  0  0  0  0  0  0  0  0  0
  -21.0628  -19.3806   17.5851 C   0  0  0  0  0  0  0  0  0  0  0  0
  -23.0730  -13.0708   17.4593 C   0  0  0  0  0  0  0  0  0  0  0  0
  -22.1477  -15.0521   16.2402 C   0  0  0  0  0  0  0  0  0  0  0  0
  -20.8704  -14.0458   18.1319 C   0  0  0  0  0  0  0  0  0  0  0  0
  -23.3461  -19.9422   20.5762 C   0  0  0  0  0  0  0  0  0  0  0  0
  -31.3617  -19.9022   17.3878 C   0  0  0  0  0  0  0  0  0  0  0  0
  -32.6503  -17.1167   19.5809 C   0  0  0  0  0  0  0  0  0  0  0  0
  -31.5552  -16.5807   20.4856 C   0  0  0  0  0  0  0  0  0  1  0  0
  -22.9651  -15.3751   18.6189 C   0  0  1  0  0  0  0  0  0  0  0  0
  -21.8299  -18.9853   18.8372 C   0  0  2  0  0  0  0  0  0  0  0  0
  -22.2889  -14.3877   17.6263 C   0  0  0  0  0  0  0  0  0  0  0  0
  -24.4267  -26.9225   19.6357 N   0  0  0  0  0  0  0  0  0  0  0  0
  -23.6588  -25.8272   19.5065 N   0  0  0  0  0  0  0  0  0  0  0  0
  -24.4741  -14.6853   20.4550 N   0  0  0  0  0  0  0  0  0  0  0  0
  -26.1513  -23.4316   17.8807 N   0  0  0  0  0  0  0  0  0  0  0  0
  -27.3587  -21.3754   17.6872 N   0  0  0  0  0  0  0  0  0  0  0  0
  -21.5866  -24.8852   20.1617 N   0  0  0  0  0  0  0  0  0  0  0  0
  -21.5801  -28.9244   22.1818 N   0  0  0  0  0  0  0  0  0  0  0  0
  -24.2657  -11.5598   21.7029 N   0  0  0  0  0  0  0  0  0  0  0  0
  -32.2874  -18.3834   18.9915 N   0  0  0  0  0  0  0  0  0  0  0  0
  -22.2304  -16.6198   18.8173 N   0  0  0  0  0  0  0  0  0  0  0  0
  -29.8925  -20.1652   17.2100 N   0  3  0  0  0  0  0  0  0  0  0  0
  -22.5661  -20.1817   19.3347 N   0  3  0  0  0  0  0  0  0  0  0  0
  -20.3864  -26.9890   21.8851 O   0  0  0  0  0  0  0  0  0  0  0  0
  -26.1474  -12.3746   20.5994 O   0  0  0  0  0  0  0  0  0  0  0  0
  -22.1665  -14.4010   20.6288 O   0  0  0  0  0  0  0  0  0  0  0  0
  -31.2799  -17.5104   17.0902 O   0  0  0  0  0  0  0  0  0  0  0  0
  -23.9401  -18.0343   18.1442 O   0  0  0  0  0  0  0  0  0  0  0  0
  -26.4854  -22.0649   19.7063 O   0  0  0  0  0  0  0  0  0  0  0  0
  -25.6151  -32.7550   21.8982 O   0  0  0  0  0  0  0  0  0  0  0  0
  -30.3630  -16.4053   19.7310 O   0  0  0  0  0  0  0  0  0  1  0  0
  -25.1282  -34.2418   27.1856 F   0  0  0  0  0  0  0  0  0  0  0  0
  -27.8472  -33.3616   23.4122 F   0  0  0  0  0  0  0  0  0  0  0  0
  1  2  1  0  0  0  0
  1  5  2  0  0  0  0
  2  6  2  0  0  0  0
  3  8  2  0  0  0  0
  3 15  1  0  0  0  0
  4  9  1  0  0  0  0
  4 15  2  0  0  0  0
  5 17  1  0  0  0  0
  6 19  1  0  0  0  0
  7 10  2  0  0  0  0
  7 18  1  0  0  0  0
  8 21  1  0  0  0  0
  9 21  2  0  0  0  0
 10 22  1  0  0  0  0
 11 12  2  0  0  0  0
 11 23  1  0  0  0  0
 12 24  1  0  0  0  0
 13 20  1  0  0  0  0
 13 22  2  0  0  0  0
 14 24  2  0  0  0  0
 14 25  1  0  0  0  0
 15 26  1  0  0  0  0
 16 26  1  0  0  0  0
 16 27  2  0  0  0  0
 16 28  1  0  0  0  0
 17 19  2  0  0  0  0
 17 34  1  0  0  0  0
 18 20  2  0  0  0  0
 18 35  1  0  0  0  0
 19 47  1  0  0  0  0
 20 36  1  0  0  0  0
 21 79  1  0  0  0  0
 22 80  1  0  0  0  0
 23 25  2  0  0  0  0
 23 79  1  0  0  0  0
 24 81  1  0  0  0  0
 25 82  1  0  0  0  0
 26 61  2  0  0  0  0
 27 62  1  0  0  0  0
 27 66  1  0  0  0  0
 28 67  1  0  0  0  0
 28 73  2  0  0  0  0
 29 48  1  0  0  0  0
 29 68  1  0  0  0  0
 29 74  2  0  0  0  0
 30 58  1  0  0  0  0
 30 63  1  0  0  0  0
 30 75  2  0  0  0  0
 31 55  1  0  0  0  0
 31 69  1  0  0  0  0
 31 76  2  0  0  0  0
 32 59  1  0  0  0  0
 32 70  1  0  0  0  0
 32 77  2  0  0  0  0
 33 64  1  0  0  0  0
 33 65  1  0  0  0  0
 33 78  2  0  0  0  0
 34 37  1  0  0  0  0
 35 48  1  0  0  0  0
 36 63  1  0  0  0  0
 37 39  1  0  0  0  0
 38 40  1  0  0  0  0
 38 41  1  0  0  0  0
 39 47  1  0  0  0  0
 40 49  1  0  0  0  0
 41 64  1  0  0  0  0
 42 45  1  0  0  0  0
 42 65  1  0  0  0  0
 43 46  1  0  0  0  0
 43 65  1  0  0  0  0
 44 49  1  0  0  0  0
 44 64  1  0  0  0  0
 45 71  1  0  0  0  0
 46 71  1  0  0  0  0
 47 68  1  0  0  0  0
 48 63  1  0  0  0  0
 49 62  1  0  0  0  0
 50 59  1  0  0  0  0
 51 60  1  0  0  0  0
 52 60  1  0  0  0  0
 53 60  1  0  0  0  0
 54 72  1  0  0  0  0
 55 71  1  0  0  0  0
 56 57  1  0  0  0  0
 56 69  1  0  0  0  0
 57 80  1  0  0  0  0
 58 60  1  0  0  0  0
 58 70  1  0  0  0  0
 59 72  1  0  0  0  0
 61 62  1  0  0  0  0
M  CHG  2  71   1  72   1
M  ISO  4  33 100  57 101  65 100  80 101
M  END
> <Batch ID>
0192

> <Smiles>
CNC(C)C(=O)NC(C(=O)N1Cc2cc([101O:1][101CH2:1]CNC(=O)CN3CC[100N:0]([100C:0](=O)N4CCCC(n5nc(-c6ccc(Oc7ccc(F)cc7F)cc6)c(C(N)=O)c5N)C4)CC3)ccc2CC1C(=O)NC1CCCc2ccccc21)C(C)(C)C

> <Shape>
0.206

> <Color>
0.084

> <Negative vol penalty>
0.000

$$$$

  -OEChem-04052323293D

 88 97  0     1  0  0  0  0  0999 V2000
  -28.2009  -17.5589   21.0102 C   0  0  0  0  0  0  0  0  0  0  0  0
  -26.9848  -18.2336   20.9744 C   0  0  0  0  0  0  0  0  0  0  0  0
  -23.3934  -14.0194   19.9220 C   0  0  0  0  0  0  0  0  0  0  0  0
  -24.8559  -14.4265   21.8014 C   0  0  0  0  0  0  0  0  0  0  0  0
  -29.3933  -18.2772   21.0878 C   0  0  0  0  0  0  0  0  0  0  0  0
  -26.9604  -19.6271   21.0172 C   0  0  0  0  0  0  0  0  0  0  0  0
  -23.2163  -25.2230   18.5709 C   0  0  0  0  0  0  0  0  0  0  0  0
  -24.2808  -13.0574   19.4397 C   0  0  0  0  0  0  0  0  0  0  0  0
  -25.7434  -13.4644   21.3192 C   0  0  0  0  0  0  0  0  0  0  0  0
  -22.5825  -26.3776   19.0281 C   0  0  0  0  0  0  0  0  0  0  0  0
  -28.1298  -13.2493   18.9339 C   0  0  0  0  0  0  0  0  0  0  0  0
  -29.4884  -13.5652   18.9294 C   0  0  0  0  0  0  0  0  0  0  0  0
  -24.7086  -27.5161   19.0818 C   0  0  0  0  0  0  0  0  0  0  0  0
  -29.9292  -11.6900   20.3876 C   0  0  0  0  0  0  0  0  0  0  0  0
  -23.6810  -14.7040   21.1028 C   0  0  0  0  0  0  0  0  0  0  0  0
  -21.6874  -15.4949   22.4840 C   0  0  0  0  0  0  0  0  0  0  0  0
  -29.3840  -19.6806   21.1218 C   0  0  0  0  0  0  0  0  0  0  0  0
  -24.6048  -25.2029   18.3758 C   0  0  0  0  0  0  0  0  0  0  0  0
  -28.1537  -20.3649   21.0967 C   0  0  0  0  0  0  0  0  0  0  0  0
  -25.3572  -26.3607   18.6196 C   0  0  0  0  0  0  0  0  0  0  0  0
  -19.2353  -28.0259   23.2618 C   0  0  0  0  0  0  0  0  0  0  0  0
  -25.4558  -12.7799   20.1383 C   0  0  0  0  0  0  0  0  0  0  0  0
  -23.3291  -27.5235   19.2863 C   0  0  0  0  0  0  0  0  0  0  0  0
  -27.6709  -12.1538   19.6653 C   0  0  0  0  0  0  0  0  0  0  0  0
  -30.3881  -12.7855   19.6562 C   0  0  0  0  0  0  0  0  0  0  0  0
  -28.5706  -11.3741   20.3921 C   0  0  0  0  0  0  0  0  0  0  0  0
  -22.7649  -15.6983   21.6012 C   0  0  0  0  0  0  0  0  0  0  0  0
  -18.0284  -28.4705   22.7617 C   0  0  0  0  0  0  0  0  0  0  0  0
  -19.5768  -26.7300   22.9329 C   0  0  0  0  0  0  0  0  0  0  0  0
  -21.1351  -16.7422   22.6447 C   0  0  0  0  0  0  0  0  0  0  0  0
  -17.6548  -26.4708   21.7473 C   0  0  0  0  0  0  0  0  0  0  0  0
  -21.2269  -14.2867   23.1034 C   0  0  0  0  0  0  0  0  0  0  0  0
  -27.0219  -23.5597   19.6251 C   0  0  0  0  0  0  0  0  0  0  0  0
  -28.7391  -25.1056   17.3484 C   0  0  0  0  0  0  0  0  0  0  0  0
  -29.0321  -27.7947   15.2675 C   0  0  0  0  0  0  0  0  0  0  0  0
  -22.9451  -22.1965   23.0663 C   0  0  0  0  0  0  0  0  0  0  0  0
  -30.6962  -20.4123   21.2534 C   0  0  0  0  0  0  0  0  0  0  0  0
  -25.2697  -23.9576   17.8567 C   0  0  0  0  0  0  0  0  0  0  0  0
  -26.8478  -26.3972   18.4068 C   0  0  0  0  0  0  0  0  0  0  0  0
  -30.6015  -21.8982   20.9167 C   0  0  0  0  0  0  0  0  0  0  0  0
  -21.2364  -20.9594   20.0679 C   0  0  0  0  0  0  0  0  0  0  0  0
  -29.3902  -22.5244   21.6004 C   0  0  0  0  0  0  0  0  0  0  0  0
  -21.3737  -19.4460   20.2418 C   0  0  0  0  0  0  0  0  0  0  0  0
  -22.4610  -21.6844   20.6131 C   0  0  0  0  0  0  0  0  0  0  0  0
  -22.9089  -19.8753   22.2212 C   0  0  0  0  0  0  0  0  0  0  0  0
  -21.1147  -23.9686   22.4553 C   0  0  0  0  0  0  0  0  0  0  0  0
  -22.5094  -24.5506   23.9539 C   0  0  0  0  0  0  0  0  0  0  0  0
  -28.0873  -21.8766   21.1162 C   0  0  1  0  0  0  0  0  0  0  0  0
  -26.7584  -23.8942   18.1842 C   0  0  1  0  0  0  0  0  0  0  0  0
  -21.6973  -19.0793   21.7019 C   0  0  2  0  0  0  0  0  0  0  0  0
  -21.0281  -24.8533   23.7061 C   0  0  0  0  0  0  0  0  0  0  0  0
  -17.5529  -29.8562   23.0515 C   0  0  0  0  0  0  0  0  0  0  0  0
  -16.7771  -25.6073   20.9062 C   0  0  0  0  0  0  0  0  0  0  0  0
  -30.5631  -28.8008   13.5525 C   0  0  0  0  0  0  0  0  0  0  0  0
  -30.6141  -26.0329   19.5697 C   0  0  0  0  0  0  0  0  0  0  0  0
  -31.5202  -27.7526   17.9918 C   0  0  0  0  0  0  0  0  0  0  0  0
  -31.7617  -25.3268   17.4628 C   0  0  0  0  0  0  0  0  0  0  0  0
  -26.9642  -27.6315   13.1566 C   0  0  0  0  0  0  0  0  0  0  0  0
  -20.1049  -28.8957   24.1007 C   0  0  0  0  0  0  0  0  0  0  0  0
  -20.8689  -29.9651   23.3165 C   0  0  0  0  0  0  0  0  0  0  0  0
  -22.5449  -30.2875   21.4928 C   0  0  0  0  0  0  0  0  0  0  0  0
  -23.4725  -29.5187   20.5727 C   0  0  0  0  0  0  0  0  0  1  0  0
  -29.4871  -26.4150   17.2785 C   0  0  1  0  0  0  0  0  0  0  0  0
  -29.3661  -27.8933   13.7899 C   0  0  2  0  0  0  0  0  0  0  0  0
  -30.8180  -26.3809   18.0817 C   0  0  0  0  0  0  0  0  0  0  0  0
  -22.8913  -16.9742   21.2271 N   0  0  0  0  0  0  0  0  0  0  0  0
  -17.2101  -27.7169   21.9983 N   0  0  0  0  0  0  0  0  0  0  0  0
  -18.8074  -25.9213   22.1750 N   0  0  0  0  0  0  0  0  0  0  0  0
  -21.8860  -17.5839   21.8780 N   0  0  0  0  0  0  0  0  0  0  0  0
  -27.4527  -25.1527   17.9041 N   0  0  0  0  0  0  0  0  0  0  0  0
  -22.7100  -21.3130   22.0095 N   0  0  0  0  0  0  0  0  0  0  0  0
  -22.3394  -23.4303   23.0308 N   0  0  0  0  0  0  0  0  0  0  0  0
  -20.0853  -17.1900   23.3656 N   0  0  0  0  0  0  0  0  0  0  0  0
  -21.9094  -13.0935   22.8298 N   0  0  0  0  0  0  0  0  0  0  0  0
  -20.7895  -26.2218   23.4108 N   0  0  0  0  0  0  0  0  0  0  0  0
  -27.7252  -22.3847   19.8104 N   0  0  0  0  0  0  0  0  0  0  0  0
  -29.6526  -26.7155   15.8604 N   0  0  0  0  0  0  0  0  0  0  0  0
  -28.2050  -28.4390   13.0317 N   0  3  0  0  0  0  0  0  0  0  0  0
  -21.7941  -29.3278   22.3473 N   0  3  0  0  0  0  0  0  0  0  0  0
  -20.2295  -14.2629   23.8638 O   0  0  0  0  0  0  0  0  0  0  0  0
  -26.6185  -24.3126   20.5038 O   0  0  0  0  0  0  0  0  0  0  0  0
  -29.2736  -24.0802   16.9189 O   0  0  0  0  0  0  0  0  0  0  0  0
  -28.2976  -28.5971   15.8394 O   0  0  0  0  0  0  0  0  0  0  0  0
  -23.6515  -21.8826   24.0337 O   0  0  0  0  0  0  0  0  0  0  0  0
  -26.3219  -11.8410   19.6682 O   0  0  0  0  0  0  0  0  0  0  0  0
  -22.7087  -28.6598   19.7365 O   0  0  0  0  0  0  0  0  0  1  0  0
  -31.6930  -13.0881   19.6506 F   0  0  0  0  0  0  0  0  0  0  0  0
  -28.1358  -10.3197   21.0957 F   0  0  0  0  0  0  0  0  0  0  0  0
  1  2  1  0  0  0  0
  1  5  2  0  0  0  0
  2  6  2  0  0  0  0
  3  8  2  0  0  0  0
  3 15  1  0  0  0  0
  4  9  1  0  0  0  0
  4 15  2  0  0  0  0
  5 17  1  0  0  0  0
  6 19  1  0  0  0  0
  7 10  2  0  0  0  0
  7 18  1  0  0  0  0
  8 22  1  0  0  0  0
  9 22  2  0  0  0  0
 10 23  1  0  0  0  0
 11 12  2  0  0  0  0
 11 24  1  0  0  0  0
 12 25  1  0  0  0  0
 13 20  1  0  0  0  0
 13 23  2  0  0  0  0
 14 25  2  0  0  0  0
 14 26  1  0  0  0  0
 15 27  1  0  0  0  0
 16 27  1  0  0  0  0
 16 30  2  0  0  0  0
 16 32  1  0  0  0  0
 17 19  2  0  0  0  0
 17 37  1  0  0  0  0
 18 20  2  0  0  0  0
 18 38  1  0  0  0  0
 19 48  1  0  0  0  0
 20 39  1  0  0  0  0
 21 28  1  0  0  0  0
 21 29  2  0  0  0  0
 21 59  1  0  0  0  0
 22 85  1  0  0  0  0
 23 86  1  0  0  0  0
 24 26  2  0  0  0  0
 24 85  1  0  0  0  0
 25 87  1  0  0  0  0
 26 88  1  0  0  0  0
 27 66  2  0  0  0  0
 28 52  1  0  0  0  0
 28 67  2  0  0  0  0
 29 68  1  0  0  0  0
 29 75  1  0  0  0  0
 30 69  1  0  0  0  0
 30 73  1  0  0  0  0
 31 53  1  0  0  0  0
 31 67  1  0  0  0  0
 31 68  2  0  0  0  0
 32 74  1  0  0  0  0
 32 80  2  0  0  0  0
 33 49  1  0  0  0  0
 33 76  1  0  0  0  0
 33 81  2  0  0  0  0
 34 63  1  0  0  0  0
 34 70  1  0  0  0  0
 34 82  2  0  0  0  0
 35 64  1  0  0  0  0
 35 77  1  0  0  0  0
 35 83  2  0  0  0  0
 36 71  1  0  0  0  0
 36 72  1  0  0  0  0
 36 84  2  0  0  0  0
 37 40  1  0  0  0  0
 38 49  1  0  0  0  0
 39 70  1  0  0  0  0
 40 42  1  0  0  0  0
 41 43  1  0  0  0  0
 41 44  1  0  0  0  0
 42 48  1  0  0  0  0
 43 50  1  0  0  0  0
 44 71  1  0  0  0  0
 45 50  1  0  0  0  0
 45 71  1  0  0  0  0
 46 51  1  0  0  0  0
 46 72  1  0  0  0  0
 47 51  1  0  0  0  0
 47 72  1  0  0  0  0
 48 76  1  0  0  0  0
 49 70  1  0  0  0  0
 50 69  1  0  0  0  0
 51 75  1  0  0  0  0
 54 64  1  0  0  0  0
 55 65  1  0  0  0  0
 56 65  1  0  0  0  0
 57 65  1  0  0  0  0
 58 78  1  0  0  0  0
 59 60  1  0  0  0  0
 60 79  1  0  0  0  0
 61 62  1  0  0  0  0
 61 79  1  0  0  0  0
 62 86  1  0  0  0  0
 63 65  1  0  0  0  0
 63 77  1  0  0  0  0
 64 78  1  0  0  0  0
 66 69  1  0  0  0  0
M  CHG  2  78   1  79   1
M  ISO  4  36 100  62 101  72 100  86 101
M  END
> <Batch ID>
0192

> <Smiles>
CNC(C)C(=O)NC(C(=O)N1Cc2cc([101O:1][101CH2:1]CNCCc3c(C)nc(C)nc3NC3C[100N:0]([100C:0](=O)N4CCCC(n5nc(-c6ccc(Oc7ccc(F)cc7F)cc6)c(C(N)=O)c5N)C4)C3)ccc2CC1C(=O)NC1CCCc2ccccc21)C(C)(C)C

> <Shape>
0.242

> <Color>
0.056

> <Negative vol penalty>
0.000

$$$$

  -OEChem-04052323293D

 86 96  0     1  0  0  0  0  0999 V2000
  -26.9932  -37.7446   19.0328 C   0  0  0  0  0  0  0  0  0  0  0  0
  -27.3292  -36.5169   18.4713 C   0  0  0  0  0  0  0  0  0  0  0  0
  -23.5177  -10.4784   21.4744 C   0  0  0  0  0  0  0  0  0  0  0  0
  -24.9574   -8.6110   22.0007 C   0  0  0  0  0  0  0  0  0  0  0  0
  -26.6618  -37.8242   20.3847 C   0  0  0  0  0  0  0  0  0  0  0  0
  -27.3350  -35.3682   19.2617 C   0  0  0  0  0  0  0  0  0  0  0  0
  -26.0509  -28.3304   18.8920 C   0  0  0  0  0  0  0  0  0  0  0  0
  -22.4335   -9.6090   21.3553 C   0  0  0  0  0  0  0  0  0  0  0  0
  -23.8732   -7.7415   21.8816 C   0  0  0  0  0  0  0  0  0  0  0  0
  -26.6518  -27.1087   19.1920 C   0  0  0  0  0  0  0  0  0  0  0  0
  -21.2204   -6.8000   23.7516 C   0  0  0  0  0  0  0  0  0  0  0  0
  -21.0617   -5.8255   24.7369 C   0  0  0  0  0  0  0  0  0  0  0  0
  -25.9852  -27.3537   21.4973 C   0  0  0  0  0  0  0  0  0  0  0  0
  -29.9900  -22.1615   21.4028 C   0  0  0  0  0  0  0  0  0  0  0  0
  -21.2530   -4.0977   23.0590 C   0  0  0  0  0  0  0  0  0  0  0  0
  -24.7797   -9.9794   21.7971 C   0  0  0  0  0  0  0  0  0  0  0  0
  -26.3350  -11.5398   23.0831 C   0  0  0  0  0  0  0  0  0  0  0  0
  -26.6542  -36.6743   21.1899 C   0  0  0  0  0  0  0  0  0  0  0  0
  -25.4209  -29.0794   19.8962 C   0  0  0  0  0  0  0  0  0  0  0  0
  -27.0045  -35.4327   20.6260 C   0  0  0  0  0  0  0  0  0  0  0  0
  -25.3747  -28.5834   21.2070 C   0  0  0  0  0  0  0  0  0  0  0  0
  -29.5367  -23.3972   20.9757 C   0  0  0  0  0  0  0  0  0  0  0  0
  -22.6112   -8.2406   21.5589 C   0  0  0  0  0  0  0  0  0  0  0  0
  -26.6216  -26.6215   20.4954 C   0  0  0  0  0  0  0  0  0  0  0  0
  -21.3953   -6.4233   22.4199 C   0  0  0  0  0  0  0  0  0  0  0  0
  -21.0781   -4.4744   24.3907 C   0  0  0  0  0  0  0  0  0  0  0  0
  -21.4116   -5.0722   22.0737 C   0  0  0  0  0  0  0  0  0  0  0  0
  -25.9001  -10.8770   21.9198 C   0  0  0  0  0  0  0  0  0  0  0  0
  -28.3856  -23.4355   20.2149 C   0  0  0  0  0  0  0  0  0  0  0  0
  -29.2618  -21.0459   21.0411 C   0  0  0  0  0  0  0  0  0  0  0  0
  -27.4273  -12.2663   22.6764 C   0  0  0  0  0  0  0  0  0  0  0  0
  -25.7994  -11.5022   24.4126 C   0  0  0  0  0  0  0  0  0  0  0  0
  -25.8775  -31.9560   21.1693 C   0  0  0  0  0  0  0  0  0  0  0  0
  -23.1238  -31.2688   22.7401 C   0  0  0  0  0  0  0  0  0  0  0  0
  -20.9780  -28.8927   23.9219 C   0  0  0  0  0  0  0  0  0  0  0  0
  -29.6143  -15.7635   18.8210 C   0  0  0  0  0  0  0  0  0  0  0  0
  -26.3350  -36.8175   22.6570 C   0  0  0  0  0  0  0  0  0  0  0  0
  -24.7541  -30.3827   19.5510 C   0  0  0  0  0  0  0  0  0  0  0  0
  -24.6935  -29.3394   22.3173 C   0  0  0  0  0  0  0  0  0  0  0  0
  -26.0013  -35.4937   23.3398 C   0  0  0  0  0  0  0  0  0  0  0  0
  -30.0555  -12.1490   18.3583 C   0  0  0  0  0  0  0  0  0  0  0  0
  -31.1411  -24.6351   22.5781 C   0  0  0  0  0  0  0  0  0  0  0  0
  -29.8643  -25.4158   22.5557 C   0  0  0  0  0  0  0  0  0  0  0  0
  -27.0183  -34.4236   22.9557 C   0  0  0  0  0  0  0  0  0  0  0  0
  -29.0127  -11.5563   19.3070 C   0  0  0  0  0  0  0  0  0  0  0  0
  -29.5127  -17.4377   22.0926 C   0  0  0  0  0  0  0  0  0  0  0  0
  -29.6261  -13.5099   17.8150 C   0  0  0  0  0  0  0  0  0  0  0  0
  -29.1253  -16.1934   21.3003 C   0  0  0  0  0  0  0  0  0  0  0  0
  -28.2079  -13.8963   19.7931 C   0  0  0  0  0  0  0  0  0  0  0  0
  -29.4355  -18.0362   19.7926 C   0  0  0  0  0  0  0  0  0  0  0  0
  -30.2847  -24.6335   21.3381 C   0  0  0  0  0  0  0  0  0  0  0  0
  -26.9981  -34.1603   21.4451 C   0  0  1  0  0  0  0  0  0  0  0  0
  -24.5880  -31.3060   20.7541 C   0  0  1  0  0  0  0  0  0  0  0  0
  -28.6351  -12.5589   20.4135 C   0  0  1  0  0  0  0  0  0  0  0  0
  -29.0577  -18.5625   21.1691 C   0  0  2  0  0  0  0  0  0  0  0  0
  -18.8323  -28.6356   25.1976 C   0  0  0  0  0  0  0  0  0  0  0  0
  -24.5960  -31.8961   25.3380 C   0  0  0  0  0  0  0  0  0  0  0  0
  -22.7590  -30.7322   26.5785 C   0  0  0  0  0  0  0  0  0  0  0  0
  -22.2548  -32.7686   25.2288 C   0  0  0  0  0  0  0  0  0  0  0  0
  -19.6488  -27.5509   21.6433 C   0  0  0  0  0  0  0  0  0  0  0  0
  -27.8364  -24.7305   19.7182 C   0  0  0  0  0  0  0  0  0  1  0  0
  -22.7775  -30.5959   24.0463 C   0  0  1  0  0  0  0  0  0  0  0  0
  -19.4691  -28.7590   23.8221 C   0  0  2  0  0  0  0  0  0  0  0  0
  -23.1114  -31.4846   25.2776 C   0  0  0  0  0  0  0  0  0  0  0  0
  -26.6546  -11.1576   20.8539 N   0  0  0  0  0  0  0  0  0  0  0  0
  -27.6931  -22.3275   19.8757 N   0  0  0  0  0  0  0  0  0  0  0  0
  -28.1384  -21.1131   20.2959 N   0  0  0  0  0  0  0  0  0  0  0  0
  -27.5745  -12.0049   21.3459 N   0  0  0  0  0  0  0  0  0  0  0  0
  -24.0615  -30.6117   21.9309 N   0  0  0  0  0  0  0  0  0  0  0  0
  -29.2518  -14.4146   18.9023 N   0  0  0  0  0  0  0  0  0  0  0  0
  -29.2883  -16.5865   19.8982 N   0  0  0  0  0  0  0  0  0  0  0  0
  -28.2667  -13.0969   23.3306 N   0  0  0  0  0  0  0  0  0  0  0  0
  -24.6735  -10.7040   24.6570 N   0  0  0  0  0  0  0  0  0  0  0  0
  -29.7165  -19.8061   21.4697 N   0  0  0  0  0  0  0  0  0  0  0  0
  -25.8628  -33.3355   21.0911 N   0  0  0  0  0  0  0  0  0  0  0  0
  -21.3729  -30.2135   23.9487 N   0  0  0  0  0  0  0  0  0  0  0  0
  -19.1076  -27.5516   23.0268 N   0  3  0  0  0  0  0  0  0  0  0  0
  -26.2944  -12.1697   25.3522 O   0  0  0  0  0  0  0  0  0  0  0  0
  -26.8157  -31.2577   21.5351 O   0  0  0  0  0  0  0  0  0  0  0  0
  -22.5770  -32.3345   22.4452 O   0  0  0  0  0  0  0  0  0  0  0  0
  -21.7306  -27.9226   23.9747 O   0  0  0  0  0  0  0  0  0  0  0  0
  -30.2435  -16.2039   17.8497 O   0  0  0  0  0  0  0  0  0  0  0  0
  -21.5534   -7.3919   21.4429 O   0  0  0  0  0  0  0  0  0  0  0  0
  -27.2120  -25.4214   20.7931 O   0  0  0  0  0  0  0  0  0  1  0  0
  -20.9273   -3.5388   25.3372 F   0  0  0  0  0  0  0  0  0  0  0  0
  -21.5804   -4.7042   20.7962 F   0  0  0  0  0  0  0  0  0  0  0  0
  1  2  1  0  0  0  0
  1  5  2  0  0  0  0
  2  6  2  0  0  0  0
  3  8  2  0  0  0  0
  3 16  1  0  0  0  0
  4  9  1  0  0  0  0
  4 16  2  0  0  0  0
  5 18  1  0  0  0  0
  6 20  1  0  0  0  0
  7 10  2  0  0  0  0
  7 19  1  0  0  0  0
  8 23  1  0  0  0  0
  9 23  2  0  0  0  0
 10 24  1  0  0  0  0
 11 12  2  0  0  0  0
 11 25  1  0  0  0  0
 12 26  1  0  0  0  0
 13 21  1  0  0  0  0
 13 24  2  0  0  0  0
 14 22  1  0  0  0  0
 14 30  2  0  0  0  0
 15 26  2  0  0  0  0
 15 27  1  0  0  0  0
 16 28  1  0  0  0  0
 17 28  1  0  0  0  0
 17 31  2  0  0  0  0
 17 32  1  0  0  0  0
 18 20  2  0  0  0  0
 18 37  1  0  0  0  0
 19 21  2  0  0  0  0
 19 38  1  0  0  0  0
 20 52  1  0  0  0  0
 21 39  1  0  0  0  0
 22 29  2  0  0  0  0
 22 51  1  0  0  0  0
 23 83  1  0  0  0  0
 24 84  1  0  0  0  0
 25 27  2  0  0  0  0
 25 83  1  0  0  0  0
 26 85  1  0  0  0  0
 27 86  1  0  0  0  0
 28 65  2  0  0  0  0
 29 61  1  0  0  0  0
 29 66  1  0  0  0  0
 30 67  1  0  0  0  0
 30 74  1  0  0  0  0
 31 68  1  0  0  0  0
 31 72  1  0  0  0  0
 32 73  1  0  0  0  0
 32 78  2  0  0  0  0
 33 53  1  0  0  0  0
 33 75  1  0  0  0  0
 33 79  2  0  0  0  0
 34 62  1  0  0  0  0
 34 69  1  0  0  0  0
 34 80  2  0  0  0  0
 35 63  1  0  0  0  0
 35 76  1  0  0  0  0
 35 81  2  0  0  0  0
 36 70  1  0  0  0  0
 36 71  1  0  0  0  0
 36 82  2  0  0  0  0
 37 40  1  0  0  0  0
 38 53  1  0  0  0  0
 39 69  1  0  0  0  0
 40 44  1  0  0  0  0
 41 45  1  0  0  0  0
 41 47  1  0  0  0  0
 42 43  1  0  0  0  0
 42 51  1  0  0  0  0
 43 51  1  0  0  0  0
 44 52  1  0  0  0  0
 45 54  1  0  0  0  0
 46 48  1  0  0  0  0
 46 55  1  0  0  0  0
 47 70  1  0  0  0  0
 48 71  1  0  0  0  0
 49 54  1  0  0  0  0
 49 70  1  0  0  0  0
 50 55  1  0  0  0  0
 50 71  1  0  0  0  0
 52 75  1  0  0  0  0
 53 69  1  0  0  0  0
 54 68  1  0  0  0  0
 55 74  1  0  0  0  0
 56 63  1  0  0  0  0
 57 64  1  0  0  0  0
 58 64  1  0  0  0  0
 59 64  1  0  0  0  0
 60 77  1  0  0  0  0
 61 84  1  0  0  0  0
 62 64  1  0  0  0  0
 62 76  1  0  0  0  0
 63 77  1  0  0  0  0
 65 68  1  0  0  0  0
 66 67  2  0  0  0  0
M  CHG  1  77   1
M  ISO  4  36 100  61 101  71 100  84 101
M  END
> <Batch ID>
0192

> <Smiles>
CNC(C)C(=O)NC(C(=O)N1Cc2cc([101O:1][101CH2:1]c3nnc(NC4CC[100N:0]([100C:0](=O)N5CCCC(n6nc(-c7ccc(Oc8ccc(F)cc8F)cc7)c(C(N)=O)c6N)C5)C4)cc3C3CC3)ccc2CC1C(=O)NC1CCCc2ccccc21)C(C)(C)C

> <Shape>
0.329

> <Color>
0.104

> <Negative vol penalty>
0.000

$$$$

  -OEChem-04052323293D

 87 97  0     1  0  0  0  0  0999 V2000
  -26.9728  -34.9001   24.2250 C   0  0  0  0  0  0  0  0  0  0  0  0
  -27.3501  -33.6354   23.7852 C   0  0  0  0  0  0  0  0  0  0  0  0
  -25.5360  -13.7975   20.0347 C   0  0  0  0  0  0  0  0  0  0  0  0
  -25.5953  -12.7871   22.2285 C   0  0  0  0  0  0  0  0  0  0  0  0
  -25.7063  -35.0970   24.7738 C   0  0  0  0  0  0  0  0  0  0  0  0
  -26.4614  -32.5664   23.8948 C   0  0  0  0  0  0  0  0  0  0  0  0
  -26.2922  -29.7420   19.6949 C   0  0  0  0  0  0  0  0  0  0  0  0
  -25.2158  -12.5612   19.4739 C   0  0  0  0  0  0  0  0  0  0  0  0
  -25.2750  -11.5507   21.6677 C   0  0  0  0  0  0  0  0  0  0  0  0
  -27.3375  -28.8426   19.4900 C   0  0  0  0  0  0  0  0  0  0  0  0
  -24.1186   -8.2005   20.8568 C   0  0  0  0  0  0  0  0  0  0  0  0
  -23.1425   -7.4328   21.4919 C   0  0  0  0  0  0  0  0  0  0  0  0
  -25.9467  -27.0492   20.3078 C   0  0  0  0  0  0  0  0  0  0  0  0
  -21.5340   -9.2051   21.1619 C   0  0  0  0  0  0  0  0  0  0  0  0
  -30.3157  -25.0768   17.9681 C   0  0  0  0  0  0  0  0  0  0  0  0
  -25.7258  -13.9104   21.4120 C   0  0  0  0  0  0  0  0  0  0  0  0
  -25.1610  -16.1638   22.4661 C   0  0  0  0  0  0  0  0  0  0  0  0
  -24.7981  -34.0319   24.8813 C   0  0  0  0  0  0  0  0  0  0  0  0
  -25.0678  -29.3030   20.2190 C   0  0  0  0  0  0  0  0  0  0  0  0
  -25.1820  -32.7489   24.4467 C   0  0  0  0  0  0  0  0  0  0  0  0
  -24.8866  -27.9446   20.5161 C   0  0  0  0  0  0  0  0  0  0  0  0
  -31.3813  -24.2525   18.2357 C   0  0  0  0  0  0  0  0  0  0  0  0
  -25.0853  -11.4378   20.2903 C   0  0  0  0  0  0  0  0  0  0  0  0
  -27.1659  -27.4964   19.7991 C   0  0  0  0  0  0  0  0  0  0  0  0
  -23.8025   -9.4706   20.3744 C   0  0  0  0  0  0  0  0  0  0  0  0
  -21.8502   -7.9351   21.6444 C   0  0  0  0  0  0  0  0  0  0  0  0
  -22.5102   -9.9728   20.5269 C   0  0  0  0  0  0  0  0  0  0  0  0
  -26.0572  -15.1872   21.9919 C   0  0  0  0  0  0  0  0  0  0  0  0
  -31.9775  -24.8094   19.3830 C   0  0  0  0  0  0  0  0  0  0  0  0
  -25.9674  -17.1814   22.9140 C   0  0  0  0  0  0  0  0  0  0  0  0
  -23.7276  -16.1521   22.4990 C   0  0  0  0  0  0  0  0  0  0  0  0
  -23.3955  -29.9382   22.8464 C   0  0  0  0  0  0  0  0  0  0  0  0
  -21.1707  -28.0615   21.4144 C   0  0  0  0  0  0  0  0  0  0  0  0
  -20.4805  -25.5824   19.1729 C   0  0  0  0  0  0  0  0  0  0  0  0
  -30.1265  -20.5429   22.4423 C   0  0  0  0  0  0  0  0  0  0  0  0
  -23.4574  -34.2833   25.5248 C   0  0  0  0  0  0  0  0  0  0  0  0
  -23.9412  -30.2812   20.4091 C   0  0  0  0  0  0  0  0  0  0  0  0
  -23.5849  -27.4191   21.0619 C   0  0  0  0  0  0  0  0  0  0  0  0
  -22.4384  -33.1776   25.2613 C   0  0  0  0  0  0  0  0  0  0  0  0
  -30.9602  -17.3549   23.6611 C   0  0  0  0  0  0  0  0  0  0  0  0
  -33.2284  -22.9388   16.9189 C   0  0  0  0  0  0  0  0  0  0  0  0
  -32.0908  -23.1441   15.9681 C   0  0  0  0  0  0  0  0  0  0  0  0
  -23.0674  -31.8067   25.4890 C   0  0  0  0  0  0  0  0  0  0  0  0
  -29.6781  -16.5750   23.3719 C   0  0  0  0  0  0  0  0  0  0  0  0
  -31.3209  -18.3086   22.5206 C   0  0  0  0  0  0  0  0  0  0  0  0
  -32.5062  -20.8593   21.6290 C   0  0  0  0  0  0  0  0  0  0  0  0
  -31.4117  -22.5787   23.0196 C   0  0  0  0  0  0  0  0  0  0  0  0
  -28.9441  -18.4487   21.8498 C   0  0  0  0  0  0  0  0  0  0  0  0
  -32.7661  -21.8934   20.5382 C   0  0  0  0  0  0  0  0  0  0  0  0
  -31.6314  -23.6296   21.9436 C   0  0  0  0  0  0  0  0  0  0  0  0
  -31.8085  -23.0221   17.4578 C   0  0  0  0  0  0  0  0  0  0  0  0
  -24.2370  -31.5696   24.5261 C   0  0  1  0  0  0  0  0  0  0  0  0
  -22.9091  -29.8128   21.4303 C   0  0  1  0  0  0  0  0  0  0  0  0
  -28.5247  -17.5252   23.0040 C   0  0  1  0  0  0  0  0  0  0  0  0
  -33.9565  -25.4416   20.8240 C   0  0  0  0  0  0  0  0  0  0  0  0
  -18.5745  -24.2367   18.2489 C   0  0  0  0  0  0  0  0  0  0  0  0
  -21.1041  -26.4025   23.9744 C   0  0  0  0  0  0  0  0  0  0  0  0
  -19.9524  -24.5901   22.6872 C   0  0  0  0  0  0  0  0  0  0  0  0
  -18.8642  -26.8202   22.9433 C   0  0  0  0  0  0  0  0  0  0  0  0
  -20.9530  -26.5825   16.4278 C   0  0  0  0  0  0  0  0  0  0  0  0
  -29.4082  -27.1355   19.0716 C   0  0  0  0  0  0  0  0  0  1  0  0
  -33.1974  -24.3159   20.1260 C   0  0  1  0  0  0  0  0  0  0  0  0
  -20.8609  -26.5840   21.4104 C   0  0  1  0  0  0  0  0  0  0  0  0
  -19.4360  -25.4781   18.0763 C   0  0  2  0  0  0  0  0  0  0  0  0
  -20.2207  -26.1091   22.7454 C   0  0  0  0  0  0  0  0  0  0  0  0
  -27.3351  -15.5517   22.1258 N   0  0  0  0  0  0  0  0  0  0  0  0
  -31.3434  -25.9030   19.8144 N   0  0  0  0  0  0  0  0  0  0  0  0
  -30.3378  -26.0399   18.9335 N   0  0  0  0  0  0  0  0  0  0  0  0
  -27.2478  -16.7686   22.6892 N   0  0  0  0  0  0  0  0  0  0  0  0
  -22.5155  -28.4158   21.2361 N   0  0  0  0  0  0  0  0  0  0  0  0
  -30.1779  -19.1662   22.1777 N   0  0  0  0  0  0  0  0  0  0  0  0
  -31.3455  -21.2370   22.4444 N   0  0  0  0  0  0  0  0  0  0  0  0
  -25.6992  -18.3800   23.4741 N   0  0  0  0  0  0  0  0  0  0  0  0
  -23.0570  -15.0278   21.9984 N   0  0  0  0  0  0  0  0  0  0  0  0
  -23.7456  -31.2248   23.2092 N   0  0  0  0  0  0  0  0  0  0  0  0
  -20.0343  -26.3435   20.2325 N   0  0  0  0  0  0  0  0  0  0  0  0
  -32.8672  -23.2688   21.1526 N   0  3  0  0  0  0  0  0  0  0  0  0
  -20.0926  -25.4124   16.7401 N   0  3  0  0  0  0  0  0  0  0  0  0
  -23.0609  -17.1172   22.9435 O   0  0  0  0  0  0  0  0  0  0  0  0
  -23.4478  -28.9417   23.5578 O   0  0  0  0  0  0  0  0  0  0  0  0
  -20.2524  -28.8716   21.5629 O   0  0  0  0  0  0  0  0  0  0  0  0
  -21.5808  -25.0397   19.0986 O   0  0  0  0  0  0  0  0  0  0  0  0
  -29.0536  -21.1187   22.6632 O   0  0  0  0  0  0  0  0  0  0  0  0
  -24.7726  -10.2313   19.7435 O   0  0  0  0  0  0  0  0  0  0  0  0
  -28.1914  -26.6108   19.5993 O   0  0  0  0  0  0  0  0  0  1  0  0
  -20.9124   -7.1971   22.2529 F   0  0  0  0  0  0  0  0  0  0  0  0
  -22.2002  -11.1918   20.0644 F   0  0  0  0  0  0  0  0  0  0  0  0
  1  2  1  0  0  0  0
  1  5  2  0  0  0  0
  2  6  2  0  0  0  0
  3  8  2  0  0  0  0
  3 16  1  0  0  0  0
  4  9  1  0  0  0  0
  4 16  2  0  0  0  0
  5 18  1  0  0  0  0
  6 20  1  0  0  0  0
  7 10  2  0  0  0  0
  7 19  1  0  0  0  0
  8 23  1  0  0  0  0
  9 23  2  0  0  0  0
 10 24  1  0  0  0  0
 11 12  2  0  0  0  0
 11 25  1  0  0  0  0
 12 26  1  0  0  0  0
 13 21  1  0  0  0  0
 13 24  2  0  0  0  0
 14 26  2  0  0  0  0
 14 27  1  0  0  0  0
 15 22  2  0  0  0  0
 15 68  1  0  0  0  0
 16 28  1  0  0  0  0
 17 28  1  0  0  0  0
 17 30  2  0  0  0  0
 17 31  1  0  0  0  0
 18 20  2  0  0  0  0
 18 36  1  0  0  0  0
 19 21  2  0  0  0  0
 19 37  1  0  0  0  0
 20 52  1  0  0  0  0
 21 38  1  0  0  0  0
 22 29  1  0  0  0  0
 22 51  1  0  0  0  0
 23 84  1  0  0  0  0
 24 85  1  0  0  0  0
 25 27  2  0  0  0  0
 25 84  1  0  0  0  0
 26 86  1  0  0  0  0
 27 87  1  0  0  0  0
 28 66  2  0  0  0  0
 29 62  1  0  0  0  0
 29 67  2  0  0  0  0
 30 69  1  0  0  0  0
 30 73  1  0  0  0  0
 31 74  1  0  0  0  0
 31 79  2  0  0  0  0
 32 53  1  0  0  0  0
 32 75  1  0  0  0  0
 32 80  2  0  0  0  0
 33 63  1  0  0  0  0
 33 70  1  0  0  0  0
 33 81  2  0  0  0  0
 34 64  1  0  0  0  0
 34 76  1  0  0  0  0
 34 82  2  0  0  0  0
 35 71  1  0  0  0  0
 35 72  1  0  0  0  0
 35 83  2  0  0  0  0
 36 39  1  0  0  0  0
 37 53  1  0  0  0  0
 38 70  1  0  0  0  0
 39 43  1  0  0  0  0
 40 44  1  0  0  0  0
 40 45  1  0  0  0  0
 41 42  1  0  0  0  0
 41 51  1  0  0  0  0
 42 51  1  0  0  0  0
 43 52  1  0  0  0  0
 44 54  1  0  0  0  0
 45 71  1  0  0  0  0
 46 49  1  0  0  0  0
 46 72  1  0  0  0  0
 47 50  1  0  0  0  0
 47 72  1  0  0  0  0
 48 54  1  0  0  0  0
 48 71  1  0  0  0  0
 49 77  1  0  0  0  0
 50 77  1  0  0  0  0
 52 75  1  0  0  0  0
 53 70  1  0  0  0  0
 54 69  1  0  0  0  0
 55 62  1  0  0  0  0
 56 64  1  0  0  0  0
 57 65  1  0  0  0  0
 58 65  1  0  0  0  0
 59 65  1  0  0  0  0
 60 78  1  0  0  0  0
 61 68  1  0  0  0  0
 61 85  1  0  0  0  0
 62 77  1  0  0  0  0
 63 65  1  0  0  0  0
 63 76  1  0  0  0  0
 64 78  1  0  0  0  0
 66 69  1  0  0  0  0
 67 68  1  0  0  0  0
M  CHG  2  77   1  78   1
M  ISO  4  35 100  61 101  72 100  85 101
M  END
> <Batch ID>
0192

> <Smiles>
CNC(C)C(=O)NC(C(=O)N1Cc2cc([101O:1][101CH2:1]n3cc(C4CC4)c(C(C)N4CC[100N:0]([100C:0](=O)N5CCCC(n6nc(-c7ccc(Oc8ccc(F)cc8F)cc7)c(C(N)=O)c6N)C5)CC4)n3)ccc2CC1C(=O)NC1CCCc2ccccc21)C(C)(C)C

> <Shape>
0.266

> <Color>
0.093

> <Negative vol penalty>
0.000

$$$$

  -OEChem-04052323293D

 88 97  0     1  0  0  0  0  0999 V2000
  -20.6818  -21.8988   19.8496 C   0  0  0  0  0  0  0  0  0  0  0  0
  -21.8348  -21.7382   20.6113 C   0  0  0  0  0  0  0  0  0  0  0  0
  -23.0674   -9.8355   19.9362 C   0  0  0  0  0  0  0  0  0  0  0  0
  -23.8350   -9.8361   22.2270 C   0  0  0  0  0  0  0  0  0  0  0  0
  -20.4294  -23.1154   19.2170 C   0  0  0  0  0  0  0  0  0  0  0  0
  -22.7368  -22.7938   20.7399 C   0  0  0  0  0  0  0  0  0  0  0  0
  -26.1127  -24.1729   25.6600 C   0  0  0  0  0  0  0  0  0  0  0  0
  -22.3175   -8.6866   20.1877 C   0  0  0  0  0  0  0  0  0  0  0  0
  -23.0851   -8.6872   22.4786 C   0  0  0  0  0  0  0  0  0  0  0  0
  -27.4403  -23.9056   25.9915 C   0  0  0  0  0  0  0  0  0  0  0  0
  -19.8543   -7.9082   23.0914 C   0  0  0  0  0  0  0  0  0  0  0  0
  -19.1011   -7.8719   24.2648 C   0  0  0  0  0  0  0  0  0  0  0  0
  -28.0774  -26.0823   25.1697 C   0  0  0  0  0  0  0  0  0  0  0  0
  -20.3334   -5.9265   24.9955 C   0  0  0  0  0  0  0  0  0  0  0  0
  -30.3167  -18.7860   23.0680 C   0  0  0  0  0  0  0  0  0  0  0  0
  -23.8262  -10.4102   20.9558 C   0  0  0  0  0  0  0  0  0  0  0  0
  -24.1827  -12.9334   20.8366 C   0  0  0  0  0  0  0  0  0  0  0  0
  -21.3240  -24.1895   19.3458 C   0  0  0  0  0  0  0  0  0  0  0  0
  -25.7585  -25.3947   25.0698 C   0  0  0  0  0  0  0  0  0  0  0  0
  -22.4968  -24.0255   20.1073 C   0  0  0  0  0  0  0  0  0  0  0  0
  -26.7442  -26.3636   24.8340 C   0  0  0  0  0  0  0  0  0  0  0  0
  -31.5644  -19.2449   22.6981 C   0  0  0  0  0  0  0  0  0  0  0  0
  -22.3263   -8.1125   21.4589 C   0  0  0  0  0  0  0  0  0  0  0  0
  -28.4233  -24.8593   25.7437 C   0  0  0  0  0  0  0  0  0  0  0  0
  -20.8470   -6.9536   22.8700 C   0  0  0  0  0  0  0  0  0  0  0  0
  -19.3406   -6.8810   25.2169 C   0  0  0  0  0  0  0  0  0  0  0  0
  -21.0866   -5.9628   23.8221 C   0  0  0  0  0  0  0  0  0  0  0  0
  -24.6015  -11.5967   20.6964 C   0  0  0  0  0  0  0  0  0  0  0  0
  -32.2917  -18.4038   21.8807 C   0  0  0  0  0  0  0  0  0  0  0  0
  -25.2781  -13.6767   20.4702 C   0  0  0  0  0  0  0  0  0  0  0  0
  -30.6136  -16.8705   21.8806 C   0  0  0  0  0  0  0  0  0  0  0  0
  -22.9167  -13.4565   21.2601 C   0  0  0  0  0  0  0  0  0  0  0  0
  -24.4723  -26.2552   22.2933 C   0  0  0  0  0  0  0  0  0  0  0  0
  -24.4663  -29.2001   23.6534 C   0  0  0  0  0  0  0  0  0  0  0  0
  -25.7985  -31.3253   25.9676 C   0  0  0  0  0  0  0  0  0  0  0  0
  -30.7509  -14.6895   20.6273 C   0  0  0  0  0  0  0  0  0  0  0  0
  -21.0320  -25.4702   18.6047 C   0  0  0  0  0  0  0  0  0  0  0  0
  -24.3180  -25.6781   24.7426 C   0  0  0  0  0  0  0  0  0  0  0  0
  -26.4130  -27.6989   24.2210 C   0  0  0  0  0  0  0  0  0  0  0  0
  -21.8519  -26.6598   19.0978 C   0  0  0  0  0  0  0  0  0  0  0  0
  -29.6142  -12.2843   18.2609 C   0  0  0  0  0  0  0  0  0  0  0  0
  -23.3186  -26.2701   19.2518 C   0  0  0  0  0  0  0  0  0  0  0  0
  -28.1743  -12.0009   18.6951 C   0  0  0  0  0  0  0  0  0  0  0  0
  -31.1623  -21.6993   22.6607 C   0  0  0  0  0  0  0  0  0  0  0  0
  -32.1720  -20.5946   24.6971 C   0  0  0  0  0  0  0  0  0  0  0  0
  -30.5347  -12.5067   19.4597 C   0  0  0  0  0  0  0  0  0  0  0  0
  -28.6368  -13.2414   20.8479 C   0  0  0  0  0  0  0  0  0  0  0  0
  -31.6103  -23.0568   23.1870 C   0  0  0  0  0  0  0  0  0  0  0  0
  -32.6126  -21.9606   25.2076 C   0  0  0  0  0  0  0  0  0  0  0  0
  -32.0763  -20.5700   23.1631 C   0  0  0  0  0  0  0  0  0  0  0  0
  -23.4870  -25.1551   20.2909 C   0  0  1  0  0  0  0  0  0  0  0  0
  -24.1485  -26.7531   23.6735 C   0  0  1  0  0  0  0  0  0  0  0  0
  -27.6590  -13.0749   19.6732 C   0  0  2  0  0  0  0  0  0  0  0  0
  -35.5761  -18.4515   20.2464 C   0  0  0  0  0  0  0  0  0  0  0  0
  -25.6138  -33.6794   26.8171 C   0  0  0  0  0  0  0  0  0  0  0  0
  -25.9600  -30.2038   21.1893 C   0  0  0  0  0  0  0  0  0  0  0  0
  -26.5706  -32.2589   22.4825 C   0  0  0  0  0  0  0  0  0  0  0  0
  -24.1735  -31.7418   22.0247 C   0  0  0  0  0  0  0  0  0  0  0  0
  -25.0547  -30.4107   28.6822 C   0  0  0  0  0  0  0  0  0  0  0  0
  -31.9786  -24.3707   25.2733 C   0  0  0  0  0  0  0  0  0  0  0  0
  -34.2325  -17.8613   20.6180 C   0  0  0  0  0  0  0  0  0  0  0  0
  -30.7244  -25.2221   25.2649 C   0  0  0  0  0  0  0  0  0  1  0  0
  -25.4406  -30.3517   23.7141 C   0  0  1  0  0  0  0  0  0  0  0  0
  -25.1462  -32.2423   26.9865 C   0  0  2  0  0  0  0  0  0  0  0  0
  -25.5430  -31.1132   22.3624 C   0  0  0  0  0  0  0  0  0  0  0  0
  -29.8079  -17.5994   22.6762 N   0  0  0  0  0  0  0  0  0  0  0  0
  -25.8644  -11.4937   20.2738 N   0  0  0  0  0  0  0  0  0  0  0  0
  -31.8454  -17.2051   21.4515 N   0  0  0  0  0  0  0  0  0  0  0  0
  -26.2485  -12.7751   20.1452 N   0  0  0  0  0  0  0  0  0  0  0  0
  -24.9914  -27.9263   23.9129 N   0  0  0  0  0  0  0  0  0  0  0  0
  -29.9848  -13.5401   20.3397 N   0  0  0  0  0  0  0  0  0  0  0  0
  -25.4961  -15.0069   20.3975 N   0  0  0  0  0  0  0  0  0  0  0  0
  -21.9005  -12.5531   21.6001 N   0  0  0  0  0  0  0  0  0  0  0  0
  -30.1118  -15.6178   21.4486 N   0  0  0  0  0  0  0  0  0  0  0  0
  -23.3970  -25.6949   21.6307 N   0  0  0  0  0  0  0  0  0  0  0  0
  -25.0213  -31.1824   24.8377 N   0  0  0  0  0  0  0  0  0  0  0  0
  -31.6684  -23.0355   24.7028 N   0  3  0  0  0  0  0  0  0  0  0  0
  -25.4793  -31.7996   28.3700 N   0  3  0  0  0  0  0  0  0  0  0  0
  -22.6880  -14.6884   21.3192 O   0  0  0  0  0  0  0  0  0  0  0  0
  -25.6130  -26.3722   21.8610 O   0  0  0  0  0  0  0  0  0  0  0  0
  -23.2815  -29.4235   23.3925 O   0  0  0  0  0  0  0  0  0  0  0  0
  -26.8902  -30.7923   26.1538 O   0  0  0  0  0  0  0  0  0  0  0  0
  -31.8794  -14.8519   20.1560 O   0  0  0  0  0  0  0  0  0  0  0  0
  -21.5945   -6.9915   21.7048 O   0  0  0  0  0  0  0  0  0  0  0  0
  -29.7199  -24.6007   26.0657 O   0  0  0  0  0  0  0  0  0  1  0  0
  -33.5405  -18.7773   21.4582 O   0  0  0  0  0  0  0  0  0  0  0  0
  -18.6182   -6.8472   26.3443 F   0  0  0  0  0  0  0  0  0  0  0  0
  -22.0398   -5.0438   23.6155 F   0  0  0  0  0  0  0  0  0  0  0  0
  1  2  1  0  0  0  0
  1  5  2  0  0  0  0
  2  6  2  0  0  0  0
  3  8  2  0  0  0  0
  3 16  1  0  0  0  0
  4  9  1  0  0  0  0
  4 16  2  0  0  0  0
  5 18  1  0  0  0  0
  6 20  1  0  0  0  0
  7 10  2  0  0  0  0
  7 19  1  0  0  0  0
  8 23  1  0  0  0  0
  9 23  2  0  0  0  0
 10 24  1  0  0  0  0
 11 12  2  0  0  0  0
 11 25  1  0  0  0  0
 12 26  1  0  0  0  0
 13 21  1  0  0  0  0
 13 24  2  0  0  0  0
 14 26  2  0  0  0  0
 14 27  1  0  0  0  0
 15 22  1  0  0  0  0
 15 66  2  0  0  0  0
 16 28  1  0  0  0  0
 17 28  1  0  0  0  0
 17 30  2  0  0  0  0
 17 32  1  0  0  0  0
 18 20  2  0  0  0  0
 18 37  1  0  0  0  0
 19 21  2  0  0  0  0
 19 38  1  0  0  0  0
 20 51  1  0  0  0  0
 21 39  1  0  0  0  0
 22 29  2  0  0  0  0
 22 50  1  0  0  0  0
 23 84  1  0  0  0  0
 24 85  1  0  0  0  0
 25 27  2  0  0  0  0
 25 84  1  0  0  0  0
 26 87  1  0  0  0  0
 27 88  1  0  0  0  0
 28 67  2  0  0  0  0
 29 68  1  0  0  0  0
 29 86  1  0  0  0  0
 30 69  1  0  0  0  0
 30 72  1  0  0  0  0
 31 66  1  0  0  0  0
 31 68  2  0  0  0  0
 31 74  1  0  0  0  0
 32 73  1  0  0  0  0
 32 79  2  0  0  0  0
 33 52  1  0  0  0  0
 33 75  1  0  0  0  0
 33 80  2  0  0  0  0
 34 63  1  0  0  0  0
 34 70  1  0  0  0  0
 34 81  2  0  0  0  0
 35 64  1  0  0  0  0
 35 76  1  0  0  0  0
 35 82  2  0  0  0  0
 36 71  1  0  0  0  0
 36 74  1  0  0  0  0
 36 83  2  0  0  0  0
 37 40  1  0  0  0  0
 38 52  1  0  0  0  0
 39 70  1  0  0  0  0
 40 42  1  0  0  0  0
 41 43  1  0  0  0  0
 41 46  1  0  0  0  0
 42 51  1  0  0  0  0
 43 53  1  0  0  0  0
 44 48  1  0  0  0  0
 44 50  1  0  0  0  0
 45 49  1  0  0  0  0
 45 50  1  0  0  0  0
 46 71  1  0  0  0  0
 47 53  1  0  0  0  0
 47 71  1  0  0  0  0
 48 77  1  0  0  0  0
 49 77  1  0  0  0  0
 51 75  1  0  0  0  0
 52 70  1  0  0  0  0
 53 69  1  0  0  0  0
 54 61  1  0  0  0  0
 55 64  1  0  0  0  0
 56 65  1  0  0  0  0
 57 65  1  0  0  0  0
 58 65  1  0  0  0  0
 59 78  1  0  0  0  0
 60 62  1  0  0  0  0
 60 77  1  0  0  0  0
 61 86  1  0  0  0  0
 62 85  1  0  0  0  0
 63 65  1  0  0  0  0
 63 76  1  0  0  0  0
 64 78  1  0  0  0  0
 67 69  1  0  0  0  0
M  CHG  2  77   1  78   1
M  ISO  4  36 100  62 101  74 100  85 101
M  END
> <Batch ID>
0192

> <Smiles>
CCOc1nc([100NH:0][100C:0](=O)N2CCCC(n3nc(-c4ccc(Oc5ccc(F)cc5F)cc4)c(C(N)=O)c3N)C2)ncc1C1CCN(C[101CH2:1][101O:1]c2ccc3c(c2)CN(C(=O)C(NC(=O)C(C)NC)C(C)(C)C)C(C(=O)NC2CCCc4ccccc42)C3)CC1

> <Shape>
0.246

> <Color>
0.192

> <Negative vol penalty>
0.000

$$$$

  -OEChem-04052323293D

 86 95  0     1  0  0  0  0  0999 V2000
  -30.4297  -31.4839   13.1070 C   0  0  0  0  0  0  0  0  0  0  0  0
  -30.5101  -30.5270   14.1135 C   0  0  0  0  0  0  0  0  0  0  0  0
  -23.0748   -9.8336   19.9770 C   0  0  0  0  0  0  0  0  0  0  0  0
  -23.9584   -9.8436   22.2256 C   0  0  0  0  0  0  0  0  0  0  0  0
  -29.2749  -32.2528   12.9683 C   0  0  0  0  0  0  0  0  0  0  0  0
  -29.4360  -30.3391   14.9828 C   0  0  0  0  0  0  0  0  0  0  0  0
  -28.3779  -25.4441   15.7342 C   0  0  0  0  0  0  0  0  0  0  0  0
  -22.3825   -8.6549   20.2543 C   0  0  0  0  0  0  0  0  0  0  0  0
  -23.2661   -8.6648   22.5029 C   0  0  0  0  0  0  0  0  0  0  0  0
  -29.2022  -24.7421   16.6125 C   0  0  0  0  0  0  0  0  0  0  0  0
  -20.1025   -7.7581   23.2712 C   0  0  0  0  0  0  0  0  0  0  0  0
  -19.4124   -7.6829   24.4810 C   0  0  0  0  0  0  0  0  0  0  0  0
  -27.5473  -24.9855   18.3506 C   0  0  0  0  0  0  0  0  0  0  0  0
  -20.7528   -5.7796   25.1273 C   0  0  0  0  0  0  0  0  0  0  0  0
  -32.5750  -23.1339   20.0816 C   0  0  0  0  0  0  0  0  0  0  0  0
  -23.8628  -10.4280   20.9627 C   0  0  0  0  0  0  0  0  0  0  0  0
  -24.1176  -12.9638   20.8522 C   0  0  0  0  0  0  0  0  0  0  0  0
  -28.1825  -32.0676   13.8302 C   0  0  0  0  0  0  0  0  0  0  0  0
  -27.1347  -25.9324   16.1614 C   0  0  0  0  0  0  0  0  0  0  0  0
  -28.2661  -31.1072   14.8564 C   0  0  0  0  0  0  0  0  0  0  0  0
  -26.7080  -25.6912   17.4751 C   0  0  0  0  0  0  0  0  0  0  0  0
  -32.8844  -22.1321   20.9689 C   0  0  0  0  0  0  0  0  0  0  0  0
  -22.4781   -8.0705   21.5172 C   0  0  0  0  0  0  0  0  0  0  0  0
  -28.7882  -24.5151   17.9218 C   0  0  0  0  0  0  0  0  0  0  0  0
  -21.1178   -6.8440   22.9894 C   0  0  0  0  0  0  0  0  0  0  0  0
  -19.7375   -6.6937   25.4091 C   0  0  0  0  0  0  0  0  0  0  0  0
  -21.4429   -5.8547   23.9175 C   0  0  0  0  0  0  0  0  0  0  0  0
  -24.5786  -11.6453   20.6767 C   0  0  0  0  0  0  0  0  0  0  0  0
  -31.9613  -21.1091   20.6804 C   0  0  0  0  0  0  0  0  0  0  0  0
  -25.1640  -13.7514   20.4384 C   0  0  0  0  0  0  0  0  0  0  0  0
  -22.8563  -13.4346   21.3453 C   0  0  0  0  0  0  0  0  0  0  0  0
  -25.8329  -28.8191   16.4366 C   0  0  0  0  0  0  0  0  0  0  0  0
  -23.1723  -27.1205   17.1839 C   0  0  0  0  0  0  0  0  0  0  0  0
  -21.8267  -24.2151   18.3649 C   0  0  0  0  0  0  0  0  0  0  0  0
  -30.7760  -14.6185   20.7757 C   0  0  0  0  0  0  0  0  0  0  0  0
  -26.9736  -32.9553   13.6711 C   0  0  0  0  0  0  0  0  0  0  0  0
  -26.2457  -26.6647   15.1940 C   0  0  0  0  0  0  0  0  0  0  0  0
  -25.3736  -26.1768   17.9772 C   0  0  0  0  0  0  0  0  0  0  0  0
  -25.7360  -32.4351   14.3977 C   0  0  0  0  0  0  0  0  0  0  0  0
  -29.4206  -12.5839   17.9893 C   0  0  0  0  0  0  0  0  0  0  0  0
  -26.0926  -32.0019   15.8162 C   0  0  0  0  0  0  0  0  0  0  0  0
  -28.0305  -12.2094   18.5000 C   0  0  0  0  0  0  0  0  0  0  0  0
  -31.4439  -17.4049   22.7319 C   0  0  0  0  0  0  0  0  0  0  0  0
  -29.3902  -17.8119   21.3181 C   0  0  0  0  0  0  0  0  0  0  0  0
  -30.4019  -12.8137   19.1343 C   0  0  0  0  0  0  0  0  0  0  0  0
  -31.0291  -15.9411   22.8546 C   0  0  0  0  0  0  0  0  0  0  0  0
  -29.0291  -16.3292   21.4471 C   0  0  0  0  0  0  0  0  0  0  0  0
  -28.5451  -13.4424   20.6439 C   0  0  0  0  0  0  0  0  0  0  0  0
  -27.1125  -30.8569   15.8033 C   0  0  1  0  0  0  0  0  0  0  0  0
  -25.2230  -27.5620   15.8841 C   0  0  1  0  0  0  0  0  0  0  0  0
  -27.5219  -13.2476   19.5148 C   0  0  2  0  0  0  0  0  0  0  0  0
  -30.2140  -18.2839   22.5143 C   0  0  0  0  0  0  0  0  0  0  0  0
  -33.9465  -22.1393   21.9890 C   0  0  0  0  0  0  0  0  0  0  0  0
  -19.6235  -23.1379   18.8968 C   0  0  0  0  0  0  0  0  0  0  0  0
  -22.9725  -28.7913   19.7292 C   0  0  0  0  0  0  0  0  0  0  0  0
  -21.3840  -27.0847   20.6416 C   0  0  0  0  0  0  0  0  0  0  0  0
  -20.7892  -28.3667   18.5860 C   0  0  0  0  0  0  0  0  0  0  0  0
  -22.2761  -22.0535   16.3940 C   0  0  0  0  0  0  0  0  0  0  0  0
  -30.9149  -20.4307   23.5634 C   0  0  0  0  0  0  0  0  0  0  0  0
  -31.8348  -19.7703   21.3457 C   0  0  0  0  0  0  0  0  0  0  0  0
  -30.8491  -23.3698   18.2803 C   0  0  0  0  0  0  0  0  0  1  0  0
  -22.5727  -26.5792   18.4592 C   0  0  1  0  0  0  0  0  0  0  0  0
  -20.7007  -23.3412   17.8427 C   0  0  2  0  0  0  0  0  0  0  0  0
  -21.9556  -27.6979   19.3454 C   0  0  0  0  0  0  0  0  0  0  0  0
  -25.8211  -11.5941   20.1892 N   0  0  0  0  0  0  0  0  0  0  0  0
  -31.1279  -21.4315   19.6877 N   0  0  0  0  0  0  0  0  0  0  0  0
  -31.5261  -22.6683   19.3447 N   0  0  0  0  0  0  0  0  0  0  0  0
  -26.1497  -12.8903   20.0548 N   0  0  0  0  0  0  0  0  0  0  0  0
  -24.5430  -26.8932   16.9952 N   0  0  0  0  0  0  0  0  0  0  0  0
  -29.8767  -13.7683   20.1107 N   0  0  0  0  0  0  0  0  0  0  0  0
  -30.2304  -15.5203   21.7019 N   0  0  0  0  0  0  0  0  0  0  0  0
  -25.3280  -15.0895   20.3689 N   0  0  0  0  0  0  0  0  0  0  0  0
  -21.8936  -12.4903   21.7270 N   0  0  0  0  0  0  0  0  0  0  0  0
  -26.4613  -29.6034   15.4882 N   0  0  0  0  0  0  0  0  0  0  0  0
  -21.6259  -25.5443   18.0580 N   0  0  0  0  0  0  0  0  0  0  0  0
  -21.2251  -22.0047   17.4428 N   0  3  0  0  0  0  0  0  0  0  0  0
  -30.6535  -19.6837   22.2794 N   0  3  1  0  0  0  0  0  0  0  0  0
  -22.5848  -14.6564   21.4291 O   0  0  0  0  0  0  0  0  0  0  0  0
  -25.7389  -29.0605   17.6343 O   0  0  0  0  0  0  0  0  0  0  0  0
  -22.4497  -27.7165   16.3813 O   0  0  0  0  0  0  0  0  0  0  0  0
  -22.7863  -23.7643   18.9865 O   0  0  0  0  0  0  0  0  0  0  0  0
  -31.9923  -14.5748   20.5525 O   0  0  0  0  0  0  0  0  0  0  0  0
  -21.8025   -6.9204   21.7882 O   0  0  0  0  0  0  0  0  0  0  0  0
  -29.5963  -23.8263   18.7869 O   0  0  0  0  0  0  0  0  0  1  0  0
  -19.0758   -6.6226   26.5715 F   0  0  0  0  0  0  0  0  0  0  0  0
  -22.4181   -4.9745   23.6529 F   0  0  0  0  0  0  0  0  0  0  0  0
  1  2  1  0  0  0  0
  1  5  2  0  0  0  0
  2  6  2  0  0  0  0
  3  8  2  0  0  0  0
  3 16  1  0  0  0  0
  4  9  1  0  0  0  0
  4 16  2  0  0  0  0
  5 18  1  0  0  0  0
  6 20  1  0  0  0  0
  7 10  2  0  0  0  0
  7 19  1  0  0  0  0
  8 23  1  0  0  0  0
  9 23  2  0  0  0  0
 10 24  1  0  0  0  0
 11 12  2  0  0  0  0
 11 25  1  0  0  0  0
 12 26  1  0  0  0  0
 13 21  1  0  0  0  0
 13 24  2  0  0  0  0
 14 26  2  0  0  0  0
 14 27  1  0  0  0  0
 15 22  2  0  0  0  0
 15 67  1  0  0  0  0
 16 28  1  0  0  0  0
 17 28  1  0  0  0  0
 17 30  2  0  0  0  0
 17 31  1  0  0  0  0
 18 20  2  0  0  0  0
 18 36  1  0  0  0  0
 19 21  2  0  0  0  0
 19 37  1  0  0  0  0
 20 49  1  0  0  0  0
 21 38  1  0  0  0  0
 22 29  1  0  0  0  0
 22 53  1  0  0  0  0
 23 83  1  0  0  0  0
 24 84  1  0  0  0  0
 25 27  2  0  0  0  0
 25 83  1  0  0  0  0
 26 85  1  0  0  0  0
 27 86  1  0  0  0  0
 28 65  2  0  0  0  0
 29 60  1  0  0  0  0
 29 66  2  0  0  0  0
 30 68  1  0  0  0  0
 30 72  1  0  0  0  0
 31 73  1  0  0  0  0
 31 78  2  0  0  0  0
 32 50  1  0  0  0  0
 32 74  1  0  0  0  0
 32 79  2  0  0  0  0
 33 62  1  0  0  0  0
 33 69  1  0  0  0  0
 33 80  2  0  0  0  0
 34 63  1  0  0  0  0
 34 75  1  0  0  0  0
 34 81  2  0  0  0  0
 35 70  1  0  0  0  0
 35 71  1  0  0  0  0
 35 82  2  0  0  0  0
 36 39  1  0  0  0  0
 37 50  1  0  0  0  0
 38 69  1  0  0  0  0
 39 41  1  0  0  0  0
 40 42  1  0  0  0  0
 40 45  1  0  0  0  0
 41 49  1  0  0  0  0
 42 51  1  0  0  0  0
 43 46  1  0  0  0  0
 43 52  1  0  0  0  0
 44 47  1  0  0  0  0
 44 52  1  0  0  0  0
 45 70  1  0  0  0  0
 46 71  1  0  0  0  0
 47 71  1  0  0  0  0
 48 51  1  0  0  0  0
 48 70  1  0  0  0  0
 49 74  1  0  0  0  0
 50 69  1  0  0  0  0
 51 68  1  0  0  0  0
 52 77  1  0  0  0  0
 54 63  1  0  0  0  0
 55 64  1  0  0  0  0
 56 64  1  0  0  0  0
 57 64  1  0  0  0  0
 58 76  1  0  0  0  0
 59 77  1  0  0  0  0
 60 77  1  0  0  0  0
 61 67  1  0  0  0  0
 61 84  1  0  0  0  0
 62 64  1  0  0  0  0
 62 75  1  0  0  0  0
 63 76  1  0  0  0  0
 65 68  1  0  0  0  0
 66 67  1  0  0  0  0
M  CHG  2  76   1  77   1
M  ISO  4  35 100  61 101  71 100  84 101
M  END
> <Batch ID>
0192

> <Smiles>
CNC(C)C(=O)NC(C(=O)N1Cc2cc([101O:1][101CH2:1]n3cc(C)c(CN(C)C4CC[100N:0]([100C:0](=O)N5CCCC(n6nc(-c7ccc(Oc8ccc(F)cc8F)cc7)c(C(N)=O)c6N)C5)CC4)n3)ccc2CC1C(=O)NC1CCCc2ccccc21)C(C)(C)C

> <Shape>
0.225

> <Color>
0.186

> <Negative vol penalty>
0.000

$$$$

  -OEChem-04052323293D

 80 88  0     1  0  0  0  0  0999 V2000
  -22.0433  -11.9318   19.5909 C   0  0  0  0  0  0  0  0  0  0  0  0
  -21.8310  -13.2969   19.7551 C   0  0  0  0  0  0  0  0  0  0  0  0
  -25.2864  -29.5711   20.3230 C   0  0  0  0  0  0  0  0  0  0  0  0
  -25.7560  -27.2054   20.1814 C   0  0  0  0  0  0  0  0  0  0  0  0
  -23.2676  -11.3697   19.9504 C   0  0  0  0  0  0  0  0  0  0  0  0
  -22.8425  -14.1005   20.2799 C   0  0  0  0  0  0  0  0  0  0  0  0
  -23.4214  -18.4234   17.7064 C   0  0  0  0  0  0  0  0  0  0  0  0
  -26.6374  -29.8252   20.5589 C   0  0  0  0  0  0  0  0  0  0  0  0
  -27.1071  -27.4595   20.4173 C   0  0  0  0  0  0  0  0  0  0  0  0
  -22.4977  -19.4386   17.9511 C   0  0  0  0  0  0  0  0  0  0  0  0
  -29.7789  -28.5503   18.6588 C   0  0  0  0  0  0  0  0  0  0  0  0
  -30.7104  -27.8914   17.8565 C   0  0  0  0  0  0  0  0  0  0  0  0
  -24.0857  -20.5242   19.4068 C   0  0  0  0  0  0  0  0  0  0  0  0
  -31.6686  -26.8572   19.8185 C   0  0  0  0  0  0  0  0  0  0  0  0
  -24.8456  -28.2612   20.1343 C   0  0  0  0  0  0  0  0  0  0  0  0
  -22.8001  -27.9434   18.6435 C   0  0  0  0  0  0  0  0  0  0  0  0
  -24.2980  -12.1685   20.4709 C   0  0  0  0  0  0  0  0  0  0  0  0
  -24.6823  -18.4453   18.3197 C   0  0  0  0  0  0  0  0  0  0  0  0
  -24.0812  -13.5484   20.6479 C   0  0  0  0  0  0  0  0  0  0  0  0
  -25.0245  -19.5094   19.1663 C   0  0  0  0  0  0  0  0  0  0  0  0
  -27.5478  -28.7694   20.6061 C   0  0  0  0  0  0  0  0  0  0  0  0
  -22.8287  -20.4877   18.8037 C   0  0  0  0  0  0  0  0  0  0  0  0
  -29.7922  -28.3627   20.0410 C   0  0  0  0  0  0  0  0  0  0  0  0
  -31.6552  -27.0448   18.4363 C   0  0  0  0  0  0  0  0  0  0  0  0
  -30.7371  -27.5162   20.6208 C   0  0  0  0  0  0  0  0  0  0  0  0
  -23.4501  -27.9980   19.8911 C   0  0  0  0  0  0  0  0  0  0  0  0
  -21.4907  -27.6643   18.9505 C   0  0  0  0  0  0  0  0  0  0  0  0
  -23.3323  -28.1284   17.3251 C   0  0  0  0  0  0  0  0  0  0  0  0
  -26.2237  -16.5438   20.3475 C   0  0  0  0  0  0  0  0  0  0  0  0
  -28.6837  -18.5801   19.7784 C   0  0  0  0  0  0  0  0  0  0  0  0
  -29.7073  -21.6854   18.8004 C   0  0  0  0  0  0  0  0  0  0  0  0
  -18.8815  -24.9773   23.6220 C   0  0  0  0  0  0  0  0  0  0  0  0
  -25.5877  -11.5079   20.8893 C   0  0  0  0  0  0  0  0  0  0  0  0
  -25.6772  -17.3565   18.0244 C   0  0  0  0  0  0  0  0  0  0  0  0
  -26.3724  -19.5901   19.8334 C   0  0  0  0  0  0  0  0  0  0  0  0
  -26.7387  -12.4907   21.0885 C   0  0  0  0  0  0  0  0  0  0  0  0
  -18.2467  -28.2663   22.4152 C   0  0  0  0  0  0  0  0  0  0  0  0
  -26.2795  -13.6911   21.9101 C   0  0  0  0  0  0  0  0  0  0  0  0
  -19.4496  -28.5656   21.5189 C   0  0  0  0  0  0  0  0  0  0  0  0
  -17.8811  -22.2596   21.3669 C   0  0  0  0  0  0  0  0  0  0  0  0
  -18.6451  -27.4431   23.6382 C   0  0  0  0  0  0  0  0  0  0  0  0
  -20.5799  -26.4982   22.4393 C   0  0  0  0  0  0  0  0  0  0  0  0
  -25.1626  -14.4572   21.1908 C   0  0  1  0  0  0  0  0  0  0  0  0
  -26.7433  -17.2119   19.1060 C   0  0  1  0  0  0  0  0  0  0  0  0
  -18.2680  -21.7504   19.9826 C   0  0  2  0  0  0  0  0  0  0  0  0
  -20.2184  -27.2786   21.1640 C   0  0  2  0  0  0  0  0  0  0  0  0
  -18.9916  -21.7101   22.2530 C   0  0  2  0  0  0  0  0  0  0  0  0
  -19.7735  -22.0115   19.9503 C   0  0  2  0  0  0  0  0  0  0  0  0
  -31.7780  -23.0645   18.4727 C   0  0  0  0  0  0  0  0  0  0  0  0
  -28.9147  -18.9466   22.7988 C   0  0  0  0  0  0  0  0  0  0  0  0
  -30.2998  -20.9887   22.3749 C   0  0  0  0  0  0  0  0  0  0  0  0
  -31.1017  -18.7570   21.6006 C   0  0  0  0  0  0  0  0  0  0  0  0
  -29.1574  -22.0355   15.9136 C   0  0  0  0  0  0  0  0  0  0  0  0
  -17.5109  -22.4493   18.8647 C   0  0  0  0  0  0  0  0  0  0  0  0
  -19.2458  -22.5252   23.5051 C   0  0  0  0  0  0  0  0  0  0  0  0
  -20.5464  -21.1305   18.9870 C   0  0  0  0  0  0  0  0  0  1  0  0
  -29.1728  -19.8660   20.4000 C   0  0  1  0  0  0  0  0  0  0  0  0
  -30.7733  -22.1309   17.8158 C   0  0  2  0  0  0  0  0  0  0  0  0
  -29.8461  -19.6373   21.7827 C   0  0  0  0  0  0  0  0  0  0  0  0
  -22.6219  -27.7719   20.9143 N   0  0  0  0  0  0  0  0  0  0  0  0
  -21.4380  -27.5726   20.3102 N   0  0  0  0  0  0  0  0  0  0  0  0
  -27.3085  -18.4984   19.5181 N   0  0  0  0  0  0  0  0  0  0  0  0
  -19.3689  -26.2358   23.2326 N   0  0  0  0  0  0  0  0  0  0  0  0
  -20.3909  -27.4909   18.1872 N   0  0  0  0  0  0  0  0  0  0  0  0
  -24.6988  -28.4086   17.1895 N   0  0  0  0  0  0  0  0  0  0  0  0
  -25.7127  -15.2779   20.1333 N   0  0  0  0  0  0  0  0  0  0  0  0
  -30.0405  -20.4940   19.4095 N   0  0  0  0  0  0  0  0  0  0  0  0
  -19.6237  -23.8849   23.1901 N   0  0  0  0  0  0  0  0  0  0  0  0
  -20.2125  -21.7262   21.3665 N   0  3  0  0  0  0  0  0  0  0  0  0
  -16.0644  -22.1850   19.0256 N   0  3  0  0  0  0  0  0  0  0  0  0
  -30.1502  -22.8451   16.6657 N   0  3  0  0  0  0  0  0  0  0  0  0
  -22.6140  -28.0639   16.2988 O   0  0  0  0  0  0  0  0  0  0  0  0
  -26.2834  -17.1325   21.4206 O   0  0  0  0  0  0  0  0  0  0  0  0
  -29.4932  -17.6841   19.5264 O   0  0  0  0  0  0  0  0  0  0  0  0
  -28.6834  -22.3316   19.0112 O   0  0  0  0  0  0  0  0  0  0  0  0
  -17.8576  -24.8373   24.2994 O   0  0  0  0  0  0  0  0  0  0  0  0
  -28.8663  -29.0170   20.8360 O   0  0  0  0  0  0  0  0  0  0  0  0
  -21.9288  -21.4796   19.0448 O   0  0  0  0  0  0  0  0  0  1  0  0
  -32.5487  -26.4109   17.6656 F   0  0  0  0  0  0  0  0  0  0  0  0
  -30.7542  -27.3311   21.9479 F   0  0  0  0  0  0  0  0  0  0  0  0
  1  2  1  0  0  0  0
  1  5  2  0  0  0  0
  2  6  2  0  0  0  0
  3  8  2  0  0  0  0
  3 15  1  0  0  0  0
  4  9  1  0  0  0  0
  4 15  2  0  0  0  0
  5 17  1  0  0  0  0
  6 19  1  0  0  0  0
  7 10  2  0  0  0  0
  7 18  1  0  0  0  0
  8 21  1  0  0  0  0
  9 21  2  0  0  0  0
 10 22  1  0  0  0  0
 11 12  2  0  0  0  0
 11 23  1  0  0  0  0
 12 24  1  0  0  0  0
 13 20  1  0  0  0  0
 13 22  2  0  0  0  0
 14 24  2  0  0  0  0
 14 25  1  0  0  0  0
 15 26  1  0  0  0  0
 16 26  1  0  0  0  0
 16 27  2  0  0  0  0
 16 28  1  0  0  0  0
 17 19  2  0  0  0  0
 17 33  1  0  0  0  0
 18 20  2  0  0  0  0
 18 34  1  0  0  0  0
 19 43  1  0  0  0  0
 20 35  1  0  0  0  0
 21 77  1  0  0  0  0
 22 78  1  0  0  0  0
 23 25  2  0  0  0  0
 23 77  1  0  0  0  0
 24 79  1  0  0  0  0
 25 80  1  0  0  0  0
 26 60  2  0  0  0  0
 27 61  1  0  0  0  0
 27 64  1  0  0  0  0
 28 65  1  0  0  0  0
 28 72  2  0  0  0  0
 29 44  1  0  0  0  0
 29 66  1  0  0  0  0
 29 73  2  0  0  0  0
 30 57  1  0  0  0  0
 30 62  1  0  0  0  0
 30 74  2  0  0  0  0
 31 58  1  0  0  0  0
 31 67  1  0  0  0  0
 31 75  2  0  0  0  0
 32 63  1  0  0  0  0
 32 68  1  0  0  0  0
 32 76  2  0  0  0  0
 33 36  1  0  0  0  0
 34 44  1  0  0  0  0
 35 62  1  0  0  0  0
 36 38  1  0  0  0  0
 37 39  1  0  0  0  0
 37 41  1  0  0  0  0
 38 43  1  0  0  0  0
 39 46  1  0  0  0  0
 40 45  1  0  0  0  0
 40 47  1  0  0  0  0
 41 63  1  0  0  0  0
 42 46  1  0  0  0  0
 42 63  1  0  0  0  0
 43 66  1  0  0  0  0
 44 62  1  0  0  0  0
 45 48  1  0  0  0  0
 45 54  1  0  0  0  0
 46 61  1  0  0  0  0
 47 55  1  0  0  0  0
 47 69  1  0  0  0  0
 48 56  1  0  0  0  0
 48 69  1  0  0  0  0
 49 58  1  0  0  0  0
 50 59  1  0  0  0  0
 51 59  1  0  0  0  0
 52 59  1  0  0  0  0
 53 71  1  0  0  0  0
 54 70  1  0  0  0  0
 55 68  1  0  0  0  0
 56 78  1  0  0  0  0
 57 59  1  0  0  0  0
 57 67  1  0  0  0  0
 58 71  1  0  0  0  0
 60 61  1  0  0  0  0
M  CHG  3  69   1  70   1  71   1
M  ISO  4  32 100  56 101  68 100  78 101
M  END
> <Batch ID>
0192

> <Smiles>
CNC(C)C(=O)NC(C(=O)N1Cc2cc([101O:1][101CH2:1]C3NC(C[100NH:0][100C:0](=O)N4CCCC(n5nc(-c6ccc(Oc7ccc(F)cc7F)cc6)c(C(N)=O)c5N)C4)CC3CN)ccc2CC1C(=O)NC1CCCc2ccccc21)C(C)(C)C

> <Shape>
0.213

> <Color>
0.081

> <Negative vol penalty>
0.000

$$$$

  -OEChem-04052323293D

 85 94  0     1  0  0  0  0  0999 V2000
  -18.8633  -25.3875   21.7078 C   0  0  0  0  0  0  0  0  0  0  0  0
  -20.0871  -24.9034   21.2568 C   0  0  0  0  0  0  0  0  0  0  0  0
  -23.2864   -9.8010   19.9135 C   0  0  0  0  0  0  0  0  0  0  0  0
  -23.7338   -9.9436   22.2834 C   0  0  0  0  0  0  0  0  0  0  0  0
  -18.5467  -25.3235   23.0641 C   0  0  0  0  0  0  0  0  0  0  0  0
  -20.9955  -24.3559   22.1621 C   0  0  0  0  0  0  0  0  0  0  0  0
  -26.0463  -19.2980   22.6346 C   0  0  0  0  0  0  0  0  0  0  0  0
  -22.5587   -8.6293   20.1214 C   0  0  0  0  0  0  0  0  0  0  0  0
  -23.0061   -8.7719   22.4914 C   0  0  0  0  0  0  0  0  0  0  0  0
  -27.3770  -19.1373   23.0182 C   0  0  0  0  0  0  0  0  0  0  0  0
  -19.4748   -7.7727   21.2119 C   0  0  0  0  0  0  0  0  0  0  0  0
  -18.2467   -7.6486   20.5625 C   0  0  0  0  0  0  0  0  0  0  0  0
  -26.6895  -19.0067   25.3268 C   0  0  0  0  0  0  0  0  0  0  0  0
  -19.0481   -5.6740   19.4243 C   0  0  0  0  0  0  0  0  0  0  0  0
  -29.1533  -15.2976   24.5956 C   0  0  0  0  0  0  0  0  0  0  0  0
  -23.8740  -10.4581   20.9945 C   0  0  0  0  0  0  0  0  0  0  0  0
  -24.1360  -12.9877   20.7937 C   0  0  0  0  0  0  0  0  0  0  0  0
  -19.4477  -24.7662   23.9851 C   0  0  0  0  0  0  0  0  0  0  0  0
  -25.0265  -19.3253   23.5968 C   0  0  0  0  0  0  0  0  0  0  0  0
  -20.6912  -24.2857   23.5322 C   0  0  0  0  0  0  0  0  0  0  0  0
  -25.3464  -19.1654   24.9526 C   0  0  0  0  0  0  0  0  0  0  0  0
  -22.4185   -8.1148   21.4103 C   0  0  0  0  0  0  0  0  0  0  0  0
  -27.6991  -18.9945   24.3647 C   0  0  0  0  0  0  0  0  0  0  0  0
  -20.4897   -6.8475   20.9675 C   0  0  0  0  0  0  0  0  0  0  0  0
  -18.0332   -6.5992   19.6687 C   0  0  0  0  0  0  0  0  0  0  0  0
  -20.2763   -5.7981   20.0737 C   0  0  0  0  0  0  0  0  0  0  0  0
  -24.6264  -11.6681   20.7804 C   0  0  0  0  0  0  0  0  0  0  0  0
  -30.4579  -15.0627   24.9704 C   0  0  0  0  0  0  0  0  0  0  0  0
  -30.7988  -17.3127   25.1945 C   0  0  0  0  0  0  0  0  0  0  0  0
  -29.4943  -17.5478   24.8194 C   0  0  0  0  0  0  0  0  0  1  0  0
  -25.2385  -13.7663   20.5396 C   0  0  0  0  0  0  0  0  0  0  0  0
  -22.8030  -13.4667   21.0161 C   0  0  0  0  0  0  0  0  0  0  0  0
  -22.8716  -21.4713   24.5213 C   0  0  0  0  0  0  0  0  0  0  0  0
  -21.7895  -19.0213   26.3513 C   0  0  0  0  0  0  0  0  0  0  0  0
  -22.4566  -16.0705   27.9306 C   0  0  0  0  0  0  0  0  0  0  0  0
  -31.1075  -12.9189   21.3686 C   0  0  0  0  0  0  0  0  0  0  0  0
  -19.0807  -24.7618   25.4480 C   0  0  0  0  0  0  0  0  0  0  0  0
  -23.5934  -19.4727   23.1645 C   0  0  0  0  0  0  0  0  0  0  0  0
  -24.2868  -19.1673   26.0230 C   0  0  0  0  0  0  0  0  0  0  0  0
  -19.9436  -23.8253   26.2897 C   0  0  0  0  0  0  0  0  0  0  0  0
  -29.4637  -13.6567   18.2977 C   0  0  0  0  0  0  0  0  0  0  0  0
  -21.4191  -24.0080   25.9486 C   0  0  0  0  0  0  0  0  0  0  0  0
  -27.9933  -13.3498   18.5869 C   0  0  0  0  0  0  0  0  0  0  0  0
  -30.3951  -12.6771   19.0084 C   0  0  0  0  0  0  0  0  0  0  0  0
  -28.7056  -12.2511   20.7513 C   0  0  0  0  0  0  0  0  0  0  0  0
  -32.0848  -13.4673   26.1015 C   0  0  0  0  0  0  0  0  0  0  0  0
  -32.3791  -11.8837   24.2601 C   0  0  0  0  0  0  0  0  0  0  0  0
  -21.6927  -23.6621   24.4799 C   0  0  1  0  0  0  0  0  0  0  0  0
  -30.9896  -13.6515   25.0514 C   0  0  2  0  0  0  0  0  0  0  0  0
  -22.6867  -20.0012   24.2718 C   0  0  1  0  0  0  0  0  0  0  0  0
  -27.7295  -13.2465   20.1012 C   0  0  2  0  0  0  0  0  0  0  0  0
  -31.6661  -13.1346   23.7770 C   0  0  2  0  0  0  0  0  0  0  0  0
  -21.3830  -14.3244   29.3784 C   0  0  0  0  0  0  0  0  0  0  0  0
  -21.9972  -20.8898   28.7546 C   0  0  0  0  0  0  0  0  0  0  0  0
  -21.8446  -18.8812   30.2413 C   0  0  0  0  0  0  0  0  0  0  0  0
  -19.9498  -19.4540   28.7233 C   0  0  0  0  0  0  0  0  0  0  0  0
  -22.9016  -13.9548   25.9095 C   0  0  0  0  0  0  0  0  0  0  0  0
  -31.7205  -18.4348   25.5297 C   0  0  0  0  0  0  0  0  0  0  0  0
  -32.2420  -19.2033   24.3140 C   0  0  0  0  0  0  0  0  0  0  0  0
  -22.0832  -18.5158   27.7432 C   0  0  1  0  0  0  0  0  0  0  0  0
  -21.7089  -14.7496   27.9551 C   0  0  2  0  0  0  0  0  0  0  0  0
  -21.4891  -19.4371   28.8458 C   0  0  0  0  0  0  0  0  0  0  0  0
  -28.6480  -16.5444   24.5134 N   0  0  0  0  0  0  0  0  0  0  0  0
  -25.9383  -11.6081   20.5368 N   0  0  0  0  0  0  0  0  0  0  0  0
  -31.3041  -16.0659   25.2767 N   0  0  0  0  0  0  0  0  0  0  0  0
  -26.2816  -12.8996   20.3947 N   0  0  0  0  0  0  0  0  0  0  0  0
  -22.9009  -19.3208   25.5506 N   0  0  0  0  0  0  0  0  0  0  0  0
  -30.0937  -12.6275   20.4411 N   0  0  0  0  0  0  0  0  0  0  0  0
  -25.4078  -15.1010   20.4280 N   0  0  0  0  0  0  0  0  0  0  0  0
  -21.7892  -12.5309   21.2631 N   0  0  0  0  0  0  0  0  0  0  0  0
  -21.7363  -22.2269   24.2984 N   0  0  0  0  0  0  0  0  0  0  0  0
  -21.5986  -17.1405   27.7886 N   0  0  0  0  0  0  0  0  0  0  0  0
  -30.7358  -12.8551   22.7059 N   0  0  0  0  0  0  0  0  0  0  0  0
  -32.8327  -12.2431   25.6471 N   0  3  0  0  0  0  0  0  0  0  0  0
  -33.0402  -18.3058   23.4428 N   0  3  0  0  0  0  0  0  0  0  0  0
  -22.5283  -13.6786   27.3206 N   0  3  0  0  0  0  0  0  0  0  0  0
  -22.5163  -14.6874   20.9802 O   0  0  0  0  0  0  0  0  0  0  0  0
  -23.9630  -21.8890   24.8901 O   0  0  0  0  0  0  0  0  0  0  0  0
  -20.6174  -19.1391   25.9854 O   0  0  0  0  0  0  0  0  0  0  0  0
  -23.6792  -16.1458   28.0314 O   0  0  0  0  0  0  0  0  0  0  0  0
  -32.2573  -13.2193   21.0298 O   0  0  0  0  0  0  0  0  0  0  0  0
  -21.7082   -6.9716   21.6136 O   0  0  0  0  0  0  0  0  0  0  0  0
  -28.9972  -18.8381   24.7418 O   0  0  0  0  0  0  0  0  0  1  0  0
  -16.8532   -6.4793   19.0464 F   0  0  0  0  0  0  0  0  0  0  0  0
  -21.2471   -4.9055   19.8356 F   0  0  0  0  0  0  0  0  0  0  0  0
  1  2  1  0  0  0  0
  1  5  2  0  0  0  0
  2  6  2  0  0  0  0
  3  8  2  0  0  0  0
  3 16  1  0  0  0  0
  4  9  1  0  0  0  0
  4 16  2  0  0  0  0
  5 18  1  0  0  0  0
  6 20  1  0  0  0  0
  7 10  2  0  0  0  0
  7 19  1  0  0  0  0
  8 22  1  0  0  0  0
  9 22  2  0  0  0  0
 10 23  1  0  0  0  0
 11 12  2  0  0  0  0
 11 24  1  0  0  0  0
 12 25  1  0  0  0  0
 13 21  1  0  0  0  0
 13 23  2  0  0  0  0
 14 25  2  0  0  0  0
 14 26  1  0  0  0  0
 15 28  1  0  0  0  0
 15 63  2  0  0  0  0
 16 27  1  0  0  0  0
 17 27  1  0  0  0  0
 17 31  2  0  0  0  0
 17 32  1  0  0  0  0
 18 20  2  0  0  0  0
 18 37  1  0  0  0  0
 19 21  2  0  0  0  0
 19 38  1  0  0  0  0
 20 48  1  0  0  0  0
 21 39  1  0  0  0  0
 22 82  1  0  0  0  0
 23 83  1  0  0  0  0
 24 26  2  0  0  0  0
 24 82  1  0  0  0  0
 25 84  1  0  0  0  0
 26 85  1  0  0  0  0
 27 64  2  0  0  0  0
 28 49  1  0  0  0  0
 28 65  2  0  0  0  0
 29 30  2  0  0  0  0
 29 58  1  0  0  0  0
 29 65  1  0  0  0  0
 30 63  1  0  0  0  0
 30 83  1  0  0  0  0
 31 66  1  0  0  0  0
 31 69  1  0  0  0  0
 32 70  1  0  0  0  0
 32 77  2  0  0  0  0
 33 50  1  0  0  0  0
 33 71  1  0  0  0  0
 33 78  2  0  0  0  0
 34 60  1  0  0  0  0
 34 67  1  0  0  0  0
 34 79  2  0  0  0  0
 35 61  1  0  0  0  0
 35 72  1  0  0  0  0
 35 80  2  0  0  0  0
 36 68  1  0  0  0  0
 36 73  1  0  0  0  0
 36 81  2  0  0  0  0
 37 40  1  0  0  0  0
 38 50  1  0  0  0  0
 39 67  1  0  0  0  0
 40 42  1  0  0  0  0
 41 43  1  0  0  0  0
 41 44  1  0  0  0  0
 42 48  1  0  0  0  0
 43 51  1  0  0  0  0
 44 68  1  0  0  0  0
 45 51  1  0  0  0  0
 45 68  1  0  0  0  0
 46 49  1  0  0  0  0
 46 74  1  0  0  0  0
 47 52  1  0  0  0  0
 47 74  1  0  0  0  0
 48 71  1  0  0  0  0
 49 52  1  0  0  0  0
 50 67  1  0  0  0  0
 51 66  1  0  0  0  0
 52 73  1  0  0  0  0
 53 61  1  0  0  0  0
 54 62  1  0  0  0  0
 55 62  1  0  0  0  0
 56 62  1  0  0  0  0
 57 76  1  0  0  0  0
 58 59  1  0  0  0  0
 59 75  1  0  0  0  0
 60 62  1  0  0  0  0
 60 72  1  0  0  0  0
 61 76  1  0  0  0  0
 64 66  1  0  0  0  0
M  CHG  3  74   1  75   1  76   1
M  ISO  4  30 101  36 100  73 100  83 101
M  END
> <Batch ID>
0192

> <Smiles>
CNC(C)C(=O)NC(C(=O)N1Cc2cc([101O:1][101c:1]3ncc(C4CNCC4[100NH:0][100C:0](=O)N4CCCC(n5nc(-c6ccc(Oc7ccc(F)cc7F)cc6)c(C(N)=O)c5N)C4)nc3CCN)ccc2CC1C(=O)NC1CCCc2ccccc21)C(C)(C)C

> <Shape>
0.132

> <Color>
0.157

> <Negative vol penalty>
0.000

$$$$

  -OEChem-04052323293D

 80 88  0     1  0  0  0  0  0999 V2000
  -35.0905  -28.5199   19.0597 C   0  0  0  0  0  0  0  0  0  0  0  0
  -34.2451  -27.4440   19.3109 C   0  0  0  0  0  0  0  0  0  0  0  0
  -24.6445   -8.7617   21.5209 C   0  0  0  0  0  0  0  0  0  0  0  0
  -22.7577  -10.2349   21.1944 C   0  0  0  0  0  0  0  0  0  0  0  0
  -34.9734  -29.6875   19.8127 C   0  0  0  0  0  0  0  0  0  0  0  0
  -33.2828  -27.5347   20.3160 C   0  0  0  0  0  0  0  0  0  0  0  0
  -27.6961  -25.0258   20.3011 C   0  0  0  0  0  0  0  0  0  0  0  0
  -23.8702   -7.9546   22.3544 C   0  0  0  0  0  0  0  0  0  0  0  0
  -21.9833   -9.4278   22.0279 C   0  0  0  0  0  0  0  0  0  0  0  0
  -27.1898  -23.8603   20.8746 C   0  0  0  0  0  0  0  0  0  0  0  0
  -21.4957   -5.5721   22.0102 C   0  0  0  0  0  0  0  0  0  0  0  0
  -21.5664   -4.1916   21.8239 C   0  0  0  0  0  0  0  0  0  0  0  0
  -26.4130  -25.1367   22.7684 C   0  0  0  0  0  0  0  0  0  0  0  0
  -22.3554   -3.9259   24.0919 C   0  0  0  0  0  0  0  0  0  0  0  0
  -24.0883   -9.9019   20.9409 C   0  0  0  0  0  0  0  0  0  0  0  0
  -25.0388  -10.6208   18.6854 C   0  0  0  0  0  0  0  0  0  0  0  0
  -34.0028  -29.7961   20.8210 C   0  0  0  0  0  0  0  0  0  0  0  0
  -27.5741  -26.2560   20.9632 C   0  0  0  0  0  0  0  0  0  0  0  0
  -33.1536  -28.7043   21.0840 C   0  0  0  0  0  0  0  0  0  0  0  0
  -26.9163  -26.3168   22.2000 C   0  0  0  0  0  0  0  0  0  0  0  0
  -22.5396   -8.2877   22.6079 C   0  0  0  0  0  0  0  0  0  0  0  0
  -26.5506  -23.9151   22.1098 C   0  0  0  0  0  0  0  0  0  0  0  0
  -21.8551   -6.1296   23.2373 C   0  0  0  0  0  0  0  0  0  0  0  0
  -21.9962   -3.3685   22.8648 C   0  0  0  0  0  0  0  0  0  0  0  0
  -22.2849   -5.3065   24.2782 C   0  0  0  0  0  0  0  0  0  0  0  0
  -24.8878  -10.7362   20.0803 C   0  0  0  0  0  0  0  0  0  0  0  0
  -25.8932  -11.6415   18.3469 C   0  0  0  0  0  0  0  0  0  0  0  0
  -23.9370  -20.1675   21.4669 C   0  0  0  0  0  0  0  0  0  0  0  0
  -23.4452  -19.8421   20.1001 C   0  0  0  0  0  0  0  0  0  0  0  0
  -23.6169  -21.2841   22.1214 C   0  0  0  0  0  0  0  0  0  0  0  0
  -24.4584   -9.6755   17.7769 C   0  0  0  0  0  0  0  0  0  0  0  0
  -29.6225  -28.3904   22.1260 C   0  0  0  0  0  0  0  0  0  0  0  0
  -26.9255  -30.1150   22.6499 C   0  0  0  0  0  0  0  0  0  0  0  0
  -23.5479  -30.1341   23.1380 C   0  0  0  0  0  0  0  0  0  0  0  0
  -27.1844  -16.8970   20.9089 C   0  0  0  0  0  0  0  0  0  0  0  0
  -33.9455  -31.0611   21.6403 C   0  0  0  0  0  0  0  0  0  0  0  0
  -28.1020  -27.5083   20.3187 C   0  0  0  0  0  0  0  0  0  0  0  0
  -26.7414  -27.6158   22.9421 C   0  0  0  0  0  0  0  0  0  0  0  0
  -24.8617  -19.0693   21.8876 C   0  0  0  0  0  0  0  0  0  0  0  0
  -24.1196  -18.5927   19.6031 C   0  0  0  0  0  0  0  0  0  0  0  0
  -32.6517  -31.2133   22.4360 C   0  0  0  0  0  0  0  0  0  0  0  0
  -29.4667  -14.2788   20.1262 C   0  0  0  0  0  0  0  0  0  0  0  0
  -32.3090  -29.9108   23.1521 C   0  0  0  0  0  0  0  0  0  0  0  0
  -28.5656  -13.0636   19.8998 C   0  0  0  0  0  0  0  0  0  0  0  0
  -28.9347  -15.1759   21.2416 C   0  0  0  0  0  0  0  0  0  0  0  0
  -26.6322  -14.3894   20.8498 C   0  0  0  0  0  0  0  0  0  0  0  0
  -32.0808  -28.7734   22.1492 C   0  0  1  0  0  0  0  0  0  0  0  0
  -28.3762  -28.6258   21.3204 C   0  0  1  0  0  0  0  0  0  0  0  0
  -27.0976  -13.4841   19.6965 C   0  0  2  0  0  0  0  0  0  0  0  0
  -25.3255  -18.5004   20.5443 C   0  0  2  0  0  0  0  0  0  0  0  0
  -21.6297  -31.6916   23.5764 C   0  0  0  0  0  0  0  0  0  0  0  0
  -27.8147  -30.3882   25.5559 C   0  0  0  0  0  0  0  0  0  0  0  0
  -25.4819  -31.0924   26.1306 C   0  0  0  0  0  0  0  0  0  0  0  0
  -26.8473  -32.4688   24.5609 C   0  0  0  0  0  0  0  0  0  0  0  0
  -22.1895  -29.3541   20.6271 C   0  0  0  0  0  0  0  0  0  0  0  0
  -24.1081  -21.6206   23.5002 C   0  0  0  0  0  0  0  0  0  0  0  0
  -24.9118  -22.9156   23.5137 C   0  0  0  0  0  0  0  0  0  1  0  0
  -25.9401  -30.2395   23.7867 C   0  0  1  0  0  0  0  0  0  0  0  0
  -22.4448  -30.9700   22.5145 C   0  0  2  0  0  0  0  0  0  0  0  0
  -26.5258  -31.0223   24.9957 C   0  0  0  0  0  0  0  0  0  0  0  0
  -25.5901  -11.7502   20.5928 N   0  0  0  0  0  0  0  0  0  0  0  0
  -26.1908  -12.2811   19.5142 N   0  0  0  0  0  0  0  0  0  0  0  0
  -27.2803  -28.8117   22.2737 N   0  0  0  0  0  0  0  0  0  0  0  0
  -27.5387  -15.5401   20.9877 N   0  0  0  0  0  0  0  0  0  0  0  0
  -26.4116  -12.0453   17.1677 N   0  0  0  0  0  0  0  0  0  0  0  0
  -23.6026   -8.6924   18.2921 N   0  0  0  0  0  0  0  0  0  0  0  0
  -30.7718  -28.8891   21.5430 N   0  0  0  0  0  0  0  0  0  0  0  0
  -24.7342  -30.8323   23.2186 N   0  0  0  0  0  0  0  0  0  0  0  0
  -25.8420  -17.1547   20.6592 N   0  0  0  0  0  0  0  0  0  0  0  0
  -21.5246  -30.1056   21.7226 N   0  3  0  0  0  0  0  0  0  0  0  0
  -22.5962  -20.4727   19.4912 O   0  0  0  0  0  0  0  0  0  0  0  0
  -24.7048   -9.6918   16.5471 O   0  0  0  0  0  0  0  0  0  0  0  0
  -29.5468  -27.8012   23.1978 O   0  0  0  0  0  0  0  0  0  0  0  0
  -27.3588  -31.1363   22.1106 O   0  0  0  0  0  0  0  0  0  0  0  0
  -23.3737  -28.9788   23.5192 O   0  0  0  0  0  0  0  0  0  0  0  0
  -28.0047  -17.8111   21.0453 O   0  0  0  0  0  0  0  0  0  0  0  0
  -21.7837   -7.5003   23.4209 O   0  0  0  0  0  0  0  0  0  0  0  0
  -26.0561  -22.7789   22.6721 O   0  0  0  0  0  0  0  0  0  1  0  0
  -22.0625   -2.0426   22.6862 F   0  0  0  0  0  0  0  0  0  0  0  0
  -22.6302   -5.8361   25.4597 F   0  0  0  0  0  0  0  0  0  0  0  0
  1  2  1  0  0  0  0
  1  5  2  0  0  0  0
  2  6  2  0  0  0  0
  3  8  2  0  0  0  0
  3 15  1  0  0  0  0
  4  9  1  0  0  0  0
  4 15  2  0  0  0  0
  5 17  1  0  0  0  0
  6 19  1  0  0  0  0
  7 10  2  0  0  0  0
  7 18  1  0  0  0  0
  8 21  1  0  0  0  0
  9 21  2  0  0  0  0
 10 22  1  0  0  0  0
 11 12  2  0  0  0  0
 11 23  1  0  0  0  0
 12 24  1  0  0  0  0
 13 20  1  0  0  0  0
 13 22  2  0  0  0  0
 14 24  2  0  0  0  0
 14 25  1  0  0  0  0
 15 26  1  0  0  0  0
 16 26  1  0  0  0  0
 16 27  2  0  0  0  0
 16 31  1  0  0  0  0
 17 19  2  0  0  0  0
 17 36  1  0  0  0  0
 18 20  2  0  0  0  0
 18 37  1  0  0  0  0
 19 47  1  0  0  0  0
 20 38  1  0  0  0  0
 21 77  1  0  0  0  0
 22 78  1  0  0  0  0
 23 25  2  0  0  0  0
 23 77  1  0  0  0  0
 24 79  1  0  0  0  0
 25 80  1  0  0  0  0
 26 61  2  0  0  0  0
 27 62  1  0  0  0  0
 27 65  1  0  0  0  0
 28 29  1  0  0  0  0
 28 30  2  0  0  0  0
 28 39  1  0  0  0  0
 29 40  1  0  0  0  0
 29 71  2  0  0  0  0
 30 56  1  0  0  0  0
 31 66  1  0  0  0  0
 31 72  2  0  0  0  0
 32 48  1  0  0  0  0
 32 67  1  0  0  0  0
 32 73  2  0  0  0  0
 33 58  1  0  0  0  0
 33 63  1  0  0  0  0
 33 74  2  0  0  0  0
 34 59  1  0  0  0  0
 34 68  1  0  0  0  0
 34 75  2  0  0  0  0
 35 64  1  0  0  0  0
 35 69  1  0  0  0  0
 35 76  2  0  0  0  0
 36 41  1  0  0  0  0
 37 48  1  0  0  0  0
 38 63  1  0  0  0  0
 39 50  1  0  0  0  0
 40 50  1  0  0  0  0
 41 43  1  0  0  0  0
 42 44  1  0  0  0  0
 42 45  1  0  0  0  0
 43 47  1  0  0  0  0
 44 49  1  0  0  0  0
 45 64  1  0  0  0  0
 46 49  1  0  0  0  0
 46 64  1  0  0  0  0
 47 67  1  0  0  0  0
 48 63  1  0  0  0  0
 49 62  1  0  0  0  0
 50 69  1  0  0  0  0
 51 59  1  0  0  0  0
 52 60  1  0  0  0  0
 53 60  1  0  0  0  0
 54 60  1  0  0  0  0
 55 70  1  0  0  0  0
 56 57  1  0  0  0  0
 57 78  1  0  0  0  0
 58 60  1  0  0  0  0
 58 68  1  0  0  0  0
 59 70  1  0  0  0  0
 61 62  1  0  0  0  0
M  CHG  1  70   1
M  ISO  4  35 100  57 101  69 100  78 101
M  END
> <Batch ID>
0192

> <Smiles>
CNC(C)C(=O)NC(C(=O)N1Cc2cc([101O:1][101CH2:1]CC=C3CC([100NH:0][100C:0](=O)N4CCCC(n5nc(-c6ccc(Oc7ccc(F)cc7F)cc6)c(C(N)=O)c5N)C4)CC3=O)ccc2CC1C(=O)NC1CCCc2ccccc21)C(C)(C)C

> <Shape>
0.216

> <Color>
0.088

> <Negative vol penalty>
0.000

$$$$

  -OEChem-04052323293D

 86 95  0     1  0  0  0  0  0999 V2000
  -29.9628  -35.5609   21.7697 C   0  0  0  0  0  0  0  0  0  0  0  0
  -29.9637  -34.1749   21.6494 C   0  0  0  0  0  0  0  0  0  0  0  0
  -25.9088  -16.1350   19.4618 C   0  0  0  0  0  0  0  0  0  0  0  0
  -26.0410  -13.7405   19.7546 C   0  0  0  0  0  0  0  0  0  0  0  0
  -28.9740  -36.1936   22.5219 C   0  0  0  0  0  0  0  0  0  0  0  0
  -28.9762  -33.4207   22.2823 C   0  0  0  0  0  0  0  0  0  0  0  0
  -27.0643  -29.8156   19.2835 C   0  0  0  0  0  0  0  0  0  0  0  0
  -25.4995  -15.9510   18.1412 C   0  0  0  0  0  0  0  0  0  0  0  0
  -25.6316  -13.5564   18.4339 C   0  0  0  0  0  0  0  0  0  0  0  0
  -27.8259  -28.6606   19.1112 C   0  0  0  0  0  0  0  0  0  0  0  0
  -22.7370  -13.6333   16.6914 C   0  0  0  0  0  0  0  0  0  0  0  0
  -21.7603  -12.6683   16.4458 C   0  0  0  0  0  0  0  0  0  0  0  0
  -26.4533  -27.5206   20.7347 C   0  0  0  0  0  0  0  0  0  0  0  0
  -23.2941  -11.4830   15.0037 C   0  0  0  0  0  0  0  0  0  0  0  0
  -30.5909  -22.8362   20.8356 C   0  0  0  0  0  0  0  0  0  0  0  0
  -26.1796  -15.0298   20.2685 C   0  0  0  0  0  0  0  0  0  0  0  0
  -25.7821  -15.3131   22.7724 C   0  0  0  0  0  0  0  0  0  0  0  0
  -27.9684  -35.4474   23.1564 C   0  0  0  0  0  0  0  0  0  0  0  0
  -25.9964  -29.8351   20.1923 C   0  0  0  0  0  0  0  0  0  0  0  0
  -27.9738  -34.0439   23.0449 C   0  0  0  0  0  0  0  0  0  0  0  0
  -25.6781  -28.6763   20.9148 C   0  0  0  0  0  0  0  0  0  0  0  0
  -30.5331  -22.1017   19.6687 C   0  0  0  0  0  0  0  0  0  0  0  0
  -25.3608  -14.6617   17.6272 C   0  0  0  0  0  0  0  0  0  0  0  0
  -27.5223  -27.5138   19.8390 C   0  0  0  0  0  0  0  0  0  0  0  0
  -23.9923  -13.5233   16.0931 C   0  0  0  0  0  0  0  0  0  0  0  0
  -22.0389  -11.5931   15.6020 C   0  0  0  0  0  0  0  0  0  0  0  0
  -24.2708  -12.4481   15.2493 C   0  0  0  0  0  0  0  0  0  0  0  0
  -26.6031  -15.2192   21.6327 C   0  0  0  0  0  0  0  0  0  0  0  0
  -29.5476  -22.4739   18.7773 C   0  0  0  0  0  0  0  0  0  0  0  0
  -26.6597  -15.4880   23.8143 C   0  0  0  0  0  0  0  0  0  0  0  0
  -28.8389  -24.1233   20.1717 C   0  0  0  0  0  0  0  0  0  0  0  0
  -24.3538  -15.2478   22.8797 C   0  0  0  0  0  0  0  0  0  0  0  0
  -25.3271  -31.4744   22.8320 C   0  0  0  0  0  0  0  0  0  0  0  0
  -22.4831  -29.9314   22.6016 C   0  0  0  0  0  0  0  0  0  0  0  0
  -20.7302  -27.2459   21.4345 C   0  0  0  0  0  0  0  0  0  0  0  0
  -31.1860  -15.7056   20.8770 C   0  0  0  0  0  0  0  0  0  0  0  0
  -26.9480  -36.1724   23.9978 C   0  0  0  0  0  0  0  0  0  0  0  0
  -25.1679  -31.0809   20.3469 C   0  0  0  0  0  0  0  0  0  0  0  0
  -24.5292  -28.6392   21.8880 C   0  0  0  0  0  0  0  0  0  0  0  0
  -25.7200  -35.3279   24.3281 C   0  0  0  0  0  0  0  0  0  0  0  0
  -30.5472  -13.4931   23.5324 C   0  0  0  0  0  0  0  0  0  0  0  0
  -26.1385  -33.9375   24.7959 C   0  0  0  0  0  0  0  0  0  0  0  0
  -29.7555  -14.3165   24.5447 C   0  0  0  0  0  0  0  0  0  0  0  0
  -31.6387  -14.3323   22.8841 C   0  0  0  0  0  0  0  0  0  0  0  0
  -29.9775  -17.9137   21.1366 C   0  0  0  0  0  0  0  0  0  0  0  0
  -30.3099  -16.4070   23.1637 C   0  0  0  0  0  0  0  0  0  0  0  0
  -30.7023  -19.2484   21.0243 C   0  0  0  0  0  0  0  0  0  0  0  0
  -31.6180  -18.5600   18.8091 C   0  0  0  0  0  0  0  0  0  0  0  0
  -26.9052  -33.1930   23.6962 C   0  0  1  0  0  0  0  0  0  0  0  0
  -24.4244  -31.1426   21.6776 C   0  0  1  0  0  0  0  0  0  0  0  0
  -29.2367  -15.6496   23.9777 C   0  0  1  0  0  0  0  0  0  0  0  0
  -30.9027  -17.2130   18.9224 C   0  0  2  0  0  0  0  0  0  0  0  0
  -29.3906  -21.7502   17.4808 C   0  0  0  0  0  0  0  0  0  0  0  0
  -29.6162  -17.1541   18.0932 C   0  0  0  0  0  0  0  0  0  0  0  0
  -18.4304  -26.2418   21.4388 C   0  0  0  0  0  0  0  0  0  0  0  0
  -22.8983  -28.9988   25.4770 C   0  0  0  0  0  0  0  0  0  0  0  0
  -21.1153  -27.2813   25.1038 C   0  0  0  0  0  0  0  0  0  0  0  0
  -20.5615  -29.7079   24.9374 C   0  0  0  0  0  0  0  0  0  0  0  0
  -20.5250  -27.4143   18.4869 C   0  0  0  0  0  0  0  0  0  0  0  0
  -31.4910  -20.9762   19.4110 C   0  0  0  0  0  0  0  0  0  0  0  0
  -27.8983  -25.2465   20.4506 C   0  0  0  0  0  0  0  0  0  1  0  0
  -21.9330  -28.6216   23.1123 C   0  0  1  0  0  0  0  0  0  0  0  0
  -19.4035  -27.1497   20.7030 C   0  0  2  0  0  0  0  0  0  0  0  0
  -21.6499  -28.6534   24.6408 C   0  0  0  0  0  0  0  0  0  0  0  0
  -29.7565  -23.8573   21.1208 N   0  0  0  0  0  0  0  0  0  0  0  0
  -27.9024  -15.3259   21.9230 N   0  0  0  0  0  0  0  0  0  0  0  0
  -28.6800  -23.4834   18.9974 N   0  0  0  0  0  0  0  0  0  0  0  0
  -27.9045  -15.4887   23.2570 N   0  0  0  0  0  0  0  0  0  0  0  0
  -23.7528  -29.8842   22.0087 N   0  0  0  0  0  0  0  0  0  0  0  0
  -31.0902  -15.5395   22.2684 N   0  0  0  0  0  0  0  0  0  0  0  0
  -30.6276  -16.8714   20.3289 N   0  0  0  0  0  0  0  0  0  0  0  0
  -26.4803  -15.6399   25.1437 N   0  0  0  0  0  0  0  0  0  0  0  0
  -23.6036  -15.0642   21.7101 N   0  0  0  0  0  0  0  0  0  0  0  0
  -25.9892  -32.6801   22.7000 N   0  0  0  0  0  0  0  0  0  0  0  0
  -20.7626  -28.3236   22.2940 N   0  0  0  0  0  0  0  0  0  0  0  0
  -30.8632  -19.6193   19.5729 N   0  3  2  0  0  0  0  0  0  0  0  0
  -19.6071  -26.6062   19.3303 N   0  3  0  0  0  0  0  0  0  0  0  0
  -23.7595  -15.3658   23.9780 O   0  0  0  0  0  0  0  0  0  0  0  0
  -25.4152  -30.6950   23.7735 O   0  0  0  0  0  0  0  0  0  0  0  0
  -21.8080  -30.9572   22.7179 O   0  0  0  0  0  0  0  0  0  0  0  0
  -21.6449  -26.4429   21.2635 O   0  0  0  0  0  0  0  0  0  0  0  0
  -31.7251  -14.8511   20.1622 O   0  0  0  0  0  0  0  0  0  0  0  0
  -24.9612  -14.4818   16.3386 O   0  0  0  0  0  0  0  0  0  0  0  0
  -28.2696  -26.3775   19.6720 O   0  0  0  0  0  0  0  0  0  1  0  0
  -21.1014  -10.6657   15.3674 F   0  0  0  0  0  0  0  0  0  0  0  0
  -25.4753  -12.3363   14.6726 F   0  0  0  0  0  0  0  0  0  0  0  0
  1  2  1  0  0  0  0
  1  5  2  0  0  0  0
  2  6  2  0  0  0  0
  3  8  2  0  0  0  0
  3 16  1  0  0  0  0
  4  9  1  0  0  0  0
  4 16  2  0  0  0  0
  5 18  1  0  0  0  0
  6 20  1  0  0  0  0
  7 10  2  0  0  0  0
  7 19  1  0  0  0  0
  8 23  1  0  0  0  0
  9 23  2  0  0  0  0
 10 24  1  0  0  0  0
 11 12  2  0  0  0  0
 11 25  1  0  0  0  0
 12 26  1  0  0  0  0
 13 21  1  0  0  0  0
 13 24  2  0  0  0  0
 14 26  2  0  0  0  0
 14 27  1  0  0  0  0
 15 22  1  0  0  0  0
 15 65  2  0  0  0  0
 16 28  1  0  0  0  0
 17 28  1  0  0  0  0
 17 30  2  0  0  0  0
 17 32  1  0  0  0  0
 18 20  2  0  0  0  0
 18 37  1  0  0  0  0
 19 21  2  0  0  0  0
 19 38  1  0  0  0  0
 20 49  1  0  0  0  0
 21 39  1  0  0  0  0
 22 29  2  0  0  0  0
 22 60  1  0  0  0  0
 23 83  1  0  0  0  0
 24 84  1  0  0  0  0
 25 27  2  0  0  0  0
 25 83  1  0  0  0  0
 26 85  1  0  0  0  0
 27 86  1  0  0  0  0
 28 66  2  0  0  0  0
 29 53  1  0  0  0  0
 29 67  1  0  0  0  0
 30 68  1  0  0  0  0
 30 72  1  0  0  0  0
 31 61  1  0  0  0  0
 31 65  1  0  0  0  0
 31 67  2  0  0  0  0
 32 73  1  0  0  0  0
 32 78  2  0  0  0  0
 33 50  1  0  0  0  0
 33 74  1  0  0  0  0
 33 79  2  0  0  0  0
 34 62  1  0  0  0  0
 34 69  1  0  0  0  0
 34 80  2  0  0  0  0
 35 63  1  0  0  0  0
 35 75  1  0  0  0  0
 35 81  2  0  0  0  0
 36 70  1  0  0  0  0
 36 71  1  0  0  0  0
 36 82  2  0  0  0  0
 37 40  1  0  0  0  0
 38 50  1  0  0  0  0
 39 69  1  0  0  0  0
 40 42  1  0  0  0  0
 41 43  1  0  0  0  0
 41 44  1  0  0  0  0
 42 49  1  0  0  0  0
 43 51  1  0  0  0  0
 44 70  1  0  0  0  0
 45 47  1  0  0  0  0
 45 71  1  0  0  0  0
 46 51  1  0  0  0  0
 46 70  1  0  0  0  0
 47 76  1  0  0  0  0
 48 52  1  0  0  0  0
 48 76  1  0  0  0  0
 49 74  1  0  0  0  0
 50 69  1  0  0  0  0
 51 68  1  0  0  0  0
 52 54  1  0  0  0  0
 52 71  1  0  0  0  0
 55 63  1  0  0  0  0
 56 64  1  0  0  0  0
 57 64  1  0  0  0  0
 58 64  1  0  0  0  0
 59 77  1  0  0  0  0
 60 76  1  0  0  0  0
 61 84  1  0  0  0  0
 62 64  1  0  0  0  0
 62 75  1  0  0  0  0
 63 77  1  0  0  0  0
 66 68  1  0  0  0  0
M  CHG  2  76   1  77   1
M  ISO  4  36 100  61 101  71 100  84 101
M  END
> <Batch ID>
0192

> <Smiles>
CNC(C)C(=O)NC(C(=O)N1Cc2cc([101O:1][101CH2:1]c3ncc(CN4CC[100N:0]([100C:0](=O)N5CCCC(n6nc(-c7ccc(Oc8ccc(F)cc8F)cc7)c(C(N)=O)c6N)C5)C(C)C4)c(C)n3)ccc2CC1C(=O)NC1CCCc2ccccc21)C(C)(C)C

> <Shape>
0.243

> <Color>
0.076

> <Negative vol penalty>
0.000

$$$$

  -OEChem-04052323293D

 83 92  0     1  0  0  0  0  0999 V2000
  -29.4004  -10.9689   19.0561 C   0  0  0  0  0  0  0  0  0  0  0  0
  -28.5879  -11.7752   18.2653 C   0  0  0  0  0  0  0  0  0  0  0  0
  -25.0011  -30.5115   20.3069 C   0  0  0  0  0  0  0  0  0  0  0  0
  -24.0167  -28.8967   21.8104 C   0  0  0  0  0  0  0  0  0  0  0  0
  -29.8415  -11.4289   20.2962 C   0  0  0  0  0  0  0  0  0  0  0  0
  -28.2151  -13.0414   18.7148 C   0  0  0  0  0  0  0  0  0  0  0  0
  -27.3828  -18.0605   15.3056 C   0  0  0  0  0  0  0  0  0  0  0  0
  -24.7350  -31.5280   21.2243 C   0  0  0  0  0  0  0  0  0  0  0  0
  -23.7506  -29.9132   22.7279 C   0  0  0  0  0  0  0  0  0  0  0  0
  -26.2372  -18.6634   14.7880 C   0  0  0  0  0  0  0  0  0  0  0  0
  -25.4596  -31.6903   25.0391 C   0  0  0  0  0  0  0  0  0  0  0  0
  -25.7616  -31.4472   26.3790 C   0  0  0  0  0  0  0  0  0  0  0  0
  -26.1773  -20.1593   16.6795 C   0  0  0  0  0  0  0  0  0  0  0  0
  -23.4414  -31.7834   26.9629 C   0  0  0  0  0  0  0  0  0  0  0  0
  -21.5520  -21.8545   12.2255 C   0  0  0  0  0  0  0  0  0  0  0  0
  -24.6419  -29.1959   20.5999 C   0  0  0  0  0  0  0  0  0  0  0  0
  -26.0800  -27.3582   19.5692 C   0  0  0  0  0  0  0  0  0  0  0  0
  -29.4818  -12.7052   20.7568 C   0  0  0  0  0  0  0  0  0  0  0  0
  -27.9288  -18.4959   16.5216 C   0  0  0  0  0  0  0  0  0  0  0  0
  -28.6507  -13.5183   19.9628 C   0  0  0  0  0  0  0  0  0  0  0  0
  -27.3313  -19.5619   17.2091 C   0  0  0  0  0  0  0  0  0  0  0  0
  -20.8111  -21.5369   13.3796 C   0  0  0  0  0  0  0  0  0  0  0  0
  -24.1098  -31.2288   22.4348 C   0  0  0  0  0  0  0  0  0  0  0  0
  -25.6326  -19.7111   15.4764 C   0  0  0  0  0  0  0  0  0  0  0  0
  -24.1485  -31.9800   24.6611 C   0  0  0  0  0  0  0  0  0  0  0  0
  -24.7525  -31.4937   27.3409 C   0  0  0  0  0  0  0  0  0  0  0  0
  -23.1394  -32.0266   25.6230 C   0  0  0  0  0  0  0  0  0  0  0  0
  -24.9160  -28.1456   19.6524 C   0  0  0  0  0  0  0  0  0  0  0  0
  -21.6408  -20.7176   14.1056 C   0  0  0  0  0  0  0  0  0  0  0  0
  -25.8482  -26.5134   18.5114 C   0  0  0  0  0  0  0  0  0  0  0  0
  -27.2648  -27.3878   20.3760 C   0  0  0  0  0  0  0  0  0  0  0  0
  -28.4369  -17.1575   19.3595 C   0  0  0  0  0  0  0  0  0  0  0  0
  -29.9350  -19.9666   19.9814 C   0  0  0  0  0  0  0  0  0  0  0  0
  -30.2894  -23.2831   19.2586 C   0  0  0  0  0  0  0  0  0  0  0  0
  -20.8465  -24.4556   16.1439 C   0  0  0  0  0  0  0  0  0  0  0  0
  -29.9442  -13.1402   22.1249 C   0  0  0  0  0  0  0  0  0  0  0  0
  -29.1803  -17.8527   17.0530 C   0  0  0  0  0  0  0  0  0  0  0  0
  -27.8899  -20.0802   18.5083 C   0  0  0  0  0  0  0  0  0  0  0  0
  -29.8116  -14.6421   22.3637 C   0  0  0  0  0  0  0  0  0  0  0  0
  -23.4437  -26.2568   14.3809 C   0  0  0  0  0  0  0  0  0  0  0  0
  -28.4421  -15.1361   21.9083 C   0  0  0  0  0  0  0  0  0  0  0  0
  -21.4612  -18.5671   15.5939 C   0  0  0  0  0  0  0  0  0  0  0  0
  -20.1084  -19.2075   15.6040 C   0  0  0  0  0  0  0  0  0  0  0  0
  -24.2282  -26.8722   15.5411 C   0  0  0  0  0  0  0  0  0  0  0  0
  -21.9455  -26.2479   14.6699 C   0  0  0  0  0  0  0  0  0  0  0  0
  -22.3497  -26.1786   17.1000 C   0  0  0  0  0  0  0  0  0  0  0  0
  -28.2452  -14.9077   20.4048 C   0  0  1  0  0  0  0  0  0  0  0  0
  -21.3450  -20.0728   15.4575 C   0  0  0  0  0  0  0  0  0  0  0  0
  -29.3541  -18.0367   18.5575 C   0  0  1  0  0  0  0  0  0  0  0  0
  -23.8731  -26.1962   16.8787 C   0  0  2  0  0  0  0  0  0  0  0  0
  -31.2599  -25.5955   19.3504 C   0  0  0  0  0  0  0  0  0  0  0  0
  -17.9377  -23.2464   15.3451 C   0  0  0  0  0  0  0  0  0  0  0  0
  -28.1662  -20.2184   22.4548 C   0  0  0  0  0  0  0  0  0  0  0  0
  -28.7881  -22.6410   22.5673 C   0  0  0  0  0  0  0  0  0  0  0  0
  -30.5496  -20.8906   22.8039 C   0  0  0  0  0  0  0  0  0  0  0  0
  -32.2531  -22.6689   17.1313 C   0  0  0  0  0  0  0  0  0  0  0  0
  -19.4521  -21.9885   13.7232 C   0  0  0  0  0  0  0  0  0  0  0  0
  -24.0070  -19.7999   13.7336 C   0  0  0  0  0  0  0  0  0  1  0  0
  -29.5103  -21.3047   20.5366 C   0  0  1  0  0  0  0  0  0  0  0  0
  -31.5222  -24.1352   19.0166 C   0  0  2  0  0  0  0  0  0  0  0  0
  -19.3641  -22.7967   15.0451 C   0  0  1  0  0  0  0  0  0  0  0  0
  -29.2417  -21.2529   22.0672 C   0  0  0  0  0  0  0  0  0  0  0  0
  -22.7596  -21.2838   12.2147 N   0  0  0  0  0  0  0  0  0  0  0  0
  -24.0118  -27.8293   18.7215 N   0  0  0  0  0  0  0  0  0  0  0  0
  -22.7838  -20.5992   13.3709 N   0  0  0  0  0  0  0  0  0  0  0  0
  -24.6078  -26.8338   18.0433 N   0  0  0  0  0  0  0  0  0  0  0  0
  -29.1113  -19.4144   18.9902 N   0  0  0  0  0  0  0  0  0  0  0  0
  -21.6737  -25.5739   15.9474 N   0  0  0  0  0  0  0  0  0  0  0  0
  -26.5863  -25.5352   17.9452 N   0  0  0  0  0  0  0  0  0  0  0  0
  -27.3380  -28.3181   21.4217 N   0  0  0  0  0  0  0  0  0  0  0  0
  -28.9593  -15.9101   19.6435 N   0  0  0  0  0  0  0  0  0  0  0  0
  -30.5437  -22.2564   20.1432 N   0  0  0  0  0  0  0  0  0  0  0  0
  -20.2382  -23.9479   15.0025 N   0  0  0  0  0  0  0  0  0  0  0  0
  -31.9406  -24.0472   17.5890 N   0  3  0  0  0  0  0  0  0  0  0  0
  -28.2368  -26.6235   20.1651 O   0  0  0  0  0  0  0  0  0  0  0  0
  -27.3373  -17.5800   19.6971 O   0  0  0  0  0  0  0  0  0  0  0  0
  -30.9636  -19.4345   20.4062 O   0  0  0  0  0  0  0  0  0  0  0  0
  -29.2079  -23.5082   18.7198 O   0  0  0  0  0  0  0  0  0  0  0  0
  -20.6675  -23.9437   17.2543 O   0  0  0  0  0  0  0  0  0  0  0  0
  -23.8502  -32.2203   23.3303 O   0  0  0  0  0  0  0  0  0  0  0  0
  -24.5140  -20.3010   14.9737 O   0  0  0  0  0  0  0  0  0  1  0  0
  -25.0423  -31.2588   28.6273 F   0  0  0  0  0  0  0  0  0  0  0  0
  -21.8778  -32.3032   25.2657 F   0  0  0  0  0  0  0  0  0  0  0  0
  1  2  1  0  0  0  0
  1  5  2  0  0  0  0
  2  6  2  0  0  0  0
  3  8  2  0  0  0  0
  3 16  1  0  0  0  0
  4  9  1  0  0  0  0
  4 16  2  0  0  0  0
  5 18  1  0  0  0  0
  6 20  1  0  0  0  0
  7 10  2  0  0  0  0
  7 19  1  0  0  0  0
  8 23  1  0  0  0  0
  9 23  2  0  0  0  0
 10 24  1  0  0  0  0
 11 12  2  0  0  0  0
 11 25  1  0  0  0  0
 12 26  1  0  0  0  0
 13 21  1  0  0  0  0
 13 24  2  0  0  0  0
 14 26  2  0  0  0  0
 14 27  1  0  0  0  0
 15 22  1  0  0  0  0
 15 63  2  0  0  0  0
 16 28  1  0  0  0  0
 17 28  1  0  0  0  0
 17 30  2  0  0  0  0
 17 31  1  0  0  0  0
 18 20  2  0  0  0  0
 18 36  1  0  0  0  0
 19 21  2  0  0  0  0
 19 37  1  0  0  0  0
 20 47  1  0  0  0  0
 21 38  1  0  0  0  0
 22 29  2  0  0  0  0
 22 57  1  0  0  0  0
 23 80  1  0  0  0  0
 24 81  1  0  0  0  0
 25 27  2  0  0  0  0
 25 80  1  0  0  0  0
 26 82  1  0  0  0  0
 27 83  1  0  0  0  0
 28 64  2  0  0  0  0
 29 48  1  0  0  0  0
 29 65  1  0  0  0  0
 30 66  1  0  0  0  0
 30 69  1  0  0  0  0
 31 70  1  0  0  0  0
 31 75  2  0  0  0  0
 32 49  1  0  0  0  0
 32 71  1  0  0  0  0
 32 76  2  0  0  0  0
 33 59  1  0  0  0  0
 33 67  1  0  0  0  0
 33 77  2  0  0  0  0
 34 60  1  0  0  0  0
 34 72  1  0  0  0  0
 34 78  2  0  0  0  0
 35 68  1  0  0  0  0
 35 73  1  0  0  0  0
 35 79  2  0  0  0  0
 36 39  1  0  0  0  0
 37 49  1  0  0  0  0
 38 67  1  0  0  0  0
 39 41  1  0  0  0  0
 40 44  1  0  0  0  0
 40 45  1  0  0  0  0
 41 47  1  0  0  0  0
 42 43  1  0  0  0  0
 42 48  1  0  0  0  0
 43 48  1  0  0  0  0
 44 50  1  0  0  0  0
 45 68  1  0  0  0  0
 46 50  1  0  0  0  0
 46 68  1  0  0  0  0
 47 71  1  0  0  0  0
 49 67  1  0  0  0  0
 50 66  1  0  0  0  0
 51 60  1  0  0  0  0
 52 61  1  0  0  0  0
 53 62  1  0  0  0  0
 54 62  1  0  0  0  0
 55 62  1  0  0  0  0
 56 74  1  0  0  0  0
 57 61  1  0  0  0  0
 58 65  1  0  0  0  0
 58 81  1  0  0  0  0
 59 62  1  0  0  0  0
 59 72  1  0  0  0  0
 60 74  1  0  0  0  0
 61 73  1  0  0  0  0
 63 65  1  0  0  0  0
 64 66  1  0  0  0  0
M  CHG  1  74   1
M  ISO  4  35 100  58 101  73 100  81 101
M  END
> <Batch ID>
0192

> <Smiles>
CNC(C)C(=O)NC(C(=O)N1Cc2cc([101O:1][101CH2:1]n3ncc(CC(C)[100NH:0][100C:0](=O)N4CCCC(n5nc(-c6ccc(Oc7ccc(F)cc7F)cc6)c(C(N)=O)c5N)C4)c3C3CC3)ccc2CC1C(=O)NC1CCCc2ccccc21)C(C)(C)C

> <Shape>
0.221

> <Color>
0.077

> <Negative vol penalty>
0.000

$$$$

  -OEChem-04052323293D

 81 90  0     1  0  0  0  0  0999 V2000
  -29.8377  -28.0809    8.5549 C   0  0  0  0  0  0  0  0  0  0  0  0
  -28.6475  -28.0982    9.2733 C   0  0  0  0  0  0  0  0  0  0  0  0
  -23.2849   -9.7990   19.9026 C   0  0  0  0  0  0  0  0  0  0  0  0
  -23.7144   -9.9321   22.2764 C   0  0  0  0  0  0  0  0  0  0  0  0
  -30.1160  -27.0165    7.7001 C   0  0  0  0  0  0  0  0  0  0  0  0
  -27.7408  -27.0453    9.1463 C   0  0  0  0  0  0  0  0  0  0  0  0
  -26.7077  -19.7922   11.5087 C   0  0  0  0  0  0  0  0  0  0  0  0
  -22.5499   -8.6303   20.1011 C   0  0  0  0  0  0  0  0  0  0  0  0
  -22.9793   -8.7634   22.4750 C   0  0  0  0  0  0  0  0  0  0  0  0
  -27.6652  -18.8130   11.7696 C   0  0  0  0  0  0  0  0  0  0  0  0
  -19.7251   -7.8709   22.6601 C   0  0  0  0  0  0  0  0  0  0  0  0
  -18.8128   -7.8523   23.7150 C   0  0  0  0  0  0  0  0  0  0  0  0
  -29.0258  -20.4532   12.9000 C   0  0  0  0  0  0  0  0  0  0  0  0
  -19.9985   -5.9961   24.7079 C   0  0  0  0  0  0  0  0  0  0  0  0
  -23.8673  -10.4499   20.9902 C   0  0  0  0  0  0  0  0  0  0  0  0
  -24.1432  -12.9787   20.7993 C   0  0  0  0  0  0  0  0  0  0  0  0
  -29.2060  -25.9565    7.5537 C   0  0  0  0  0  0  0  0  0  0  0  0
  -26.9074  -21.1139   11.9327 C   0  0  0  0  0  0  0  0  0  0  0  0
  -28.0144  -25.9503    8.3069 C   0  0  0  0  0  0  0  0  0  0  0  0
  -28.0681  -21.4467   12.6455 C   0  0  0  0  0  0  0  0  0  0  0  0
  -22.3970   -8.1125   21.3873 C   0  0  0  0  0  0  0  0  0  0  0  0
  -28.8258  -19.1440   12.4628 C   0  0  0  0  0  0  0  0  0  0  0  0
  -20.7742   -6.9520   22.6290 C   0  0  0  0  0  0  0  0  0  0  0  0
  -18.9495   -6.9150   24.7389 C   0  0  0  0  0  0  0  0  0  0  0  0
  -20.9109   -6.0147   23.6529 C   0  0  0  0  0  0  0  0  0  0  0  0
  -24.6272  -11.6569   20.7857 C   0  0  0  0  0  0  0  0  0  0  0  0
  -25.2515  -13.7527   20.5563 C   0  0  0  0  0  0  0  0  0  0  0  0
  -22.8109  -13.4637   21.0127 C   0  0  0  0  0  0  0  0  0  0  0  0
  -27.1920  -23.9207   10.4683 C   0  0  0  0  0  0  0  0  0  0  0  0
  -27.1770  -25.0659   13.5032 C   0  0  0  0  0  0  0  0  0  0  0  0
  -27.7405  -24.4909   16.8197 C   0  0  0  0  0  0  0  0  0  0  0  0
  -29.7332  -14.4070   17.2258 C   0  0  0  0  0  0  0  0  0  0  0  0
  -29.5613  -24.8258    6.6207 C   0  0  0  0  0  0  0  0  0  0  0  0
  -25.8526  -22.1527   11.6668 C   0  0  0  0  0  0  0  0  0  0  0  0
  -28.3209  -22.8467   13.1401 C   0  0  0  0  0  0  0  0  0  0  0  0
  -28.3535  -23.9864    6.2170 C   0  0  0  0  0  0  0  0  0  0  0  0
  -30.1539  -12.5872   20.4957 C   0  0  0  0  0  0  0  0  0  0  0  0
  -27.5588  -23.5912    7.4526 C   0  0  0  0  0  0  0  0  0  0  0  0
  -27.4979  -19.8831   17.7927 C   0  0  0  0  0  0  0  0  0  0  0  0
  -27.8260  -20.0228   16.3333 C   0  0  0  0  0  0  0  0  0  0  0  0
  -28.7032  -12.2213   20.7975 C   0  0  0  0  0  0  0  0  0  0  0  0
  -30.3941  -12.7311   18.9969 C   0  0  0  0  0  0  0  0  0  0  0  0
  -28.5613  -16.4974   18.0937 C   0  0  0  0  0  0  0  0  0  0  0  0
  -28.0221  -13.3335   18.6287 C   0  0  0  0  0  0  0  0  0  0  0  0
  -26.9992  -24.8310    8.1616 C   0  0  1  0  0  0  0  0  0  0  0  0
  -26.3966  -23.5777   11.6961 C   0  0  1  0  0  0  0  0  0  0  0  0
  -27.6169  -18.6596   16.9291 C   0  0  0  0  0  0  0  0  0  0  0  0
  -28.7289  -17.6429   17.0819 C   0  0  2  0  0  0  0  0  0  0  0  0
  -27.7435  -13.2220   20.1358 C   0  0  1  0  0  0  0  0  0  0  0  0
  -28.9153  -16.5654   15.9842 C   0  0  2  0  0  0  0  0  0  0  0  0
  -27.7739  -24.9413   19.2881 C   0  0  0  0  0  0  0  0  0  0  0  0
  -31.6169  -16.0096   13.4272 C   0  0  0  0  0  0  0  0  0  0  0  0
  -29.7781  -26.5148   12.8362 C   0  0  0  0  0  0  0  0  0  0  0  0
  -30.1513  -26.8292   15.2918 C   0  0  0  0  0  0  0  0  0  0  0  0
  -28.1581  -27.8513   14.1940 C   0  0  0  0  0  0  0  0  0  0  0  0
  -24.9927  -23.4471   17.1648 C   0  0  0  0  0  0  0  0  0  0  0  0
  -29.2986  -16.8501   12.8755 C   0  0  0  0  0  0  0  0  0  1  0  0
  -28.2328  -25.3486   14.5445 C   0  0  1  0  0  0  0  0  0  0  0  0
  -26.9035  -24.7901   18.0503 C   0  0  2  0  0  0  0  0  0  0  0  0
  -30.1662  -16.0921   13.8739 C   0  0  2  0  0  0  0  0  0  0  0  0
  -29.0765  -26.6099   14.2057 C   0  0  0  0  0  0  0  0  0  0  0  0
  -25.9407  -11.5911   20.5523 N   0  0  0  0  0  0  0  0  0  0  0  0
  -26.2914  -12.8813   20.4169 N   0  0  0  0  0  0  0  0  0  0  0  0
  -27.2628  -23.8284   12.8498 N   0  0  0  0  0  0  0  0  0  0  0  0
  -29.4310  -13.6359   18.3572 N   0  0  0  0  0  0  0  0  0  0  0  0
  -29.0644  -15.5987   17.0630 N   0  0  0  0  0  0  0  0  0  0  0  0
  -25.4282  -15.0868   20.4502 N   0  0  0  0  0  0  0  0  0  0  0  0
  -21.7907  -12.5322   21.2488 N   0  0  0  0  0  0  0  0  0  0  0  0
  -26.4347  -24.4335    9.4325 N   0  0  0  0  0  0  0  0  0  0  0  0
  -27.5353  -25.4222   15.8237 N   0  0  0  0  0  0  0  0  0  0  0  0
  -30.1219  -16.8119   15.1831 N   0  3  0  0  0  0  0  0  0  0  0  0
  -25.9280  -23.6899   18.2932 N   0  3  0  0  0  0  0  0  0  0  0  0
  -22.5305  -14.6858   20.9783 O   0  0  0  0  0  0  0  0  0  0  0  0
  -28.4033  -23.7353   10.4618 O   0  0  0  0  0  0  0  0  0  0  0  0
  -26.3038  -25.9090   13.2830 O   0  0  0  0  0  0  0  0  0  0  0  0
  -28.5031  -23.5296   16.7503 O   0  0  0  0  0  0  0  0  0  0  0  0
  -30.5556  -14.0320   16.3799 O   0  0  0  0  0  0  0  0  0  0  0  0
  -21.6796   -6.9723   21.5814 O   0  0  0  0  0  0  0  0  0  0  0  0
  -29.7687  -18.1838   12.7199 O   0  0  0  0  0  0  0  0  0  1  0  0
  -18.0742   -6.8982   25.7527 F   0  0  0  0  0  0  0  0  0  0  0  0
  -21.9173   -5.1302   23.6291 F   0  0  0  0  0  0  0  0  0  0  0  0
  1  2  1  0  0  0  0
  1  5  2  0  0  0  0
  2  6  2  0  0  0  0
  3  8  2  0  0  0  0
  3 15  1  0  0  0  0
  4  9  1  0  0  0  0
  4 15  2  0  0  0  0
  5 17  1  0  0  0  0
  6 19  1  0  0  0  0
  7 10  2  0  0  0  0
  7 18  1  0  0  0  0
  8 21  1  0  0  0  0
  9 21  2  0  0  0  0
 10 22  1  0  0  0  0
 11 12  2  0  0  0  0
 11 23  1  0  0  0  0
 12 24  1  0  0  0  0
 13 20  1  0  0  0  0
 13 22  2  0  0  0  0
 14 24  2  0  0  0  0
 14 25  1  0  0  0  0
 15 26  1  0  0  0  0
 16 26  1  0  0  0  0
 16 27  2  0  0  0  0
 16 28  1  0  0  0  0
 17 19  2  0  0  0  0
 17 33  1  0  0  0  0
 18 20  2  0  0  0  0
 18 34  1  0  0  0  0
 19 45  1  0  0  0  0
 20 35  1  0  0  0  0
 21 78  1  0  0  0  0
 22 79  1  0  0  0  0
 23 25  2  0  0  0  0
 23 78  1  0  0  0  0
 24 80  1  0  0  0  0
 25 81  1  0  0  0  0
 26 62  2  0  0  0  0
 27 63  1  0  0  0  0
 27 67  1  0  0  0  0
 28 68  1  0  0  0  0
 28 73  2  0  0  0  0
 29 46  1  0  0  0  0
 29 69  1  0  0  0  0
 29 74  2  0  0  0  0
 30 58  1  0  0  0  0
 30 64  1  0  0  0  0
 30 75  2  0  0  0  0
 31 59  1  0  0  0  0
 31 70  1  0  0  0  0
 31 76  2  0  0  0  0
 32 65  1  0  0  0  0
 32 66  1  0  0  0  0
 32 77  2  0  0  0  0
 33 36  1  0  0  0  0
 34 46  1  0  0  0  0
 35 64  1  0  0  0  0
 36 38  1  0  0  0  0
 37 41  1  0  0  0  0
 37 42  1  0  0  0  0
 38 45  1  0  0  0  0
 39 40  1  0  0  0  0
 39 47  1  0  0  0  0
 40 47  1  0  0  0  0
 41 49  1  0  0  0  0
 42 65  1  0  0  0  0
 43 48  1  0  0  0  0
 43 66  1  0  0  0  0
 44 49  1  0  0  0  0
 44 65  1  0  0  0  0
 45 69  1  0  0  0  0
 46 64  1  0  0  0  0
 47 48  1  0  0  0  0
 48 50  1  0  0  0  0
 49 63  1  0  0  0  0
 50 66  1  0  0  0  0
 50 71  1  0  0  0  0
 51 59  1  0  0  0  0
 52 60  1  0  0  0  0
 53 61  1  0  0  0  0
 54 61  1  0  0  0  0
 55 61  1  0  0  0  0
 56 72  1  0  0  0  0
 57 60  1  0  0  0  0
 57 79  1  0  0  0  0
 58 61  1  0  0  0  0
 58 70  1  0  0  0  0
 59 72  1  0  0  0  0
 60 71  1  0  0  0  0
 62 63  1  0  0  0  0
M  CHG  2  71   1  72   1
M  ISO  4  32 100  57 101  66 100  79 101
M  END
> <Batch ID>
0192

> <Smiles>
CNC(C)C(=O)NC(C(=O)N1Cc2cc([101O:1][101CH2:1]C(C)NC3C(C4CC4)C[100N:0]3[100C:0](=O)N3CCCC(n4nc(-c5ccc(Oc6ccc(F)cc6F)cc5)c(C(N)=O)c4N)C3)ccc2CC1C(=O)NC1CCCc2ccccc21)C(C)(C)C

> <Shape>
0.145

> <Color>
0.177

> <Negative vol penalty>
0.000

$$$$

  -OEChem-04052323293D

 86 95  0     1  0  0  0  0  0999 V2000
  -26.6739  -38.3611   22.8267 C   0  0  0  0  0  0  0  0  0  0  0  0
  -27.3140  -37.4219   22.0244 C   0  0  0  0  0  0  0  0  0  0  0  0
  -24.5115  -10.1502   23.1876 C   0  0  0  0  0  0  0  0  0  0  0  0
  -24.4837   -8.6255   21.3137 C   0  0  0  0  0  0  0  0  0  0  0  0
  -25.9308  -37.9432   23.9299 C   0  0  0  0  0  0  0  0  0  0  0  0
  -27.2123  -36.0642   22.3257 C   0  0  0  0  0  0  0  0  0  0  0  0
  -26.9687  -29.6452   19.1550 C   0  0  0  0  0  0  0  0  0  0  0  0
  -23.3603   -9.5478   23.6949 C   0  0  0  0  0  0  0  0  0  0  0  0
  -23.3325   -8.0230   21.8211 C   0  0  0  0  0  0  0  0  0  0  0  0
  -27.5895  -28.3977   19.1995 C   0  0  0  0  0  0  0  0  0  0  0  0
  -22.5488   -5.7847   24.2286 C   0  0  0  0  0  0  0  0  0  0  0  0
  -22.4988   -4.3908   24.2377 C   0  0  0  0  0  0  0  0  0  0  0  0
  -26.2135  -27.7869   21.0844 C   0  0  0  0  0  0  0  0  0  0  0  0
  -20.5437   -4.4517   22.8196 C   0  0  0  0  0  0  0  0  0  0  0  0
  -25.0732   -9.6891   21.9970 C   0  0  0  0  0  0  0  0  0  0  0  0
  -27.5973   -9.9558   21.7414 C   0  0  0  0  0  0  0  0  0  0  0  0
  -25.8120  -36.5791   24.2392 C   0  0  0  0  0  0  0  0  0  0  0  0
  -25.9716  -29.9776   20.0832 C   0  0  0  0  0  0  0  0  0  0  0  0
  -26.4680  -35.6277   23.4348 C   0  0  0  0  0  0  0  0  0  0  0  0
  -25.5798  -29.0384   21.0479 C   0  0  0  0  0  0  0  0  0  0  0  0
  -22.7708   -8.4842   23.0117 C   0  0  0  0  0  0  0  0  0  0  0  0
  -27.2140  -27.4694   20.1661 C   0  0  0  0  0  0  0  0  0  0  0  0
  -21.5961   -6.5121   23.5152 C   0  0  0  0  0  0  0  0  0  0  0  0
  -21.4963   -3.7243   23.5332 C   0  0  0  0  0  0  0  0  0  0  0  0
  -20.5936   -5.8456   22.8106 C   0  0  0  0  0  0  0  0  0  0  0  0
  -26.2621  -10.3113   21.4721 C   0  0  0  0  0  0  0  0  0  0  0  0
  -30.6104  -23.1220   20.5549 C   0  0  0  0  0  0  0  0  0  0  0  0
  -30.2344  -22.1466   19.6674 C   0  0  0  0  0  0  0  0  0  0  0  0
  -28.3440  -10.8439   21.0065 C   0  0  0  0  0  0  0  0  0  0  0  0
  -29.3488  -24.6048   19.4107 C   0  0  0  0  0  0  0  0  0  0  0  0
  -28.1163   -8.9156   22.5807 C   0  0  0  0  0  0  0  0  0  0  0  0
  -25.6573  -32.1927   22.3411 C   0  0  0  0  0  0  0  0  0  0  0  0
  -22.6558  -30.9829   22.5637 C   0  0  0  0  0  0  0  0  0  0  0  0
  -20.5527  -28.3412   22.0679 C   0  0  0  0  0  0  0  0  0  0  0  0
  -29.5171  -15.7649   19.2138 C   0  0  0  0  0  0  0  0  0  0  0  0
  -25.0369  -36.1785   25.4694 C   0  0  0  0  0  0  0  0  0  0  0  0
  -25.2929  -31.3176   20.0050 C   0  0  0  0  0  0  0  0  0  0  0  0
  -24.5004  -29.3386   22.0545 C   0  0  0  0  0  0  0  0  0  0  0  0
  -24.6699  -34.6971   25.5026 C   0  0  0  0  0  0  0  0  0  0  0  0
  -26.9834  -14.1276   17.4169 C   0  0  0  0  0  0  0  0  0  0  0  0
  -25.8776  -33.8396   25.1377 C   0  0  0  0  0  0  0  0  0  0  0  0
  -26.6711  -12.9489   18.3384 C   0  0  0  0  0  0  0  0  0  0  0  0
  -28.9723  -19.2416   19.2796 C   0  0  0  0  0  0  0  0  0  0  0  0
  -31.4153  -18.6581   19.0367 C   0  0  0  0  0  0  0  0  0  0  0  0
  -27.2200  -15.4203   18.1999 C   0  0  0  0  0  0  0  0  0  0  0  0
  -28.6124  -18.0062   18.4490 C   0  0  0  0  0  0  0  0  0  0  0  0
  -31.0099  -17.4546   18.1903 C   0  0  0  0  0  0  0  0  0  0  0  0
  -27.9351  -14.1222   20.1803 C   0  0  0  0  0  0  0  0  0  0  0  0
  -26.3609  -34.1444   23.7147 C   0  0  1  0  0  0  0  0  0  0  0  0
  -24.6499  -31.7395   21.3225 C   0  0  1  0  0  0  0  0  0  0  0  0
  -27.7499  -12.7967   19.4255 C   0  0  1  0  0  0  0  0  0  0  0  0
  -30.3662  -19.7679   18.9298 C   0  0  0  0  0  0  0  0  0  0  0  0
  -30.8254  -22.1152   22.8411 C   0  0  0  0  0  0  0  0  0  0  0  0
  -18.1642  -27.6389   22.3824 C   0  0  0  0  0  0  0  0  0  0  0  0
  -23.1584  -30.6200   25.5513 C   0  0  0  0  0  0  0  0  0  0  0  0
  -21.1814  -29.0857   25.6266 C   0  0  0  0  0  0  0  0  0  0  0  0
  -20.8801  -31.4741   24.9728 C   0  0  0  0  0  0  0  0  0  0  0  0
  -20.1720  -27.9222   19.1630 C   0  0  0  0  0  0  0  0  0  0  0  0
  -31.5291  -22.8365   21.6944 C   0  0  0  0  0  0  0  0  0  0  0  0
  -28.8301  -25.9909   19.2397 C   0  0  0  0  0  0  0  0  0  1  0  0
  -22.0039  -29.8808   23.3634 C   0  0  1  0  0  0  0  0  0  0  0  0
  -19.1779  -28.2542   21.4302 C   0  0  2  0  0  0  0  0  0  0  0  0
  -21.8277  -30.2599   24.8609 C   0  0  0  0  0  0  0  0  0  0  0  0
  -26.1631  -11.3449   20.6319 N   0  0  0  0  0  0  0  0  0  0  0  0
  -30.1724  -24.3855   20.4464 N   0  0  0  0  0  0  0  0  0  0  0  0
  -29.4046  -22.4265   18.6462 N   0  0  0  0  0  0  0  0  0  0  0  0
  -28.9461  -23.6881   18.5088 N   0  0  0  0  0  0  0  0  0  0  0  0
  -27.4457  -11.6465   20.3669 N   0  0  0  0  0  0  0  0  0  0  0  0
  -23.8711  -30.6648   21.9411 N   0  0  0  0  0  0  0  0  0  0  0  0
  -28.2268  -15.2154   19.2506 N   0  0  0  0  0  0  0  0  0  0  0  0
  -29.6689  -16.9886   18.5448 N   0  0  0  0  0  0  0  0  0  0  0  0
  -29.6749  -11.0090   20.8516 N   0  0  0  0  0  0  0  0  0  0  0  0
  -27.2097   -8.0936   23.2639 N   0  0  0  0  0  0  0  0  0  0  0  0
  -30.7106  -20.8563   19.8178 N   0  0  0  0  0  0  0  0  0  0  0  0
  -25.5009  -33.5061   22.7413 N   0  0  0  0  0  0  0  0  0  0  0  0
  -20.7568  -29.5613   22.6771 N   0  0  0  0  0  0  0  0  0  0  0  0
  -19.2309  -27.4195   20.1967 N   0  3  0  0  0  0  0  0  0  0  0  0
  -29.3476   -8.7312   22.7335 O   0  0  0  0  0  0  0  0  0  0  0  0
  -26.5122  -31.4085   22.7358 O   0  0  0  0  0  0  0  0  0  0  0  0
  -22.1033  -32.0832   22.4881 O   0  0  0  0  0  0  0  0  0  0  0  0
  -21.3631  -27.4179   22.0326 O   0  0  0  0  0  0  0  0  0  0  0  0
  -30.4775  -15.1958   19.7475 O   0  0  0  0  0  0  0  0  0  0  0  0
  -21.6475   -7.8960   23.5065 O   0  0  0  0  0  0  0  0  0  0  0  0
  -27.8228  -26.2430   20.2125 O   0  0  0  0  0  0  0  0  0  1  0  0
  -21.4494   -2.3856   23.5407 F   0  0  0  0  0  0  0  0  0  0  0  0
  -19.6764   -6.5390   22.1224 F   0  0  0  0  0  0  0  0  0  0  0  0
  1  2  1  0  0  0  0
  1  5  2  0  0  0  0
  2  6  2  0  0  0  0
  3  8  2  0  0  0  0
  3 15  1  0  0  0  0
  4  9  1  0  0  0  0
  4 15  2  0  0  0  0
  5 17  1  0  0  0  0
  6 19  1  0  0  0  0
  7 10  2  0  0  0  0
  7 18  1  0  0  0  0
  8 21  1  0  0  0  0
  9 21  2  0  0  0  0
 10 22  1  0  0  0  0
 11 12  2  0  0  0  0
 11 23  1  0  0  0  0
 12 24  1  0  0  0  0
 13 20  1  0  0  0  0
 13 22  2  0  0  0  0
 14 24  2  0  0  0  0
 14 25  1  0  0  0  0
 15 26  1  0  0  0  0
 16 26  1  0  0  0  0
 16 29  2  0  0  0  0
 16 31  1  0  0  0  0
 17 19  2  0  0  0  0
 17 36  1  0  0  0  0
 18 20  2  0  0  0  0
 18 37  1  0  0  0  0
 19 49  1  0  0  0  0
 20 38  1  0  0  0  0
 21 83  1  0  0  0  0
 22 84  1  0  0  0  0
 23 25  2  0  0  0  0
 23 83  1  0  0  0  0
 24 85  1  0  0  0  0
 25 86  1  0  0  0  0
 26 64  2  0  0  0  0
 27 28  2  0  0  0  0
 27 59  1  0  0  0  0
 27 65  1  0  0  0  0
 28 66  1  0  0  0  0
 28 74  1  0  0  0  0
 29 68  1  0  0  0  0
 29 72  1  0  0  0  0
 30 60  1  0  0  0  0
 30 65  2  0  0  0  0
 30 67  1  0  0  0  0
 31 73  1  0  0  0  0
 31 78  2  0  0  0  0
 32 50  1  0  0  0  0
 32 75  1  0  0  0  0
 32 79  2  0  0  0  0
 33 61  1  0  0  0  0
 33 69  1  0  0  0  0
 33 80  2  0  0  0  0
 34 62  1  0  0  0  0
 34 76  1  0  0  0  0
 34 81  2  0  0  0  0
 35 70  1  0  0  0  0
 35 71  1  0  0  0  0
 35 82  2  0  0  0  0
 36 39  1  0  0  0  0
 37 50  1  0  0  0  0
 38 69  1  0  0  0  0
 39 41  1  0  0  0  0
 40 42  1  0  0  0  0
 40 45  1  0  0  0  0
 41 49  1  0  0  0  0
 42 51  1  0  0  0  0
 43 46  1  0  0  0  0
 43 52  1  0  0  0  0
 44 47  1  0  0  0  0
 44 52  1  0  0  0  0
 45 70  1  0  0  0  0
 46 71  1  0  0  0  0
 47 71  1  0  0  0  0
 48 51  1  0  0  0  0
 48 70  1  0  0  0  0
 49 75  1  0  0  0  0
 50 69  1  0  0  0  0
 51 68  1  0  0  0  0
 52 74  1  0  0  0  0
 53 59  1  0  0  0  0
 54 62  1  0  0  0  0
 55 63  1  0  0  0  0
 56 63  1  0  0  0  0
 57 63  1  0  0  0  0
 58 77  1  0  0  0  0
 60 84  1  0  0  0  0
 61 63  1  0  0  0  0
 61 76  1  0  0  0  0
 62 77  1  0  0  0  0
 64 68  1  0  0  0  0
 66 67  2  0  0  0  0
M  CHG  1  77   1
M  ISO  4  35 100  60 101  71 100  84 101
M  END
> <Batch ID>
0192

> <Smiles>
CCc1nc([101CH2:1][101O:1]c2ccc3c(c2)CN(C(=O)C(NC(=O)C(C)NC)C(C)(C)C)C(C(=O)NC2CCCc4ccccc42)C3)nnc1NC1CC[100N:0]([100C:0](=O)N2CCCC(n3nc(-c4ccc(Oc5ccc(F)cc5F)cc4)c(C(N)=O)c3N)C2)CC1

> <Shape>
0.331

> <Color>
0.113

> <Negative vol penalty>
0.000

$$$$

  -OEChem-04052323293D

 87 97  0     1  0  0  0  0  0999 V2000
  -29.2960  -32.3372   25.4917 C   0  0  0  0  0  0  0  0  0  0  0  0
  -29.1208  -31.1740   24.7490 C   0  0  0  0  0  0  0  0  0  0  0  0
  -23.1970  -10.4912   21.7904 C   0  0  0  0  0  0  0  0  0  0  0  0
  -24.5309   -8.5831   21.1447 C   0  0  0  0  0  0  0  0  0  0  0  0
  -28.2009  -32.9408   26.1084 C   0  0  0  0  0  0  0  0  0  0  0  0
  -27.8503  -30.6130   24.6235 C   0  0  0  0  0  0  0  0  0  0  0  0
  -26.8118  -29.1984   19.8732 C   0  0  0  0  0  0  0  0  0  0  0  0
  -22.0356   -9.7400   21.6109 C   0  0  0  0  0  0  0  0  0  0  0  0
  -23.3694   -7.8319   20.9652 C   0  0  0  0  0  0  0  0  0  0  0  0
  -27.3754  -28.0039   19.4269 C   0  0  0  0  0  0  0  0  0  0  0  0
  -21.1455   -6.1851   22.9049 C   0  0  0  0  0  0  0  0  0  0  0  0
  -21.1262   -4.8904   23.4235 C   0  0  0  0  0  0  0  0  0  0  0  0
  -25.2825  -26.8734   19.8284 C   0  0  0  0  0  0  0  0  0  0  0  0
  -20.7530   -4.0076   21.2058 C   0  0  0  0  0  0  0  0  0  0  0  0
  -24.4448   -9.9127   21.5572 C   0  0  0  0  0  0  0  0  0  0  0  0
  -26.4007  -10.8169   22.9227 C   0  0  0  0  0  0  0  0  0  0  0  0
  -26.9149  -32.3923   25.9825 C   0  0  0  0  0  0  0  0  0  0  0  0
  -25.4803  -29.2372   20.3114 C   0  0  0  0  0  0  0  0  0  0  0  0
  -26.7372  -31.2091   25.2403 C   0  0  0  0  0  0  0  0  0  0  0  0
  -24.7036  -28.0703   20.2773 C   0  0  0  0  0  0  0  0  0  0  0  0
  -22.1217   -8.4104   21.1983 C   0  0  0  0  0  0  0  0  0  0  0  0
  -26.6117  -26.8405   19.4072 C   0  0  0  0  0  0  0  0  0  0  0  0
  -20.9684   -6.3911   21.5367 C   0  0  0  0  0  0  0  0  0  0  0  0
  -20.9300   -3.8016   22.5740 C   0  0  0  0  0  0  0  0  0  0  0  0
  -20.7722   -5.3023   20.6872 C   0  0  0  0  0  0  0  0  0  0  0  0
  -25.6449  -10.6884   21.7420 C   0  0  0  0  0  0  0  0  0  0  0  0
  -27.4339  -11.6543   22.5795 C   0  0  0  0  0  0  0  0  0  0  0  0
  -29.4275  -22.9635   16.3872 C   0  0  0  0  0  0  0  0  0  0  0  0
  -28.9395  -24.3633   18.0722 C   0  0  0  0  0  0  0  0  0  0  0  0
  -29.5346  -22.2442   18.5105 C   0  0  0  0  0  0  0  0  0  0  0  0
  -26.1879  -10.2317   24.2141 C   0  0  0  0  0  0  0  0  0  0  0  0
  -24.0432  -29.9240   23.0622 C   0  0  0  0  0  0  0  0  0  0  0  0
  -21.3482  -29.6042   21.2855 C   0  0  0  0  0  0  0  0  0  0  0  0
  -19.8337  -28.2705   18.5333 C   0  0  0  0  0  0  0  0  0  0  0  0
  -29.4532  -16.0448   20.2447 C   0  0  0  0  0  0  0  0  0  0  0  0
  -25.7693  -33.0542   26.7064 C   0  0  0  0  0  0  0  0  0  0  0  0
  -24.8791  -30.5393   20.7647 C   0  0  0  0  0  0  0  0  0  0  0  0
  -23.2634  -28.0630   20.7181 C   0  0  0  0  0  0  0  0  0  0  0  0
  -24.3962  -32.6042   26.2140 C   0  0  0  0  0  0  0  0  0  0  0  0
  -28.9682  -13.3323   18.0684 C   0  0  0  0  0  0  0  0  0  0  0  0
  -24.3465  -31.0850   26.0858 C   0  0  0  0  0  0  0  0  0  0  0  0
  -28.4107  -22.9805   14.0124 C   0  0  0  0  0  0  0  0  0  0  0  0
  -28.8073  -21.5669   14.3032 C   0  0  0  0  0  0  0  0  0  0  0  0
  -28.1134  -12.4022   18.9288 C   0  0  0  0  0  0  0  0  0  0  0  0
  -28.9668  -19.1048   18.5749 C   0  0  0  0  0  0  0  0  0  0  0  0
  -30.8702  -19.2066   20.2285 C   0  0  0  0  0  0  0  0  0  0  0  0
  -28.5589  -14.7977   18.2278 C   0  0  0  0  0  0  0  0  0  0  0  0
  -29.3220  -17.6441   18.2821 C   0  0  0  0  0  0  0  0  0  0  0  0
  -31.2041  -17.7580   19.8834 C   0  0  0  0  0  0  0  0  0  0  0  0
  -27.6791  -14.3342   20.4927 C   0  0  0  0  0  0  0  0  0  0  0  0
  -25.3708  -30.5841   25.0604 C   0  0  1  0  0  0  0  0  0  0  0  0
  -29.5754  -22.7028   14.9259 C   0  0  0  0  0  0  0  0  0  0  0  0
  -23.6671  -30.3540   21.6725 C   0  0  1  0  0  0  0  0  0  0  0  0
  -28.1052  -12.8610   20.3979 C   0  0  1  0  0  0  0  0  0  0  0  0
  -30.1889  -19.8975   19.0444 C   0  0  0  0  0  0  0  0  0  0  0  0
  -17.6141  -28.1546   17.3681 C   0  0  0  0  0  0  0  0  0  0  0  0
  -20.3605  -27.6076   23.3706 C   0  0  0  0  0  0  0  0  0  0  0  0
  -18.6442  -26.8373   21.7185 C   0  0  0  0  0  0  0  0  0  0  0  0
  -18.6160  -29.1937   22.5366 C   0  0  0  0  0  0  0  0  0  0  0  0
  -20.9143  -29.5588   16.0979 C   0  0  0  0  0  0  0  0  0  0  0  0
  -28.5221  -25.7119   18.5514 C   0  0  0  0  0  0  0  0  0  1  0  0
  -20.4287  -28.4596   20.9343 C   0  0  1  0  0  0  0  0  0  0  0  0
  -18.9401  -28.8916   17.4750 C   0  0  2  0  0  0  0  0  0  0  0  0
  -19.5401  -28.0239   22.1334 C   0  0  0  0  0  0  0  0  0  0  0  0
  -26.1545  -11.3882   20.7248 N   0  0  0  0  0  0  0  0  0  0  0  0
  -29.0502  -24.2020   16.7438 N   0  0  0  0  0  0  0  0  0  0  0  0
  -29.6866  -21.9363   17.2124 N   0  0  0  0  0  0  0  0  0  0  0  0
  -29.1647  -23.4329   19.0137 N   0  0  0  0  0  0  0  0  0  0  0  0
  -27.2415  -11.9646   21.2654 N   0  0  0  0  0  0  0  0  0  0  0  0
  -22.7229  -29.3597   21.1587 N   0  0  0  0  0  0  0  0  0  0  0  0
  -28.5265  -15.1775   19.6470 N   0  0  0  0  0  0  0  0  0  0  0  0
  -30.0150  -17.0372   19.4276 N   0  0  0  0  0  0  0  0  0  0  0  0
  -28.4792  -12.1481   23.2766 N   0  0  0  0  0  0  0  0  0  0  0  0
  -25.0775   -9.3955   24.3940 N   0  0  0  0  0  0  0  0  0  0  0  0
  -29.7843  -21.2338   19.4221 N   0  0  0  0  0  0  0  0  0  0  0  0
  -24.8868  -30.8031   23.7142 N   0  0  0  0  0  0  0  0  0  0  0  0
  -19.6782  -28.8850   19.7578 N   0  0  0  0  0  0  0  0  0  0  0  0
  -19.6088  -28.8512   16.1437 N   0  3  0  0  0  0  0  0  0  0  0  0
  -26.9503  -10.4570   25.1844 O   0  0  0  0  0  0  0  0  0  0  0  0
  -23.5996  -28.8733   23.5104 O   0  0  0  0  0  0  0  0  0  0  0  0
  -20.8642  -30.6782   21.6517 O   0  0  0  0  0  0  0  0  0  0  0  0
  -20.5909  -27.3314   18.2983 O   0  0  0  0  0  0  0  0  0  0  0  0
  -29.7607  -15.9391   21.4386 O   0  0  0  0  0  0  0  0  0  0  0  0
  -20.9885   -7.6770   21.0232 O   0  0  0  0  0  0  0  0  0  0  0  0
  -27.1633  -25.6651   18.9697 O   0  0  0  0  0  0  0  0  0  1  0  0
  -20.9131   -2.5583   23.0719 F   0  0  0  0  0  0  0  0  0  0  0  0
  -20.6027   -5.4938   19.3717 F   0  0  0  0  0  0  0  0  0  0  0  0
  1  2  1  0  0  0  0
  1  5  2  0  0  0  0
  2  6  2  0  0  0  0
  3  8  2  0  0  0  0
  3 15  1  0  0  0  0
  4  9  1  0  0  0  0
  4 15  2  0  0  0  0
  5 17  1  0  0  0  0
  6 19  1  0  0  0  0
  7 10  2  0  0  0  0
  7 18  1  0  0  0  0
  8 21  1  0  0  0  0
  9 21  2  0  0  0  0
 10 22  1  0  0  0  0
 11 12  2  0  0  0  0
 11 23  1  0  0  0  0
 12 24  1  0  0  0  0
 13 20  1  0  0  0  0
 13 22  2  0  0  0  0
 14 24  2  0  0  0  0
 14 25  1  0  0  0  0
 15 26  1  0  0  0  0
 16 26  1  0  0  0  0
 16 27  2  0  0  0  0
 16 31  1  0  0  0  0
 17 19  2  0  0  0  0
 17 36  1  0  0  0  0
 18 20  2  0  0  0  0
 18 37  1  0  0  0  0
 19 51  1  0  0  0  0
 20 38  1  0  0  0  0
 21 84  1  0  0  0  0
 22 85  1  0  0  0  0
 23 25  2  0  0  0  0
 23 84  1  0  0  0  0
 24 86  1  0  0  0  0
 25 87  1  0  0  0  0
 26 65  2  0  0  0  0
 27 69  1  0  0  0  0
 27 73  1  0  0  0  0
 28 52  1  0  0  0  0
 28 66  1  0  0  0  0
 28 67  2  0  0  0  0
 29 61  1  0  0  0  0
 29 66  2  0  0  0  0
 29 68  1  0  0  0  0
 30 67  1  0  0  0  0
 30 68  2  0  0  0  0
 30 75  1  0  0  0  0
 31 74  1  0  0  0  0
 31 79  2  0  0  0  0
 32 53  1  0  0  0  0
 32 76  1  0  0  0  0
 32 80  2  0  0  0  0
 33 62  1  0  0  0  0
 33 70  1  0  0  0  0
 33 81  2  0  0  0  0
 34 63  1  0  0  0  0
 34 77  1  0  0  0  0
 34 82  2  0  0  0  0
 35 71  1  0  0  0  0
 35 72  1  0  0  0  0
 35 83  2  0  0  0  0
 36 39  1  0  0  0  0
 37 53  1  0  0  0  0
 38 70  1  0  0  0  0
 39 41  1  0  0  0  0
 40 44  1  0  0  0  0
 40 47  1  0  0  0  0
 41 51  1  0  0  0  0
 42 43  1  0  0  0  0
 42 52  1  0  0  0  0
 43 52  1  0  0  0  0
 44 54  1  0  0  0  0
 45 48  1  0  0  0  0
 45 55  1  0  0  0  0
 46 49  1  0  0  0  0
 46 55  1  0  0  0  0
 47 71  1  0  0  0  0
 48 72  1  0  0  0  0
 49 72  1  0  0  0  0
 50 54  1  0  0  0  0
 50 71  1  0  0  0  0
 51 76  1  0  0  0  0
 53 70  1  0  0  0  0
 54 69  1  0  0  0  0
 55 75  1  0  0  0  0
 56 63  1  0  0  0  0
 57 64  1  0  0  0  0
 58 64  1  0  0  0  0
 59 64  1  0  0  0  0
 60 78  1  0  0  0  0
 61 85  1  0  0  0  0
 62 64  1  0  0  0  0
 62 77  1  0  0  0  0
 63 78  1  0  0  0  0
 65 69  1  0  0  0  0
M  CHG  1  78   1
M  ISO  4  35 100  61 101  72 100  85 101
M  END
> <Batch ID>
0192

> <Smiles>
CNC(C)C(=O)NC(C(=O)N1Cc2cc([101O:1][101CH2:1]c3nc(NC4CC[100N:0]([100C:0](=O)N5CCCC(n6nc(-c7ccc(Oc8ccc(F)cc8F)cc7)c(C(N)=O)c6N)C5)CC4)nc(C4CC4)n3)ccc2CC1C(=O)NC1CCCc2ccccc21)C(C)(C)C

> <Shape>
0.335

> <Color>
0.101

> <Negative vol penalty>
0.000

$$$$

  -OEChem-04052323293D

 84 93  0     1  0  0  0  0  0999 V2000
  -23.8030   -8.6461   21.7506 C   0  0  0  0  0  0  0  0  0  0  0  0
  -24.7117   -9.5750   22.2475 C   0  0  0  0  0  0  0  0  0  0  0  0
  -25.9137  -27.1327   18.9612 C   0  0  0  0  0  0  0  0  0  0  0  0
  -26.3926  -27.4793   21.3037 C   0  0  0  0  0  0  0  0  0  0  0  0
  -22.9570   -8.9943   20.6985 C   0  0  0  0  0  0  0  0  0  0  0  0
  -24.7757  -10.8523   21.6918 C   0  0  0  0  0  0  0  0  0  0  0  0
  -25.0298  -14.4893   25.2064 C   0  0  0  0  0  0  0  0  0  0  0  0
  -24.7604  -27.9079   19.0823 C   0  0  0  0  0  0  0  0  0  0  0  0
  -25.2394  -28.2545   21.4248 C   0  0  0  0  0  0  0  0  0  0  0  0
  -26.2657  -14.7005   25.8159 C   0  0  0  0  0  0  0  0  0  0  0  0
  -21.9110  -27.7394   21.7204 C   0  0  0  0  0  0  0  0  0  0  0  0
  -21.0877  -27.5084   22.8224 C   0  0  0  0  0  0  0  0  0  0  0  0
  -26.6519  -16.5886   24.3650 C   0  0  0  0  0  0  0  0  0  0  0  0
  -21.4053  -29.7939   23.5386 C   0  0  0  0  0  0  0  0  0  0  0  0
  -27.5529  -20.2531   25.6367 C   0  0  0  0  0  0  0  0  0  0  0  0
  -26.7298  -26.9184   20.0719 C   0  0  0  0  0  0  0  0  0  0  0  0
  -29.2147  -26.5632   19.6173 C   0  0  0  0  0  0  0  0  0  0  0  0
  -23.0039  -10.2796   20.1361 C   0  0  0  0  0  0  0  0  0  0  0  0
  -24.5996  -15.3210   24.1625 C   0  0  0  0  0  0  0  0  0  0  0  0
  -23.9303  -11.2176   20.6303 C   0  0  0  0  0  0  0  0  0  0  0  0
  -25.4089  -16.3874   23.7456 C   0  0  0  0  0  0  0  0  0  0  0  0
  -24.4232  -28.4688   20.3141 C   0  0  0  0  0  0  0  0  0  0  0  0
  -27.0783  -15.7485   25.3933 C   0  0  0  0  0  0  0  0  0  0  0  0
  -22.4815  -28.9975   21.5275 C   0  0  0  0  0  0  0  0  0  0  0  0
  -20.8348  -28.5357   23.7315 C   0  0  0  0  0  0  0  0  0  0  0  0
  -22.2287  -30.0248   22.4366 C   0  0  0  0  0  0  0  0  0  0  0  0
  -27.9209  -26.1173   19.9476 C   0  0  0  0  0  0  0  0  0  0  0  0
  -28.8918  -19.9901   25.7074 C   0  0  0  0  0  0  0  0  0  0  0  0
  -29.9837  -25.4252   19.6293 C   0  0  0  0  0  0  0  0  0  0  0  0
  -27.9058  -18.9776   27.4113 C   0  0  0  0  0  0  0  0  0  0  0  0
  -29.6798  -27.8877   19.3257 C   0  0  0  0  0  0  0  0  0  0  0  0
  -23.8728  -14.8822   21.0993 C   0  0  0  0  0  0  0  0  0  0  0  0
  -22.9791  -17.9959   21.2683 C   0  0  0  0  0  0  0  0  0  0  0  0
  -23.2886  -21.0187   22.8219 C   0  0  0  0  0  0  0  0  0  0  0  0
  -29.4326  -20.1613   22.4290 C   0  0  0  0  0  0  0  0  0  0  0  0
  -22.1021  -10.5946   18.9689 C   0  0  0  0  0  0  0  0  0  0  0  0
  -23.2520  -15.0962   23.5334 C   0  0  0  0  0  0  0  0  0  0  0  0
  -24.9843  -17.3212   22.6428 C   0  0  0  0  0  0  0  0  0  0  0  0
  -21.9737  -12.0889   18.6843 C   0  0  0  0  0  0  0  0  0  0  0  0
  -29.6938  -20.7026   18.9196 C   0  0  0  0  0  0  0  0  0  0  0  0
  -23.3462  -12.7544   18.6957 C   0  0  0  0  0  0  0  0  0  0  0  0
  -29.3858  -22.1919   18.7553 C   0  0  0  0  0  0  0  0  0  0  0  0
  -28.8489  -20.0700   20.0233 C   0  0  0  0  0  0  0  0  0  0  0  0
  -28.6154  -22.2419   21.1642 C   0  0  0  0  0  0  0  0  0  0  0  0
  -32.1461  -16.8072   26.8668 C   0  0  0  0  0  0  0  0  0  0  0  0
  -24.0125  -12.6211   20.0704 C   0  0  1  0  0  0  0  0  0  0  0  0
  -23.1399  -15.6902   22.1326 C   0  0  1  0  0  0  0  0  0  0  0  0
  -29.4830  -22.9364   20.1006 C   0  0  2  0  0  0  0  0  0  0  0  0
  -30.8387  -17.4876   26.5125 C   0  0  2  0  0  0  0  0  0  0  0  0
  -27.6644  -18.1749   28.6359 C   0  0  0  0  0  0  0  0  0  0  0  0
  -22.4597  -23.3847   22.7107 C   0  0  0  0  0  0  0  0  0  0  0  0
  -24.7971  -18.5178   18.8740 C   0  0  0  0  0  0  0  0  0  0  0  0
  -24.6766  -20.9618   19.4037 C   0  0  0  0  0  0  0  0  0  0  0  0
  -22.6027  -19.7149   18.7981 C   0  0  0  0  0  0  0  0  0  0  0  0
  -22.1078  -20.8549   25.5307 C   0  0  0  0  0  0  0  0  0  0  0  0
  -29.9925  -20.4142   24.8335 C   0  0  0  0  0  0  0  0  0  0  0  0
  -30.3733  -18.6739   27.2802 C   0  0  0  0  0  0  0  0  0  0  0  0
  -30.4573  -15.0034   26.3824 C   0  0  0  0  0  0  0  0  0  0  0  0
  -28.9588  -14.8114   26.5076 C   0  0  0  0  0  0  0  0  0  1  0  0
  -23.6719  -19.3201   21.0549 C   0  0  1  0  0  0  0  0  0  0  0  0
  -22.2490  -22.0069   23.3190 C   0  0  2  0  0  0  0  0  0  0  0  0
  -23.9462  -19.6101   19.5522 C   0  0  0  0  0  0  0  0  0  0  0  0
  -27.8671  -24.7988   20.1542 N   0  0  0  0  0  0  0  0  0  0  0  0
  -29.0818  -19.1995   26.8151 N   0  0  0  0  0  0  0  0  0  0  0  0
  -29.1367  -24.4064   19.9531 N   0  0  0  0  0  0  0  0  0  0  0  0
  -26.9674  -19.6141   26.7030 N   0  3  0  0  0  0  0  0  0  0  0  0
  -23.6609  -17.0565   22.0547 N   0  0  0  0  0  0  0  0  0  0  0  0
  -28.9869  -20.8224   21.2725 N   0  0  0  0  0  0  0  0  0  0  0  0
  -31.2949  -25.2066   19.3943 N   0  0  0  0  0  0  0  0  0  0  0  0
  -28.7570  -28.9421   19.3577 N   0  0  0  0  0  0  0  0  0  0  0  0
  -23.4445  -13.5721   21.0018 N   0  0  0  0  0  0  0  0  0  0  0  0
  -22.8456  -20.3243   21.7161 N   0  0  0  0  0  0  0  0  0  0  0  0
  -29.5414  -20.9493   23.5682 N   0  0  0  0  0  0  0  0  0  0  0  0
  -30.8655  -16.1973   27.1648 N   0  3  1  0  0  0  0  0  0  0  0  0
  -22.3208  -22.1320   24.8023 N   0  3  0  0  0  0  0  0  0  0  0  0
  -30.8750  -28.1268   19.0292 O   0  0  0  0  0  0  0  0  0  0  0  0
  -24.7602  -15.4089   20.4383 O   0  0  0  0  0  0  0  0  0  0  0  0
  -21.8706  -17.8048   20.7619 O   0  0  0  0  0  0  0  0  0  0  0  0
  -24.3856  -20.8796   23.3584 O   0  0  0  0  0  0  0  0  0  0  0  0
  -29.7178  -18.9590   22.4437 O   0  0  0  0  0  0  0  0  0  0  0  0
  -23.2981  -29.2254   20.4325 O   0  0  0  0  0  0  0  0  0  0  0  0
  -28.2854  -15.9564   25.9861 O   0  0  0  0  0  0  0  0  0  1  0  0
  -20.0429  -28.3142   24.7889 F   0  0  0  0  0  0  0  0  0  0  0  0
  -22.7730  -31.2360   22.2560 F   0  0  0  0  0  0  0  0  0  0  0  0
  1  2  1  0  0  0  0
  1  5  2  0  0  0  0
  2  6  2  0  0  0  0
  3  8  2  0  0  0  0
  3 16  1  0  0  0  0
  4  9  1  0  0  0  0
  4 16  2  0  0  0  0
  5 18  1  0  0  0  0
  6 20  1  0  0  0  0
  7 10  2  0  0  0  0
  7 19  1  0  0  0  0
  8 22  1  0  0  0  0
  9 22  2  0  0  0  0
 10 23  1  0  0  0  0
 11 12  2  0  0  0  0
 11 24  1  0  0  0  0
 12 25  1  0  0  0  0
 13 21  1  0  0  0  0
 13 23  2  0  0  0  0
 14 25  2  0  0  0  0
 14 26  1  0  0  0  0
 15 28  2  0  0  0  0
 15 66  1  0  0  0  0
 16 27  1  0  0  0  0
 17 27  1  0  0  0  0
 17 29  2  0  0  0  0
 17 31  1  0  0  0  0
 18 20  2  0  0  0  0
 18 36  1  0  0  0  0
 19 21  2  0  0  0  0
 19 37  1  0  0  0  0
 20 46  1  0  0  0  0
 21 38  1  0  0  0  0
 22 81  1  0  0  0  0
 23 82  1  0  0  0  0
 24 26  2  0  0  0  0
 24 81  1  0  0  0  0
 25 83  1  0  0  0  0
 26 84  1  0  0  0  0
 27 63  2  0  0  0  0
 28 56  1  0  0  0  0
 28 64  1  0  0  0  0
 29 65  1  0  0  0  0
 29 69  1  0  0  0  0
 30 50  1  0  0  0  0
 30 64  1  0  0  0  0
 30 66  2  0  0  0  0
 31 70  1  0  0  0  0
 31 76  2  0  0  0  0
 32 47  1  0  0  0  0
 32 71  1  0  0  0  0
 32 77  2  0  0  0  0
 33 60  1  0  0  0  0
 33 67  1  0  0  0  0
 33 78  2  0  0  0  0
 34 61  1  0  0  0  0
 34 72  1  0  0  0  0
 34 79  2  0  0  0  0
 35 68  1  0  0  0  0
 35 73  1  0  0  0  0
 35 80  2  0  0  0  0
 36 39  1  0  0  0  0
 37 47  1  0  0  0  0
 38 67  1  0  0  0  0
 39 41  1  0  0  0  0
 40 42  1  0  0  0  0
 40 43  1  0  0  0  0
 41 46  1  0  0  0  0
 42 48  1  0  0  0  0
 43 68  1  0  0  0  0
 44 48  1  0  0  0  0
 44 68  1  0  0  0  0
 45 49  1  0  0  0  0
 45 74  1  0  0  0  0
 46 71  1  0  0  0  0
 47 67  1  0  0  0  0
 48 65  1  0  0  0  0
 49 57  1  0  0  0  0
 49 74  1  0  0  0  0
 51 61  1  0  0  0  0
 52 62  1  0  0  0  0
 53 62  1  0  0  0  0
 54 62  1  0  0  0  0
 55 75  1  0  0  0  0
 56 73  1  0  0  0  0
 57 64  1  0  0  0  0
 58 59  1  0  0  0  0
 58 74  1  0  0  0  0
 59 82  1  0  0  0  0
 60 62  1  0  0  0  0
 60 72  1  0  0  0  0
 61 75  1  0  0  0  0
 63 65  1  0  0  0  0
M  CHG  3  66   1  74   1  75   1
M  ISO  4  35 100  59 101  73 100  82 101
M  END
> <Batch ID>
0192

> <Smiles>
CNC(C)C(=O)NC(C(=O)N1Cc2cc([101O:1][101CH2:1]CN3CC3Cn3c(C[100NH:0][100C:0](=O)N4CCCC(n5nc(-c6ccc(Oc7ccc(F)cc7F)cc6)c(C(N)=O)c5N)C4)cnc3C)ccc2CC1C(=O)NC1CCCc2ccccc21)C(C)(C)C

> <Shape>
0.195

> <Color>
0.043

> <Negative vol penalty>
0.000

$$$$

  -OEChem-04052323293D

 81 89  0     1  0  0  0  0  0999 V2000
  -24.2903  -31.4704   20.7384 C   0  0  0  0  0  0  0  0  0  0  0  0
  -23.5228  -30.3709   20.3675 C   0  0  0  0  0  0  0  0  0  0  0  0
  -30.0610  -19.7936   20.4056 C   0  0  0  0  0  0  0  0  0  0  0  0
  -27.6704  -19.6970   20.0698 C   0  0  0  0  0  0  0  0  0  0  0  0
  -25.6137  -31.2919   21.1393 C   0  0  0  0  0  0  0  0  0  0  0  0
  -24.0787  -29.0924   20.3961 C   0  0  0  0  0  0  0  0  0  0  0  0
  -22.3067  -22.2606   21.6219 C   0  0  0  0  0  0  0  0  0  0  0  0
  -30.0831  -21.0842   19.8772 C   0  0  0  0  0  0  0  0  0  0  0  0
  -27.6925  -20.9877   19.5414 C   0  0  0  0  0  0  0  0  0  0  0  0
  -22.3986  -21.0013   21.0306 C   0  0  0  0  0  0  0  0  0  0  0  0
  -30.0028  -22.5258   16.8210 C   0  0  0  0  0  0  0  0  0  0  0  0
  -31.0025  -22.8299   15.8971 C   0  0  0  0  0  0  0  0  0  0  0  0
  -24.6709  -20.8048   21.8161 C   0  0  0  0  0  0  0  0  0  0  0  0
  -31.8220  -24.5717   17.3572 C   0  0  0  0  0  0  0  0  0  0  0  0
  -23.9105  -13.4919   21.9457 C   0  0  0  0  0  0  0  0  0  0  0  0
  -28.8547  -19.0999   20.5018 C   0  0  0  0  0  0  0  0  0  0  0  0
  -28.6563  -17.4023   22.3956 C   0  0  0  0  0  0  0  0  0  0  0  0
  -26.1832  -30.0095   21.1822 C   0  0  0  0  0  0  0  0  0  0  0  0
  -23.4018  -22.8069   22.3066 C   0  0  0  0  0  0  0  0  0  0  0  0
  -25.4114  -28.8968   20.7967 C   0  0  0  0  0  0  0  0  0  0  0  0
  -24.5896  -22.0701   22.4174 C   0  0  0  0  0  0  0  0  0  0  0  0
  -28.8989  -21.6814   19.4451 C   0  0  0  0  0  0  0  0  0  0  0  0
  -23.5817  -20.2744   21.1252 C   0  0  0  0  0  0  0  0  0  0  0  0
  -29.9126  -23.2446   18.0130 C   0  0  0  0  0  0  0  0  0  0  0  0
  -31.9121  -23.8529   16.1652 C   0  0  0  0  0  0  0  0  0  0  0  0
  -30.8222  -24.2676   18.2811 C   0  0  0  0  0  0  0  0  0  0  0  0
  -28.8313  -17.7664   21.0471 C   0  0  0  0  0  0  0  0  0  0  0  0
  -22.9707  -14.4386   21.6238 C   0  0  0  0  0  0  0  0  0  0  0  0
  -28.7116  -16.0299   22.3907 C   0  0  0  0  0  0  0  0  0  0  0  0
  -23.2953  -18.0176   21.3950 C   0  0  0  0  0  0  0  0  0  1  0  0
  -28.4613  -18.2306   23.5496 C   0  0  0  0  0  0  0  0  0  0  0  0
  -25.2223  -25.3855   21.9315 C   0  0  0  0  0  0  0  0  0  0  0  0
  -26.4892  -24.4236   24.7585 C   0  0  0  0  0  0  0  0  0  0  0  0
  -27.0836  -21.8755   26.9495 C   0  0  0  0  0  0  0  0  0  0  0  0
  -27.1610  -11.5061   19.1280 C   0  0  0  0  0  0  0  0  0  0  0  0
  -27.6322  -29.8715   21.5770 C   0  0  0  0  0  0  0  0  0  0  0  0
  -23.2778  -24.1552   22.9617 C   0  0  0  0  0  0  0  0  0  0  0  0
  -25.7873  -22.6032   23.1589 C   0  0  0  0  0  0  0  0  0  0  0  0
  -28.0316  -28.4431   21.9383 C   0  0  0  0  0  0  0  0  0  0  0  0
  -30.5357  -12.6274   19.3024 C   0  0  0  0  0  0  0  0  0  0  0  0
  -27.5032  -27.4615   20.8972 C   0  0  0  0  0  0  0  0  0  0  0  0
  -30.4240  -14.0331   19.8954 C   0  0  0  0  0  0  0  0  0  0  0  0
  -29.3728  -12.3174   18.3624 C   0  0  0  0  0  0  0  0  0  0  0  0
  -27.9219  -13.9244   19.5397 C   0  0  0  0  0  0  0  0  0  0  0  0
  -25.9711  -27.4914   20.8383 C   0  0  1  0  0  0  0  0  0  0  0  0
  -24.6248  -24.8326   23.1944 C   0  0  1  0  0  0  0  0  0  0  0  0
  -29.0426  -14.2625   20.5377 C   0  0  2  0  0  0  0  0  0  0  0  0
  -28.1746  -21.3893   29.1565 C   0  0  0  0  0  0  0  0  0  0  0  0
  -29.2313  -24.5367   23.4251 C   0  0  0  0  0  0  0  0  0  0  0  0
  -30.1307  -23.1658   25.3172 C   0  0  0  0  0  0  0  0  0  0  0  0
  -29.1703  -25.4247   25.7623 C   0  0  0  0  0  0  0  0  0  0  0  0
  -24.5255  -20.9994   28.1526 C   0  0  0  0  0  0  0  0  0  0  0  0
  -22.8827  -15.8729   22.0648 C   0  0  0  0  0  0  0  0  0  0  0  0
  -24.1161  -11.0869   21.2391 C   0  0  0  0  0  0  0  0  0  0  0  0
  -24.9230  -10.8383   19.9674 C   0  0  0  0  0  0  0  0  0  0  0  0
  -27.6234  -23.5153   25.1679 C   0  0  1  0  0  0  0  0  0  0  0  0
  -26.8826  -21.7701   28.4505 C   0  0  2  0  0  0  0  0  0  0  0  0
  -29.0172  -24.1511   24.9024 C   0  0  0  0  0  0  0  0  0  0  0  0
  -28.9862  -16.7105   20.2438 N   0  0  0  0  0  0  0  0  0  0  0  0
  -22.0405  -13.8950   20.7820 N   0  0  0  0  0  0  0  0  0  0  0  0
  -22.3747  -12.6270   20.5685 N   0  0  0  0  0  0  0  0  0  0  0  0
  -23.3197  -16.7914   21.0173 N   0  0  0  0  0  0  0  0  0  0  0  0
  -23.4961  -12.3872   21.2673 N   0  0  0  0  0  0  0  0  0  0  0  0
  -28.9089  -15.6695   21.0902 N   0  0  0  0  0  0  0  0  0  0  0  0
  -25.6188  -23.9288   23.7770 N   0  0  0  0  0  0  0  0  0  0  0  0
  -28.0919  -12.5537   19.0328 N   0  0  0  0  0  0  0  0  0  0  0  0
  -28.6103  -15.1084   23.3720 N   0  0  0  0  0  0  0  0  0  0  0  0
  -28.4302  -19.6210   23.3764 N   0  0  0  0  0  0  0  0  0  0  0  0
  -25.4082  -26.7546   21.9494 N   0  0  0  0  0  0  0  0  0  0  0  0
  -27.3824  -23.1651   26.5635 N   0  0  0  0  0  0  0  0  0  0  0  0
  -25.9753  -11.8129   19.7843 N   0  0  0  0  0  0  0  0  0  0  0  0
  -25.8539  -20.7384   28.7642 N   0  3  0  0  0  0  0  0  0  0  0  0
  -28.3352  -17.7525   24.7024 O   0  0  0  0  0  0  0  0  0  0  0  0
  -25.4958  -24.6259   21.0095 O   0  0  0  0  0  0  0  0  0  0  0  0
  -26.3754  -25.5285   25.2951 O   0  0  0  0  0  0  0  0  0  0  0  0
  -26.9890  -20.9096   26.1953 O   0  0  0  0  0  0  0  0  0  0  0  0
  -27.3731  -10.3794   18.6672 O   0  0  0  0  0  0  0  0  0  0  0  0
  -28.9201  -22.9409   18.9297 O   0  0  0  0  0  0  0  0  0  0  0  0
  -23.6742  -19.0454   20.5484 O   0  0  0  0  0  0  0  0  0  1  0  0
  -32.8731  -24.1439   15.2785 F   0  0  0  0  0  0  0  0  0  0  0  0
  -30.7413  -24.9608   19.4251 F   0  0  0  0  0  0  0  0  0  0  0  0
  1  2  1  0  0  0  0
  1  5  2  0  0  0  0
  2  6  2  0  0  0  0
  3  8  2  0  0  0  0
  3 16  1  0  0  0  0
  4  9  1  0  0  0  0
  4 16  2  0  0  0  0
  5 18  1  0  0  0  0
  6 20  1  0  0  0  0
  7 10  2  0  0  0  0
  7 19  1  0  0  0  0
  8 22  1  0  0  0  0
  9 22  2  0  0  0  0
 10 23  1  0  0  0  0
 11 12  2  0  0  0  0
 11 24  1  0  0  0  0
 12 25  1  0  0  0  0
 13 21  1  0  0  0  0
 13 23  2  0  0  0  0
 14 25  2  0  0  0  0
 14 26  1  0  0  0  0
 15 28  2  0  0  0  0
 15 63  1  0  0  0  0
 16 27  1  0  0  0  0
 17 27  1  0  0  0  0
 17 29  2  0  0  0  0
 17 31  1  0  0  0  0
 18 20  2  0  0  0  0
 18 36  1  0  0  0  0
 19 21  2  0  0  0  0
 19 37  1  0  0  0  0
 20 45  1  0  0  0  0
 21 38  1  0  0  0  0
 22 78  1  0  0  0  0
 23 79  1  0  0  0  0
 24 26  2  0  0  0  0
 24 78  1  0  0  0  0
 25 80  1  0  0  0  0
 26 81  1  0  0  0  0
 27 59  2  0  0  0  0
 28 53  1  0  0  0  0
 28 60  1  0  0  0  0
 29 64  1  0  0  0  0
 29 67  1  0  0  0  0
 30 62  2  0  0  0  0
 30 79  1  0  0  0  0
 31 68  1  0  0  0  0
 31 73  2  0  0  0  0
 32 46  1  0  0  0  0
 32 69  1  0  0  0  0
 32 74  2  0  0  0  0
 33 56  1  0  0  0  0
 33 65  1  0  0  0  0
 33 75  2  0  0  0  0
 34 57  1  0  0  0  0
 34 70  1  0  0  0  0
 34 76  2  0  0  0  0
 35 66  1  0  0  0  0
 35 71  1  0  0  0  0
 35 77  2  0  0  0  0
 36 39  1  0  0  0  0
 37 46  1  0  0  0  0
 38 65  1  0  0  0  0
 39 41  1  0  0  0  0
 40 42  1  0  0  0  0
 40 43  1  0  0  0  0
 41 45  1  0  0  0  0
 42 47  1  0  0  0  0
 43 66  1  0  0  0  0
 44 47  1  0  0  0  0
 44 66  1  0  0  0  0
 45 69  1  0  0  0  0
 46 65  1  0  0  0  0
 47 64  1  0  0  0  0
 48 57  1  0  0  0  0
 49 58  1  0  0  0  0
 50 58  1  0  0  0  0
 51 58  1  0  0  0  0
 52 72  1  0  0  0  0
 53 62  1  0  0  0  0
 54 55  1  0  0  0  0
 54 63  1  0  0  0  0
 55 71  1  0  0  0  0
 56 58  1  0  0  0  0
 56 70  1  0  0  0  0
 57 72  1  0  0  0  0
 59 64  1  0  0  0  0
 60 61  2  0  0  0  0
 61 63  1  0  0  0  0
M  CHG  1  72   1
M  ISO  4  30 101  35 100  71 100  79 101
M  END
> <Batch ID>
0192

> <Smiles>
CNC(C)C(=O)NC(C(=O)N1Cc2cc([101O:1][101CH:1]=NCc3cn(CC[100NH:0][100C:0](=O)N4CCCC(n5nc(-c6ccc(Oc7ccc(F)cc7F)cc6)c(C(N)=O)c5N)C4)nn3)ccc2CC1C(=O)NC1CCCc2ccccc21)C(C)(C)C

> <Shape>
0.211

> <Color>
0.066

> <Negative vol penalty>
0.000

$$$$

  -OEChem-04052323293D

 83 92  0     1  0  0  0  0  0999 V2000
  -18.5869  -31.1124   26.3262 C   0  0  0  0  0  0  0  0  0  0  0  0
  -19.2680  -29.9764   26.7514 C   0  0  0  0  0  0  0  0  0  0  0  0
  -22.6017  -12.1025   18.7630 C   0  0  0  0  0  0  0  0  0  0  0  0
  -22.9677  -10.0570   19.9955 C   0  0  0  0  0  0  0  0  0  0  0  0
  -18.0779  -31.1742   25.0296 C   0  0  0  0  0  0  0  0  0  0  0  0
  -19.4396  -28.9009   25.8806 C   0  0  0  0  0  0  0  0  0  0  0  0
  -24.0898  -23.6873   24.2962 C   0  0  0  0  0  0  0  0  0  0  0  0
  -21.5443  -11.5018   18.0800 C   0  0  0  0  0  0  0  0  0  0  0  0
  -21.9102   -9.4563   19.3125 C   0  0  0  0  0  0  0  0  0  0  0  0
  -24.1407  -22.3045   24.1261 C   0  0  0  0  0  0  0  0  0  0  0  0
  -21.3754   -8.0614   16.2794 C   0  0  0  0  0  0  0  0  0  0  0  0
  -21.5710   -6.7705   15.7886 C   0  0  0  0  0  0  0  0  0  0  0  0
  -23.2873  -22.5549   21.8838 C   0  0  0  0  0  0  0  0  0  0  0  0
  -19.7352   -5.9770   17.1441 C   0  0  0  0  0  0  0  0  0  0  0  0
  -26.1407  -18.0210   21.5869 C   0  0  0  0  0  0  0  0  0  0  0  0
  -23.3135  -11.3801   19.7207 C   0  0  0  0  0  0  0  0  0  0  0  0
  -24.3397  -12.7166   21.6360 C   0  0  0  0  0  0  0  0  0  0  0  0
  -18.2517  -30.1028   24.1394 C   0  0  0  0  0  0  0  0  0  0  0  0
  -23.6262  -24.5149   23.2634 C   0  0  0  0  0  0  0  0  0  0  0  0
  -18.9313  -28.9478   24.5714 C   0  0  0  0  0  0  0  0  0  0  0  0
  -23.2340  -23.9481   22.0423 C   0  0  0  0  0  0  0  0  0  0  0  0
  -27.2247  -18.8098   21.2595 C   0  0  0  0  0  0  0  0  0  0  0  0
  -21.1985  -10.1787   18.3547 C   0  0  0  0  0  0  0  0  0  0  0  0
  -23.7367  -21.7378   22.9208 C   0  0  0  0  0  0  0  0  0  0  0  0
  -20.3599   -8.3101   17.2028 C   0  0  0  0  0  0  0  0  0  0  0  0
  -20.7509   -5.7283   16.2209 C   0  0  0  0  0  0  0  0  0  0  0  0
  -19.5398   -7.2679   17.6351 C   0  0  0  0  0  0  0  0  0  0  0  0
  -24.4063  -11.9999   20.4262 C   0  0  0  0  0  0  0  0  0  0  0  0
  -27.0636  -20.1638   21.4716 C   0  0  0  0  0  0  0  0  0  0  0  0
  -25.6366  -13.0960   21.8823 C   0  0  0  0  0  0  0  0  0  0  0  0
  -24.9505  -19.8424   22.2453 C   0  0  0  0  0  0  0  0  0  1  0  0
  -23.2068  -13.0129   22.4633 C   0  0  0  0  0  0  0  0  0  0  0  0
  -21.1941  -26.5335   22.9270 C   0  0  0  0  0  0  0  0  0  0  0  0
  -22.6331  -27.1838   20.0935 C   0  0  0  0  0  0  0  0  0  0  0  0
  -24.7108  -26.1446   17.5934 C   0  0  0  0  0  0  0  0  0  0  0  0
  -30.4993  -15.1482   20.1184 C   0  0  0  0  0  0  0  0  0  0  0  0
  -17.6426  -30.1966   22.7628 C   0  0  0  0  0  0  0  0  0  0  0  0
  -23.6027  -26.0068   23.4532 C   0  0  0  0  0  0  0  0  0  0  0  0
  -22.7475  -24.7943   20.8952 C   0  0  0  0  0  0  0  0  0  0  0  0
  -18.1929  -29.1647   21.7817 C   0  0  0  0  0  0  0  0  0  0  0  0
  -29.9642  -11.6896   19.7116 C   0  0  0  0  0  0  0  0  0  0  0  0
  -18.2325  -27.7829   22.4265 C   0  0  0  0  0  0  0  0  0  0  0  0
  -28.4636  -11.5128   19.9285 C   0  0  0  0  0  0  0  0  0  0  0  0
  -29.7469  -18.4715   21.5757 C   0  0  0  0  0  0  0  0  0  0  0  0
  -30.2532  -12.9815   18.9590 C   0  0  0  0  0  0  0  0  0  0  0  0
  -30.7259  -17.3676   21.1923 C   0  0  0  0  0  0  0  0  0  0  0  0
  -28.2196  -14.0490   19.8923 C   0  0  0  0  0  0  0  0  0  0  0  0
  -28.4902  -16.6581   20.6483 C   0  0  0  0  0  0  0  0  0  0  0  0
  -19.1592  -27.7706   23.6482 C   0  0  1  0  0  0  0  0  0  0  0  0
  -22.6281  -26.7131   22.5158 C   0  0  1  0  0  0  0  0  0  0  0  0
  -27.8691  -12.7422   20.6333 C   0  0  1  0  0  0  0  0  0  0  0  0
  -28.5035  -18.2000   20.7007 C   0  0  1  0  0  0  0  0  0  0  0  0
  -28.1703  -21.1139   21.1528 C   0  0  0  0  0  0  0  0  0  0  0  0
  -25.6640  -26.8790   15.3913 C   0  0  0  0  0  0  0  0  0  0  0  0
  -19.9588  -26.6020   18.7445 C   0  0  0  0  0  0  0  0  0  0  0  0
  -21.1776  -26.4158   16.5655 C   0  0  0  0  0  0  0  0  0  0  0  0
  -21.1876  -28.5731   17.8178 C   0  0  0  0  0  0  0  0  0  0  0  0
  -27.4844  -26.0073   18.6166 C   0  0  0  0  0  0  0  0  0  0  0  0
  -22.5400  -26.6250   18.6941 C   0  0  1  0  0  0  0  0  0  0  0  0
  -25.8714  -26.8321   16.8972 C   0  0  2  0  0  0  0  0  0  0  0  0
  -21.2233  -27.0376   17.9776 C   0  0  0  0  0  0  0  0  0  0  0  0
  -24.9838  -18.5058   22.0839 N   0  0  0  0  0  0  0  0  0  0  0  0
  -25.6473  -11.9270   19.9378 N   0  0  0  0  0  0  0  0  0  0  0  0
  -25.9360  -20.7164   21.9649 N   0  0  0  0  0  0  0  0  0  0  0  0
  -26.3725  -12.6029   20.8452 N   0  0  0  0  0  0  0  0  0  0  0  0
  -22.7370  -26.2474   21.1318 N   0  0  0  0  0  0  0  0  0  0  0  0
  -29.6610  -14.1419   19.6264 N   0  0  0  0  0  0  0  0  0  0  0  0
  -29.9032  -16.2638   20.7059 N   0  0  0  0  0  0  0  0  0  0  0  0
  -26.2078  -13.8000   22.8825 N   0  0  0  0  0  0  0  0  0  0  0  0
  -21.9470  -12.5471   22.0629 N   0  0  0  0  0  0  0  0  0  0  0  0
  -20.5440  -27.7143   23.2315 N   0  0  0  0  0  0  0  0  0  0  0  0
  -23.7537  -27.0483   18.0041 N   0  0  0  0  0  0  0  0  0  0  0  0
  -28.8466  -18.6613   19.2988 N   0  3  0  0  0  0  0  0  0  0  0  0
  -27.1440  -26.1078   17.1740 N   0  3  0  0  0  0  0  0  0  0  0  0
  -23.3061  -13.6852   23.5177 O   0  0  0  0  0  0  0  0  0  0  0  0
  -20.7125  -25.4073   22.9637 O   0  0  0  0  0  0  0  0  0  0  0  0
  -22.6214  -28.4061   20.2586 O   0  0  0  0  0  0  0  0  0  0  0  0
  -24.6567  -24.9272   17.7535 O   0  0  0  0  0  0  0  0  0  0  0  0
  -31.7297  -15.0742   19.9993 O   0  0  0  0  0  0  0  0  0  0  0  0
  -20.1665   -9.5923   17.6886 O   0  0  0  0  0  0  0  0  0  0  0  0
  -23.7853  -20.3712   22.7503 O   0  0  0  0  0  0  0  0  0  1  0  0
  -20.9377   -4.4890   15.7482 F   0  0  0  0  0  0  0  0  0  0  0  0
  -18.5617   -7.5009   18.5210 F   0  0  0  0  0  0  0  0  0  0  0  0
  1  2  1  0  0  0  0
  1  5  2  0  0  0  0
  2  6  2  0  0  0  0
  3  8  2  0  0  0  0
  3 16  1  0  0  0  0
  4  9  1  0  0  0  0
  4 16  2  0  0  0  0
  5 18  1  0  0  0  0
  6 20  1  0  0  0  0
  7 10  2  0  0  0  0
  7 19  1  0  0  0  0
  8 23  1  0  0  0  0
  9 23  2  0  0  0  0
 10 24  1  0  0  0  0
 11 12  2  0  0  0  0
 11 25  1  0  0  0  0
 12 26  1  0  0  0  0
 13 21  1  0  0  0  0
 13 24  2  0  0  0  0
 14 26  2  0  0  0  0
 14 27  1  0  0  0  0
 15 22  1  0  0  0  0
 15 62  2  0  0  0  0
 16 28  1  0  0  0  0
 17 28  1  0  0  0  0
 17 30  2  0  0  0  0
 17 32  1  0  0  0  0
 18 20  2  0  0  0  0
 18 37  1  0  0  0  0
 19 21  2  0  0  0  0
 19 38  1  0  0  0  0
 20 49  1  0  0  0  0
 21 39  1  0  0  0  0
 22 29  2  0  0  0  0
 22 52  1  0  0  0  0
 23 80  1  0  0  0  0
 24 81  1  0  0  0  0
 25 27  2  0  0  0  0
 25 80  1  0  0  0  0
 26 82  1  0  0  0  0
 27 83  1  0  0  0  0
 28 63  2  0  0  0  0
 29 53  1  0  0  0  0
 29 64  1  0  0  0  0
 30 65  1  0  0  0  0
 30 69  1  0  0  0  0
 31 62  1  0  0  0  0
 31 64  2  0  0  0  0
 31 81  1  0  0  0  0
 32 70  1  0  0  0  0
 32 75  2  0  0  0  0
 33 50  1  0  0  0  0
 33 71  1  0  0  0  0
 33 76  2  0  0  0  0
 34 59  1  0  0  0  0
 34 66  1  0  0  0  0
 34 77  2  0  0  0  0
 35 60  1  0  0  0  0
 35 72  1  0  0  0  0
 35 78  2  0  0  0  0
 36 67  1  0  0  0  0
 36 68  1  0  0  0  0
 36 79  2  0  0  0  0
 37 40  1  0  0  0  0
 38 50  1  0  0  0  0
 39 66  1  0  0  0  0
 40 42  1  0  0  0  0
 41 43  1  0  0  0  0
 41 45  1  0  0  0  0
 42 49  1  0  0  0  0
 43 51  1  0  0  0  0
 44 46  1  0  0  0  0
 44 52  1  0  0  0  0
 45 67  1  0  0  0  0
 46 68  1  0  0  0  0
 47 51  1  0  0  0  0
 47 67  1  0  0  0  0
 48 52  1  0  0  0  0
 48 68  1  0  0  0  0
 49 71  1  0  0  0  0
 50 66  1  0  0  0  0
 51 65  1  0  0  0  0
 52 73  1  0  0  0  0
 54 60  1  0  0  0  0
 55 61  1  0  0  0  0
 56 61  1  0  0  0  0
 57 61  1  0  0  0  0
 58 74  1  0  0  0  0
 59 61  1  0  0  0  0
 59 72  1  0  0  0  0
 60 74  1  0  0  0  0
 63 65  1  0  0  0  0
M  CHG  2  73   1  74   1
M  ISO  4  31 101  36 100  68 100  81 101
M  END
> <Batch ID>
0192

> <Smiles>
CNC(C)C(=O)NC(C(=O)N1Cc2cc([101O:1][101c:1]3ncc(C4(N)CC[100N:0]([100C:0](=O)N5CCCC(n6nc(-c7ccc(Oc8ccc(F)cc8F)cc7)c(C(N)=O)c6N)C5)C4)c(C)n3)ccc2CC1C(=O)NC1CCCc2ccccc21)C(C)(C)C

> <Shape>
0.195

> <Color>
0.091

> <Negative vol penalty>
0.000

$$$$

  -OEChem-04052323293D

 84 93  0     1  0  0  0  0  0999 V2000
  -31.0376   -5.7272   16.4497 C   0  0  0  0  0  0  0  0  0  0  0  0
  -29.9099   -6.2725   17.0549 C   0  0  0  0  0  0  0  0  0  0  0  0
  -26.3982  -27.9992   18.7123 C   0  0  0  0  0  0  0  0  0  0  0  0
  -26.3578  -27.5163   21.0792 C   0  0  0  0  0  0  0  0  0  0  0  0
  -32.3076   -6.1692   16.8181 C   0  0  0  0  0  0  0  0  0  0  0  0
  -30.0515   -7.2595   18.0297 C   0  0  0  0  0  0  0  0  0  0  0  0
  -26.3078  -11.9996   19.0406 C   0  0  0  0  0  0  0  0  0  0  0  0
  -26.0320  -29.3192   18.9753 C   0  0  0  0  0  0  0  0  0  0  0  0
  -25.9917  -28.8363   21.3422 C   0  0  0  0  0  0  0  0  0  0  0  0
  -25.2834  -12.2056   19.9636 C   0  0  0  0  0  0  0  0  0  0  0  0
  -23.1826  -30.7140   21.2209 C   0  0  0  0  0  0  0  0  0  0  0  0
  -22.1541  -30.9308   22.1378 C   0  0  0  0  0  0  0  0  0  0  0  0
  -26.8310  -13.3521   21.4161 C   0  0  0  0  0  0  0  0  0  0  0  0
  -23.6640  -32.2024   23.5308 C   0  0  0  0  0  0  0  0  0  0  0  0
  -26.5610  -27.0977   19.7643 C   0  0  0  0  0  0  0  0  0  0  0  0
  -28.2442  -25.2139   19.4096 C   0  0  0  0  0  0  0  0  0  0  0  0
  -32.4645   -7.1690   17.7909 C   0  0  0  0  0  0  0  0  0  0  0  0
  -27.6061  -12.4595   19.3037 C   0  0  0  0  0  0  0  0  0  0  0  0
  -31.3248   -7.7144   18.4124 C   0  0  0  0  0  0  0  0  0  0  0  0
  -27.8695  -13.1529   20.4936 C   0  0  0  0  0  0  0  0  0  0  0  0
  -25.8288  -29.7378   20.2903 C   0  0  0  0  0  0  0  0  0  0  0  0
  -25.5456  -12.8794   21.1529 C   0  0  0  0  0  0  0  0  0  0  0  0
  -24.4519  -31.2413   21.4590 C   0  0  0  0  0  0  0  0  0  0  0  0
  -22.3948  -31.6750   23.2928 C   0  0  0  0  0  0  0  0  0  0  0  0
  -24.6926  -31.9855   22.6139 C   0  0  0  0  0  0  0  0  0  0  0  0
  -26.9386  -25.7339   19.4932 C   0  0  0  0  0  0  0  0  0  0  0  0
  -28.0655  -23.8800   19.1353 C   0  0  0  0  0  0  0  0  0  0  0  0
  -23.8751  -19.2698   24.8702 C   0  0  0  0  0  0  0  0  0  0  0  0
  -22.9233  -17.6894   23.5924 C   0  0  0  0  0  0  0  0  0  0  0  0
  -23.7053  -19.5715   22.6527 C   0  0  0  0  0  0  0  0  0  0  0  0
  -29.5056  -25.8773   19.5660 C   0  0  0  0  0  0  0  0  0  0  0  0
  -30.4452  -11.0768   19.6666 C   0  0  0  0  0  0  0  0  0  0  0  0
  -31.4917  -14.1455   19.7704 C   0  0  0  0  0  0  0  0  0  0  0  0
  -30.7882  -17.4271   20.3893 C   0  0  0  0  0  0  0  0  0  0  0  0
  -23.5919  -20.0601   20.1840 C   0  0  0  0  0  0  0  0  0  0  0  0
  -33.8593   -7.5810   18.1901 C   0  0  0  0  0  0  0  0  0  0  0  0
  -28.6940  -12.2528   18.2858 C   0  0  0  0  0  0  0  0  0  0  0  0
  -29.2417  -13.6845   20.8146 C   0  0  0  0  0  0  0  0  0  0  0  0
  -33.9083   -8.8967   18.9626 C   0  0  0  0  0  0  0  0  0  0  0  0
  -25.0019  -20.8701   17.0165 C   0  0  0  0  0  0  0  0  0  0  0  0
  -32.8439   -8.9142   20.0551 C   0  0  0  0  0  0  0  0  0  0  0  0
  -25.7436  -20.1586   26.4171 C   0  0  0  0  0  0  0  0  0  0  0  0
  -25.2221  -18.9040   27.0451 C   0  0  0  0  0  0  0  0  0  0  0  0
  -25.7824  -22.1587   17.2859 C   0  0  0  0  0  0  0  0  0  0  0  0
  -23.7033  -20.8153   17.8192 C   0  0  0  0  0  0  0  0  0  0  0  0
  -24.6372  -22.3183   19.5332 C   0  0  0  0  0  0  0  0  0  0  0  0
  -31.4366   -8.8045   19.4561 C   0  0  1  0  0  0  0  0  0  0  0  0
  -24.3058  -19.7606   26.2115 C   0  0  0  0  0  0  0  0  0  0  0  0
  -30.0946  -12.3129   18.8875 C   0  0  1  0  0  0  0  0  0  0  0  0
  -25.9847  -22.3897   18.7963 C   0  0  2  0  0  0  0  0  0  0  0  0
  -31.8559  -19.6977   20.4255 C   0  0  0  0  0  0  0  0  0  0  0  0
  -32.8569  -13.4587   22.4114 C   0  0  0  0  0  0  0  0  0  0  0  0
  -33.0770  -15.9128   22.8555 C   0  0  0  0  0  0  0  0  0  0  0  0
  -34.2122  -14.8980   20.8797 C   0  0  0  0  0  0  0  0  0  0  0  0
  -28.9578  -18.4488   18.3001 C   0  0  0  0  0  0  0  0  0  0  0  0
  -22.2538  -16.3531   23.4618 C   0  0  0  0  0  0  0  0  0  0  0  0
  -22.3928  -14.0595   22.4826 C   0  0  0  0  0  0  0  0  0  0  0  0
  -23.2225  -13.2081   21.5419 C   0  0  0  0  0  0  0  0  0  1  0  0
  -31.6985  -15.1681   20.8614 C   0  0  1  0  0  0  0  0  0  0  0  0
  -31.0805  -18.6871   19.5948 C   0  0  2  0  0  0  0  0  0  0  0  0
  -32.9356  -14.8478   21.7471 C   0  0  0  0  0  0  0  0  0  0  0  0
  -25.9999  -24.8061   19.2884 N   0  0  0  0  0  0  0  0  0  0  0  0
  -23.2830  -18.0652   24.8302 N   0  0  0  0  0  0  0  0  0  0  0  0
  -24.1192  -20.0775   23.8255 N   0  0  0  0  0  0  0  0  0  0  0  0
  -23.1014  -18.3878   22.4595 N   0  0  0  0  0  0  0  0  0  0  0  0
  -26.7164  -23.6896   19.0733 N   0  0  0  0  0  0  0  0  0  0  0  0
  -30.2734  -13.4517   19.7905 N   0  0  0  0  0  0  0  0  0  0  0  0
  -23.9732  -21.0382   19.2412 N   0  0  0  0  0  0  0  0  0  0  0  0
  -28.9325  -22.8631   18.9433 N   0  0  0  0  0  0  0  0  0  0  0  0
  -29.5080  -27.2507   19.8454 N   0  0  0  0  0  0  0  0  0  0  0  0
  -23.9293  -20.3670   21.5018 N   0  0  0  0  0  0  0  0  0  0  0  0
  -31.0208  -10.0769   18.9061 N   0  0  0  0  0  0  0  0  0  0  0  0
  -31.7585  -16.4662   20.1982 N   0  0  0  0  0  0  0  0  0  0  0  0
  -29.8096  -19.3234   19.1466 N   0  3  0  0  0  0  0  0  0  0  0  0
  -22.9992  -15.4109   22.5841 N   0  3  0  0  0  0  0  0  0  0  0  0
  -30.5984  -25.2735   19.4448 O   0  0  0  0  0  0  0  0  0  0  0  0
  -30.2121  -11.0341   20.8689 O   0  0  0  0  0  0  0  0  0  0  0  0
  -32.3754  -13.9737   18.9271 O   0  0  0  0  0  0  0  0  0  0  0  0
  -29.8001  -17.3085   21.1105 O   0  0  0  0  0  0  0  0  0  0  0  0
  -23.0332  -19.0141   19.8440 O   0  0  0  0  0  0  0  0  0  0  0  0
  -25.4718  -31.0258   20.5473 O   0  0  0  0  0  0  0  0  0  0  0  0
  -24.5477  -13.0812   22.0559 O   0  0  0  0  0  0  0  0  0  1  0  0
  -21.4066  -31.8845   24.1724 F   0  0  0  0  0  0  0  0  0  0  0  0
  -25.9096  -32.4956   22.8474 F   0  0  0  0  0  0  0  0  0  0  0  0
  1  2  1  0  0  0  0
  1  5  2  0  0  0  0
  2  6  2  0  0  0  0
  3  8  2  0  0  0  0
  3 15  1  0  0  0  0
  4  9  1  0  0  0  0
  4 15  2  0  0  0  0
  5 17  1  0  0  0  0
  6 19  1  0  0  0  0
  7 10  2  0  0  0  0
  7 18  1  0  0  0  0
  8 21  1  0  0  0  0
  9 21  2  0  0  0  0
 10 22  1  0  0  0  0
 11 12  2  0  0  0  0
 11 23  1  0  0  0  0
 12 24  1  0  0  0  0
 13 20  1  0  0  0  0
 13 22  2  0  0  0  0
 14 24  2  0  0  0  0
 14 25  1  0  0  0  0
 15 26  1  0  0  0  0
 16 26  1  0  0  0  0
 16 27  2  0  0  0  0
 16 31  1  0  0  0  0
 17 19  2  0  0  0  0
 17 36  1  0  0  0  0
 18 20  2  0  0  0  0
 18 37  1  0  0  0  0
 19 47  1  0  0  0  0
 20 38  1  0  0  0  0
 21 81  1  0  0  0  0
 22 82  1  0  0  0  0
 23 25  2  0  0  0  0
 23 81  1  0  0  0  0
 24 83  1  0  0  0  0
 25 84  1  0  0  0  0
 26 62  2  0  0  0  0
 27 66  1  0  0  0  0
 27 69  1  0  0  0  0
 28 48  1  0  0  0  0
 28 63  1  0  0  0  0
 28 64  2  0  0  0  0
 29 56  1  0  0  0  0
 29 63  2  0  0  0  0
 29 65  1  0  0  0  0
 30 64  1  0  0  0  0
 30 65  2  0  0  0  0
 30 71  1  0  0  0  0
 31 70  1  0  0  0  0
 31 76  2  0  0  0  0
 32 49  1  0  0  0  0
 32 72  1  0  0  0  0
 32 77  2  0  0  0  0
 33 59  1  0  0  0  0
 33 67  1  0  0  0  0
 33 78  2  0  0  0  0
 34 60  1  0  0  0  0
 34 73  1  0  0  0  0
 34 79  2  0  0  0  0
 35 68  1  0  0  0  0
 35 71  1  0  0  0  0
 35 80  2  0  0  0  0
 36 39  1  0  0  0  0
 37 49  1  0  0  0  0
 38 67  1  0  0  0  0
 39 41  1  0  0  0  0
 40 44  1  0  0  0  0
 40 45  1  0  0  0  0
 41 47  1  0  0  0  0
 42 43  1  0  0  0  0
 42 48  1  0  0  0  0
 43 48  1  0  0  0  0
 44 50  1  0  0  0  0
 45 68  1  0  0  0  0
 46 50  1  0  0  0  0
 46 68  1  0  0  0  0
 47 72  1  0  0  0  0
 49 67  1  0  0  0  0
 50 66  1  0  0  0  0
 51 60  1  0  0  0  0
 52 61  1  0  0  0  0
 53 61  1  0  0  0  0
 54 61  1  0  0  0  0
 55 74  1  0  0  0  0
 56 75  1  0  0  0  0
 57 58  1  0  0  0  0
 57 75  1  0  0  0  0
 58 82  1  0  0  0  0
 59 61  1  0  0  0  0
 59 73  1  0  0  0  0
 60 74  1  0  0  0  0
 62 66  1  0  0  0  0
M  CHG  2  74   1  75   1
M  ISO  4  35 100  58 101  71 100  82 101
M  END
> <Batch ID>
0192

> <Smiles>
CNC(C)C(=O)NC(C(=O)N1Cc2cc([101O:1][101CH2:1]CNCc3nc([100NH:0][100C:0](=O)N4CCCC(n5nc(-c6ccc(Oc7ccc(F)cc7F)cc6)c(C(N)=O)c5N)C4)nc(C4CC4)n3)ccc2CC1C(=O)NC1CCCc2ccccc21)C(C)(C)C

> <Shape>
0.218

> <Color>
0.079

> <Negative vol penalty>
0.000

$$$$

  -OEChem-04052323293D

 78 86  0     1  0  0  0  0  0999 V2000
  -26.6525  -34.0901   27.0860 C   0  0  0  0  0  0  0  0  0  0  0  0
  -27.2515  -33.2169   26.1838 C   0  0  0  0  0  0  0  0  0  0  0  0
  -25.2399  -13.9692   19.9172 C   0  0  0  0  0  0  0  0  0  0  0  0
  -25.8988  -12.7932   21.9221 C   0  0  0  0  0  0  0  0  0  0  0  0
  -25.3398  -33.8696   27.5010 C   0  0  0  0  0  0  0  0  0  0  0  0
  -26.5385  -32.1219   25.6968 C   0  0  0  0  0  0  0  0  0  0  0  0
  -26.9204  -29.6761   20.0952 C   0  0  0  0  0  0  0  0  0  0  0  0
  -24.7789  -12.7732   19.3671 C   0  0  0  0  0  0  0  0  0  0  0  0
  -25.4377  -11.5972   21.3721 C   0  0  0  0  0  0  0  0  0  0  0  0
  -27.6117  -28.5717   19.5991 C   0  0  0  0  0  0  0  0  0  0  0  0
  -22.4678  -10.0536   20.9056 C   0  0  0  0  0  0  0  0  0  0  0  0
  -21.7020   -9.2200   21.7206 C   0  0  0  0  0  0  0  0  0  0  0  0
  -25.6282  -27.2228   19.8548 C   0  0  0  0  0  0  0  0  0  0  0  0
  -23.3371   -7.4609   21.4576 C   0  0  0  0  0  0  0  0  0  0  0  0
  -25.7999  -13.9792   21.1947 C   0  0  0  0  0  0  0  0  0  0  0  0
  -25.5445  -16.1306   22.5416 C   0  0  0  0  0  0  0  0  0  0  0  0
  -24.6071  -32.7769   27.0115 C   0  0  0  0  0  0  0  0  0  0  0  0
  -25.5787  -29.5593   20.4858 C   0  0  0  0  0  0  0  0  0  0  0  0
  -25.2152  -31.8859   26.1067 C   0  0  0  0  0  0  0  0  0  0  0  0
  -24.9213  -28.3279   20.3532 C   0  0  0  0  0  0  0  0  0  0  0  0
  -24.8777  -11.5872   20.0945 C   0  0  0  0  0  0  0  0  0  0  0  0
  -26.9664  -27.3441   19.4815 C   0  0  0  0  0  0  0  0  0  0  0  0
  -23.6682   -9.5909   20.3665 C   0  0  0  0  0  0  0  0  0  0  0  0
  -22.1367   -7.9236   21.9966 C   0  0  0  0  0  0  0  0  0  0  0  0
  -24.1029   -8.2945   20.6425 C   0  0  0  0  0  0  0  0  0  0  0  0
  -26.2769  -15.2143   21.7632 C   0  0  0  0  0  0  0  0  0  0  0  0
  -26.4423  -17.1284   22.8328 C   0  0  0  0  0  0  0  0  0  0  0  0
  -24.1751  -16.0839   22.9637 C   0  0  0  0  0  0  0  0  0  0  0  0
  -23.9973  -29.9299   23.2181 C   0  0  0  0  0  0  0  0  0  0  0  0
  -21.4025  -29.4665   21.3275 C   0  0  0  0  0  0  0  0  0  0  0  0
  -29.5233  -24.7798   19.3090 C   0  0  0  0  0  0  0  0  0  0  0  0
  -20.1111  -28.1706   18.4466 C   0  0  0  0  0  0  0  0  0  0  0  0
  -30.2777  -20.6698   21.0720 C   0  0  0  0  0  0  0  0  0  0  0  0
  -23.2070  -32.5529   27.5254 C   0  0  0  0  0  0  0  0  0  0  0  0
  -24.8393  -30.7666   20.9939 C   0  0  0  0  0  0  0  0  0  0  0  0
  -23.4759  -28.1549   20.7394 C   0  0  0  0  0  0  0  0  0  0  0  0
  -22.3940  -31.5807   26.6744 C   0  0  0  0  0  0  0  0  0  0  0  0
  -31.4399  -17.3610   22.2181 C   0  0  0  0  0  0  0  0  0  0  0  0
  -23.2173  -30.3383   26.3497 C   0  0  0  0  0  0  0  0  0  0  0  0
  -30.1336  -16.5725   22.2110 C   0  0  0  0  0  0  0  0  0  0  0  0
  -32.8983  -23.3490   20.3554 C   0  0  0  0  0  0  0  0  0  0  0  0
  -31.4853  -18.4058   21.1039 C   0  0  0  0  0  0  0  0  0  0  0  0
  -29.0104  -18.5446   21.1044 C   0  0  0  0  0  0  0  0  0  0  0  0
  -24.4660  -30.7009   25.5369 C   0  0  1  0  0  0  0  0  0  0  0  0
  -23.6239  -30.4089   21.8438 C   0  0  1  0  0  0  0  0  0  0  0  0
  -28.9266  -17.5223   22.2482 C   0  0  1  0  0  0  0  0  0  0  0  0
  -31.5864  -23.4526   19.6291 C   0  0  1  0  0  0  0  0  0  0  0  0
  -31.6684  -22.7146   20.9421 C   0  0  1  0  0  0  0  0  0  0  0  0
  -17.9505  -27.9167   17.1957 C   0  0  0  0  0  0  0  0  0  0  0  0
  -20.5512  -27.2565   23.2514 C   0  0  0  0  0  0  0  0  0  0  0  0
  -18.9703  -26.4315   21.4941 C   0  0  0  0  0  0  0  0  0  0  0  0
  -18.6865  -28.7178   22.4505 C   0  0  0  0  0  0  0  0  0  0  0  0
  -21.1349  -29.7081   16.1342 C   0  0  0  0  0  0  0  0  0  0  0  0
  -29.0447  -26.2137   19.2387 C   0  0  0  0  0  0  0  0  0  1  0  0
  -20.6107  -28.2635   20.8748 C   0  0  1  0  0  0  0  0  0  0  0  0
  -19.1941  -28.7691   17.3952 C   0  0  2  0  0  0  0  0  0  0  0  0
  -19.7325  -27.6698   22.0121 C   0  0  0  0  0  0  0  0  0  0  0  0
  -27.5424  -15.5962   21.5719 N   0  0  0  0  0  0  0  0  0  0  0  0
  -27.6122  -16.7635   22.2342 N   0  0  0  0  0  0  0  0  0  0  0  0
  -22.7978  -29.3632   21.2369 N   0  0  0  0  0  0  0  0  0  0  0  0
  -30.2902  -19.2640   21.1178 N   0  0  0  0  0  0  0  0  0  0  0  0
  -26.3373  -18.2735   23.5399 N   0  0  0  0  0  0  0  0  0  0  0  0
  -23.3935  -14.9870   22.5762 N   0  0  0  0  0  0  0  0  0  0  0  0
  -24.1164  -30.9404   24.1531 N   0  0  0  0  0  0  0  0  0  0  0  0
  -30.8912  -24.7034   19.5236 N   0  0  0  0  0  0  0  0  0  0  0  0
  -19.8586  -28.6887   19.6992 N   0  0  0  0  0  0  0  0  0  0  0  0
  -31.5227  -21.2847   21.0014 N   0  0  0  0  0  0  0  0  0  0  0  0
  -19.9041  -28.8772   16.0895 N   0  3  0  0  0  0  0  0  0  0  0  0
  -23.6553  -16.9962   23.6500 O   0  0  0  0  0  0  0  0  0  0  0  0
  -24.1636  -28.7320   23.4159 O   0  0  0  0  0  0  0  0  0  0  0  0
  -20.8047  -30.4638   21.7395 O   0  0  0  0  0  0  0  0  0  0  0  0
  -28.7696  -23.8177   19.1878 O   0  0  0  0  0  0  0  0  0  0  0  0
  -20.9635  -27.3252   18.1836 O   0  0  0  0  0  0  0  0  0  0  0  0
  -29.2337  -21.3312   21.0870 O   0  0  0  0  0  0  0  0  0  0  0  0
  -24.4277  -10.4200   19.5582 O   0  0  0  0  0  0  0  0  0  0  0  0
  -27.6391  -26.2644   18.9982 O   0  0  0  0  0  0  0  0  0  1  0  0
  -21.4019   -7.1237   22.7805 F   0  0  0  0  0  0  0  0  0  0  0  0
  -25.2558   -7.8448   20.1285 F   0  0  0  0  0  0  0  0  0  0  0  0
  1  2  1  0  0  0  0
  1  5  2  0  0  0  0
  2  6  2  0  0  0  0
  3  8  2  0  0  0  0
  3 15  1  0  0  0  0
  4  9  1  0  0  0  0
  4 15  2  0  0  0  0
  5 17  1  0  0  0  0
  6 19  1  0  0  0  0
  7 10  2  0  0  0  0
  7 18  1  0  0  0  0
  8 21  1  0  0  0  0
  9 21  2  0  0  0  0
 10 22  1  0  0  0  0
 11 12  2  0  0  0  0
 11 23  1  0  0  0  0
 12 24  1  0  0  0  0
 13 20  1  0  0  0  0
 13 22  2  0  0  0  0
 14 24  2  0  0  0  0
 14 25  1  0  0  0  0
 15 26  1  0  0  0  0
 16 26  1  0  0  0  0
 16 27  2  0  0  0  0
 16 28  1  0  0  0  0
 17 19  2  0  0  0  0
 17 34  1  0  0  0  0
 18 20  2  0  0  0  0
 18 35  1  0  0  0  0
 19 44  1  0  0  0  0
 20 36  1  0  0  0  0
 21 75  1  0  0  0  0
 22 76  1  0  0  0  0
 23 25  2  0  0  0  0
 23 75  1  0  0  0  0
 24 77  1  0  0  0  0
 25 78  1  0  0  0  0
 26 58  2  0  0  0  0
 27 59  1  0  0  0  0
 27 62  1  0  0  0  0
 28 63  1  0  0  0  0
 28 69  2  0  0  0  0
 29 45  1  0  0  0  0
 29 64  1  0  0  0  0
 29 70  2  0  0  0  0
 30 55  1  0  0  0  0
 30 60  1  0  0  0  0
 30 71  2  0  0  0  0
 31 54  1  0  0  0  0
 31 65  1  0  0  0  0
 31 72  2  0  0  0  0
 32 56  1  0  0  0  0
 32 66  1  0  0  0  0
 32 73  2  0  0  0  0
 33 61  1  0  0  0  0
 33 67  1  0  0  0  0
 33 74  2  0  0  0  0
 34 37  1  0  0  0  0
 35 45  1  0  0  0  0
 36 60  1  0  0  0  0
 37 39  1  0  0  0  0
 38 40  1  0  0  0  0
 38 42  1  0  0  0  0
 39 44  1  0  0  0  0
 40 46  1  0  0  0  0
 41 47  1  0  0  0  0
 41 48  1  0  0  0  0
 42 61  1  0  0  0  0
 43 46  1  0  0  0  0
 43 61  1  0  0  0  0
 44 64  1  0  0  0  0
 45 60  1  0  0  0  0
 46 59  1  0  0  0  0
 47 48  1  0  0  0  0
 47 65  1  0  0  0  0
 48 67  1  0  0  0  0
 49 56  1  0  0  0  0
 50 57  1  0  0  0  0
 51 57  1  0  0  0  0
 52 57  1  0  0  0  0
 53 68  1  0  0  0  0
 54 76  1  0  0  0  0
 55 57  1  0  0  0  0
 55 66  1  0  0  0  0
 56 68  1  0  0  0  0
 58 59  1  0  0  0  0
M  CHG  1  68   1
M  ISO  4  33 100  54 101  67 100  76 101
M  END
> <Batch ID>
0192

> <Smiles>
CNC(C)C(=O)NC(C(=O)N1Cc2cc([101O:1][101CH2:1]C(=O)NC3CC3[100NH:0][100C:0](=O)N3CCCC(n4nc(-c5ccc(Oc6ccc(F)cc6F)cc5)c(C(N)=O)c4N)C3)ccc2CC1C(=O)NC1CCCc2ccccc21)C(C)(C)C

> <Shape>
0.277

> <Color>
0.086

> <Negative vol penalty>
0.000

$$$$

  -OEChem-04052323293D

 82 90  0     1  0  0  0  0  0999 V2000
  -30.3856  -34.1348   24.4645 C   0  0  0  0  0  0  0  0  0  0  0  0
  -30.3372  -32.8685   23.8904 C   0  0  0  0  0  0  0  0  0  0  0  0
  -22.7505  -12.3525   18.7091 C   0  0  0  0  0  0  0  0  0  0  0  0
  -22.8849  -10.4642   20.2102 C   0  0  0  0  0  0  0  0  0  0  0  0
  -29.2654  -34.6457   25.1187 C   0  0  0  0  0  0  0  0  0  0  0  0
  -29.1687  -32.1119   23.9710 C   0  0  0  0  0  0  0  0  0  0  0  0
  -26.9837  -28.2514   19.7487 C   0  0  0  0  0  0  0  0  0  0  0  0
  -21.6694  -11.7582   18.0583 C   0  0  0  0  0  0  0  0  0  0  0  0
  -21.8038   -9.8699   19.5594 C   0  0  0  0  0  0  0  0  0  0  0  0
  -27.0528  -26.8648   19.6202 C   0  0  0  0  0  0  0  0  0  0  0  0
  -18.3524  -11.3681   18.5858 C   0  0  0  0  0  0  0  0  0  0  0  0
  -17.2508  -12.1719   18.2924 C   0  0  0  0  0  0  0  0  0  0  0  0
  -24.8854  -26.6664   20.6604 C   0  0  0  0  0  0  0  0  0  0  0  0
  -17.5402  -11.7093   15.9388 C   0  0  0  0  0  0  0  0  0  0  0  0
  -23.3583  -11.7055   19.7850 C   0  0  0  0  0  0  0  0  0  0  0  0
  -24.4286  -13.1920   21.5605 C   0  0  0  0  0  0  0  0  0  0  0  0
  -28.0794  -33.8989   25.1990 C   0  0  0  0  0  0  0  0  0  0  0  0
  -25.8679  -28.8562   20.3449 C   0  0  0  0  0  0  0  0  0  0  0  0
  -28.0319  -32.6127   24.6280 C   0  0  0  0  0  0  0  0  0  0  0  0
  -24.8034  -28.0610   20.7930 C   0  0  0  0  0  0  0  0  0  0  0  0
  -21.1960  -10.5169   18.4834 C   0  0  0  0  0  0  0  0  0  0  0  0
  -26.0049  -26.0720   20.0787 C   0  0  0  0  0  0  0  0  0  0  0  0
  -19.0480  -10.7350   17.5557 C   0  0  0  0  0  0  0  0  0  0  0  0
  -16.8447  -12.3425   16.9689 C   0  0  0  0  0  0  0  0  0  0  0  0
  -18.6419  -10.9056   16.2322 C   0  0  0  0  0  0  0  0  0  0  0  0
  -24.4755  -12.3187   20.4574 C   0  0  0  0  0  0  0  0  0  0  0  0
  -25.7443  -13.4899   21.8187 C   0  0  0  0  0  0  0  0  0  0  0  0
  -23.2970  -13.6895   22.2869 C   0  0  0  0  0  0  0  0  0  0  0  0
  -25.4020  -30.6552   22.9237 C   0  0  0  0  0  0  0  0  0  0  0  0
  -22.3827  -30.8611   21.7560 C   0  0  0  0  0  0  0  0  0  0  0  0
  -19.9276  -29.4994   19.8156 C   0  0  0  0  0  0  0  0  0  0  0  0
  -30.7440  -15.0376   19.7189 C   0  0  0  0  0  0  0  0  0  0  0  0
  -26.9094  -34.4738   25.9574 C   0  0  0  0  0  0  0  0  0  0  0  0
  -25.7968  -30.3548   20.4519 C   0  0  0  0  0  0  0  0  0  0  0  0
  -23.5743  -28.6625   21.4221 C   0  0  0  0  0  0  0  0  0  0  0  0
  -25.5899  -33.7608   25.6736 C   0  0  0  0  0  0  0  0  0  0  0  0
  -30.0123  -11.4545   20.0241 C   0  0  0  0  0  0  0  0  0  0  0  0
  -25.7765  -32.2481   25.7352 C   0  0  0  0  0  0  0  0  0  0  0  0
  -28.4937  -11.4347   20.2070 C   0  0  0  0  0  0  0  0  0  0  0  0
  -30.4721  -12.6432   19.1829 C   0  0  0  0  0  0  0  0  0  0  0  0
  -30.0636  -15.6704   22.1074 C   0  0  0  0  0  0  0  0  0  0  0  0
  -28.4730  -13.9280   19.8350 C   0  0  0  0  0  0  0  0  0  0  0  0
  -31.2005  -17.2641   20.7066 C   0  0  0  0  0  0  0  0  0  0  0  0
  -26.7746  -31.7717   24.6731 C   0  0  1  0  0  0  0  0  0  0  0  0
  -24.8408  -30.8314   21.5411 C   0  0  1  0  0  0  0  0  0  0  0  0
  -30.7302  -16.7321   22.9865 C   0  0  1  0  0  0  0  0  0  0  0  0
  -27.9799  -12.7872   20.7355 C   0  0  1  0  0  0  0  0  0  0  0  0
  -30.8740  -17.9287   22.0374 C   0  0  2  0  0  0  0  0  0  0  0  0
  -29.9820  -16.9909   24.2847 C   0  0  0  0  0  0  0  0  0  0  0  0
  -17.5559  -29.8761   19.0874 C   0  0  0  0  0  0  0  0  0  0  0  0
  -21.3971  -29.9117   24.4832 C   0  0  0  0  0  0  0  0  0  0  0  0
  -19.1846  -29.4015   23.4283 C   0  0  0  0  0  0  0  0  0  0  0  0
  -20.0369  -31.7457   23.4629 C   0  0  0  0  0  0  0  0  0  0  0  0
  -20.7098  -29.6891   16.9676 C   0  0  0  0  0  0  0  0  0  0  0  0
  -28.4010  -20.7087   21.1921 C   0  0  0  0  0  0  0  0  0  0  0  0
  -27.2576  -22.7328   20.5953 C   0  0  0  0  0  0  0  0  0  0  0  0
  -29.7571  -20.0372   21.2984 C   0  0  0  0  0  0  0  0  0  0  0  0
  -27.3656  -24.1235   19.9889 C   0  0  0  0  0  0  0  0  0  1  0  0
  -21.1155  -30.0573   21.9208 C   0  0  1  0  0  0  0  0  0  0  0  0
  -19.0226  -30.1098   18.7607 C   0  0  2  0  0  0  0  0  0  0  0  0
  -20.4574  -30.2673   23.3138 C   0  0  0  0  0  0  0  0  0  0  0  0
  -25.7222  -12.0775   20.0432 N   0  0  0  0  0  0  0  0  0  0  0  0
  -26.4709  -12.8039   20.8905 N   0  0  0  0  0  0  0  0  0  0  0  0
  -23.5547  -30.1320   21.5100 N   0  0  0  0  0  0  0  0  0  0  0  0
  -29.9341  -13.8969   19.7108 N   0  0  0  0  0  0  0  0  0  0  0  0
  -30.5609  -15.9509   20.7571 N   0  0  0  0  0  0  0  0  0  0  0  0
  -26.3390  -14.2692   22.7469 N   0  0  0  0  0  0  0  0  0  0  0  0
  -22.0162  -13.2828   21.8889 N   0  0  0  0  0  0  0  0  0  0  0  0
  -26.1455  -31.7310   23.3704 N   0  0  0  0  0  0  0  0  0  0  0  0
  -20.2579  -30.4118   20.7952 N   0  0  0  0  0  0  0  0  0  0  0  0
  -28.5472  -22.0751   20.6427 N   0  0  0  0  0  0  0  0  0  0  0  0
  -29.6027  -18.6860   21.9008 N   0  3  0  0  0  0  0  0  0  0  0  0
  -19.3076  -29.5126   17.4253 N   0  3  0  0  0  0  0  0  0  0  0  0
  -23.4171  -14.4844   23.2498 O   0  0  0  0  0  0  0  0  0  0  0  0
  -25.1759  -29.6206   23.5402 O   0  0  0  0  0  0  0  0  0  0  0  0
  -22.3331  -32.0911   21.8353 O   0  0  0  0  0  0  0  0  0  0  0  0
  -20.3010  -28.3291   19.7766 O   0  0  0  0  0  0  0  0  0  0  0  0
  -31.6240  -15.2091   18.8651 O   0  0  0  0  0  0  0  0  0  0  0  0
  -20.1409   -9.9368   17.8487 O   0  0  0  0  0  0  0  0  0  0  0  0
  -26.0705  -24.7086   19.9542 O   0  0  0  0  0  0  0  0  0  1  0  0
  -15.7859  -13.1131   16.6874 F   0  0  0  0  0  0  0  0  0  0  0  0
  -19.3054  -10.2990   15.2385 F   0  0  0  0  0  0  0  0  0  0  0  0
  1  2  1  0  0  0  0
  1  5  2  0  0  0  0
  2  6  2  0  0  0  0
  3  8  2  0  0  0  0
  3 15  1  0  0  0  0
  4  9  1  0  0  0  0
  4 15  2  0  0  0  0
  5 17  1  0  0  0  0
  6 19  1  0  0  0  0
  7 10  2  0  0  0  0
  7 18  1  0  0  0  0
  8 21  1  0  0  0  0
  9 21  2  0  0  0  0
 10 22  1  0  0  0  0
 11 12  2  0  0  0  0
 11 23  1  0  0  0  0
 12 24  1  0  0  0  0
 13 20  1  0  0  0  0
 13 22  2  0  0  0  0
 14 24  2  0  0  0  0
 14 25  1  0  0  0  0
 15 26  1  0  0  0  0
 16 26  1  0  0  0  0
 16 27  2  0  0  0  0
 16 28  1  0  0  0  0
 17 19  2  0  0  0  0
 17 33  1  0  0  0  0
 18 20  2  0  0  0  0
 18 34  1  0  0  0  0
 19 44  1  0  0  0  0
 20 35  1  0  0  0  0
 21 79  1  0  0  0  0
 22 80  1  0  0  0  0
 23 25  2  0  0  0  0
 23 79  1  0  0  0  0
 24 81  1  0  0  0  0
 25 82  1  0  0  0  0
 26 62  2  0  0  0  0
 27 63  1  0  0  0  0
 27 67  1  0  0  0  0
 28 68  1  0  0  0  0
 28 74  2  0  0  0  0
 29 45  1  0  0  0  0
 29 69  1  0  0  0  0
 29 75  2  0  0  0  0
 30 59  1  0  0  0  0
 30 64  1  0  0  0  0
 30 76  2  0  0  0  0
 31 60  1  0  0  0  0
 31 70  1  0  0  0  0
 31 77  2  0  0  0  0
 32 65  1  0  0  0  0
 32 66  1  0  0  0  0
 32 78  2  0  0  0  0
 33 36  1  0  0  0  0
 34 45  1  0  0  0  0
 35 64  1  0  0  0  0
 36 38  1  0  0  0  0
 37 39  1  0  0  0  0
 37 40  1  0  0  0  0
 38 44  1  0  0  0  0
 39 47  1  0  0  0  0
 40 65  1  0  0  0  0
 41 46  1  0  0  0  0
 41 66  1  0  0  0  0
 42 47  1  0  0  0  0
 42 65  1  0  0  0  0
 43 48  1  0  0  0  0
 43 66  1  0  0  0  0
 44 69  1  0  0  0  0
 45 64  1  0  0  0  0
 46 48  1  0  0  0  0
 46 49  1  0  0  0  0
 47 63  1  0  0  0  0
 48 72  1  0  0  0  0
 50 60  1  0  0  0  0
 51 61  1  0  0  0  0
 52 61  1  0  0  0  0
 53 61  1  0  0  0  0
 54 73  1  0  0  0  0
 55 57  1  0  0  0  0
 55 71  1  0  0  0  0
 56 58  1  0  0  0  0
 56 71  1  0  0  0  0
 57 72  1  0  0  0  0
 58 80  1  0  0  0  0
 59 61  1  0  0  0  0
 59 70  1  0  0  0  0
 60 73  1  0  0  0  0
 62 63  1  0  0  0  0
M  CHG  2  72   1  73   1
M  ISO  4  32 100  58 101  66 100  80 101
M  END
> <Batch ID>
0192

> <Smiles>
CNC(C)C(=O)NC(C(=O)N1Cc2cc([101O:1][101CH2:1]CNCCNC3C[100N:0]([100C:0](=O)N4CCCC(n5nc(-c6ccc(Oc7ccc(F)cc7F)cc6)c(C(N)=O)c5N)C4)CC3C)ccc2CC1C(=O)NC1CCCc2ccccc21)C(C)(C)C

> <Shape>
0.280

> <Color>
0.087

> <Negative vol penalty>
0.000

$$$$

  -OEChem-04052323293D

 85 94  0     1  0  0  0  0  0999 V2000
  -28.8692  -25.1220   16.4622 C   0  0  0  0  0  0  0  0  0  0  0  0
  -27.6786  -25.1567   17.1810 C   0  0  0  0  0  0  0  0  0  0  0  0
  -28.5661  -15.5188   20.6726 C   0  0  0  0  0  0  0  0  0  0  0  0
  -27.5336  -15.9144   18.5245 C   0  0  0  0  0  0  0  0  0  0  0  0
  -30.0061  -25.7511   16.9678 C   0  0  0  0  0  0  0  0  0  0  0  0
  -27.6246  -25.8197   18.4066 C   0  0  0  0  0  0  0  0  0  0  0  0
  -23.4914  -28.7086   18.8719 C   0  0  0  0  0  0  0  0  0  0  0  0
  -29.1556  -14.3566   20.1752 C   0  0  0  0  0  0  0  0  0  0  0  0
  -28.1231  -14.7522   18.0270 C   0  0  0  0  0  0  0  0  0  0  0  0
  -22.2941  -28.0626   19.1767 C   0  0  0  0  0  0  0  0  0  0  0  0
  -28.2262  -11.1710   19.5330 C   0  0  0  0  0  0  0  0  0  0  0  0
  -28.1740  -10.0269   20.3291 C   0  0  0  0  0  0  0  0  0  0  0  0
  -22.5472  -28.6980   21.4900 C   0  0  0  0  0  0  0  0  0  0  0  0
  -30.5883   -9.9469   20.3723 C   0  0  0  0  0  0  0  0  0  0  0  0
  -27.7550  -16.2977   19.8472 C   0  0  0  0  0  0  0  0  0  0  0  0
  -27.6823  -18.7992   20.3420 C   0  0  0  0  0  0  0  0  0  0  0  0
  -29.9634  -26.4303   18.1956 C   0  0  0  0  0  0  0  0  0  0  0  0
  -24.2324  -29.3458   19.8775 C   0  0  0  0  0  0  0  0  0  0  0  0
  -28.7623  -26.4573   18.9297 C   0  0  0  0  0  0  0  0  0  0  0  0
  -23.7523  -29.3535   21.1949 C   0  0  0  0  0  0  0  0  0  0  0  0
  -28.9342  -13.9733   18.8524 C   0  0  0  0  0  0  0  0  0  0  0  0
  -21.8233  -28.0548   20.4864 C   0  0  0  0  0  0  0  0  0  0  0  0
  -29.4594  -11.7031   19.1564 C   0  0  0  0  0  0  0  0  0  0  0  0
  -29.3551   -9.4149   20.7488 C   0  0  0  0  0  0  0  0  0  0  0  0
  -30.6405  -11.0911   19.5761 C   0  0  0  0  0  0  0  0  0  0  0  0
  -27.1453  -17.4980   20.3606 C   0  0  0  0  0  0  0  0  0  0  0  0
  -26.7229  -19.5752   20.9451 C   0  0  0  0  0  0  0  0  0  0  0  0
  -28.9362  -19.2648   19.8255 C   0  0  0  0  0  0  0  0  0  0  0  0
  -27.1388  -28.9632   21.1064 C   0  0  0  0  0  0  0  0  0  0  0  0
  -26.3822  -31.6657   22.7331 C   0  0  0  0  0  0  0  0  0  0  0  0
  -23.9527  -33.7116   23.9814 C   0  0  0  0  0  0  0  0  0  0  0  0
  -23.2533  -20.3902   25.1089 C   0  0  0  0  0  0  0  0  0  0  0  0
  -31.2303  -27.0551   18.7239 C   0  0  0  0  0  0  0  0  0  0  0  0
  -25.5085  -30.0611   19.5276 C   0  0  0  0  0  0  0  0  0  0  0  0
  -24.5000  -30.0405   22.3074 C   0  0  0  0  0  0  0  0  0  0  0  0
  -30.9916  -28.0556   19.8519 C   0  0  0  0  0  0  0  0  0  0  0  0
  -21.9569  -18.5534   22.2132 C   0  0  0  0  0  0  0  0  0  0  0  0
  -30.0247  -27.4790   20.8812 C   0  0  0  0  0  0  0  0  0  0  0  0
  -23.2524  -18.1715   21.5050 C   0  0  0  0  0  0  0  0  0  0  0  0
  -19.0494  -23.2045   24.7352 C   0  0  0  0  0  0  0  0  0  0  0  0
  -21.7735  -20.0792   28.1078 C   0  0  0  0  0  0  0  0  0  0  0  0
  -22.1091  -18.5706   23.7347 C   0  0  0  0  0  0  0  0  0  0  0  0
  -18.5957  -23.9580   23.4841 C   0  0  0  0  0  0  0  0  0  0  0  0
  -21.7017  -19.2077   26.8501 C   0  0  0  0  0  0  0  0  0  0  0  0
  -24.5352  -19.0292   23.4957 C   0  0  0  0  0  0  0  0  0  0  0  0
  -20.7562  -24.7098   23.9644 C   0  0  0  0  0  0  0  0  0  0  0  0
  -28.6574  -27.1875   20.2511 C   0  0  1  0  0  0  0  0  0  0  0  0
  -26.4415  -30.2373   20.7217 C   0  0  1  0  0  0  0  0  0  0  0  0
  -24.4045  -19.0761   21.9669 C   0  0  1  0  0  0  0  0  0  0  0  0
  -20.2981  -23.9459   25.1907 C   0  0  2  0  0  0  0  0  0  0  0  0
  -22.0948  -21.2805   27.2056 C   0  0  2  0  0  0  0  0  0  0  0  0
  -23.6420  -35.8258   25.2972 C   0  0  0  0  0  0  0  0  0  0  0  0
  -27.0913  -30.1714   25.2971 C   0  0  0  0  0  0  0  0  0  0  0  0
  -25.8841  -31.9477   26.5837 C   0  0  0  0  0  0  0  0  0  0  0  0
  -27.8850  -32.5416   25.2176 C   0  0  0  0  0  0  0  0  0  0  0  0
  -22.5383  -35.0340   21.7431 C   0  0  0  0  0  0  0  0  0  0  0  0
  -20.9539  -22.2112   26.8444 C   0  0  0  0  0  0  0  0  0  0  0  0
  -18.1721  -26.0474   21.5954 C   0  0  0  0  0  0  0  0  0  0  0  0
  -20.5344  -26.8734   22.0986 C   0  0  0  0  0  0  0  0  0  1  0  0
  -25.7154  -31.9675   24.0534 C   0  0  1  0  0  0  0  0  0  0  0  0
  -23.7682  -35.2167   23.9094 C   0  0  2  0  0  0  0  0  0  0  0  0
  -19.5762  -25.6785   22.0748 C   0  0  1  0  0  0  0  0  0  0  0  0
  -26.6306  -31.6424   25.2676 C   0  0  0  0  0  0  0  0  0  0  0  0
  -25.9385  -17.4463   20.9307 N   0  0  0  0  0  0  0  0  0  0  0  0
  -25.7092  -18.7247   21.2758 N   0  0  0  0  0  0  0  0  0  0  0  0
  -25.7457  -30.7206   21.9161 N   0  0  0  0  0  0  0  0  0  0  0  0
  -23.2697  -19.3617   24.1605 N   0  0  0  0  0  0  0  0  0  0  0  0
  -22.3494  -20.3037   26.1443 N   0  0  0  0  0  0  0  0  0  0  0  0
  -19.4649  -25.1375   23.4208 N   0  0  1  0  0  0  0  0  0  0  0  0
  -26.6559  -20.8953   21.2196 N   0  0  0  0  0  0  0  0  0  0  0  0
  -29.8037  -18.3340   19.2379 N   0  0  0  0  0  0  0  0  0  0  0  0
  -27.9017  -28.4117   20.0948 N   0  0  0  0  0  0  0  0  0  0  0  0
  -25.2860  -33.3601   23.9849 N   0  0  0  0  0  0  0  0  0  0  0  0
  -17.5916  -27.1117   22.4512 N   0  3  0  0  0  0  0  0  0  0  0  0
  -21.3376  -23.0116   25.6594 N   0  3  0  0  0  0  0  0  0  0  0  0
  -22.5393  -35.5515   23.1357 N   0  3  0  0  0  0  0  0  0  0  0  0
  -29.2842  -20.4677   19.8982 O   0  0  0  0  0  0  0  0  0  0  0  0
  -26.9965  -28.5144   22.2378 O   0  0  0  0  0  0  0  0  0  0  0  0
  -27.4254  -32.2523   22.4344 O   0  0  0  0  0  0  0  0  0  0  0  0
  -23.0085  -32.9265   24.0334 O   0  0  0  0  0  0  0  0  0  0  0  0
  -24.0416  -21.3433   25.0534 O   0  0  0  0  0  0  0  0  0  0  0  0
  -29.5095  -12.8395   18.3667 O   0  0  0  0  0  0  0  0  0  0  0  0
  -20.6479  -27.4204   20.7887 O   0  0  0  0  0  0  0  0  0  1  0  0
  -29.3049   -8.3171   21.5146 F   0  0  0  0  0  0  0  0  0  0  0  0
  -31.8282  -11.5983   19.2186 F   0  0  0  0  0  0  0  0  0  0  0  0
  1  2  1  0  0  0  0
  1  5  2  0  0  0  0
  2  6  2  0  0  0  0
  3  8  2  0  0  0  0
  3 15  1  0  0  0  0
  4  9  1  0  0  0  0
  4 15  2  0  0  0  0
  5 17  1  0  0  0  0
  6 19  1  0  0  0  0
  7 10  2  0  0  0  0
  7 18  1  0  0  0  0
  8 21  1  0  0  0  0
  9 21  2  0  0  0  0
 10 22  1  0  0  0  0
 11 12  2  0  0  0  0
 11 23  1  0  0  0  0
 12 24  1  0  0  0  0
 13 20  1  0  0  0  0
 13 22  2  0  0  0  0
 14 24  2  0  0  0  0
 14 25  1  0  0  0  0
 15 26  1  0  0  0  0
 16 26  1  0  0  0  0
 16 27  2  0  0  0  0
 16 28  1  0  0  0  0
 17 19  2  0  0  0  0
 17 33  1  0  0  0  0
 18 20  2  0  0  0  0
 18 34  1  0  0  0  0
 19 47  1  0  0  0  0
 20 35  1  0  0  0  0
 21 82  1  0  0  0  0
 22 83  1  0  0  0  0
 23 25  2  0  0  0  0
 23 82  1  0  0  0  0
 24 84  1  0  0  0  0
 25 85  1  0  0  0  0
 26 64  2  0  0  0  0
 27 65  1  0  0  0  0
 27 70  1  0  0  0  0
 28 71  1  0  0  0  0
 28 77  2  0  0  0  0
 29 48  1  0  0  0  0
 29 72  1  0  0  0  0
 29 78  2  0  0  0  0
 30 60  1  0  0  0  0
 30 66  1  0  0  0  0
 30 79  2  0  0  0  0
 31 61  1  0  0  0  0
 31 73  1  0  0  0  0
 31 80  2  0  0  0  0
 32 67  1  0  0  0  0
 32 68  1  0  0  0  0
 32 81  2  0  0  0  0
 33 36  1  0  0  0  0
 34 48  1  0  0  0  0
 35 66  1  0  0  0  0
 36 38  1  0  0  0  0
 37 39  1  0  0  0  0
 37 42  1  0  0  0  0
 38 47  1  0  0  0  0
 39 49  1  0  0  0  0
 40 43  1  0  0  0  0
 40 50  1  0  0  0  0
 41 44  1  0  0  0  0
 41 51  1  0  0  0  0
 42 67  1  0  0  0  0
 43 69  1  0  0  0  0
 44 68  1  0  0  0  0
 45 49  1  0  0  0  0
 45 67  1  0  0  0  0
 46 50  1  0  0  0  0
 46 69  1  0  0  0  0
 47 72  1  0  0  0  0
 48 66  1  0  0  0  0
 49 65  1  0  0  0  0
 50 75  1  0  0  0  0
 51 57  1  0  0  0  0
 51 68  1  0  0  0  0
 52 61  1  0  0  0  0
 53 63  1  0  0  0  0
 54 63  1  0  0  0  0
 55 63  1  0  0  0  0
 56 76  1  0  0  0  0
 57 75  1  0  0  0  0
 58 62  1  0  0  0  0
 58 74  1  0  0  0  0
 59 62  1  0  0  0  0
 59 83  1  0  0  0  0
 60 63  1  0  0  0  0
 60 73  1  0  0  0  0
 61 76  1  0  0  0  0
 62 69  1  0  0  0  0
 64 65  1  0  0  0  0
M  CHG  3  74   1  75   1  76   1
M  ISO  4  32 100  59 101  68 100  83 101
M  END
> <Batch ID>
0192

> <Smiles>
CNC(C)C(=O)NC(C(=O)N1Cc2cc([101O:1][101CH2:1]C(CN)N3CCC(NCC4CC[100N:0]4[100C:0](=O)N4CCCC(n5nc(-c6ccc(Oc7ccc(F)cc7F)cc6)c(C(N)=O)c5N)C4)C3)ccc2CC1C(=O)NC1CCCc2ccccc21)C(C)(C)C

> <Shape>
0.272

> <Color>
0.069

> <Negative vol penalty>
0.000

$$$$

  -OEChem-04052323293D

 81 90  0     1  0  0  0  0  0999 V2000
  -27.6656  -11.1256   22.6327 C   0  0  0  0  0  0  0  0  0  0  0  0
  -28.3432  -12.2909   22.2886 C   0  0  0  0  0  0  0  0  0  0  0  0
  -22.1637  -27.9933   22.7539 C   0  0  0  0  0  0  0  0  0  0  0  0
  -21.3408  -30.2642   22.8064 C   0  0  0  0  0  0  0  0  0  0  0  0
  -26.3886  -10.8877   22.1262 C   0  0  0  0  0  0  0  0  0  0  0  0
  -27.7445  -13.2185   21.4368 C   0  0  0  0  0  0  0  0  0  0  0  0
  -28.3180  -19.3123   21.6430 C   0  0  0  0  0  0  0  0  0  0  0  0
  -21.0638  -27.5774   23.5042 C   0  0  0  0  0  0  0  0  0  0  0  0
  -20.2409  -29.8484   23.5567 C   0  0  0  0  0  0  0  0  0  0  0  0
  -29.1165  -20.2040   20.9282 C   0  0  0  0  0  0  0  0  0  0  0  0
  -17.7989  -26.8835   22.9645 C   0  0  0  0  0  0  0  0  0  0  0  0
  -17.1366  -25.7255   22.5570 C   0  0  0  0  0  0  0  0  0  0  0  0
  -27.2900  -20.6095   19.4054 C   0  0  0  0  0  0  0  0  0  0  0  0
  -17.6216  -24.6979   24.6892 C   0  0  0  0  0  0  0  0  0  0  0  0
  -29.8014  -24.6793   17.6802 C   0  0  0  0  0  0  0  0  0  0  0  0
  -22.3022  -29.3367   22.4050 C   0  0  0  0  0  0  0  0  0  0  0  0
  -23.5345  -29.8345   20.2275 C   0  0  0  0  0  0  0  0  0  0  0  0
  -25.7700  -11.8174   21.2755 C   0  0  0  0  0  0  0  0  0  0  0  0
  -27.0008  -19.0538   21.2374 C   0  0  0  0  0  0  0  0  0  0  0  0
  -26.4585  -12.9922   20.9174 C   0  0  0  0  0  0  0  0  0  0  0  0
  -26.4760  -19.7160   20.1183 C   0  0  0  0  0  0  0  0  0  0  0  0
  -20.1025  -28.5049   23.9056 C   0  0  0  0  0  0  0  0  0  0  0  0
  -28.6035  -20.8506   19.8075 C   0  0  0  0  0  0  0  0  0  0  0  0
  -18.3726  -26.9487   24.2343 C   0  0  0  0  0  0  0  0  0  0  0  0
  -17.0480  -24.6327   23.4194 C   0  0  0  0  0  0  0  0  0  0  0  0
  -18.2839  -25.8560   25.0966 C   0  0  0  0  0  0  0  0  0  0  0  0
  -23.4384  -29.7670   21.6304 C   0  0  0  0  0  0  0  0  0  0  0  0
  -30.7981  -24.2275   18.5565 C   0  0  0  0  0  0  0  0  0  0  0  0
  -24.8047  -30.3011   19.9924 C   0  0  0  0  0  0  0  0  0  0  0  0
  -22.5624  -29.5049   19.2264 C   0  0  0  0  0  0  0  0  0  0  0  0
  -25.4210  -16.4762   20.2555 C   0  0  0  0  0  0  0  0  0  0  0  0
  -22.8680  -18.4736   20.3765 C   0  0  0  0  0  0  0  0  0  0  0  0
  -21.6876  -21.6748   20.2984 C   0  0  0  0  0  0  0  0  0  0  0  0
  -30.1555  -29.7741   22.2181 C   0  0  0  0  0  0  0  0  0  0  0  0
  -24.4076  -11.4943   20.7152 C   0  0  0  0  0  0  0  0  0  0  0  0
  -26.1437  -18.1094   22.0349 C   0  0  0  0  0  0  0  0  0  0  0  0
  -25.0616  -19.4886   19.6533 C   0  0  0  0  0  0  0  0  0  0  0  0
  -23.6923  -12.7034   20.1179 C   0  0  0  0  0  0  0  0  0  0  0  0
  -28.1737  -32.7614   22.6489 C   0  0  0  0  0  0  0  0  0  0  0  0
  -24.6386  -13.4934   19.2196 C   0  0  0  0  0  0  0  0  0  0  0  0
  -26.7537  -32.2963   22.3207 C   0  0  0  0  0  0  0  0  0  0  0  0
  -28.9959  -31.6596   23.3157 C   0  0  0  0  0  0  0  0  0  0  0  0
  -27.6067  -29.9233   22.2617 C   0  0  0  0  0  0  0  0  0  0  0  0
  -31.1943  -27.8067   20.9660 C   0  0  0  0  0  0  0  0  0  0  0  0
  -29.1446  -28.0770   20.5003 C   0  0  0  0  0  0  0  0  0  0  0  0
  -25.8324  -14.0340   20.0159 C   0  0  1  0  0  0  0  0  0  0  0  0
  -24.9830  -17.5320   21.2307 C   0  0  1  0  0  0  0  0  0  0  0  0
  -26.7698  -30.9784   21.5234 C   0  0  1  0  0  0  0  0  0  0  0  0
  -30.3699  -27.6208   19.6715 C   0  0  0  0  0  0  0  0  0  0  0  0
  -19.5516  -22.9893   20.3812 C   0  0  0  0  0  0  0  0  0  0  0  0
  -22.2780  -17.6922   17.4867 C   0  0  0  0  0  0  0  0  0  0  0  0
  -20.7729  -19.6866   17.3279 C   0  0  0  0  0  0  0  0  0  0  0  0
  -20.2597  -17.8652   18.9534 C   0  0  0  0  0  0  0  0  0  0  0  0
  -22.5159  -23.0861   22.7644 C   0  0  0  0  0  0  0  0  0  0  0  0
  -31.4524  -22.8697   18.6368 C   0  0  0  0  0  0  0  0  0  0  0  0
  -30.7129  -21.9245   19.5775 C   0  0  0  0  0  0  0  0  0  1  0  0
  -22.2028  -19.4185   19.4050 C   0  0  1  0  0  0  0  0  0  0  0  0
  -20.7002  -22.4063   21.1897 C   0  0  2  0  0  0  0  0  0  0  0  0
  -21.4057  -18.6686   18.3006 C   0  0  0  0  0  0  0  0  0  0  0  0
  -29.5038  -25.9533   17.9506 N   0  0  0  0  0  0  0  0  0  0  0  0
  -24.5584  -30.1592   22.2434 N   0  0  0  0  0  0  0  0  0  0  0  0
  -31.1456  -25.2101   19.3924 N   0  0  0  0  0  0  0  0  0  0  0  0
  -25.3703  -30.4775   21.2209 N   0  0  0  0  0  0  0  0  0  0  0  0
  -30.3384  -26.1979   18.9738 N   0  0  0  0  0  0  0  0  0  0  0  0
  -24.2652  -18.5514   20.4626 N   0  0  0  0  0  0  0  0  0  0  0  0
  -28.9595  -30.4306   22.5191 N   0  0  0  0  0  0  0  0  0  0  0  0
  -30.0976  -28.6422   21.4402 N   0  0  0  0  0  0  0  0  0  0  0  0
  -25.4819  -30.5734   18.8568 N   0  0  0  0  0  0  0  0  0  0  0  0
  -21.3072  -29.0397   19.6415 N   0  0  0  0  0  0  0  0  0  0  0  0
  -25.4433  -15.1987   20.7818 N   0  0  0  0  0  0  0  0  0  0  0  0
  -21.3963  -20.3300   20.2095 N   0  0  0  0  0  0  0  0  0  0  0  0
  -21.3796  -23.5193   21.9111 N   0  3  0  0  0  0  0  0  0  0  0  0
  -22.8056  -29.6040   17.9998 O   0  0  0  0  0  0  0  0  0  0  0  0
  -25.7154  -16.7966   19.1099 O   0  0  0  0  0  0  0  0  0  0  0  0
  -22.1728  -17.7001   21.0399 O   0  0  0  0  0  0  0  0  0  0  0  0
  -22.6216  -22.2405   19.7344 O   0  0  0  0  0  0  0  0  0  0  0  0
  -31.2503  -30.2025   22.6067 O   0  0  0  0  0  0  0  0  0  0  0  0
  -19.0290  -28.0994   24.6376 O   0  0  0  0  0  0  0  0  0  0  0  0
  -29.3810  -21.7209   19.1076 O   0  0  0  0  0  0  0  0  0  1  0  0
  -16.4107  -23.5213   23.0285 F   0  0  0  0  0  0  0  0  0  0  0  0
  -18.8320  -25.9132   26.3181 F   0  0  0  0  0  0  0  0  0  0  0  0
  1  2  1  0  0  0  0
  1  5  2  0  0  0  0
  2  6  2  0  0  0  0
  3  8  2  0  0  0  0
  3 16  1  0  0  0  0
  4  9  1  0  0  0  0
  4 16  2  0  0  0  0
  5 18  1  0  0  0  0
  6 20  1  0  0  0  0
  7 10  2  0  0  0  0
  7 19  1  0  0  0  0
  8 22  1  0  0  0  0
  9 22  2  0  0  0  0
 10 23  1  0  0  0  0
 11 12  2  0  0  0  0
 11 24  1  0  0  0  0
 12 25  1  0  0  0  0
 13 21  1  0  0  0  0
 13 23  2  0  0  0  0
 14 25  2  0  0  0  0
 14 26  1  0  0  0  0
 15 28  1  0  0  0  0
 15 60  2  0  0  0  0
 16 27  1  0  0  0  0
 17 27  1  0  0  0  0
 17 29  2  0  0  0  0
 17 30  1  0  0  0  0
 18 20  2  0  0  0  0
 18 35  1  0  0  0  0
 19 21  2  0  0  0  0
 19 36  1  0  0  0  0
 20 46  1  0  0  0  0
 21 37  1  0  0  0  0
 22 78  1  0  0  0  0
 23 79  1  0  0  0  0
 24 26  2  0  0  0  0
 24 78  1  0  0  0  0
 25 80  1  0  0  0  0
 26 81  1  0  0  0  0
 27 61  2  0  0  0  0
 28 55  1  0  0  0  0
 28 62  2  0  0  0  0
 29 63  1  0  0  0  0
 29 68  1  0  0  0  0
 30 69  1  0  0  0  0
 30 73  2  0  0  0  0
 31 47  1  0  0  0  0
 31 70  1  0  0  0  0
 31 74  2  0  0  0  0
 32 57  1  0  0  0  0
 32 65  1  0  0  0  0
 32 75  2  0  0  0  0
 33 58  1  0  0  0  0
 33 71  1  0  0  0  0
 33 76  2  0  0  0  0
 34 66  1  0  0  0  0
 34 67  1  0  0  0  0
 34 77  2  0  0  0  0
 35 38  1  0  0  0  0
 36 47  1  0  0  0  0
 37 65  1  0  0  0  0
 38 40  1  0  0  0  0
 39 41  1  0  0  0  0
 39 42  1  0  0  0  0
 40 46  1  0  0  0  0
 41 48  1  0  0  0  0
 42 66  1  0  0  0  0
 43 48  1  0  0  0  0
 43 66  1  0  0  0  0
 44 49  1  0  0  0  0
 44 67  1  0  0  0  0
 45 49  1  0  0  0  0
 45 67  1  0  0  0  0
 46 70  1  0  0  0  0
 47 65  1  0  0  0  0
 48 63  1  0  0  0  0
 49 64  1  0  0  0  0
 50 58  1  0  0  0  0
 51 59  1  0  0  0  0
 52 59  1  0  0  0  0
 53 59  1  0  0  0  0
 54 72  1  0  0  0  0
 55 56  1  0  0  0  0
 56 79  1  0  0  0  0
 57 59  1  0  0  0  0
 57 71  1  0  0  0  0
 58 72  1  0  0  0  0
 60 64  1  0  0  0  0
 61 63  1  0  0  0  0
 62 64  1  0  0  0  0
M  CHG  1  72   1
M  ISO  4  34 100  56 101  67 100  79 101
M  END
> <Batch ID>
0192

> <Smiles>
CNC(C)C(=O)NC(C(=O)N1Cc2cc([101O:1][101CH2:1]Cc3cnn(C4C[100N:0]([100C:0](=O)N5CCCC(n6nc(-c7ccc(Oc8ccc(F)cc8F)cc7)c(C(N)=O)c6N)C5)C4)n3)ccc2CC1C(=O)NC1CCCc2ccccc21)C(C)(C)C

> <Shape>
0.236

> <Color>
0.073

> <Negative vol penalty>
0.000

$$$$

  -OEChem-04052323293D

 85 95  0     1  0  0  0  0  0999 V2000
  -28.4075  -11.8365   22.5288 C   0  0  0  0  0  0  0  0  0  0  0  0
  -28.8078  -13.1071   22.1278 C   0  0  0  0  0  0  0  0  0  0  0  0
  -30.1556  -23.7552   19.7911 C   0  0  0  0  0  0  0  0  0  0  0  0
  -27.9393  -23.8265   18.8320 C   0  0  0  0  0  0  0  0  0  0  0  0
  -27.1716  -11.3354   22.1222 C   0  0  0  0  0  0  0  0  0  0  0  0
  -27.9727  -13.8770   21.3189 C   0  0  0  0  0  0  0  0  0  0  0  0
  -25.1194  -21.0566   22.4761 C   0  0  0  0  0  0  0  0  0  0  0  0
  -30.1221  -22.3611   19.7651 C   0  0  0  0  0  0  0  0  0  0  0  0
  -27.9058  -22.4323   18.8059 C   0  0  0  0  0  0  0  0  0  0  0  0
  -24.4268  -22.2564   22.6400 C   0  0  0  0  0  0  0  0  0  0  0  0
  -28.7619  -19.8680   21.5979 C   0  0  0  0  0  0  0  0  0  0  0  0
  -29.1997  -19.1886   22.7347 C   0  0  0  0  0  0  0  0  0  0  0  0
  -22.6645  -21.4491   21.1942 C   0  0  0  0  0  0  0  0  0  0  0  0
  -30.9127  -18.0998   21.4243 C   0  0  0  0  0  0  0  0  0  0  0  0
  -21.0447  -25.9059   23.7509 C   0  0  0  0  0  0  0  0  0  0  0  0
  -29.0642  -24.4880   19.3246 C   0  0  0  0  0  0  0  0  0  0  0  0
  -29.5641  -26.7869   18.3382 C   0  0  0  0  0  0  0  0  0  0  0  0
  -26.3168  -12.1034   21.3158 C   0  0  0  0  0  0  0  0  0  0  0  0
  -24.5791  -20.0413   21.6819 C   0  0  0  0  0  0  0  0  0  0  0  0
  -26.7247  -13.3852   20.9000 C   0  0  0  0  0  0  0  0  0  0  0  0
  -23.3477  -20.2403   21.0363 C   0  0  0  0  0  0  0  0  0  0  0  0
  -20.5592  -27.1646   23.4932 C   0  0  0  0  0  0  0  0  0  0  0  0
  -28.9972  -21.6996   19.2724 C   0  0  0  0  0  0  0  0  0  0  0  0
  -23.2025  -22.4522   22.0005 C   0  0  0  0  0  0  0  0  0  0  0  0
  -29.3995  -19.6633   20.3742 C   0  0  0  0  0  0  0  0  0  0  0  0
  -30.2751  -18.3045   22.6479 C   0  0  0  0  0  0  0  0  0  0  0  0
  -30.4749  -18.7792   20.2874 C   0  0  0  0  0  0  0  0  0  0  0  0
  -29.0981  -25.9282   19.3518 C   0  0  0  0  0  0  0  0  0  0  0  0
  -21.5118  -27.7395   22.6308 C   0  0  0  0  0  0  0  0  0  0  0  0
  -29.3833  -28.0495   18.8478 C   0  0  0  0  0  0  0  0  0  0  0  0
  -30.1114  -26.4714   17.0511 C   0  0  0  0  0  0  0  0  0  0  0  0
  -24.9569  -16.5739   20.2999 C   0  0  0  0  0  0  0  0  0  0  0  0
  -22.0086  -16.9061   21.0792 C   0  0  0  0  0  0  0  0  0  0  0  0
  -18.9494  -17.5282   22.4547 C   0  0  0  0  0  0  0  0  0  0  0  0
  -25.6570  -30.2899   22.9644 C   0  0  0  0  0  0  0  0  0  0  0  0
  -25.0107  -11.5006   20.8625 C   0  0  0  0  0  0  0  0  0  0  0  0
  -25.3195  -18.7564   21.4276 C   0  0  0  0  0  0  0  0  0  0  0  0
  -22.8215  -19.1336   20.1638 C   0  0  0  0  0  0  0  0  0  0  0  0
  -24.0234  -12.5278   20.3146 C   0  0  0  0  0  0  0  0  0  0  0  0
  -29.2148  -30.4235   22.9983 C   0  0  0  0  0  0  0  0  0  0  0  0
  -19.3460  -29.0951   24.7867 C   0  0  0  0  0  0  0  0  0  0  0  0
  -19.0616  -27.8328   25.5389 C   0  0  0  0  0  0  0  0  0  0  0  0
  -24.7215  -13.4738   19.3427 C   0  0  0  0  0  0  0  0  0  0  0  0
  -29.6303  -29.3641   21.9761 C   0  0  0  0  0  0  0  0  0  0  0  0
  -21.7500  -30.9697   20.7104 C   0  0  0  0  0  0  0  0  0  0  0  0
  -23.1646  -31.5497   20.9242 C   0  0  0  0  0  0  0  0  0  0  0  0
  -27.9765  -29.9957   23.7829 C   0  0  0  0  0  0  0  0  0  0  0  0
  -27.2364  -28.5483   21.9306 C   0  0  0  0  0  0  0  0  0  0  0  0
  -19.2788  -27.7753   24.0352 C   0  0  0  0  0  0  0  0  0  0  0  0
  -25.8361  -14.2604   20.0430 C   0  0  1  0  0  0  0  0  0  0  0  0
  -24.3874  -17.5383   21.2984 C   0  0  1  0  0  0  0  0  0  0  0  0
  -28.4476  -28.9590   21.0759 C   0  0  2  0  0  0  0  0  0  0  0  0
  -22.2933  -29.6404   21.2780 C   0  0  1  0  0  0  0  0  0  0  0  0
  -23.3580  -30.4802   22.0266 C   0  0  1  0  0  0  0  0  0  0  0  0
  -16.6991  -16.4761   22.8109 C   0  0  0  0  0  0  0  0  0  0  0  0
  -21.3138  -17.4098   18.1522 C   0  0  0  0  0  0  0  0  0  0  0  0
  -18.8933  -17.2626   18.7750 C   0  0  0  0  0  0  0  0  0  0  0  0
  -20.3841  -15.2884   19.0953 C   0  0  0  0  0  0  0  0  0  0  0  0
  -19.2108  -17.6900   25.3982 C   0  0  0  0  0  0  0  0  0  0  0  0
  -23.1287  -24.6128   23.0109 C   0  0  0  0  0  0  0  0  0  1  0  0
  -20.6171  -17.2802   20.6349 C   0  0  1  0  0  0  0  0  0  0  0  0
  -18.0830  -16.7111   23.3961 C   0  0  2  0  0  0  0  0  0  0  0  0
  -20.3192  -16.8291   19.1771 C   0  0  0  0  0  0  0  0  0  0  0  0
  -28.6547  -26.5895   20.4243 N   0  0  0  0  0  0  0  0  0  0  0  0
  -22.5260  -26.9139   22.3590 N   0  0  0  0  0  0  0  0  0  0  0  0
  -22.2134  -25.8074   23.0547 N   0  0  0  0  0  0  0  0  0  0  0  0
  -28.8414  -27.8770   20.0875 N   0  0  0  0  0  0  0  0  0  0  0  0
  -23.0252  -17.8342   20.8231 N   0  0  0  0  0  0  0  0  0  0  0  0
  -26.8914  -29.6262   22.8708 N   0  0  0  0  0  0  0  0  0  0  0  0
  -29.6366  -29.2792   18.3520 N   0  0  0  0  0  0  0  0  0  0  0  0
  -30.2267  -25.1231   16.6864 N   0  0  0  0  0  0  0  0  0  0  0  0
  -21.3713  -29.0024   22.1495 N   0  0  0  0  0  0  0  0  0  0  0  0
  -25.2762  -15.3383   20.8299 N   0  0  0  0  0  0  0  0  0  0  0  0
  -19.7073  -16.7236   21.6304 N   0  0  0  0  0  0  0  0  0  0  0  0
  -24.6851  -29.8832   22.0585 N   0  0  0  0  0  0  0  0  0  0  0  0
  -17.9284  -17.4153   24.7003 N   0  3  0  0  0  0  0  0  0  0  0  0
  -30.5023  -27.3584   16.2549 O   0  0  0  0  0  0  0  0  0  0  0  0
  -25.0954  -16.9233   19.1335 O   0  0  0  0  0  0  0  0  0  0  0  0
  -22.1929  -15.8189   21.6335 O   0  0  0  0  0  0  0  0  0  0  0  0
  -18.9507  -18.7572   22.4485 O   0  0  0  0  0  0  0  0  0  0  0  0
  -25.4391  -31.1829   23.7903 O   0  0  0  0  0  0  0  0  0  0  0  0
  -28.9642  -20.3391   19.2467 O   0  0  0  0  0  0  0  0  0  0  0  0
  -22.5295  -23.6242   22.1685 O   0  0  0  0  0  0  0  0  0  1  0  0
  -30.6964  -17.6533   23.7400 F   0  0  0  0  0  0  0  0  0  0  0  0
  -31.0922  -18.5793   19.1149 F   0  0  0  0  0  0  0  0  0  0  0  0
  1  2  1  0  0  0  0
  1  5  2  0  0  0  0
  2  6  2  0  0  0  0
  3  8  2  0  0  0  0
  3 16  1  0  0  0  0
  4  9  1  0  0  0  0
  4 16  2  0  0  0  0
  5 18  1  0  0  0  0
  6 20  1  0  0  0  0
  7 10  2  0  0  0  0
  7 19  1  0  0  0  0
  8 23  1  0  0  0  0
  9 23  2  0  0  0  0
 10 24  1  0  0  0  0
 11 12  2  0  0  0  0
 11 25  1  0  0  0  0
 12 26  1  0  0  0  0
 13 21  1  0  0  0  0
 13 24  2  0  0  0  0
 14 26  2  0  0  0  0
 14 27  1  0  0  0  0
 15 22  2  0  0  0  0
 15 66  1  0  0  0  0
 16 28  1  0  0  0  0
 17 28  1  0  0  0  0
 17 30  2  0  0  0  0
 17 31  1  0  0  0  0
 18 20  2  0  0  0  0
 18 36  1  0  0  0  0
 19 21  2  0  0  0  0
 19 37  1  0  0  0  0
 20 50  1  0  0  0  0
 21 38  1  0  0  0  0
 22 29  1  0  0  0  0
 22 49  1  0  0  0  0
 23 82  1  0  0  0  0
 24 83  1  0  0  0  0
 25 27  2  0  0  0  0
 25 82  1  0  0  0  0
 26 84  1  0  0  0  0
 27 85  1  0  0  0  0
 28 64  2  0  0  0  0
 29 65  2  0  0  0  0
 29 72  1  0  0  0  0
 30 67  1  0  0  0  0
 30 70  1  0  0  0  0
 31 71  1  0  0  0  0
 31 77  2  0  0  0  0
 32 51  1  0  0  0  0
 32 73  1  0  0  0  0
 32 78  2  0  0  0  0
 33 61  1  0  0  0  0
 33 68  1  0  0  0  0
 33 79  2  0  0  0  0
 34 62  1  0  0  0  0
 34 74  1  0  0  0  0
 34 80  2  0  0  0  0
 35 69  1  0  0  0  0
 35 75  1  0  0  0  0
 35 81  2  0  0  0  0
 36 39  1  0  0  0  0
 37 51  1  0  0  0  0
 38 68  1  0  0  0  0
 39 43  1  0  0  0  0
 40 44  1  0  0  0  0
 40 47  1  0  0  0  0
 41 42  1  0  0  0  0
 41 49  1  0  0  0  0
 42 49  1  0  0  0  0
 43 50  1  0  0  0  0
 44 52  1  0  0  0  0
 45 46  1  0  0  0  0
 45 53  1  0  0  0  0
 46 54  1  0  0  0  0
 47 69  1  0  0  0  0
 48 52  1  0  0  0  0
 48 69  1  0  0  0  0
 50 73  1  0  0  0  0
 51 68  1  0  0  0  0
 52 67  1  0  0  0  0
 53 54  1  0  0  0  0
 53 72  1  0  0  0  0
 54 75  1  0  0  0  0
 55 62  1  0  0  0  0
 56 63  1  0  0  0  0
 57 63  1  0  0  0  0
 58 63  1  0  0  0  0
 59 76  1  0  0  0  0
 60 66  1  0  0  0  0
 60 83  1  0  0  0  0
 61 63  1  0  0  0  0
 61 74  1  0  0  0  0
 62 76  1  0  0  0  0
 64 67  1  0  0  0  0
 65 66  1  0  0  0  0
M  CHG  1  76   1
M  ISO  4  35 100  60 101  75 100  83 101
M  END
> <Batch ID>
0192

> <Smiles>
CNC(C)C(=O)NC(C(=O)N1Cc2cc([101O:1][101CH2:1]n3cc(C4CC4)c(NC4CCC4[100NH:0][100C:0](=O)N4CCCC(n5nc(-c6ccc(Oc7ccc(F)cc7F)cc6)c(C(N)=O)c5N)C4)n3)ccc2CC1C(=O)NC1CCCc2ccccc21)C(C)(C)C

> <Shape>
0.225

> <Color>
0.074

> <Negative vol penalty>
0.000

$$$$

  -OEChem-04052323293D

 82 90  0     1  0  0  0  0  0999 V2000
  -22.8658  -23.6649   21.6467 C   0  0  0  0  0  0  0  0  0  0  0  0
  -24.0446  -22.9277   21.6949 C   0  0  0  0  0  0  0  0  0  0  0  0
  -24.6978  -29.2444   22.5273 C   0  0  0  0  0  0  0  0  0  0  0  0
  -24.8960  -30.7365   20.6375 C   0  0  0  0  0  0  0  0  0  0  0  0
  -21.6572  -23.0691   22.0048 C   0  0  0  0  0  0  0  0  0  0  0  0
  -24.0156  -21.5944   22.1022 C   0  0  0  0  0  0  0  0  0  0  0  0
  -26.8031  -18.5925   19.1249 C   0  0  0  0  0  0  0  0  0  0  0  0
  -24.3035  -30.3142   23.3307 C   0  0  0  0  0  0  0  0  0  0  0  0
  -24.5017  -31.8064   21.4409 C   0  0  0  0  0  0  0  0  0  0  0  0
  -28.1842  -18.6129   19.3144 C   0  0  0  0  0  0  0  0  0  0  0  0
  -23.8950  -34.9938   23.0787 C   0  0  0  0  0  0  0  0  0  0  0  0
  -24.6167  -36.1829   22.9750 C   0  0  0  0  0  0  0  0  0  0  0  0
  -28.0319  -16.5764   20.5985 C   0  0  0  0  0  0  0  0  0  0  0  0
  -26.6249  -35.0231   23.6527 C   0  0  0  0  0  0  0  0  0  0  0  0
  -24.9941  -29.4555   21.1806 C   0  0  0  0  0  0  0  0  0  0  0  0
  -24.5704  -27.5035   19.5939 C   0  0  0  0  0  0  0  0  0  0  0  0
  -21.6120  -21.7250   22.4074 C   0  0  0  0  0  0  0  0  0  0  0  0
  -26.0234  -17.5682   19.6809 C   0  0  0  0  0  0  0  0  0  0  0  0
  -22.8055  -20.9804   22.4672 C   0  0  0  0  0  0  0  0  0  0  0  0
  -26.6414  -16.5440   20.4124 C   0  0  0  0  0  0  0  0  0  0  0  0
  -24.2054  -31.5952   22.7875 C   0  0  0  0  0  0  0  0  0  0  0  0
  -28.7985  -17.6063   20.0537 C   0  0  0  0  0  0  0  0  0  0  0  0
  -24.5382  -33.8193   23.4694 C   0  0  0  0  0  0  0  0  0  0  0  0
  -25.9817  -36.1975   23.2620 C   0  0  0  0  0  0  0  0  0  0  0  0
  -25.9031  -33.8340   23.7564 C   0  0  0  0  0  0  0  0  0  0  0  0
  -25.4021  -28.3508   20.3504 C   0  0  0  0  0  0  0  0  0  0  0  0
  -25.4351  -26.6242   18.9892 C   0  0  0  0  0  0  0  0  0  0  0  0
  -23.1439  -27.5107   19.4505 C   0  0  0  0  0  0  0  0  0  0  0  0
  -23.6639  -17.4476   21.8075 C   0  0  0  0  0  0  0  0  0  0  0  0
  -23.5780  -14.3191   20.9544 C   0  0  0  0  0  0  0  0  0  0  0  0
  -25.2206  -11.6238   19.6568 C   0  0  0  0  0  0  0  0  0  0  0  0
  -30.4004  -23.9407   20.4630 C   0  0  0  0  0  0  0  0  0  0  0  0
  -20.2887  -21.1380   22.8303 C   0  0  0  0  0  0  0  0  0  0  0  0
  -24.5380  -17.5460   19.4448 C   0  0  0  0  0  0  0  0  0  0  0  0
  -25.8518  -15.4108   21.0131 C   0  0  0  0  0  0  0  0  0  0  0  0
  -20.2907  -19.6127   22.8916 C   0  0  0  0  0  0  0  0  0  0  0  0
  -30.2604  -26.6444   17.9280 C   0  0  0  0  0  0  0  0  0  0  0  0
  -21.5334  -19.1093   23.6190 C   0  0  0  0  0  0  0  0  0  0  0  0
  -28.9212  -27.3019   18.2643 C   0  0  0  0  0  0  0  0  0  0  0  0
  -32.4882  -21.9028   18.2269 C   0  0  0  0  0  0  0  0  0  0  0  0
  -30.9082  -26.0583   19.1758 C   0  0  0  0  0  0  0  0  0  0  0  0
  -31.8672  -23.2752   18.4681 C   0  0  0  0  0  0  0  0  0  0  0  0
  -28.7139  -25.7304   20.2502 C   0  0  0  0  0  0  0  0  0  0  0  0
  -32.0789  -22.1191   20.5652 C   0  0  0  0  0  0  0  0  0  0  0  0
  -22.8113  -19.5245   22.8800 C   0  0  1  0  0  0  0  0  0  0  0  0
  -23.7789  -16.7344   20.4900 C   0  0  1  0  0  0  0  0  0  0  0  0
  -28.0002  -26.3316   19.0264 C   0  0  1  0  0  0  0  0  0  0  0  0
  -33.1132  -21.6035   19.5813 C   0  0  1  0  0  0  0  0  0  0  0  0
  -24.9011   -9.1934   19.1197 C   0  0  0  0  0  0  0  0  0  0  0  0
  -35.3574  -17.7237   20.3595 C   0  0  0  0  0  0  0  0  0  0  0  0
  -23.8317  -13.6336   23.9168 C   0  0  0  0  0  0  0  0  0  0  0  0
  -24.4569  -11.3022   23.2522 C   0  0  0  0  0  0  0  0  0  0  0  0
  -22.2120  -12.2089   22.6513 C   0  0  0  0  0  0  0  0  0  0  0  0
  -25.7230  -12.0751   16.7753 C   0  0  0  0  0  0  0  0  0  0  0  0
  -31.9376  -17.7463   21.8343 C   0  0  0  0  0  0  0  0  0  0  0  0
  -34.0170  -19.7874   21.0385 C   0  0  0  0  0  0  0  0  0  0  0  0
  -30.6435  -17.0475   21.4463 C   0  0  0  0  0  0  0  0  0  1  0  0
  -24.2588  -13.0606   21.4358 C   0  0  1  0  0  0  0  0  0  0  0  0
  -24.8216  -10.6176   18.5924 C   0  0  2  0  0  0  0  0  0  0  0  0
  -34.1799  -18.2726   21.1594 C   0  0  1  0  0  0  0  0  0  0  0  0
  -23.7048  -12.5736   22.8044 C   0  0  0  0  0  0  0  0  0  0  0  0
  -26.6957  -28.0379   20.2383 N   0  0  0  0  0  0  0  0  0  0  0  0
  -26.6835  -26.9841   19.4044 N   0  0  0  0  0  0  0  0  0  0  0  0
  -24.4018  -15.4369   20.7598 N   0  0  0  0  0  0  0  0  0  0  0  0
  -29.9971  -25.1396   19.8642 N   0  0  0  0  0  0  0  0  0  0  0  0
  -31.4618  -23.2520   19.8774 N   0  0  0  0  0  0  0  0  0  0  0  0
  -25.2418  -25.5860   18.1483 N   0  0  0  0  0  0  0  0  0  0  0  0
  -22.4078  -28.4826   20.1417 N   0  0  0  0  0  0  0  0  0  0  0  0
  -23.0297  -18.6729   21.7305 N   0  0  0  0  0  0  0  0  0  0  0  0
  -24.1270  -12.0871   20.3572 N   0  0  0  0  0  0  0  0  0  0  0  0
  -32.9600  -17.5865   20.8029 N   0  0  0  0  0  0  0  0  0  0  0  0
  -33.3516  -20.1613   19.7551 N   0  3  0  0  0  0  0  0  0  0  0  0
  -25.7203  -10.7315   17.4091 N   0  3  0  0  0  0  0  0  0  0  0  0
  -22.5385  -26.6695   18.7438 O   0  0  0  0  0  0  0  0  0  0  0  0
  -24.1158  -16.9243   22.8192 O   0  0  0  0  0  0  0  0  0  0  0  0
  -22.3613  -14.3087   20.7515 O   0  0  0  0  0  0  0  0  0  0  0  0
  -26.3863  -11.9619   19.8502 O   0  0  0  0  0  0  0  0  0  0  0  0
  -29.8076  -23.4809   21.4479 O   0  0  0  0  0  0  0  0  0  0  0  0
  -23.8205  -32.6394   23.5711 O   0  0  0  0  0  0  0  0  0  0  0  0
  -30.1559  -17.6243   20.2421 O   0  0  0  0  0  0  0  0  0  1  0  0
  -26.6749  -37.3392   23.1609 F   0  0  0  0  0  0  0  0  0  0  0  0
  -26.5268  -32.7086   24.1311 F   0  0  0  0  0  0  0  0  0  0  0  0
  1  2  1  0  0  0  0
  1  5  2  0  0  0  0
  2  6  2  0  0  0  0
  3  8  2  0  0  0  0
  3 15  1  0  0  0  0
  4  9  1  0  0  0  0
  4 15  2  0  0  0  0
  5 17  1  0  0  0  0
  6 19  1  0  0  0  0
  7 10  2  0  0  0  0
  7 18  1  0  0  0  0
  8 21  1  0  0  0  0
  9 21  2  0  0  0  0
 10 22  1  0  0  0  0
 11 12  2  0  0  0  0
 11 23  1  0  0  0  0
 12 24  1  0  0  0  0
 13 20  1  0  0  0  0
 13 22  2  0  0  0  0
 14 24  2  0  0  0  0
 14 25  1  0  0  0  0
 15 26  1  0  0  0  0
 16 26  1  0  0  0  0
 16 27  2  0  0  0  0
 16 28  1  0  0  0  0
 17 19  2  0  0  0  0
 17 33  1  0  0  0  0
 18 20  2  0  0  0  0
 18 34  1  0  0  0  0
 19 45  1  0  0  0  0
 20 35  1  0  0  0  0
 21 79  1  0  0  0  0
 22 80  1  0  0  0  0
 23 25  2  0  0  0  0
 23 79  1  0  0  0  0
 24 81  1  0  0  0  0
 25 82  1  0  0  0  0
 26 62  2  0  0  0  0
 27 63  1  0  0  0  0
 27 67  1  0  0  0  0
 28 68  1  0  0  0  0
 28 74  2  0  0  0  0
 29 46  1  0  0  0  0
 29 69  1  0  0  0  0
 29 75  2  0  0  0  0
 30 58  1  0  0  0  0
 30 64  1  0  0  0  0
 30 76  2  0  0  0  0
 31 59  1  0  0  0  0
 31 70  1  0  0  0  0
 31 77  2  0  0  0  0
 32 65  1  0  0  0  0
 32 66  1  0  0  0  0
 32 78  2  0  0  0  0
 33 36  1  0  0  0  0
 34 46  1  0  0  0  0
 35 64  1  0  0  0  0
 36 38  1  0  0  0  0
 37 39  1  0  0  0  0
 37 41  1  0  0  0  0
 38 45  1  0  0  0  0
 39 47  1  0  0  0  0
 40 42  1  0  0  0  0
 40 48  1  0  0  0  0
 41 65  1  0  0  0  0
 42 66  1  0  0  0  0
 43 47  1  0  0  0  0
 43 65  1  0  0  0  0
 44 48  1  0  0  0  0
 44 66  1  0  0  0  0
 45 69  1  0  0  0  0
 46 64  1  0  0  0  0
 47 63  1  0  0  0  0
 48 72  1  0  0  0  0
 49 59  1  0  0  0  0
 50 60  1  0  0  0  0
 51 61  1  0  0  0  0
 52 61  1  0  0  0  0
 53 61  1  0  0  0  0
 54 73  1  0  0  0  0
 55 57  1  0  0  0  0
 55 71  1  0  0  0  0
 56 60  1  0  0  0  0
 56 72  1  0  0  0  0
 57 80  1  0  0  0  0
 58 61  1  0  0  0  0
 58 70  1  0  0  0  0
 59 73  1  0  0  0  0
 60 71  1  0  0  0  0
 62 63  1  0  0  0  0
M  CHG  2  72   1  73   1
M  ISO  4  32 100  57 101  66 100  80 101
M  END
> <Batch ID>
0192

> <Smiles>
CNC(C)C(=O)NC(C(=O)N1Cc2cc([101O:1][101CH2:1]CNC(C)CNC3CC[100N:0]([100C:0](=O)N4CCCC(n5nc(-c6ccc(Oc7ccc(F)cc7F)cc6)c(C(N)=O)c5N)C4)C3)ccc2CC1C(=O)NC1CCCc2ccccc21)C(C)(C)C

> <Shape>
0.238

> <Color>
0.069

> <Negative vol penalty>
0.000

$$$$

  -OEChem-04052323293D

 86 96  0     1  0  0  0  0  0999 V2000
  -22.8893  -37.3057   17.4147 C   0  0  0  0  0  0  0  0  0  0  0  0
  -23.2034  -36.0405   16.9290 C   0  0  0  0  0  0  0  0  0  0  0  0
  -25.4390   -9.6627   18.4180 C   0  0  0  0  0  0  0  0  0  0  0  0
  -27.1479   -9.4056   20.1063 C   0  0  0  0  0  0  0  0  0  0  0  0
  -23.4251  -37.7386   18.6269 C   0  0  0  0  0  0  0  0  0  0  0  0
  -24.0543  -35.2077   17.6549 C   0  0  0  0  0  0  0  0  0  0  0  0
  -25.1957  -28.2847   19.0991 C   0  0  0  0  0  0  0  0  0  0  0  0
  -25.8561   -8.4762   17.8150 C   0  0  0  0  0  0  0  0  0  0  0  0
  -27.5651   -8.2190   19.5033 C   0  0  0  0  0  0  0  0  0  0  0  0
  -26.2152  -27.3339   19.0781 C   0  0  0  0  0  0  0  0  0  0  0  0
  -26.2376   -5.3274   16.0388 C   0  0  0  0  0  0  0  0  0  0  0  0
  -25.2545   -4.4199   15.6445 C   0  0  0  0  0  0  0  0  0  0  0  0
  -27.0185  -28.1573   21.1985 C   0  0  0  0  0  0  0  0  0  0  0  0
  -24.4968   -4.2466   17.9321 C   0  0  0  0  0  0  0  0  0  0  0  0
  -31.5298  -24.0743   19.1078 C   0  0  0  0  0  0  0  0  0  0  0  0
  -26.0849  -10.1275   19.5637 C   0  0  0  0  0  0  0  0  0  0  0  0
  -24.6821  -11.4994   21.1939 C   0  0  0  0  0  0  0  0  0  0  0  0
  -24.2753  -36.9070   19.3727 C   0  0  0  0  0  0  0  0  0  0  0  0
  -25.0864  -29.1876   20.1665 C   0  0  0  0  0  0  0  0  0  0  0  0
  -24.6030  -35.6304   18.8776 C   0  0  0  0  0  0  0  0  0  0  0  0
  -25.9952  -29.1169   21.2319 C   0  0  0  0  0  0  0  0  0  0  0  0
  -31.3165  -22.7557   19.4547 C   0  0  0  0  0  0  0  0  0  0  0  0
  -26.9192   -7.7543   18.3576 C   0  0  0  0  0  0  0  0  0  0  0  0
  -27.1286  -27.2720   20.1265 C   0  0  0  0  0  0  0  0  0  0  0  0
  -26.3503   -5.6946   17.3798 C   0  0  0  0  0  0  0  0  0  0  0  0
  -24.3841   -3.8795   16.5911 C   0  0  0  0  0  0  0  0  0  0  0  0
  -25.4799   -5.1542   18.3264 C   0  0  0  0  0  0  0  0  0  0  0  0
  -25.6548  -11.3534   20.1868 C   0  0  0  0  0  0  0  0  0  0  0  0
  -29.9978  -22.3920   19.6361 C   0  0  0  0  0  0  0  0  0  0  0  0
  -24.6431  -12.8501   21.4403 C   0  0  0  0  0  0  0  0  0  0  0  0
  -29.2973  -24.4996   19.1523 C   0  0  0  0  0  0  0  0  0  0  0  0
  -23.8851  -10.5032   21.8482 C   0  0  0  0  0  0  0  0  0  0  0  0
  -25.2377  -32.3495   20.4543 C   0  0  0  0  0  0  0  0  0  0  0  0
  -24.3776  -31.7215   23.5183 C   0  0  0  0  0  0  0  0  0  0  0  0
  -24.2846  -29.4950   26.1031 C   0  0  0  0  0  0  0  0  0  0  0  0
  -28.4969  -17.1314   20.9440 C   0  0  0  0  0  0  0  0  0  0  0  0
  -24.8678  -37.4368   20.6545 C   0  0  0  0  0  0  0  0  0  0  0  0
  -23.9649  -30.1898   20.1871 C   0  0  0  0  0  0  0  0  0  0  0  0
  -25.9091  -30.0501   22.4109 C   0  0  0  0  0  0  0  0  0  0  0  0
  -25.4629  -36.3496   21.5455 C   0  0  0  0  0  0  0  0  0  0  0  0
  -25.3786  -17.0727   19.3277 C   0  0  0  0  0  0  0  0  0  0  0  0
  -32.6141  -21.0632   20.9126 C   0  0  0  0  0  0  0  0  0  0  0  0
  -33.5708  -22.1621   20.5701 C   0  0  0  0  0  0  0  0  0  0  0  0
  -26.3307  -35.4016   20.7238 C   0  0  0  0  0  0  0  0  0  0  0  0
  -24.9947  -15.5995   19.4617 C   0  0  0  0  0  0  0  0  0  0  0  0
  -26.8641  -17.2512   19.0101 C   0  0  0  0  0  0  0  0  0  0  0  0
  -29.0218  -20.7896   21.2509 C   0  0  0  0  0  0  0  0  0  0  0  0
  -29.5225  -20.0966   18.9025 C   0  0  0  0  0  0  0  0  0  0  0  0
  -29.2554  -19.3514   21.7057 C   0  0  0  0  0  0  0  0  0  0  0  0
  -29.7593  -18.6750   19.4002 C   0  0  0  0  0  0  0  0  0  0  0  0
  -27.3840  -15.0886   20.0921 C   0  0  0  0  0  0  0  0  0  0  0  0
  -32.4573  -21.8143   19.6144 C   0  0  0  0  0  0  0  0  0  0  0  0
  -25.5026  -34.6885   19.6480 C   0  0  1  0  0  0  0  0  0  0  0  0
  -24.2572  -31.3953   21.0753 C   0  0  1  0  0  0  0  0  0  0  0  0
  -25.9091  -14.8798   20.4690 C   0  0  2  0  0  0  0  0  0  0  0  0
  -23.5541  -29.2822   28.4944 C   0  0  0  0  0  0  0  0  0  0  0  0
  -26.7993  -33.3544   24.4009 C   0  0  0  0  0  0  0  0  0  0  0  0
  -26.5711  -32.3337   26.6756 C   0  0  0  0  0  0  0  0  0  0  0  0
  -24.7309  -33.7422   25.7522 C   0  0  0  0  0  0  0  0  0  0  0  0
  -22.3920  -27.3148   25.4522 C   0  0  0  0  0  0  0  0  0  0  0  0
  -28.1759  -25.4679   18.9844 C   0  0  0  0  0  0  0  0  0  1  0  0
  -25.1215  -31.4330   24.7999 C   0  0  1  0  0  0  0  0  0  0  0  0
  -23.1619  -29.0839   27.0385 C   0  0  2  0  0  0  0  0  0  0  0  0
  -25.8088  -32.6993   25.3841 C   0  0  0  0  0  0  0  0  0  0  0  0
  -30.5398  -24.9768   18.9476 N   0  0  0  0  0  0  0  0  0  0  0  0
  -26.1946  -12.5183   19.8185 N   0  0  0  0  0  0  0  0  0  0  0  0
  -28.9593  -23.2413   19.4928 N   0  0  0  0  0  0  0  0  0  0  0  0
  -25.5589  -13.4092   20.5984 N   0  0  0  0  0  0  0  0  0  0  0  0
  -29.7177  -21.0658   19.9895 N   0  0  0  0  0  0  0  0  0  0  0  0
  -24.7989  -31.0166   22.3819 N   0  0  0  0  0  0  0  0  0  0  0  0
  -27.6945  -16.5147   19.9725 N   0  0  0  0  0  0  0  0  0  0  0  0
  -29.0132  -18.3982   20.6294 N   0  0  0  0  0  0  0  0  0  0  0  0
  -23.9150  -13.6021   22.2928 N   0  0  0  0  0  0  0  0  0  0  0  0
  -24.0517   -9.1628   21.4743 N   0  0  0  0  0  0  0  0  0  0  0  0
  -24.7288  -33.6153   20.2346 N   0  0  0  0  0  0  0  0  0  0  0  0
  -24.1580  -30.8073   25.6991 N   0  0  0  0  0  0  0  0  0  0  0  0
  -22.8184  -27.6480   26.8357 N   0  3  0  0  0  0  0  0  0  0  0  0
  -23.0383  -10.7950   22.7265 O   0  0  0  0  0  0  0  0  0  0  0  0
  -26.3725  -31.9663   20.1952 O   0  0  0  0  0  0  0  0  0  0  0  0
  -23.4520  -32.5368   23.5268 O   0  0  0  0  0  0  0  0  0  0  0  0
  -25.1859  -28.7298   25.7675 O   0  0  0  0  0  0  0  0  0  0  0  0
  -28.7362  -16.5865   22.0288 O   0  0  0  0  0  0  0  0  0  0  0  0
  -27.3263   -6.5963   17.7696 O   0  0  0  0  0  0  0  0  0  0  0  0
  -28.1318  -26.3390   20.1081 O   0  0  0  0  0  0  0  0  0  1  0  0
  -23.4391   -3.0092   16.2120 F   0  0  0  0  0  0  0  0  0  0  0  0
  -25.5826   -5.5040   19.6159 F   0  0  0  0  0  0  0  0  0  0  0  0
  1  2  1  0  0  0  0
  1  5  2  0  0  0  0
  2  6  2  0  0  0  0
  3  8  2  0  0  0  0
  3 16  1  0  0  0  0
  4  9  1  0  0  0  0
  4 16  2  0  0  0  0
  5 18  1  0  0  0  0
  6 20  1  0  0  0  0
  7 10  2  0  0  0  0
  7 19  1  0  0  0  0
  8 23  1  0  0  0  0
  9 23  2  0  0  0  0
 10 24  1  0  0  0  0
 11 12  2  0  0  0  0
 11 25  1  0  0  0  0
 12 26  1  0  0  0  0
 13 21  1  0  0  0  0
 13 24  2  0  0  0  0
 14 26  2  0  0  0  0
 14 27  1  0  0  0  0
 15 22  1  0  0  0  0
 15 65  2  0  0  0  0
 16 28  1  0  0  0  0
 17 28  1  0  0  0  0
 17 30  2  0  0  0  0
 17 32  1  0  0  0  0
 18 20  2  0  0  0  0
 18 37  1  0  0  0  0
 19 21  2  0  0  0  0
 19 38  1  0  0  0  0
 20 53  1  0  0  0  0
 21 39  1  0  0  0  0
 22 29  2  0  0  0  0
 22 52  1  0  0  0  0
 23 83  1  0  0  0  0
 24 84  1  0  0  0  0
 25 27  2  0  0  0  0
 25 83  1  0  0  0  0
 26 85  1  0  0  0  0
 27 86  1  0  0  0  0
 28 66  2  0  0  0  0
 29 67  1  0  0  0  0
 29 69  1  0  0  0  0
 30 68  1  0  0  0  0
 30 73  1  0  0  0  0
 31 61  1  0  0  0  0
 31 65  1  0  0  0  0
 31 67  2  0  0  0  0
 32 74  1  0  0  0  0
 32 78  2  0  0  0  0
 33 54  1  0  0  0  0
 33 75  1  0  0  0  0
 33 79  2  0  0  0  0
 34 62  1  0  0  0  0
 34 70  1  0  0  0  0
 34 80  2  0  0  0  0
 35 63  1  0  0  0  0
 35 76  1  0  0  0  0
 35 81  2  0  0  0  0
 36 71  1  0  0  0  0
 36 72  1  0  0  0  0
 36 82  2  0  0  0  0
 37 40  1  0  0  0  0
 38 54  1  0  0  0  0
 39 70  1  0  0  0  0
 40 44  1  0  0  0  0
 41 45  1  0  0  0  0
 41 46  1  0  0  0  0
 42 43  1  0  0  0  0
 42 52  1  0  0  0  0
 43 52  1  0  0  0  0
 44 53  1  0  0  0  0
 45 55  1  0  0  0  0
 46 71  1  0  0  0  0
 47 49  1  0  0  0  0
 47 69  1  0  0  0  0
 48 50  1  0  0  0  0
 48 69  1  0  0  0  0
 49 72  1  0  0  0  0
 50 72  1  0  0  0  0
 51 55  1  0  0  0  0
 51 71  1  0  0  0  0
 53 75  1  0  0  0  0
 54 70  1  0  0  0  0
 55 68  1  0  0  0  0
 56 63  1  0  0  0  0
 57 64  1  0  0  0  0
 58 64  1  0  0  0  0
 59 64  1  0  0  0  0
 60 77  1  0  0  0  0
 61 84  1  0  0  0  0
 62 64  1  0  0  0  0
 62 76  1  0  0  0  0
 63 77  1  0  0  0  0
 66 68  1  0  0  0  0
M  CHG  1  77   1
M  ISO  4  36 100  61 101  72 100  84 101
M  END
> <Batch ID>
0192

> <Smiles>
CNC(C)C(=O)NC(C(=O)N1Cc2cc([101O:1][101CH2:1]c3ncc(C4CC4)c(N4CC[100N:0]([100C:0](=O)N5CCCC(n6nc(-c7ccc(Oc8ccc(F)cc8F)cc7)c(C(N)=O)c6N)C5)CC4)n3)ccc2CC1C(=O)NC1CCCc2ccccc21)C(C)(C)C

> <Shape>
0.243

> <Color>
0.119

> <Negative vol penalty>
0.000

$$$$

  -OEChem-04052323293D

 89 99  0     1  0  0  0  0  0999 V2000
  -27.0123  -36.9247   17.6752 C   0  0  0  0  0  0  0  0  0  0  0  0
  -27.3901  -35.5936   17.5309 C   0  0  0  0  0  0  0  0  0  0  0  0
  -22.9936  -18.6327   22.2622 C   0  0  0  0  0  0  0  0  0  0  0  0
  -21.2638  -18.7504   20.5796 C   0  0  0  0  0  0  0  0  0  0  0  0
  -26.6400  -37.4107   18.9279 C   0  0  0  0  0  0  0  0  0  0  0  0
  -27.3969  -34.7479   18.6396 C   0  0  0  0  0  0  0  0  0  0  0  0
  -26.0323  -28.7782   18.7242 C   0  0  0  0  0  0  0  0  0  0  0  0
  -22.9973  -17.2415   22.1611 C   0  0  0  0  0  0  0  0  0  0  0  0
  -21.2675  -17.3592   20.4785 C   0  0  0  0  0  0  0  0  0  0  0  0
  -26.8285  -27.6338   18.7104 C   0  0  0  0  0  0  0  0  0  0  0  0
  -23.7166  -13.6790   22.0858 C   0  0  0  0  0  0  0  0  0  0  0  0
  -24.9532  -13.0364   22.0250 C   0  0  0  0  0  0  0  0  0  0  0  0
  -26.6878  -27.5142   21.1156 C   0  0  0  0  0  0  0  0  0  0  0  0
  -25.4875  -14.2555   20.0087 C   0  0  0  0  0  0  0  0  0  0  0  0
  -22.1268  -19.3872   21.4715 C   0  0  0  0  0  0  0  0  0  0  0  0
  -21.8424  -21.5924   22.7220 C   0  0  0  0  0  0  0  0  0  0  0  0
  -26.6329  -36.5680   20.0506 C   0  0  0  0  0  0  0  0  0  0  0  0
  -25.5662  -29.3064   19.9367 C   0  0  0  0  0  0  0  0  0  0  0  0
  -27.0254  -35.2233   19.9087 C   0  0  0  0  0  0  0  0  0  0  0  0
  -25.8838  -28.6640   21.1419 C   0  0  0  0  0  0  0  0  0  0  0  0
  -29.2449  -21.3808   19.7136 C   0  0  0  0  0  0  0  0  0  0  0  0
  -22.1343  -16.6048   21.2692 C   0  0  0  0  0  0  0  0  0  0  0  0
  -27.1587  -27.0032   19.9064 C   0  0  0  0  0  0  0  0  0  0  0  0
  -23.3655  -14.6097   21.1079 C   0  0  0  0  0  0  0  0  0  0  0  0
  -25.8387  -13.3247   20.9865 C   0  0  0  0  0  0  0  0  0  0  0  0
  -24.2509  -14.8980   20.0694 C   0  0  0  0  0  0  0  0  0  0  0  0
  -22.1221  -20.8242   21.5759 C   0  0  0  0  0  0  0  0  0  0  0  0
  -28.9348  -22.1564   18.5804 C   0  0  0  0  0  0  0  0  0  0  0  0
  -29.6850  -22.2914   20.6429 C   0  0  0  0  0  0  0  0  0  0  0  0
  -21.9690  -22.8940   22.3023 C   0  0  0  0  0  0  0  0  0  0  0  0
  -27.6580  -22.2901   16.5024 C   0  0  0  0  0  0  0  0  0  0  0  0
  -28.4373  -21.6288   17.3605 C   0  0  0  0  0  0  0  0  0  0  0  0
  -21.4989  -21.1673   24.0475 C   0  0  0  0  0  0  0  0  0  0  0  0
  -25.9559  -32.0562   21.4829 C   0  0  0  0  0  0  0  0  0  0  0  0
  -23.7423  -30.7927   23.4895 C   0  0  0  0  0  0  0  0  0  0  0  0
  -22.2285  -28.0049   24.7478 C   0  0  0  0  0  0  0  0  0  0  0  0
  -25.0215  -24.8693   17.2323 C   0  0  0  0  0  0  0  0  0  0  0  0
  -26.2681  -37.1505   21.3931 C   0  0  0  0  0  0  0  0  0  0  0  0
  -24.6862  -30.5263   19.9326 C   0  0  0  0  0  0  0  0  0  0  0  0
  -25.3918  -29.1793   22.4689 C   0  0  0  0  0  0  0  0  0  0  0  0
  -27.0369  -21.9098   15.1765 C   0  0  0  0  0  0  0  0  0  0  0  0
  -25.9424  -36.0950   22.4468 C   0  0  0  0  0  0  0  0  0  0  0  0
  -26.8393  -23.4294   14.9958 C   0  0  0  0  0  0  0  0  0  0  0  0
  -21.4984  -25.3746   18.1657 C   0  0  0  0  0  0  0  0  0  0  0  0
  -29.9729  -17.9107   20.9192 C   0  0  0  0  0  0  0  0  0  0  0  0
  -26.9923  -34.9885   22.4364 C   0  0  0  0  0  0  0  0  0  0  0  0
  -30.4376  -19.2054   20.2776 C   0  0  0  0  0  0  0  0  0  0  0  0
  -21.2591  -24.5029   19.3999 C   0  0  0  0  0  0  0  0  0  0  0  0
  -22.9273  -25.8920   18.0724 C   0  0  0  0  0  0  0  0  0  0  0  0
  -23.6238  -23.6649   18.9811 C   0  0  0  0  0  0  0  0  0  0  0  0
  -28.7961  -18.3490   21.7653 C   0  0  0  0  0  0  0  0  0  0  0  0
  -27.0217  -34.2686   21.0828 C   0  0  1  0  0  0  0  0  0  0  0  0
  -29.1279  -19.8894   19.8876 C   0  0  1  0  0  0  0  0  0  0  0  0
  -27.0787  -23.6882   16.4998 C   0  0  1  0  0  0  0  0  0  0  0  0
  -24.6929  -31.2723   21.2633 C   0  0  1  0  0  0  0  0  0  0  0  0
  -22.5604  -23.9924   20.0409 C   0  0  2  0  0  0  0  0  0  0  0  0
  -30.1572  -22.1174   22.0297 C   0  0  0  0  0  0  0  0  0  0  0  0
  -20.5879  -26.6423   26.0703 C   0  0  0  0  0  0  0  0  0  0  0  0
  -25.6886  -31.3345   25.7761 C   0  0  0  0  0  0  0  0  0  0  0  0
  -24.3410  -29.7769   27.1995 C   0  0  0  0  0  0  0  0  0  0  0  0
  -23.2982  -31.8548   26.2954 C   0  0  0  0  0  0  0  0  0  0  0  0
  -20.2700  -27.9965   22.5290 C   0  0  0  0  0  0  0  0  0  0  0  0
  -29.9878  -24.8451   20.6295 C   0  0  0  0  0  0  0  0  0  0  0  0
  -28.7655  -25.6615   21.0351 C   0  0  0  0  0  0  0  0  0  1  0  0
  -23.7904  -29.9323   24.7290 C   0  0  1  0  0  0  0  0  0  0  0  0
  -20.7646  -27.6598   24.9540 C   0  0  2  0  0  0  0  0  0  0  0  0
  -24.2906  -30.7158   25.9753 C   0  0  0  0  0  0  0  0  0  0  0  0
  -22.4049  -21.5752   20.5082 N   0  0  0  0  0  0  0  0  0  0  0  0
  -29.1588  -23.4594   18.7703 N   0  0  0  0  0  0  0  0  0  0  0  0
  -29.6142  -23.5096   20.0337 N   0  0  0  0  0  0  0  0  0  0  0  0
  -22.3035  -22.8289   20.9816 N   0  0  0  0  0  0  0  0  0  0  0  0
  -24.5397  -30.3786   22.4131 N   0  0  0  0  0  0  0  0  0  0  0  0
  -23.8958  -24.7926   18.0752 N   0  0  0  0  0  0  0  0  0  0  0  0
  -21.8257  -24.0764   22.9377 N   0  0  0  0  0  0  0  0  0  0  0  0
  -20.1449  -20.9874   24.3617 N   0  0  0  0  0  0  0  0  0  0  0  0
  -25.9147  -33.3421   20.9790 N   0  0  0  0  0  0  0  0  0  0  0  0
  -22.4576  -29.3583   24.8793 N   0  0  0  0  0  0  0  0  0  0  0  0
  -25.8796  -23.7753   17.3014 N   0  0  0  0  0  0  0  0  0  0  0  0
  -28.1565  -19.4476   20.9663 N   0  3  0  0  0  0  0  0  0  0  0  0
  -20.1854  -27.0915   23.7040 N   0  3  0  0  0  0  0  0  0  0  0  0
  -22.3659  -20.9692   24.9321 O   0  0  0  0  0  0  0  0  0  0  0  0
  -26.8974  -31.5334   22.0677 O   0  0  0  0  0  0  0  0  0  0  0  0
  -23.0184  -31.7914   23.4743 O   0  0  0  0  0  0  0  0  0  0  0  0
  -23.0838  -27.1582   24.4990 O   0  0  0  0  0  0  0  0  0  0  0  0
  -25.2372  -25.8261   16.4823 O   0  0  0  0  0  0  0  0  0  0  0  0
  -22.1378  -15.2473   21.1701 O   0  0  0  0  0  0  0  0  0  0  0  0
  -27.9362  -25.8864   19.8958 O   0  0  0  0  0  0  0  0  0  1  0  0
  -27.0267  -12.7088   20.9292 F   0  0  0  0  0  0  0  0  0  0  0  0
  -23.9196  -15.7921   19.1278 F   0  0  0  0  0  0  0  0  0  0  0  0
  1  2  1  0  0  0  0
  1  5  2  0  0  0  0
  2  6  2  0  0  0  0
  3  8  2  0  0  0  0
  3 15  1  0  0  0  0
  4  9  1  0  0  0  0
  4 15  2  0  0  0  0
  5 17  1  0  0  0  0
  6 19  1  0  0  0  0
  7 10  2  0  0  0  0
  7 18  1  0  0  0  0
  8 22  1  0  0  0  0
  9 22  2  0  0  0  0
 10 23  1  0  0  0  0
 11 12  2  0  0  0  0
 11 24  1  0  0  0  0
 12 25  1  0  0  0  0
 13 20  1  0  0  0  0
 13 23  2  0  0  0  0
 14 25  2  0  0  0  0
 14 26  1  0  0  0  0
 15 27  1  0  0  0  0
 16 27  1  0  0  0  0
 16 30  2  0  0  0  0
 16 33  1  0  0  0  0
 17 19  2  0  0  0  0
 17 38  1  0  0  0  0
 18 20  2  0  0  0  0
 18 39  1  0  0  0  0
 19 52  1  0  0  0  0
 20 40  1  0  0  0  0
 21 28  1  0  0  0  0
 21 29  2  0  0  0  0
 21 53  1  0  0  0  0
 22 86  1  0  0  0  0
 23 87  1  0  0  0  0
 24 26  2  0  0  0  0
 24 86  1  0  0  0  0
 25 88  1  0  0  0  0
 26 89  1  0  0  0  0
 27 68  2  0  0  0  0
 28 32  1  0  0  0  0
 28 69  2  0  0  0  0
 29 57  1  0  0  0  0
 29 70  1  0  0  0  0
 30 71  1  0  0  0  0
 30 74  1  0  0  0  0
 31 32  2  0  0  0  0
 31 41  1  0  0  0  0
 31 54  1  0  0  0  0
 33 75  1  0  0  0  0
 33 81  2  0  0  0  0
 34 55  1  0  0  0  0
 34 76  1  0  0  0  0
 34 82  2  0  0  0  0
 35 65  1  0  0  0  0
 35 72  1  0  0  0  0
 35 83  2  0  0  0  0
 36 66  1  0  0  0  0
 36 77  1  0  0  0  0
 36 84  2  0  0  0  0
 37 73  1  0  0  0  0
 37 78  1  0  0  0  0
 37 85  2  0  0  0  0
 38 42  1  0  0  0  0
 39 55  1  0  0  0  0
 40 72  1  0  0  0  0
 41 43  1  0  0  0  0
 42 46  1  0  0  0  0
 43 54  1  0  0  0  0
 44 48  1  0  0  0  0
 44 49  1  0  0  0  0
 45 47  1  0  0  0  0
 45 51  1  0  0  0  0
 46 52  1  0  0  0  0
 47 53  1  0  0  0  0
 48 56  1  0  0  0  0
 49 73  1  0  0  0  0
 50 56  1  0  0  0  0
 50 73  1  0  0  0  0
 51 79  1  0  0  0  0
 52 76  1  0  0  0  0
 53 79  1  0  0  0  0
 54 78  1  0  0  0  0
 55 72  1  0  0  0  0
 56 71  1  0  0  0  0
 58 66  1  0  0  0  0
 59 67  1  0  0  0  0
 60 67  1  0  0  0  0
 61 67  1  0  0  0  0
 62 80  1  0  0  0  0
 63 64  1  0  0  0  0
 63 70  1  0  0  0  0
 64 87  1  0  0  0  0
 65 67  1  0  0  0  0
 65 77  1  0  0  0  0
 66 80  1  0  0  0  0
 68 71  1  0  0  0  0
 69 70  1  0  0  0  0
M  CHG  2  79   1  80   1
M  ISO  4  37 100  64 101  78 100  87 101
M  END
> <Batch ID>
0192

> <Smiles>
CNC(C)C(=O)NC(C(=O)N1Cc2cc([101O:1][101CH2:1]Cn3nc(C=C4CCC4[100NH:0][100C:0](=O)N4CCCC(n5nc(-c6ccc(Oc7ccc(F)cc7F)cc6)c(C(N)=O)c5N)C4)c(C4CCCN4)c3C)ccc2CC1C(=O)NC1CCCc2ccccc21)C(C)(C)C

> <Shape>
0.204

> <Color>
0.073

> <Negative vol penalty>
0.000

$$$$

  -OEChem-04052323293D

 82 91  0     1  0  0  0  0  0999 V2000
  -28.3551  -11.2777   20.9937 C   0  0  0  0  0  0  0  0  0  0  0  0
  -28.8920  -12.5159   20.6561 C   0  0  0  0  0  0  0  0  0  0  0  0
  -21.9214  -30.2576   22.1968 C   0  0  0  0  0  0  0  0  0  0  0  0
  -22.8695  -28.4789   23.5288 C   0  0  0  0  0  0  0  0  0  0  0  0
  -26.9770  -11.0758   20.9295 C   0  0  0  0  0  0  0  0  0  0  0  0
  -28.0512  -13.5527   20.2530 C   0  0  0  0  0  0  0  0  0  0  0  0
  -28.7829  -19.5302   21.3659 C   0  0  0  0  0  0  0  0  0  0  0  0
  -20.6734  -29.6376   22.2571 C   0  0  0  0  0  0  0  0  0  0  0  0
  -21.6214  -27.8588   23.5892 C   0  0  0  0  0  0  0  0  0  0  0  0
  -29.2975  -20.5718   20.5950 C   0  0  0  0  0  0  0  0  0  0  0  0
  -17.1603  -28.7093   22.3640 C   0  0  0  0  0  0  0  0  0  0  0  0
  -16.0510  -29.5097   22.6366 C   0  0  0  0  0  0  0  0  0  0  0  0
  -27.0612  -21.1592   19.9070 C   0  0  0  0  0  0  0  0  0  0  0  0
  -31.3921  -25.9606   16.7300 C   0  0  0  0  0  0  0  0  0  0  0  0
  -17.0305  -30.1469   24.7512 C   0  0  0  0  0  0  0  0  0  0  0  0
  -23.0195  -29.6782   22.8326 C   0  0  0  0  0  0  0  0  0  0  0  0
  -24.8309  -31.2682   23.6682 C   0  0  0  0  0  0  0  0  0  0  0  0
  -26.1180  -12.1135   20.5347 C   0  0  0  0  0  0  0  0  0  0  0  0
  -27.4022  -19.2882   21.4045 C   0  0  0  0  0  0  0  0  0  0  0  0
  -26.6605  -13.3641   20.1821 C   0  0  0  0  0  0  0  0  0  0  0  0
  -26.5315  -20.1156   20.6811 C   0  0  0  0  0  0  0  0  0  0  0  0
  -31.0106  -24.7820   16.1220 C   0  0  0  0  0  0  0  0  0  0  0  0
  -30.6609  -23.6675   16.8832 C   0  0  0  0  0  0  0  0  0  0  0  0
  -20.5234  -28.4382   22.9533 C   0  0  0  0  0  0  0  0  0  0  0  0
  -28.4369  -21.3846   19.8631 C   0  0  0  0  0  0  0  0  0  0  0  0
  -18.2047  -28.6276   23.2850 C   0  0  0  0  0  0  0  0  0  0  0  0
  -15.9861  -30.2286   23.8302 C   0  0  0  0  0  0  0  0  0  0  0  0
  -18.1398  -29.3464   24.4786 C   0  0  0  0  0  0  0  0  0  0  0  0
  -24.3090  -30.3179   22.7702 C   0  0  0  0  0  0  0  0  0  0  0  0
  -31.3913  -25.9622   18.1175 C   0  0  0  0  0  0  0  0  0  0  0  0
  -30.7012  -23.7578   18.2545 C   0  0  0  0  0  0  0  0  0  0  0  0
  -26.0780  -31.5605   23.1724 C   0  0  0  0  0  0  0  0  0  0  0  0
  -24.2412  -31.8360   24.8453 C   0  0  0  0  0  0  0  0  0  0  0  0
  -25.5269  -16.8585   20.5777 C   0  0  0  0  0  0  0  0  0  0  0  0
  -23.2195  -18.6815   21.9469 C   0  0  0  0  0  0  0  0  0  0  0  0
  -22.1514  -21.7867   22.8766 C   0  0  0  0  0  0  0  0  0  0  0  0
  -29.7098  -28.2767   19.7625 C   0  0  0  0  0  0  0  0  0  0  0  0
  -24.6394  -11.8336   20.4351 C   0  0  0  0  0  0  0  0  0  0  0  0
  -26.8609  -18.1773   22.2621 C   0  0  0  0  0  0  0  0  0  0  0  0
  -30.9515  -24.4662   14.6616 C   0  0  0  0  0  0  0  0  0  0  0  0
  -30.3342  -22.4980   16.0176 C   0  0  0  0  0  0  0  0  0  0  0  0
  -25.0396  -19.9102   20.7049 C   0  0  0  0  0  0  0  0  0  0  0  0
  -23.7844  -13.0959   20.3583 C   0  0  0  0  0  0  0  0  0  0  0  0
  -30.0905  -23.1924   14.6682 C   0  0  0  0  0  0  0  0  0  0  0  0
  -28.5582  -31.7296   19.1068 C   0  0  0  0  0  0  0  0  0  0  0  0
  -24.3709  -14.0774   19.3486 C   0  0  0  0  0  0  0  0  0  0  0  0
  -27.3409  -31.8095   20.0225 C   0  0  0  0  0  0  0  0  0  0  0  0
  -28.7625  -30.3243   18.5421 C   0  0  0  0  0  0  0  0  0  0  0  0
  -27.6098  -29.3480   20.5101 C   0  0  0  0  0  0  0  0  0  0  0  0
  -25.7788  -14.5208   19.7639 C   0  0  1  0  0  0  0  0  0  0  0  0
  -25.4804  -17.7007   21.8212 C   0  0  1  0  0  0  0  0  0  0  0  0
  -27.4228  -30.7432   21.1249 C   0  0  2  0  0  0  0  0  0  0  0  0
  -20.2073  -22.9648   23.9395 C   0  0  0  0  0  0  0  0  0  0  0  0
  -21.6370  -18.4053   19.3528 C   0  0  0  0  0  0  0  0  0  0  0  0
  -20.2124  -20.3241   20.0991 C   0  0  0  0  0  0  0  0  0  0  0  0
  -20.2660  -18.2187   21.4360 C   0  0  0  0  0  0  0  0  0  0  0  0
  -23.8208  -22.7689   25.1144 C   0  0  0  0  0  0  0  0  0  0  0  0
  -31.7873  -27.2069   18.8407 C   0  0  0  0  0  0  0  0  0  0  0  0
  -30.3525  -22.5788   19.1144 C   0  0  0  0  0  0  0  0  0  1  0  0
  -22.2748  -19.7537   21.4602 C   0  0  1  0  0  0  0  0  0  0  0  0
  -21.5546  -22.2998   24.1747 C   0  0  2  0  0  0  0  0  0  0  0  0
  -21.1258  -19.1784   20.5848 C   0  0  0  0  0  0  0  0  0  0  0  0
  -25.1553  -30.0260   21.7790 N   0  0  0  0  0  0  0  0  0  0  0  0
  -31.0565  -24.8959   18.8939 N   0  0  0  0  0  0  0  0  0  0  0  0
  -26.2215  -30.7975   22.0511 N   0  0  0  0  0  0  0  0  0  0  0  0
  -24.5593  -18.8071   21.5533 N   0  0  0  0  0  0  0  0  0  0  0  0
  -28.7638  -29.3053   19.6037 N   0  0  0  0  0  0  0  0  0  0  0  0
  -27.0548  -32.3933   23.5905 N   0  0  0  0  0  0  0  0  0  0  0  0
  -22.9525  -31.4246   25.2119 N   0  0  0  0  0  0  0  0  0  0  0  0
  -25.7068  -15.5097   20.8181 N   0  0  0  0  0  0  0  0  0  0  0  0
  -21.8205  -20.4677   22.6486 N   0  0  0  0  0  0  0  0  0  0  0  0
  -30.7253  -28.2333   18.8122 N   0  0  0  0  0  0  0  0  0  0  0  0
  -22.4662  -23.2954   24.8061 N   0  3  0  0  0  0  0  0  0  0  0  0
  -24.8327  -32.6952   25.5420 O   0  0  0  0  0  0  0  0  0  0  0  0
  -25.4068  -17.3927   19.4814 O   0  0  0  0  0  0  0  0  0  0  0  0
  -22.7860  -17.7702   22.6563 O   0  0  0  0  0  0  0  0  0  0  0  0
  -22.8392  -22.4870   22.1370 O   0  0  0  0  0  0  0  0  0  0  0  0
  -29.6553  -27.4490   20.6785 O   0  0  0  0  0  0  0  0  0  0  0  0
  -19.3057  -27.8331   23.0125 O   0  0  0  0  0  0  0  0  0  0  0  0
  -28.9365  -22.4015   19.1094 O   0  0  0  0  0  0  0  0  0  1  0  0
  -14.9215  -30.9984   24.0911 F   0  0  0  0  0  0  0  0  0  0  0  0
  -19.1406  -29.2729   25.3668 F   0  0  0  0  0  0  0  0  0  0  0  0
  1  2  1  0  0  0  0
  1  5  2  0  0  0  0
  2  6  2  0  0  0  0
  3  8  2  0  0  0  0
  3 16  1  0  0  0  0
  4  9  1  0  0  0  0
  4 16  2  0  0  0  0
  5 18  1  0  0  0  0
  6 20  1  0  0  0  0
  7 10  2  0  0  0  0
  7 19  1  0  0  0  0
  8 24  1  0  0  0  0
  9 24  2  0  0  0  0
 10 25  1  0  0  0  0
 11 12  2  0  0  0  0
 11 26  1  0  0  0  0
 12 27  1  0  0  0  0
 13 21  1  0  0  0  0
 13 25  2  0  0  0  0
 14 22  2  0  0  0  0
 14 30  1  0  0  0  0
 15 27  2  0  0  0  0
 15 28  1  0  0  0  0
 16 29  1  0  0  0  0
 17 29  1  0  0  0  0
 17 32  2  0  0  0  0
 17 33  1  0  0  0  0
 18 20  2  0  0  0  0
 18 38  1  0  0  0  0
 19 21  2  0  0  0  0
 19 39  1  0  0  0  0
 20 50  1  0  0  0  0
 21 42  1  0  0  0  0
 22 23  1  0  0  0  0
 22 40  1  0  0  0  0
 23 31  2  0  0  0  0
 23 41  1  0  0  0  0
 24 79  1  0  0  0  0
 25 80  1  0  0  0  0
 26 28  2  0  0  0  0
 26 79  1  0  0  0  0
 27 81  1  0  0  0  0
 28 82  1  0  0  0  0
 29 63  2  0  0  0  0
 30 58  1  0  0  0  0
 30 64  2  0  0  0  0
 31 59  1  0  0  0  0
 31 64  1  0  0  0  0
 32 65  1  0  0  0  0
 32 68  1  0  0  0  0
 33 69  1  0  0  0  0
 33 74  2  0  0  0  0
 34 51  1  0  0  0  0
 34 70  1  0  0  0  0
 34 75  2  0  0  0  0
 35 60  1  0  0  0  0
 35 66  1  0  0  0  0
 35 76  2  0  0  0  0
 36 61  1  0  0  0  0
 36 71  1  0  0  0  0
 36 77  2  0  0  0  0
 37 67  1  0  0  0  0
 37 72  1  0  0  0  0
 37 78  2  0  0  0  0
 38 43  1  0  0  0  0
 39 51  1  0  0  0  0
 40 44  1  0  0  0  0
 41 44  1  0  0  0  0
 42 66  1  0  0  0  0
 43 46  1  0  0  0  0
 45 47  1  0  0  0  0
 45 48  1  0  0  0  0
 46 50  1  0  0  0  0
 47 52  1  0  0  0  0
 48 67  1  0  0  0  0
 49 52  1  0  0  0  0
 49 67  1  0  0  0  0
 50 70  1  0  0  0  0
 51 66  1  0  0  0  0
 52 65  1  0  0  0  0
 53 61  1  0  0  0  0
 54 62  1  0  0  0  0
 55 62  1  0  0  0  0
 56 62  1  0  0  0  0
 57 73  1  0  0  0  0
 58 72  1  0  0  0  0
 59 80  1  0  0  0  0
 60 62  1  0  0  0  0
 60 71  1  0  0  0  0
 61 73  1  0  0  0  0
 63 65  1  0  0  0  0
M  CHG  1  73   1
M  ISO  4  37 100  59 101  72 100  80 101
M  END
> <Batch ID>
0192

> <Smiles>
CNC(C)C(=O)NC(C(=O)N1Cc2cc([101O:1][101CH2:1]c3nc(C[100NH:0][100C:0](=O)N4CCCC(n5nc(-c6ccc(Oc7ccc(F)cc7F)cc6)c(C(N)=O)c5N)C4)cc4c3CCC4)ccc2CC1C(=O)NC1CCCc2ccccc21)C(C)(C)C

> <Shape>
0.269

> <Color>
0.061

> <Negative vol penalty>
0.000

$$$$

  -OEChem-04052323293D

 86 95  0     1  0  0  0  0  0999 V2000
  -20.2601  -34.2810   22.2133 C   0  0  0  0  0  0  0  0  0  0  0  0
  -21.5182  -33.7892   21.8804 C   0  0  0  0  0  0  0  0  0  0  0  0
  -24.1045  -10.0555   22.1115 C   0  0  0  0  0  0  0  0  0  0  0  0
  -22.8288  -11.1243   20.3602 C   0  0  0  0  0  0  0  0  0  0  0  0
  -19.3889  -33.5048   22.9764 C   0  0  0  0  0  0  0  0  0  0  0  0
  -21.9062  -32.5211   22.3116 C   0  0  0  0  0  0  0  0  0  0  0  0
  -25.4475  -28.5330   19.3017 C   0  0  0  0  0  0  0  0  0  0  0  0
  -23.0826   -9.1224   22.2864 C   0  0  0  0  0  0  0  0  0  0  0  0
  -21.8069  -10.1912   20.5350 C   0  0  0  0  0  0  0  0  0  0  0  0
  -26.8039  -28.2250   19.3971 C   0  0  0  0  0  0  0  0  0  0  0  0
  -20.9665   -6.2413   22.9472 C   0  0  0  0  0  0  0  0  0  0  0  0
  -21.3276   -4.8998   23.0716 C   0  0  0  0  0  0  0  0  0  0  0  0
  -26.2757  -26.3773   20.8552 C   0  0  0  0  0  0  0  0  0  0  0  0
  -22.3460   -4.9709   20.8819 C   0  0  0  0  0  0  0  0  0  0  0  0
  -28.6239  -18.7513   17.4918 C   0  0  0  0  0  0  0  0  0  0  0  0
  -23.9775  -11.0565   21.1484 C   0  0  0  0  0  0  0  0  0  0  0  0
  -26.1374  -11.9201   20.1011 C   0  0  0  0  0  0  0  0  0  0  0  0
  -19.7628  -32.2227   23.4090 C   0  0  0  0  0  0  0  0  0  0  0  0
  -24.4943  -27.7708   19.9922 C   0  0  0  0  0  0  0  0  0  0  0  0
  -21.0397  -31.7275   23.0824 C   0  0  0  0  0  0  0  0  0  0  0  0
  -24.9076  -26.6761   20.7649 C   0  0  0  0  0  0  0  0  0  0  0  0
  -21.9338   -9.1902   21.4982 C   0  0  0  0  0  0  0  0  0  0  0  0
  -27.2185  -27.1489   20.1762 C   0  0  0  0  0  0  0  0  0  0  0  0
  -21.2950   -6.9476   21.7901 C   0  0  0  0  0  0  0  0  0  0  0  0
  -22.0173   -4.2646   22.0390 C   0  0  0  0  0  0  0  0  0  0  0  0
  -21.9848   -6.3124   20.7575 C   0  0  0  0  0  0  0  0  0  0  0  0
  -25.0326  -12.0211   20.9677 C   0  0  0  0  0  0  0  0  0  0  0  0
  -29.3519  -19.8234   17.0367 C   0  0  0  0  0  0  0  0  0  0  0  0
  -28.2254  -19.1221   18.7901 C   0  0  0  0  0  0  0  0  0  0  0  0
  -26.8377  -13.0847   20.3005 C   0  0  0  0  0  0  0  0  0  0  0  0
  -26.4982  -10.8678   19.1966 C   0  0  0  0  0  0  0  0  0  0  0  0
  -22.3639  -28.3744   22.2727 C   0  0  0  0  0  0  0  0  0  0  0  0
  -21.4563  -25.3144   21.6935 C   0  0  0  0  0  0  0  0  0  0  0  0
  -22.2867  -22.2186   20.5216 C   0  0  0  0  0  0  0  0  0  0  0  0
  -27.0155  -18.6130   20.9403 C   0  0  0  0  0  0  0  0  0  0  0  0
  -18.8052  -31.4397   24.2718 C   0  0  0  0  0  0  0  0  0  0  0  0
  -23.0328  -28.0996   19.8575 C   0  0  0  0  0  0  0  0  0  0  0  0
  -23.9224  -25.8141   21.5097 C   0  0  0  0  0  0  0  0  0  0  0  0
  -19.1498  -29.9560   24.3726 C   0  0  0  0  0  0  0  0  0  0  0  0
  -26.3343  -16.6658   23.8423 C   0  0  0  0  0  0  0  0  0  0  0  0
  -20.6383  -29.7714   24.6503 C   0  0  0  0  0  0  0  0  0  0  0  0
  -26.0258  -15.2756   23.2818 C   0  0  0  0  0  0  0  0  0  0  0  0
  -29.0326  -23.1004   17.4799 C   0  0  0  0  0  0  0  0  0  0  0  0
  -30.4375  -22.4089   19.4734 C   0  0  0  0  0  0  0  0  0  0  0  0
  -25.7982  -17.7738   22.9375 C   0  0  0  0  0  0  0  0  0  0  0  0
  -25.9054  -16.2930   20.9715 C   0  0  0  0  0  0  0  0  0  0  0  0
  -29.6534  -24.4899   17.5408 C   0  0  0  0  0  0  0  0  0  0  0  0
  -31.0433  -23.8057   19.5147 C   0  0  0  0  0  0  0  0  0  0  0  0
  -21.4876  -30.3469   23.5105 C   0  0  1  0  0  0  0  0  0  0  0  0
  -22.1920  -27.5701   21.0152 C   0  0  1  0  0  0  0  0  0  0  0  0
  -26.4826  -15.1449   21.8156 C   0  0  2  0  0  0  0  0  0  0  0  0
  -29.9811  -22.0372   18.0543 C   0  0  0  0  0  0  0  0  0  0  0  0
  -21.3478  -19.9120   20.2133 C   0  0  0  0  0  0  0  0  0  0  0  0
  -21.7875  -24.7831   24.6798 C   0  0  0  0  0  0  0  0  0  0  0  0
  -21.7752  -22.3311   24.1739 C   0  0  0  0  0  0  0  0  0  0  0  0
  -19.7717  -23.7213   23.6486 C   0  0  0  0  0  0  0  0  0  0  0  0
  -22.6371  -22.3427   17.5855 C   0  0  0  0  0  0  0  0  0  0  0  0
  -30.0379  -20.0532   15.7520 C   0  0  0  0  0  0  0  0  0  0  0  0
  -30.5467  -26.2143   19.1040 C   0  0  0  0  0  0  0  0  0  0  0  0
  -29.3623  -27.1595   19.1467 C   0  0  0  0  0  0  0  0  0  1  0  0
  -21.8527  -23.9614   22.2330 C   0  0  1  0  0  0  0  0  0  0  0  0
  -21.5688  -21.2742   19.5744 C   0  0  2  0  0  0  0  0  0  0  0  0
  -21.3158  -23.7164   23.6715 C   0  0  0  0  0  0  0  0  0  0  0  0
  -25.0272  -13.1598   21.6658 N   0  0  0  0  0  0  0  0  0  0  0  0
  -28.6640  -20.3350   19.1373 N   0  0  0  0  0  0  0  0  0  0  0  0
  -29.3457  -20.7355   18.0506 N   0  0  0  0  0  0  0  0  0  0  0  0
  -26.1373  -13.7850   21.2382 N   0  0  0  0  0  0  0  0  0  0  0  0
  -22.5051  -26.1797   21.3515 N   0  0  0  0  0  0  0  0  0  0  0  0
  -26.2755  -17.5872   21.5655 N   0  0  0  0  0  0  0  0  0  0  0  0
  -27.9782  -13.5678   19.7636 N   0  0  0  0  0  0  0  0  0  0  0  0
  -25.6674   -9.7420   19.1158 N   0  0  0  0  0  0  0  0  0  0  0  0
  -27.4441  -18.3094   19.6485 N   0  0  0  0  0  0  0  0  0  0  0  0
  -21.4950  -29.4435   22.3799 N   0  0  0  0  0  0  0  0  0  0  0  0
  -21.3999  -22.9818   21.2513 N   0  0  0  0  0  0  0  0  0  0  0  0
  -30.0562  -24.8198   18.9665 N   0  3  0  0  0  0  0  0  0  0  0  0
  -22.3650  -21.0856   18.3289 N   0  3  0  0  0  0  0  0  0  0  0  0
  -27.5358  -10.9168   18.4933 O   0  0  0  0  0  0  0  0  0  0  0  0
  -23.2203  -28.0482   23.0862 O   0  0  0  0  0  0  0  0  0  0  0  0
  -20.2601  -25.5907   21.5731 O   0  0  0  0  0  0  0  0  0  0  0  0
  -23.5115  -22.2712   20.6084 O   0  0  0  0  0  0  0  0  0  0  0  0
  -27.2749  -19.6712   21.5189 O   0  0  0  0  0  0  0  0  0  0  0  0
  -29.5924  -19.1038   14.7827 O   0  0  0  0  0  0  0  0  0  0  0  0
  -20.9365   -8.2797   21.6684 O   0  0  0  0  0  0  0  0  0  0  0  0
  -28.5419  -26.8465   20.2716 O   0  0  0  0  0  0  0  0  0  1  0  0
  -22.3654   -2.9767   22.1592 F   0  0  0  0  0  0  0  0  0  0  0  0
  -22.3043   -6.9861   19.6439 F   0  0  0  0  0  0  0  0  0  0  0  0
  1  2  1  0  0  0  0
  1  5  2  0  0  0  0
  2  6  2  0  0  0  0
  3  8  2  0  0  0  0
  3 16  1  0  0  0  0
  4  9  1  0  0  0  0
  4 16  2  0  0  0  0
  5 18  1  0  0  0  0
  6 20  1  0  0  0  0
  7 10  2  0  0  0  0
  7 19  1  0  0  0  0
  8 22  1  0  0  0  0
  9 22  2  0  0  0  0
 10 23  1  0  0  0  0
 11 12  2  0  0  0  0
 11 24  1  0  0  0  0
 12 25  1  0  0  0  0
 13 21  1  0  0  0  0
 13 23  2  0  0  0  0
 14 25  2  0  0  0  0
 14 26  1  0  0  0  0
 15 28  2  0  0  0  0
 15 29  1  0  0  0  0
 16 27  1  0  0  0  0
 17 27  1  0  0  0  0
 17 30  2  0  0  0  0
 17 31  1  0  0  0  0
 18 20  2  0  0  0  0
 18 36  1  0  0  0  0
 19 21  2  0  0  0  0
 19 37  1  0  0  0  0
 20 49  1  0  0  0  0
 21 38  1  0  0  0  0
 22 83  1  0  0  0  0
 23 84  1  0  0  0  0
 24 26  2  0  0  0  0
 24 83  1  0  0  0  0
 25 85  1  0  0  0  0
 26 86  1  0  0  0  0
 27 64  2  0  0  0  0
 28 58  1  0  0  0  0
 28 66  1  0  0  0  0
 29 65  2  0  0  0  0
 29 72  1  0  0  0  0
 30 67  1  0  0  0  0
 30 70  1  0  0  0  0
 31 71  1  0  0  0  0
 31 77  2  0  0  0  0
 32 50  1  0  0  0  0
 32 73  1  0  0  0  0
 32 78  2  0  0  0  0
 33 61  1  0  0  0  0
 33 68  1  0  0  0  0
 33 79  2  0  0  0  0
 34 62  1  0  0  0  0
 34 74  1  0  0  0  0
 34 80  2  0  0  0  0
 35 69  1  0  0  0  0
 35 72  1  0  0  0  0
 35 81  2  0  0  0  0
 36 39  1  0  0  0  0
 37 50  1  0  0  0  0
 38 68  1  0  0  0  0
 39 41  1  0  0  0  0
 40 42  1  0  0  0  0
 40 45  1  0  0  0  0
 41 49  1  0  0  0  0
 42 51  1  0  0  0  0
 43 47  1  0  0  0  0
 43 52  1  0  0  0  0
 44 48  1  0  0  0  0
 44 52  1  0  0  0  0
 45 69  1  0  0  0  0
 46 51  1  0  0  0  0
 46 69  1  0  0  0  0
 47 75  1  0  0  0  0
 48 75  1  0  0  0  0
 49 73  1  0  0  0  0
 50 68  1  0  0  0  0
 51 67  1  0  0  0  0
 52 66  1  0  0  0  0
 53 62  1  0  0  0  0
 54 63  1  0  0  0  0
 55 63  1  0  0  0  0
 56 63  1  0  0  0  0
 57 76  1  0  0  0  0
 58 82  1  0  0  0  0
 59 60  1  0  0  0  0
 59 75  1  0  0  0  0
 60 84  1  0  0  0  0
 61 63  1  0  0  0  0
 61 74  1  0  0  0  0
 62 76  1  0  0  0  0
 64 67  1  0  0  0  0
 65 66  1  0  0  0  0
M  CHG  2  75   1  76   1
M  ISO  4  35 100  60 101  72 100  84 101
M  END
> <Batch ID>
0192

> <Smiles>
CNC(C)C(=O)NC(C(=O)N1Cc2cc([101O:1][101CH2:1]CN3CCC(n4nc([100NH:0][100C:0](=O)N5CCCC(n6nc(-c7ccc(Oc8ccc(F)cc8F)cc7)c(C(N)=O)c6N)C5)cc4CO)CC3)ccc2CC1C(=O)NC1CCCc2ccccc21)C(C)(C)C

> <Shape>
0.252

> <Color>
0.080

> <Negative vol penalty>
0.000

$$$$

  -OEChem-04052323293D

 84 93  0     1  0  0  0  0  0999 V2000
  -18.0880  -27.7050   26.2661 C   0  0  0  0  0  0  0  0  0  0  0  0
  -19.4196  -27.3056   26.3191 C   0  0  0  0  0  0  0  0  0  0  0  0
  -24.4564   -9.6935   22.2514 C   0  0  0  0  0  0  0  0  0  0  0  0
  -23.8297   -9.8126   19.9211 C   0  0  0  0  0  0  0  0  0  0  0  0
  -17.4838  -27.9514   25.0340 C   0  0  0  0  0  0  0  0  0  0  0  0
  -20.1474  -27.1513   25.1398 C   0  0  0  0  0  0  0  0  0  0  0  0
  -26.7853  -27.8643   22.5423 C   0  0  0  0  0  0  0  0  0  0  0  0
  -23.2879   -8.9844   22.5294 C   0  0  0  0  0  0  0  0  0  0  0  0
  -22.6612   -9.1033   20.1991 C   0  0  0  0  0  0  0  0  0  0  0  0
  -27.7491  -27.1447   21.8372 C   0  0  0  0  0  0  0  0  0  0  0  0
  -20.6453   -6.8294   23.7895 C   0  0  0  0  0  0  0  0  0  0  0  0
  -20.7479   -5.7069   24.6111 C   0  0  0  0  0  0  0  0  0  0  0  0
  -26.6240  -27.6749   19.7703 C   0  0  0  0  0  0  0  0  0  0  0  0
  -22.2650   -4.6886   23.0303 C   0  0  0  0  0  0  0  0  0  0  0  0
  -24.7273  -10.1077   20.9472 C   0  0  0  0  0  0  0  0  0  0  0  0
  -27.1854  -10.3089   20.2956 C   0  0  0  0  0  0  0  0  0  0  0  0
  -18.2074  -27.8093   23.8395 C   0  0  0  0  0  0  0  0  0  0  0  0
  -25.7258  -28.4865   21.8665 C   0  0  0  0  0  0  0  0  0  0  0  0
  -19.5520  -27.3947   23.8904 C   0  0  0  0  0  0  0  0  0  0  0  0
  -25.6495  -28.4039   20.4688 C   0  0  0  0  0  0  0  0  0  0  0  0
  -22.3903   -8.6892   21.5033 C   0  0  0  0  0  0  0  0  0  0  0  0
  -27.6669  -27.0475   20.4513 C   0  0  0  0  0  0  0  0  0  0  0  0
  -21.3524   -6.8815   22.5883 C   0  0  0  0  0  0  0  0  0  0  0  0
  -21.5577   -4.6365   24.2315 C   0  0  0  0  0  0  0  0  0  0  0  0
  -22.1623   -5.8112   22.2087 C   0  0  0  0  0  0  0  0  0  0  0  0
  -25.9339  -10.8408   20.6595 C   0  0  0  0  0  0  0  0  0  0  0  0
  -29.2787  -24.2190   18.8532 C   0  0  0  0  0  0  0  0  0  0  0  0
  -28.3890  -25.0059   19.5385 C   0  0  0  0  0  0  0  0  0  1  0  0
  -27.9921  -11.4087   20.1340 C   0  0  0  0  0  0  0  0  0  0  0  0
  -27.9020  -22.4545   19.1556 C   0  0  0  0  0  0  0  0  0  0  0  0
  -27.5833   -8.9427   20.1193 C   0  0  0  0  0  0  0  0  0  0  0  0
  -22.5613  -28.1885   21.8988 C   0  0  0  0  0  0  0  0  0  0  0  0
  -22.6887  -30.7647   19.9317 C   0  0  0  0  0  0  0  0  0  0  0  0
  -24.4851  -32.6211   17.7017 C   0  0  0  0  0  0  0  0  0  0  0  0
  -27.0176  -16.9199   18.6833 C   0  0  0  0  0  0  0  0  0  0  0  0
  -17.4979  -28.0412   22.5290 C   0  0  0  0  0  0  0  0  0  0  0  0
  -24.7092  -29.2814   22.6392 C   0  0  0  0  0  0  0  0  0  0  0  0
  -24.5433  -29.0707   19.6943 C   0  0  0  0  0  0  0  0  0  0  0  0
  -18.4461  -28.2170   21.3457 C   0  0  0  0  0  0  0  0  0  0  0  0
  -28.5668  -15.8984   21.6660 C   0  0  0  0  0  0  0  0  0  0  0  0
  -19.5280  -27.1418   21.3643 C   0  0  0  0  0  0  0  0  0  0  0  0
  -28.1864  -14.4190   21.7146 C   0  0  0  0  0  0  0  0  0  0  0  0
  -27.4083  -16.7724   21.1825 C   0  0  0  0  0  0  0  0  0  0  0  0
  -28.5707  -20.2571   18.2325 C   0  0  0  0  0  0  0  0  0  0  0  0
  -26.7897  -20.4248   19.9778 C   0  0  0  0  0  0  0  0  0  0  0  0
  -27.8955  -19.0001   17.6904 C   0  0  0  0  0  0  0  0  0  0  0  0
  -26.1398  -19.1737   19.3975 C   0  0  0  0  0  0  0  0  0  0  0  0
  -26.4489  -14.8615   19.9390 C   0  0  0  0  0  0  0  0  0  0  0  0
  -20.3818  -27.2402   22.6343 C   0  0  1  0  0  0  0  0  0  0  0  0
  -23.3870  -29.4438   21.8957 C   0  0  1  0  0  0  0  0  0  0  0  0
  -27.6116  -13.9518   20.3655 C   0  0  2  0  0  0  0  0  0  0  0  0
  -30.3198  -25.5866   17.0277 C   0  0  0  0  0  0  0  0  0  0  0  0
  -24.3093  -34.6483   16.2330 C   0  0  0  0  0  0  0  0  0  0  0  0
  -20.9899  -29.1807   17.9530 C   0  0  0  0  0  0  0  0  0  0  0  0
  -21.6407  -30.8276   16.1831 C   0  0  0  0  0  0  0  0  0  0  0  0
  -20.3540  -31.5887   18.1800 C   0  0  0  0  0  0  0  0  0  0  0  0
  -26.6996  -33.9818   19.1171 C   0  0  0  0  0  0  0  0  0  0  0  0
  -30.5453  -24.7812   18.3053 C   0  0  0  0  0  0  0  0  0  0  0  0
  -22.7906  -30.9660   18.4390 C   0  0  1  0  0  0  0  0  0  0  0  0
  -24.7226  -34.1168   17.5966 C   0  0  2  0  0  0  0  0  0  0  0  0
  -21.4637  -30.6265   17.7032 C   0  0  0  0  0  0  0  0  0  0  0  0
  -25.9401  -12.1748   20.7255 N   0  0  0  0  0  0  0  0  0  0  0  0
  -29.0541  -22.9130   18.6437 N   0  0  0  0  0  0  0  0  0  0  0  0
  -27.2478  -24.4895   20.0295 N   0  0  0  0  0  0  0  0  0  0  0  0
  -26.9918  -23.1790   19.8359 N   0  0  0  0  0  0  0  0  0  0  0  0
  -27.2054  -12.4904   20.4009 N   0  0  0  0  0  0  0  0  0  0  0  0
  -27.6170  -21.0963   18.9659 N   0  0  0  0  0  0  0  0  0  0  0  0
  -23.5699  -29.8311   20.4954 N   0  0  0  0  0  0  0  0  0  0  0  0
  -26.8671  -16.2648   19.9146 N   0  0  0  0  0  0  0  0  0  0  0  0
  -27.1159  -18.3198   18.7175 N   0  0  0  0  0  0  0  0  0  0  0  0
  -29.2905  -11.5464   19.7911 N   0  0  0  0  0  0  0  0  0  0  0  0
  -26.6290   -7.9371   20.3253 N   0  0  0  0  0  0  0  0  0  0  0  0
  -21.3345  -28.3236   22.5202 N   0  0  0  0  0  0  0  0  0  0  0  0
  -23.2489  -32.3370   18.2425 N   0  0  0  0  0  0  0  0  0  0  0  0
  -26.1650  -34.4281   17.8048 N   0  3  0  0  0  0  0  0  0  0  0  0
  -28.7546   -8.6224   19.8049 O   0  0  0  0  0  0  0  0  0  0  0  0
  -23.0039  -27.1729   21.3749 O   0  0  0  0  0  0  0  0  0  0  0  0
  -21.8626  -31.4170   20.5749 O   0  0  0  0  0  0  0  0  0  0  0  0
  -25.3119  -31.7881   17.3368 O   0  0  0  0  0  0  0  0  0  0  0  0
  -27.0649  -16.2940   17.6171 O   0  0  0  0  0  0  0  0  0  0  0  0
  -21.2501   -7.9970   21.7741 O   0  0  0  0  0  0  0  0  0  0  0  0
  -28.6214  -26.3336   19.7492 O   0  0  0  0  0  0  0  0  0  1  0  0
  -21.6574   -3.5593   25.0213 F   0  0  0  0  0  0  0  0  0  0  0  0
  -22.8450   -5.8560   21.0565 F   0  0  0  0  0  0  0  0  0  0  0  0
  1  2  1  0  0  0  0
  1  5  2  0  0  0  0
  2  6  2  0  0  0  0
  3  8  2  0  0  0  0
  3 15  1  0  0  0  0
  4  9  1  0  0  0  0
  4 15  2  0  0  0  0
  5 17  1  0  0  0  0
  6 19  1  0  0  0  0
  7 10  2  0  0  0  0
  7 18  1  0  0  0  0
  8 21  1  0  0  0  0
  9 21  2  0  0  0  0
 10 22  1  0  0  0  0
 11 12  2  0  0  0  0
 11 23  1  0  0  0  0
 12 24  1  0  0  0  0
 13 20  1  0  0  0  0
 13 22  2  0  0  0  0
 14 24  2  0  0  0  0
 14 25  1  0  0  0  0
 15 26  1  0  0  0  0
 16 26  1  0  0  0  0
 16 29  2  0  0  0  0
 16 31  1  0  0  0  0
 17 19  2  0  0  0  0
 17 36  1  0  0  0  0
 18 20  2  0  0  0  0
 18 37  1  0  0  0  0
 19 49  1  0  0  0  0
 20 38  1  0  0  0  0
 21 81  1  0  0  0  0
 22 82  1  0  0  0  0
 23 25  2  0  0  0  0
 23 81  1  0  0  0  0
 24 83  1  0  0  0  0
 25 84  1  0  0  0  0
 26 62  2  0  0  0  0
 27 28  2  0  0  0  0
 27 58  1  0  0  0  0
 27 63  1  0  0  0  0
 28 64  1  0  0  0  0
 28 82  1  0  0  0  0
 29 66  1  0  0  0  0
 29 71  1  0  0  0  0
 30 63  2  0  0  0  0
 30 65  1  0  0  0  0
 30 67  1  0  0  0  0
 31 72  1  0  0  0  0
 31 76  2  0  0  0  0
 32 50  1  0  0  0  0
 32 73  1  0  0  0  0
 32 77  2  0  0  0  0
 33 59  1  0  0  0  0
 33 68  1  0  0  0  0
 33 78  2  0  0  0  0
 34 60  1  0  0  0  0
 34 74  1  0  0  0  0
 34 79  2  0  0  0  0
 35 69  1  0  0  0  0
 35 70  1  0  0  0  0
 35 80  2  0  0  0  0
 36 39  1  0  0  0  0
 37 50  1  0  0  0  0
 38 68  1  0  0  0  0
 39 41  1  0  0  0  0
 40 42  1  0  0  0  0
 40 43  1  0  0  0  0
 41 49  1  0  0  0  0
 42 51  1  0  0  0  0
 43 69  1  0  0  0  0
 44 46  1  0  0  0  0
 44 67  1  0  0  0  0
 45 47  1  0  0  0  0
 45 67  1  0  0  0  0
 46 70  1  0  0  0  0
 47 70  1  0  0  0  0
 48 51  1  0  0  0  0
 48 69  1  0  0  0  0
 49 73  1  0  0  0  0
 50 68  1  0  0  0  0
 51 66  1  0  0  0  0
 52 58  1  0  0  0  0
 53 60  1  0  0  0  0
 54 61  1  0  0  0  0
 55 61  1  0  0  0  0
 56 61  1  0  0  0  0
 57 75  1  0  0  0  0
 59 61  1  0  0  0  0
 59 74  1  0  0  0  0
 60 75  1  0  0  0  0
 62 66  1  0  0  0  0
 64 65  2  0  0  0  0
M  CHG  1  75   1
M  ISO  4  28 101  35 100  70 100  82 101
M  END
> <Batch ID>
0192

> <Smiles>
CCc1nc(N2CC[100N:0]([100C:0](=O)N3CCCC(n4nc(-c5ccc(Oc6ccc(F)cc6F)cc5)c(C(N)=O)c4N)C3)CC2)nn[101c:1]1[101O:1]c1ccc2c(c1)CN(C(=O)C(NC(=O)C(C)NC)C(C)(C)C)C(C(=O)NC1CCCc3ccccc31)C2

> <Shape>
0.276

> <Color>
0.114

> <Negative vol penalty>
0.000

$$$$

  -OEChem-04052323293D

 79 87  0     1  0  0  0  0  0999 V2000
  -27.1353  -20.5973   17.0179 C   0  0  0  0  0  0  0  0  0  0  0  0
  -27.8901  -20.2332   18.1283 C   0  0  0  0  0  0  0  0  0  0  0  0
  -23.1574   -9.8624   19.9643 C   0  0  0  0  0  0  0  0  0  0  0  0
  -23.8324   -9.9644   22.2819 C   0  0  0  0  0  0  0  0  0  0  0  0
  -27.4390  -21.7674   16.3232 C   0  0  0  0  0  0  0  0  0  0  0  0
  -28.9498  -21.0384   18.5441 C   0  0  0  0  0  0  0  0  0  0  0  0
  -29.0056  -21.7395   23.5591 C   0  0  0  0  0  0  0  0  0  0  0  0
  -22.4474   -8.6899   20.2227 C   0  0  0  0  0  0  0  0  0  0  0  0
  -23.1224   -8.7919   22.5403 C   0  0  0  0  0  0  0  0  0  0  0  0
  -29.4997  -20.6973   24.3423 C   0  0  0  0  0  0  0  0  0  0  0  0
  -23.5543   -5.4684   22.0947 C   0  0  0  0  0  0  0  0  0  0  0  0
  -24.1801   -4.4882   22.8647 C   0  0  0  0  0  0  0  0  0  0  0  0
  -31.6117  -21.8477   24.5300 C   0  0  0  0  0  0  0  0  0  0  0  0
  -22.4125   -4.6473   24.5040 C   0  0  0  0  0  0  0  0  0  0  0  0
  -32.9385  -16.6693   23.7165 C   0  0  0  0  0  0  0  0  0  0  0  0
  -30.4661  -15.8274   24.2692 C   0  0  0  0  0  0  0  0  0  0  0  0
  -23.8500  -10.4996   20.9939 C   0  0  0  0  0  0  0  0  0  0  0  0
  -24.1037  -13.0313   20.8095 C   0  0  0  0  0  0  0  0  0  0  0  0
  -28.4969  -22.5924   16.7365 C   0  0  0  0  0  0  0  0  0  0  0  0
  -29.8158  -22.8404   23.2459 C   0  0  0  0  0  0  0  0  0  0  0  0
  -29.2689  -22.2200   17.8535 C   0  0  0  0  0  0  0  0  0  0  0  0
  -31.1247  -22.9038   23.7448 C   0  0  0  0  0  0  0  0  0  0  0  0
  -22.4299   -8.1547   21.5107 C   0  0  0  0  0  0  0  0  0  0  0  0
  -30.8039  -20.7499   24.8254 C   0  0  0  0  0  0  0  0  0  0  0  0
  -22.3575   -6.0382   22.5293 C   0  0  0  0  0  0  0  0  0  0  0  0
  -23.6092   -4.0776   24.0694 C   0  0  0  0  0  0  0  0  0  0  0  0
  -21.7866   -5.6276   23.7339 C   0  0  0  0  0  0  0  0  0  0  0  0
  -24.5840  -11.7105   20.7275 C   0  0  0  0  0  0  0  0  0  0  0  0
  -32.2885  -17.0756   24.8611 C   0  0  0  0  0  0  0  0  0  0  0  0
  -31.1157  -15.4216   23.1243 C   0  0  0  0  0  0  0  0  0  0  0  0
  -25.1803  -13.8103   20.4624 C   0  0  0  0  0  0  0  0  0  0  0  0
  -22.8008  -13.5110   21.1674 C   0  0  0  0  0  0  0  0  0  0  0  0
  -30.9490  -24.0984   20.5557 C   0  0  0  0  0  0  0  0  0  0  0  0
  -32.0068  -26.4282   22.5495 C   0  0  0  0  0  0  0  0  0  0  0  0
  -32.9181  -27.3454   25.7078 C   0  0  0  0  0  0  0  0  0  0  0  0
  -30.9234  -14.0209   21.0393 C   0  0  0  0  0  0  0  0  0  0  0  0
  -28.8172  -23.8231   15.9257 C   0  0  0  0  0  0  0  0  0  0  0  0
  -29.2591  -23.9691   22.4222 C   0  0  0  0  0  0  0  0  0  0  0  0
  -32.0284  -24.0731   23.4541 C   0  0  0  0  0  0  0  0  0  0  0  0
  -29.7200  -24.8149   16.6547 C   0  0  0  0  0  0  0  0  0  0  0  0
  -29.3903  -13.0313   17.9820 C   0  0  0  0  0  0  0  0  0  0  0  0
  -30.8952  -24.0902   17.3032 C   0  0  0  0  0  0  0  0  0  0  0  0
  -27.9473  -12.7186   18.3846 C   0  0  0  0  0  0  0  0  0  0  0  0
  -30.3843  -12.6130   19.0639 C   0  0  0  0  0  0  0  0  0  0  0  0
  -28.6572  -12.8267   20.8077 C   0  0  0  0  0  0  0  0  0  0  0  0
  -30.4106  -23.0801   18.3502 C   0  0  1  0  0  0  0  0  0  0  0  0
  -30.3406  -24.7991   21.7375 C   0  0  1  0  0  0  0  0  0  0  0  0
  -27.6144  -13.2894   19.7770 C   0  0  2  0  0  0  0  0  0  0  0  0
  -33.7736  -29.3058   27.0203 C   0  0  0  0  0  0  0  0  0  0  0  0
  -34.7885  -26.0001   21.3711 C   0  0  0  0  0  0  0  0  0  0  0  0
  -35.7320  -27.2521   23.3232 C   0  0  0  0  0  0  0  0  0  0  0  0
  -34.1720  -28.3944   21.7471 C   0  0  0  0  0  0  0  0  0  0  0  0
  -30.5263  -27.3704   27.4507 C   0  0  0  0  0  0  0  0  0  0  0  0
  -32.9635  -18.0109   25.8346 C   0  0  0  0  0  0  0  0  0  0  0  0
  -32.6906  -19.4766   25.5147 C   0  0  0  0  0  0  0  0  0  1  0  0
  -33.2661  -26.6608   23.3489 C   0  0  1  0  0  0  0  0  0  0  0  0
  -32.5405  -28.5460   26.5565 C   0  0  2  0  0  0  0  0  0  0  0  0
  -34.4735  -27.0538   22.4516 C   0  0  0  0  0  0  0  0  0  0  0  0
  -31.0408  -16.6617   25.1581 N   0  0  0  0  0  0  0  0  0  0  0  0
  -32.3636  -15.8353   22.8275 N   0  0  0  0  0  0  0  0  0  0  0  0
  -25.8659  -11.6501   20.3573 N   0  0  0  0  0  0  0  0  0  0  0  0
  -26.2002  -12.9426   20.2035 N   0  0  0  0  0  0  0  0  0  0  0  0
  -31.4402  -25.1488   22.6390 N   0  0  0  0  0  0  0  0  0  0  0  0
  -30.0078  -13.1943   20.3543 N   0  0  0  0  0  0  0  0  0  0  0  0
  -25.3446  -15.1461   20.3565 N   0  0  0  0  0  0  0  0  0  0  0  0
  -21.8111  -12.5747   21.4961 N   0  0  0  0  0  0  0  0  0  0  0  0
  -30.4427  -14.5427   22.2398 N   0  0  0  0  0  0  0  0  0  0  0  0
  -30.0387  -23.7589   19.5731 N   0  0  0  0  0  0  0  0  0  0  0  0
  -32.9280  -27.6529   24.3637 N   0  0  0  0  0  0  0  0  0  0  0  0
  -31.7769  -28.1102   27.7598 N   0  3  0  0  0  0  0  0  0  0  0  0
  -22.5180  -14.7331   21.1789 O   0  0  0  0  0  0  0  0  0  0  0  0
  -32.1552  -23.8830   20.5361 O   0  0  0  0  0  0  0  0  0  0  0  0
  -31.5390  -27.3499   21.8763 O   0  0  0  0  0  0  0  0  0  0  0  0
  -33.1818  -26.2458   26.1894 O   0  0  0  0  0  0  0  0  0  0  0  0
  -32.0410  -14.2708   20.5805 O   0  0  0  0  0  0  0  0  0  0  0  0
  -21.7370   -7.0107   21.7633 O   0  0  0  0  0  0  0  0  0  0  0  0
  -31.2889  -19.7336   25.5895 O   0  0  0  0  0  0  0  0  0  1  0  0
  -24.2096   -3.1351   24.8080 F   0  0  0  0  0  0  0  0  0  0  0  0
  -20.6365   -6.1705   24.1561 F   0  0  0  0  0  0  0  0  0  0  0  0
  1  2  1  0  0  0  0
  1  5  2  0  0  0  0
  2  6  2  0  0  0  0
  3  8  2  0  0  0  0
  3 17  1  0  0  0  0
  4  9  1  0  0  0  0
  4 17  2  0  0  0  0
  5 19  1  0  0  0  0
  6 21  1  0  0  0  0
  7 10  2  0  0  0  0
  7 20  1  0  0  0  0
  8 23  1  0  0  0  0
  9 23  2  0  0  0  0
 10 24  1  0  0  0  0
 11 12  2  0  0  0  0
 11 25  1  0  0  0  0
 12 26  1  0  0  0  0
 13 22  1  0  0  0  0
 13 24  2  0  0  0  0
 14 26  2  0  0  0  0
 14 27  1  0  0  0  0
 15 29  1  0  0  0  0
 15 60  2  0  0  0  0
 16 30  2  0  0  0  0
 16 59  1  0  0  0  0
 17 28  1  0  0  0  0
 18 28  1  0  0  0  0
 18 31  2  0  0  0  0
 18 32  1  0  0  0  0
 19 21  2  0  0  0  0
 19 37  1  0  0  0  0
 20 22  2  0  0  0  0
 20 38  1  0  0  0  0
 21 46  1  0  0  0  0
 22 39  1  0  0  0  0
 23 76  1  0  0  0  0
 24 77  1  0  0  0  0
 25 27  2  0  0  0  0
 25 76  1  0  0  0  0
 26 78  1  0  0  0  0
 27 79  1  0  0  0  0
 28 61  2  0  0  0  0
 29 54  1  0  0  0  0
 29 59  2  0  0  0  0
 30 60  1  0  0  0  0
 30 67  1  0  0  0  0
 31 62  1  0  0  0  0
 31 65  1  0  0  0  0
 32 66  1  0  0  0  0
 32 71  2  0  0  0  0
 33 47  1  0  0  0  0
 33 68  1  0  0  0  0
 33 72  2  0  0  0  0
 34 56  1  0  0  0  0
 34 63  1  0  0  0  0
 34 73  2  0  0  0  0
 35 57  1  0  0  0  0
 35 69  1  0  0  0  0
 35 74  2  0  0  0  0
 36 64  1  0  0  0  0
 36 67  1  0  0  0  0
 36 75  2  0  0  0  0
 37 40  1  0  0  0  0
 38 47  1  0  0  0  0
 39 63  1  0  0  0  0
 40 42  1  0  0  0  0
 41 43  1  0  0  0  0
 41 44  1  0  0  0  0
 42 46  1  0  0  0  0
 43 48  1  0  0  0  0
 44 64  1  0  0  0  0
 45 48  1  0  0  0  0
 45 64  1  0  0  0  0
 46 68  1  0  0  0  0
 47 63  1  0  0  0  0
 48 62  1  0  0  0  0
 49 57  1  0  0  0  0
 50 58  1  0  0  0  0
 51 58  1  0  0  0  0
 52 58  1  0  0  0  0
 53 70  1  0  0  0  0
 54 55  1  0  0  0  0
 55 77  1  0  0  0  0
 56 58  1  0  0  0  0
 56 69  1  0  0  0  0
 57 70  1  0  0  0  0
 61 62  1  0  0  0  0
M  CHG  1  70   1
M  ISO  4  36 100  55 101  67 100  77 101
M  END
> <Batch ID>
0192

> <Smiles>
CNC(C)C(=O)NC(C(=O)N1Cc2cc([101O:1][101CH2:1]Cc3cnc([100NH:0][100C:0](=O)N4CCCC(n5nc(-c6ccc(Oc7ccc(F)cc7F)cc6)c(C(N)=O)c5N)C4)cn3)ccc2CC1C(=O)NC1CCCc2ccccc21)C(C)(C)C

> <Shape>
0.208

> <Color>
0.188

> <Negative vol penalty>
0.000

$$$$

  -OEChem-04052323293D

 84 93  0     1  0  0  0  0  0999 V2000
  -20.5177  -12.7754   25.1448 C   0  0  0  0  0  0  0  0  0  0  0  0
  -21.5980  -13.6308   24.9532 C   0  0  0  0  0  0  0  0  0  0  0  0
  -23.0653   -9.8351   19.9257 C   0  0  0  0  0  0  0  0  0  0  0  0
  -23.8143   -9.8365   22.2227 C   0  0  0  0  0  0  0  0  0  0  0  0
  -19.2308  -13.1936   24.8088 C   0  0  0  0  0  0  0  0  0  0  0  0
  -21.3921  -14.9046   24.4245 C   0  0  0  0  0  0  0  0  0  0  0  0
  -24.4626  -20.0140   25.8287 C   0  0  0  0  0  0  0  0  0  0  0  0
  -22.3341   -8.6716   20.1648 C   0  0  0  0  0  0  0  0  0  0  0  0
  -23.0831   -8.6730   22.4618 C   0  0  0  0  0  0  0  0  0  0  0  0
  -25.5174  -20.6765   25.2023 C   0  0  0  0  0  0  0  0  0  0  0  0
  -19.8619   -7.8328   23.0439 C   0  0  0  0  0  0  0  0  0  0  0  0
  -19.1000   -7.7763   24.2109 C   0  0  0  0  0  0  0  0  0  0  0  0
  -23.9413  -22.1408   24.1108 C   0  0  0  0  0  0  0  0  0  0  0  0
  -29.8503  -19.2075   21.4377 C   0  0  0  0  0  0  0  0  0  0  0  0
  -20.3612   -5.8492   24.9409 C   0  0  0  0  0  0  0  0  0  0  0  0
  -30.7206  -18.8368   18.8376 C   0  0  0  0  0  0  0  0  0  0  0  0
  -23.8054  -10.4176   20.9546 C   0  0  0  0  0  0  0  0  0  0  0  0
  -24.1175  -12.9474   20.8523 C   0  0  0  0  0  0  0  0  0  0  0  0
  -19.0078  -14.4767   24.2848 C   0  0  0  0  0  0  0  0  0  0  0  0
  -23.1365  -20.4035   25.5919 C   0  0  0  0  0  0  0  0  0  0  0  0
  -20.1011  -15.3399   24.0800 C   0  0  0  0  0  0  0  0  0  0  0  0
  -22.8717  -21.4832   24.7374 C   0  0  0  0  0  0  0  0  0  0  0  0
  -29.6603  -20.1952   20.4919 C   0  0  0  0  0  0  0  0  0  0  0  0
  -30.0982  -20.0145   19.1786 C   0  0  0  0  0  0  0  0  0  0  0  0
  -22.3430   -8.0905   21.4329 C   0  0  0  0  0  0  0  0  0  0  0  0
  -25.2566  -21.7382   24.3410 C   0  0  0  0  0  0  0  0  0  0  0  0
  -20.8734   -6.8974   22.8253 C   0  0  0  0  0  0  0  0  0  0  0  0
  -19.3497   -6.7845   25.1594 C   0  0  0  0  0  0  0  0  0  0  0  0
  -21.1230   -5.9056   23.7739 C   0  0  0  0  0  0  0  0  0  0  0  0
  -24.5613  -11.6192   20.7081 C   0  0  0  0  0  0  0  0  0  0  0  0
  -30.4758  -18.0491   20.9991 C   0  0  0  0  0  0  0  0  0  0  0  0
  -25.2022  -13.7122   20.4990 C   0  0  0  0  0  0  0  0  0  0  0  0
  -22.8389  -13.4452   21.2684 C   0  0  0  0  0  0  0  0  0  0  0  0
  -20.5729  -18.9948   24.3480 C   0  0  0  0  0  0  0  0  0  0  0  0
  -19.0956  -21.7228   25.2954 C   0  0  0  0  0  0  0  0  0  0  0  0
  -19.3536  -25.0320   26.0888 C   0  0  0  0  0  0  0  0  0  0  0  0
  -30.6724  -14.7955   20.7199 C   0  0  0  0  0  0  0  0  0  0  0  0
  -17.6047  -14.8668   23.8924 C   0  0  0  0  0  0  0  0  0  0  0  0
  -22.0115  -19.6957   26.2961 C   0  0  0  0  0  0  0  0  0  0  0  0
  -29.8363  -21.2244   18.3441 C   0  0  0  0  0  0  0  0  0  0  0  0
  -21.4669  -21.9534   24.4655 C   0  0  0  0  0  0  0  0  0  0  0  0
  -17.4249  -16.3688   23.6874 C   0  0  0  0  0  0  0  0  0  0  0  0
  -28.7665  -21.9343   19.1917 C   0  0  0  0  0  0  0  0  0  0  0  0
  -29.5747  -12.4129   18.3126 C   0  0  0  0  0  0  0  0  0  0  0  0
  -18.5609  -16.9316   22.8390 C   0  0  0  0  0  0  0  0  0  0  0  0
  -28.1389  -12.0992   18.7369 C   0  0  0  0  0  0  0  0  0  0  0  0
  -30.4835  -12.6370   19.5193 C   0  0  0  0  0  0  0  0  0  0  0  0
  -28.5666  -13.3364   20.9014 C   0  0  0  0  0  0  0  0  0  0  0  0
  -19.9151  -16.7382   23.5320 C   0  0  1  0  0  0  0  0  0  0  0  0
  -29.0680  -21.5598   20.6545 C   0  0  1  0  0  0  0  0  0  0  0  0
  -20.6715  -19.8457   25.5824 C   0  0  1  0  0  0  0  0  0  0  0  0
  -27.6002  -13.1577   19.7181 C   0  0  2  0  0  0  0  0  0  0  0  0
  -17.9680  -27.0040   26.7877 C   0  0  0  0  0  0  0  0  0  0  0  0
  -18.0682  -22.0110   22.4369 C   0  0  0  0  0  0  0  0  0  0  0  0
  -17.5242  -24.4009   22.9474 C   0  0  0  0  0  0  0  0  0  0  0  0
  -16.3937  -22.5695   24.2085 C   0  0  0  0  0  0  0  0  0  0  0  0
  -20.8351  -25.3177   28.6349 C   0  0  0  0  0  0  0  0  0  0  0  0
  -30.7067  -16.9388   21.9707 C   0  0  0  0  0  0  0  0  0  0  0  0
  -27.3034  -23.0142   21.6422 C   0  0  0  0  0  0  0  0  0  0  0  0
  -26.0200  -22.9573   22.4470 C   0  0  0  0  0  0  0  0  0  1  0  0
  -18.8296  -23.0688   24.6656 C   0  0  1  0  0  0  0  0  0  0  0  0
  -18.8138  -25.8320   27.2606 C   0  0  2  0  0  0  0  0  0  0  0  0
  -17.7304  -23.0027   23.5680 C   0  0  0  0  0  0  0  0  0  0  0  0
  -30.9138  -17.8373   19.7284 N   0  0  0  0  0  0  0  0  0  0  0  0
  -25.8292  -11.5412   20.2953 N   0  0  0  0  0  0  0  0  0  0  0  0
  -26.1913  -12.8300   20.1769 N   0  0  0  0  0  0  0  0  0  0  0  0
  -20.4006  -21.2252   25.1729 N   0  0  0  0  0  0  0  0  0  0  0  0
  -29.9165  -13.6532   20.4091 N   0  0  0  0  0  0  0  0  0  0  0  0
  -25.3970  -15.0465   20.4354 N   0  0  0  0  0  0  0  0  0  0  0  0
  -21.8364  -12.5219   21.5951 N   0  0  0  0  0  0  0  0  0  0  0  0
  -20.0914  -17.7205   24.5801 N   0  0  0  0  0  0  0  0  0  0  0  0
  -18.5240  -23.9799   25.7633 N   0  0  0  0  0  0  0  0  0  0  0  0
  -30.0582  -15.7117   21.5649 N   0  0  0  0  0  0  0  0  0  0  0  0
  -27.8258  -21.6371   21.4548 N   0  3  0  0  0  0  0  0  0  0  0  0
  -19.9354  -26.3642   28.0850 N   0  3  0  0  0  0  0  0  0  0  0  0
  -22.5877  -14.6726   21.3324 O   0  0  0  0  0  0  0  0  0  0  0  0
  -20.9075  -19.4603   23.2649 O   0  0  0  0  0  0  0  0  0  0  0  0
  -18.1809  -21.1378   25.8810 O   0  0  0  0  0  0  0  0  0  0  0  0
  -20.4041  -25.3146   25.5169 O   0  0  0  0  0  0  0  0  0  0  0  0
  -31.8083  -14.9875   20.2728 O   0  0  0  0  0  0  0  0  0  0  0  0
  -21.6295   -6.9553   21.6666 O   0  0  0  0  0  0  0  0  0  0  0  0
  -26.2842  -22.3863   23.7278 O   0  0  0  0  0  0  0  0  0  1  0  0
  -18.6190   -6.7313   26.2808 F   0  0  0  0  0  0  0  0  0  0  0  0
  -22.0942   -5.0050   23.5701 F   0  0  0  0  0  0  0  0  0  0  0  0
  1  2  1  0  0  0  0
  1  5  2  0  0  0  0
  2  6  2  0  0  0  0
  3  8  2  0  0  0  0
  3 17  1  0  0  0  0
  4  9  1  0  0  0  0
  4 17  2  0  0  0  0
  5 19  1  0  0  0  0
  6 21  1  0  0  0  0
  7 10  2  0  0  0  0
  7 20  1  0  0  0  0
  8 25  1  0  0  0  0
  9 25  2  0  0  0  0
 10 26  1  0  0  0  0
 11 12  2  0  0  0  0
 11 27  1  0  0  0  0
 12 28  1  0  0  0  0
 13 22  1  0  0  0  0
 13 26  2  0  0  0  0
 14 23  1  0  0  0  0
 14 31  2  0  0  0  0
 15 28  2  0  0  0  0
 15 29  1  0  0  0  0
 16 24  1  0  0  0  0
 16 64  2  0  0  0  0
 17 30  1  0  0  0  0
 18 30  1  0  0  0  0
 18 32  2  0  0  0  0
 18 33  1  0  0  0  0
 19 21  2  0  0  0  0
 19 38  1  0  0  0  0
 20 22  2  0  0  0  0
 20 39  1  0  0  0  0
 21 49  1  0  0  0  0
 22 41  1  0  0  0  0
 23 24  2  0  0  0  0
 23 50  1  0  0  0  0
 24 40  1  0  0  0  0
 25 81  1  0  0  0  0
 26 82  1  0  0  0  0
 27 29  2  0  0  0  0
 27 81  1  0  0  0  0
 28 83  1  0  0  0  0
 29 84  1  0  0  0  0
 30 65  2  0  0  0  0
 31 58  1  0  0  0  0
 31 64  1  0  0  0  0
 32 66  1  0  0  0  0
 32 69  1  0  0  0  0
 33 70  1  0  0  0  0
 33 76  2  0  0  0  0
 34 51  1  0  0  0  0
 34 71  1  0  0  0  0
 34 77  2  0  0  0  0
 35 61  1  0  0  0  0
 35 67  1  0  0  0  0
 35 78  2  0  0  0  0
 36 62  1  0  0  0  0
 36 72  1  0  0  0  0
 36 79  2  0  0  0  0
 37 68  1  0  0  0  0
 37 73  1  0  0  0  0
 37 80  2  0  0  0  0
 38 42  1  0  0  0  0
 39 51  1  0  0  0  0
 40 43  1  0  0  0  0
 41 67  1  0  0  0  0
 42 45  1  0  0  0  0
 43 50  1  0  0  0  0
 44 46  1  0  0  0  0
 44 47  1  0  0  0  0
 45 49  1  0  0  0  0
 46 52  1  0  0  0  0
 47 68  1  0  0  0  0
 48 52  1  0  0  0  0
 48 68  1  0  0  0  0
 49 71  1  0  0  0  0
 50 74  1  0  0  0  0
 51 67  1  0  0  0  0
 52 66  1  0  0  0  0
 53 62  1  0  0  0  0
 54 63  1  0  0  0  0
 55 63  1  0  0  0  0
 56 63  1  0  0  0  0
 57 75  1  0  0  0  0
 58 73  1  0  0  0  0
 59 60  1  0  0  0  0
 59 74  1  0  0  0  0
 60 82  1  0  0  0  0
 61 63  1  0  0  0  0
 61 72  1  0  0  0  0
 62 75  1  0  0  0  0
 65 66  1  0  0  0  0
M  CHG  2  74   1  75   1
M  ISO  4  37 100  60 101  73 100  82 101
M  END
> <Batch ID>
0192

> <Smiles>
CNC(C)C(=O)NC(C(=O)N1Cc2cc([101O:1][101CH2:1]CNC3CCc4cnc(C[100NH:0][100C:0](=O)N5CCCC(n6nc(-c7ccc(Oc8ccc(F)cc8F)cc7)c(C(N)=O)c6N)C5)cc43)ccc2CC1C(=O)NC1CCCc2ccccc21)C(C)(C)C

> <Shape>
0.209

> <Color>
0.199

> <Negative vol penalty>
0.000

$$$$

  -OEChem-04052323293D

 82 91  0     1  0  0  0  0  0999 V2000
  -36.0886  -30.1379   18.0157 C   0  0  0  0  0  0  0  0  0  0  0  0
  -35.2368  -29.2566   18.6739 C   0  0  0  0  0  0  0  0  0  0  0  0
  -23.0833   -9.8681   19.9389 C   0  0  0  0  0  0  0  0  0  0  0  0
  -23.8329   -9.8807   22.2356 C   0  0  0  0  0  0  0  0  0  0  0  0
  -36.4577  -29.8924   16.6938 C   0  0  0  0  0  0  0  0  0  0  0  0
  -34.7529  -28.1298   18.0102 C   0  0  0  0  0  0  0  0  0  0  0  0
  -34.9915  -23.9473   20.8553 C   0  0  0  0  0  0  0  0  0  0  0  0
  -22.3399   -8.7145   20.1878 C   0  0  0  0  0  0  0  0  0  0  0  0
  -23.0895   -8.7270   22.4845 C   0  0  0  0  0  0  0  0  0  0  0  0
  -34.0099  -23.7847   21.8319 C   0  0  0  0  0  0  0  0  0  0  0  0
  -19.3863   -7.9166   21.6274 C   0  0  0  0  0  0  0  0  0  0  0  0
  -18.0816   -7.8676   21.1365 C   0  0  0  0  0  0  0  0  0  0  0  0
  -32.1346  -18.5678   24.3099 C   0  0  0  0  0  0  0  0  0  0  0  0
  -32.8169  -22.2784   20.3735 C   0  0  0  0  0  0  0  0  0  0  0  0
  -18.6499   -5.9228   19.8206 C   0  0  0  0  0  0  0  0  0  0  0  0
  -32.4751  -19.8091   24.8001 C   0  0  0  0  0  0  0  0  0  0  0  0
  -30.4960  -20.0157   23.7728 C   0  0  0  0  0  0  0  0  0  0  0  0
  -23.8298  -10.4512   20.9628 C   0  0  0  0  0  0  0  0  0  0  0  0
  -24.1687  -12.9766   20.8393 C   0  0  0  0  0  0  0  0  0  0  0  0
  -35.9857  -28.7570   16.0166 C   0  0  0  0  0  0  0  0  0  0  0  0
  -34.8874  -23.2840   19.6241 C   0  0  0  0  0  0  0  0  0  0  0  0
  -35.1150  -27.8696   16.6775 C   0  0  0  0  0  0  0  0  0  0  0  0
  -30.8825  -18.6984   23.6600 C   0  0  0  0  0  0  0  0  0  0  0  0
  -33.7998  -22.4323   19.3839 C   0  0  0  0  0  0  0  0  0  0  0  0
  -22.3429   -8.1439   21.4606 C   0  0  0  0  0  0  0  0  0  0  0  0
  -32.9209  -22.9525   21.5900 C   0  0  0  0  0  0  0  0  0  0  0  0
  -20.3228   -6.9687   21.2149 C   0  0  0  0  0  0  0  0  0  0  0  0
  -17.7134   -6.8707   20.2331 C   0  0  0  0  0  0  0  0  0  0  0  0
  -19.9546   -5.9718   20.3115 C   0  0  0  0  0  0  0  0  0  0  0  0
  -24.5984  -11.6427   20.7061 C   0  0  0  0  0  0  0  0  0  0  0  0
  -25.2615  -13.7269   20.4794 C   0  0  0  0  0  0  0  0  0  0  0  0
  -22.8957  -13.4915   21.2515 C   0  0  0  0  0  0  0  0  0  0  0  0
  -34.6307  -24.2075   16.5934 C   0  0  0  0  0  0  0  0  0  0  0  0
  -34.9247  -21.0306   16.0078 C   0  0  0  0  0  0  0  0  0  0  0  0
  -34.5805  -17.8310   17.1441 C   0  0  0  0  0  0  0  0  0  0  0  0
  -30.7458  -14.7094   20.7131 C   0  0  0  0  0  0  0  0  0  0  0  0
  -36.3746  -28.5588   14.5730 C   0  0  0  0  0  0  0  0  0  0  0  0
  -35.9683  -23.4491   18.5913 C   0  0  0  0  0  0  0  0  0  0  0  0
  -33.6517  -21.6818   18.0864 C   0  0  0  0  0  0  0  0  0  0  0  0
  -36.1171  -27.1437   14.0615 C   0  0  0  0  0  0  0  0  0  0  0  0
  -29.6043  -12.4073   18.2882 C   0  0  0  0  0  0  0  0  0  0  0  0
  -34.7259  -26.6724   14.4728 C   0  0  0  0  0  0  0  0  0  0  0  0
  -28.1780  -12.0804   18.7218 C   0  0  0  0  0  0  0  0  0  0  0  0
  -29.7375  -16.3720   23.8233 C   0  0  0  0  0  0  0  0  0  0  0  0
  -30.5135  -12.5713   19.4988 C   0  0  0  0  0  0  0  0  0  0  0  0
  -29.3636  -15.3277   22.7799 C   0  0  0  0  0  0  0  0  0  0  0  0
  -30.8539  -16.9301   21.8033 C   0  0  0  0  0  0  0  0  0  0  0  0
  -28.6126  -13.3385   20.8946 C   0  0  0  0  0  0  0  0  0  0  0  0
  -30.1106  -17.5953   22.9702 C   0  0  2  0  0  0  0  0  0  0  0  0
  -34.5889  -26.6233   15.9993 C   0  0  1  0  0  0  0  0  0  0  0  0
  -35.4971  -23.1272   17.1765 C   0  0  1  0  0  0  0  0  0  0  0  0
  -27.6535  -13.1406   19.7025 C   0  0  2  0  0  0  0  0  0  0  0  0
  -34.8633  -15.4437   16.4241 C   0  0  0  0  0  0  0  0  0  0  0  0
  -32.3541  -21.2209   14.3751 C   0  0  0  0  0  0  0  0  0  0  0  0
  -32.1786  -18.7261   14.4901 C   0  0  0  0  0  0  0  0  0  0  0  0
  -34.1322  -19.7864   13.3578 C   0  0  0  0  0  0  0  0  0  0  0  0
  -36.5981  -17.3144   19.2467 C   0  0  0  0  0  0  0  0  0  0  0  0
  -31.4474  -22.0881   24.7976 C   0  0  0  0  0  0  0  0  0  0  0  0
  -32.3691  -22.9098   23.9029 C   0  0  0  0  0  0  0  0  0  1  0  0
  -33.9633  -19.8737   15.8789 C   0  0  1  0  0  0  0  0  0  0  0  0
  -35.5194  -16.6391   17.0976 C   0  0  2  0  0  0  0  0  0  0  0  0
  -33.1586  -19.9173   14.5493 C   0  0  0  0  0  0  0  0  0  0  0  0
  -25.8653  -11.5478   20.2937 N   0  0  0  0  0  0  0  0  0  0  0  0
  -31.4718  -20.6815   24.4674 N   0  0  0  0  0  0  0  0  0  0  0  0
  -26.2410  -12.8316   20.1645 N   0  0  0  0  0  0  0  0  0  0  0  0
  -34.7315  -21.8810   17.1056 N   0  0  0  0  0  0  0  0  0  0  0  0
  -29.9913  -13.5629   20.4409 N   0  0  0  0  0  0  0  0  0  0  0  0
  -30.2445  -15.6130   21.6492 N   0  0  0  0  0  0  0  0  0  0  0  0
  -25.4704  -15.0585   20.4047 N   0  0  0  0  0  0  0  0  0  0  0  0
  -21.8835  -12.5816   21.5861 N   0  0  0  0  0  0  0  0  0  0  0  0
  -35.2421  -25.4449   16.5277 N   0  0  0  0  0  0  0  0  0  0  0  0
  -34.7561  -18.6622   16.0581 N   0  0  0  0  0  0  0  0  0  0  0  0
  -35.9193  -16.2405   18.4768 N   0  3  0  0  0  0  0  0  0  0  0  0
  -22.6575  -14.7219   21.3054 O   0  0  0  0  0  0  0  0  0  0  0  0
  -33.4922  -23.9379   16.2287 O   0  0  0  0  0  0  0  0  0  0  0  0
  -35.8187  -21.1702   15.1693 O   0  0  0  0  0  0  0  0  0  0  0  0
  -33.7695  -18.0052   18.0511 O   0  0  0  0  0  0  0  0  0  0  0  0
  -31.8440  -14.8995   20.1729 O   0  0  0  0  0  0  0  0  0  0  0  0
  -21.6175   -7.0183   21.7039 O   0  0  0  0  0  0  0  0  0  0  0  0
  -31.9543  -22.7914   22.5480 O   0  0  0  0  0  0  0  0  0  1  0  0
  -16.4601   -6.8228   19.7628 F   0  0  0  0  0  0  0  0  0  0  0  0
  -20.8496   -5.0577   19.9125 F   0  0  0  0  0  0  0  0  0  0  0  0
  1  2  1  0  0  0  0
  1  5  2  0  0  0  0
  2  6  2  0  0  0  0
  3  8  2  0  0  0  0
  3 18  1  0  0  0  0
  4  9  1  0  0  0  0
  4 18  2  0  0  0  0
  5 20  1  0  0  0  0
  6 22  1  0  0  0  0
  7 10  2  0  0  0  0
  7 21  1  0  0  0  0
  8 25  1  0  0  0  0
  9 25  2  0  0  0  0
 10 26  1  0  0  0  0
 11 12  2  0  0  0  0
 11 27  1  0  0  0  0
 12 28  1  0  0  0  0
 13 16  2  0  0  0  0
 13 23  1  0  0  0  0
 14 24  1  0  0  0  0
 14 26  2  0  0  0  0
 15 28  2  0  0  0  0
 15 29  1  0  0  0  0
 16 64  1  0  0  0  0
 17 23  2  0  0  0  0
 17 64  1  0  0  0  0
 18 30  1  0  0  0  0
 19 30  1  0  0  0  0
 19 31  2  0  0  0  0
 19 32  1  0  0  0  0
 20 22  2  0  0  0  0
 20 37  1  0  0  0  0
 21 24  2  0  0  0  0
 21 38  1  0  0  0  0
 22 50  1  0  0  0  0
 23 49  1  0  0  0  0
 24 39  1  0  0  0  0
 25 79  1  0  0  0  0
 26 80  1  0  0  0  0
 27 29  2  0  0  0  0
 27 79  1  0  0  0  0
 28 81  1  0  0  0  0
 29 82  1  0  0  0  0
 30 63  2  0  0  0  0
 31 65  1  0  0  0  0
 31 69  1  0  0  0  0
 32 70  1  0  0  0  0
 32 74  2  0  0  0  0
 33 51  1  0  0  0  0
 33 71  1  0  0  0  0
 33 75  2  0  0  0  0
 34 60  1  0  0  0  0
 34 66  1  0  0  0  0
 34 76  2  0  0  0  0
 35 61  1  0  0  0  0
 35 72  1  0  0  0  0
 35 77  2  0  0  0  0
 36 67  1  0  0  0  0
 36 68  1  0  0  0  0
 36 78  2  0  0  0  0
 37 40  1  0  0  0  0
 38 51  1  0  0  0  0
 39 66  1  0  0  0  0
 40 42  1  0  0  0  0
 41 43  1  0  0  0  0
 41 45  1  0  0  0  0
 42 50  1  0  0  0  0
 43 52  1  0  0  0  0
 44 46  1  0  0  0  0
 44 49  1  0  0  0  0
 45 67  1  0  0  0  0
 46 68  1  0  0  0  0
 47 49  1  0  0  0  0
 47 68  1  0  0  0  0
 48 52  1  0  0  0  0
 48 67  1  0  0  0  0
 50 71  1  0  0  0  0
 51 66  1  0  0  0  0
 52 65  1  0  0  0  0
 53 61  1  0  0  0  0
 54 62  1  0  0  0  0
 55 62  1  0  0  0  0
 56 62  1  0  0  0  0
 57 73  1  0  0  0  0
 58 59  1  0  0  0  0
 58 64  1  0  0  0  0
 59 80  1  0  0  0  0
 60 62  1  0  0  0  0
 60 72  1  0  0  0  0
 61 73  1  0  0  0  0
 63 65  1  0  0  0  0
M  CHG  1  73   1
M  ISO  4  36 100  59 101  68 100  80 101
M  END
> <Batch ID>
0192

> <Smiles>
CNC(C)C(=O)NC(C(=O)N1Cc2cc([101O:1][101CH2:1]Cn3ccc(C4CC[100N:0]([100C:0](=O)N5CCCC(n6nc(-c7ccc(Oc8ccc(F)cc8F)cc7)c(C(N)=O)c6N)C5)C4)c3)ccc2CC1C(=O)NC1CCCc2ccccc21)C(C)(C)C

> <Shape>
0.150

> <Color>
0.201

> <Negative vol penalty>
0.000

$$$$

  -OEChem-04052323293D

 84 93  0     1  0  0  0  0  0999 V2000
  -29.4512  -36.9369   20.3617 C   0  0  0  0  0  0  0  0  0  0  0  0
  -29.6462  -35.5603   20.3127 C   0  0  0  0  0  0  0  0  0  0  0  0
  -24.5114   -8.5515   21.4314 C   0  0  0  0  0  0  0  0  0  0  0  0
  -23.6077  -10.3826   22.7227 C   0  0  0  0  0  0  0  0  0  0  0  0
  -28.4112  -37.4657   21.1249 C   0  0  0  0  0  0  0  0  0  0  0  0
  -28.8019  -34.7117   21.0278 C   0  0  0  0  0  0  0  0  0  0  0  0
  -26.9398  -29.1178   19.3704 C   0  0  0  0  0  0  0  0  0  0  0  0
  -24.0732   -7.6507   22.4020 C   0  0  0  0  0  0  0  0  0  0  0  0
  -23.1694   -9.4818   23.6934 C   0  0  0  0  0  0  0  0  0  0  0  0
  -27.3812  -27.8415   19.7165 C   0  0  0  0  0  0  0  0  0  0  0  0
  -21.1666   -6.1745   23.2994 C   0  0  0  0  0  0  0  0  0  0  0  0
  -20.5257   -5.0144   22.8648 C   0  0  0  0  0  0  0  0  0  0  0  0
  -25.6654  -27.7133   21.4074 C   0  0  0  0  0  0  0  0  0  0  0  0
  -22.2306   -3.6738   23.9294 C   0  0  0  0  0  0  0  0  0  0  0  0
  -27.6960  -19.2389   23.0487 C   0  0  0  0  0  0  0  0  0  0  0  0
  -24.2787   -9.9175   21.5918 C   0  0  0  0  0  0  0  0  0  0  0  0
  -24.0199  -11.2944   19.4599 C   0  0  0  0  0  0  0  0  0  0  0  0
  -27.5477  -36.6226   21.8421 C   0  0  0  0  0  0  0  0  0  0  0  0
  -25.8631  -29.7069   20.0486 C   0  0  0  0  0  0  0  0  0  0  0  0
  -27.7501  -35.2298   21.8025 C   0  0  0  0  0  0  0  0  0  0  0  0
  -25.2107  -28.9962   21.0662 C   0  0  0  0  0  0  0  0  0  0  0  0
  -27.2980  -17.9575   22.7549 C   0  0  0  0  0  0  0  0  0  0  0  0
  -23.4022   -8.1158   23.5330 C   0  0  0  0  0  0  0  0  0  0  0  0
  -26.7458  -27.1401   20.7371 C   0  0  0  0  0  0  0  0  0  0  0  0
  -22.3395   -6.0843   24.0489 C   0  0  0  0  0  0  0  0  0  0  0  0
  -21.0576   -3.7640   23.1799 C   0  0  0  0  0  0  0  0  0  0  0  0
  -22.8715   -4.8340   24.3639 C   0  0  0  0  0  0  0  0  0  0  0  0
  -24.7316  -10.8486   20.5898 C   0  0  0  0  0  0  0  0  0  0  0  0
  -28.3706  -17.4152   22.0219 C   0  0  0  0  0  0  0  0  0  0  0  0
  -24.8801  -12.1623   18.8328 C   0  0  0  0  0  0  0  0  0  0  0  0
  -22.6994  -10.9544   19.0170 C   0  0  0  0  0  0  0  0  0  0  0  0
  -25.4930  -32.3046   21.8427 C   0  0  0  0  0  0  0  0  0  0  0  0
  -22.3628  -31.4613   21.7303 C   0  0  0  0  0  0  0  0  0  0  0  0
  -20.0393  -28.9992   21.2989 C   0  0  0  0  0  0  0  0  0  0  0  0
  -29.4371  -15.5065   20.7706 C   0  0  0  0  0  0  0  0  0  0  0  0
  -26.4666  -37.2433   22.6910 C   0  0  0  0  0  0  0  0  0  0  0  0
  -25.3820  -31.0738   19.6453 C   0  0  0  0  0  0  0  0  0  0  0  0
  -24.0373  -29.5759   21.8115 C   0  0  0  0  0  0  0  0  0  0  0  0
  -25.3859  -36.2542   23.1200 C   0  0  0  0  0  0  0  0  0  0  0  0
  -29.5526  -13.0190   18.2258 C   0  0  0  0  0  0  0  0  0  0  0  0
  -26.0168  -34.9659   23.6387 C   0  0  0  0  0  0  0  0  0  0  0  0
  -28.2617  -12.2245   18.4365 C   0  0  0  0  0  0  0  0  0  0  0  0
  -30.1654  -13.4674   19.5513 C   0  0  0  0  0  0  0  0  0  0  0  0
  -27.9626  -13.4024   20.6524 C   0  0  0  0  0  0  0  0  0  0  0  0
  -28.4160  -22.6129   19.6436 C   0  0  0  0  0  0  0  0  0  0  0  0
  -28.1101  -23.0855   21.6554 C   0  0  0  0  0  0  0  0  0  0  0  0
  -26.8400  -34.2753   22.5446 C   0  0  1  0  0  0  0  0  0  0  0  0
  -24.6041  -31.7833   20.7493 C   0  0  1  0  0  0  0  0  0  0  0  0
  -27.5057  -23.6409   20.3483 C   0  0  0  0  0  0  0  0  0  0  0  0
  -27.2737  -12.9847   19.3430 C   0  0  2  0  0  0  0  0  0  0  0  0
  -26.0280  -17.3131   23.1320 C   0  0  0  0  0  0  0  0  0  0  0  0
  -17.5606  -28.6073   21.3022 C   0  0  0  0  0  0  0  0  0  0  0  0
  -22.3504  -31.5804   24.7792 C   0  0  0  0  0  0  0  0  0  0  0  0
  -20.2049  -30.2903   24.7514 C   0  0  0  0  0  0  0  0  0  0  0  0
  -20.3165  -32.5447   23.6892 C   0  0  0  0  0  0  0  0  0  0  0  0
  -20.0581  -28.1167   18.4741 C   0  0  0  0  0  0  0  0  0  0  0  0
  -27.7607  -25.1042   20.0434 C   0  0  0  0  0  0  0  0  0  1  0  0
  -29.7713  -20.5750   22.5400 C   0  0  0  0  0  0  0  0  0  0  0  0
  -29.7926  -21.3564   21.2328 C   0  0  0  0  0  0  0  0  0  0  0  0
  -21.4600  -30.5883   22.5680 C   0  0  1  0  0  0  0  0  0  0  0  0
  -18.7788  -28.9403   20.4550 C   0  0  2  0  0  0  0  0  0  0  0  0
  -21.1063  -31.2405   23.9344 C   0  0  0  0  0  0  0  0  0  0  0  0
  -25.9501  -11.3885   20.6778 N   0  0  0  0  0  0  0  0  0  0  0  0
  -29.3745  -18.2812   21.8598 N   0  0  0  0  0  0  0  0  0  0  0  0
  -28.9344  -19.3807   22.4951 N   0  0  0  0  0  0  0  0  0  0  0  0
  -26.0108  -12.1825   19.5952 N   0  0  0  0  0  0  0  0  0  0  0  0
  -23.6082  -30.9180   21.3847 N   0  0  0  0  0  0  0  0  0  0  0  0
  -29.1729  -14.1843   20.3551 N   0  0  0  0  0  0  0  0  0  0  0  0
  -24.7720  -12.9025   17.7090 N   0  0  0  0  0  0  0  0  0  0  0  0
  -21.9519  -10.0467   19.7796 N   0  0  0  0  0  0  0  0  0  0  0  0
  -28.4071  -16.0978   21.5014 N   0  0  0  0  0  0  0  0  0  0  0  0
  -25.9699  -33.5821   21.6190 N   0  0  0  0  0  0  0  0  0  0  0  0
  -20.3024  -30.2804   21.7353 N   0  0  0  0  0  0  0  0  0  0  0  0
  -28.4372  -21.8529   20.9100 N   0  3  0  0  0  0  0  0  0  0  0  0
  -18.9129  -27.9008   19.3955 N   0  3  0  0  0  0  0  0  0  0  0  0
  -22.2034  -11.4286   17.9669 O   0  0  0  0  0  0  0  0  0  0  0  0
  -25.7277  -31.6006   22.8179 O   0  0  0  0  0  0  0  0  0  0  0  0
  -21.9742  -32.5812   21.3889 O   0  0  0  0  0  0  0  0  0  0  0  0
  -20.7202  -28.0071   21.5494 O   0  0  0  0  0  0  0  0  0  0  0  0
  -30.4875  -16.0821   20.4750 O   0  0  0  0  0  0  0  0  0  0  0  0
  -22.9742   -7.2371   24.4802 O   0  0  0  0  0  0  0  0  0  0  0  0
  -27.1750  -25.8944   21.0774 O   0  0  0  0  0  0  0  0  0  1  0  0
  -20.4412   -2.6499   22.7639 F   0  0  0  0  0  0  0  0  0  0  0  0
  -23.9974   -4.7410   25.0847 F   0  0  0  0  0  0  0  0  0  0  0  0
  1  2  1  0  0  0  0
  1  5  2  0  0  0  0
  2  6  2  0  0  0  0
  3  8  2  0  0  0  0
  3 16  1  0  0  0  0
  4  9  1  0  0  0  0
  4 16  2  0  0  0  0
  5 18  1  0  0  0  0
  6 20  1  0  0  0  0
  7 10  2  0  0  0  0
  7 19  1  0  0  0  0
  8 23  1  0  0  0  0
  9 23  2  0  0  0  0
 10 24  1  0  0  0  0
 11 12  2  0  0  0  0
 11 25  1  0  0  0  0
 12 26  1  0  0  0  0
 13 21  1  0  0  0  0
 13 24  2  0  0  0  0
 14 26  2  0  0  0  0
 14 27  1  0  0  0  0
 15 22  2  0  0  0  0
 15 65  1  0  0  0  0
 16 28  1  0  0  0  0
 17 28  1  0  0  0  0
 17 30  2  0  0  0  0
 17 31  1  0  0  0  0
 18 20  2  0  0  0  0
 18 36  1  0  0  0  0
 19 21  2  0  0  0  0
 19 37  1  0  0  0  0
 20 47  1  0  0  0  0
 21 38  1  0  0  0  0
 22 29  1  0  0  0  0
 22 51  1  0  0  0  0
 23 81  1  0  0  0  0
 24 82  1  0  0  0  0
 25 27  2  0  0  0  0
 25 81  1  0  0  0  0
 26 83  1  0  0  0  0
 27 84  1  0  0  0  0
 28 63  2  0  0  0  0
 29 64  2  0  0  0  0
 29 71  1  0  0  0  0
 30 66  1  0  0  0  0
 30 69  1  0  0  0  0
 31 70  1  0  0  0  0
 31 76  2  0  0  0  0
 32 48  1  0  0  0  0
 32 72  1  0  0  0  0
 32 77  2  0  0  0  0
 33 60  1  0  0  0  0
 33 67  1  0  0  0  0
 33 78  2  0  0  0  0
 34 61  1  0  0  0  0
 34 73  1  0  0  0  0
 34 79  2  0  0  0  0
 35 68  1  0  0  0  0
 35 71  1  0  0  0  0
 35 80  2  0  0  0  0
 36 39  1  0  0  0  0
 37 48  1  0  0  0  0
 38 67  1  0  0  0  0
 39 41  1  0  0  0  0
 40 42  1  0  0  0  0
 40 43  1  0  0  0  0
 41 47  1  0  0  0  0
 42 50  1  0  0  0  0
 43 68  1  0  0  0  0
 44 50  1  0  0  0  0
 44 68  1  0  0  0  0
 45 49  1  0  0  0  0
 45 74  1  0  0  0  0
 46 49  1  0  0  0  0
 46 74  1  0  0  0  0
 47 72  1  0  0  0  0
 48 67  1  0  0  0  0
 49 57  1  0  0  0  0
 50 66  1  0  0  0  0
 52 61  1  0  0  0  0
 53 62  1  0  0  0  0
 54 62  1  0  0  0  0
 55 62  1  0  0  0  0
 56 75  1  0  0  0  0
 57 82  1  0  0  0  0
 58 59  1  0  0  0  0
 58 65  1  0  0  0  0
 59 74  1  0  0  0  0
 60 62  1  0  0  0  0
 60 73  1  0  0  0  0
 61 75  1  0  0  0  0
 63 66  1  0  0  0  0
 64 65  1  0  0  0  0
M  CHG  2  74   1  75   1
M  ISO  4  35 100  57 101  71 100  82 101
M  END
> <Batch ID>
0192

> <Smiles>
CNC(C)C(=O)NC(C(=O)N1Cc2cc([101O:1][101CH2:1]C3CN(CCn4cc(C)c([100NH:0][100C:0](=O)N5CCCC(n6nc(-c7ccc(Oc8ccc(F)cc8F)cc7)c(C(N)=O)c6N)C5)n4)C3)ccc2CC1C(=O)NC1CCCc2ccccc21)C(C)(C)C

> <Shape>
0.287

> <Color>
0.090

> <Negative vol penalty>
0.000

$$$$

  -OEChem-04052323293D

 87 97  0     1  0  0  0  0  0999 V2000
  -30.0614  -33.2965   27.0611 C   0  0  0  0  0  0  0  0  0  0  0  0
  -30.3269  -32.7301   25.8185 C   0  0  0  0  0  0  0  0  0  0  0  0
  -27.2801  -11.4708   20.7300 C   0  0  0  0  0  0  0  0  0  0  0  0
  -26.9074  -12.2613   18.4776 C   0  0  0  0  0  0  0  0  0  0  0  0
  -28.9780  -32.8459   27.8142 C   0  0  0  0  0  0  0  0  0  0  0  0
  -29.5097  -31.7119   25.3287 C   0  0  0  0  0  0  0  0  0  0  0  0
  -26.9030  -29.1153   19.1822 C   0  0  0  0  0  0  0  0  0  0  0  0
  -26.2025  -10.5946   20.6008 C   0  0  0  0  0  0  0  0  0  0  0  0
  -25.8298  -11.3851   18.3484 C   0  0  0  0  0  0  0  0  0  0  0  0
  -26.8070  -27.9188   18.4731 C   0  0  0  0  0  0  0  0  0  0  0  0
  -23.3248   -8.4057   20.9899 C   0  0  0  0  0  0  0  0  0  0  0  0
  -22.4203   -8.3271   22.0488 C   0  0  0  0  0  0  0  0  0  0  0  0
  -24.9166  -27.2754   19.8266 C   0  0  0  0  0  0  0  0  0  0  0  0
  -21.9225  -10.6780   21.7982 C   0  0  0  0  0  0  0  0  0  0  0  0
  -27.6325  -12.3042   19.6684 C   0  0  0  0  0  0  0  0  0  0  0  0
  -30.0932  -12.9523   19.4878 C   0  0  0  0  0  0  0  0  0  0  0  0
  -28.1413  -31.8284   27.3291 C   0  0  0  0  0  0  0  0  0  0  0  0
  -26.0119  -29.3966   20.2277 C   0  0  0  0  0  0  0  0  0  0  0  0
  -28.4148  -31.2464   26.0765 C   0  0  0  0  0  0  0  0  0  0  0  0
  -25.0019  -28.4774   20.5456 C   0  0  0  0  0  0  0  0  0  0  0  0
  -25.8737  -21.9616   15.1876 C   0  0  0  0  0  0  0  0  0  0  0  0
  -25.4773  -10.5518   19.4100 C   0  0  0  0  0  0  0  0  0  0  0  0
  -25.8155  -26.9973   18.7971 C   0  0  0  0  0  0  0  0  0  0  0  0
  -23.5282   -9.6205   20.3351 C   0  0  0  0  0  0  0  0  0  0  0  0
  -21.7192   -9.4632   22.4529 C   0  0  0  0  0  0  0  0  0  0  0  0
  -22.8270  -10.7566   20.7392 C   0  0  0  0  0  0  0  0  0  0  0  0
  -28.7452  -13.2099   19.8015 C   0  0  0  0  0  0  0  0  0  0  0  0
  -25.5684  -23.1774   14.5858 C   0  0  0  0  0  0  0  0  0  0  0  0
  -26.4737  -22.0398   16.4331 C   0  0  0  0  0  0  0  0  0  0  0  0
  -30.7457  -14.1226   19.7897 C   0  0  0  0  0  0  0  0  0  0  0  0
  -26.3889  -24.3079   16.3937 C   0  0  0  0  0  0  0  0  0  0  0  0
  -30.7012  -11.7616   18.9698 C   0  0  0  0  0  0  0  0  0  0  0  0
  -26.3082  -29.9109   23.3504 C   0  0  0  0  0  0  0  0  0  0  0  0
  -23.1393  -30.5734   23.1468 C   0  0  0  0  0  0  0  0  0  0  0  0
  -20.1939  -30.1563   21.4743 C   0  0  0  0  0  0  0  0  0  0  0  0
  -28.9149  -19.8086   20.1314 C   0  0  0  0  0  0  0  0  0  0  0  0
  -27.0101  -31.3419   28.1999 C   0  0  0  0  0  0  0  0  0  0  0  0
  -26.1120  -30.7037   20.9653 C   0  0  0  0  0  0  0  0  0  0  0  0
  -24.0078  -28.7407   21.6461 C   0  0  0  0  0  0  0  0  0  0  0  0
  -25.6292  -20.6521   14.5084 C   0  0  0  0  0  0  0  0  0  0  0  0
  -24.8832  -23.2126   13.2456 C   0  0  0  0  0  0  0  0  0  0  0  0
  -25.9709  -30.5177   27.4443 C   0  0  0  0  0  0  0  0  0  0  0  0
  -30.5124  -17.9236   22.6567 C   0  0  0  0  0  0  0  0  0  0  0  0
  -26.6535  -29.4820   26.5565 C   0  0  0  0  0  0  0  0  0  0  0  0
  -30.3421  -16.4744   22.2093 C   0  0  0  0  0  0  0  0  0  0  0  0
  -25.8522  -20.1913   18.1497 C   0  0  0  0  0  0  0  0  0  0  0  0
  -29.2695  -18.7403   22.3298 C   0  0  0  0  0  0  0  0  0  0  0  0
  -26.6896  -19.2413   18.9953 C   0  0  0  0  0  0  0  0  0  0  0  0
  -28.0988  -20.9579   18.0955 C   0  0  0  0  0  0  0  0  0  0  0  0
  -28.7531  -17.2846   20.3896 C   0  0  0  0  0  0  0  0  0  0  0  0
  -25.0823  -21.9346   12.4372 C   0  0  0  0  0  0  0  0  0  0  0  0
  -27.5366  -30.1571   25.5001 C   0  0  1  0  0  0  0  0  0  0  0  0
  -26.8818  -20.7865   17.1755 C   0  0  2  0  0  0  0  0  0  0  0  0
  -25.4732  -30.6589   22.3499 C   0  0  1  0  0  0  0  0  0  0  0  0
  -29.9788  -16.4072   20.7178 C   0  0  2  0  0  0  0  0  0  0  0  0
  -17.7676  -30.7897   21.5698 C   0  0  0  0  0  0  0  0  0  0  0  0
  -22.6980  -28.5374   25.3762 C   0  0  0  0  0  0  0  0  0  0  0  0
  -20.2675  -28.5113   24.7762 C   0  0  0  0  0  0  0  0  0  0  0  0
  -21.3293  -30.6206   25.5799 C   0  0  0  0  0  0  0  0  0  0  0  0
  -24.6585  -19.4698   12.5268 C   0  0  0  0  0  0  0  0  0  0  0  0
  -20.3374  -31.5563   18.8708 C   0  0  0  0  0  0  0  0  0  0  0  0
  -26.6680  -25.6104   17.0634 C   0  0  0  0  0  0  0  0  0  1  0  0
  -21.8688  -29.7663   23.2623 C   0  0  1  0  0  0  0  0  0  0  0  0
  -19.1404  -31.1530   21.0256 C   0  0  2  0  0  0  0  0  0  0  0  0
  -21.5607  -29.3528   24.7291 C   0  0  0  0  0  0  0  0  0  0  0  0
  -28.5514  -14.4467   20.2671 N   0  0  0  0  0  0  0  0  0  0  0  0
  -25.8096  -24.3688   15.1797 N   0  0  0  0  0  0  0  0  0  0  0  0
  -26.7428  -23.1989   17.0670 N   0  0  0  0  0  0  0  0  0  0  0  0
  -29.7863  -14.9766   20.2483 N   0  0  0  0  0  0  0  0  0  0  0  0
  -24.1508  -30.0300   22.3422 N   0  0  0  0  0  0  0  0  0  0  0  0
  -28.9149  -18.6476   20.9123 N   0  0  0  0  0  0  0  0  0  0  0  0
  -27.9950  -19.8920   19.0869 N   0  0  0  0  0  0  0  0  0  0  0  0
  -32.0408  -14.4941   19.7051 N   0  0  0  0  0  0  0  0  0  0  0  0
  -29.8851  -10.6509   18.7157 N   0  0  0  0  0  0  0  0  0  0  0  0
  -26.7251  -30.6784   24.4212 N   0  0  0  0  0  0  0  0  0  0  0  0
  -20.8207  -30.5627   22.6333 N   0  0  0  0  0  0  0  0  0  0  0  0
  -24.7132  -20.7539   13.3036 N   0  3  1  0  0  0  0  0  0  0  0  0
  -19.0618  -31.1891   19.5379 N   0  3  0  0  0  0  0  0  0  0  0  0
  -31.9342  -11.6795   18.7545 O   0  0  0  0  0  0  0  0  0  0  0  0
  -26.5547  -28.7249   23.1654 O   0  0  0  0  0  0  0  0  0  0  0  0
  -23.2282  -31.6499   23.7426 O   0  0  0  0  0  0  0  0  0  0  0  0
  -20.4339  -29.1191   20.8603 O   0  0  0  0  0  0  0  0  0  0  0  0
  -29.6778  -20.7516   20.3816 O   0  0  0  0  0  0  0  0  0  0  0  0
  -24.4259   -9.6968   19.2835 O   0  0  0  0  0  0  0  0  0  0  0  0
  -25.7193  -25.8203   18.1024 O   0  0  0  0  0  0  0  0  0  1  0  0
  -20.8495   -9.3872   23.4689 F   0  0  0  0  0  0  0  0  0  0  0  0
  -23.0173  -11.9261   20.1133 F   0  0  0  0  0  0  0  0  0  0  0  0
  1  2  1  0  0  0  0
  1  5  2  0  0  0  0
  2  6  2  0  0  0  0
  3  8  2  0  0  0  0
  3 15  1  0  0  0  0
  4  9  1  0  0  0  0
  4 15  2  0  0  0  0
  5 17  1  0  0  0  0
  6 19  1  0  0  0  0
  7 10  2  0  0  0  0
  7 18  1  0  0  0  0
  8 22  1  0  0  0  0
  9 22  2  0  0  0  0
 10 23  1  0  0  0  0
 11 12  2  0  0  0  0
 11 24  1  0  0  0  0
 12 25  1  0  0  0  0
 13 20  1  0  0  0  0
 13 23  2  0  0  0  0
 14 25  2  0  0  0  0
 14 26  1  0  0  0  0
 15 27  1  0  0  0  0
 16 27  1  0  0  0  0
 16 30  2  0  0  0  0
 16 32  1  0  0  0  0
 17 19  2  0  0  0  0
 17 37  1  0  0  0  0
 18 20  2  0  0  0  0
 18 38  1  0  0  0  0
 19 52  1  0  0  0  0
 20 39  1  0  0  0  0
 21 28  1  0  0  0  0
 21 29  2  0  0  0  0
 21 40  1  0  0  0  0
 22 84  1  0  0  0  0
 23 85  1  0  0  0  0
 24 26  2  0  0  0  0
 24 84  1  0  0  0  0
 25 86  1  0  0  0  0
 26 87  1  0  0  0  0
 27 66  2  0  0  0  0
 28 41  1  0  0  0  0
 28 67  2  0  0  0  0
 29 53  1  0  0  0  0
 29 68  1  0  0  0  0
 30 69  1  0  0  0  0
 30 73  1  0  0  0  0
 31 62  1  0  0  0  0
 31 67  1  0  0  0  0
 31 68  2  0  0  0  0
 32 74  1  0  0  0  0
 32 79  2  0  0  0  0
 33 54  1  0  0  0  0
 33 75  1  0  0  0  0
 33 80  2  0  0  0  0
 34 63  1  0  0  0  0
 34 70  1  0  0  0  0
 34 81  2  0  0  0  0
 35 64  1  0  0  0  0
 35 76  1  0  0  0  0
 35 82  2  0  0  0  0
 36 71  1  0  0  0  0
 36 72  1  0  0  0  0
 36 83  2  0  0  0  0
 37 42  1  0  0  0  0
 38 54  1  0  0  0  0
 39 70  1  0  0  0  0
 40 77  1  0  0  0  0
 41 51  1  0  0  0  0
 42 44  1  0  0  0  0
 43 45  1  0  0  0  0
 43 47  1  0  0  0  0
 44 52  1  0  0  0  0
 45 55  1  0  0  0  0
 46 48  1  0  0  0  0
 46 53  1  0  0  0  0
 47 71  1  0  0  0  0
 48 72  1  0  0  0  0
 49 53  1  0  0  0  0
 49 72  1  0  0  0  0
 50 55  1  0  0  0  0
 50 71  1  0  0  0  0
 51 77  1  0  0  0  0
 52 75  1  0  0  0  0
 54 70  1  0  0  0  0
 55 69  1  0  0  0  0
 56 64  1  0  0  0  0
 57 65  1  0  0  0  0
 58 65  1  0  0  0  0
 59 65  1  0  0  0  0
 60 77  1  0  0  0  0
 61 78  1  0  0  0  0
 62 85  1  0  0  0  0
 63 65  1  0  0  0  0
 63 76  1  0  0  0  0
 64 78  1  0  0  0  0
 66 69  1  0  0  0  0
M  CHG  2  77   1  78   1
M  ISO  4  36 100  62 101  72 100  85 101
M  END
> <Batch ID>
0192

> <Smiles>
CNC(C)C(=O)NC(C(=O)N1Cc2cc([101O:1][101CH2:1]c3nc4c(c(C5CC[100N:0]([100C:0](=O)N6CCCC(n7nc(-c8ccc(Oc9ccc(F)cc9F)cc8)c(C(N)=O)c7N)C6)C5)n3)CN(C)CC4)ccc2CC1C(=O)NC1CCCc2ccccc21)C(C)(C)C

> <Shape>
0.264

> <Color>
0.082

> <Negative vol penalty>
0.000

$$$$

  -OEChem-04052323293D

 82 90  0     1  0  0  0  0  0999 V2000
  -17.7959  -30.7105   19.5602 C   0  0  0  0  0  0  0  0  0  0  0  0
  -19.1652  -30.7370   19.3154 C   0  0  0  0  0  0  0  0  0  0  0  0
  -26.4001  -13.0848   21.6260 C   0  0  0  0  0  0  0  0  0  0  0  0
  -26.0899  -13.8508   19.3558 C   0  0  0  0  0  0  0  0  0  0  0  0
  -17.3198  -30.3154   20.8096 C   0  0  0  0  0  0  0  0  0  0  0  0
  -20.0592  -30.3694   20.3204 C   0  0  0  0  0  0  0  0  0  0  0  0
  -25.4066  -27.4697   19.6109 C   0  0  0  0  0  0  0  0  0  0  0  0
  -25.1352  -12.4976   21.6007 C   0  0  0  0  0  0  0  0  0  0  0  0
  -24.8249  -13.2635   19.3304 C   0  0  0  0  0  0  0  0  0  0  0  0
  -26.7225  -27.9276   19.5610 C   0  0  0  0  0  0  0  0  0  0  0  0
  -23.7186   -9.6854   20.3686 C   0  0  0  0  0  0  0  0  0  0  0  0
  -23.5938   -8.3926   20.8772 C   0  0  0  0  0  0  0  0  0  0  0  0
  -26.9757  -27.4375   21.9093 C   0  0  0  0  0  0  0  0  0  0  0  0
  -22.0096   -9.1908   22.5174 C   0  0  0  0  0  0  0  0  0  0  0  0
  -26.8775  -13.7615   20.5035 C   0  0  0  0  0  0  0  0  0  0  0  0
  -29.4054  -13.7737   20.1612 C   0  0  0  0  0  0  0  0  0  0  0  0
  -18.2081  -29.9335   21.8273 C   0  0  0  0  0  0  0  0  0  0  0  0
  -24.8610  -27.0017   20.8150 C   0  0  0  0  0  0  0  0  0  0  0  0
  -19.5946  -29.9701   21.5851 C   0  0  0  0  0  0  0  0  0  0  0  0
  -25.6535  -26.9719   21.9713 C   0  0  0  0  0  0  0  0  0  0  0  0
  -24.3476  -12.5869   20.4530 C   0  0  0  0  0  0  0  0  0  0  0  0
  -27.5064  -27.9143   20.7109 C   0  0  0  0  0  0  0  0  0  0  0  0
  -22.9889  -10.7310   20.9344 C   0  0  0  0  0  0  0  0  0  0  0  0
  -22.7393   -8.1453   21.9516 C   0  0  0  0  0  0  0  0  0  0  0  0
  -22.1344  -10.4836   22.0088 C   0  0  0  0  0  0  0  0  0  0  0  0
  -28.1838  -14.3688   20.5292 C   0  0  0  0  0  0  0  0  0  0  0  0
  -30.3417  -14.7578   20.3644 C   0  0  0  0  0  0  0  0  0  0  0  0
  -29.6700  -12.4497   19.6788 C   0  0  0  0  0  0  0  0  0  0  0  0
  -22.4488  -27.8958   22.6820 C   0  0  0  0  0  0  0  0  0  0  0  0
  -23.1943  -25.1768   24.2862 C   0  0  0  0  0  0  0  0  0  0  0  0
  -25.5387  -22.8216   25.0632 C   0  0  0  0  0  0  0  0  0  0  0  0
  -29.9264  -20.6470   20.3439 C   0  0  0  0  0  0  0  0  0  0  0  0
  -17.6482  -29.5592   23.1768 C   0  0  0  0  0  0  0  0  0  0  0  0
  -23.4483  -26.4863   20.8462 C   0  0  0  0  0  0  0  0  0  0  0  0
  -25.1215  -26.4603   23.2843 C   0  0  0  0  0  0  0  0  0  0  0  0
  -18.6470  -28.8259   24.0685 C   0  0  0  0  0  0  0  0  0  0  0  0
  -31.1912  -18.6192   23.0617 C   0  0  0  0  0  0  0  0  0  0  0  0
  -19.9971  -29.5356   24.0538 C   0  0  0  0  0  0  0  0  0  0  0  0
  -30.6713  -17.2335   22.6747 C   0  0  0  0  0  0  0  0  0  0  0  0
  -32.3177  -25.2405   19.0056 C   0  0  0  0  0  0  0  0  0  0  0  0
  -30.1760  -19.7058   22.7198 C   0  0  0  0  0  0  0  0  0  0  0  0
  -29.2262  -18.3365   20.9042 C   0  0  0  0  0  0  0  0  0  0  0  0
  -32.3032  -23.9108   18.2689 C   0  0  0  0  0  0  0  0  0  0  0  0
  -20.5950  -29.5548   22.6419 C   0  0  1  0  0  0  0  0  0  0  0  0
  -22.8337  -26.5115   22.2422 C   0  0  1  0  0  0  0  0  0  0  0  0
  -30.2163  -17.1964   21.2037 C   0  0  2  0  0  0  0  0  0  0  0  0
  -30.6610  -24.3135   20.6972 C   0  0  2  0  0  0  0  0  0  0  0  0
  -30.9998  -25.4755   19.7456 C   0  0  1  0  0  0  0  0  0  0  0  0
  -30.6703  -22.9784   19.9339 C   0  0  2  0  0  0  0  0  0  0  0  0
  -25.8640  -20.7414   26.4287 C   0  0  0  0  0  0  0  0  0  0  0  0
  -31.6210  -29.1283   20.4238 C   0  0  0  0  0  0  0  0  0  0  0  0
  -23.3833  -26.8705   26.8171 C   0  0  0  0  0  0  0  0  0  0  0  0
  -24.6074  -24.9786   27.9082 C   0  0  0  0  0  0  0  0  0  0  0  0
  -22.2611  -24.6569   27.1247 C   0  0  0  0  0  0  0  0  0  0  0  0
  -26.1318  -21.1980   22.6609 C   0  0  0  0  0  0  0  0  0  0  0  0
  -29.4877  -28.2094   19.4290 C   0  0  0  0  0  0  0  0  0  1  0  0
  -24.1235  -24.8271   25.4234 C   0  0  1  0  0  0  0  0  0  0  0  0
  -25.4791  -21.3047   25.0695 C   0  0  2  0  0  0  0  0  0  0  0  0
  -30.9726  -27.9722   19.6798 C   0  0  2  0  0  0  0  0  0  0  0  0
  -23.6036  -25.3448   26.7942 C   0  0  0  0  0  0  0  0  0  0  0  0
  -28.3279  -15.6330   20.9355 N   0  0  0  0  0  0  0  0  0  0  0  0
  -29.6511  -15.8403   20.8242 N   0  0  0  0  0  0  0  0  0  0  0  0
  -23.7324  -25.9730   23.2652 N   0  0  0  0  0  0  0  0  0  0  0  0
  -29.7987  -19.6271   21.3015 N   0  0  0  0  0  0  0  0  0  0  0  0
  -31.6803  -14.7940   20.1930 N   0  0  0  0  0  0  0  0  0  0  0  0
  -28.5929  -11.5657   19.5285 N   0  0  0  0  0  0  0  0  0  0  0  0
  -29.3457  -24.5144   21.3132 N   0  0  0  0  0  0  0  0  0  0  0  0
  -21.1682  -28.2660   22.3182 N   0  0  0  0  0  0  0  0  0  0  0  0
  -24.3154  -23.3821   25.3642 N   0  0  0  0  0  0  0  0  0  0  0  0
  -30.4713  -21.8399   20.8030 N   0  0  0  0  0  0  0  0  0  0  0  0
  -31.9849  -22.8206   19.2360 N   0  3  0  0  0  0  0  0  0  0  0  0
  -31.1218  -26.7424   20.5107 N   0  3  0  0  0  0  0  0  0  0  0  0
  -26.4095  -20.7456   24.0484 N   0  3  0  0  0  0  0  0  0  0  0  0
  -30.8294  -12.0569   19.4052 O   0  0  0  0  0  0  0  0  0  0  0  0
  -23.2536  -28.5770   23.3065 O   0  0  0  0  0  0  0  0  0  0  0  0
  -22.0359  -24.7530   24.2997 O   0  0  0  0  0  0  0  0  0  0  0  0
  -26.5685  -23.4467   24.8196 O   0  0  0  0  0  0  0  0  0  0  0  0
  -29.5850  -20.5034   19.1650 O   0  0  0  0  0  0  0  0  0  0  0  0
  -23.1133  -12.0137   20.4279 O   0  0  0  0  0  0  0  0  0  0  0  0
  -28.7909  -28.3612   20.6651 O   0  0  0  0  0  0  0  0  0  1  0  0
  -22.6184   -6.9035   22.4389 F   0  0  0  0  0  0  0  0  0  0  0  0
  -21.4299  -11.4838   22.5558 F   0  0  0  0  0  0  0  0  0  0  0  0
  1  2  1  0  0  0  0
  1  5  2  0  0  0  0
  2  6  2  0  0  0  0
  3  8  2  0  0  0  0
  3 15  1  0  0  0  0
  4  9  1  0  0  0  0
  4 15  2  0  0  0  0
  5 17  1  0  0  0  0
  6 19  1  0  0  0  0
  7 10  2  0  0  0  0
  7 18  1  0  0  0  0
  8 21  1  0  0  0  0
  9 21  2  0  0  0  0
 10 22  1  0  0  0  0
 11 12  2  0  0  0  0
 11 23  1  0  0  0  0
 12 24  1  0  0  0  0
 13 20  1  0  0  0  0
 13 22  2  0  0  0  0
 14 24  2  0  0  0  0
 14 25  1  0  0  0  0
 15 26  1  0  0  0  0
 16 26  1  0  0  0  0
 16 27  2  0  0  0  0
 16 28  1  0  0  0  0
 17 19  2  0  0  0  0
 17 33  1  0  0  0  0
 18 20  2  0  0  0  0
 18 34  1  0  0  0  0
 19 44  1  0  0  0  0
 20 35  1  0  0  0  0
 21 79  1  0  0  0  0
 22 80  1  0  0  0  0
 23 25  2  0  0  0  0
 23 79  1  0  0  0  0
 24 81  1  0  0  0  0
 25 82  1  0  0  0  0
 26 61  2  0  0  0  0
 27 62  1  0  0  0  0
 27 65  1  0  0  0  0
 28 66  1  0  0  0  0
 28 74  2  0  0  0  0
 29 45  1  0  0  0  0
 29 68  1  0  0  0  0
 29 75  2  0  0  0  0
 30 57  1  0  0  0  0
 30 63  1  0  0  0  0
 30 76  2  0  0  0  0
 31 58  1  0  0  0  0
 31 69  1  0  0  0  0
 31 77  2  0  0  0  0
 32 64  1  0  0  0  0
 32 70  1  0  0  0  0
 32 78  2  0  0  0  0
 33 36  1  0  0  0  0
 34 45  1  0  0  0  0
 35 63  1  0  0  0  0
 36 38  1  0  0  0  0
 37 39  1  0  0  0  0
 37 41  1  0  0  0  0
 38 44  1  0  0  0  0
 39 46  1  0  0  0  0
 40 43  1  0  0  0  0
 40 48  1  0  0  0  0
 41 64  1  0  0  0  0
 42 46  1  0  0  0  0
 42 64  1  0  0  0  0
 43 71  1  0  0  0  0
 44 68  1  0  0  0  0
 45 63  1  0  0  0  0
 46 62  1  0  0  0  0
 47 48  1  0  0  0  0
 47 49  1  0  0  0  0
 47 67  1  0  0  0  0
 48 72  1  0  0  0  0
 49 70  1  0  0  0  0
 49 71  1  0  0  0  0
 50 58  1  0  0  0  0
 51 59  1  0  0  0  0
 52 60  1  0  0  0  0
 53 60  1  0  0  0  0
 54 60  1  0  0  0  0
 55 73  1  0  0  0  0
 56 59  1  0  0  0  0
 56 80  1  0  0  0  0
 57 60  1  0  0  0  0
 57 69  1  0  0  0  0
 58 73  1  0  0  0  0
 59 72  1  0  0  0  0
 61 62  1  0  0  0  0
M  CHG  3  71   1  72   1  73   1
M  ISO  4  32 100  56 101  70 100  80 101
M  END
> <Batch ID>
0192

> <Smiles>
CNC(C)C(=O)NC(C(=O)N1Cc2cc([101O:1][101CH2:1]C(C)NC3CCNC([100NH:0][100C:0](=O)N4CCCC(n5nc(-c6ccc(Oc7ccc(F)cc7F)cc6)c(C(N)=O)c5N)C4)C3N)ccc2CC1C(=O)NC1CCCc2ccccc21)C(C)(C)C

> <Shape>
0.259

> <Color>
0.085

> <Negative vol penalty>
0.000

$$$$

  -OEChem-04052323293D

 86 95  0     1  0  0  0  0  0999 V2000
  -30.8163  -24.2818   17.1438 C   0  0  0  0  0  0  0  0  0  0  0  0
  -29.5249  -24.7643   17.3236 C   0  0  0  0  0  0  0  0  0  0  0  0
  -26.5503  -13.4674   21.4683 C   0  0  0  0  0  0  0  0  0  0  0  0
  -25.3511  -14.0477   19.4529 C   0  0  0  0  0  0  0  0  0  0  0  0
  -31.7968  -24.5541   18.0955 C   0  0  0  0  0  0  0  0  0  0  0  0
  -29.2164  -25.5293   18.4490 C   0  0  0  0  0  0  0  0  0  0  0  0
  -24.7394  -27.5623   18.6108 C   0  0  0  0  0  0  0  0  0  0  0  0
  -25.5247  -12.5926   21.8267 C   0  0  0  0  0  0  0  0  0  0  0  0
  -24.3255  -13.1729   19.8112 C   0  0  0  0  0  0  0  0  0  0  0  0
  -23.5806  -26.8173   18.8249 C   0  0  0  0  0  0  0  0  0  0  0  0
  -22.4376  -12.7986   23.1875 C   0  0  0  0  0  0  0  0  0  0  0  0
  -21.9914  -12.8308   24.5087 C   0  0  0  0  0  0  0  0  0  0  0  0
  -23.5062  -27.5994   21.1056 C   0  0  0  0  0  0  0  0  0  0  0  0
  -22.6064  -10.5094   24.7730 C   0  0  0  0  0  0  0  0  0  0  0  0
  -22.1017  -22.3213   15.8457 C   0  0  0  0  0  0  0  0  0  0  0  0
  -26.4635  -14.1950   20.2814 C   0  0  0  0  0  0  0  0  0  0  0  0
  -28.6654  -14.8015   19.1449 C   0  0  0  0  0  0  0  0  0  0  0  0
  -31.4962  -25.3124   19.2391 C   0  0  0  0  0  0  0  0  0  0  0  0
  -25.2974  -28.3242   19.6475 C   0  0  0  0  0  0  0  0  0  0  0  0
  -30.1981  -25.8351   19.4089 C   0  0  0  0  0  0  0  0  0  0  0  0
  -24.6707  -28.3552   20.9015 C   0  0  0  0  0  0  0  0  0  0  0  0
  -21.7748  -21.5016   18.3817 C   0  0  0  0  0  0  0  0  0  0  0  0
  -24.4123  -12.4453   20.9982 C   0  0  0  0  0  0  0  0  0  0  0  0
  -22.9654  -26.8335   20.0732 C   0  0  0  0  0  0  0  0  0  0  0  0
  -22.9682  -11.6218   22.6590 C   0  0  0  0  0  0  0  0  0  0  0  0
  -22.0759  -11.6862   25.3014 C   0  0  0  0  0  0  0  0  0  0  0  0
  -23.0526  -10.4772   23.4517 C   0  0  0  0  0  0  0  0  0  0  0  0
  -27.5224  -15.0992   19.9109 C   0  0  0  0  0  0  0  0  0  0  0  0
  -22.9706  -22.0163   17.9239 C   0  0  0  0  0  0  0  0  0  0  0  0
  -20.7579  -21.4357   17.4511 C   0  0  0  0  0  0  0  0  0  0  0  0
  -29.3522  -15.9890   19.0772 C   0  0  0  0  0  0  0  0  0  0  0  0
  -29.0700  -13.5624   18.5479 C   0  0  0  0  0  0  0  0  0  0  0  0
  -28.0665  -28.3015   21.2079 C   0  0  0  0  0  0  0  0  0  0  0  0
  -26.8794  -30.9990   22.5630 C   0  0  0  0  0  0  0  0  0  0  0  0
  -24.1424  -32.8563   23.4034 C   0  0  0  0  0  0  0  0  0  0  0  0
  -27.4699  -21.7225   19.6651 C   0  0  0  0  0  0  0  0  0  0  0  0
  -32.5976  -25.5838   20.2333 C   0  0  0  0  0  0  0  0  0  0  0  0
  -26.5328  -29.1435   19.3928 C   0  0  0  0  0  0  0  0  0  0  0  0
  -25.2184  -29.1729   22.0416 C   0  0  0  0  0  0  0  0  0  0  0  0
  -32.0729  -26.0188   21.5978 C   0  0  0  0  0  0  0  0  0  0  0  0
  -30.0917  -20.0444   21.4657 C   0  0  0  0  0  0  0  0  0  0  0  0
  -31.0517  -27.1341   21.4304 C   0  0  0  0  0  0  0  0  0  0  0  0
  -29.8062  -18.5615   21.2529 C   0  0  0  0  0  0  0  0  0  0  0  0
  -28.7967  -20.8412   21.5494 C   0  0  0  0  0  0  0  0  0  0  0  0
  -25.0039  -20.9113   19.3171 C   0  0  0  0  0  0  0  0  0  0  0  0
  -25.5976  -22.5843   18.1587 C   0  0  0  0  0  0  0  0  0  0  0  0
  -27.6394  -19.2086   20.0834 C   0  0  0  0  0  0  0  0  0  0  0  0
  -29.8318  -26.6436   20.6404 C   0  0  1  0  0  0  0  0  0  0  0  0
  -24.2635  -22.1791   18.8267 C   0  0  0  0  0  0  0  0  0  0  0  0
  -27.3021  -29.4767   20.6674 C   0  0  1  0  0  0  0  0  0  0  0  0
  -28.9226  -18.3572   20.0139 C   0  0  2  0  0  0  0  0  0  0  0  0
  -19.4187  -20.8964   17.8325 C   0  0  0  0  0  0  0  0  0  0  0  0
  -23.4868  -34.9970   24.5369 C   0  0  0  0  0  0  0  0  0  0  0  0
  -27.4260  -29.7244   25.2808 C   0  0  0  0  0  0  0  0  0  0  0  0
  -25.9187  -31.4383   26.3099 C   0  0  0  0  0  0  0  0  0  0  0  0
  -27.9989  -32.1544   25.1340 C   0  0  0  0  0  0  0  0  0  0  0  0
  -22.8769  -33.9071   20.9430 C   0  0  0  0  0  0  0  0  0  0  0  0
  -21.6025  -21.0459   19.8018 C   0  0  0  0  0  0  0  0  0  0  0  0
  -20.8049  -22.0156   20.6681 C   0  0  0  0  0  0  0  0  0  0  0  0
  -20.7818  -24.3527   21.5491 C   0  0  0  0  0  0  0  0  0  0  0  0
  -21.6148  -25.6179   21.6076 C   0  0  0  0  0  0  0  0  0  1  0  0
  -26.0403  -31.3038   23.7804 C   0  0  1  0  0  0  0  0  0  0  0  0
  -23.8277  -34.3292   23.2138 C   0  0  2  0  0  0  0  0  0  0  0  0
  -26.8365  -31.1382   25.1056 C   0  0  0  0  0  0  0  0  0  0  0  0
  -23.1697  -22.4372   16.6576 N   0  0  0  0  0  0  0  0  0  0  0  0
  -20.8870  -21.8384   16.1699 N   0  0  0  0  0  0  0  0  0  0  0  0
  -27.4819  -16.3757   20.3020 N   0  0  0  0  0  0  0  0  0  0  0  0
  -28.6080  -16.8906   19.7797 N   0  0  0  0  0  0  0  0  0  0  0  0
  -26.4318  -29.9521   21.7449 N   0  0  0  0  0  0  0  0  0  0  0  0
  -27.9341  -20.6163   20.3855 N   0  0  0  0  0  0  0  0  0  0  0  0
  -26.2374  -21.6355   19.0617 N   0  0  0  0  0  0  0  0  0  0  0  0
  -30.5141  -16.3395   18.4859 N   0  0  0  0  0  0  0  0  0  0  0  0
  -28.2474  -12.4401   18.7151 N   0  0  0  0  0  0  0  0  0  0  0  0
  -28.9885  -27.7751   20.3235 N   0  0  0  0  0  0  0  0  0  0  0  0
  -25.4934  -32.6406   23.5750 N   0  0  0  0  0  0  0  0  0  0  0  0
  -22.6698  -34.4969   22.2907 N   0  3  0  0  0  0  0  0  0  0  0  0
  -21.5126  -23.3203   20.7716 N   0  3  0  0  0  0  0  0  0  0  0  0
  -30.1380  -13.4496   17.8995 O   0  0  0  0  0  0  0  0  0  0  0  0
  -27.8379  -27.9028   22.3439 O   0  0  0  0  0  0  0  0  0  0  0  0
  -27.8906  -31.6700   22.3421 O   0  0  0  0  0  0  0  0  0  0  0  0
  -23.2759  -31.9846   23.4032 O   0  0  0  0  0  0  0  0  0  0  0  0
  -28.1230  -22.7715   19.5863 O   0  0  0  0  0  0  0  0  0  0  0  0
  -23.4114  -11.5916   21.3474 O   0  0  0  0  0  0  0  0  0  0  0  0
  -21.8346  -26.1066   20.2850 O   0  0  0  0  0  0  0  0  0  1  0  0
  -21.6488  -11.7177   26.5706 F   0  0  0  0  0  0  0  0  0  0  0  0
  -23.5624   -9.3440   22.9499 F   0  0  0  0  0  0  0  0  0  0  0  0
  1  2  1  0  0  0  0
  1  5  2  0  0  0  0
  2  6  2  0  0  0  0
  3  8  2  0  0  0  0
  3 16  1  0  0  0  0
  4  9  1  0  0  0  0
  4 16  2  0  0  0  0
  5 18  1  0  0  0  0
  6 20  1  0  0  0  0
  7 10  2  0  0  0  0
  7 19  1  0  0  0  0
  8 23  1  0  0  0  0
  9 23  2  0  0  0  0
 10 24  1  0  0  0  0
 11 12  2  0  0  0  0
 11 25  1  0  0  0  0
 12 26  1  0  0  0  0
 13 21  1  0  0  0  0
 13 24  2  0  0  0  0
 14 26  2  0  0  0  0
 14 27  1  0  0  0  0
 15 65  2  0  0  0  0
 15 66  1  0  0  0  0
 16 28  1  0  0  0  0
 17 28  1  0  0  0  0
 17 31  2  0  0  0  0
 17 32  1  0  0  0  0
 18 20  2  0  0  0  0
 18 37  1  0  0  0  0
 19 21  2  0  0  0  0
 19 38  1  0  0  0  0
 20 48  1  0  0  0  0
 21 39  1  0  0  0  0
 22 29  2  0  0  0  0
 22 30  1  0  0  0  0
 22 58  1  0  0  0  0
 23 83  1  0  0  0  0
 24 84  1  0  0  0  0
 25 27  2  0  0  0  0
 25 83  1  0  0  0  0
 26 85  1  0  0  0  0
 27 86  1  0  0  0  0
 28 67  2  0  0  0  0
 29 49  1  0  0  0  0
 29 65  1  0  0  0  0
 30 52  1  0  0  0  0
 30 66  2  0  0  0  0
 31 68  1  0  0  0  0
 31 72  1  0  0  0  0
 32 73  1  0  0  0  0
 32 78  2  0  0  0  0
 33 50  1  0  0  0  0
 33 74  1  0  0  0  0
 33 79  2  0  0  0  0
 34 62  1  0  0  0  0
 34 69  1  0  0  0  0
 34 80  2  0  0  0  0
 35 63  1  0  0  0  0
 35 75  1  0  0  0  0
 35 81  2  0  0  0  0
 36 70  1  0  0  0  0
 36 71  1  0  0  0  0
 36 82  2  0  0  0  0
 37 40  1  0  0  0  0
 38 50  1  0  0  0  0
 39 69  1  0  0  0  0
 40 42  1  0  0  0  0
 41 43  1  0  0  0  0
 41 44  1  0  0  0  0
 42 48  1  0  0  0  0
 43 51  1  0  0  0  0
 44 70  1  0  0  0  0
 45 49  1  0  0  0  0
 45 71  1  0  0  0  0
 46 49  1  0  0  0  0
 46 71  1  0  0  0  0
 47 51  1  0  0  0  0
 47 70  1  0  0  0  0
 48 74  1  0  0  0  0
 50 69  1  0  0  0  0
 51 68  1  0  0  0  0
 53 63  1  0  0  0  0
 54 64  1  0  0  0  0
 55 64  1  0  0  0  0
 56 64  1  0  0  0  0
 57 76  1  0  0  0  0
 58 59  1  0  0  0  0
 59 77  1  0  0  0  0
 60 61  1  0  0  0  0
 60 77  1  0  0  0  0
 61 84  1  0  0  0  0
 62 64  1  0  0  0  0
 62 75  1  0  0  0  0
 63 76  1  0  0  0  0
 67 68  1  0  0  0  0
M  CHG  2  76   1  77   1
M  ISO  4  36 100  61 101  71 100  84 101
M  END
> <Batch ID>
0192

> <Smiles>
CNC(C)C(=O)NC(C(=O)N1Cc2cc([101O:1][101CH2:1]CNCCc3c(C)ncnc3C3C[100N:0]([100C:0](=O)N4CCCC(n5nc(-c6ccc(Oc7ccc(F)cc7F)cc6)c(C(N)=O)c5N)C4)C3)ccc2CC1C(=O)NC1CCCc2ccccc21)C(C)(C)C

> <Shape>
0.281

> <Color>
0.055

> <Negative vol penalty>
0.000

$$$$

  -OEChem-04052323293D

 83 92  0     1  0  0  0  0  0999 V2000
  -29.1810  -37.4652   23.6153 C   0  0  0  0  0  0  0  0  0  0  0  0
  -29.1645  -36.2026   23.0314 C   0  0  0  0  0  0  0  0  0  0  0  0
  -24.1430   -9.4341   22.2599 C   0  0  0  0  0  0  0  0  0  0  0  0
  -23.3426   -9.6884   19.9946 C   0  0  0  0  0  0  0  0  0  0  0  0
  -28.3282  -37.7504   24.6808 C   0  0  0  0  0  0  0  0  0  0  0  0
  -28.2958  -35.2241   23.5134 C   0  0  0  0  0  0  0  0  0  0  0  0
  -25.4486  -30.8965   20.2467 C   0  0  0  0  0  0  0  0  0  0  0  0
  -23.1449   -8.4916   22.5068 C   0  0  0  0  0  0  0  0  0  0  0  0
  -22.3444   -8.7458   20.2414 C   0  0  0  0  0  0  0  0  0  0  0  0
  -25.7357  -29.5511   20.0203 C   0  0  0  0  0  0  0  0  0  0  0  0
  -22.5928   -5.2197   21.8568 C   0  0  0  0  0  0  0  0  0  0  0  0
  -22.9558   -4.0516   22.5272 C   0  0  0  0  0  0  0  0  0  0  0  0
  -24.2332  -28.9364   21.8046 C   0  0  0  0  0  0  0  0  0  0  0  0
  -21.3961   -4.5814   24.2947 C   0  0  0  0  0  0  0  0  0  0  0  0
  -27.2210  -24.7701   20.3328 C   0  0  0  0  0  0  0  0  0  0  0  0
  -26.0336  -23.5412   18.2816 C   0  0  0  0  0  0  0  0  0  0  0  0
  -24.2418  -10.0326   21.0038 C   0  0  0  0  0  0  0  0  0  0  0  0
  -26.5707  -10.7631   20.2619 C   0  0  0  0  0  0  0  0  0  0  0  0
  -27.4418  -36.7779   25.1698 C   0  0  0  0  0  0  0  0  0  0  0  0
  -24.5585  -31.2732   21.2627 C   0  0  0  0  0  0  0  0  0  0  0  0
  -27.4313  -35.4961   24.5872 C   0  0  0  0  0  0  0  0  0  0  0  0
  -23.9345  -30.2871   22.0402 C   0  0  0  0  0  0  0  0  0  0  0  0
  -22.2456   -8.1474   21.4976 C   0  0  0  0  0  0  0  0  0  0  0  0
  -25.1302  -28.5710   20.8012 C   0  0  0  0  0  0  0  0  0  0  0  0
  -21.6315   -6.0687   22.4053 C   0  0  0  0  0  0  0  0  0  0  0  0
  -22.3575   -3.7325   23.7461 C   0  0  0  0  0  0  0  0  0  0  0  0
  -21.0332   -5.7495   23.6242 C   0  0  0  0  0  0  0  0  0  0  0  0
  -25.2723  -11.0067   20.7483 C   0  0  0  0  0  0  0  0  0  0  0  0
  -26.4839  -25.4787   19.4097 C   0  0  0  0  0  0  0  0  0  0  0  0
  -26.7712  -22.8325   19.2042 C   0  0  0  0  0  0  0  0  0  0  0  0
  -27.1513  -12.0060   20.1954 C   0  0  0  0  0  0  0  0  0  0  0  0
  -27.1960   -9.5240   19.9024 C   0  0  0  0  0  0  0  0  0  0  0  0
  -24.7900  -32.9994   23.9216 C   0  0  0  0  0  0  0  0  0  0  0  0
  -21.5789  -32.5521   24.0275 C   0  0  0  0  0  0  0  0  0  0  0  0
  -18.8844  -30.6685   23.1119 C   0  0  0  0  0  0  0  0  0  0  0  0
  -27.1396  -17.2264   18.9339 C   0  0  0  0  0  0  0  0  0  0  0  0
  -26.5723  -37.1182   26.3542 C   0  0  0  0  0  0  0  0  0  0  0  0
  -24.2389  -32.7273   21.4766 C   0  0  0  0  0  0  0  0  0  0  0  0
  -22.9560  -30.6380   23.1301 C   0  0  0  0  0  0  0  0  0  0  0  0
  -25.4168  -36.1424   26.5618 C   0  0  0  0  0  0  0  0  0  0  0  0
  -25.6259  -16.4658   22.0112 C   0  0  0  0  0  0  0  0  0  0  0  0
  -25.9088  -34.7024   26.4575 C   0  0  0  0  0  0  0  0  0  0  0  0
  -25.4997  -14.9454   21.9201 C   0  0  0  0  0  0  0  0  0  0  0  0
  -25.3054  -17.1482   20.6803 C   0  0  0  0  0  0  0  0  0  0  0  0
  -28.0933  -20.7627   19.5143 C   0  0  0  0  0  0  0  0  0  0  0  0
  -25.6451  -20.6572   19.0233 C   0  0  0  0  0  0  0  0  0  0  0  0
  -28.2719  -19.4148   18.8208 C   0  0  0  0  0  0  0  0  0  0  0  0
  -25.8688  -19.3188   18.3282 C   0  0  0  0  0  0  0  0  0  0  0  0
  -25.9607  -15.1083   19.4445 C   0  0  0  0  0  0  0  0  0  0  0  0
  -26.4857  -34.4159   25.0658 C   0  0  1  0  0  0  0  0  0  0  0  0
  -23.7104  -33.0232   22.8768 C   0  0  1  0  0  0  0  0  0  0  0  0
  -26.3335  -14.3910   20.7513 C   0  0  2  0  0  0  0  0  0  0  0  0
  -16.3932  -30.5320   23.3817 C   0  0  0  0  0  0  0  0  0  0  0  0
  -21.9468  -31.4862   26.8627 C   0  0  0  0  0  0  0  0  0  0  0  0
  -19.6472  -30.5068   26.7183 C   0  0  0  0  0  0  0  0  0  0  0  0
  -19.9616  -32.9763   26.5579 C   0  0  0  0  0  0  0  0  0  0  0  0
  -18.4373  -30.9465   20.1996 C   0  0  0  0  0  0  0  0  0  0  0  0
  -26.3318  -26.9544   19.5367 C   0  0  0  0  0  0  0  0  0  1  0  0
  -20.6639  -31.5091   24.6223 C   0  0  1  0  0  0  0  0  0  0  0  0
  -17.5376  -31.0543   22.5272 C   0  0  2  0  0  0  0  0  0  0  0  0
  -20.5748  -31.6128   26.1711 C   0  0  0  0  0  0  0  0  0  0  0  0
  -25.8767  -24.8770   18.3678 N   0  0  0  0  0  0  0  0  0  0  0  0
  -27.3781  -23.4343   20.2464 N   0  0  0  0  0  0  0  0  0  0  0  0
  -25.0413  -12.3026   20.9748 N   0  0  0  0  0  0  0  0  0  0  0  0
  -26.2024  -12.8844   20.6293 N   0  0  0  0  0  0  0  0  0  0  0  0
  -26.8847  -21.4460   19.0408 N   0  0  0  0  0  0  0  0  0  0  0  0
  -22.6810  -32.0738   23.3048 N   0  0  0  0  0  0  0  0  0  0  0  0
  -26.0944  -16.5593   19.5900 N   0  0  0  0  0  0  0  0  0  0  0  0
  -27.0470  -18.6247   18.8519 N   0  0  0  0  0  0  0  0  0  0  0  0
  -28.3758  -12.4224   19.8087 N   0  0  0  0  0  0  0  0  0  0  0  0
  -26.4567   -8.3403   20.0315 N   0  0  0  0  0  0  0  0  0  0  0  0
  -25.4193  -34.2154   24.1081 N   0  0  0  0  0  0  0  0  0  0  0  0
  -19.3828  -31.6526   23.9392 N   0  0  0  0  0  0  0  0  0  0  0  0
  -17.3906  -30.4966   21.1530 N   0  3  0  0  0  0  0  0  0  0  0  0
  -28.3809   -9.4664   19.4947 O   0  0  0  0  0  0  0  0  0  0  0  0
  -25.0330  -31.9555   24.5157 O   0  0  0  0  0  0  0  0  0  0  0  0
  -21.3213  -33.7472   24.1919 O   0  0  0  0  0  0  0  0  0  0  0  0
  -19.4371  -29.5994   22.8629 O   0  0  0  0  0  0  0  0  0  0  0  0
  -28.0999  -16.6124   18.4527 O   0  0  0  0  0  0  0  0  0  0  0  0
  -21.2717   -7.2275   21.7381 O   0  0  0  0  0  0  0  0  0  0  0  0
  -25.4110  -27.2484   20.5813 O   0  0  0  0  0  0  0  0  0  1  0  0
  -22.7050   -2.6100   24.3891 F   0  0  0  0  0  0  0  0  0  0  0  0
  -20.1082   -6.5606   24.1555 F   0  0  0  0  0  0  0  0  0  0  0  0
  1  2  1  0  0  0  0
  1  5  2  0  0  0  0
  2  6  2  0  0  0  0
  3  8  2  0  0  0  0
  3 17  1  0  0  0  0
  4  9  1  0  0  0  0
  4 17  2  0  0  0  0
  5 19  1  0  0  0  0
  6 21  1  0  0  0  0
  7 10  2  0  0  0  0
  7 20  1  0  0  0  0
  8 23  1  0  0  0  0
  9 23  2  0  0  0  0
 10 24  1  0  0  0  0
 11 12  2  0  0  0  0
 11 25  1  0  0  0  0
 12 26  1  0  0  0  0
 13 22  1  0  0  0  0
 13 24  2  0  0  0  0
 14 26  2  0  0  0  0
 14 27  1  0  0  0  0
 15 29  1  0  0  0  0
 15 63  2  0  0  0  0
 16 30  2  0  0  0  0
 16 62  1  0  0  0  0
 17 28  1  0  0  0  0
 18 28  1  0  0  0  0
 18 31  2  0  0  0  0
 18 32  1  0  0  0  0
 19 21  2  0  0  0  0
 19 37  1  0  0  0  0
 20 22  2  0  0  0  0
 20 38  1  0  0  0  0
 21 50  1  0  0  0  0
 22 39  1  0  0  0  0
 23 80  1  0  0  0  0
 24 81  1  0  0  0  0
 25 27  2  0  0  0  0
 25 80  1  0  0  0  0
 26 82  1  0  0  0  0
 27 83  1  0  0  0  0
 28 64  2  0  0  0  0
 29 58  1  0  0  0  0
 29 62  2  0  0  0  0
 30 63  1  0  0  0  0
 30 66  1  0  0  0  0
 31 65  1  0  0  0  0
 31 70  1  0  0  0  0
 32 71  1  0  0  0  0
 32 75  2  0  0  0  0
 33 51  1  0  0  0  0
 33 72  1  0  0  0  0
 33 76  2  0  0  0  0
 34 59  1  0  0  0  0
 34 67  1  0  0  0  0
 34 77  2  0  0  0  0
 35 60  1  0  0  0  0
 35 73  1  0  0  0  0
 35 78  2  0  0  0  0
 36 68  1  0  0  0  0
 36 69  1  0  0  0  0
 36 79  2  0  0  0  0
 37 40  1  0  0  0  0
 38 51  1  0  0  0  0
 39 67  1  0  0  0  0
 40 42  1  0  0  0  0
 41 43  1  0  0  0  0
 41 44  1  0  0  0  0
 42 50  1  0  0  0  0
 43 52  1  0  0  0  0
 44 68  1  0  0  0  0
 45 47  1  0  0  0  0
 45 66  1  0  0  0  0
 46 48  1  0  0  0  0
 46 66  1  0  0  0  0
 47 69  1  0  0  0  0
 48 69  1  0  0  0  0
 49 52  1  0  0  0  0
 49 68  1  0  0  0  0
 50 72  1  0  0  0  0
 51 67  1  0  0  0  0
 52 65  1  0  0  0  0
 53 60  1  0  0  0  0
 54 61  1  0  0  0  0
 55 61  1  0  0  0  0
 56 61  1  0  0  0  0
 57 74  1  0  0  0  0
 58 81  1  0  0  0  0
 59 61  1  0  0  0  0
 59 73  1  0  0  0  0
 60 74  1  0  0  0  0
 64 65  1  0  0  0  0
M  CHG  1  74   1
M  ISO  4  36 100  58 101  69 100  81 101
M  END
> <Batch ID>
0192

> <Smiles>
CNC(C)C(=O)NC(C(=O)N1Cc2cc([101O:1][101CH2:1]c3cnc(N4CC[100N:0]([100C:0](=O)N5CCCC(n6nc(-c7ccc(Oc8ccc(F)cc8F)cc7)c(C(N)=O)c6N)C5)CC4)cn3)ccc2CC1C(=O)NC1CCCc2ccccc21)C(C)(C)C

> <Shape>
0.278

> <Color>
0.092

> <Negative vol penalty>
0.000

$$$$

  -OEChem-04052323293D

 84 92  0     1  0  0  0  0  0999 V2000
  -24.5975  -38.2444   22.1207 C   0  0  0  0  0  0  0  0  0  0  0  0
  -25.4519  -37.4007   21.4182 C   0  0  0  0  0  0  0  0  0  0  0  0
  -22.7612  -10.3120   20.3919 C   0  0  0  0  0  0  0  0  0  0  0  0
  -24.5389   -9.0558   21.4401 C   0  0  0  0  0  0  0  0  0  0  0  0
  -23.8882  -37.7595   23.2187 C   0  0  0  0  0  0  0  0  0  0  0  0
  -25.5983  -36.0716   21.8141 C   0  0  0  0  0  0  0  0  0  0  0  0
  -26.7832  -29.5416   19.1177 C   0  0  0  0  0  0  0  0  0  0  0  0
  -21.8581   -9.8205   21.3345 C   0  0  0  0  0  0  0  0  0  0  0  0
  -23.6358   -8.5643   22.3828 C   0  0  0  0  0  0  0  0  0  0  0  0
  -27.6305  -28.4464   19.2808 C   0  0  0  0  0  0  0  0  0  0  0  0
  -21.2489   -6.1748   22.5367 C   0  0  0  0  0  0  0  0  0  0  0  0
  -21.2974   -4.8124   22.8319 C   0  0  0  0  0  0  0  0  0  0  0  0
  -26.2943  -27.6979   21.1446 C   0  0  0  0  0  0  0  0  0  0  0  0
  -21.7756   -5.3302   25.1428 C   0  0  0  0  0  0  0  0  0  0  0  0
  -24.1016   -9.9295   20.4447 C   0  0  0  0  0  0  0  0  0  0  0  0
  -24.9797  -10.2708   18.0740 C   0  0  0  0  0  0  0  0  0  0  0  0
  -24.0187  -36.4213   23.6224 C   0  0  0  0  0  0  0  0  0  0  0  0
  -25.6896  -29.7293   19.9751 C   0  0  0  0  0  0  0  0  0  0  0  0
  -24.8911  -35.5687   22.9193 C   0  0  0  0  0  0  0  0  0  0  0  0
  -25.4333  -28.7949   20.9886 C   0  0  0  0  0  0  0  0  0  0  0  0
  -22.2954   -8.9467   22.3299 C   0  0  0  0  0  0  0  0  0  0  0  0
  -27.3878  -27.5260   20.2961 C   0  0  0  0  0  0  0  0  0  0  0  0
  -21.4638   -7.1149   23.5445 C   0  0  0  0  0  0  0  0  0  0  0  0
  -21.5607   -4.3901   24.1349 C   0  0  0  0  0  0  0  0  0  0  0  0
  -21.7271   -6.6926   24.8476 C   0  0  0  0  0  0  0  0  0  0  0  0
  -25.0348  -10.4364   19.4709 C   0  0  0  0  0  0  0  0  0  0  0  0
  -26.0863  -10.9360   17.6055 C   0  0  0  0  0  0  0  0  0  0  0  0
  -24.0146   -9.5777   17.2717 C   0  0  0  0  0  0  0  0  0  0  0  0
  -24.8247  -31.9786   22.0479 C   0  0  0  0  0  0  0  0  0  0  0  0
  -22.1068  -30.2172   22.2297 C   0  0  0  0  0  0  0  0  0  0  0  0
  -20.5870  -27.1865   21.8399 C   0  0  0  0  0  0  0  0  0  0  0  0
  -29.3655  -15.4420   19.7948 C   0  0  0  0  0  0  0  0  0  0  0  0
  -23.2675  -35.9551   24.8443 C   0  0  0  0  0  0  0  0  0  0  0  0
  -24.7697  -30.9014   19.7692 C   0  0  0  0  0  0  0  0  0  0  0  0
  -24.2609  -28.9400   21.9230 C   0  0  0  0  0  0  0  0  0  0  0  0
  -23.1932  -34.4357   24.9707 C   0  0  0  0  0  0  0  0  0  0  0  0
  -30.5192  -12.1977   18.8894 C   0  0  0  0  0  0  0  0  0  0  0  0
  -24.5628  -33.8118   24.7224 C   0  0  0  0  0  0  0  0  0  0  0  0
  -29.2395  -11.3634   18.8098 C   0  0  0  0  0  0  0  0  0  0  0  0
  -28.1094  -18.2183   20.9527 C   0  0  0  0  0  0  0  0  0  0  0  0
  -30.4526  -13.2271   20.0154 C   0  0  0  0  0  0  0  0  0  0  0  0
  -27.9982  -19.7405   20.8737 C   0  0  0  0  0  0  0  0  0  0  0  0
  -26.8564  -19.6124   18.7440 C   0  0  0  0  0  0  0  0  0  0  0  0
  -27.9913  -13.2748   19.8995 C   0  0  0  0  0  0  0  0  0  0  0  0
  -25.0578  -34.1143   23.3029 C   0  0  1  0  0  0  0  0  0  0  0  0
  -23.9835  -31.2715   21.0231 C   0  0  1  0  0  0  0  0  0  0  0  0
  -26.9287  -18.0718   18.7283 C   0  0  2  0  0  0  0  0  0  0  0  0
  -27.9887  -12.2603   18.7432 C   0  0  2  0  0  0  0  0  0  0  0  0
  -28.1335  -17.5834   19.5588 C   0  0  2  0  0  0  0  0  0  0  0  0
  -26.9836  -17.5801   17.2784 C   0  0  0  0  0  0  0  0  0  0  0  0
  -18.3659  -26.0483   22.1022 C   0  0  0  0  0  0  0  0  0  0  0  0
  -25.9843  -22.0843   21.3697 C   0  0  0  0  0  0  0  0  0  0  0  0
  -22.5001  -30.1521   25.2548 C   0  0  0  0  0  0  0  0  0  0  0  0
  -20.8568  -28.2660   25.3578 C   0  0  0  0  0  0  0  0  0  0  0  0
  -20.1360  -30.5014   24.5174 C   0  0  0  0  0  0  0  0  0  0  0  0
  -20.4599  -26.5160   18.9602 C   0  0  0  0  0  0  0  0  0  0  0  0
  -29.1439  -24.4702   19.4722 C   0  0  0  0  0  0  0  0  0  0  0  0
  -28.0212  -22.2699   19.8423 C   0  0  0  0  0  0  0  0  0  0  0  0
  -28.8525  -25.9465   19.2883 C   0  0  0  0  0  0  0  0  0  1  0  0
  -21.6366  -29.0615   23.0796 C   0  0  1  0  0  0  0  0  0  0  0  0
  -19.2935  -26.7894   21.1518 C   0  0  2  0  0  0  0  0  0  0  0  0
  -26.6742  -21.5953   20.0999 C   0  0  1  0  0  0  0  0  0  0  0  0
  -21.3057  -29.4933   24.5362 C   0  0  0  0  0  0  0  0  0  0  0  0
  -26.0928  -11.1507   19.8642 N   0  0  0  0  0  0  0  0  0  0  0  0
  -26.7127  -11.4397   18.7073 N   0  0  0  0  0  0  0  0  0  0  0  0
  -23.3940  -30.1060   21.6851 N   0  0  0  0  0  0  0  0  0  0  0  0
  -29.2442  -14.0461   19.8934 N   0  0  0  0  0  0  0  0  0  0  0  0
  -26.8070  -20.1385   20.1150 N   0  0  2  0  0  0  0  0  0  0  0  0
  -26.5749  -11.1333   16.3626 N   0  0  0  0  0  0  0  0  0  0  0  0
  -22.9394   -8.9490   17.9143 N   0  0  0  0  0  0  0  0  0  0  0  0
  -24.3944  -33.2581   22.3431 N   0  0  0  0  0  0  0  0  0  0  0  0
  -20.5160  -28.4592   22.3657 N   0  0  0  0  0  0  0  0  0  0  0  0
  -28.1715  -16.1427   19.6759 N   0  0  0  0  0  0  0  0  0  0  0  0
  -19.5771  -25.9045   19.9866 N   0  3  0  0  0  0  0  0  0  0  0  0
  -27.8672  -23.7407   19.6779 N   0  3  0  0  0  0  0  0  0  0  0  0
  -24.1119   -9.5038   16.0233 O   0  0  0  0  0  0  0  0  0  0  0  0
  -25.7915  -31.4052   22.5358 O   0  0  0  0  0  0  0  0  0  0  0  0
  -21.3568  -31.1798   22.0495 O   0  0  0  0  0  0  0  0  0  0  0  0
  -21.5616  -26.4407   21.9078 O   0  0  0  0  0  0  0  0  0  0  0  0
  -30.4574  -16.0206   19.8063 O   0  0  0  0  0  0  0  0  0  0  0  0
  -21.4145   -8.4671   23.2500 O   0  0  0  0  0  0  0  0  0  0  0  0
  -28.2136  -26.4565   20.4579 O   0  0  0  0  0  0  0  0  0  1  0  0
  -21.6058   -3.0818   24.4185 F   0  0  0  0  0  0  0  0  0  0  0  0
  -21.9332   -7.5910   25.8203 F   0  0  0  0  0  0  0  0  0  0  0  0
  1  2  1  0  0  0  0
  1  5  2  0  0  0  0
  2  6  2  0  0  0  0
  3  8  2  0  0  0  0
  3 15  1  0  0  0  0
  4  9  1  0  0  0  0
  4 15  2  0  0  0  0
  5 17  1  0  0  0  0
  6 19  1  0  0  0  0
  7 10  2  0  0  0  0
  7 18  1  0  0  0  0
  8 21  1  0  0  0  0
  9 21  2  0  0  0  0
 10 22  1  0  0  0  0
 11 12  2  0  0  0  0
 11 23  1  0  0  0  0
 12 24  1  0  0  0  0
 13 20  1  0  0  0  0
 13 22  2  0  0  0  0
 14 24  2  0  0  0  0
 14 25  1  0  0  0  0
 15 26  1  0  0  0  0
 16 26  1  0  0  0  0
 16 27  2  0  0  0  0
 16 28  1  0  0  0  0
 17 19  2  0  0  0  0
 17 33  1  0  0  0  0
 18 20  2  0  0  0  0
 18 34  1  0  0  0  0
 19 45  1  0  0  0  0
 20 35  1  0  0  0  0
 21 81  1  0  0  0  0
 22 82  1  0  0  0  0
 23 25  2  0  0  0  0
 23 81  1  0  0  0  0
 24 83  1  0  0  0  0
 25 84  1  0  0  0  0
 26 64  2  0  0  0  0
 27 65  1  0  0  0  0
 27 69  1  0  0  0  0
 28 70  1  0  0  0  0
 28 76  2  0  0  0  0
 29 46  1  0  0  0  0
 29 71  1  0  0  0  0
 29 77  2  0  0  0  0
 30 60  1  0  0  0  0
 30 66  1  0  0  0  0
 30 78  2  0  0  0  0
 31 61  1  0  0  0  0
 31 72  1  0  0  0  0
 31 79  2  0  0  0  0
 32 67  1  0  0  0  0
 32 73  1  0  0  0  0
 32 80  2  0  0  0  0
 33 36  1  0  0  0  0
 34 46  1  0  0  0  0
 35 66  1  0  0  0  0
 36 38  1  0  0  0  0
 37 39  1  0  0  0  0
 37 41  1  0  0  0  0
 38 45  1  0  0  0  0
 39 48  1  0  0  0  0
 40 42  1  0  0  0  0
 40 49  1  0  0  0  0
 41 67  1  0  0  0  0
 42 68  1  0  0  0  0
 43 47  1  0  0  0  0
 43 68  1  0  0  0  0
 44 48  1  0  0  0  0
 44 67  1  0  0  0  0
 45 71  1  0  0  0  0
 46 66  1  0  0  0  0
 47 49  1  0  0  0  0
 47 50  1  0  0  0  0
 48 65  1  0  0  0  0
 49 73  1  0  0  0  0
 51 61  1  0  0  0  0
 52 62  1  0  0  0  0
 53 63  1  0  0  0  0
 54 63  1  0  0  0  0
 55 63  1  0  0  0  0
 56 74  1  0  0  0  0
 57 59  1  0  0  0  0
 57 75  1  0  0  0  0
 58 62  1  0  0  0  0
 58 75  1  0  0  0  0
 59 82  1  0  0  0  0
 60 63  1  0  0  0  0
 60 72  1  0  0  0  0
 61 74  1  0  0  0  0
 62 68  1  0  0  0  0
 64 65  1  0  0  0  0
M  CHG  2  74   1  75   1
M  ISO  4  32 100  59 101  73 100  82 101
M  END
> <Batch ID>
0192

> <Smiles>
CNC(C)C(=O)NC(C(=O)N1Cc2cc([101O:1][101CH2:1]CNCC(C)N3CCC([100NH:0][100C:0](=O)N4CCCC(n5nc(-c6ccc(Oc7ccc(F)cc7F)cc6)c(C(N)=O)c5N)C4)C(C)C3)ccc2CC1C(=O)NC1CCCc2ccccc21)C(C)(C)C

> <Shape>
0.346

> <Color>
0.109

> <Negative vol penalty>
0.000

$$$$

  -OEChem-04052323293D

 82 90  0     1  0  0  0  0  0999 V2000
  -19.6188  -25.6568   25.8197 C   0  0  0  0  0  0  0  0  0  0  0  0
  -20.5763  -24.8712   25.1861 C   0  0  0  0  0  0  0  0  0  0  0  0
  -23.0793   -9.9048   19.9822 C   0  0  0  0  0  0  0  0  0  0  0  0
  -24.3758   -9.5274   21.9856 C   0  0  0  0  0  0  0  0  0  0  0  0
  -19.1127  -26.7880   25.1806 C   0  0  0  0  0  0  0  0  0  0  0  0
  -21.0275  -25.2158   23.9125 C   0  0  0  0  0  0  0  0  0  0  0  0
  -26.0622  -24.8840   23.4796 C   0  0  0  0  0  0  0  0  0  0  0  0
  -22.4726   -8.6587   20.1400 C   0  0  0  0  0  0  0  0  0  0  0  0
  -23.7691   -8.2814   22.1435 C   0  0  0  0  0  0  0  0  0  0  0  0
  -26.6049  -23.6098   23.3193 C   0  0  0  0  0  0  0  0  0  0  0  0
  -20.8262   -7.0722   23.2827 C   0  0  0  0  0  0  0  0  0  0  0  0
  -20.3811   -6.7268   24.5587 C   0  0  0  0  0  0  0  0  0  0  0  0
  -26.7968  -23.9967   20.9460 C   0  0  0  0  0  0  0  0  0  0  0  0
  -21.8521   -4.8103   24.5530 C   0  0  0  0  0  0  0  0  0  0  0  0
  -24.0309  -10.3391   20.9049 C   0  0  0  0  0  0  0  0  0  0  0  0
  -24.0251  -12.8828   20.7123 C   0  0  0  0  0  0  0  0  0  0  0  0
  -19.5651  -27.1519   23.9025 C   0  0  0  0  0  0  0  0  0  0  0  0
  -25.8723  -25.7214   22.3709 C   0  0  0  0  0  0  0  0  0  0  0  0
  -20.5261  -26.3521   23.2552 C   0  0  0  0  0  0  0  0  0  0  0  0
  -26.2539  -25.2820   21.0952 C   0  0  0  0  0  0  0  0  0  0  0  0
  -22.8175   -7.8471   21.2207 C   0  0  0  0  0  0  0  0  0  0  0  0
  -26.9696  -23.1649   22.0520 C   0  0  0  0  0  0  0  0  0  0  0  0
  -21.7841   -6.2866   22.6418 C   0  0  0  0  0  0  0  0  0  0  0  0
  -20.8941   -5.5959   25.1939 C   0  0  0  0  0  0  0  0  0  0  0  0
  -22.2971   -5.1556   23.2769 C   0  0  0  0  0  0  0  0  0  0  0  0
  -24.6584  -11.6259   20.7421 C   0  0  0  0  0  0  0  0  0  0  0  0
  -25.0505  -13.7799   20.5379 C   0  0  0  0  0  0  0  0  0  0  0  0
  -22.6343  -13.2102   20.8317 C   0  0  0  0  0  0  0  0  0  0  0  0
  -23.3492  -27.0647   20.9804 C   0  0  0  0  0  0  0  0  0  0  0  0
  -25.6123  -28.5259   19.1732 C   0  0  0  0  0  0  0  0  0  0  0  0
  -28.7079  -27.5953   17.5705 C   0  0  0  0  0  0  0  0  0  0  0  0
  -29.5931  -15.2607   17.7951 C   0  0  0  0  0  0  0  0  0  0  0  0
  -18.9541  -28.3568   23.2321 C   0  0  0  0  0  0  0  0  0  0  0  0
  -25.3104  -27.1032   22.5641 C   0  0  0  0  0  0  0  0  0  0  0  0
  -26.0895  -26.1501   19.8754 C   0  0  0  0  0  0  0  0  0  0  0  0
  -19.7590  -28.8630   22.0379 C   0  0  0  0  0  0  0  0  0  0  0  0
  -30.0481  -13.1812   20.8087 C   0  0  0  0  0  0  0  0  0  0  0  0
  -20.1629  -27.7014   21.1354 C   0  0  0  0  0  0  0  0  0  0  0  0
  -28.6315  -12.6544   21.0182 C   0  0  0  0  0  0  0  0  0  0  0  0
  -32.4100  -19.9413   21.4519 C   0  0  0  0  0  0  0  0  0  0  0  0
  -33.4371  -19.1597   20.6000 C   0  0  0  0  0  0  0  0  0  0  0  0
  -30.3806  -13.3592   19.3278 C   0  0  0  0  0  0  0  0  0  0  0  0
  -27.9789  -13.6805   18.8054 C   0  0  0  0  0  0  0  0  0  0  0  0
  -21.0587  -26.7069   21.8839 C   0  0  1  0  0  0  0  0  0  0  0  0
  -24.6847  -27.6765   21.2963 C   0  0  1  0  0  0  0  0  0  0  0  0
  -27.6098  -13.5412   20.2902 C   0  0  1  0  0  0  0  0  0  0  0  0
  -31.3211  -19.3688   20.5160 C   0  0  2  0  0  0  0  0  0  0  0  0
  -32.4208  -19.2453   19.4346 C   0  0  2  0  0  0  0  0  0  0  0  0
  -30.7172  -28.9765   16.9766 C   0  0  0  0  0  0  0  0  0  0  0  0
  -32.6554  -16.4111   16.0922 C   0  0  0  0  0  0  0  0  0  0  0  0
  -24.2571  -28.8035   16.4536 C   0  0  0  0  0  0  0  0  0  0  0  0
  -26.5151  -28.6215   15.3877 C   0  0  0  0  0  0  0  0  0  0  0  0
  -26.0127  -30.5212   16.9245 C   0  0  0  0  0  0  0  0  0  0  0  0
  -30.5267  -25.8027   19.0664 C   0  0  0  0  0  0  0  0  0  0  0  0
  -29.4279  -20.6715   21.2126 C   0  0  0  0  0  0  0  0  0  0  0  0
  -31.3211  -18.0230   17.5541 C   0  0  0  0  0  0  0  0  0  0  0  0
  -28.4204  -21.7405   20.8181 C   0  0  0  0  0  0  0  0  0  1  0  0
  -26.3224  -28.2015   17.8812 C   0  0  1  0  0  0  0  0  0  0  0  0
  -30.1072  -28.0143   17.9841 C   0  0  2  0  0  0  0  0  0  0  0  0
  -31.3236  -16.7085   16.7747 C   0  0  2  0  0  0  0  0  0  0  0  0
  -25.7673  -29.0164   16.6790 C   0  0  0  0  0  0  0  0  0  0  0  0
  -25.9834  -11.7126   20.5980 N   0  0  0  0  0  0  0  0  0  0  0  0
  -26.1911  -13.0348   20.4759 N   0  0  0  0  0  0  0  0  0  0  0  0
  -25.5298  -27.4905   20.1150 N   0  0  0  0  0  0  0  0  0  0  0  0
  -29.3569  -14.1577   18.6355 N   0  0  0  0  0  0  0  0  0  0  0  0
  -25.0786  -15.1255   20.4330 N   0  0  0  0  0  0  0  0  0  0  0  0
  -21.7149  -12.1669   21.0063 N   0  0  0  0  0  0  0  0  0  0  0  0
  -22.4093  -27.2177   21.9816 N   0  0  0  0  0  0  0  0  0  0  0  0
  -27.7447  -28.4046   18.1349 N   0  0  0  0  0  0  0  0  0  0  0  0
  -30.9269  -15.6075   17.6112 N   0  0  0  0  0  0  0  0  0  0  0  0
  -30.3892  -20.4277   20.1465 N   0  0  0  0  0  0  0  0  0  0  0  0
  -32.3322  -18.0043   18.6549 N   0  3  0  0  0  0  0  0  0  0  0  0
  -30.9944  -26.8218   18.0918 N   0  3  0  0  0  0  0  0  0  0  0  0
  -22.2175  -14.3917   20.7685 O   0  0  0  0  0  0  0  0  0  0  0  0
  -23.1834  -26.4972   19.9070 O   0  0  0  0  0  0  0  0  0  0  0  0
  -25.1542  -29.6585   19.3436 O   0  0  0  0  0  0  0  0  0  0  0  0
  -28.4913  -26.6474   16.8189 O   0  0  0  0  0  0  0  0  0  0  0  0
  -28.6832  -15.8891   17.2430 O   0  0  0  0  0  0  0  0  0  0  0  0
  -22.2255   -6.6312   21.3752 O   0  0  0  0  0  0  0  0  0  0  0  0
  -27.4990  -21.9214   21.8927 O   0  0  0  0  0  0  0  0  0  1  0  0
  -20.4678   -5.2652   26.4199 F   0  0  0  0  0  0  0  0  0  0  0  0
  -23.2185   -4.3977   22.6667 F   0  0  0  0  0  0  0  0  0  0  0  0
  1  2  1  0  0  0  0
  1  5  2  0  0  0  0
  2  6  2  0  0  0  0
  3  8  2  0  0  0  0
  3 15  1  0  0  0  0
  4  9  1  0  0  0  0
  4 15  2  0  0  0  0
  5 17  1  0  0  0  0
  6 19  1  0  0  0  0
  7 10  2  0  0  0  0
  7 18  1  0  0  0  0
  8 21  1  0  0  0  0
  9 21  2  0  0  0  0
 10 22  1  0  0  0  0
 11 12  2  0  0  0  0
 11 23  1  0  0  0  0
 12 24  1  0  0  0  0
 13 20  1  0  0  0  0
 13 22  2  0  0  0  0
 14 24  2  0  0  0  0
 14 25  1  0  0  0  0
 15 26  1  0  0  0  0
 16 26  1  0  0  0  0
 16 27  2  0  0  0  0
 16 28  1  0  0  0  0
 17 19  2  0  0  0  0
 17 33  1  0  0  0  0
 18 20  2  0  0  0  0
 18 34  1  0  0  0  0
 19 44  1  0  0  0  0
 20 35  1  0  0  0  0
 21 79  1  0  0  0  0
 22 80  1  0  0  0  0
 23 25  2  0  0  0  0
 23 79  1  0  0  0  0
 24 81  1  0  0  0  0
 25 82  1  0  0  0  0
 26 62  2  0  0  0  0
 27 63  1  0  0  0  0
 27 66  1  0  0  0  0
 28 67  1  0  0  0  0
 28 74  2  0  0  0  0
 29 45  1  0  0  0  0
 29 68  1  0  0  0  0
 29 75  2  0  0  0  0
 30 58  1  0  0  0  0
 30 64  1  0  0  0  0
 30 76  2  0  0  0  0
 31 59  1  0  0  0  0
 31 69  1  0  0  0  0
 31 77  2  0  0  0  0
 32 65  1  0  0  0  0
 32 70  1  0  0  0  0
 32 78  2  0  0  0  0
 33 36  1  0  0  0  0
 34 45  1  0  0  0  0
 35 64  1  0  0  0  0
 36 38  1  0  0  0  0
 37 39  1  0  0  0  0
 37 42  1  0  0  0  0
 38 44  1  0  0  0  0
 39 46  1  0  0  0  0
 40 41  1  0  0  0  0
 40 47  1  0  0  0  0
 41 48  1  0  0  0  0
 42 65  1  0  0  0  0
 43 46  1  0  0  0  0
 43 65  1  0  0  0  0
 44 68  1  0  0  0  0
 45 64  1  0  0  0  0
 46 63  1  0  0  0  0
 47 48  1  0  0  0  0
 47 71  1  0  0  0  0
 48 72  1  0  0  0  0
 49 59  1  0  0  0  0
 50 60  1  0  0  0  0
 51 61  1  0  0  0  0
 52 61  1  0  0  0  0
 53 61  1  0  0  0  0
 54 73  1  0  0  0  0
 55 57  1  0  0  0  0
 55 71  1  0  0  0  0
 56 60  1  0  0  0  0
 56 72  1  0  0  0  0
 57 80  1  0  0  0  0
 58 61  1  0  0  0  0
 58 69  1  0  0  0  0
 59 73  1  0  0  0  0
 60 70  1  0  0  0  0
 62 63  1  0  0  0  0
M  CHG  2  72   1  73   1
M  ISO  4  32 100  57 101  70 100  80 101
M  END
> <Batch ID>
0192

> <Smiles>
CNC(C)C(=O)NC(C(=O)N1Cc2cc([101O:1][101CH2:1]CNC3CCC3NCC(C)[100NH:0][100C:0](=O)N3CCCC(n4nc(-c5ccc(Oc6ccc(F)cc6F)cc5)c(C(N)=O)c4N)C3)ccc2CC1C(=O)NC1CCCc2ccccc21)C(C)(C)C

> <Shape>
0.259

> <Color>
0.166

> <Negative vol penalty>
0.000

$$$$

  -OEChem-04052323293D

 86 95  0     1  0  0  0  0  0999 V2000
  -22.9948  -19.6557   32.7971 C   0  0  0  0  0  0  0  0  0  0  0  0
  -22.2275  -20.6775   32.2470 C   0  0  0  0  0  0  0  0  0  0  0  0
  -30.0282  -18.2753   21.8541 C   0  0  0  0  0  0  0  0  0  0  0  0
  -30.6915  -17.7375   19.5940 C   0  0  0  0  0  0  0  0  0  0  0  0
  -24.1278  -19.1976   32.1260 C   0  0  0  0  0  0  0  0  0  0  0  0
  -22.5936  -21.2427   31.0259 C   0  0  0  0  0  0  0  0  0  0  0  0
  -19.7310  -24.1640   25.1448 C   0  0  0  0  0  0  0  0  0  0  0  0
  -29.9685  -16.9157   22.1601 C   0  0  0  0  0  0  0  0  0  0  0  0
  -30.6319  -16.3779   19.9000 C   0  0  0  0  0  0  0  0  0  0  0  0
  -19.8242  -25.3105   24.3570 C   0  0  0  0  0  0  0  0  0  0  0  0
  -28.2493  -14.0038   20.2437 C   0  0  0  0  0  0  0  0  0  0  0  0
  -27.6209  -13.1604   19.3276 C   0  0  0  0  0  0  0  0  0  0  0  0
  -21.7569  -24.3848   23.2491 C   0  0  0  0  0  0  0  0  0  0  0  0
  -29.6741  -11.9141   19.0666 C   0  0  0  0  0  0  0  0  0  0  0  0
  -30.3897  -18.6862   20.5710 C   0  0  0  0  0  0  0  0  0  0  0  0
  -31.5650  -20.9421   20.3782 C   0  0  0  0  0  0  0  0  0  0  0  0
  -24.5025  -19.7509   30.8914 C   0  0  0  0  0  0  0  0  0  0  0  0
  -20.6581  -23.1222   24.9980 C   0  0  0  0  0  0  0  0  0  0  0  0
  -23.7334  -20.7926   30.3383 C   0  0  0  0  0  0  0  0  0  0  0  0
  -21.6717  -23.2251   24.0345 C   0  0  0  0  0  0  0  0  0  0  0  0
  -30.2704  -15.9670   21.1831 C   0  0  0  0  0  0  0  0  0  0  0  0
  -20.8390  -25.4223   23.4110 C   0  0  0  0  0  0  0  0  0  0  0  0
  -29.5902  -13.8025   20.5712 C   0  0  0  0  0  0  0  0  0  0  0  0
  -28.3333  -12.1154   18.7391 C   0  0  0  0  0  0  0  0  0  0  0  0
  -30.3026  -12.7576   19.9827 C   0  0  0  0  0  0  0  0  0  0  0  0
  -30.4510  -20.0904   20.2541 C   0  0  0  0  0  0  0  0  0  0  0  0
  -31.1104  -22.1663   19.9526 C   0  0  0  0  0  0  0  0  0  0  0  0
  -24.2107  -30.6490   24.1059 C   0  0  0  0  0  0  0  0  0  0  0  0
  -23.3968  -31.3503   23.3117 C   0  0  0  0  0  0  0  0  0  0  0  0
  -24.8681  -29.6358   23.2603 C   0  0  0  0  0  0  0  0  0  0  0  0
  -32.8921  -20.6524   20.8372 C   0  0  0  0  0  0  0  0  0  0  0  0
  -22.8144  -21.7550   26.8913 C   0  0  0  0  0  0  0  0  0  0  0  0
  -23.1402  -19.7118   24.3930 C   0  0  0  0  0  0  0  0  0  0  0  0
  -22.8015  -19.1540   21.0433 C   0  0  0  0  0  0  0  0  0  0  0  0
  -27.4970  -26.1325   19.8011 C   0  0  0  0  0  0  0  0  0  0  0  0
  -25.7620  -19.2554   30.2261 C   0  0  0  0  0  0  0  0  0  0  0  0
  -20.5278  -21.8806   25.8369 C   0  0  0  0  0  0  0  0  0  0  0  0
  -22.6798  -22.1262   23.8236 C   0  0  0  0  0  0  0  0  0  0  0  0
  -25.8702  -19.6507   28.7556 C   0  0  0  0  0  0  0  0  0  0  0  0
  -26.8287  -23.4704   17.6099 C   0  0  0  0  0  0  0  0  0  0  0  0
  -25.5271  -21.1257   28.5727 C   0  0  0  0  0  0  0  0  0  0  0  0
  -27.8072  -22.4097   18.1134 C   0  0  0  0  0  0  0  0  0  0  0  0
  -24.5129  -27.5727   20.9827 C   0  0  0  0  0  0  0  0  0  0  0  0
  -26.3006  -29.2981   20.5366 C   0  0  0  0  0  0  0  0  0  0  0  0
  -26.1742  -24.2380   18.7599 C   0  0  0  0  0  0  0  0  0  0  0  0
  -25.0383  -26.7497   19.8031 C   0  0  0  0  0  0  0  0  0  0  0  0
  -26.7698  -28.4566   19.3533 C   0  0  0  0  0  0  0  0  0  0  0  0
  -28.1195  -23.7711   20.2150 C   0  0  0  0  0  0  0  0  0  0  0  0
  -24.0840  -21.4140   29.0038 C   0  0  1  0  0  0  0  0  0  0  0  0
  -23.4078  -30.8841   21.8892 C   0  0  2  0  0  0  0  0  0  0  0  0
  -21.8340  -21.1019   25.9586 C   0  0  1  0  0  0  0  0  0  0  0  0
  -28.8359  -23.0221   19.0807 C   0  0  1  0  0  0  0  0  0  0  0  0
  -24.8120  -29.0643   20.8102 C   0  0  0  0  0  0  0  0  0  0  0  0
  -23.1857  -17.4007   19.2894 C   0  0  0  0  0  0  0  0  0  0  0  0
  -26.1333  -20.3002   24.4639 C   0  0  0  0  0  0  0  0  0  0  0  0
  -26.3112  -19.3118   22.1705 C   0  0  0  0  0  0  0  0  0  0  0  0
  -25.5511  -17.8985   24.0804 C   0  0  0  0  0  0  0  0  0  0  0  0
  -19.9257  -19.0498   20.3520 C   0  0  0  0  0  0  0  0  0  0  0  0
  -22.0327  -30.4192   21.4324 C   0  0  0  0  0  0  0  0  0  0  0  0
  -20.2522  -28.7485   21.9590 C   0  0  0  0  0  0  0  0  0  0  0  0
  -19.9593  -27.5606   22.8542 C   0  0  0  0  0  0  0  0  0  1  0  0
  -24.0007  -19.6674   23.1534 C   0  0  1  0  0  0  0  0  0  0  0  0
  -22.1901  -17.9987   20.2712 C   0  0  2  0  0  0  0  0  0  0  0  0
  -25.4814  -19.3162   23.4721 C   0  0  0  0  0  0  0  0  0  0  0  0
  -29.3700  -20.7203   19.7864 N   0  0  0  0  0  0  0  0  0  0  0  0
  -29.8026  -21.9808   19.6130 N   0  0  0  0  0  0  0  0  0  0  0  0
  -24.3797  -29.8071   21.9682 N   0  0  0  0  0  0  0  0  0  0  0  0
  -22.5143  -20.9348   24.6727 N   0  0  0  0  0  0  0  0  0  0  0  0
  -27.1921  -24.7688   19.6773 N   0  0  0  0  0  0  0  0  0  0  0  0
  -26.4572  -27.0419   19.5557 N   0  0  0  0  0  0  0  0  0  0  0  0
  -31.7058  -23.3726   19.8396 N   0  0  0  0  0  0  0  0  0  0  0  0
  -33.1898  -19.3425   21.2370 N   0  0  0  0  0  0  0  0  0  0  0  0
  -23.1551  -20.9791   27.9828 N   0  0  0  0  0  0  0  0  0  0  0  0
  -23.3496  -18.7368   22.2377 N   0  0  0  0  0  0  0  0  0  0  0  0
  -20.9963  -18.4602   19.5076 N   0  3  0  0  0  0  0  0  0  0  0  0
  -21.6144  -29.2704   22.2642 N   0  3  0  0  0  0  0  0  0  0  0  0
  -25.6879  -28.8333   23.6744 O   0  0  0  0  0  0  0  0  0  0  0  0
  -33.7829  -21.5329   20.9065 O   0  0  0  0  0  0  0  0  0  0  0  0
  -23.2321  -22.8790   26.6386 O   0  0  0  0  0  0  0  0  0  0  0  0
  -23.0218  -18.6966   25.0837 O   0  0  0  0  0  0  0  0  0  0  0  0
  -22.7968  -20.3102   20.6265 O   0  0  0  0  0  0  0  0  0  0  0  0
  -28.6315  -26.5156   20.1129 O   0  0  0  0  0  0  0  0  0  0  0  0
  -30.2125  -14.6403   21.4814 O   0  0  0  0  0  0  0  0  0  0  0  0
  -20.9333  -26.5486   22.6357 O   0  0  0  0  0  0  0  0  0  1  0  0
  -27.7292  -11.3046   17.8606 F   0  0  0  0  0  0  0  0  0  0  0  0
  -31.5906  -12.5585   20.2943 F   0  0  0  0  0  0  0  0  0  0  0  0
  1  2  1  0  0  0  0
  1  5  2  0  0  0  0
  2  6  2  0  0  0  0
  3  8  2  0  0  0  0
  3 15  1  0  0  0  0
  4  9  1  0  0  0  0
  4 15  2  0  0  0  0
  5 17  1  0  0  0  0
  6 19  1  0  0  0  0
  7 10  2  0  0  0  0
  7 18  1  0  0  0  0
  8 21  1  0  0  0  0
  9 21  2  0  0  0  0
 10 22  1  0  0  0  0
 11 12  2  0  0  0  0
 11 23  1  0  0  0  0
 12 24  1  0  0  0  0
 13 20  1  0  0  0  0
 13 22  2  0  0  0  0
 14 24  2  0  0  0  0
 14 25  1  0  0  0  0
 15 26  1  0  0  0  0
 16 26  1  0  0  0  0
 16 27  2  0  0  0  0
 16 31  1  0  0  0  0
 17 19  2  0  0  0  0
 17 36  1  0  0  0  0
 18 20  2  0  0  0  0
 18 37  1  0  0  0  0
 19 49  1  0  0  0  0
 20 38  1  0  0  0  0
 21 83  1  0  0  0  0
 22 84  1  0  0  0  0
 23 25  2  0  0  0  0
 23 83  1  0  0  0  0
 24 85  1  0  0  0  0
 25 86  1  0  0  0  0
 26 65  2  0  0  0  0
 27 66  1  0  0  0  0
 27 71  1  0  0  0  0
 28 29  2  0  0  0  0
 28 30  1  0  0  0  0
 29 50  1  0  0  0  0
 30 67  1  0  0  0  0
 30 77  2  0  0  0  0
 31 72  1  0  0  0  0
 31 78  2  0  0  0  0
 32 51  1  0  0  0  0
 32 73  1  0  0  0  0
 32 79  2  0  0  0  0
 33 62  1  0  0  0  0
 33 68  1  0  0  0  0
 33 80  2  0  0  0  0
 34 63  1  0  0  0  0
 34 74  1  0  0  0  0
 34 81  2  0  0  0  0
 35 69  1  0  0  0  0
 35 70  1  0  0  0  0
 35 82  2  0  0  0  0
 36 39  1  0  0  0  0
 37 51  1  0  0  0  0
 38 68  1  0  0  0  0
 39 41  1  0  0  0  0
 40 42  1  0  0  0  0
 40 45  1  0  0  0  0
 41 49  1  0  0  0  0
 42 52  1  0  0  0  0
 43 46  1  0  0  0  0
 43 53  1  0  0  0  0
 44 47  1  0  0  0  0
 44 53  1  0  0  0  0
 45 69  1  0  0  0  0
 46 70  1  0  0  0  0
 47 70  1  0  0  0  0
 48 52  1  0  0  0  0
 48 69  1  0  0  0  0
 49 73  1  0  0  0  0
 50 59  1  0  0  0  0
 50 67  1  0  0  0  0
 51 68  1  0  0  0  0
 52 66  1  0  0  0  0
 53 67  1  0  0  0  0
 54 63  1  0  0  0  0
 55 64  1  0  0  0  0
 56 64  1  0  0  0  0
 57 64  1  0  0  0  0
 58 75  1  0  0  0  0
 59 76  1  0  0  0  0
 60 61  1  0  0  0  0
 60 76  1  0  0  0  0
 61 84  1  0  0  0  0
 62 64  1  0  0  0  0
 62 74  1  0  0  0  0
 63 75  1  0  0  0  0
 65 66  1  0  0  0  0
M  CHG  2  75   1  76   1
M  ISO  4  35 100  61 101  70 100  84 101
M  END
> <Batch ID>
0192

> <Smiles>
CNC(C)C(=O)NC(C(=O)N1Cc2cc([101O:1][101CH2:1]CNCC3C=CC(=O)N3C3CC[100N:0]([100C:0](=O)N4CCCC(n5nc(-c6ccc(Oc7ccc(F)cc7F)cc6)c(C(N)=O)c5N)C4)CC3)ccc2CC1C(=O)NC1CCCc2ccccc21)C(C)(C)C

> <Shape>
0.204

> <Color>
0.086

> <Negative vol penalty>
0.000

$$$$

  -OEChem-04052323293D

 79 88  0     1  0  0  0  0  0999 V2000
  -27.8377  -25.4449   12.3340 C   0  0  0  0  0  0  0  0  0  0  0  0
  -26.8161  -26.1539   12.9578 C   0  0  0  0  0  0  0  0  0  0  0  0
  -26.7382  -15.0230   21.6250 C   0  0  0  0  0  0  0  0  0  0  0  0
  -26.4227  -14.9507   19.2307 C   0  0  0  0  0  0  0  0  0  0  0  0
  -28.6912  -24.6433   13.0908 C   0  0  0  0  0  0  0  0  0  0  0  0
  -26.6468  -26.0608   14.3387 C   0  0  0  0  0  0  0  0  0  0  0  0
  -24.5485  -29.9448   19.9804 C   0  0  0  0  0  0  0  0  0  0  0  0
  -26.4971  -13.6511   21.6982 C   0  0  0  0  0  0  0  0  0  0  0  0
  -26.1816  -13.5788   19.3039 C   0  0  0  0  0  0  0  0  0  0  0  0
  -23.6669  -29.8883   21.0590 C   0  0  0  0  0  0  0  0  0  0  0  0
  -25.6096  -10.2314   22.5592 C   0  0  0  0  0  0  0  0  0  0  0  0
  -24.7601   -9.7735   23.5663 C   0  0  0  0  0  0  0  0  0  0  0  0
  -25.2508  -28.5347   22.2749 C   0  0  0  0  0  0  0  0  0  0  0  0
  -22.9700  -11.1272   22.6718 C   0  0  0  0  0  0  0  0  0  0  0  0
  -26.7010  -15.6728   20.3912 C   0  0  0  0  0  0  0  0  0  0  0  0
  -28.1916  -17.7267   20.1320 C   0  0  0  0  0  0  0  0  0  0  0  0
  -28.5383  -24.5479   14.4830 C   0  0  0  0  0  0  0  0  0  0  0  0
  -25.7853  -29.2865   20.0368 C   0  0  0  0  0  0  0  0  0  0  0  0
  -27.4982  -25.2561   15.1148 C   0  0  0  0  0  0  0  0  0  0  0  0
  -26.1474  -28.5866   21.1967 C   0  0  0  0  0  0  0  0  0  0  0  0
  -26.2188  -12.9290   20.5377 C   0  0  0  0  0  0  0  0  0  0  0  0
  -24.0168  -29.1808   22.2054 C   0  0  0  0  0  0  0  0  0  0  0  0
  -25.1393  -11.1372   21.6084 C   0  0  0  0  0  0  0  0  0  0  0  0
  -23.4403  -10.2214   23.6227 C   0  0  0  0  0  0  0  0  0  0  0  0
  -23.8195  -11.5851   21.6647 C   0  0  0  0  0  0  0  0  0  0  0  0
  -26.9494  -17.0901   20.3151 C   0  0  0  0  0  0  0  0  0  0  0  0
  -27.8932  -19.0674   20.1300 C   0  0  0  0  0  0  0  0  0  0  0  0
  -29.4983  -17.1572   19.9774 C   0  0  0  0  0  0  0  0  0  0  0  0
  -27.1562  -26.9423   18.3847 C   0  0  0  0  0  0  0  0  0  0  0  0
  -29.7318  -27.6887   20.2099 C   0  0  0  0  0  0  0  0  0  0  0  0
  -30.9409  -29.0549   23.0941 C   0  0  0  0  0  0  0  0  0  0  0  0
  -23.3410  -21.9953   22.6207 C   0  0  0  0  0  0  0  0  0  0  0  0
  -29.4559  -23.6315   15.2530 C   0  0  0  0  0  0  0  0  0  0  0  0
  -26.7363  -29.3794   18.8752 C   0  0  0  0  0  0  0  0  0  0  0  0
  -27.4720  -27.8796   21.3153 C   0  0  0  0  0  0  0  0  0  0  0  0
  -29.4428  -23.8813   16.7589 C   0  0  0  0  0  0  0  0  0  0  0  0
  -24.3945  -22.1338   19.0875 C   0  0  0  0  0  0  0  0  0  0  0  0
  -28.0100  -24.0093   17.2664 C   0  0  0  0  0  0  0  0  0  0  0  0
  -25.2443  -20.8707   18.9851 C   0  0  0  0  0  0  0  0  0  0  0  0
  -20.8838  -23.2338   24.5923 C   0  0  0  0  0  0  0  0  0  0  0  0
  -23.2262  -21.9618   20.0574 C   0  0  0  0  0  0  0  0  0  0  0  0
  -24.4933  -20.2398   21.3117 C   0  0  0  0  0  0  0  0  0  0  0  0
  -21.0088  -28.2447   24.2626 C   0  0  0  0  0  0  0  0  0  0  0  0
  -21.8414  -27.0203   22.7894 C   0  0  0  0  0  0  0  0  0  0  0  0
  -27.2980  -25.2004   16.6137 C   0  0  1  0  0  0  0  0  0  0  0  0
  -27.7533  -28.2427   18.8432 C   0  0  1  0  0  0  0  0  0  0  0  0
  -20.7729  -24.5339   23.8472 C   0  0  2  0  0  0  0  0  0  0  0  0
  -25.7012  -20.4099   20.3776 C   0  0  1  0  0  0  0  0  0  0  0  0
  -22.0612  -23.7519   23.8076 C   0  0  2  0  0  0  0  0  0  0  0  0
  -21.8665  -28.5415   23.0196 C   0  0  0  0  0  0  0  0  0  1  0  0
  -33.0871  -29.4856   24.3212 C   0  0  0  0  0  0  0  0  0  0  0  0
  -29.8684  -24.7446   20.9996 C   0  0  0  0  0  0  0  0  0  0  0  0
  -31.3660  -25.3951   22.8975 C   0  0  0  0  0  0  0  0  0  0  0  0
  -32.0864  -25.8067   20.5450 C   0  0  0  0  0  0  0  0  0  0  0  0
  -30.5160  -31.9834   23.0457 C   0  0  0  0  0  0  0  0  0  0  0  0
  -20.6994  -25.8416   24.6047 C   0  0  0  0  0  0  0  0  0  0  0  0
  -30.2596  -27.2366   21.5501 C   0  0  1  0  0  0  0  0  0  0  0  0
  -32.0631  -30.0456   23.3462 C   0  0  2  0  0  0  0  0  0  0  0  0
  -30.8693  -25.8073   21.4954 C   0  0  0  0  0  0  0  0  0  0  0  0
  -25.9374  -17.9551   20.4218 N   0  0  0  0  0  0  0  0  0  0  0  0
  -26.5432  -19.1491   20.3055 N   0  0  0  0  0  0  0  0  0  0  0  0
  -28.3648  -27.9944   20.1503 N   0  0  0  0  0  0  0  0  0  0  0  0
  -23.6775  -21.4592   21.3646 N   0  0  0  0  0  0  0  0  0  0  0  0
  -28.6567  -20.1726   19.9953 N   0  0  0  0  0  0  0  0  0  0  0  0
  -29.6262  -15.7617   20.0034 N   0  0  0  0  0  0  0  0  0  0  0  0
  -27.7213  -26.4406   17.2278 N   0  0  0  0  0  0  0  0  0  0  0  0
  -31.1929  -28.2679   21.9903 N   0  0  0  0  0  0  0  0  0  0  0  0
  -22.4969  -23.0999   22.6016 N   0  0  0  0  0  0  0  0  0  0  0  0
  -20.6378  -26.9609   23.6394 N   0  3  0  0  0  0  0  0  0  0  0  0
  -31.5185  -31.3120   23.9124 N   0  3  0  0  0  0  0  0  0  0  0  0
  -30.5242  -17.8652   19.8373 O   0  0  0  0  0  0  0  0  0  0  0  0
  -26.2509  -26.4312   19.0334 O   0  0  0  0  0  0  0  0  0  0  0  0
  -30.5055  -27.7745   19.2530 O   0  0  0  0  0  0  0  0  0  0  0  0
  -29.9426  -28.9836   23.8073 O   0  0  0  0  0  0  0  0  0  0  0  0
  -23.7568  -21.5220   23.6841 O   0  0  0  0  0  0  0  0  0  0  0  0
  -25.9837  -11.5903   20.6087 O   0  0  0  0  0  0  0  0  0  0  0  0
  -23.1579  -29.1235   23.2594 O   0  0  0  0  0  0  0  0  0  1  0  0
  -22.6243   -9.7804   24.5889 F   0  0  0  0  0  0  0  0  0  0  0  0
  -23.3617  -12.4544   20.7534 F   0  0  0  0  0  0  0  0  0  0  0  0
  1  2  1  0  0  0  0
  1  5  2  0  0  0  0
  2  6  2  0  0  0  0
  3  8  2  0  0  0  0
  3 15  1  0  0  0  0
  4  9  1  0  0  0  0
  4 15  2  0  0  0  0
  5 17  1  0  0  0  0
  6 19  1  0  0  0  0
  7 10  2  0  0  0  0
  7 18  1  0  0  0  0
  8 21  1  0  0  0  0
  9 21  2  0  0  0  0
 10 22  1  0  0  0  0
 11 12  2  0  0  0  0
 11 23  1  0  0  0  0
 12 24  1  0  0  0  0
 13 20  1  0  0  0  0
 13 22  2  0  0  0  0
 14 24  2  0  0  0  0
 14 25  1  0  0  0  0
 15 26  1  0  0  0  0
 16 26  1  0  0  0  0
 16 27  2  0  0  0  0
 16 28  1  0  0  0  0
 17 19  2  0  0  0  0
 17 33  1  0  0  0  0
 18 20  2  0  0  0  0
 18 34  1  0  0  0  0
 19 45  1  0  0  0  0
 20 35  1  0  0  0  0
 21 76  1  0  0  0  0
 22 77  1  0  0  0  0
 23 25  2  0  0  0  0
 23 76  1  0  0  0  0
 24 78  1  0  0  0  0
 25 79  1  0  0  0  0
 26 60  2  0  0  0  0
 27 61  1  0  0  0  0
 27 64  1  0  0  0  0
 28 65  1  0  0  0  0
 28 71  2  0  0  0  0
 29 46  1  0  0  0  0
 29 66  1  0  0  0  0
 29 72  2  0  0  0  0
 30 57  1  0  0  0  0
 30 62  1  0  0  0  0
 30 73  2  0  0  0  0
 31 58  1  0  0  0  0
 31 67  1  0  0  0  0
 31 74  2  0  0  0  0
 32 63  1  0  0  0  0
 32 68  1  0  0  0  0
 32 75  2  0  0  0  0
 33 36  1  0  0  0  0
 34 46  1  0  0  0  0
 35 62  1  0  0  0  0
 36 38  1  0  0  0  0
 37 39  1  0  0  0  0
 37 41  1  0  0  0  0
 38 45  1  0  0  0  0
 39 48  1  0  0  0  0
 40 47  1  0  0  0  0
 40 49  1  0  0  0  0
 41 63  1  0  0  0  0
 42 48  1  0  0  0  0
 42 63  1  0  0  0  0
 43 50  1  0  0  0  0
 43 69  1  0  0  0  0
 44 50  1  0  0  0  0
 44 69  1  0  0  0  0
 45 66  1  0  0  0  0
 46 62  1  0  0  0  0
 47 49  1  0  0  0  0
 47 56  1  0  0  0  0
 48 61  1  0  0  0  0
 49 68  1  0  0  0  0
 50 77  1  0  0  0  0
 51 58  1  0  0  0  0
 52 59  1  0  0  0  0
 53 59  1  0  0  0  0
 54 59  1  0  0  0  0
 55 70  1  0  0  0  0
 56 69  1  0  0  0  0
 57 59  1  0  0  0  0
 57 67  1  0  0  0  0
 58 70  1  0  0  0  0
 60 61  1  0  0  0  0
M  CHG  2  69   1  70   1
M  ISO  4  32 100  50 101  68 100  77 101
M  END
> <Batch ID>
0192

> <Smiles>
CNC(C)C(=O)NC(C(=O)N1Cc2cc([101O:1][101CH:1]3CN(CC4CC4[100NH:0][100C:0](=O)N4CCCC(n5nc(-c6ccc(Oc7ccc(F)cc7F)cc6)c(C(N)=O)c5N)C4)C3)ccc2CC1C(=O)NC1CCCc2ccccc21)C(C)(C)C

> <Shape>
0.193

> <Color>
0.081

> <Negative vol penalty>
0.000

$$$$

  -OEChem-04052323293D

 80 88  0     1  0  0  0  0  0999 V2000
  -25.7107  -24.0616   23.3706 C   0  0  0  0  0  0  0  0  0  0  0  0
  -26.8800  -23.5293   22.8369 C   0  0  0  0  0  0  0  0  0  0  0  0
  -23.1477   -9.8595   19.8967 C   0  0  0  0  0  0  0  0  0  0  0  0
  -23.8075   -9.8888   22.2207 C   0  0  0  0  0  0  0  0  0  0  0  0
  -25.2156  -25.2737   22.8913 C   0  0  0  0  0  0  0  0  0  0  0  0
  -27.5544  -24.2083   21.8227 C   0  0  0  0  0  0  0  0  0  0  0  0
  -32.5577  -24.3711   22.5876 C   0  0  0  0  0  0  0  0  0  0  0  0
  -22.4089   -8.6979   20.1210 C   0  0  0  0  0  0  0  0  0  0  0  0
  -23.0686   -8.7272   22.4450 C   0  0  0  0  0  0  0  0  0  0  0  0
  -33.2851  -23.2194   22.2903 C   0  0  0  0  0  0  0  0  0  0  0  0
  -19.8281   -7.8895   22.9121 C   0  0  0  0  0  0  0  0  0  0  0  0
  -19.0218   -7.8457   24.0494 C   0  0  0  0  0  0  0  0  0  0  0  0
  -33.9485  -24.1895   20.1837 C   0  0  0  0  0  0  0  0  0  0  0  0
  -20.2554   -5.9289   24.8502 C   0  0  0  0  0  0  0  0  0  0  0  0
  -23.8471  -10.4550   20.9465 C   0  0  0  0  0  0  0  0  0  0  0  0
  -24.1606  -12.9838   20.8265 C   0  0  0  0  0  0  0  0  0  0  0  0
  -25.8895  -25.9727   21.8774 C   0  0  0  0  0  0  0  0  0  0  0  0
  -32.5113  -25.4380   21.6788 C   0  0  0  0  0  0  0  0  0  0  0  0
  -27.0672  -25.4302   21.3285 C   0  0  0  0  0  0  0  0  0  0  0  0
  -33.2219  -25.3546   20.4729 C   0  0  0  0  0  0  0  0  0  0  0  0
  -22.3693   -8.1317   21.3952 C   0  0  0  0  0  0  0  0  0  0  0  0
  -33.9782  -23.1273   21.0870 C   0  0  0  0  0  0  0  0  0  0  0  0
  -20.8481   -6.9530   22.7438 C   0  0  0  0  0  0  0  0  0  0  0  0
  -19.2354   -6.8654   25.0185 C   0  0  0  0  0  0  0  0  0  0  0  0
  -21.0618   -5.9728   23.7129 C   0  0  0  0  0  0  0  0  0  0  0  0
  -24.6109  -11.6546   20.7153 C   0  0  0  0  0  0  0  0  0  0  0  0
  -25.2576  -13.7459   20.5064 C   0  0  0  0  0  0  0  0  0  0  0  0
  -22.8665  -13.4848   21.1871 C   0  0  0  0  0  0  0  0  0  0  0  0
  -30.2074  -26.8882   20.0379 C   0  0  0  0  0  0  0  0  0  0  0  0
  -32.6041  -28.9132   19.2146 C   0  0  0  0  0  0  0  0  0  0  0  0
  -35.9539  -29.4248   18.8091 C   0  0  0  0  0  0  0  0  0  0  0  0
  -30.5869  -14.8702   21.0360 C   0  0  0  0  0  0  0  0  0  0  0  0
  -25.2904  -27.2559   21.3588 C   0  0  0  0  0  0  0  0  0  0  0  0
  -31.7440  -26.6842   22.0262 C   0  0  0  0  0  0  0  0  0  0  0  0
  -33.2208  -26.4804   19.4723 C   0  0  0  0  0  0  0  0  0  0  0  0
  -26.2675  -28.0981   20.5426 C   0  0  0  0  0  0  0  0  0  0  0  0
  -29.7156  -12.4285   18.5109 C   0  0  0  0  0  0  0  0  0  0  0  0
  -27.0113  -27.2268   19.5355 C   0  0  0  0  0  0  0  0  0  0  0  0
  -28.2621  -12.1202   18.8747 C   0  0  0  0  0  0  0  0  0  0  0  0
  -32.4506  -17.3885   19.9321 C   0  0  0  0  0  0  0  0  0  0  0  0
  -34.7190  -17.4067   20.8444 C   0  0  0  0  0  0  0  0  0  0  0  0
  -30.5649  -12.6420   19.7604 C   0  0  0  0  0  0  0  0  0  0  0  0
  -28.5997  -13.3893   21.0462 C   0  0  0  0  0  0  0  0  0  0  0  0
  -27.8406  -26.1493   20.2445 C   0  0  1  0  0  0  0  0  0  0  0  0
  -31.3467  -27.5022   20.8013 C   0  0  1  0  0  0  0  0  0  0  0  0
  -27.6843  -13.1854   19.8253 C   0  0  2  0  0  0  0  0  0  0  0  0
  -32.6436  -16.2377   20.9320 C   0  0  2  0  0  0  0  0  0  0  0  0
  -33.8438  -18.0002   19.7471 C   0  0  2  0  0  0  0  0  0  0  0  0
  -34.1504  -16.0001   20.9493 C   0  0  2  0  0  0  0  0  0  0  0  0
  -37.6071  -31.1696   18.0881 C   0  0  0  0  0  0  0  0  0  0  0  0
  -31.8560  -28.4137   16.2990 C   0  0  0  0  0  0  0  0  0  0  0  0
  -34.0681  -29.3822   15.6381 C   0  0  0  0  0  0  0  0  0  0  0  0
  -32.4008  -30.7931   16.8433 C   0  0  0  0  0  0  0  0  0  0  0  0
  -37.2721  -29.4370   21.4589 C   0  0  0  0  0  0  0  0  0  0  0  0
  -34.9927  -20.1569   19.2847 C   0  0  0  0  0  0  0  0  0  0  0  0
  -34.8150  -21.6567   19.4157 C   0  0  0  0  0  0  0  0  0  1  0  0
  -33.6206  -28.9695   18.0999 C   0  0  1  0  0  0  0  0  0  0  0  0
  -36.8626  -30.5532   19.2622 C   0  0  2  0  0  0  0  0  0  0  0  0
  -32.9850  -29.3675   16.7379 C   0  0  0  0  0  0  0  0  0  0  0  0
  -25.8938  -11.5735   20.3526 N   0  0  0  0  0  0  0  0  0  0  0  0
  -26.2591  -12.8613   20.2331 N   0  0  0  0  0  0  0  0  0  0  0  0
  -32.4507  -27.6754   19.8549 N   0  0  0  0  0  0  0  0  0  0  0  0
  -29.9703  -13.6809   20.6131 N   0  0  0  0  0  0  0  0  0  0  0  0
  -25.4535  -15.0796   20.4347 N   0  0  0  0  0  0  0  0  0  0  0  0
  -21.8530  -12.5640   21.4857 N   0  0  0  0  0  0  0  0  0  0  0  0
  -29.0563  -26.7203   20.7835 N   0  0  0  0  0  0  0  0  0  0  0  0
  -34.6744  -29.8707   18.5535 N   0  0  0  0  0  0  0  0  0  0  0  0
  -31.8873  -15.0673   20.5877 N   0  0  0  0  0  0  0  0  0  0  0  0
  -34.5799  -15.3441   22.1976 N   0  3  0  0  0  0  0  0  0  0  0  0
  -33.8006  -19.4715   19.8444 N   0  3  0  0  0  0  0  0  0  0  0  0
  -37.8657  -30.0487   20.2421 N   0  3  0  0  0  0  0  0  0  0  0  0
  -22.6119  -14.7125   21.2269 O   0  0  0  0  0  0  0  0  0  0  0  0
  -30.3610  -26.5904   18.8591 O   0  0  0  0  0  0  0  0  0  0  0  0
  -31.9748  -29.9318   19.5112 O   0  0  0  0  0  0  0  0  0  0  0  0
  -36.3413  -28.2645   18.6900 O   0  0  0  0  0  0  0  0  0  0  0  0
  -30.0186  -15.6983   21.7560 O   0  0  0  0  0  0  0  0  0  0  0  0
  -21.6483   -6.9983   21.6145 O   0  0  0  0  0  0  0  0  0  0  0  0
  -34.6884  -22.0041   20.7940 O   0  0  0  0  0  0  0  0  0  1  0  0
  -18.4620   -6.8244   26.1113 F   0  0  0  0  0  0  0  0  0  0  0  0
  -22.0409   -5.0711   23.5573 F   0  0  0  0  0  0  0  0  0  0  0  0
  1  2  1  0  0  0  0
  1  5  2  0  0  0  0
  2  6  2  0  0  0  0
  3  8  2  0  0  0  0
  3 15  1  0  0  0  0
  4  9  1  0  0  0  0
  4 15  2  0  0  0  0
  5 17  1  0  0  0  0
  6 19  1  0  0  0  0
  7 10  2  0  0  0  0
  7 18  1  0  0  0  0
  8 21  1  0  0  0  0
  9 21  2  0  0  0  0
 10 22  1  0  0  0  0
 11 12  2  0  0  0  0
 11 23  1  0  0  0  0
 12 24  1  0  0  0  0
 13 20  1  0  0  0  0
 13 22  2  0  0  0  0
 14 24  2  0  0  0  0
 14 25  1  0  0  0  0
 15 26  1  0  0  0  0
 16 26  1  0  0  0  0
 16 27  2  0  0  0  0
 16 28  1  0  0  0  0
 17 19  2  0  0  0  0
 17 33  1  0  0  0  0
 18 20  2  0  0  0  0
 18 34  1  0  0  0  0
 19 44  1  0  0  0  0
 20 35  1  0  0  0  0
 21 77  1  0  0  0  0
 22 78  1  0  0  0  0
 23 25  2  0  0  0  0
 23 77  1  0  0  0  0
 24 79  1  0  0  0  0
 25 80  1  0  0  0  0
 26 60  2  0  0  0  0
 27 61  1  0  0  0  0
 27 64  1  0  0  0  0
 28 65  1  0  0  0  0
 28 72  2  0  0  0  0
 29 45  1  0  0  0  0
 29 66  1  0  0  0  0
 29 73  2  0  0  0  0
 30 57  1  0  0  0  0
 30 62  1  0  0  0  0
 30 74  2  0  0  0  0
 31 58  1  0  0  0  0
 31 67  1  0  0  0  0
 31 75  2  0  0  0  0
 32 63  1  0  0  0  0
 32 68  1  0  0  0  0
 32 76  2  0  0  0  0
 33 36  1  0  0  0  0
 34 45  1  0  0  0  0
 35 62  1  0  0  0  0
 36 38  1  0  0  0  0
 37 39  1  0  0  0  0
 37 42  1  0  0  0  0
 38 44  1  0  0  0  0
 39 46  1  0  0  0  0
 40 47  1  0  0  0  0
 40 48  1  0  0  0  0
 41 48  1  0  0  0  0
 41 49  1  0  0  0  0
 42 63  1  0  0  0  0
 43 46  1  0  0  0  0
 43 63  1  0  0  0  0
 44 66  1  0  0  0  0
 45 62  1  0  0  0  0
 46 61  1  0  0  0  0
 47 49  1  0  0  0  0
 47 68  1  0  0  0  0
 48 70  1  0  0  0  0
 49 69  1  0  0  0  0
 50 58  1  0  0  0  0
 51 59  1  0  0  0  0
 52 59  1  0  0  0  0
 53 59  1  0  0  0  0
 54 71  1  0  0  0  0
 55 56  1  0  0  0  0
 55 70  1  0  0  0  0
 56 78  1  0  0  0  0
 57 59  1  0  0  0  0
 57 67  1  0  0  0  0
 58 71  1  0  0  0  0
 60 61  1  0  0  0  0
M  CHG  3  69   1  70   1  71   1
M  ISO  4  32 100  56 101  68 100  78 101
M  END
> <Batch ID>
0192

> <Smiles>
CNC(C)C(=O)NC(C(=O)N1Cc2cc([101O:1][101CH2:1]CNC3CC(N)C([100NH:0][100C:0](=O)N4CCCC(n5nc(-c6ccc(Oc7ccc(F)cc7F)cc6)c(C(N)=O)c5N)C4)C3)ccc2CC1C(=O)NC1CCCc2ccccc21)C(C)(C)C

> <Shape>
0.210

> <Color>
0.167

> <Negative vol penalty>
0.000

$$$$

  -OEChem-04052323293D

 81 89  0     1  0  0  0  0  0999 V2000
  -28.4051  -36.1805   22.6558 C   0  0  0  0  0  0  0  0  0  0  0  0
  -28.6377  -34.8173   22.5042 C   0  0  0  0  0  0  0  0  0  0  0  0
  -24.9713  -14.1561   20.8374 C   0  0  0  0  0  0  0  0  0  0  0  0
  -26.3722  -12.3144   20.1426 C   0  0  0  0  0  0  0  0  0  0  0  0
  -27.2116  -36.6239   23.2241 C   0  0  0  0  0  0  0  0  0  0  0  0
  -27.6772  -33.8966   22.9218 C   0  0  0  0  0  0  0  0  0  0  0  0
  -26.9117  -30.2146   19.5304 C   0  0  0  0  0  0  0  0  0  0  0  0
  -23.8520  -13.3255   20.7823 C   0  0  0  0  0  0  0  0  0  0  0  0
  -25.2530  -11.4838   20.0875 C   0  0  0  0  0  0  0  0  0  0  0  0
  -27.8579  -29.1920   19.4763 C   0  0  0  0  0  0  0  0  0  0  0  0
  -22.8162   -8.7857   20.1123 C   0  0  0  0  0  0  0  0  0  0  0  0
  -22.9250   -7.5118   20.6699 C   0  0  0  0  0  0  0  0  0  0  0  0
  -26.4012  -27.7830   20.7847 C   0  0  0  0  0  0  0  0  0  0  0  0
  -23.4214   -8.4954   22.8201 C   0  0  0  0  0  0  0  0  0  0  0  0
  -26.2314  -13.6505   20.5175 C   0  0  0  0  0  0  0  0  0  0  0  0
  -28.2287  -14.7299   21.6807 C   0  0  0  0  0  0  0  0  0  0  0  0
  -26.2320  -35.7085   23.6400 C   0  0  0  0  0  0  0  0  0  0  0  0
  -25.7058  -30.0325   20.2226 C   0  0  0  0  0  0  0  0  0  0  0  0
  -26.4701  -34.3282   23.4974 C   0  0  0  0  0  0  0  0  0  0  0  0
  -25.4403  -28.8039   20.8440 C   0  0  0  0  0  0  0  0  0  0  0  0
  -23.9929  -11.9894   20.4074 C   0  0  0  0  0  0  0  0  0  0  0  0
  -27.6040  -27.9770   20.1059 C   0  0  0  0  0  0  0  0  0  0  0  0
  -23.0101   -9.9145   20.9086 C   0  0  0  0  0  0  0  0  0  0  0  0
  -23.2276   -7.3666   22.0238 C   0  0  0  0  0  0  0  0  0  0  0  0
  -23.3127   -9.7693   22.2625 C   0  0  0  0  0  0  0  0  0  0  0  0
  -27.3878  -14.5082   20.5737 C   0  0  0  0  0  0  0  0  0  0  0  0
  -29.1712  -15.6183   21.2235 C   0  0  0  0  0  0  0  0  0  0  0  0
  -28.1638  -14.1819   23.0040 C   0  0  0  0  0  0  0  0  0  0  0  0
  -24.3264  -31.4184   22.7286 C   0  0  0  0  0  0  0  0  0  0  0  0
  -21.8389  -29.4955   21.9305 C   0  0  0  0  0  0  0  0  0  0  0  0
  -29.7603  -25.4750   18.6421 C   0  0  0  0  0  0  0  0  0  0  0  0
  -20.7551  -26.6497   20.3899 C   0  0  0  0  0  0  0  0  0  0  0  0
  -30.6863  -20.0402   18.5847 C   0  0  0  0  0  0  0  0  0  0  0  0
  -24.9776  -36.2340   24.2920 C   0  0  0  0  0  0  0  0  0  0  0  0
  -24.6840  -31.1360   20.2490 C   0  0  0  0  0  0  0  0  0  0  0  0
  -24.1524  -28.5508   21.5828 C   0  0  0  0  0  0  0  0  0  0  0  0
  -23.8523  -35.2051   24.3651 C   0  0  0  0  0  0  0  0  0  0  0  0
  -30.2088  -17.2205   16.5460 C   0  0  0  0  0  0  0  0  0  0  0  0
  -24.3841  -33.8672   24.8692 C   0  0  0  0  0  0  0  0  0  0  0  0
  -29.4932  -16.2698   17.5053 C   0  0  0  0  0  0  0  0  0  0  0  0
  -29.8461  -22.9939   16.8687 C   0  0  0  0  0  0  0  0  0  0  0  0
  -31.8691  -23.2865   18.3497 C   0  0  0  0  0  0  0  0  0  0  0  0
  -29.7156  -18.6611   16.6929 C   0  0  0  0  0  0  0  0  0  0  0  0
  -30.2805  -21.5520   16.5908 C   0  0  0  0  0  0  0  0  0  0  0  0
  -32.2755  -21.8531   18.0203 C   0  0  0  0  0  0  0  0  0  0  0  0
  -29.0612  -18.2268   19.0386 C   0  0  0  0  0  0  0  0  0  0  0  0
  -25.4420  -33.2993   23.9154 C   0  0  1  0  0  0  0  0  0  0  0  0
  -23.7099  -31.0205   21.4174 C   0  0  1  0  0  0  0  0  0  0  0  0
  -29.5762  -16.7817   18.9544 C   0  0  1  0  0  0  0  0  0  0  0  0
  -31.0399  -23.8888   17.2116 C   0  0  0  0  0  0  0  0  0  0  0  0
  -18.6719  -25.3256   19.9376 C   0  0  0  0  0  0  0  0  0  0  0  0
  -21.8597  -28.4841   24.8092 C   0  0  0  0  0  0  0  0  0  0  0  0
  -20.4554  -26.5492   24.0660 C   0  0  0  0  0  0  0  0  0  0  0  0
  -19.5804  -28.8759   23.8575 C   0  0  0  0  0  0  0  0  0  0  0  0
  -31.0820  -26.2902   16.6680 C   0  0  0  0  0  0  0  0  0  0  0  0
  -21.0671  -26.9400   17.4612 C   0  0  0  0  0  0  0  0  0  0  0  0
  -29.3633  -26.9109   18.9125 C   0  0  0  0  0  0  0  0  0  1  0  0
  -21.4097  -28.0952   22.2967 C   0  0  1  0  0  0  0  0  0  0  0  0
  -19.6140  -26.4014   19.4200 C   0  0  2  0  0  0  0  0  0  0  0  0
  -20.8515  -28.0062   23.7451 C   0  0  0  0  0  0  0  0  0  0  0  0
  -27.7629  -15.2000   19.4945 N   0  0  0  0  0  0  0  0  0  0  0  0
  -28.8498  -15.8653   19.9212 N   0  0  0  0  0  0  0  0  0  0  0  0
  -23.1876  -29.6629   21.5857 N   0  0  0  0  0  0  0  0  0  0  0  0
  -29.7756  -19.0911   18.0968 N   0  0  0  0  0  0  0  0  0  0  0  0
  -31.1072  -21.0364   17.6911 N   0  0  0  0  0  0  0  0  0  0  0  0
  -30.2351  -16.2045   21.8123 N   0  0  0  0  0  0  0  0  0  0  0  0
  -27.1310  -13.2836   23.3051 N   0  0  0  0  0  0  0  0  0  0  0  0
  -24.8112  -32.7122   22.7527 N   0  0  0  0  0  0  0  0  0  0  0  0
  -20.4668  -27.6746   21.2660 N   0  0  0  0  0  0  0  0  0  0  0  0
  -30.5982  -25.2200   17.5468 N   0  0  0  0  0  0  0  0  0  0  0  0
  -20.1441  -25.9652   18.0972 N   0  3  0  0  0  0  0  0  0  0  0  0
  -28.9873  -14.4925   23.8977 O   0  0  0  0  0  0  0  0  0  0  0  0
  -24.3585  -30.6119   23.6507 O   0  0  0  0  0  0  0  0  0  0  0  0
  -21.0066  -30.4058   21.9427 O   0  0  0  0  0  0  0  0  0  0  0  0
  -29.3403  -24.5915   19.3957 O   0  0  0  0  0  0  0  0  0  0  0  0
  -21.7964  -25.9971   20.3743 O   0  0  0  0  0  0  0  0  0  0  0  0
  -31.0990  -20.0002   19.7505 O   0  0  0  0  0  0  0  0  0  0  0  0
  -22.9010  -11.1785   20.3537 O   0  0  0  0  0  0  0  0  0  0  0  0
  -28.5358  -26.9670   20.0546 O   0  0  0  0  0  0  0  0  0  1  0  0
  -23.3305   -6.1432   22.5595 F   0  0  0  0  0  0  0  0  0  0  0  0
  -23.4988  -10.8500   23.0327 F   0  0  0  0  0  0  0  0  0  0  0  0
  1  2  1  0  0  0  0
  1  5  2  0  0  0  0
  2  6  2  0  0  0  0
  3  8  2  0  0  0  0
  3 15  1  0  0  0  0
  4  9  1  0  0  0  0
  4 15  2  0  0  0  0
  5 17  1  0  0  0  0
  6 19  1  0  0  0  0
  7 10  2  0  0  0  0
  7 18  1  0  0  0  0
  8 21  1  0  0  0  0
  9 21  2  0  0  0  0
 10 22  1  0  0  0  0
 11 12  2  0  0  0  0
 11 23  1  0  0  0  0
 12 24  1  0  0  0  0
 13 20  1  0  0  0  0
 13 22  2  0  0  0  0
 14 24  2  0  0  0  0
 14 25  1  0  0  0  0
 15 26  1  0  0  0  0
 16 26  1  0  0  0  0
 16 27  2  0  0  0  0
 16 28  1  0  0  0  0
 17 19  2  0  0  0  0
 17 34  1  0  0  0  0
 18 20  2  0  0  0  0
 18 35  1  0  0  0  0
 19 47  1  0  0  0  0
 20 36  1  0  0  0  0
 21 78  1  0  0  0  0
 22 79  1  0  0  0  0
 23 25  2  0  0  0  0
 23 78  1  0  0  0  0
 24 80  1  0  0  0  0
 25 81  1  0  0  0  0
 26 61  2  0  0  0  0
 27 62  1  0  0  0  0
 27 66  1  0  0  0  0
 28 67  1  0  0  0  0
 28 72  2  0  0  0  0
 29 48  1  0  0  0  0
 29 68  1  0  0  0  0
 29 73  2  0  0  0  0
 30 58  1  0  0  0  0
 30 63  1  0  0  0  0
 30 74  2  0  0  0  0
 31 57  1  0  0  0  0
 31 70  1  0  0  0  0
 31 75  2  0  0  0  0
 32 59  1  0  0  0  0
 32 69  1  0  0  0  0
 32 76  2  0  0  0  0
 33 64  1  0  0  0  0
 33 65  1  0  0  0  0
 33 77  2  0  0  0  0
 34 37  1  0  0  0  0
 35 48  1  0  0  0  0
 36 63  1  0  0  0  0
 37 39  1  0  0  0  0
 38 40  1  0  0  0  0
 38 43  1  0  0  0  0
 39 47  1  0  0  0  0
 40 49  1  0  0  0  0
 41 44  1  0  0  0  0
 41 50  1  0  0  0  0
 42 45  1  0  0  0  0
 42 50  1  0  0  0  0
 43 64  1  0  0  0  0
 44 65  1  0  0  0  0
 45 65  1  0  0  0  0
 46 49  1  0  0  0  0
 46 64  1  0  0  0  0
 47 68  1  0  0  0  0
 48 63  1  0  0  0  0
 49 62  1  0  0  0  0
 50 70  1  0  0  0  0
 51 59  1  0  0  0  0
 52 60  1  0  0  0  0
 53 60  1  0  0  0  0
 54 60  1  0  0  0  0
 55 70  1  0  0  0  0
 56 71  1  0  0  0  0
 57 79  1  0  0  0  0
 58 60  1  0  0  0  0
 58 69  1  0  0  0  0
 59 71  1  0  0  0  0
 61 62  1  0  0  0  0
M  CHG  1  71   1
M  ISO  4  33 100  57 101  65 100  79 101
M  END
> <Batch ID>
0192

> <Smiles>
CNC(C)C(=O)NC(C(=O)N1Cc2cc([101O:1][101CH2:1]C(=O)N(C)C3CC[100N:0]([100C:0](=O)N4CCCC(n5nc(-c6ccc(Oc7ccc(F)cc7F)cc6)c(C(N)=O)c5N)C4)CC3)ccc2CC1C(=O)NC1CCCc2ccccc21)C(C)(C)C

> <Shape>
0.332

> <Color>
0.081

> <Negative vol penalty>
0.000

$$$$

  -OEChem-04052323293D

 83 92  0     1  0  0  0  0  0999 V2000
  -20.0565  -22.2505   25.1078 C   0  0  0  0  0  0  0  0  0  0  0  0
  -20.9501  -21.6954   24.1975 C   0  0  0  0  0  0  0  0  0  0  0  0
  -23.8298  -10.0505   22.4457 C   0  0  0  0  0  0  0  0  0  0  0  0
  -24.3982  -11.6389   24.1751 C   0  0  0  0  0  0  0  0  0  0  0  0
  -19.8471  -23.6288   25.1254 C   0  0  0  0  0  0  0  0  0  0  0  0
  -21.6341  -22.5184   23.3034 C   0  0  0  0  0  0  0  0  0  0  0  0
  -26.5494  -21.3496   22.9580 C   0  0  0  0  0  0  0  0  0  0  0  0
  -23.3125   -9.1857   23.4100 C   0  0  0  0  0  0  0  0  0  0  0  0
  -23.8809  -10.7741   25.1395 C   0  0  0  0  0  0  0  0  0  0  0  0
  -26.8872  -20.2402   22.1841 C   0  0  0  0  0  0  0  0  0  0  0  0
  -22.3827   -9.1407   28.0214 C   0  0  0  0  0  0  0  0  0  0  0  0
  -21.5641   -9.6860   29.0104 C   0  0  0  0  0  0  0  0  0  0  0  0
  -27.4863  -21.7019   20.3610 C   0  0  0  0  0  0  0  0  0  0  0  0
  -20.0190  -10.4427   27.3141 C   0  0  0  0  0  0  0  0  0  0  0  0
  -24.3727  -11.2772   22.8282 C   0  0  0  0  0  0  0  0  0  0  0  0
  -24.2155  -13.1785   21.1348 C   0  0  0  0  0  0  0  0  0  0  0  0
  -20.5361  -24.4701   24.2376 C   0  0  0  0  0  0  0  0  0  0  0  0
  -26.6673  -22.6451   22.4345 C   0  0  0  0  0  0  0  0  0  0  0  0
  -21.4328  -23.9091   23.3082 C   0  0  0  0  0  0  0  0  0  0  0  0
  -27.1517  -22.8261   21.1312 C   0  0  0  0  0  0  0  0  0  0  0  0
  -23.3380   -9.5474   24.7569 C   0  0  0  0  0  0  0  0  0  0  0  0
  -27.3530  -20.4160   20.8844 C   0  0  0  0  0  0  0  0  0  0  0  0
  -22.0196   -9.2464   26.6788 C   0  0  0  0  0  0  0  0  0  0  0  0
  -20.3822  -10.3369   28.6567 C   0  0  0  0  0  0  0  0  0  0  0  0
  -20.8378   -9.8974   26.3251 C   0  0  0  0  0  0  0  0  0  0  0  0
  -24.9078  -12.1707   21.8326 C   0  0  0  0  0  0  0  0  0  0  0  0
  -29.4100  -17.7974   19.4589 C   0  0  0  0  0  0  0  0  0  0  0  0
  -28.9894  -18.8799   20.1881 C   0  0  0  0  0  0  0  0  0  1  0  0
  -25.1617  -13.7379   20.3112 C   0  0  0  0  0  0  0  0  0  0  0  0
  -31.4762  -18.0507   20.3343 C   0  0  0  0  0  0  0  0  0  0  0  0
  -22.8401  -13.5738   21.2232 C   0  0  0  0  0  0  0  0  0  0  0  0
  -24.6372  -25.0177   21.8402 C   0  0  0  0  0  0  0  0  0  0  0  0
  -27.3535  -26.6455   21.1370 C   0  0  0  0  0  0  0  0  0  0  0  0
  -30.6247  -26.5426   20.1696 C   0  0  0  0  0  0  0  0  0  0  0  0
  -31.0295  -14.1149   20.7515 C   0  0  0  0  0  0  0  0  0  0  0  0
  -20.2414  -25.9490   24.2624 C   0  0  0  0  0  0  0  0  0  0  0  0
  -26.3241  -23.8327   23.2914 C   0  0  0  0  0  0  0  0  0  0  0  0
  -27.3158  -24.1971   20.5294 C   0  0  0  0  0  0  0  0  0  0  0  0
  -21.2858  -26.7905   23.5334 C   0  0  0  0  0  0  0  0  0  0  0  0
  -29.2038  -12.6677   17.9834 C   0  0  0  0  0  0  0  0  0  0  0  0
  -21.6157  -26.1748   22.1774 C   0  0  0  0  0  0  0  0  0  0  0  0
  -27.8186  -12.4747   18.6029 C   0  0  0  0  0  0  0  0  0  0  0  0
  -34.8680  -16.4082   19.8012 C   0  0  0  0  0  0  0  0  0  0  0  0
  -34.6756  -14.8838   19.9509 C   0  0  0  0  0  0  0  0  0  0  0  0
  -30.3085  -12.3808   18.9966 C   0  0  0  0  0  0  0  0  0  0  0  0
  -28.8305  -12.9833   20.8729 C   0  0  0  0  0  0  0  0  0  0  0  0
  -22.2121  -24.7714   22.3391 C   0  0  1  0  0  0  0  0  0  0  0  0
  -25.9960  -25.0812   22.4785 C   0  0  1  0  0  0  0  0  0  0  0  0
  -27.6707  -13.2822   19.9059 C   0  0  2  0  0  0  0  0  0  0  0  0
  -33.3302  -16.5154   19.7115 C   0  0  1  0  0  0  0  0  0  0  0  0
  -33.2647  -15.1896   20.5097 C   0  0  1  0  0  0  0  0  0  0  0  0
  -28.4758  -17.0585   18.5635 C   0  0  0  0  0  0  0  0  0  0  0  0
  -32.5713  -28.0364   19.6437 C   0  0  0  0  0  0  0  0  0  0  0  0
  -26.0957  -27.3323   18.4432 C   0  0  0  0  0  0  0  0  0  0  0  0
  -28.3720  -27.9756   17.6229 C   0  0  0  0  0  0  0  0  0  0  0  0
  -27.3374  -29.2144   19.5249 C   0  0  0  0  0  0  0  0  0  0  0  0
  -32.2555  -25.3783   22.3477 C   0  0  0  0  0  0  0  0  0  0  0  0
  -28.1799  -26.8591   19.8918 C   0  0  1  0  0  0  0  0  0  0  0  0
  -31.8601  -27.2316   20.7204 C   0  0  2  0  0  0  0  0  0  0  0  0
  -27.4914  -27.8193   18.8811 C   0  0  0  0  0  0  0  0  0  0  0  0
  -26.1944  -12.0920   21.4826 N   0  0  0  0  0  0  0  0  0  0  0  0
  -30.6748  -17.3533   19.5154 N   0  0  0  0  0  0  0  0  0  0  0  0
  -29.8400  -19.5409   20.9940 N   0  0  0  0  0  0  0  0  0  0  0  0
  -31.1193  -19.1195   21.0736 N   0  0  0  0  0  0  0  0  0  0  0  0
  -26.3181  -13.0574   20.5559 N   0  0  0  0  0  0  0  0  0  0  0  0
  -26.9611  -25.3264   21.4048 N   0  0  0  0  0  0  0  0  0  0  0  0
  -30.1197  -13.1955   20.2055 N   0  0  0  0  0  0  0  0  0  0  0  0
  -25.1090  -14.7404   19.4087 N   0  0  0  0  0  0  0  0  0  0  0  0
  -22.0059  -12.8937   22.1210 N   0  0  0  0  0  0  0  0  0  0  0  0
  -32.8183  -17.6269   20.4320 N   0  0  0  0  0  0  0  0  0  0  0  0
  -23.6004  -24.8552   22.7391 N   0  0  0  0  0  0  0  0  0  0  0  0
  -29.4918  -27.3088   20.3446 N   0  0  0  0  0  0  0  0  0  0  0  0
  -32.2296  -14.2677   20.0654 N   0  0  0  0  0  0  0  0  0  0  0  0
  -32.8158  -26.2252   21.2633 N   0  3  0  0  0  0  0  0  0  0  0  0
  -22.3610  -14.4915   20.5149 O   0  0  0  0  0  0  0  0  0  0  0  0
  -24.5368  -25.1109   20.6224 O   0  0  0  0  0  0  0  0  0  0  0  0
  -27.0728  -27.6124   21.8496 O   0  0  0  0  0  0  0  0  0  0  0  0
  -30.6616  -25.4370   19.6341 O   0  0  0  0  0  0  0  0  0  0  0  0
  -30.7932  -14.7635   21.7768 O   0  0  0  0  0  0  0  0  0  0  0  0
  -22.8331   -8.7039   25.6982 O   0  0  0  0  0  0  0  0  0  0  0  0
  -27.6828  -19.3349   20.1267 O   0  0  0  0  0  0  0  0  0  1  0  0
  -19.5953  -10.8592   29.6066 F   0  0  0  0  0  0  0  0  0  0  0  0
  -20.4830  -10.0011   25.0370 F   0  0  0  0  0  0  0  0  0  0  0  0
  1  2  1  0  0  0  0
  1  5  2  0  0  0  0
  2  6  2  0  0  0  0
  3  8  2  0  0  0  0
  3 15  1  0  0  0  0
  4  9  1  0  0  0  0
  4 15  2  0  0  0  0
  5 17  1  0  0  0  0
  6 19  1  0  0  0  0
  7 10  2  0  0  0  0
  7 18  1  0  0  0  0
  8 21  1  0  0  0  0
  9 21  2  0  0  0  0
 10 22  1  0  0  0  0
 11 12  2  0  0  0  0
 11 23  1  0  0  0  0
 12 24  1  0  0  0  0
 13 20  1  0  0  0  0
 13 22  2  0  0  0  0
 14 24  2  0  0  0  0
 14 25  1  0  0  0  0
 15 26  1  0  0  0  0
 16 26  1  0  0  0  0
 16 29  2  0  0  0  0
 16 31  1  0  0  0  0
 17 19  2  0  0  0  0
 17 36  1  0  0  0  0
 18 20  2  0  0  0  0
 18 37  1  0  0  0  0
 19 47  1  0  0  0  0
 20 38  1  0  0  0  0
 21 80  1  0  0  0  0
 22 81  1  0  0  0  0
 23 25  2  0  0  0  0
 23 80  1  0  0  0  0
 24 82  1  0  0  0  0
 25 83  1  0  0  0  0
 26 61  2  0  0  0  0
 27 28  2  0  0  0  0
 27 52  1  0  0  0  0
 27 62  1  0  0  0  0
 28 63  1  0  0  0  0
 28 81  1  0  0  0  0
 29 65  1  0  0  0  0
 29 68  1  0  0  0  0
 30 62  2  0  0  0  0
 30 64  1  0  0  0  0
 30 70  1  0  0  0  0
 31 69  1  0  0  0  0
 31 75  2  0  0  0  0
 32 48  1  0  0  0  0
 32 71  1  0  0  0  0
 32 76  2  0  0  0  0
 33 58  1  0  0  0  0
 33 66  1  0  0  0  0
 33 77  2  0  0  0  0
 34 59  1  0  0  0  0
 34 72  1  0  0  0  0
 34 78  2  0  0  0  0
 35 67  1  0  0  0  0
 35 73  1  0  0  0  0
 35 79  2  0  0  0  0
 36 39  1  0  0  0  0
 37 48  1  0  0  0  0
 38 66  1  0  0  0  0
 39 41  1  0  0  0  0
 40 42  1  0  0  0  0
 40 45  1  0  0  0  0
 41 47  1  0  0  0  0
 42 49  1  0  0  0  0
 43 44  1  0  0  0  0
 43 50  1  0  0  0  0
 44 51  1  0  0  0  0
 45 67  1  0  0  0  0
 46 49  1  0  0  0  0
 46 67  1  0  0  0  0
 47 71  1  0  0  0  0
 48 66  1  0  0  0  0
 49 65  1  0  0  0  0
 50 51  1  0  0  0  0
 50 70  1  0  0  0  0
 51 73  1  0  0  0  0
 53 59  1  0  0  0  0
 54 60  1  0  0  0  0
 55 60  1  0  0  0  0
 56 60  1  0  0  0  0
 57 74  1  0  0  0  0
 58 60  1  0  0  0  0
 58 72  1  0  0  0  0
 59 74  1  0  0  0  0
 61 65  1  0  0  0  0
 63 64  2  0  0  0  0
M  CHG  1  74   1
M  ISO  4  28 101  35 100  73 100  81 101
M  END
> <Batch ID>
0192

> <Smiles>
CNC(C)C(=O)NC(C(=O)N1Cc2cc([101O:1][101c:1]3nnc(NC4CCC4[100NH:0][100C:0](=O)N4CCCC(n5nc(-c6ccc(Oc7ccc(F)cc7F)cc6)c(C(N)=O)c5N)C4)nc3C)ccc2CC1C(=O)NC1CCCc2ccccc21)C(C)(C)C

> <Shape>
0.212

> <Color>
0.121

> <Negative vol penalty>
0.000

$$$$

  -OEChem-04052323293D

 86 95  0     1  0  0  0  0  0999 V2000
  -17.1663  -10.8370   21.1330 C   0  0  0  0  0  0  0  0  0  0  0  0
  -18.3950  -11.3296   20.7053 C   0  0  0  0  0  0  0  0  0  0  0  0
  -22.3986  -26.9311   20.4118 C   0  0  0  0  0  0  0  0  0  0  0  0
  -22.9770  -28.5079   22.1486 C   0  0  0  0  0  0  0  0  0  0  0  0
  -16.0905  -11.7065   21.3077 C   0  0  0  0  0  0  0  0  0  0  0  0
  -18.5484  -12.6920   20.4509 C   0  0  0  0  0  0  0  0  0  0  0  0
  -22.8346  -14.5609   22.3954 C   0  0  0  0  0  0  0  0  0  0  0  0
  -21.1253  -26.7903   20.9637 C   0  0  0  0  0  0  0  0  0  0  0  0
  -21.7037  -28.3671   22.7004 C   0  0  0  0  0  0  0  0  0  0  0  0
  -24.0146  -14.3053   21.6982 C   0  0  0  0  0  0  0  0  0  0  0  0
  -18.5833  -29.5085   22.0834 C   0  0  0  0  0  0  0  0  0  0  0  0
  -17.9129  -30.6699   22.4671 C   0  0  0  0  0  0  0  0  0  0  0  0
  -23.9203  -16.5170   20.7398 C   0  0  0  0  0  0  0  0  0  0  0  0
  -17.8142  -29.8616   24.7417 C   0  0  0  0  0  0  0  0  0  0  0  0
  -23.3245  -27.7899   21.0043 C   0  0  0  0  0  0  0  0  0  0  0  0
  -25.0455  -28.8637   19.4575 C   0  0  0  0  0  0  0  0  0  0  0  0
  -16.2334  -13.0817   21.0647 C   0  0  0  0  0  0  0  0  0  0  0  0
  -22.1816  -15.7947   22.2613 C   0  0  0  0  0  0  0  0  0  0  0  0
  -17.4731  -13.5806   20.6213 C   0  0  0  0  0  0  0  0  0  0  0  0
  -22.7335  -16.7867   21.4383 C   0  0  0  0  0  0  0  0  0  0  0  0
  -20.7779  -27.5083   22.1079 C   0  0  0  0  0  0  0  0  0  0  0  0
  -24.5561  -15.2824   20.8680 C   0  0  0  0  0  0  0  0  0  0  0  0
  -18.8691  -28.5235   23.0289 C   0  0  0  0  0  0  0  0  0  0  0  0
  -17.5283  -30.8465   23.7962 C   0  0  0  0  0  0  0  0  0  0  0  0
  -18.4845  -28.7001   24.3580 C   0  0  0  0  0  0  0  0  0  0  0  0
  -24.6401  -27.9353   20.4350 C   0  0  0  0  0  0  0  0  0  0  0  0
  -28.1338  -15.1570   20.2226 C   0  0  0  0  0  0  0  0  0  0  0  0
  -26.9040  -15.3569   20.8044 C   0  0  0  0  0  0  0  0  0  1  0  0
  -26.3777  -28.5942   19.2596 C   0  0  0  0  0  0  0  0  0  0  0  0
  -28.3268  -16.0408   22.2321 C   0  0  0  0  0  0  0  0  0  0  0  0
  -24.2858  -29.8789   18.7882 C   0  0  0  0  0  0  0  0  0  0  0  0
  -19.3326  -16.7209   21.1990 C   0  0  0  0  0  0  0  0  0  0  0  0
  -20.3064  -19.6210   22.2776 C   0  0  0  0  0  0  0  0  0  0  0  0
  -22.8964  -21.6939   23.0787 C   0  0  0  0  0  0  0  0  0  0  0  0
  -29.4433  -23.5527   20.0867 C   0  0  0  0  0  0  0  0  0  0  0  0
  -15.0290  -13.9757   21.2220 C   0  0  0  0  0  0  0  0  0  0  0  0
  -20.9239  -16.0644   23.0409 C   0  0  0  0  0  0  0  0  0  0  0  0
  -22.0823  -18.1350   21.2758 C   0  0  0  0  0  0  0  0  0  0  0  0
  -15.3773  -15.4604   21.2911 C   0  0  0  0  0  0  0  0  0  0  0  0
  -30.2312  -26.8768   21.4805 C   0  0  0  0  0  0  0  0  0  0  0  0
  -16.3708  -15.8273   20.1933 C   0  0  0  0  0  0  0  0  0  0  0  0
  -29.3854  -15.6756   24.6023 C   0  0  0  0  0  0  0  0  0  0  0  0
  -28.1709  -16.5269   24.8038 C   0  0  0  0  0  0  0  0  0  0  0  0
  -28.8899  -27.5867   21.3221 C   0  0  0  0  0  0  0  0  0  0  0  0
  -30.0603  -25.3866   21.7724 C   0  0  0  0  0  0  0  0  0  0  0  0
  -27.8698  -25.3889   20.6122 C   0  0  0  0  0  0  0  0  0  0  0  0
  -17.6857  -15.0558   20.3589 C   0  0  1  0  0  0  0  0  0  0  0  0
  -28.9467  -16.6243   23.5090 C   0  0  0  0  0  0  0  0  0  0  0  0
  -20.0678  -17.1696   22.4301 C   0  0  1  0  0  0  0  0  0  0  0  0
  -28.0224  -26.8789   20.2700 C   0  0  1  0  0  0  0  0  0  0  0  0
  -28.5251  -14.6035   18.9133 C   0  0  0  0  0  0  0  0  0  0  0  0
  -23.3803  -24.0167   23.8961 C   0  0  0  0  0  0  0  0  0  0  0  0
  -19.6692  -20.7264   19.5060 C   0  0  0  0  0  0  0  0  0  0  0  0
  -21.0293  -22.7495   20.0765 C   0  0  0  0  0  0  0  0  0  0  0  0
  -18.9868  -22.2076   21.4020 C   0  0  0  0  0  0  0  0  0  0  0  0
  -24.2468  -20.6820   25.5101 C   0  0  0  0  0  0  0  0  0  0  0  0
  -30.6323  -20.4871   20.5062 C   0  0  0  0  0  0  0  0  0  0  0  0
  -30.4735  -15.6038   21.0144 C   0  0  0  0  0  0  0  0  0  0  0  0
  -31.0727  -21.7227   19.7286 C   0  0  0  0  0  0  0  0  0  0  0  0
  -31.0902  -19.1943   19.8431 C   0  0  0  0  0  0  0  0  0  0  0  0
  -31.0002  -16.7128   20.1131 C   0  0  0  0  0  0  0  0  0  0  0  0
  -21.0588  -20.7860   21.6812 C   0  0  1  0  0  0  0  0  0  0  0  0
  -23.1486  -22.5674   24.2944 C   0  0  2  0  0  0  0  0  0  0  0  0
  -20.1975  -21.5914   20.6678 C   0  0  0  0  0  0  0  0  0  0  0  0
  -25.6342  -27.1358   20.8305 N   0  0  0  0  0  0  0  0  0  0  0  0
  -27.0312  -15.9074   22.0551 N   0  0  0  0  0  0  0  0  0  0  0  0
  -29.0352  -15.5997   21.1492 N   0  0  0  0  0  0  0  0  0  0  0  0
  -26.6775  -27.5609   20.0978 N   0  0  0  0  0  0  0  0  0  0  0  0
  -20.8508  -18.3485   22.0540 N   0  0  0  0  0  0  0  0  0  0  0  0
  -29.1751  -24.7408   20.7904 N   0  0  0  0  0  0  0  0  0  0  0  0
  -27.3102  -29.1427   18.4521 N   0  0  0  0  0  0  0  0  0  0  0  0
  -22.9293  -30.0200   19.1108 N   0  0  0  0  0  0  0  0  0  0  0  0
  -18.4895  -15.6462   21.4076 N   0  0  0  0  0  0  0  0  0  0  0  0
  -21.5501  -21.5738   22.8065 N   0  0  0  0  0  0  0  0  0  0  0  0
  -30.6627  -22.9457   20.3655 N   0  0  0  0  0  0  0  0  0  0  0  0
  -24.3475  -22.0869   25.0378 N   0  3  0  0  0  0  0  0  0  0  0  0
  -30.6661  -18.0410   20.6831 N   0  3  0  0  0  0  0  0  0  0  0  0
  -24.7910  -30.6275   17.9176 O   0  0  0  0  0  0  0  0  0  0  0  0
  -19.5154  -17.3074   20.1387 O   0  0  0  0  0  0  0  0  0  0  0  0
  -19.2776  -19.8329   22.9244 O   0  0  0  0  0  0  0  0  0  0  0  0
  -23.8033  -21.1734   22.4328 O   0  0  0  0  0  0  0  0  0  0  0  0
  -28.6525  -23.0633   19.2726 O   0  0  0  0  0  0  0  0  0  0  0  0
  -19.5354  -27.3714   22.6466 O   0  0  0  0  0  0  0  0  0  0  0  0
  -25.7074  -15.0353   20.1859 O   0  0  0  0  0  0  0  0  0  1  0  0
  -16.8859  -31.9626   24.1648 F   0  0  0  0  0  0  0  0  0  0  0  0
  -18.7574  -27.7579   25.2711 F   0  0  0  0  0  0  0  0  0  0  0  0
  1  2  1  0  0  0  0
  1  5  2  0  0  0  0
  2  6  2  0  0  0  0
  3  8  2  0  0  0  0
  3 15  1  0  0  0  0
  4  9  1  0  0  0  0
  4 15  2  0  0  0  0
  5 17  1  0  0  0  0
  6 19  1  0  0  0  0
  7 10  2  0  0  0  0
  7 18  1  0  0  0  0
  8 21  1  0  0  0  0
  9 21  2  0  0  0  0
 10 22  1  0  0  0  0
 11 12  2  0  0  0  0
 11 23  1  0  0  0  0
 12 24  1  0  0  0  0
 13 20  1  0  0  0  0
 13 22  2  0  0  0  0
 14 24  2  0  0  0  0
 14 25  1  0  0  0  0
 15 26  1  0  0  0  0
 16 26  1  0  0  0  0
 16 29  2  0  0  0  0
 16 31  1  0  0  0  0
 17 19  2  0  0  0  0
 17 36  1  0  0  0  0
 18 20  2  0  0  0  0
 18 37  1  0  0  0  0
 19 47  1  0  0  0  0
 20 38  1  0  0  0  0
 21 83  1  0  0  0  0
 22 84  1  0  0  0  0
 23 25  2  0  0  0  0
 23 83  1  0  0  0  0
 24 85  1  0  0  0  0
 25 86  1  0  0  0  0
 26 65  2  0  0  0  0
 27 28  2  0  0  0  0
 27 51  1  0  0  0  0
 27 67  1  0  0  0  0
 28 66  1  0  0  0  0
 28 84  1  0  0  0  0
 29 68  1  0  0  0  0
 29 71  1  0  0  0  0
 30 48  1  0  0  0  0
 30 66  2  0  0  0  0
 30 67  1  0  0  0  0
 31 72  1  0  0  0  0
 31 78  2  0  0  0  0
 32 49  1  0  0  0  0
 32 73  1  0  0  0  0
 32 79  2  0  0  0  0
 33 62  1  0  0  0  0
 33 69  1  0  0  0  0
 33 80  2  0  0  0  0
 34 63  1  0  0  0  0
 34 74  1  0  0  0  0
 34 81  2  0  0  0  0
 35 70  1  0  0  0  0
 35 75  1  0  0  0  0
 35 82  2  0  0  0  0
 36 39  1  0  0  0  0
 37 49  1  0  0  0  0
 38 69  1  0  0  0  0
 39 41  1  0  0  0  0
 40 44  1  0  0  0  0
 40 45  1  0  0  0  0
 41 47  1  0  0  0  0
 42 43  1  0  0  0  0
 42 48  1  0  0  0  0
 43 48  1  0  0  0  0
 44 50  1  0  0  0  0
 45 70  1  0  0  0  0
 46 50  1  0  0  0  0
 46 70  1  0  0  0  0
 47 73  1  0  0  0  0
 49 69  1  0  0  0  0
 50 68  1  0  0  0  0
 52 63  1  0  0  0  0
 53 64  1  0  0  0  0
 54 64  1  0  0  0  0
 55 64  1  0  0  0  0
 56 76  1  0  0  0  0
 57 59  1  0  0  0  0
 57 60  1  0  0  0  0
 58 61  1  0  0  0  0
 58 67  1  0  0  0  0
 59 75  1  0  0  0  0
 60 77  1  0  0  0  0
 61 77  1  0  0  0  0
 62 64  1  0  0  0  0
 62 74  1  0  0  0  0
 63 76  1  0  0  0  0
 65 68  1  0  0  0  0
M  CHG  2  76   1  77   1
M  ISO  4  28 101  35 100  75 100  84 101
M  END
> <Batch ID>
0192

> <Smiles>
CNC(C)C(=O)NC(C(=O)N1Cc2cc([101O:1][101c:1]3nc(C4CC4)n(CCNCCC[100NH:0][100C:0](=O)N4CCCC(n5nc(-c6ccc(Oc7ccc(F)cc7F)cc6)c(C(N)=O)c5N)C4)c3C)ccc2CC1C(=O)NC1CCCc2ccccc21)C(C)(C)C

> <Shape>
0.177

> <Color>
0.059

> <Negative vol penalty>
0.000

$$$$

  -OEChem-04052323293D

 86 95  0     1  0  0  0  0  0999 V2000
  -19.8002  -27.8834   26.5510 C   0  0  0  0  0  0  0  0  0  0  0  0
  -20.8938  -27.0810   26.2420 C   0  0  0  0  0  0  0  0  0  0  0  0
  -23.2171   -9.7109   20.9469 C   0  0  0  0  0  0  0  0  0  0  0  0
  -23.8940  -10.4699   23.1384 C   0  0  0  0  0  0  0  0  0  0  0  0
  -19.1242  -28.5595   25.5361 C   0  0  0  0  0  0  0  0  0  0  0  0
  -21.3114  -26.9533   24.9177 C   0  0  0  0  0  0  0  0  0  0  0  0
  -27.2372  -26.0513   20.9950 C   0  0  0  0  0  0  0  0  0  0  0  0
  -22.5163   -8.6548   21.5290 C   0  0  0  0  0  0  0  0  0  0  0  0
  -23.1931   -9.4137   23.7206 C   0  0  0  0  0  0  0  0  0  0  0  0
  -27.7521  -25.2271   19.9954 C   0  0  0  0  0  0  0  0  0  0  0  0
  -19.9838   -8.6730   24.4770 C   0  0  0  0  0  0  0  0  0  0  0  0
  -19.1882   -8.9587   25.5865 C   0  0  0  0  0  0  0  0  0  0  0  0
  -26.5567  -26.5047   18.3346 C   0  0  0  0  0  0  0  0  0  0  0  0
  -20.4867   -7.4141   26.9153 C   0  0  0  0  0  0  0  0  0  0  0  0
  -23.9060  -10.6185   21.7515 C   0  0  0  0  0  0  0  0  0  0  0  0
  -24.1405  -12.9959   20.8568 C   0  0  0  0  0  0  0  0  0  0  0  0
  -19.5397  -28.4477   24.1999 C   0  0  0  0  0  0  0  0  0  0  0  0
  -26.3682  -27.1035   20.6725 C   0  0  0  0  0  0  0  0  0  0  0  0
  -20.6396  -27.6274   23.8839 C   0  0  0  0  0  0  0  0  0  0  0  0
  -26.0343  -27.3425   19.3318 C   0  0  0  0  0  0  0  0  0  0  0  0
  -22.5042   -8.5062   22.9159 C   0  0  0  0  0  0  0  0  0  0  0  0
  -27.4096  -25.4519   18.6652 C   0  0  0  0  0  0  0  0  0  0  0  0
  -21.0308   -7.7578   24.5866 C   0  0  0  0  0  0  0  0  0  0  0  0
  -19.4397   -8.3293   26.8057 C   0  0  0  0  0  0  0  0  0  0  0  0
  -21.2823   -7.1284   25.8057 C   0  0  0  0  0  0  0  0  0  0  0  0
  -24.6307  -11.7093   21.1507 C   0  0  0  0  0  0  0  0  0  0  0  0
  -25.2109  -13.6521   20.2999 C   0  0  0  0  0  0  0  0  0  0  0  0
  -22.8345  -13.5484   21.0684 C   0  0  0  0  0  0  0  0  0  0  0  0
  -23.3556  -27.8235   21.3863 C   0  0  0  0  0  0  0  0  0  0  0  0
  -24.0518  -30.5768   19.8188 C   0  0  0  0  0  0  0  0  0  0  0  0
  -25.9864  -32.1901   17.5163 C   0  0  0  0  0  0  0  0  0  0  0  0
  -30.6544  -14.9564   20.4402 C   0  0  0  0  0  0  0  0  0  0  0  0
  -18.7485  -29.1600   23.1316 C   0  0  0  0  0  0  0  0  0  0  0  0
  -25.8426  -28.0002   21.7598 C   0  0  0  0  0  0  0  0  0  0  0  0
  -25.1213  -28.4713   18.9309 C   0  0  0  0  0  0  0  0  0  0  0  0
  -19.4848  -29.2688   21.7989 C   0  0  0  0  0  0  0  0  0  0  0  0
  -29.6991  -11.9222   18.7323 C   0  0  0  0  0  0  0  0  0  0  0  0
  -20.1044  -27.9273   21.4202 C   0  0  0  0  0  0  0  0  0  0  0  0
  -28.2623  -11.6873   19.2021 C   0  0  0  0  0  0  0  0  0  0  0  0
  -29.8993  -23.8467   16.5784 C   0  0  0  0  0  0  0  0  0  0  0  0
  -30.5573  -12.5668   19.8197 C   0  0  0  0  0  0  0  0  0  0  0  0
  -29.8108  -22.3446   16.3600 C   0  0  0  0  0  0  0  0  0  0  0  0
  -28.5639  -13.5563   20.8692 C   0  0  0  0  0  0  0  0  0  0  0  0
  -28.6390  -16.5663   20.8580 C   0  0  0  0  0  0  0  0  0  0  0  0
  -29.0479  -22.6831   18.5352 C   0  0  0  0  0  0  0  0  0  0  0  0
  -21.1381  -27.4833   22.4623 C   0  0  1  0  0  0  0  0  0  0  0  0
  -24.5581  -28.7242   21.3684 C   0  0  1  0  0  0  0  0  0  0  0  0
  -27.6477  -12.9751   19.7824 C   0  0  2  0  0  0  0  0  0  0  0  0
  -29.2073  -17.9883   20.7671 C   0  0  1  0  0  0  0  0  0  0  0  0
  -29.1937  -24.0710   17.9128 C   0  0  2  0  0  0  0  0  0  1  0  0
  -30.5923  -17.4171   21.1193 C   0  0  1  0  0  0  0  0  0  0  0  0
  -26.2935  -34.4276   16.4224 C   0  0  0  0  0  0  0  0  0  0  0  0
  -32.1444  -16.5594   22.8969 C   0  0  0  0  0  0  0  0  0  0  0  0
  -31.5794  -19.0037   22.7963 C   0  0  0  0  0  0  0  0  0  0  0  0
  -30.4562  -19.5957   16.8842 C   0  0  0  0  0  0  0  0  0  0  0  0
  -21.5971  -30.0615   18.0813 C   0  0  0  0  0  0  0  0  0  0  0  0
  -22.4803  -31.7480   16.4553 C   0  0  0  0  0  0  0  0  0  0  0  0
  -21.8997  -32.4439   18.7793 C   0  0  0  0  0  0  0  0  0  0  0  0
  -28.7425  -32.4528   18.5621 C   0  0  0  0  0  0  0  0  0  0  0  0
  -29.6365  -19.9458   19.2762 C   0  0  0  0  0  0  0  0  0  0  0  0
  -23.9662  -31.0418   18.3851 C   0  0  1  0  0  0  0  0  0  0  0  0
  -26.7152  -33.5208   17.5680 C   0  0  2  0  0  0  0  0  0  0  0  0
  -31.0609  -17.5844   22.5525 C   0  0  0  0  0  0  0  0  0  0  0  0
  -29.5870  -20.4240   17.8255 C   0  0  1  0  0  0  0  0  0  0  0  0
  -22.5015  -31.3012   17.9327 C   0  0  0  0  0  0  0  0  0  0  0  0
  -25.9126  -11.5554   20.8087 N   0  0  0  0  0  0  0  0  0  0  0  0
  -26.2370  -12.7537   20.2940 N   0  0  0  0  0  0  0  0  0  0  0  0
  -24.6281  -29.3164   20.0310 N   0  0  0  0  0  0  0  0  0  0  0  0
  -29.9137  -13.7762   20.3383 N   0  0  0  0  0  0  0  0  0  0  0  0
  -30.0148  -16.0879   20.8970 N   0  0  0  0  0  0  0  0  0  0  0  0
  -29.9258  -21.8354   17.7254 N   0  0  1  0  0  0  0  0  0  0  0  0
  -25.3650  -14.9043   19.8195 N   0  0  0  0  0  0  0  0  0  0  0  0
  -21.8522  -12.7367   21.6520 N   0  0  0  0  0  0  0  0  0  0  0  0
  -22.3782  -28.2077   22.2845 N   0  0  0  0  0  0  0  0  0  0  0  0
  -24.8390  -32.2062   18.2809 N   0  0  0  0  0  0  0  0  0  0  0  0
  -29.1464  -18.5420   19.4020 N   0  3  0  0  0  0  0  0  0  0  0  0
  -28.1877  -33.3085   17.4818 N   0  3  0  0  0  0  0  0  0  0  0  0
  -22.5425  -14.7217   20.7343 O   0  0  0  0  0  0  0  0  0  0  0  0
  -23.3166  -26.8528   20.6395 O   0  0  0  0  0  0  0  0  0  0  0  0
  -23.6296  -31.3081   20.7180 O   0  0  0  0  0  0  0  0  0  0  0  0
  -26.3922  -31.2334   16.8601 O   0  0  0  0  0  0  0  0  0  0  0  0
  -31.8447  -15.0105   20.1034 O   0  0  0  0  0  0  0  0  0  0  0  0
  -21.8202   -7.4758   23.4844 O   0  0  0  0  0  0  0  0  0  0  0  0
  -27.9139  -24.6425   17.6804 O   0  0  0  0  0  0  0  0  0  1  0  0
  -18.6766   -8.6049   27.8715 F   0  0  0  0  0  0  0  0  0  0  0  0
  -22.2874   -6.2492   25.9174 F   0  0  0  0  0  0  0  0  0  0  0  0
  1  2  1  0  0  0  0
  1  5  2  0  0  0  0
  2  6  2  0  0  0  0
  3  8  2  0  0  0  0
  3 15  1  0  0  0  0
  4  9  1  0  0  0  0
  4 15  2  0  0  0  0
  5 17  1  0  0  0  0
  6 19  1  0  0  0  0
  7 10  2  0  0  0  0
  7 18  1  0  0  0  0
  8 21  1  0  0  0  0
  9 21  2  0  0  0  0
 10 22  1  0  0  0  0
 11 12  2  0  0  0  0
 11 23  1  0  0  0  0
 12 24  1  0  0  0  0
 13 20  1  0  0  0  0
 13 22  2  0  0  0  0
 14 24  2  0  0  0  0
 14 25  1  0  0  0  0
 15 26  1  0  0  0  0
 16 26  1  0  0  0  0
 16 27  2  0  0  0  0
 16 28  1  0  0  0  0
 17 19  2  0  0  0  0
 17 33  1  0  0  0  0
 18 20  2  0  0  0  0
 18 34  1  0  0  0  0
 19 46  1  0  0  0  0
 20 35  1  0  0  0  0
 21 83  1  0  0  0  0
 22 84  1  0  0  0  0
 23 25  2  0  0  0  0
 23 83  1  0  0  0  0
 24 85  1  0  0  0  0
 25 86  1  0  0  0  0
 26 66  2  0  0  0  0
 27 67  1  0  0  0  0
 27 72  1  0  0  0  0
 28 73  1  0  0  0  0
 28 78  2  0  0  0  0
 29 47  1  0  0  0  0
 29 74  1  0  0  0  0
 29 79  2  0  0  0  0
 30 61  1  0  0  0  0
 30 68  1  0  0  0  0
 30 80  2  0  0  0  0
 31 62  1  0  0  0  0
 31 75  1  0  0  0  0
 31 81  2  0  0  0  0
 32 69  1  0  0  0  0
 32 70  1  0  0  0  0
 32 82  2  0  0  0  0
 33 36  1  0  0  0  0
 34 47  1  0  0  0  0
 35 68  1  0  0  0  0
 36 38  1  0  0  0  0
 37 39  1  0  0  0  0
 37 41  1  0  0  0  0
 38 46  1  0  0  0  0
 39 48  1  0  0  0  0
 40 42  1  0  0  0  0
 40 50  1  0  0  0  0
 41 69  1  0  0  0  0
 42 71  1  0  0  0  0
 43 48  1  0  0  0  0
 43 69  1  0  0  0  0
 44 49  1  0  0  0  0
 44 70  1  0  0  0  0
 45 50  1  0  0  0  0
 45 71  1  0  0  0  0
 46 74  1  0  0  0  0
 47 68  1  0  0  0  0
 48 67  1  0  0  0  0
 49 51  1  0  0  0  0
 49 76  1  0  0  0  0
 50 84  1  0  0  0  0
 51 63  1  0  0  0  0
 51 70  1  0  0  0  0
 52 62  1  0  0  0  0
 53 63  1  0  0  0  0
 54 63  1  0  0  0  0
 55 64  1  0  0  0  0
 56 65  1  0  0  0  0
 57 65  1  0  0  0  0
 58 65  1  0  0  0  0
 59 77  1  0  0  0  0
 60 64  1  0  0  0  0
 60 76  1  0  0  0  0
 61 65  1  0  0  0  0
 61 75  1  0  0  0  0
 62 77  1  0  0  0  0
 64 71  1  0  0  0  0
 66 67  1  0  0  0  0
M  CHG  2  76   1  77   1
M  ISO  4  32 100  50 101  70 100  84 101
M  END
> <Batch ID>
0192

> <Smiles>
CNC(C)C(=O)NC(C(=O)N1Cc2cc([101O:1][101CH:1]3CCN(C(C)CNC4C[100N:0]([100C:0](=O)N5CCCC(n6nc(-c7ccc(Oc8ccc(F)cc8F)cc7)c(C(N)=O)c6N)C5)C4C(C)C)C3)ccc2CC1C(=O)NC1CCCc2ccccc21)C(C)(C)C

> <Shape>
0.300

> <Color>
0.167

> <Negative vol penalty>
0.000

$$$$

  -OEChem-04052323293D

 81 90  0     1  0  0  0  0  0999 V2000
  -21.1842  -12.7039   20.6044 C   0  0  0  0  0  0  0  0  0  0  0  0
  -21.4360  -13.9517   21.1657 C   0  0  0  0  0  0  0  0  0  0  0  0
  -28.8444  -27.8427   19.4971 C   0  0  0  0  0  0  0  0  0  0  0  0
  -27.8089  -25.7423   20.0915 C   0  0  0  0  0  0  0  0  0  0  0  0
  -22.2453  -11.8601   20.2790 C   0  0  0  0  0  0  0  0  0  0  0  0
  -22.7493  -14.3559   21.4031 C   0  0  0  0  0  0  0  0  0  0  0  0
  -23.6055  -19.1301   19.9474 C   0  0  0  0  0  0  0  0  0  0  0  0
  -30.0724  -27.1968   19.3542 C   0  0  0  0  0  0  0  0  0  0  0  0
  -29.0369  -25.0964   19.9486 C   0  0  0  0  0  0  0  0  0  0  0  0
  -23.1491  -20.1439   20.7887 C   0  0  0  0  0  0  0  0  0  0  0  0
  -33.5544  -26.1623   19.1832 C   0  0  0  0  0  0  0  0  0  0  0  0
  -34.6780  -26.7712   19.7421 C   0  0  0  0  0  0  0  0  0  0  0  0
  -25.3780  -20.4047   21.6737 C   0  0  0  0  0  0  0  0  0  0  0  0
  -33.6555  -26.6519   21.9278 C   0  0  0  0  0  0  0  0  0  0  0  0
  -22.5038  -23.5674   24.5468 C   0  0  0  0  0  0  0  0  0  0  0  0
  -27.7126  -27.1154   19.8658 C   0  0  0  0  0  0  0  0  0  0  0  0
  -25.4673  -27.9820   19.0201 C   0  0  0  0  0  0  0  0  0  0  0  0
  -23.5726  -12.2582   20.5036 C   0  0  0  0  0  0  0  0  0  0  0  0
  -24.9517  -18.7379   19.9708 C   0  0  0  0  0  0  0  0  0  0  0  0
  -23.8292  -13.5161   21.0816 C   0  0  0  0  0  0  0  0  0  0  0  0
  -25.8495  -19.3875   20.8299 C   0  0  0  0  0  0  0  0  0  0  0  0
  -30.1687  -25.8237   19.5799 C   0  0  0  0  0  0  0  0  0  0  0  0
  -24.0347  -20.7794   21.6541 C   0  0  0  0  0  0  0  0  0  0  0  0
  -32.4812  -25.7983   19.9966 C   0  0  0  0  0  0  0  0  0  0  0  0
  -34.7285  -27.0160   21.1144 C   0  0  0  0  0  0  0  0  0  0  0  0
  -32.5318  -26.0430   21.3689 C   0  0  0  0  0  0  0  0  0  0  0  0
  -26.4439  -27.7821   20.0141 C   0  0  0  0  0  0  0  0  0  0  0  0
  -21.9229  -23.2273   23.3555 C   0  0  0  0  0  0  0  0  0  0  0  0
  -24.4589  -28.6596   19.6608 C   0  0  0  0  0  0  0  0  0  0  0  0
  -20.9006  -25.0324   24.1172 C   0  0  0  0  0  0  0  0  0  0  0  0
  -25.4713  -27.5903   17.6409 C   0  0  0  0  0  0  0  0  0  0  0  0
  -26.4914  -16.0429   20.6564 C   0  0  0  0  0  0  0  0  0  0  0  0
  -29.0747  -17.7163   19.6326 C   0  0  0  0  0  0  0  0  0  0  0  0
  -30.5331  -20.7556   19.1006 C   0  0  0  0  0  0  0  0  0  0  0  0
  -22.7694  -28.9873   25.3957 C   0  0  0  0  0  0  0  0  0  0  0  0
  -24.6848  -11.2925   20.1792 C   0  0  0  0  0  0  0  0  0  0  0  0
  -25.4338  -17.6610   19.0379 C   0  0  0  0  0  0  0  0  0  0  0  0
  -27.3087  -19.0176   20.8788 C   0  0  0  0  0  0  0  0  0  0  0  0
  -26.0619  -11.9484   20.1162 C   0  0  0  0  0  0  0  0  0  0  0  0
  -23.6979  -31.6957   23.2793 C   0  0  0  0  0  0  0  0  0  0  0  0
  -26.2719  -12.8653   21.3170 C   0  0  0  0  0  0  0  0  0  0  0  0
  -24.4188  -31.0179   22.1128 C   0  0  0  0  0  0  0  0  0  0  0  0
  -22.0898  -25.4442   26.2305 C   0  0  0  0  0  0  0  0  0  0  0  0
  -23.9865  -30.9948   24.6050 C   0  0  0  0  0  0  0  0  0  0  0  0
  -24.4354  -28.8674   23.4447 C   0  0  0  0  0  0  0  0  0  0  0  0
  -20.2027  -26.9436   25.4657 C   0  0  0  0  0  0  0  0  0  0  0  0
  -25.2410  -14.0004   21.3313 C   0  0  1  0  0  0  0  0  0  0  0  0
  -26.7192  -16.9906   19.5128 C   0  0  1  0  0  0  0  0  0  0  0  0
  -24.1304  -29.5050   22.0784 C   0  0  2  0  0  0  0  0  0  0  0  0
  -21.6168  -26.8934   26.0637 C   0  0  2  0  0  0  0  0  0  0  0  0
  -32.6650  -21.8028   18.2909 C   0  0  0  0  0  0  0  0  0  0  0  0
  -30.4222  -17.0131   22.2783 C   0  0  0  0  0  0  0  0  0  0  0  0
  -32.0944  -18.8211   21.8272 C   0  0  0  0  0  0  0  0  0  0  0  0
  -31.9162  -16.8744   20.2774 C   0  0  0  0  0  0  0  0  0  0  0  0
  -29.1482  -22.1324   16.8768 C   0  0  0  0  0  0  0  0  0  0  0  0
  -22.2070  -22.1050   22.4010 C   0  0  0  0  0  0  0  0  0  1  0  0
  -30.0895  -18.6224   20.2869 C   0  0  1  0  0  0  0  0  0  0  0  0
  -31.2757  -21.3207   17.9033 C   0  0  2  0  0  0  0  0  0  0  0  0
  -31.1027  -17.8386   21.1681 C   0  0  0  0  0  0  0  0  0  0  0  0
  -26.0880  -28.2916   21.1964 N   0  0  0  0  0  0  0  0  0  0  0  0
  -21.8533  -24.6959   25.0008 N   0  0  0  0  0  0  0  0  0  0  0  0
  -24.8766  -28.8184   20.9494 N   0  0  0  0  0  0  0  0  0  0  0  0
  -20.9341  -24.1505   23.1146 N   0  3  0  0  0  0  0  0  0  0  0  0
  -20.0683  -26.1042   24.2613 N   0  0  0  0  0  0  0  0  0  0  0  0
  -27.7304  -17.9543   19.9520 N   0  0  0  0  0  0  0  0  0  0  0  0
  -23.6907  -29.5635   24.5056 N   0  0  0  0  0  0  0  0  0  0  0  0
  -23.2645  -29.1291   19.2420 N   0  0  0  0  0  0  0  0  0  0  0  0
  -26.5865  -26.9011   17.1453 N   0  0  0  0  0  0  0  0  0  0  0  0
  -25.6024  -15.0235   20.3736 N   0  0  0  0  0  0  0  0  0  0  0  0
  -30.7040  -19.3917   19.2104 N   0  0  0  0  0  0  0  0  0  0  0  0
  -22.5420  -27.6268   25.2288 N   0  0  0  0  0  0  0  0  0  0  0  0
  -30.5245  -22.4696   17.3230 N   0  3  0  0  0  0  0  0  0  0  0  0
  -24.5214  -27.8583   16.8667 O   0  0  0  0  0  0  0  0  0  0  0  0
  -27.0797  -16.2225   21.7162 O   0  0  0  0  0  0  0  0  0  0  0  0
  -29.4601  -16.8346   18.8608 O   0  0  0  0  0  0  0  0  0  0  0  0
  -29.8709  -21.4546   19.8644 O   0  0  0  0  0  0  0  0  0  0  0  0
  -22.1882  -29.6384   26.2706 O   0  0  0  0  0  0  0  0  0  0  0  0
  -31.3668  -25.1931   19.4404 O   0  0  0  0  0  0  0  0  0  0  0  0
  -23.5917  -21.7687   22.4767 O   0  0  0  0  0  0  0  0  0  1  0  0
  -35.8083  -27.5993   21.6511 F   0  0  0  0  0  0  0  0  0  0  0  0
  -31.5045  -25.6945   22.1556 F   0  0  0  0  0  0  0  0  0  0  0  0
  1  2  1  0  0  0  0
  1  5  2  0  0  0  0
  2  6  2  0  0  0  0
  3  8  2  0  0  0  0
  3 16  1  0  0  0  0
  4  9  1  0  0  0  0
  4 16  2  0  0  0  0
  5 18  1  0  0  0  0
  6 20  1  0  0  0  0
  7 10  2  0  0  0  0
  7 19  1  0  0  0  0
  8 22  1  0  0  0  0
  9 22  2  0  0  0  0
 10 23  1  0  0  0  0
 11 12  2  0  0  0  0
 11 24  1  0  0  0  0
 12 25  1  0  0  0  0
 13 21  1  0  0  0  0
 13 23  2  0  0  0  0
 14 25  2  0  0  0  0
 14 26  1  0  0  0  0
 15 28  2  0  0  0  0
 15 61  1  0  0  0  0
 16 27  1  0  0  0  0
 17 27  1  0  0  0  0
 17 29  2  0  0  0  0
 17 31  1  0  0  0  0
 18 20  2  0  0  0  0
 18 36  1  0  0  0  0
 19 21  2  0  0  0  0
 19 37  1  0  0  0  0
 20 47  1  0  0  0  0
 21 38  1  0  0  0  0
 22 78  1  0  0  0  0
 23 79  1  0  0  0  0
 24 26  2  0  0  0  0
 24 78  1  0  0  0  0
 25 80  1  0  0  0  0
 26 81  1  0  0  0  0
 27 60  2  0  0  0  0
 28 56  1  0  0  0  0
 28 63  1  0  0  0  0
 29 62  1  0  0  0  0
 29 67  1  0  0  0  0
 30 61  1  0  0  0  0
 30 63  2  0  0  0  0
 30 64  1  0  0  0  0
 31 68  1  0  0  0  0
 31 73  2  0  0  0  0
 32 48  1  0  0  0  0
 32 69  1  0  0  0  0
 32 74  2  0  0  0  0
 33 57  1  0  0  0  0
 33 65  1  0  0  0  0
 33 75  2  0  0  0  0
 34 58  1  0  0  0  0
 34 70  1  0  0  0  0
 34 76  2  0  0  0  0
 35 66  1  0  0  0  0
 35 71  1  0  0  0  0
 35 77  2  0  0  0  0
 36 39  1  0  0  0  0
 37 48  1  0  0  0  0
 38 65  1  0  0  0  0
 39 41  1  0  0  0  0
 40 42  1  0  0  0  0
 40 44  1  0  0  0  0
 41 47  1  0  0  0  0
 42 49  1  0  0  0  0
 43 50  1  0  0  0  0
 43 61  1  0  0  0  0
 44 66  1  0  0  0  0
 45 49  1  0  0  0  0
 45 66  1  0  0  0  0
 46 50  1  0  0  0  0
 46 64  1  0  0  0  0
 47 69  1  0  0  0  0
 48 65  1  0  0  0  0
 49 62  1  0  0  0  0
 50 71  1  0  0  0  0
 51 58  1  0  0  0  0
 52 59  1  0  0  0  0
 53 59  1  0  0  0  0
 54 59  1  0  0  0  0
 55 72  1  0  0  0  0
 56 79  1  0  0  0  0
 57 59  1  0  0  0  0
 57 70  1  0  0  0  0
 58 72  1  0  0  0  0
 60 62  1  0  0  0  0
M  CHG  2  63   1  72   1
M  ISO  4  35 100  56 101  71 100  79 101
M  END
> <Batch ID>
0192

> <Smiles>
CNC(C)C(=O)NC(C(=O)N1Cc2cc([101O:1][101CH2:1]c3cn4c(n3)NCC([100NH:0][100C:0](=O)N3CCCC(n5nc(-c6ccc(Oc7ccc(F)cc7F)cc6)c(C(N)=O)c5N)C3)C4)ccc2CC1C(=O)NC1CCCc2ccccc21)C(C)(C)C

> <Shape>
0.207

> <Color>
0.066

> <Negative vol penalty>
0.000

$$$$

  -OEChem-04052323293D

 87 96  0     1  0  0  0  0  0999 V2000
  -18.1694  -28.5388   23.6473 C   0  0  0  0  0  0  0  0  0  0  0  0
  -19.4257  -28.1214   24.0748 C   0  0  0  0  0  0  0  0  0  0  0  0
  -27.0128  -13.2948   20.9483 C   0  0  0  0  0  0  0  0  0  0  0  0
  -27.1600  -13.3860   18.5386 C   0  0  0  0  0  0  0  0  0  0  0  0
  -17.7460  -28.2549   22.3496 C   0  0  0  0  0  0  0  0  0  0  0  0
  -20.2590  -27.4187   23.2051 C   0  0  0  0  0  0  0  0  0  0  0  0
  -26.3681  -27.7272   22.9063 C   0  0  0  0  0  0  0  0  0  0  0  0
  -26.3518  -12.0696   20.8616 C   0  0  0  0  0  0  0  0  0  0  0  0
  -26.4991  -12.1607   18.4518 C   0  0  0  0  0  0  0  0  0  0  0  0
  -27.3748  -26.9146   23.4259 C   0  0  0  0  0  0  0  0  0  0  0  0
  -23.2301  -10.9667   20.1814 C   0  0  0  0  0  0  0  0  0  0  0  0
  -22.1020  -10.7817   20.9807 C   0  0  0  0  0  0  0  0  0  0  0  0
  -27.5123  -25.7480   21.3189 C   0  0  0  0  0  0  0  0  0  0  0  0
  -23.1753   -8.9063   22.0615 C   0  0  0  0  0  0  0  0  0  0  0  0
  -27.4168  -13.9531   19.7868 C   0  0  0  0  0  0  0  0  0  0  0  0
  -29.4877  -15.4317   19.9684 C   0  0  0  0  0  0  0  0  0  0  0  0
  -18.5783  -27.5569   21.4605 C   0  0  0  0  0  0  0  0  0  0  0  0
  -25.9175  -27.5488   21.5904 C   0  0  0  0  0  0  0  0  0  0  0  0
  -19.8457  -27.1240   21.8947 C   0  0  0  0  0  0  0  0  0  0  0  0
  -26.5015  -26.5613   20.7842 C   0  0  0  0  0  0  0  0  0  0  0  0
  -26.0950  -11.5025   19.6134 C   0  0  0  0  0  0  0  0  0  0  0  0
  -27.9451  -25.9230   22.6331 C   0  0  0  0  0  0  0  0  0  0  0  0
  -24.3308  -10.1214   20.3221 C   0  0  0  0  0  0  0  0  0  0  0  0
  -22.0746   -9.7515   21.9207 C   0  0  0  0  0  0  0  0  0  0  0  0
  -24.3034   -9.0913   21.2621 C   0  0  0  0  0  0  0  0  0  0  0  0
  -28.0991  -15.2190   19.8757 C   0  0  0  0  0  0  0  0  0  0  0  0
  -31.2711  -23.2035   18.2482 C   0  0  0  0  0  0  0  0  0  0  0  0
  -32.3582  -22.5277   18.7400 C   0  0  0  0  0  0  0  0  0  0  0  0
  -29.6227  -16.7973   20.0275 C   0  0  0  0  0  0  0  0  0  0  0  0
  -32.7651  -24.2591   20.1315 C   0  0  0  0  0  0  0  0  0  0  0  0
  -30.5596  -14.4800   19.9984 C   0  0  0  0  0  0  0  0  0  0  0  0
  -23.1390  -26.7709   20.2569 C   0  0  0  0  0  0  0  0  0  0  0  0
  -24.7291  -27.4023   17.5009 C   0  0  0  0  0  0  0  0  0  0  0  0
  -27.7171  -27.6390   15.8691 C   0  0  0  0  0  0  0  0  0  0  0  0
  -28.2713  -21.9038   18.2267 C   0  0  0  0  0  0  0  0  0  0  0  0
  -18.0582  -27.2320   20.0826 C   0  0  0  0  0  0  0  0  0  0  0  0
  -24.8493  -28.4512   21.0363 C   0  0  0  0  0  0  0  0  0  0  0  0
  -26.0675  -26.3425   19.3586 C   0  0  0  0  0  0  0  0  0  0  0  0
  -19.1503  -26.8095   19.1033 C   0  0  0  0  0  0  0  0  0  0  0  0
  -26.1563  -20.4232   20.6785 C   0  0  0  0  0  0  0  0  0  0  0  0
  -20.0801  -25.7872   19.7491 C   0  0  0  0  0  0  0  0  0  0  0  0
  -26.5835  -18.9544   20.6912 C   0  0  0  0  0  0  0  0  0  0  0  0
  -34.2627  -26.2121   20.8967 C   0  0  0  0  0  0  0  0  0  0  0  0
  -35.0934  -24.9698   20.9773 C   0  0  0  0  0  0  0  0  0  0  0  0
  -26.2089  -21.0141   19.2714 C   0  0  0  0  0  0  0  0  0  0  0  0
  -27.9289  -19.3848   18.5928 C   0  0  0  0  0  0  0  0  0  0  0  0
  -20.7882  -26.3811   20.9728 C   0  0  1  0  0  0  0  0  0  0  0  0
  -24.1099  -27.8426   19.8487 C   0  0  1  0  0  0  0  0  0  0  0  0
  -27.9459  -18.7606   19.9987 C   0  0  2  0  0  0  0  0  0  0  0  0
  -33.5943  -24.8834   21.2006 C   0  0  0  0  0  0  0  0  0  0  0  0
  -28.6950  -28.1370   13.6123 C   0  0  0  0  0  0  0  0  0  0  0  0
  -23.8889  -24.6348   16.5288 C   0  0  0  0  0  0  0  0  0  0  0  0
  -25.6356  -24.8081   14.7435 C   0  0  0  0  0  0  0  0  0  0  0  0
  -23.7461  -26.4357   14.7995 C   0  0  0  0  0  0  0  0  0  0  0  0
  -33.7856  -20.4821   18.6780 C   0  0  0  0  0  0  0  0  0  0  0  0
  -29.2189  -29.9692   16.9055 C   0  0  0  0  0  0  0  0  0  0  0  0
  -30.3969  -22.6428   17.1804 C   0  0  0  0  0  0  0  0  0  0  0  0
  -33.1030  -24.6468   22.6120 C   0  0  0  0  0  0  0  0  0  0  0  0
  -31.1300  -25.0210   24.0972 C   0  0  0  0  0  0  0  0  0  0  0  0
  -29.7731  -25.6959   24.1373 C   0  0  0  0  0  0  0  0  0  1  0  0
  -25.5704  -26.5940   16.5428 C   0  0  1  0  0  0  0  0  0  0  0  0
  -28.2854  -28.7129   14.9589 C   0  0  2  0  0  0  0  0  0  0  0  0
  -24.7173  -25.6207   15.6811 C   0  0  0  0  0  0  0  0  0  0  0  0
  -27.4019  -16.3582   19.8757 N   0  0  0  0  0  0  0  0  0  0  0  0
  -30.9458  -24.4212   18.7185 N   0  0  0  0  0  0  0  0  0  0  0  0
  -33.1377  -23.0443   19.7021 N   0  0  0  0  0  0  0  0  0  0  0  0
  -31.7098  -24.9691   19.6864 N   0  0  0  0  0  0  0  0  0  0  0  0
  -28.3561  -17.2999   19.9692 N   0  0  0  0  0  0  0  0  0  0  0  0
  -25.0154  -27.2461   18.8646 N   0  0  0  0  0  0  0  0  0  0  0  0
  -27.5276  -20.7982   18.6713 N   0  0  0  0  0  0  0  0  0  0  0  0
  -30.7000  -17.6051   20.1232 N   0  0  0  0  0  0  0  0  0  0  0  0
  -30.2443  -13.1162   19.9282 N   0  0  0  0  0  0  0  0  0  0  0  0
  -32.6707  -21.2509   18.2223 N   0  0  0  0  0  0  0  0  0  0  0  0
  -21.8756  -27.2419   20.5592 N   0  0  0  0  0  0  0  0  0  0  0  0
  -26.3445  -27.5569   15.7669 N   0  0  0  0  0  0  0  0  0  0  0  0
  -29.5132  -21.6114   17.6764 N   0  0  0  0  0  0  0  0  0  0  0  0
  -29.4826  -29.3420   15.5848 N   0  3  0  0  0  0  0  0  0  0  0  0
  -31.7474  -25.2408   22.7650 N   0  3  0  0  0  0  0  0  0  0  0  0
  -31.7603  -14.8280   20.1013 O   0  0  0  0  0  0  0  0  0  0  0  0
  -23.5083  -25.6030   20.2932 O   0  0  0  0  0  0  0  0  0  0  0  0
  -23.8552  -28.1502   17.0555 O   0  0  0  0  0  0  0  0  0  0  0  0
  -28.4208  -26.9402   16.5950 O   0  0  0  0  0  0  0  0  0  0  0  0
  -27.8612  -23.0658   18.3186 O   0  0  0  0  0  0  0  0  0  0  0  0
  -25.4503  -10.3068   19.5284 O   0  0  0  0  0  0  0  0  0  0  0  0
  -28.9275  -25.1280   23.1380 O   0  0  0  0  0  0  0  0  0  1  0  0
  -20.9919   -9.5750   22.6892 F   0  0  0  0  0  0  0  0  0  0  0  0
  -25.3582   -8.2768   21.4027 F   0  0  0  0  0  0  0  0  0  0  0  0
  1  2  1  0  0  0  0
  1  5  2  0  0  0  0
  2  6  2  0  0  0  0
  3  8  2  0  0  0  0
  3 15  1  0  0  0  0
  4  9  1  0  0  0  0
  4 15  2  0  0  0  0
  5 17  1  0  0  0  0
  6 19  1  0  0  0  0
  7 10  2  0  0  0  0
  7 18  1  0  0  0  0
  8 21  1  0  0  0  0
  9 21  2  0  0  0  0
 10 22  1  0  0  0  0
 11 12  2  0  0  0  0
 11 23  1  0  0  0  0
 12 24  1  0  0  0  0
 13 20  1  0  0  0  0
 13 22  2  0  0  0  0
 14 24  2  0  0  0  0
 14 25  1  0  0  0  0
 15 26  1  0  0  0  0
 16 26  1  0  0  0  0
 16 29  2  0  0  0  0
 16 31  1  0  0  0  0
 17 19  2  0  0  0  0
 17 36  1  0  0  0  0
 18 20  2  0  0  0  0
 18 37  1  0  0  0  0
 19 47  1  0  0  0  0
 20 38  1  0  0  0  0
 21 84  1  0  0  0  0
 22 85  1  0  0  0  0
 23 25  2  0  0  0  0
 23 84  1  0  0  0  0
 24 86  1  0  0  0  0
 25 87  1  0  0  0  0
 26 64  2  0  0  0  0
 27 28  2  0  0  0  0
 27 57  1  0  0  0  0
 27 65  1  0  0  0  0
 28 66  1  0  0  0  0
 28 73  1  0  0  0  0
 29 68  1  0  0  0  0
 29 71  1  0  0  0  0
 30 50  1  0  0  0  0
 30 66  2  0  0  0  0
 30 67  1  0  0  0  0
 31 72  1  0  0  0  0
 31 79  2  0  0  0  0
 32 48  1  0  0  0  0
 32 74  1  0  0  0  0
 32 80  2  0  0  0  0
 33 61  1  0  0  0  0
 33 69  1  0  0  0  0
 33 81  2  0  0  0  0
 34 62  1  0  0  0  0
 34 75  1  0  0  0  0
 34 82  2  0  0  0  0
 35 70  1  0  0  0  0
 35 76  1  0  0  0  0
 35 83  2  0  0  0  0
 36 39  1  0  0  0  0
 37 48  1  0  0  0  0
 38 69  1  0  0  0  0
 39 41  1  0  0  0  0
 40 42  1  0  0  0  0
 40 45  1  0  0  0  0
 41 47  1  0  0  0  0
 42 49  1  0  0  0  0
 43 44  1  0  0  0  0
 43 50  1  0  0  0  0
 44 50  1  0  0  0  0
 45 70  1  0  0  0  0
 46 49  1  0  0  0  0
 46 70  1  0  0  0  0
 47 74  1  0  0  0  0
 48 69  1  0  0  0  0
 49 68  1  0  0  0  0
 50 58  1  0  0  0  0
 51 62  1  0  0  0  0
 52 63  1  0  0  0  0
 53 63  1  0  0  0  0
 54 63  1  0  0  0  0
 55 73  1  0  0  0  0
 56 77  1  0  0  0  0
 57 76  1  0  0  0  0
 58 78  1  0  0  0  0
 59 60  1  0  0  0  0
 59 78  1  0  0  0  0
 60 85  1  0  0  0  0
 61 63  1  0  0  0  0
 61 75  1  0  0  0  0
 62 77  1  0  0  0  0
 64 68  1  0  0  0  0
 65 67  2  0  0  0  0
M  CHG  2  77   1  78   1
M  ISO  4  35 100  60 101  76 100  85 101
M  END
> <Batch ID>
0192

> <Smiles>
CNc1nc(C2(CNC[101CH2:1][101O:1]c3ccc4c(c3)CN(C(=O)C(NC(=O)C(C)NC)C(C)(C)C)C(C(=O)NC3CCCc5ccccc53)C4)CC2)nnc1C[100NH:0][100C:0](=O)N1CCCC(n2nc(-c3ccc(Oc4ccc(F)cc4F)cc3)c(C(N)=O)c2N)C1

> <Shape>
0.210

> <Color>
0.080

> <Negative vol penalty>
0.000

$$$$

  -OEChem-04052323293D

 84 93  0     1  0  0  0  0  0999 V2000
  -26.2089  -37.0386   16.5896 C   0  0  0  0  0  0  0  0  0  0  0  0
  -26.5703  -35.6970   16.5201 C   0  0  0  0  0  0  0  0  0  0  0  0
  -23.0689   -9.6787   21.6014 C   0  0  0  0  0  0  0  0  0  0  0  0
  -24.8155   -8.0362   21.8993 C   0  0  0  0  0  0  0  0  0  0  0  0
  -26.1240  -37.6732   17.8281 C   0  0  0  0  0  0  0  0  0  0  0  0
  -26.8482  -34.9895   17.6891 C   0  0  0  0  0  0  0  0  0  0  0  0
  -25.6604  -29.0829   18.7880 C   0  0  0  0  0  0  0  0  0  0  0  0
  -22.1703   -8.6637   21.2730 C   0  0  0  0  0  0  0  0  0  0  0  0
  -23.9168   -7.0211   21.5710 C   0  0  0  0  0  0  0  0  0  0  0  0
  -26.4552  -27.9391   18.7262 C   0  0  0  0  0  0  0  0  0  0  0  0
  -21.4311   -5.3093   23.0913 C   0  0  0  0  0  0  0  0  0  0  0  0
  -21.4274   -4.1658   23.8899 C   0  0  0  0  0  0  0  0  0  0  0  0
  -30.1980  -24.6226   18.8449 C   0  0  0  0  0  0  0  0  0  0  0  0
  -26.8723  -28.1083   21.0962 C   0  0  0  0  0  0  0  0  0  0  0  0
  -21.9888   -2.8191   21.9642 C   0  0  0  0  0  0  0  0  0  0  0  0
  -30.9016  -23.4410   18.9599 C   0  0  0  0  0  0  0  0  0  0  0  0
  -24.3915   -9.3650   21.9145 C   0  0  0  0  0  0  0  0  0  0  0  0
  -25.5883  -10.9301   23.5350 C   0  0  0  0  0  0  0  0  0  0  0  0
  -26.3916  -36.9706   19.0136 C   0  0  0  0  0  0  0  0  0  0  0  0
  -25.4742  -29.7554   20.0043 C   0  0  0  0  0  0  0  0  0  0  0  0
  -26.7682  -35.6157   18.9446 C   0  0  0  0  0  0  0  0  0  0  0  0
  -26.0727  -29.2590   21.1712 C   0  0  0  0  0  0  0  0  0  0  0  0
  -22.5943   -7.3349   21.2578 C   0  0  0  0  0  0  0  0  0  0  0  0
  -27.0636  -27.4533   19.8799 C   0  0  0  0  0  0  0  0  0  0  0  0
  -21.7136   -5.2078   21.7291 C   0  0  0  0  0  0  0  0  0  0  0  0
  -21.7063   -2.9206   23.3264 C   0  0  0  0  0  0  0  0  0  0  0  0
  -21.9925   -3.9627   21.1655 C   0  0  0  0  0  0  0  0  0  0  0  0
  -25.3204  -10.4131   22.2533 C   0  0  0  0  0  0  0  0  0  0  0  0
  -28.8340  -24.4918   18.6814 C   0  0  0  0  0  0  0  0  0  0  0  0
  -26.5376  -11.8997   23.3226 C   0  0  0  0  0  0  0  0  0  0  0  0
  -28.9916  -22.2254   18.7565 C   0  0  0  0  0  0  0  0  0  0  0  0
  -25.0291  -10.5663   24.8041 C   0  0  0  0  0  0  0  0  0  0  0  0
  -26.1524  -32.6670   21.0844 C   0  0  0  0  0  0  0  0  0  0  0  0
  -24.4841  -31.6685   23.6810 C   0  0  0  0  0  0  0  0  0  0  0  0
  -23.3558  -29.0621   25.5732 C   0  0  0  0  0  0  0  0  0  0  0  0
  -28.5584  -16.1122   20.6812 C   0  0  0  0  0  0  0  0  0  0  0  0
  -26.3327  -37.7117   20.3258 C   0  0  0  0  0  0  0  0  0  0  0  0
  -24.5923  -30.9727   20.0592 C   0  0  0  0  0  0  0  0  0  0  0  0
  -25.8878  -29.9326   22.5055 C   0  0  0  0  0  0  0  0  0  0  0  0
  -26.2787  -36.7920   21.5429 C   0  0  0  0  0  0  0  0  0  0  0  0
  -29.2776  -12.9998   19.2236 C   0  0  0  0  0  0  0  0  0  0  0  0
  -27.3204  -35.6843   21.4217 C   0  0  0  0  0  0  0  0  0  0  0  0
  -28.3268  -12.0796   19.9887 C   0  0  0  0  0  0  0  0  0  0  0  0
  -28.2300  -18.6107   18.2239 C   0  0  0  0  0  0  0  0  0  0  0  0
  -29.3985  -19.4516   20.2964 C   0  0  0  0  0  0  0  0  0  0  0  0
  -28.6226  -14.3372   18.8734 C   0  0  0  0  0  0  0  0  0  0  0  0
  -28.8808  -17.2403   18.4339 C   0  0  0  0  0  0  0  0  0  0  0  0
  -30.0460  -18.0780   20.4488 C   0  0  0  0  0  0  0  0  0  0  0  0
  -27.0886  -14.1222   20.8019 C   0  0  0  0  0  0  0  0  0  0  0  0
  -27.0532  -34.8078   20.1921 C   0  0  1  0  0  0  0  0  0  0  0  0
  -24.8889  -31.8720   21.2552 C   0  0  1  0  0  0  0  0  0  0  0  0
  -27.7377  -12.7933   21.2185 C   0  0  1  0  0  0  0  0  0  0  0  0
  -29.0772  -19.7338   18.8264 C   0  0  0  0  0  0  0  0  0  0  0  0
  -22.0502  -28.5606   27.6567 C   0  0  0  0  0  0  0  0  0  0  0  0
  -26.8915  -32.4646   25.3782 C   0  0  0  0  0  0  0  0  0  0  0  0
  -25.9380  -31.0980   27.2468 C   0  0  0  0  0  0  0  0  0  0  0  0
  -24.6738  -33.0610   26.3686 C   0  0  0  0  0  0  0  0  0  0  0  0
  -21.2928  -27.5731   24.0613 C   0  0  0  0  0  0  0  0  0  0  0  0
  -27.9893  -25.7141   18.5479 C   0  0  0  0  0  0  0  0  0  1  0  0
  -24.8324  -30.9617   24.9686 C   0  0  1  0  0  0  0  0  0  0  0  0
  -21.9855  -28.7550   26.1498 C   0  0  2  0  0  0  0  0  0  0  0  0
  -25.5892  -31.8845   25.9652 C   0  0  0  0  0  0  0  0  0  0  0  0
  -30.3283  -22.2204   18.9199 N   0  0  0  0  0  0  0  0  0  0  0  0
  -26.0411  -11.0054   21.2974 N   0  0  0  0  0  0  0  0  0  0  0  0
  -28.1954  -23.3043   18.6324 N   0  0  0  0  0  0  0  0  0  0  0  0
  -26.7712  -11.9046   21.9788 N   0  0  0  0  0  0  0  0  0  0  0  0
  -25.0215  -31.1230   22.5065 N   0  0  0  0  0  0  0  0  0  0  0  0
  -28.0404  -14.9606   20.0700 N   0  0  0  0  0  0  0  0  0  0  0  0
  -29.2136  -17.0337   19.8507 N   0  0  0  0  0  0  0  0  0  0  0  0
  -27.1868  -12.7402   24.1560 N   0  0  0  0  0  0  0  0  0  0  0  0
  -24.0652   -9.5495   24.8428 N   0  0  0  0  0  0  0  0  0  0  0  0
  -28.3699  -20.9901   18.7109 N   0  0  0  0  0  0  0  0  0  0  0  0
  -25.9708  -33.8840   20.4556 N   0  0  0  0  0  0  0  0  0  0  0  0
  -23.5815  -30.4197   25.4881 N   0  0  0  0  0  0  0  0  0  0  0  0
  -21.4330  -27.5130   25.5390 N   0  3  0  0  0  0  0  0  0  0  0  0
  -25.3619  -11.1376   25.8701 O   0  0  0  0  0  0  0  0  0  0  0  0
  -27.2134  -32.2107   21.4943 O   0  0  0  0  0  0  0  0  0  0  0  0
  -23.7559  -32.6636   23.7152 O   0  0  0  0  0  0  0  0  0  0  0  0
  -24.1482  -28.1854   25.2357 O   0  0  0  0  0  0  0  0  0  0  0  0
  -28.4423  -16.3062   21.8978 O   0  0  0  0  0  0  0  0  0  0  0  0
  -21.7176   -6.3442   20.9377 O   0  0  0  0  0  0  0  0  0  0  0  0
  -27.8457  -26.3296   19.8219 O   0  0  0  0  0  0  0  0  0  1  0  0
  -21.7043   -1.8228   24.0937 F   0  0  0  0  0  0  0  0  0  0  0  0
  -22.2658   -3.8590   19.8577 F   0  0  0  0  0  0  0  0  0  0  0  0
  1  2  1  0  0  0  0
  1  5  2  0  0  0  0
  2  6  2  0  0  0  0
  3  8  2  0  0  0  0
  3 17  1  0  0  0  0
  4  9  1  0  0  0  0
  4 17  2  0  0  0  0
  5 19  1  0  0  0  0
  6 21  1  0  0  0  0
  7 10  2  0  0  0  0
  7 20  1  0  0  0  0
  8 23  1  0  0  0  0
  9 23  2  0  0  0  0
 10 24  1  0  0  0  0
 11 12  2  0  0  0  0
 11 25  1  0  0  0  0
 12 26  1  0  0  0  0
 13 16  2  0  0  0  0
 13 29  1  0  0  0  0
 14 22  1  0  0  0  0
 14 24  2  0  0  0  0
 15 26  2  0  0  0  0
 15 27  1  0  0  0  0
 16 63  1  0  0  0  0
 17 28  1  0  0  0  0
 18 28  1  0  0  0  0
 18 30  2  0  0  0  0
 18 32  1  0  0  0  0
 19 21  2  0  0  0  0
 19 37  1  0  0  0  0
 20 22  2  0  0  0  0
 20 38  1  0  0  0  0
 21 50  1  0  0  0  0
 22 39  1  0  0  0  0
 23 81  1  0  0  0  0
 24 82  1  0  0  0  0
 25 27  2  0  0  0  0
 25 81  1  0  0  0  0
 26 83  1  0  0  0  0
 27 84  1  0  0  0  0
 28 64  2  0  0  0  0
 29 59  1  0  0  0  0
 29 65  2  0  0  0  0
 30 66  1  0  0  0  0
 30 70  1  0  0  0  0
 31 63  2  0  0  0  0
 31 65  1  0  0  0  0
 31 72  1  0  0  0  0
 32 71  1  0  0  0  0
 32 76  2  0  0  0  0
 33 51  1  0  0  0  0
 33 73  1  0  0  0  0
 33 77  2  0  0  0  0
 34 60  1  0  0  0  0
 34 67  1  0  0  0  0
 34 78  2  0  0  0  0
 35 61  1  0  0  0  0
 35 74  1  0  0  0  0
 35 79  2  0  0  0  0
 36 68  1  0  0  0  0
 36 69  1  0  0  0  0
 36 80  2  0  0  0  0
 37 40  1  0  0  0  0
 38 51  1  0  0  0  0
 39 67  1  0  0  0  0
 40 42  1  0  0  0  0
 41 43  1  0  0  0  0
 41 46  1  0  0  0  0
 42 50  1  0  0  0  0
 43 52  1  0  0  0  0
 44 47  1  0  0  0  0
 44 53  1  0  0  0  0
 45 48  1  0  0  0  0
 45 53  1  0  0  0  0
 46 68  1  0  0  0  0
 47 69  1  0  0  0  0
 48 69  1  0  0  0  0
 49 52  1  0  0  0  0
 49 68  1  0  0  0  0
 50 73  1  0  0  0  0
 51 67  1  0  0  0  0
 52 66  1  0  0  0  0
 53 72  1  0  0  0  0
 54 61  1  0  0  0  0
 55 62  1  0  0  0  0
 56 62  1  0  0  0  0
 57 62  1  0  0  0  0
 58 75  1  0  0  0  0
 59 82  1  0  0  0  0
 60 62  1  0  0  0  0
 60 74  1  0  0  0  0
 61 75  1  0  0  0  0
 64 66  1  0  0  0  0
M  CHG  1  75   1
M  ISO  4  36 100  59 101  69 100  82 101
M  END
> <Batch ID>
0192

> <Smiles>
CNC(C)C(=O)NC(C(=O)N1Cc2cc([101O:1][101CH2:1]c3ccnc(NC4CC[100N:0]([100C:0](=O)N5CCCC(n6nc(-c7ccc(Oc8ccc(F)cc8F)cc7)c(C(N)=O)c6N)C5)CC4)n3)ccc2CC1C(=O)NC1CCCc2ccccc21)C(C)(C)C

> <Shape>
0.290

> <Color>
0.097

> <Negative vol penalty>
0.000

$$$$

  -OEChem-04052323293D

 83 92  0     1  0  0  0  0  0999 V2000
  -17.9357  -24.3327   23.9068 C   0  0  0  0  0  0  0  0  0  0  0  0
  -19.2522  -23.9401   23.6873 C   0  0  0  0  0  0  0  0  0  0  0  0
  -22.5440  -10.5899   20.9072 C   0  0  0  0  0  0  0  0  0  0  0  0
  -24.4856   -9.2833   21.5074 C   0  0  0  0  0  0  0  0  0  0  0  0
  -17.5239  -25.6166   23.5519 C   0  0  0  0  0  0  0  0  0  0  0  0
  -20.1575  -24.8310   23.1118 C   0  0  0  0  0  0  0  0  0  0  0  0
  -26.1388  -25.3071   24.3376 C   0  0  0  0  0  0  0  0  0  0  0  0
  -21.7479   -9.4481   20.9970 C   0  0  0  0  0  0  0  0  0  0  0  0
  -23.6894   -8.1415   21.5972 C   0  0  0  0  0  0  0  0  0  0  0  0
  -27.2711  -24.8140   23.6907 C   0  0  0  0  0  0  0  0  0  0  0  0
  -21.5327   -6.7789   23.8137 C   0  0  0  0  0  0  0  0  0  0  0  0
  -21.7181   -5.9467   24.9176 C   0  0  0  0  0  0  0  0  0  0  0  0
  -27.5244  -26.9199   22.5416 C   0  0  0  0  0  0  0  0  0  0  0  0
  -22.2934   -4.1204   23.4441 C   0  0  0  0  0  0  0  0  0  0  0  0
  -23.9129  -10.5075   21.1623 C   0  0  0  0  0  0  0  0  0  0  0  0
  -25.0326  -12.5997   22.0986 C   0  0  0  0  0  0  0  0  0  0  0  0
  -18.4271  -26.5269   22.9807 C   0  0  0  0  0  0  0  0  0  0  0  0
  -25.6838  -26.6089   24.0828 C   0  0  0  0  0  0  0  0  0  0  0  0
  -19.7571  -26.1279   22.7478 C   0  0  0  0  0  0  0  0  0  0  0  0
  -26.3876  -27.4281   23.1886 C   0  0  0  0  0  0  0  0  0  0  0  0
  -22.3205   -8.2239   21.3421 C   0  0  0  0  0  0  0  0  0  0  0  0
  -27.9623  -25.6193   22.7903 C   0  0  0  0  0  0  0  0  0  0  0  0
  -21.7276   -6.2819   22.5250 C   0  0  0  0  0  0  0  0  0  0  0  0
  -22.0985   -4.6174   24.7328 C   0  0  0  0  0  0  0  0  0  0  0  0
  -22.1080   -4.9527   22.3402 C   0  0  0  0  0  0  0  0  0  0  0  0
  -24.7360  -11.6864   21.0691 C   0  0  0  0  0  0  0  0  0  0  0  0
  -25.8458  -13.5339   21.5051 C   0  0  0  0  0  0  0  0  0  0  0  0
  -24.6108  -12.6031   23.4689 C   0  0  0  0  0  0  0  0  0  0  0  0
  -23.0187  -27.8589   22.8835 C   0  0  0  0  0  0  0  0  0  0  0  0
  -24.4172  -30.6618   23.7262 C   0  0  0  0  0  0  0  0  0  0  0  0
  -27.2881  -32.3801   24.3989 C   0  0  0  0  0  0  0  0  0  0  0  0
  -26.7889  -16.9549   17.2908 C   0  0  0  0  0  0  0  0  0  0  0  0
  -17.9237  -27.8881   22.5701 C   0  0  0  0  0  0  0  0  0  0  0  0
  -24.4763  -27.1352   24.8090 C   0  0  0  0  0  0  0  0  0  0  0  0
  -25.9520  -28.8397   22.8955 C   0  0  0  0  0  0  0  0  0  0  0  0
  -19.0394  -28.8970   22.3098 C   0  0  0  0  0  0  0  0  0  0  0  0
  -28.1538  -13.5375   17.0239 C   0  0  0  0  0  0  0  0  0  0  0  0
  -20.1308  -28.2746   21.4449 C   0  0  0  0  0  0  0  0  0  0  0  0
  -27.3610  -12.8192   18.1118 C   0  0  0  0  0  0  0  0  0  0  0  0
  -29.2398  -20.9307   19.5450 C   0  0  0  0  0  0  0  0  0  0  0  0
  -27.2283  -22.3519   18.9651 C   0  0  0  0  0  0  0  0  0  0  0  0
  -28.7268  -19.5108   15.2193 C   0  0  0  0  0  0  0  0  0  0  0  0
  -27.3328  -14.6326   16.3442 C   0  0  0  0  0  0  0  0  0  0  0  0
  -25.9568  -14.8993   18.3887 C   0  0  0  0  0  0  0  0  0  0  0  0
  -30.1115  -22.1812   19.5428 C   0  0  0  0  0  0  0  0  0  0  0  0
  -28.1159  -23.5912   18.9677 C   0  0  0  0  0  0  0  0  0  0  0  0
  -20.7749  -27.0740   22.1485 C   0  0  1  0  0  0  0  0  0  0  0  0
  -23.8045  -28.2987   24.0863 C   0  0  1  0  0  0  0  0  0  0  0  0
  -26.7823  -13.8272   19.1165 C   0  0  1  0  0  0  0  0  0  0  0  0
  -27.6039  -18.9289   16.0373 C   0  0  2  0  0  0  0  0  0  0  0  0
  -27.9945  -21.0636   18.6704 C   0  0  0  0  0  0  0  0  0  0  0  0
  -28.7135  -19.6946   16.7089 C   0  0  2  0  0  0  0  0  0  0  0  0
  -28.1159  -34.6659   25.0211 C   0  0  0  0  0  0  0  0  0  0  0  0
  -23.9784  -31.5994   20.8559 C   0  0  0  0  0  0  0  0  0  0  0  0
  -25.6282  -33.4349   21.2771 C   0  0  0  0  0  0  0  0  0  0  0  0
  -23.5165  -33.3303   22.6009 C   0  0  0  0  0  0  0  0  0  0  0  0
  -28.4485  -31.3957   26.9373 C   0  0  0  0  0  0  0  0  0  0  0  0
  -30.1098  -24.6216   20.0529 C   0  0  0  0  0  0  0  0  0  0  0  0
  -29.3446  -25.6553   20.8554 C   0  0  0  0  0  0  0  0  0  1  0  0
  -25.3439  -31.6409   23.0468 C   0  0  1  0  0  0  0  0  0  0  0  0
  -27.6617  -33.3100   25.5390 C   0  0  2  0  0  0  0  0  0  0  0  0
  -24.6241  -32.4742   21.9490 C   0  0  0  0  0  0  0  0  0  0  0  0
  -25.3136  -12.0112   19.9095 N   0  0  0  0  0  0  0  0  0  0  0  0
  -25.9813  -13.1391   20.2066 N   0  0  0  0  0  0  0  0  0  0  0  0
  -24.7618  -29.3064   23.6258 N   0  0  0  0  0  0  0  0  0  0  0  0
  -26.7350  -15.5498   17.3273 N   0  0  0  0  0  0  0  0  0  0  0  0
  -26.4510  -14.6465   21.9723 N   0  0  0  0  0  0  0  0  0  0  0  0
  -23.7762  -11.5687   23.9137 N   0  0  0  0  0  0  0  0  0  0  0  0
  -21.7075  -27.5219   23.1605 N   0  0  0  0  0  0  0  0  0  0  0  0
  -25.9414  -32.4422   24.1095 N   0  0  0  0  0  0  0  0  0  0  0  0
  -27.4709  -17.5072   16.2125 N   0  0  0  0  0  0  0  0  0  0  0  0
  -29.2721  -23.3799   19.9157 N   0  3  0  0  0  0  0  0  0  0  0  0
  -28.3967  -21.0471   17.2345 N   0  3  0  0  0  0  0  0  0  0  0  0
  -28.7670  -32.7212   26.3468 N   0  3  0  0  0  0  0  0  0  0  0  0
  -24.9501  -13.5060   24.2709 O   0  0  0  0  0  0  0  0  0  0  0  0
  -23.5613  -27.8290   21.7852 O   0  0  0  0  0  0  0  0  0  0  0  0
  -23.4281  -31.0845   24.3299 O   0  0  0  0  0  0  0  0  0  0  0  0
  -28.1094  -31.6722   23.8202 O   0  0  0  0  0  0  0  0  0  0  0  0
  -26.2629  -17.6680   18.1526 O   0  0  0  0  0  0  0  0  0  0  0  0
  -21.5439   -7.1096   21.4301 O   0  0  0  0  0  0  0  0  0  0  0  0
  -29.0674  -25.1402   22.1570 O   0  0  0  0  0  0  0  0  0  1  0  0
  -22.2780   -3.8188   25.7930 F   0  0  0  0  0  0  0  0  0  0  0  0
  -22.2978   -4.4698   21.1046 F   0  0  0  0  0  0  0  0  0  0  0  0
  1  2  1  0  0  0  0
  1  5  2  0  0  0  0
  2  6  2  0  0  0  0
  3  8  2  0  0  0  0
  3 15  1  0  0  0  0
  4  9  1  0  0  0  0
  4 15  2  0  0  0  0
  5 17  1  0  0  0  0
  6 19  1  0  0  0  0
  7 10  2  0  0  0  0
  7 18  1  0  0  0  0
  8 21  1  0  0  0  0
  9 21  2  0  0  0  0
 10 22  1  0  0  0  0
 11 12  2  0  0  0  0
 11 23  1  0  0  0  0
 12 24  1  0  0  0  0
 13 20  1  0  0  0  0
 13 22  2  0  0  0  0
 14 24  2  0  0  0  0
 14 25  1  0  0  0  0
 15 26  1  0  0  0  0
 16 26  1  0  0  0  0
 16 27  2  0  0  0  0
 16 28  1  0  0  0  0
 17 19  2  0  0  0  0
 17 33  1  0  0  0  0
 18 20  2  0  0  0  0
 18 34  1  0  0  0  0
 19 47  1  0  0  0  0
 20 35  1  0  0  0  0
 21 80  1  0  0  0  0
 22 81  1  0  0  0  0
 23 25  2  0  0  0  0
 23 80  1  0  0  0  0
 24 82  1  0  0  0  0
 25 83  1  0  0  0  0
 26 63  2  0  0  0  0
 27 64  1  0  0  0  0
 27 67  1  0  0  0  0
 28 68  1  0  0  0  0
 28 75  2  0  0  0  0
 29 48  1  0  0  0  0
 29 69  1  0  0  0  0
 29 76  2  0  0  0  0
 30 60  1  0  0  0  0
 30 65  1  0  0  0  0
 30 77  2  0  0  0  0
 31 61  1  0  0  0  0
 31 70  1  0  0  0  0
 31 78  2  0  0  0  0
 32 66  1  0  0  0  0
 32 71  1  0  0  0  0
 32 79  2  0  0  0  0
 33 36  1  0  0  0  0
 34 48  1  0  0  0  0
 35 65  1  0  0  0  0
 36 38  1  0  0  0  0
 37 39  1  0  0  0  0
 37 43  1  0  0  0  0
 38 47  1  0  0  0  0
 39 49  1  0  0  0  0
 40 45  1  0  0  0  0
 40 51  1  0  0  0  0
 41 46  1  0  0  0  0
 41 51  1  0  0  0  0
 42 50  1  0  0  0  0
 42 52  1  0  0  0  0
 43 66  1  0  0  0  0
 44 49  1  0  0  0  0
 44 66  1  0  0  0  0
 45 72  1  0  0  0  0
 46 72  1  0  0  0  0
 47 69  1  0  0  0  0
 48 65  1  0  0  0  0
 49 64  1  0  0  0  0
 50 52  1  0  0  0  0
 50 71  1  0  0  0  0
 51 73  1  0  0  0  0
 52 73  1  0  0  0  0
 53 61  1  0  0  0  0
 54 62  1  0  0  0  0
 55 62  1  0  0  0  0
 56 62  1  0  0  0  0
 57 74  1  0  0  0  0
 58 59  1  0  0  0  0
 58 72  1  0  0  0  0
 59 81  1  0  0  0  0
 60 62  1  0  0  0  0
 60 70  1  0  0  0  0
 61 74  1  0  0  0  0
 63 64  1  0  0  0  0
M  CHG  3  72   1  73   1  74   1
M  ISO  4  32 100  59 101  71 100  81 101
M  END
> <Batch ID>
0192

> <Smiles>
CNC(C)C(=O)NC(C(=O)N1Cc2cc([101O:1][101CH2:1]CN3CCC(NC4CC4[100NH:0][100C:0](=O)N4CCCC(n5nc(-c6ccc(Oc7ccc(F)cc7F)cc6)c(C(N)=O)c5N)C4)CC3)ccc2CC1C(=O)NC1CCCc2ccccc21)C(C)(C)C

> <Shape>
0.275

> <Color>
0.104

> <Negative vol penalty>
0.000

$$$$

  -OEChem-04052323293D

 79 87  0     1  0  0  0  0  0999 V2000
  -29.0930  -11.5607   19.4506 C   0  0  0  0  0  0  0  0  0  0  0  0
  -29.1270  -12.9337   19.2289 C   0  0  0  0  0  0  0  0  0  0  0  0
  -24.0385  -26.1984   21.7995 C   0  0  0  0  0  0  0  0  0  0  0  0
  -23.1419  -28.3742   21.2525 C   0  0  0  0  0  0  0  0  0  0  0  0
  -27.9020  -10.9475   19.8371 C   0  0  0  0  0  0  0  0  0  0  0  0
  -27.9697  -13.6941   19.3923 C   0  0  0  0  0  0  0  0  0  0  0  0
  -28.8096  -17.9863   21.9450 C   0  0  0  0  0  0  0  0  0  0  0  0
  -22.9149  -25.9321   22.5819 C   0  0  0  0  0  0  0  0  0  0  0  0
  -22.0183  -28.1079   22.0349 C   0  0  0  0  0  0  0  0  0  0  0  0
  -29.3942  -19.0401   21.2439 C   0  0  0  0  0  0  0  0  0  0  0  0
  -18.7454  -27.8591   23.5983 C   0  0  0  0  0  0  0  0  0  0  0  0
  -17.4952  -28.1815   23.0702 C   0  0  0  0  0  0  0  0  0  0  0  0
  -27.2238  -20.0585   20.9766 C   0  0  0  0  0  0  0  0  0  0  0  0
  -17.8895  -26.6792   21.2196 C   0  0  0  0  0  0  0  0  0  0  0  0
  -24.1520  -27.4195   21.1348 C   0  0  0  0  0  0  0  0  0  0  0  0
  -25.4796  -27.4198   18.9564 C   0  0  0  0  0  0  0  0  0  0  0  0
  -26.7318  -11.7022   20.0147 C   0  0  0  0  0  0  0  0  0  0  0  0
  -27.4239  -17.9552   22.1581 C   0  0  0  0  0  0  0  0  0  0  0  0
  -26.7615  -13.0901   19.7802 C   0  0  0  0  0  0  0  0  0  0  0  0
  -26.6243  -19.0045   21.6830 C   0  0  0  0  0  0  0  0  0  0  0  0
  -21.9048  -26.8868   22.6996 C   0  0  0  0  0  0  0  0  0  0  0  0
  -28.6009  -20.0749   20.7571 C   0  0  0  0  0  0  0  0  0  0  0  0
  -19.5676  -26.9469   22.9369 C   0  0  0  0  0  0  0  0  0  0  0  0
  -17.0673  -27.5915   21.8809 C   0  0  0  0  0  0  0  0  0  0  0  0
  -19.1397  -26.3569   21.7476 C   0  0  0  0  0  0  0  0  0  0  0  0
  -25.3127  -27.6954   20.3268 C   0  0  0  0  0  0  0  0  0  0  0  0
  -26.7448  -27.8694   18.6673 C   0  0  0  0  0  0  0  0  0  0  0  0
  -24.5720  -26.8119   18.0277 C   0  0  0  0  0  0  0  0  0  0  0  0
  -25.0691  -15.9916   21.3197 C   0  0  0  0  0  0  0  0  0  0  0  0
  -23.3016  -17.9211   23.2368 C   0  0  0  0  0  0  0  0  0  0  0  0
  -22.9102  -20.9793   24.7001 C   0  0  0  0  0  0  0  0  0  0  0  0
  -32.1480  -28.2901   19.9785 C   0  0  0  0  0  0  0  0  0  0  0  0
  -25.4568  -10.9878   20.3874 C   0  0  0  0  0  0  0  0  0  0  0  0
  -26.8121  -16.8249   22.9395 C   0  0  0  0  0  0  0  0  0  0  0  0
  -25.1345  -19.0284   21.9026 C   0  0  0  0  0  0  0  0  0  0  0  0
  -24.3640  -11.9209   20.9024 C   0  0  0  0  0  0  0  0  0  0  0  0
  -29.9476  -30.6894   21.3492 C   0  0  0  0  0  0  0  0  0  0  0  0
  -24.2324  -13.1405   19.9956 C   0  0  0  0  0  0  0  0  0  0  0  0
  -28.5588  -30.0961   21.1289 C   0  0  0  0  0  0  0  0  0  0  0  0
  -33.0224  -25.6535   17.5327 C   0  0  0  0  0  0  0  0  0  0  0  0
  -30.9522  -29.5993   21.6976 C   0  0  0  0  0  0  0  0  0  0  0  0
  -33.3638  -26.9065   18.3239 C   0  0  0  0  0  0  0  0  0  0  0  0
  -31.1668  -26.1598   18.9365 C   0  0  0  0  0  0  0  0  0  0  0  0
  -29.6681  -27.9209   20.4000 C   0  0  0  0  0  0  0  0  0  0  0  0
  -25.5328  -13.9526   19.9712 C   0  0  1  0  0  0  0  0  0  0  0  0
  -25.3256  -16.6360   22.6526 C   0  0  1  0  0  0  0  0  0  0  0  0
  -31.9770  -24.9723   18.4168 C   0  0  1  0  0  0  0  0  0  0  0  0
  -28.6058  -28.9883   20.0651 C   0  0  1  0  0  0  0  0  0  0  0  0
  -21.3479  -22.2690   26.1811 C   0  0  0  0  0  0  0  0  0  0  0  0
  -21.3805  -18.2800   20.8936 C   0  0  0  0  0  0  0  0  0  0  0  0
  -20.4133  -20.2610   22.0803 C   0  0  0  0  0  0  0  0  0  0  0  0
  -20.2721  -17.9967   23.1174 C   0  0  0  0  0  0  0  0  0  0  0  0
  -24.9927  -21.3501   26.7700 C   0  0  0  0  0  0  0  0  0  0  0  0
  -31.1377  -23.9492   17.6726 C   0  0  0  0  0  0  0  0  0  0  0  0
  -29.2630  -22.3319   18.0020 C   0  0  0  0  0  0  0  0  0  0  0  0
  -28.3714  -21.7423   19.0769 C   0  0  0  0  0  0  0  0  0  1  0  0
  -22.5018  -19.1856   23.0357 C   0  0  1  0  0  0  0  0  0  0  0  0
  -22.5794  -21.3783   26.1269 C   0  0  2  0  0  0  0  0  0  0  0  0
  -21.1697  -18.9297   22.2758 C   0  0  0  0  0  0  0  0  0  0  0  0
  -26.3862  -28.2750   20.8706 N   0  0  0  0  0  0  0  0  0  0  0  0
  -27.2397  -28.3672   19.8367 N   0  0  0  0  0  0  0  0  0  0  0  0
  -24.5825  -17.8976   22.6670 N   0  0  0  0  0  0  0  0  0  0  0  0
  -30.9699  -28.5347   20.6926 N   0  0  0  0  0  0  0  0  0  0  0  0
  -32.1494  -27.2393   19.0620 N   0  0  0  0  0  0  0  0  0  0  0  0
  -27.4711  -27.8835   17.5295 N   0  0  0  0  0  0  0  0  0  0  0  0
  -23.3123  -26.4086   18.4913 N   0  0  0  0  0  0  0  0  0  0  0  0
  -25.6545  -14.7484   21.1739 N   0  0  0  0  0  0  0  0  0  0  0  0
  -22.3310  -19.7754   24.3591 N   0  0  0  0  0  0  0  0  0  0  0  0
  -23.7211  -22.1174   26.7361 N   0  3  0  0  0  0  0  0  0  0  0  0
  -30.1902  -23.3208   18.6201 N   0  3  0  0  0  0  0  0  0  0  0  0
  -24.8754  -26.6168   16.8263 O   0  0  0  0  0  0  0  0  0  0  0  0
  -24.3891  -16.5781   20.4859 O   0  0  0  0  0  0  0  0  0  0  0  0
  -22.8109  -16.9913   23.8820 O   0  0  0  0  0  0  0  0  0  0  0  0
  -23.6093  -21.6686   23.9607 O   0  0  0  0  0  0  0  0  0  0  0  0
  -33.1724  -28.9560   20.1809 O   0  0  0  0  0  0  0  0  0  0  0  0
  -20.8082  -26.6272   23.4629 O   0  0  0  0  0  0  0  0  0  0  0  0
  -29.1730  -21.1117   20.0670 O   0  0  0  0  0  0  0  0  0  1  0  0
  -15.8661  -27.9000   21.3747 F   0  0  0  0  0  0  0  0  0  0  0  0
  -19.9248  -25.4788   21.1084 F   0  0  0  0  0  0  0  0  0  0  0  0
  1  2  1  0  0  0  0
  1  5  2  0  0  0  0
  2  6  2  0  0  0  0
  3  8  2  0  0  0  0
  3 15  1  0  0  0  0
  4  9  1  0  0  0  0
  4 15  2  0  0  0  0
  5 17  1  0  0  0  0
  6 19  1  0  0  0  0
  7 10  2  0  0  0  0
  7 18  1  0  0  0  0
  8 21  1  0  0  0  0
  9 21  2  0  0  0  0
 10 22  1  0  0  0  0
 11 12  2  0  0  0  0
 11 23  1  0  0  0  0
 12 24  1  0  0  0  0
 13 20  1  0  0  0  0
 13 22  2  0  0  0  0
 14 24  2  0  0  0  0
 14 25  1  0  0  0  0
 15 26  1  0  0  0  0
 16 26  1  0  0  0  0
 16 27  2  0  0  0  0
 16 28  1  0  0  0  0
 17 19  2  0  0  0  0
 17 33  1  0  0  0  0
 18 20  2  0  0  0  0
 18 34  1  0  0  0  0
 19 45  1  0  0  0  0
 20 35  1  0  0  0  0
 21 76  1  0  0  0  0
 22 77  1  0  0  0  0
 23 25  2  0  0  0  0
 23 76  1  0  0  0  0
 24 78  1  0  0  0  0
 25 79  1  0  0  0  0
 26 60  2  0  0  0  0
 27 61  1  0  0  0  0
 27 65  1  0  0  0  0
 28 66  1  0  0  0  0
 28 71  2  0  0  0  0
 29 46  1  0  0  0  0
 29 67  1  0  0  0  0
 29 72  2  0  0  0  0
 30 57  1  0  0  0  0
 30 62  1  0  0  0  0
 30 73  2  0  0  0  0
 31 58  1  0  0  0  0
 31 68  1  0  0  0  0
 31 74  2  0  0  0  0
 32 63  1  0  0  0  0
 32 64  1  0  0  0  0
 32 75  2  0  0  0  0
 33 36  1  0  0  0  0
 34 46  1  0  0  0  0
 35 62  1  0  0  0  0
 36 38  1  0  0  0  0
 37 39  1  0  0  0  0
 37 41  1  0  0  0  0
 38 45  1  0  0  0  0
 39 48  1  0  0  0  0
 40 42  1  0  0  0  0
 40 47  1  0  0  0  0
 41 63  1  0  0  0  0
 42 64  1  0  0  0  0
 43 47  1  0  0  0  0
 43 64  1  0  0  0  0
 44 48  1  0  0  0  0
 44 63  1  0  0  0  0
 45 67  1  0  0  0  0
 46 62  1  0  0  0  0
 47 54  1  0  0  0  0
 48 61  1  0  0  0  0
 49 58  1  0  0  0  0
 50 59  1  0  0  0  0
 51 59  1  0  0  0  0
 52 59  1  0  0  0  0
 53 69  1  0  0  0  0
 54 70  1  0  0  0  0
 55 56  1  0  0  0  0
 55 70  1  0  0  0  0
 56 77  1  0  0  0  0
 57 59  1  0  0  0  0
 57 68  1  0  0  0  0
 58 69  1  0  0  0  0
 60 61  1  0  0  0  0
M  CHG  2  69   1  70   1
M  ISO  4  32 100  56 101  64 100  77 101
M  END
> <Batch ID>
0192

> <Smiles>
CNC(C)C(=O)NC(C(=O)N1Cc2cc([101O:1][101CH2:1]CNCC3CC[100N:0]([100C:0](=O)N4CCCC(n5nc(-c6ccc(Oc7ccc(F)cc7F)cc6)c(C(N)=O)c5N)C4)C3)ccc2CC1C(=O)NC1CCCc2ccccc21)C(C)(C)C

> <Shape>
0.230

> <Color>
0.059

> <Negative vol penalty>
0.000

$$$$

  -OEChem-04052323293D

 81 90  0     1  0  0  0  0  0999 V2000
  -27.3763  -33.7190   26.6460 C   0  0  0  0  0  0  0  0  0  0  0  0
  -27.6497  -32.5570   25.9315 C   0  0  0  0  0  0  0  0  0  0  0  0
  -26.4689  -12.0586   21.6130 C   0  0  0  0  0  0  0  0  0  0  0  0
  -25.7994  -13.4246   19.7361 C   0  0  0  0  0  0  0  0  0  0  0  0
  -26.0556  -34.0774   26.9127 C   0  0  0  0  0  0  0  0  0  0  0  0
  -26.6025  -31.7522   25.4842 C   0  0  0  0  0  0  0  0  0  0  0  0
  -27.2269  -30.2363   20.6929 C   0  0  0  0  0  0  0  0  0  0  0  0
  -25.1909  -11.5022   21.6640 C   0  0  0  0  0  0  0  0  0  0  0  0
  -24.5214  -12.8682   19.7870 C   0  0  0  0  0  0  0  0  0  0  0  0
  -28.1187  -29.1886   20.4676 C   0  0  0  0  0  0  0  0  0  0  0  0
  -21.7142  -13.2398   21.6344 C   0  0  0  0  0  0  0  0  0  0  0  0
  -20.6257  -14.1058   21.5302 C   0  0  0  0  0  0  0  0  0  0  0  0
  -26.2659  -27.6505   20.3234 C   0  0  0  0  0  0  0  0  0  0  0  0
  -19.8872  -12.9392   19.5476 C   0  0  0  0  0  0  0  0  0  0  0  0
  -31.3079  -25.5303   18.6130 C   0  0  0  0  0  0  0  0  0  0  0  0
  -26.7732  -13.0198   20.6491 C   0  0  0  0  0  0  0  0  0  0  0  0
  -29.1968  -13.1249   19.8600 C   0  0  0  0  0  0  0  0  0  0  0  0
  -24.9914  -33.2817   26.4602 C   0  0  0  0  0  0  0  0  0  0  0  0
  -25.8462  -29.9968   20.7460 C   0  0  0  0  0  0  0  0  0  0  0  0
  -25.2663  -32.0997   25.7464 C   0  0  0  0  0  0  0  0  0  0  0  0
  -25.3585  -28.6974   20.5469 C   0  0  0  0  0  0  0  0  0  0  0  0
  -24.2171  -11.9069   20.7510 C   0  0  0  0  0  0  0  0  0  0  0  0
  -27.6384  -27.8950   20.2857 C   0  0  0  0  0  0  0  0  0  0  0  0
  -21.8892  -12.2235   20.6951 C   0  0  0  0  0  0  0  0  0  0  0  0
  -19.7122  -13.9555   20.4869 C   0  0  0  0  0  0  0  0  0  0  0  0
  -20.9757  -12.0732   19.6517 C   0  0  0  0  0  0  0  0  0  0  0  0
  -28.0931  -13.5954   20.5964 C   0  0  0  0  0  0  0  0  0  0  0  0
  -30.6817  -25.9449   19.7544 C   0  0  0  0  0  0  0  0  0  0  0  0
  -30.2044  -14.0134   20.1462 C   0  0  0  0  0  0  0  0  0  0  0  0
  -31.6208  -23.9826   20.1645 C   0  0  0  0  0  0  0  0  0  0  0  0
  -29.3019  -11.9866   18.9946 C   0  0  0  0  0  0  0  0  0  0  0  0
  -23.5953  -30.3317   22.9652 C   0  0  0  0  0  0  0  0  0  0  0  0
  -21.6194  -29.5018   20.5302 C   0  0  0  0  0  0  0  0  0  0  0  0
  -21.2258  -27.9349   17.5241 C   0  0  0  0  0  0  0  0  0  0  0  0
  -31.8800  -19.2336   20.6017 C   0  0  0  0  0  0  0  0  0  0  0  0
  -23.5818  -33.6852   26.8137 C   0  0  0  0  0  0  0  0  0  0  0  0
  -24.8958  -31.1422   20.9633 C   0  0  0  0  0  0  0  0  0  0  0  0
  -23.8841  -28.3908   20.5744 C   0  0  0  0  0  0  0  0  0  0  0  0
  -22.5178  -32.9745   25.9812 C   0  0  0  0  0  0  0  0  0  0  0  0
  -30.5397  -17.6325   23.6274 C   0  0  0  0  0  0  0  0  0  0  0  0
  -22.8097  -31.4792   25.9060 C   0  0  0  0  0  0  0  0  0  0  0  0
  -29.8102  -16.4363   23.0265 C   0  0  0  0  0  0  0  0  0  0  0  0
  -30.5116  -18.8549   22.7096 C   0  0  0  0  0  0  0  0  0  0  0  0
  -31.0470  -21.5968   21.2879 C   0  0  0  0  0  0  0  0  0  0  0  0
  -32.7733  -21.5463   20.0504 C   0  0  0  0  0  0  0  0  0  0  0  0
  -30.2661  -17.3674   20.7322 C   0  0  0  0  0  0  0  0  0  0  0  0
  -24.1567  -31.2137   25.2230 C   0  0  1  0  0  0  0  0  0  0  0  0
  -32.1013  -22.6549   20.8865 C   0  0  0  0  0  0  0  0  0  0  0  0
  -23.5418  -30.6997   21.5094 C   0  0  1  0  0  0  0  0  0  0  0  0
  -30.3579  -16.1236   21.6264 C   0  0  2  0  0  0  0  0  0  0  0  0
  -19.4864  -27.3909   15.7990 C   0  0  0  0  0  0  0  0  0  0  0  0
  -20.5107  -27.3116   22.3424 C   0  0  0  0  0  0  0  0  0  0  0  0
  -19.5099  -26.2371   20.3145 C   0  0  0  0  0  0  0  0  0  0  0  0
  -18.7864  -28.5247   20.9971 C   0  0  0  0  0  0  0  0  0  0  0  0
  -30.4017  -24.9916   22.0632 C   0  0  0  0  0  0  0  0  0  0  0  0
  -22.6603  -29.4563   15.4297 C   0  0  0  0  0  0  0  0  0  0  0  0
  -29.8966  -27.1923   20.0350 C   0  0  0  0  0  0  0  0  0  1  0  0
  -21.0810  -28.2004   19.9864 C   0  0  1  0  0  0  0  0  0  0  0  0
  -20.5559  -28.3796   16.2365 C   0  0  2  0  0  0  0  0  0  0  0  0
  -20.0000  -27.5736   20.9114 C   0  0  0  0  0  0  0  0  0  0  0  0
  -28.3729  -14.6971   21.2977 N   0  0  0  0  0  0  0  0  0  0  0  0
  -30.8912  -24.9680   20.6978 N   0  0  0  0  0  0  0  0  0  0  0  0
  -29.6640  -14.9262   21.0034 N   0  0  0  0  0  0  0  0  0  0  0  0
  -31.8806  -24.3137   18.8956 N   0  3  0  0  0  0  0  0  0  0  0  0
  -22.9953  -29.5433   20.7965 N   0  0  0  0  0  0  0  0  0  0  0  0
  -30.9227  -18.5297   21.3400 N   0  0  0  0  0  0  0  0  0  0  0  0
  -31.9983  -20.5892   20.8348 N   0  0  0  0  0  0  0  0  0  0  0  0
  -31.4910  -14.0949   19.7457 N   0  0  0  0  0  0  0  0  0  0  0  0
  -28.1706  -11.1796   18.8118 N   0  0  0  0  0  0  0  0  0  0  0  0
  -24.0318  -31.3525   23.7879 N   0  0  0  0  0  0  0  0  0  0  0  0
  -20.6173  -28.4845   18.6326 N   0  0  0  0  0  0  0  0  0  0  0  0
  -21.5618  -28.4980   15.1433 N   0  3  0  0  0  0  0  0  0  0  0  0
  -30.3719  -11.6843   18.4140 O   0  0  0  0  0  0  0  0  0  0  0  0
  -23.2636  -29.2054   23.3163 O   0  0  0  0  0  0  0  0  0  0  0  0
  -20.8487  -30.4489   20.7054 O   0  0  0  0  0  0  0  0  0  0  0  0
  -22.1900  -27.1730   17.5446 O   0  0  0  0  0  0  0  0  0  0  0  0
  -32.5812  -18.6844   19.7424 O   0  0  0  0  0  0  0  0  0  0  0  0
  -22.9699  -11.3641   20.8003 O   0  0  0  0  0  0  0  0  0  0  0  0
  -28.5067  -26.8704   20.0663 O   0  0  0  0  0  0  0  0  0  1  0  0
  -18.6662  -14.7863   20.3880 F   0  0  0  0  0  0  0  0  0  0  0  0
  -21.1379  -11.0980   18.7471 F   0  0  0  0  0  0  0  0  0  0  0  0
  1  2  1  0  0  0  0
  1  5  2  0  0  0  0
  2  6  2  0  0  0  0
  3  8  2  0  0  0  0
  3 16  1  0  0  0  0
  4  9  1  0  0  0  0
  4 16  2  0  0  0  0
  5 18  1  0  0  0  0
  6 20  1  0  0  0  0
  7 10  2  0  0  0  0
  7 19  1  0  0  0  0
  8 22  1  0  0  0  0
  9 22  2  0  0  0  0
 10 23  1  0  0  0  0
 11 12  2  0  0  0  0
 11 24  1  0  0  0  0
 12 25  1  0  0  0  0
 13 21  1  0  0  0  0
 13 23  2  0  0  0  0
 14 25  2  0  0  0  0
 14 26  1  0  0  0  0
 15 28  2  0  0  0  0
 15 64  1  0  0  0  0
 16 27  1  0  0  0  0
 17 27  1  0  0  0  0
 17 29  2  0  0  0  0
 17 31  1  0  0  0  0
 18 20  2  0  0  0  0
 18 36  1  0  0  0  0
 19 21  2  0  0  0  0
 19 37  1  0  0  0  0
 20 47  1  0  0  0  0
 21 38  1  0  0  0  0
 22 78  1  0  0  0  0
 23 79  1  0  0  0  0
 24 26  2  0  0  0  0
 24 78  1  0  0  0  0
 25 80  1  0  0  0  0
 26 81  1  0  0  0  0
 27 61  2  0  0  0  0
 28 57  1  0  0  0  0
 28 62  1  0  0  0  0
 29 63  1  0  0  0  0
 29 68  1  0  0  0  0
 30 48  1  0  0  0  0
 30 62  1  0  0  0  0
 30 64  2  0  0  0  0
 31 69  1  0  0  0  0
 31 73  2  0  0  0  0
 32 49  1  0  0  0  0
 32 70  1  0  0  0  0
 32 74  2  0  0  0  0
 33 58  1  0  0  0  0
 33 65  1  0  0  0  0
 33 75  2  0  0  0  0
 34 59  1  0  0  0  0
 34 71  1  0  0  0  0
 34 76  2  0  0  0  0
 35 66  1  0  0  0  0
 35 67  1  0  0  0  0
 35 77  2  0  0  0  0
 36 39  1  0  0  0  0
 37 49  1  0  0  0  0
 38 65  1  0  0  0  0
 39 41  1  0  0  0  0
 40 42  1  0  0  0  0
 40 43  1  0  0  0  0
 41 47  1  0  0  0  0
 42 50  1  0  0  0  0
 43 66  1  0  0  0  0
 44 48  1  0  0  0  0
 44 67  1  0  0  0  0
 45 48  1  0  0  0  0
 45 67  1  0  0  0  0
 46 50  1  0  0  0  0
 46 66  1  0  0  0  0
 47 70  1  0  0  0  0
 49 65  1  0  0  0  0
 50 63  1  0  0  0  0
 51 59  1  0  0  0  0
 52 60  1  0  0  0  0
 53 60  1  0  0  0  0
 54 60  1  0  0  0  0
 55 62  1  0  0  0  0
 56 72  1  0  0  0  0
 57 79  1  0  0  0  0
 58 60  1  0  0  0  0
 58 71  1  0  0  0  0
 59 72  1  0  0  0  0
 61 63  1  0  0  0  0
M  CHG  2  64   1  72   1
M  ISO  4  35 100  57 101  67 100  79 101
M  END
> <Batch ID>
0192

> <Smiles>
CNC(C)C(=O)NC(C(=O)N1Cc2cc([101O:1][101CH2:1]c3cnc(C4C[100N:0]([100C:0](=O)N5CCCC(n6nc(-c7ccc(Oc8ccc(F)cc8F)cc7)c(C(N)=O)c6N)C5)C4)n3C)ccc2CC1C(=O)NC1CCCc2ccccc21)C(C)(C)C

> <Shape>
0.305

> <Color>
0.087

> <Negative vol penalty>
0.000

$$$$
