
  -OEChem-04052323323D

 84 93  0     1  0  0  0  0  0999 V2000
  -28.4413  -37.2277   24.5349 C   0  0  0  0  0  0  0  0  0  0  0  0
  -28.9284  -36.1665   23.7786 C   0  0  0  0  0  0  0  0  0  0  0  0
  -24.4664   -9.0467   21.5095 C   0  0  0  0  0  0  0  0  0  0  0  0
  -24.2674  -10.5588   23.3832 C   0  0  0  0  0  0  0  0  0  0  0  0
  -27.3146  -37.0513   25.3370 C   0  0  0  0  0  0  0  0  0  0  0  0
  -28.2896  -34.9279   23.8248 C   0  0  0  0  0  0  0  0  0  0  0  0
  -26.8147  -29.2503   19.7131 C   0  0  0  0  0  0  0  0  0  0  0  0
  -24.0969   -7.9811   22.3302 C   0  0  0  0  0  0  0  0  0  0  0  0
  -23.8978   -9.4933   24.2039 C   0  0  0  0  0  0  0  0  0  0  0  0
  -26.9343  -27.8612   19.7117 C   0  0  0  0  0  0  0  0  0  0  0  0
  -22.8557   -4.9201   23.8483 C   0  0  0  0  0  0  0  0  0  0  0  0
  -21.9180   -4.0144   23.3523 C   0  0  0  0  0  0  0  0  0  0  0  0
  -24.9491  -27.6950   21.0720 C   0  0  0  0  0  0  0  0  0  0  0  0
  -20.3076   -5.8020   23.1325 C   0  0  0  0  0  0  0  0  0  0  0  0
  -26.7024  -21.6915   18.7181 C   0  0  0  0  0  0  0  0  0  0  0  0
  -24.5518  -10.3356   22.0360 C   0  0  0  0  0  0  0  0  0  0  0  0
  -24.0817  -12.2626   20.4319 C   0  0  0  0  0  0  0  0  0  0  0  0
  -26.6560  -35.8125   25.3856 C   0  0  0  0  0  0  0  0  0  0  0  0
  -25.7658  -29.8737   20.4042 C   0  0  0  0  0  0  0  0  0  0  0  0
  -27.1538  -34.7343   24.6293 C   0  0  0  0  0  0  0  0  0  0  0  0
  -24.8169  -29.0919   21.0784 C   0  0  0  0  0  0  0  0  0  0  0  0
  -23.8125   -8.2044   23.6773 C   0  0  0  0  0  0  0  0  0  0  0  0
  -26.0031  -27.0835   20.3936 C   0  0  0  0  0  0  0  0  0  0  0  0
  -22.5193   -6.2668   23.9865 C   0  0  0  0  0  0  0  0  0  0  0  0
  -20.6440   -4.4553   22.9943 C   0  0  0  0  0  0  0  0  0  0  0  0
  -21.2453   -6.7077   23.6286 C   0  0  0  0  0  0  0  0  0  0  0  0
  -24.9341  -11.4366   21.1889 C   0  0  0  0  0  0  0  0  0  0  0  0
  -27.0552  -21.0151   19.8651 C   0  0  0  0  0  0  0  0  0  0  0  0
  -27.5130  -23.0040   20.8970 C   0  0  0  0  0  0  0  0  0  0  0  0
  -27.1608  -23.6802   19.7498 C   0  0  0  0  0  0  0  0  0  0  0  0
  -24.9265  -13.1480   19.8082 C   0  0  0  0  0  0  0  0  0  0  0  0
  -22.6540  -12.2324   20.3041 C   0  0  0  0  0  0  0  0  0  0  0  0
  -25.5808  -31.9129   22.8354 C   0  0  0  0  0  0  0  0  0  0  0  0
  -22.4198  -31.8891   22.1072 C   0  0  0  0  0  0  0  0  0  0  0  0
  -19.7858  -30.2470   20.6887 C   0  0  0  0  0  0  0  0  0  0  0  0
  -29.3064  -16.5954   19.9783 C   0  0  0  0  0  0  0  0  0  0  0  0
  -25.4697  -35.6566   26.3038 C   0  0  0  0  0  0  0  0  0  0  0  0
  -25.6355  -31.3718   20.3736 C   0  0  0  0  0  0  0  0  0  0  0  0
  -23.6608  -29.7114   21.8188 C   0  0  0  0  0  0  0  0  0  0  0  0
  -24.6294  -34.4170   26.0081 C   0  0  0  0  0  0  0  0  0  0  0  0
  -29.9467  -13.1759   19.3620 C   0  0  0  0  0  0  0  0  0  0  0  0
  -25.5252  -33.1962   25.8241 C   0  0  0  0  0  0  0  0  0  0  0  0
  -28.6479  -12.4742   19.7490 C   0  0  0  0  0  0  0  0  0  0  0  0
  -26.7438  -18.8669   21.2925 C   0  0  0  0  0  0  0  0  0  0  0  0
  -30.2394  -14.3325   20.3083 C   0  0  0  0  0  0  0  0  0  0  0  0
  -27.1388  -17.4127   21.0728 C   0  0  0  0  0  0  0  0  0  0  0  0
  -28.2844  -18.7968   19.4871 C   0  0  0  0  0  0  0  0  0  0  0  0
  -27.8197  -14.6751   20.7301 C   0  0  0  0  0  0  0  0  0  0  0  0
  -26.4738  -33.3824   24.6337 C   0  0  1  0  0  0  0  0  0  0  0  0
  -26.9913  -19.5046   19.9158 C   0  0  2  0  0  0  0  0  0  0  0  0
  -24.8210  -31.9246   21.5391 C   0  0  1  0  0  0  0  0  0  0  0  0
  -27.4876  -13.4794   19.8137 C   0  0  2  0  0  0  0  0  0  0  0  0
  -17.3189  -30.4615   20.2819 C   0  0  0  0  0  0  0  0  0  0  0  0
  -21.8800  -31.1934   25.0286 C   0  0  0  0  0  0  0  0  0  0  0  0
  -19.5686  -30.4982   24.3634 C   0  0  0  0  0  0  0  0  0  0  0  0
  -20.2986  -32.8621   24.0442 C   0  0  0  0  0  0  0  0  0  0  0  0
  -20.1456  -30.1678   17.7522 C   0  0  0  0  0  0  0  0  0  0  0  0
  -27.9660  -23.7287   22.1182 C   0  0  0  0  0  0  0  0  0  0  0  0
  -27.2165  -25.1680   19.6763 C   0  0  0  0  0  0  0  0  0  1  0  0
  -21.2308  -31.0622   22.5331 C   0  0  1  0  0  0  0  0  0  0  0  0
  -18.7109  -30.7120   19.7230 C   0  0  2  0  0  0  0  0  0  0  0  0
  -20.7673  -31.3921   23.9801 C   0  0  0  0  0  0  0  0  0  0  0  0
  -26.7489  -23.0362   18.6398 N   0  0  0  0  0  0  0  0  0  0  0  0
  -26.2216  -11.7676   21.0592 N   0  0  0  0  0  0  0  0  0  0  0  0
  -27.4668  -21.6593   20.9752 N   0  0  0  0  0  0  0  0  0  0  0  0
  -26.1845  -12.8113   20.2134 N   0  0  0  0  0  0  0  0  0  0  0  0
  -23.5802  -31.1805   21.7648 N   0  0  0  0  0  0  0  0  0  0  0  0
  -29.1174  -15.2699   20.3849 N   0  0  0  0  0  0  0  0  0  0  0  0
  -28.2331  -17.4762   20.1062 N   0  0  0  0  0  0  0  0  0  0  0  0
  -24.7085  -14.1738   18.9581 N   0  0  0  0  0  0  0  0  0  0  0  0
  -21.9401  -11.2574   21.0141 N   0  0  0  0  0  0  0  0  0  0  0  0
  -25.7701  -33.1653   23.3879 N   0  0  0  0  0  0  0  0  0  0  0  0
  -20.2055  -31.2673   21.5158 N   0  0  0  0  0  0  0  0  0  0  0  0
  -29.4386  -23.9464   22.1651 N   0  3  0  0  0  0  0  0  0  0  0  0
  -18.8331  -29.9900   18.4250 N   0  3  0  0  0  0  0  0  0  0  0  0
  -22.0311  -13.0355   19.5688 O   0  0  0  0  0  0  0  0  0  0  0  0
  -25.9654  -30.8465   23.3007 O   0  0  0  0  0  0  0  0  0  0  0  0
  -22.3204  -33.1181   22.0725 O   0  0  0  0  0  0  0  0  0  0  0  0
  -20.2081  -29.0929   20.7100 O   0  0  0  0  0  0  0  0  0  0  0  0
  -30.4025  -16.9882   19.5562 O   0  0  0  0  0  0  0  0  0  0  0  0
  -23.4516   -7.1649   24.4784 O   0  0  0  0  0  0  0  0  0  0  0  0
  -26.1187  -25.7183   20.3945 O   0  0  0  0  0  0  0  0  0  1  0  0
  -19.7442   -3.5857   22.5165 F   0  0  0  0  0  0  0  0  0  0  0  0
  -20.9167   -8.0004   23.7580 F   0  0  0  0  0  0  0  0  0  0  0  0
  1  2  1  0  0  0  0
  1  5  2  0  0  0  0
  2  6  2  0  0  0  0
  3  8  2  0  0  0  0
  3 16  1  0  0  0  0
  4  9  1  0  0  0  0
  4 16  2  0  0  0  0
  5 18  1  0  0  0  0
  6 20  1  0  0  0  0
  7 10  2  0  0  0  0
  7 19  1  0  0  0  0
  8 22  1  0  0  0  0
  9 22  2  0  0  0  0
 10 23  1  0  0  0  0
 11 12  2  0  0  0  0
 11 24  1  0  0  0  0
 12 25  1  0  0  0  0
 13 21  1  0  0  0  0
 13 23  2  0  0  0  0
 14 25  2  0  0  0  0
 14 26  1  0  0  0  0
 15 28  1  0  0  0  0
 15 63  2  0  0  0  0
 16 27  1  0  0  0  0
 17 27  1  0  0  0  0
 17 31  2  0  0  0  0
 17 32  1  0  0  0  0
 18 20  2  0  0  0  0
 18 37  1  0  0  0  0
 19 21  2  0  0  0  0
 19 38  1  0  0  0  0
 20 49  1  0  0  0  0
 21 39  1  0  0  0  0
 22 81  1  0  0  0  0
 23 82  1  0  0  0  0
 24 26  2  0  0  0  0
 24 81  1  0  0  0  0
 25 83  1  0  0  0  0
 26 84  1  0  0  0  0
 27 64  2  0  0  0  0
 28 50  1  0  0  0  0
 28 65  2  0  0  0  0
 29 30  2  0  0  0  0
 29 58  1  0  0  0  0
 29 65  1  0  0  0  0
 30 59  1  0  0  0  0
 30 63  1  0  0  0  0
 31 66  1  0  0  0  0
 31 70  1  0  0  0  0
 32 71  1  0  0  0  0
 32 76  2  0  0  0  0
 33 51  1  0  0  0  0
 33 72  1  0  0  0  0
 33 77  2  0  0  0  0
 34 60  1  0  0  0  0
 34 67  1  0  0  0  0
 34 78  2  0  0  0  0
 35 61  1  0  0  0  0
 35 73  1  0  0  0  0
 35 79  2  0  0  0  0
 36 68  1  0  0  0  0
 36 69  1  0  0  0  0
 36 80  2  0  0  0  0
 37 40  1  0  0  0  0
 38 51  1  0  0  0  0
 39 67  1  0  0  0  0
 40 42  1  0  0  0  0
 41 43  1  0  0  0  0
 41 45  1  0  0  0  0
 42 49  1  0  0  0  0
 43 52  1  0  0  0  0
 44 46  1  0  0  0  0
 44 50  1  0  0  0  0
 45 68  1  0  0  0  0
 46 69  1  0  0  0  0
 47 50  1  0  0  0  0
 47 69  1  0  0  0  0
 48 52  1  0  0  0  0
 48 68  1  0  0  0  0
 49 72  1  0  0  0  0
 51 67  1  0  0  0  0
 52 66  1  0  0  0  0
 53 61  1  0  0  0  0
 54 62  1  0  0  0  0
 55 62  1  0  0  0  0
 56 62  1  0  0  0  0
 57 75  1  0  0  0  0
 58 74  1  0  0  0  0
 59 82  1  0  0  0  0
 60 62  1  0  0  0  0
 60 73  1  0  0  0  0
 61 75  1  0  0  0  0
 64 66  1  0  0  0  0
M  CHG  2  74   1  75   1
M  ISO  4  36 100  59 101  69 100  82 101
M  END
> <Batch ID>
0193

> <Smiles>
CNC(C)C(=O)NC(C(=O)N1Cc2cc([101O:1][101CH2:1]c3ncc(C4CC[100N:0]([100C:0](=O)N5CCCC(n6nc(-c7ccc(Oc8ccc(F)cc8F)cc7)c(C(N)=O)c6N)C5)C4)nc3CN)ccc2CC1C(=O)NC1CCCc2ccccc21)C(C)(C)C

> <Shape>
0.302

> <Color>
0.103

> <Negative vol penalty>
0.000

$$$$

  -OEChem-04052323323D

 83 92  0     1  0  0  0  0  0999 V2000
  -19.7355  -10.4217   21.1331 C   0  0  0  0  0  0  0  0  0  0  0  0
  -20.3563  -11.4489   21.8366 C   0  0  0  0  0  0  0  0  0  0  0  0
  -26.5166  -31.3727   22.4725 C   0  0  0  0  0  0  0  0  0  0  0  0
  -25.9069  -32.0581   20.2375 C   0  0  0  0  0  0  0  0  0  0  0  0
  -20.4878   -9.3453   20.6646 C   0  0  0  0  0  0  0  0  0  0  0  0
  -21.7297  -11.3997   22.0730 C   0  0  0  0  0  0  0  0  0  0  0  0
  -25.6017  -16.1400   22.2801 C   0  0  0  0  0  0  0  0  0  0  0  0
  -26.6160  -32.7102   22.8556 C   0  0  0  0  0  0  0  0  0  0  0  0
  -26.0062  -33.3957   20.6206 C   0  0  0  0  0  0  0  0  0  0  0  0
  -26.1423  -16.8638   23.3420 C   0  0  0  0  0  0  0  0  0  0  0  0
  -25.7476  -36.9896   21.1052 C   0  0  0  0  0  0  0  0  0  0  0  0
  -24.7317  -37.8571   20.7039 C   0  0  0  0  0  0  0  0  0  0  0  0
  -28.1205  -15.4853   23.2665 C   0  0  0  0  0  0  0  0  0  0  0  0
  -23.1158  -36.5191   21.9022 C   0  0  0  0  0  0  0  0  0  0  0  0
  -31.5008  -19.7036   23.5434 C   0  0  0  0  0  0  0  0  0  0  0  0
  -30.9878  -18.6075   25.2944 C   0  0  0  0  0  0  0  0  0  0  0  0
  -26.1621  -31.0466   21.1634 C   0  0  0  0  0  0  0  0  0  0  0  0
  -24.9167  -28.8458   20.8273 C   0  0  0  0  0  0  0  0  0  0  0  0
  -21.8726   -9.2877   20.8870 C   0  0  0  0  0  0  0  0  0  0  0  0
  -26.3130  -15.0746   21.7097 C   0  0  0  0  0  0  0  0  0  0  0  0
  -22.5009  -10.3209   21.6082 C   0  0  0  0  0  0  0  0  0  0  0  0
  -27.5878  -14.7512   22.1958 C   0  0  0  0  0  0  0  0  0  0  0  0
  -26.3608  -33.7217   21.9297 C   0  0  0  0  0  0  0  0  0  0  0  0
  -27.4007  -16.5347   23.8373 C   0  0  0  0  0  0  0  0  0  0  0  0
  -25.4476  -35.8868   21.9049 C   0  0  0  0  0  0  0  0  0  0  0  0
  -23.4158  -37.6219   21.1024 C   0  0  0  0  0  0  0  0  0  0  0  0
  -24.1317  -35.6516   22.3034 C   0  0  0  0  0  0  0  0  0  0  0  0
  -26.0599  -29.6652   20.7669 C   0  0  0  0  0  0  0  0  0  0  0  0
  -30.2125  -20.0766   23.8462 C   0  0  0  0  0  0  0  0  0  0  0  0
  -25.3376  -27.6327   20.3396 C   0  0  0  0  0  0  0  0  0  0  0  0
  -23.5928  -29.1537   21.2834 C   0  0  0  0  0  0  0  0  0  0  0  0
  -25.8106  -11.9509   21.4031 C   0  0  0  0  0  0  0  0  0  0  0  0
  -28.5110  -12.0876   19.6110 C   0  0  0  0  0  0  0  0  0  0  0  0
  -31.4209  -13.7119   18.8754 C   0  0  0  0  0  0  0  0  0  0  0  0
  -28.9685  -23.5494   19.9367 C   0  0  0  0  0  0  0  0  0  0  0  0
  -22.6361   -8.0807   20.4023 C   0  0  0  0  0  0  0  0  0  0  0  0
  -25.7272  -14.3209   20.5473 C   0  0  0  0  0  0  0  0  0  0  0  0
  -28.4007  -13.6293   21.6051 C   0  0  0  0  0  0  0  0  0  0  0  0
  -24.1480   -8.2889   20.3701 C   0  0  0  0  0  0  0  0  0  0  0  0
  -29.6063  -26.3248   17.9775 C   0  0  0  0  0  0  0  0  0  0  0  0
  -24.6259   -8.9329   21.6677 C   0  0  0  0  0  0  0  0  0  0  0  0
  -28.6490  -27.3835   18.5244 C   0  0  0  0  0  0  0  0  0  0  0  0
  -29.7923  -22.4846   23.1778 C   0  0  0  0  0  0  0  0  0  0  0  0
  -28.9090  -20.5998   21.7367 C   0  0  0  0  0  0  0  0  0  0  0  0
  -30.2276  -25.5142   19.1090 C   0  0  0  0  0  0  0  0  0  0  0  0
  -28.8382  -23.4473   22.4652 C   0  0  0  0  0  0  0  0  0  0  0  0
  -27.9606  -21.5979   21.0787 C   0  0  0  0  0  0  0  0  0  0  0  0
  -28.2605  -25.9041   20.5570 C   0  0  0  0  0  0  0  0  0  0  0  0
  -23.9926  -10.3157   21.8632 C   0  0  1  0  0  0  0  0  0  0  0  0
  -29.2569  -21.0414   23.1698 C   0  0  0  0  0  0  0  0  0  0  0  0
  -26.3209  -12.9256   20.3797 C   0  0  1  0  0  0  0  0  0  0  0  0
  -27.5966  -26.7509   19.4521 C   0  0  1  0  0  0  0  0  0  0  0  0
  -33.4388  -13.5635   17.3911 C   0  0  0  0  0  0  0  0  0  0  0  0
  -29.6487   -9.8792   21.3825 C   0  0  0  0  0  0  0  0  0  0  0  0
  -31.9229  -10.4351   20.4955 C   0  0  0  0  0  0  0  0  0  0  0  0
  -30.1461   -9.6216   18.9452 C   0  0  0  0  0  0  0  0  0  0  0  0
  -30.7996  -16.2978   17.5770 C   0  0  0  0  0  0  0  0  0  0  0  0
  -28.6490  -19.3981   25.6944 C   0  0  0  0  0  0  0  0  0  0  0  0
  -27.5501  -18.6087   24.9913 C   0  0  0  0  0  0  0  0  0  1  0  0
  -29.9886  -11.9602   19.8927 C   0  0  1  0  0  0  0  0  0  0  0  0
  -32.0355  -14.1274   17.5510 C   0  0  2  0  0  0  0  0  0  0  0  0
  -30.4107  -10.4940   20.1916 C   0  0  0  0  0  0  0  0  0  0  0  0
  -31.9776  -18.7887   24.4485 N   0  0  0  0  0  0  0  0  0  0  0  0
  -27.1269  -29.0265   20.2794 N   0  0  0  0  0  0  0  0  0  0  0  0
  -29.8974  -19.3659   24.9700 N   0  0  0  0  0  0  0  0  0  0  0  0
  -26.6560  -27.7929   20.0291 N   0  0  0  0  0  0  0  0  0  0  0  0
  -27.7821  -12.9180   20.4742 N   0  0  0  0  0  0  0  0  0  0  0  0
  -29.1967  -24.9334   19.9690 N   0  0  0  0  0  0  0  0  0  0  0  0
  -28.5101  -22.9527   21.1209 N   0  0  0  0  0  0  0  0  0  0  0  0
  -24.7049  -26.4553   20.1504 N   0  0  0  0  0  0  0  0  0  0  0  0
  -23.3319  -30.4484   21.7525 N   0  0  0  0  0  0  0  0  0  0  0  0
  -24.6526  -11.2965   21.0285 N   0  0  0  0  0  0  0  0  0  0  0  0
  -30.6745  -12.5589   18.7528 N   0  0  0  0  0  0  0  0  0  0  0  0
  -32.1126  -15.6128   17.4591 N   0  3  0  0  0  0  0  0  0  0  0  0
  -22.6727  -28.3011   21.2907 O   0  0  0  0  0  0  0  0  0  0  0  0
  -26.4229  -11.8025   22.4541 O   0  0  0  0  0  0  0  0  0  0  0  0
  -28.0227  -11.4786   18.6558 O   0  0  0  0  0  0  0  0  0  0  0  0
  -31.5892  -14.3446   19.9156 O   0  0  0  0  0  0  0  0  0  0  0  0
  -29.1619  -22.8855   18.9106 O   0  0  0  0  0  0  0  0  0  0  0  0
  -26.4574  -35.0269   22.3032 O   0  0  0  0  0  0  0  0  0  0  0  0
  -27.9342  -17.2440   24.8813 O   0  0  0  0  0  0  0  0  0  1  0  0
  -22.4406  -38.4559   20.7182 F   0  0  0  0  0  0  0  0  0  0  0  0
  -23.8376  -34.5945   23.0728 F   0  0  0  0  0  0  0  0  0  0  0  0
  1  2  1  0  0  0  0
  1  5  2  0  0  0  0
  2  6  2  0  0  0  0
  3  8  2  0  0  0  0
  3 17  1  0  0  0  0
  4  9  1  0  0  0  0
  4 17  2  0  0  0  0
  5 19  1  0  0  0  0
  6 21  1  0  0  0  0
  7 10  2  0  0  0  0
  7 20  1  0  0  0  0
  8 23  1  0  0  0  0
  9 23  2  0  0  0  0
 10 24  1  0  0  0  0
 11 12  2  0  0  0  0
 11 25  1  0  0  0  0
 12 26  1  0  0  0  0
 13 22  1  0  0  0  0
 13 24  2  0  0  0  0
 14 26  2  0  0  0  0
 14 27  1  0  0  0  0
 15 29  2  0  0  0  0
 15 63  1  0  0  0  0
 16 63  2  0  0  0  0
 16 65  1  0  0  0  0
 17 28  1  0  0  0  0
 18 28  1  0  0  0  0
 18 30  2  0  0  0  0
 18 31  1  0  0  0  0
 19 21  2  0  0  0  0
 19 36  1  0  0  0  0
 20 22  2  0  0  0  0
 20 37  1  0  0  0  0
 21 49  1  0  0  0  0
 22 38  1  0  0  0  0
 23 80  1  0  0  0  0
 24 81  1  0  0  0  0
 25 27  2  0  0  0  0
 25 80  1  0  0  0  0
 26 82  1  0  0  0  0
 27 83  1  0  0  0  0
 28 64  2  0  0  0  0
 29 50  1  0  0  0  0
 29 65  1  0  0  0  0
 30 66  1  0  0  0  0
 30 70  1  0  0  0  0
 31 71  1  0  0  0  0
 31 75  2  0  0  0  0
 32 51  1  0  0  0  0
 32 72  1  0  0  0  0
 32 76  2  0  0  0  0
 33 60  1  0  0  0  0
 33 67  1  0  0  0  0
 33 77  2  0  0  0  0
 34 61  1  0  0  0  0
 34 73  1  0  0  0  0
 34 78  2  0  0  0  0
 35 68  1  0  0  0  0
 35 69  1  0  0  0  0
 35 79  2  0  0  0  0
 36 39  1  0  0  0  0
 37 51  1  0  0  0  0
 38 67  1  0  0  0  0
 39 41  1  0  0  0  0
 40 42  1  0  0  0  0
 40 45  1  0  0  0  0
 41 49  1  0  0  0  0
 42 52  1  0  0  0  0
 43 46  1  0  0  0  0
 43 50  1  0  0  0  0
 44 47  1  0  0  0  0
 44 50  1  0  0  0  0
 45 68  1  0  0  0  0
 46 69  1  0  0  0  0
 47 69  1  0  0  0  0
 48 52  1  0  0  0  0
 48 68  1  0  0  0  0
 49 72  1  0  0  0  0
 51 67  1  0  0  0  0
 52 66  1  0  0  0  0
 53 61  1  0  0  0  0
 54 62  1  0  0  0  0
 55 62  1  0  0  0  0
 56 62  1  0  0  0  0
 57 74  1  0  0  0  0
 58 59  1  0  0  0  0
 58 65  1  0  0  0  0
 59 81  1  0  0  0  0
 60 62  1  0  0  0  0
 60 73  1  0  0  0  0
 61 74  1  0  0  0  0
 64 66  1  0  0  0  0
M  CHG  1  74   1
M  ISO  4  35 100  59 101  69 100  81 101
M  END
> <Batch ID>
0193

> <Smiles>
CNC(C)C(=O)NC(C(=O)N1Cc2cc([101O:1][101CH2:1]Cn3cncc3C3CC[100N:0]([100C:0](=O)N4CCCC(n5nc(-c6ccc(Oc7ccc(F)cc7F)cc6)c(C(N)=O)c5N)C4)CC3)ccc2CC1C(=O)NC1CCCc2ccccc21)C(C)(C)C

> <Shape>
0.262

> <Color>
0.089

> <Negative vol penalty>
0.000

$$$$

  -OEChem-04052323323D

 87 96  0     1  0  0  0  0  0999 V2000
  -21.9957  -12.6076   18.5710 C   0  0  0  0  0  0  0  0  0  0  0  0
  -22.1628  -13.9738   18.7671 C   0  0  0  0  0  0  0  0  0  0  0  0
  -29.9900  -29.0494   21.6188 C   0  0  0  0  0  0  0  0  0  0  0  0
  -28.4246  -28.1444   23.2212 C   0  0  0  0  0  0  0  0  0  0  0  0
  -22.9277  -11.7133   19.0932 C   0  0  0  0  0  0  0  0  0  0  0  0
  -23.2682  -14.4468   19.4752 C   0  0  0  0  0  0  0  0  0  0  0  0
  -23.9292  -19.3205   19.5921 C   0  0  0  0  0  0  0  0  0  0  0  0
  -31.0195  -28.9191   22.5509 C   0  0  0  0  0  0  0  0  0  0  0  0
  -29.4541  -28.0141   24.1533 C   0  0  0  0  0  0  0  0  0  0  0  0
  -23.1141  -20.1740   20.3344 C   0  0  0  0  0  0  0  0  0  0  0  0
  -34.1282  -28.4886   24.3853 C   0  0  0  0  0  0  0  0  0  0  0  0
  -35.3376  -27.9510   23.9449 C   0  0  0  0  0  0  0  0  0  0  0  0
  -24.8470  -20.3693   22.0012 C   0  0  0  0  0  0  0  0  0  0  0  0
  -20.4032  -27.2123   23.0801 C   0  0  0  0  0  0  0  0  0  0  0  0
  -34.2025  -25.9133   23.3152 C   0  0  0  0  0  0  0  0  0  0  0  0
  -17.9046  -28.3032   22.9663 C   0  0  0  0  0  0  0  0  0  0  0  0
  -28.6925  -28.6621   21.9540 C   0  0  0  0  0  0  0  0  0  0  0  0
  -27.5469  -28.1905   19.7240 C   0  0  0  0  0  0  0  0  0  0  0  0
  -24.0381  -12.1756   19.8186 C   0  0  0  0  0  0  0  0  0  0  0  0
  -25.2072  -18.9757   20.0550 C   0  0  0  0  0  0  0  0  0  0  0  0
  -24.2326  -13.5614   19.9896 C   0  0  0  0  0  0  0  0  0  0  0  0
  -25.6772  -19.5133   21.2617 C   0  0  0  0  0  0  0  0  0  0  0  0
  -19.3102  -26.4582   23.4925 C   0  0  0  0  0  0  0  0  0  0  0  0
  -18.0338  -27.0067   23.4377 C   0  0  0  0  0  0  0  0  0  0  0  0
  -30.7516  -28.4014   23.8181 C   0  0  0  0  0  0  0  0  0  0  0  0
  -23.5719  -20.6963   21.5405 C   0  0  0  0  0  0  0  0  0  0  0  0
  -32.9560  -27.7385   24.2908 C   0  0  0  0  0  0  0  0  0  0  0  0
  -35.3747  -26.6634   23.4098 C   0  0  0  0  0  0  0  0  0  0  0  0
  -32.9931  -26.4509   23.7557 C   0  0  0  0  0  0  0  0  0  0  0  0
  -27.6285  -28.7970   20.9918 C   0  0  0  0  0  0  0  0  0  0  0  0
  -20.1680  -28.4996   22.6245 C   0  0  0  0  0  0  0  0  0  0  0  0
  -26.3533  -28.6327   19.2080 C   0  0  0  0  0  0  0  0  0  0  0  0
  -28.4677  -27.3064   19.0712 C   0  0  0  0  0  0  0  0  0  0  0  0
  -26.6329  -16.2608   20.8920 C   0  0  0  0  0  0  0  0  0  0  0  0
  -29.2521  -18.1610   21.1193 C   0  0  0  0  0  0  0  0  0  0  0  0
  -30.0115  -21.4605   22.3658 C   0  0  0  0  0  0  0  0  0  0  0  0
  -21.2873  -30.5665   21.7182 C   0  0  0  0  0  0  0  0  0  0  0  0
  -25.0201  -11.1641   20.3549 C   0  0  0  0  0  0  0  0  0  0  0  0
  -26.0844  -18.0749   19.2294 C   0  0  0  0  0  0  0  0  0  0  0  0
  -27.0492  -19.1903   21.7926 C   0  0  0  0  0  0  0  0  0  0  0  0
  -25.9083  -11.7259   21.4602 C   0  0  0  0  0  0  0  0  0  0  0  0
  -23.3325  -32.3433   19.4079 C   0  0  0  0  0  0  0  0  0  0  0  0
  -26.5089  -13.0527   21.0203 C   0  0  0  0  0  0  0  0  0  0  0  0
  -24.6568  -31.5767   19.4320 C   0  0  0  0  0  0  0  0  0  0  0  0
  -20.4451  -24.9523   25.2132 C   0  0  0  0  0  0  0  0  0  0  0  0
  -22.6847  -32.3999   20.7903 C   0  0  0  0  0  0  0  0  0  0  0  0
  -23.8369  -30.3321   21.4730 C   0  0  0  0  0  0  0  0  0  0  0  0
  -20.7722  -23.4743   25.2565 C   0  0  0  0  0  0  0  0  0  0  0  0
  -20.1789  -24.1153   22.9706 C   0  0  0  0  0  0  0  0  0  0  0  0
  -19.5316  -25.0520   23.9934 C   0  0  2  0  0  0  0  0  0  0  0  0
  -25.4108  -14.0971   20.7827 C   0  0  1  0  0  0  0  0  0  0  0  0
  -27.1693  -17.3828   20.0487 C   0  0  1  0  0  0  0  0  0  0  0  0
  -24.4949  -30.1926   20.0906 C   0  0  2  0  0  0  0  0  0  0  0  0
  -31.8100  -23.0806   21.7039 C   0  0  0  0  0  0  0  0  0  0  0  0
  -30.8252  -16.9041   23.4118 C   0  0  0  0  0  0  0  0  0  0  0  0
  -31.7109  -19.1808   23.9598 C   0  0  0  0  0  0  0  0  0  0  0  0
  -32.2191  -18.1459   21.7477 C   0  0  0  0  0  0  0  0  0  0  0  0
  -28.0432  -23.6034   21.8245 C   0  0  0  0  0  0  0  0  0  0  0  0
  -16.8290  -26.2433   23.8670 C   0  0  0  0  0  0  0  0  0  0  0  0
  -20.7076  -21.6901   23.4796 C   0  0  0  0  0  0  0  0  0  0  0  0
  -16.3663  -25.2133   22.8333 C   0  0  0  0  0  0  0  0  0  0  0  0
  -21.3678  -21.3393   22.1608 C   0  0  0  0  0  0  0  0  0  1  0  0
  -29.8812  -18.9877   22.2146 C   0  0  1  0  0  0  0  0  0  0  0  0
  -30.3498  -22.6884   21.5398 C   0  0  2  0  0  0  0  0  0  0  0  0
  -31.1311  -18.2998   22.8327 C   0  0  0  0  0  0  0  0  0  0  0  0
  -18.9426  -29.0665   22.5569 N   0  0  0  0  0  0  0  0  0  0  0  0
  -26.5710  -29.5660   21.2646 N   0  0  0  0  0  0  0  0  0  0  0  0
  -25.8137  -29.4457   20.1609 N   0  0  0  0  0  0  0  0  0  0  0  0
  -27.8670  -18.3001   20.9522 N   0  0  0  0  0  0  0  0  0  0  0  0
  -22.5598  -31.0523   21.3502 N   0  0  0  0  0  0  0  0  0  0  0  0
  -25.7232  -28.4015   18.0367 N   0  0  0  0  0  0  0  0  0  0  0  0
  -29.4717  -27.8625   18.2668 N   0  0  0  0  0  0  0  0  0  0  0  0
  -21.2881  -29.2609   22.2080 N   0  0  0  0  0  0  0  0  0  0  0  0
  -25.9979  -15.2683   20.1700 N   0  0  0  0  0  0  0  0  0  0  0  0
  -30.1470  -20.2996   21.6342 N   0  0  0  0  0  0  0  0  0  0  0  0
  -20.9786  -23.1243   23.8008 N   0  3  2  0  0  0  0  0  0  0  0  0
  -29.5036  -23.8422   21.9563 N   0  3  0  0  0  0  0  0  0  0  0  0
  -28.3920  -26.0594   19.1842 O   0  0  0  0  0  0  0  0  0  0  0  0
  -26.7851  -16.2924   22.1075 O   0  0  0  0  0  0  0  0  0  0  0  0
  -29.9644  -17.4244   20.4325 O   0  0  0  0  0  0  0  0  0  0  0  0
  -29.6654  -21.5245   23.5434 O   0  0  0  0  0  0  0  0  0  0  0  0
  -20.2680  -31.2480   21.5816 O   0  0  0  0  0  0  0  0  0  0  0  0
  -15.1966  -24.5564   23.3046 O   0  0  0  0  0  0  0  0  0  0  0  0
  -31.7559  -28.2739   24.7278 O   0  0  0  0  0  0  0  0  0  0  0  0
  -22.7781  -21.5292   22.2673 O   0  0  0  0  0  0  0  0  0  1  0  0
  -36.5359  -26.1479   22.9854 F   0  0  0  0  0  0  0  0  0  0  0  0
  -31.8700  -25.7260   23.6612 F   0  0  0  0  0  0  0  0  0  0  0  0
  1  2  1  0  0  0  0
  1  5  2  0  0  0  0
  2  6  2  0  0  0  0
  3  8  2  0  0  0  0
  3 17  1  0  0  0  0
  4  9  1  0  0  0  0
  4 17  2  0  0  0  0
  5 19  1  0  0  0  0
  6 21  1  0  0  0  0
  7 10  2  0  0  0  0
  7 20  1  0  0  0  0
  8 25  1  0  0  0  0
  9 25  2  0  0  0  0
 10 26  1  0  0  0  0
 11 12  2  0  0  0  0
 11 27  1  0  0  0  0
 12 28  1  0  0  0  0
 13 22  1  0  0  0  0
 13 26  2  0  0  0  0
 14 23  1  0  0  0  0
 14 31  2  0  0  0  0
 15 28  2  0  0  0  0
 15 29  1  0  0  0  0
 16 24  1  0  0  0  0
 16 66  2  0  0  0  0
 17 30  1  0  0  0  0
 18 30  1  0  0  0  0
 18 32  2  0  0  0  0
 18 33  1  0  0  0  0
 19 21  2  0  0  0  0
 19 38  1  0  0  0  0
 20 22  2  0  0  0  0
 20 39  1  0  0  0  0
 21 51  1  0  0  0  0
 22 40  1  0  0  0  0
 23 24  2  0  0  0  0
 23 50  1  0  0  0  0
 24 59  1  0  0  0  0
 25 84  1  0  0  0  0
 26 85  1  0  0  0  0
 27 29  2  0  0  0  0
 27 84  1  0  0  0  0
 28 86  1  0  0  0  0
 29 87  1  0  0  0  0
 30 67  2  0  0  0  0
 31 66  1  0  0  0  0
 31 73  1  0  0  0  0
 32 68  1  0  0  0  0
 32 71  1  0  0  0  0
 33 72  1  0  0  0  0
 33 78  2  0  0  0  0
 34 52  1  0  0  0  0
 34 74  1  0  0  0  0
 34 79  2  0  0  0  0
 35 63  1  0  0  0  0
 35 69  1  0  0  0  0
 35 80  2  0  0  0  0
 36 64  1  0  0  0  0
 36 75  1  0  0  0  0
 36 81  2  0  0  0  0
 37 70  1  0  0  0  0
 37 73  1  0  0  0  0
 37 82  2  0  0  0  0
 38 41  1  0  0  0  0
 39 52  1  0  0  0  0
 40 69  1  0  0  0  0
 41 43  1  0  0  0  0
 42 44  1  0  0  0  0
 42 46  1  0  0  0  0
 43 51  1  0  0  0  0
 44 53  1  0  0  0  0
 45 48  1  0  0  0  0
 45 50  1  0  0  0  0
 46 70  1  0  0  0  0
 47 53  1  0  0  0  0
 47 70  1  0  0  0  0
 48 76  1  0  0  0  0
 49 50  1  0  0  0  0
 49 76  1  0  0  0  0
 51 74  1  0  0  0  0
 52 69  1  0  0  0  0
 53 68  1  0  0  0  0
 54 64  1  0  0  0  0
 55 65  1  0  0  0  0
 56 65  1  0  0  0  0
 57 65  1  0  0  0  0
 58 77  1  0  0  0  0
 59 61  1  0  0  0  0
 60 62  1  0  0  0  0
 60 76  1  0  0  0  0
 61 83  1  0  0  0  0
 62 85  1  0  0  0  0
 63 65  1  0  0  0  0
 63 75  1  0  0  0  0
 64 77  1  0  0  0  0
 67 68  1  0  0  0  0
M  CHG  2  76   1  77   1
M  ISO  4  37 100  62 101  73 100  85 101
M  END
> <Batch ID>
0193

> <Smiles>
CNC(C)C(=O)NC(C(=O)N1Cc2cc([101O:1][101CH2:1]CN3CCC(c4cc([100NH:0][100C:0](=O)N5CCCC(n6nc(-c7ccc(Oc8ccc(F)cc8F)cc7)c(C(N)=O)c6N)C5)ncc4CCO)C3)ccc2CC1C(=O)NC1CCCc2ccccc21)C(C)(C)C

> <Shape>
0.192

> <Color>
0.086

> <Negative vol penalty>
0.000

$$$$

  -OEChem-04052323323D

 84 92  0     1  0  0  0  0  0999 V2000
  -22.3706  -18.8429   25.4330 C   0  0  0  0  0  0  0  0  0  0  0  0
  -23.4578  -19.4532   24.8159 C   0  0  0  0  0  0  0  0  0  0  0  0
  -23.1313   -9.8247   21.4984 C   0  0  0  0  0  0  0  0  0  0  0  0
  -23.8450  -10.8146   23.5835 C   0  0  0  0  0  0  0  0  0  0  0  0
  -21.1690  -19.5366   25.5709 C   0  0  0  0  0  0  0  0  0  0  0  0
  -23.3438  -20.7572   24.3353 C   0  0  0  0  0  0  0  0  0  0  0  0
  -27.3402  -23.6265   25.5356 C   0  0  0  0  0  0  0  0  0  0  0  0
  -22.4444   -8.8360   22.2028 C   0  0  0  0  0  0  0  0  0  0  0  0
  -23.1581   -9.8259   24.2880 C   0  0  0  0  0  0  0  0  0  0  0  0
  -28.4974  -23.4559   24.7770 C   0  0  0  0  0  0  0  0  0  0  0  0
  -23.1848   -5.9669   23.8289 C   0  0  0  0  0  0  0  0  0  0  0  0
  -23.3240   -4.6483   23.3958 C   0  0  0  0  0  0  0  0  0  0  0  0
  -27.9389  -25.4208   23.4939 C   0  0  0  0  0  0  0  0  0  0  0  0
  -20.9414   -4.5214   23.0163 C   0  0  0  0  0  0  0  0  0  0  0  0
  -23.8316  -10.8140   22.1887 C   0  0  0  0  0  0  0  0  0  0  0  0
  -24.0424  -13.0824   21.0408 C   0  0  0  0  0  0  0  0  0  0  0  0
  -21.0431  -20.8532   25.1004 C   0  0  0  0  0  0  0  0  0  0  0  0
  -26.4666  -24.6912   25.2715 C   0  0  0  0  0  0  0  0  0  0  0  0
  -22.1390  -21.4686   24.4658 C   0  0  0  0  0  0  0  0  0  0  0  0
  -26.7726  -25.6042   24.2523 C   0  0  0  0  0  0  0  0  0  0  0  0
  -22.4578   -8.8366   23.5976 C   0  0  0  0  0  0  0  0  0  0  0  0
  -28.7954  -24.3514   23.7541 C   0  0  0  0  0  0  0  0  0  0  0  0
  -21.9239   -6.5627   23.8558 C   0  0  0  0  0  0  0  0  0  0  0  0
  -22.2023   -3.9256   22.9894 C   0  0  0  0  0  0  0  0  0  0  0  0
  -20.8022   -5.8400   23.4495 C   0  0  0  0  0  0  0  0  0  0  0  0
  -24.5418  -11.8353   21.4616 C   0  0  0  0  0  0  0  0  0  0  0  0
  -29.3685  -18.5062   20.7704 C   0  0  0  0  0  0  0  0  0  0  0  0
  -30.9307  -20.0578   20.1527 C   0  0  0  0  0  0  0  0  0  0  0  0
  -30.2061  -17.4960   20.3514 C   0  0  0  0  0  0  0  0  0  0  0  0
  -31.7687  -19.0477   19.7344 C   0  0  0  0  0  0  0  0  0  0  0  0
  -25.1004  -13.6766   20.3975 C   0  0  0  0  0  0  0  0  0  0  0  0
  -22.7386  -13.6526   21.2158 C   0  0  0  0  0  0  0  0  0  0  0  0
  -23.4318  -24.9283   24.3562 C   0  0  0  0  0  0  0  0  0  0  0  0
  -23.9331  -28.0930   24.8625 C   0  0  0  0  0  0  0  0  0  0  0  0
  -26.1515  -30.6779   25.0709 C   0  0  0  0  0  0  0  0  0  0  0  0
  -30.4996  -15.0060   20.1060 C   0  0  0  0  0  0  0  0  0  0  0  0
  -19.7097  -21.5459   25.2298 C   0  0  0  0  0  0  0  0  0  0  0  0
  -25.2361  -24.8768   26.1164 C   0  0  0  0  0  0  0  0  0  0  0  0
  -25.8778  -26.7754   23.9419 C   0  0  0  0  0  0  0  0  0  0  0  0
  -19.7865  -23.0572   25.0288 C   0  0  0  0  0  0  0  0  0  0  0  0
  -29.5600  -11.7748   18.9426 C   0  0  0  0  0  0  0  0  0  0  0  0
  -20.6208  -23.3901   23.7959 C   0  0  0  0  0  0  0  0  0  0  0  0
  -28.1296  -11.6051   19.4596 C   0  0  0  0  0  0  0  0  0  0  0  0
  -30.4383  -12.5273   19.9406 C   0  0  0  0  0  0  0  0  0  0  0  0
  -28.4693  -13.6468   20.9098 C   0  0  0  0  0  0  0  0  0  0  0  0
  -22.0620  -22.8906   23.9537 C   0  0  1  0  0  0  0  0  0  0  0  0
  -24.1544  -25.7002   25.4238 C   0  0  1  0  0  0  0  0  0  0  0  0
  -27.5301  -12.9513   19.9109 C   0  0  2  0  0  0  0  0  0  0  0  0
  -28.0242  -18.2229   21.3508 C   0  0  0  0  0  0  0  0  0  0  0  0
  -26.2594  -33.1548   25.4593 C   0  0  0  0  0  0  0  0  0  0  0  0
  -22.9209  -28.5794   22.0254 C   0  0  0  0  0  0  0  0  0  0  0  0
  -23.9263  -30.8697   22.1341 C   0  0  0  0  0  0  0  0  0  0  0  0
  -22.1099  -30.2304   23.7198 C   0  0  0  0  0  0  0  0  0  0  0  0
  -33.9590  -18.3921   18.7353 C   0  0  0  0  0  0  0  0  0  0  0  0
  -27.8235  -30.3430   27.4899 C   0  0  0  0  0  0  0  0  0  0  0  0
  -31.3203  -21.5028   20.0468 C   0  0  0  0  0  0  0  0  0  0  0  0
  -30.8539  -23.8306   20.8228 C   0  0  0  0  0  0  0  0  0  0  0  0
  -29.8841  -24.6414   21.6597 C   0  0  0  0  0  0  0  0  0  1  0  0
  -24.4196  -29.2467   24.0191 C   0  0  1  0  0  0  0  0  0  0  0  0
  -26.3220  -31.7783   26.1027 C   0  0  2  0  0  0  0  0  0  0  0  0
  -23.3603  -29.7084   22.9789 C   0  0  0  0  0  0  0  0  0  0  0  0
  -25.8179  -11.6472   21.1147 N   0  0  0  0  0  0  0  0  0  0  0  0
  -29.7157  -19.8052   20.6785 N   0  0  0  0  0  0  0  0  0  0  0  0
  -31.4213  -17.7487   19.8259 N   0  0  0  0  0  0  0  0  0  0  0  0
  -26.1291  -12.7840   20.4690 N   0  0  0  0  0  0  0  0  0  0  0  0
  -24.6833  -26.9106   24.7918 N   0  0  0  0  0  0  0  0  0  0  0  0
  -29.8088  -13.7943   20.3193 N   0  0  0  0  0  0  0  0  0  0  0  0
  -25.2418  -14.8704   19.7832 N   0  0  0  0  0  0  0  0  0  0  0  0
  -21.7695  -12.9068   21.9007 N   0  0  0  0  0  0  0  0  0  0  0  0
  -29.7886  -16.1476   20.4747 N   0  0  0  0  0  0  0  0  0  0  0  0
  -33.0304  -19.3778   19.1907 N   0  0  0  0  0  0  0  0  0  0  0  0
  -22.8139  -23.7799   24.8130 N   0  0  0  0  0  0  0  0  0  0  0  0
  -24.8342  -30.2884   24.9526 N   0  0  0  0  0  0  0  0  0  0  0  0
  -27.6355  -31.6417   26.7935 N   0  3  0  0  0  0  0  0  0  0  0  0
  -30.4562  -22.4007   20.8597 N   0  3  0  0  0  0  0  0  0  0  0  0
  -22.4368  -14.7831   20.7635 O   0  0  0  0  0  0  0  0  0  0  0  0
  -23.4335  -25.3448   23.2037 O   0  0  0  0  0  0  0  0  0  0  0  0
  -22.9288  -28.2379   25.5638 O   0  0  0  0  0  0  0  0  0  0  0  0
  -27.0924  -30.2132   24.4311 O   0  0  0  0  0  0  0  0  0  0  0  0
  -31.6271  -15.0309   19.6060 O   0  0  0  0  0  0  0  0  0  0  0  0
  -21.7874   -7.8721   24.2854 O   0  0  0  0  0  0  0  0  0  0  0  0
  -29.9240  -24.1867   23.0117 O   0  0  0  0  0  0  0  0  0  1  0  0
  -22.3364   -2.6599   22.5721 F   0  0  0  0  0  0  0  0  0  0  0  0
  -19.5884   -6.4075   23.4720 F   0  0  0  0  0  0  0  0  0  0  0  0
  1  2  1  0  0  0  0
  1  5  2  0  0  0  0
  2  6  2  0  0  0  0
  3  8  2  0  0  0  0
  3 15  1  0  0  0  0
  4  9  1  0  0  0  0
  4 15  2  0  0  0  0
  5 17  1  0  0  0  0
  6 19  1  0  0  0  0
  7 10  2  0  0  0  0
  7 18  1  0  0  0  0
  8 21  1  0  0  0  0
  9 21  2  0  0  0  0
 10 22  1  0  0  0  0
 11 12  2  0  0  0  0
 11 23  1  0  0  0  0
 12 24  1  0  0  0  0
 13 20  1  0  0  0  0
 13 22  2  0  0  0  0
 14 24  2  0  0  0  0
 14 25  1  0  0  0  0
 15 26  1  0  0  0  0
 16 26  1  0  0  0  0
 16 31  2  0  0  0  0
 16 32  1  0  0  0  0
 17 19  2  0  0  0  0
 17 37  1  0  0  0  0
 18 20  2  0  0  0  0
 18 38  1  0  0  0  0
 19 46  1  0  0  0  0
 20 39  1  0  0  0  0
 21 81  1  0  0  0  0
 22 82  1  0  0  0  0
 23 25  2  0  0  0  0
 23 81  1  0  0  0  0
 24 83  1  0  0  0  0
 25 84  1  0  0  0  0
 26 62  2  0  0  0  0
 27 29  1  0  0  0  0
 27 49  1  0  0  0  0
 27 63  2  0  0  0  0
 28 30  2  0  0  0  0
 28 56  1  0  0  0  0
 28 63  1  0  0  0  0
 29 64  2  0  0  0  0
 29 70  1  0  0  0  0
 30 64  1  0  0  0  0
 30 71  1  0  0  0  0
 31 65  1  0  0  0  0
 31 68  1  0  0  0  0
 32 69  1  0  0  0  0
 32 76  2  0  0  0  0
 33 47  1  0  0  0  0
 33 72  1  0  0  0  0
 33 77  2  0  0  0  0
 34 59  1  0  0  0  0
 34 66  1  0  0  0  0
 34 78  2  0  0  0  0
 35 60  1  0  0  0  0
 35 73  1  0  0  0  0
 35 79  2  0  0  0  0
 36 67  1  0  0  0  0
 36 70  1  0  0  0  0
 36 80  2  0  0  0  0
 37 40  1  0  0  0  0
 38 47  1  0  0  0  0
 39 66  1  0  0  0  0
 40 42  1  0  0  0  0
 41 43  1  0  0  0  0
 41 44  1  0  0  0  0
 42 46  1  0  0  0  0
 43 48  1  0  0  0  0
 44 67  1  0  0  0  0
 45 48  1  0  0  0  0
 45 67  1  0  0  0  0
 46 72  1  0  0  0  0
 47 66  1  0  0  0  0
 48 65  1  0  0  0  0
 50 60  1  0  0  0  0
 51 61  1  0  0  0  0
 52 61  1  0  0  0  0
 53 61  1  0  0  0  0
 54 71  1  0  0  0  0
 55 74  1  0  0  0  0
 56 75  1  0  0  0  0
 57 58  1  0  0  0  0
 57 75  1  0  0  0  0
 58 82  1  0  0  0  0
 59 61  1  0  0  0  0
 59 73  1  0  0  0  0
 60 74  1  0  0  0  0
 62 65  1  0  0  0  0
M  CHG  2  74   1  75   1
M  ISO  4  36 100  58 101  70 100  82 101
M  END
> <Batch ID>
0193

> <Smiles>
CNc1nc([100NH:0][100C:0](=O)N2CCCC(n3nc(-c4ccc(Oc5ccc(F)cc5F)cc4)c(C(N)=O)c3N)C2)c(C)nc1CNC[101CH2:1][101O:1]c1ccc2c(c1)CN(C(=O)C(NC(=O)C(C)NC)C(C)(C)C)C(C(=O)NC1CCCc3ccccc31)C2

> <Shape>
0.240

> <Color>
0.152

> <Negative vol penalty>
0.000

$$$$

  -OEChem-04052323323D

 85 94  0     1  0  0  0  0  0999 V2000
  -24.2939   -8.9538   24.2014 C   0  0  0  0  0  0  0  0  0  0  0  0
  -25.0268  -10.0694   23.8093 C   0  0  0  0  0  0  0  0  0  0  0  0
  -25.0880  -28.6151   22.5747 C   0  0  0  0  0  0  0  0  0  0  0  0
  -23.8260  -29.5290   20.7283 C   0  0  0  0  0  0  0  0  0  0  0  0
  -23.0145   -8.7459   23.6878 C   0  0  0  0  0  0  0  0  0  0  0  0
  -24.4811  -10.9772   22.9024 C   0  0  0  0  0  0  0  0  0  0  0  0
  -25.2073  -15.7910   24.2969 C   0  0  0  0  0  0  0  0  0  0  0  0
  -24.8158  -29.7580   23.3265 C   0  0  0  0  0  0  0  0  0  0  0  0
  -23.5537  -30.6719   21.4801 C   0  0  0  0  0  0  0  0  0  0  0  0
  -26.4707  -16.3357   24.0709 C   0  0  0  0  0  0  0  0  0  0  0  0
  -24.7536  -32.5930   25.6031 C   0  0  0  0  0  0  0  0  0  0  0  0
  -25.8067  -33.1708   26.3122 C   0  0  0  0  0  0  0  0  0  0  0  0
  -29.7974  -16.3012   18.3033 C   0  0  0  0  0  0  0  0  0  0  0  0
  -25.6395  -17.4240   22.0850 C   0  0  0  0  0  0  0  0  0  0  0  0
  -27.0107  -33.5125   24.2456 C   0  0  0  0  0  0  0  0  0  0  0  0
  -30.3355  -15.4086   19.2078 C   0  0  0  0  0  0  0  0  0  0  0  0
  -24.5932  -28.5006   21.2756 C   0  0  0  0  0  0  0  0  0  0  0  0
  -24.1094  -26.1405   20.4370 C   0  0  0  0  0  0  0  0  0  0  0  0
  -22.4490   -9.6567   22.7815 C   0  0  0  0  0  0  0  0  0  0  0  0
  -24.1516  -16.0503   23.4112 C   0  0  0  0  0  0  0  0  0  0  0  0
  -23.1934  -10.7806   22.3751 C   0  0  0  0  0  0  0  0  0  0  0  0
  -24.3631  -16.8835   22.3034 C   0  0  0  0  0  0  0  0  0  0  0  0
  -24.0486  -30.7864   22.7792 C   0  0  0  0  0  0  0  0  0  0  0  0
  -26.6876  -17.1500   22.9633 C   0  0  0  0  0  0  0  0  0  0  0  0
  -24.8291  -32.4749   24.2153 C   0  0  0  0  0  0  0  0  0  0  0  0
  -26.9352  -33.6306   25.6335 C   0  0  0  0  0  0  0  0  0  0  0  0
  -25.9576  -32.9347   23.5365 C   0  0  0  0  0  0  0  0  0  0  0  0
  -24.8747  -27.3205   20.4982 C   0  0  0  0  0  0  0  0  0  0  0  0
  -29.4299  -17.5266   18.8206 C   0  0  0  0  0  0  0  0  0  0  0  0
  -24.7962  -25.3307   19.5657 C   0  0  0  0  0  0  0  0  0  0  0  0
  -30.1093  -16.9093   20.9001 C   0  0  0  0  0  0  0  0  0  0  0  0
  -22.8871  -25.8062   21.1076 C   0  0  0  0  0  0  0  0  0  0  0  0
  -22.3197  -14.2678   21.5215 C   0  0  0  0  0  0  0  0  0  0  0  0
  -20.7548  -17.0696   21.0489 C   0  0  0  0  0  0  0  0  0  0  0  0
  -20.8473  -20.4809   21.0806 C   0  0  0  0  0  0  0  0  0  0  0  0
  -29.7934  -23.2007   18.0266 C   0  0  0  0  0  0  0  0  0  0  0  0
  -21.0812   -9.3648   22.2172 C   0  0  0  0  0  0  0  0  0  0  0  0
  -22.7880  -15.4769   23.6837 C   0  0  0  0  0  0  0  0  0  0  0  0
  -23.2577  -17.2091   21.3335 C   0  0  0  0  0  0  0  0  0  0  0  0
  -20.4280  -10.5715   21.5483 C   0  0  0  0  0  0  0  0  0  0  0  0
  -28.6713  -26.3327   16.4760 C   0  0  0  0  0  0  0  0  0  0  0  0
  -21.4203  -11.2727   20.6259 C   0  0  0  0  0  0  0  0  0  0  0  0
  -27.5520  -26.7918   17.4115 C   0  0  0  0  0  0  0  0  0  0  0  0
  -27.5304  -20.3978   17.2922 C   0  0  0  0  0  0  0  0  0  0  0  0
  -29.7404  -25.5304   17.2143 C   0  0  0  0  0  0  0  0  0  0  0  0
  -27.6317  -21.8824   17.6263 C   0  0  0  0  0  0  0  0  0  0  0  0
  -28.1056  -24.8568   18.9310 C   0  0  0  0  0  0  0  0  0  0  0  0
  -29.6110  -20.7555   18.3861 C   0  0  0  0  0  0  0  0  0  0  0  0
  -22.6260  -11.8011   21.4124 C   0  0  1  0  0  0  0  0  0  0  0  0
  -21.9158  -15.3903   22.4351 C   0  0  1  0  0  0  0  0  0  0  0  0
  -26.9768  -25.6084   18.2119 C   0  0  1  0  0  0  0  0  0  0  0  0
  -28.4536  -19.7699   18.3306 C   0  0  2  0  0  0  0  0  0  0  0  0
  -19.4257  -22.4946   20.6096 C   0  0  0  0  0  0  0  0  0  0  0  0
  -21.1213  -16.6245   18.0526 C   0  0  0  0  0  0  0  0  0  0  0  0
  -20.5628  -19.0389   17.6963 C   0  0  0  0  0  0  0  0  0  0  0  0
  -18.8751  -17.5065   18.7092 C   0  0  0  0  0  0  0  0  0  0  0  0
  -21.0622  -21.4304   23.8755 C   0  0  0  0  0  0  0  0  0  0  0  0
  -29.0442  -16.9312   23.1968 C   0  0  0  0  0  0  0  0  0  1  0  0
  -30.2833  -17.2470   22.3419 C   0  0  2  0  0  0  0  0  0  0  0  0
  -20.8828  -18.2143   20.0730 C   0  0  1  0  0  0  0  0  0  0  0  0
  -19.8969  -21.5089   21.6676 C   0  0  2  0  0  0  0  0  0  0  0  0
  -20.3820  -17.8385   18.6498 C   0  0  0  0  0  0  0  0  0  0  0  0
  -30.5065  -15.6805   20.5182 N   0  0  0  0  0  0  0  0  0  0  0  0
  -25.9643  -27.2691   19.7274 N   0  0  0  0  0  0  0  0  0  0  0  0
  -29.5720  -17.8656   20.1187 N   0  0  0  0  0  0  0  0  0  0  0  0
  -25.8887  -26.0470   19.1736 N   0  0  0  0  0  0  0  0  0  0  0  0
  -21.9439  -16.6194   21.6396 N   0  0  0  0  0  0  0  0  0  0  0  0
  -29.1407  -24.4374   17.9800 N   0  0  0  0  0  0  0  0  0  0  0  0
  -29.0027  -22.0555   18.1133 N   0  0  0  0  0  0  0  0  0  0  0  0
  -24.5662  -24.0830   19.1044 N   0  0  0  0  0  0  0  0  0  0  0  0
  -22.3162  -26.7540   21.9679 N   0  0  0  0  0  0  0  0  0  0  0  0
  -28.8853  -18.4533   17.9418 N   0  0  0  0  0  0  0  0  0  0  0  0
  -22.2786  -13.0193   22.1121 N   0  0  0  0  0  0  0  0  0  0  0  0
  -20.1819  -19.3437   20.6743 N   0  0  0  0  0  0  0  0  0  0  0  0
  -30.6283  -18.6953   22.5684 N   0  3  0  0  0  0  0  0  0  0  0  0
  -20.5688  -22.2735   22.7561 N   0  3  0  0  0  0  0  0  0  0  0  0
  -22.3266  -24.6935   20.9613 O   0  0  0  0  0  0  0  0  0  0  0  0
  -22.6433  -14.5160   20.3659 O   0  0  0  0  0  0  0  0  0  0  0  0
  -19.6398  -16.5972   21.2839 O   0  0  0  0  0  0  0  0  0  0  0  0
  -22.0582  -20.6696   20.9882 O   0  0  0  0  0  0  0  0  0  0  0  0
  -31.0263  -23.1196   17.9465 O   0  0  0  0  0  0  0  0  0  0  0  0
  -23.7825  -31.9017   23.5126 O   0  0  0  0  0  0  0  0  0  0  0  0
  -27.9280  -17.6859   22.7385 O   0  0  0  0  0  0  0  0  0  1  0  0
  -27.9457  -34.1868   26.3144 F   0  0  0  0  0  0  0  0  0  0  0  0
  -26.0353  -32.8250   22.2032 F   0  0  0  0  0  0  0  0  0  0  0  0
  1  2  1  0  0  0  0
  1  5  2  0  0  0  0
  2  6  2  0  0  0  0
  3  8  2  0  0  0  0
  3 17  1  0  0  0  0
  4  9  1  0  0  0  0
  4 17  2  0  0  0  0
  5 19  1  0  0  0  0
  6 21  1  0  0  0  0
  7 10  2  0  0  0  0
  7 20  1  0  0  0  0
  8 23  1  0  0  0  0
  9 23  2  0  0  0  0
 10 24  1  0  0  0  0
 11 12  2  0  0  0  0
 11 25  1  0  0  0  0
 12 26  1  0  0  0  0
 13 16  1  0  0  0  0
 13 29  2  0  0  0  0
 14 22  1  0  0  0  0
 14 24  2  0  0  0  0
 15 26  2  0  0  0  0
 15 27  1  0  0  0  0
 16 63  2  0  0  0  0
 17 28  1  0  0  0  0
 18 28  1  0  0  0  0
 18 30  2  0  0  0  0
 18 32  1  0  0  0  0
 19 21  2  0  0  0  0
 19 37  1  0  0  0  0
 20 22  2  0  0  0  0
 20 38  1  0  0  0  0
 21 49  1  0  0  0  0
 22 39  1  0  0  0  0
 23 82  1  0  0  0  0
 24 83  1  0  0  0  0
 25 27  2  0  0  0  0
 25 82  1  0  0  0  0
 26 84  1  0  0  0  0
 27 85  1  0  0  0  0
 28 64  2  0  0  0  0
 29 65  1  0  0  0  0
 29 72  1  0  0  0  0
 30 66  1  0  0  0  0
 30 70  1  0  0  0  0
 31 59  1  0  0  0  0
 31 63  1  0  0  0  0
 31 65  2  0  0  0  0
 32 71  1  0  0  0  0
 32 77  2  0  0  0  0
 33 50  1  0  0  0  0
 33 73  1  0  0  0  0
 33 78  2  0  0  0  0
 34 60  1  0  0  0  0
 34 67  1  0  0  0  0
 34 79  2  0  0  0  0
 35 61  1  0  0  0  0
 35 74  1  0  0  0  0
 35 80  2  0  0  0  0
 36 68  1  0  0  0  0
 36 69  1  0  0  0  0
 36 81  2  0  0  0  0
 37 40  1  0  0  0  0
 38 50  1  0  0  0  0
 39 67  1  0  0  0  0
 40 42  1  0  0  0  0
 41 43  1  0  0  0  0
 41 45  1  0  0  0  0
 42 49  1  0  0  0  0
 43 51  1  0  0  0  0
 44 46  1  0  0  0  0
 44 52  1  0  0  0  0
 45 68  1  0  0  0  0
 46 69  1  0  0  0  0
 47 51  1  0  0  0  0
 47 68  1  0  0  0  0
 48 52  1  0  0  0  0
 48 69  1  0  0  0  0
 49 73  1  0  0  0  0
 50 67  1  0  0  0  0
 51 66  1  0  0  0  0
 52 72  1  0  0  0  0
 53 61  1  0  0  0  0
 54 62  1  0  0  0  0
 55 62  1  0  0  0  0
 56 62  1  0  0  0  0
 57 76  1  0  0  0  0
 58 59  1  0  0  0  0
 58 83  1  0  0  0  0
 59 75  1  0  0  0  0
 60 62  1  0  0  0  0
 60 74  1  0  0  0  0
 61 76  1  0  0  0  0
 64 66  1  0  0  0  0
M  CHG  2  75   1  76   1
M  ISO  4  36 100  58 101  69 100  83 101
M  END
> <Batch ID>
0193

> <Smiles>
CNC(C)C(=O)NC(C(=O)N1Cc2cc([101O:1][101CH2:1]C(N)c3nccc(NC4CC[100N:0]([100C:0](=O)N5CCCC(n6nc(-c7ccc(Oc8ccc(F)cc8F)cc7)c(C(N)=O)c6N)C5)C4)n3)ccc2CC1C(=O)NC1CCCc2ccccc21)C(C)(C)C

> <Shape>
0.204

> <Color>
0.062

> <Negative vol penalty>
0.000

$$$$

  -OEChem-04052323323D

 84 93  0     1  0  0  0  0  0999 V2000
  -25.9174  -18.8036   17.9757 C   0  0  0  0  0  0  0  0  0  0  0  0
  -25.2208  -19.9935   18.1608 C   0  0  0  0  0  0  0  0  0  0  0  0
  -24.0563  -14.0918   19.9603 C   0  0  0  0  0  0  0  0  0  0  0  0
  -25.2131  -13.5650   22.0149 C   0  0  0  0  0  0  0  0  0  0  0  0
  -27.1274  -18.5954   18.6363 C   0  0  0  0  0  0  0  0  0  0  0  0
  -25.7334  -20.9756   19.0076 C   0  0  0  0  0  0  0  0  0  0  0  0
  -25.2640  -27.0427   18.3173 C   0  0  0  0  0  0  0  0  0  0  0  0
  -24.8837  -13.2079   19.2677 C   0  0  0  0  0  0  0  0  0  0  0  0
  -26.0405  -12.6811   21.3223 C   0  0  0  0  0  0  0  0  0  0  0  0
  -24.4027  -27.9863   18.8754 C   0  0  0  0  0  0  0  0  0  0  0  0
  -28.0253  -13.1958   18.0209 C   0  0  0  0  0  0  0  0  0  0  0  0
  -28.5573  -13.6249   16.8050 C   0  0  0  0  0  0  0  0  0  0  0  0
  -26.0545  -28.4887   20.5601 C   0  0  0  0  0  0  0  0  0  0  0  0
  -27.4608  -11.7905   15.6781 C   0  0  0  0  0  0  0  0  0  0  0  0
  -24.2210  -14.2704   21.3338 C   0  0  0  0  0  0  0  0  0  0  0  0
  -22.1365  -14.8902   22.6674 C   0  0  0  0  0  0  0  0  0  0  0  0
  -27.6598  -19.5795   19.4842 C   0  0  0  0  0  0  0  0  0  0  0  0
  -26.5248  -26.8067   18.8839 C   0  0  0  0  0  0  0  0  0  0  0  0
  -26.9510  -20.7799   19.6813 C   0  0  0  0  0  0  0  0  0  0  0  0
  -26.9309  -27.5433   20.0058 C   0  0  0  0  0  0  0  0  0  0  0  0
  -25.8758  -12.5025   19.9487 C   0  0  0  0  0  0  0  0  0  0  0  0
  -24.7968  -28.7075   19.9987 C   0  0  0  0  0  0  0  0  0  0  0  0
  -27.2112  -12.0640   18.0655 C   0  0  0  0  0  0  0  0  0  0  0  0
  -28.2750  -12.9223   15.6336 C   0  0  0  0  0  0  0  0  0  0  0  0
  -26.9290  -11.3614   16.8940 C   0  0  0  0  0  0  0  0  0  0  0  0
  -23.3669  -15.1838   22.0497 C   0  0  0  0  0  0  0  0  0  0  0  0
  -21.7281  -16.0863   23.2050 C   0  0  0  0  0  0  0  0  0  0  0  0
  -21.4262  -13.6473   22.7481 C   0  0  0  0  0  0  0  0  0  0  0  0
  -27.9533  -24.2966   20.2116 C   0  0  0  0  0  0  0  0  0  0  0  0
  -30.5293  -26.2678   20.2374 C   0  0  0  0  0  0  0  0  0  0  0  0
  -31.7345  -29.4607   20.2244 C   0  0  0  0  0  0  0  0  0  0  0  0
  -21.7847  -21.6324   21.8430 C   0  0  0  0  0  0  0  0  0  0  0  0
  -28.9477  -19.2898   20.2136 C   0  0  0  0  0  0  0  0  0  0  0  0
  -27.4528  -25.8044   18.2541 C   0  0  0  0  0  0  0  0  0  0  0  0
  -28.2822  -27.3421   20.6399 C   0  0  0  0  0  0  0  0  0  0  0  0
  -29.6079  -20.5342   20.8017 C   0  0  0  0  0  0  0  0  0  0  0  0
  -23.9460  -20.2897   24.4821 C   0  0  0  0  0  0  0  0  0  0  0  0
  -28.5781  -21.3901   21.5322 C   0  0  0  0  0  0  0  0  0  0  0  0
  -18.1034  -28.3702   23.2551 C   0  0  0  0  0  0  0  0  0  0  0  0
  -23.9417  -18.8044   24.1365 C   0  0  0  0  0  0  0  0  0  0  0  0
  -18.2382  -26.8376   23.1278 C   0  0  0  0  0  0  0  0  0  0  0  0
  -22.4839  -24.5991   20.4325 C   0  0  0  0  0  0  0  0  0  0  0  0
  -23.8711  -21.1765   23.2386 C   0  0  0  0  0  0  0  0  0  0  0  0
  -23.3505  -23.6434   21.2583 C   0  0  0  0  0  0  0  0  0  0  0  0
  -22.7296  -19.3563   21.9987 C   0  0  0  0  0  0  0  0  0  0  0  0
  -27.4867  -21.8794   20.5725 C   0  0  1  0  0  0  0  0  0  0  0  0
  -28.5099  -25.2792   19.2204 C   0  0  1  0  0  0  0  0  0  0  0  0
  -19.3900  -28.4842   22.3957 C   0  0  2  0  0  0  0  0  0  0  0  0
  -22.7371  -18.4629   23.2470 C   0  0  1  0  0  0  0  0  0  0  0  0
  -19.7506  -27.0626   22.9077 C   0  0  2  0  0  0  0  0  0  0  0  0
  -21.2496  -24.0339   21.1518 C   0  0  2  0  0  0  0  0  0  0  0  0
  -33.8831  -30.7555   20.2890 C   0  0  0  0  0  0  0  0  0  0  0  0
  -30.7859  -25.6884   23.2220 C   0  0  0  0  0  0  0  0  0  0  0  0
  -32.2895  -27.6815   23.4088 C   0  0  0  0  0  0  0  0  0  0  0  0
  -32.9561  -25.7480   21.9806 C   0  0  0  0  0  0  0  0  0  0  0  0
  -31.2022  -30.6994   17.5898 C   0  0  0  0  0  0  0  0  0  0  0  0
  -20.3490  -29.5980   22.7651 C   0  0  0  0  0  0  0  0  0  0  0  0
  -20.6940  -24.8261   22.3188 C   0  0  0  0  0  0  0  0  0  0  0  0
  -22.7260  -30.3171   22.4974 C   0  0  0  0  0  0  0  0  0  0  0  0
  -24.0601  -29.8485   21.9509 C   0  0  0  0  0  0  0  0  0  1  0  0
  -31.0949  -27.2753   21.2090 C   0  0  1  0  0  0  0  0  0  0  0  0
  -32.8237  -30.1229   19.4001 C   0  0  2  0  0  0  0  0  0  0  0  0
  -31.7553  -26.6009   22.4445 C   0  0  0  0  0  0  0  0  0  0  0  0
  -23.7172  -16.4659   22.1818 N   0  0  0  0  0  0  0  0  0  0  0  0
  -22.7007  -16.9886   22.8886 N   0  0  0  0  0  0  0  0  0  0  0  0
  -29.1512  -26.3463   19.9912 N   0  0  0  0  0  0  0  0  0  0  0  0
  -22.7729  -20.7809   22.3487 N   0  0  0  0  0  0  0  0  0  0  0  0
  -22.1203  -22.9467   21.6049 N   0  0  0  0  0  0  0  0  0  0  0  0
  -20.6354  -16.4438   23.9126 N   0  0  0  0  0  0  0  0  0  0  0  0
  -21.9881  -12.5160   22.1408 N   0  0  0  0  0  0  0  0  0  0  0  0
  -27.9730  -22.9855   19.7758 N   0  0  0  0  0  0  0  0  0  0  0  0
  -31.9970  -28.1240   20.4381 N   0  0  0  0  0  0  0  0  0  0  0  0
  -20.3336  -26.1851   21.8546 N   0  3  0  0  0  0  0  0  0  0  0  0
  -32.2426  -31.1859   18.5322 N   0  3  0  0  0  0  0  0  0  0  0  0
  -21.6972  -29.2691   22.2484 N   0  3  0  0  0  0  0  0  0  0  0  0
  -20.3179  -13.5467   23.3271 O   0  0  0  0  0  0  0  0  0  0  0  0
  -27.5380  -24.6982   21.2924 O   0  0  0  0  0  0  0  0  0  0  0  0
  -31.2837  -25.4462   19.7106 O   0  0  0  0  0  0  0  0  0  0  0  0
  -30.7511  -30.0693   20.6405 O   0  0  0  0  0  0  0  0  0  0  0  0
  -20.6442  -21.2277   21.5814 O   0  0  0  0  0  0  0  0  0  0  0  0
  -26.6833  -11.6397   19.2733 O   0  0  0  0  0  0  0  0  0  0  0  0
  -23.9518  -29.6353   20.5497 O   0  0  0  0  0  0  0  0  0  1  0  0
  -28.7846  -13.3353   14.4657 F   0  0  0  0  0  0  0  0  0  0  0  0
  -26.1465  -10.2740   16.9304 F   0  0  0  0  0  0  0  0  0  0  0  0
  1  2  1  0  0  0  0
  1  5  2  0  0  0  0
  2  6  2  0  0  0  0
  3  8  2  0  0  0  0
  3 15  1  0  0  0  0
  4  9  1  0  0  0  0
  4 15  2  0  0  0  0
  5 17  1  0  0  0  0
  6 19  1  0  0  0  0
  7 10  2  0  0  0  0
  7 18  1  0  0  0  0
  8 21  1  0  0  0  0
  9 21  2  0  0  0  0
 10 22  1  0  0  0  0
 11 12  2  0  0  0  0
 11 23  1  0  0  0  0
 12 24  1  0  0  0  0
 13 20  1  0  0  0  0
 13 22  2  0  0  0  0
 14 24  2  0  0  0  0
 14 25  1  0  0  0  0
 15 26  1  0  0  0  0
 16 26  1  0  0  0  0
 16 27  2  0  0  0  0
 16 28  1  0  0  0  0
 17 19  2  0  0  0  0
 17 33  1  0  0  0  0
 18 20  2  0  0  0  0
 18 34  1  0  0  0  0
 19 46  1  0  0  0  0
 20 35  1  0  0  0  0
 21 81  1  0  0  0  0
 22 82  1  0  0  0  0
 23 25  2  0  0  0  0
 23 81  1  0  0  0  0
 24 83  1  0  0  0  0
 25 84  1  0  0  0  0
 26 64  2  0  0  0  0
 27 65  1  0  0  0  0
 27 69  1  0  0  0  0
 28 70  1  0  0  0  0
 28 76  2  0  0  0  0
 29 47  1  0  0  0  0
 29 71  1  0  0  0  0
 29 77  2  0  0  0  0
 30 61  1  0  0  0  0
 30 66  1  0  0  0  0
 30 78  2  0  0  0  0
 31 62  1  0  0  0  0
 31 72  1  0  0  0  0
 31 79  2  0  0  0  0
 32 67  1  0  0  0  0
 32 68  1  0  0  0  0
 32 80  2  0  0  0  0
 33 36  1  0  0  0  0
 34 47  1  0  0  0  0
 35 66  1  0  0  0  0
 36 38  1  0  0  0  0
 37 40  1  0  0  0  0
 37 43  1  0  0  0  0
 38 46  1  0  0  0  0
 39 41  1  0  0  0  0
 39 48  1  0  0  0  0
 40 49  1  0  0  0  0
 41 50  1  0  0  0  0
 42 44  1  0  0  0  0
 42 51  1  0  0  0  0
 43 67  1  0  0  0  0
 44 68  1  0  0  0  0
 45 49  1  0  0  0  0
 45 67  1  0  0  0  0
 46 71  1  0  0  0  0
 47 66  1  0  0  0  0
 48 50  1  0  0  0  0
 48 57  1  0  0  0  0
 49 65  1  0  0  0  0
 50 73  1  0  0  0  0
 51 58  1  0  0  0  0
 51 68  1  0  0  0  0
 52 62  1  0  0  0  0
 53 63  1  0  0  0  0
 54 63  1  0  0  0  0
 55 63  1  0  0  0  0
 56 74  1  0  0  0  0
 57 75  1  0  0  0  0
 58 73  1  0  0  0  0
 59 60  1  0  0  0  0
 59 75  1  0  0  0  0
 60 82  1  0  0  0  0
 61 63  1  0  0  0  0
 61 72  1  0  0  0  0
 62 74  1  0  0  0  0
 64 65  1  0  0  0  0
M  CHG  3  73   1  74   1  75   1
M  ISO  4  32 100  60 101  68 100  82 101
M  END
> <Batch ID>
0193

> <Smiles>
CNC(C)C(=O)NC(C(=O)N1Cc2cc([101O:1][101CH2:1]CNCC3CCC3NCC3CC[100N:0]3[100C:0](=O)N3CCCC(n4nc(-c5ccc(Oc6ccc(F)cc6F)cc5)c(C(N)=O)c4N)C3)ccc2CC1C(=O)NC1CCCc2ccccc21)C(C)(C)C

> <Shape>
0.221

> <Color>
0.080

> <Negative vol penalty>
0.000

$$$$

  -OEChem-04052323323D

 86 95  0     1  0  0  0  0  0999 V2000
  -28.5534  -23.7030   16.4980 C   0  0  0  0  0  0  0  0  0  0  0  0
  -27.3359  -24.2119   16.9386 C   0  0  0  0  0  0  0  0  0  0  0  0
  -24.6825  -14.2153   21.5520 C   0  0  0  0  0  0  0  0  0  0  0  0
  -26.1188  -14.1198   19.6117 C   0  0  0  0  0  0  0  0  0  0  0  0
  -29.7253  -24.0045   17.1906 C   0  0  0  0  0  0  0  0  0  0  0  0
  -27.2895  -25.0219   18.0727 C   0  0  0  0  0  0  0  0  0  0  0  0
  -23.5343  -29.7571   19.0637 C   0  0  0  0  0  0  0  0  0  0  0  0
  -24.0154  -13.0712   21.1145 C   0  0  0  0  0  0  0  0  0  0  0  0
  -25.4517  -12.9756   19.1741 C   0  0  0  0  0  0  0  0  0  0  0  0
  -22.3412  -29.8752   19.7752 C   0  0  0  0  0  0  0  0  0  0  0  0
  -22.1697   -9.9678   20.6933 C   0  0  0  0  0  0  0  0  0  0  0  0
  -21.9035   -8.9727   21.6338 C   0  0  0  0  0  0  0  0  0  0  0  0
  -23.5690  -30.6828   21.6882 C   0  0  0  0  0  0  0  0  0  0  0  0
  -24.2711   -8.7345   22.0520 C   0  0  0  0  0  0  0  0  0  0  0  0
  -25.7343  -14.7397   20.8006 C   0  0  0  0  0  0  0  0  0  0  0  0
  -27.5555  -15.9794   22.0866 C   0  0  0  0  0  0  0  0  0  0  0  0
  -29.6945  -24.8265   18.3281 C   0  0  0  0  0  0  0  0  0  0  0  0
  -24.7569  -30.0913   19.6636 C   0  0  0  0  0  0  0  0  0  0  0  0
  -28.4619  -25.3337   18.7819 C   0  0  0  0  0  0  0  0  0  0  0  0
  -24.7760  -30.5706   20.9812 C   0  0  0  0  0  0  0  0  0  0  0  0
  -24.3999  -12.4513   19.9256 C   0  0  0  0  0  0  0  0  0  0  0  0
  -22.3587  -30.3353   21.0886 C   0  0  0  0  0  0  0  0  0  0  0  0
  -23.4867  -10.3461   20.4320 C   0  0  0  0  0  0  0  0  0  0  0  0
  -22.9541   -8.3561   22.3132 C   0  0  0  0  0  0  0  0  0  0  0  0
  -24.5373   -9.7295   21.1114 C   0  0  0  0  0  0  0  0  0  0  0  0
  -26.4235  -15.9219   21.2517 C   0  0  0  0  0  0  0  0  0  0  0  0
  -27.8195  -17.3212   22.2150 C   0  0  0  0  0  0  0  0  0  0  0  0
  -18.4621  -27.8608   22.7493 C   0  0  0  0  0  0  0  0  0  0  0  0
  -19.8906  -26.4934   22.0809 C   0  0  0  0  0  0  0  0  0  0  0  0
  -28.3017  -14.9152   22.6918 C   0  0  0  0  0  0  0  0  0  0  0  0
  -27.4170  -28.5016   20.3710 C   0  0  0  0  0  0  0  0  0  0  0  0
  -28.4924  -31.4470   21.2019 C   0  0  0  0  0  0  0  0  0  0  0  0
  -27.7538  -34.6253   22.2017 C   0  0  0  0  0  0  0  0  0  0  0  0
  -24.5664  -22.0903   21.9663 C   0  0  0  0  0  0  0  0  0  0  0  0
  -30.9810  -25.0860   19.0712 C   0  0  0  0  0  0  0  0  0  0  0  0
  -26.0324  -29.9837   18.8737 C   0  0  0  0  0  0  0  0  0  0  0  0
  -26.0600  -30.9618   21.6643 C   0  0  0  0  0  0  0  0  0  0  0  0
  -30.8956  -26.2576   20.0462 C   0  0  0  0  0  0  0  0  0  0  0  0
  -27.3417  -21.4779   19.9043 C   0  0  0  0  0  0  0  0  0  0  0  0
  -29.6224  -26.1654   20.8812 C   0  0  0  0  0  0  0  0  0  0  0  0
  -27.5365  -19.9741   20.0966 C   0  0  0  0  0  0  0  0  0  0  0  0
  -22.2187  -24.1501   20.3433 C   0  0  0  0  0  0  0  0  0  0  0  0
  -22.4336  -24.6909   22.7988 C   0  0  0  0  0  0  0  0  0  0  0  0
  -25.8628  -21.8556   19.8012 C   0  0  0  0  0  0  0  0  0  0  0  0
  -23.7103  -23.8047   20.3065 C   0  0  0  0  0  0  0  0  0  0  0  0
  -23.9213  -24.3633   22.7071 C   0  0  0  0  0  0  0  0  0  0  0  0
  -25.2329  -19.8599   21.1200 C   0  0  0  0  0  0  0  0  0  0  0  0
  -28.3741  -26.2361   19.9935 C   0  0  1  0  0  0  0  0  0  0  0  0
  -27.2723  -29.8641   19.7543 C   0  0  1  0  0  0  0  0  0  0  0  0
  -26.7065  -19.4571   21.2851 C   0  0  1  0  0  0  0  0  0  0  0  0
  -21.9038  -25.1665   21.4434 C   0  0  0  0  0  0  0  0  0  0  0  0
  -17.1567  -28.4949   23.0467 C   0  0  0  0  0  0  0  0  0  0  0  0
  -28.8446  -36.7938   22.8382 C   0  0  0  0  0  0  0  0  0  0  0  0
  -19.9836  -29.5409   25.2439 C   0  0  0  0  0  0  0  0  0  0  0  0
  -29.2419  -30.2706   23.9156 C   0  0  0  0  0  0  0  0  0  0  0  0
  -29.4221  -32.6058   24.8001 C   0  0  0  0  0  0  0  0  0  0  0  0
  -30.9294  -31.8507   22.9615 C   0  0  0  0  0  0  0  0  0  0  0  0
  -26.4399  -36.0724   19.9794 C   0  0  0  0  0  0  0  0  0  0  0  0
  -21.2665  -30.2755   23.2004 C   0  0  0  0  0  0  0  0  0  1  0  0
  -28.4856  -32.2699   22.4675 C   0  0  1  0  0  0  0  0  0  0  0  0
  -28.2407  -35.9755   21.7075 C   0  0  2  0  0  0  0  0  0  0  0  0
  -19.9420  -29.7015   23.7217 C   0  0  1  0  0  0  0  0  0  0  0  0
  -29.4956  -31.7401   23.5242 C   0  0  0  0  0  0  0  0  0  0  0  0
  -25.9976  -17.1309   20.8763 N   0  0  0  0  0  0  0  0  0  0  0  0
  -18.5881  -26.6490   22.1325 N   0  0  0  0  0  0  0  0  0  0  0  0
  -20.5028  -27.5695   22.6440 N   0  0  0  0  0  0  0  0  0  0  0  0
  -26.8666  -17.9608   21.4782 N   0  0  0  0  0  0  0  0  0  0  0  0
  -19.6048  -28.4647   23.0824 N   0  0  0  0  0  0  0  0  0  0  0  0
  -27.2814  -30.8329   20.8523 N   0  0  0  0  0  0  0  0  0  0  0  0
  -25.1055  -21.3070   20.9348 N   0  0  0  0  0  0  0  0  0  0  0  0
  -24.1838  -23.3994   21.6378 N   0  0  0  0  0  0  0  0  0  0  0  0
  -28.7716  -18.0044   22.8852 N   0  0  0  0  0  0  0  0  0  0  0  0
  -27.8940  -13.5951   22.4560 N   0  0  0  0  0  0  0  0  0  0  0  0
  -20.4741  -25.3714   21.5196 N   0  0  0  0  0  0  0  0  0  0  0  0
  -28.1175  -27.6021   19.5902 N   0  0  0  0  0  0  0  0  0  0  0  0
  -28.7184  -33.6506   22.0580 N   0  0  0  0  0  0  0  0  0  0  0  0
  -27.1116  -36.7495   21.1184 N   0  3  0  0  0  0  0  0  0  0  0  0
  -29.2904  -15.1292   23.4335 O   0  0  0  0  0  0  0  0  0  0  0  0
  -26.9305  -28.2830   21.4743 O   0  0  0  0  0  0  0  0  0  0  0  0
  -29.5319  -31.3585   20.5437 O   0  0  0  0  0  0  0  0  0  0  0  0
  -26.6313  -34.4533   22.6719 O   0  0  0  0  0  0  0  0  0  0  0  0
  -24.4343  -21.6462   23.1136 O   0  0  0  0  0  0  0  0  0  0  0  0
  -23.7493  -11.3347   19.4985 O   0  0  0  0  0  0  0  0  0  0  0  0
  -21.1880  -30.4516   21.7903 O   0  0  0  0  0  0  0  0  0  1  0  0
  -22.6982   -7.4017   23.2175 F   0  0  0  0  0  0  0  0  0  0  0  0
  -25.8045  -10.0897   20.8655 F   0  0  0  0  0  0  0  0  0  0  0  0
  1  2  1  0  0  0  0
  1  5  2  0  0  0  0
  2  6  2  0  0  0  0
  3  8  2  0  0  0  0
  3 15  1  0  0  0  0
  4  9  1  0  0  0  0
  4 15  2  0  0  0  0
  5 17  1  0  0  0  0
  6 19  1  0  0  0  0
  7 10  2  0  0  0  0
  7 18  1  0  0  0  0
  8 21  1  0  0  0  0
  9 21  2  0  0  0  0
 10 22  1  0  0  0  0
 11 12  2  0  0  0  0
 11 23  1  0  0  0  0
 12 24  1  0  0  0  0
 13 20  1  0  0  0  0
 13 22  2  0  0  0  0
 14 24  2  0  0  0  0
 14 25  1  0  0  0  0
 15 26  1  0  0  0  0
 16 26  1  0  0  0  0
 16 27  2  0  0  0  0
 16 30  1  0  0  0  0
 17 19  2  0  0  0  0
 17 35  1  0  0  0  0
 18 20  2  0  0  0  0
 18 36  1  0  0  0  0
 19 48  1  0  0  0  0
 20 37  1  0  0  0  0
 21 83  1  0  0  0  0
 22 84  1  0  0  0  0
 23 25  2  0  0  0  0
 23 83  1  0  0  0  0
 24 85  1  0  0  0  0
 25 86  1  0  0  0  0
 26 64  2  0  0  0  0
 27 67  1  0  0  0  0
 27 72  1  0  0  0  0
 28 52  1  0  0  0  0
 28 65  2  0  0  0  0
 28 68  1  0  0  0  0
 29 65  1  0  0  0  0
 29 66  2  0  0  0  0
 29 74  1  0  0  0  0
 30 73  1  0  0  0  0
 30 78  2  0  0  0  0
 31 49  1  0  0  0  0
 31 75  1  0  0  0  0
 31 79  2  0  0  0  0
 32 60  1  0  0  0  0
 32 69  1  0  0  0  0
 32 80  2  0  0  0  0
 33 61  1  0  0  0  0
 33 76  1  0  0  0  0
 33 81  2  0  0  0  0
 34 70  1  0  0  0  0
 34 71  1  0  0  0  0
 34 82  2  0  0  0  0
 35 38  1  0  0  0  0
 36 49  1  0  0  0  0
 37 69  1  0  0  0  0
 38 40  1  0  0  0  0
 39 41  1  0  0  0  0
 39 44  1  0  0  0  0
 40 48  1  0  0  0  0
 41 50  1  0  0  0  0
 42 45  1  0  0  0  0
 42 51  1  0  0  0  0
 43 46  1  0  0  0  0
 43 51  1  0  0  0  0
 44 70  1  0  0  0  0
 45 71  1  0  0  0  0
 46 71  1  0  0  0  0
 47 50  1  0  0  0  0
 47 70  1  0  0  0  0
 48 75  1  0  0  0  0
 49 69  1  0  0  0  0
 50 67  1  0  0  0  0
 51 74  1  0  0  0  0
 53 61  1  0  0  0  0
 54 62  1  0  0  0  0
 55 63  1  0  0  0  0
 56 63  1  0  0  0  0
 57 63  1  0  0  0  0
 58 77  1  0  0  0  0
 59 62  1  0  0  0  0
 59 84  1  0  0  0  0
 60 63  1  0  0  0  0
 60 76  1  0  0  0  0
 61 77  1  0  0  0  0
 62 68  1  0  0  0  0
 64 67  1  0  0  0  0
 66 68  1  0  0  0  0
M  CHG  1  77   1
M  ISO  4  34 100  59 101  71 100  84 101
M  END
> <Batch ID>
0193

> <Smiles>
CNC(C)C(=O)NC(C(=O)N1Cc2cc([101O:1][101CH2:1]C(C)n3nc(NC4CC[100N:0]([100C:0](=O)N5CCCC(n6nc(-c7ccc(Oc8ccc(F)cc8F)cc7)c(C(N)=O)c6N)C5)CC4)nc3C)ccc2CC1C(=O)NC1CCCc2ccccc21)C(C)(C)C

> <Shape>
0.281

> <Color>
0.062

> <Negative vol penalty>
0.000

$$$$

  -OEChem-04052323323D

 84 93  0     1  0  0  0  0  0999 V2000
  -29.1102  -32.7736   26.2586 C   0  0  0  0  0  0  0  0  0  0  0  0
  -28.8516  -31.5585   25.6324 C   0  0  0  0  0  0  0  0  0  0  0  0
  -24.3354   -8.5081   20.4663 C   0  0  0  0  0  0  0  0  0  0  0  0
  -22.9951  -10.4530   20.9740 C   0  0  0  0  0  0  0  0  0  0  0  0
  -28.0647  -33.6581   26.5201 C   0  0  0  0  0  0  0  0  0  0  0  0
  -27.5471  -31.2268   25.2682 C   0  0  0  0  0  0  0  0  0  0  0  0
  -27.2673  -29.2848   20.5997 C   0  0  0  0  0  0  0  0  0  0  0  0
  -23.3081   -7.6814   20.9209 C   0  0  0  0  0  0  0  0  0  0  0  0
  -21.9677   -9.6263   21.4286 C   0  0  0  0  0  0  0  0  0  0  0  0
  -27.6429  -27.9515   20.4412 C   0  0  0  0  0  0  0  0  0  0  0  0
  -22.0933   -6.6232   23.8923 C   0  0  0  0  0  0  0  0  0  0  0  0
  -22.4391   -5.5596   24.7257 C   0  0  0  0  0  0  0  0  0  0  0  0
  -25.3196  -27.3022   20.4508 C   0  0  0  0  0  0  0  0  0  0  0  0
  -21.5254   -4.0036   23.1192 C   0  0  0  0  0  0  0  0  0  0  0  0
  -28.4544  -23.0213   20.9737 C   0  0  0  0  0  0  0  0  0  0  0  0
  -24.1790   -9.8939   20.4929 C   0  0  0  0  0  0  0  0  0  0  0  0
  -25.4324  -11.2235   18.7128 C   0  0  0  0  0  0  0  0  0  0  0  0
  -26.7480  -33.3413   26.1503 C   0  0  0  0  0  0  0  0  0  0  0  0
  -25.9132  -29.6362   20.6961 C   0  0  0  0  0  0  0  0  0  0  0  0
  -26.4828  -32.1074   25.5263 C   0  0  0  0  0  0  0  0  0  0  0  0
  -24.9294  -28.6409   20.6080 C   0  0  0  0  0  0  0  0  0  0  0  0
  -22.1242   -8.2404   21.4021 C   0  0  0  0  0  0  0  0  0  0  0  0
  -26.6691  -26.9597   20.3696 C   0  0  0  0  0  0  0  0  0  0  0  0
  -21.4634   -6.3770   22.6723 C   0  0  0  0  0  0  0  0  0  0  0  0
  -22.1552   -4.2498   24.3392 C   0  0  0  0  0  0  0  0  0  0  0  0
  -21.1795   -5.0672   22.2857 C   0  0  0  0  0  0  0  0  0  0  0  0
  -25.2401  -10.7484   20.0239 C   0  0  0  0  0  0  0  0  0  0  0  0
  -28.6244  -23.9039   19.9381 C   0  0  0  0  0  0  0  0  0  0  0  0
  -26.5702  -11.9890   18.7883 C   0  0  0  0  0  0  0  0  0  0  0  0
  -28.9697  -21.3271   19.5723 C   0  0  0  0  0  0  0  0  0  0  0  0
  -24.6521  -10.9935   17.5321 C   0  0  0  0  0  0  0  0  0  0  0  0
  -24.1041  -31.0055   22.9223 C   0  0  0  0  0  0  0  0  0  0  0  0
  -21.8463  -30.9043   20.5954 C   0  0  0  0  0  0  0  0  0  0  0  0
  -20.7038  -29.4474   17.7285 C   0  0  0  0  0  0  0  0  0  0  0  0
  -29.6878  -15.8323   21.3681 C   0  0  0  0  0  0  0  0  0  0  0  0
  -25.6441  -34.3088   26.4963 C   0  0  0  0  0  0  0  0  0  0  0  0
  -25.5235  -31.0818   20.8401 C   0  0  0  0  0  0  0  0  0  0  0  0
  -23.4613  -28.9680   20.6858 C   0  0  0  0  0  0  0  0  0  0  0  0
  -24.3439  -34.0449   25.7412 C   0  0  0  0  0  0  0  0  0  0  0  0
  -29.9754  -12.4681   22.4980 C   0  0  0  0  0  0  0  0  0  0  0  0
  -23.9973  -32.5599   25.7779 C   0  0  0  0  0  0  0  0  0  0  0  0
  -28.7820  -11.7621   21.8522 C   0  0  0  0  0  0  0  0  0  0  0  0
  -29.6293  -13.8965   22.9127 C   0  0  0  0  0  0  0  0  0  0  0  0
  -27.8692  -14.0272   21.1927 C   0  0  0  0  0  0  0  0  0  0  0  0
  -29.0036  -18.9492   20.3833 C   0  0  0  0  0  0  0  0  0  0  0  0
  -29.5389  -19.4022   18.0615 C   0  0  0  0  0  0  0  0  0  0  0  0
  -25.0846  -31.7225   25.0938 C   0  0  1  0  0  0  0  0  0  0  0  0
  -24.1348  -31.2691   21.4433 C   0  0  1  0  0  0  0  0  0  0  0  0
  -28.1859  -12.6024   20.7068 C   0  0  2  0  0  0  0  0  0  0  0  0
  -29.6217  -17.7038   19.7396 C   0  0  2  0  0  0  0  0  0  0  0  0
  -29.2991  -17.9083   18.2668 C   0  0  2  0  0  0  0  0  0  0  0  0
  -18.8124  -29.5549   16.0827 C   0  0  0  0  0  0  0  0  0  0  0  0
  -20.0306  -29.4819   22.5928 C   0  0  0  0  0  0  0  0  0  0  0  0
  -18.5821  -28.7845   20.6735 C   0  0  0  0  0  0  0  0  0  0  0  0
  -18.8873  -31.2063   21.1879 C   0  0  0  0  0  0  0  0  0  0  0  0
  -22.5305  -30.1097   15.4962 C   0  0  0  0  0  0  0  0  0  0  0  0
  -28.4301  -25.3787   20.1342 C   0  0  0  0  0  0  0  0  0  1  0  0
  -20.7989  -29.9060   20.1647 C   0  0  1  0  0  0  0  0  0  0  0  0
  -20.2117  -30.0441   16.4223 C   0  0  2  0  0  0  0  0  0  0  0  0
  -19.6024  -29.8380   21.1552 C   0  0  0  0  0  0  0  0  0  0  0  0
  -28.6248  -21.7002   20.8136 N   0  0  0  0  0  0  0  0  0  0  0  0
  -26.1805  -11.1762   20.8704 N   0  0  0  0  0  0  0  0  0  0  0  0
  -28.9713  -23.4704   18.7126 N   0  0  0  0  0  0  0  0  0  0  0  0
  -29.1501  -22.1472   18.5183 N   0  0  0  0  0  0  0  0  0  0  0  0
  -26.9748  -11.9280   20.0894 N   0  0  0  0  0  0  0  0  0  0  0  0
  -29.1575  -19.9793   19.3526 N   0  0  3  0  0  0  0  0  0  0  0  0
  -23.1309  -30.3951   20.8329 N   0  0  0  0  0  0  0  0  0  0  0  0
  -29.0704  -14.6401   21.7811 N   0  0  0  0  0  0  0  0  0  0  0  0
  -27.2543  -12.7015   17.8681 N   0  0  0  0  0  0  0  0  0  0  0  0
  -23.5136  -10.1821   17.6312 N   0  0  0  0  0  0  0  0  0  0  0  0
  -24.9578  -31.8081   23.6547 N   0  0  0  0  0  0  0  0  0  0  0  0
  -20.4263  -30.2679   18.8014 N   0  0  0  0  0  0  0  0  0  0  0  0
  -29.0980  -16.4709   20.2842 N   0  0  0  0  0  0  0  0  0  0  0  0
  -30.1776  -17.1018   17.4011 N   0  3  0  0  0  0  0  0  0  0  0  0
  -21.1245  -29.6696   15.3053 N   0  3  0  0  0  0  0  0  0  0  0  0
  -24.9647  -11.4793   16.4186 O   0  0  0  0  0  0  0  0  0  0  0  0
  -23.3598  -30.1391   23.3662 O   0  0  0  0  0  0  0  0  0  0  0  0
  -21.5379  -32.0931   20.7097 O   0  0  0  0  0  0  0  0  0  0  0  0
  -21.2737  -28.3603   17.7913 O   0  0  0  0  0  0  0  0  0  0  0  0
  -30.6935  -16.2906   21.9209 O   0  0  0  0  0  0  0  0  0  0  0  0
  -21.1214   -7.4340   21.8455 O   0  0  0  0  0  0  0  0  0  0  0  0
  -27.0330  -25.6575   20.2155 O   0  0  0  0  0  0  0  0  0  1  0  0
  -22.4888   -3.2284   25.1390 F   0  0  0  0  0  0  0  0  0  0  0  0
  -20.5757   -4.8244   21.1143 F   0  0  0  0  0  0  0  0  0  0  0  0
  1  2  1  0  0  0  0
  1  5  2  0  0  0  0
  2  6  2  0  0  0  0
  3  8  2  0  0  0  0
  3 16  1  0  0  0  0
  4  9  1  0  0  0  0
  4 16  2  0  0  0  0
  5 18  1  0  0  0  0
  6 20  1  0  0  0  0
  7 10  2  0  0  0  0
  7 19  1  0  0  0  0
  8 22  1  0  0  0  0
  9 22  2  0  0  0  0
 10 23  1  0  0  0  0
 11 12  2  0  0  0  0
 11 24  1  0  0  0  0
 12 25  1  0  0  0  0
 13 21  1  0  0  0  0
 13 23  2  0  0  0  0
 14 25  2  0  0  0  0
 14 26  1  0  0  0  0
 15 28  1  0  0  0  0
 15 61  2  0  0  0  0
 16 27  1  0  0  0  0
 17 27  1  0  0  0  0
 17 29  2  0  0  0  0
 17 31  1  0  0  0  0
 18 20  2  0  0  0  0
 18 36  1  0  0  0  0
 19 21  2  0  0  0  0
 19 37  1  0  0  0  0
 20 47  1  0  0  0  0
 21 38  1  0  0  0  0
 22 81  1  0  0  0  0
 23 82  1  0  0  0  0
 24 26  2  0  0  0  0
 24 81  1  0  0  0  0
 25 83  1  0  0  0  0
 26 84  1  0  0  0  0
 27 62  2  0  0  0  0
 28 57  1  0  0  0  0
 28 63  2  0  0  0  0
 29 65  1  0  0  0  0
 29 69  1  0  0  0  0
 30 61  1  0  0  0  0
 30 64  2  0  0  0  0
 30 66  1  0  0  0  0
 31 70  1  0  0  0  0
 31 76  2  0  0  0  0
 32 48  1  0  0  0  0
 32 71  1  0  0  0  0
 32 77  2  0  0  0  0
 33 58  1  0  0  0  0
 33 67  1  0  0  0  0
 33 78  2  0  0  0  0
 34 59  1  0  0  0  0
 34 72  1  0  0  0  0
 34 79  2  0  0  0  0
 35 68  1  0  0  0  0
 35 73  1  0  0  0  0
 35 80  2  0  0  0  0
 36 39  1  0  0  0  0
 37 48  1  0  0  0  0
 38 67  1  0  0  0  0
 39 41  1  0  0  0  0
 40 42  1  0  0  0  0
 40 43  1  0  0  0  0
 41 47  1  0  0  0  0
 42 49  1  0  0  0  0
 43 68  1  0  0  0  0
 44 49  1  0  0  0  0
 44 68  1  0  0  0  0
 45 50  1  0  0  0  0
 45 66  1  0  0  0  0
 46 51  1  0  0  0  0
 46 66  1  0  0  0  0
 47 71  1  0  0  0  0
 48 67  1  0  0  0  0
 49 65  1  0  0  0  0
 50 51  1  0  0  0  0
 50 73  1  0  0  0  0
 51 74  1  0  0  0  0
 52 59  1  0  0  0  0
 53 60  1  0  0  0  0
 54 60  1  0  0  0  0
 55 60  1  0  0  0  0
 56 75  1  0  0  0  0
 57 82  1  0  0  0  0
 58 60  1  0  0  0  0
 58 72  1  0  0  0  0
 59 75  1  0  0  0  0
 62 65  1  0  0  0  0
 63 64  1  0  0  0  0
M  CHG  2  74   1  75   1
M  ISO  4  35 100  57 101  73 100  82 101
M  END
> <Batch ID>
0193

> <Smiles>
CNC(C)C(=O)NC(C(=O)N1Cc2cc([101O:1][101CH2:1]c3cnc(N4CC(N)C([100NH:0][100C:0](=O)N5CCCC(n6nc(-c7ccc(Oc8ccc(F)cc8F)cc7)c(C(N)=O)c6N)C5)C4)nn3)ccc2CC1C(=O)NC1CCCc2ccccc21)C(C)(C)C

> <Shape>
0.346

> <Color>
0.117

> <Negative vol penalty>
0.000

$$$$

  -OEChem-04052323323D

 82 91  0     1  0  0  0  0  0999 V2000
  -30.6054  -33.9401   24.2188 C   0  0  0  0  0  0  0  0  0  0  0  0
  -31.2099  -32.7159   23.9517 C   0  0  0  0  0  0  0  0  0  0  0  0
  -23.3231   -9.8112   19.8869 C   0  0  0  0  0  0  0  0  0  0  0  0
  -23.6586   -9.9630   22.2746 C   0  0  0  0  0  0  0  0  0  0  0  0
  -29.2478  -34.1180   23.9558 C   0  0  0  0  0  0  0  0  0  0  0  0
  -30.4569  -31.6685   23.4223 C   0  0  0  0  0  0  0  0  0  0  0  0
  -31.0371  -26.0381   19.0316 C   0  0  0  0  0  0  0  0  0  0  0  0
  -22.6075   -8.6269   20.0627 C   0  0  0  0  0  0  0  0  0  0  0  0
  -22.9430   -8.7787   22.4505 C   0  0  0  0  0  0  0  0  0  0  0  0
  -30.7835  -24.6675   18.9984 C   0  0  0  0  0  0  0  0  0  0  0  0
  -23.5014   -5.4595   22.1306 C   0  0  0  0  0  0  0  0  0  0  0  0
  -24.0308   -4.5053   22.9993 C   0  0  0  0  0  0  0  0  0  0  0  0
  -28.4638  -25.1147   18.5103 C   0  0  0  0  0  0  0  0  0  0  0  0
  -22.0446   -4.6487   24.3674 C   0  0  0  0  0  0  0  0  0  0  0  0
  -28.7955  -18.8050   19.7208 C   0  0  0  0  0  0  0  0  0  0  0  0
  -23.8487  -10.4792   20.9928 C   0  0  0  0  0  0  0  0  0  0  0  0
  -24.0747  -13.0129   20.8009 C   0  0  0  0  0  0  0  0  0  0  0  0
  -28.4799  -33.0753   23.4139 C   0  0  0  0  0  0  0  0  0  0  0  0
  -30.0020  -26.9589   18.8149 C   0  0  0  0  0  0  0  0  0  0  0  0
  -29.0874  -31.8322   23.1530 C   0  0  0  0  0  0  0  0  0  0  0  0
  -28.7074  -26.4964   18.5388 C   0  0  0  0  0  0  0  0  0  0  0  0
  -29.1065  -18.0154   18.6254 C   0  0  0  0  0  0  0  0  0  0  0  0
  -22.4174   -8.1106   21.3445 C   0  0  0  0  0  0  0  0  0  0  0  0
  -29.4961  -24.2057   18.7406 C   0  0  0  0  0  0  0  0  0  0  0  0
  -22.2436   -6.0084   22.3803 C   0  0  0  0  0  0  0  0  0  0  0  0
  -23.3025   -4.0999   24.1177 C   0  0  0  0  0  0  0  0  0  0  0  0
  -21.5152   -5.6030   23.4986 C   0  0  0  0  0  0  0  0  0  0  0  0
  -24.5886  -11.7023   20.8118 C   0  0  0  0  0  0  0  0  0  0  0  0
  -29.8457  -18.6378   17.6256 C   0  0  0  0  0  0  0  0  0  0  0  0
  -25.1738  -13.8109   20.5966 C   0  0  0  0  0  0  0  0  0  0  0  0
  -29.9009  -20.5772   18.8325 C   0  0  0  0  0  0  0  0  0  0  0  0
  -22.7247  -13.4683   20.9612 C   0  0  0  0  0  0  0  0  0  0  0  0
  -28.6427  -29.2538   20.5440 C   0  0  0  0  0  0  0  0  0  0  0  0
  -27.0626  -29.8644   17.7776 C   0  0  0  0  0  0  0  0  0  0  0  0
  -25.9325  -28.7106   14.7712 C   0  0  0  0  0  0  0  0  0  0  0  0
  -29.8749  -14.6281   17.5304 C   0  0  0  0  0  0  0  0  0  0  0  0
  -27.0053  -33.3000   23.1906 C   0  0  0  0  0  0  0  0  0  0  0  0
  -30.2973  -28.4337   18.8277 C   0  0  0  0  0  0  0  0  0  0  0  0
  -27.5654  -27.4435   18.2794 C   0  0  0  0  0  0  0  0  0  0  0  0
  -28.6228  -16.5984   18.5186 C   0  0  0  0  0  0  0  0  0  0  0  0
  -30.2633  -17.8715   16.3988 C   0  0  0  0  0  0  0  0  0  0  0  0
  -26.3614  -32.2579   22.2797 C   0  0  0  0  0  0  0  0  0  0  0  0
  -30.1097  -12.7431   20.7006 C   0  0  0  0  0  0  0  0  0  0  0  0
  -26.7916  -30.8527   22.6885 C   0  0  0  0  0  0  0  0  0  0  0  0
  -28.6553  -12.3576   20.9684 C   0  0  0  0  0  0  0  0  0  0  0  0
  -30.3927  -12.8908   19.2084 C   0  0  0  0  0  0  0  0  0  0  0  0
  -28.0223  -13.4423   18.7782 C   0  0  0  0  0  0  0  0  0  0  0  0
  -28.3095  -30.6798   22.5555 C   0  0  1  0  0  0  0  0  0  0  0  0
  -29.0634  -29.2879   19.1019 C   0  0  1  0  0  0  0  0  0  0  0  0
  -27.6908  -13.3351   20.2738 C   0  0  1  0  0  0  0  0  0  0  0  0
  -29.3953  -16.6323   16.1396 C   0  0  2  0  0  0  0  0  0  0  0  0
  -28.0434  -16.9850   15.5109 C   0  0  0  0  0  0  0  0  0  0  0  0
  -24.6406  -29.4312   12.7441 C   0  0  0  0  0  0  0  0  0  0  0  0
  -24.4633  -29.6518   19.3616 C   0  0  0  0  0  0  0  0  0  0  0  0
  -23.2393  -29.4275   17.1891 C   0  0  0  0  0  0  0  0  0  0  0  0
  -24.5170  -31.5107   17.6895 C   0  0  0  0  0  0  0  0  0  0  0  0
  -28.2372  -28.2130   12.9824 C   0  0  0  0  0  0  0  0  0  0  0  0
  -30.3481  -21.9949   18.9470 C   0  0  0  0  0  0  0  0  0  1  0  0
  -25.7746  -29.3839   17.1537 C   0  0  1  0  0  0  0  0  0  0  0  0
  -26.0188  -29.2928   13.3719 C   0  0  2  0  0  0  0  0  0  0  0  0
  -24.5194  -29.9754   17.8552 C   0  0  0  0  0  0  0  0  0  0  0  0
  -29.1795  -20.0902   19.8573 N   0  0  0  0  0  0  0  0  0  0  0  0
  -25.9111  -11.6655   20.6288 N   0  0  0  0  0  0  0  0  0  0  0  0
  -30.2636  -19.9217   17.7138 N   0  0  0  0  0  0  0  0  0  0  0  0
  -26.2376  -12.9628   20.5009 N   0  0  0  0  0  0  0  0  0  0  0  0
  -27.9033  -28.8761   18.3089 N   0  0  0  0  0  0  0  0  0  0  0  0
  -29.2253  -15.8680   17.3886 N   0  0  0  0  0  0  0  0  0  0  0  0
  -29.4342  -13.7937   18.5706 N   0  0  0  0  0  0  0  0  0  0  0  0
  -25.3243  -15.1483   20.4911 N   0  0  0  0  0  0  0  0  0  0  0  0
  -21.7174  -12.5148   21.1626 N   0  0  0  0  0  0  0  0  0  0  0  0
  -28.6765  -30.4857   21.1691 N   0  0  0  0  0  0  0  0  0  0  0  0
  -25.8679  -29.6975   15.7319 N   0  0  0  0  0  0  0  0  0  0  0  0
  -26.8481  -28.4169   12.4967 N   0  3  0  0  0  0  0  0  0  0  0  0
  -22.4183  -14.6837   20.9104 O   0  0  0  0  0  0  0  0  0  0  0  0
  -28.3106  -28.1890   21.0515 O   0  0  0  0  0  0  0  0  0  0  0  0
  -27.3167  -31.0714   17.7867 O   0  0  0  0  0  0  0  0  0  0  0  0
  -25.9196  -27.5012   14.9899 O   0  0  0  0  0  0  0  0  0  0  0  0
  -30.8013  -14.2903   16.7828 O   0  0  0  0  0  0  0  0  0  0  0  0
  -21.7190   -6.9551   21.5164 O   0  0  0  0  0  0  0  0  0  0  0  0
  -29.2440  -22.8593   18.7080 O   0  0  0  0  0  0  0  0  0  1  0  0
  -23.8104   -3.1824   24.9510 F   0  0  0  0  0  0  0  0  0  0  0  0
  -20.3058   -6.1259   23.7431 F   0  0  0  0  0  0  0  0  0  0  0  0
  1  2  1  0  0  0  0
  1  5  2  0  0  0  0
  2  6  2  0  0  0  0
  3  8  2  0  0  0  0
  3 16  1  0  0  0  0
  4  9  1  0  0  0  0
  4 16  2  0  0  0  0
  5 18  1  0  0  0  0
  6 20  1  0  0  0  0
  7 10  2  0  0  0  0
  7 19  1  0  0  0  0
  8 23  1  0  0  0  0
  9 23  2  0  0  0  0
 10 24  1  0  0  0  0
 11 12  2  0  0  0  0
 11 25  1  0  0  0  0
 12 26  1  0  0  0  0
 13 21  1  0  0  0  0
 13 24  2  0  0  0  0
 14 26  2  0  0  0  0
 14 27  1  0  0  0  0
 15 22  1  0  0  0  0
 15 62  2  0  0  0  0
 16 28  1  0  0  0  0
 17 28  1  0  0  0  0
 17 30  2  0  0  0  0
 17 32  1  0  0  0  0
 18 20  2  0  0  0  0
 18 37  1  0  0  0  0
 19 21  2  0  0  0  0
 19 38  1  0  0  0  0
 20 48  1  0  0  0  0
 21 39  1  0  0  0  0
 22 29  2  0  0  0  0
 22 40  1  0  0  0  0
 23 79  1  0  0  0  0
 24 80  1  0  0  0  0
 25 27  2  0  0  0  0
 25 79  1  0  0  0  0
 26 81  1  0  0  0  0
 27 82  1  0  0  0  0
 28 63  2  0  0  0  0
 29 41  1  0  0  0  0
 29 64  1  0  0  0  0
 30 65  1  0  0  0  0
 30 69  1  0  0  0  0
 31 58  1  0  0  0  0
 31 62  1  0  0  0  0
 31 64  2  0  0  0  0
 32 70  1  0  0  0  0
 32 74  2  0  0  0  0
 33 49  1  0  0  0  0
 33 71  1  0  0  0  0
 33 75  2  0  0  0  0
 34 59  1  0  0  0  0
 34 66  1  0  0  0  0
 34 76  2  0  0  0  0
 35 60  1  0  0  0  0
 35 72  1  0  0  0  0
 35 77  2  0  0  0  0
 36 67  1  0  0  0  0
 36 68  1  0  0  0  0
 36 78  2  0  0  0  0
 37 42  1  0  0  0  0
 38 49  1  0  0  0  0
 39 66  1  0  0  0  0
 40 67  1  0  0  0  0
 41 51  1  0  0  0  0
 42 44  1  0  0  0  0
 43 45  1  0  0  0  0
 43 46  1  0  0  0  0
 44 48  1  0  0  0  0
 45 50  1  0  0  0  0
 46 68  1  0  0  0  0
 47 50  1  0  0  0  0
 47 68  1  0  0  0  0
 48 71  1  0  0  0  0
 49 66  1  0  0  0  0
 50 65  1  0  0  0  0
 51 52  1  0  0  0  0
 51 67  1  0  0  0  0
 53 60  1  0  0  0  0
 54 61  1  0  0  0  0
 55 61  1  0  0  0  0
 56 61  1  0  0  0  0
 57 73  1  0  0  0  0
 58 80  1  0  0  0  0
 59 61  1  0  0  0  0
 59 72  1  0  0  0  0
 60 73  1  0  0  0  0
 63 65  1  0  0  0  0
M  CHG  1  73   1
M  ISO  4  36 100  58 101  67 100  80 101
M  END
> <Batch ID>
0193

> <Smiles>
CNC(C)C(=O)NC(C(=O)N1Cc2cc([101O:1][101CH2:1]c3ncc4c(n3)CC(C)[100N:0]([100C:0](=O)N3CCCC(n5nc(-c6ccc(Oc7ccc(F)cc7F)cc6)c(C(N)=O)c5N)C3)C4)ccc2CC1C(=O)NC1CCCc2ccccc21)C(C)(C)C

> <Shape>
0.268

> <Color>
0.222

> <Negative vol penalty>
0.000

$$$$

  -OEChem-04052323323D

 94103  0     1  0  0  0  0  0999 V2000
  -27.5511  -32.3139   27.9690 C   0  0  0  0  0  0  0  0  0  0  0  0
  -27.8467  -31.5730   26.8293 C   0  0  0  0  0  0  0  0  0  0  0  0
  -22.6707  -13.7124   20.5783 C   0  0  0  0  0  0  0  0  0  0  0  0
  -22.6523  -11.8722   19.0129 C   0  0  0  0  0  0  0  0  0  0  0  0
  -26.2356  -32.3970   28.4233 C   0  0  0  0  0  0  0  0  0  0  0  0
  -26.8270  -30.9137   26.1437 C   0  0  0  0  0  0  0  0  0  0  0  0
  -27.1451  -31.5293   21.1272 C   0  0  0  0  0  0  0  0  0  0  0  0
  -21.4326  -14.1358   20.0952 C   0  0  0  0  0  0  0  0  0  0  0  0
  -21.4141  -12.2955   18.5298 C   0  0  0  0  0  0  0  0  0  0  0  0
  -28.0890  -30.7586   20.4498 C   0  0  0  0  0  0  0  0  0  0  0  0
  -20.2506  -15.8345   17.4228 C   0  0  0  0  0  0  0  0  0  0  0  0
  -20.0853  -17.1965   17.1710 C   0  0  0  0  0  0  0  0  0  0  0  0
  -26.3492  -29.2278   19.7797 C   0  0  0  0  0  0  0  0  0  0  0  0
  -18.2791  -17.2735   18.7737 C   0  0  0  0  0  0  0  0  0  0  0  0
  -28.6138  -21.1333   18.8271 C   0  0  0  0  0  0  0  0  0  0  0  0
  -23.2806  -12.5806   20.0371 C   0  0  0  0  0  0  0  0  0  0  0  0
  -24.7983  -11.2426   21.5908 C   0  0  0  0  0  0  0  0  0  0  0  0
  -25.1978  -31.7464   27.7374 C   0  0  0  0  0  0  0  0  0  0  0  0
  -25.7957  -31.1484   21.1451 C   0  0  0  0  0  0  0  0  0  0  0  0
  -25.4965  -30.9871   26.5900 C   0  0  0  0  0  0  0  0  0  0  0  0
  -25.3898  -29.9967   20.4559 C   0  0  0  0  0  0  0  0  0  0  0  0
  -28.0201  -20.5353   19.9200 C   0  0  0  0  0  0  0  0  0  0  0  0
  -20.8043  -13.4273   19.0710 C   0  0  0  0  0  0  0  0  0  0  0  0
  -27.6916  -29.6061   19.7783 C   0  0  0  0  0  0  0  0  0  0  0  0
  -19.4301  -15.1920   18.3500 C   0  0  0  0  0  0  0  0  0  0  0  0
  -19.0996  -17.9160   17.8465 C   0  0  0  0  0  0  0  0  0  0  0  0
  -18.4444  -15.9116   19.0255 C   0  0  0  0  0  0  0  0  0  0  0  0
  -24.5598  -12.1431   20.5353 C   0  0  0  0  0  0  0  0  0  0  0  0
  -27.7198  -21.3771   20.9713 C   0  0  0  0  0  0  0  0  0  0  0  0
  -26.1670  -11.1607   21.6697 C   0  0  0  0  0  0  0  0  0  0  0  0
  -28.5557  -23.1654   19.8442 C   0  0  0  0  0  0  0  0  0  0  0  0
  -23.8658  -10.5427   22.4253 C   0  0  0  0  0  0  0  0  0  0  0  0
  -23.7264  -30.3280   23.4142 C   0  0  0  0  0  0  0  0  0  0  0  0
  -21.6141  -30.3515   20.9526 C   0  0  0  0  0  0  0  0  0  0  0  0
  -21.0789  -30.0970   17.5917 C   0  0  0  0  0  0  0  0  0  0  0  0
  -30.5487  -14.8946   20.0411 C   0  0  0  0  0  0  0  0  0  0  0  0
  -23.7981  -31.8264   28.2935 C   0  0  0  0  0  0  0  0  0  0  0  0
  -24.7856  -32.0051   21.8582 C   0  0  0  0  0  0  0  0  0  0  0  0
  -23.9500  -29.5556   20.4277 C   0  0  0  0  0  0  0  0  0  0  0  0
  -22.7216  -31.4061   27.2962 C   0  0  0  0  0  0  0  0  0  0  0  0
  -30.1136  -11.5401   19.0232 C   0  0  0  0  0  0  0  0  0  0  0  0
  -23.1153  -30.1064   26.6017 C   0  0  0  0  0  0  0  0  0  0  0  0
  -28.6569  -11.2310   19.3575 C   0  0  0  0  0  0  0  0  0  0  0  0
  -29.9655  -18.4272   20.9782 C   0  0  0  0  0  0  0  0  0  0  0  0
  -30.2612  -12.9699   18.5204 C   0  0  0  0  0  0  0  0  0  0  0  0
  -30.8550  -17.1962   20.9006 C   0  0  0  0  0  0  0  0  0  0  0  0
  -28.7367  -16.7053   19.8849 C   0  0  0  0  0  0  0  0  0  0  0  0
  -28.3091  -13.7044   19.8618 C   0  0  0  0  0  0  0  0  0  0  0  0
  -24.4142  -30.2782   25.8049 C   0  0  1  0  0  0  0  0  0  0  0  0
  -23.5203  -31.2437   22.2409 C   0  0  1  0  0  0  0  0  0  0  0  0
  -28.9911  -18.2112   19.8197 C   0  0  1  0  0  0  0  0  0  0  0  0
  -28.1009  -12.2579   20.3561 C   0  0  1  0  0  0  0  0  0  0  0  0
  -26.7085  -18.6667   18.8513 C   0  0  0  0  0  0  0  0  0  0  0  0
  -19.2418  -30.1187   15.8823 C   0  0  0  0  0  0  0  0  0  0  0  0
  -22.6741  -20.8339   22.5922 C   0  0  0  0  0  0  0  0  0  0  0  0
  -23.3266  -18.4984   21.9378 C   0  0  0  0  0  0  0  0  0  0  0  0
  -30.5665  -26.9309   20.1445 C   0  0  0  0  0  0  0  0  0  0  0  0
  -20.8308  -27.5157   21.7619 C   0  0  0  0  0  0  0  0  0  0  0  0
  -19.7405  -27.2527   19.5235 C   0  0  0  0  0  0  0  0  0  0  0  0
  -18.9119  -28.9841   21.1168 C   0  0  0  0  0  0  0  0  0  0  0  0
  -22.2108  -32.4716   16.2356 C   0  0  0  0  0  0  0  0  0  0  0  0
  -27.0722  -20.8415   22.2056 C   0  0  0  0  0  0  0  0  0  0  0  0
  -29.4504  -25.1823   18.6792 C   0  0  0  0  0  0  0  0  0  0  0  0
  -24.9753  -19.9480   23.2271 C   0  0  0  0  0  0  0  0  0  0  0  0
  -28.3565  -27.4511   19.0235 C   0  0  0  0  0  0  0  0  0  1  0  0
  -27.7259  -19.0421   19.9380 C   0  0  2  0  0  0  0  0  0  0  0  0
  -21.1283  -29.3318   19.9510 C   0  0  1  0  0  0  0  0  0  0  0  0
  -20.2692  -30.9514   16.6331 C   0  0  2  0  0  0  0  0  0  0  0  0
  -23.5020  -19.6067   22.9772 C   0  0  0  0  0  0  0  0  0  0  0  0
  -29.6790  -26.6811   18.9200 C   0  0  1  0  0  0  0  0  0  0  0  0
  -20.1804  -28.2781   20.5903 C   0  0  0  0  0  0  0  0  0  0  0  0
  -28.8969  -22.4505   18.7552 N   0  0  0  0  0  0  0  0  0  0  0  0
  -25.6868  -12.6007   19.9834 N   0  0  0  0  0  0  0  0  0  0  0  0
  -27.9748  -22.7020   20.9673 N   0  0  0  0  0  0  0  0  0  0  0  0
  -26.6466  -11.9853   20.6949 N   0  0  0  0  0  0  0  0  0  0  0  0
  -23.0011  -30.4231   21.1449 N   0  0  0  0  0  0  0  0  0  0  0  0
  -29.7038  -13.9391   19.4656 N   0  0  0  0  0  0  0  0  0  0  0  0
  -30.0098  -16.1443   20.3441 N   0  0  0  0  0  0  0  0  0  0  0  0
  -26.9952  -10.4646   22.4772 N   0  0  0  0  0  0  0  0  0  0  0  0
  -22.4955  -10.7415   22.2088 N   0  0  0  0  0  0  0  0  0  0  0  0
  -28.8368  -24.5487   19.8038 N   0  0  0  0  0  0  0  0  0  0  0  0
  -24.1559  -30.9698   24.5601 N   0  0  0  0  0  0  0  0  0  0  0  0
  -20.5296  -30.0879   18.8563 N   0  0  0  0  0  0  0  0  0  0  0  0
  -21.1654  -31.6027   15.6363 N   0  3  0  0  0  0  0  0  0  0  0  0
  -25.6266  -20.5358   22.0272 N   0  3  0  0  0  0  0  0  0  0  0  0
  -24.2370   -9.7766   23.3467 O   0  0  0  0  0  0  0  0  0  0  0  0
  -23.5103  -29.1282   23.2896 O   0  0  0  0  0  0  0  0  0  0  0  0
  -20.7937  -31.0633   21.5373 O   0  0  0  0  0  0  0  0  0  0  0  0
  -22.0948  -29.4947   17.2516 O   0  0  0  0  0  0  0  0  0  0  0  0
  -31.7481  -14.6567   20.2380 O   0  0  0  0  0  0  0  0  0  0  0  0
  -19.5960  -13.8400   18.5995 O   0  0  0  0  0  0  0  0  0  0  0  0
  -28.6172  -28.8465   19.1122 O   0  0  0  0  0  0  0  0  0  1  0  0
  -18.9419  -19.2242   17.6057 F   0  0  0  0  0  0  0  0  0  0  0  0
  -17.6539  -15.3001   19.9182 F   0  0  0  0  0  0  0  0  0  0  0  0
  1  2  1  0  0  0  0
  1  5  2  0  0  0  0
  2  6  2  0  0  0  0
  3  8  2  0  0  0  0
  3 16  1  0  0  0  0
  4  9  1  0  0  0  0
  4 16  2  0  0  0  0
  5 18  1  0  0  0  0
  6 20  1  0  0  0  0
  7 10  2  0  0  0  0
  7 19  1  0  0  0  0
  8 23  1  0  0  0  0
  9 23  2  0  0  0  0
 10 24  1  0  0  0  0
 11 12  2  0  0  0  0
 11 25  1  0  0  0  0
 12 26  1  0  0  0  0
 13 21  1  0  0  0  0
 13 24  2  0  0  0  0
 14 26  2  0  0  0  0
 14 27  1  0  0  0  0
 15 22  1  0  0  0  0
 15 72  2  0  0  0  0
 16 28  1  0  0  0  0
 17 28  1  0  0  0  0
 17 30  2  0  0  0  0
 17 32  1  0  0  0  0
 18 20  2  0  0  0  0
 18 37  1  0  0  0  0
 19 21  2  0  0  0  0
 19 38  1  0  0  0  0
 20 49  1  0  0  0  0
 21 39  1  0  0  0  0
 22 29  2  0  0  0  0
 22 66  1  0  0  0  0
 23 91  1  0  0  0  0
 24 92  1  0  0  0  0
 25 27  2  0  0  0  0
 25 91  1  0  0  0  0
 26 93  1  0  0  0  0
 27 94  1  0  0  0  0
 28 73  2  0  0  0  0
 29 62  1  0  0  0  0
 29 74  1  0  0  0  0
 30 75  1  0  0  0  0
 30 79  1  0  0  0  0
 31 72  1  0  0  0  0
 31 74  2  0  0  0  0
 31 81  1  0  0  0  0
 32 80  1  0  0  0  0
 32 86  2  0  0  0  0
 33 50  1  0  0  0  0
 33 82  1  0  0  0  0
 33 87  2  0  0  0  0
 34 67  1  0  0  0  0
 34 76  1  0  0  0  0
 34 88  2  0  0  0  0
 35 68  1  0  0  0  0
 35 83  1  0  0  0  0
 35 89  2  0  0  0  0
 36 77  1  0  0  0  0
 36 78  1  0  0  0  0
 36 90  2  0  0  0  0
 37 40  1  0  0  0  0
 38 50  1  0  0  0  0
 39 76  1  0  0  0  0
 40 42  1  0  0  0  0
 41 43  1  0  0  0  0
 41 45  1  0  0  0  0
 42 49  1  0  0  0  0
 43 52  1  0  0  0  0
 44 46  1  0  0  0  0
 44 51  1  0  0  0  0
 45 77  1  0  0  0  0
 46 78  1  0  0  0  0
 47 51  1  0  0  0  0
 47 78  1  0  0  0  0
 48 52  1  0  0  0  0
 48 77  1  0  0  0  0
 49 82  1  0  0  0  0
 50 76  1  0  0  0  0
 51 66  1  0  0  0  0
 52 75  1  0  0  0  0
 53 66  1  0  0  0  0
 54 68  1  0  0  0  0
 55 69  1  0  0  0  0
 56 69  1  0  0  0  0
 57 70  1  0  0  0  0
 58 71  1  0  0  0  0
 59 71  1  0  0  0  0
 60 71  1  0  0  0  0
 61 84  1  0  0  0  0
 62 85  1  0  0  0  0
 63 70  1  0  0  0  0
 63 81  1  0  0  0  0
 64 69  1  0  0  0  0
 64 85  1  0  0  0  0
 65 70  1  0  0  0  0
 65 92  1  0  0  0  0
 67 71  1  0  0  0  0
 67 83  1  0  0  0  0
 68 84  1  0  0  0  0
 73 75  1  0  0  0  0
M  CHG  2  84   1  85   1
M  ISO  4  36 100  65 101  78 100  92 101
M  END
> <Batch ID>
0193

> <Smiles>
CNC(C)C(=O)NC(C(=O)N1Cc2cc([101O:1][101CH2:1]C(C)CNc3ncc(C(C)C4CC[100N:0]([100C:0](=O)N5CCCC(n6nc(-c7ccc(Oc8ccc(F)cc8F)cc7)c(C(N)=O)c6N)C5)C4)c(CNCC(C)C)n3)ccc2CC1C(=O)NC1CCCc2ccccc21)C(C)(C)C

> <Shape>
0.293

> <Color>
0.086

> <Negative vol penalty>
0.000

$$$$

  -OEChem-04052323323D

 80 89  0     1  0  0  0  0  0999 V2000
  -27.3949  -33.7289   26.0052 C   0  0  0  0  0  0  0  0  0  0  0  0
  -27.6600  -32.5179   25.3737 C   0  0  0  0  0  0  0  0  0  0  0  0
  -27.5284  -12.5228   20.7761 C   0  0  0  0  0  0  0  0  0  0  0  0
  -27.4734  -12.6319   18.3632 C   0  0  0  0  0  0  0  0  0  0  0  0
  -26.0823  -34.0755   26.3226 C   0  0  0  0  0  0  0  0  0  0  0  0
  -26.6126  -31.6524   25.0602 C   0  0  0  0  0  0  0  0  0  0  0  0
  -26.9957  -29.7536   20.3813 C   0  0  0  0  0  0  0  0  0  0  0  0
  -26.6631  -11.4292   20.7463 C   0  0  0  0  0  0  0  0  0  0  0  0
  -26.6082  -11.5382   18.3334 C   0  0  0  0  0  0  0  0  0  0  0  0
  -27.9035  -28.7131   20.1887 C   0  0  0  0  0  0  0  0  0  0  0  0
  -24.1831   -8.8325   21.3214 C   0  0  0  0  0  0  0  0  0  0  0  0
  -23.1162   -8.8232   22.2198 C   0  0  0  0  0  0  0  0  0  0  0  0
  -26.0924  -27.1227   20.2871 C   0  0  0  0  0  0  0  0  0  0  0  0
  -22.2819  -10.8729   21.2504 C   0  0  0  0  0  0  0  0  0  0  0  0
  -27.9335  -13.1242   19.5845 C   0  0  0  0  0  0  0  0  0  0  0  0
  -30.2340  -14.2267   19.5810 C   0  0  0  0  0  0  0  0  0  0  0  0
  -25.0173  -33.2181   26.0042 C   0  0  0  0  0  0  0  0  0  0  0  0
  -25.6284  -29.4851   20.5394 C   0  0  0  0  0  0  0  0  0  0  0  0
  -25.2846  -31.9873   25.3749 C   0  0  0  0  0  0  0  0  0  0  0  0
  -25.1690  -28.1617   20.4790 C   0  0  0  0  0  0  0  0  0  0  0  0
  -26.2030  -10.9369   19.5250 C   0  0  0  0  0  0  0  0  0  0  0  0
  -27.4523  -27.3972   20.1445 C   0  0  0  0  0  0  0  0  0  0  0  0
  -24.2995   -9.8621   20.3875 C   0  0  0  0  0  0  0  0  0  0  0  0
  -22.1656   -9.8433   22.1843 C   0  0  0  0  0  0  0  0  0  0  0  0
  -23.3489  -10.8823   20.3520 C   0  0  0  0  0  0  0  0  0  0  0  0
  -28.8269  -14.2543   19.6145 C   0  0  0  0  0  0  0  0  0  0  0  0
  -30.6046  -15.5483   19.6315 C   0  0  0  0  0  0  0  0  0  0  0  0
  -31.1262  -13.1066   19.5105 C   0  0  0  0  0  0  0  0  0  0  0  0
  -23.5047  -29.9498   22.8583 C   0  0  0  0  0  0  0  0  0  0  0  0
  -21.4130  -28.8683   20.6272 C   0  0  0  0  0  0  0  0  0  0  0  0
  -20.8883  -27.0440   17.7912 C   0  0  0  0  0  0  0  0  0  0  0  0
  -27.6092  -20.4590   18.0085 C   0  0  0  0  0  0  0  0  0  0  0  0
  -23.6198  -33.6148   26.4096 C   0  0  0  0  0  0  0  0  0  0  0  0
  -24.6586  -30.6206   20.7196 C   0  0  0  0  0  0  0  0  0  0  0  0
  -23.7087  -27.8219   20.6230 C   0  0  0  0  0  0  0  0  0  0  0  0
  -22.5300  -32.8100   25.7062 C   0  0  0  0  0  0  0  0  0  0  0  0
  -29.1360  -19.7925   21.2752 C   0  0  0  0  0  0  0  0  0  0  0  0
  -22.8616  -31.3214   25.7370 C   0  0  0  0  0  0  0  0  0  0  0  0
  -29.3385  -18.2778   21.2132 C   0  0  0  0  0  0  0  0  0  0  0  0
  -27.6147  -25.7424   15.5376 C   0  0  0  0  0  0  0  0  0  0  0  0
  -28.1295  -26.9501   16.2684 C   0  0  0  0  0  0  0  0  0  0  0  0
  -27.8696  -20.2042   20.5342 C   0  0  0  0  0  0  0  0  0  0  0  0
  -28.0193  -18.2524   19.0412 C   0  0  0  0  0  0  0  0  0  0  0  0
  -28.9346  -22.6153   18.6793 C   0  0  0  0  0  0  0  0  0  0  0  0
  -27.6604  -22.7968   16.9837 C   0  0  0  0  0  0  0  0  0  0  0  0
  -24.1729  -31.0329   24.9963 C   0  0  1  0  0  0  0  0  0  0  0  0
  -23.3535  -30.1922   21.3832 C   0  0  1  0  0  0  0  0  0  0  0  0
  -29.2914  -17.7677   19.7611 C   0  0  2  0  0  0  0  0  0  0  0  0
  -28.9101  -25.6670   16.2941 C   0  0  0  0  0  0  0  0  0  0  0  0
  -29.0007  -23.4272   17.3784 C   0  0  0  0  0  0  0  0  0  0  0  0
  -19.0663  -26.3131   16.2280 C   0  0  0  0  0  0  0  0  0  0  0  0
  -20.4805  -26.8119   22.6795 C   0  0  0  0  0  0  0  0  0  0  0  0
  -19.3934  -25.5455   20.8133 C   0  0  0  0  0  0  0  0  0  0  0  0
  -18.6435  -27.8638   21.3478 C   0  0  0  0  0  0  0  0  0  0  0  0
  -22.1491  -28.4185   15.4933 C   0  0  0  0  0  0  0  0  0  0  0  0
  -30.0012  -25.4028   18.5171 C   0  0  0  0  0  0  0  0  0  0  0  0
  -29.5056  -26.6660   19.1929 C   0  0  0  0  0  0  0  0  0  1  0  0
  -20.8825  -27.5127   20.2273 C   0  0  1  0  0  0  0  0  0  0  0  0
  -20.1298  -27.3616   16.5151 C   0  0  2  0  0  0  0  0  0  0  0  0
  -19.8778  -26.9394   21.2662 C   0  0  0  0  0  0  0  0  0  0  0  0
  -28.3369  -15.4950   19.6813 N   0  0  0  0  0  0  0  0  0  0  0  0
  -29.4423  -16.2594   19.6902 N   0  0  0  0  0  0  0  0  0  0  0  0
  -22.8005  -28.9664   20.8035 N   0  0  0  0  0  0  0  0  0  0  0  0
  -27.8864  -19.7086   19.1544 N   0  0  0  0  0  0  0  0  0  0  0  0
  -27.9335  -21.7954   18.0121 N   0  0  0  0  0  0  0  0  0  0  0  0
  -31.8081  -16.1598   19.6310 N   0  0  0  0  0  0  0  0  0  0  0  0
  -30.5781  -11.8175   19.4654 N   0  0  0  0  0  0  0  0  0  0  0  0
  -23.9586  -31.0469   23.5651 N   0  0  0  0  0  0  0  0  0  0  0  0
  -20.3306  -27.6699   18.8860 N   0  0  0  0  0  0  0  0  0  0  0  0
  -21.0648  -27.4124   15.3558 N   0  3  0  0  0  0  0  0  0  0  0  0
  -28.9256  -24.8778   17.5877 N   0  3  1  0  0  0  0  0  0  0  0  0
  -32.3731  -13.2441   19.5046 O   0  0  0  0  0  0  0  0  0  0  0  0
  -23.2285  -28.8493   23.3212 O   0  0  0  0  0  0  0  0  0  0  0  0
  -20.6261  -29.8073   20.7708 O   0  0  0  0  0  0  0  0  0  0  0  0
  -21.8744  -26.3109   17.8150 O   0  0  0  0  0  0  0  0  0  0  0  0
  -27.1150  -19.9452   16.9960 O   0  0  0  0  0  0  0  0  0  0  0  0
  -25.3589   -9.8696   19.4957 O   0  0  0  0  0  0  0  0  0  0  0  0
  -28.3427  -26.3725   19.9560 O   0  0  0  0  0  0  0  0  0  1  0  0
  -21.1402   -9.8334   23.0461 F   0  0  0  0  0  0  0  0  0  0  0  0
  -23.4547  -11.8734   19.4563 F   0  0  0  0  0  0  0  0  0  0  0  0
  1  2  1  0  0  0  0
  1  5  2  0  0  0  0
  2  6  2  0  0  0  0
  3  8  2  0  0  0  0
  3 15  1  0  0  0  0
  4  9  1  0  0  0  0
  4 15  2  0  0  0  0
  5 17  1  0  0  0  0
  6 19  1  0  0  0  0
  7 10  2  0  0  0  0
  7 18  1  0  0  0  0
  8 21  1  0  0  0  0
  9 21  2  0  0  0  0
 10 22  1  0  0  0  0
 11 12  2  0  0  0  0
 11 23  1  0  0  0  0
 12 24  1  0  0  0  0
 13 20  1  0  0  0  0
 13 22  2  0  0  0  0
 14 24  2  0  0  0  0
 14 25  1  0  0  0  0
 15 26  1  0  0  0  0
 16 26  1  0  0  0  0
 16 27  2  0  0  0  0
 16 28  1  0  0  0  0
 17 19  2  0  0  0  0
 17 33  1  0  0  0  0
 18 20  2  0  0  0  0
 18 34  1  0  0  0  0
 19 46  1  0  0  0  0
 20 35  1  0  0  0  0
 21 77  1  0  0  0  0
 22 78  1  0  0  0  0
 23 25  2  0  0  0  0
 23 77  1  0  0  0  0
 24 79  1  0  0  0  0
 25 80  1  0  0  0  0
 26 61  2  0  0  0  0
 27 62  1  0  0  0  0
 27 66  1  0  0  0  0
 28 67  1  0  0  0  0
 28 72  2  0  0  0  0
 29 47  1  0  0  0  0
 29 68  1  0  0  0  0
 29 73  2  0  0  0  0
 30 58  1  0  0  0  0
 30 63  1  0  0  0  0
 30 74  2  0  0  0  0
 31 59  1  0  0  0  0
 31 69  1  0  0  0  0
 31 75  2  0  0  0  0
 32 64  1  0  0  0  0
 32 65  1  0  0  0  0
 32 76  2  0  0  0  0
 33 36  1  0  0  0  0
 34 47  1  0  0  0  0
 35 63  1  0  0  0  0
 36 38  1  0  0  0  0
 37 39  1  0  0  0  0
 37 42  1  0  0  0  0
 38 46  1  0  0  0  0
 39 48  1  0  0  0  0
 40 41  1  0  0  0  0
 40 49  1  0  0  0  0
 41 49  1  0  0  0  0
 42 64  1  0  0  0  0
 43 48  1  0  0  0  0
 43 64  1  0  0  0  0
 44 50  1  0  0  0  0
 44 65  1  0  0  0  0
 45 50  1  0  0  0  0
 45 65  1  0  0  0  0
 46 68  1  0  0  0  0
 47 63  1  0  0  0  0
 48 62  1  0  0  0  0
 49 71  1  0  0  0  0
 50 71  1  0  0  0  0
 51 59  1  0  0  0  0
 52 60  1  0  0  0  0
 53 60  1  0  0  0  0
 54 60  1  0  0  0  0
 55 70  1  0  0  0  0
 56 57  1  0  0  0  0
 56 71  1  0  0  0  0
 57 78  1  0  0  0  0
 58 60  1  0  0  0  0
 58 69  1  0  0  0  0
 59 70  1  0  0  0  0
 61 62  1  0  0  0  0
M  CHG  2  70   1  71   1
M  ISO  4  32 100  57 101  65 100  78 101
M  END
> <Batch ID>
0193

> <Smiles>
CNC(C)C(=O)NC(C(=O)N1Cc2cc([101O:1][101CH2:1]CN(C3CC3)C3C[100N:0]([100C:0](=O)N4CCCC(n5nc(-c6ccc(Oc7ccc(F)cc7F)cc6)c(C(N)=O)c5N)C4)C3)ccc2CC1C(=O)NC1CCCc2ccccc21)C(C)(C)C

> <Shape>
0.321

> <Color>
0.073

> <Negative vol penalty>
0.000

$$$$

  -OEChem-04052323323D

 85 94  0     1  0  0  0  0  0999 V2000
  -29.1157  -36.5081   22.6320 C   0  0  0  0  0  0  0  0  0  0  0  0
  -29.3509  -35.2745   22.0334 C   0  0  0  0  0  0  0  0  0  0  0  0
  -24.3019   -8.9123   20.5244 C   0  0  0  0  0  0  0  0  0  0  0  0
  -22.8444  -10.7692   21.0393 C   0  0  0  0  0  0  0  0  0  0  0  0
  -28.2097  -36.6084   23.6869 C   0  0  0  0  0  0  0  0  0  0  0  0
  -28.6810  -34.1401   22.4903 C   0  0  0  0  0  0  0  0  0  0  0  0
  -26.7662  -29.3921   19.1294 C   0  0  0  0  0  0  0  0  0  0  0  0
  -23.3133   -8.0209   20.9412 C   0  0  0  0  0  0  0  0  0  0  0  0
  -21.8558   -9.8777   21.4560 C   0  0  0  0  0  0  0  0  0  0  0  0
  -27.3105  -28.1306   18.8922 C   0  0  0  0  0  0  0  0  0  0  0  0
  -22.0987   -6.8379   23.8652 C   0  0  0  0  0  0  0  0  0  0  0  0
  -22.4864   -5.7788   24.6859 C   0  0  0  0  0  0  0  0  0  0  0  0
  -25.9310  -27.2124   20.6453 C   0  0  0  0  0  0  0  0  0  0  0  0
  -21.6946   -4.2066   23.0311 C   0  0  0  0  0  0  0  0  0  0  0  0
  -29.9772  -23.2369   22.8852 C   0  0  0  0  0  0  0  0  0  0  0  0
  -30.5040  -22.1929   20.8631 C   0  0  0  0  0  0  0  0  0  0  0  0
  -24.0675  -10.2865   20.5735 C   0  0  0  0  0  0  0  0  0  0  0  0
  -25.2808  -11.7189   18.8462 C   0  0  0  0  0  0  0  0  0  0  0  0
  -27.5211  -35.4763   24.1506 C   0  0  0  0  0  0  0  0  0  0  0  0
  -25.8066  -29.5755   20.1354 C   0  0  0  0  0  0  0  0  0  0  0  0
  -27.7659  -34.2250   23.5533 C   0  0  0  0  0  0  0  0  0  0  0  0
  -25.3742  -28.4767   20.8915 C   0  0  0  0  0  0  0  0  0  0  0  0
  -29.9641  -23.2879   21.5062 C   0  0  0  0  0  0  0  0  0  0  0  0
  -22.0903   -8.5036   21.4069 C   0  0  0  0  0  0  0  0  0  0  0  0
  -26.8950  -27.0411   19.6521 C   0  0  0  0  0  0  0  0  0  0  0  0
  -21.5089   -6.5814   22.6274 C   0  0  0  0  0  0  0  0  0  0  0  0
  -22.2844   -4.4632   24.2689 C   0  0  0  0  0  0  0  0  0  0  0  0
  -21.3069   -5.2658   22.2104 C   0  0  0  0  0  0  0  0  0  0  0  0
  -25.0885  -11.2079   20.1438 C   0  0  0  0  0  0  0  0  0  0  0  0
  -26.3722  -12.5448   18.9607 C   0  0  0  0  0  0  0  0  0  0  0  0
  -30.9741  -21.1943   22.8503 C   0  0  0  0  0  0  0  0  0  0  0  0
  -24.5392  -11.4693   17.6448 C   0  0  0  0  0  0  0  0  0  0  0  0
  -25.6651  -31.2759   22.8172 C   0  0  0  0  0  0  0  0  0  0  0  0
  -22.5995  -30.2165   22.8670 C   0  0  0  0  0  0  0  0  0  0  0  0
  -20.3315  -27.8622   21.8872 C   0  0  0  0  0  0  0  0  0  0  0  0
  -28.5770  -15.5348   23.5397 C   0  0  0  0  0  0  0  0  0  0  0  0
  -26.5865  -35.6256   25.3249 C   0  0  0  0  0  0  0  0  0  0  0  0
  -25.2096  -30.9376   20.3608 C   0  0  0  0  0  0  0  0  0  0  0  0
  -24.3319  -28.6168   21.9697 C   0  0  0  0  0  0  0  0  0  0  0  0
  -25.6383  -34.4426   25.5029 C   0  0  0  0  0  0  0  0  0  0  0  0
  -30.3734  -13.1297   21.5202 C   0  0  0  0  0  0  0  0  0  0  0  0
  -26.4002  -33.1260   25.3899 C   0  0  0  0  0  0  0  0  0  0  0  0
  -29.2238  -12.4119   20.8111 C   0  0  0  0  0  0  0  0  0  0  0  0
  -30.0050  -13.4778   22.9597 C   0  0  0  0  0  0  0  0  0  0  0  0
  -27.6096  -13.5657   22.3918 C   0  0  0  0  0  0  0  0  0  0  0  0
  -29.5272  -18.6308   23.6887 C   0  0  0  0  0  0  0  0  0  0  0  0
  -31.0543  -18.0827   25.0014 C   0  0  0  0  0  0  0  0  0  0  0  0
  -27.0401  -32.9761   24.0044 C   0  0  1  0  0  0  0  0  0  0  0  0
  -24.6153  -31.1061   21.7557 C   0  0  1  0  0  0  0  0  0  0  0  0
  -27.9111  -13.2089   20.9249 C   0  0  2  0  0  0  0  0  0  0  0  0
  -29.6733  -17.4760   24.6957 C   0  0  0  0  0  0  0  0  0  0  0  0
  -17.9101  -27.2442   22.1158 C   0  0  0  0  0  0  0  0  0  0  0  0
  -23.1282  -29.2011   25.6953 C   0  0  0  0  0  0  0  0  0  0  0  0
  -21.0629  -27.7990   25.5031 C   0  0  0  0  0  0  0  0  0  0  0  0
  -20.8970  -30.2848   25.3760 C   0  0  0  0  0  0  0  0  0  0  0  0
  -19.8782  -28.0904   18.9715 C   0  0  0  0  0  0  0  0  0  0  0  0
  -31.5341  -20.0320   23.5981 C   0  0  0  0  0  0  0  0  0  0  0  0
  -29.4145  -24.4561   19.3710 C   0  0  0  0  0  0  0  0  0  0  0  0
  -28.7651  -25.7588   18.9348 C   0  0  0  0  0  0  0  0  0  1  0  0
  -21.8950  -29.0083   23.4352 C   0  0  1  0  0  0  0  0  0  0  0  0
  -18.9436  -27.9895   21.2856 C   0  0  2  0  0  0  0  0  0  0  0  0
  -21.7668  -29.0707   24.9834 C   0  0  0  0  0  0  0  0  0  0  0  0
  -30.4762  -22.2018   23.5922 N   0  0  0  0  0  0  0  0  0  0  0  0
  -31.0198  -21.1248   21.5062 N   0  0  0  0  0  0  0  0  0  0  0  0
  -25.9858  -11.6704   21.0183 N   0  0  0  0  0  0  0  0  0  0  0  0
  -26.7526  -12.4806   20.2689 N   0  0  0  0  0  0  0  0  0  0  0  0
  -23.7828  -29.9700   22.1564 N   0  0  0  0  0  0  0  0  0  0  0  0
  -28.7563  -14.2527   22.9964 N   0  0  0  0  0  0  0  0  0  0  0  0
  -27.0340  -13.3125   18.0690 N   0  0  0  0  0  0  0  0  0  0  0  0
  -23.4461  -10.5941   17.7040 N   0  0  0  0  0  0  0  0  0  0  0  0
  -29.4448  -24.3688   20.8130 N   0  0  0  0  0  0  0  0  0  0  0  0
  -26.0454  -32.5876   23.0277 N   0  0  0  0  0  0  0  0  0  0  0  0
  -20.6196  -28.9120   22.7334 N   0  0  0  0  0  0  0  0  0  0  0  0
  -29.7070  -16.1274   24.0932 N   0  0  0  0  0  0  0  0  0  0  0  0
  -30.5377  -19.3583   24.4759 N   0  3  0  0  0  0  0  0  0  0  0  0
  -18.9253  -27.4336   19.9030 N   0  3  0  0  0  0  0  0  0  0  0  0
  -24.8470  -11.9938   16.5477 O   0  0  0  0  0  0  0  0  0  0  0  0
  -26.0969  -30.2900   23.4031 O   0  0  0  0  0  0  0  0  0  0  0  0
  -22.1139  -31.3371   23.0409 O   0  0  0  0  0  0  0  0  0  0  0  0
  -21.0834  -26.9233   21.6347 O   0  0  0  0  0  0  0  0  0  0  0  0
  -27.4886  -16.1205   23.5305 O   0  0  0  0  0  0  0  0  0  0  0  0
  -21.1253   -7.6340   21.8133 O   0  0  0  0  0  0  0  0  0  0  0  0
  -27.4251  -25.8089   19.4231 O   0  0  0  0  0  0  0  0  0  1  0  0
  -22.6581   -3.4463   25.0565 F   0  0  0  0  0  0  0  0  0  0  0  0
  -20.7419   -5.0131   21.0218 F   0  0  0  0  0  0  0  0  0  0  0  0
  1  2  1  0  0  0  0
  1  5  2  0  0  0  0
  2  6  2  0  0  0  0
  3  8  2  0  0  0  0
  3 17  1  0  0  0  0
  4  9  1  0  0  0  0
  4 17  2  0  0  0  0
  5 19  1  0  0  0  0
  6 21  1  0  0  0  0
  7 10  2  0  0  0  0
  7 20  1  0  0  0  0
  8 24  1  0  0  0  0
  9 24  2  0  0  0  0
 10 25  1  0  0  0  0
 11 12  2  0  0  0  0
 11 26  1  0  0  0  0
 12 27  1  0  0  0  0
 13 22  1  0  0  0  0
 13 25  2  0  0  0  0
 14 27  2  0  0  0  0
 14 28  1  0  0  0  0
 15 23  1  0  0  0  0
 15 63  2  0  0  0  0
 16 23  2  0  0  0  0
 16 64  1  0  0  0  0
 17 29  1  0  0  0  0
 18 29  1  0  0  0  0
 18 30  2  0  0  0  0
 18 32  1  0  0  0  0
 19 21  2  0  0  0  0
 19 37  1  0  0  0  0
 20 22  2  0  0  0  0
 20 38  1  0  0  0  0
 21 48  1  0  0  0  0
 22 39  1  0  0  0  0
 23 71  1  0  0  0  0
 24 82  1  0  0  0  0
 25 83  1  0  0  0  0
 26 28  2  0  0  0  0
 26 82  1  0  0  0  0
 27 84  1  0  0  0  0
 28 85  1  0  0  0  0
 29 65  2  0  0  0  0
 30 66  1  0  0  0  0
 30 69  1  0  0  0  0
 31 57  1  0  0  0  0
 31 63  1  0  0  0  0
 31 64  2  0  0  0  0
 32 70  1  0  0  0  0
 32 77  2  0  0  0  0
 33 49  1  0  0  0  0
 33 72  1  0  0  0  0
 33 78  2  0  0  0  0
 34 60  1  0  0  0  0
 34 67  1  0  0  0  0
 34 79  2  0  0  0  0
 35 61  1  0  0  0  0
 35 73  1  0  0  0  0
 35 80  2  0  0  0  0
 36 68  1  0  0  0  0
 36 74  1  0  0  0  0
 36 81  2  0  0  0  0
 37 40  1  0  0  0  0
 38 49  1  0  0  0  0
 39 67  1  0  0  0  0
 40 42  1  0  0  0  0
 41 43  1  0  0  0  0
 41 44  1  0  0  0  0
 42 48  1  0  0  0  0
 43 50  1  0  0  0  0
 44 68  1  0  0  0  0
 45 50  1  0  0  0  0
 45 68  1  0  0  0  0
 46 51  1  0  0  0  0
 46 75  1  0  0  0  0
 47 51  1  0  0  0  0
 47 75  1  0  0  0  0
 48 72  1  0  0  0  0
 49 67  1  0  0  0  0
 50 66  1  0  0  0  0
 51 74  1  0  0  0  0
 52 61  1  0  0  0  0
 53 62  1  0  0  0  0
 54 62  1  0  0  0  0
 55 62  1  0  0  0  0
 56 76  1  0  0  0  0
 57 75  1  0  0  0  0
 58 59  1  0  0  0  0
 58 71  1  0  0  0  0
 59 83  1  0  0  0  0
 60 62  1  0  0  0  0
 60 73  1  0  0  0  0
 61 76  1  0  0  0  0
 65 66  1  0  0  0  0
M  CHG  2  75   1  76   1
M  ISO  4  36 100  59 101  74 100  83 101
M  END
> <Batch ID>
0193

> <Smiles>
CNC(C)C(=O)NC(C(=O)N1Cc2cc([101O:1][101CH2:1]CNc3cnc(CN4CC([100NH:0][100C:0](=O)N5CCCC(n6nc(-c7ccc(Oc8ccc(F)cc8F)cc7)c(C(N)=O)c6N)C5)C4)nc3)ccc2CC1C(=O)NC1CCCc2ccccc21)C(C)(C)C

> <Shape>
0.296

> <Color>
0.100

> <Negative vol penalty>
0.000

$$$$

  -OEChem-04052323323D

 86 95  0     1  0  0  0  0  0999 V2000
  -19.9636  -32.1210   15.3632 C   0  0  0  0  0  0  0  0  0  0  0  0
  -21.2349  -31.5801   15.5264 C   0  0  0  0  0  0  0  0  0  0  0  0
  -24.3202   -8.4890   22.8968 C   0  0  0  0  0  0  0  0  0  0  0  0
  -24.9442   -8.0301   20.6083 C   0  0  0  0  0  0  0  0  0  0  0  0
  -19.5141  -33.1159   16.2304 C   0  0  0  0  0  0  0  0  0  0  0  0
  -22.0579  -32.0346   16.5562 C   0  0  0  0  0  0  0  0  0  0  0  0
  -24.3441  -28.2525   19.0289 C   0  0  0  0  0  0  0  0  0  0  0  0
  -23.1734   -7.7106   22.7402 C   0  0  0  0  0  0  0  0  0  0  0  0
  -23.7974   -7.2517   20.4517 C   0  0  0  0  0  0  0  0  0  0  0  0
  -25.4495  -27.6662   18.4141 C   0  0  0  0  0  0  0  0  0  0  0  0
  -22.3784   -4.4243   22.7093 C   0  0  0  0  0  0  0  0  0  0  0  0
  -22.0640   -3.5214   23.7250 C   0  0  0  0  0  0  0  0  0  0  0  0
  -26.9147  -28.9743   19.8147 C   0  0  0  0  0  0  0  0  0  0  0  0
  -19.9525   -4.6440   24.0693 C   0  0  0  0  0  0  0  0  0  0  0  0
  -25.2056   -8.6488   21.8308 C   0  0  0  0  0  0  0  0  0  0  0  0
  -27.4375   -9.2498   22.9103 C   0  0  0  0  0  0  0  0  0  0  0  0
  -20.3282  -33.5760   17.2773 C   0  0  0  0  0  0  0  0  0  0  0  0
  -24.5160  -29.2137   20.0354 C   0  0  0  0  0  0  0  0  0  0  0  0
  -21.6193  -33.0375   17.4374 C   0  0  0  0  0  0  0  0  0  0  0  0
  -25.8098  -29.5694   20.4425 C   0  0  0  0  0  0  0  0  0  0  0  0
  -22.9120   -7.0920   21.5176 C   0  0  0  0  0  0  0  0  0  0  0  0
  -26.7351  -28.0292   18.8049 C   0  0  0  0  0  0  0  0  0  0  0  0
  -21.4799   -5.4371   22.3736 C   0  0  0  0  0  0  0  0  0  0  0  0
  -20.8511   -3.6313   24.4050 C   0  0  0  0  0  0  0  0  0  0  0  0
  -20.2670   -5.5469   23.0536 C   0  0  0  0  0  0  0  0  0  0  0  0
  -26.3901   -9.4532   21.9918 C   0  0  0  0  0  0  0  0  0  0  0  0
  -28.3150  -10.2771   22.6633 C   0  0  0  0  0  0  0  0  0  0  0  0
  -27.6023   -8.2239   23.8983 C   0  0  0  0  0  0  0  0  0  0  0  0
  -23.7401  -32.2784   20.3664 C   0  0  0  0  0  0  0  0  0  0  0  0
  -24.8680  -31.8363   23.3755 C   0  0  0  0  0  0  0  0  0  0  0  0
  -26.4346  -30.8247   26.2337 C   0  0  0  0  0  0  0  0  0  0  0  0
  -27.2237  -15.6488   20.1199 C   0  0  0  0  0  0  0  0  0  0  0  0
  -19.8168  -34.6865   18.1604 C   0  0  0  0  0  0  0  0  0  0  0  0
  -23.3132  -29.8172   20.7073 C   0  0  0  0  0  0  0  0  0  0  0  0
  -26.0482  -30.5814   21.5322 C   0  0  0  0  0  0  0  0  0  0  0  0
  -20.6078  -34.8478   19.4559 C   0  0  0  0  0  0  0  0  0  0  0  0
  -29.8127  -13.1713   19.1637 C   0  0  0  0  0  0  0  0  0  0  0  0
  -22.1065  -34.8256   19.1726 C   0  0  0  0  0  0  0  0  0  0  0  0
  -29.2808  -11.9059   19.8383 C   0  0  0  0  0  0  0  0  0  0  0  0
  -29.6934  -18.3635   19.9129 C   0  0  0  0  0  0  0  0  0  0  0  0
  -29.1016  -22.6687   20.1898 C   0  0  0  0  0  0  0  0  0  0  0  0
  -28.4451  -21.8047   17.9254 C   0  0  0  0  0  0  0  0  0  0  0  0
  -28.6701  -14.0897   18.7502 C   0  0  0  0  0  0  0  0  0  0  0  0
  -29.4096  -16.8931   19.6220 C   0  0  0  0  0  0  0  0  0  0  0  0
  -29.7974  -23.8424   19.4946 C   0  0  0  0  0  0  0  0  0  0  0  0
  -29.1623  -23.0069   17.3046 C   0  0  0  0  0  0  0  0  0  0  0  0
  -27.2222  -13.2172   20.5445 C   0  0  0  0  0  0  0  0  0  0  0  0
  -27.3313  -18.0960   19.7380 C   0  0  0  0  0  0  0  0  0  0  0  0
  -22.5320  -33.4868   18.5578 C   0  0  1  0  0  0  0  0  0  0  0  0
  -23.6076  -31.1625   21.3638 C   0  0  1  0  0  0  0  0  0  0  0  0
  -28.3307  -12.2514   20.9994 C   0  0  1  0  0  0  0  0  0  0  0  0
  -29.0640  -21.4508   19.2731 C   0  0  0  0  0  0  0  0  0  0  0  0
  -28.4544  -19.0369   19.3419 C   0  0  1  0  0  0  0  0  0  0  0  0
  -27.1572  -31.6622   28.4861 C   0  0  0  0  0  0  0  0  0  0  0  0
  -27.1935  -33.3224   22.0742 C   0  0  0  0  0  0  0  0  0  0  0  0
  -28.3534  -33.3077   24.2929 C   0  0  0  0  0  0  0  0  0  0  0  0
  -26.1737  -34.4931   24.0347 C   0  0  0  0  0  0  0  0  0  0  0  0
  -24.7320  -28.8551   27.6410 C   0  0  0  0  0  0  0  0  0  0  0  0
  -29.7932  -25.3151   17.5876 C   0  0  0  0  0  0  0  0  0  0  0  0
  -27.5584  -26.4957   17.1842 C   0  0  0  0  0  0  0  0  0  1  0  0
  -26.2166  -31.9652   24.0414 C   0  0  1  0  0  0  0  0  0  0  0  0
  -26.0558  -30.9724   27.6963 C   0  0  2  0  0  0  0  0  0  0  0  0
  -28.8663  -25.9913   16.5756 C   0  0  1  0  0  0  0  0  0  0  0  0
  -26.9760  -33.2477   23.5987 C   0  0  0  0  0  0  0  0  0  0  0  0
  -26.5829  -10.5255   21.2192 N   0  0  0  0  0  0  0  0  0  0  0  0
  -27.7614  -11.0052   21.6516 N   0  0  0  0  0  0  0  0  0  0  0  0
  -24.8401  -31.1479   22.1544 N   0  0  0  0  0  0  0  0  0  0  0  0
  -27.7963  -14.3932   19.8870 N   0  0  0  0  0  0  0  0  0  0  0  0
  -27.9519  -16.7722   19.7310 N   0  0  0  0  0  0  0  0  0  0  0  0
  -29.1480  -24.1617   18.2147 N   0  0  0  0  0  0  0  0  0  0  0  0
  -29.4985  -10.6196   23.2151 N   0  0  0  0  0  0  0  0  0  0  0  0
  -28.2671   -7.0453   23.5331 N   0  0  0  0  0  0  0  0  0  0  0  0
  -22.6194  -32.4662   19.5801 N   0  0  0  0  0  0  0  0  0  0  0  0
  -25.9726  -31.8810   25.4773 N   0  0  0  0  0  0  0  0  0  0  0  0
  -29.5950  -27.1692   16.0102 N   0  3  0  0  0  0  0  0  0  0  0  0
  -28.2613  -20.3791   19.9147 N   0  3  0  0  0  0  0  0  0  0  0  0
  -25.8083  -29.6347   28.3048 N   0  3  0  0  0  0  0  0  0  0  0  0
  -27.1585   -8.3420   25.0656 O   0  0  0  0  0  0  0  0  0  0  0  0
  -24.7814  -32.9224   20.3150 O   0  0  0  0  0  0  0  0  0  0  0  0
  -23.8747  -32.3221   23.9223 O   0  0  0  0  0  0  0  0  0  0  0  0
  -27.0792  -29.8698   25.8057 O   0  0  0  0  0  0  0  0  0  0  0  0
  -26.1327  -15.7632   20.6939 O   0  0  0  0  0  0  0  0  0  0  0  0
  -21.7931   -6.3322   21.3645 O   0  0  0  0  0  0  0  0  0  0  0  0
  -27.8228  -27.4552   18.2021 O   0  0  0  0  0  0  0  0  0  1  0  0
  -20.5487   -2.7633   25.3793 F   0  0  0  0  0  0  0  0  0  0  0  0
  -19.3992   -6.5171   22.7348 F   0  0  0  0  0  0  0  0  0  0  0  0
  1  2  1  0  0  0  0
  1  5  2  0  0  0  0
  2  6  2  0  0  0  0
  3  8  2  0  0  0  0
  3 15  1  0  0  0  0
  4  9  1  0  0  0  0
  4 15  2  0  0  0  0
  5 17  1  0  0  0  0
  6 19  1  0  0  0  0
  7 10  2  0  0  0  0
  7 18  1  0  0  0  0
  8 21  1  0  0  0  0
  9 21  2  0  0  0  0
 10 22  1  0  0  0  0
 11 12  2  0  0  0  0
 11 23  1  0  0  0  0
 12 24  1  0  0  0  0
 13 20  1  0  0  0  0
 13 22  2  0  0  0  0
 14 24  2  0  0  0  0
 14 25  1  0  0  0  0
 15 26  1  0  0  0  0
 16 26  1  0  0  0  0
 16 27  2  0  0  0  0
 16 28  1  0  0  0  0
 17 19  2  0  0  0  0
 17 33  1  0  0  0  0
 18 20  2  0  0  0  0
 18 34  1  0  0  0  0
 19 49  1  0  0  0  0
 20 35  1  0  0  0  0
 21 83  1  0  0  0  0
 22 84  1  0  0  0  0
 23 25  2  0  0  0  0
 23 83  1  0  0  0  0
 24 85  1  0  0  0  0
 25 86  1  0  0  0  0
 26 65  2  0  0  0  0
 27 66  1  0  0  0  0
 27 71  1  0  0  0  0
 28 72  1  0  0  0  0
 28 78  2  0  0  0  0
 29 50  1  0  0  0  0
 29 73  1  0  0  0  0
 29 79  2  0  0  0  0
 30 61  1  0  0  0  0
 30 67  1  0  0  0  0
 30 80  2  0  0  0  0
 31 62  1  0  0  0  0
 31 74  1  0  0  0  0
 31 81  2  0  0  0  0
 32 68  1  0  0  0  0
 32 69  1  0  0  0  0
 32 82  2  0  0  0  0
 33 36  1  0  0  0  0
 34 50  1  0  0  0  0
 35 67  1  0  0  0  0
 36 38  1  0  0  0  0
 37 39  1  0  0  0  0
 37 43  1  0  0  0  0
 38 49  1  0  0  0  0
 39 51  1  0  0  0  0
 40 44  1  0  0  0  0
 40 53  1  0  0  0  0
 41 45  1  0  0  0  0
 41 52  1  0  0  0  0
 42 46  1  0  0  0  0
 42 52  1  0  0  0  0
 43 68  1  0  0  0  0
 44 69  1  0  0  0  0
 45 70  1  0  0  0  0
 46 70  1  0  0  0  0
 47 51  1  0  0  0  0
 47 68  1  0  0  0  0
 48 53  1  0  0  0  0
 48 69  1  0  0  0  0
 49 73  1  0  0  0  0
 50 67  1  0  0  0  0
 51 66  1  0  0  0  0
 52 76  1  0  0  0  0
 53 76  1  0  0  0  0
 54 62  1  0  0  0  0
 55 64  1  0  0  0  0
 56 64  1  0  0  0  0
 57 64  1  0  0  0  0
 58 77  1  0  0  0  0
 59 63  1  0  0  0  0
 59 70  1  0  0  0  0
 60 63  1  0  0  0  0
 60 84  1  0  0  0  0
 61 64  1  0  0  0  0
 61 74  1  0  0  0  0
 62 77  1  0  0  0  0
 63 75  1  0  0  0  0
 65 66  1  0  0  0  0
M  CHG  3  75   1  76   1  77   1
M  ISO  4  32 100  60 101  69 100  84 101
M  END
> <Batch ID>
0193

> <Smiles>
CNC(C)C(=O)NC(C(=O)N1Cc2cc([101O:1][101CH2:1]C(N)CN3CCC(NC4CC[100N:0]([100C:0](=O)N5CCCC(n6nc(-c7ccc(Oc8ccc(F)cc8F)cc7)c(C(N)=O)c6N)C5)C4)CC3)ccc2CC1C(=O)NC1CCCc2ccccc21)C(C)(C)C

> <Shape>
0.292

> <Color>
0.085

> <Negative vol penalty>
0.000

$$$$

  -OEChem-04052323323D

 83 92  0     1  0  0  0  0  0999 V2000
  -28.3598  -33.6626   21.8801 C   0  0  0  0  0  0  0  0  0  0  0  0
  -28.4116  -32.2759   21.9780 C   0  0  0  0  0  0  0  0  0  0  0  0
  -23.0294  -15.9328   21.4674 C   0  0  0  0  0  0  0  0  0  0  0  0
  -22.3565  -14.9078   19.3856 C   0  0  0  0  0  0  0  0  0  0  0  0
  -27.1863  -34.3402   22.2086 C   0  0  0  0  0  0  0  0  0  0  0  0
  -27.2902  -31.5658   22.4054 C   0  0  0  0  0  0  0  0  0  0  0  0
  -26.3862  -27.4700   19.5679 C   0  0  0  0  0  0  0  0  0  0  0  0
  -21.9752  -16.8400   21.3615 C   0  0  0  0  0  0  0  0  0  0  0  0
  -21.3023  -15.8150   19.2797 C   0  0  0  0  0  0  0  0  0  0  0  0
  -27.1777  -26.3463   19.8014 C   0  0  0  0  0  0  0  0  0  0  0  0
  -19.2454  -19.1960   21.8222 C   0  0  0  0  0  0  0  0  0  0  0  0
  -18.4820  -19.4392   22.9639 C   0  0  0  0  0  0  0  0  0  0  0  0
  -25.4010  -25.3747   21.1123 C   0  0  0  0  0  0  0  0  0  0  0  0
  -17.8752  -17.1025   23.0559 C   0  0  0  0  0  0  0  0  0  0  0  0
  -28.5381  -21.9114   22.9995 C   0  0  0  0  0  0  0  0  0  0  0  0
  -23.2201  -14.9667   20.4794 C   0  0  0  0  0  0  0  0  0  0  0  0
  -24.2872  -12.7695   21.2152 C   0  0  0  0  0  0  0  0  0  0  0  0
  -26.0469  -33.6373   22.6310 C   0  0  0  0  0  0  0  0  0  0  0  0
  -25.0981  -27.5594   20.1148 C   0  0  0  0  0  0  0  0  0  0  0  0
  -26.1008  -32.2347   22.7411 C   0  0  0  0  0  0  0  0  0  0  0  0
  -24.5942  -26.4995   20.8821 C   0  0  0  0  0  0  0  0  0  0  0  0
  -27.8748  -22.0741   21.8004 C   0  0  0  0  0  0  0  0  0  0  0  0
  -21.1117  -16.7811   20.2677 C   0  0  0  0  0  0  0  0  0  0  0  0
  -26.6863  -25.2997   20.5761 C   0  0  0  0  0  0  0  0  0  0  0  0
  -19.3237  -17.9060   21.2972 C   0  0  0  0  0  0  0  0  0  0  0  0
  -17.7969  -18.3925   23.5808 C   0  0  0  0  0  0  0  0  0  0  0  0
  -18.6386  -16.8593   21.9141 C   0  0  0  0  0  0  0  0  0  0  0  0
  -24.3093  -14.0296   20.5879 C   0  0  0  0  0  0  0  0  0  0  0  0
  -28.1924  -21.1628   20.8140 C   0  0  0  0  0  0  0  0  0  0  0  0
  -25.5587  -12.2789   21.0449 C   0  0  0  0  0  0  0  0  0  0  0  0
  -29.6663  -20.1121   22.1891 C   0  0  0  0  0  0  0  0  0  0  0  0
  -23.2134  -12.1022   21.8914 C   0  0  0  0  0  0  0  0  0  0  0  0
  -23.6630  -29.5182   22.1660 C   0  0  0  0  0  0  0  0  0  0  0  0
  -21.0303  -27.8027   21.3607 C   0  0  0  0  0  0  0  0  0  0  0  0
  -20.2240  -24.3346   20.7777 C   0  0  0  0  0  0  0  0  0  0  0  0
  -30.8281  -15.1103   20.0549 C   0  0  0  0  0  0  0  0  0  0  0  0
  -24.8160  -34.4170   23.0205 C   0  0  0  0  0  0  0  0  0  0  0  0
  -24.2467  -28.7666   19.8314 C   0  0  0  0  0  0  0  0  0  0  0  0
  -23.2102  -26.5376   21.4751 C   0  0  0  0  0  0  0  0  0  0  0  0
  -23.5548  -33.5612   23.1062 C   0  0  0  0  0  0  0  0  0  0  0  0
  -29.3085  -12.4910   18.1156 C   0  0  0  0  0  0  0  0  0  0  0  0
  -23.8327  -32.2771   23.8811 C   0  0  0  0  0  0  0  0  0  0  0  0
  -27.8436  -12.5093   18.5396 C   0  0  0  0  0  0  0  0  0  0  0  0
  -29.8935  -13.8969   18.1204 C   0  0  0  0  0  0  0  0  0  0  0  0
  -28.3309  -14.5946   19.9169 C   0  0  0  0  0  0  0  0  0  0  0  0
  -31.6554  -16.9934   21.5627 C   0  0  0  0  0  0  0  0  0  0  0  0
  -29.6546  -17.2898   20.9025 C   0  0  0  0  0  0  0  0  0  0  0  0
  -24.8974  -31.4273   23.1771 C   0  0  1  0  0  0  0  0  0  0  0  0
  -23.1438  -28.9758   20.8644 C   0  0  1  0  0  0  0  0  0  0  0  0
  -27.6887  -13.1930   19.9056 C   0  0  1  0  0  0  0  0  0  0  0  0
  -30.8063  -18.2376   21.2714 C   0  0  0  0  0  0  0  0  0  0  0  0
  -27.5351  -21.2401   19.4752 C   0  0  0  0  0  0  0  0  0  0  0  0
  -18.4362  -23.2915   19.3588 C   0  0  0  0  0  0  0  0  0  0  0  0
  -19.4034  -27.7745   23.9418 C   0  0  0  0  0  0  0  0  0  0  0  0
  -18.4935  -25.5433   23.2619 C   0  0  0  0  0  0  0  0  0  0  0  0
  -18.0480  -27.5523   21.8518 C   0  0  0  0  0  0  0  0  0  0  0  0
  -22.1962  -22.7147   19.2793 C   0  0  0  0  0  0  0  0  0  0  0  0
  -26.8881  -23.1673   21.6097 C   0  0  0  0  0  0  0  0  0  1  0  0
  -20.3691  -26.5505   21.8838 C   0  0  1  0  0  0  0  0  0  0  0  0
  -19.9019  -23.6886   19.4423 C   0  0  2  0  0  0  0  0  0  0  0  0
  -19.1065  -26.8592   22.7372 C   0  0  0  0  0  0  0  0  0  0  0  0
  -29.4433  -20.9378   23.2293 N   0  0  0  0  0  0  0  0  0  0  0  0
  -25.5004  -14.3214   20.0587 N   0  0  0  0  0  0  0  0  0  0  0  0
  -29.0869  -20.1656   20.9746 N   0  0  0  0  0  0  0  0  0  0  0  0
  -26.2387  -13.2377   20.3531 N   0  0  0  0  0  0  0  0  0  0  0  0
  -22.4187  -27.7421   21.1748 N   0  0  0  0  0  0  0  0  0  0  0  0
  -29.7106  -14.5664   19.4119 N   0  0  0  0  0  0  0  0  0  0  0  0
  -30.6500  -16.2335   20.8296 N   0  0  0  0  0  0  0  0  0  0  0  0
  -26.1503  -11.1252   21.4209 N   0  0  0  0  0  0  0  0  0  0  0  0
  -21.9725  -12.7483   21.9752 N   0  0  0  0  0  0  0  0  0  0  0  0
  -24.3210  -30.7277   22.0490 N   0  0  0  0  0  0  0  0  0  0  0  0
  -20.1128  -25.7078   20.7208 N   0  0  0  0  0  0  0  0  0  0  0  0
  -20.7318  -22.4667   19.2445 N   0  3  0  0  0  0  0  0  0  0  0  0
  -23.3548  -10.9736   22.4203 O   0  0  0  0  0  0  0  0  0  0  0  0
  -23.4788  -28.8869   23.2000 O   0  0  0  0  0  0  0  0  0  0  0  0
  -20.3395  -28.7956   21.1189 O   0  0  0  0  0  0  0  0  0  0  0  0
  -20.5388  -23.6858   21.7729 O   0  0  0  0  0  0  0  0  0  0  0  0
  -31.9601  -14.6275   19.9177 O   0  0  0  0  0  0  0  0  0  0  0  0
  -20.0827  -17.6660   20.1641 O   0  0  0  0  0  0  0  0  0  0  0  0
  -27.4618  -24.1952   20.8076 O   0  0  0  0  0  0  0  0  0  1  0  0
  -30.5741  -19.1146   22.3869 O   0  0  0  0  0  0  0  0  0  0  0  0
  -17.0650  -18.6259   24.6781 F   0  0  0  0  0  0  0  0  0  0  0  0
  -18.7110  -15.6177   21.4152 F   0  0  0  0  0  0  0  0  0  0  0  0
  1  2  1  0  0  0  0
  1  5  2  0  0  0  0
  2  6  2  0  0  0  0
  3  8  2  0  0  0  0
  3 16  1  0  0  0  0
  4  9  1  0  0  0  0
  4 16  2  0  0  0  0
  5 18  1  0  0  0  0
  6 20  1  0  0  0  0
  7 10  2  0  0  0  0
  7 19  1  0  0  0  0
  8 23  1  0  0  0  0
  9 23  2  0  0  0  0
 10 24  1  0  0  0  0
 11 12  2  0  0  0  0
 11 25  1  0  0  0  0
 12 26  1  0  0  0  0
 13 21  1  0  0  0  0
 13 24  2  0  0  0  0
 14 26  2  0  0  0  0
 14 27  1  0  0  0  0
 15 22  1  0  0  0  0
 15 62  2  0  0  0  0
 16 28  1  0  0  0  0
 17 28  1  0  0  0  0
 17 30  2  0  0  0  0
 17 32  1  0  0  0  0
 18 20  2  0  0  0  0
 18 37  1  0  0  0  0
 19 21  2  0  0  0  0
 19 38  1  0  0  0  0
 20 48  1  0  0  0  0
 21 39  1  0  0  0  0
 22 29  2  0  0  0  0
 22 58  1  0  0  0  0
 23 79  1  0  0  0  0
 24 80  1  0  0  0  0
 25 27  2  0  0  0  0
 25 79  1  0  0  0  0
 26 82  1  0  0  0  0
 27 83  1  0  0  0  0
 28 63  2  0  0  0  0
 29 52  1  0  0  0  0
 29 64  1  0  0  0  0
 30 65  1  0  0  0  0
 30 69  1  0  0  0  0
 31 62  1  0  0  0  0
 31 64  2  0  0  0  0
 31 81  1  0  0  0  0
 32 70  1  0  0  0  0
 32 74  2  0  0  0  0
 33 49  1  0  0  0  0
 33 71  1  0  0  0  0
 33 75  2  0  0  0  0
 34 59  1  0  0  0  0
 34 66  1  0  0  0  0
 34 76  2  0  0  0  0
 35 60  1  0  0  0  0
 35 72  1  0  0  0  0
 35 77  2  0  0  0  0
 36 67  1  0  0  0  0
 36 68  1  0  0  0  0
 36 78  2  0  0  0  0
 37 40  1  0  0  0  0
 38 49  1  0  0  0  0
 39 66  1  0  0  0  0
 40 42  1  0  0  0  0
 41 43  1  0  0  0  0
 41 44  1  0  0  0  0
 42 48  1  0  0  0  0
 43 50  1  0  0  0  0
 44 67  1  0  0  0  0
 45 50  1  0  0  0  0
 45 67  1  0  0  0  0
 46 51  1  0  0  0  0
 46 68  1  0  0  0  0
 47 51  1  0  0  0  0
 47 68  1  0  0  0  0
 48 71  1  0  0  0  0
 49 66  1  0  0  0  0
 50 65  1  0  0  0  0
 51 81  1  0  0  0  0
 53 60  1  0  0  0  0
 54 61  1  0  0  0  0
 55 61  1  0  0  0  0
 56 61  1  0  0  0  0
 57 73  1  0  0  0  0
 58 80  1  0  0  0  0
 59 61  1  0  0  0  0
 59 72  1  0  0  0  0
 60 73  1  0  0  0  0
 63 65  1  0  0  0  0
M  CHG  1  73   1
M  ISO  4  36 100  58 101  68 100  80 101
M  END
> <Batch ID>
0193

> <Smiles>
CNC(C)C(=O)NC(C(=O)N1Cc2cc([101O:1][101CH2:1]c3cnc(OC4C[100N:0]([100C:0](=O)N5CCCC(n6nc(-c7ccc(Oc8ccc(F)cc8F)cc7)c(C(N)=O)c6N)C5)C4)nc3C)ccc2CC1C(=O)NC1CCCc2ccccc21)C(C)(C)C

> <Shape>
0.272

> <Color>
0.096

> <Negative vol penalty>
0.000

$$$$

  -OEChem-04052323323D

 85 95  0     1  0  0  0  0  0999 V2000
  -22.8396   -7.8527   21.7842 C   0  0  0  0  0  0  0  0  0  0  0  0
  -23.7869   -8.7510   21.3035 C   0  0  0  0  0  0  0  0  0  0  0  0
  -25.0277  -28.8521   23.7482 C   0  0  0  0  0  0  0  0  0  0  0  0
  -27.2068  -29.4325   22.8813 C   0  0  0  0  0  0  0  0  0  0  0  0
  -21.5217   -8.2662   21.9739 C   0  0  0  0  0  0  0  0  0  0  0  0
  -23.4165  -10.0632   21.0112 C   0  0  0  0  0  0  0  0  0  0  0  0
  -26.7416  -13.4566   22.7642 C   0  0  0  0  0  0  0  0  0  0  0  0
  -25.3278  -29.5082   24.9420 C   0  0  0  0  0  0  0  0  0  0  0  0
  -27.5070  -30.0886   24.0750 C   0  0  0  0  0  0  0  0  0  0  0  0
  -27.9161  -13.6331   22.0341 C   0  0  0  0  0  0  0  0  0  0  0  0
  -26.8014  -33.0560   25.5301 C   0  0  0  0  0  0  0  0  0  0  0  0
  -27.4008  -34.3125   25.4442 C   0  0  0  0  0  0  0  0  0  0  0  0
  -26.9843  -15.6168   21.0261 C   0  0  0  0  0  0  0  0  0  0  0  0
  -29.3108  -33.4852   26.6708 C   0  0  0  0  0  0  0  0  0  0  0  0
  -31.2377  -19.3086   21.4420 C   0  0  0  0  0  0  0  0  0  0  0  0
  -25.9672  -28.8142   22.7179 C   0  0  0  0  0  0  0  0  0  0  0  0
  -25.0551  -28.6888   20.3388 C   0  0  0  0  0  0  0  0  0  0  0  0
  -21.1371   -9.5868   21.6929 C   0  0  0  0  0  0  0  0  0  0  0  0
  -25.6736  -14.3543   22.6224 C   0  0  0  0  0  0  0  0  0  0  0  0
  -22.0919  -10.4944   21.1961 C   0  0  0  0  0  0  0  0  0  0  0  0
  -25.7983  -15.4509   21.7575 C   0  0  0  0  0  0  0  0  0  0  0  0
  -26.5675  -30.1264   25.1054 C   0  0  0  0  0  0  0  0  0  0  0  0
  -28.0365  -14.7117   21.1627 C   0  0  0  0  0  0  0  0  0  0  0  0
  -27.4567  -32.0140   26.1863 C   0  0  0  0  0  0  0  0  0  0  0  0
  -28.6555  -34.5272   26.0145 C   0  0  0  0  0  0  0  0  0  0  0  0
  -28.7114  -32.2287   26.7567 C   0  0  0  0  0  0  0  0  0  0  0  0
  -25.6579  -28.1362   21.4847 C   0  0  0  0  0  0  0  0  0  0  0  0
  -32.0751  -18.4618   22.1392 C   0  0  0  0  0  0  0  0  0  0  0  0
  -30.5171  -18.7267   20.4191 C   0  0  0  0  0  0  0  0  0  0  0  0
  -24.9815  -27.6430   19.4514 C   0  0  0  0  0  0  0  0  0  0  0  0
  -31.4508  -16.6989   20.8471 C   0  0  0  0  0  0  0  0  0  0  0  0
  -24.6022  -30.0277   20.0980 C   0  0  0  0  0  0  0  0  0  0  0  0
  -22.6616  -14.1188   21.6346 C   0  0  0  0  0  0  0  0  0  0  0  0
  -22.5101  -17.2090   22.6092 C   0  0  0  0  0  0  0  0  0  0  0  0
  -24.1599  -20.1220   23.2721 C   0  0  0  0  0  0  0  0  0  0  0  0
  -28.2936  -22.7196   19.0319 C   0  0  0  0  0  0  0  0  0  0  0  0
  -19.6903   -9.9746   21.8691 C   0  0  0  0  0  0  0  0  0  0  0  0
  -24.4236  -14.1649   23.4372 C   0  0  0  0  0  0  0  0  0  0  0  0
  -24.6886  -16.4544   21.5844 C   0  0  0  0  0  0  0  0  0  0  0  0
  -19.4626  -11.4839   21.8904 C   0  0  0  0  0  0  0  0  0  0  0  0
  -24.6281  -22.9014   19.2458 C   0  0  0  0  0  0  0  0  0  0  0  0
  -20.2235  -12.1548   20.7512 C   0  0  0  0  0  0  0  0  0  0  0  0
  -32.7802  -18.3826   24.6233 C   0  0  0  0  0  0  0  0  0  0  0  0
  -32.1958  -19.7393   24.3824 C   0  0  0  0  0  0  0  0  0  0  0  0
  -24.4376  -24.3028   19.8153 C   0  0  0  0  0  0  0  0  0  0  0  0
  -25.9059  -22.2333   19.7541 C   0  0  0  0  0  0  0  0  0  0  0  0
  -28.4063  -20.3912   20.1785 C   0  0  0  0  0  0  0  0  0  0  0  0
  -29.9796  -20.8320   18.8204 C   0  0  0  0  0  0  0  0  0  0  0  0
  -26.9310  -24.4687   20.1220 C   0  0  0  0  0  0  0  0  0  0  0  0
  -21.7343  -11.9329   20.8910 C   0  0  1  0  0  0  0  0  0  0  0  0
  -32.8901  -19.0135   23.2602 C   0  0  0  0  0  0  0  0  0  0  0  0
  -29.5035  -19.5341   19.5049 C   0  0  0  0  0  0  0  0  0  0  0  0
  -23.2043  -14.8512   22.8290 C   0  0  1  0  0  0  0  0  0  0  0  0
  -25.6843  -25.1604   19.5543 C   0  0  2  0  0  0  0  0  0  0  0  0
  -23.7627  -22.4855   24.0161 C   0  0  0  0  0  0  0  0  0  0  0  0
  -21.4457  -17.9010   19.8346 C   0  0  0  0  0  0  0  0  0  0  0  0
  -21.9677  -20.3031   20.3098 C   0  0  0  0  0  0  0  0  0  0  0  0
  -20.3036  -19.0884   21.7161 C   0  0  0  0  0  0  0  0  0  0  0  0
  -25.8436  -19.7696   25.6804 C   0  0  0  0  0  0  0  0  0  0  0  0
  -31.5708  -15.2319   20.5126 C   0  0  0  0  0  0  0  0  0  0  0  0
  -30.3934  -14.4188   21.0397 C   0  0  0  0  0  0  0  0  0  1  0  0
  -22.7614  -18.5484   21.9597 C   0  0  1  0  0  0  0  0  0  0  0  0
  -24.0959  -21.0687   24.4571 C   0  0  2  0  0  0  0  0  0  0  0  0
  -21.6400  -18.9404   20.9566 C   0  0  0  0  0  0  0  0  0  0  0  0
  -25.9466  -26.8400   21.3412 N   0  0  0  0  0  0  0  0  0  0  0  0
  -32.2068  -17.1468   21.8676 N   0  0  0  0  0  0  0  0  0  0  0  0
  -30.5995  -17.4201   20.0930 N   0  0  0  0  0  0  0  0  0  0  0  0
  -25.5233  -26.5694   20.0948 N   0  0  0  0  0  0  0  0  0  0  0  0
  -23.4838  -16.2225   22.3982 N   0  0  0  0  0  0  0  0  0  0  0  0
  -27.0796  -23.1012   19.6127 N   0  0  0  0  0  0  0  0  0  0  0  0
  -28.6788  -21.4003   19.1622 N   0  0  0  0  0  0  0  0  0  0  0  0
  -24.5067  -27.5463   18.1914 N   0  0  0  0  0  0  0  0  0  0  0  0
  -24.7538  -30.9777   21.1172 N   0  0  0  0  0  0  0  0  0  0  0  0
  -22.2839  -12.8158   21.8974 N   0  0  0  0  0  0  0  0  0  0  0  0
  -22.9492  -19.5012   23.0484 N   0  0  0  0  0  0  0  0  0  0  0  0
  -25.4037  -21.0940   25.1711 N   0  3  0  0  0  0  0  0  0  0  0  0
  -24.0636  -30.3673   19.0172 O   0  0  0  0  0  0  0  0  0  0  0  0
  -22.5894  -14.6937   20.5548 O   0  0  0  0  0  0  0  0  0  0  0  0
  -21.4910  -17.0463   23.2849 O   0  0  0  0  0  0  0  0  0  0  0  0
  -25.1807  -19.9532   22.6088 O   0  0  0  0  0  0  0  0  0  0  0  0
  -29.0255  -23.5288   18.4476 O   0  0  0  0  0  0  0  0  0  0  0  0
  -26.8606  -30.7669   26.2700 O   0  0  0  0  0  0  0  0  0  0  0  0
  -29.1816  -14.8859   20.4484 O   0  0  0  0  0  0  0  0  0  1  0  0
  -29.2317  -35.7335   25.9307 F   0  0  0  0  0  0  0  0  0  0  0  0
  -29.3463  -31.2312   27.3874 F   0  0  0  0  0  0  0  0  0  0  0  0
  1  2  1  0  0  0  0
  1  5  2  0  0  0  0
  2  6  2  0  0  0  0
  3  8  2  0  0  0  0
  3 16  1  0  0  0  0
  4  9  1  0  0  0  0
  4 16  2  0  0  0  0
  5 18  1  0  0  0  0
  6 20  1  0  0  0  0
  7 10  2  0  0  0  0
  7 19  1  0  0  0  0
  8 22  1  0  0  0  0
  9 22  2  0  0  0  0
 10 23  1  0  0  0  0
 11 12  2  0  0  0  0
 11 24  1  0  0  0  0
 12 25  1  0  0  0  0
 13 21  1  0  0  0  0
 13 23  2  0  0  0  0
 14 25  2  0  0  0  0
 14 26  1  0  0  0  0
 15 28  1  0  0  0  0
 15 29  2  0  0  0  0
 16 27  1  0  0  0  0
 17 27  1  0  0  0  0
 17 30  2  0  0  0  0
 17 32  1  0  0  0  0
 18 20  2  0  0  0  0
 18 37  1  0  0  0  0
 19 21  2  0  0  0  0
 19 38  1  0  0  0  0
 20 50  1  0  0  0  0
 21 39  1  0  0  0  0
 22 82  1  0  0  0  0
 23 83  1  0  0  0  0
 24 26  2  0  0  0  0
 24 82  1  0  0  0  0
 25 84  1  0  0  0  0
 26 85  1  0  0  0  0
 27 65  2  0  0  0  0
 28 51  1  0  0  0  0
 28 66  2  0  0  0  0
 29 52  1  0  0  0  0
 29 67  1  0  0  0  0
 30 68  1  0  0  0  0
 30 72  1  0  0  0  0
 31 60  1  0  0  0  0
 31 66  1  0  0  0  0
 31 67  2  0  0  0  0
 32 73  1  0  0  0  0
 32 77  2  0  0  0  0
 33 53  1  0  0  0  0
 33 74  1  0  0  0  0
 33 78  2  0  0  0  0
 34 62  1  0  0  0  0
 34 69  1  0  0  0  0
 34 79  2  0  0  0  0
 35 63  1  0  0  0  0
 35 75  1  0  0  0  0
 35 80  2  0  0  0  0
 36 70  1  0  0  0  0
 36 71  1  0  0  0  0
 36 81  2  0  0  0  0
 37 40  1  0  0  0  0
 38 53  1  0  0  0  0
 39 69  1  0  0  0  0
 40 42  1  0  0  0  0
 41 45  1  0  0  0  0
 41 46  1  0  0  0  0
 42 50  1  0  0  0  0
 43 44  1  0  0  0  0
 43 51  1  0  0  0  0
 44 51  1  0  0  0  0
 45 54  1  0  0  0  0
 46 70  1  0  0  0  0
 47 52  1  0  0  0  0
 47 71  1  0  0  0  0
 48 52  1  0  0  0  0
 48 71  1  0  0  0  0
 49 54  1  0  0  0  0
 49 70  1  0  0  0  0
 50 74  1  0  0  0  0
 53 69  1  0  0  0  0
 54 68  1  0  0  0  0
 55 63  1  0  0  0  0
 56 64  1  0  0  0  0
 57 64  1  0  0  0  0
 58 64  1  0  0  0  0
 59 76  1  0  0  0  0
 60 61  1  0  0  0  0
 61 83  1  0  0  0  0
 62 64  1  0  0  0  0
 62 75  1  0  0  0  0
 63 76  1  0  0  0  0
 65 68  1  0  0  0  0
M  CHG  1  76   1
M  ISO  4  36 100  61 101  71 100  83 101
M  END
> <Batch ID>
0193

> <Smiles>
CNC(C)C(=O)NC(C(=O)N1Cc2cc([101O:1][101CH2:1]Cc3nc(C4CC4)cc(C4C[100N:0]([100C:0](=O)N5CCCC(n6nc(-c7ccc(Oc8ccc(F)cc8F)cc7)c(C(N)=O)c6N)C5)C4)n3)ccc2CC1C(=O)NC1CCCc2ccccc21)C(C)(C)C

> <Shape>
0.220

> <Color>
0.083

> <Negative vol penalty>
0.000

$$$$

  -OEChem-04052323323D

 84 93  0     1  0  0  0  0  0999 V2000
  -20.3962  -22.9948   22.3493 C   0  0  0  0  0  0  0  0  0  0  0  0
  -21.7417  -22.8052   22.0507 C   0  0  0  0  0  0  0  0  0  0  0  0
  -23.1191  -29.8751   20.1234 C   0  0  0  0  0  0  0  0  0  0  0  0
  -23.3281  -28.4765   22.0823 C   0  0  0  0  0  0  0  0  0  0  0  0
  -19.6744  -21.9830   22.9812 C   0  0  0  0  0  0  0  0  0  0  0  0
  -22.3664  -21.6042   22.3848 C   0  0  0  0  0  0  0  0  0  0  0  0
  -26.7806  -18.7515   19.2411 C   0  0  0  0  0  0  0  0  0  0  0  0
  -21.8846  -30.3340   20.5827 C   0  0  0  0  0  0  0  0  0  0  0  0
  -22.0936  -28.9354   22.5417 C   0  0  0  0  0  0  0  0  0  0  0  0
  -28.1662  -18.7164   19.3913 C   0  0  0  0  0  0  0  0  0  0  0  0
  -18.8248  -28.3416   21.9150 C   0  0  0  0  0  0  0  0  0  0  0  0
  -17.9266  -27.3974   22.4124 C   0  0  0  0  0  0  0  0  0  0  0  0
  -27.9733  -16.6584   20.6350 C   0  0  0  0  0  0  0  0  0  0  0  0
  -17.9314  -28.5198   24.5518 C   0  0  0  0  0  0  0  0  0  0  0  0
  -23.8409  -28.9463   20.8731 C   0  0  0  0  0  0  0  0  0  0  0  0
  -26.3818  -29.0285   20.6617 C   0  0  0  0  0  0  0  0  0  0  0  0
  -20.2881  -20.7653   23.3145 C   0  0  0  0  0  0  0  0  0  0  0  0
  -25.9787  -17.7444   19.7970 C   0  0  0  0  0  0  0  0  0  0  0  0
  -21.6524  -20.5757   23.0230 C   0  0  0  0  0  0  0  0  0  0  0  0
  -26.5779  -16.6817   20.4882 C   0  0  0  0  0  0  0  0  0  0  0  0
  -21.3719  -29.8642   21.7919 C   0  0  0  0  0  0  0  0  0  0  0  0
  -28.7626  -17.6713   20.0908 C   0  0  0  0  0  0  0  0  0  0  0  0
  -19.2763  -29.3749   22.7361 C   0  0  0  0  0  0  0  0  0  0  0  0
  -17.4799  -27.4865   23.7308 C   0  0  0  0  0  0  0  0  0  0  0  0
  -18.8296  -29.4640   24.0544 C   0  0  0  0  0  0  0  0  0  0  0  0
  -25.1159  -28.4715   20.3988 C   0  0  0  0  0  0  0  0  0  0  0  0
  -27.2610  -28.2158   19.9886 C   0  0  0  0  0  0  0  0  0  0  0  0
  -31.1808  -21.8519   20.6593 C   0  0  0  0  0  0  0  0  0  0  0  0
  -26.7316  -30.1777   21.4443 C   0  0  0  0  0  0  0  0  0  0  0  0
  -23.6766  -17.6631   21.9874 C   0  0  0  0  0  0  0  0  0  0  0  0
  -23.4491  -14.5601   21.0698 C   0  0  0  0  0  0  0  0  0  0  0  0
  -24.9523  -11.8359   19.6678 C   0  0  0  0  0  0  0  0  0  0  0  0
  -29.0448  -23.1352   18.5221 C   0  0  0  0  0  0  0  0  0  0  0  0
  -19.4790  -19.7191   24.0394 C   0  0  0  0  0  0  0  0  0  0  0  0
  -24.4876  -17.7826   19.6032 C   0  0  0  0  0  0  0  0  0  0  0  0
  -25.7632  -15.5652   21.0868 C   0  0  0  0  0  0  0  0  0  0  0  0
  -20.1198  -18.3337   24.0224 C   0  0  0  0  0  0  0  0  0  0  0  0
  -26.4269  -24.5706   16.5823 C   0  0  0  0  0  0  0  0  0  0  0  0
  -21.6014  -18.4264   24.3733 C   0  0  0  0  0  0  0  0  0  0  0  0
  -25.9532  -25.7549   17.4266 C   0  0  0  0  0  0  0  0  0  0  0  0
  -33.8208  -23.4206   22.3456 C   0  0  0  0  0  0  0  0  0  0  0  0
  -33.9947  -22.0579   23.0379 C   0  0  0  0  0  0  0  0  0  0  0  0
  -32.2258  -23.9847   20.3548 C   0  0  0  0  0  0  0  0  0  0  0  0
  -26.8239  -23.3801   17.4524 C   0  0  0  0  0  0  0  0  0  0  0  0
  -27.3388  -24.8682   19.3482 C   0  0  0  0  0  0  0  0  0  0  0  0
  -22.3592  -19.2775   23.3472 C   0  0  1  0  0  0  0  0  0  0  0  0
  -31.2331  -23.0190   19.6869 C   0  0  2  0  0  0  0  0  0  0  0  0
  -23.7279  -16.9762   20.6520 C   0  0  1  0  0  0  0  0  0  0  0  0
  -26.9805  -26.1124   18.5175 C   0  0  2  0  0  0  0  0  0  0  0  0
  -33.2032  -23.0312   21.0132 C   0  0  2  0  0  0  0  0  0  0  0  0
  -32.7629  -21.2509   22.5936 C   0  0  2  0  0  0  0  0  0  0  0  0
  -24.5266   -9.4318   19.0877 C   0  0  0  0  0  0  0  0  0  0  0  0
  -23.7593  -13.7988   24.0082 C   0  0  0  0  0  0  0  0  0  0  0  0
  -24.2776  -11.4614   23.2758 C   0  0  0  0  0  0  0  0  0  0  0  0
  -22.0526  -12.4641   22.7593 C   0  0  0  0  0  0  0  0  0  0  0  0
  -25.3908  -12.3334   16.7835 C   0  0  0  0  0  0  0  0  0  0  0  0
  -33.0525  -19.7702   22.4198 C   0  0  0  0  0  0  0  0  0  0  0  0
  -31.9669  -17.6157   21.7730 C   0  0  0  0  0  0  0  0  0  0  0  0
  -30.6220  -17.0123   21.4189 C   0  0  0  0  0  0  0  0  0  1  0  0
  -24.0952  -13.2667   21.5042 C   0  0  1  0  0  0  0  0  0  0  0  0
  -24.4861  -10.8695   18.5938 C   0  0  2  0  0  0  0  0  0  0  0  0
  -23.5616  -12.7697   22.8774 C   0  0  0  0  0  0  0  0  0  0  0  0
  -25.1807  -27.3887   19.6195 N   0  0  0  0  0  0  0  0  0  0  0  0
  -26.4979  -27.2589   19.3867 N   0  0  0  0  0  0  0  0  0  0  0  0
  -32.3806  -21.8993   21.3519 N   0  0  0  0  0  0  0  0  0  0  0  0
  -24.3087  -15.6507   20.8758 N   0  0  0  0  0  0  0  0  0  0  0  0
  -27.8013  -23.7860   18.4653 N   0  0  0  0  0  0  0  0  0  0  0  0
  -28.6045  -28.2336   19.8588 N   0  0  0  0  0  0  0  0  0  0  0  0
  -25.7046  -30.8992   22.0681 N   0  0  0  0  0  0  0  0  0  0  0  0
  -22.6009  -18.5171   22.1398 N   0  0  0  0  0  0  0  0  0  0  0  0
  -23.8968  -12.3234   20.4091 N   0  0  0  0  0  0  0  0  0  0  0  0
  -29.9149  -23.5854   19.5075 N   0  0  0  0  0  0  0  0  0  0  0  0
  -25.3552  -10.9768   17.3879 N   0  3  0  0  0  0  0  0  0  0  0  0
  -31.7994  -19.0681   22.0317 N   0  3  0  0  0  0  0  0  0  0  0  0
  -30.2687  -21.0505   20.7822 O   0  0  0  0  0  0  0  0  0  0  0  0
  -27.9184  -30.5633   21.5729 O   0  0  0  0  0  0  0  0  0  0  0  0
  -24.5476  -17.4342   22.8184 O   0  0  0  0  0  0  0  0  0  0  0  0
  -22.2277  -14.5994   20.9017 O   0  0  0  0  0  0  0  0  0  0  0  0
  -26.1348  -12.1261   19.8349 O   0  0  0  0  0  0  0  0  0  0  0  0
  -29.3585  -22.2242   17.7484 O   0  0  0  0  0  0  0  0  0  0  0  0
  -20.1674  -30.3120   22.2406 O   0  0  0  0  0  0  0  0  0  0  0  0
  -30.1148  -17.6350   20.2394 O   0  0  0  0  0  0  0  0  0  1  0  0
  -16.6162  -26.5806   24.2078 F   0  0  0  0  0  0  0  0  0  0  0  0
  -19.2589  -30.4551   24.8476 F   0  0  0  0  0  0  0  0  0  0  0  0
  1  2  1  0  0  0  0
  1  5  2  0  0  0  0
  2  6  2  0  0  0  0
  3  8  2  0  0  0  0
  3 15  1  0  0  0  0
  4  9  1  0  0  0  0
  4 15  2  0  0  0  0
  5 17  1  0  0  0  0
  6 19  1  0  0  0  0
  7 10  2  0  0  0  0
  7 18  1  0  0  0  0
  8 21  1  0  0  0  0
  9 21  2  0  0  0  0
 10 22  1  0  0  0  0
 11 12  2  0  0  0  0
 11 23  1  0  0  0  0
 12 24  1  0  0  0  0
 13 20  1  0  0  0  0
 13 22  2  0  0  0  0
 14 24  2  0  0  0  0
 14 25  1  0  0  0  0
 15 26  1  0  0  0  0
 16 26  1  0  0  0  0
 16 27  2  0  0  0  0
 16 29  1  0  0  0  0
 17 19  2  0  0  0  0
 17 34  1  0  0  0  0
 18 20  2  0  0  0  0
 18 35  1  0  0  0  0
 19 46  1  0  0  0  0
 20 36  1  0  0  0  0
 21 81  1  0  0  0  0
 22 82  1  0  0  0  0
 23 25  2  0  0  0  0
 23 81  1  0  0  0  0
 24 83  1  0  0  0  0
 25 84  1  0  0  0  0
 26 63  2  0  0  0  0
 27 64  1  0  0  0  0
 27 68  1  0  0  0  0
 28 47  1  0  0  0  0
 28 65  1  0  0  0  0
 28 75  2  0  0  0  0
 29 69  1  0  0  0  0
 29 76  2  0  0  0  0
 30 48  1  0  0  0  0
 30 70  1  0  0  0  0
 30 77  2  0  0  0  0
 31 60  1  0  0  0  0
 31 66  1  0  0  0  0
 31 78  2  0  0  0  0
 32 61  1  0  0  0  0
 32 71  1  0  0  0  0
 32 79  2  0  0  0  0
 33 67  1  0  0  0  0
 33 72  1  0  0  0  0
 33 80  2  0  0  0  0
 34 37  1  0  0  0  0
 35 48  1  0  0  0  0
 36 66  1  0  0  0  0
 37 39  1  0  0  0  0
 38 40  1  0  0  0  0
 38 44  1  0  0  0  0
 39 46  1  0  0  0  0
 40 49  1  0  0  0  0
 41 42  1  0  0  0  0
 41 50  1  0  0  0  0
 42 51  1  0  0  0  0
 43 47  1  0  0  0  0
 43 50  1  0  0  0  0
 44 67  1  0  0  0  0
 45 49  1  0  0  0  0
 45 67  1  0  0  0  0
 46 70  1  0  0  0  0
 47 72  1  0  0  0  0
 48 66  1  0  0  0  0
 49 64  1  0  0  0  0
 50 65  1  0  0  0  0
 51 57  1  0  0  0  0
 51 65  1  0  0  0  0
 52 61  1  0  0  0  0
 53 62  1  0  0  0  0
 54 62  1  0  0  0  0
 55 62  1  0  0  0  0
 56 73  1  0  0  0  0
 57 74  1  0  0  0  0
 58 59  1  0  0  0  0
 58 74  1  0  0  0  0
 59 82  1  0  0  0  0
 60 62  1  0  0  0  0
 60 71  1  0  0  0  0
 61 73  1  0  0  0  0
 63 64  1  0  0  0  0
M  CHG  2  73   1  74   1
M  ISO  4  33 100  59 101  72 100  82 101
M  END
> <Batch ID>
0193

> <Smiles>
CNC(C)C(=O)NC(C(=O)N1Cc2cc([101O:1][101CH2:1]CNCC3CCC4CC([100NH:0][100C:0](=O)N5CCCC(n6nc(-c7ccc(Oc8ccc(F)cc8F)cc7)c(C(N)=O)c6N)C5)C(=O)N34)ccc2CC1C(=O)NC1CCCc2ccccc21)C(C)(C)C

> <Shape>
0.231

> <Color>
0.074

> <Negative vol penalty>
0.000

$$$$

  -OEChem-04052323323D

 85 93  0     1  0  0  0  0  0999 V2000
  -21.1650   -7.7583   18.2465 C   0  0  0  0  0  0  0  0  0  0  0  0
  -20.7956   -9.0955   18.3502 C   0  0  0  0  0  0  0  0  0  0  0  0
  -22.0509  -28.2183   20.3734 C   0  0  0  0  0  0  0  0  0  0  0  0
  -22.4814  -29.3459   22.4663 C   0  0  0  0  0  0  0  0  0  0  0  0
  -22.1238   -7.2321   19.1111 C   0  0  0  0  0  0  0  0  0  0  0  0
  -21.3841   -9.9071   19.3195 C   0  0  0  0  0  0  0  0  0  0  0  0
  -22.7202  -15.8627   18.8181 C   0  0  0  0  0  0  0  0  0  0  0  0
  -20.7530  -27.9306   20.7953 C   0  0  0  0  0  0  0  0  0  0  0  0
  -21.1834  -29.0582   22.8883 C   0  0  0  0  0  0  0  0  0  0  0  0
  -22.0574  -17.0120   19.2466 C   0  0  0  0  0  0  0  0  0  0  0  0
  -18.0707  -30.2650   22.3639 C   0  0  0  0  0  0  0  0  0  0  0  0
  -17.3449  -31.2914   22.9683 C   0  0  0  0  0  0  0  0  0  0  0  0
  -23.4304  -17.0572   21.2295 C   0  0  0  0  0  0  0  0  0  0  0  0
  -17.1403  -29.9642   24.9767 C   0  0  0  0  0  0  0  0  0  0  0  0
  -22.9152  -28.9259   21.2089 C   0  0  0  0  0  0  0  0  0  0  0  0
  -24.6891  -30.3631   20.0708 C   0  0  0  0  0  0  0  0  0  0  0  0
  -22.7314   -8.0400   20.0851 C   0  0  0  0  0  0  0  0  0  0  0  0
  -23.7374  -15.2948   19.5987 C   0  0  0  0  0  0  0  0  0  0  0  0
  -22.3510   -9.3908   20.1988 C   0  0  0  0  0  0  0  0  0  0  0  0
  -24.1063  -15.9021   20.8075 C   0  0  0  0  0  0  0  0  0  0  0  0
  -20.3192  -28.3506   22.0528 C   0  0  0  0  0  0  0  0  0  0  0  0
  -22.4105  -17.6078   20.4539 C   0  0  0  0  0  0  0  0  0  0  0  0
  -18.3312  -29.0881   23.0658 C   0  0  0  0  0  0  0  0  0  0  0  0
  -16.8797  -31.1410   24.2747 C   0  0  0  0  0  0  0  0  0  0  0  0
  -17.8660  -28.9377   24.3722 C   0  0  0  0  0  0  0  0  0  0  0  0
  -24.2564  -29.2229   20.7739 C   0  0  0  0  0  0  0  0  0  0  0  0
  -26.0379  -30.1691   19.8989 C   0  0  0  0  0  0  0  0  0  0  0  0
  -23.9390  -31.4964   19.6140 C   0  0  0  0  0  0  0  0  0  0  0  0
  -24.1500  -12.5016   21.0587 C   0  0  0  0  0  0  0  0  0  0  0  0
  -27.1103  -13.6893   21.6489 C   0  0  0  0  0  0  0  0  0  0  0  0
  -29.1164  -16.4278   21.9992 C   0  0  0  0  0  0  0  0  0  0  0  0
  -29.4353  -25.2469   19.7484 C   0  0  0  0  0  0  0  0  0  0  0  0
  -23.7285   -7.4145   21.0282 C   0  0  0  0  0  0  0  0  0  0  0  0
  -24.4608  -14.0702   19.1095 C   0  0  0  0  0  0  0  0  0  0  0  0
  -25.2053  -15.3434   21.6726 C   0  0  0  0  0  0  0  0  0  0  0  0
  -24.5768   -8.4352   21.7823 C   0  0  0  0  0  0  0  0  0  0  0  0
  -29.8112  -28.0363   21.8829 C   0  0  0  0  0  0  0  0  0  0  0  0
  -23.6983   -9.5481   22.3450 C   0  0  0  0  0  0  0  0  0  0  0  0
  -28.4648  -28.7510   21.8094 C   0  0  0  0  0  0  0  0  0  0  0  0
  -28.0286  -22.4874   17.7226 C   0  0  0  0  0  0  0  0  0  0  0  0
  -29.6237  -26.5254   21.8531 C   0  0  0  0  0  0  0  0  0  0  0  0
  -29.1833  -23.3882   18.1324 C   0  0  0  0  0  0  0  0  0  0  0  0
  -27.2501  -23.9357   19.4450 C   0  0  0  0  0  0  0  0  0  0  0  0
  -27.5402  -26.7522   20.5275 C   0  0  0  0  0  0  0  0  0  0  0  0
  -22.9848  -10.3092   21.2211 C   0  0  1  0  0  0  0  0  0  0  0  0
  -25.1310  -13.2839   20.2320 C   0  0  1  0  0  0  0  0  0  0  0  0
  -27.1441  -22.4866   18.9699 C   0  0  1  0  0  0  0  0  0  0  0  0
  -27.6728  -28.2884   20.5765 C   0  0  1  0  0  0  0  0  0  0  0  0
  -18.3977  -23.9273   23.2462 C   0  0  0  0  0  0  0  0  0  0  0  0
  -31.4825  -17.0830   22.5187 C   0  0  0  0  0  0  0  0  0  0  0  0
  -26.6254  -13.0902   24.6012 C   0  0  0  0  0  0  0  0  0  0  0  0
  -28.5493  -14.5951   25.1509 C   0  0  0  0  0  0  0  0  0  0  0  0
  -28.9257  -12.5393   23.7890 C   0  0  0  0  0  0  0  0  0  0  0  0
  -29.4535  -17.7399   19.3679 C   0  0  0  0  0  0  0  0  0  0  0  0
  -25.7179  -22.0458   18.6929 C   0  0  0  0  0  0  0  0  0  0  0  0
  -18.9282  -22.5198   23.0131 C   0  0  0  0  0  0  0  0  0  0  0  0
  -19.8489  -22.4305   21.8020 C   0  0  0  0  0  0  0  0  0  0  0  0
  -24.8685  -22.1002   19.9536 C   0  0  0  0  0  0  0  0  0  0  0  0
  -22.5837  -21.5705   20.8124 C   0  0  0  0  0  0  0  0  0  0  0  0
  -21.2597  -19.6041   19.8655 C   0  0  0  0  0  0  0  0  0  1  0  0
  -27.7319  -14.5118   22.7517 C   0  0  1  0  0  0  0  0  0  0  0  0
  -30.4810  -16.7573   21.4215 C   0  0  2  0  0  0  0  0  0  0  0  0
  -21.2112  -21.0396   20.3980 C   0  0  1  0  0  0  0  0  0  0  0  0
  -27.9360  -13.6938   24.0581 C   0  0  0  0  0  0  0  0  0  0  0  0
  -25.2497  -28.3677   21.0308 N   0  0  0  0  0  0  0  0  0  0  0  0
  -26.3200  -28.9709   20.4862 N   0  0  0  0  0  0  0  0  0  0  0  0
  -25.8786  -14.1411   21.1543 N   0  0  0  0  0  0  0  0  0  0  0  0
  -28.8445  -26.0969   20.6899 N   0  0  0  0  0  0  0  0  0  0  0  0
  -28.6148  -24.3326   19.0891 N   0  0  0  0  0  0  0  0  0  0  0  0
  -26.9983  -30.9082   19.3040 N   0  0  0  0  0  0  0  0  0  0  0  0
  -22.5625  -31.5358   19.8751 N   0  0  0  0  0  0  0  0  0  0  0  0
  -23.8958  -11.2314   20.5777 N   0  0  0  0  0  0  0  0  0  0  0  0
  -28.9604  -15.0726   22.1997 N   0  0  0  0  0  0  0  0  0  0  0  0
  -20.3341  -21.0803   21.5742 N   0  0  0  0  0  0  0  0  0  0  0  0
  -30.3871  -17.9308   20.5076 N   0  3  0  0  0  0  0  0  0  0  0  0
  -23.5013  -21.6194   19.6411 N   0  3  0  0  0  0  0  0  0  0  0  0
  -24.4705  -32.4382   18.9785 O   0  0  0  0  0  0  0  0  0  0  0  0
  -23.6610  -13.0121   22.0597 O   0  0  0  0  0  0  0  0  0  0  0  0
  -27.6994  -12.6871   21.2365 O   0  0  0  0  0  0  0  0  0  0  0  0
  -28.2746  -17.2871   22.2510 O   0  0  0  0  0  0  0  0  0  0  0  0
  -30.6550  -25.2732   19.5347 O   0  0  0  0  0  0  0  0  0  0  0  0
  -19.0526  -28.0703   22.4647 O   0  0  0  0  0  0  0  0  0  0  0  0
  -21.7607  -18.7363   20.8774 O   0  0  0  0  0  0  0  0  0  1  0  0
  -16.1841  -32.1274   24.8555 F   0  0  0  0  0  0  0  0  0  0  0  0
  -18.1142  -27.8098   25.0520 F   0  0  0  0  0  0  0  0  0  0  0  0
  1  2  1  0  0  0  0
  1  5  2  0  0  0  0
  2  6  2  0  0  0  0
  3  8  2  0  0  0  0
  3 15  1  0  0  0  0
  4  9  1  0  0  0  0
  4 15  2  0  0  0  0
  5 17  1  0  0  0  0
  6 19  1  0  0  0  0
  7 10  2  0  0  0  0
  7 18  1  0  0  0  0
  8 21  1  0  0  0  0
  9 21  2  0  0  0  0
 10 22  1  0  0  0  0
 11 12  2  0  0  0  0
 11 23  1  0  0  0  0
 12 24  1  0  0  0  0
 13 20  1  0  0  0  0
 13 22  2  0  0  0  0
 14 24  2  0  0  0  0
 14 25  1  0  0  0  0
 15 26  1  0  0  0  0
 16 26  1  0  0  0  0
 16 27  2  0  0  0  0
 16 28  1  0  0  0  0
 17 19  2  0  0  0  0
 17 33  1  0  0  0  0
 18 20  2  0  0  0  0
 18 34  1  0  0  0  0
 19 45  1  0  0  0  0
 20 35  1  0  0  0  0
 21 82  1  0  0  0  0
 22 83  1  0  0  0  0
 23 25  2  0  0  0  0
 23 82  1  0  0  0  0
 24 84  1  0  0  0  0
 25 85  1  0  0  0  0
 26 65  2  0  0  0  0
 27 66  1  0  0  0  0
 27 70  1  0  0  0  0
 28 71  1  0  0  0  0
 28 77  2  0  0  0  0
 29 46  1  0  0  0  0
 29 72  1  0  0  0  0
 29 78  2  0  0  0  0
 30 61  1  0  0  0  0
 30 67  1  0  0  0  0
 30 79  2  0  0  0  0
 31 62  1  0  0  0  0
 31 73  1  0  0  0  0
 31 80  2  0  0  0  0
 32 68  1  0  0  0  0
 32 69  1  0  0  0  0
 32 81  2  0  0  0  0
 33 36  1  0  0  0  0
 34 46  1  0  0  0  0
 35 67  1  0  0  0  0
 36 38  1  0  0  0  0
 37 39  1  0  0  0  0
 37 41  1  0  0  0  0
 38 45  1  0  0  0  0
 39 48  1  0  0  0  0
 40 42  1  0  0  0  0
 40 47  1  0  0  0  0
 41 68  1  0  0  0  0
 42 69  1  0  0  0  0
 43 47  1  0  0  0  0
 43 69  1  0  0  0  0
 44 48  1  0  0  0  0
 44 68  1  0  0  0  0
 45 72  1  0  0  0  0
 46 67  1  0  0  0  0
 47 55  1  0  0  0  0
 48 66  1  0  0  0  0
 49 56  1  0  0  0  0
 50 62  1  0  0  0  0
 51 64  1  0  0  0  0
 52 64  1  0  0  0  0
 53 64  1  0  0  0  0
 54 75  1  0  0  0  0
 55 58  1  0  0  0  0
 56 57  1  0  0  0  0
 57 74  1  0  0  0  0
 58 76  1  0  0  0  0
 59 63  1  0  0  0  0
 59 76  1  0  0  0  0
 60 63  1  0  0  0  0
 60 83  1  0  0  0  0
 61 64  1  0  0  0  0
 61 73  1  0  0  0  0
 62 75  1  0  0  0  0
 63 74  1  0  0  0  0
 65 66  1  0  0  0  0
M  CHG  2  75   1  76   1
M  ISO  4  32 100  60 101  69 100  83 101
M  END
> <Batch ID>
0193

> <Smiles>
CCCNC(CNCCC1CC[100N:0]([100C:0](=O)N2CCCC(n3nc(-c4ccc(Oc5ccc(F)cc5F)cc4)c(C(N)=O)c3N)C2)C1)[101CH2:1][101O:1]c1ccc2c(c1)CN(C(=O)C(NC(=O)C(C)NC)C(C)(C)C)C(C(=O)NC1CCCc3ccccc31)C2

> <Shape>
0.265

> <Color>
0.052

> <Negative vol penalty>
0.000

$$$$

  -OEChem-04052323323D

 84 93  0     1  0  0  0  0  0999 V2000
  -21.4526  -29.3763   11.1174 C   0  0  0  0  0  0  0  0  0  0  0  0
  -22.5634  -28.8811   11.7929 C   0  0  0  0  0  0  0  0  0  0  0  0
  -24.6461  -12.0830   22.6517 C   0  0  0  0  0  0  0  0  0  0  0  0
  -23.5358  -11.5346   20.5772 C   0  0  0  0  0  0  0  0  0  0  0  0
  -20.6886  -30.3943   11.6866 C   0  0  0  0  0  0  0  0  0  0  0  0
  -22.9116  -29.4045   13.0376 C   0  0  0  0  0  0  0  0  0  0  0  0
  -25.3677  -26.3650   17.7530 C   0  0  0  0  0  0  0  0  0  0  0  0
  -23.6090  -11.4828   23.3656 C   0  0  0  0  0  0  0  0  0  0  0  0
  -22.4986  -10.9343   21.2911 C   0  0  0  0  0  0  0  0  0  0  0  0
  -26.6797  -26.2409   18.2078 C   0  0  0  0  0  0  0  0  0  0  0  0
  -21.9414   -8.0056   22.8827 C   0  0  0  0  0  0  0  0  0  0  0  0
  -21.4841   -6.7651   22.4384 C   0  0  0  0  0  0  0  0  0  0  0  0
  -26.2927  -28.0193   19.7910 C   0  0  0  0  0  0  0  0  0  0  0  0
  -19.2787   -7.6955   22.1105 C   0  0  0  0  0  0  0  0  0  0  0  0
  -24.6095  -12.1089   21.2575 C   0  0  0  0  0  0  0  0  0  0  0  0
  -26.8575  -12.1152   20.0516 C   0  0  0  0  0  0  0  0  0  0  0  0
  -21.0219  -30.9237   12.9433 C   0  0  0  0  0  0  0  0  0  0  0  0
  -24.5101  -27.3262   18.3072 C   0  0  0  0  0  0  0  0  0  0  0  0
  -22.1521  -30.4315   13.6236 C   0  0  0  0  0  0  0  0  0  0  0  0
  -24.9695  -28.1519   19.3433 C   0  0  0  0  0  0  0  0  0  0  0  0
  -22.5352  -10.9084   22.6853 C   0  0  0  0  0  0  0  0  0  0  0  0
  -27.1433  -27.0701   19.2250 C   0  0  0  0  0  0  0  0  0  0  0  0
  -21.0673   -9.0912   22.9410 C   0  0  0  0  0  0  0  0  0  0  0  0
  -20.1527   -6.6100   22.0523 C   0  0  0  0  0  0  0  0  0  0  0  0
  -19.7360   -8.9361   22.5548 C   0  0  0  0  0  0  0  0  0  0  0  0
  -25.6803  -12.7293   20.5196 C   0  0  0  0  0  0  0  0  0  0  0  0
  -27.5420  -13.1233   19.4177 C   0  0  0  0  0  0  0  0  0  0  0  0
  -28.5790  -23.1524   22.3582 C   0  0  0  0  0  0  0  0  0  0  0  0
  -28.8144  -24.4664   22.3990 C   0  0  0  0  0  0  0  0  0  0  0  0
  -29.8820  -22.8116   20.5261 C   0  0  0  0  0  0  0  0  0  0  0  0
  -30.2236  -24.2898   20.4695 C   0  0  0  0  0  0  0  0  0  0  0  0
  -27.2932  -10.7552   20.1785 C   0  0  0  0  0  0  0  0  0  0  0  0
  -22.9613  -29.8645   17.1840 C   0  0  0  0  0  0  0  0  0  0  0  0
  -21.6715  -29.9082   20.1601 C   0  0  0  0  0  0  0  0  0  0  0  0
  -21.9492  -29.0480   23.4509 C   0  0  0  0  0  0  0  0  0  0  0  0
  -29.3777  -18.4015   19.7176 C   0  0  0  0  0  0  0  0  0  0  0  0
  -20.1936  -32.0560   13.4969 C   0  0  0  0  0  0  0  0  0  0  0  0
  -23.0895  -27.4293   17.8239 C   0  0  0  0  0  0  0  0  0  0  0  0
  -24.0826  -29.1860   19.9856 C   0  0  0  0  0  0  0  0  0  0  0  0
  -20.4112  -32.2973   14.9884 C   0  0  0  0  0  0  0  0  0  0  0  0
  -26.0892  -17.7860   18.1132 C   0  0  0  0  0  0  0  0  0  0  0  0
  -21.9010  -32.3074   15.3158 C   0  0  0  0  0  0  0  0  0  0  0  0
  -25.7772  -16.3709   18.6022 C   0  0  0  0  0  0  0  0  0  0  0  0
  -29.5713  -21.7759   18.2692 C   0  0  0  0  0  0  0  0  0  0  0  0
  -26.9209  -18.5459   19.1383 C   0  0  0  0  0  0  0  0  0  0  0  0
  -28.6600  -20.6165   18.6538 C   0  0  0  0  0  0  0  0  0  0  0  0
  -30.6549  -20.5072   19.9909 C   0  0  0  0  0  0  0  0  0  0  0  0
  -27.8900  -16.4543   20.0115 C   0  0  0  0  0  0  0  0  0  0  0  0
  -22.5473  -30.9563   14.9869 C   0  0  1  0  0  0  0  0  0  0  0  0
  -30.4910  -21.9310   19.4767 C   0  0  2  0  0  0  0  0  0  0  0  0
  -22.4596  -28.7898   18.1064 C   0  0  1  0  0  0  0  0  0  0  0  0
  -27.0617  -15.6276   19.0120 C   0  0  1  0  0  0  0  0  0  0  0  0
  -20.7553  -29.2544   25.6485 C   0  0  0  0  0  0  0  0  0  0  0  0
  -22.5597  -32.8200   20.3664 C   0  0  0  0  0  0  0  0  0  0  0  0
  -22.2141  -32.6774   22.8419 C   0  0  0  0  0  0  0  0  0  0  0  0
  -20.2844  -32.3552   21.2943 C   0  0  0  0  0  0  0  0  0  0  0  0
  -21.6973  -26.1116   23.7219 C   0  0  0  0  0  0  0  0  0  0  0  0
  -29.8616  -26.4913   21.5465 C   0  0  0  0  0  0  0  0  0  0  0  0
  -28.6708  -27.2825   21.0354 C   0  0  0  0  0  0  0  0  0  1  0  0
  -22.0422  -30.5473   21.4766 C   0  0  1  0  0  0  0  0  0  0  0  0
  -20.9664  -28.3992   24.4089 C   0  0  2  0  0  0  0  0  0  0  0  0
  -21.7926  -32.0819   21.4816 C   0  0  0  0  0  0  0  0  0  0  0  0
  -25.6174  -14.0270   20.2096 N   0  0  0  0  0  0  0  0  0  0  0  0
  -29.1031  -22.2983   21.4279 N   0  0  0  0  0  0  0  0  0  0  0  0
  -26.7637  -14.2366   19.5401 N   0  0  0  0  0  0  0  0  0  0  0  0
  -29.6325  -25.0566   21.4660 N   0  0  0  0  0  0  0  0  0  0  0  0
  -22.7037  -29.2526   19.4741 N   0  0  0  0  0  0  0  0  0  0  0  0
  -28.1328  -17.8025   19.4939 N   0  0  0  0  0  0  0  0  0  0  0  0
  -29.4713  -19.7814   19.5375 N   0  0  0  0  0  0  0  0  0  0  0  0
  -28.7277  -13.1571   18.7733 N   0  0  0  0  0  0  0  0  0  0  0  0
  -26.4683   -9.8501   20.8602 N   0  0  0  0  0  0  0  0  0  0  0  0
  -22.2371  -29.9843   16.0133 N   0  0  0  0  0  0  0  0  0  0  0  0
  -21.3072  -29.8190   22.5051 N   0  0  0  0  0  0  0  0  0  0  0  0
  -21.4677  -27.0633   24.8393 N   0  3  0  0  0  0  0  0  0  0  0  0
  -30.9682  -24.6761   19.5794 O   0  0  0  0  0  0  0  0  0  0  0  0
  -28.3895  -10.3582   19.7157 O   0  0  0  0  0  0  0  0  0  0  0  0
  -23.9326  -30.5364   17.5110 O   0  0  0  0  0  0  0  0  0  0  0  0
  -20.5074  -29.9818   19.7587 O   0  0  0  0  0  0  0  0  0  0  0  0
  -23.1651  -28.8898   23.5357 O   0  0  0  0  0  0  0  0  0  0  0  0
  -30.3724  -17.7274   20.0162 O   0  0  0  0  0  0  0  0  0  0  0  0
  -21.5231  -10.3224   23.3815 O   0  0  0  0  0  0  0  0  0  0  0  0
  -28.4328  -26.9506   19.6735 O   0  0  0  0  0  0  0  0  0  1  0  0
  -19.7141   -5.4190   21.6242 F   0  0  0  0  0  0  0  0  0  0  0  0
  -18.8919   -9.9756   22.6075 F   0  0  0  0  0  0  0  0  0  0  0  0
  1  2  1  0  0  0  0
  1  5  2  0  0  0  0
  2  6  2  0  0  0  0
  3  8  2  0  0  0  0
  3 15  1  0  0  0  0
  4  9  1  0  0  0  0
  4 15  2  0  0  0  0
  5 17  1  0  0  0  0
  6 19  1  0  0  0  0
  7 10  2  0  0  0  0
  7 18  1  0  0  0  0
  8 21  1  0  0  0  0
  9 21  2  0  0  0  0
 10 22  1  0  0  0  0
 11 12  2  0  0  0  0
 11 23  1  0  0  0  0
 12 24  1  0  0  0  0
 13 20  1  0  0  0  0
 13 22  2  0  0  0  0
 14 24  2  0  0  0  0
 14 25  1  0  0  0  0
 15 26  1  0  0  0  0
 16 26  1  0  0  0  0
 16 27  2  0  0  0  0
 16 32  1  0  0  0  0
 17 19  2  0  0  0  0
 17 37  1  0  0  0  0
 18 20  2  0  0  0  0
 18 38  1  0  0  0  0
 19 49  1  0  0  0  0
 20 39  1  0  0  0  0
 21 81  1  0  0  0  0
 22 82  1  0  0  0  0
 23 25  2  0  0  0  0
 23 81  1  0  0  0  0
 24 83  1  0  0  0  0
 25 84  1  0  0  0  0
 26 63  2  0  0  0  0
 27 65  1  0  0  0  0
 27 70  1  0  0  0  0
 28 29  2  0  0  0  0
 28 64  1  0  0  0  0
 29 66  1  0  0  0  0
 30 31  1  0  0  0  0
 30 50  1  0  0  0  0
 30 64  2  0  0  0  0
 31 66  1  0  0  0  0
 31 75  2  0  0  0  0
 32 71  1  0  0  0  0
 32 76  2  0  0  0  0
 33 51  1  0  0  0  0
 33 72  1  0  0  0  0
 33 77  2  0  0  0  0
 34 60  1  0  0  0  0
 34 67  1  0  0  0  0
 34 78  2  0  0  0  0
 35 61  1  0  0  0  0
 35 73  1  0  0  0  0
 35 79  2  0  0  0  0
 36 68  1  0  0  0  0
 36 69  1  0  0  0  0
 36 80  2  0  0  0  0
 37 40  1  0  0  0  0
 38 51  1  0  0  0  0
 39 67  1  0  0  0  0
 40 42  1  0  0  0  0
 41 43  1  0  0  0  0
 41 45  1  0  0  0  0
 42 49  1  0  0  0  0
 43 52  1  0  0  0  0
 44 46  1  0  0  0  0
 44 50  1  0  0  0  0
 45 68  1  0  0  0  0
 46 69  1  0  0  0  0
 47 50  1  0  0  0  0
 47 69  1  0  0  0  0
 48 52  1  0  0  0  0
 48 68  1  0  0  0  0
 49 72  1  0  0  0  0
 51 67  1  0  0  0  0
 52 65  1  0  0  0  0
 53 61  1  0  0  0  0
 54 62  1  0  0  0  0
 55 62  1  0  0  0  0
 56 62  1  0  0  0  0
 57 74  1  0  0  0  0
 58 59  1  0  0  0  0
 58 66  1  0  0  0  0
 59 82  1  0  0  0  0
 60 62  1  0  0  0  0
 60 73  1  0  0  0  0
 61 74  1  0  0  0  0
 63 65  1  0  0  0  0
M  CHG  1  74   1
M  ISO  4  36 100  59 101  69 100  82 101
M  END
> <Batch ID>
0193

> <Smiles>
CNC(C)C(=O)NC(C(=O)N1Cc2cc([101O:1][101CH2:1]Cn3ccnc(C4CC[100N:0]([100C:0](=O)N5CCCC(n6nc(-c7ccc(Oc8ccc(F)cc8F)cc7)c(C(N)=O)c6N)C5)C4)c3=O)ccc2CC1C(=O)NC1CCCc2ccccc21)C(C)(C)C

> <Shape>
0.232

> <Color>
0.088

> <Negative vol penalty>
0.000

$$$$

  -OEChem-04052323323D

 90100  0     1  0  0  0  0  0999 V2000
  -28.3634  -25.0249   16.2126 C   0  0  0  0  0  0  0  0  0  0  0  0
  -27.1660  -25.1359   16.9120 C   0  0  0  0  0  0  0  0  0  0  0  0
  -24.4417  -12.8213   19.6232 C   0  0  0  0  0  0  0  0  0  0  0  0
  -25.5421  -13.5569   21.6444 C   0  0  0  0  0  0  0  0  0  0  0  0
  -29.5410  -25.5274   16.7646 C   0  0  0  0  0  0  0  0  0  0  0  0
  -27.1456  -25.7485   18.1645 C   0  0  0  0  0  0  0  0  0  0  0  0
  -23.2771  -28.9745   18.6866 C   0  0  0  0  0  0  0  0  0  0  0  0
  -25.0980  -11.5937   19.7127 C   0  0  0  0  0  0  0  0  0  0  0  0
  -26.1983  -12.3293   21.7339 C   0  0  0  0  0  0  0  0  0  0  0  0
  -22.0209  -28.4263   18.9423 C   0  0  0  0  0  0  0  0  0  0  0  0
  -24.7793   -8.7209   21.4673 C   0  0  0  0  0  0  0  0  0  0  0  0
  -24.0261   -7.5662   21.2555 C   0  0  0  0  0  0  0  0  0  0  0  0
  -22.2814  -28.9377   21.2854 C   0  0  0  0  0  0  0  0  0  0  0  0
  -25.4526   -6.9765   19.3969 C   0  0  0  0  0  0  0  0  0  0  0  0
  -24.6638  -13.8029   20.5891 C   0  0  0  0  0  0  0  0  0  0  0  0
  -22.7388  -15.4112   21.0528 C   0  0  0  0  0  0  0  0  0  0  0  0
  -29.5333  -26.1551   18.0202 C   0  0  0  0  0  0  0  0  0  0  0  0
  -24.0507  -29.4994   19.7317 C   0  0  0  0  0  0  0  0  0  0  0  0
  -28.3244  -26.2587   18.7344 C   0  0  0  0  0  0  0  0  0  0  0  0
  -23.5459  -29.4943   21.0399 C   0  0  0  0  0  0  0  0  0  0  0  0
  -25.9762  -11.3477   20.7681 C   0  0  0  0  0  0  0  0  0  0  0  0
  -21.5241  -28.4052   20.2423 C   0  0  0  0  0  0  0  0  0  0  0  0
  -25.8692   -9.0034   20.6438 C   0  0  0  0  0  0  0  0  0  0  0  0
  -24.3627   -6.6940   20.2204 C   0  0  0  0  0  0  0  0  0  0  0  0
  -26.2059   -8.1312   19.6087 C   0  0  0  0  0  0  0  0  0  0  0  0
  -23.9867  -15.0714   20.4969 C   0  0  0  0  0  0  0  0  0  0  0  0
  -22.5435  -16.7198   20.6839 C   0  0  0  0  0  0  0  0  0  0  0  0
  -25.4064  -20.1436   21.9482 C   0  0  0  0  0  0  0  0  0  0  0  0
  -23.7536  -19.3141   23.2197 C   0  0  0  0  0  0  0  0  0  0  0  0
  -23.3346  -20.9916   21.7889 C   0  0  0  0  0  0  0  0  0  0  0  0
  -21.8368  -14.6153   21.8329 C   0  0  0  0  0  0  0  0  0  0  0  0
  -26.8853  -28.8056   20.9917 C   0  0  0  0  0  0  0  0  0  0  0  0
  -26.3384  -31.4938   22.7228 C   0  0  0  0  0  0  0  0  0  0  0  0
  -24.0751  -33.6948   24.0188 C   0  0  0  0  0  0  0  0  0  0  0  0
  -26.7687  -20.8641   18.9590 C   0  0  0  0  0  0  0  0  0  0  0  0
  -30.8396  -26.6406   18.5970 C   0  0  0  0  0  0  0  0  0  0  0  0
  -25.3924  -30.1114   19.4354 C   0  0  0  0  0  0  0  0  0  0  0  0
  -24.3284  -30.0637   22.1941 C   0  0  0  0  0  0  0  0  0  0  0  0
  -30.6674  -27.6098   19.7638 C   0  0  0  0  0  0  0  0  0  0  0  0
  -23.6243  -19.8592   17.2759 C   0  0  0  0  0  0  0  0  0  0  0  0
  -29.6318  -27.0792   20.7502 C   0  0  0  0  0  0  0  0  0  0  0  0
  -23.3214  -18.5029   17.9054 C   0  0  0  0  0  0  0  0  0  0  0  0
  -27.8470  -21.1746   22.1699 C   0  0  0  0  0  0  0  0  0  0  0  0
  -18.8434  -22.8338   20.5144 C   0  0  0  0  0  0  0  0  0  0  0  0
  -25.1188  -20.1602   17.2814 C   0  0  0  0  0  0  0  0  0  0  0  0
  -28.3864  -21.5527   20.7954 C   0  0  0  0  0  0  0  0  0  0  0  0
  -25.4311  -18.7381   19.2797 C   0  0  0  0  0  0  0  0  0  0  0  0
  -18.3974  -24.2500   20.1917 C   0  0  0  0  0  0  0  0  0  0  0  0
  -20.5829  -24.2372   21.2893 C   0  0  0  0  0  0  0  0  0  0  0  0
  -28.2574  -26.9386   20.0847 C   0  0  1  0  0  0  0  0  0  0  0  0
  -26.9258  -20.1348   21.4931 C   0  0  2  0  0  0  0  0  0  0  0  0
  -26.3122  -30.1524   20.6517 C   0  0  1  0  0  0  0  0  0  0  0  0
  -20.3617  -22.9289   20.5489 C   0  0  1  0  0  0  0  0  0  0  0  0
  -23.9282  -18.4151   19.3138 C   0  0  2  0  0  0  0  0  0  0  0  0
  -23.2793  -18.3546   24.2576 C   0  0  0  0  0  0  0  0  0  0  0  0
  -23.9264  -35.7707   25.4210 C   0  0  0  0  0  0  0  0  0  0  0  0
  -26.8583  -29.8345   25.2301 C   0  0  0  0  0  0  0  0  0  0  0  0
  -25.7874  -31.6560   26.5731 C   0  0  0  0  0  0  0  0  0  0  0  0
  -27.8612  -32.1252   25.2686 C   0  0  0  0  0  0  0  0  0  0  0  0
  -22.8308  -35.2325   21.8173 C   0  0  0  0  0  0  0  0  0  0  0  0
  -21.0220  -21.7428   21.2292 C   0  0  0  0  0  0  0  0  0  0  0  0
  -19.0439  -26.1947   21.6784 C   0  0  0  0  0  0  0  0  0  0  0  0
  -20.1006  -27.2771   21.7775 C   0  0  0  0  0  0  0  0  0  1  0  0
  -25.6738  -31.7980   24.0437 C   0  0  1  0  0  0  0  0  0  0  0  0
  -24.0268  -35.2121   24.0101 C   0  0  2  0  0  0  0  0  0  0  0  0
  -26.5310  -31.3409   25.2576 C   0  0  0  0  0  0  0  0  0  0  0  0
  -24.5447  -16.0824   19.8257 N   0  0  0  0  0  0  0  0  0  0  0  0
  -25.0525  -19.2497   22.8858 N   0  0  0  0  0  0  0  0  0  0  0  0
  -24.6045  -21.0432   21.3558 N   0  0  0  0  0  0  0  0  0  0  0  0
  -22.8375  -20.1564   22.7154 N   0  0  0  0  0  0  0  0  0  0  0  0
  -23.6433  -17.0704   19.9574 N   0  0  0  0  0  0  0  0  0  0  0  0
  -25.6375  -30.6452   21.8543 N   0  0  0  0  0  0  0  0  0  0  0  0
  -25.7043  -20.0207   18.6174 N   0  0  0  0  0  0  0  0  0  0  0  0
  -27.3046  -20.7617   20.2221 N   0  0  0  0  0  0  0  0  0  0  0  0
  -21.5400  -17.5932   20.9132 N   0  0  0  0  0  0  0  0  0  0  0  0
  -22.1926  -13.2905   22.1205 N   0  0  0  0  0  0  0  0  0  0  0  0
  -22.4406  -21.8980   21.2186 N   0  0  0  0  0  0  0  0  0  0  0  0
  -27.6170  -28.2313   19.9697 N   0  0  0  0  0  0  0  0  0  0  0  0
  -25.3715  -33.2252   24.0294 N   0  0  0  0  0  0  0  0  0  0  0  0
  -19.5058  -25.1399   20.7249 N   0  3  2  0  0  0  0  0  0  0  0  0
  -22.8489  -35.6884   23.2311 N   0  3  0  0  0  0  0  0  0  0  0  0
  -20.7402  -15.0605   22.2484 O   0  0  0  0  0  0  0  0  0  0  0  0
  -26.6801  -28.3239   22.0996 O   0  0  0  0  0  0  0  0  0  0  0  0
  -27.4357  -31.9965   22.4680 O   0  0  0  0  0  0  0  0  0  0  0  0
  -23.0639  -32.9962   24.0201 O   0  0  0  0  0  0  0  0  0  0  0  0
  -27.2110  -21.7062   18.1658 O   0  0  0  0  0  0  0  0  0  0  0  0
  -26.6166  -10.1498   20.8558 O   0  0  0  0  0  0  0  0  0  0  0  0
  -20.2986  -27.8701   20.4947 O   0  0  0  0  0  0  0  0  0  1  0  0
  -23.6402   -5.5844   20.0181 F   0  0  0  0  0  0  0  0  0  0  0  0
  -27.2525   -8.3967   18.8151 F   0  0  0  0  0  0  0  0  0  0  0  0
  1  2  1  0  0  0  0
  1  5  2  0  0  0  0
  2  6  2  0  0  0  0
  3  8  2  0  0  0  0
  3 15  1  0  0  0  0
  4  9  1  0  0  0  0
  4 15  2  0  0  0  0
  5 17  1  0  0  0  0
  6 19  1  0  0  0  0
  7 10  2  0  0  0  0
  7 18  1  0  0  0  0
  8 21  1  0  0  0  0
  9 21  2  0  0  0  0
 10 22  1  0  0  0  0
 11 12  2  0  0  0  0
 11 23  1  0  0  0  0
 12 24  1  0  0  0  0
 13 20  1  0  0  0  0
 13 22  2  0  0  0  0
 14 24  2  0  0  0  0
 14 25  1  0  0  0  0
 15 26  1  0  0  0  0
 16 26  1  0  0  0  0
 16 27  2  0  0  0  0
 16 31  1  0  0  0  0
 17 19  2  0  0  0  0
 17 36  1  0  0  0  0
 18 20  2  0  0  0  0
 18 37  1  0  0  0  0
 19 50  1  0  0  0  0
 20 38  1  0  0  0  0
 21 87  1  0  0  0  0
 22 88  1  0  0  0  0
 23 25  2  0  0  0  0
 23 87  1  0  0  0  0
 24 89  1  0  0  0  0
 25 90  1  0  0  0  0
 26 67  2  0  0  0  0
 27 71  1  0  0  0  0
 27 75  1  0  0  0  0
 28 51  1  0  0  0  0
 28 68  2  0  0  0  0
 28 69  1  0  0  0  0
 29 55  1  0  0  0  0
 29 68  1  0  0  0  0
 29 70  2  0  0  0  0
 30 69  2  0  0  0  0
 30 70  1  0  0  0  0
 30 77  1  0  0  0  0
 31 76  1  0  0  0  0
 31 82  2  0  0  0  0
 32 52  1  0  0  0  0
 32 78  1  0  0  0  0
 32 83  2  0  0  0  0
 33 64  1  0  0  0  0
 33 72  1  0  0  0  0
 33 84  2  0  0  0  0
 34 65  1  0  0  0  0
 34 79  1  0  0  0  0
 34 85  2  0  0  0  0
 35 73  1  0  0  0  0
 35 74  1  0  0  0  0
 35 86  2  0  0  0  0
 36 39  1  0  0  0  0
 37 52  1  0  0  0  0
 38 72  1  0  0  0  0
 39 41  1  0  0  0  0
 40 42  1  0  0  0  0
 40 45  1  0  0  0  0
 41 50  1  0  0  0  0
 42 54  1  0  0  0  0
 43 46  1  0  0  0  0
 43 51  1  0  0  0  0
 44 48  1  0  0  0  0
 44 53  1  0  0  0  0
 45 73  1  0  0  0  0
 46 74  1  0  0  0  0
 47 54  1  0  0  0  0
 47 73  1  0  0  0  0
 48 80  1  0  0  0  0
 49 53  1  0  0  0  0
 49 80  1  0  0  0  0
 50 78  1  0  0  0  0
 51 74  1  0  0  0  0
 52 72  1  0  0  0  0
 53 61  1  0  0  0  0
 54 71  1  0  0  0  0
 56 65  1  0  0  0  0
 57 66  1  0  0  0  0
 58 66  1  0  0  0  0
 59 66  1  0  0  0  0
 60 81  1  0  0  0  0
 61 77  1  0  0  0  0
 62 63  1  0  0  0  0
 62 80  1  0  0  0  0
 63 88  1  0  0  0  0
 64 66  1  0  0  0  0
 64 79  1  0  0  0  0
 65 81  1  0  0  0  0
 67 71  1  0  0  0  0
M  CHG  2  80   1  81   1
M  ISO  4  35 100  63 101  74 100  88 101
M  END
> <Batch ID>
0193

> <Smiles>
CNC(C)C(=O)NC(C(=O)N1Cc2cc([101O:1][101CH2:1]CN3CCC(CNc4nc(C)nc(C5CC[100N:0]5[100C:0](=O)N5CCCC(n6nc(-c7ccc(Oc8ccc(F)cc8F)cc7)c(C(N)=O)c6N)C5)n4)C3)ccc2CC1C(=O)NC1CCCc2ccccc21)C(C)(C)C

> <Shape>
0.253

> <Color>
0.085

> <Negative vol penalty>
0.000

$$$$

  -OEChem-04052323323D

 82 91  0     1  0  0  0  0  0999 V2000
  -29.2147  -32.7725   24.2096 C   0  0  0  0  0  0  0  0  0  0  0  0
  -29.0408  -31.5154   23.6395 C   0  0  0  0  0  0  0  0  0  0  0  0
  -24.4632   -9.1262   21.9334 C   0  0  0  0  0  0  0  0  0  0  0  0
  -23.5674  -10.1232   19.9233 C   0  0  0  0  0  0  0  0  0  0  0  0
  -28.1658  -33.3723   24.9053 C   0  0  0  0  0  0  0  0  0  0  0  0
  -27.8181  -30.8570   23.7657 C   0  0  0  0  0  0  0  0  0  0  0  0
  -26.2686  -28.7854   19.4123 C   0  0  0  0  0  0  0  0  0  0  0  0
  -23.2732   -8.4214   22.1142 C   0  0  0  0  0  0  0  0  0  0  0  0
  -22.3773   -9.4184   20.1041 C   0  0  0  0  0  0  0  0  0  0  0  0
  -26.8670  -27.5857   19.0296 C   0  0  0  0  0  0  0  0  0  0  0  0
  -21.8045   -5.6484   20.8549 C   0  0  0  0  0  0  0  0  0  0  0  0
  -21.8957   -4.2980   21.1923 C   0  0  0  0  0  0  0  0  0  0  0  0
  -24.9532  -26.3736   19.8589 C   0  0  0  0  0  0  0  0  0  0  0  0
  -20.6965   -4.7300   23.2448 C   0  0  0  0  0  0  0  0  0  0  0  0
  -24.6103   -9.9771   20.8379 C   0  0  0  0  0  0  0  0  0  0  0  0
  -26.9763  -10.2855   19.9353 C   0  0  0  0  0  0  0  0  0  0  0  0
  -26.9266  -32.7251   25.0318 C   0  0  0  0  0  0  0  0  0  0  0  0
  -25.0108  -28.7874   20.0321 C   0  0  0  0  0  0  0  0  0  0  0  0
  -26.7521  -31.4482   24.4649 C   0  0  0  0  0  0  0  0  0  0  0  0
  -24.3400  -27.5749   20.2462 C   0  0  0  0  0  0  0  0  0  0  0  0
  -22.2303   -8.5675   21.1996 C   0  0  0  0  0  0  0  0  0  0  0  0
  -26.2106  -26.3794   19.2555 C   0  0  0  0  0  0  0  0  0  0  0  0
  -21.1594   -6.5395   21.7124 C   0  0  0  0  0  0  0  0  0  0  0  0
  -21.3417   -3.8388   22.3873 C   0  0  0  0  0  0  0  0  0  0  0  0
  -20.6054   -6.0803   22.9073 C   0  0  0  0  0  0  0  0  0  0  0  0
  -25.8392  -10.7059   20.6509 C   0  0  0  0  0  0  0  0  0  0  0  0
  -27.8627  -11.3277   20.0562 C   0  0  0  0  0  0  0  0  0  0  0  0
  -28.5335  -23.9031   17.9068 C   0  0  0  0  0  0  0  0  0  0  0  0
  -29.2771  -21.9643   18.1199 C   0  0  0  0  0  0  0  0  0  0  0  0
  -27.2104   -9.0623   19.2248 C   0  0  0  0  0  0  0  0  0  0  0  0
  -23.9075  -29.7158   22.8649 C   0  0  0  0  0  0  0  0  0  0  0  0
  -21.0334  -28.9893   21.5479 C   0  0  0  0  0  0  0  0  0  0  0  0
  -19.2791  -27.2174   19.2179 C   0  0  0  0  0  0  0  0  0  0  0  0
  -28.8122  -16.7506   19.7168 C   0  0  0  0  0  0  0  0  0  0  0  0
  -25.8375  -33.3927   25.8335 C   0  0  0  0  0  0  0  0  0  0  0  0
  -24.3671  -30.0919   20.4147 C   0  0  0  0  0  0  0  0  0  0  0  0
  -22.9791  -27.5243   20.8896 C   0  0  0  0  0  0  0  0  0  0  0  0
  -24.4540  -32.7907   25.6013 C   0  0  0  0  0  0  0  0  0  0  0  0
  -27.7825  -15.4111   23.0068 C   0  0  0  0  0  0  0  0  0  0  0  0
  -24.5182  -31.2678   25.6578 C   0  0  0  0  0  0  0  0  0  0  0  0
  -27.2225  -14.0504   22.6049 C   0  0  0  0  0  0  0  0  0  0  0  0
  -27.5477  -16.4708   21.9309 C   0  0  0  0  0  0  0  0  0  0  0  0
  -27.4961  -14.7096   20.1843 C   0  0  0  0  0  0  0  0  0  0  0  0
  -30.1102  -20.3633   19.8126 C   0  0  0  0  0  0  0  0  0  0  0  0
  -29.3150  -19.4907   18.0731 C   0  0  0  0  0  0  0  0  0  0  0  0
  -25.4327  -30.7129   24.5590 C   0  0  1  0  0  0  0  0  0  0  0  0
  -23.3103  -29.9398   21.5044 C   0  0  1  0  0  0  0  0  0  0  0  0
  -27.7705  -13.6234   21.2352 C   0  0  2  0  0  0  0  0  0  0  0  0
  -30.0196  -18.9156   19.3099 C   0  0  0  0  0  0  0  0  0  0  0  0
  -16.9399  -26.8027   18.4091 C   0  0  0  0  0  0  0  0  0  0  0  0
  -20.5139  -27.2090   23.9708 C   0  0  0  0  0  0  0  0  0  0  0  0
  -18.6616  -26.1198   22.6860 C   0  0  0  0  0  0  0  0  0  0  0  0
  -18.5424  -28.5531   23.2221 C   0  0  0  0  0  0  0  0  0  0  0  0
  -29.1580  -21.3470   15.6716 C   0  0  0  0  0  0  0  0  0  0  0  0
  -19.9035  -28.2589   16.5189 C   0  0  0  0  0  0  0  0  0  0  0  0
  -28.0771  -25.2863   18.2668 C   0  0  0  0  0  0  0  0  0  1  0  0
  -20.1767  -27.7489   21.4687 C   0  0  1  0  0  0  0  0  0  0  0  0
  -18.1998  -27.6368   18.2362 C   0  0  2  0  0  0  0  0  0  0  0  0
  -19.5001  -27.4082   22.8265 C   0  0  0  0  0  0  0  0  0  0  0  0
  -25.9870  -11.9203   21.1868 N   0  0  0  0  0  0  0  0  0  0  0  0
  -28.9900  -23.0210   18.8440 N   0  0  0  0  0  0  0  0  0  0  0  0
  -28.5202  -23.4586   16.6484 N   0  0  0  0  0  0  0  0  0  0  0  0
  -27.2275  -12.2720   20.8078 N   0  0  0  0  0  0  0  0  0  0  0  0
  -29.0004  -22.2165   16.8124 N   0  0  0  0  0  0  0  0  0  0  0  0
  -29.7740  -20.7643   18.4947 N   0  0  0  0  0  0  0  0  0  0  0  0
  -22.3941  -28.8259   21.2516 N   0  0  0  0  0  0  0  0  0  0  0  0
  -28.0100  -16.0174   20.6094 N   0  0  0  0  0  0  0  0  0  0  0  0
  -29.1157  -11.5193   19.5919 N   0  0  0  0  0  0  0  0  0  0  0  0
  -26.1933   -8.0984   19.2009 N   0  0  0  0  0  0  0  0  0  0  0  0
  -24.7531  -30.7262   23.2814 N   0  0  0  0  0  0  0  0  0  0  0  0
  -19.2393  -27.9696   20.3728 N   0  0  0  0  0  0  0  0  0  0  0  0
  -29.1853  -18.0226   20.1398 N   0  0  0  0  0  0  0  0  0  0  0  0
  -18.6822  -27.4746   16.8355 N   0  3  0  0  0  0  0  0  0  0  0  0
  -28.2957   -8.8242   18.6427 O   0  0  0  0  0  0  0  0  0  0  0  0
  -23.6210  -28.7021   23.4910 O   0  0  0  0  0  0  0  0  0  0  0  0
  -20.5132  -30.0650   21.8543 O   0  0  0  0  0  0  0  0  0  0  0  0
  -20.0752  -26.3105   18.9851 O   0  0  0  0  0  0  0  0  0  0  0  0
  -29.1680  -16.3123   18.6175 O   0  0  0  0  0  0  0  0  0  0  0  0
  -21.0690   -7.8797   21.3756 O   0  0  0  0  0  0  0  0  0  0  0  0
  -26.7926  -25.2069   18.8835 O   0  0  0  0  0  0  0  0  0  1  0  0
  -21.4280   -2.5418   22.7105 F   0  0  0  0  0  0  0  0  0  0  0  0
  -19.9833   -6.9315   23.7346 F   0  0  0  0  0  0  0  0  0  0  0  0
  1  2  1  0  0  0  0
  1  5  2  0  0  0  0
  2  6  2  0  0  0  0
  3  8  2  0  0  0  0
  3 15  1  0  0  0  0
  4  9  1  0  0  0  0
  4 15  2  0  0  0  0
  5 17  1  0  0  0  0
  6 19  1  0  0  0  0
  7 10  2  0  0  0  0
  7 18  1  0  0  0  0
  8 21  1  0  0  0  0
  9 21  2  0  0  0  0
 10 22  1  0  0  0  0
 11 12  2  0  0  0  0
 11 23  1  0  0  0  0
 12 24  1  0  0  0  0
 13 20  1  0  0  0  0
 13 22  2  0  0  0  0
 14 24  2  0  0  0  0
 14 25  1  0  0  0  0
 15 26  1  0  0  0  0
 16 26  1  0  0  0  0
 16 27  2  0  0  0  0
 16 30  1  0  0  0  0
 17 19  2  0  0  0  0
 17 35  1  0  0  0  0
 18 20  2  0  0  0  0
 18 36  1  0  0  0  0
 19 46  1  0  0  0  0
 20 37  1  0  0  0  0
 21 79  1  0  0  0  0
 22 80  1  0  0  0  0
 23 25  2  0  0  0  0
 23 79  1  0  0  0  0
 24 81  1  0  0  0  0
 25 82  1  0  0  0  0
 26 60  2  0  0  0  0
 27 63  1  0  0  0  0
 27 68  1  0  0  0  0
 28 56  1  0  0  0  0
 28 61  1  0  0  0  0
 28 62  2  0  0  0  0
 29 61  2  0  0  0  0
 29 64  1  0  0  0  0
 29 65  1  0  0  0  0
 30 69  1  0  0  0  0
 30 74  2  0  0  0  0
 31 47  1  0  0  0  0
 31 70  1  0  0  0  0
 31 75  2  0  0  0  0
 32 57  1  0  0  0  0
 32 66  1  0  0  0  0
 32 76  2  0  0  0  0
 33 58  1  0  0  0  0
 33 71  1  0  0  0  0
 33 77  2  0  0  0  0
 34 67  1  0  0  0  0
 34 72  1  0  0  0  0
 34 78  2  0  0  0  0
 35 38  1  0  0  0  0
 36 47  1  0  0  0  0
 37 66  1  0  0  0  0
 38 40  1  0  0  0  0
 39 41  1  0  0  0  0
 39 42  1  0  0  0  0
 40 46  1  0  0  0  0
 41 48  1  0  0  0  0
 42 67  1  0  0  0  0
 43 48  1  0  0  0  0
 43 67  1  0  0  0  0
 44 49  1  0  0  0  0
 44 65  1  0  0  0  0
 45 49  1  0  0  0  0
 45 65  1  0  0  0  0
 46 70  1  0  0  0  0
 47 66  1  0  0  0  0
 48 63  1  0  0  0  0
 49 72  1  0  0  0  0
 50 58  1  0  0  0  0
 51 59  1  0  0  0  0
 52 59  1  0  0  0  0
 53 59  1  0  0  0  0
 54 64  1  0  0  0  0
 55 73  1  0  0  0  0
 56 80  1  0  0  0  0
 57 59  1  0  0  0  0
 57 71  1  0  0  0  0
 58 73  1  0  0  0  0
 60 63  1  0  0  0  0
 62 64  1  0  0  0  0
M  CHG  1  73   1
M  ISO  4  34 100  56 101  72 100  80 101
M  END
> <Batch ID>
0193

> <Smiles>
CNC(C)C(=O)NC(C(=O)N1Cc2cc([101O:1][101CH2:1]c3nc(N4CC([100NH:0][100C:0](=O)N5CCCC(n6nc(-c7ccc(Oc8ccc(F)cc8F)cc7)c(C(N)=O)c6N)C5)C4)n(C)n3)ccc2CC1C(=O)NC1CCCc2ccccc21)C(C)(C)C

> <Shape>
0.319

> <Color>
0.082

> <Negative vol penalty>
0.000

$$$$

  -OEChem-04052323323D

 90100  0     1  0  0  0  0  0999 V2000
  -16.7541  -30.0110   23.1090 C   0  0  0  0  0  0  0  0  0  0  0  0
  -17.4682  -29.6262   21.9787 C   0  0  0  0  0  0  0  0  0  0  0  0
  -26.1464  -14.1115   21.4412 C   0  0  0  0  0  0  0  0  0  0  0  0
  -25.5711  -15.5481   19.5858 C   0  0  0  0  0  0  0  0  0  0  0  0
  -17.3179  -29.8556   24.3747 C   0  0  0  0  0  0  0  0  0  0  0  0
  -18.7470  -29.0868   22.1135 C   0  0  0  0  0  0  0  0  0  0  0  0
  -21.2902  -24.7315   18.6394 C   0  0  0  0  0  0  0  0  0  0  0  0
  -24.8066  -13.7468   21.5742 C   0  0  0  0  0  0  0  0  0  0  0  0
  -24.2314  -15.1834   19.7188 C   0  0  0  0  0  0  0  0  0  0  0  0
  -22.1763  -24.7875   17.5644 C   0  0  0  0  0  0  0  0  0  0  0  0
  -22.6305  -11.6572   20.0475 C   0  0  0  0  0  0  0  0  0  0  0  0
  -22.3416  -10.3042   20.2248 C   0  0  0  0  0  0  0  0  0  0  0  0
  -24.0203  -24.4068   19.0723 C   0  0  0  0  0  0  0  0  0  0  0  0
  -29.1371  -26.5259   17.8195 C   0  0  0  0  0  0  0  0  0  0  0  0
  -21.3011  -10.8044   22.3471 C   0  0  0  0  0  0  0  0  0  0  0  0
  -26.5286  -15.0122   20.4470 C   0  0  0  0  0  0  0  0  0  0  0  0
  -29.0030  -14.5403   20.0439 C   0  0  0  0  0  0  0  0  0  0  0  0
  -18.6003  -29.3050   24.5256 C   0  0  0  0  0  0  0  0  0  0  0  0
  -21.7645  -24.5233   19.9425 C   0  0  0  0  0  0  0  0  0  0  0  0
  -19.3289  -28.9251   23.3823 C   0  0  0  0  0  0  0  0  0  0  0  0
  -23.1380  -24.3461   20.1617 C   0  0  0  0  0  0  0  0  0  0  0  0
  -28.2492  -27.5859   17.8728 C   0  0  0  0  0  0  0  0  0  0  0  0
  -23.8491  -14.2827   20.7130 C   0  0  0  0  0  0  0  0  0  0  0  0
  -23.5418  -24.6280   17.7811 C   0  0  0  0  0  0  0  0  0  0  0  0
  -22.2549  -12.5838   21.0201 C   0  0  0  0  0  0  0  0  0  0  0  0
  -21.6768   -9.8778   21.3745 C   0  0  0  0  0  0  0  0  0  0  0  0
  -21.5901  -12.1574   22.1699 C   0  0  0  0  0  0  0  0  0  0  0  0
  -27.9123  -15.3898   20.3095 C   0  0  0  0  0  0  0  0  0  0  0  0
  -29.4024  -25.8458   18.9910 C   0  0  0  0  0  0  0  0  0  0  0  0
  -27.6851  -27.8954   19.0941 C   0  0  0  0  0  0  0  0  0  0  0  0
  -30.0906  -15.3783   20.0098 C   0  0  0  0  0  0  0  0  0  0  0  0
  -29.0304  -13.1205   19.8456 C   0  0  0  0  0  0  0  0  0  0  0  0
  -21.7102  -26.1981   22.6436 C   0  0  0  0  0  0  0  0  0  0  0  0
  -23.0026  -23.4956   23.8882 C   0  0  0  0  0  0  0  0  0  0  0  0
  -24.7731  -20.6249   23.3676 C   0  0  0  0  0  0  0  0  0  0  0  0
  -30.4285  -21.1864   18.7698 C   0  0  0  0  0  0  0  0  0  0  0  0
  -19.1869  -29.2004   25.9111 C   0  0  0  0  0  0  0  0  0  0  0  0
  -20.7932  -24.4389   21.0879 C   0  0  0  0  0  0  0  0  0  0  0  0
  -23.6960  -24.0998   21.5389 C   0  0  0  0  0  0  0  0  0  0  0  0
  -20.3973  -28.2737   25.9917 C   0  0  0  0  0  0  0  0  0  0  0  0
  -31.7285  -19.4894   21.7607 C   0  0  0  0  0  0  0  0  0  0  0  0
  -21.3679  -28.5628   24.8510 C   0  0  0  0  0  0  0  0  0  0  0  0
  -27.0168  -29.9912   21.6528 C   0  0  0  0  0  0  0  0  0  0  0  0
  -25.7126  -30.5277   21.1323 C   0  0  0  0  0  0  0  0  0  0  0  0
  -30.9280  -18.1922   21.7320 C   0  0  0  0  0  0  0  0  0  0  0  0
  -30.9385  -20.6754   21.2066 C   0  0  0  0  0  0  0  0  0  0  0  0
  -30.0340  -23.4309   20.0172 C   0  0  0  0  0  0  0  0  0  0  0  0
  -30.4277  -23.5851   17.9350 C   0  0  0  0  0  0  0  0  0  0  0  0
  -29.5725  -19.1232   19.8255 C   0  0  0  0  0  0  0  0  0  0  0  0
  -20.7088  -28.3130   23.4892 C   0  0  1  0  0  0  0  0  0  0  0  0
  -30.3942  -24.6119   19.0858 C   0  0  0  0  0  0  0  0  0  0  0  0
  -21.4359  -24.7350   22.4394 C   0  0  1  0  0  0  0  0  0  0  0  0
  -26.2183  -29.1929   20.6598 C   0  0  0  0  0  0  0  0  0  0  0  0
  -30.3943  -17.9241   20.3174 C   0  0  2  0  0  0  0  0  0  0  0  0
  -29.1707  -29.0753   16.0655 C   0  0  0  0  0  0  0  0  0  0  0  0
  -25.7049  -18.6373   24.5834 C   0  0  0  0  0  0  0  0  0  0  0  0
  -25.2526  -25.2323   24.9979 C   0  0  0  0  0  0  0  0  0  0  0  0
  -26.5929  -23.1475   25.3521 C   0  0  0  0  0  0  0  0  0  0  0  0
  -24.4339  -23.4608   26.5619 C   0  0  0  0  0  0  0  0  0  0  0  0
  -23.1387  -18.7394   21.7763 C   0  0  0  0  0  0  0  0  0  0  0  0
  -26.7192  -29.0243   19.2279 C   0  0  0  0  0  0  0  0  0  0  0  0
  -25.2877  -26.0948   14.9969 C   0  0  0  0  0  0  0  0  0  0  0  0
  -27.2859  -27.5008   15.5157 C   0  0  0  0  0  0  0  0  0  0  0  0
  -24.0411  -25.5073   15.6285 C   0  0  0  0  0  0  0  0  0  1  0  0
  -27.9217  -28.3705   16.6080 C   0  0  1  0  0  0  0  0  0  0  0  0
  -24.4053  -22.9722   24.0814 C   0  0  1  0  0  0  0  0  0  0  0  0
  -24.5223  -19.1933   23.8057 C   0  0  2  0  0  0  0  0  0  0  0  0
  -25.1612  -23.7098   25.2225 C   0  0  0  0  0  0  0  0  0  0  0  0
  -28.2741  -16.6694   20.4354 N   0  0  0  0  0  0  0  0  0  0  0  0
  -28.8358  -26.1707   20.1724 N   0  0  0  0  0  0  0  0  0  0  0  0
  -27.9629  -27.2123   20.2247 N   0  0  0  0  0  0  0  0  0  0  0  0
  -29.6044  -16.6300   20.2481 N   0  0  0  0  0  0  0  0  0  0  0  0
  -22.7067  -24.0320   22.6270 N   0  0  0  0  0  0  0  0  0  0  0  0
  -30.3291  -20.3771   19.9065 N   0  0  0  0  0  0  0  0  0  0  0  0
  -30.5196  -22.5506   18.9614 N   0  0  0  0  0  0  0  0  0  0  0  0
  -31.4060  -15.1592   19.7996 N   0  0  0  0  0  0  0  0  0  0  0  0
  -28.8777  -12.6247   18.5436 N   0  0  0  0  0  0  0  0  0  0  0  0
  -20.6573  -26.8949   23.2051 N   0  0  0  0  0  0  0  0  0  0  0  0
  -24.2798  -21.5324   24.2810 N   0  0  0  0  0  0  0  0  0  0  0  0
  -24.2884  -18.3220   22.6194 N   0  3  0  0  0  0  0  0  0  0  0  0
  -26.0212  -26.8935   16.0111 N   0  3  0  0  0  0  0  0  0  0  0  0
  -29.1693  -12.3149   20.7970 O   0  0  0  0  0  0  0  0  0  0  0  0
  -22.7972  -26.6603   22.3173 O   0  0  0  0  0  0  0  0  0  0  0  0
  -22.1969  -23.4245   24.8196 O   0  0  0  0  0  0  0  0  0  0  0  0
  -25.3523  -20.9097   22.3216 O   0  0  0  0  0  0  0  0  0  0  0  0
  -30.4035  -20.7171   17.6249 O   0  0  0  0  0  0  0  0  0  0  0  0
  -22.5418  -13.9269   20.8423 O   0  0  0  0  0  0  0  0  0  0  0  0
  -24.4089  -24.6828   16.7337 O   0  0  0  0  0  0  0  0  0  1  0  0
  -21.3980   -8.5786   21.5439 F   0  0  0  0  0  0  0  0  0  0  0  0
  -21.2256  -13.0431   23.1072 F   0  0  0  0  0  0  0  0  0  0  0  0
  1  2  1  0  0  0  0
  1  5  2  0  0  0  0
  2  6  2  0  0  0  0
  3  8  2  0  0  0  0
  3 16  1  0  0  0  0
  4  9  1  0  0  0  0
  4 16  2  0  0  0  0
  5 18  1  0  0  0  0
  6 20  1  0  0  0  0
  7 10  2  0  0  0  0
  7 19  1  0  0  0  0
  8 23  1  0  0  0  0
  9 23  2  0  0  0  0
 10 24  1  0  0  0  0
 11 12  2  0  0  0  0
 11 25  1  0  0  0  0
 12 26  1  0  0  0  0
 13 21  1  0  0  0  0
 13 24  2  0  0  0  0
 14 22  1  0  0  0  0
 14 29  2  0  0  0  0
 15 26  2  0  0  0  0
 15 27  1  0  0  0  0
 16 28  1  0  0  0  0
 17 28  1  0  0  0  0
 17 31  2  0  0  0  0
 17 32  1  0  0  0  0
 18 20  2  0  0  0  0
 18 37  1  0  0  0  0
 19 21  2  0  0  0  0
 19 38  1  0  0  0  0
 20 50  1  0  0  0  0
 21 39  1  0  0  0  0
 22 30  2  0  0  0  0
 22 65  1  0  0  0  0
 23 87  1  0  0  0  0
 24 88  1  0  0  0  0
 25 27  2  0  0  0  0
 25 87  1  0  0  0  0
 26 89  1  0  0  0  0
 27 90  1  0  0  0  0
 28 69  2  0  0  0  0
 29 51  1  0  0  0  0
 29 70  1  0  0  0  0
 30 61  1  0  0  0  0
 30 71  1  0  0  0  0
 31 72  1  0  0  0  0
 31 76  1  0  0  0  0
 32 77  1  0  0  0  0
 32 82  2  0  0  0  0
 33 52  1  0  0  0  0
 33 78  1  0  0  0  0
 33 83  2  0  0  0  0
 34 66  1  0  0  0  0
 34 73  1  0  0  0  0
 34 84  2  0  0  0  0
 35 67  1  0  0  0  0
 35 79  1  0  0  0  0
 35 85  2  0  0  0  0
 36 74  1  0  0  0  0
 36 75  1  0  0  0  0
 36 86  2  0  0  0  0
 37 40  1  0  0  0  0
 38 52  1  0  0  0  0
 39 73  1  0  0  0  0
 40 42  1  0  0  0  0
 41 45  1  0  0  0  0
 41 46  1  0  0  0  0
 42 50  1  0  0  0  0
 43 44  1  0  0  0  0
 43 53  1  0  0  0  0
 44 53  1  0  0  0  0
 45 54  1  0  0  0  0
 46 74  1  0  0  0  0
 47 51  1  0  0  0  0
 47 75  1  0  0  0  0
 48 51  1  0  0  0  0
 48 75  1  0  0  0  0
 49 54  1  0  0  0  0
 49 74  1  0  0  0  0
 50 78  1  0  0  0  0
 52 73  1  0  0  0  0
 53 61  1  0  0  0  0
 54 72  1  0  0  0  0
 55 65  1  0  0  0  0
 56 67  1  0  0  0  0
 57 68  1  0  0  0  0
 58 68  1  0  0  0  0
 59 68  1  0  0  0  0
 60 80  1  0  0  0  0
 62 64  1  0  0  0  0
 62 81  1  0  0  0  0
 63 65  1  0  0  0  0
 63 81  1  0  0  0  0
 64 88  1  0  0  0  0
 66 68  1  0  0  0  0
 66 79  1  0  0  0  0
 67 80  1  0  0  0  0
 69 72  1  0  0  0  0
 70 71  2  0  0  0  0
M  CHG  2  80   1  81   1
M  ISO  4  36 100  64 101  75 100  88 101
M  END
> <Batch ID>
0193

> <Smiles>
CNC(C)C(=O)NC(C(=O)N1Cc2cc([101O:1][101CH2:1]CNCC(C)c3cc(C4C[100N:0]([100C:0](=O)N5CCCC(n6nc(-c7ccc(Oc8ccc(F)cc8F)cc7)c(C(N)=O)c6N)C5)C4)nnc3CC3CC3)ccc2CC1C(=O)NC1CCCc2ccccc21)C(C)(C)C

> <Shape>
0.243

> <Color>
0.062

> <Negative vol penalty>
0.000

$$$$

  -OEChem-04052323323D

 87 96  0     1  0  0  0  0  0999 V2000
  -28.8929  -34.2778   22.5103 C   0  0  0  0  0  0  0  0  0  0  0  0
  -29.1514  -32.9412   22.2235 C   0  0  0  0  0  0  0  0  0  0  0  0
  -23.0959   -9.8450   19.9877 C   0  0  0  0  0  0  0  0  0  0  0  0
  -23.9709   -9.8843   22.2394 C   0  0  0  0  0  0  0  0  0  0  0  0
  -28.5192  -35.1493   21.4882 C   0  0  0  0  0  0  0  0  0  0  0  0
  -29.0353  -32.4752   20.9144 C   0  0  0  0  0  0  0  0  0  0  0  0
  -32.9086  -29.5084   19.5578 C   0  0  0  0  0  0  0  0  0  0  0  0
  -22.4071   -8.6668   20.2759 C   0  0  0  0  0  0  0  0  0  0  0  0
  -23.2821   -8.7061   22.5276 C   0  0  0  0  0  0  0  0  0  0  0  0
  -32.8953  -28.1930   20.0197 C   0  0  0  0  0  0  0  0  0  0  0  0
  -20.1192   -7.7958   23.2944 C   0  0  0  0  0  0  0  0  0  0  0  0
  -19.4248   -7.7319   24.5024 C   0  0  0  0  0  0  0  0  0  0  0  0
  -32.0628  -27.4562   17.8788 C   0  0  0  0  0  0  0  0  0  0  0  0
  -33.2124  -22.8944   19.6045 C   0  0  0  0  0  0  0  0  0  0  0  0
  -20.7701   -5.8414   25.1757 C   0  0  0  0  0  0  0  0  0  0  0  0
  -23.8778  -10.4537   20.9694 C   0  0  0  0  0  0  0  0  0  0  0  0
  -24.1232  -12.9891   20.8307 C   0  0  0  0  0  0  0  0  0  0  0  0
  -28.4079  -34.6958   20.1643 C   0  0  0  0  0  0  0  0  0  0  0  0
  -32.4881  -29.8094   18.2544 C   0  0  0  0  0  0  0  0  0  0  0  0
  -28.6585  -33.3411   19.8738 C   0  0  0  0  0  0  0  0  0  0  0  0
  -32.0742  -28.7759   17.4020 C   0  0  0  0  0  0  0  0  0  0  0  0
  -33.1704  -21.6602   20.2291 C   0  0  0  0  0  0  0  0  0  0  0  0
  -22.5002   -8.0973   21.5459 C   0  0  0  0  0  0  0  0  0  0  0  0
  -32.4696  -27.1670   19.1811 C   0  0  0  0  0  0  0  0  0  0  0  0
  -21.1391   -6.8825   23.0270 C   0  0  0  0  0  0  0  0  0  0  0  0
  -19.7502   -6.7547   25.4430 C   0  0  0  0  0  0  0  0  0  0  0  0
  -21.4645   -5.9053   23.9676 C   0  0  0  0  0  0  0  0  0  0  0  0
  -24.5900  -11.6705   20.6721 C   0  0  0  0  0  0  0  0  0  0  0  0
  -32.0169  -23.5492   19.3866 C   0  0  0  0  0  0  0  0  0  0  0  0
  -31.9357  -21.1627   20.5945 C   0  0  0  0  0  0  0  0  0  0  0  0
  -25.1681  -13.7760   20.4118 C   0  0  0  0  0  0  0  0  0  0  0  0
  -22.8581  -13.4606   21.3136 C   0  0  0  0  0  0  0  0  0  0  0  0
  -30.1544  -31.5652   16.9996 C   0  0  0  0  0  0  0  0  0  0  0  0
  -31.6326  -30.8314   14.2070 C   0  0  0  0  0  0  0  0  0  0  0  0
  -33.6685  -28.7075   12.4774 C   0  0  0  0  0  0  0  0  0  0  0  0
  -30.7753  -14.6691   20.7601 C   0  0  0  0  0  0  0  0  0  0  0  0
  -27.9549  -35.6646   19.1008 C   0  0  0  0  0  0  0  0  0  0  0  0
  -32.5338  -31.2301   17.7625 C   0  0  0  0  0  0  0  0  0  0  0  0
  -31.6321  -29.0437   15.9873 C   0  0  0  0  0  0  0  0  0  0  0  0
  -28.2187  -35.1754   17.6791 C   0  0  0  0  0  0  0  0  0  0  0  0
  -29.4384  -12.5972   17.9923 C   0  0  0  0  0  0  0  0  0  0  0  0
  -27.7776  -33.7235   17.5236 C   0  0  0  0  0  0  0  0  0  0  0  0
  -28.0479  -12.2230   18.5021 C   0  0  0  0  0  0  0  0  0  0  0  0
  -31.4249  -17.4803   22.6866 C   0  0  0  0  0  0  0  0  0  0  0  0
  -29.3750  -17.8630   21.2605 C   0  0  0  0  0  0  0  0  0  0  0  0
  -30.4145  -12.8440   19.1382 C   0  0  0  0  0  0  0  0  0  0  0  0
  -31.0153  -16.0164   22.8246 C   0  0  0  0  0  0  0  0  0  0  0  0
  -29.0192  -16.3804   21.4053 C   0  0  0  0  0  0  0  0  0  0  0  0
  -28.5495  -13.4827   20.6336 C   0  0  0  0  0  0  0  0  0  0  0  0
  -28.5674  -32.8034   18.4622 C   0  0  1  0  0  0  0  0  0  0  0  0
  -31.5967  -31.4856   16.5861 C   0  0  1  0  0  0  0  0  0  0  0  0
  -27.5314  -13.2709   19.5029 C   0  0  2  0  0  0  0  0  0  0  0  0
  -30.1924  -18.3520   22.4542 C   0  0  0  0  0  0  0  0  0  0  0  0
  -34.4321  -20.9122   20.4884 C   0  0  0  0  0  0  0  0  0  0  0  0
  -34.6632  -28.3489   10.2016 C   0  0  0  0  0  0  0  0  0  0  0  0
  -28.9390  -29.8197   13.1918 C   0  0  0  0  0  0  0  0  0  0  0  0
  -30.1557  -28.6365   11.3511 C   0  0  0  0  0  0  0  0  0  0  0  0
  -30.2622  -31.1232   11.5172 C   0  0  0  0  0  0  0  0  0  0  0  0
  -36.4289  -28.9269   13.5219 C   0  0  0  0  0  0  0  0  0  0  0  0
  -30.8809  -20.5135   23.4811 C   0  0  0  0  0  0  0  0  0  0  0  0
  -31.8118  -19.8312   21.2747 C   0  0  0  0  0  0  0  0  0  0  0  0
  -32.0071  -24.8807   18.7173 C   0  0  0  0  0  0  0  0  0  1  0  0
  -31.5187  -29.7138   13.1985 C   0  0  1  0  0  0  0  0  0  0  0  0
  -34.8626  -28.9671   11.5767 C   0  0  2  0  0  0  0  0  0  0  0  0
  -30.2253  -29.8181   12.3419 C   0  0  0  0  0  0  0  0  0  0  0  0
  -25.8345  -11.6186   20.1900 N   0  0  0  0  0  0  0  0  0  0  0  0
  -30.8229  -23.0384   19.7548 N   0  0  0  0  0  0  0  0  0  0  0  0
  -30.7817  -21.8256   20.3690 N   0  0  0  0  0  0  0  0  0  0  0  0
  -26.1585  -12.9144   20.0419 N   0  0  0  0  0  0  0  0  0  0  0  0
  -31.6888  -30.4499   15.5550 N   0  0  0  0  0  0  0  0  0  0  0  0
  -29.8818  -13.8077   20.1016 N   0  0  0  0  0  0  0  0  0  0  0  0
  -30.2226  -15.5792   21.6738 N   0  0  0  0  0  0  0  0  0  0  0  0
  -25.3271  -15.1139   20.3274 N   0  0  0  0  0  0  0  0  0  0  0  0
  -21.8977  -12.5169   21.7025 N   0  0  0  0  0  0  0  0  0  0  0  0
  -29.8894  -32.5524   17.9295 N   0  0  0  0  0  0  0  0  0  0  0  0
  -32.7534  -29.7374   12.4217 N   0  0  0  0  0  0  0  0  0  0  0  0
  -36.0989  -28.3902   12.1765 N   0  3  0  0  0  0  0  0  0  0  0  0
  -30.6273  -19.7506   22.2049 N   0  3  1  0  0  0  0  0  0  0  0  0
  -22.5816  -14.6822   21.3822 O   0  0  0  0  0  0  0  0  0  0  0  0
  -29.3418  -30.7895   16.5100 O   0  0  0  0  0  0  0  0  0  0  0  0
  -31.6776  -31.9994   13.8128 O   0  0  0  0  0  0  0  0  0  0  0  0
  -33.5569  -27.6910   13.1592 O   0  0  0  0  0  0  0  0  0  0  0  0
  -31.9926  -14.6276   20.5421 O   0  0  0  0  0  0  0  0  0  0  0  0
  -21.8281   -6.9478   21.8275 O   0  0  0  0  0  0  0  0  0  0  0  0
  -32.4549  -25.8736   19.6326 O   0  0  0  0  0  0  0  0  0  1  0  0
  -19.0843   -6.6944   26.6037 F   0  0  0  0  0  0  0  0  0  0  0  0
  -22.4441   -5.0259   23.7169 F   0  0  0  0  0  0  0  0  0  0  0  0
  1  2  1  0  0  0  0
  1  5  2  0  0  0  0
  2  6  2  0  0  0  0
  3  8  2  0  0  0  0
  3 16  1  0  0  0  0
  4  9  1  0  0  0  0
  4 16  2  0  0  0  0
  5 18  1  0  0  0  0
  6 20  1  0  0  0  0
  7 10  2  0  0  0  0
  7 19  1  0  0  0  0
  8 23  1  0  0  0  0
  9 23  2  0  0  0  0
 10 24  1  0  0  0  0
 11 12  2  0  0  0  0
 11 25  1  0  0  0  0
 12 26  1  0  0  0  0
 13 21  1  0  0  0  0
 13 24  2  0  0  0  0
 14 22  2  0  0  0  0
 14 29  1  0  0  0  0
 15 26  2  0  0  0  0
 15 27  1  0  0  0  0
 16 28  1  0  0  0  0
 17 28  1  0  0  0  0
 17 31  2  0  0  0  0
 17 32  1  0  0  0  0
 18 20  2  0  0  0  0
 18 37  1  0  0  0  0
 19 21  2  0  0  0  0
 19 38  1  0  0  0  0
 20 50  1  0  0  0  0
 21 39  1  0  0  0  0
 22 30  1  0  0  0  0
 22 54  1  0  0  0  0
 23 84  1  0  0  0  0
 24 85  1  0  0  0  0
 25 27  2  0  0  0  0
 25 84  1  0  0  0  0
 26 86  1  0  0  0  0
 27 87  1  0  0  0  0
 28 66  2  0  0  0  0
 29 62  1  0  0  0  0
 29 67  2  0  0  0  0
 30 61  1  0  0  0  0
 30 68  2  0  0  0  0
 31 69  1  0  0  0  0
 31 73  1  0  0  0  0
 32 74  1  0  0  0  0
 32 79  2  0  0  0  0
 33 51  1  0  0  0  0
 33 75  1  0  0  0  0
 33 80  2  0  0  0  0
 34 63  1  0  0  0  0
 34 70  1  0  0  0  0
 34 81  2  0  0  0  0
 35 64  1  0  0  0  0
 35 76  1  0  0  0  0
 35 82  2  0  0  0  0
 36 71  1  0  0  0  0
 36 72  1  0  0  0  0
 36 83  2  0  0  0  0
 37 40  1  0  0  0  0
 38 51  1  0  0  0  0
 39 70  1  0  0  0  0
 40 42  1  0  0  0  0
 41 43  1  0  0  0  0
 41 46  1  0  0  0  0
 42 50  1  0  0  0  0
 43 52  1  0  0  0  0
 44 47  1  0  0  0  0
 44 53  1  0  0  0  0
 45 48  1  0  0  0  0
 45 53  1  0  0  0  0
 46 71  1  0  0  0  0
 47 72  1  0  0  0  0
 48 72  1  0  0  0  0
 49 52  1  0  0  0  0
 49 71  1  0  0  0  0
 50 75  1  0  0  0  0
 51 70  1  0  0  0  0
 52 69  1  0  0  0  0
 53 78  1  0  0  0  0
 55 64  1  0  0  0  0
 56 65  1  0  0  0  0
 57 65  1  0  0  0  0
 58 65  1  0  0  0  0
 59 77  1  0  0  0  0
 60 78  1  0  0  0  0
 61 78  1  0  0  0  0
 62 85  1  0  0  0  0
 63 65  1  0  0  0  0
 63 76  1  0  0  0  0
 64 77  1  0  0  0  0
 66 69  1  0  0  0  0
 67 68  1  0  0  0  0
M  CHG  2  77   1  78   1
M  ISO  4  36 100  62 101  72 100  85 101
M  END
> <Batch ID>
0193

> <Smiles>
CNC(C)C(=O)NC(C(=O)N1Cc2cc([101O:1][101CH2:1]c3cc(C)c(CN(C)C4CC[100N:0]([100C:0](=O)N5CCCC(n6nc(-c7ccc(Oc8ccc(F)cc8F)cc7)c(C(N)=O)c6N)C5)CC4)nn3)ccc2CC1C(=O)NC1CCCc2ccccc21)C(C)(C)C

> <Shape>
0.201

> <Color>
0.174

> <Negative vol penalty>
0.000

$$$$

  -OEChem-04052323323D

 85 94  0     1  0  0  0  0  0999 V2000
  -29.2622  -33.4759   24.6181 C   0  0  0  0  0  0  0  0  0  0  0  0
  -29.1141  -32.1728   24.1540 C   0  0  0  0  0  0  0  0  0  0  0  0
  -24.7490   -8.8915   21.6905 C   0  0  0  0  0  0  0  0  0  0  0  0
  -23.1547  -10.3705   20.6378 C   0  0  0  0  0  0  0  0  0  0  0  0
  -28.1570  -34.1695   25.1093 C   0  0  0  0  0  0  0  0  0  0  0  0
  -27.8607  -31.5621   24.1820 C   0  0  0  0  0  0  0  0  0  0  0  0
  -26.8012  -29.1035   19.8834 C   0  0  0  0  0  0  0  0  0  0  0  0
  -23.7262   -8.3362   22.4594 C   0  0  0  0  0  0  0  0  0  0  0  0
  -22.1319   -9.8151   21.4067 C   0  0  0  0  0  0  0  0  0  0  0  0
  -27.3968  -27.8564   19.6999 C   0  0  0  0  0  0  0  0  0  0  0  0
  -21.2364   -6.0869   22.0417 C   0  0  0  0  0  0  0  0  0  0  0  0
  -21.1929   -4.6975   22.1564 C   0  0  0  0  0  0  0  0  0  0  0  0
  -25.3474  -26.7837   20.3845 C   0  0  0  0  0  0  0  0  0  0  0  0
  -21.4308   -4.8878   24.5531 C   0  0  0  0  0  0  0  0  0  0  0  0
  -24.4633   -9.9087   20.7797 C   0  0  0  0  0  0  0  0  0  0  0  0
  -25.9591  -10.0554   18.7185 C   0  0  0  0  0  0  0  0  0  0  0  0
  -26.8877  -33.5705   25.1344 C   0  0  0  0  0  0  0  0  0  0  0  0
  -25.4755  -29.2004   20.3301 C   0  0  0  0  0  0  0  0  0  0  0  0
  -26.7378  -32.2480   24.6753 C   0  0  0  0  0  0  0  0  0  0  0  0
  -24.7365  -28.0333   20.5704 C   0  0  0  0  0  0  0  0  0  0  0  0
  -22.4177   -8.7980   22.3175 C   0  0  0  0  0  0  0  0  0  0  0  0
  -26.6708  -26.6962   19.9532 C   0  0  0  0  0  0  0  0  0  0  0  0
  -21.3772   -6.8768   23.1828 C   0  0  0  0  0  0  0  0  0  0  0  0
  -21.2901   -4.0979   23.4121 C   0  0  0  0  0  0  0  0  0  0  0  0
  -21.4743   -6.2773   24.4385 C   0  0  0  0  0  0  0  0  0  0  0  0
  -25.5195  -10.4831   19.9856 C   0  0  0  0  0  0  0  0  0  0  0  0
  -28.6913  -20.8720   19.4939 C   0  0  0  0  0  0  0  0  0  0  0  0
  -28.3964  -21.3344   20.7575 C   0  0  0  0  0  0  0  0  0  0  0  0
  -27.5474  -22.6303   18.5833 C   0  0  0  0  0  0  0  0  0  0  0  0
  -27.2517  -23.0924   19.8469 C   0  0  0  0  0  0  0  0  0  0  0  0
  -26.9746  -10.9224   18.3967 C   0  0  0  0  0  0  0  0  0  0  0  0
  -25.4912   -8.9714   17.9050 C   0  0  0  0  0  0  0  0  0  0  0  0
  -24.0561  -30.4373   22.8912 C   0  0  0  0  0  0  0  0  0  0  0  0
  -21.3479  -29.6564   21.2855 C   0  0  0  0  0  0  0  0  0  0  0  0
  -19.8384  -27.7048   18.9276 C   0  0  0  0  0  0  0  0  0  0  0  0
  -29.0182  -16.1054   18.1569 C   0  0  0  0  0  0  0  0  0  0  0  0
  -25.7317  -34.3433   25.7184 C   0  0  0  0  0  0  0  0  0  0  0  0
  -24.8391  -30.5530   20.4975 C   0  0  0  0  0  0  0  0  0  0  0  0
  -23.3037  -28.0828   21.0320 C   0  0  0  0  0  0  0  0  0  0  0  0
  -24.3670  -33.7569   25.3662 C   0  0  0  0  0  0  0  0  0  0  0  0
  -29.4213  -14.3331   21.1866 C   0  0  0  0  0  0  0  0  0  0  0  0
  -24.3646  -32.2462   25.5772 C   0  0  0  0  0  0  0  0  0  0  0  0
  -28.4580  -13.1556   21.0648 C   0  0  0  0  0  0  0  0  0  0  0  0
  -30.3247  -19.5285   17.9851 C   0  0  0  0  0  0  0  0  0  0  0  0
  -28.8235  -15.5877   20.5640 C   0  0  0  0  0  0  0  0  0  0  0  0
  -30.6684  -18.0477   17.8946 C   0  0  0  0  0  0  0  0  0  0  0  0
  -28.6793  -18.3245   19.2021 C   0  0  0  0  0  0  0  0  0  0  0  0
  -27.5002  -14.2323   18.9633 C   0  0  0  0  0  0  0  0  0  0  0  0
  -25.3898  -31.5602   24.6663 C   0  0  1  0  0  0  0  0  0  0  0  0
  -29.5066  -19.6152   19.2837 C   0  0  2  0  0  0  0  0  0  0  0  0
  -23.6467  -30.5386   21.4490 C   0  0  1  0  0  0  0  0  0  0  0  0
  -28.0502  -12.9388   19.5993 C   0  0  2  0  0  0  0  0  0  0  0  0
  -28.8672  -20.6179   21.9767 C   0  0  0  0  0  0  0  0  0  0  0  0
  -27.2386  -22.5091   16.0981 C   0  0  0  0  0  0  0  0  0  0  0  0
  -17.6075  -27.2713   17.8634 C   0  0  0  0  0  0  0  0  0  0  0  0
  -20.4548  -28.1429   23.7799 C   0  0  0  0  0  0  0  0  0  0  0  0
  -18.7411  -26.9781   22.3746 C   0  0  0  0  0  0  0  0  0  0  0  0
  -18.6485  -29.4553   22.6533 C   0  0  0  0  0  0  0  0  0  0  0  0
  -20.8423  -28.4530   16.2460 C   0  0  0  0  0  0  0  0  0  0  0  0
  -27.0777  -23.3475   17.3639 C   0  0  0  0  0  0  0  0  0  0  0  0
  -26.4482  -24.3306   20.0536 C   0  0  0  0  0  0  0  0  0  1  0  0
  -20.4610  -28.4368   21.2148 C   0  0  1  0  0  0  0  0  0  0  0  0
  -18.9104  -28.0510   17.7773 C   0  0  2  0  0  0  0  0  0  0  0  0
  -19.6040  -28.2520   22.4988 C   0  0  0  0  0  0  0  0  0  0  0  0
  -26.2001  -11.5396   20.4380 N   0  0  0  0  0  0  0  0  0  0  0  0
  -28.2722  -21.5117   18.3841 N   0  0  0  0  0  0  0  0  0  0  0  0
  -27.6712  -22.4529   20.9566 N   0  0  0  0  0  0  0  0  0  0  0  0
  -27.0777  -11.7830   19.4498 N   0  0  0  0  0  0  0  0  0  0  0  0
  -22.7279  -29.4289   21.1871 N   0  0  0  0  0  0  0  0  0  0  0  0
  -28.4122  -15.3635   19.1768 N   0  0  0  0  0  0  0  0  0  0  0  0
  -29.5106  -17.3705   18.4749 N   0  0  0  0  0  0  0  0  0  0  0  0
  -27.7805  -11.0249   17.3186 N   0  0  0  0  0  0  0  0  0  0  0  0
  -24.4398   -8.1798   18.3869 N   0  0  0  0  0  0  0  0  0  0  0  0
  -24.8800  -31.4624   23.3154 N   0  0  0  0  0  0  0  0  0  0  0  0
  -19.6805  -28.5702   19.9894 N   0  0  0  0  0  0  0  0  0  0  0  0
  -19.5612  -27.7363   16.4740 N   0  3  0  0  0  0  0  0  0  0  0  0
  -26.0017   -8.7023   16.7913 O   0  0  0  0  0  0  0  0  0  0  0  0
  -23.6531  -29.4995   23.5692 O   0  0  0  0  0  0  0  0  0  0  0  0
  -20.8348  -30.7705   21.4159 O   0  0  0  0  0  0  0  0  0  0  0  0
  -20.6222  -26.7589   18.8897 O   0  0  0  0  0  0  0  0  0  0  0  0
  -29.1520  -15.6409   17.0166 O   0  0  0  0  0  0  0  0  0  0  0  0
  -21.4194   -8.2562   23.0674 O   0  0  0  0  0  0  0  0  0  0  0  0
  -27.2538  -25.4694   19.7742 O   0  0  0  0  0  0  0  0  0  1  0  0
  -21.2467   -2.7637   23.5222 F   0  0  0  0  0  0  0  0  0  0  0  0
  -21.6085   -7.0310   25.5384 F   0  0  0  0  0  0  0  0  0  0  0  0
  1  2  1  0  0  0  0
  1  5  2  0  0  0  0
  2  6  2  0  0  0  0
  3  8  2  0  0  0  0
  3 15  1  0  0  0  0
  4  9  1  0  0  0  0
  4 15  2  0  0  0  0
  5 17  1  0  0  0  0
  6 19  1  0  0  0  0
  7 10  2  0  0  0  0
  7 18  1  0  0  0  0
  8 21  1  0  0  0  0
  9 21  2  0  0  0  0
 10 22  1  0  0  0  0
 11 12  2  0  0  0  0
 11 23  1  0  0  0  0
 12 24  1  0  0  0  0
 13 20  1  0  0  0  0
 13 22  2  0  0  0  0
 14 24  2  0  0  0  0
 14 25  1  0  0  0  0
 15 26  1  0  0  0  0
 16 26  1  0  0  0  0
 16 31  2  0  0  0  0
 16 32  1  0  0  0  0
 17 19  2  0  0  0  0
 17 37  1  0  0  0  0
 18 20  2  0  0  0  0
 18 38  1  0  0  0  0
 19 49  1  0  0  0  0
 20 39  1  0  0  0  0
 21 82  1  0  0  0  0
 22 83  1  0  0  0  0
 23 25  2  0  0  0  0
 23 82  1  0  0  0  0
 24 84  1  0  0  0  0
 25 85  1  0  0  0  0
 26 65  2  0  0  0  0
 27 28  1  0  0  0  0
 27 50  1  0  0  0  0
 27 66  2  0  0  0  0
 28 53  1  0  0  0  0
 28 67  2  0  0  0  0
 29 30  2  0  0  0  0
 29 60  1  0  0  0  0
 29 66  1  0  0  0  0
 30 61  1  0  0  0  0
 30 67  1  0  0  0  0
 31 68  1  0  0  0  0
 31 72  1  0  0  0  0
 32 73  1  0  0  0  0
 32 77  2  0  0  0  0
 33 51  1  0  0  0  0
 33 74  1  0  0  0  0
 33 78  2  0  0  0  0
 34 62  1  0  0  0  0
 34 69  1  0  0  0  0
 34 79  2  0  0  0  0
 35 63  1  0  0  0  0
 35 75  1  0  0  0  0
 35 80  2  0  0  0  0
 36 70  1  0  0  0  0
 36 71  1  0  0  0  0
 36 81  2  0  0  0  0
 37 40  1  0  0  0  0
 38 51  1  0  0  0  0
 39 69  1  0  0  0  0
 40 42  1  0  0  0  0
 41 43  1  0  0  0  0
 41 45  1  0  0  0  0
 42 49  1  0  0  0  0
 43 52  1  0  0  0  0
 44 46  1  0  0  0  0
 44 50  1  0  0  0  0
 45 70  1  0  0  0  0
 46 71  1  0  0  0  0
 47 50  1  0  0  0  0
 47 71  1  0  0  0  0
 48 52  1  0  0  0  0
 48 70  1  0  0  0  0
 49 74  1  0  0  0  0
 51 69  1  0  0  0  0
 52 68  1  0  0  0  0
 54 60  1  0  0  0  0
 55 63  1  0  0  0  0
 56 64  1  0  0  0  0
 57 64  1  0  0  0  0
 58 64  1  0  0  0  0
 59 76  1  0  0  0  0
 61 83  1  0  0  0  0
 62 64  1  0  0  0  0
 62 75  1  0  0  0  0
 63 76  1  0  0  0  0
 65 68  1  0  0  0  0
M  CHG  1  76   1
M  ISO  4  36 100  61 101  71 100  83 101
M  END
> <Batch ID>
0193

> <Smiles>
CCc1nc(C2CC[100N:0]([100C:0](=O)N3CCCC(n4nc(-c5ccc(Oc6ccc(F)cc6F)cc5)c(C(N)=O)c4N)C3)C2)c(C)nc1[101CH2:1][101O:1]c1ccc2c(c1)CN(C(=O)C(NC(=O)C(C)NC)C(C)(C)C)C(C(=O)NC1CCCc3ccccc31)C2

> <Shape>
0.334

> <Color>
0.085

> <Negative vol penalty>
0.000

$$$$

  -OEChem-04052323323D

 83 91  0     1  0  0  0  0  0999 V2000
  -21.4510  -12.5689   20.4632 C   0  0  0  0  0  0  0  0  0  0  0  0
  -21.5596  -13.7690   21.1585 C   0  0  0  0  0  0  0  0  0  0  0  0
  -25.0935  -27.9455   19.2594 C   0  0  0  0  0  0  0  0  0  0  0  0
  -25.9770  -27.0941   21.3406 C   0  0  0  0  0  0  0  0  0  0  0  0
  -22.6011  -11.8922   20.0590 C   0  0  0  0  0  0  0  0  0  0  0  0
  -22.8185  -14.2926   21.4509 C   0  0  0  0  0  0  0  0  0  0  0  0
  -23.1174  -19.2629   20.5281 C   0  0  0  0  0  0  0  0  0  0  0  0
  -26.2967  -28.6093   19.0201 C   0  0  0  0  0  0  0  0  0  0  0  0
  -27.1803  -27.7579   21.1013 C   0  0  0  0  0  0  0  0  0  0  0  0
  -22.5500  -20.1205   21.4695 C   0  0  0  0  0  0  0  0  0  0  0  0
  -28.3823  -30.9074   21.3603 C   0  0  0  0  0  0  0  0  0  0  0  0
  -28.9546  -31.6132   22.4185 C   0  0  0  0  0  0  0  0  0  0  0  0
  -18.7187  -22.7629   25.5034 C   0  0  0  0  0  0  0  0  0  0  0  0
  -24.7366  -20.5370   22.3991 C   0  0  0  0  0  0  0  0  0  0  0  0
  -30.9295  -30.2290   22.2737 C   0  0  0  0  0  0  0  0  0  0  0  0
  -18.2415  -24.0228   25.7707 C   0  0  0  0  0  0  0  0  0  0  0  0
  -24.9336  -27.1879   20.4197 C   0  0  0  0  0  0  0  0  0  0  0  0
  -23.3493  -25.1936   20.2775 C   0  0  0  0  0  0  0  0  0  0  0  0
  -23.8746  -12.4127   20.3382 C   0  0  0  0  0  0  0  0  0  0  0  0
  -24.4997  -19.0270   20.5221 C   0  0  0  0  0  0  0  0  0  0  0  0
  -23.9867  -13.6216   21.0512 C   0  0  0  0  0  0  0  0  0  0  0  0
  -25.3195  -19.6779   21.4550 C   0  0  0  0  0  0  0  0  0  0  0  0
  -27.3401  -28.5155   19.9410 C   0  0  0  0  0  0  0  0  0  0  0  0
  -23.3592  -20.7555   22.4070 C   0  0  0  0  0  0  0  0  0  0  0  0
  -29.0836  -29.8623   20.7588 C   0  0  0  0  0  0  0  0  0  0  0  0
  -30.2282  -31.2741   22.8752 C   0  0  0  0  0  0  0  0  0  0  0  0
  -30.3572  -29.5231   21.2155 C   0  0  0  0  0  0  0  0  0  0  0  0
  -23.6908  -26.5024   20.6677 C   0  0  0  0  0  0  0  0  0  0  0  0
  -19.5873  -22.4809   26.5748 C   0  0  0  0  0  0  0  0  0  0  0  0
  -22.0713  -25.0173   20.7489 C   0  0  0  0  0  0  0  0  0  0  0  0
  -24.1185  -24.2240   19.5538 C   0  0  0  0  0  0  0  0  0  0  0  0
  -26.3403  -16.4674   20.9274 C   0  0  0  0  0  0  0  0  0  0  0  0
  -28.7118  -18.5262   20.1157 C   0  0  0  0  0  0  0  0  0  0  0  0
  -29.8105  -21.7519   19.9295 C   0  0  0  0  0  0  0  0  0  0  0  0
  -18.9953  -27.5291   25.2300 C   0  0  0  0  0  0  0  0  0  0  0  0
  -25.0894  -11.6215   19.9222 C   0  0  0  0  0  0  0  0  0  0  0  0
  -25.0996  -18.1198   19.4831 C   0  0  0  0  0  0  0  0  0  0  0  0
  -26.8116  -19.4742   21.4780 C   0  0  0  0  0  0  0  0  0  0  0  0
  -26.3819  -12.4334   19.9439 C   0  0  0  0  0  0  0  0  0  0  0  0
  -18.0922  -27.4629   21.7866 C   0  0  0  0  0  0  0  0  0  0  0  0
  -26.4886  -13.2327   21.2388 C   0  0  0  0  0  0  0  0  0  0  0  0
  -19.3938  -27.0911   21.0742 C   0  0  0  0  0  0  0  0  0  0  0  0
  -18.3463  -28.3668   22.9909 C   0  0  0  0  0  0  0  0  0  0  0  0
  -20.6286  -27.4731   23.2486 C   0  0  0  0  0  0  0  0  0  0  0  0
  -25.3343  -14.2342   21.3656 C   0  0  1  0  0  0  0  0  0  0  0  0
  -26.4548  -17.5532   19.8953 C   0  0  1  0  0  0  0  0  0  0  0  0
  -20.4286  -26.5168   22.0604 C   0  0  2  0  0  0  0  0  0  0  0  0
  -19.5236  -19.9725   26.8858 C   0  0  0  0  0  0  0  0  0  0  0  0
  -31.3271  -23.6654   19.3500 C   0  0  0  0  0  0  0  0  0  0  0  0
  -30.1383  -17.6990   22.6829 C   0  0  0  0  0  0  0  0  0  0  0  0
  -31.5907  -19.7244   22.4462 C   0  0  0  0  0  0  0  0  0  0  0  0
  -31.6328  -17.9499   20.6935 C   0  0  0  0  0  0  0  0  0  0  0  0
  -28.5662  -22.0828   17.2647 C   0  0  0  0  0  0  0  0  0  0  0  0
  -18.6382  -25.6592   27.6262 C   0  0  0  0  0  0  0  0  0  0  0  0
  -19.7869  -26.6405   27.4078 C   0  0  0  0  0  0  0  0  0  0  0  0
  -22.4542  -22.0604   25.6595 C   0  0  0  0  0  0  0  0  0  0  0  0
  -23.4640  -21.6917   24.5907 C   0  0  0  0  0  0  0  0  0  1  0  0
  -20.3948  -21.2231   26.7982 C   0  0  1  0  0  0  0  0  0  0  0  0
  -29.6177  -19.4661   20.8740 C   0  0  1  0  0  0  0  0  0  0  0  0
  -30.4801  -22.5248   18.8076 C   0  0  2  0  0  0  0  0  0  0  0  0
  -30.7166  -18.7124   21.6752 C   0  0  0  0  0  0  0  0  0  0  0  0
  -22.7090  -27.1142   21.3353 N   0  0  0  0  0  0  0  0  0  0  0  0
  -19.6596  -23.4812   27.4569 N   0  0  0  0  0  0  0  0  0  0  0  0
  -18.8305  -24.4041   26.9403 N   0  0  0  0  0  0  0  0  0  0  0  0
  -21.7379  -26.1857   21.3683 N   0  0  0  0  0  0  0  0  0  0  0  0
  -27.3500  -18.5729   20.4458 N   0  0  0  0  0  0  0  0  0  0  0  0
  -19.3355  -27.7639   23.8875 N   0  0  0  0  0  0  0  0  0  0  0  0
  -21.2114  -23.9782   20.6897 N   0  0  0  0  0  0  0  0  0  0  0  0
  -25.4137  -24.5691   19.1443 N   0  0  0  0  0  0  0  0  0  0  0  0
  -25.5734  -15.3897   20.5276 N   0  0  0  0  0  0  0  0  0  0  0  0
  -30.1370  -20.4128   19.8929 N   0  0  0  0  0  0  0  0  0  0  0  0
  -19.9885  -26.9489   26.0096 N   0  0  0  0  0  0  0  0  0  0  0  0
  -29.4553  -23.0962   17.8887 N   0  3  0  0  0  0  0  0  0  0  0  0
  -21.4167  -21.0014   25.7397 N   0  3  0  0  0  0  0  0  0  0  0  0
  -23.6645  -23.0910   19.2641 O   0  0  0  0  0  0  0  0  0  0  0  0
  -26.9070  -16.5970   22.0062 O   0  0  0  0  0  0  0  0  0  0  0  0
  -29.1937  -17.7833   19.2569 O   0  0  0  0  0  0  0  0  0  0  0  0
  -29.0745  -22.2837   20.7579 O   0  0  0  0  0  0  0  0  0  0  0  0
  -17.8867  -27.8103   25.6977 O   0  0  0  0  0  0  0  0  0  0  0  0
  -28.5144  -29.1629   19.7078 O   0  0  0  0  0  0  0  0  0  0  0  0
  -22.8079  -21.5926   23.3274 O   0  0  0  0  0  0  0  0  0  1  0  0
  -30.7783  -31.9530   23.8904 F   0  0  0  0  0  0  0  0  0  0  0  0
  -31.0362  -28.5209   20.6408 F   0  0  0  0  0  0  0  0  0  0  0  0
  1  2  1  0  0  0  0
  1  5  2  0  0  0  0
  2  6  2  0  0  0  0
  3  8  2  0  0  0  0
  3 17  1  0  0  0  0
  4  9  1  0  0  0  0
  4 17  2  0  0  0  0
  5 19  1  0  0  0  0
  6 21  1  0  0  0  0
  7 10  2  0  0  0  0
  7 20  1  0  0  0  0
  8 23  1  0  0  0  0
  9 23  2  0  0  0  0
 10 24  1  0  0  0  0
 11 12  2  0  0  0  0
 11 25  1  0  0  0  0
 12 26  1  0  0  0  0
 13 16  2  0  0  0  0
 13 29  1  0  0  0  0
 14 22  1  0  0  0  0
 14 24  2  0  0  0  0
 15 26  2  0  0  0  0
 15 27  1  0  0  0  0
 16 64  1  0  0  0  0
 17 28  1  0  0  0  0
 18 28  1  0  0  0  0
 18 30  2  0  0  0  0
 18 31  1  0  0  0  0
 19 21  2  0  0  0  0
 19 36  1  0  0  0  0
 20 22  2  0  0  0  0
 20 37  1  0  0  0  0
 21 45  1  0  0  0  0
 22 38  1  0  0  0  0
 23 80  1  0  0  0  0
 24 81  1  0  0  0  0
 25 27  2  0  0  0  0
 25 80  1  0  0  0  0
 26 82  1  0  0  0  0
 27 83  1  0  0  0  0
 28 62  2  0  0  0  0
 29 58  1  0  0  0  0
 29 63  2  0  0  0  0
 30 65  1  0  0  0  0
 30 68  1  0  0  0  0
 31 69  1  0  0  0  0
 31 75  2  0  0  0  0
 32 46  1  0  0  0  0
 32 70  1  0  0  0  0
 32 76  2  0  0  0  0
 33 59  1  0  0  0  0
 33 66  1  0  0  0  0
 33 77  2  0  0  0  0
 34 60  1  0  0  0  0
 34 71  1  0  0  0  0
 34 78  2  0  0  0  0
 35 67  1  0  0  0  0
 35 72  1  0  0  0  0
 35 79  2  0  0  0  0
 36 39  1  0  0  0  0
 37 46  1  0  0  0  0
 38 66  1  0  0  0  0
 39 41  1  0  0  0  0
 40 42  1  0  0  0  0
 40 43  1  0  0  0  0
 41 45  1  0  0  0  0
 42 47  1  0  0  0  0
 43 67  1  0  0  0  0
 44 47  1  0  0  0  0
 44 67  1  0  0  0  0
 45 70  1  0  0  0  0
 46 66  1  0  0  0  0
 47 65  1  0  0  0  0
 48 58  1  0  0  0  0
 49 60  1  0  0  0  0
 50 61  1  0  0  0  0
 51 61  1  0  0  0  0
 52 61  1  0  0  0  0
 53 73  1  0  0  0  0
 54 55  1  0  0  0  0
 54 64  1  0  0  0  0
 55 72  1  0  0  0  0
 56 57  1  0  0  0  0
 56 74  1  0  0  0  0
 57 81  1  0  0  0  0
 58 74  1  0  0  0  0
 59 61  1  0  0  0  0
 59 71  1  0  0  0  0
 60 73  1  0  0  0  0
 62 65  1  0  0  0  0
 63 64  1  0  0  0  0
M  CHG  2  73   1  74   1
M  ISO  4  35 100  57 101  72 100  81 101
M  END
> <Batch ID>
0193

> <Smiles>
CNC(C)C(=O)NC(C(=O)N1Cc2cc([101O:1][101CH2:1]CNC(C)c3ccn(CC[100NH:0][100C:0](=O)N4CCCC(n5nc(-c6ccc(Oc7ccc(F)cc7F)cc6)c(C(N)=O)c5N)C4)n3)ccc2CC1C(=O)NC1CCCc2ccccc21)C(C)(C)C

> <Shape>
0.195

> <Color>
0.072

> <Negative vol penalty>
0.000

$$$$

  -OEChem-04052323323D

 86 95  0     1  0  0  0  0  0999 V2000
  -18.0462  -26.4903   22.7859 C   0  0  0  0  0  0  0  0  0  0  0  0
  -19.3986  -26.1666   22.8252 C   0  0  0  0  0  0  0  0  0  0  0  0
  -24.5345   -8.8125   21.6924 C   0  0  0  0  0  0  0  0  0  0  0  0
  -22.7820   -9.7066   20.2901 C   0  0  0  0  0  0  0  0  0  0  0  0
  -17.6446  -27.7497   22.3425 C   0  0  0  0  0  0  0  0  0  0  0  0
  -20.3502  -27.1018   22.4200 C   0  0  0  0  0  0  0  0  0  0  0  0
  -25.9576  -27.8949   24.7511 C   0  0  0  0  0  0  0  0  0  0  0  0
  -23.5788   -8.1588   22.4701 C   0  0  0  0  0  0  0  0  0  0  0  0
  -21.8262   -9.0528   21.0678 C   0  0  0  0  0  0  0  0  0  0  0  0
  -27.2157  -27.4597   24.3371 C   0  0  0  0  0  0  0  0  0  0  0  0
  -21.6943   -5.3586   22.2680 C   0  0  0  0  0  0  0  0  0  0  0  0
  -21.9401   -4.0305   22.6162 C   0  0  0  0  0  0  0  0  0  0  0  0
  -27.5753  -29.5722   23.2293 C   0  0  0  0  0  0  0  0  0  0  0  0
  -21.8699   -4.6307   24.9554 C   0  0  0  0  0  0  0  0  0  0  0  0
  -29.8491  -22.9488   21.1978 C   0  0  0  0  0  0  0  0  0  0  0  0
  -24.1361   -9.5865   20.6024 C   0  0  0  0  0  0  0  0  0  0  0  0
  -25.7792   -9.7614   18.6589 C   0  0  0  0  0  0  0  0  0  0  0  0
  -18.5923  -28.7042   21.9409 C   0  0  0  0  0  0  0  0  0  0  0  0
  -25.4937  -29.1701   24.3976 C   0  0  0  0  0  0  0  0  0  0  0  0
  -19.9609  -28.3747   21.9696 C   0  0  0  0  0  0  0  0  0  0  0  0
  -26.3120  -30.0222   23.6423 C   0  0  0  0  0  0  0  0  0  0  0  0
  -22.2247   -8.2789   22.1578 C   0  0  0  0  0  0  0  0  0  0  0  0
  -28.0236  -28.2973   23.5736 C   0  0  0  0  0  0  0  0  0  0  0  0
  -21.5365   -6.3229   23.2635 C   0  0  0  0  0  0  0  0  0  0  0  0
  -22.0278   -3.6665   23.9599 C   0  0  0  0  0  0  0  0  0  0  0  0
  -21.6243   -5.9589   24.6072 C   0  0  0  0  0  0  0  0  0  0  0  0
  -25.1229  -10.2625   19.7990 C   0  0  0  0  0  0  0  0  0  0  0  0
  -30.0988  -23.8065   20.1575 C   0  0  0  0  0  0  0  0  0  0  0  0
  -26.6121  -10.7806   18.2664 C   0  0  0  0  0  0  0  0  0  0  0  0
  -28.8302  -21.5438   19.7529 C   0  0  0  0  0  0  0  0  0  0  0  0
  -25.6478   -8.4884   18.0124 C   0  0  0  0  0  0  0  0  0  0  0  0
  -23.0449  -30.2748   22.6984 C   0  0  0  0  0  0  0  0  0  0  0  0
  -24.1135  -33.1499   23.7540 C   0  0  0  0  0  0  0  0  0  0  0  0
  -26.7130  -35.0185   24.9361 C   0  0  0  0  0  0  0  0  0  0  0  0
  -26.4500  -16.5332   18.8228 C   0  0  0  0  0  0  0  0  0  0  0  0
  -18.1076  -30.0358   21.4245 C   0  0  0  0  0  0  0  0  0  0  0  0
  -24.1450  -29.6348   24.8747 C   0  0  0  0  0  0  0  0  0  0  0  0
  -25.8687  -31.4081   23.2534 C   0  0  0  0  0  0  0  0  0  0  0  0
  -19.1995  -31.1009   21.3672 C   0  0  0  0  0  0  0  0  0  0  0  0
  -29.0635  -14.5002   19.9958 C   0  0  0  0  0  0  0  0  0  0  0  0
  -20.4657  -30.5339   20.7331 C   0  0  0  0  0  0  0  0  0  0  0  0
  -28.4094  -13.1191   19.9691 C   0  0  0  0  0  0  0  0  0  0  0  0
  -28.1011  -15.5805   20.4920 C   0  0  0  0  0  0  0  0  0  0  0  0
  -28.2888  -19.6929   18.2008 C   0  0  0  0  0  0  0  0  0  0  0  0
  -27.8811  -19.4662   20.6561 C   0  0  0  0  0  0  0  0  0  0  0  0
  -27.1318  -18.7325   17.9386 C   0  0  0  0  0  0  0  0  0  0  0  0
  -26.7245  -18.5210   20.3503 C   0  0  0  0  0  0  0  0  0  0  0  0
  -26.1641  -14.2452   19.7285 C   0  0  0  0  0  0  0  0  0  0  0  0
  -21.0245  -29.3709   21.5618 C   0  0  1  0  0  0  0  0  0  0  0  0
  -23.5645  -30.7591   24.0225 C   0  0  1  0  0  0  0  0  0  0  0  0
  -27.0892  -13.1483   19.1786 C   0  0  2  0  0  0  0  0  0  0  0  0
  -27.2902  -37.3466   25.6738 C   0  0  0  0  0  0  0  0  0  0  0  0
  -24.1809  -34.0538   20.8405 C   0  0  0  0  0  0  0  0  0  0  0  0
  -25.6250  -35.9748   21.5426 C   0  0  0  0  0  0  0  0  0  0  0  0
  -23.3084  -35.7638   22.4434 C   0  0  0  0  0  0  0  0  0  0  0  0
  -27.4185  -34.1047   27.6611 C   0  0  0  0  0  0  0  0  0  0  0  0
  -30.8163  -25.0907   20.3736 C   0  0  0  0  0  0  0  0  0  0  0  0
  -30.7013  -27.4067   21.3020 C   0  0  0  0  0  0  0  0  0  0  0  0
  -29.7459  -28.3979   21.9366 C   0  0  0  0  0  0  0  0  0  1  0  0
  -25.1013  -34.1741   23.2498 C   0  0  1  0  0  0  0  0  0  0  0  0
  -26.8154  -35.9705   26.1140 C   0  0  2  0  0  0  0  0  0  0  0  0
  -24.5618  -34.9648   22.0246 C   0  0  0  0  0  0  0  0  0  0  0  0
  -29.2031  -21.7866   21.0183 N   0  0  0  0  0  0  0  0  0  0  0  0
  -25.5059  -11.5035   20.1108 N   0  0  0  0  0  0  0  0  0  0  0  0
  -29.6999  -23.5089   18.9076 N   0  0  0  0  0  0  0  0  0  0  0  0
  -29.0473  -22.3476   18.6933 N   0  0  0  0  0  0  0  0  0  0  0  0
  -26.4120  -11.7908   19.1607 N   0  0  0  0  0  0  0  0  0  0  0  0
  -28.1514  -20.3432   19.5085 N   0  0  0  0  0  0  0  0  0  0  0  0
  -24.5394  -31.8142   23.7386 N   0  0  0  0  0  0  0  0  0  0  0  0
  -26.8420  -15.5432   19.7362 N   0  0  0  0  0  0  0  0  0  0  0  0
  -26.9054  -17.8382   19.0675 N   0  0  0  0  0  0  0  0  0  0  0  0
  -27.4888  -10.9023   17.2471 N   0  0  0  0  0  0  0  0  0  0  0  0
  -24.7465   -7.5576   18.5466 N   0  0  0  0  0  0  0  0  0  0  0  0
  -21.7239  -29.8704   22.7263 N   0  0  0  0  0  0  0  0  0  0  0  0
  -25.4445  -35.0090   24.3958 N   0  0  0  0  0  0  0  0  0  0  0  0
  -27.7756  -35.4431   27.1244 N   0  3  0  0  0  0  0  0  0  0  0  0
  -29.9803  -26.1372   21.0284 N   0  3  0  0  0  0  0  0  0  0  0  0
  -26.3220   -8.1793   17.0008 O   0  0  0  0  0  0  0  0  0  0  0  0
  -23.7872  -30.2698   21.7234 O   0  0  0  0  0  0  0  0  0  0  0  0
  -23.0074  -33.5221   24.1537 O   0  0  0  0  0  0  0  0  0  0  0  0
  -27.6643  -34.3529   24.5330 O   0  0  0  0  0  0  0  0  0  0  0  0
  -25.7389  -16.2689   17.8454 O   0  0  0  0  0  0  0  0  0  0  0  0
  -21.2918   -7.6409   22.9163 O   0  0  0  0  0  0  0  0  0  0  0  0
  -29.2606  -27.8716   23.1647 O   0  0  0  0  0  0  0  0  0  1  0  0
  -22.2623   -2.3908   24.2941 F   0  0  0  0  0  0  0  0  0  0  0  0
  -21.4723   -6.8806   25.5681 F   0  0  0  0  0  0  0  0  0  0  0  0
  1  2  1  0  0  0  0
  1  5  2  0  0  0  0
  2  6  2  0  0  0  0
  3  8  2  0  0  0  0
  3 16  1  0  0  0  0
  4  9  1  0  0  0  0
  4 16  2  0  0  0  0
  5 18  1  0  0  0  0
  6 20  1  0  0  0  0
  7 10  2  0  0  0  0
  7 19  1  0  0  0  0
  8 22  1  0  0  0  0
  9 22  2  0  0  0  0
 10 23  1  0  0  0  0
 11 12  2  0  0  0  0
 11 24  1  0  0  0  0
 12 25  1  0  0  0  0
 13 21  1  0  0  0  0
 13 23  2  0  0  0  0
 14 25  2  0  0  0  0
 14 26  1  0  0  0  0
 15 28  1  0  0  0  0
 15 63  2  0  0  0  0
 16 27  1  0  0  0  0
 17 27  1  0  0  0  0
 17 29  2  0  0  0  0
 17 31  1  0  0  0  0
 18 20  2  0  0  0  0
 18 36  1  0  0  0  0
 19 21  2  0  0  0  0
 19 37  1  0  0  0  0
 20 49  1  0  0  0  0
 21 38  1  0  0  0  0
 22 83  1  0  0  0  0
 23 84  1  0  0  0  0
 24 26  2  0  0  0  0
 24 83  1  0  0  0  0
 25 85  1  0  0  0  0
 26 86  1  0  0  0  0
 27 64  2  0  0  0  0
 28 57  1  0  0  0  0
 28 65  2  0  0  0  0
 29 67  1  0  0  0  0
 29 72  1  0  0  0  0
 30 63  1  0  0  0  0
 30 66  2  0  0  0  0
 30 68  1  0  0  0  0
 31 73  1  0  0  0  0
 31 78  2  0  0  0  0
 32 50  1  0  0  0  0
 32 74  1  0  0  0  0
 32 79  2  0  0  0  0
 33 60  1  0  0  0  0
 33 69  1  0  0  0  0
 33 80  2  0  0  0  0
 34 61  1  0  0  0  0
 34 75  1  0  0  0  0
 34 81  2  0  0  0  0
 35 70  1  0  0  0  0
 35 71  1  0  0  0  0
 35 82  2  0  0  0  0
 36 39  1  0  0  0  0
 37 50  1  0  0  0  0
 38 69  1  0  0  0  0
 39 41  1  0  0  0  0
 40 42  1  0  0  0  0
 40 43  1  0  0  0  0
 41 49  1  0  0  0  0
 42 51  1  0  0  0  0
 43 70  1  0  0  0  0
 44 46  1  0  0  0  0
 44 68  1  0  0  0  0
 45 47  1  0  0  0  0
 45 68  1  0  0  0  0
 46 71  1  0  0  0  0
 47 71  1  0  0  0  0
 48 51  1  0  0  0  0
 48 70  1  0  0  0  0
 49 74  1  0  0  0  0
 50 69  1  0  0  0  0
 51 67  1  0  0  0  0
 52 61  1  0  0  0  0
 53 62  1  0  0  0  0
 54 62  1  0  0  0  0
 55 62  1  0  0  0  0
 56 76  1  0  0  0  0
 57 77  1  0  0  0  0
 58 59  1  0  0  0  0
 58 77  1  0  0  0  0
 59 84  1  0  0  0  0
 60 62  1  0  0  0  0
 60 75  1  0  0  0  0
 61 76  1  0  0  0  0
 64 67  1  0  0  0  0
 65 66  1  0  0  0  0
M  CHG  2  76   1  77   1
M  ISO  4  35 100  59 101  71 100  84 101
M  END
> <Batch ID>
0193

> <Smiles>
CNC(C)C(=O)NC(C(=O)N1Cc2cc([101O:1][101CH2:1]CNCc3cnc(N4CC[100N:0]([100C:0](=O)N5CCCC(n6nc(-c7ccc(Oc8ccc(F)cc8F)cc7)c(C(N)=O)c6N)C5)CC4)nn3)ccc2CC1C(=O)NC1CCCc2ccccc21)C(C)(C)C

> <Shape>
0.340

> <Color>
0.103

> <Negative vol penalty>
0.000

$$$$

  -OEChem-04052323323D

 88 97  0     1  0  0  0  0  0999 V2000
  -28.8400  -21.1826   18.0194 C   0  0  0  0  0  0  0  0  0  0  0  0
  -27.6569  -21.8932   17.8442 C   0  0  0  0  0  0  0  0  0  0  0  0
  -24.9389  -13.5338   21.4008 C   0  0  0  0  0  0  0  0  0  0  0  0
  -26.7072  -13.0158   19.8382 C   0  0  0  0  0  0  0  0  0  0  0  0
  -29.6022  -21.3730   19.1712 C   0  0  0  0  0  0  0  0  0  0  0  0
  -27.2347  -22.7939   18.8213 C   0  0  0  0  0  0  0  0  0  0  0  0
  -24.2706  -28.0773   17.9240 C   0  0  0  0  0  0  0  0  0  0  0  0
  -24.7547  -12.1726   21.6436 C   0  0  0  0  0  0  0  0  0  0  0  0
  -26.5231  -11.6546   20.0810 C   0  0  0  0  0  0  0  0  0  0  0  0
  -22.9219  -28.4216   18.0043 C   0  0  0  0  0  0  0  0  0  0  0  0
  -23.2546   -9.5525   20.1241 C   0  0  0  0  0  0  0  0  0  0  0  0
  -21.9457   -9.0713   20.1521 C   0  0  0  0  0  0  0  0  0  0  0  0
  -17.9827  -24.5430   23.0715 C   0  0  0  0  0  0  0  0  0  0  0  0
  -23.2626  -29.2058   20.2600 C   0  0  0  0  0  0  0  0  0  0  0  0
  -22.2646   -8.3366   22.4315 C   0  0  0  0  0  0  0  0  0  0  0  0
  -18.5352  -23.2952   22.8665 C   0  0  0  0  0  0  0  0  0  0  0  0
  -25.9151  -13.9554   20.4980 C   0  0  0  0  0  0  0  0  0  0  0  0
  -26.9678  -16.2383   20.9312 C   0  0  0  0  0  0  0  0  0  0  0  0
  -29.1941  -22.2837   20.1585 C   0  0  0  0  0  0  0  0  0  0  0  0
  -25.1244  -28.2850   19.0168 C   0  0  0  0  0  0  0  0  0  0  0  0
  -27.9914  -22.9957   19.9881 C   0  0  0  0  0  0  0  0  0  0  0  0
  -24.6222  -28.8657   20.1901 C   0  0  0  0  0  0  0  0  0  0  0  0
  -25.5468  -11.2331   20.9838 C   0  0  0  0  0  0  0  0  0  0  0  0
  -22.4171  -28.9833   19.1734 C   0  0  0  0  0  0  0  0  0  0  0  0
  -24.0686   -9.4258   21.2498 C   0  0  0  0  0  0  0  0  0  0  0  0
  -21.4507   -8.4633   21.3058 C   0  0  0  0  0  0  0  0  0  0  0  0
  -23.5736   -8.8179   22.4035 C   0  0  0  0  0  0  0  0  0  0  0  0
  -26.1055  -15.3613   20.2464 C   0  0  0  0  0  0  0  0  0  0  0  0
  -18.6800  -25.6016   22.5264 C   0  0  0  0  0  0  0  0  0  0  0  0
  -26.7815  -17.4524   20.3166 C   0  0  0  0  0  0  0  0  0  0  0  0
  -20.2656  -24.1975   21.7009 C   0  0  0  0  0  0  0  0  0  0  0  0
  -27.8577  -15.9788   22.0249 C   0  0  0  0  0  0  0  0  0  0  0  0
  -26.8741  -26.4013   20.8860 C   0  0  0  0  0  0  0  0  0  0  0  0
  -27.9218  -29.2251   22.0907 C   0  0  0  0  0  0  0  0  0  0  0  0
  -27.3417  -32.5483   22.6068 C   0  0  0  0  0  0  0  0  0  0  0  0
  -22.2930  -20.3902   17.9125 C   0  0  0  0  0  0  0  0  0  0  0  0
  -30.0268  -22.4208   21.4085 C   0  0  0  0  0  0  0  0  0  0  0  0
  -26.5825  -27.9329   18.9048 C   0  0  0  0  0  0  0  0  0  0  0  0
  -25.5016  -29.1279   21.3844 C   0  0  0  0  0  0  0  0  0  0  0  0
  -29.7017  -23.6703   22.2230 C   0  0  0  0  0  0  0  0  0  0  0  0
  -25.0163  -18.9206   15.9386 C   0  0  0  0  0  0  0  0  0  0  0  0
  -28.1926  -23.8288   22.3779 C   0  0  0  0  0  0  0  0  0  0  0  0
  -25.6218  -17.9004   16.9037 C   0  0  0  0  0  0  0  0  0  0  0  0
  -23.5157  -22.8652   20.3408 C   0  0  0  0  0  0  0  0  0  0  0  0
  -23.5238  -19.1264   16.1867 C   0  0  0  0  0  0  0  0  0  0  0  0
  -23.7787  -21.5218   19.6683 C   0  0  0  0  0  0  0  0  0  0  0  0
  -23.7800  -18.4396   18.5396 C   0  0  0  0  0  0  0  0  0  0  0  0
  -21.4316  -22.0182   19.5706 C   0  0  0  0  0  0  0  0  0  0  0  0
  -27.5129  -24.0000   21.0140 C   0  0  1  0  0  0  0  0  0  0  0  0
  -27.2500  -27.7140   20.2590 C   0  0  1  0  0  0  0  0  0  0  0  0
  -25.2941  -18.2566   18.3657 C   0  0  1  0  0  0  0  0  0  0  0  0
  -22.0548  -22.7362   20.7582 C   0  0  2  0  0  0  0  0  0  0  0  0
  -19.1279  -27.8717   23.5162 C   0  0  0  0  0  0  0  0  0  0  0  0
  -28.3639  -34.5871   23.6536 C   0  0  0  0  0  0  0  0  0  0  0  0
  -27.1556  -28.1867   24.8556 C   0  0  0  0  0  0  0  0  0  0  0  0
  -27.2947  -30.5391   25.7011 C   0  0  0  0  0  0  0  0  0  0  0  0
  -29.3253  -29.4275   24.7716 C   0  0  0  0  0  0  0  0  0  0  0  0
  -27.4351  -33.9745   20.0152 C   0  0  0  0  0  0  0  0  0  0  0  0
  -18.8549  -28.4522   19.2106 C   0  0  0  0  0  0  0  0  0  0  0  0
  -17.8339  -27.7051   21.3642 C   0  0  0  0  0  0  0  0  0  0  0  0
  -20.1830  -28.5458   18.4855 C   0  0  0  0  0  0  0  0  0  1  0  0
  -18.1601  -26.9895   22.6963 C   0  0  1  0  0  0  0  0  0  0  0  0
  -27.4767  -30.1439   23.2027 C   0  0  1  0  0  0  0  0  0  0  0  0
  -28.2135  -33.7702   22.3798 C   0  0  2  0  0  0  0  0  0  0  0  0
  -27.7958  -29.5677   24.6111 C   0  0  0  0  0  0  0  0  0  0  0  0
  -19.6796  -23.0852   22.1834 N   0  0  0  0  0  0  0  0  0  0  0  0
  -25.4221  -15.9667   19.2715 N   0  0  0  0  0  0  0  0  0  0  0  0
  -19.8291  -25.4646   21.8327 N   0  0  0  0  0  0  0  0  0  0  0  0
  -25.8548  -17.2372   19.3393 N   0  0  0  0  0  0  0  0  0  0  0  0
  -26.9187  -28.7606   21.2282 N   0  0  0  0  0  0  0  0  0  0  0  0
  -23.2633  -19.4341   17.5932 N   0  0  0  0  0  0  0  0  0  0  0  0
  -22.4973  -21.1616   19.0559 N   0  0  0  0  0  0  0  0  0  0  0  0
  -27.3216  -18.6725   20.5222 N   0  0  0  0  0  0  0  0  0  0  0  0
  -27.9262  -14.6754   22.5357 N   0  0  0  0  0  0  0  0  0  0  0  0
  -21.4460  -24.0189   20.9922 N   0  0  0  0  0  0  0  0  0  0  0  0
  -27.6946  -25.3498   20.5247 N   0  0  0  0  0  0  0  0  0  0  0  0
  -28.0924  -31.4388   22.9334 N   0  0  0  0  0  0  0  0  0  0  0  0
  -27.6181  -34.6433   21.3290 N   0  3  0  0  0  0  0  0  0  0  0  0
  -19.0660  -27.8252   20.5428 N   0  3  0  0  0  0  0  0  0  0  0  0
  -28.5588  -16.8796   22.5450 O   0  0  0  0  0  0  0  0  0  0  0  0
  -25.9118  -26.3468   21.6429 O   0  0  0  0  0  0  0  0  0  0  0  0
  -29.1165  -28.9360   21.9867 O   0  0  0  0  0  0  0  0  0  0  0  0
  -26.1170  -32.5763   22.5083 O   0  0  0  0  0  0  0  0  0  0  0  0
  -21.3107  -20.5795   17.1829 O   0  0  0  0  0  0  0  0  0  0  0  0
  -25.3675   -9.9048   21.2206 O   0  0  0  0  0  0  0  0  0  0  0  0
  -21.0916  -29.3220   19.2552 O   0  0  0  0  0  0  0  0  0  1  0  0
  -20.1933   -8.0026   21.3331 F   0  0  0  0  0  0  0  0  0  0  0  0
  -24.3504   -8.6943   23.4884 F   0  0  0  0  0  0  0  0  0  0  0  0
  1  2  1  0  0  0  0
  1  5  2  0  0  0  0
  2  6  2  0  0  0  0
  3  8  2  0  0  0  0
  3 17  1  0  0  0  0
  4  9  1  0  0  0  0
  4 17  2  0  0  0  0
  5 19  1  0  0  0  0
  6 21  1  0  0  0  0
  7 10  2  0  0  0  0
  7 20  1  0  0  0  0
  8 23  1  0  0  0  0
  9 23  2  0  0  0  0
 10 24  1  0  0  0  0
 11 12  2  0  0  0  0
 11 25  1  0  0  0  0
 12 26  1  0  0  0  0
 13 16  2  0  0  0  0
 13 29  1  0  0  0  0
 14 22  1  0  0  0  0
 14 24  2  0  0  0  0
 15 26  2  0  0  0  0
 15 27  1  0  0  0  0
 16 66  1  0  0  0  0
 17 28  1  0  0  0  0
 18 28  1  0  0  0  0
 18 30  2  0  0  0  0
 18 32  1  0  0  0  0
 19 21  2  0  0  0  0
 19 37  1  0  0  0  0
 20 22  2  0  0  0  0
 20 38  1  0  0  0  0
 21 49  1  0  0  0  0
 22 39  1  0  0  0  0
 23 85  1  0  0  0  0
 24 86  1  0  0  0  0
 25 27  2  0  0  0  0
 25 85  1  0  0  0  0
 26 87  1  0  0  0  0
 27 88  1  0  0  0  0
 28 67  2  0  0  0  0
 29 62  1  0  0  0  0
 29 68  2  0  0  0  0
 30 69  1  0  0  0  0
 30 73  1  0  0  0  0
 31 66  2  0  0  0  0
 31 68  1  0  0  0  0
 31 75  1  0  0  0  0
 32 74  1  0  0  0  0
 32 80  2  0  0  0  0
 33 50  1  0  0  0  0
 33 76  1  0  0  0  0
 33 81  2  0  0  0  0
 34 63  1  0  0  0  0
 34 70  1  0  0  0  0
 34 82  2  0  0  0  0
 35 64  1  0  0  0  0
 35 77  1  0  0  0  0
 35 83  2  0  0  0  0
 36 71  1  0  0  0  0
 36 72  1  0  0  0  0
 36 84  2  0  0  0  0
 37 40  1  0  0  0  0
 38 50  1  0  0  0  0
 39 70  1  0  0  0  0
 40 42  1  0  0  0  0
 41 43  1  0  0  0  0
 41 45  1  0  0  0  0
 42 49  1  0  0  0  0
 43 51  1  0  0  0  0
 44 46  1  0  0  0  0
 44 52  1  0  0  0  0
 45 71  1  0  0  0  0
 46 72  1  0  0  0  0
 47 51  1  0  0  0  0
 47 71  1  0  0  0  0
 48 52  1  0  0  0  0
 48 72  1  0  0  0  0
 49 76  1  0  0  0  0
 50 70  1  0  0  0  0
 51 69  1  0  0  0  0
 52 75  1  0  0  0  0
 53 62  1  0  0  0  0
 54 64  1  0  0  0  0
 55 65  1  0  0  0  0
 56 65  1  0  0  0  0
 57 65  1  0  0  0  0
 58 78  1  0  0  0  0
 59 61  1  0  0  0  0
 59 79  1  0  0  0  0
 60 62  1  0  0  0  0
 60 79  1  0  0  0  0
 61 86  1  0  0  0  0
 63 65  1  0  0  0  0
 63 77  1  0  0  0  0
 64 78  1  0  0  0  0
 67 69  1  0  0  0  0
M  CHG  2  78   1  79   1
M  ISO  4  36 100  61 101  72 100  86 101
M  END
> <Batch ID>
0193

> <Smiles>
CNC(C)C(=O)NC(C(=O)N1Cc2cc([101O:1][101CH2:1]CNCC(C)c3ccnc(NC4CC[100N:0]([100C:0](=O)N5CCCC(n6nc(-c7ccc(Oc8ccc(F)cc8F)cc7)c(C(N)=O)c6N)C5)C4)n3)ccc2CC1C(=O)NC1CCCc2ccccc21)C(C)(C)C

> <Shape>
0.232

> <Color>
0.047

> <Negative vol penalty>
0.000

$$$$

  -OEChem-04052323323D

 86 95  0     1  0  0  0  0  0999 V2000
  -27.0516  -30.5515   28.5542 C   0  0  0  0  0  0  0  0  0  0  0  0
  -27.2012  -29.7309   27.4408 C   0  0  0  0  0  0  0  0  0  0  0  0
  -24.5447   -8.2933   21.4415 C   0  0  0  0  0  0  0  0  0  0  0  0
  -24.0178   -9.9191   23.1492 C   0  0  0  0  0  0  0  0  0  0  0  0
  -25.8848  -31.2970   28.7175 C   0  0  0  0  0  0  0  0  0  0  0  0
  -26.1836  -29.6545   26.4905 C   0  0  0  0  0  0  0  0  0  0  0  0
  -27.9358  -29.8866   21.7449 C   0  0  0  0  0  0  0  0  0  0  0  0
  -24.2088   -7.2626   22.3192 C   0  0  0  0  0  0  0  0  0  0  0  0
  -23.6818   -8.8884   24.0268 C   0  0  0  0  0  0  0  0  0  0  0  0
  -28.5043  -28.7275   21.2187 C   0  0  0  0  0  0  0  0  0  0  0  0
  -21.3906   -5.7973   23.4785 C   0  0  0  0  0  0  0  0  0  0  0  0
  -20.5972   -4.7606   22.9874 C   0  0  0  0  0  0  0  0  0  0  0  0
  -26.4498  -28.2603   20.0441 C   0  0  0  0  0  0  0  0  0  0  0  0
  -22.3486   -3.1774   23.5004 C   0  0  0  0  0  0  0  0  0  0  0  0
  -24.4493   -9.6216   21.8565 C   0  0  0  0  0  0  0  0  0  0  0  0
  -23.9406  -11.3525   20.0529 C   0  0  0  0  0  0  0  0  0  0  0  0
  -24.8564  -31.2372   27.7638 C   0  0  0  0  0  0  0  0  0  0  0  0
  -26.6141  -30.2362   21.4328 C   0  0  0  0  0  0  0  0  0  0  0  0
  -25.0014  -30.3990   26.6419 C   0  0  0  0  0  0  0  0  0  0  0  0
  -25.8677  -29.4257   20.5656 C   0  0  0  0  0  0  0  0  0  0  0  0
  -23.7773   -7.5601   23.6118 C   0  0  0  0  0  0  0  0  0  0  0  0
  -27.7604  -27.9126   20.3705 C   0  0  0  0  0  0  0  0  0  0  0  0
  -22.6630   -5.5242   23.9805 C   0  0  0  0  0  0  0  0  0  0  0  0
  -21.0762   -3.4506   22.9984 C   0  0  0  0  0  0  0  0  0  0  0  0
  -23.1420   -4.2142   23.9915 C   0  0  0  0  0  0  0  0  0  0  0  0
  -24.7967  -10.6868   20.9505 C   0  0  0  0  0  0  0  0  0  0  0  0
  -27.3854  -24.5217   22.3973 C   0  0  0  0  0  0  0  0  0  0  0  0
  -27.9297  -23.3596   21.9137 C   0  0  0  0  0  0  0  0  0  0  0  0
  -24.7468  -12.2719   19.4274 C   0  0  0  0  0  0  0  0  0  0  0  0
  -28.1692  -25.6078   20.5790 C   0  0  0  0  0  0  0  0  0  1  0  0
  -22.5417  -11.1572   19.8065 C   0  0  0  0  0  0  0  0  0  0  0  0
  -23.9426  -30.6304   23.1094 C   0  0  0  0  0  0  0  0  0  0  0  0
  -27.9740  -19.8666   23.2212 C   0  0  0  0  0  0  0  0  0  0  0  0
  -22.7665  -31.6435   20.2611 C   0  0  0  0  0  0  0  0  0  0  0  0
  -22.9847  -31.5988   16.8557 C   0  0  0  0  0  0  0  0  0  0  0  0
  -29.8261  -15.0010   21.0133 C   0  0  0  0  0  0  0  0  0  0  0  0
  -23.5937  -32.0252   28.0074 C   0  0  0  0  0  0  0  0  0  0  0  0
  -26.0244  -31.5039   21.9874 C   0  0  0  0  0  0  0  0  0  0  0  0
  -24.4515  -29.7673   20.1833 C   0  0  0  0  0  0  0  0  0  0  0  0
  -22.7201  -32.1752   26.7647 C   0  0  0  0  0  0  0  0  0  0  0  0
  -29.2970  -12.9942   18.1315 C   0  0  0  0  0  0  0  0  0  0  0  0
  -22.5708  -30.8349   26.0520 C   0  0  0  0  0  0  0  0  0  0  0  0
  -28.0041  -12.2380   18.4423 C   0  0  0  0  0  0  0  0  0  0  0  0
  -30.1600  -13.1726   19.3787 C   0  0  0  0  0  0  0  0  0  0  0  0
  -28.1802  -13.0344   20.8372 C   0  0  0  0  0  0  0  0  0  0  0  0
  -29.1930  -18.0561   21.8263 C   0  0  0  0  0  0  0  0  0  0  0  0
  -28.2550  -17.3488   23.6144 C   0  0  0  0  0  0  0  0  0  0  0  0
  -23.9304  -30.3084   25.5766 C   0  0  1  0  0  0  0  0  0  0  0  0
  -24.4990  -31.4925   22.0118 C   0  0  1  0  0  0  0  0  0  0  0  0
  -27.2489  -12.8787   19.6226 C   0  0  2  0  0  0  0  0  0  0  0  0
  -29.3643  -16.8030   22.7009 C   0  0  0  0  0  0  0  0  0  0  0  0
  -26.6406  -24.5632   23.6886 C   0  0  0  0  0  0  0  0  0  0  0  0
  -21.8608  -32.4931   14.7978 C   0  0  0  0  0  0  0  0  0  0  0  0
  -20.5189  -29.6092   20.6076 C   0  0  0  0  0  0  0  0  0  0  0  0
  -20.0038  -29.8674   18.1712 C   0  0  0  0  0  0  0  0  0  0  0  0
  -19.7908  -31.8244   19.7034 C   0  0  0  0  0  0  0  0  0  0  0  0
  -25.4249  -33.0441   16.0100 C   0  0  0  0  0  0  0  0  0  0  0  0
  -28.3326  -20.9141   22.2014 C   0  0  0  0  0  0  0  0  0  0  0  0
  -22.0919  -30.9785   19.0856 C   0  0  1  0  0  0  0  0  0  0  0  0
  -22.9552  -32.7173   15.8297 C   0  0  2  0  0  0  0  0  0  0  0  0
  -20.6274  -30.5622   19.4005 C   0  0  0  0  0  0  0  0  0  0  0  0
  -26.0507  -11.1443   20.9026 N   0  0  0  0  0  0  0  0  0  0  0  0
  -27.4933  -25.6837   21.7353 N   0  0  0  0  0  0  0  0  0  0  0  0
  -28.5978  -23.3448   20.7461 N   0  0  0  0  0  0  0  0  0  0  0  0
  -28.7242  -24.4970   20.0554 N   0  0  0  0  0  0  0  0  0  0  0  0
  -25.9884  -12.1072   19.9672 N   0  0  0  0  0  0  0  0  0  0  0  0
  -23.9172  -31.0137   20.7563 N   0  0  0  0  0  0  0  0  0  0  0  0
  -28.4303  -18.6126   22.9259 N   0  0  0  0  0  0  0  0  0  0  0  0
  -29.3838  -13.7905   20.4568 N   0  0  0  0  0  0  0  0  0  0  0  0
  -24.5076  -13.1970   18.4738 N   0  0  0  0  0  0  0  0  0  0  0  0
  -21.8661  -10.1700   20.5369 N   0  0  0  0  0  0  0  0  0  0  0  0
  -27.7914  -22.1614   22.6448 N   0  0  0  0  0  0  0  0  0  0  0  0
  -24.3492  -31.0011   24.3770 N   0  0  0  0  0  0  0  0  0  0  0  0
  -22.2225  -31.9023   17.9640 N   0  0  0  0  0  0  0  0  0  0  0  0
  -29.0331  -15.5314   22.0256 N   0  0  0  0  0  0  0  0  0  0  0  0
  -24.2619  -32.8019   15.1180 N   0  3  0  0  0  0  0  0  0  0  0  0
  -21.9132  -11.8268   18.9520 O   0  0  0  0  0  0  0  0  0  0  0  0
  -23.1981  -29.6988   22.8273 O   0  0  0  0  0  0  0  0  0  0  0  0
  -27.3271  -20.1472   24.2290 O   0  0  0  0  0  0  0  0  0  0  0  0
  -22.2940  -32.6871   20.7185 O   0  0  0  0  0  0  0  0  0  0  0  0
  -23.6172  -30.5584   16.6889 O   0  0  0  0  0  0  0  0  0  0  0  0
  -30.8507  -15.5787   20.6343 O   0  0  0  0  0  0  0  0  0  0  0  0
  -23.4492   -6.5545   24.4684 O   0  0  0  0  0  0  0  0  0  0  0  0
  -28.3126  -26.7803   19.8560 O   0  0  0  0  0  0  0  0  0  1  0  0
  -20.3136   -2.4548   22.5282 F   0  0  0  0  0  0  0  0  0  0  0  0
  -24.3632   -3.9455   24.4736 F   0  0  0  0  0  0  0  0  0  0  0  0
  1  2  1  0  0  0  0
  1  5  2  0  0  0  0
  2  6  2  0  0  0  0
  3  8  2  0  0  0  0
  3 15  1  0  0  0  0
  4  9  1  0  0  0  0
  4 15  2  0  0  0  0
  5 17  1  0  0  0  0
  6 19  1  0  0  0  0
  7 10  2  0  0  0  0
  7 18  1  0  0  0  0
  8 21  1  0  0  0  0
  9 21  2  0  0  0  0
 10 22  1  0  0  0  0
 11 12  2  0  0  0  0
 11 23  1  0  0  0  0
 12 24  1  0  0  0  0
 13 20  1  0  0  0  0
 13 22  2  0  0  0  0
 14 24  2  0  0  0  0
 14 25  1  0  0  0  0
 15 26  1  0  0  0  0
 16 26  1  0  0  0  0
 16 29  2  0  0  0  0
 16 31  1  0  0  0  0
 17 19  2  0  0  0  0
 17 37  1  0  0  0  0
 18 20  2  0  0  0  0
 18 38  1  0  0  0  0
 19 48  1  0  0  0  0
 20 39  1  0  0  0  0
 21 83  1  0  0  0  0
 22 84  1  0  0  0  0
 23 25  2  0  0  0  0
 23 83  1  0  0  0  0
 24 85  1  0  0  0  0
 25 86  1  0  0  0  0
 26 62  2  0  0  0  0
 27 28  2  0  0  0  0
 27 52  1  0  0  0  0
 27 63  1  0  0  0  0
 28 64  1  0  0  0  0
 28 72  1  0  0  0  0
 29 66  1  0  0  0  0
 29 70  1  0  0  0  0
 30 63  2  0  0  0  0
 30 65  1  0  0  0  0
 30 84  1  0  0  0  0
 31 71  1  0  0  0  0
 31 77  2  0  0  0  0
 32 49  1  0  0  0  0
 32 73  1  0  0  0  0
 32 78  2  0  0  0  0
 33 58  1  0  0  0  0
 33 68  1  0  0  0  0
 33 79  2  0  0  0  0
 34 59  1  0  0  0  0
 34 67  1  0  0  0  0
 34 80  2  0  0  0  0
 35 60  1  0  0  0  0
 35 74  1  0  0  0  0
 35 81  2  0  0  0  0
 36 69  1  0  0  0  0
 36 75  1  0  0  0  0
 36 82  2  0  0  0  0
 37 40  1  0  0  0  0
 38 49  1  0  0  0  0
 39 67  1  0  0  0  0
 40 42  1  0  0  0  0
 41 43  1  0  0  0  0
 41 44  1  0  0  0  0
 42 48  1  0  0  0  0
 43 50  1  0  0  0  0
 44 69  1  0  0  0  0
 45 50  1  0  0  0  0
 45 69  1  0  0  0  0
 46 51  1  0  0  0  0
 46 68  1  0  0  0  0
 47 51  1  0  0  0  0
 47 68  1  0  0  0  0
 48 73  1  0  0  0  0
 49 67  1  0  0  0  0
 50 66  1  0  0  0  0
 51 75  1  0  0  0  0
 53 60  1  0  0  0  0
 54 61  1  0  0  0  0
 55 61  1  0  0  0  0
 56 61  1  0  0  0  0
 57 76  1  0  0  0  0
 58 72  1  0  0  0  0
 59 61  1  0  0  0  0
 59 74  1  0  0  0  0
 60 76  1  0  0  0  0
 62 66  1  0  0  0  0
 64 65  2  0  0  0  0
M  CHG  1  76   1
M  ISO  4  30 101  36 100  75 100  84 101
M  END
> <Batch ID>
0193

> <Smiles>
CNC(C)C(=O)NC(C(=O)N1Cc2cc([101O:1][101c:1]3nnc(NCC(=O)N4CC([100NH:0][100C:0](=O)N5CCCC(n6nc(-c7ccc(Oc8ccc(F)cc8F)cc7)c(C(N)=O)c6N)C5)C4)c(C)n3)ccc2CC1C(=O)NC1CCCc2ccccc21)C(C)(C)C

> <Shape>
0.265

> <Color>
0.081

> <Negative vol penalty>
0.000

$$$$

  -OEChem-04052323323D

 89 99  0     1  0  0  0  0  0999 V2000
  -31.2790  -34.6432   21.2547 C   0  0  0  0  0  0  0  0  0  0  0  0
  -31.0403  -33.2740   21.1929 C   0  0  0  0  0  0  0  0  0  0  0  0
  -23.7466  -16.7847   20.2220 C   0  0  0  0  0  0  0  0  0  0  0  0
  -23.5195  -15.7915   18.0314 C   0  0  0  0  0  0  0  0  0  0  0  0
  -30.4589  -35.4581   22.0339 C   0  0  0  0  0  0  0  0  0  0  0  0
  -29.9819  -32.7188   21.9112 C   0  0  0  0  0  0  0  0  0  0  0  0
  -27.3105  -29.3965   19.1780 C   0  0  0  0  0  0  0  0  0  0  0  0
  -23.0648  -17.9180   19.7789 C   0  0  0  0  0  0  0  0  0  0  0  0
  -22.8376  -16.9248   17.5883 C   0  0  0  0  0  0  0  0  0  0  0  0
  -27.8557  -28.1241   19.0120 C   0  0  0  0  0  0  0  0  0  0  0  0
  -23.7494  -20.6842   17.9613 C   0  0  0  0  0  0  0  0  0  0  0  0
  -24.2734  -21.9304   18.3046 C   0  0  0  0  0  0  0  0  0  0  0  0
  -26.4154  -27.2859   20.7561 C   0  0  0  0  0  0  0  0  0  0  0  0
  -22.2253  -22.4714   19.4665 C   0  0  0  0  0  0  0  0  0  0  0  0
  -23.9740  -15.7214   19.3482 C   0  0  0  0  0  0  0  0  0  0  0  0
  -24.1216  -13.3959   20.3864 C   0  0  0  0  0  0  0  0  0  0  0  0
  -29.3840  -34.9141   22.7544 C   0  0  0  0  0  0  0  0  0  0  0  0
  -26.3196  -29.6258   20.1434 C   0  0  0  0  0  0  0  0  0  0  0  0
  -29.1474  -33.5271   22.7018 C   0  0  0  0  0  0  0  0  0  0  0  0
  -25.8573  -28.5615   20.9306 C   0  0  0  0  0  0  0  0  0  0  0  0
  -28.3454  -22.5762   21.1923 C   0  0  0  0  0  0  0  0  0  0  0  0
  -22.6103  -17.9880   18.4621 C   0  0  0  0  0  0  0  0  0  0  0  0
  -27.4103  -27.0692   19.8030 C   0  0  0  0  0  0  0  0  0  0  0  0
  -22.4633  -20.3316   18.3704 C   0  0  0  0  0  0  0  0  0  0  0  0
  -23.5114  -22.8240   19.0572 C   0  0  0  0  0  0  0  0  0  0  0  0
  -21.7013  -21.2252   19.1231 C   0  0  0  0  0  0  0  0  0  0  0  0
  -24.6788  -14.5507   19.8052 C   0  0  0  0  0  0  0  0  0  0  0  0
  -28.1601  -23.5154   20.1984 C   0  0  0  0  0  0  0  0  0  0  0  0
  -29.0227  -21.4343   20.8159 C   0  0  0  0  0  0  0  0  0  0  0  0
  -25.2005  -12.5850   20.6412 C   0  0  0  0  0  0  0  0  0  0  0  0
  -29.2443  -22.2061   18.6893 C   0  0  0  0  0  0  0  0  0  0  0  0
  -22.7513  -13.0840   20.6704 C   0  0  0  0  0  0  0  0  0  0  0  0
  -26.0997  -31.4383   22.7453 C   0  0  0  0  0  0  0  0  0  0  0  0
  -23.0288  -30.3935   22.7393 C   0  0  0  0  0  0  0  0  0  0  0  0
  -20.7819  -28.0084   21.7858 C   0  0  0  0  0  0  0  0  0  0  0  0
  -31.0053  -13.7274   21.5309 C   0  0  0  0  0  0  0  0  0  0  0  0
  -28.5537  -35.8281   23.6204 C   0  0  0  0  0  0  0  0  0  0  0  0
  -25.7226  -30.9984   20.2917 C   0  0  0  0  0  0  0  0  0  0  0  0
  -24.7812  -28.7509   21.9672 C   0  0  0  0  0  0  0  0  0  0  0  0
  -27.2247  -35.2150   24.0541 C   0  0  0  0  0  0  0  0  0  0  0  0
  -29.5990  -11.5864   19.0986 C   0  0  0  0  0  0  0  0  0  0  0  0
  -26.9318  -21.7582   23.1940 C   0  0  0  0  0  0  0  0  0  0  0  0
  -26.3814  -23.0906   22.7913 C   0  0  0  0  0  0  0  0  0  0  0  0
  -27.4327  -33.7896   24.5556 C   0  0  0  0  0  0  0  0  0  0  0  0
  -28.1346  -12.0101   19.0253 C   0  0  0  0  0  0  0  0  0  0  0  0
  -31.6662  -16.5715   23.8052 C   0  0  0  0  0  0  0  0  0  0  0  0
  -30.5023  -12.7957   19.2997 C   0  0  0  0  0  0  0  0  0  0  0  0
  -31.9191  -15.1447   23.3437 C   0  0  0  0  0  0  0  0  0  0  0  0
  -30.3102  -16.1718   21.8890 C   0  0  0  0  0  0  0  0  0  0  0  0
  -28.7022  -14.0144   20.4929 C   0  0  0  0  0  0  0  0  0  0  0  0
  -27.8422  -22.7892   22.5792 C   0  0  0  0  0  0  0  0  0  0  0  0
  -27.9940  -32.8911   23.4469 C   0  0  1  0  0  0  0  0  0  0  0  0
  -25.0842  -31.2278   21.6581 C   0  0  1  0  0  0  0  0  0  0  0  0
  -31.1778  -17.2560   22.5280 C   0  0  1  0  0  0  0  0  0  0  0  0
  -27.7443  -12.8264   20.2673 C   0  0  1  0  0  0  0  0  0  0  0  0
  -29.7430  -22.0007   17.2992 C   0  0  0  0  0  0  0  0  0  0  0  0
  -18.3512  -27.4097   21.9609 C   0  0  0  0  0  0  0  0  0  0  0  0
  -23.4601  -29.4964   25.6236 C   0  0  0  0  0  0  0  0  0  0  0  0
  -21.3950  -28.0952   25.4231 C   0  0  0  0  0  0  0  0  0  0  0  0
  -21.2460  -30.5740   25.1863 C   0  0  0  0  0  0  0  0  0  0  0  0
  -20.4247  -28.1150   18.8498 C   0  0  0  0  0  0  0  0  0  0  0  0
  -27.4395  -24.7915   20.4865 C   0  0  0  0  0  0  0  0  0  1  0  0
  -30.4291  -18.5504   22.7906 C   0  0  0  0  0  0  0  0  0  0  0  0
  -29.9308  -19.2171   21.5121 C   0  0  0  0  0  0  0  0  0  0  0  0
  -22.3000  -29.2130   23.3345 C   0  0  1  0  0  0  0  0  0  0  0  0
  -19.4149  -28.1154   21.1343 C   0  0  2  0  0  0  0  0  0  0  0  0
  -22.1219  -29.3411   24.8738 C   0  0  0  0  0  0  0  0  0  0  0  0
  -26.0084  -14.4834   19.6973 N   0  0  0  0  0  0  0  0  0  0  0  0
  -28.5980  -23.3624   18.9315 N   0  0  0  0  0  0  0  0  0  0  0  0
  -29.4877  -21.2154   19.5685 N   0  0  0  0  0  0  0  0  0  0  0  0
  -26.2957  -13.2766   20.2142 N   0  0  0  0  0  0  0  0  0  0  0  0
  -24.2333  -30.1128   22.0788 N   0  0  0  0  0  0  0  0  0  0  0  0
  -30.1057  -13.5824   20.4690 N   0  0  0  0  0  0  0  0  0  0  0  0
  -30.9720  -14.9174   22.2566 N   0  0  0  0  0  0  0  0  0  0  0  0
  -25.3097  -11.3550   21.1868 N   0  0  0  0  0  0  0  0  0  0  0  0
  -21.7694  -14.0295   20.3443 N   0  0  0  0  0  0  0  0  0  0  0  0
  -29.2411  -20.4502   21.7724 N   0  0  0  0  0  0  0  0  0  0  0  0
  -26.9448  -32.5094   22.5260 N   0  0  0  0  0  0  0  0  0  0  0  0
  -21.0476  -29.0919   22.5961 N   0  0  0  0  0  0  0  0  0  0  0  0
  -19.4388  -27.5017   19.7765 N   0  3  0  0  0  0  0  0  0  0  0  0
  -22.4093  -12.0058   21.2127 O   0  0  0  0  0  0  0  0  0  0  0  0
  -26.1145  -30.6857   23.7123 O   0  0  0  0  0  0  0  0  0  0  0  0
  -22.5436  -31.5222   22.8500 O   0  0  0  0  0  0  0  0  0  0  0  0
  -21.5367  -27.0569   21.5978 O   0  0  0  0  0  0  0  0  0  0  0  0
  -31.8352  -12.8468   21.7951 O   0  0  0  0  0  0  0  0  0  0  0  0
  -21.9448  -19.0936   18.0294 O   0  0  0  0  0  0  0  0  0  0  0  0
  -27.9450  -25.8176   19.6424 O   0  0  0  0  0  0  0  0  0  1  0  0
  -24.0153  -24.0202   19.3882 F   0  0  0  0  0  0  0  0  0  0  0  0
  -20.4656  -20.8916   19.5201 F   0  0  0  0  0  0  0  0  0  0  0  0
  1  2  1  0  0  0  0
  1  5  2  0  0  0  0
  2  6  2  0  0  0  0
  3  8  2  0  0  0  0
  3 15  1  0  0  0  0
  4  9  1  0  0  0  0
  4 15  2  0  0  0  0
  5 17  1  0  0  0  0
  6 19  1  0  0  0  0
  7 10  2  0  0  0  0
  7 18  1  0  0  0  0
  8 22  1  0  0  0  0
  9 22  2  0  0  0  0
 10 23  1  0  0  0  0
 11 12  2  0  0  0  0
 11 24  1  0  0  0  0
 12 25  1  0  0  0  0
 13 20  1  0  0  0  0
 13 23  2  0  0  0  0
 14 25  2  0  0  0  0
 14 26  1  0  0  0  0
 15 27  1  0  0  0  0
 16 27  1  0  0  0  0
 16 30  2  0  0  0  0
 16 32  1  0  0  0  0
 17 19  2  0  0  0  0
 17 37  1  0  0  0  0
 18 20  2  0  0  0  0
 18 38  1  0  0  0  0
 19 52  1  0  0  0  0
 20 39  1  0  0  0  0
 21 28  2  0  0  0  0
 21 29  1  0  0  0  0
 21 51  1  0  0  0  0
 22 86  1  0  0  0  0
 23 87  1  0  0  0  0
 24 26  2  0  0  0  0
 24 86  1  0  0  0  0
 25 88  1  0  0  0  0
 26 89  1  0  0  0  0
 27 68  2  0  0  0  0
 28 62  1  0  0  0  0
 28 69  1  0  0  0  0
 29 70  2  0  0  0  0
 29 77  1  0  0  0  0
 30 71  1  0  0  0  0
 30 75  1  0  0  0  0
 31 56  1  0  0  0  0
 31 69  2  0  0  0  0
 31 70  1  0  0  0  0
 32 76  1  0  0  0  0
 32 81  2  0  0  0  0
 33 53  1  0  0  0  0
 33 78  1  0  0  0  0
 33 82  2  0  0  0  0
 34 65  1  0  0  0  0
 34 72  1  0  0  0  0
 34 83  2  0  0  0  0
 35 66  1  0  0  0  0
 35 79  1  0  0  0  0
 35 84  2  0  0  0  0
 36 73  1  0  0  0  0
 36 74  1  0  0  0  0
 36 85  2  0  0  0  0
 37 40  1  0  0  0  0
 38 53  1  0  0  0  0
 39 72  1  0  0  0  0
 40 44  1  0  0  0  0
 41 45  1  0  0  0  0
 41 47  1  0  0  0  0
 42 43  1  0  0  0  0
 42 51  1  0  0  0  0
 43 51  1  0  0  0  0
 44 52  1  0  0  0  0
 45 55  1  0  0  0  0
 46 48  1  0  0  0  0
 46 54  1  0  0  0  0
 47 73  1  0  0  0  0
 48 74  1  0  0  0  0
 49 54  1  0  0  0  0
 49 74  1  0  0  0  0
 50 55  1  0  0  0  0
 50 73  1  0  0  0  0
 52 78  1  0  0  0  0
 53 72  1  0  0  0  0
 54 63  1  0  0  0  0
 55 71  1  0  0  0  0
 57 66  1  0  0  0  0
 58 67  1  0  0  0  0
 59 67  1  0  0  0  0
 60 67  1  0  0  0  0
 61 80  1  0  0  0  0
 62 87  1  0  0  0  0
 63 64  1  0  0  0  0
 64 77  1  0  0  0  0
 65 67  1  0  0  0  0
 65 79  1  0  0  0  0
 66 80  1  0  0  0  0
 68 71  1  0  0  0  0
M  CHG  1  80   1
M  ISO  4  36 100  62 101  74 100  87 101
M  END
> <Batch ID>
0193

> <Smiles>
CNC(C)C(=O)NC(C(=O)N1Cc2cc([101O:1][101CH2:1]c3nc(C)nc(NCCC4CC[100N:0]([100C:0](=O)N5CCCC(n6nc(-c7ccc(Oc8ccc(F)cc8F)cc7)c(C(N)=O)c6N)C5)C4)c3C3CC3)ccc2CC1C(=O)NC1CCCc2ccccc21)C(C)(C)C

> <Shape>
0.285

> <Color>
0.107

> <Negative vol penalty>
0.000

$$$$

  -OEChem-04052323323D

 83 92  0     1  0  0  0  0  0999 V2000
  -17.3538  -30.1490   24.4834 C   0  0  0  0  0  0  0  0  0  0  0  0
  -18.7260  -30.3171   24.6396 C   0  0  0  0  0  0  0  0  0  0  0  0
  -23.3251  -13.8389   20.6142 C   0  0  0  0  0  0  0  0  0  0  0  0
  -25.4530  -14.2616   21.6773 C   0  0  0  0  0  0  0  0  0  0  0  0
  -16.8666  -29.1704   23.6180 C   0  0  0  0  0  0  0  0  0  0  0  0
  -19.6118  -29.5059   23.9312 C   0  0  0  0  0  0  0  0  0  0  0  0
  -26.0775  -29.6592   20.8510 C   0  0  0  0  0  0  0  0  0  0  0  0
  -23.7016  -12.5152   20.3868 C   0  0  0  0  0  0  0  0  0  0  0  0
  -25.8296  -12.9379   21.4499 C   0  0  0  0  0  0  0  0  0  0  0  0
  -27.2822  -28.9576   20.8401 C   0  0  0  0  0  0  0  0  0  0  0  0
  -23.8964   -9.6415   22.1580 C   0  0  0  0  0  0  0  0  0  0  0  0
  -22.9632   -8.6443   22.4413 C   0  0  0  0  0  0  0  0  0  0  0  0
  -26.3267  -27.3528   19.3132 C   0  0  0  0  0  0  0  0  0  0  0  0
  -23.0262   -7.9300   20.1341 C   0  0  0  0  0  0  0  0  0  0  0  0
  -24.2008  -14.7121   21.2594 C   0  0  0  0  0  0  0  0  0  0  0  0
  -23.1468  -16.5926   22.6233 C   0  0  0  0  0  0  0  0  0  0  0  0
  -17.7469  -28.3532   22.8914 C   0  0  0  0  0  0  0  0  0  0  0  0
  -24.9830  -29.2061   20.1005 C   0  0  0  0  0  0  0  0  0  0  0  0
  -19.1359  -28.5146   23.0563 C   0  0  0  0  0  0  0  0  0  0  0  0
  -25.1100  -28.0520   19.3144 C   0  0  0  0  0  0  0  0  0  0  0  0
  -24.9538  -12.0647   20.8047 C   0  0  0  0  0  0  0  0  0  0  0  0
  -27.4060  -27.8026   20.0734 C   0  0  0  0  0  0  0  0  0  0  0  0
  -24.3945   -9.7830   20.8627 C   0  0  0  0  0  0  0  0  0  0  0  0
  -22.5281   -7.7885   21.4294 C   0  0  0  0  0  0  0  0  0  0  0  0
  -23.9594   -8.9272   19.8508 C   0  0  0  0  0  0  0  0  0  0  0  0
  -23.8126  -16.0797   21.4940 C   0  0  0  0  0  0  0  0  0  0  0  0
  -23.0116  -17.9343   22.3623 C   0  0  0  0  0  0  0  0  0  0  0  0
  -22.6913  -15.9167   23.8029 C   0  0  0  0  0  0  0  0  0  0  0  0
  -22.0421  -28.2191   20.7937 C   0  0  0  0  0  0  0  0  0  0  0  0
  -21.7106  -28.1909   17.5670 C   0  0  0  0  0  0  0  0  0  0  0  0
  -23.2006  -27.9925   14.5031 C   0  0  0  0  0  0  0  0  0  0  0  0
  -26.2968  -21.4004   18.5167 C   0  0  0  0  0  0  0  0  0  0  0  0
  -17.1732  -27.2774   22.0037 C   0  0  0  0  0  0  0  0  0  0  0  0
  -23.6988  -29.9892   20.1021 C   0  0  0  0  0  0  0  0  0  0  0  0
  -23.9713  -27.5350   18.4750 C   0  0  0  0  0  0  0  0  0  0  0  0
  -18.1797  -26.7098   21.0062 C   0  0  0  0  0  0  0  0  0  0  0  0
  -22.6151  -21.0396   18.7545 C   0  0  0  0  0  0  0  0  0  0  0  0
  -19.5023  -26.3998   21.7000 C   0  0  0  0  0  0  0  0  0  0  0  0
  -22.4609  -19.7245   19.5161 C   0  0  0  0  0  0  0  0  0  0  0  0
  -31.9797  -22.3817   23.0354 C   0  0  0  0  0  0  0  0  0  0  0  0
  -31.9770  -23.8642   23.2796 C   0  0  0  0  0  0  0  0  0  0  0  0
  -29.5347  -22.2746   19.4043 C   0  0  0  0  0  0  0  0  0  0  0  0
  -28.0806  -22.1328   21.4653 C   0  0  0  0  0  0  0  0  0  0  0  0
  -23.9142  -21.0831   17.9561 C   0  0  0  0  0  0  0  0  0  0  0  0
  -28.7406  -21.1173   18.8044 C   0  0  0  0  0  0  0  0  0  0  0  0
  -27.2954  -20.9920   20.8112 C   0  0  0  0  0  0  0  0  0  0  0  0
  -24.9774  -19.5038   19.5365 C   0  0  0  0  0  0  0  0  0  0  0  0
  -20.1286  -27.6707   22.2866 C   0  0  1  0  0  0  0  0  0  0  0  0
  -22.4878  -29.1516   19.7030 C   0  0  1  0  0  0  0  0  0  0  0  0
  -23.6989  -19.4473   20.3862 C   0  0  2  0  0  0  0  0  0  0  0  0
  -30.7072  -23.1654   22.8851 C   0  0  0  0  0  0  0  0  0  0  0  0
  -29.5093  -22.1956   20.9294 C   0  0  0  0  0  0  0  0  0  0  0  0
  -22.6665  -27.9584   12.0514 C   0  0  0  0  0  0  0  0  0  0  0  0
  -20.7731  -25.2978   17.8139 C   0  0  0  0  0  0  0  0  0  0  0  0
  -21.1692  -25.0328   15.3561 C   0  0  0  0  0  0  0  0  0  0  0  0
  -19.4814  -26.6767   16.1755 C   0  0  0  0  0  0  0  0  0  0  0  0
  -24.7622  -30.4577   14.0103 C   0  0  0  0  0  0  0  0  0  0  0  0
  -30.1820  -25.8823   21.3601 C   0  0  0  0  0  0  0  0  0  0  0  0
  -29.3217  -24.6292   21.4225 C   0  0  0  0  0  0  0  0  0  0  0  0
  -29.3790  -27.1719   21.2419 C   0  0  0  0  0  0  0  0  0  1  0  0
  -21.9422  -27.1720   16.4774 C   0  0  1  0  0  0  0  0  0  0  0  0
  -23.0327  -28.8260   13.2455 C   0  0  2  0  0  0  0  0  0  0  0  0
  -20.8625  -26.0532   16.4729 C   0  0  0  0  0  0  0  0  0  0  0  0
  -24.0816  -17.0190   20.5832 N   0  0  0  0  0  0  0  0  0  0  0  0
  -23.5821  -18.1356   21.1399 N   0  0  0  0  0  0  0  0  0  0  0  0
  -22.7341  -28.3320   18.5148 N   0  0  0  0  0  0  0  0  0  0  0  0
  -25.0721  -20.7699   18.7937 N   0  0  0  0  0  0  0  0  0  0  0  0
  -27.3807  -21.0736   19.3455 N   0  0  0  0  0  0  0  0  0  0  0  0
  -22.4614  -18.9497   23.0613 N   0  0  0  0  0  0  0  0  0  0  0  0
  -22.9115  -14.5367   23.9092 N   0  0  0  0  0  0  0  0  0  0  0  0
  -20.7564  -28.4527   21.2431 N   0  0  0  0  0  0  0  0  0  0  0  0
  -22.0305  -27.9221   15.2292 N   0  0  0  0  0  0  0  0  0  0  0  0
  -24.2971  -29.5492   12.9308 N   0  3  0  0  0  0  0  0  0  0  0  0
  -30.1855  -23.3946   21.4887 N   0  3  1  0  0  0  0  0  0  0  0  0
  -22.0917  -16.5158   24.7276 O   0  0  0  0  0  0  0  0  0  0  0  0
  -22.8075  -27.3510   21.1966 O   0  0  0  0  0  0  0  0  0  0  0  0
  -20.6634  -28.8427   17.5727 O   0  0  0  0  0  0  0  0  0  0  0  0
  -24.2625  -27.4543   14.8087 O   0  0  0  0  0  0  0  0  0  0  0  0
  -26.4123  -22.2078   17.5862 O   0  0  0  0  0  0  0  0  0  0  0  0
  -25.3215  -10.7731   20.5833 O   0  0  0  0  0  0  0  0  0  0  0  0
  -28.5888  -27.1107   20.0613 O   0  0  0  0  0  0  0  0  0  1  0  0
  -21.6331   -6.8299   21.7019 F   0  0  0  0  0  0  0  0  0  0  0  0
  -24.4352   -9.0576   18.6049 F   0  0  0  0  0  0  0  0  0  0  0  0
  1  2  1  0  0  0  0
  1  5  2  0  0  0  0
  2  6  2  0  0  0  0
  3  8  2  0  0  0  0
  3 15  1  0  0  0  0
  4  9  1  0  0  0  0
  4 15  2  0  0  0  0
  5 17  1  0  0  0  0
  6 19  1  0  0  0  0
  7 10  2  0  0  0  0
  7 18  1  0  0  0  0
  8 21  1  0  0  0  0
  9 21  2  0  0  0  0
 10 22  1  0  0  0  0
 11 12  2  0  0  0  0
 11 23  1  0  0  0  0
 12 24  1  0  0  0  0
 13 20  1  0  0  0  0
 13 22  2  0  0  0  0
 14 24  2  0  0  0  0
 14 25  1  0  0  0  0
 15 26  1  0  0  0  0
 16 26  1  0  0  0  0
 16 27  2  0  0  0  0
 16 28  1  0  0  0  0
 17 19  2  0  0  0  0
 17 33  1  0  0  0  0
 18 20  2  0  0  0  0
 18 34  1  0  0  0  0
 19 48  1  0  0  0  0
 20 35  1  0  0  0  0
 21 80  1  0  0  0  0
 22 81  1  0  0  0  0
 23 25  2  0  0  0  0
 23 80  1  0  0  0  0
 24 82  1  0  0  0  0
 25 83  1  0  0  0  0
 26 64  2  0  0  0  0
 27 65  1  0  0  0  0
 27 69  1  0  0  0  0
 28 70  1  0  0  0  0
 28 75  2  0  0  0  0
 29 49  1  0  0  0  0
 29 71  1  0  0  0  0
 29 76  2  0  0  0  0
 30 61  1  0  0  0  0
 30 66  1  0  0  0  0
 30 77  2  0  0  0  0
 31 62  1  0  0  0  0
 31 72  1  0  0  0  0
 31 78  2  0  0  0  0
 32 67  1  0  0  0  0
 32 68  1  0  0  0  0
 32 79  2  0  0  0  0
 33 36  1  0  0  0  0
 34 49  1  0  0  0  0
 35 66  1  0  0  0  0
 36 38  1  0  0  0  0
 37 39  1  0  0  0  0
 37 44  1  0  0  0  0
 38 48  1  0  0  0  0
 39 50  1  0  0  0  0
 40 41  1  0  0  0  0
 40 51  1  0  0  0  0
 41 51  1  0  0  0  0
 42 45  1  0  0  0  0
 42 52  1  0  0  0  0
 43 46  1  0  0  0  0
 43 52  1  0  0  0  0
 44 67  1  0  0  0  0
 45 68  1  0  0  0  0
 46 68  1  0  0  0  0
 47 50  1  0  0  0  0
 47 67  1  0  0  0  0
 48 71  1  0  0  0  0
 49 66  1  0  0  0  0
 50 65  1  0  0  0  0
 51 74  1  0  0  0  0
 52 74  1  0  0  0  0
 53 62  1  0  0  0  0
 54 63  1  0  0  0  0
 55 63  1  0  0  0  0
 56 63  1  0  0  0  0
 57 73  1  0  0  0  0
 58 59  1  0  0  0  0
 58 60  1  0  0  0  0
 59 74  1  0  0  0  0
 60 81  1  0  0  0  0
 61 63  1  0  0  0  0
 61 72  1  0  0  0  0
 62 73  1  0  0  0  0
 64 65  1  0  0  0  0
M  CHG  2  73   1  74   1
M  ISO  4  32 100  60 101  68 100  81 101
M  END
> <Batch ID>
0193

> <Smiles>
CNC(C)C(=O)NC(C(=O)N1Cc2cc([101O:1][101CH2:1]CCN(C3CC3)C3CC[100N:0]([100C:0](=O)N4CCCC(n5nc(-c6ccc(Oc7ccc(F)cc7F)cc6)c(C(N)=O)c5N)C4)CC3)ccc2CC1C(=O)NC1CCCc2ccccc21)C(C)(C)C

> <Shape>
0.230

> <Color>
0.089

> <Negative vol penalty>
0.000

$$$$

  -OEChem-04052323323D

 87 96  0     1  0  0  0  0  0999 V2000
  -31.1025  -24.2569   17.3490 C   0  0  0  0  0  0  0  0  0  0  0  0
  -29.8387  -24.1677   17.9236 C   0  0  0  0  0  0  0  0  0  0  0  0
  -27.3687  -16.1160   18.8935 C   0  0  0  0  0  0  0  0  0  0  0  0
  -27.2553  -16.5037   21.2754 C   0  0  0  0  0  0  0  0  0  0  0  0
  -32.0597  -25.1070   17.9014 C   0  0  0  0  0  0  0  0  0  0  0  0
  -29.5316  -24.9277   19.0516 C   0  0  0  0  0  0  0  0  0  0  0  0
  -24.9890  -27.1420   18.7244 C   0  0  0  0  0  0  0  0  0  0  0  0
  -28.5769  -16.8107   18.8379 C   0  0  0  0  0  0  0  0  0  0  0  0
  -28.4635  -17.1984   21.2199 C   0  0  0  0  0  0  0  0  0  0  0  0
  -23.8724  -26.3434   18.9674 C   0  0  0  0  0  0  0  0  0  0  0  0
  -31.3362  -19.3835   21.6478 C   0  0  0  0  0  0  0  0  0  0  0  0
  -31.4230  -20.5898   22.3428 C   0  0  0  0  0  0  0  0  0  0  0  0
  -23.7328  -27.2305   21.2064 C   0  0  0  0  0  0  0  0  0  0  0  0
  -29.6150  -21.4855   21.0138 C   0  0  0  0  0  0  0  0  0  0  0  0
  -16.6140  -23.1163   19.9462 C   0  0  0  0  0  0  0  0  0  0  0  0
  -26.7078  -15.9625   20.1122 C   0  0  0  0  0  0  0  0  0  0  0  0
  -25.2807  -13.8658   20.3864 C   0  0  0  0  0  0  0  0  0  0  0  0
  -31.7611  -25.8851   19.0309 C   0  0  0  0  0  0  0  0  0  0  0  0
  -25.4934  -27.9842   19.7258 C   0  0  0  0  0  0  0  0  0  0  0  0
  -30.4861  -25.7881   19.6203 C   0  0  0  0  0  0  0  0  0  0  0  0
  -24.8544  -28.0407   20.9726 C   0  0  0  0  0  0  0  0  0  0  0  0
  -29.1244  -17.3519   20.0011 C   0  0  0  0  0  0  0  0  0  0  0  0
  -23.2459  -26.3854   20.2095 C   0  0  0  0  0  0  0  0  0  0  0  0
  -30.3889  -19.2282   20.6358 C   0  0  0  0  0  0  0  0  0  0  0  0
  -30.5624  -21.6408   22.0258 C   0  0  0  0  0  0  0  0  0  0  0  0
  -29.5283  -20.2792   20.3188 C   0  0  0  0  0  0  0  0  0  0  0  0
  -18.6523  -22.0313   21.3166 C   0  0  0  0  0  0  0  0  0  0  0  0
  -25.4594  -15.2454   20.1702 C   0  0  0  0  0  0  0  0  0  0  0  0
  -17.5002  -21.3269   21.0323 C   0  0  0  0  0  0  0  0  0  0  0  0
  -18.6886  -23.3297   20.8505 C   0  0  0  0  0  0  0  0  0  0  0  0
  -23.9195  -13.6863   20.3517 C   0  0  0  0  0  0  0  0  0  0  0  0
  -26.2579  -12.8385   20.5997 C   0  0  0  0  0  0  0  0  0  0  0  0
  -28.2448  -28.1959   21.3032 C   0  0  0  0  0  0  0  0  0  0  0  0
  -26.8942  -30.8843   22.5160 C   0  0  0  0  0  0  0  0  0  0  0  0
  -24.0486  -32.6211   23.2462 C   0  0  0  0  0  0  0  0  0  0  0  0
  -19.3992  -17.0918   21.5384 C   0  0  0  0  0  0  0  0  0  0  0  0
  -32.8435  -26.7542   19.6206 C   0  0  0  0  0  0  0  0  0  0  0  0
  -26.6826  -28.8593   19.4389 C   0  0  0  0  0  0  0  0  0  0  0  0
  -25.3443  -28.9430   22.0746 C   0  0  0  0  0  0  0  0  0  0  0  0
  -32.3174  -27.8066   20.5932 C   0  0  0  0  0  0  0  0  0  0  0  0
  -19.9403  -15.5171   18.4410 C   0  0  0  0  0  0  0  0  0  0  0  0
  -31.3246  -27.1828   21.5690 C   0  0  0  0  0  0  0  0  0  0  0  0
  -21.4149  -15.1314   18.5506 C   0  0  0  0  0  0  0  0  0  0  0  0
  -19.6650  -16.9042   19.0245 C   0  0  0  0  0  0  0  0  0  0  0  0
  -21.6218  -16.6906   20.5231 C   0  0  0  0  0  0  0  0  0  0  0  0
  -16.2839  -19.6763   22.3825 C   0  0  0  0  0  0  0  0  0  0  0  0
  -17.0417  -17.2791   22.2671 C   0  0  0  0  0  0  0  0  0  0  0  0
  -17.8916  -18.9186   20.6091 C   0  0  0  0  0  0  0  0  0  0  0  0
  -30.1070  -26.6151   20.8296 C   0  0  1  0  0  0  0  0  0  0  0  0
  -27.4200  -29.2977   20.7005 C   0  0  1  0  0  0  0  0  0  0  0  0
  -21.9170  -15.2772   19.9980 C   0  0  2  0  0  0  0  0  0  0  0  0
  -16.5925  -18.4110   23.1811 C   0  0  1  0  0  0  0  0  0  0  0  0
  -23.2623  -34.7737   24.2686 C   0  0  0  0  0  0  0  0  0  0  0  0
  -27.4872  -29.7773   25.2968 C   0  0  0  0  0  0  0  0  0  0  0  0
  -25.8756  -31.4505   26.2304 C   0  0  0  0  0  0  0  0  0  0  0  0
  -27.9227  -32.2259   25.0340 C   0  0  0  0  0  0  0  0  0  0  0  0
  -22.7483  -33.4764   20.7289 C   0  0  0  0  0  0  0  0  0  0  0  0
  -19.8212  -25.5445   21.0439 C   0  0  0  0  0  0  0  0  0  0  0  0
  -21.1944  -26.1022   21.3789 C   0  0  0  0  0  0  0  0  0  1  0  0
  -26.0280  -31.1998   23.7114 C   0  0  1  0  0  0  0  0  0  0  0  0
  -23.6527  -34.0626   22.9822 C   0  0  2  0  0  0  0  0  0  0  0  0
  -26.8200  -31.1448   25.0482 C   0  0  0  0  0  0  0  0  0  0  0  0
  -16.4576  -21.8402   20.3468 N   0  0  0  0  0  0  0  0  0  0  0  0
  -17.6837  -23.9063   20.1591 N   0  0  0  0  0  0  0  0  0  0  0  0
  -24.3041  -15.8961   20.0097 N   0  0  0  0  0  0  0  0  0  0  0  0
  -23.3863  -14.9211   20.1252 N   0  0  0  0  0  0  0  0  0  0  0  0
  -17.3890  -20.0005   21.4685 N   0  0  1  0  0  0  0  0  0  0  0  0
  -26.5143  -29.7747   21.7476 N   0  0  0  0  0  0  0  0  0  0  0  0
  -20.1994  -17.0118   20.3891 N   0  0  0  0  0  0  0  0  0  0  0  0
  -18.1422  -17.7029   21.4024 N   0  0  0  0  0  0  0  0  0  0  0  0
  -23.1385  -12.5943   20.4929 N   0  0  0  0  0  0  0  0  0  0  0  0
  -27.6130  -13.1961   20.6053 N   0  0  0  0  0  0  0  0  0  0  0  0
  -19.8376  -24.1190   21.1026 N   0  0  0  0  0  0  0  0  0  0  0  0
  -29.2033  -27.6805   20.4517 N   0  0  0  0  0  0  0  0  0  0  0  0
  -25.4081  -32.4915   23.4368 N   0  0  0  0  0  0  0  0  0  0  0  0
  -17.6761  -18.7103   24.1603 N   0  3  0  0  0  0  0  0  0  0  0  0
  -22.4957  -34.1186   22.0445 N   0  3  0  0  0  0  0  0  0  0  0  0
  -25.9395  -11.6363   20.7637 O   0  0  0  0  0  0  0  0  0  0  0  0
  -28.0287  -27.8408   22.4560 O   0  0  0  0  0  0  0  0  0  0  0  0
  -27.8678  -31.6003   22.2688 O   0  0  0  0  0  0  0  0  0  0  0  0
  -23.2330  -31.7024   23.2834 O   0  0  0  0  0  0  0  0  0  0  0  0
  -19.7886  -16.6472   22.6257 O   0  0  0  0  0  0  0  0  0  0  0  0
  -30.3034  -18.0297   19.9473 O   0  0  0  0  0  0  0  0  0  0  0  0
  -22.1485  -25.6009   20.4513 O   0  0  0  0  0  0  0  0  0  1  0  0
  -30.6448  -22.7985   22.6943 F   0  0  0  0  0  0  0  0  0  0  0  0
  -28.6154  -20.1356   19.3483 F   0  0  0  0  0  0  0  0  0  0  0  0
  -19.9617  -21.3339   22.1968 Cl  0  0  0  0  0  0  0  0  0  0  0  0
  1  2  1  0  0  0  0
  1  5  2  0  0  0  0
  2  6  2  0  0  0  0
  3  8  2  0  0  0  0
  3 16  1  0  0  0  0
  4  9  1  0  0  0  0
  4 16  2  0  0  0  0
  5 18  1  0  0  0  0
  6 20  1  0  0  0  0
  7 10  2  0  0  0  0
  7 19  1  0  0  0  0
  8 22  1  0  0  0  0
  9 22  2  0  0  0  0
 10 23  1  0  0  0  0
 11 12  2  0  0  0  0
 11 24  1  0  0  0  0
 12 25  1  0  0  0  0
 13 21  1  0  0  0  0
 13 23  2  0  0  0  0
 14 25  2  0  0  0  0
 14 26  1  0  0  0  0
 15 63  1  0  0  0  0
 15 64  2  0  0  0  0
 16 28  1  0  0  0  0
 17 28  1  0  0  0  0
 17 31  2  0  0  0  0
 17 32  1  0  0  0  0
 18 20  2  0  0  0  0
 18 37  1  0  0  0  0
 19 21  2  0  0  0  0
 19 38  1  0  0  0  0
 20 49  1  0  0  0  0
 21 39  1  0  0  0  0
 22 83  1  0  0  0  0
 23 84  1  0  0  0  0
 24 26  2  0  0  0  0
 24 83  1  0  0  0  0
 25 85  1  0  0  0  0
 26 86  1  0  0  0  0
 27 29  1  0  0  0  0
 27 30  2  0  0  0  0
 27 87  1  0  0  0  0
 28 65  2  0  0  0  0
 29 63  2  0  0  0  0
 29 67  1  0  0  0  0
 30 64  1  0  0  0  0
 30 73  1  0  0  0  0
 31 66  1  0  0  0  0
 31 71  1  0  0  0  0
 32 72  1  0  0  0  0
 32 78  2  0  0  0  0
 33 50  1  0  0  0  0
 33 74  1  0  0  0  0
 33 79  2  0  0  0  0
 34 60  1  0  0  0  0
 34 68  1  0  0  0  0
 34 80  2  0  0  0  0
 35 61  1  0  0  0  0
 35 75  1  0  0  0  0
 35 81  2  0  0  0  0
 36 69  1  0  0  0  0
 36 70  1  0  0  0  0
 36 82  2  0  0  0  0
 37 40  1  0  0  0  0
 38 50  1  0  0  0  0
 39 68  1  0  0  0  0
 40 42  1  0  0  0  0
 41 43  1  0  0  0  0
 41 44  1  0  0  0  0
 42 49  1  0  0  0  0
 43 51  1  0  0  0  0
 44 69  1  0  0  0  0
 45 51  1  0  0  0  0
 45 69  1  0  0  0  0
 46 52  1  0  0  0  0
 46 67  1  0  0  0  0
 47 52  1  0  0  0  0
 47 70  1  0  0  0  0
 48 67  1  0  0  0  0
 48 70  1  0  0  0  0
 49 74  1  0  0  0  0
 50 68  1  0  0  0  0
 51 66  1  0  0  0  0
 52 76  1  0  0  0  0
 53 61  1  0  0  0  0
 54 62  1  0  0  0  0
 55 62  1  0  0  0  0
 56 62  1  0  0  0  0
 57 77  1  0  0  0  0
 58 59  1  0  0  0  0
 58 73  1  0  0  0  0
 59 84  1  0  0  0  0
 60 62  1  0  0  0  0
 60 75  1  0  0  0  0
 61 77  1  0  0  0  0
 65 66  1  0  0  0  0
M  CHG  2  76   1  77   1
M  ISO  4  36 100  59 101  70 100  84 101
M  END
> <Batch ID>
0193

> <Smiles>
CNC(C)C(=O)NC(C(=O)N1Cc2cc([101O:1][101CH2:1]CNc3ncnc(N4CC(N)C[100N:0]([100C:0](=O)N5CCCC(n6nc(-c7ccc(Oc8ccc(F)cc8F)cc7)c(C(N)=O)c6N)C5)C4)c3Cl)ccc2CC1C(=O)NC1CCCc2ccccc21)C(C)(C)C

> <Shape>
0.258

> <Color>
0.073

> <Negative vol penalty>
0.000

$$$$

  -OEChem-04052323323D

 84 93  0     1  0  0  0  0  0999 V2000
  -26.8312  -37.7623   22.9715 C   0  0  0  0  0  0  0  0  0  0  0  0
  -27.5655  -36.6748   22.5094 C   0  0  0  0  0  0  0  0  0  0  0  0
  -24.9061  -14.4126   23.5754 C   0  0  0  0  0  0  0  0  0  0  0  0
  -24.0409  -15.8091   21.8039 C   0  0  0  0  0  0  0  0  0  0  0  0
  -25.6465  -37.5532   23.6762 C   0  0  0  0  0  0  0  0  0  0  0  0
  -27.1161  -35.3775   22.7527 C   0  0  0  0  0  0  0  0  0  0  0  0
  -27.0538  -28.8468   19.8095 C   0  0  0  0  0  0  0  0  0  0  0  0
  -24.5361  -15.3750   24.5148 C   0  0  0  0  0  0  0  0  0  0  0  0
  -23.6708  -16.7715   22.7433 C   0  0  0  0  0  0  0  0  0  0  0  0
  -27.3761  -27.5250   20.1140 C   0  0  0  0  0  0  0  0  0  0  0  0
  -25.7219  -18.3279   25.6544 C   0  0  0  0  0  0  0  0  0  0  0  0
  -26.6455  -18.6509   26.6485 C   0  0  0  0  0  0  0  0  0  0  0  0
  -25.2744  -27.2860   21.2736 C   0  0  0  0  0  0  0  0  0  0  0  0
  -25.0708  -17.9472   28.3403 C   0  0  0  0  0  0  0  0  0  0  0  0
  -24.6585  -14.6297   22.2199 C   0  0  0  0  0  0  0  0  0  0  0  0
  -24.2623  -12.5607   20.7812 C   0  0  0  0  0  0  0  0  0  0  0  0
  -25.1773  -36.2527   23.9199 C   0  0  0  0  0  0  0  0  0  0  0  0
  -25.8420  -29.4023   20.2447 C   0  0  0  0  0  0  0  0  0  0  0  0
  -25.9246  -35.1507   23.4625 C   0  0  0  0  0  0  0  0  0  0  0  0
  -24.9379  -28.6142   20.9710 C   0  0  0  0  0  0  0  0  0  0  0  0
  -23.9185  -16.5544   24.0988 C   0  0  0  0  0  0  0  0  0  0  0  0
  -26.4877  -26.7452   20.8487 C   0  0  0  0  0  0  0  0  0  0  0  0
  -24.4727  -17.8146   26.0033 C   0  0  0  0  0  0  0  0  0  0  0  0
  -26.3200  -18.4605   27.9914 C   0  0  0  0  0  0  0  0  0  0  0  0
  -24.1472  -17.6242   27.3462 C   0  0  0  0  0  0  0  0  0  0  0  0
  -25.0410  -13.6362   21.2490 C   0  0  0  0  0  0  0  0  0  0  0  0
  -25.0725  -11.9177   19.8775 C   0  0  0  0  0  0  0  0  0  0  0  0
  -26.7029  -21.3768   21.9709 C   0  0  0  0  0  0  0  0  0  0  0  0
  -22.9261  -12.1772   21.1321 C   0  0  0  0  0  0  0  0  0  0  0  0
  -25.0372  -31.8093   22.1585 C   0  0  0  0  0  0  0  0  0  0  0  0
  -22.0393  -31.1038   21.1400 C   0  0  0  0  0  0  0  0  0  0  0  0
  -19.8882  -28.7921   19.8456 C   0  0  0  0  0  0  0  0  0  0  0  0
  -29.3715  -15.3767   19.9964 C   0  0  0  0  0  0  0  0  0  0  0  0
  -23.9157  -36.0756   24.7272 C   0  0  0  0  0  0  0  0  0  0  0  0
  -25.4974  -30.8215   19.8850 C   0  0  0  0  0  0  0  0  0  0  0  0
  -23.6151  -29.1571   21.4443 C   0  0  0  0  0  0  0  0  0  0  0  0
  -23.3142  -34.6768   24.6182 C   0  0  0  0  0  0  0  0  0  0  0  0
  -29.2982  -11.8849   20.7506 C   0  0  0  0  0  0  0  0  0  0  0  0
  -29.8029  -17.6898   17.2372 C   0  0  0  0  0  0  0  0  0  0  0  0
  -24.3967  -33.6155   24.7870 C   0  0  0  0  0  0  0  0  0  0  0  0
  -28.3788  -11.2769   19.6973 C   0  0  0  0  0  0  0  0  0  0  0  0
  -29.0488  -18.6007   18.1957 C   0  0  0  0  0  0  0  0  0  0  0  0
  -30.1099  -13.0267   20.1587 C   0  0  0  0  0  0  0  0  0  0  0  0
  -29.3021  -16.3081   17.6285 C   0  0  0  0  0  0  0  0  0  0  0  0
  -28.2764  -13.5721   18.5690 C   0  0  0  0  0  0  0  0  0  0  0  0
  -25.4570  -33.7287   23.6850 C   0  0  1  0  0  0  0  0  0  0  0  0
  -24.4628  -31.4405   20.8199 C   0  0  1  0  0  0  0  0  0  0  0  0
  -27.4810  -12.3261   19.0222 C   0  0  2  0  0  0  0  0  0  0  0  0
  -29.0240  -17.7965   19.4985 C   0  0  1  0  0  0  0  0  0  0  0  0
  -17.4926  -28.4979   19.1584 C   0  0  0  0  0  0  0  0  0  0  0  0
  -21.2251  -30.9020   24.0737 C   0  0  0  0  0  0  0  0  0  0  0  0
  -19.1505  -29.7057   23.3434 C   0  0  0  0  0  0  0  0  0  0  0  0
  -19.5596  -32.0533   22.6056 C   0  0  0  0  0  0  0  0  0  0  0  0
  -20.6422  -28.2115   17.0432 C   0  0  0  0  0  0  0  0  0  0  0  0
  -26.6346  -19.9359   21.5585 C   0  0  0  0  0  0  0  0  0  0  0  0
  -27.7781  -18.0897   20.3245 C   0  0  0  0  0  0  0  0  0  0  0  0
  -25.8456  -24.7060   21.9056 C   0  0  0  0  0  0  0  0  0  1  0  0
  -20.9394  -30.1830   21.6105 C   0  0  1  0  0  0  0  0  0  0  0  0
  -18.8942  -28.8710   18.7010 C   0  0  2  0  0  0  0  0  0  0  0  0
  -20.2443  -30.7010   22.9012 C   0  0  0  0  0  0  0  0  0  0  0  0
  -26.2529  -13.6773   20.6889 N   0  0  0  0  0  0  0  0  0  0  0  0
  -27.5646  -21.8380   22.9213 N   0  0  0  0  0  0  0  0  0  0  0  0
  -25.9301  -22.3225   21.4309 N   0  0  0  0  0  0  0  0  0  0  0  0
  -27.3473  -23.1444   23.0088 N   0  0  0  0  0  0  0  0  0  0  0  0
  -26.2418  -12.6196   19.8599 N   0  0  0  0  0  0  0  0  0  0  0  0
  -26.3780  -23.3847   22.1149 N   0  0  0  0  0  0  0  0  0  0  0  0
  -23.3265  -30.5522   21.0729 N   0  0  0  0  0  0  0  0  0  0  0  0
  -29.2558  -14.0501   19.5555 N   0  0  0  0  0  0  0  0  0  0  0  0
  -29.1038  -16.3929   19.0763 N   0  0  0  0  0  0  0  0  0  0  0  0
  -24.8917  -10.8260   19.1042 N   0  0  0  0  0  0  0  0  0  0  0  0
  -22.2363  -12.9481   22.0777 N   0  0  0  0  0  0  0  0  0  0  0  0
  -24.9647  -33.1582   22.4495 N   0  0  0  0  0  0  0  0  0  0  0  0
  -20.0392  -30.0093   20.4756 N   0  0  0  0  0  0  0  0  0  0  0  0
  -19.2927  -27.9443   17.6040 N   0  3  0  0  0  0  0  0  0  0  0  0
  -27.7764  -19.5208   20.6949 N   0  3  0  0  0  0  0  0  0  0  0  0
  -22.3666  -11.1709   20.6344 O   0  0  0  0  0  0  0  0  0  0  0  0
  -25.5097  -30.9346   22.8749 O   0  0  0  0  0  0  0  0  0  0  0  0
  -21.7651  -32.2675   20.8363 O   0  0  0  0  0  0  0  0  0  0  0  0
  -20.4695  -27.7537   20.1526 O   0  0  0  0  0  0  0  0  0  0  0  0
  -29.7088  -15.6423   21.1578 O   0  0  0  0  0  0  0  0  0  0  0  0
  -23.5571  -17.4937   25.0152 O   0  0  0  0  0  0  0  0  0  0  0  0
  -26.8021  -25.4466   21.1499 O   0  0  0  0  0  0  0  0  0  1  0  0
  -27.2077  -18.7693   28.9458 F   0  0  0  0  0  0  0  0  0  0  0  0
  -22.9491  -17.1303   27.6875 F   0  0  0  0  0  0  0  0  0  0  0  0
  1  2  1  0  0  0  0
  1  5  2  0  0  0  0
  2  6  2  0  0  0  0
  3  8  2  0  0  0  0
  3 15  1  0  0  0  0
  4  9  1  0  0  0  0
  4 15  2  0  0  0  0
  5 17  1  0  0  0  0
  6 19  1  0  0  0  0
  7 10  2  0  0  0  0
  7 18  1  0  0  0  0
  8 21  1  0  0  0  0
  9 21  2  0  0  0  0
 10 22  1  0  0  0  0
 11 12  2  0  0  0  0
 11 23  1  0  0  0  0
 12 24  1  0  0  0  0
 13 20  1  0  0  0  0
 13 22  2  0  0  0  0
 14 24  2  0  0  0  0
 14 25  1  0  0  0  0
 15 26  1  0  0  0  0
 16 26  1  0  0  0  0
 16 27  2  0  0  0  0
 16 29  1  0  0  0  0
 17 19  2  0  0  0  0
 17 34  1  0  0  0  0
 18 20  2  0  0  0  0
 18 35  1  0  0  0  0
 19 46  1  0  0  0  0
 20 36  1  0  0  0  0
 21 81  1  0  0  0  0
 22 82  1  0  0  0  0
 23 25  2  0  0  0  0
 23 81  1  0  0  0  0
 24 83  1  0  0  0  0
 25 84  1  0  0  0  0
 26 61  2  0  0  0  0
 27 65  1  0  0  0  0
 27 70  1  0  0  0  0
 28 55  1  0  0  0  0
 28 62  1  0  0  0  0
 28 63  2  0  0  0  0
 29 71  1  0  0  0  0
 29 76  2  0  0  0  0
 30 47  1  0  0  0  0
 30 72  1  0  0  0  0
 30 77  2  0  0  0  0
 31 58  1  0  0  0  0
 31 67  1  0  0  0  0
 31 78  2  0  0  0  0
 32 59  1  0  0  0  0
 32 73  1  0  0  0  0
 32 79  2  0  0  0  0
 33 68  1  0  0  0  0
 33 69  1  0  0  0  0
 33 80  2  0  0  0  0
 34 37  1  0  0  0  0
 35 47  1  0  0  0  0
 36 67  1  0  0  0  0
 37 40  1  0  0  0  0
 38 41  1  0  0  0  0
 38 43  1  0  0  0  0
 39 42  1  0  0  0  0
 39 44  1  0  0  0  0
 40 46  1  0  0  0  0
 41 48  1  0  0  0  0
 42 49  1  0  0  0  0
 43 68  1  0  0  0  0
 44 69  1  0  0  0  0
 45 48  1  0  0  0  0
 45 68  1  0  0  0  0
 46 72  1  0  0  0  0
 47 67  1  0  0  0  0
 48 65  1  0  0  0  0
 49 56  1  0  0  0  0
 49 69  1  0  0  0  0
 50 59  1  0  0  0  0
 51 60  1  0  0  0  0
 52 60  1  0  0  0  0
 53 60  1  0  0  0  0
 54 74  1  0  0  0  0
 55 75  1  0  0  0  0
 56 75  1  0  0  0  0
 57 66  1  0  0  0  0
 57 82  1  0  0  0  0
 58 60  1  0  0  0  0
 58 73  1  0  0  0  0
 59 74  1  0  0  0  0
 61 65  1  0  0  0  0
 62 64  2  0  0  0  0
 63 66  1  0  0  0  0
 64 66  1  0  0  0  0
M  CHG  2  74   1  75   1
M  ISO  4  33 100  57 101  69 100  82 101
M  END
> <Batch ID>
0193

> <Smiles>
CNC(C)C(=O)NC(C(=O)N1Cc2cc([101O:1][101CH2:1]n3nnc(CNCC4CCC[100N:0]4[100C:0](=O)N4CCCC(n5nc(-c6ccc(Oc7ccc(F)cc7F)cc6)c(C(N)=O)c5N)C4)n3)ccc2CC1C(=O)NC1CCCc2ccccc21)C(C)(C)C

> <Shape>
0.257

> <Color>
0.084

> <Negative vol penalty>
0.000

$$$$

  -OEChem-04052323323D

 82 91  0     1  0  0  0  0  0999 V2000
  -26.2523  -31.3333   30.5797 C   0  0  0  0  0  0  0  0  0  0  0  0
  -26.7982  -30.4360   29.6674 C   0  0  0  0  0  0  0  0  0  0  0  0
  -24.3989   -9.4076   22.2640 C   0  0  0  0  0  0  0  0  0  0  0  0
  -23.5144   -9.8068   20.0515 C   0  0  0  0  0  0  0  0  0  0  0  0
  -25.2646  -32.2279   30.1700 C   0  0  0  0  0  0  0  0  0  0  0  0
  -26.3558  -30.4321   28.3450 C   0  0  0  0  0  0  0  0  0  0  0  0
  -29.7027  -29.2825   23.3467 C   0  0  0  0  0  0  0  0  0  0  0  0
  -23.3044   -8.5934   22.5547 C   0  0  0  0  0  0  0  0  0  0  0  0
  -22.4199   -8.9925   20.3422 C   0  0  0  0  0  0  0  0  0  0  0  0
  -29.8664  -28.1358   22.5709 C   0  0  0  0  0  0  0  0  0  0  0  0
  -22.3073   -5.4308   21.8936 C   0  0  0  0  0  0  0  0  0  0  0  0
  -22.5554   -4.2130   22.5266 C   0  0  0  0  0  0  0  0  0  0  0  0
  -28.1857  -28.9397   21.0386 C   0  0  0  0  0  0  0  0  0  0  0  0
  -21.1746   -4.8986   24.3868 C   0  0  0  0  0  0  0  0  0  0  0  0
  -30.6472  -23.7687   18.3663 C   0  0  0  0  0  0  0  0  0  0  0  0
  -29.6845  -23.5586   20.3321 C   0  0  0  0  0  0  0  0  0  0  0  0
  -24.5039  -10.0145   21.0124 C   0  0  0  0  0  0  0  0  0  0  0  0
  -26.8625  -10.4611   20.1491 C   0  0  0  0  0  0  0  0  0  0  0  0
  -24.8167  -32.2416   28.8396 C   0  0  0  0  0  0  0  0  0  0  0  0
  -28.7698  -30.2630   22.9796 C   0  0  0  0  0  0  0  0  0  0  0  0
  -25.3602  -31.3269   27.9174 C   0  0  0  0  0  0  0  0  0  0  0  0
  -28.0138  -30.0992   21.8101 C   0  0  0  0  0  0  0  0  0  0  0  0
  -29.9376  -22.8616   19.1759 C   0  0  0  0  0  0  0  0  0  0  0  0
  -22.3149   -8.3857   21.5938 C   0  0  0  0  0  0  0  0  0  0  0  0
  -29.1058  -27.9629   21.4182 C   0  0  0  0  0  0  0  0  0  0  0  0
  -21.4929   -6.3827   22.5072 C   0  0  0  0  0  0  0  0  0  0  0  0
  -21.9891   -3.9468   23.7732 C   0  0  0  0  0  0  0  0  0  0  0  0
  -20.9265   -6.1165   23.7538 C   0  0  0  0  0  0  0  0  0  0  0  0
  -25.6340  -10.8562   20.7118 C   0  0  0  0  0  0  0  0  0  0  0  0
  -27.5915  -11.6222   20.0662 C   0  0  0  0  0  0  0  0  0  0  0  0
  -27.3050   -9.1608   19.7381 C   0  0  0  0  0  0  0  0  0  0  0  0
  -26.1531  -31.4803   24.3118 C   0  0  0  0  0  0  0  0  0  0  0  0
  -26.2814  -33.5089   21.7839 C   0  0  0  0  0  0  0  0  0  0  0  0
  -27.3456  -34.1018   18.5960 C   0  0  0  0  0  0  0  0  0  0  0  0
  -25.7697  -17.3049   19.7332 C   0  0  0  0  0  0  0  0  0  0  0  0
  -23.7133  -33.1950   28.4548 C   0  0  0  0  0  0  0  0  0  0  0  0
  -28.6241  -31.5068   23.8128 C   0  0  0  0  0  0  0  0  0  0  0  0
  -27.0133  -31.1317   21.3614 C   0  0  0  0  0  0  0  0  0  0  0  0
  -23.5665  -33.3800   26.9467 C   0  0  0  0  0  0  0  0  0  0  0  0
  -28.1060  -15.8832   22.1760 C   0  0  0  0  0  0  0  0  0  0  0  0
  -23.5901  -32.0292   26.2384 C   0  0  0  0  0  0  0  0  0  0  0  0
  -27.8256  -14.3867   22.0303 C   0  0  0  0  0  0  0  0  0  0  0  0
  -26.8350  -16.6986   21.9714 C   0  0  0  0  0  0  0  0  0  0  0  0
  -25.8670  -14.9639   20.5172 C   0  0  0  0  0  0  0  0  0  0  0  0
  -27.8102  -18.9402   19.8706 C   0  0  0  0  0  0  0  0  0  0  0  0
  -26.1226  -19.6482   18.7833 C   0  0  0  0  0  0  0  0  0  0  0  0
  -24.9241  -31.3088   26.4684 C   0  0  1  0  0  0  0  0  0  0  0  0
  -27.2781  -32.1992   23.6225 C   0  0  1  0  0  0  0  0  0  0  0  0
  -27.1144  -14.0795   20.6996 C   0  0  2  0  0  0  0  0  0  0  0  0
  -27.6358  -19.8509   18.6476 C   0  0  0  0  0  0  0  0  0  0  0  0
  -27.2644  -35.8341   16.7822 C   0  0  0  0  0  0  0  0  0  0  0  0
  -23.3961  -32.7285   21.1710 C   0  0  0  0  0  0  0  0  0  0  0  0
  -23.6881  -33.7133   18.8878 C   0  0  0  0  0  0  0  0  0  0  0  0
  -23.8967  -35.1644   20.9060 C   0  0  0  0  0  0  0  0  0  0  0  0
  -30.2907  -34.3940   18.5833 C   0  0  0  0  0  0  0  0  0  0  0  0
  -29.5428  -21.4512   18.8505 C   0  0  0  0  0  0  0  0  0  0  0  0
  -30.2263  -25.8819   21.0985 C   0  0  0  0  0  0  0  0  0  1  0  0
  -25.7283  -33.5031   20.3793 C   0  0  1  0  0  0  0  0  0  0  0  0
  -28.0434  -35.2973   17.9729 C   0  0  2  0  0  0  0  0  0  0  0  0
  -24.1947  -33.7568   20.3453 C   0  0  0  0  0  0  0  0  0  0  0  0
  -30.8329  -24.9517   18.9579 N   0  0  0  0  0  0  0  0  0  0  0  0
  -25.5819  -12.1660   20.9683 N   0  0  0  0  0  0  0  0  0  0  0  0
  -30.2361  -24.7929   20.1515 N   0  0  0  0  0  0  0  0  0  0  0  0
  -26.7868  -12.6039   20.5652 N   0  0  0  0  0  0  0  0  0  0  0  0
  -26.9028  -32.3276   22.2130 N   0  0  0  0  0  0  0  0  0  0  0  0
  -26.2107  -16.3800   20.6836 N   0  0  0  0  0  0  0  0  0  0  0  0
  -26.4450  -18.4978   19.6245 N   0  0  0  0  0  0  0  0  0  0  0  0
  -28.8359  -11.8890   19.6161 N   0  0  0  0  0  0  0  0  0  0  0  0
  -26.4299   -8.0771   19.8933 N   0  0  0  0  0  0  0  0  0  0  0  0
  -25.9547  -31.8713   25.6222 N   0  0  0  0  0  0  0  0  0  0  0  0
  -26.5119  -34.4777   19.6279 N   0  0  0  0  0  0  0  0  0  0  0  0
  -28.0637  -21.2351   18.8810 N   0  3  0  0  0  0  0  0  0  0  0  0
  -29.4077  -34.9171   17.5092 N   0  3  0  0  0  0  0  0  0  0  0  0
  -28.4490   -8.9628   19.2628 O   0  0  0  0  0  0  0  0  0  0  0  0
  -25.5115  -30.6346   23.6996 O   0  0  0  0  0  0  0  0  0  0  0  0
  -26.1728  -34.5267   22.4724 O   0  0  0  0  0  0  0  0  0  0  0  0
  -27.5197  -32.9500   18.2038 O   0  0  0  0  0  0  0  0  0  0  0  0
  -24.8189  -17.0614   18.9783 O   0  0  0  0  0  0  0  0  0  0  0  0
  -21.2469   -7.5910   21.8771 O   0  0  0  0  0  0  0  0  0  0  0  0
  -29.2643  -26.8369   20.6545 O   0  0  0  0  0  0  0  0  0  1  0  0
  -22.2262   -2.7766   24.3803 F   0  0  0  0  0  0  0  0  0  0  0  0
  -20.1423   -7.0265   24.3477 F   0  0  0  0  0  0  0  0  0  0  0  0
  1  2  1  0  0  0  0
  1  5  2  0  0  0  0
  2  6  2  0  0  0  0
  3  8  2  0  0  0  0
  3 17  1  0  0  0  0
  4  9  1  0  0  0  0
  4 17  2  0  0  0  0
  5 19  1  0  0  0  0
  6 21  1  0  0  0  0
  7 10  2  0  0  0  0
  7 20  1  0  0  0  0
  8 24  1  0  0  0  0
  9 24  2  0  0  0  0
 10 25  1  0  0  0  0
 11 12  2  0  0  0  0
 11 26  1  0  0  0  0
 12 27  1  0  0  0  0
 13 22  1  0  0  0  0
 13 25  2  0  0  0  0
 14 27  2  0  0  0  0
 14 28  1  0  0  0  0
 15 23  1  0  0  0  0
 15 61  2  0  0  0  0
 16 23  2  0  0  0  0
 16 63  1  0  0  0  0
 17 29  1  0  0  0  0
 18 29  1  0  0  0  0
 18 30  2  0  0  0  0
 18 31  1  0  0  0  0
 19 21  2  0  0  0  0
 19 36  1  0  0  0  0
 20 22  2  0  0  0  0
 20 37  1  0  0  0  0
 21 47  1  0  0  0  0
 22 38  1  0  0  0  0
 23 56  1  0  0  0  0
 24 79  1  0  0  0  0
 25 80  1  0  0  0  0
 26 28  2  0  0  0  0
 26 79  1  0  0  0  0
 27 81  1  0  0  0  0
 28 82  1  0  0  0  0
 29 62  2  0  0  0  0
 30 64  1  0  0  0  0
 30 68  1  0  0  0  0
 31 69  1  0  0  0  0
 31 74  2  0  0  0  0
 32 48  1  0  0  0  0
 32 70  1  0  0  0  0
 32 75  2  0  0  0  0
 33 58  1  0  0  0  0
 33 65  1  0  0  0  0
 33 76  2  0  0  0  0
 34 59  1  0  0  0  0
 34 71  1  0  0  0  0
 34 77  2  0  0  0  0
 35 66  1  0  0  0  0
 35 67  1  0  0  0  0
 35 78  2  0  0  0  0
 36 39  1  0  0  0  0
 37 48  1  0  0  0  0
 38 65  1  0  0  0  0
 39 41  1  0  0  0  0
 40 42  1  0  0  0  0
 40 43  1  0  0  0  0
 41 47  1  0  0  0  0
 42 49  1  0  0  0  0
 43 66  1  0  0  0  0
 44 49  1  0  0  0  0
 44 66  1  0  0  0  0
 45 50  1  0  0  0  0
 45 67  1  0  0  0  0
 46 50  1  0  0  0  0
 46 67  1  0  0  0  0
 47 70  1  0  0  0  0
 48 65  1  0  0  0  0
 49 64  1  0  0  0  0
 50 72  1  0  0  0  0
 51 59  1  0  0  0  0
 52 60  1  0  0  0  0
 53 60  1  0  0  0  0
 54 60  1  0  0  0  0
 55 73  1  0  0  0  0
 56 72  1  0  0  0  0
 57 63  1  0  0  0  0
 57 80  1  0  0  0  0
 58 60  1  0  0  0  0
 58 71  1  0  0  0  0
 59 73  1  0  0  0  0
 61 63  1  0  0  0  0
 62 64  1  0  0  0  0
M  CHG  2  72   1  73   1
M  ISO  4  35 100  57 101  67 100  80 101
M  END
> <Batch ID>
0193

> <Smiles>
CNC(C)C(=O)NC(C(=O)N1Cc2cc([101O:1][101CH2:1]n3cc(CNC4C[100N:0]([100C:0](=O)N5CCCC(n6nc(-c7ccc(Oc8ccc(F)cc8F)cc7)c(C(N)=O)c6N)C5)C4)cn3)ccc2CC1C(=O)NC1CCCc2ccccc21)C(C)(C)C

> <Shape>
0.262

> <Color>
0.087

> <Negative vol penalty>
0.000

$$$$

  -OEChem-04052323323D

 85 94  0     1  0  0  0  0  0999 V2000
  -29.2615  -32.6806   26.3154 C   0  0  0  0  0  0  0  0  0  0  0  0
  -28.8598  -31.4747   25.7497 C   0  0  0  0  0  0  0  0  0  0  0  0
  -24.9242   -8.5734   22.3316 C   0  0  0  0  0  0  0  0  0  0  0  0
  -25.2100   -7.5858   20.1452 C   0  0  0  0  0  0  0  0  0  0  0  0
  -28.3499  -33.7279   26.4417 C   0  0  0  0  0  0  0  0  0  0  0  0
  -27.5459  -31.3151   25.3110 C   0  0  0  0  0  0  0  0  0  0  0  0
  -27.2708  -29.0972   20.7668 C   0  0  0  0  0  0  0  0  0  0  0  0
  -23.6482   -8.0165   22.4163 C   0  0  0  0  0  0  0  0  0  0  0  0
  -23.9340   -7.0288   20.2300 C   0  0  0  0  0  0  0  0  0  0  0  0
  -27.4463  -27.7148   20.7213 C   0  0  0  0  0  0  0  0  0  0  0  0
  -22.2882   -4.9987   23.1066 C   0  0  0  0  0  0  0  0  0  0  0  0
  -21.9299   -4.3784   24.3034 C   0  0  0  0  0  0  0  0  0  0  0  0
  -25.0550  -27.4214   20.5987 C   0  0  0  0  0  0  0  0  0  0  0  0
  -20.0980   -5.9325   24.5606 C   0  0  0  0  0  0  0  0  0  0  0  0
  -28.1399  -20.3389   21.8450 C   0  0  0  0  0  0  0  0  0  0  0  0
  -29.9384  -21.1544   20.8668 C   0  0  0  0  0  0  0  0  0  0  0  0
  -25.7051   -8.3581   21.1960 C   0  0  0  0  0  0  0  0  0  0  0  0
  -28.2344   -8.3525   21.5282 C   0  0  0  0  0  0  0  0  0  0  0  0
  -27.0267  -33.5844   25.9955 C   0  0  0  0  0  0  0  0  0  0  0  0
  -25.9835  -29.6525   20.7395 C   0  0  0  0  0  0  0  0  0  0  0  0
  -26.6153  -32.3611   25.4327 C   0  0  0  0  0  0  0  0  0  0  0  0
  -24.8660  -28.8112   20.6413 C   0  0  0  0  0  0  0  0  0  0  0  0
  -23.1531   -7.2442   21.3656 C   0  0  0  0  0  0  0  0  0  0  0  0
  -26.3382  -26.8766   20.6401 C   0  0  0  0  0  0  0  0  0  0  0  0
  -21.5515   -6.0861   22.6368 C   0  0  0  0  0  0  0  0  0  0  0  0
  -20.8348   -4.8452   25.0304 C   0  0  0  0  0  0  0  0  0  0  0  0
  -20.4564   -6.5529   23.3638 C   0  0  0  0  0  0  0  0  0  0  0  0
  -27.0231   -8.9336   21.1076 C   0  0  0  0  0  0  0  0  0  0  0  0
  -28.4140  -21.6143   22.2793 C   0  0  0  0  0  0  0  0  0  0  0  0
  -29.1891   -9.2929   21.2272 C   0  0  0  0  0  0  0  0  0  0  0  0
  -28.4751   -7.0766   22.1365 C   0  0  0  0  0  0  0  0  0  0  0  0
  -24.2675  -31.4367   22.7334 C   0  0  0  0  0  0  0  0  0  0  0  0
  -22.1749  -31.5015   20.2556 C   0  0  0  0  0  0  0  0  0  0  0  0
  -21.0082  -30.0235   17.4094 C   0  0  0  0  0  0  0  0  0  0  0  0
  -28.9336  -15.1238   20.7254 C   0  0  0  0  0  0  0  0  0  0  0  0
  -26.0647  -34.7285   26.1963 C   0  0  0  0  0  0  0  0  0  0  0  0
  -25.8123  -31.1467   20.7623 C   0  0  0  0  0  0  0  0  0  0  0  0
  -23.4637  -29.3582   20.5885 C   0  0  0  0  0  0  0  0  0  0  0  0
  -24.7906  -34.6062   25.3645 C   0  0  0  0  0  0  0  0  0  0  0  0
  -30.1334  -12.8538   18.2006 C   0  0  0  0  0  0  0  0  0  0  0  0
  -24.2180  -33.1962   25.4691 C   0  0  0  0  0  0  0  0  0  0  0  0
  -29.5459  -11.5317   18.6862 C   0  0  0  0  0  0  0  0  0  0  0  0
  -28.0962  -18.3976   19.2811 C   0  0  0  0  0  0  0  0  0  0  0  0
  -29.1914  -14.0347   18.4443 C   0  0  0  0  0  0  0  0  0  0  0  0
  -28.3501  -16.9227   18.9935 C   0  0  0  0  0  0  0  0  0  0  0  0
  -28.1384  -12.8177   20.3308 C   0  0  0  0  0  0  0  0  0  0  0  0
  -29.4592  -17.5242   21.0381 C   0  0  0  0  0  0  0  0  0  0  0  0
  -25.2052  -32.1579   24.9223 C   0  0  1  0  0  0  0  0  0  0  0  0
  -24.4332  -31.5828   21.2472 C   0  0  1  0  0  0  0  0  0  0  0  0
  -29.1080  -11.6406   20.1554 C   0  0  1  0  0  0  0  0  0  0  0  0
  -29.2892  -18.7729   20.1693 C   0  0  2  0  0  0  0  0  0  0  0  0
  -28.5137  -22.8633   24.4755 C   0  0  0  0  0  0  0  0  0  0  0  0
  -19.2654  -30.2897   15.6236 C   0  0  0  0  0  0  0  0  0  0  0  0
  -20.0377  -30.5169   22.1980 C   0  0  0  0  0  0  0  0  0  0  0  0
  -18.6253  -29.9033   20.2239 C   0  0  0  0  0  0  0  0  0  0  0  0
  -19.2657  -32.2839   20.6055 C   0  0  0  0  0  0  0  0  0  0  0  0
  -23.0545  -30.2396   15.2822 C   0  0  0  0  0  0  0  0  0  0  0  0
  -26.0440  -23.4084   21.6442 C   0  0  0  0  0  0  0  0  0  0  0  0
  -25.4697  -24.7233   21.1551 C   0  0  0  0  0  0  0  0  0  1  0  0
  -27.6723  -22.4209   23.2605 C   0  0  1  0  0  0  0  0  0  0  0  0
  -21.0163  -30.6414   19.8120 C   0  0  1  0  0  0  0  0  0  0  0  0
  -20.6986  -30.5888   16.0350 C   0  0  2  0  0  0  0  0  0  0  0  0
  -19.7625  -30.8257   20.7128 C   0  0  0  0  0  0  0  0  0  0  0  0
  -29.5347  -22.1165   21.6664 N   0  0  0  0  0  0  0  0  0  0  0  0
  -27.1903  -10.1491   20.5798 N   0  0  0  0  0  0  0  0  0  0  0  0
  -29.1247  -20.0582   20.9402 N   0  0  0  0  0  0  0  0  0  0  0  0
  -28.5178  -10.3395   20.6668 N   0  0  0  0  0  0  0  0  0  0  0  0
  -23.3480  -30.8256   20.6201 N   0  0  0  0  0  0  0  0  0  0  0  0
  -28.7168  -14.0688   19.8321 N   0  0  0  0  0  0  0  0  0  0  0  0
  -28.9981  -16.4159   20.2052 N   0  0  0  0  0  0  0  0  0  0  0  0
  -30.5290   -9.3185   21.3901 N   0  0  0  0  0  0  0  0  0  0  0  0
  -27.3814   -6.2333   22.3753 N   0  0  0  0  0  0  0  0  0  0  0  0
  -25.1857  -32.1550   23.4752 N   0  0  0  0  0  0  0  0  0  0  0  0
  -20.7920  -30.9531   18.4046 N   0  0  0  0  0  0  0  0  0  0  0  0
  -21.6127  -30.0010   15.0152 N   0  3  0  0  0  0  0  0  0  0  0  0
  -27.0547  -23.6759   22.6876 N   0  3  0  0  0  0  0  0  0  0  0  0
  -29.6239   -6.7025   22.4737 O   0  0  0  0  0  0  0  0  0  0  0  0
  -23.3718  -30.7261   23.1745 O   0  0  0  0  0  0  0  0  0  0  0  0
  -22.0463  -32.7282   20.2712 O   0  0  0  0  0  0  0  0  0  0  0  0
  -21.3989  -28.8713   17.5832 O   0  0  0  0  0  0  0  0  0  0  0  0
  -29.0233  -14.9253   21.9446 O   0  0  0  0  0  0  0  0  0  0  0  0
  -21.9081   -6.7004   21.4481 O   0  0  0  0  0  0  0  0  0  0  0  0
  -26.5078  -25.5172   20.5960 O   0  0  0  0  0  0  0  0  0  1  0  0
  -20.4898   -4.2484   26.1788 F   0  0  0  0  0  0  0  0  0  0  0  0
  -19.7441   -7.5963   22.9169 F   0  0  0  0  0  0  0  0  0  0  0  0
  1  2  1  0  0  0  0
  1  5  2  0  0  0  0
  2  6  2  0  0  0  0
  3  8  2  0  0  0  0
  3 17  1  0  0  0  0
  4  9  1  0  0  0  0
  4 17  2  0  0  0  0
  5 19  1  0  0  0  0
  6 21  1  0  0  0  0
  7 10  2  0  0  0  0
  7 20  1  0  0  0  0
  8 23  1  0  0  0  0
  9 23  2  0  0  0  0
 10 24  1  0  0  0  0
 11 12  2  0  0  0  0
 11 25  1  0  0  0  0
 12 26  1  0  0  0  0
 13 22  1  0  0  0  0
 13 24  2  0  0  0  0
 14 26  2  0  0  0  0
 14 27  1  0  0  0  0
 15 29  2  0  0  0  0
 15 66  1  0  0  0  0
 16 64  2  0  0  0  0
 16 66  1  0  0  0  0
 17 28  1  0  0  0  0
 18 28  1  0  0  0  0
 18 30  2  0  0  0  0
 18 31  1  0  0  0  0
 19 21  2  0  0  0  0
 19 36  1  0  0  0  0
 20 22  2  0  0  0  0
 20 37  1  0  0  0  0
 21 48  1  0  0  0  0
 22 38  1  0  0  0  0
 23 82  1  0  0  0  0
 24 83  1  0  0  0  0
 25 27  2  0  0  0  0
 25 82  1  0  0  0  0
 26 84  1  0  0  0  0
 27 85  1  0  0  0  0
 28 65  2  0  0  0  0
 29 60  1  0  0  0  0
 29 64  1  0  0  0  0
 30 67  1  0  0  0  0
 30 71  1  0  0  0  0
 31 72  1  0  0  0  0
 31 77  2  0  0  0  0
 32 49  1  0  0  0  0
 32 73  1  0  0  0  0
 32 78  2  0  0  0  0
 33 61  1  0  0  0  0
 33 68  1  0  0  0  0
 33 79  2  0  0  0  0
 34 62  1  0  0  0  0
 34 74  1  0  0  0  0
 34 80  2  0  0  0  0
 35 69  1  0  0  0  0
 35 70  1  0  0  0  0
 35 81  2  0  0  0  0
 36 39  1  0  0  0  0
 37 49  1  0  0  0  0
 38 68  1  0  0  0  0
 39 41  1  0  0  0  0
 40 42  1  0  0  0  0
 40 44  1  0  0  0  0
 41 48  1  0  0  0  0
 42 50  1  0  0  0  0
 43 45  1  0  0  0  0
 43 51  1  0  0  0  0
 44 69  1  0  0  0  0
 45 70  1  0  0  0  0
 46 50  1  0  0  0  0
 46 69  1  0  0  0  0
 47 51  1  0  0  0  0
 47 70  1  0  0  0  0
 48 73  1  0  0  0  0
 49 68  1  0  0  0  0
 50 67  1  0  0  0  0
 51 66  1  0  0  0  0
 52 60  1  0  0  0  0
 53 62  1  0  0  0  0
 54 63  1  0  0  0  0
 55 63  1  0  0  0  0
 56 63  1  0  0  0  0
 57 75  1  0  0  0  0
 58 59  1  0  0  0  0
 58 76  1  0  0  0  0
 59 83  1  0  0  0  0
 60 76  1  0  0  0  0
 61 63  1  0  0  0  0
 61 74  1  0  0  0  0
 62 75  1  0  0  0  0
 65 67  1  0  0  0  0
M  CHG  2  75   1  76   1
M  ISO  4  35 100  59 101  70 100  83 101
M  END
> <Batch ID>
0193

> <Smiles>
CNC(C)C(=O)NC(C(=O)N1Cc2cc([101O:1][101CH2:1]CNC(C)c3cn(C4CC[100N:0]([100C:0](=O)N5CCCC(n6nc(-c7ccc(Oc8ccc(F)cc8F)cc7)c(C(N)=O)c6N)C5)C4)cn3)ccc2CC1C(=O)NC1CCCc2ccccc21)C(C)(C)C

> <Shape>
0.272

> <Color>
0.082

> <Negative vol penalty>
0.000

$$$$

  -OEChem-04052323323D

 80 88  0     1  0  0  0  0  0999 V2000
  -30.2343  -32.2332   25.6577 C   0  0  0  0  0  0  0  0  0  0  0  0
  -29.3872  -31.2780   25.1049 C   0  0  0  0  0  0  0  0  0  0  0  0
  -24.5780   -9.2173   21.9602 C   0  0  0  0  0  0  0  0  0  0  0  0
  -23.3518  -10.0144   20.0372 C   0  0  0  0  0  0  0  0  0  0  0  0
  -29.7111  -33.4331   26.1376 C   0  0  0  0  0  0  0  0  0  0  0  0
  -28.0161  -31.5218   25.0329 C   0  0  0  0  0  0  0  0  0  0  0  0
  -26.0515  -30.2569   20.5400 C   0  0  0  0  0  0  0  0  0  0  0  0
  -23.5175   -8.3721   22.2862 C   0  0  0  0  0  0  0  0  0  0  0  0
  -22.2912   -9.1691   20.3632 C   0  0  0  0  0  0  0  0  0  0  0  0
  -25.8157  -28.9028   20.3067 C   0  0  0  0  0  0  0  0  0  0  0  0
  -22.3047   -5.3874   21.2596 C   0  0  0  0  0  0  0  0  0  0  0  0
  -22.6088   -4.0738   21.6164 C   0  0  0  0  0  0  0  0  0  0  0  0
  -23.4813  -29.2269   20.8210 C   0  0  0  0  0  0  0  0  0  0  0  0
  -21.5854   -4.4237   23.7769 C   0  0  0  0  0  0  0  0  0  0  0  0
  -24.4952  -10.0386   20.8358 C   0  0  0  0  0  0  0  0  0  0  0  0
  -26.6914  -10.6159   19.6735 C   0  0  0  0  0  0  0  0  0  0  0  0
  -28.3341  -33.6957   26.0626 C   0  0  0  0  0  0  0  0  0  0  0  0
  -25.0043  -31.1055   20.9268 C   0  0  0  0  0  0  0  0  0  0  0  0
  -27.4738  -32.7258   25.5135 C   0  0  0  0  0  0  0  0  0  0  0  0
  -23.7059  -30.5920   21.0561 C   0  0  0  0  0  0  0  0  0  0  0  0
  -22.3741   -8.3479   21.4877 C   0  0  0  0  0  0  0  0  0  0  0  0
  -24.5310  -28.3870   20.4500 C   0  0  0  0  0  0  0  0  0  0  0  0
  -21.6410   -6.2193   22.1614 C   0  0  0  0  0  0  0  0  0  0  0  0
  -22.2492   -3.5919   22.8751 C   0  0  0  0  0  0  0  0  0  0  0  0
  -21.2813   -5.7374   23.4200 C   0  0  0  0  0  0  0  0  0  0  0  0
  -25.5902  -10.9124   20.4988 C   0  0  0  0  0  0  0  0  0  0  0  0
  -27.4398  -11.7676   19.6726 C   0  0  0  0  0  0  0  0  0  0  0  0
  -27.0094   -9.4075   18.9704 C   0  0  0  0  0  0  0  0  0  0  0  0
  -24.3866  -32.8821   23.4892 C   0  0  0  0  0  0  0  0  0  0  0  0
  -21.8674  -33.8820   21.7071 C   0  0  0  0  0  0  0  0  0  0  0  0
  -25.8161  -22.5358   19.0047 C   0  0  0  0  0  0  0  0  0  0  0  0
  -19.6876  -33.2475   19.1591 C   0  0  0  0  0  0  0  0  0  0  0  0
  -27.7024  -17.2143   19.1364 C   0  0  0  0  0  0  0  0  0  0  0  0
  -27.8091  -34.9874   26.6376 C   0  0  0  0  0  0  0  0  0  0  0  0
  -25.2701  -32.5692   21.1488 C   0  0  0  0  0  0  0  0  0  0  0  0
  -22.5434  -31.4650   21.4495 C   0  0  0  0  0  0  0  0  0  0  0  0
  -26.3916  -35.3249   26.1827 C   0  0  0  0  0  0  0  0  0  0  0  0
  -27.1379  -15.9132   22.5164 C   0  0  0  0  0  0  0  0  0  0  0  0
  -25.4886  -34.1009   26.2968 C   0  0  0  0  0  0  0  0  0  0  0  0
  -26.7158  -14.4799   22.2112 C   0  0  0  0  0  0  0  0  0  0  0  0
  -26.6652  -16.8989   21.4470 C   0  0  0  0  0  0  0  0  0  0  0  0
  -26.6388  -15.0763   19.7653 C   0  0  0  0  0  0  0  0  0  0  0  0
  -28.0752  -19.5698   18.2241 C   0  0  0  0  0  0  0  0  0  0  0  0
  -26.4894  -19.4808   19.6372 C   0  0  0  0  0  0  0  0  0  0  0  0
  -25.9840  -32.9638   25.3951 C   0  0  1  0  0  0  0  0  0  0  0  0
  -24.2264  -33.2379   22.0382 C   0  0  1  0  0  0  0  0  0  0  0  0
  -27.1689  -14.0745   20.8007 C   0  0  2  0  0  0  0  0  0  0  0  0
  -26.7503  -20.3275   18.3820 C   0  0  0  0  0  0  0  0  0  0  0  0
  -17.7154  -34.2349   17.9620 C   0  0  0  0  0  0  0  0  0  0  0  0
  -20.0687  -33.1279   24.0536 C   0  0  0  0  0  0  0  0  0  0  0  0
  -18.1117  -33.2276   22.4952 C   0  0  0  0  0  0  0  0  0  0  0  0
  -19.4664  -35.2775   22.9261 C   0  0  0  0  0  0  0  0  0  0  0  0
  -21.1418  -33.3223   16.5825 C   0  0  0  0  0  0  0  0  0  0  0  0
  -26.2296  -23.9728   19.2007 C   0  0  0  0  0  0  0  0  0  0  0  0
  -25.4169  -26.2606   19.8409 C   0  0  0  0  0  0  0  0  0  1  0  0
  -20.4429  -33.4203   21.5158 C   0  0  1  0  0  0  0  0  0  0  0  0
  -19.2299  -34.0998   17.9892 C   0  0  2  0  0  0  0  0  0  0  0  0
  -19.5445  -33.7462   22.7421 C   0  0  0  0  0  0  0  0  0  0  0  0
  -25.6314  -12.1550   20.9870 N   0  0  0  0  0  0  0  0  0  0  0  0
  -26.7677  -12.6495   20.4668 N   0  0  0  0  0  0  0  0  0  0  0  0
  -22.8553  -32.8881   21.6617 N   0  0  0  0  0  0  0  0  0  0  0  0
  -27.0238  -16.4538   20.0949 N   0  0  0  0  0  0  0  0  0  0  0  0
  -27.5121  -18.5764   19.1337 N   0  0  0  0  0  0  0  0  0  0  0  0
  -28.6006  -12.1019   19.0700 N   0  0  0  0  0  0  0  0  0  0  0  0
  -26.1321   -8.3201   19.0801 N   0  0  0  0  0  0  0  0  0  0  0  0
  -25.6192  -33.2156   24.0175 N   0  0  0  0  0  0  0  0  0  0  0  0
  -26.8910  -21.7544   18.6306 N   0  0  0  0  0  0  0  0  0  0  0  0
  -19.9854  -34.0155   20.2648 N   0  0  0  0  0  0  0  0  0  0  0  0
  -19.6708  -33.4922   16.7018 N   0  3  0  0  0  0  0  0  0  0  0  0
  -25.0749  -24.8238   19.5751 N   0  3  0  0  0  0  0  0  0  0  0  0
  -28.0494   -9.2899   18.2790 O   0  0  0  0  0  0  0  0  0  0  0  0
  -23.4601  -32.3461   24.0858 O   0  0  0  0  0  0  0  0  0  0  0  0
  -22.0959  -35.0814   21.8830 O   0  0  0  0  0  0  0  0  0  0  0  0
  -24.6654  -22.1377   19.1649 O   0  0  0  0  0  0  0  0  0  0  0  0
  -19.7689  -32.0226   19.0992 O   0  0  0  0  0  0  0  0  0  0  0  0
  -28.4343  -16.6909   18.2859 O   0  0  0  0  0  0  0  0  0  0  0  0
  -21.3391   -7.5230   21.8053 O   0  0  0  0  0  0  0  0  0  0  0  0
  -24.2966  -27.0568   20.2220 O   0  0  0  0  0  0  0  0  0  1  0  0
  -22.5399   -2.3299   23.2170 F   0  0  0  0  0  0  0  0  0  0  0  0
  -20.6425   -6.5315   24.2902 F   0  0  0  0  0  0  0  0  0  0  0  0
  1  2  1  0  0  0  0
  1  5  2  0  0  0  0
  2  6  2  0  0  0  0
  3  8  2  0  0  0  0
  3 15  1  0  0  0  0
  4  9  1  0  0  0  0
  4 15  2  0  0  0  0
  5 17  1  0  0  0  0
  6 19  1  0  0  0  0
  7 10  2  0  0  0  0
  7 18  1  0  0  0  0
  8 21  1  0  0  0  0
  9 21  2  0  0  0  0
 10 22  1  0  0  0  0
 11 12  2  0  0  0  0
 11 23  1  0  0  0  0
 12 24  1  0  0  0  0
 13 20  1  0  0  0  0
 13 22  2  0  0  0  0
 14 24  2  0  0  0  0
 14 25  1  0  0  0  0
 15 26  1  0  0  0  0
 16 26  1  0  0  0  0
 16 27  2  0  0  0  0
 16 28  1  0  0  0  0
 17 19  2  0  0  0  0
 17 34  1  0  0  0  0
 18 20  2  0  0  0  0
 18 35  1  0  0  0  0
 19 45  1  0  0  0  0
 20 36  1  0  0  0  0
 21 77  1  0  0  0  0
 22 78  1  0  0  0  0
 23 25  2  0  0  0  0
 23 77  1  0  0  0  0
 24 79  1  0  0  0  0
 25 80  1  0  0  0  0
 26 59  2  0  0  0  0
 27 60  1  0  0  0  0
 27 64  1  0  0  0  0
 28 65  1  0  0  0  0
 28 71  2  0  0  0  0
 29 46  1  0  0  0  0
 29 66  1  0  0  0  0
 29 72  2  0  0  0  0
 30 56  1  0  0  0  0
 30 61  1  0  0  0  0
 30 73  2  0  0  0  0
 31 54  1  0  0  0  0
 31 67  1  0  0  0  0
 31 74  2  0  0  0  0
 32 57  1  0  0  0  0
 32 68  1  0  0  0  0
 32 75  2  0  0  0  0
 33 62  1  0  0  0  0
 33 63  1  0  0  0  0
 33 76  2  0  0  0  0
 34 37  1  0  0  0  0
 35 46  1  0  0  0  0
 36 61  1  0  0  0  0
 37 39  1  0  0  0  0
 38 40  1  0  0  0  0
 38 41  1  0  0  0  0
 39 45  1  0  0  0  0
 40 47  1  0  0  0  0
 41 62  1  0  0  0  0
 42 47  1  0  0  0  0
 42 62  1  0  0  0  0
 43 48  1  0  0  0  0
 43 63  1  0  0  0  0
 44 48  1  0  0  0  0
 44 63  1  0  0  0  0
 45 66  1  0  0  0  0
 46 61  1  0  0  0  0
 47 60  1  0  0  0  0
 48 67  1  0  0  0  0
 49 57  1  0  0  0  0
 50 58  1  0  0  0  0
 51 58  1  0  0  0  0
 52 58  1  0  0  0  0
 53 69  1  0  0  0  0
 54 70  1  0  0  0  0
 55 70  1  0  0  0  0
 55 78  1  0  0  0  0
 56 58  1  0  0  0  0
 56 68  1  0  0  0  0
 57 69  1  0  0  0  0
 59 60  1  0  0  0  0
M  CHG  2  69   1  70   1
M  ISO  4  33 100  55 101  63 100  78 101
M  END
> <Batch ID>
0193

> <Smiles>
CNC(C)C(=O)NC(C(=O)N1Cc2cc([101O:1][101CH2:1]NCC(=O)NC3C[100N:0]([100C:0](=O)N4CCCC(n5nc(-c6ccc(Oc7ccc(F)cc7F)cc6)c(C(N)=O)c5N)C4)C3)ccc2CC1C(=O)NC1CCCc2ccccc21)C(C)(C)C

> <Shape>
0.241

> <Color>
0.090

> <Negative vol penalty>
0.000

$$$$

  -OEChem-04052323323D

 86 95  0     1  0  0  0  0  0999 V2000
  -29.4007  -11.9111   20.3868 C   0  0  0  0  0  0  0  0  0  0  0  0
  -29.4756  -13.2696   20.0964 C   0  0  0  0  0  0  0  0  0  0  0  0
  -26.1674  -30.2485   21.3368 C   0  0  0  0  0  0  0  0  0  0  0  0
  -23.8602  -30.0172   22.0153 C   0  0  0  0  0  0  0  0  0  0  0  0
  -28.1635  -11.2684   20.3953 C   0  0  0  0  0  0  0  0  0  0  0  0
  -28.3132  -13.9860   19.8133 C   0  0  0  0  0  0  0  0  0  0  0  0
  -28.1506  -18.4480   22.2026 C   0  0  0  0  0  0  0  0  0  0  0  0
  -25.8322  -29.8226   20.0516 C   0  0  0  0  0  0  0  0  0  0  0  0
  -23.5249  -29.5913   20.7301 C   0  0  0  0  0  0  0  0  0  0  0  0
  -28.9120  -19.4855   21.6664 C   0  0  0  0  0  0  0  0  0  0  0  0
  -25.6457  -28.4517   16.6887 C   0  0  0  0  0  0  0  0  0  0  0  0
  -26.4752  -27.5108   16.0786 C   0  0  0  0  0  0  0  0  0  0  0  0
  -26.9339  -20.3901   20.6234 C   0  0  0  0  0  0  0  0  0  0  0  0
  -26.0278  -25.9540   17.8712 C   0  0  0  0  0  0  0  0  0  0  0  0
  -31.0596  -25.2281   18.0741 C   0  0  0  0  0  0  0  0  0  0  0  0
  -30.5430  -24.2408   17.2642 C   0  0  0  0  0  0  0  0  0  0  0  0
  -25.1814  -30.3458   22.3188 C   0  0  0  0  0  0  0  0  0  0  0  0
  -25.5363  -32.1076   24.1292 C   0  0  0  0  0  0  0  0  0  0  0  0
  -26.9844  -11.9794   20.1216 C   0  0  0  0  0  0  0  0  0  0  0  0
  -26.7748  -18.3675   21.9438 C   0  0  0  0  0  0  0  0  0  0  0  0
  -27.0592  -13.3519   19.8168 C   0  0  0  0  0  0  0  0  0  0  0  0
  -26.1568  -19.3520   21.1596 C   0  0  0  0  0  0  0  0  0  0  0  0
  -24.5109  -29.4941   19.7482 C   0  0  0  0  0  0  0  0  0  0  0  0
  -28.3042  -20.4552   20.8742 C   0  0  0  0  0  0  0  0  0  0  0  0
  -25.0073  -28.1438   17.8901 C   0  0  0  0  0  0  0  0  0  0  0  0
  -26.6663  -26.2620   16.6698 C   0  0  0  0  0  0  0  0  0  0  0  0
  -25.1983  -26.8949   18.4813 C   0  0  0  0  0  0  0  0  0  0  0  0
  -25.5272  -30.7851   23.6467 C   0  0  0  0  0  0  0  0  0  0  0  0
  -29.8438  -24.4203   19.8344 C   0  0  0  0  0  0  0  0  0  0  0  0
  -29.3265  -23.4335   19.0244 C   0  0  0  0  0  0  0  0  0  0  0  0
  -25.9322  -31.9924   25.4393 C   0  0  0  0  0  0  0  0  0  0  0  0
  -25.2154  -33.3308   23.4535 C   0  0  0  0  0  0  0  0  0  0  0  0
  -24.8826  -16.2575   20.5046 C   0  0  0  0  0  0  0  0  0  0  0  0
  -22.5313  -18.2117   21.5884 C   0  0  0  0  0  0  0  0  0  0  0  0
  -21.6022  -21.3270   22.6269 C   0  0  0  0  0  0  0  0  0  0  0  0
  -29.1142  -27.8527   28.3600 C   0  0  0  0  0  0  0  0  0  0  0  0
  -25.6750  -11.2313   20.0962 C   0  0  0  0  0  0  0  0  0  0  0  0
  -25.9626  -17.2570   22.5517 C   0  0  0  0  0  0  0  0  0  0  0  0
  -24.6793  -19.3223   20.8686 C   0  0  0  0  0  0  0  0  0  0  0  0
  -24.4517  -12.1426   20.1534 C   0  0  0  0  0  0  0  0  0  0  0  0
  -25.8596  -28.9848   29.1370 C   0  0  0  0  0  0  0  0  0  0  0  0
  -24.6035  -13.3022   19.1741 C   0  0  0  0  0  0  0  0  0  0  0  0
  -25.3837  -29.6692   27.8586 C   0  0  0  0  0  0  0  0  0  0  0  0
  -32.1498  -26.7224   26.5695 C   0  0  0  0  0  0  0  0  0  0  0  0
  -26.6885  -27.7493   28.8124 C   0  0  0  0  0  0  0  0  0  0  0  0
  -31.4437  -27.2051   27.8270 C   0  0  0  0  0  0  0  0  0  0  0  0
  -29.8434  -27.0063   26.0495 C   0  0  0  0  0  0  0  0  0  0  0  0
  -27.4387  -28.7448   26.6687 C   0  0  0  0  0  0  0  0  0  0  0  0
  -25.8181  -14.1685   19.5289 C   0  0  1  0  0  0  0  0  0  0  0  0
  -24.6630  -16.9867   21.7999 C   0  0  1  0  0  0  0  0  0  0  0  0
  -31.0173  -26.0651   25.7797 C   0  0  1  0  0  0  0  0  0  0  0  0
  -26.5740  -29.9928   26.9423 C   0  0  1  0  0  0  0  0  0  0  0  0
  -19.6048  -22.6275   23.4122 C   0  0  0  0  0  0  0  0  0  0  0  0
  -21.4986  -18.3527   18.7207 C   0  0  0  0  0  0  0  0  0  0  0  0
  -20.1446  -20.3526   19.3805 C   0  0  0  0  0  0  0  0  0  0  0  0
  -19.7159  -18.1462   20.4624 C   0  0  0  0  0  0  0  0  0  0  0  0
  -22.8617  -21.9055   25.2418 C   0  0  0  0  0  0  0  0  0  0  0  0
  -29.4569  -24.5292   21.2799 C   0  0  0  0  0  0  0  0  0  0  0  0
  -28.3582  -22.4276   19.5467 C   0  0  0  0  0  0  0  0  0  1  0  0
  -31.3324  -25.9020   24.3035 C   0  0  0  0  0  0  0  0  0  0  0  0
  -30.1626  -25.2820   23.5546 C   0  0  0  0  0  0  0  0  0  0  0  0
  -21.8163  -19.4262   21.0472 C   0  0  1  0  0  0  0  0  0  0  0  0
  -20.8033  -21.7906   23.8317 C   0  0  2  0  0  0  0  0  0  0  0  0
  -20.8221  -19.0692   19.9064 C   0  0  0  0  0  0  0  0  0  0  0  0
  -30.7193  -25.3355   19.3738 N   0  0  0  0  0  0  0  0  0  0  0  0
  -29.6671  -23.3258   17.7248 N   0  0  0  0  0  0  0  0  0  0  0  0
  -25.8888  -29.8952   24.5748 N   0  0  0  0  0  0  0  0  0  0  0  0
  -26.1289  -30.6598   25.6535 N   0  0  0  0  0  0  0  0  0  0  0  0
  -23.9292  -18.2129   21.4804 N   0  0  0  0  0  0  0  0  0  0  0  0
  -27.8036  -28.0623   27.9168 N   0  0  0  0  0  0  0  0  0  0  0  0
  -30.0714  -27.4844   27.4155 N   0  0  0  0  0  0  0  0  0  0  0  0
  -26.1279  -32.9019   26.4175 N   0  0  0  0  0  0  0  0  0  0  0  0
  -24.8268  -33.2690   22.1084 N   0  0  0  0  0  0  0  0  0  0  0  0
  -25.5114  -15.0353   20.6466 N   0  0  0  0  0  0  0  0  0  0  0  0
  -21.1985  -20.0813   22.1950 N   0  0  0  0  0  0  0  0  0  0  0  0
  -21.6577  -22.6126   24.7345 N   0  3  0  0  0  0  0  0  0  0  0  0
  -30.5354  -25.1031   22.1308 N   0  3  0  0  0  0  0  0  0  0  0  0
  -25.2875  -34.4471   24.0211 O   0  0  0  0  0  0  0  0  0  0  0  0
  -24.5081  -16.7656   19.4542 O   0  0  0  0  0  0  0  0  0  0  0  0
  -21.8742  -17.2988   22.0949 O   0  0  0  0  0  0  0  0  0  0  0  0
  -22.4925  -22.0039   22.1175 O   0  0  0  0  0  0  0  0  0  0  0  0
  -29.4105  -27.9487   29.5587 O   0  0  0  0  0  0  0  0  0  0  0  0
  -24.1834  -29.0787   18.4941 O   0  0  0  0  0  0  0  0  0  0  0  0
  -29.0503  -21.4755   20.3455 O   0  0  0  0  0  0  0  0  0  1  0  0
  -27.4617  -25.3580   16.0831 F   0  0  0  0  0  0  0  0  0  0  0  0
  -24.5867  -26.5930   19.6348 F   0  0  0  0  0  0  0  0  0  0  0  0
  1  2  1  0  0  0  0
  1  5  2  0  0  0  0
  2  6  2  0  0  0  0
  3  8  2  0  0  0  0
  3 17  1  0  0  0  0
  4  9  1  0  0  0  0
  4 17  2  0  0  0  0
  5 19  1  0  0  0  0
  6 21  1  0  0  0  0
  7 10  2  0  0  0  0
  7 20  1  0  0  0  0
  8 23  1  0  0  0  0
  9 23  2  0  0  0  0
 10 24  1  0  0  0  0
 11 12  2  0  0  0  0
 11 25  1  0  0  0  0
 12 26  1  0  0  0  0
 13 22  1  0  0  0  0
 13 24  2  0  0  0  0
 14 26  2  0  0  0  0
 14 27  1  0  0  0  0
 15 16  1  0  0  0  0
 15 65  2  0  0  0  0
 16 66  2  0  0  0  0
 17 28  1  0  0  0  0
 18 28  1  0  0  0  0
 18 31  2  0  0  0  0
 18 32  1  0  0  0  0
 19 21  2  0  0  0  0
 19 37  1  0  0  0  0
 20 22  2  0  0  0  0
 20 38  1  0  0  0  0
 21 49  1  0  0  0  0
 22 39  1  0  0  0  0
 23 83  1  0  0  0  0
 24 84  1  0  0  0  0
 25 27  2  0  0  0  0
 25 83  1  0  0  0  0
 26 85  1  0  0  0  0
 27 86  1  0  0  0  0
 28 67  2  0  0  0  0
 29 30  2  0  0  0  0
 29 58  1  0  0  0  0
 29 65  1  0  0  0  0
 30 59  1  0  0  0  0
 30 66  1  0  0  0  0
 31 68  1  0  0  0  0
 31 72  1  0  0  0  0
 32 73  1  0  0  0  0
 32 78  2  0  0  0  0
 33 50  1  0  0  0  0
 33 74  1  0  0  0  0
 33 79  2  0  0  0  0
 34 62  1  0  0  0  0
 34 69  1  0  0  0  0
 34 80  2  0  0  0  0
 35 63  1  0  0  0  0
 35 75  1  0  0  0  0
 35 81  2  0  0  0  0
 36 70  1  0  0  0  0
 36 71  1  0  0  0  0
 36 82  2  0  0  0  0
 37 40  1  0  0  0  0
 38 50  1  0  0  0  0
 39 69  1  0  0  0  0
 40 42  1  0  0  0  0
 41 43  1  0  0  0  0
 41 45  1  0  0  0  0
 42 49  1  0  0  0  0
 43 52  1  0  0  0  0
 44 46  1  0  0  0  0
 44 51  1  0  0  0  0
 45 70  1  0  0  0  0
 46 71  1  0  0  0  0
 47 51  1  0  0  0  0
 47 71  1  0  0  0  0
 48 52  1  0  0  0  0
 48 70  1  0  0  0  0
 49 74  1  0  0  0  0
 50 69  1  0  0  0  0
 51 60  1  0  0  0  0
 52 68  1  0  0  0  0
 53 63  1  0  0  0  0
 54 64  1  0  0  0  0
 55 64  1  0  0  0  0
 56 64  1  0  0  0  0
 57 76  1  0  0  0  0
 58 77  1  0  0  0  0
 59 84  1  0  0  0  0
 60 61  1  0  0  0  0
 61 77  1  0  0  0  0
 62 64  1  0  0  0  0
 62 75  1  0  0  0  0
 63 76  1  0  0  0  0
 67 68  1  0  0  0  0
M  CHG  2  76   1  77   1
M  ISO  4  36 100  59 101  71 100  84 101
M  END
> <Batch ID>
0193

> <Smiles>
CNC(C)C(=O)NC(C(=O)N1Cc2cc([101O:1][101CH2:1]c3nccnc3CNCCC3CC[100N:0]([100C:0](=O)N4CCCC(n5nc(-c6ccc(Oc7ccc(F)cc7F)cc6)c(C(N)=O)c5N)C4)C3)ccc2CC1C(=O)NC1CCCc2ccccc21)C(C)(C)C

> <Shape>
0.228

> <Color>
0.076

> <Negative vol penalty>
0.000

$$$$

  -OEChem-04052323323D

 86 95  0     1  0  0  0  0  0999 V2000
  -27.3288  -34.3157   18.9306 C   0  0  0  0  0  0  0  0  0  0  0  0
  -27.9373  -33.0790   18.7412 C   0  0  0  0  0  0  0  0  0  0  0  0
  -22.9499  -10.0201   19.9296 C   0  0  0  0  0  0  0  0  0  0  0  0
  -23.7711   -9.8529   22.1956 C   0  0  0  0  0  0  0  0  0  0  0  0
  -26.1671  -34.4097   19.6958 C   0  0  0  0  0  0  0  0  0  0  0  0
  -27.3850  -31.9358   19.3177 C   0  0  0  0  0  0  0  0  0  0  0  0
  -27.3499  -26.2790   16.9715 C   0  0  0  0  0  0  0  0  0  0  0  0
  -22.1612   -8.8875   20.1319 C   0  0  0  0  0  0  0  0  0  0  0  0
  -22.9824   -8.7204   22.3979 C   0  0  0  0  0  0  0  0  0  0  0  0
  -28.1571  -25.1649   17.1972 C   0  0  0  0  0  0  0  0  0  0  0  0
  -23.1062   -5.4293   21.6335 C   0  0  0  0  0  0  0  0  0  0  0  0
  -23.6935   -4.3358   22.2699 C   0  0  0  0  0  0  0  0  0  0  0  0
  -26.5421  -24.3228   18.7789 C   0  0  0  0  0  0  0  0  0  0  0  0
  -22.0486   -4.4789   24.0337 C   0  0  0  0  0  0  0  0  0  0  0  0
  -23.7549  -10.5028   20.9615 C   0  0  0  0  0  0  0  0  0  0  0  0
  -24.2082  -13.0131   20.9833 C   0  0  0  0  0  0  0  0  0  0  0  0
  -25.5948  -33.2657   20.2740 C   0  0  0  0  0  0  0  0  0  0  0  0
  -26.1359  -26.4290   17.6570 C   0  0  0  0  0  0  0  0  0  0  0  0
  -26.2152  -32.0149   20.0924 C   0  0  0  0  0  0  0  0  0  0  0  0
  -25.7201  -25.4384   18.5581 C   0  0  0  0  0  0  0  0  0  0  0  0
  -30.5022  -19.8446   19.5545 C   0  0  0  0  0  0  0  0  0  0  0  0
  -22.1774   -8.2377   21.3660 C   0  0  0  0  0  0  0  0  0  0  0  0
  -27.7546  -24.1880   18.1032 C   0  0  0  0  0  0  0  0  0  0  0  0
  -21.9901   -6.0477   22.1972 C   0  0  0  0  0  0  0  0  0  0  0  0
  -23.1647   -3.8606   23.4699 C   0  0  0  0  0  0  0  0  0  0  0  0
  -21.4613   -5.5724   23.3973 C   0  0  0  0  0  0  0  0  0  0  0  0
  -24.5702  -11.6723   20.7530 C   0  0  0  0  0  0  0  0  0  0  0  0
  -29.5312  -19.4319   20.4439 C   0  0  0  0  0  0  0  0  0  0  0  0
  -31.6661  -19.1031   19.5549 C   0  0  0  0  0  0  0  0  0  0  0  0
  -25.3232  -13.7348   20.6334 C   0  0  0  0  0  0  0  0  0  0  0  0
  -30.8543  -17.7362   21.1796 C   0  0  0  0  0  0  0  0  0  0  0  0
  -22.9744  -13.5575   21.4701 C   0  0  0  0  0  0  0  0  0  0  0  0
  -24.9640  -28.5600   19.7038 C   0  0  0  0  0  0  0  0  0  0  0  0
  -22.2451  -26.8269   19.3485 C   0  0  0  0  0  0  0  0  0  0  0  0
  -20.7946  -23.8457   18.5390 C   0  0  0  0  0  0  0  0  0  0  0  0
  -30.8508  -14.4986   20.7193 C   0  0  0  0  0  0  0  0  0  0  0  0
  -24.3647  -33.4239   21.1322 C   0  0  0  0  0  0  0  0  0  0  0  0
  -25.2639  -27.6234   17.3824 C   0  0  0  0  0  0  0  0  0  0  0  0
  -24.4160  -25.5422   19.3045 C   0  0  0  0  0  0  0  0  0  0  0  0
  -23.6342  -32.1102   21.3978 C   0  0  0  0  0  0  0  0  0  0  0  0
  -29.5414  -12.3173   18.2285 C   0  0  0  0  0  0  0  0  0  0  0  0
  -24.6232  -31.0218   21.8027 C   0  0  0  0  0  0  0  0  0  0  0  0
  -27.0133  -19.4341   21.0220 C   0  0  0  0  0  0  0  0  0  0  0  0
  -27.1255  -19.8013   19.5753 C   0  0  0  0  0  0  0  0  0  0  0  0
  -28.1043  -12.0610   18.6856 C   0  0  0  0  0  0  0  0  0  0  0  0
  -30.4998  -12.4236   19.4126 C   0  0  0  0  0  0  0  0  0  0  0  0
  -28.6716  -13.1509   20.8966 C   0  0  0  0  0  0  0  0  0  0  0  0
  -25.6325  -30.7483   20.6810 C   0  0  1  0  0  0  0  0  0  0  0  0
  -28.2312  -20.1659   20.5279 C   0  0  0  0  0  0  0  0  0  0  0  0
  -24.2918  -27.9273   18.5182 C   0  0  1  0  0  0  0  0  0  0  0  0
  -27.6590  -13.0919   19.7402 C   0  0  2  0  0  0  0  0  0  0  0  0
  -32.5321  -19.0100   17.2038 C   0  0  0  0  0  0  0  0  0  0  0  0
  -18.5558  -22.7233   18.3793 C   0  0  0  0  0  0  0  0  0  0  0  0
  -22.1579  -26.5738   22.3880 C   0  0  0  0  0  0  0  0  0  0  0  0
  -20.5122  -24.7068   22.1156 C   0  0  0  0  0  0  0  0  0  0  0  0
  -19.9404  -26.9982   21.3125 C   0  0  0  0  0  0  0  0  0  0  0  0
  -21.1192  -23.3523   15.6389 C   0  0  0  0  0  0  0  0  0  0  0  0
  -32.7923  -19.4566   18.6390 C   0  0  0  0  0  0  0  0  0  0  0  0
  -31.0482  -16.5642   22.0807 C   0  0  0  0  0  0  0  0  0  0  0  0
  -30.6799  -22.2855   19.0688 C   0  0  0  0  0  0  0  0  0  0  0  0
  -29.9493  -23.2746   18.1762 C   0  0  0  0  0  0  0  0  0  1  0  0
  -21.6431  -25.6283   20.0413 C   0  0  1  0  0  0  0  0  0  0  0  0
  -19.6238  -23.5081   17.6335 C   0  0  2  0  0  0  0  0  0  0  0  0
  -21.0889  -25.9755   21.4519 C   0  0  0  0  0  0  0  0  0  0  0  0
  -25.8176  -11.5469   20.2922 N   0  0  0  0  0  0  0  0  0  0  0  0
  -29.6742  -18.3781   21.2742 N   0  0  0  0  0  0  0  0  0  0  0  0
  -31.8768  -18.0390   20.3572 N   0  0  0  0  0  0  0  0  0  0  0  0
  -26.2491  -12.8181   20.2301 N   0  0  0  0  0  0  0  0  0  0  0  0
  -23.6014  -26.7318   19.0064 N   0  0  0  0  0  0  0  0  0  0  0  0
  -30.0210  -13.4189   20.3748 N   0  0  0  0  0  0  0  0  0  0  0  0
  -25.5921  -15.0577   20.6343 N   0  0  0  0  0  0  0  0  0  0  0  0
  -21.9315  -12.6746   21.7821 N   0  0  0  0  0  0  0  0  0  0  0  0
  -30.3226  -20.9310   18.7144 N   0  0  0  0  0  0  0  0  0  0  0  0
  -25.0288  -29.9390   19.6442 N   0  0  0  0  0  0  0  0  0  0  0  0
  -20.6464  -25.0851   19.1248 N   0  0  0  0  0  0  0  0  0  0  0  0
  -30.3177  -15.3994   21.6331 N   0  0  0  0  0  0  0  0  0  0  0  0
  -20.0838  -22.6917   16.4747 N   0  3  0  0  0  0  0  0  0  0  0  0
  -22.7962  -14.7915   21.6084 O   0  0  0  0  0  0  0  0  0  0  0  0
  -25.3909  -27.8497   20.6065 O   0  0  0  0  0  0  0  0  0  0  0  0
  -21.5361  -27.8085   19.1130 O   0  0  0  0  0  0  0  0  0  0  0  0
  -21.7437  -23.0844   18.7123 O   0  0  0  0  0  0  0  0  0  0  0  0
  -31.9809  -14.6516   20.2434 O   0  0  0  0  0  0  0  0  0  0  0  0
  -21.4078   -7.1327   21.5638 O   0  0  0  0  0  0  0  0  0  0  0  0
  -28.5409  -23.0999   18.3258 O   0  0  0  0  0  0  0  0  0  1  0  0
  -23.7278   -2.8096   24.0802 F   0  0  0  0  0  0  0  0  0  0  0  0
  -20.3885   -6.1616   23.9430 F   0  0  0  0  0  0  0  0  0  0  0  0
  1  2  1  0  0  0  0
  1  5  2  0  0  0  0
  2  6  2  0  0  0  0
  3  8  2  0  0  0  0
  3 15  1  0  0  0  0
  4  9  1  0  0  0  0
  4 15  2  0  0  0  0
  5 17  1  0  0  0  0
  6 19  1  0  0  0  0
  7 10  2  0  0  0  0
  7 18  1  0  0  0  0
  8 22  1  0  0  0  0
  9 22  2  0  0  0  0
 10 23  1  0  0  0  0
 11 12  2  0  0  0  0
 11 24  1  0  0  0  0
 12 25  1  0  0  0  0
 13 20  1  0  0  0  0
 13 23  2  0  0  0  0
 14 25  2  0  0  0  0
 14 26  1  0  0  0  0
 15 27  1  0  0  0  0
 16 27  1  0  0  0  0
 16 30  2  0  0  0  0
 16 32  1  0  0  0  0
 17 19  2  0  0  0  0
 17 37  1  0  0  0  0
 18 20  2  0  0  0  0
 18 38  1  0  0  0  0
 19 48  1  0  0  0  0
 20 39  1  0  0  0  0
 21 28  1  0  0  0  0
 21 29  2  0  0  0  0
 21 73  1  0  0  0  0
 22 83  1  0  0  0  0
 23 84  1  0  0  0  0
 24 26  2  0  0  0  0
 24 83  1  0  0  0  0
 25 85  1  0  0  0  0
 26 86  1  0  0  0  0
 27 65  2  0  0  0  0
 28 49  1  0  0  0  0
 28 66  2  0  0  0  0
 29 58  1  0  0  0  0
 29 67  1  0  0  0  0
 30 68  1  0  0  0  0
 30 71  1  0  0  0  0
 31 59  1  0  0  0  0
 31 66  1  0  0  0  0
 31 67  2  0  0  0  0
 32 72  1  0  0  0  0
 32 78  2  0  0  0  0
 33 50  1  0  0  0  0
 33 74  1  0  0  0  0
 33 79  2  0  0  0  0
 34 62  1  0  0  0  0
 34 69  1  0  0  0  0
 34 80  2  0  0  0  0
 35 63  1  0  0  0  0
 35 75  1  0  0  0  0
 35 81  2  0  0  0  0
 36 70  1  0  0  0  0
 36 76  1  0  0  0  0
 36 82  2  0  0  0  0
 37 40  1  0  0  0  0
 38 50  1  0  0  0  0
 39 69  1  0  0  0  0
 40 42  1  0  0  0  0
 41 45  1  0  0  0  0
 41 46  1  0  0  0  0
 42 48  1  0  0  0  0
 43 44  1  0  0  0  0
 43 49  1  0  0  0  0
 44 49  1  0  0  0  0
 45 51  1  0  0  0  0
 46 70  1  0  0  0  0
 47 51  1  0  0  0  0
 47 70  1  0  0  0  0
 48 74  1  0  0  0  0
 50 69  1  0  0  0  0
 51 68  1  0  0  0  0
 52 58  1  0  0  0  0
 53 63  1  0  0  0  0
 54 64  1  0  0  0  0
 55 64  1  0  0  0  0
 56 64  1  0  0  0  0
 57 77  1  0  0  0  0
 59 76  1  0  0  0  0
 60 61  1  0  0  0  0
 60 73  1  0  0  0  0
 61 84  1  0  0  0  0
 62 64  1  0  0  0  0
 62 75  1  0  0  0  0
 63 77  1  0  0  0  0
 65 68  1  0  0  0  0
M  CHG  1  77   1
M  ISO  4  36 100  61 101  76 100  84 101
M  END
> <Batch ID>
0193

> <Smiles>
CCc1nc(C[100NH:0][100C:0](=O)N2CCCC(n3nc(-c4ccc(Oc5ccc(F)cc5F)cc4)c(C(N)=O)c3N)C2)nc(C2CC2)c1NC[101CH2:1][101O:1]c1ccc2c(c1)CN(C(=O)C(NC(=O)C(C)NC)C(C)(C)C)C(C(=O)NC1CCCc3ccccc31)C2

> <Shape>
0.312

> <Color>
0.200

> <Negative vol penalty>
0.000

$$$$

  -OEChem-04052323323D

 86 95  0     1  0  0  0  0  0999 V2000
  -22.0812  -28.9955   17.4514 C   0  0  0  0  0  0  0  0  0  0  0  0
  -22.5465  -27.7188   17.7498 C   0  0  0  0  0  0  0  0  0  0  0  0
  -22.5941  -10.4123   20.2528 C   0  0  0  0  0  0  0  0  0  0  0  0
  -24.2373   -9.5696   21.8107 C   0  0  0  0  0  0  0  0  0  0  0  0
  -22.9491  -30.0849   17.5146 C   0  0  0  0  0  0  0  0  0  0  0  0
  -23.8802  -27.5307   18.1106 C   0  0  0  0  0  0  0  0  0  0  0  0
  -25.6275  -24.5974   24.4537 C   0  0  0  0  0  0  0  0  0  0  0  0
  -21.8110   -9.2777   20.4652 C   0  0  0  0  0  0  0  0  0  0  0  0
  -23.4541   -8.4351   22.0231 C   0  0  0  0  0  0  0  0  0  0  0  0
  -26.0391  -23.8509   25.5580 C   0  0  0  0  0  0  0  0  0  0  0  0
  -21.7729   -6.0529   19.4537 C   0  0  0  0  0  0  0  0  0  0  0  0
  -21.2279   -5.4237   18.3345 C   0  0  0  0  0  0  0  0  0  0  0  0
  -28.3527  -24.2256   24.9623 C   0  0  0  0  0  0  0  0  0  0  0  0
  -19.0057   -5.8029   19.2034 C   0  0  0  0  0  0  0  0  0  0  0  0
  -29.9285  -21.7654   27.5194 C   0  0  0  0  0  0  0  0  0  0  0  0
  -23.8074  -10.5582   20.9256 C   0  0  0  0  0  0  0  0  0  0  0  0
  -24.2554  -13.0695   20.9425 C   0  0  0  0  0  0  0  0  0  0  0  0
  -24.2918  -29.9113   17.8857 C   0  0  0  0  0  0  0  0  0  0  0  0
  -26.5782  -25.1744   23.6072 C   0  0  0  0  0  0  0  0  0  0  0  0
  -24.7671  -28.6186   18.1776 C   0  0  0  0  0  0  0  0  0  0  0  0
  -27.9464  -24.9848   23.8617 C   0  0  0  0  0  0  0  0  0  0  0  0
  -22.2409   -8.2892   21.3504 C   0  0  0  0  0  0  0  0  0  0  0  0
  -27.3984  -23.6653   25.8115 C   0  0  0  0  0  0  0  0  0  0  0  0
  -20.9343   -6.5570   20.4478 C   0  0  0  0  0  0  0  0  0  0  0  0
  -19.8443   -5.2987   18.2093 C   0  0  0  0  0  0  0  0  0  0  0  0
  -19.5507   -6.4321   20.3226 C   0  0  0  0  0  0  0  0  0  0  0  0
  -24.6171  -11.7296   20.7062 C   0  0  0  0  0  0  0  0  0  0  0  0
  -30.5924  -20.7435   26.8857 C   0  0  0  0  0  0  0  0  0  0  0  0
  -28.8008  -22.0065   26.7120 C   0  0  0  0  0  0  0  0  0  1  0  0
  -25.3637  -13.7938   20.5771 C   0  0  0  0  0  0  0  0  0  0  0  0
  -23.0275  -13.6109   21.4473 C   0  0  0  0  0  0  0  0  0  0  0  0
  -27.2420  -27.2714   20.5678 C   0  0  0  0  0  0  0  0  0  0  0  0
  -30.9122  -14.4967   20.6760 C   0  0  0  0  0  0  0  0  0  0  0  0
  -29.2965  -28.1016   22.6891 C   0  0  0  0  0  0  0  0  0  0  0  0
  -31.1080  -29.0165   25.4311 C   0  0  0  0  0  0  0  0  0  0  0  0
  -25.2037  -31.1126   17.8942 C   0  0  0  0  0  0  0  0  0  0  0  0
  -26.1803  -25.9348   22.3714 C   0  0  0  0  0  0  0  0  0  0  0  0
  -28.9334  -25.5951   22.9044 C   0  0  0  0  0  0  0  0  0  0  0  0
  -26.5103  -30.8801   18.6485 C   0  0  0  0  0  0  0  0  0  0  0  0
  -29.5444  -12.4094   18.1046 C   0  0  0  0  0  0  0  0  0  0  0  0
  -27.1296  -29.5458   18.2448 C   0  0  0  0  0  0  0  0  0  0  0  0
  -28.1211  -12.1319   18.5866 C   0  0  0  0  0  0  0  0  0  0  0  0
  -30.5219  -12.4988   19.2722 C   0  0  0  0  0  0  0  0  0  0  0  0
  -32.8261  -18.0866   24.0090 C   0  0  0  0  0  0  0  0  0  0  0  0
  -28.7128  -13.2241   20.7962 C   0  0  0  0  0  0  0  0  0  0  0  0
  -30.7869  -17.7259   22.7506 C   0  0  0  0  0  0  0  0  0  0  0  0
  -33.4950  -16.8979   23.3304 C   0  0  0  0  0  0  0  0  0  0  0  0
  -26.2010  -28.3775   18.5970 C   0  0  1  0  0  0  0  0  0  0  0  0
  -27.1245  -27.1085   22.0547 C   0  0  1  0  0  0  0  0  0  0  0  0
  -27.6880  -13.1567   19.6500 C   0  0  2  0  0  0  0  0  0  0  0  0
  -31.4030  -16.5244   22.0269 C   0  0  2  0  0  0  0  0  0  0  0  0
  -31.8410  -20.0393   27.2303 C   0  0  0  0  0  0  0  0  0  0  0  0
  -32.8969  -30.6154   26.1664 C   0  0  0  0  0  0  0  0  0  0  0  0
  -30.6248  -20.7984   22.7329 C   0  0  0  0  0  0  0  0  0  0  0  0
  -31.3979  -26.3860   21.2945 C   0  0  0  0  0  0  0  0  0  0  0  0
  -33.1240  -27.4080   22.7926 C   0  0  0  0  0  0  0  0  0  0  0  0
  -31.8373  -28.8466   21.2122 C   0  0  0  0  0  0  0  0  0  0  0  0
  -29.3160  -30.2927   27.4108 C   0  0  0  0  0  0  0  0  0  0  0  0
  -30.3685  -15.4556   21.7049 C   0  0  0  0  0  0  0  0  0  0  0  0
  -30.1363  -19.4345   24.7896 C   0  0  0  0  0  0  0  0  0  0  0  0
  -30.6807  -27.9062   23.2542 C   0  0  1  0  0  0  0  0  0  0  0  0
  -31.4005  -30.3772   26.0374 C   0  0  2  0  0  0  0  0  0  0  0  0
  -31.2129  -19.8624   23.7838 C   0  0  1  0  0  0  0  0  0  0  0  0
  -31.7374  -27.6233   22.1493 C   0  0  0  0  0  0  0  0  0  0  0  0
  -25.8580  -11.6073   20.2275 N   0  0  0  0  0  0  0  0  0  0  0  0
  -28.7478  -21.2025   25.6467 N   0  0  0  0  0  0  0  0  0  0  0  0
  -29.8507  -20.4461   25.7803 N   0  0  0  0  0  0  0  0  0  0  0  0
  -26.2857  -12.8795   20.1600 N   0  0  0  0  0  0  0  0  0  0  0  0
  -28.5060  -26.9554   22.5416 N   0  0  0  0  0  0  0  0  0  0  0  0
  -30.0637  -13.4661   20.2710 N   0  0  0  0  0  0  0  0  0  0  0  0
  -31.8191  -18.7014   23.1328 N   0  0  1  0  0  0  0  0  0  0  0  0
  -25.6297  -15.1173   20.5750 N   0  0  0  0  0  0  0  0  0  0  0  0
  -22.8903  -13.7778   22.8321 N   0  0  0  0  0  0  0  0  0  0  0  0
  -26.2723  -28.0842   20.0124 N   0  0  0  0  0  0  0  0  0  0  0  0
  -30.9624  -29.0880   24.0619 N   0  0  0  0  0  0  0  0  0  0  0  0
  -32.4473  -15.9191   22.9166 N   0  3  0  0  0  0  0  0  0  0  0  0
  -30.7892  -30.4827   27.3924 N   0  3  0  0  0  0  0  0  0  0  0  0
  -22.0739  -13.9217   20.6940 O   0  0  0  0  0  0  0  0  0  0  0  0
  -28.1466  -26.7031   19.9673 O   0  0  0  0  0  0  0  0  0  0  0  0
  -32.0560  -14.6619   20.2440 O   0  0  0  0  0  0  0  0  0  0  0  0
  -28.9258  -29.2377   22.3807 O   0  0  0  0  0  0  0  0  0  0  0  0
  -31.0213  -27.9920   26.1045 O   0  0  0  0  0  0  0  0  0  0  0  0
  -21.4769   -7.1821   21.5580 O   0  0  0  0  0  0  0  0  0  0  0  0
  -27.7933  -22.9391   26.8938 O   0  0  0  0  0  0  0  0  0  1  0  0
  -19.3210   -4.6959   17.1337 F   0  0  0  0  0  0  0  0  0  0  0  0
  -18.7399   -6.9155   21.2739 F   0  0  0  0  0  0  0  0  0  0  0  0
  1  2  1  0  0  0  0
  1  5  2  0  0  0  0
  2  6  2  0  0  0  0
  3  8  2  0  0  0  0
  3 16  1  0  0  0  0
  4  9  1  0  0  0  0
  4 16  2  0  0  0  0
  5 18  1  0  0  0  0
  6 20  1  0  0  0  0
  7 10  2  0  0  0  0
  7 19  1  0  0  0  0
  8 22  1  0  0  0  0
  9 22  2  0  0  0  0
 10 23  1  0  0  0  0
 11 12  2  0  0  0  0
 11 24  1  0  0  0  0
 12 25  1  0  0  0  0
 13 21  1  0  0  0  0
 13 23  2  0  0  0  0
 14 25  2  0  0  0  0
 14 26  1  0  0  0  0
 15 28  2  0  0  0  0
 15 29  1  0  0  0  0
 16 27  1  0  0  0  0
 17 27  1  0  0  0  0
 17 30  2  0  0  0  0
 17 31  1  0  0  0  0
 18 20  2  0  0  0  0
 18 36  1  0  0  0  0
 19 21  2  0  0  0  0
 19 37  1  0  0  0  0
 20 48  1  0  0  0  0
 21 38  1  0  0  0  0
 22 83  1  0  0  0  0
 23 84  1  0  0  0  0
 24 26  2  0  0  0  0
 24 83  1  0  0  0  0
 25 85  1  0  0  0  0
 26 86  1  0  0  0  0
 27 65  2  0  0  0  0
 28 52  1  0  0  0  0
 28 67  1  0  0  0  0
 29 66  2  0  0  0  0
 29 84  1  0  0  0  0
 30 68  1  0  0  0  0
 30 72  1  0  0  0  0
 31 73  1  0  0  0  0
 31 78  2  0  0  0  0
 32 49  1  0  0  0  0
 32 74  1  0  0  0  0
 32 79  2  0  0  0  0
 33 59  1  0  0  0  0
 33 70  1  0  0  0  0
 33 80  2  0  0  0  0
 34 61  1  0  0  0  0
 34 69  1  0  0  0  0
 34 81  2  0  0  0  0
 35 62  1  0  0  0  0
 35 75  1  0  0  0  0
 35 82  2  0  0  0  0
 36 39  1  0  0  0  0
 37 49  1  0  0  0  0
 38 69  1  0  0  0  0
 39 41  1  0  0  0  0
 40 42  1  0  0  0  0
 40 43  1  0  0  0  0
 41 48  1  0  0  0  0
 42 50  1  0  0  0  0
 43 70  1  0  0  0  0
 44 47  1  0  0  0  0
 44 71  1  0  0  0  0
 45 50  1  0  0  0  0
 45 70  1  0  0  0  0
 46 51  1  0  0  0  0
 46 71  1  0  0  0  0
 47 76  1  0  0  0  0
 48 74  1  0  0  0  0
 49 69  1  0  0  0  0
 50 68  1  0  0  0  0
 51 59  1  0  0  0  0
 51 76  1  0  0  0  0
 53 62  1  0  0  0  0
 54 63  1  0  0  0  0
 55 64  1  0  0  0  0
 56 64  1  0  0  0  0
 57 64  1  0  0  0  0
 58 77  1  0  0  0  0
 60 63  1  0  0  0  0
 60 67  1  0  0  0  0
 61 64  1  0  0  0  0
 61 75  1  0  0  0  0
 62 77  1  0  0  0  0
 63 71  1  0  0  0  0
 65 68  1  0  0  0  0
 66 67  1  0  0  0  0
M  CHG  2  76   1  77   1
M  ISO  4  29 101  33 100  59 100  84 101
M  END
> <Batch ID>
0193

> <Smiles>
CNC(C)C(=O)NC(C(=O)N1Cc2cc([101O:1][101c:1]3cc(C)n(CC(C)N4CCNC([100CH2:0][100C:0](=O)N5CCCC(n6nc(-c7ccc(Oc8ccc(F)cc8F)cc7)c(C(N)=O)c6N)C5)C4)n3)ccc2CC1C(=O)NC1CCCc2ccccc21)C(C)(C)C

> <Shape>
0.188

> <Color>
0.184

> <Negative vol penalty>
0.000

$$$$

  -OEChem-04052323323D

 85 94  0     1  0  0  0  0  0999 V2000
  -18.2326  -26.0541   22.4586 C   0  0  0  0  0  0  0  0  0  0  0  0
  -19.4936  -25.6232   22.0594 C   0  0  0  0  0  0  0  0  0  0  0  0
  -24.2991   -9.6193   21.0784 C   0  0  0  0  0  0  0  0  0  0  0  0
  -25.2903  -10.5188   23.0898 C   0  0  0  0  0  0  0  0  0  0  0  0
  -18.0316  -27.3887   22.8085 C   0  0  0  0  0  0  0  0  0  0  0  0
  -20.5544  -26.5269   22.0088 C   0  0  0  0  0  0  0  0  0  0  0  0
  -24.8014  -24.6528   24.0326 C   0  0  0  0  0  0  0  0  0  0  0  0
  -24.0872   -8.4027   21.7268 C   0  0  0  0  0  0  0  0  0  0  0  0
  -25.0783   -9.3021   23.7383 C   0  0  0  0  0  0  0  0  0  0  0  0
  -25.5360  -23.7581   23.2556 C   0  0  0  0  0  0  0  0  0  0  0  0
  -21.8763   -7.1080   23.9333 C   0  0  0  0  0  0  0  0  0  0  0  0
  -20.6335   -6.4955   23.7724 C   0  0  0  0  0  0  0  0  0  0  0  0
  -27.0490  -25.5364   22.6493 C   0  0  0  0  0  0  0  0  0  0  0  0
  -21.7114   -4.5631   22.8025 C   0  0  0  0  0  0  0  0  0  0  0  0
  -29.9036  -21.7959   20.9112 C   0  0  0  0  0  0  0  0  0  0  0  0
  -24.9007  -10.6774   21.7598 C   0  0  0  0  0  0  0  0  0  0  0  0
  -24.2410  -13.0320   21.0331 C   0  0  0  0  0  0  0  0  0  0  0  0
  -19.0927  -28.3071   22.7715 C   0  0  0  0  0  0  0  0  0  0  0  0
  -25.1793  -26.0006   24.1152 C   0  0  0  0  0  0  0  0  0  0  0  0
  -20.3672  -27.8753   22.3573 C   0  0  0  0  0  0  0  0  0  0  0  0
  -26.3190  -26.4456   23.4301 C   0  0  0  0  0  0  0  0  0  0  0  0
  -24.4768   -8.2441   23.0567 C   0  0  0  0  0  0  0  0  0  0  0  0
  -26.6583  -24.2005   22.5615 C   0  0  0  0  0  0  0  0  0  0  0  0
  -23.0367   -6.4480   23.5288 C   0  0  0  0  0  0  0  0  0  0  0  0
  -20.5511   -5.2231   23.2071 C   0  0  0  0  0  0  0  0  0  0  0  0
  -22.9543   -5.1756   22.9634 C   0  0  0  0  0  0  0  0  0  0  0  0
  -25.1204  -11.9342   21.0904 C   0  0  0  0  0  0  0  0  0  0  0  0
  -29.1516  -22.7782   20.3054 C   0  0  0  0  0  0  0  0  0  0  0  0
  -29.5512  -21.8258   18.2650 C   0  0  0  0  0  0  0  0  0  0  0  0
  -30.3038  -20.8439   18.8708 C   0  0  0  0  0  0  0  0  0  0  0  0
  -24.9103  -13.9695   20.2851 C   0  0  0  0  0  0  0  0  0  0  0  0
  -22.9358  -13.1902   21.6050 C   0  0  0  0  0  0  0  0  0  0  0  0
  -23.8202  -28.7638   23.3269 C   0  0  0  0  0  0  0  0  0  0  0  0
  -26.4285  -30.0180   24.7917 C   0  0  0  0  0  0  0  0  0  0  0  0
  -29.6669  -29.6118   25.7889 C   0  0  0  0  0  0  0  0  0  0  0  0
  -30.7626  -14.7165   19.3662 C   0  0  0  0  0  0  0  0  0  0  0  0
  -18.8162  -29.7498   23.1135 C   0  0  0  0  0  0  0  0  0  0  0  0
  -24.3918  -26.9472   24.9789 C   0  0  0  0  0  0  0  0  0  0  0  0
  -26.7785  -27.8781   23.5019 C   0  0  0  0  0  0  0  0  0  0  0  0
  -20.0781  -30.5622   23.3927 C   0  0  0  0  0  0  0  0  0  0  0  0
  -28.1684  -14.3568   16.8045 C   0  0  0  0  0  0  0  0  0  0  0  0
  -21.1321  -30.2959   22.3226 C   0  0  0  0  0  0  0  0  0  0  0  0
  -27.0131  -13.7752   17.6210 C   0  0  0  0  0  0  0  0  0  0  0  0
  -29.5100  -13.8485   17.3185 C   0  0  0  0  0  0  0  0  0  0  0  0
  -28.6064  -13.5304   19.5858 C   0  0  0  0  0  0  0  0  0  0  0  0
  -32.6368  -16.4246   19.0962 C   0  0  0  0  0  0  0  0  0  0  0  0
  -31.1923  -16.5278   17.5282 C   0  0  0  0  0  0  0  0  0  0  0  0
  -21.5485  -28.8201   22.3135 C   0  0  1  0  0  0  0  0  0  0  0  0
  -24.5697  -28.4089   24.5798 C   0  0  1  0  0  0  0  0  0  0  0  0
  -27.2182  -14.0151   19.1282 C   0  0  2  0  0  0  0  0  0  0  0  0
  -32.1336  -17.5475   18.1828 C   0  0  0  0  0  0  0  0  0  0  0  0
  -27.9658  -21.3455   16.3829 C   0  0  0  0  0  0  0  0  0  0  0  0
  -31.5442  -30.8259   26.9287 C   0  0  0  0  0  0  0  0  0  0  0  0
  -26.9258  -31.6306   22.2496 C   0  0  0  0  0  0  0  0  0  0  0  0
  -29.2535  -32.0641   23.0632 C   0  0  0  0  0  0  0  0  0  0  0  0
  -27.3008  -32.8928   24.3758 C   0  0  0  0  0  0  0  0  0  0  0  0
  -29.7770  -27.6245   27.9792 C   0  0  0  0  0  0  0  0  0  0  0  0
  -29.3487  -21.8498   16.7885 C   0  0  0  0  0  0  0  0  0  0  0  0
  -30.9549  -19.7530   18.0728 C   0  0  0  0  0  0  0  0  0  0  0  0
  -28.5155  -23.8513   21.1176 C   0  0  0  0  0  0  0  0  0  1  0  0
  -27.8151  -30.4176   24.3481 C   0  0  1  0  0  0  0  0  0  0  0  0
  -30.3566  -29.8938   27.1115 C   0  0  2  0  0  0  0  0  0  0  0  0
  -27.8143  -31.7246   23.5061 C   0  0  0  0  0  0  0  0  0  0  0  0
  -30.4933  -20.8111   20.2048 N   0  0  0  0  0  0  0  0  0  0  0  0
  -26.2613  -12.1526   20.4311 N   0  0  0  0  0  0  0  0  0  0  0  0
  -28.9618  -22.8108   18.9714 N   0  0  0  0  0  0  0  0  0  0  0  0
  -26.1034  -13.3984   19.9524 N   0  0  0  0  0  0  0  0  0  0  0  0
  -25.9717  -28.7666   24.3546 N   0  0  0  0  0  0  0  0  0  0  0  0
  -29.6578  -14.1215   18.7514 N   0  0  0  0  0  0  0  0  0  0  0  0
  -31.4785  -15.6515   18.6548 N   0  0  0  0  0  0  0  0  0  0  0  0
  -24.5888  -15.2184   19.8859 N   0  0  0  0  0  0  0  0  0  0  0  0
  -22.3971  -12.1283   22.3444 N   0  0  0  0  0  0  0  0  0  0  0  0
  -22.4581  -28.5449   23.4050 N   0  0  0  0  0  0  0  0  0  0  0  0
  -28.6267  -30.4870   25.5585 N   0  0  0  0  0  0  0  0  0  0  0  0
  -31.4157  -18.6065   18.9146 N   0  3  0  0  0  0  0  0  0  0  0  0
  -30.8446  -28.6250   27.7221 N   0  3  0  0  0  0  0  0  0  0  0  0
  -22.2602  -14.2358   21.4507 O   0  0  0  0  0  0  0  0  0  0  0  0
  -24.4322  -29.2050   22.3612 O   0  0  0  0  0  0  0  0  0  0  0  0
  -25.7776  -30.7848   25.5059 O   0  0  0  0  0  0  0  0  0  0  0  0
  -30.0184  -28.7080   25.0338 O   0  0  0  0  0  0  0  0  0  0  0  0
  -31.0843  -14.4469   20.5311 O   0  0  0  0  0  0  0  0  0  0  0  0
  -24.2699   -7.0571   23.6899 O   0  0  0  0  0  0  0  0  0  0  0  0
  -27.3815  -23.3238   21.7969 O   0  0  0  0  0  0  0  0  0  1  0  0
  -19.3577   -4.6344   23.0541 F   0  0  0  0  0  0  0  0  0  0  0  0
  -24.0657   -4.5361   22.5739 F   0  0  0  0  0  0  0  0  0  0  0  0
  1  2  1  0  0  0  0
  1  5  2  0  0  0  0
  2  6  2  0  0  0  0
  3  8  2  0  0  0  0
  3 16  1  0  0  0  0
  4  9  1  0  0  0  0
  4 16  2  0  0  0  0
  5 18  1  0  0  0  0
  6 20  1  0  0  0  0
  7 10  2  0  0  0  0
  7 19  1  0  0  0  0
  8 22  1  0  0  0  0
  9 22  2  0  0  0  0
 10 23  1  0  0  0  0
 11 12  2  0  0  0  0
 11 24  1  0  0  0  0
 12 25  1  0  0  0  0
 13 21  1  0  0  0  0
 13 23  2  0  0  0  0
 14 25  2  0  0  0  0
 14 26  1  0  0  0  0
 15 28  1  0  0  0  0
 15 64  2  0  0  0  0
 16 27  1  0  0  0  0
 17 27  1  0  0  0  0
 17 31  2  0  0  0  0
 17 32  1  0  0  0  0
 18 20  2  0  0  0  0
 18 37  1  0  0  0  0
 19 21  2  0  0  0  0
 19 38  1  0  0  0  0
 20 48  1  0  0  0  0
 21 39  1  0  0  0  0
 22 82  1  0  0  0  0
 23 83  1  0  0  0  0
 24 26  2  0  0  0  0
 24 82  1  0  0  0  0
 25 84  1  0  0  0  0
 26 85  1  0  0  0  0
 27 65  2  0  0  0  0
 28 60  1  0  0  0  0
 28 66  2  0  0  0  0
 29 30  2  0  0  0  0
 29 58  1  0  0  0  0
 29 66  1  0  0  0  0
 30 59  1  0  0  0  0
 30 64  1  0  0  0  0
 31 67  1  0  0  0  0
 31 71  1  0  0  0  0
 32 72  1  0  0  0  0
 32 77  2  0  0  0  0
 33 49  1  0  0  0  0
 33 73  1  0  0  0  0
 33 78  2  0  0  0  0
 34 61  1  0  0  0  0
 34 68  1  0  0  0  0
 34 79  2  0  0  0  0
 35 62  1  0  0  0  0
 35 74  1  0  0  0  0
 35 80  2  0  0  0  0
 36 69  1  0  0  0  0
 36 70  1  0  0  0  0
 36 81  2  0  0  0  0
 37 40  1  0  0  0  0
 38 49  1  0  0  0  0
 39 68  1  0  0  0  0
 40 42  1  0  0  0  0
 41 43  1  0  0  0  0
 41 44  1  0  0  0  0
 42 48  1  0  0  0  0
 43 50  1  0  0  0  0
 44 69  1  0  0  0  0
 45 50  1  0  0  0  0
 45 69  1  0  0  0  0
 46 51  1  0  0  0  0
 46 70  1  0  0  0  0
 47 51  1  0  0  0  0
 47 70  1  0  0  0  0
 48 73  1  0  0  0  0
 49 68  1  0  0  0  0
 50 67  1  0  0  0  0
 51 75  1  0  0  0  0
 52 58  1  0  0  0  0
 53 62  1  0  0  0  0
 54 63  1  0  0  0  0
 55 63  1  0  0  0  0
 56 63  1  0  0  0  0
 57 76  1  0  0  0  0
 59 75  1  0  0  0  0
 60 83  1  0  0  0  0
 61 63  1  0  0  0  0
 61 74  1  0  0  0  0
 62 76  1  0  0  0  0
 65 67  1  0  0  0  0
M  CHG  2  75   1  76   1
M  ISO  4  36 100  60 101  70 100  83 101
M  END
> <Batch ID>
0193

> <Smiles>
CCc1nc([101CH2:1][101O:1]c2ccc3c(c2)CN(C(=O)C(NC(=O)C(C)NC)C(C)(C)C)C(C(=O)NC2CCCc4ccccc42)C3)cnc1CNC1C[100N:0]([100C:0](=O)N2CCCC(n3nc(-c4ccc(Oc5ccc(F)cc5F)cc4)c(C(N)=O)c3N)C2)C1

> <Shape>
0.285

> <Color>
0.124

> <Negative vol penalty>
0.000

$$$$

  -OEChem-04052323323D

 83 92  0     1  0  0  0  0  0999 V2000
  -17.9512  -29.8888   16.5691 C   0  0  0  0  0  0  0  0  0  0  0  0
  -19.1148  -29.1351   16.6844 C   0  0  0  0  0  0  0  0  0  0  0  0
  -22.7618  -10.8354   20.3703 C   0  0  0  0  0  0  0  0  0  0  0  0
  -24.1276   -9.0544   19.4759 C   0  0  0  0  0  0  0  0  0  0  0  0
  -17.9812  -31.2589   16.8252 C   0  0  0  0  0  0  0  0  0  0  0  0
  -20.3095  -29.7514   17.0550 C   0  0  0  0  0  0  0  0  0  0  0  0
  -24.7882  -27.3459   20.4698 C   0  0  0  0  0  0  0  0  0  0  0  0
  -21.6643  -10.3513   19.6584 C   0  0  0  0  0  0  0  0  0  0  0  0
  -23.0301   -8.5703   18.7640 C   0  0  0  0  0  0  0  0  0  0  0  0
  -26.0024  -26.7466   20.1374 C   0  0  0  0  0  0  0  0  0  0  0  0
  -18.4130   -9.3732   18.3595 C   0  0  0  0  0  0  0  0  0  0  0  0
  -17.1924   -9.2870   19.0291 C   0  0  0  0  0  0  0  0  0  0  0  0
  -27.1273  -28.8542   20.4715 C   0  0  0  0  0  0  0  0  0  0  0  0
  -18.1787   -7.7719   20.6319 C   0  0  0  0  0  0  0  0  0  0  0  0
  -23.9934  -10.1870   20.2790 C   0  0  0  0  0  0  0  0  0  0  0  0
  -25.5190  -10.3315   22.3185 C   0  0  0  0  0  0  0  0  0  0  0  0
  -19.1748  -31.8906   17.2085 C   0  0  0  0  0  0  0  0  0  0  0  0
  -24.7328  -28.7087   20.7955 C   0  0  0  0  0  0  0  0  0  0  0  0
  -20.3558  -31.1315   17.3152 C   0  0  0  0  0  0  0  0  0  0  0  0
  -25.9116  -29.4679   20.8101 C   0  0  0  0  0  0  0  0  0  0  0  0
  -21.7985   -9.2187   18.8553 C   0  0  0  0  0  0  0  0  0  0  0  0
  -27.1717  -27.5014   20.1354 C   0  0  0  0  0  0  0  0  0  0  0  0
  -19.5164   -8.6587   18.8260 C   0  0  0  0  0  0  0  0  0  0  0  0
  -17.0752   -8.4864   20.1653 C   0  0  0  0  0  0  0  0  0  0  0  0
  -19.3992   -7.8581   19.9622 C   0  0  0  0  0  0  0  0  0  0  0  0
  -25.1276  -10.6869   21.0138 C   0  0  0  0  0  0  0  0  0  0  0  0
  -26.6478  -11.0779   22.5536 C   0  0  0  0  0  0  0  0  0  0  0  0
  -24.9162   -9.4092   23.2358 C   0  0  0  0  0  0  0  0  0  0  0  0
  -23.2953  -31.2558   19.5506 C   0  0  0  0  0  0  0  0  0  0  0  0
  -24.4610  -32.7232   22.1983 C   0  0  0  0  0  0  0  0  0  0  0  0
  -26.7917  -32.7793   24.6906 C   0  0  0  0  0  0  0  0  0  0  0  0
  -28.3709  -16.2470   19.9409 C   0  0  0  0  0  0  0  0  0  0  0  0
  -19.1682  -33.3826   17.4290 C   0  0  0  0  0  0  0  0  0  0  0  0
  -23.4193  -29.3341   21.1777 C   0  0  0  0  0  0  0  0  0  0  0  0
  -25.9089  -30.9299   21.1721 C   0  0  0  0  0  0  0  0  0  0  0  0
  -20.3950  -33.8927   18.1807 C   0  0  0  0  0  0  0  0  0  0  0  0
  -30.3332  -13.1194   20.2917 C   0  0  0  0  0  0  0  0  0  0  0  0
  -21.6679  -33.2865   17.5986 C   0  0  0  0  0  0  0  0  0  0  0  0
  -29.2291  -12.1045   20.5917 C   0  0  0  0  0  0  0  0  0  0  0  0
  -31.2698  -18.2302   21.0250 C   0  0  0  0  0  0  0  0  0  0  0  0
  -31.1554  -21.7867   18.3291 C   0  0  0  0  0  0  0  0  0  0  0  0
  -29.8148  -14.2412   19.4013 C   0  0  0  0  0  0  0  0  0  0  0  0
  -30.7750  -16.8527   20.5948 C   0  0  0  0  0  0  0  0  0  0  0  0
  -30.9887  -23.2839   18.0657 C   0  0  0  0  0  0  0  0  0  0  0  0
  -27.5179  -13.9512   20.2481 C   0  0  0  0  0  0  0  0  0  0  0  0
  -29.2970  -18.5362   19.7226 C   0  0  0  0  0  0  0  0  0  0  0  0
  -29.7525  -22.8074   19.9915 C   0  0  0  0  0  0  0  0  0  0  0  0
  -21.6659  -31.7594   17.7389 C   0  0  1  0  0  0  0  0  0  0  0  0
  -23.4021  -30.8483   20.9929 C   0  0  1  0  0  0  0  0  0  0  0  0
  -27.9754  -12.7965   21.1570 C   0  0  1  0  0  0  0  0  0  0  0  0
  -30.6792  -19.1229   19.9438 C   0  0  1  0  0  0  0  0  0  0  0  0
  -30.0958  -21.4667   19.3737 C   0  0  2  0  0  0  0  0  0  0  0  0
  -27.5125  -34.1228   26.6838 C   0  0  0  0  0  0  0  0  0  0  0  0
  -25.7161  -34.7961   20.3442 C   0  0  0  0  0  0  0  0  0  0  0  0
  -27.1655  -35.5228   22.2519 C   0  0  0  0  0  0  0  0  0  0  0  0
  -24.6860  -35.7397   22.4185 C   0  0  0  0  0  0  0  0  0  0  0  0
  -26.3092  -30.5164   26.5359 C   0  0  0  0  0  0  0  0  0  0  0  0
  -29.7419  -25.0787   19.1296 C   0  0  0  0  0  0  0  0  0  0  0  0
  -28.3335  -25.5317   19.4825 C   0  0  0  0  0  0  0  0  0  1  0  0
  -25.7407  -33.4454   22.5444 C   0  0  1  0  0  0  0  0  0  0  0  0
  -26.6576  -32.9656   26.1912 C   0  0  2  0  0  0  0  0  0  0  0  0
  -25.8272  -34.8489   21.8810 C   0  0  0  0  0  0  0  0  0  0  0  0
  -25.9415  -11.5890   20.4590 N   0  0  0  0  0  0  0  0  0  0  0  0
  -26.8556  -11.8068   21.4198 N   0  0  0  0  0  0  0  0  0  0  0  0
  -24.5989  -31.4971   21.5324 N   0  0  0  0  0  0  0  0  0  0  0  0
  -28.6255  -14.8714   19.9813 N   0  0  0  0  0  0  0  0  0  0  0  0
  -29.4670  -17.1075   19.9821 N   0  0  0  0  0  0  0  0  0  0  0  0
  -29.7777  -23.6617   18.8017 N   0  0  1  0  0  0  0  0  0  0  0  0
  -27.4728  -11.1753   23.6177 N   0  0  0  0  0  0  0  0  0  0  0  0
  -23.7605   -8.7259   22.8336 N   0  0  0  0  0  0  0  0  0  0  0  0
  -21.9964  -31.3760   19.0947 N   0  0  0  0  0  0  0  0  0  0  0  0
  -25.8158  -33.4675   24.0012 N   0  0  0  0  0  0  0  0  0  0  0  0
  -30.6060  -20.5249   20.3866 N   0  3  0  0  0  0  0  0  0  0  0  0
  -27.0827  -31.7293   26.9067 N   0  3  0  0  0  0  0  0  0  0  0  0
  -25.3790   -9.2094   24.3845 O   0  0  0  0  0  0  0  0  0  0  0  0
  -24.3157  -31.4485   18.9000 O   0  0  0  0  0  0  0  0  0  0  0  0
  -23.3792  -33.2249   22.5137 O   0  0  0  0  0  0  0  0  0  0  0  0
  -27.6762  -32.0950   24.1808 O   0  0  0  0  0  0  0  0  0  0  0  0
  -27.2142  -16.6880   19.9184 O   0  0  0  0  0  0  0  0  0  0  0  0
  -20.7277   -8.7460   18.1606 O   0  0  0  0  0  0  0  0  0  0  0  0
  -28.3665  -26.9149   19.8084 O   0  0  0  0  0  0  0  0  0  1  0  0
  -15.9035   -8.4049   20.8091 F   0  0  0  0  0  0  0  0  0  0  0  0
  -20.4561   -7.1703   20.4159 F   0  0  0  0  0  0  0  0  0  0  0  0
  1  2  1  0  0  0  0
  1  5  2  0  0  0  0
  2  6  2  0  0  0  0
  3  8  2  0  0  0  0
  3 15  1  0  0  0  0
  4  9  1  0  0  0  0
  4 15  2  0  0  0  0
  5 17  1  0  0  0  0
  6 19  1  0  0  0  0
  7 10  2  0  0  0  0
  7 18  1  0  0  0  0
  8 21  1  0  0  0  0
  9 21  2  0  0  0  0
 10 22  1  0  0  0  0
 11 12  2  0  0  0  0
 11 23  1  0  0  0  0
 12 24  1  0  0  0  0
 13 20  1  0  0  0  0
 13 22  2  0  0  0  0
 14 24  2  0  0  0  0
 14 25  1  0  0  0  0
 15 26  1  0  0  0  0
 16 26  1  0  0  0  0
 16 27  2  0  0  0  0
 16 28  1  0  0  0  0
 17 19  2  0  0  0  0
 17 33  1  0  0  0  0
 18 20  2  0  0  0  0
 18 34  1  0  0  0  0
 19 48  1  0  0  0  0
 20 35  1  0  0  0  0
 21 80  1  0  0  0  0
 22 81  1  0  0  0  0
 23 25  2  0  0  0  0
 23 80  1  0  0  0  0
 24 82  1  0  0  0  0
 25 83  1  0  0  0  0
 26 63  2  0  0  0  0
 27 64  1  0  0  0  0
 27 69  1  0  0  0  0
 28 70  1  0  0  0  0
 28 75  2  0  0  0  0
 29 49  1  0  0  0  0
 29 71  1  0  0  0  0
 29 76  2  0  0  0  0
 30 60  1  0  0  0  0
 30 65  1  0  0  0  0
 30 77  2  0  0  0  0
 31 61  1  0  0  0  0
 31 72  1  0  0  0  0
 31 78  2  0  0  0  0
 32 66  1  0  0  0  0
 32 67  1  0  0  0  0
 32 79  2  0  0  0  0
 33 36  1  0  0  0  0
 34 49  1  0  0  0  0
 35 65  1  0  0  0  0
 36 38  1  0  0  0  0
 37 39  1  0  0  0  0
 37 42  1  0  0  0  0
 38 48  1  0  0  0  0
 39 50  1  0  0  0  0
 40 43  1  0  0  0  0
 40 51  1  0  0  0  0
 41 44  1  0  0  0  0
 41 52  1  0  0  0  0
 42 66  1  0  0  0  0
 43 67  1  0  0  0  0
 44 68  1  0  0  0  0
 45 50  1  0  0  0  0
 45 66  1  0  0  0  0
 46 51  1  0  0  0  0
 46 67  1  0  0  0  0
 47 52  1  0  0  0  0
 47 68  1  0  0  0  0
 48 71  1  0  0  0  0
 49 65  1  0  0  0  0
 50 64  1  0  0  0  0
 51 73  1  0  0  0  0
 52 73  1  0  0  0  0
 53 61  1  0  0  0  0
 54 62  1  0  0  0  0
 55 62  1  0  0  0  0
 56 62  1  0  0  0  0
 57 74  1  0  0  0  0
 58 59  1  0  0  0  0
 58 68  1  0  0  0  0
 59 81  1  0  0  0  0
 60 62  1  0  0  0  0
 60 72  1  0  0  0  0
 61 74  1  0  0  0  0
 63 64  1  0  0  0  0
M  CHG  2  73   1  74   1
M  ISO  4  32 100  59 101  67 100  81 101
M  END
> <Batch ID>
0193

> <Smiles>
CNC(C)C(=O)NC(C(=O)N1Cc2cc([101O:1][101CH2:1]CN3CCC(NC4CC[100N:0]([100C:0](=O)N5CCCC(n6nc(-c7ccc(Oc8ccc(F)cc8F)cc7)c(C(N)=O)c6N)C5)C4)C3)ccc2CC1C(=O)NC1CCCc2ccccc21)C(C)(C)C

> <Shape>
0.274

> <Color>
0.096

> <Negative vol penalty>
0.000

$$$$

  -OEChem-04052323323D

 83 92  0     1  0  0  0  0  0999 V2000
  -25.6505  -11.2956   21.1228 C   0  0  0  0  0  0  0  0  0  0  0  0
  -26.0827  -12.5518   21.5358 C   0  0  0  0  0  0  0  0  0  0  0  0
  -26.1190  -27.5891   18.8911 C   0  0  0  0  0  0  0  0  0  0  0  0
  -26.2514  -26.9013   21.2033 C   0  0  0  0  0  0  0  0  0  0  0  0
  -24.4983  -11.1763   20.3469 C   0  0  0  0  0  0  0  0  0  0  0  0
  -25.3633  -13.6897   21.1723 C   0  0  0  0  0  0  0  0  0  0  0  0
  -24.7264  -16.9018   25.0351 C   0  0  0  0  0  0  0  0  0  0  0  0
  -25.4613  -28.7573   19.2761 C   0  0  0  0  0  0  0  0  0  0  0  0
  -25.5937  -28.0696   21.5884 C   0  0  0  0  0  0  0  0  0  0  0  0
  -25.8115  -17.7066   25.3795 C   0  0  0  0  0  0  0  0  0  0  0  0
  -24.2701  -31.0406   23.2130 C   0  0  0  0  0  0  0  0  0  0  0  0
  -24.7794  -31.7424   24.3056 C   0  0  0  0  0  0  0  0  0  0  0  0
  -24.8236  -19.5455   24.1705 C   0  0  0  0  0  0  0  0  0  0  0  0
  -26.8774  -32.0306   23.1425 C   0  0  0  0  0  0  0  0  0  0  0  0
  -30.3275  -19.1029   24.9326 C   0  0  0  0  0  0  0  0  0  0  0  0
  -26.5140  -26.6610   19.8546 C   0  0  0  0  0  0  0  0  0  0  0  0
  -28.5813  -25.2646   19.3219 C   0  0  0  0  0  0  0  0  0  0  0  0
  -23.7590  -12.3125   19.9818 C   0  0  0  0  0  0  0  0  0  0  0  0
  -23.6852  -17.4105   24.2454 C   0  0  0  0  0  0  0  0  0  0  0  0
  -24.2008  -13.5856   20.3897 C   0  0  0  0  0  0  0  0  0  0  0  0
  -23.7251  -18.7459   23.8196 C   0  0  0  0  0  0  0  0  0  0  0  0
  -25.1987  -28.9975   20.6248 C   0  0  0  0  0  0  0  0  0  0  0  0
  -25.8616  -19.0279   24.9448 C   0  0  0  0  0  0  0  0  0  0  0  0
  -25.0645  -30.8337   22.0852 C   0  0  0  0  0  0  0  0  0  0  0  0
  -26.0830  -32.2374   24.2703 C   0  0  0  0  0  0  0  0  0  0  0  0
  -26.3681  -31.3288   22.0499 C   0  0  0  0  0  0  0  0  0  0  0  0
  -27.1930  -25.4538   19.4574 C   0  0  0  0  0  0  0  0  0  0  0  0
  -28.7125  -23.9560   18.9260 C   0  0  0  0  0  0  0  0  0  0  0  0
  -30.7160  -18.4203   22.9986 C   0  0  0  0  0  0  0  0  0  0  0  0
  -29.6564  -26.1891   19.5349 C   0  0  0  0  0  0  0  0  0  0  0  0
  -22.4839  -16.7011   21.3893 C   0  0  0  0  0  0  0  0  0  0  0  0
  -20.2624  -18.9197   22.2048 C   0  0  0  0  0  0  0  0  0  0  0  0
  -19.4522  -21.6569   24.0750 C   0  0  0  0  0  0  0  0  0  0  0  0
  -27.3433  -18.5704   19.3748 C   0  0  0  0  0  0  0  0  0  0  0  0
  -22.5463  -12.1378   19.1024 C   0  0  0  0  0  0  0  0  0  0  0  0
  -22.5088  -16.5372   23.9050 C   0  0  0  0  0  0  0  0  0  0  0  0
  -22.6230  -19.3459   22.9868 C   0  0  0  0  0  0  0  0  0  0  0  0
  -21.6328  -13.3605   19.0746 C   0  0  0  0  0  0  0  0  0  0  0  0
  -25.2381  -20.6194   17.3794 C   0  0  0  0  0  0  0  0  0  0  0  0
  -22.4504  -14.6333   18.8783 C   0  0  0  0  0  0  0  0  0  0  0  0
  -25.6707  -22.0438   17.7313 C   0  0  0  0  0  0  0  0  0  0  0  0
  -31.4018  -16.8036   19.6734 C   0  0  0  0  0  0  0  0  0  0  0  0
  -30.0863  -16.9886   18.8869 C   0  0  0  0  0  0  0  0  0  0  0  0
  -25.2823  -19.6992   18.5974 C   0  0  0  0  0  0  0  0  0  0  0  0
  -27.0027  -21.1017   19.6649 C   0  0  0  0  0  0  0  0  0  0  0  0
  -23.4337  -14.8414   20.0364 C   0  0  1  0  0  0  0  0  0  0  0  0
  -21.7536  -17.0084   22.6660 C   0  0  1  0  0  0  0  0  0  0  0  0
  -27.0295  -22.0546   18.4574 C   0  0  2  0  0  0  0  0  0  0  0  0
  -30.9197  -17.9437   20.5965 C   0  0  1  0  0  0  0  0  0  0  0  0
  -29.4747  -17.5655   20.1867 C   0  0  1  0  0  0  0  0  0  0  0  0
  -17.5762  -23.2694   24.4970 C   0  0  0  0  0  0  0  0  0  0  0  0
  -20.8825  -20.3269   19.5694 C   0  0  0  0  0  0  0  0  0  0  0  0
  -19.7268  -22.3600   20.4634 C   0  0  0  0  0  0  0  0  0  0  0  0
  -18.4534  -20.2368   20.1576 C   0  0  0  0  0  0  0  0  0  0  0  0
  -19.2696  -20.8788   26.9246 C   0  0  0  0  0  0  0  0  0  0  0  0
  -28.7651  -21.1611   24.4939 C   0  0  0  0  0  0  0  0  0  0  0  0
  -27.2795  -20.8449   24.3585 C   0  0  0  0  0  0  0  0  0  1  0  0
  -20.1333  -20.4146   22.0386 C   0  0  1  0  0  0  0  0  0  0  0  0
  -18.2367  -21.9695   24.9291 C   0  0  2  0  0  0  0  0  0  0  0  0
  -19.8209  -20.8230   20.5713 C   0  0  0  0  0  0  0  0  0  0  0  0
  -31.0058  -18.1361   24.2471 N   0  0  0  0  0  0  0  0  0  0  0  0
  -26.4922  -24.3535   19.1707 N   0  0  0  0  0  0  0  0  0  0  0  0
  -29.9015  -19.5087   22.9542 N   0  0  0  0  0  0  0  0  0  0  0  0
  -29.6363  -19.9674   24.1868 N   0  0  0  0  0  0  0  0  0  0  0  0
  -27.4441  -23.4603   18.8510 N   0  0  0  0  0  0  0  0  0  0  0  0
  -21.4971  -18.4501   22.6747 N   0  0  0  0  0  0  0  0  0  0  0  0
  -26.6004  -19.7532   19.2348 N   0  0  0  0  0  0  0  0  0  0  0  0
  -29.7879  -23.1925   18.6381 N   0  0  0  0  0  0  0  0  0  0  0  0
  -29.3449  -27.4942   19.9401 N   0  0  0  0  0  0  0  0  0  0  0  0
  -31.1963  -17.6902   21.9661 N   0  0  0  0  0  0  0  0  0  0  0  0
  -22.7434  -15.3572   21.1991 N   0  0  0  0  0  0  0  0  0  0  0  0
  -19.1307  -20.8478   23.0059 N   0  0  0  0  0  0  0  0  0  0  0  0
  -28.5883  -18.7015   19.9811 N   0  0  0  0  0  0  0  0  0  0  0  0
  -18.6284  -22.0949   26.3615 N   0  3  0  0  0  0  0  0  0  0  0  0
  -30.8566  -25.8722   19.3548 O   0  0  0  0  0  0  0  0  0  0  0  0
  -22.7881  -17.6153   20.6321 O   0  0  0  0  0  0  0  0  0  0  0  0
  -19.3008  -18.1960   21.9346 O   0  0  0  0  0  0  0  0  0  0  0  0
  -20.5738  -22.0905   24.3288 O   0  0  0  0  0  0  0  0  0  0  0  0
  -26.9355  -17.4718   18.9822 O   0  0  0  0  0  0  0  0  0  0  0  0
  -24.5571  -30.1375   21.0010 O   0  0  0  0  0  0  0  0  0  0  0  0
  -26.9199  -19.8154   25.2789 O   0  0  0  0  0  0  0  0  0  1  0  0
  -26.5714  -32.9126   25.3190 F   0  0  0  0  0  0  0  0  0  0  0  0
  -27.1355  -31.1342   20.9687 F   0  0  0  0  0  0  0  0  0  0  0  0
  1  2  1  0  0  0  0
  1  5  2  0  0  0  0
  2  6  2  0  0  0  0
  3  8  2  0  0  0  0
  3 16  1  0  0  0  0
  4  9  1  0  0  0  0
  4 16  2  0  0  0  0
  5 18  1  0  0  0  0
  6 20  1  0  0  0  0
  7 10  2  0  0  0  0
  7 19  1  0  0  0  0
  8 22  1  0  0  0  0
  9 22  2  0  0  0  0
 10 23  1  0  0  0  0
 11 12  2  0  0  0  0
 11 24  1  0  0  0  0
 12 25  1  0  0  0  0
 13 21  1  0  0  0  0
 13 23  2  0  0  0  0
 14 25  2  0  0  0  0
 14 26  1  0  0  0  0
 15 61  2  0  0  0  0
 15 64  1  0  0  0  0
 16 27  1  0  0  0  0
 17 27  1  0  0  0  0
 17 28  2  0  0  0  0
 17 30  1  0  0  0  0
 18 20  2  0  0  0  0
 18 35  1  0  0  0  0
 19 21  2  0  0  0  0
 19 36  1  0  0  0  0
 20 46  1  0  0  0  0
 21 37  1  0  0  0  0
 22 80  1  0  0  0  0
 23 81  1  0  0  0  0
 24 26  2  0  0  0  0
 24 80  1  0  0  0  0
 25 82  1  0  0  0  0
 26 83  1  0  0  0  0
 27 62  2  0  0  0  0
 28 65  1  0  0  0  0
 28 68  1  0  0  0  0
 29 61  1  0  0  0  0
 29 63  2  0  0  0  0
 29 70  1  0  0  0  0
 30 69  1  0  0  0  0
 30 75  2  0  0  0  0
 31 47  1  0  0  0  0
 31 71  1  0  0  0  0
 31 76  2  0  0  0  0
 32 58  1  0  0  0  0
 32 66  1  0  0  0  0
 32 77  2  0  0  0  0
 33 59  1  0  0  0  0
 33 72  1  0  0  0  0
 33 78  2  0  0  0  0
 34 67  1  0  0  0  0
 34 73  1  0  0  0  0
 34 79  2  0  0  0  0
 35 38  1  0  0  0  0
 36 47  1  0  0  0  0
 37 66  1  0  0  0  0
 38 40  1  0  0  0  0
 39 41  1  0  0  0  0
 39 44  1  0  0  0  0
 40 46  1  0  0  0  0
 41 48  1  0  0  0  0
 42 43  1  0  0  0  0
 42 49  1  0  0  0  0
 43 50  1  0  0  0  0
 44 67  1  0  0  0  0
 45 48  1  0  0  0  0
 45 67  1  0  0  0  0
 46 71  1  0  0  0  0
 47 66  1  0  0  0  0
 48 65  1  0  0  0  0
 49 50  1  0  0  0  0
 49 70  1  0  0  0  0
 50 73  1  0  0  0  0
 51 59  1  0  0  0  0
 52 60  1  0  0  0  0
 53 60  1  0  0  0  0
 54 60  1  0  0  0  0
 55 74  1  0  0  0  0
 56 57  1  0  0  0  0
 56 64  1  0  0  0  0
 57 81  1  0  0  0  0
 58 60  1  0  0  0  0
 58 72  1  0  0  0  0
 59 74  1  0  0  0  0
 62 65  1  0  0  0  0
 63 64  1  0  0  0  0
M  CHG  1  74   1
M  ISO  4  34 100  57 101  73 100  81 101
M  END
> <Batch ID>
0193

> <Smiles>
CNC(C)C(=O)NC(C(=O)N1Cc2cc([101O:1][101CH2:1]Cn3cnc(NC4CCC4[100NH:0][100C:0](=O)N4CCCC(n5nc(-c6ccc(Oc7ccc(F)cc7F)cc6)c(C(N)=O)c5N)C4)n3)ccc2CC1C(=O)NC1CCCc2ccccc21)C(C)(C)C

> <Shape>
0.189

> <Color>
0.052

> <Negative vol penalty>
0.000

$$$$

  -OEChem-04052323323D

 86 96  0     1  0  0  0  0  0999 V2000
  -19.6685  -25.6211   27.5358 C   0  0  0  0  0  0  0  0  0  0  0  0
  -21.0035  -25.5998   27.1450 C   0  0  0  0  0  0  0  0  0  0  0  0
  -24.0307   -9.3243   20.2844 C   0  0  0  0  0  0  0  0  0  0  0  0
  -21.9855  -10.2012   21.2252 C   0  0  0  0  0  0  0  0  0  0  0  0
  -18.7604  -26.4404   26.8665 C   0  0  0  0  0  0  0  0  0  0  0  0
  -21.4310  -26.3971   26.0839 C   0  0  0  0  0  0  0  0  0  0  0  0
  -26.8651  -29.1632   25.5136 C   0  0  0  0  0  0  0  0  0  0  0  0
  -23.7036   -8.0536   20.7576 C   0  0  0  0  0  0  0  0  0  0  0  0
  -21.6583   -8.9305   21.6984 C   0  0  0  0  0  0  0  0  0  0  0  0
  -28.0243  -28.8194   24.8196 C   0  0  0  0  0  0  0  0  0  0  0  0
  -20.3804   -6.0621   20.4495 C   0  0  0  0  0  0  0  0  0  0  0  0
  -19.0716   -5.6188   20.2599 C   0  0  0  0  0  0  0  0  0  0  0  0
  -27.3266  -30.2113   22.9769 C   0  0  0  0  0  0  0  0  0  0  0  0
  -18.7984   -5.4031   22.6508 C   0  0  0  0  0  0  0  0  0  0  0  0
  -30.8198  -23.0028   20.2885 C   0  0  0  0  0  0  0  0  0  0  0  0
  -23.1717  -10.3981   20.5183 C   0  0  0  0  0  0  0  0  0  0  0  0
  -23.1726  -12.2663   18.7812 C   0  0  0  0  0  0  0  0  0  0  0  0
  -19.1789  -27.2554   25.8029 C   0  0  0  0  0  0  0  0  0  0  0  0
  -25.9211  -30.0265   24.9391 C   0  0  0  0  0  0  0  0  0  0  0  0
  -20.5274  -27.2271   25.3989 C   0  0  0  0  0  0  0  0  0  0  0  0
  -26.1575  -30.5664   23.6668 C   0  0  0  0  0  0  0  0  0  0  0  0
  -22.5174   -7.8567   21.4646 C   0  0  0  0  0  0  0  0  0  0  0  0
  -28.2539  -29.3412   23.5498 C   0  0  0  0  0  0  0  0  0  0  0  0
  -20.8983   -6.1758   21.7397 C   0  0  0  0  0  0  0  0  0  0  0  0
  -18.2805   -5.2893   21.3605 C   0  0  0  0  0  0  0  0  0  0  0  0
  -20.1073   -5.8463   22.8403 C   0  0  0  0  0  0  0  0  0  0  0  0
  -23.5094  -11.7111   20.0302 C   0  0  0  0  0  0  0  0  0  0  0  0
  -30.1074  -24.1629   20.1161 C   0  0  0  0  0  0  0  0  0  0  0  0
  -23.7223  -13.5248   18.8054 C   0  0  0  0  0  0  0  0  0  0  0  0
  -29.7364  -26.6304   20.8057 C   0  0  0  0  0  0  0  0  0  0  0  0
  -30.3279  -25.4169   20.8442 C   0  0  0  0  0  0  0  0  0  0  0  0
  -22.4293  -11.6956   17.6961 C   0  0  0  0  0  0  0  0  0  0  0  0
  -22.8694  -29.7669   24.0884 C   0  0  0  0  0  0  0  0  0  0  0  0
  -23.1660  -32.9442   23.5058 C   0  0  0  0  0  0  0  0  0  0  0  0
  -25.2114  -35.5785   22.7822 C   0  0  0  0  0  0  0  0  0  0  0  0
  -28.0298  -16.7675   19.7904 C   0  0  0  0  0  0  0  0  0  0  0  0
  -18.1513  -28.0890   25.0791 C   0  0  0  0  0  0  0  0  0  0  0  0
  -24.6885  -30.4086   25.7118 C   0  0  0  0  0  0  0  0  0  0  0  0
  -25.1850  -31.5134   23.0141 C   0  0  0  0  0  0  0  0  0  0  0  0
  -31.2886  -25.8299   21.9492 C   0  0  0  0  0  0  0  0  0  0  0  0
  -18.7599  -29.1845   24.2074 C   0  0  0  0  0  0  0  0  0  0  0  0
  -25.7250  -16.1884   22.5818 C   0  0  0  0  0  0  0  0  0  0  0  0
  -19.9082  -28.6262   23.3728 C   0  0  0  0  0  0  0  0  0  0  0  0
  -24.9558  -14.9715   22.0785 C   0  0  0  0  0  0  0  0  0  0  0  0
  -31.1862  -17.7510   20.3815 C   0  0  0  0  0  0  0  0  0  0  0  0
  -27.1845  -16.1834   22.1256 C   0  0  0  0  0  0  0  0  0  0  0  0
  -30.1411  -17.1045   21.2959 C   0  0  0  0  0  0  0  0  0  0  0  0
  -26.5728  -14.8072   20.1544 C   0  0  0  0  0  0  0  0  0  0  0  0
  -21.0344  -28.0963   24.2685 C   0  0  1  0  0  0  0  0  0  0  0  0
  -30.6378  -27.2304   21.8653 C   0  0  2  0  0  0  0  0  0  0  0  0
  -23.5490  -30.8903   24.8190 C   0  0  1  0  0  0  0  0  0  0  0  0
  -25.0910  -14.8426   20.5541 C   0  0  1  0  0  0  0  0  0  0  0  0
  -30.0347  -18.3335   19.5478 C   0  0  2  0  0  0  0  0  0  0  0  0
  -25.1596  -38.0458   22.3273 C   0  0  0  0  0  0  0  0  0  0  0  0
  -22.0992  -32.4019   20.6991 C   0  0  0  0  0  0  0  0  0  0  0  0
  -22.9528  -34.6539   20.0150 C   0  0  0  0  0  0  0  0  0  0  0  0
  -21.1963  -34.4702   21.7767 C   0  0  0  0  0  0  0  0  0  0  0  0
  -26.9229  -36.1639   25.1246 C   0  0  0  0  0  0  0  0  0  0  0  0
  -29.9434  -27.7222   23.1250 C   0  0  0  0  0  0  0  0  0  1  0  0
  -29.6372  -19.7727   19.8103 C   0  0  0  0  0  0  0  0  0  0  0  0
  -30.6084  -20.7512   19.1505 C   0  0  0  0  0  0  0  0  0  0  0  0
  -23.5682  -33.7797   22.3146 C   0  0  1  0  0  0  0  0  0  0  0  0
  -25.3182  -36.9667   23.3871 C   0  0  2  0  0  0  0  0  0  0  0  0
  -22.4717  -33.8071   21.2126 C   0  0  0  0  0  0  0  0  0  0  0  0
  -24.2183  -12.5482   20.7924 N   0  0  0  0  0  0  0  0  0  0  0  0
  -29.1512  -23.9766   19.1566 N   0  0  0  0  0  0  0  0  0  0  0  0
  -29.2465  -22.7244   18.7231 N   0  0  0  0  0  0  0  0  0  0  0  0
  -30.2475  -22.1422   19.4031 N   0  0  0  0  0  0  0  0  0  0  0  0
  -24.3315  -13.6421   20.0200 N   0  0  0  0  0  0  0  0  0  0  0  0
  -23.9916  -31.8518   23.8071 N   0  0  0  0  0  0  0  0  0  0  0  0
  -27.3059  -15.9654   20.6792 N   0  0  0  0  0  0  0  0  0  0  0  0
  -29.1624  -17.3958   20.2585 N   0  0  0  0  0  0  0  0  0  0  0  0
  -23.7393  -14.5313   17.9059 N   0  0  0  0  0  0  0  0  0  0  0  0
  -21.9359  -10.3914   17.8373 N   0  0  0  0  0  0  0  0  0  0  0  0
  -21.8254  -29.1916   24.7873 N   0  0  0  0  0  0  0  0  0  0  0  0
  -23.9215  -35.0945   22.8387 N   0  0  0  0  0  0  0  0  0  0  0  0
  -26.6438  -37.1447   24.0444 N   0  3  0  0  0  0  0  0  0  0  0  0
  -22.2232  -12.3175   16.6264 O   0  0  0  0  0  0  0  0  0  0  0  0
  -23.2621  -29.4469   22.9726 O   0  0  0  0  0  0  0  0  0  0  0  0
  -22.1605  -33.2538   24.1498 O   0  0  0  0  0  0  0  0  0  0  0  0
  -26.1751  -34.9844   22.3038 O   0  0  0  0  0  0  0  0  0  0  0  0
  -27.6953  -16.8966   18.6053 O   0  0  0  0  0  0  0  0  0  0  0  0
  -22.1977   -6.6168   21.9262 O   0  0  0  0  0  0  0  0  0  0  0  0
  -29.3933  -29.0041   22.8645 O   0  0  0  0  0  0  0  0  0  1  0  0
  -17.0231   -4.8651   21.1785 F   0  0  0  0  0  0  0  0  0  0  0  0
  -20.5989   -5.9547   24.0822 F   0  0  0  0  0  0  0  0  0  0  0  0
  1  2  1  0  0  0  0
  1  5  2  0  0  0  0
  2  6  2  0  0  0  0
  3  8  2  0  0  0  0
  3 16  1  0  0  0  0
  4  9  1  0  0  0  0
  4 16  2  0  0  0  0
  5 18  1  0  0  0  0
  6 20  1  0  0  0  0
  7 10  2  0  0  0  0
  7 19  1  0  0  0  0
  8 22  1  0  0  0  0
  9 22  2  0  0  0  0
 10 23  1  0  0  0  0
 11 12  2  0  0  0  0
 11 24  1  0  0  0  0
 12 25  1  0  0  0  0
 13 21  1  0  0  0  0
 13 23  2  0  0  0  0
 14 25  2  0  0  0  0
 14 26  1  0  0  0  0
 15 28  2  0  0  0  0
 15 68  1  0  0  0  0
 16 27  1  0  0  0  0
 17 27  1  0  0  0  0
 17 29  2  0  0  0  0
 17 32  1  0  0  0  0
 18 20  2  0  0  0  0
 18 37  1  0  0  0  0
 19 21  2  0  0  0  0
 19 38  1  0  0  0  0
 20 49  1  0  0  0  0
 21 39  1  0  0  0  0
 22 83  1  0  0  0  0
 23 84  1  0  0  0  0
 24 26  2  0  0  0  0
 24 83  1  0  0  0  0
 25 85  1  0  0  0  0
 26 86  1  0  0  0  0
 27 65  2  0  0  0  0
 28 31  1  0  0  0  0
 28 66  1  0  0  0  0
 29 69  1  0  0  0  0
 29 73  1  0  0  0  0
 30 31  2  0  0  0  0
 30 50  1  0  0  0  0
 31 40  1  0  0  0  0
 32 74  1  0  0  0  0
 32 78  2  0  0  0  0
 33 51  1  0  0  0  0
 33 75  1  0  0  0  0
 33 79  2  0  0  0  0
 34 62  1  0  0  0  0
 34 70  1  0  0  0  0
 34 80  2  0  0  0  0
 35 63  1  0  0  0  0
 35 76  1  0  0  0  0
 35 81  2  0  0  0  0
 36 71  1  0  0  0  0
 36 72  1  0  0  0  0
 36 82  2  0  0  0  0
 37 41  1  0  0  0  0
 38 51  1  0  0  0  0
 39 70  1  0  0  0  0
 40 50  1  0  0  0  0
 41 43  1  0  0  0  0
 42 44  1  0  0  0  0
 42 46  1  0  0  0  0
 43 49  1  0  0  0  0
 44 52  1  0  0  0  0
 45 47  1  0  0  0  0
 45 53  1  0  0  0  0
 46 71  1  0  0  0  0
 47 72  1  0  0  0  0
 48 52  1  0  0  0  0
 48 71  1  0  0  0  0
 49 75  1  0  0  0  0
 50 59  1  0  0  0  0
 51 70  1  0  0  0  0
 52 69  1  0  0  0  0
 53 60  1  0  0  0  0
 53 72  1  0  0  0  0
 54 63  1  0  0  0  0
 55 64  1  0  0  0  0
 56 64  1  0  0  0  0
 57 64  1  0  0  0  0
 58 77  1  0  0  0  0
 59 84  1  0  0  0  0
 60 61  1  0  0  0  0
 61 68  1  0  0  0  0
 62 64  1  0  0  0  0
 62 76  1  0  0  0  0
 63 77  1  0  0  0  0
 65 69  1  0  0  0  0
 66 67  2  0  0  0  0
 67 68  1  0  0  0  0
M  CHG  1  77   1
M  ISO  4  36 100  59 101  72 100  84 101
M  END
> <Batch ID>
0193

> <Smiles>
CNC(C)C(=O)NC(C(=O)N1Cc2cc([101O:1][101CH2:1]C3=CC(c4cn(CCC5CC[100N:0]5[100C:0](=O)N5CCCC(n6nc(-c7ccc(Oc8ccc(F)cc8F)cc7)c(C(N)=O)c6N)C5)nn4)C3)ccc2CC1C(=O)NC1CCCc2ccccc21)C(C)(C)C

> <Shape>
0.266

> <Color>
0.116

> <Negative vol penalty>
0.000

$$$$

  -OEChem-04052323323D

 83 92  0     1  0  0  0  0  0999 V2000
  -16.7288  -27.6779   23.3787 C   0  0  0  0  0  0  0  0  0  0  0  0
  -17.9324  -27.1827   23.8704 C   0  0  0  0  0  0  0  0  0  0  0  0
  -26.2738  -16.0226   21.0867 C   0  0  0  0  0  0  0  0  0  0  0  0
  -25.9603  -14.3372   19.3843 C   0  0  0  0  0  0  0  0  0  0  0  0
  -16.7267  -28.5400   22.2830 C   0  0  0  0  0  0  0  0  0  0  0  0
  -19.1345  -27.5485   23.2658 C   0  0  0  0  0  0  0  0  0  0  0  0
  -26.0104  -28.8137   24.8270 C   0  0  0  0  0  0  0  0  0  0  0  0
  -24.9201  -15.9442   21.4137 C   0  0  0  0  0  0  0  0  0  0  0  0
  -24.6066  -14.2587   19.7113 C   0  0  0  0  0  0  0  0  0  0  0  0
  -27.2923  -28.4371   24.4285 C   0  0  0  0  0  0  0  0  0  0  0  0
  -21.1421  -13.3541   20.3415 C   0  0  0  0  0  0  0  0  0  0  0  0
  -20.5758  -12.0851   20.4621 C   0  0  0  0  0  0  0  0  0  0  0  0
  -27.1724  -29.9955   22.5911 C   0  0  0  0  0  0  0  0  0  0  0  0
  -22.1350  -11.5574   22.2306 C   0  0  0  0  0  0  0  0  0  0  0  0
  -26.7939  -15.2192   20.0720 C   0  0  0  0  0  0  0  0  0  0  0  0
  -29.2454  -14.5466   20.2852 C   0  0  0  0  0  0  0  0  0  0  0  0
  -17.9301  -28.9242   21.6707 C   0  0  0  0  0  0  0  0  0  0  0  0
  -25.2944  -29.7778   24.1029 C   0  0  0  0  0  0  0  0  0  0  0  0
  -19.1484  -28.4156   22.1600 C   0  0  0  0  0  0  0  0  0  0  0  0
  -25.8827  -30.3844   22.9839 C   0  0  0  0  0  0  0  0  0  0  0  0
  -24.0865  -15.0622   20.7260 C   0  0  0  0  0  0  0  0  0  0  0  0
  -27.8724  -29.0259   23.3088 C   0  0  0  0  0  0  0  0  0  0  0  0
  -22.2049  -13.7248   21.1654 C   0  0  0  0  0  0  0  0  0  0  0  0
  -21.0722  -11.1868   21.4067 C   0  0  0  0  0  0  0  0  0  0  0  0
  -22.7013  -12.8264   22.1100 C   0  0  0  0  0  0  0  0  0  0  0  0
  -28.1921  -15.3001   19.7334 C   0  0  0  0  0  0  0  0  0  0  0  0
  -30.3675  -14.9958   19.6326 C   0  0  0  0  0  0  0  0  0  0  0  0
  -30.4307  -27.2186   21.6154 C   0  0  0  0  0  0  0  0  0  0  0  0
  -28.1431  -26.0498   20.7742 C   0  0  0  0  0  0  0  0  0  0  0  0
  -29.2146  -27.6069   22.0222 C   0  0  0  0  0  0  0  0  0  1  0  0
  -30.5504  -26.0924   20.6587 C   0  0  0  0  0  0  0  0  0  0  0  0
  -29.2126  -13.5313   21.2970 C   0  0  0  0  0  0  0  0  0  0  0  0
  -22.5632  -29.7908   22.4768 C   0  0  0  0  0  0  0  0  0  0  0  0
  -23.1610  -32.9715   22.2573 C   0  0  0  0  0  0  0  0  0  0  0  0
  -25.4539  -35.4987   22.3067 C   0  0  0  0  0  0  0  0  0  0  0  0
  -30.0777  -19.5137   19.9057 C   0  0  0  0  0  0  0  0  0  0  0  0
  -17.8742  -29.8210   20.4594 C   0  0  0  0  0  0  0  0  0  0  0  0
  -23.9232  -30.1924   24.5614 C   0  0  0  0  0  0  0  0  0  0  0  0
  -25.1639  -31.4391   22.1842 C   0  0  0  0  0  0  0  0  0  0  0  0
  -19.2174  -30.4566   20.1096 C   0  0  0  0  0  0  0  0  0  0  0  0
  -29.1954  -18.4106   16.6062 C   0  0  0  0  0  0  0  0  0  0  0  0
  -20.3278  -29.4113   20.1443 C   0  0  0  0  0  0  0  0  0  0  0  0
  -30.1263  -17.2041   16.4668 C   0  0  0  0  0  0  0  0  0  0  0  0
  -28.9059  -22.7719   21.2111 C   0  0  0  0  0  0  0  0  0  0  0  0
  -29.8269  -19.5694   17.3758 C   0  0  0  0  0  0  0  0  0  0  0  0
  -29.2472  -21.3022   21.4012 C   0  0  0  0  0  0  0  0  0  0  0  0
  -29.6940  -21.9294   19.1286 C   0  0  0  0  0  0  0  0  0  0  0  0
  -31.4085  -18.0153   18.4608 C   0  0  0  0  0  0  0  0  0  0  0  0
  -20.4747  -28.8089   21.5468 C   0  0  1  0  0  0  0  0  0  0  0  0
  -23.0831  -30.8119   23.4488 C   0  0  1  0  0  0  0  0  0  0  0  0
  -29.7794  -23.1681   20.0202 C   0  0  1  0  0  0  0  0  0  0  0  0
  -30.7833  -16.7729   17.7957 C   0  0  1  0  0  0  0  0  0  0  0  0
  -25.6468  -37.9886   22.0612 C   0  0  0  0  0  0  0  0  0  0  0  0
  -22.8411  -32.6959   19.2354 C   0  0  0  0  0  0  0  0  0  0  0  0
  -23.9558  -34.9235   18.9843 C   0  0  0  0  0  0  0  0  0  0  0  0
  -21.7922  -34.7449   20.2129 C   0  0  0  0  0  0  0  0  0  0  0  0
  -26.5189  -35.8033   25.0512 C   0  0  0  0  0  0  0  0  0  0  0  0
  -29.3144  -24.4392   19.3325 C   0  0  0  0  0  0  0  0  0  0  0  0
  -23.9026  -33.8552   21.2836 C   0  0  1  0  0  0  0  0  0  0  0  0
  -25.4679  -36.8320   23.0323 C   0  0  2  0  0  0  0  0  0  0  0  0
  -23.1360  -34.0336   19.9428 C   0  0  0  0  0  0  0  0  0  0  0  0
  -28.6078  -16.1627   18.8021 N   0  0  0  0  0  0  0  0  0  0  0  0
  -28.0380  -27.0297   21.6121 N   0  0  0  0  0  0  0  0  0  0  0  0
  -29.9349  -15.9540   18.7638 N   0  0  0  0  0  0  0  0  0  0  0  0
  -29.3290  -25.5295   20.2535 N   0  0  0  0  0  0  0  0  0  0  0  0
  -23.8230  -31.8060   22.6687 N   0  0  0  0  0  0  0  0  0  0  0  0
  -30.4480  -19.1087   18.6191 N   0  0  0  0  0  0  0  0  0  0  0  0
  -29.6002  -20.8125   20.0720 N   0  0  0  0  0  0  0  0  0  0  0  0
  -31.6721  -14.6607   19.7231 N   0  0  0  0  0  0  0  0  0  0  0  0
  -27.9760  -13.1913   21.8624 N   0  0  0  0  0  0  0  0  0  0  0  0
  -21.1844  -29.7218   22.4171 N   0  0  0  0  0  0  0  0  0  0  0  0
  -24.1717  -35.1037   21.9888 N   0  0  0  0  0  0  0  0  0  0  0  0
  -26.5821  -36.8720   24.0211 N   0  3  0  0  0  0  0  0  0  0  0  0
  -31.6585  -25.7193   20.2833 O   0  0  0  0  0  0  0  0  0  0  0  0
  -30.2512  -12.9547   21.6998 O   0  0  0  0  0  0  0  0  0  0  0  0
  -23.3544  -29.1165   21.8280 O   0  0  0  0  0  0  0  0  0  0  0  0
  -22.0387  -33.3066   22.6442 O   0  0  0  0  0  0  0  0  0  0  0  0
  -26.4783  -34.8722   22.0447 O   0  0  0  0  0  0  0  0  0  0  0  0
  -30.2090  -18.7591   20.8793 O   0  0  0  0  0  0  0  0  0  0  0  0
  -22.7656  -14.9852   21.0450 O   0  0  0  0  0  0  0  0  0  0  0  0
  -29.1259  -28.6589   22.9164 O   0  0  0  0  0  0  0  0  0  1  0  0
  -20.5272   -9.9688   21.5234 F   0  0  0  0  0  0  0  0  0  0  0  0
  -23.7214  -13.1772   22.9051 F   0  0  0  0  0  0  0  0  0  0  0  0
  1  2  1  0  0  0  0
  1  5  2  0  0  0  0
  2  6  2  0  0  0  0
  3  8  2  0  0  0  0
  3 15  1  0  0  0  0
  4  9  1  0  0  0  0
  4 15  2  0  0  0  0
  5 17  1  0  0  0  0
  6 19  1  0  0  0  0
  7 10  2  0  0  0  0
  7 18  1  0  0  0  0
  8 21  1  0  0  0  0
  9 21  2  0  0  0  0
 10 22  1  0  0  0  0
 11 12  2  0  0  0  0
 11 23  1  0  0  0  0
 12 24  1  0  0  0  0
 13 20  1  0  0  0  0
 13 22  2  0  0  0  0
 14 24  2  0  0  0  0
 14 25  1  0  0  0  0
 15 26  1  0  0  0  0
 16 26  1  0  0  0  0
 16 27  2  0  0  0  0
 16 32  1  0  0  0  0
 17 19  2  0  0  0  0
 17 37  1  0  0  0  0
 18 20  2  0  0  0  0
 18 38  1  0  0  0  0
 19 49  1  0  0  0  0
 20 39  1  0  0  0  0
 21 80  1  0  0  0  0
 22 81  1  0  0  0  0
 23 25  2  0  0  0  0
 23 80  1  0  0  0  0
 24 82  1  0  0  0  0
 25 83  1  0  0  0  0
 26 62  2  0  0  0  0
 27 64  1  0  0  0  0
 27 69  1  0  0  0  0
 28 30  2  0  0  0  0
 28 31  1  0  0  0  0
 29 63  2  0  0  0  0
 29 65  1  0  0  0  0
 30 63  1  0  0  0  0
 30 81  1  0  0  0  0
 31 65  1  0  0  0  0
 31 74  2  0  0  0  0
 32 70  1  0  0  0  0
 32 75  2  0  0  0  0
 33 50  1  0  0  0  0
 33 71  1  0  0  0  0
 33 76  2  0  0  0  0
 34 59  1  0  0  0  0
 34 66  1  0  0  0  0
 34 77  2  0  0  0  0
 35 60  1  0  0  0  0
 35 72  1  0  0  0  0
 35 78  2  0  0  0  0
 36 67  1  0  0  0  0
 36 68  1  0  0  0  0
 36 79  2  0  0  0  0
 37 40  1  0  0  0  0
 38 50  1  0  0  0  0
 39 66  1  0  0  0  0
 40 42  1  0  0  0  0
 41 43  1  0  0  0  0
 41 45  1  0  0  0  0
 42 49  1  0  0  0  0
 43 52  1  0  0  0  0
 44 46  1  0  0  0  0
 44 51  1  0  0  0  0
 45 67  1  0  0  0  0
 46 68  1  0  0  0  0
 47 51  1  0  0  0  0
 47 68  1  0  0  0  0
 48 52  1  0  0  0  0
 48 67  1  0  0  0  0
 49 71  1  0  0  0  0
 50 66  1  0  0  0  0
 51 58  1  0  0  0  0
 52 64  1  0  0  0  0
 53 60  1  0  0  0  0
 54 61  1  0  0  0  0
 55 61  1  0  0  0  0
 56 61  1  0  0  0  0
 57 73  1  0  0  0  0
 58 65  1  0  0  0  0
 59 61  1  0  0  0  0
 59 72  1  0  0  0  0
 60 73  1  0  0  0  0
 62 64  1  0  0  0  0
M  CHG  1  73   1
M  ISO  4  30 101  36 100  68 100  81 101
M  END
> <Batch ID>
0193

> <Smiles>
CNC(C)C(=O)NC(C(=O)N1Cc2cc([101O:1][101c:1]3cc(=O)n(CC4CC[100N:0]([100C:0](=O)N5CCCC(n6nc(-c7ccc(Oc8ccc(F)cc8F)cc7)c(C(N)=O)c6N)C5)C4)cn3)ccc2CC1C(=O)NC1CCCc2ccccc21)C(C)(C)C

> <Shape>
0.290

> <Color>
0.108

> <Negative vol penalty>
0.000

$$$$

  -OEChem-04052323323D

 85 94  0     1  0  0  0  0  0999 V2000
  -19.9897  -36.1629   19.8509 C   0  0  0  0  0  0  0  0  0  0  0  0
  -20.5412  -35.1518   19.0706 C   0  0  0  0  0  0  0  0  0  0  0  0
  -23.3886  -10.5109   19.8823 C   0  0  0  0  0  0  0  0  0  0  0  0
  -24.2749  -10.0022   22.0716 C   0  0  0  0  0  0  0  0  0  0  0  0
  -20.6087  -36.5388   21.0423 C   0  0  0  0  0  0  0  0  0  0  0  0
  -21.7129  -34.5167   19.4808 C   0  0  0  0  0  0  0  0  0  0  0  0
  -24.9808  -28.1458   19.2598 C   0  0  0  0  0  0  0  0  0  0  0  0
  -23.0379   -9.1715   19.7131 C   0  0  0  0  0  0  0  0  0  0  0  0
  -23.9240   -8.6628   21.9024 C   0  0  0  0  0  0  0  0  0  0  0  0
  -26.1994  -27.5723   18.8992 C   0  0  0  0  0  0  0  0  0  0  0  0
  -21.1266   -6.7776   22.1049 C   0  0  0  0  0  0  0  0  0  0  0  0
  -20.5010   -6.1333   23.1722 C   0  0  0  0  0  0  0  0  0  0  0  0
  -27.1379  -28.2505   21.0154 C   0  0  0  0  0  0  0  0  0  0  0  0
  -22.3081   -4.5323   23.2649 C   0  0  0  0  0  0  0  0  0  0  0  0
  -30.9757  -26.6565   17.6711 C   0  0  0  0  0  0  0  0  0  0  0  0
  -24.0072  -10.9262   21.0615 C   0  0  0  0  0  0  0  0  0  0  0  0
  -23.5795  -13.3319   21.7945 C   0  0  0  0  0  0  0  0  0  0  0  0
  -21.7833  -35.9013   21.4721 C   0  0  0  0  0  0  0  0  0  0  0  0
  -24.8346  -28.7866   20.4985 C   0  0  0  0  0  0  0  0  0  0  0  0
  -22.3490  -34.8852   20.6784 C   0  0  0  0  0  0  0  0  0  0  0  0
  -25.9158  -28.8291   21.3904 C   0  0  0  0  0  0  0  0  0  0  0  0
  -23.3055   -8.2475   20.7231 C   0  0  0  0  0  0  0  0  0  0  0  0
  -27.2790  -27.6271   19.7758 C   0  0  0  0  0  0  0  0  0  0  0  0
  -22.3429   -6.2992   21.6176 C   0  0  0  0  0  0  0  0  0  0  0  0
  -21.0917   -5.0107   23.7522 C   0  0  0  0  0  0  0  0  0  0  0  0
  -22.9336   -5.1766   22.1976 C   0  0  0  0  0  0  0  0  0  0  0  0
  -24.3703  -12.3095   21.2367 C   0  0  0  0  0  0  0  0  0  0  0  0
  -29.8935  -25.8509   17.9486 C   0  0  0  0  0  0  0  0  0  0  0  0
  -32.3271  -24.8135   17.5899 C   0  0  0  0  0  0  0  0  0  0  0  0
  -31.2450  -24.0078   17.8681 C   0  0  0  0  0  0  0  0  0  0  0  0
  -24.3731  -14.4514   21.7343 C   0  0  0  0  0  0  0  0  0  0  0  0
  -22.2468  -13.2748   22.3202 C   0  0  0  0  0  0  0  0  0  0  0  0
  -24.1585  -31.7513   21.4244 C   0  0  0  0  0  0  0  0  0  0  0  0
  -24.1149  -30.4036   24.3747 C   0  0  0  0  0  0  0  0  0  0  0  0
  -25.1428  -27.8713   26.4186 C   0  0  0  0  0  0  0  0  0  0  0  0
  -27.7449  -17.6010   18.5716 C   0  0  0  0  0  0  0  0  0  0  0  0
  -22.4424  -36.3743   22.7435 C   0  0  0  0  0  0  0  0  0  0  0  0
  -23.5058  -29.3769   20.8836 C   0  0  0  0  0  0  0  0  0  0  0  0
  -25.8047  -29.4875   22.7404 C   0  0  0  0  0  0  0  0  0  0  0  0
  -23.4755  -35.3950   23.2948 C   0  0  0  0  0  0  0  0  0  0  0  0
  -29.2881  -14.9589   20.6675 C   0  0  0  0  0  0  0  0  0  0  0  0
  -24.3956  -34.9063   22.1806 C   0  0  0  0  0  0  0  0  0  0  0  0
  -28.0712  -14.0978   21.0091 C   0  0  0  0  0  0  0  0  0  0  0  0
  -30.3619  -19.9782   19.5775 C   0  0  0  0  0  0  0  0  0  0  0  0
  -29.1272  -15.6120   19.3010 C   0  0  0  0  0  0  0  0  0  0  0  0
  -29.9061  -18.5225   19.5982 C   0  0  0  0  0  0  0  0  0  0  0  0
  -26.6698  -15.5792   19.4932 C   0  0  0  0  0  0  0  0  0  0  0  0
  -28.8644  -19.6552   17.7513 C   0  0  0  0  0  0  0  0  0  0  0  0
  -23.6053  -34.1556   21.1020 C   0  0  1  0  0  0  0  0  0  0  0  0
  -23.6194  -30.4541   21.9578 C   0  0  1  0  0  0  0  0  0  0  0  0
  -26.7647  -14.9007   20.8713 C   0  0  1  0  0  0  0  0  0  0  0  0
  -30.1685  -20.3424   18.1130 C   0  0  1  0  0  0  0  0  0  0  0  0
  -33.6894  -24.2432   17.3884 C   0  0  0  0  0  0  0  0  0  0  0  0
  -24.9763  -27.0612   28.7879 C   0  0  0  0  0  0  0  0  0  0  0  0
  -26.1138  -32.5393   25.2428 C   0  0  0  0  0  0  0  0  0  0  0  0
  -26.6210  -31.1455   27.2598 C   0  0  0  0  0  0  0  0  0  0  0  0
  -24.3208  -32.0472   26.9153 C   0  0  0  0  0  0  0  0  0  0  0  0
  -23.8381  -25.3484   25.5869 C   0  0  0  0  0  0  0  0  0  0  0  0
  -31.3872  -22.5185   17.9813 C   0  0  0  0  0  0  0  0  0  0  0  0
  -28.5419  -26.4428   18.1454 C   0  0  0  0  0  0  0  0  0  1  0  0
  -25.1428  -30.1561   25.4523 C   0  0  1  0  0  0  0  0  0  0  0  0
  -24.3805  -26.9888   27.3906 C   0  0  2  0  0  0  0  0  0  0  0  0
  -25.5526  -31.4612   26.1914 C   0  0  0  0  0  0  0  0  0  0  0  0
  -32.2120  -26.1524   17.4868 N   0  0  0  0  0  0  0  0  0  0  0  0
  -25.5738  -12.7412   20.8503 N   0  0  0  0  0  0  0  0  0  0  0  0
  -30.0087  -24.5120   18.0521 N   0  0  0  0  0  0  0  0  0  0  0  0
  -25.5451  -14.0472   21.1658 N   0  0  0  0  0  0  0  0  0  0  0  0
  -24.4867  -30.0557   23.0684 N   0  0  0  0  0  0  0  0  0  0  0  0
  -27.8736  -16.3668   19.2186 N   0  0  0  0  0  0  0  0  0  0  0  0
  -28.8465  -18.4553   18.5863 N   0  0  0  0  0  0  0  0  0  0  0  0
  -24.1756  -15.7321   22.1126 N   0  0  0  0  0  0  0  0  0  0  0  0
  -21.5750  -12.0449   22.3056 N   0  0  0  0  0  0  0  0  0  0  0  0
  -23.2870  -32.8163   21.5488 N   0  0  0  0  0  0  0  0  0  0  0  0
  -24.5827  -29.1275   26.3222 N   0  0  0  0  0  0  0  0  0  0  0  0
  -30.0792  -21.8003   17.9301 N   0  3  0  0  0  0  0  0  0  0  0  0
  -24.4150  -25.5694   26.9379 N   0  3  0  0  0  0  0  0  0  0  0  0
  -21.6629  -14.2881   22.7740 O   0  0  0  0  0  0  0  0  0  0  0  0
  -25.2826  -31.7837   20.9375 O   0  0  0  0  0  0  0  0  0  0  0  0
  -23.0198  -30.8811   24.6818 O   0  0  0  0  0  0  0  0  0  0  0  0
  -26.1379  -27.4859   25.8089 O   0  0  0  0  0  0  0  0  0  0  0  0
  -26.6779  -17.9451   18.0461 O   0  0  0  0  0  0  0  0  0  0  0  0
  -22.9632   -6.9405   20.5584 O   0  0  0  0  0  0  0  0  0  0  0  0
  -28.4775  -27.0650   19.4238 O   0  0  0  0  0  0  0  0  0  1  0  0
  -20.4916   -4.3930   24.7781 F   0  0  0  0  0  0  0  0  0  0  0  0
  -24.1026   -4.7131   21.7345 F   0  0  0  0  0  0  0  0  0  0  0  0
  1  2  1  0  0  0  0
  1  5  2  0  0  0  0
  2  6  2  0  0  0  0
  3  8  2  0  0  0  0
  3 16  1  0  0  0  0
  4  9  1  0  0  0  0
  4 16  2  0  0  0  0
  5 18  1  0  0  0  0
  6 20  1  0  0  0  0
  7 10  2  0  0  0  0
  7 19  1  0  0  0  0
  8 22  1  0  0  0  0
  9 22  2  0  0  0  0
 10 23  1  0  0  0  0
 11 12  2  0  0  0  0
 11 24  1  0  0  0  0
 12 25  1  0  0  0  0
 13 21  1  0  0  0  0
 13 23  2  0  0  0  0
 14 25  2  0  0  0  0
 14 26  1  0  0  0  0
 15 28  1  0  0  0  0
 15 64  2  0  0  0  0
 16 27  1  0  0  0  0
 17 27  1  0  0  0  0
 17 31  2  0  0  0  0
 17 32  1  0  0  0  0
 18 20  2  0  0  0  0
 18 37  1  0  0  0  0
 19 21  2  0  0  0  0
 19 38  1  0  0  0  0
 20 49  1  0  0  0  0
 21 39  1  0  0  0  0
 22 82  1  0  0  0  0
 23 83  1  0  0  0  0
 24 26  2  0  0  0  0
 24 82  1  0  0  0  0
 25 84  1  0  0  0  0
 26 85  1  0  0  0  0
 27 65  2  0  0  0  0
 28 60  1  0  0  0  0
 28 66  2  0  0  0  0
 29 30  2  0  0  0  0
 29 53  1  0  0  0  0
 29 64  1  0  0  0  0
 30 59  1  0  0  0  0
 30 66  1  0  0  0  0
 31 67  1  0  0  0  0
 31 71  1  0  0  0  0
 32 72  1  0  0  0  0
 32 77  2  0  0  0  0
 33 50  1  0  0  0  0
 33 73  1  0  0  0  0
 33 78  2  0  0  0  0
 34 61  1  0  0  0  0
 34 68  1  0  0  0  0
 34 79  2  0  0  0  0
 35 62  1  0  0  0  0
 35 74  1  0  0  0  0
 35 80  2  0  0  0  0
 36 69  1  0  0  0  0
 36 70  1  0  0  0  0
 36 81  2  0  0  0  0
 37 40  1  0  0  0  0
 38 50  1  0  0  0  0
 39 68  1  0  0  0  0
 40 42  1  0  0  0  0
 41 43  1  0  0  0  0
 41 45  1  0  0  0  0
 42 49  1  0  0  0  0
 43 51  1  0  0  0  0
 44 46  1  0  0  0  0
 44 52  1  0  0  0  0
 45 69  1  0  0  0  0
 46 70  1  0  0  0  0
 47 51  1  0  0  0  0
 47 69  1  0  0  0  0
 48 52  1  0  0  0  0
 48 70  1  0  0  0  0
 49 73  1  0  0  0  0
 50 68  1  0  0  0  0
 51 67  1  0  0  0  0
 52 75  1  0  0  0  0
 54 62  1  0  0  0  0
 55 63  1  0  0  0  0
 56 63  1  0  0  0  0
 57 63  1  0  0  0  0
 58 76  1  0  0  0  0
 59 75  1  0  0  0  0
 60 83  1  0  0  0  0
 61 63  1  0  0  0  0
 61 74  1  0  0  0  0
 62 76  1  0  0  0  0
 65 67  1  0  0  0  0
M  CHG  2  75   1  76   1
M  ISO  4  36 100  60 101  70 100  83 101
M  END
> <Batch ID>
0193

> <Smiles>
CNC(C)C(=O)NC(C(=O)N1Cc2cc([101O:1][101CH2:1]c3cnc(C)c(CNC4CC[100N:0]([100C:0](=O)N5CCCC(n6nc(-c7ccc(Oc8ccc(F)cc8F)cc7)c(C(N)=O)c6N)C5)C4)n3)ccc2CC1C(=O)NC1CCCc2ccccc21)C(C)(C)C

> <Shape>
0.293

> <Color>
0.080

> <Negative vol penalty>
0.000

$$$$

  -OEChem-04052323323D

 84 93  0     1  0  0  0  0  0999 V2000
  -25.7592  -25.8397   16.1473 C   0  0  0  0  0  0  0  0  0  0  0  0
  -24.9603  -26.2836   17.1962 C   0  0  0  0  0  0  0  0  0  0  0  0
  -26.6260  -15.2780   21.3369 C   0  0  0  0  0  0  0  0  0  0  0  0
  -26.8699  -14.9095   18.9616 C   0  0  0  0  0  0  0  0  0  0  0  0
  -27.1471  -25.9313   16.2425 C   0  0  0  0  0  0  0  0  0  0  0  0
  -25.5491  -26.8184   18.3415 C   0  0  0  0  0  0  0  0  0  0  0  0
  -23.2557  -31.0526   19.9088 C   0  0  0  0  0  0  0  0  0  0  0  0
  -26.2320  -13.9502   21.5024 C   0  0  0  0  0  0  0  0  0  0  0  0
  -26.4759  -13.5817   19.1272 C   0  0  0  0  0  0  0  0  0  0  0  0
  -22.0552  -30.9071   20.6026 C   0  0  0  0  0  0  0  0  0  0  0  0
  -27.8666  -10.6846   20.1727 C   0  0  0  0  0  0  0  0  0  0  0  0
  -28.6065   -9.7036   19.5126 C   0  0  0  0  0  0  0  0  0  0  0  0
  -23.2300  -31.2124   22.6873 C   0  0  0  0  0  0  0  0  0  0  0  0
  -26.6251   -9.0162   18.3133 C   0  0  0  0  0  0  0  0  0  0  0  0
  -18.4045  -27.4865   21.8388 C   0  0  0  0  0  0  0  0  0  0  0  0
  -19.9144  -27.2649   23.4218 C   0  0  0  0  0  0  0  0  0  0  0  0
  -26.9448  -15.7577   20.0665 C   0  0  0  0  0  0  0  0  0  0  0  0
  -28.6617  -17.6409   19.9497 C   0  0  0  0  0  0  0  0  0  0  0  0
  -27.7529  -26.4763   17.3856 C   0  0  0  0  0  0  0  0  0  0  0  0
  -24.4561  -31.2686   20.6008 C   0  0  0  0  0  0  0  0  0  0  0  0
  -26.9465  -26.9161   18.4527 C   0  0  0  0  0  0  0  0  0  0  0  0
  -24.4440  -31.3629   21.9997 C   0  0  0  0  0  0  0  0  0  0  0  0
  -19.3225  -26.5742   22.3927 C   0  0  0  0  0  0  0  0  0  0  0  0
  -26.1570  -13.1021   20.3976 C   0  0  0  0  0  0  0  0  0  0  0  0
  -22.0427  -30.9841   21.9922 C   0  0  0  0  0  0  0  0  0  0  0  0
  -26.5059  -10.8314   19.9032 C   0  0  0  0  0  0  0  0  0  0  0  0
  -27.9858   -8.8694   18.5829 C   0  0  0  0  0  0  0  0  0  0  0  0
  -25.8852   -9.9972   18.9735 C   0  0  0  0  0  0  0  0  0  0  0  0
  -27.3513  -17.1293   19.8947 C   0  0  0  0  0  0  0  0  0  0  0  0
  -28.5141  -18.9878   19.7248 C   0  0  0  0  0  0  0  0  0  0  0  0
  -29.9014  -16.9595   20.1831 C   0  0  0  0  0  0  0  0  0  0  0  0
  -27.1957  -29.6828   20.8891 C   0  0  0  0  0  0  0  0  0  0  0  0
  -28.1065  -32.3319   22.5247 C   0  0  0  0  0  0  0  0  0  0  0  0
  -27.1927  -35.0647   24.3532 C   0  0  0  0  0  0  0  0  0  0  0  0
  -24.2377  -22.7632   20.6562 C   0  0  0  0  0  0  0  0  0  0  0  0
  -29.2588  -26.5111   17.4625 C   0  0  0  0  0  0  0  0  0  0  0  0
  -25.7385  -31.4502   19.8361 C   0  0  0  0  0  0  0  0  0  0  0  0
  -25.7023  -31.6137   22.7885 C   0  0  0  0  0  0  0  0  0  0  0  0
  -29.7917  -27.4352   18.5544 C   0  0  0  0  0  0  0  0  0  0  0  0
  -25.6769  -22.1344   17.5134 C   0  0  0  0  0  0  0  0  0  0  0  0
  -29.0387  -27.2071   19.8612 C   0  0  0  0  0  0  0  0  0  0  0  0
  -26.4051  -20.8158   17.7719 C   0  0  0  0  0  0  0  0  0  0  0  0
  -24.3062  -22.1750   18.1916 C   0  0  0  0  0  0  0  0  0  0  0  0
  -22.1848  -23.7309   19.5276 C   0  0  0  0  0  0  0  0  0  0  0  0
  -23.3509  -24.9813   21.3065 C   0  0  0  0  0  0  0  0  0  0  0  0
  -25.0731  -20.5578   19.8992 C   0  0  0  0  0  0  0  0  0  0  0  0
  -20.8846  -23.7937   20.3226 C   0  0  0  0  0  0  0  0  0  0  0  0
  -22.0794  -25.0412   22.1373 C   0  0  0  0  0  0  0  0  0  0  0  0
  -27.5471  -27.5250   19.7012 C   0  0  1  0  0  0  0  0  0  0  0  0
  -26.9797  -31.1538   20.6721 C   0  0  1  0  0  0  0  0  0  0  0  0
  -26.4780  -20.5112   19.2787 C   0  0  1  0  0  0  0  0  0  0  0  0
  -28.1619  -37.0234   25.5868 C   0  0  0  0  0  0  0  0  0  0  0  0
  -28.9083  -30.4870   24.8190 C   0  0  0  0  0  0  0  0  0  0  0  0
  -28.9582  -32.4901   26.3200 C   0  0  0  0  0  0  0  0  0  0  0  0
  -30.5112  -32.3540   24.3727 C   0  0  0  0  0  0  0  0  0  0  0  0
  -25.8109  -37.0037   22.5954 C   0  0  0  0  0  0  0  0  0  0  0  0
  -19.5933  -25.1634   21.9601 C   0  0  0  0  0  0  0  0  0  0  0  0
  -19.6350  -29.5846   24.3271 C   0  0  0  0  0  0  0  0  0  0  0  0
  -20.9454  -30.2842   23.9828 C   0  0  0  0  0  0  0  0  0  1  0  0
  -28.0502  -32.7688   23.9687 C   0  0  1  0  0  0  0  0  0  0  0  0
  -27.6077  -36.5221   24.2623 C   0  0  2  0  0  0  0  0  0  0  0  0
  -29.0834  -32.0183   24.8556 C   0  0  0  0  0  0  0  0  0  0  0  0
  -18.4091  -28.6666   22.4643 N   0  0  0  0  0  0  0  0  0  0  0  0
  -26.4385  -18.0743   19.6539 N   0  0  0  0  0  0  0  0  0  0  0  0
  -19.3372  -28.5006   23.4220 N   0  0  0  0  0  0  0  0  0  0  0  0
  -27.1765  -19.1931   19.5557 N   0  0  0  0  0  0  0  0  0  0  0  0
  -26.9320  -31.7782   21.9958 N   0  0  0  0  0  0  0  0  0  0  0  0
  -24.4206  -21.8383   19.6175 N   0  0  0  0  0  0  0  0  0  0  0  0
  -23.3489  -23.8218   20.4173 N   0  0  0  0  0  0  0  0  0  0  0  0
  -29.3995  -20.0047   19.6572 N   0  0  0  0  0  0  0  0  0  0  0  0
  -29.8728  -15.5745   20.3958 N   0  0  0  0  0  0  0  0  0  0  0  0
  -27.3302  -28.9557   19.7218 N   0  0  0  0  0  0  0  0  0  0  0  0
  -28.2094  -34.2190   23.9628 N   0  0  0  0  0  0  0  0  0  0  0  0
  -20.8872  -25.0156   21.2095 N   0  3  0  0  0  0  0  0  0  0  0  0
  -26.4405  -37.3707   23.8900 N   0  3  0  0  0  0  0  0  0  0  0  0
  -31.0002  -17.5636   20.2189 O   0  0  0  0  0  0  0  0  0  0  0  0
  -27.2387  -29.2404   22.0311 O   0  0  0  0  0  0  0  0  0  0  0  0
  -29.1518  -32.4830   21.8875 O   0  0  0  0  0  0  0  0  0  0  0  0
  -26.0795  -34.7117   24.7360 O   0  0  0  0  0  0  0  0  0  0  0  0
  -24.8336  -22.6495   21.7349 O   0  0  0  0  0  0  0  0  0  0  0  0
  -25.7729  -11.8063   20.5588 O   0  0  0  0  0  0  0  0  0  0  0  0
  -20.8642  -30.8407   22.6767 O   0  0  0  0  0  0  0  0  0  1  0  0
  -28.6968   -7.9284   17.9480 F   0  0  0  0  0  0  0  0  0  0  0  0
  -24.5785  -10.1342   18.7095 F   0  0  0  0  0  0  0  0  0  0  0  0
  1  2  1  0  0  0  0
  1  5  2  0  0  0  0
  2  6  2  0  0  0  0
  3  8  2  0  0  0  0
  3 17  1  0  0  0  0
  4  9  1  0  0  0  0
  4 17  2  0  0  0  0
  5 19  1  0  0  0  0
  6 21  1  0  0  0  0
  7 10  2  0  0  0  0
  7 20  1  0  0  0  0
  8 24  1  0  0  0  0
  9 24  2  0  0  0  0
 10 25  1  0  0  0  0
 11 12  2  0  0  0  0
 11 26  1  0  0  0  0
 12 27  1  0  0  0  0
 13 22  1  0  0  0  0
 13 25  2  0  0  0  0
 14 27  2  0  0  0  0
 14 28  1  0  0  0  0
 15 23  1  0  0  0  0
 15 63  2  0  0  0  0
 16 23  2  0  0  0  0
 16 65  1  0  0  0  0
 17 29  1  0  0  0  0
 18 29  1  0  0  0  0
 18 30  2  0  0  0  0
 18 31  1  0  0  0  0
 19 21  2  0  0  0  0
 19 36  1  0  0  0  0
 20 22  2  0  0  0  0
 20 37  1  0  0  0  0
 21 49  1  0  0  0  0
 22 38  1  0  0  0  0
 23 57  1  0  0  0  0
 24 81  1  0  0  0  0
 25 82  1  0  0  0  0
 26 28  2  0  0  0  0
 26 81  1  0  0  0  0
 27 83  1  0  0  0  0
 28 84  1  0  0  0  0
 29 64  2  0  0  0  0
 30 66  1  0  0  0  0
 30 70  1  0  0  0  0
 31 71  1  0  0  0  0
 31 76  2  0  0  0  0
 32 50  1  0  0  0  0
 32 72  1  0  0  0  0
 32 77  2  0  0  0  0
 33 60  1  0  0  0  0
 33 67  1  0  0  0  0
 33 78  2  0  0  0  0
 34 61  1  0  0  0  0
 34 73  1  0  0  0  0
 34 79  2  0  0  0  0
 35 68  1  0  0  0  0
 35 69  1  0  0  0  0
 35 80  2  0  0  0  0
 36 39  1  0  0  0  0
 37 50  1  0  0  0  0
 38 67  1  0  0  0  0
 39 41  1  0  0  0  0
 40 42  1  0  0  0  0
 40 43  1  0  0  0  0
 41 49  1  0  0  0  0
 42 51  1  0  0  0  0
 43 68  1  0  0  0  0
 44 47  1  0  0  0  0
 44 69  1  0  0  0  0
 45 48  1  0  0  0  0
 45 69  1  0  0  0  0
 46 51  1  0  0  0  0
 46 68  1  0  0  0  0
 47 74  1  0  0  0  0
 48 74  1  0  0  0  0
 49 72  1  0  0  0  0
 50 67  1  0  0  0  0
 51 66  1  0  0  0  0
 52 61  1  0  0  0  0
 53 62  1  0  0  0  0
 54 62  1  0  0  0  0
 55 62  1  0  0  0  0
 56 75  1  0  0  0  0
 57 74  1  0  0  0  0
 58 59  1  0  0  0  0
 58 65  1  0  0  0  0
 59 82  1  0  0  0  0
 60 62  1  0  0  0  0
 60 73  1  0  0  0  0
 61 75  1  0  0  0  0
 63 65  1  0  0  0  0
 64 66  1  0  0  0  0
M  CHG  2  74   1  75   1
M  ISO  4  35 100  59 101  69 100  82 101
M  END
> <Batch ID>
0193

> <Smiles>
CNC(C)C(=O)NC(C(=O)N1Cc2cc([101O:1][101CH2:1]Cn3cc(CN4CC[100N:0]([100C:0](=O)N5CCCC(n6nc(-c7ccc(Oc8ccc(F)cc8F)cc7)c(C(N)=O)c6N)C5)CC4)cn3)ccc2CC1C(=O)NC1CCCc2ccccc21)C(C)(C)C

> <Shape>
0.262

> <Color>
0.104

> <Negative vol penalty>
0.000

$$$$

  -OEChem-04052323323D

 88 97  0     1  0  0  0  0  0999 V2000
  -16.9481  -31.5542   23.9136 C   0  0  0  0  0  0  0  0  0  0  0  0
  -18.2178  -32.0466   24.1979 C   0  0  0  0  0  0  0  0  0  0  0  0
  -26.2016  -12.8657   21.4623 C   0  0  0  0  0  0  0  0  0  0  0  0
  -24.5336  -13.1442   19.7368 C   0  0  0  0  0  0  0  0  0  0  0  0
  -16.7908  -30.2318   23.5010 C   0  0  0  0  0  0  0  0  0  0  0  0
  -19.3309  -31.2164   24.0709 C   0  0  0  0  0  0  0  0  0  0  0  0
  -26.2741  -31.4167   22.3194 C   0  0  0  0  0  0  0  0  0  0  0  0
  -25.4975  -11.7723   21.9666 C   0  0  0  0  0  0  0  0  0  0  0  0
  -23.8295  -12.0507   20.2411 C   0  0  0  0  0  0  0  0  0  0  0  0
  -27.5206  -31.0323   22.8117 C   0  0  0  0  0  0  0  0  0  0  0  0
  -24.0423   -8.6804   20.1155 C   0  0  0  0  0  0  0  0  0  0  0  0
  -23.5662   -7.7406   19.2013 C   0  0  0  0  0  0  0  0  0  0  0  0
  -34.3706  -27.4008   23.3964 C   0  0  0  0  0  0  0  0  0  0  0  0
  -27.1365  -28.7880   22.0148 C   0  0  0  0  0  0  0  0  0  0  0  0
  -21.3055   -8.1692   19.9381 C   0  0  0  0  0  0  0  0  0  0  0  0
  -34.5940  -26.3825   24.3006 C   0  0  0  0  0  0  0  0  0  0  0  0
  -25.7197  -13.5517   20.3475 C   0  0  0  0  0  0  0  0  0  0  0  0
  -27.4568  -14.6639   18.8465 C   0  0  0  0  0  0  0  0  0  0  0  0
  -17.9035  -29.3877   23.3596 C   0  0  0  0  0  0  0  0  0  0  0  0
  -25.4435  -30.4854   21.6798 C   0  0  0  0  0  0  0  0  0  0  0  0
  -19.1882  -29.8810   23.6573 C   0  0  0  0  0  0  0  0  0  0  0  0
  -25.8810  -29.1637   21.5131 C   0  0  0  0  0  0  0  0  0  0  0  0
  -24.3114  -11.3648   21.3560 C   0  0  0  0  0  0  0  0  0  0  0  0
  -27.9508  -29.7171   22.6620 C   0  0  0  0  0  0  0  0  0  0  0  0
  -23.1500   -9.3645   20.9411 C   0  0  0  0  0  0  0  0  0  0  0  0
  -22.1978   -7.4850   19.1126 C   0  0  0  0  0  0  0  0  0  0  0  0
  -21.7816   -9.1089   20.8523 C   0  0  0  0  0  0  0  0  0  0  0  0
  -26.4463  -14.6816   19.8265 C   0  0  0  0  0  0  0  0  0  0  0  0
  -33.2856  -27.2301   22.5611 C   0  0  0  0  0  0  0  0  0  0  0  0
  -27.8214  -15.9806   18.7054 C   0  0  0  0  0  0  0  0  0  0  0  0
  -32.7964  -25.2292   23.5223 C   0  0  0  0  0  0  0  0  0  0  0  0
  -28.0159  -13.5563   18.1279 C   0  0  0  0  0  0  0  0  0  0  0  0
  -22.5549  -29.2896   22.2544 C   0  0  0  0  0  0  0  0  0  0  0  0
  -22.9880  -27.8858   19.3623 C   0  0  0  0  0  0  0  0  0  0  0  0
  -25.1620  -26.7671   16.9813 C   0  0  0  0  0  0  0  0  0  0  0  0
  -29.1266  -20.8122   20.6439 C   0  0  0  0  0  0  0  0  0  0  0  0
  -17.6789  -27.9519   22.9562 C   0  0  0  0  0  0  0  0  0  0  0  0
  -24.1130  -30.9223   21.1307 C   0  0  0  0  0  0  0  0  0  0  0  0
  -25.0356  -28.1304   20.8160 C   0  0  0  0  0  0  0  0  0  0  0  0
  -18.9479  -27.2457   22.4859 C   0  0  0  0  0  0  0  0  0  0  0  0
  -25.6733  -20.2086   20.4457 C   0  0  0  0  0  0  0  0  0  0  0  0
  -20.0995  -27.5206   23.4476 C   0  0  0  0  0  0  0  0  0  0  0  0
  -25.6429  -18.7027   20.1862 C   0  0  0  0  0  0  0  0  0  0  0  0
  -29.8889  -22.8936   23.3780 C   0  0  0  0  0  0  0  0  0  0  0  0
  -31.3037  -23.4124   21.3539 C   0  0  0  0  0  0  0  0  0  0  0  0
  -26.7413  -20.5920   21.4716 C   0  0  0  0  0  0  0  0  0  0  0  0
  -28.7213  -22.5436   22.4507 C   0  0  0  0  0  0  0  0  0  0  0  0
  -30.1039  -23.0807   20.4710 C   0  0  0  0  0  0  0  0  0  0  0  0
  -28.0652  -18.5870   20.8834 C   0  0  0  0  0  0  0  0  0  0  0  0
  -20.4226  -29.0185   23.5076 C   0  0  1  0  0  0  0  0  0  0  0  0
  -23.1321  -29.7677   20.9520 C   0  0  1  0  0  0  0  0  0  0  0  0
  -27.0410  -18.1781   19.8135 C   0  0  1  0  0  0  0  0  0  0  0  0
  -30.8402  -23.9014   22.7286 C   0  0  0  0  0  0  0  0  0  0  0  0
  -32.9693  -27.7542   20.1079 C   0  0  0  0  0  0  0  0  0  0  0  0
  -25.2199  -25.6318   14.7441 C   0  0  0  0  0  0  0  0  0  0  0  0
  -22.3565  -25.2183   20.7024 C   0  0  0  0  0  0  0  0  0  0  0  0
  -23.3408  -24.0641   18.7106 C   0  0  0  0  0  0  0  0  0  0  0  0
  -21.3318  -25.5181   18.4408 C   0  0  0  0  0  0  0  0  0  0  0  0
  -26.5025  -29.0805   15.7123 C   0  0  0  0  0  0  0  0  0  0  0  0
  -31.5506  -29.6728   23.0648 C   0  0  0  0  0  0  0  0  0  0  0  0
  -30.1899  -30.3316   23.1765 C   0  0  0  0  0  0  0  0  0  1  0  0
  -32.9647  -28.2787   21.5497 C   0  0  1  0  0  0  0  0  0  0  0  0
  -23.5817  -26.5826   18.8847 C   0  0  1  0  0  0  0  0  0  0  0  0
  -25.1967  -26.9644   15.4765 C   0  0  2  0  0  0  0  0  0  0  0  0
  -22.6681  -25.3645   19.1995 C   0  0  0  0  0  0  0  0  0  0  0  0
  -33.8240  -25.2784   24.3913 N   0  0  0  0  0  0  0  0  0  0  0  0
  -26.1857  -15.9119   20.2762 N   0  0  0  0  0  0  0  0  0  0  0  0
  -32.4742  -26.1527   22.5966 N   0  0  0  0  0  0  0  0  0  0  0  0
  -27.0378  -16.6796   19.5758 N   0  0  0  0  0  0  0  0  0  0  0  0
  -23.7401  -28.6049   20.3020 N   0  0  0  0  0  0  0  0  0  0  0  0
  -28.0483  -20.0360   21.0946 N   0  0  0  0  0  0  0  0  0  0  0  0
  -29.2127  -22.1253   21.1300 N   0  0  0  0  0  0  0  0  0  0  0  0
  -28.7326  -16.5970   17.9230 N   0  0  0  0  0  0  0  0  0  0  0  0
  -27.5259  -12.2707   18.3951 N   0  0  0  0  0  0  0  0  0  0  0  0
  -31.9852  -24.1102   23.5872 N   0  0  0  0  0  0  0  0  0  0  0  0
  -21.1819  -29.4188   22.3424 N   0  0  0  0  0  0  0  0  0  0  0  0
  -23.8712  -26.7615   17.4660 N   0  0  0  0  0  0  0  0  0  0  0  0
  -26.4083  -27.7380   15.0833 N   0  3  0  0  0  0  0  0  0  0  0  0
  -31.6360  -28.9428   21.7797 N   0  3  0  0  0  0  0  0  0  0  0  0
  -28.9346  -13.7004   17.2860 O   0  0  0  0  0  0  0  0  0  0  0  0
  -23.2999  -28.8358   23.1150 O   0  0  0  0  0  0  0  0  0  0  0  0
  -21.9006  -28.2557   18.9126 O   0  0  0  0  0  0  0  0  0  0  0  0
  -26.1782  -26.6280   17.6585 O   0  0  0  0  0  0  0  0  0  0  0  0
  -29.9637  -20.3586   19.8536 O   0  0  0  0  0  0  0  0  0  0  0  0
  -23.6242  -10.2978   21.8476 O   0  0  0  0  0  0  0  0  0  0  0  0
  -29.1754  -29.3364   23.1455 O   0  0  0  0  0  0  0  0  0  1  0  0
  -21.7406   -6.5836   18.2336 F   0  0  0  0  0  0  0  0  0  0  0  0
  -20.9195   -9.7639   21.6420 F   0  0  0  0  0  0  0  0  0  0  0  0
  1  2  1  0  0  0  0
  1  5  2  0  0  0  0
  2  6  2  0  0  0  0
  3  8  2  0  0  0  0
  3 17  1  0  0  0  0
  4  9  1  0  0  0  0
  4 17  2  0  0  0  0
  5 19  1  0  0  0  0
  6 21  1  0  0  0  0
  7 10  2  0  0  0  0
  7 20  1  0  0  0  0
  8 23  1  0  0  0  0
  9 23  2  0  0  0  0
 10 24  1  0  0  0  0
 11 12  2  0  0  0  0
 11 25  1  0  0  0  0
 12 26  1  0  0  0  0
 13 16  2  0  0  0  0
 13 29  1  0  0  0  0
 14 22  1  0  0  0  0
 14 24  2  0  0  0  0
 15 26  2  0  0  0  0
 15 27  1  0  0  0  0
 16 66  1  0  0  0  0
 17 28  1  0  0  0  0
 18 28  1  0  0  0  0
 18 30  2  0  0  0  0
 18 32  1  0  0  0  0
 19 21  2  0  0  0  0
 19 37  1  0  0  0  0
 20 22  2  0  0  0  0
 20 38  1  0  0  0  0
 21 50  1  0  0  0  0
 22 39  1  0  0  0  0
 23 85  1  0  0  0  0
 24 86  1  0  0  0  0
 25 27  2  0  0  0  0
 25 85  1  0  0  0  0
 26 87  1  0  0  0  0
 27 88  1  0  0  0  0
 28 67  2  0  0  0  0
 29 62  1  0  0  0  0
 29 68  2  0  0  0  0
 30 69  1  0  0  0  0
 30 73  1  0  0  0  0
 31 66  2  0  0  0  0
 31 68  1  0  0  0  0
 31 75  1  0  0  0  0
 32 74  1  0  0  0  0
 32 80  2  0  0  0  0
 33 51  1  0  0  0  0
 33 76  1  0  0  0  0
 33 81  2  0  0  0  0
 34 63  1  0  0  0  0
 34 70  1  0  0  0  0
 34 82  2  0  0  0  0
 35 64  1  0  0  0  0
 35 77  1  0  0  0  0
 35 83  2  0  0  0  0
 36 71  1  0  0  0  0
 36 72  1  0  0  0  0
 36 84  2  0  0  0  0
 37 40  1  0  0  0  0
 38 51  1  0  0  0  0
 39 70  1  0  0  0  0
 40 42  1  0  0  0  0
 41 43  1  0  0  0  0
 41 46  1  0  0  0  0
 42 50  1  0  0  0  0
 43 52  1  0  0  0  0
 44 47  1  0  0  0  0
 44 53  1  0  0  0  0
 45 48  1  0  0  0  0
 45 53  1  0  0  0  0
 46 71  1  0  0  0  0
 47 72  1  0  0  0  0
 48 72  1  0  0  0  0
 49 52  1  0  0  0  0
 49 71  1  0  0  0  0
 50 76  1  0  0  0  0
 51 70  1  0  0  0  0
 52 69  1  0  0  0  0
 53 75  1  0  0  0  0
 54 62  1  0  0  0  0
 55 64  1  0  0  0  0
 56 65  1  0  0  0  0
 57 65  1  0  0  0  0
 58 65  1  0  0  0  0
 59 78  1  0  0  0  0
 60 61  1  0  0  0  0
 60 79  1  0  0  0  0
 61 86  1  0  0  0  0
 62 79  1  0  0  0  0
 63 65  1  0  0  0  0
 63 77  1  0  0  0  0
 64 78  1  0  0  0  0
 67 69  1  0  0  0  0
M  CHG  2  78   1  79   1
M  ISO  4  36 100  61 101  72 100  86 101
M  END
> <Batch ID>
0193

> <Smiles>
CNC(C)C(=O)NC(C(=O)N1Cc2cc([101O:1][101CH2:1]CNC(C)c3ccnc(NC4CC[100N:0]([100C:0](=O)N5CCCC(n6nc(-c7ccc(Oc8ccc(F)cc8F)cc7)c(C(N)=O)c6N)C5)CC4)n3)ccc2CC1C(=O)NC1CCCc2ccccc21)C(C)(C)C

> <Shape>
0.258

> <Color>
0.094

> <Negative vol penalty>
0.000

$$$$

  -OEChem-04052323323D

 82 91  0     1  0  0  0  0  0999 V2000
  -21.0391  -27.6894   23.1142 C   0  0  0  0  0  0  0  0  0  0  0  0
  -20.9136  -26.5893   22.2719 C   0  0  0  0  0  0  0  0  0  0  0  0
  -30.2557  -23.5961   19.7765 C   0  0  0  0  0  0  0  0  0  0  0  0
  -28.2993  -23.2429   21.1494 C   0  0  0  0  0  0  0  0  0  0  0  0
  -22.0205  -27.6994   24.1044 C   0  0  0  0  0  0  0  0  0  0  0  0
  -21.7704  -25.4989   22.4187 C   0  0  0  0  0  0  0  0  0  0  0  0
  -21.9063  -18.3713   21.7154 C   0  0  0  0  0  0  0  0  0  0  0  0
  -29.9806  -24.9629   19.7360 C   0  0  0  0  0  0  0  0  0  0  0  0
  -28.0241  -24.6098   21.1089 C   0  0  0  0  0  0  0  0  0  0  0  0
  -22.6482  -17.3636   21.1006 C   0  0  0  0  0  0  0  0  0  0  0  0
  -26.6563  -26.8126   18.9392 C   0  0  0  0  0  0  0  0  0  0  0  0
  -25.3389  -27.2016   18.6968 C   0  0  0  0  0  0  0  0  0  0  0  0
  -24.2548  -17.4584   22.8975 C   0  0  0  0  0  0  0  0  0  0  0  0
  -25.2851  -28.3453   20.8242 C   0  0  0  0  0  0  0  0  0  0  0  0
  -29.4150  -22.7361   20.4832 C   0  0  0  0  0  0  0  0  0  0  0  0
  -30.4858  -20.6426   21.4722 C   0  0  0  0  0  0  0  0  0  0  0  0
  -22.8835  -26.6046   24.2697 C   0  0  0  0  0  0  0  0  0  0  0  0
  -22.3396  -18.9386   22.9224 C   0  0  0  0  0  0  0  0  0  0  0  0
  -22.7652  -25.4949   23.4112 C   0  0  0  0  0  0  0  0  0  0  0  0
  -23.5153  -18.4713   23.5269 C   0  0  0  0  0  0  0  0  0  0  0  0
  -28.8648  -25.4698   20.4022 C   0  0  0  0  0  0  0  0  0  0  0  0
  -23.8242  -16.9090   21.6901 C   0  0  0  0  0  0  0  0  0  0  0  0
  -27.2880  -27.1899   20.1242 C   0  0  0  0  0  0  0  0  0  0  0  0
  -24.6533  -27.9680   19.6392 C   0  0  0  0  0  0  0  0  0  0  0  0
  -26.6024  -27.9563   21.0667 C   0  0  0  0  0  0  0  0  0  0  0  0
  -29.6983  -21.3240   20.5249 C   0  0  0  0  0  0  0  0  0  0  0  0
  -30.4423  -19.3289   21.0737 C   0  0  0  0  0  0  0  0  0  0  0  0
  -26.3368  -11.8365   20.4365 C   0  0  0  0  0  0  0  0  0  0  0  0
  -24.5605  -13.6949   20.3205 C   0  0  0  0  0  0  0  0  0  0  0  0
  -31.1933  -21.1516   22.6106 C   0  0  0  0  0  0  0  0  0  0  0  0
  -23.2107  -21.8527   23.8460 C   0  0  0  0  0  0  0  0  0  0  0  0
  -23.3027  -20.4719   26.7798 C   0  0  0  0  0  0  0  0  0  0  0  0
  -23.6221  -17.6237   28.6326 C   0  0  0  0  0  0  0  0  0  0  0  0
  -27.8954  -14.9449   19.3318 C   0  0  0  0  0  0  0  0  0  0  0  0
  -23.9597  -26.6811   25.3235 C   0  0  0  0  0  0  0  0  0  0  0  0
  -21.5140  -20.0062   23.5865 C   0  0  0  0  0  0  0  0  0  0  0  0
  -24.0130  -19.0333   24.8327 C   0  0  0  0  0  0  0  0  0  0  0  0
  -27.7696  -11.7232   19.9946 C   0  0  0  0  0  0  0  0  0  0  0  0
  -25.2914  -11.6956   19.3694 C   0  0  0  0  0  0  0  0  0  0  0  0
  -24.5838  -25.3283   25.6561 C   0  0  0  0  0  0  0  0  0  0  0  0
  -28.7301  -17.2234   16.8137 C   0  0  0  0  0  0  0  0  0  0  0  0
  -24.9220  -24.5676   24.3779 C   0  0  0  0  0  0  0  0  0  0  0  0
  -29.1246  -18.4520   17.6327 C   0  0  0  0  0  0  0  0  0  0  0  0
  -27.9976  -12.5629   18.7051 C   0  0  0  0  0  0  0  0  0  0  0  0
  -27.5032  -16.5178   17.3941 C   0  0  0  0  0  0  0  0  0  0  0  0
  -28.0290  -17.3962   19.6453 C   0  0  0  0  0  0  0  0  0  0  0  0
  -23.6596  -24.2827   23.5552 C   0  0  1  0  0  0  0  0  0  0  0  0
  -22.3194  -20.8704   24.5518 C   0  0  1  0  0  0  0  0  0  0  0  0
  -29.2935  -18.0927   19.1197 C   0  0  2  0  0  0  0  0  0  0  0  0
  -25.8384  -13.9037   18.2206 C   0  0  1  0  0  0  0  0  0  0  0  0
  -25.5874  -13.4112   16.7985 C   0  0  0  0  0  0  0  0  0  0  0  0
  -23.6951  -16.8165   31.0076 C   0  0  0  0  0  0  0  0  0  0  0  0
  -26.1561  -21.5194   27.0456 C   0  0  0  0  0  0  0  0  0  0  0  0
  -26.4912  -19.9226   28.9446 C   0  0  0  0  0  0  0  0  0  0  0  0
  -24.7728  -21.7225   29.1192 C   0  0  0  0  0  0  0  0  0  0  0  0
  -21.2230  -15.9328   28.2537 C   0  0  0  0  0  0  0  0  0  0  0  0
  -23.8393  -14.9733   20.3085 C   0  0  0  0  0  0  0  0  0  1  0  0
  -24.3537  -19.7529   27.5905 C   0  0  1  0  0  0  0  0  0  0  0  0
  -22.8129  -17.0842   29.7981 C   0  0  2  0  0  0  0  0  0  0  0  0
  -25.4354  -20.7199   28.1494 C   0  0  0  0  0  0  0  0  0  0  0  0
  -29.1918  -20.5104   19.5945 N   0  0  0  0  0  0  0  0  0  0  0  0
  -26.0253  -12.2773   21.6219 N   0  0  0  0  0  0  0  0  0  0  0  0
  -29.6621  -19.3043   19.9553 N   0  0  0  0  0  0  0  0  0  0  0  0
  -25.0166  -13.1263   19.1947 N   0  0  0  0  0  0  0  0  0  0  0  0
  -23.1741  -20.0797   25.4398 N   0  0  0  0  0  0  0  0  0  0  0  0
  -27.6914  -16.2341   18.8217 N   0  0  0  0  0  0  0  0  0  0  0  0
  -27.2951  -13.8735   18.6314 N   0  0  0  0  0  0  0  0  0  0  0  0
  -24.8711  -13.1339   21.4987 N   0  3  0  0  0  0  0  0  0  0  0  0
  -30.9957  -18.2039   21.5743 N   0  0  0  0  0  0  0  0  0  0  0  0
  -31.1319  -22.5265   22.8755 N   0  0  0  0  0  0  0  0  0  0  0  0
  -22.9236  -23.1750   24.1261 N   0  0  0  0  0  0  0  0  0  0  0  0
  -23.6362  -19.0024   28.6154 N   0  0  0  0  0  0  0  0  0  0  0  0
  -22.1401  -15.8105   29.4160 N   0  3  0  0  0  0  0  0  0  0  0  0
  -31.8736  -20.4116   23.3610 O   0  0  0  0  0  0  0  0  0  0  0  0
  -24.0945  -21.4413   23.1034 O   0  0  0  0  0  0  0  0  0  0  0  0
  -22.6160  -21.3441   27.3176 O   0  0  0  0  0  0  0  0  0  0  0  0
  -24.1885  -16.8950   27.8210 O   0  0  0  0  0  0  0  0  0  0  0  0
  -28.5641  -14.7579   20.3562 O   0  0  0  0  0  0  0  0  0  0  0  0
  -28.5962  -26.8036   20.3631 O   0  0  0  0  0  0  0  0  0  0  0  0
  -24.5564  -15.9181   21.0870 O   0  0  0  0  0  0  0  0  0  1  0  0
  -23.3887  -28.3428   19.4056 F   0  0  0  0  0  0  0  0  0  0  0  0
  -27.2045  -28.3228   22.2064 F   0  0  0  0  0  0  0  0  0  0  0  0
  1  2  1  0  0  0  0
  1  5  2  0  0  0  0
  2  6  2  0  0  0  0
  3  8  2  0  0  0  0
  3 15  1  0  0  0  0
  4  9  1  0  0  0  0
  4 15  2  0  0  0  0
  5 17  1  0  0  0  0
  6 19  1  0  0  0  0
  7 10  2  0  0  0  0
  7 18  1  0  0  0  0
  8 21  1  0  0  0  0
  9 21  2  0  0  0  0
 10 22  1  0  0  0  0
 11 12  2  0  0  0  0
 11 23  1  0  0  0  0
 12 24  1  0  0  0  0
 13 20  1  0  0  0  0
 13 22  2  0  0  0  0
 14 24  2  0  0  0  0
 14 25  1  0  0  0  0
 15 26  1  0  0  0  0
 16 26  1  0  0  0  0
 16 27  2  0  0  0  0
 16 30  1  0  0  0  0
 17 19  2  0  0  0  0
 17 35  1  0  0  0  0
 18 20  2  0  0  0  0
 18 36  1  0  0  0  0
 19 47  1  0  0  0  0
 20 37  1  0  0  0  0
 21 79  1  0  0  0  0
 22 80  1  0  0  0  0
 23 25  2  0  0  0  0
 23 79  1  0  0  0  0
 24 81  1  0  0  0  0
 25 82  1  0  0  0  0
 26 61  2  0  0  0  0
 27 63  1  0  0  0  0
 27 69  1  0  0  0  0
 28 38  1  0  0  0  0
 28 39  1  0  0  0  0
 28 62  2  0  0  0  0
 29 57  1  0  0  0  0
 29 64  1  0  0  0  0
 29 68  2  0  0  0  0
 30 70  1  0  0  0  0
 30 74  2  0  0  0  0
 31 48  1  0  0  0  0
 31 71  1  0  0  0  0
 31 75  2  0  0  0  0
 32 58  1  0  0  0  0
 32 65  1  0  0  0  0
 32 76  2  0  0  0  0
 33 59  1  0  0  0  0
 33 72  1  0  0  0  0
 33 77  2  0  0  0  0
 34 66  1  0  0  0  0
 34 67  1  0  0  0  0
 34 78  2  0  0  0  0
 35 40  1  0  0  0  0
 36 48  1  0  0  0  0
 37 65  1  0  0  0  0
 38 44  1  0  0  0  0
 39 64  1  0  0  0  0
 40 42  1  0  0  0  0
 41 43  1  0  0  0  0
 41 45  1  0  0  0  0
 42 47  1  0  0  0  0
 43 49  1  0  0  0  0
 44 67  1  0  0  0  0
 45 66  1  0  0  0  0
 46 49  1  0  0  0  0
 46 66  1  0  0  0  0
 47 71  1  0  0  0  0
 48 65  1  0  0  0  0
 49 63  1  0  0  0  0
 50 51  1  0  0  0  0
 50 64  1  0  0  0  0
 50 67  1  0  0  0  0
 52 59  1  0  0  0  0
 53 60  1  0  0  0  0
 54 60  1  0  0  0  0
 55 60  1  0  0  0  0
 56 73  1  0  0  0  0
 57 80  1  0  0  0  0
 58 60  1  0  0  0  0
 58 72  1  0  0  0  0
 59 73  1  0  0  0  0
 61 63  1  0  0  0  0
 62 68  1  0  0  0  0
M  CHG  2  68   1  73   1
M  ISO  4  34 100  57 101  67 100  80 101
M  END
> <Batch ID>
0193

> <Smiles>
CNC(C)C(=O)NC(C(=O)N1Cc2cc([101O:1][101CH2:1]C3=NN=C4CC[100N:0]([100C:0](=O)N5CCCC(n6nc(-c7ccc(Oc8ccc(F)cc8F)cc7)c(C(N)=O)c6N)C5)C(C)N3C4)ccc2CC1C(=O)NC1CCCc2ccccc21)C(C)(C)C

> <Shape>
0.181

> <Color>
0.069

> <Negative vol penalty>
0.000

$$$$

  -OEChem-04052323323D

 86 95  0     1  0  0  0  0  0999 V2000
  -17.5773  -24.8229   24.5975 C   0  0  0  0  0  0  0  0  0  0  0  0
  -18.9331  -24.5238   24.6862 C   0  0  0  0  0  0  0  0  0  0  0  0
  -24.3463   -9.4798   22.3025 C   0  0  0  0  0  0  0  0  0  0  0  0
  -24.1681   -9.2008   19.9093 C   0  0  0  0  0  0  0  0  0  0  0  0
  -17.1591  -25.9593   23.9062 C   0  0  0  0  0  0  0  0  0  0  0  0
  -19.8714  -25.3603   24.0827 C   0  0  0  0  0  0  0  0  0  0  0  0
  -23.8363  -26.3167   27.0844 C   0  0  0  0  0  0  0  0  0  0  0  0
  -23.2246   -8.6701   22.4804 C   0  0  0  0  0  0  0  0  0  0  0  0
  -23.0464   -8.3910   20.0872 C   0  0  0  0  0  0  0  0  0  0  0  0
  -24.8059  -25.3210   27.1952 C   0  0  0  0  0  0  0  0  0  0  0  0
  -20.6231   -6.3828   23.5830 C   0  0  0  0  0  0  0  0  0  0  0  0
  -20.6804   -5.4044   24.5755 C   0  0  0  0  0  0  0  0  0  0  0  0
  -26.1906  -26.5017   25.6116 C   0  0  0  0  0  0  0  0  0  0  0  0
  -22.5674   -4.3858   23.4624 C   0  0  0  0  0  0  0  0  0  0  0  0
  -24.8181   -9.7452   21.0169 C   0  0  0  0  0  0  0  0  0  0  0  0
  -27.3220  -10.1716   20.7799 C   0  0  0  0  0  0  0  0  0  0  0  0
  -18.0934  -26.8154   23.3022 C   0  0  0  0  0  0  0  0  0  0  0  0
  -24.0322  -27.4087   26.2267 C   0  0  0  0  0  0  0  0  0  0  0  0
  -19.4653  -26.5085   23.3816 C   0  0  0  0  0  0  0  0  0  0  0  0
  -25.2231  -27.5112   25.4937 C   0  0  0  0  0  0  0  0  0  0  0  0
  -22.5746   -8.1256   21.3728 C   0  0  0  0  0  0  0  0  0  0  0  0
  -25.9820  -25.4119   26.4565 C   0  0  0  0  0  0  0  0  0  0  0  0
  -21.5379   -6.3627   22.5302 C   0  0  0  0  0  0  0  0  0  0  0  0
  -21.6525   -4.4059   24.5152 C   0  0  0  0  0  0  0  0  0  0  0  0
  -22.5100   -5.3643   22.4699 C   0  0  0  0  0  0  0  0  0  0  0  0
  -25.9764  -10.5820   20.8324 C   0  0  0  0  0  0  0  0  0  0  0  0
  -29.0070  -23.4500   25.9420 C   0  0  0  0  0  0  0  0  0  0  0  0
  -29.8134  -23.1437   27.0127 C   0  0  0  0  0  0  0  0  0  0  0  0
  -28.0285  -11.3342   20.5909 C   0  0  0  0  0  0  0  0  0  0  0  0
  -29.9785  -21.6295   25.4201 C   0  0  0  0  0  0  0  0  0  0  0  0
  -27.8831   -8.8569   20.8919 C   0  0  0  0  0  0  0  0  0  0  0  0
  -22.5393  -28.5398   23.6585 C   0  0  0  0  0  0  0  0  0  0  0  0
  -24.6523  -30.9792   23.9852 C   0  0  0  0  0  0  0  0  0  0  0  0
  -27.6623  -32.0658   25.1711 C   0  0  0  0  0  0  0  0  0  0  0  0
  -29.1431  -16.4756   21.6537 C   0  0  0  0  0  0  0  0  0  0  0  0
  -17.5906  -28.0064   22.5255 C   0  0  0  0  0  0  0  0  0  0  0  0
  -22.9882  -28.4880   26.1387 C   0  0  0  0  0  0  0  0  0  0  0  0
  -25.4906  -28.6736   24.5740 C   0  0  0  0  0  0  0  0  0  0  0  0
  -18.6719  -29.0436   22.2333 C   0  0  0  0  0  0  0  0  0  0  0  0
  -26.4691  -15.9966   19.4291 C   0  0  0  0  0  0  0  0  0  0  0  0
  -19.9362  -28.3652   21.7154 C   0  0  0  0  0  0  0  0  0  0  0  0
  -26.2047  -14.4998   19.5902 C   0  0  0  0  0  0  0  0  0  0  0  0
  -28.6525  -19.3569   23.6146 C   0  0  0  0  0  0  0  0  0  0  0  0
  -31.0646  -19.0578   22.9363 C   0  0  0  0  0  0  0  0  0  0  0  0
  -26.7770  -16.6715   20.7669 C   0  0  0  0  0  0  0  0  0  0  0  0
  -28.2190  -18.7528   22.2757 C   0  0  0  0  0  0  0  0  0  0  0  0
  -30.5851  -18.4879   21.6042 C   0  0  0  0  0  0  0  0  0  0  0  0
  -27.6090  -14.5312   21.6864 C   0  0  0  0  0  0  0  0  0  0  0  0
  -20.5150  -27.4048   22.7614 C   0  0  1  0  0  0  0  0  0  0  0  0
  -23.0690  -29.2934   24.8456 C   0  0  1  0  0  0  0  0  0  0  0  0
  -27.3538  -13.8148   20.3513 C   0  0  1  0  0  0  0  0  0  0  0  0
  -30.0261  -20.0241   23.5121 C   0  0  0  0  0  0  0  0  0  0  0  0
  -29.3179  -23.1733   29.4704 C   0  0  0  0  0  0  0  0  0  0  0  0
  -29.1304  -34.0994   25.2504 C   0  0  0  0  0  0  0  0  0  0  0  0
  -25.4403  -30.5209   21.0733 C   0  0  0  0  0  0  0  0  0  0  0  0
  -27.5009  -31.8807   21.4896 C   0  0  0  0  0  0  0  0  0  0  0  0
  -25.2488  -32.9247   21.7362 C   0  0  0  0  0  0  0  0  0  0  0  0
  -31.3830  -21.2466   27.4716 C   0  0  0  0  0  0  0  0  0  0  0  0
  -27.5774  -32.1544   28.1281 C   0  0  0  0  0  0  0  0  0  0  0  0
  -28.1116  -24.6054   25.7709 C   0  0  0  0  0  0  0  0  0  1  0  0
  -30.0469  -23.8334   28.2940 C   0  0  0  0  0  0  0  0  0  0  0  0
  -26.0425  -31.2655   23.4710 C   0  0  1  0  0  0  0  0  0  0  0  0
  -28.0462  -33.3041   25.9608 C   0  0  2  0  0  0  0  0  0  0  0  0
  -26.0525  -31.6249   21.9583 C   0  0  0  0  0  0  0  0  0  0  0  0
  -25.8341  -11.9023   20.6886 N   0  0  0  0  0  0  0  0  0  0  0  0
  -29.1141  -22.5033   24.9541 N   0  0  0  0  0  0  0  0  0  0  0  0
  -30.4290  -21.9747   26.6639 N   0  0  0  0  0  0  0  0  0  0  0  0
  -27.0993  -12.3315   20.5439 N   0  0  0  0  0  0  0  0  0  0  0  0
  -24.4368  -29.7002   24.5175 N   0  0  0  0  0  0  0  0  0  0  0  0
  -27.8510  -15.9597   21.4737 N   0  0  0  0  0  0  0  0  0  0  0  0
  -29.2654  -17.8704   21.7396 N   0  0  0  0  0  0  0  0  0  0  0  0
  -29.3476  -11.5905   20.4621 N   0  0  0  0  0  0  0  0  0  0  0  0
  -27.0145   -7.7738   21.0835 N   0  0  0  0  0  0  0  0  0  0  0  0
  -30.4460  -20.4731   24.8213 N   0  0  0  0  0  0  0  0  0  0  0  0
  -21.2225  -28.1411   23.7869 N   0  0  0  0  0  0  0  0  0  0  0  0
  -26.5916  -32.3044   24.3356 N   0  0  0  0  0  0  0  0  0  0  0  0
  -28.5511  -32.9222   27.3099 N   0  3  0  0  0  0  0  0  0  0  0  0
  -29.1194   -8.6508   20.8403 O   0  0  0  0  0  0  0  0  0  0  0  0
  -23.2708  -28.3364   22.6965 O   0  0  0  0  0  0  0  0  0  0  0  0
  -23.7913  -31.8604   23.9235 O   0  0  0  0  0  0  0  0  0  0  0  0
  -28.2554  -30.9950   25.2814 O   0  0  0  0  0  0  0  0  0  0  0  0
  -30.1301  -15.7334   21.7332 O   0  0  0  0  0  0  0  0  0  0  0  0
  -21.4802   -7.3353   21.5461 O   0  0  0  0  0  0  0  0  0  0  0  0
  -26.9341  -24.4365   26.5627 O   0  0  0  0  0  0  0  0  0  1  0  0
  -21.7084   -3.4673   25.4692 F   0  0  0  0  0  0  0  0  0  0  0  0
  -23.3923   -5.3405   21.4615 F   0  0  0  0  0  0  0  0  0  0  0  0
  1  2  1  0  0  0  0
  1  5  2  0  0  0  0
  2  6  2  0  0  0  0
  3  8  2  0  0  0  0
  3 15  1  0  0  0  0
  4  9  1  0  0  0  0
  4 15  2  0  0  0  0
  5 17  1  0  0  0  0
  6 19  1  0  0  0  0
  7 10  2  0  0  0  0
  7 18  1  0  0  0  0
  8 21  1  0  0  0  0
  9 21  2  0  0  0  0
 10 22  1  0  0  0  0
 11 12  2  0  0  0  0
 11 23  1  0  0  0  0
 12 24  1  0  0  0  0
 13 20  1  0  0  0  0
 13 22  2  0  0  0  0
 14 24  2  0  0  0  0
 14 25  1  0  0  0  0
 15 26  1  0  0  0  0
 16 26  1  0  0  0  0
 16 29  2  0  0  0  0
 16 31  1  0  0  0  0
 17 19  2  0  0  0  0
 17 36  1  0  0  0  0
 18 20  2  0  0  0  0
 18 37  1  0  0  0  0
 19 49  1  0  0  0  0
 20 38  1  0  0  0  0
 21 83  1  0  0  0  0
 22 84  1  0  0  0  0
 23 25  2  0  0  0  0
 23 83  1  0  0  0  0
 24 85  1  0  0  0  0
 25 86  1  0  0  0  0
 26 65  2  0  0  0  0
 27 28  2  0  0  0  0
 27 60  1  0  0  0  0
 27 66  1  0  0  0  0
 28 61  1  0  0  0  0
 28 67  1  0  0  0  0
 29 68  1  0  0  0  0
 29 72  1  0  0  0  0
 30 66  2  0  0  0  0
 30 67  1  0  0  0  0
 30 74  1  0  0  0  0
 31 73  1  0  0  0  0
 31 78  2  0  0  0  0
 32 50  1  0  0  0  0
 32 75  1  0  0  0  0
 32 79  2  0  0  0  0
 33 62  1  0  0  0  0
 33 69  1  0  0  0  0
 33 80  2  0  0  0  0
 34 63  1  0  0  0  0
 34 76  1  0  0  0  0
 34 81  2  0  0  0  0
 35 70  1  0  0  0  0
 35 71  1  0  0  0  0
 35 82  2  0  0  0  0
 36 39  1  0  0  0  0
 37 50  1  0  0  0  0
 38 69  1  0  0  0  0
 39 41  1  0  0  0  0
 40 42  1  0  0  0  0
 40 45  1  0  0  0  0
 41 49  1  0  0  0  0
 42 51  1  0  0  0  0
 43 46  1  0  0  0  0
 43 52  1  0  0  0  0
 44 47  1  0  0  0  0
 44 52  1  0  0  0  0
 45 70  1  0  0  0  0
 46 71  1  0  0  0  0
 47 71  1  0  0  0  0
 48 51  1  0  0  0  0
 48 70  1  0  0  0  0
 49 75  1  0  0  0  0
 50 69  1  0  0  0  0
 51 68  1  0  0  0  0
 52 74  1  0  0  0  0
 53 61  1  0  0  0  0
 54 63  1  0  0  0  0
 55 64  1  0  0  0  0
 56 64  1  0  0  0  0
 57 64  1  0  0  0  0
 58 67  1  0  0  0  0
 59 77  1  0  0  0  0
 60 84  1  0  0  0  0
 62 64  1  0  0  0  0
 62 76  1  0  0  0  0
 63 77  1  0  0  0  0
 65 68  1  0  0  0  0
M  CHG  1  77   1
M  ISO  4  35 100  60 101  71 100  84 101
M  END
> <Batch ID>
0193

> <Smiles>
CCc1c([101CH2:1][101O:1]c2ccc3c(c2)CN(C(=O)C(NC(=O)C(C)NC)C(C)(C)C)C(C(=O)NC2CCCc4ccccc42)C3)nc(NC2CC[100N:0]([100C:0](=O)N3CCCC(n4nc(-c5ccc(Oc6ccc(F)cc6F)cc5)c(C(N)=O)c4N)C3)CC2)n1C

> <Shape>
0.250

> <Color>
0.110

> <Negative vol penalty>
0.000

$$$$

  -OEChem-04052323323D

 82 91  0     1  0  0  0  0  0999 V2000
  -23.6200  -31.9147   13.0538 C   0  0  0  0  0  0  0  0  0  0  0  0
  -23.9060  -30.7397   13.7416 C   0  0  0  0  0  0  0  0  0  0  0  0
  -23.0910   -9.7921   19.9468 C   0  0  0  0  0  0  0  0  0  0  0  0
  -23.8348   -9.8415   22.2450 C   0  0  0  0  0  0  0  0  0  0  0  0
  -24.5751  -32.9277   12.9797 C   0  0  0  0  0  0  0  0  0  0  0  0
  -25.1477  -30.5766   14.3547 C   0  0  0  0  0  0  0  0  0  0  0  0
  -26.3104  -27.6059   19.5824 C   0  0  0  0  0  0  0  0  0  0  0  0
  -22.3699   -8.6265   20.2053 C   0  0  0  0  0  0  0  0  0  0  0  0
  -23.1137   -8.6758   22.5034 C   0  0  0  0  0  0  0  0  0  0  0  0
  -26.7830  -26.3209   19.8460 C   0  0  0  0  0  0  0  0  0  0  0  0
  -19.8990   -7.8168   23.0938 C   0  0  0  0  0  0  0  0  0  0  0  0
  -19.1350   -7.7743   24.2600 C   0  0  0  0  0  0  0  0  0  0  0  0
  -29.0219  -27.1941   20.0564 C   0  0  0  0  0  0  0  0  0  0  0  0
  -20.4120   -5.8722   25.0271 C   0  0  0  0  0  0  0  0  0  0  0  0
  -29.1171  -21.8813   19.7332 C   0  0  0  0  0  0  0  0  0  0  0  0
  -28.8169  -20.8591   22.1811 C   0  0  0  0  0  0  0  0  0  0  0  0
  -23.8235  -10.3997   20.9667 C   0  0  0  0  0  0  0  0  0  0  0  0
  -24.1128  -12.9299   20.8196 C   0  0  0  0  0  0  0  0  0  0  0  0
  -25.8257  -32.7809   13.6004 C   0  0  0  0  0  0  0  0  0  0  0  0
  -27.1932  -28.6947   19.5430 C   0  0  0  0  0  0  0  0  0  0  0  0
  -26.1209  -31.5880   14.2877 C   0  0  0  0  0  0  0  0  0  0  0  0
  -28.5576  -28.4921   19.7946 C   0  0  0  0  0  0  0  0  0  0  0  0
  -22.3812   -8.0683   21.4835 C   0  0  0  0  0  0  0  0  0  0  0  0
  -28.1393  -26.1144   20.0802 C   0  0  0  0  0  0  0  0  0  0  0  0
  -20.9194   -6.8870   22.8941 C   0  0  0  0  0  0  0  0  0  0  0  0
  -19.3915   -6.8020   25.2267 C   0  0  0  0  0  0  0  0  0  0  0  0
  -21.1759   -5.9147   23.8608 C   0  0  0  0  0  0  0  0  0  0  0  0
  -24.5690  -11.6035   20.7002 C   0  0  0  0  0  0  0  0  0  0  0  0
  -28.3417  -22.5161   20.6784 C   0  0  0  0  0  0  0  0  0  0  0  0
  -29.5917  -20.2239   21.2358 C   0  0  0  0  0  0  0  0  0  0  0  0
  -25.1914  -13.6982   20.4549 C   0  0  0  0  0  0  0  0  0  0  0  0
  -22.8289  -13.4235   21.2241 C   0  0  0  0  0  0  0  0  0  0  0  0
  -28.0758  -30.7875   17.3193 C   0  0  0  0  0  0  0  0  0  0  0  0
  -29.6742  -32.1502   19.7912 C   0  0  0  0  0  0  0  0  0  0  0  0
  -31.1256  -31.7816   22.8579 C   0  0  0  0  0  0  0  0  0  0  0  0
  -30.6437  -14.8451   20.6500 C   0  0  0  0  0  0  0  0  0  0  0  0
  -26.8434  -33.8841   13.4528 C   0  0  0  0  0  0  0  0  0  0  0  0
  -26.6636  -30.0785   19.2838 C   0  0  0  0  0  0  0  0  0  0  0  0
  -29.5436  -29.6307   19.7837 C   0  0  0  0  0  0  0  0  0  0  0  0
  -27.9971  -33.7856   14.4475 C   0  0  0  0  0  0  0  0  0  0  0  0
  -29.5825  -12.3993   18.3039 C   0  0  0  0  0  0  0  0  0  0  0  0
  -28.5304  -32.3577   14.5068 C   0  0  0  0  0  0  0  0  0  0  0  0
  -28.1476  -12.0813   18.7278 C   0  0  0  0  0  0  0  0  0  0  0  0
  -30.4839  -12.6538   19.5101 C   0  0  0  0  0  0  0  0  0  0  0  0
  -28.5571  -13.3602   20.8719 C   0  0  0  0  0  0  0  0  0  0  0  0
  -29.7513  -18.0718   22.5296 C   0  0  0  0  0  0  0  0  0  0  0  0
  -30.7872  -18.0757   20.7003 C   0  0  0  0  0  0  0  0  0  0  0  0
  -27.4474  -31.3838   14.9868 C   0  0  1  0  0  0  0  0  0  0  0  0
  -27.7283  -31.0372   18.7596 C   0  0  1  0  0  0  0  0  0  0  0  0
  -27.5959  -13.1516   19.6890 C   0  0  2  0  0  0  0  0  0  0  0  0
  -30.6739  -17.0556   21.8420 C   0  0  0  0  0  0  0  0  0  0  0  0
  -32.3849  -33.0650   24.6083 C   0  0  0  0  0  0  0  0  0  0  0  0
  -32.1905  -32.0239   18.0701 C   0  0  0  0  0  0  0  0  0  0  0  0
  -33.5427  -32.4091   20.1417 C   0  0  0  0  0  0  0  0  0  0  0  0
  -31.9223  -34.1424   19.3718 C   0  0  0  0  0  0  0  0  0  0  0  0
  -29.0244  -31.3027   24.8863 C   0  0  0  0  0  0  0  0  0  0  0  0
  -27.6449  -23.8040   20.3514 C   0  0  0  0  0  0  0  0  0  1  0  0
  -31.0526  -31.9967   20.3875 C   0  0  1  0  0  0  0  0  0  0  0  0
  -31.0172  -32.6042   24.1290 C   0  0  2  0  0  0  0  0  0  0  0  0
  -32.1590  -32.6210   19.4911 C   0  0  0  0  0  0  0  0  0  0  0  0
  -28.1779  -22.0166   21.9194 N   0  0  0  0  0  0  0  0  0  0  0  0
  -29.7558  -20.7237   19.9949 N   0  0  0  0  0  0  0  0  0  0  0  0
  -25.8385  -11.5297   20.2915 N   0  0  0  0  0  0  0  0  0  0  0  0
  -26.1891  -12.8194   20.1507 N   0  0  0  0  0  0  0  0  0  0  0  0
  -30.2268  -19.0136   21.5928 N   0  0  0  0  0  0  0  0  0  0  0  0
  -28.9781  -30.9640   19.5192 N   0  0  0  0  0  0  0  0  0  0  0  0
  -29.9045  -13.6834   20.3765 N   0  0  0  0  0  0  0  0  0  0  0  0
  -25.3742  -15.0328   20.3678 N   0  0  0  0  0  0  0  0  0  0  0  0
  -21.8341  -12.4971   21.5652 N   0  0  0  0  0  0  0  0  0  0  0  0
  -27.2835  -31.4775   16.4217 N   0  0  0  0  0  0  0  0  0  0  0  0
  -30.9817  -32.5622   21.7304 N   0  0  0  0  0  0  0  0  0  0  0  0
  -30.0251  -15.7808   21.4725 N   0  0  0  0  0  0  0  0  0  0  0  0
  -30.3851  -31.8010   25.2136 N   0  3  0  0  0  0  0  0  0  0  0  0
  -22.5663  -14.6495   21.2656 O   0  0  0  0  0  0  0  0  0  0  0  0
  -28.9955  -30.0264   17.0428 O   0  0  0  0  0  0  0  0  0  0  0  0
  -29.2287  -33.2812   19.5813 O   0  0  0  0  0  0  0  0  0  0  0  0
  -31.3222  -30.5684   22.8643 O   0  0  0  0  0  0  0  0  0  0  0  0
  -31.7733  -15.0449   20.1903 O   0  0  0  0  0  0  0  0  0  0  0  0
  -21.6775   -6.9310   21.7361 O   0  0  0  0  0  0  0  0  0  0  0  0
  -28.6033  -24.8612   20.3370 O   0  0  0  0  0  0  0  0  0  1  0  0
  -18.6588   -6.7623   26.3473 F   0  0  0  0  0  0  0  0  0  0  0  0
  -22.1556   -5.0194   23.6752 F   0  0  0  0  0  0  0  0  0  0  0  0
  1  2  1  0  0  0  0
  1  5  2  0  0  0  0
  2  6  2  0  0  0  0
  3  8  2  0  0  0  0
  3 17  1  0  0  0  0
  4  9  1  0  0  0  0
  4 17  2  0  0  0  0
  5 19  1  0  0  0  0
  6 21  1  0  0  0  0
  7 10  2  0  0  0  0
  7 20  1  0  0  0  0
  8 23  1  0  0  0  0
  9 23  2  0  0  0  0
 10 24  1  0  0  0  0
 11 12  2  0  0  0  0
 11 25  1  0  0  0  0
 12 26  1  0  0  0  0
 13 22  1  0  0  0  0
 13 24  2  0  0  0  0
 14 26  2  0  0  0  0
 14 27  1  0  0  0  0
 15 29  1  0  0  0  0
 15 62  2  0  0  0  0
 16 30  2  0  0  0  0
 16 61  1  0  0  0  0
 17 28  1  0  0  0  0
 18 28  1  0  0  0  0
 18 31  2  0  0  0  0
 18 32  1  0  0  0  0
 19 21  2  0  0  0  0
 19 37  1  0  0  0  0
 20 22  2  0  0  0  0
 20 38  1  0  0  0  0
 21 48  1  0  0  0  0
 22 39  1  0  0  0  0
 23 79  1  0  0  0  0
 24 80  1  0  0  0  0
 25 27  2  0  0  0  0
 25 79  1  0  0  0  0
 26 81  1  0  0  0  0
 27 82  1  0  0  0  0
 28 63  2  0  0  0  0
 29 57  1  0  0  0  0
 29 61  2  0  0  0  0
 30 62  1  0  0  0  0
 30 65  1  0  0  0  0
 31 64  1  0  0  0  0
 31 68  1  0  0  0  0
 32 69  1  0  0  0  0
 32 74  2  0  0  0  0
 33 49  1  0  0  0  0
 33 70  1  0  0  0  0
 33 75  2  0  0  0  0
 34 58  1  0  0  0  0
 34 66  1  0  0  0  0
 34 76  2  0  0  0  0
 35 59  1  0  0  0  0
 35 71  1  0  0  0  0
 35 77  2  0  0  0  0
 36 67  1  0  0  0  0
 36 72  1  0  0  0  0
 36 78  2  0  0  0  0
 37 40  1  0  0  0  0
 38 49  1  0  0  0  0
 39 66  1  0  0  0  0
 40 42  1  0  0  0  0
 41 43  1  0  0  0  0
 41 44  1  0  0  0  0
 42 48  1  0  0  0  0
 43 50  1  0  0  0  0
 44 67  1  0  0  0  0
 45 50  1  0  0  0  0
 45 67  1  0  0  0  0
 46 51  1  0  0  0  0
 46 65  1  0  0  0  0
 47 51  1  0  0  0  0
 47 65  1  0  0  0  0
 48 70  1  0  0  0  0
 49 66  1  0  0  0  0
 50 64  1  0  0  0  0
 51 72  1  0  0  0  0
 52 59  1  0  0  0  0
 53 60  1  0  0  0  0
 54 60  1  0  0  0  0
 55 60  1  0  0  0  0
 56 73  1  0  0  0  0
 57 80  1  0  0  0  0
 58 60  1  0  0  0  0
 58 71  1  0  0  0  0
 59 73  1  0  0  0  0
 63 64  1  0  0  0  0
M  CHG  1  73   1
M  ISO  4  36 100  57 101  72 100  80 101
M  END
> <Batch ID>
0193

> <Smiles>
CNC(C)C(=O)NC(C(=O)N1Cc2cc([101O:1][101CH2:1]c3cnc(N4CC([100NH:0][100C:0](=O)N5CCCC(n6nc(-c7ccc(Oc8ccc(F)cc8F)cc7)c(C(N)=O)c6N)C5)C4)cn3)ccc2CC1C(=O)NC1CCCc2ccccc21)C(C)(C)C

> <Shape>
0.252

> <Color>
0.207

> <Negative vol penalty>
0.000

$$$$

  -OEChem-04052323323D

 85 94  0     1  0  0  0  0  0999 V2000
  -25.8779  -38.3052   20.1448 C   0  0  0  0  0  0  0  0  0  0  0  0
  -26.4966  -37.2334   19.5093 C   0  0  0  0  0  0  0  0  0  0  0  0
  -23.5508   -9.5822   21.5041 C   0  0  0  0  0  0  0  0  0  0  0  0
  -25.8493   -8.9656   21.9205 C   0  0  0  0  0  0  0  0  0  0  0  0
  -25.3347  -38.1401   21.4182 C   0  0  0  0  0  0  0  0  0  0  0  0
  -26.5734  -35.9959   20.1475 C   0  0  0  0  0  0  0  0  0  0  0  0
  -26.5572  -28.9737   18.7315 C   0  0  0  0  0  0  0  0  0  0  0  0
  -23.1331   -8.6960   22.4969 C   0  0  0  0  0  0  0  0  0  0  0  0
  -25.4317   -8.0793   22.9134 C   0  0  0  0  0  0  0  0  0  0  0  0
  -27.3010  -27.8221   18.9852 C   0  0  0  0  0  0  0  0  0  0  0  0
  -22.6506   -5.3663   22.8206 C   0  0  0  0  0  0  0  0  0  0  0  0
  -21.5632   -4.5405   22.5355 C   0  0  0  0  0  0  0  0  0  0  0  0
  -26.2575  -27.6327   21.1519 C   0  0  0  0  0  0  0  0  0  0  0  0
  -20.3470   -5.5027   24.3881 C   0  0  0  0  0  0  0  0  0  0  0  0
  -24.2873  -20.4864   21.1792 C   0  0  0  0  0  0  0  0  0  0  0  0
  -24.9089   -9.7170   21.2158 C   0  0  0  0  0  0  0  0  0  0  0  0
  -24.9920  -10.6063   18.8263 C   0  0  0  0  0  0  0  0  0  0  0  0
  -25.3963  -36.8974   22.0683 C   0  0  0  0  0  0  0  0  0  0  0  0
  -25.6645  -29.4705   19.6921 C   0  0  0  0  0  0  0  0  0  0  0  0
  -26.0317  -35.8143   21.4314 C   0  0  0  0  0  0  0  0  0  0  0  0
  -25.5017  -28.7894   20.9069 C   0  0  0  0  0  0  0  0  0  0  0  0
  -24.0736   -7.9446   23.2016 C   0  0  0  0  0  0  0  0  0  0  0  0
  -27.1533  -27.1531   20.1966 C   0  0  0  0  0  0  0  0  0  0  0  0
  -22.5863   -6.2602   23.8895 C   0  0  0  0  0  0  0  0  0  0  0  0
  -20.4114   -4.6087   23.3193 C   0  0  0  0  0  0  0  0  0  0  0  0
  -21.4344   -6.3284   24.6732 C   0  0  0  0  0  0  0  0  0  0  0  0
  -25.3409  -10.6318   20.1899 C   0  0  0  0  0  0  0  0  0  0  0  0
  -25.6414  -20.4927   20.9624 C   0  0  0  0  0  0  0  0  0  0  0  0
  -25.6567  -11.6778   18.2817 C   0  0  0  0  0  0  0  0  0  0  0  0
  -25.6126  -18.2351   20.9176 C   0  0  0  0  0  0  0  0  0  0  0  0
  -24.1429   -9.6956   18.1155 C   0  0  0  0  0  0  0  0  0  0  0  0
  -25.4327  -32.1690   21.3558 C   0  0  0  0  0  0  0  0  0  0  0  0
  -22.6252  -30.8693   22.3310 C   0  0  0  0  0  0  0  0  0  0  0  0
  -20.7519  -28.0610   22.8323 C   0  0  0  0  0  0  0  0  0  0  0  0
  -27.6676  -16.8220   20.5618 C   0  0  0  0  0  0  0  0  0  0  0  0
  -24.8368  -36.7797   23.4639 C   0  0  0  0  0  0  0  0  0  0  0  0
  -24.8498  -30.6988   19.3924 C   0  0  0  0  0  0  0  0  0  0  0  0
  -24.5416  -29.2701   21.9632 C   0  0  0  0  0  0  0  0  0  0  0  0
  -24.6288  -35.3369   23.9170 C   0  0  0  0  0  0  0  0  0  0  0  0
  -29.5910  -14.3418   18.8807 C   0  0  0  0  0  0  0  0  0  0  0  0
  -25.8572  -34.4929   23.5922 C   0  0  0  0  0  0  0  0  0  0  0  0
  -28.6852  -13.1083   18.8962 C   0  0  0  0  0  0  0  0  0  0  0  0
  -27.6301  -23.8255   19.4670 C   0  0  0  0  0  0  0  0  0  0  0  0
  -29.4664  -15.1532   20.1691 C   0  0  0  0  0  0  0  0  0  0  0  0
  -27.1892  -14.2948   20.5519 C   0  0  0  0  0  0  0  0  0  0  0  0
  -29.7993  -22.9955   20.4525 C   0  0  0  0  0  0  0  0  0  0  0  0
  -29.7542  -25.1819   19.2194 C   0  0  0  0  0  0  0  0  0  0  0  0
  -26.1130  -34.4499   22.0808 C   0  0  1  0  0  0  0  0  0  0  0  0
  -24.3492  -31.4050   20.6487 C   0  0  1  0  0  0  0  0  0  0  0  0
  -28.2798  -23.0272   20.6085 C   0  0  2  0  0  0  0  0  0  0  0  0
  -27.2316  -13.4810   19.2482 C   0  0  2  0  0  0  0  0  0  0  0  0
  -28.2359  -25.2237   19.3253 C   0  0  2  0  0  0  0  0  0  1  0  0
  -18.5098  -27.3133   23.6756 C   0  0  0  0  0  0  0  0  0  0  0  0
  -23.5561  -31.3231   25.2011 C   0  0  0  0  0  0  0  0  0  0  0  0
  -21.7717  -29.7378   25.9567 C   0  0  0  0  0  0  0  0  0  0  0  0
  -21.1466  -31.8522   24.7899 C   0  0  0  0  0  0  0  0  0  0  0  0
  -20.0311  -26.8826   20.2149 C   0  0  0  0  0  0  0  0  0  0  0  0
  -27.7204  -21.6065   20.6577 C   0  0  0  0  0  0  0  0  0  0  0  0
  -22.2004  -29.9720   23.4683 C   0  0  1  0  0  0  0  0  0  0  0  0
  -19.3201  -27.7249   22.4563 C   0  0  2  0  0  0  0  0  0  0  0  0
  -22.1883  -30.7131   24.8351 C   0  0  0  0  0  0  0  0  0  0  0  0
  -23.6080  -19.3282   21.2629 N   0  0  0  0  0  0  0  0  0  0  0  0
  -26.1635  -11.6395   20.4929 N   0  0  0  0  0  0  0  0  0  0  0  0
  -26.3421  -19.3569   20.8252 N   0  0  0  0  0  0  0  0  0  0  0  0
  -24.2835  -18.1678   21.1294 N   0  0  0  0  0  0  0  0  0  0  0  0
  -26.3371  -12.2572   19.3120 N   0  0  0  0  0  0  0  0  0  0  0  0
  -23.7724  -30.4792   21.6256 N   0  0  0  0  0  0  0  0  0  0  0  0
  -28.0625  -15.4733   20.4361 N   0  0  0  0  0  0  0  0  0  0  0  0
  -25.7198  -12.1714   17.0268 N   0  0  0  0  0  0  0  0  0  0  0  0
  -23.5386   -8.6509   18.8281 N   0  0  0  0  0  0  0  0  0  0  0  0
  -26.3029  -17.0051   20.7823 N   0  0  0  0  0  0  0  0  0  0  0  0
  -25.1996  -33.5285   21.4397 N   0  0  0  0  0  0  0  0  0  0  0  0
  -20.9114  -29.4075   23.0833 N   0  0  0  0  0  0  0  0  0  0  0  0
  -30.3136  -24.3943   20.3611 N   0  3  0  0  0  0  0  0  0  0  0  0
  -19.2919  -26.6051   21.4733 N   0  3  0  0  0  0  0  0  0  0  0  0
  -23.9395   -9.7953   16.8817 O   0  0  0  0  0  0  0  0  0  0  0  0
  -26.4073  -31.5693   21.7943 O   0  0  0  0  0  0  0  0  0  0  0  0
  -21.9595  -31.8753   22.0734 O   0  0  0  0  0  0  0  0  0  0  0  0
  -21.6392  -27.2134   22.9005 O   0  0  0  0  0  0  0  0  0  0  0  0
  -28.4758  -17.7477   20.4528 O   0  0  0  0  0  0  0  0  0  0  0  0
  -23.6664   -7.0799   24.1707 O   0  0  0  0  0  0  0  0  0  0  0  0
  -27.8786  -26.0292   20.4471 O   0  0  0  0  0  0  0  0  0  1  0  0
  -26.3252  -21.6810   20.8830 O   0  0  0  0  0  0  0  0  0  0  0  0
  -19.3666   -3.8168   23.0445 F   0  0  0  0  0  0  0  0  0  0  0  0
  -21.3663   -7.1860   25.7006 F   0  0  0  0  0  0  0  0  0  0  0  0
  1  2  1  0  0  0  0
  1  5  2  0  0  0  0
  2  6  2  0  0  0  0
  3  8  2  0  0  0  0
  3 16  1  0  0  0  0
  4  9  1  0  0  0  0
  4 16  2  0  0  0  0
  5 18  1  0  0  0  0
  6 20  1  0  0  0  0
  7 10  2  0  0  0  0
  7 19  1  0  0  0  0
  8 22  1  0  0  0  0
  9 22  2  0  0  0  0
 10 23  1  0  0  0  0
 11 12  2  0  0  0  0
 11 24  1  0  0  0  0
 12 25  1  0  0  0  0
 13 21  1  0  0  0  0
 13 23  2  0  0  0  0
 14 25  2  0  0  0  0
 14 26  1  0  0  0  0
 15 28  1  0  0  0  0
 15 62  2  0  0  0  0
 16 27  1  0  0  0  0
 17 27  1  0  0  0  0
 17 29  2  0  0  0  0
 17 31  1  0  0  0  0
 18 20  2  0  0  0  0
 18 36  1  0  0  0  0
 19 21  2  0  0  0  0
 19 37  1  0  0  0  0
 20 48  1  0  0  0  0
 21 38  1  0  0  0  0
 22 81  1  0  0  0  0
 23 82  1  0  0  0  0
 24 26  2  0  0  0  0
 24 81  1  0  0  0  0
 25 84  1  0  0  0  0
 26 85  1  0  0  0  0
 27 63  2  0  0  0  0
 28 64  2  0  0  0  0
 28 83  1  0  0  0  0
 29 66  1  0  0  0  0
 29 69  1  0  0  0  0
 30 64  1  0  0  0  0
 30 65  2  0  0  0  0
 30 71  1  0  0  0  0
 31 70  1  0  0  0  0
 31 76  2  0  0  0  0
 32 49  1  0  0  0  0
 32 72  1  0  0  0  0
 32 77  2  0  0  0  0
 33 59  1  0  0  0  0
 33 67  1  0  0  0  0
 33 78  2  0  0  0  0
 34 60  1  0  0  0  0
 34 73  1  0  0  0  0
 34 79  2  0  0  0  0
 35 68  1  0  0  0  0
 35 71  1  0  0  0  0
 35 80  2  0  0  0  0
 36 39  1  0  0  0  0
 37 49  1  0  0  0  0
 38 67  1  0  0  0  0
 39 41  1  0  0  0  0
 40 42  1  0  0  0  0
 40 44  1  0  0  0  0
 41 48  1  0  0  0  0
 42 51  1  0  0  0  0
 43 50  1  0  0  0  0
 43 52  1  0  0  0  0
 44 68  1  0  0  0  0
 45 51  1  0  0  0  0
 45 68  1  0  0  0  0
 46 50  1  0  0  0  0
 46 74  1  0  0  0  0
 47 52  1  0  0  0  0
 47 74  1  0  0  0  0
 48 72  1  0  0  0  0
 49 67  1  0  0  0  0
 50 58  1  0  0  0  0
 51 66  1  0  0  0  0
 52 82  1  0  0  0  0
 53 60  1  0  0  0  0
 54 61  1  0  0  0  0
 55 61  1  0  0  0  0
 56 61  1  0  0  0  0
 57 75  1  0  0  0  0
 58 83  1  0  0  0  0
 59 61  1  0  0  0  0
 59 73  1  0  0  0  0
 60 75  1  0  0  0  0
 62 65  1  0  0  0  0
 63 66  1  0  0  0  0
M  CHG  2  74   1  75   1
M  ISO  4  35 100  52 101  71 100  82 101
M  END
> <Batch ID>
0193

> <Smiles>
CNC(C)C(=O)NC(C(=O)N1Cc2cc([101O:1][101CH:1]3CNCC(COc4cnnc([100NH:0][100C:0](=O)N5CCCC(n6nc(-c7ccc(Oc8ccc(F)cc8F)cc7)c(C(N)=O)c6N)C5)n4)C3)ccc2CC1C(=O)NC1CCCc2ccccc21)C(C)(C)C

> <Shape>
0.293

> <Color>
0.082

> <Negative vol penalty>
0.000

$$$$

  -OEChem-04052323323D

 80 89  0     1  0  0  0  0  0999 V2000
  -18.3706  -26.9924   23.1786 C   0  0  0  0  0  0  0  0  0  0  0  0
  -18.1007  -25.7395   23.7176 C   0  0  0  0  0  0  0  0  0  0  0  0
  -27.6600  -23.3522   20.3385 C   0  0  0  0  0  0  0  0  0  0  0  0
  -29.4238  -23.5871   18.7043 C   0  0  0  0  0  0  0  0  0  0  0  0
  -19.4015  -27.1414   22.2533 C   0  0  0  0  0  0  0  0  0  0  0  0
  -18.8692  -24.6377   23.3406 C   0  0  0  0  0  0  0  0  0  0  0  0
  -21.2563  -17.0558   23.1423 C   0  0  0  0  0  0  0  0  0  0  0  0
  -27.6526  -24.7339   20.5291 C   0  0  0  0  0  0  0  0  0  0  0  0
  -29.4164  -24.9689   18.8948 C   0  0  0  0  0  0  0  0  0  0  0  0
  -21.9819  -16.1373   22.3850 C   0  0  0  0  0  0  0  0  0  0  0  0
  -26.4341  -27.4606   18.9437 C   0  0  0  0  0  0  0  0  0  0  0  0
  -25.1964  -28.1021   18.9889 C   0  0  0  0  0  0  0  0  0  0  0  0
  -23.8951  -17.6053   22.4487 C   0  0  0  0  0  0  0  0  0  0  0  0
  -25.6797  -28.8773   21.2255 C   0  0  0  0  0  0  0  0  0  0  0  0
  -28.5457  -22.7787   19.4261 C   0  0  0  0  0  0  0  0  0  0  0  0
  -27.7924  -20.6167   18.3010 C   0  0  0  0  0  0  0  0  0  0  0  0
  -20.1746  -26.0380   21.8560 C   0  0  0  0  0  0  0  0  0  0  0  0
  -21.8421  -18.2629   23.5499 C   0  0  0  0  0  0  0  0  0  0  0  0
  -19.9296  -24.7722   22.4262 C   0  0  0  0  0  0  0  0  0  0  0  0
  -23.1755  -18.5363   23.2133 C   0  0  0  0  0  0  0  0  0  0  0  0
  -28.5307  -25.5423   19.8073 C   0  0  0  0  0  0  0  0  0  0  0  0
  -23.3006  -16.4132   22.0356 C   0  0  0  0  0  0  0  0  0  0  0  0
  -27.2947  -27.5274   20.0395 C   0  0  0  0  0  0  0  0  0  0  0  0
  -24.8192  -28.8104   20.1297 C   0  0  0  0  0  0  0  0  0  0  0  0
  -26.9175  -28.2357   21.1804 C   0  0  0  0  0  0  0  0  0  0  0  0
  -28.5543  -21.3514   19.2292 C   0  0  0  0  0  0  0  0  0  0  0  0
  -28.1619  -19.3106   18.5108 C   0  0  0  0  0  0  0  0  0  0  0  0
  -26.8362  -21.0740   17.3355 C   0  0  0  0  0  0  0  0  0  0  0  0
  -21.2428  -21.3390   23.0187 C   0  0  0  0  0  0  0  0  0  0  0  0
  -23.6003  -21.7744   25.2039 C   0  0  0  0  0  0  0  0  0  0  0  0
  -26.8129  -20.3064   25.9395 C   0  0  0  0  0  0  0  0  0  0  0  0
  -29.0845  -15.2886   22.4259 C   0  0  0  0  0  0  0  0  0  0  0  0
  -21.2832  -26.2575   20.8570 C   0  0  0  0  0  0  0  0  0  0  0  0
  -21.0544  -19.2312   24.3891 C   0  0  0  0  0  0  0  0  0  0  0  0
  -23.8571  -19.8087   23.6433 C   0  0  0  0  0  0  0  0  0  0  0  0
  -21.7469  -24.9665   20.1903 C   0  0  0  0  0  0  0  0  0  0  0  0
  -31.9332  -17.3298   21.2192 C   0  0  0  0  0  0  0  0  0  0  0  0
  -22.0165  -23.9043   21.2455 C   0  0  0  0  0  0  0  0  0  0  0  0
  -31.2338  -18.5319   20.5869 C   0  0  0  0  0  0  0  0  0  0  0  0
  -26.4935  -12.9652   22.3737 C   0  0  0  0  0  0  0  0  0  0  0  0
  -27.1080  -13.6794   20.0256 C   0  0  0  0  0  0  0  0  0  0  0  0
  -31.0988  -16.7126   22.3370 C   0  0  0  0  0  0  0  0  0  0  0  0
  -26.8207  -14.3778   22.8536 C   0  0  0  0  0  0  0  0  0  0  0  0
  -27.3897  -15.0877   20.5514 C   0  0  0  0  0  0  0  0  0  0  0  0
  -29.0173  -17.5410   21.2861 C   0  0  0  0  0  0  0  0  0  0  0  0
  -24.3430  -11.7957   20.5879 C   0  0  0  0  0  0  0  0  0  0  0  0
  -20.7326  -23.5537   22.0081 C   0  0  1  0  0  0  0  0  0  0  0  0
  -21.5875  -20.6586   24.3133 C   0  0  1  0  0  0  0  0  0  0  0  0
  -24.5658  -13.3169   20.5335 C   0  0  2  0  0  0  0  0  0  0  0  0
  -29.8138  -18.1596   20.1273 C   0  0  1  0  0  0  0  0  0  0  0  0
  -26.0541  -12.9926   20.9019 C   0  0  0  0  0  0  0  0  0  0  0  0
  -28.0788  -20.1498   28.1006 C   0  0  0  0  0  0  0  0  0  0  0  0
  -24.9586  -24.3380   24.2588 C   0  0  0  0  0  0  0  0  0  0  0  0
  -27.1038  -23.4714   25.2155 C   0  0  0  0  0  0  0  0  0  0  0  0
  -25.1545  -23.8971   26.7127 C   0  0  0  0  0  0  0  0  0  0  0  0
  -27.0427  -17.3635   25.7260 C   0  0  0  0  0  0  0  0  0  0  0  0
  -23.6806  -14.1406   21.4468 C   0  0  0  0  0  0  0  0  0  1  0  0
  -25.1020  -21.9163   25.1425 C   0  0  1  0  0  0  0  0  0  0  0  0
  -27.1599  -19.4275   27.1276 C   0  0  2  0  0  0  0  0  0  0  0  0
  -25.5654  -23.3906   25.3130 C   0  0  0  0  0  0  0  0  0  0  0  0
  -29.3477  -20.5764   19.9734 N   0  0  0  0  0  0  0  0  0  0  0  0
  -29.0863  -19.3411   19.5131 N   0  0  0  0  0  0  0  0  0  0  0  0
  -23.0431  -20.7267   24.4571 N   0  0  0  0  0  0  0  0  0  0  0  0
  -29.7391  -16.4101   21.8895 N   0  0  0  0  0  0  0  0  0  0  0  0
  -27.7831  -15.0347   21.9674 N   0  0  0  0  0  0  0  0  0  0  0  0
  -27.7828  -18.1505   17.9339 N   0  0  0  0  0  0  0  0  0  0  0  0
  -26.5754  -22.4486   17.2527 N   0  0  0  0  0  0  0  0  0  0  0  0
  -21.0669  -22.7050   23.1304 N   0  0  0  0  0  0  0  0  0  0  0  0
  -25.6397  -21.0014   26.1436 N   0  0  0  0  0  0  0  0  0  0  0  0
  -25.7919  -11.6089   20.4099 N   0  3  0  0  0  0  0  0  0  0  0  0
  -27.8431  -18.1845   26.6705 N   0  3  0  0  0  0  0  0  0  0  0  0
  -26.2190  -20.2854   16.5801 O   0  0  0  0  0  0  0  0  0  0  0  0
  -21.1452  -20.6740   21.9940 O   0  0  0  0  0  0  0  0  0  0  0  0
  -22.9464  -22.5597   25.8948 O   0  0  0  0  0  0  0  0  0  0  0  0
  -27.5146  -20.3727   24.9326 O   0  0  0  0  0  0  0  0  0  0  0  0
  -29.6318  -14.5587   23.2619 O   0  0  0  0  0  0  0  0  0  0  0  0
  -28.5235  -26.8906   19.9928 O   0  0  0  0  0  0  0  0  0  0  0  0
  -24.0163  -15.5120   21.2904 O   0  0  0  0  0  0  0  0  0  1  0  0
  -23.6312  -29.4277   20.1724 F   0  0  0  0  0  0  0  0  0  0  0  0
  -27.7405  -28.3044   22.2357 F   0  0  0  0  0  0  0  0  0  0  0  0
  1  2  1  0  0  0  0
  1  5  2  0  0  0  0
  2  6  2  0  0  0  0
  3  8  2  0  0  0  0
  3 15  1  0  0  0  0
  4  9  1  0  0  0  0
  4 15  2  0  0  0  0
  5 17  1  0  0  0  0
  6 19  1  0  0  0  0
  7 10  2  0  0  0  0
  7 18  1  0  0  0  0
  8 21  1  0  0  0  0
  9 21  2  0  0  0  0
 10 22  1  0  0  0  0
 11 12  2  0  0  0  0
 11 23  1  0  0  0  0
 12 24  1  0  0  0  0
 13 20  1  0  0  0  0
 13 22  2  0  0  0  0
 14 24  2  0  0  0  0
 14 25  1  0  0  0  0
 15 26  1  0  0  0  0
 16 26  1  0  0  0  0
 16 27  2  0  0  0  0
 16 28  1  0  0  0  0
 17 19  2  0  0  0  0
 17 33  1  0  0  0  0
 18 20  2  0  0  0  0
 18 34  1  0  0  0  0
 19 47  1  0  0  0  0
 20 35  1  0  0  0  0
 21 77  1  0  0  0  0
 22 78  1  0  0  0  0
 23 25  2  0  0  0  0
 23 77  1  0  0  0  0
 24 79  1  0  0  0  0
 25 80  1  0  0  0  0
 26 61  2  0  0  0  0
 27 62  1  0  0  0  0
 27 66  1  0  0  0  0
 28 67  1  0  0  0  0
 28 72  2  0  0  0  0
 29 48  1  0  0  0  0
 29 68  1  0  0  0  0
 29 73  2  0  0  0  0
 30 58  1  0  0  0  0
 30 63  1  0  0  0  0
 30 74  2  0  0  0  0
 31 59  1  0  0  0  0
 31 69  1  0  0  0  0
 31 75  2  0  0  0  0
 32 64  1  0  0  0  0
 32 65  1  0  0  0  0
 32 76  2  0  0  0  0
 33 36  1  0  0  0  0
 34 48  1  0  0  0  0
 35 63  1  0  0  0  0
 36 38  1  0  0  0  0
 37 39  1  0  0  0  0
 37 42  1  0  0  0  0
 38 47  1  0  0  0  0
 39 50  1  0  0  0  0
 40 43  1  0  0  0  0
 40 51  1  0  0  0  0
 41 44  1  0  0  0  0
 41 51  1  0  0  0  0
 42 64  1  0  0  0  0
 43 65  1  0  0  0  0
 44 65  1  0  0  0  0
 45 50  1  0  0  0  0
 45 64  1  0  0  0  0
 46 49  1  0  0  0  0
 46 70  1  0  0  0  0
 47 68  1  0  0  0  0
 48 63  1  0  0  0  0
 49 51  1  0  0  0  0
 49 57  1  0  0  0  0
 50 62  1  0  0  0  0
 51 70  1  0  0  0  0
 52 59  1  0  0  0  0
 53 60  1  0  0  0  0
 54 60  1  0  0  0  0
 55 60  1  0  0  0  0
 56 71  1  0  0  0  0
 57 78  1  0  0  0  0
 58 60  1  0  0  0  0
 58 69  1  0  0  0  0
 59 71  1  0  0  0  0
 61 62  1  0  0  0  0
M  CHG  2  70   1  71   1
M  ISO  4  32 100  57 101  65 100  78 101
M  END
> <Batch ID>
0193

> <Smiles>
CNC(C)C(=O)NC(C(=O)N1Cc2cc([101O:1][101CH2:1]C3CNC34CC[100N:0]([100C:0](=O)N3CCCC(n5nc(-c6ccc(Oc7ccc(F)cc7F)cc6)c(C(N)=O)c5N)C3)CC4)ccc2CC1C(=O)NC1CCCc2ccccc21)C(C)(C)C

> <Shape>
0.199

> <Color>
0.077

> <Negative vol penalty>
0.000

$$$$

  -OEChem-04052323323D

 84 93  0     1  0  0  0  0  0999 V2000
  -29.6175  -34.2210   15.7924 C   0  0  0  0  0  0  0  0  0  0  0  0
  -29.8735  -32.9242   16.2260 C   0  0  0  0  0  0  0  0  0  0  0  0
  -23.3838  -10.2479   21.6185 C   0  0  0  0  0  0  0  0  0  0  0  0
  -24.9105   -8.4205   22.0269 C   0  0  0  0  0  0  0  0  0  0  0  0
  -28.8184  -35.0668   16.5606 C   0  0  0  0  0  0  0  0  0  0  0  0
  -29.3314  -32.4727   17.4288 C   0  0  0  0  0  0  0  0  0  0  0  0
  -27.4105  -26.7984   18.7010 C   0  0  0  0  0  0  0  0  0  0  0  0
  -22.3345   -9.3398   21.4776 C   0  0  0  0  0  0  0  0  0  0  0  0
  -23.8612   -7.5123   21.8861 C   0  0  0  0  0  0  0  0  0  0  0  0
  -28.0118  -25.7320   19.3681 C   0  0  0  0  0  0  0  0  0  0  0  0
  -21.2890   -6.3710   23.7575 C   0  0  0  0  0  0  0  0  0  0  0  0
  -21.1914   -5.3450   24.6973 C   0  0  0  0  0  0  0  0  0  0  0  0
  -26.8824  -26.3746   21.4006 C   0  0  0  0  0  0  0  0  0  0  0  0
  -21.4196   -3.7086   22.9345 C   0  0  0  0  0  0  0  0  0  0  0  0
  -24.6719   -9.7882   21.8930 C   0  0  0  0  0  0  0  0  0  0  0  0
  -26.1872  -11.3505   23.2238 C   0  0  0  0  0  0  0  0  0  0  0  0
  -28.2584  -34.6222   17.7686 C   0  0  0  0  0  0  0  0  0  0  0  0
  -26.5477  -27.6688   19.3824 C   0  0  0  0  0  0  0  0  0  0  0  0
  -28.5252  -33.3137   18.2146 C   0  0  0  0  0  0  0  0  0  0  0  0
  -26.2694  -27.4497   20.7392 C   0  0  0  0  0  0  0  0  0  0  0  0
  -22.5731   -7.9720   21.6115 C   0  0  0  0  0  0  0  0  0  0  0  0
  -27.7501  -25.5217   20.7188 C   0  0  0  0  0  0  0  0  0  0  0  0
  -21.4519   -6.0658   22.4061 C   0  0  0  0  0  0  0  0  0  0  0  0
  -21.2568   -4.0138   24.2859 C   0  0  0  0  0  0  0  0  0  0  0  0
  -21.5172   -4.7347   21.9947 C   0  0  0  0  0  0  0  0  0  0  0  0
  -25.7563  -10.7258   22.0381 C   0  0  0  0  0  0  0  0  0  0  0  0
  -27.2398  -12.1412   22.8323 C   0  0  0  0  0  0  0  0  0  0  0  0
  -29.7176  -22.5393   21.4511 C   0  0  0  0  0  0  0  0  0  0  0  0
  -29.9841  -20.6372   22.2683 C   0  0  0  0  0  0  0  0  0  0  0  0
  -25.6812  -11.2269   24.5596 C   0  0  0  0  0  0  0  0  0  0  0  0
  -26.5645  -30.7764   20.0504 C   0  0  0  0  0  0  0  0  0  0  0  0
  -23.5983  -30.1475   21.2031 C   0  0  0  0  0  0  0  0  0  0  0  0
  -21.4067  -27.8571   22.4671 C   0  0  0  0  0  0  0  0  0  0  0  0
  -29.1993  -15.9076   19.1105 C   0  0  0  0  0  0  0  0  0  0  0  0
  -27.4397  -35.5881   18.5881 C   0  0  0  0  0  0  0  0  0  0  0  0
  -25.8861  -28.7985   18.6419 C   0  0  0  0  0  0  0  0  0  0  0  0
  -25.3347  -28.3433   21.5113 C   0  0  0  0  0  0  0  0  0  0  0  0
  -26.5965  -34.9107   19.6652 C   0  0  0  0  0  0  0  0  0  0  0  0
  -29.7807  -12.3412   18.4654 C   0  0  0  0  0  0  0  0  0  0  0  0
  -27.4302  -33.8888   20.4318 C   0  0  0  0  0  0  0  0  0  0  0  0
  -28.7833  -11.6603   19.4037 C   0  0  0  0  0  0  0  0  0  0  0  0
  -28.6941  -17.1094   22.5481 C   0  0  0  0  0  0  0  0  0  0  0  0
  -29.2839  -13.7069   17.9967 C   0  0  0  0  0  0  0  0  0  0  0  0
  -28.1683  -16.2047   21.4385 C   0  0  0  0  0  0  0  0  0  0  0  0
  -27.8922  -13.9382   20.0172 C   0  0  0  0  0  0  0  0  0  0  0  0
  -29.5077  -17.9509   20.4784 C   0  0  0  0  0  0  0  0  0  0  0  0
  -27.9349  -32.7792   19.5014 C   0  0  1  0  0  0  0  0  0  0  0  0
  -25.4263  -29.9267   19.5602 C   0  0  1  0  0  0  0  0  0  0  0  0
  -28.3873  -12.5922   20.5642 C   0  0  1  0  0  0  0  0  0  0  0  0
  -28.9361  -18.4202   21.8077 C   0  0  2  0  0  0  0  0  0  0  0  0
  -30.8688  -24.4608   24.1218 C   0  0  0  0  0  0  0  0  0  0  0  0
  -19.0682  -27.6486   23.3533 C   0  0  0  0  0  0  0  0  0  0  0  0
  -24.4783  -31.4408   23.8227 C   0  0  0  0  0  0  0  0  0  0  0  0
  -22.5035  -30.3740   24.9320 C   0  0  0  0  0  0  0  0  0  0  0  0
  -22.1583  -32.0283   23.0971 C   0  0  0  0  0  0  0  0  0  0  0  0
  -20.6457  -25.9483   20.3373 C   0  0  0  0  0  0  0  0  0  0  0  0
  -29.2092  -23.6469   20.6089 C   0  0  0  0  0  0  0  0  0  1  0  0
  -31.3931  -23.9101   22.8068 C   0  0  0  0  0  0  0  0  0  0  0  0
  -23.0381  -29.7246   22.5396 C   0  0  1  0  0  0  0  0  0  0  0  0
  -19.9595  -27.5521   22.1249 C   0  0  2  0  0  0  0  0  0  0  0  0
  -23.0637  -30.8760   23.5841 C   0  0  0  0  0  0  0  0  0  0  0  0
  -26.4763  -11.0886   20.9731 N   0  0  0  0  0  0  0  0  0  0  0  0
  -29.2724  -21.2522   21.3526 N   0  0  0  0  0  0  0  0  0  0  0  0
  -30.8123  -21.5270   22.8783 N   0  0  0  0  0  0  0  0  0  0  0  0
  -27.3701  -11.9499   21.4883 N   0  0  0  0  0  0  0  0  0  0  0  0
  -30.6601  -22.7594   22.3702 N   0  0  0  0  0  0  0  0  0  0  0  0
  -24.7173  -29.4380   20.7446 N   0  0  0  0  0  0  0  0  0  0  0  0
  -28.8949  -14.5421   19.1333 N   0  0  0  0  0  0  0  0  0  0  0  0
  -28.8617  -16.6638   20.2322 N   0  0  0  0  0  0  0  0  0  0  0  0
  -28.0572  -12.9747   23.5102 N   0  0  0  0  0  0  0  0  0  0  0  0
  -24.5948  -10.3709   24.7861 N   0  0  0  0  0  0  0  0  0  0  0  0
  -29.8506  -19.2774   22.5147 N   0  0  0  0  0  0  0  0  0  0  0  0
  -26.8748  -31.8354   19.2188 N   0  0  0  0  0  0  0  0  0  0  0  0
  -21.7076  -29.1887   22.2735 N   0  0  0  0  0  0  0  0  0  0  0  0
  -19.8387  -26.1769   21.5635 N   0  3  0  0  0  0  0  0  0  0  0  0
  -26.1673  -11.8695   25.5210 O   0  0  0  0  0  0  0  0  0  0  0  0
  -27.1190  -30.4930   21.1058 O   0  0  0  0  0  0  0  0  0  0  0  0
  -23.0583  -31.0685   20.5852 O   0  0  0  0  0  0  0  0  0  0  0  0
  -22.1907  -27.0005   22.8697 O   0  0  0  0  0  0  0  0  0  0  0  0
  -29.7894  -16.4200   18.1501 O   0  0  0  0  0  0  0  0  0  0  0  0
  -21.5494   -7.0856   21.4744 O   0  0  0  0  0  0  0  0  0  0  0  0
  -28.3396  -24.4760   21.3763 O   0  0  0  0  0  0  0  0  0  1  0  0
  -21.1646   -3.0286   25.1887 F   0  0  0  0  0  0  0  0  0  0  0  0
  -21.6747   -4.4353   20.6980 F   0  0  0  0  0  0  0  0  0  0  0  0
  1  2  1  0  0  0  0
  1  5  2  0  0  0  0
  2  6  2  0  0  0  0
  3  8  2  0  0  0  0
  3 15  1  0  0  0  0
  4  9  1  0  0  0  0
  4 15  2  0  0  0  0
  5 17  1  0  0  0  0
  6 19  1  0  0  0  0
  7 10  2  0  0  0  0
  7 18  1  0  0  0  0
  8 21  1  0  0  0  0
  9 21  2  0  0  0  0
 10 22  1  0  0  0  0
 11 12  2  0  0  0  0
 11 23  1  0  0  0  0
 12 24  1  0  0  0  0
 13 20  1  0  0  0  0
 13 22  2  0  0  0  0
 14 24  2  0  0  0  0
 14 25  1  0  0  0  0
 15 26  1  0  0  0  0
 16 26  1  0  0  0  0
 16 27  2  0  0  0  0
 16 30  1  0  0  0  0
 17 19  2  0  0  0  0
 17 35  1  0  0  0  0
 18 20  2  0  0  0  0
 18 36  1  0  0  0  0
 19 47  1  0  0  0  0
 20 37  1  0  0  0  0
 21 81  1  0  0  0  0
 22 82  1  0  0  0  0
 23 25  2  0  0  0  0
 23 81  1  0  0  0  0
 24 83  1  0  0  0  0
 25 84  1  0  0  0  0
 26 62  2  0  0  0  0
 27 65  1  0  0  0  0
 27 70  1  0  0  0  0
 28 57  1  0  0  0  0
 28 63  2  0  0  0  0
 28 66  1  0  0  0  0
 29 63  1  0  0  0  0
 29 64  2  0  0  0  0
 29 72  1  0  0  0  0
 30 71  1  0  0  0  0
 30 76  2  0  0  0  0
 31 48  1  0  0  0  0
 31 73  1  0  0  0  0
 31 77  2  0  0  0  0
 32 59  1  0  0  0  0
 32 67  1  0  0  0  0
 32 78  2  0  0  0  0
 33 60  1  0  0  0  0
 33 74  1  0  0  0  0
 33 79  2  0  0  0  0
 34 68  1  0  0  0  0
 34 69  1  0  0  0  0
 34 80  2  0  0  0  0
 35 38  1  0  0  0  0
 36 48  1  0  0  0  0
 37 67  1  0  0  0  0
 38 40  1  0  0  0  0
 39 41  1  0  0  0  0
 39 43  1  0  0  0  0
 40 47  1  0  0  0  0
 41 49  1  0  0  0  0
 42 44  1  0  0  0  0
 42 50  1  0  0  0  0
 43 68  1  0  0  0  0
 44 69  1  0  0  0  0
 45 49  1  0  0  0  0
 45 68  1  0  0  0  0
 46 50  1  0  0  0  0
 46 69  1  0  0  0  0
 47 73  1  0  0  0  0
 48 67  1  0  0  0  0
 49 65  1  0  0  0  0
 50 72  1  0  0  0  0
 51 58  1  0  0  0  0
 52 60  1  0  0  0  0
 53 61  1  0  0  0  0
 54 61  1  0  0  0  0
 55 61  1  0  0  0  0
 56 75  1  0  0  0  0
 57 82  1  0  0  0  0
 58 66  1  0  0  0  0
 59 61  1  0  0  0  0
 59 74  1  0  0  0  0
 60 75  1  0  0  0  0
 62 65  1  0  0  0  0
 64 66  1  0  0  0  0
M  CHG  1  75   1
M  ISO  4  34 100  57 101  69 100  82 101
M  END
> <Batch ID>
0193

> <Smiles>
CCn1nc(NC2CC[100N:0]([100C:0](=O)N3CCCC(n4nc(-c5ccc(Oc6ccc(F)cc6F)cc5)c(C(N)=O)c4N)C3)C2)nc1[101CH2:1][101O:1]c1ccc2c(c1)CN(C(=O)C(NC(=O)C(C)NC)C(C)(C)C)C(C(=O)NC1CCCc3ccccc31)C2

> <Shape>
0.286

> <Color>
0.103

> <Negative vol penalty>
0.000

$$$$

  -OEChem-04052323323D

 86 96  0     1  0  0  0  0  0999 V2000
  -21.7410  -16.1861   13.1215 C   0  0  0  0  0  0  0  0  0  0  0  0
  -23.0078  -15.6461   13.3191 C   0  0  0  0  0  0  0  0  0  0  0  0
  -25.1788  -30.9294   21.1844 C   0  0  0  0  0  0  0  0  0  0  0  0
  -24.5904  -29.2806   22.8494 C   0  0  0  0  0  0  0  0  0  0  0  0
  -21.1509  -16.9600   14.1199 C   0  0  0  0  0  0  0  0  0  0  0  0
  -23.6858  -15.8807   14.5148 C   0  0  0  0  0  0  0  0  0  0  0  0
  -28.2970  -12.7613   19.0229 C   0  0  0  0  0  0  0  0  0  0  0  0
  -24.5095  -31.9090   21.9178 C   0  0  0  0  0  0  0  0  0  0  0  0
  -23.9212  -30.2602   23.5830 C   0  0  0  0  0  0  0  0  0  0  0  0
  -29.5123  -13.0062   19.6607 C   0  0  0  0  0  0  0  0  0  0  0  0
  -25.0951  -33.8070   24.6542 C   0  0  0  0  0  0  0  0  0  0  0  0
  -25.7338  -35.0344   24.8304 C   0  0  0  0  0  0  0  0  0  0  0  0
  -28.3616  -14.2926   21.3461 C   0  0  0  0  0  0  0  0  0  0  0  0
  -23.9041  -36.1469   23.7116 C   0  0  0  0  0  0  0  0  0  0  0  0
  -31.3926  -19.9917   19.4194 C   0  0  0  0  0  0  0  0  0  0  0  0
  -25.2192  -29.6152   21.6501 C   0  0  0  0  0  0  0  0  0  0  0  0
  -27.2635  -28.2325   21.0046 C   0  0  0  0  0  0  0  0  0  0  0  0
  -21.8180  -17.1962   15.3323 C   0  0  0  0  0  0  0  0  0  0  0  0
  -27.1042  -13.2902   19.5366 C   0  0  0  0  0  0  0  0  0  0  0  0
  -23.1046  -16.6597   15.5298 C   0  0  0  0  0  0  0  0  0  0  0  0
  -27.1322  -14.0508   20.7143 C   0  0  0  0  0  0  0  0  0  0  0  0
  -23.8807  -31.5745   23.1172 C   0  0  0  0  0  0  0  0  0  0  0  0
  -29.5451  -13.7743   20.8209 C   0  0  0  0  0  0  0  0  0  0  0  0
  -23.8609  -33.7494   24.0067 C   0  0  0  0  0  0  0  0  0  0  0  0
  -25.1382  -36.2044   24.3591 C   0  0  0  0  0  0  0  0  0  0  0  0
  -23.2654  -34.9194   23.5354 C   0  0  0  0  0  0  0  0  0  0  0  0
  -25.9099  -28.6027   20.8926 C   0  0  0  0  0  0  0  0  0  0  0  0
  -30.3399  -19.1014   19.4790 C   0  0  0  0  0  0  0  0  0  0  0  0
  -32.6344  -19.4687   19.7172 C   0  0  0  0  0  0  0  0  0  0  0  0
  -27.4247  -27.2347   20.0746 C   0  0  0  0  0  0  0  0  0  0  0  0
  -31.7381  -17.4101   20.0720 C   0  0  0  0  0  0  0  0  0  0  0  0
  -28.2839  -28.7448   21.8717 C   0  0  0  0  0  0  0  0  0  0  0  0
  -24.9058  -15.3206   18.4650 C   0  0  0  0  0  0  0  0  0  0  0  0
  -23.3615  -14.4794   21.1908 C   0  0  0  0  0  0  0  0  0  0  0  0
  -23.5560  -13.2616   24.3730 C   0  0  0  0  0  0  0  0  0  0  0  0
  -25.6462  -22.5653   17.5889 C   0  0  0  0  0  0  0  0  0  0  0  0
  -21.1595  -18.0784   16.3633 C   0  0  0  0  0  0  0  0  0  0  0  0
  -25.7981  -12.9946   18.8516 C   0  0  0  0  0  0  0  0  0  0  0  0
  -25.8771  -14.6245   21.3178 C   0  0  0  0  0  0  0  0  0  0  0  0
  -21.7883  -17.9685   17.7499 C   0  0  0  0  0  0  0  0  0  0  0  0
  -24.3572  -25.6546   16.3759 C   0  0  0  0  0  0  0  0  0  0  0  0
  -23.3091  -18.0361   17.6533 C   0  0  0  0  0  0  0  0  0  0  0  0
  -24.7523  -26.6646   17.4547 C   0  0  0  0  0  0  0  0  0  0  0  0
  -26.7354  -19.7941   19.1162 C   0  0  0  0  0  0  0  0  0  0  0  0
  -32.6222  -15.6349   21.7282 C   0  0  0  0  0  0  0  0  0  0  0  0
  -23.9875  -24.3009   16.9784 C   0  0  0  0  0  0  0  0  0  0  0  0
  -27.8680  -18.7717   19.2071 C   0  0  0  0  0  0  0  0  0  0  0  0
  -25.4038  -24.7303   18.9490 C   0  0  0  0  0  0  0  0  0  0  0  0
  -28.7963  -20.9779   18.8481 C   0  0  0  0  0  0  0  0  0  0  0  0
  -23.8615  -16.8712   16.8231 C   0  0  1  0  0  0  0  0  0  0  0  0
  -31.9290  -15.9849   20.4322 C   0  0  1  0  0  0  0  0  0  0  0  0
  -24.7090  -14.0122   19.1770 C   0  0  1  0  0  0  0  0  0  0  0  0
  -25.8390  -26.0941   18.3859 C   0  0  2  0  0  0  0  0  0  0  0  0
  -27.3630  -20.9275   18.3164 C   0  0  2  0  0  0  0  0  0  0  0  0
  -31.1484  -15.4038   21.5907 C   0  0  1  0  0  0  0  0  0  1  0  0
  -22.1304  -12.7234   26.3668 C   0  0  0  0  0  0  0  0  0  0  0  0
  -23.1580  -17.4527   21.8448 C   0  0  0  0  0  0  0  0  0  0  0  0
  -22.6129  -16.8248   24.2063 C   0  0  0  0  0  0  0  0  0  0  0  0
  -21.0970  -16.1297   22.3512 C   0  0  0  0  0  0  0  0  0  0  0  0
  -24.3083  -10.4006   24.2841 C   0  0  0  0  0  0  0  0  0  0  0  0
  -23.3407  -14.9937   22.6100 C   0  0  1  0  0  0  0  0  0  0  0  0
  -22.7597  -12.1867   25.0906 C   0  0  2  0  0  0  0  0  0  0  0  0
  -22.5762  -16.3412   22.7409 C   0  0  0  0  0  0  0  0  0  0  0  0
  -25.2576  -27.8975   19.9645 N   0  0  0  0  0  0  0  0  0  0  0  0
  -30.4772  -17.7989   19.8030 N   0  0  0  0  0  0  0  0  0  0  0  0
  -32.8443  -18.1779   20.0489 N   0  0  0  0  0  0  0  0  0  0  0  0
  -26.2054  -27.0743   19.4849 N   0  0  0  0  0  0  0  0  0  0  0  0
  -29.0821  -19.5851   19.1882 N   0  0  3  0  0  0  0  0  0  0  0  0
  -24.6257  -14.3129   20.6077 N   0  0  0  0  0  0  0  0  0  0  0  0
  -25.0603  -23.8149   17.8496 N   0  0  0  0  0  0  0  0  0  0  0  0
  -28.4890  -26.4876   19.7120 N   0  0  0  0  0  0  0  0  0  0  0  0
  -27.9476  -29.7697   22.7667 N   0  0  0  0  0  0  0  0  0  0  0  0
  -23.8758  -15.6544   17.6064 N   0  0  0  0  0  0  0  0  0  0  0  0
  -22.7950  -13.9152   23.4270 N   0  0  0  0  0  0  0  0  0  0  0  0
  -26.6600  -22.1830   18.4588 N   0  0  0  0  0  0  0  0  0  0  0  0
  -23.6419  -11.0400   25.4478 N   0  3  0  0  0  0  0  0  0  0  0  0
  -29.4631  -28.3180   21.8421 O   0  0  0  0  0  0  0  0  0  0  0  0
  -25.9165  -15.9794   18.6799 O   0  0  0  0  0  0  0  0  0  0  0  0
  -22.2957  -14.2277   20.6231 O   0  0  0  0  0  0  0  0  0  0  0  0
  -24.7342  -13.5002   24.6288 O   0  0  0  0  0  0  0  0  0  0  0  0
  -25.2957  -21.8460   16.6472 O   0  0  0  0  0  0  0  0  0  0  0  0
  -23.2278  -32.5301   23.8333 O   0  0  0  0  0  0  0  0  0  0  0  0
  -30.7300  -14.0154   21.4451 O   0  0  0  0  0  0  0  0  0  1  0  0
  -25.7509  -37.3833   24.5297 F   0  0  0  0  0  0  0  0  0  0  0  0
  -22.0793  -34.8707   22.9137 F   0  0  0  0  0  0  0  0  0  0  0  0
  -34.0433  -20.4464   19.6876 Cl  0  0  0  0  0  0  0  0  0  0  0  0
  1  2  1  0  0  0  0
  1  5  2  0  0  0  0
  2  6  2  0  0  0  0
  3  8  2  0  0  0  0
  3 16  1  0  0  0  0
  4  9  1  0  0  0  0
  4 16  2  0  0  0  0
  5 18  1  0  0  0  0
  6 20  1  0  0  0  0
  7 10  2  0  0  0  0
  7 19  1  0  0  0  0
  8 22  1  0  0  0  0
  9 22  2  0  0  0  0
 10 23  1  0  0  0  0
 11 12  2  0  0  0  0
 11 24  1  0  0  0  0
 12 25  1  0  0  0  0
 13 21  1  0  0  0  0
 13 23  2  0  0  0  0
 14 25  2  0  0  0  0
 14 26  1  0  0  0  0
 15 28  2  0  0  0  0
 15 29  1  0  0  0  0
 16 27  1  0  0  0  0
 17 27  1  0  0  0  0
 17 30  2  0  0  0  0
 17 32  1  0  0  0  0
 18 20  2  0  0  0  0
 18 37  1  0  0  0  0
 19 21  2  0  0  0  0
 19 38  1  0  0  0  0
 20 50  1  0  0  0  0
 21 39  1  0  0  0  0
 22 82  1  0  0  0  0
 23 83  1  0  0  0  0
 24 26  2  0  0  0  0
 24 82  1  0  0  0  0
 25 84  1  0  0  0  0
 26 85  1  0  0  0  0
 27 64  2  0  0  0  0
 28 65  1  0  0  0  0
 28 68  1  0  0  0  0
 29 66  2  0  0  0  0
 29 86  1  0  0  0  0
 30 67  1  0  0  0  0
 30 71  1  0  0  0  0
 31 51  1  0  0  0  0
 31 65  2  0  0  0  0
 31 66  1  0  0  0  0
 32 72  1  0  0  0  0
 32 77  2  0  0  0  0
 33 52  1  0  0  0  0
 33 73  1  0  0  0  0
 33 78  2  0  0  0  0
 34 61  1  0  0  0  0
 34 69  1  0  0  0  0
 34 79  2  0  0  0  0
 35 62  1  0  0  0  0
 35 74  1  0  0  0  0
 35 80  2  0  0  0  0
 36 70  1  0  0  0  0
 36 75  1  0  0  0  0
 36 81  2  0  0  0  0
 37 40  1  0  0  0  0
 38 52  1  0  0  0  0
 39 69  1  0  0  0  0
 40 42  1  0  0  0  0
 41 43  1  0  0  0  0
 41 46  1  0  0  0  0
 42 50  1  0  0  0  0
 43 53  1  0  0  0  0
 44 47  1  0  0  0  0
 44 54  1  0  0  0  0
 45 51  1  0  0  0  0
 45 55  1  0  0  0  0
 46 70  1  0  0  0  0
 47 68  1  0  0  0  0
 48 53  1  0  0  0  0
 48 70  1  0  0  0  0
 49 54  1  0  0  0  0
 49 68  1  0  0  0  0
 50 73  1  0  0  0  0
 51 55  1  0  0  0  0
 52 69  1  0  0  0  0
 53 67  1  0  0  0  0
 54 75  1  0  0  0  0
 55 83  1  0  0  0  0
 56 62  1  0  0  0  0
 57 63  1  0  0  0  0
 58 63  1  0  0  0  0
 59 63  1  0  0  0  0
 60 76  1  0  0  0  0
 61 63  1  0  0  0  0
 61 74  1  0  0  0  0
 62 76  1  0  0  0  0
 64 67  1  0  0  0  0
M  CHG  1  76   1
M  ISO  4  36 100  55 101  75 100  83 101
M  END
> <Batch ID>
0193

> <Smiles>
CNC(C)C(=O)NC(C(=O)N1Cc2cc([101O:1][101CH:1]3CC3c3nc(Cl)cc(N4CCC([100NH:0][100C:0](=O)N5CCCC(n6nc(-c7ccc(Oc8ccc(F)cc8F)cc7)c(C(N)=O)c6N)C5)C4)n3)ccc2CC1C(=O)NC1CCCc2ccccc21)C(C)(C)C

> <Shape>
0.224

> <Color>
0.090

> <Negative vol penalty>
0.000

$$$$

  -OEChem-04052323323D

 83 92  0     1  0  0  0  0  0999 V2000
  -30.4185  -32.8405   25.2607 C   0  0  0  0  0  0  0  0  0  0  0  0
  -29.8513  -31.6441   24.8338 C   0  0  0  0  0  0  0  0  0  0  0  0
  -23.9714   -9.1733   21.5417 C   0  0  0  0  0  0  0  0  0  0  0  0
  -25.1778  -10.1839   23.3749 C   0  0  0  0  0  0  0  0  0  0  0  0
  -29.6018  -33.9301   25.5602 C   0  0  0  0  0  0  0  0  0  0  0  0
  -28.4669  -31.5362   24.7071 C   0  0  0  0  0  0  0  0  0  0  0  0
  -27.0818  -29.2517   20.4051 C   0  0  0  0  0  0  0  0  0  0  0  0
  -27.4334  -23.0289   18.9802 C   0  0  0  0  0  0  0  0  0  0  0  0
  -23.6690   -8.0748   22.3463 C   0  0  0  0  0  0  0  0  0  0  0  0
  -24.8754   -9.0853   24.1795 C   0  0  0  0  0  0  0  0  0  0  0  0
  -27.1870  -27.8622   20.3596 C   0  0  0  0  0  0  0  0  0  0  0  0
  -21.4718   -7.3151   24.8016 C   0  0  0  0  0  0  0  0  0  0  0  0
  -20.1621   -6.8358   24.7787 C   0  0  0  0  0  0  0  0  0  0  0  0
  -27.3527  -21.6417   18.9335 C   0  0  0  0  0  0  0  0  0  0  0  0
  -24.8202  -27.6751   20.7872 C   0  0  0  0  0  0  0  0  0  0  0  0
  -20.9607   -4.6904   24.0062 C   0  0  0  0  0  0  0  0  0  0  0  0
  -24.7259  -10.2279   22.0560 C   0  0  0  0  0  0  0  0  0  0  0  0
  -24.1287  -12.2377   20.6028 C   0  0  0  0  0  0  0  0  0  0  0  0
  -28.2073  -33.8386   25.4278 C   0  0  0  0  0  0  0  0  0  0  0  0
  -25.8450  -29.8641   20.6532 C   0  0  0  0  0  0  0  0  0  0  0  0
  -27.6306  -32.6252   25.0063 C   0  0  0  0  0  0  0  0  0  0  0  0
  -24.7016  -29.0726   20.8328 C   0  0  0  0  0  0  0  0  0  0  0  0
  -27.3658  -23.6828   20.2055 C   0  0  0  0  0  0  0  0  0  0  0  0
  -24.1210   -8.0308   23.6652 C   0  0  0  0  0  0  0  0  0  0  0  0
  -26.0566  -27.0736   20.5535 C   0  0  0  0  0  0  0  0  0  0  0  0
  -22.5260   -6.4820   24.4267 C   0  0  0  0  0  0  0  0  0  0  0  0
  -19.9066   -5.5235   24.3811 C   0  0  0  0  0  0  0  0  0  0  0  0
  -22.2704   -5.1697   24.0291 C   0  0  0  0  0  0  0  0  0  0  0  0
  -25.0391  -11.3626   21.2252 C   0  0  0  0  0  0  0  0  0  0  0  0
  -27.2060  -20.9598   20.1307 C   0  0  0  0  0  0  0  0  0  0  0  0
  -27.2183  -22.9097   21.3458 C   0  0  0  0  0  0  0  0  0  0  0  0
  -24.9209  -13.1389   19.9346 C   0  0  0  0  0  0  0  0  0  0  0  0
  -22.6952  -12.2359   20.6267 C   0  0  0  0  0  0  0  0  0  0  0  0
  -24.6977  -31.7596   22.9323 C   0  0  0  0  0  0  0  0  0  0  0  0
  -22.1029  -31.8746   20.9891 C   0  0  0  0  0  0  0  0  0  0  0  0
  -20.2640  -30.3999   18.5211 C   0  0  0  0  0  0  0  0  0  0  0  0
  -29.3646  -16.5052   19.7970 C   0  0  0  0  0  0  0  0  0  0  0  0
  -27.3623  -35.0284   25.8085 C   0  0  0  0  0  0  0  0  0  0  0  0
  -25.7434  -31.3647   20.6726 C   0  0  0  0  0  0  0  0  0  0  0  0
  -23.3468  -29.6815   21.0822 C   0  0  0  0  0  0  0  0  0  0  0  0
  -25.9292  -34.9490   25.2889 C   0  0  0  0  0  0  0  0  0  0  0  0
  -29.8653  -13.1101   18.9572 C   0  0  0  0  0  0  0  0  0  0  0  0
  -25.3392  -33.5685   25.5589 C   0  0  0  0  0  0  0  0  0  0  0  0
  -28.6004  -12.4108   19.4474 C   0  0  0  0  0  0  0  0  0  0  0  0
  -27.0029  -18.7500   21.4816 C   0  0  0  0  0  0  0  0  0  0  0  0
  -30.2803  -14.2147   19.9198 C   0  0  0  0  0  0  0  0  0  0  0  0
  -27.3424  -17.3022   21.1534 C   0  0  0  0  0  0  0  0  0  0  0  0
  -28.3422  -18.7435   19.5208 C   0  0  0  0  0  0  0  0  0  0  0  0
  -27.9264  -14.5741   20.6128 C   0  0  0  0  0  0  0  0  0  0  0  0
  -26.1346  -32.4769   24.8327 C   0  0  1  0  0  0  0  0  0  0  0  0
  -27.1166  -19.4498   20.1175 C   0  0  2  0  0  0  0  0  0  0  0  0
  -24.5284  -31.8714   21.4435 C   0  0  1  0  0  0  0  0  0  0  0  0
  -27.4745  -13.4296   19.6823 C   0  0  2  0  0  0  0  0  0  0  0  0
  -27.1432  -23.5574   22.6895 C   0  0  0  0  0  0  0  0  0  0  0  0
  -18.1743  -30.7127   17.1673 C   0  0  0  0  0  0  0  0  0  0  0  0
  -20.4232  -31.0227   23.3896 C   0  0  0  0  0  0  0  0  0  0  0  0
  -18.5772  -30.4383   21.8024 C   0  0  0  0  0  0  0  0  0  0  0  0
  -19.3821  -32.7940   21.9637 C   0  0  0  0  0  0  0  0  0  0  0  0
  -21.7826  -30.4850   15.9823 C   0  0  0  0  0  0  0  0  0  0  0  0
  -27.4504  -25.1689   20.2618 C   0  0  0  0  0  0  0  0  0  1  0  0
  -20.8405  -31.0599   20.8420 C   0  0  1  0  0  0  0  0  0  0  0  0
  -19.6742  -30.9539   17.2367 C   0  0  2  0  0  0  0  0  0  0  0  0
  -19.8315  -31.3169   21.9967 C   0  0  0  0  0  0  0  0  0  0  0  0
  -26.3122  -11.6794   20.9745 N   0  0  0  0  0  0  0  0  0  0  0  0
  -27.1365  -21.5602   21.3400 N   0  0  0  0  0  0  0  0  0  0  0  0
  -26.2075  -12.7634   20.1871 N   0  0  0  0  0  0  0  0  0  0  0  0
  -23.3000  -31.1529   21.0983 N   0  0  0  0  0  0  0  0  0  0  0  0
  -29.1923  -15.1647   20.1592 N   0  0  0  0  0  0  0  0  0  0  0  0
  -28.3293  -17.3954   20.0796 N   0  0  0  0  0  0  0  0  0  0  0  0
  -24.6355  -14.2081   19.1613 N   0  0  0  0  0  0  0  0  0  0  0  0
  -22.0429  -12.9600   21.6340 N   0  0  0  0  0  0  0  0  0  0  0  0
  -25.7880  -32.4489   23.4279 N   0  0  0  0  0  0  0  0  0  0  0  0
  -20.3160  -31.3561   19.5132 N   0  0  0  0  0  0  0  0  0  0  0  0
  -20.3094  -30.3071   16.0538 N   0  3  0  0  0  0  0  0  0  0  0  0
  -22.0130  -11.5974   19.7897 O   0  0  0  0  0  0  0  0  0  0  0  0
  -23.8974  -31.0983   23.5834 O   0  0  0  0  0  0  0  0  0  0  0  0
  -22.0303  -33.1059   20.9992 O   0  0  0  0  0  0  0  0  0  0  0  0
  -20.6375  -29.2345   18.6342 O   0  0  0  0  0  0  0  0  0  0  0  0
  -30.4178  -16.9009   19.2793 O   0  0  0  0  0  0  0  0  0  0  0  0
  -23.8258   -6.9591   24.4507 O   0  0  0  0  0  0  0  0  0  0  0  0
  -26.1572  -25.7081   20.5100 O   0  0  0  0  0  0  0  0  0  1  0  0
  -18.6489   -5.0629   24.3607 F   0  0  0  0  0  0  0  0  0  0  0  0
  -23.2792   -4.3644   23.6690 F   0  0  0  0  0  0  0  0  0  0  0  0
  1  2  1  0  0  0  0
  1  5  2  0  0  0  0
  2  6  2  0  0  0  0
  3  9  2  0  0  0  0
  3 17  1  0  0  0  0
  4 10  1  0  0  0  0
  4 17  2  0  0  0  0
  5 19  1  0  0  0  0
  6 21  1  0  0  0  0
  7 11  2  0  0  0  0
  7 20  1  0  0  0  0
  8 14  2  0  0  0  0
  8 23  1  0  0  0  0
  9 24  1  0  0  0  0
 10 24  2  0  0  0  0
 11 25  1  0  0  0  0
 12 13  2  0  0  0  0
 12 26  1  0  0  0  0
 13 27  1  0  0  0  0
 14 30  1  0  0  0  0
 15 22  1  0  0  0  0
 15 25  2  0  0  0  0
 16 27  2  0  0  0  0
 16 28  1  0  0  0  0
 17 29  1  0  0  0  0
 18 29  1  0  0  0  0
 18 32  2  0  0  0  0
 18 33  1  0  0  0  0
 19 21  2  0  0  0  0
 19 38  1  0  0  0  0
 20 22  2  0  0  0  0
 20 39  1  0  0  0  0
 21 50  1  0  0  0  0
 22 40  1  0  0  0  0
 23 31  2  0  0  0  0
 23 60  1  0  0  0  0
 24 80  1  0  0  0  0
 25 81  1  0  0  0  0
 26 28  2  0  0  0  0
 26 80  1  0  0  0  0
 27 82  1  0  0  0  0
 28 83  1  0  0  0  0
 29 64  2  0  0  0  0
 30 51  1  0  0  0  0
 30 65  2  0  0  0  0
 31 54  1  0  0  0  0
 31 65  1  0  0  0  0
 32 66  1  0  0  0  0
 32 70  1  0  0  0  0
 33 71  1  0  0  0  0
 33 75  2  0  0  0  0
 34 52  1  0  0  0  0
 34 72  1  0  0  0  0
 34 76  2  0  0  0  0
 35 61  1  0  0  0  0
 35 67  1  0  0  0  0
 35 77  2  0  0  0  0
 36 62  1  0  0  0  0
 36 73  1  0  0  0  0
 36 78  2  0  0  0  0
 37 68  1  0  0  0  0
 37 69  1  0  0  0  0
 37 79  2  0  0  0  0
 38 41  1  0  0  0  0
 39 52  1  0  0  0  0
 40 67  1  0  0  0  0
 41 43  1  0  0  0  0
 42 44  1  0  0  0  0
 42 46  1  0  0  0  0
 43 50  1  0  0  0  0
 44 53  1  0  0  0  0
 45 47  1  0  0  0  0
 45 51  1  0  0  0  0
 46 68  1  0  0  0  0
 47 69  1  0  0  0  0
 48 51  1  0  0  0  0
 48 69  1  0  0  0  0
 49 53  1  0  0  0  0
 49 68  1  0  0  0  0
 50 72  1  0  0  0  0
 52 67  1  0  0  0  0
 53 66  1  0  0  0  0
 55 62  1  0  0  0  0
 56 63  1  0  0  0  0
 57 63  1  0  0  0  0
 58 63  1  0  0  0  0
 59 74  1  0  0  0  0
 60 81  1  0  0  0  0
 61 63  1  0  0  0  0
 61 73  1  0  0  0  0
 62 74  1  0  0  0  0
 64 66  1  0  0  0  0
M  CHG  1  74   1
M  ISO  4  37 100  60 101  69 100  81 101
M  END
> <Batch ID>
0193

> <Smiles>
CNC(C)C(=O)NC(C(=O)N1Cc2cc([101O:1][101CH2:1]c3ccc(C4CC[100N:0]([100C:0](=O)N5CCCC(n6nc(-c7ccc(Oc8ccc(F)cc8F)cc7)c(C(N)=O)c6N)C5)C4)nc3C)ccc2CC1C(=O)NC1CCCc2ccccc21)C(C)(C)C

> <Shape>
0.292

> <Color>
0.109

> <Negative vol penalty>
0.000

$$$$

  -OEChem-04052323323D

 89 98  0     1  0  0  0  0  0999 V2000
  -38.9550  -28.6392   26.6375 C   0  0  0  0  0  0  0  0  0  0  0  0
  -38.3686  -28.2646   25.4328 C   0  0  0  0  0  0  0  0  0  0  0  0
  -23.1244   -9.8157   19.8696 C   0  0  0  0  0  0  0  0  0  0  0  0
  -23.9069   -9.7380   22.1540 C   0  0  0  0  0  0  0  0  0  0  0  0
  -38.3844  -28.2364   27.8442 C   0  0  0  0  0  0  0  0  0  0  0  0
  -37.2118  -27.4859   25.4342 C   0  0  0  0  0  0  0  0  0  0  0  0
  -32.5756  -27.7740   21.4432 C   0  0  0  0  0  0  0  0  0  0  0  0
  -22.4434   -8.6137   20.0619 C   0  0  0  0  0  0  0  0  0  0  0  0
  -23.2258   -8.5360   22.3464 C   0  0  0  0  0  0  0  0  0  0  0  0
  -32.2576  -27.0141   20.3184 C   0  0  0  0  0  0  0  0  0  0  0  0
  -20.0494   -7.5403   22.9291 C   0  0  0  0  0  0  0  0  0  0  0  0
  -19.3078   -7.3979   24.1018 C   0  0  0  0  0  0  0  0  0  0  0  0
  -30.7799  -25.6585   21.6592 C   0  0  0  0  0  0  0  0  0  0  0  0
  -20.6548   -5.4905   24.7220 C   0  0  0  0  0  0  0  0  0  0  0  0
  -28.9732  -18.8461   21.2564 C   0  0  0  0  0  0  0  0  0  0  0  0
  -23.8562  -10.3779   20.9156 C   0  0  0  0  0  0  0  0  0  0  0  0
  -24.0665  -12.9201   20.9310 C   0  0  0  0  0  0  0  0  0  0  0  0
  -37.2146  -27.4605   27.8605 C   0  0  0  0  0  0  0  0  0  0  0  0
  -32.0054  -27.4745   22.6889 C   0  0  0  0  0  0  0  0  0  0  0  0
  -36.6258  -27.0712   26.6422 C   0  0  0  0  0  0  0  0  0  0  0  0
  -31.0903  -26.4177   22.7978 C   0  0  0  0  0  0  0  0  0  0  0  0
  -22.4941   -7.9738   21.3003 C   0  0  0  0  0  0  0  0  0  0  0  0
  -31.3619  -25.9544   20.4268 C   0  0  0  0  0  0  0  0  0  0  0  0
  -21.0937   -6.6578   22.6527 C   0  0  0  0  0  0  0  0  0  0  0  0
  -19.6105   -6.3730   24.9983 C   0  0  0  0  0  0  0  0  0  0  0  0
  -21.3964   -5.6329   23.5492 C   0  0  0  0  0  0  0  0  0  0  0  0
  -24.5603  -11.6192   20.7174 C   0  0  0  0  0  0  0  0  0  0  0  0
  -30.2224  -18.2598   21.2412 C   0  0  0  0  0  0  0  0  0  0  0  0
  -28.7964  -19.8971   20.3799 C   0  0  0  0  0  0  0  0  0  0  0  0
  -25.1148  -13.7438   20.6008 C   0  0  0  0  0  0  0  0  0  0  0  0
  -30.9318  -19.6948   19.6274 C   0  0  0  0  0  0  0  0  0  0  0  0
  -22.7756  -13.3459   21.3871 C   0  0  0  0  0  0  0  0  0  0  0  0
  -33.1416  -26.5733   25.5174 C   0  0  0  0  0  0  0  0  0  0  0  0
  -30.0550  -26.9503   26.4410 C   0  0  0  0  0  0  0  0  0  0  0  0
  -26.7584  -27.0398   25.5629 C   0  0  0  0  0  0  0  0  0  0  0  0
  -30.5406  -15.0344   20.8026 C   0  0  0  0  0  0  0  0  0  0  0  0
  -36.6612  -27.0094   29.1889 C   0  0  0  0  0  0  0  0  0  0  0  0
  -32.3383  -28.3205   23.8871 C   0  0  0  0  0  0  0  0  0  0  0  0
  -30.4351  -26.0680   24.1081 C   0  0  0  0  0  0  0  0  0  0  0  0
  -35.2244  -26.5001   29.1089 C   0  0  0  0  0  0  0  0  0  0  0  0
  -29.5022  -12.7267   18.2980 C   0  0  0  0  0  0  0  0  0  0  0  0
  -35.0621  -25.5428   27.9323 C   0  0  0  0  0  0  0  0  0  0  0  0
  -28.0864  -12.3357   18.7253 C   0  0  0  0  0  0  0  0  0  0  0  0
  -25.7273  -21.8552   19.3308 C   0  0  0  0  0  0  0  0  0  0  0  0
  -30.4193  -12.9295   19.5022 C   0  0  0  0  0  0  0  0  0  0  0  0
  -28.4971  -13.4848   20.9411 C   0  0  0  0  0  0  0  0  0  0  0  0
  -25.6589  -23.2577   18.7617 C   0  0  0  0  0  0  0  0  0  0  0  0
  -27.7083  -22.9567   20.0532 C   0  0  0  0  0  0  0  0  0  0  0  0
  -35.3568  -26.2478   26.6028 C   0  0  1  0  0  0  0  0  0  0  0  0
  -32.0922  -27.6041   25.2113 C   0  0  1  0  0  0  0  0  0  0  0  0
  -27.5209  -13.3239   19.7631 C   0  0  2  0  0  0  0  0  0  0  0  0
  -27.2210  -21.6297   19.5001 C   0  0  1  0  0  0  0  0  0  0  0  0
  -24.4661  -27.3292   26.5422 C   0  0  0  0  0  0  0  0  0  0  0  0
  -30.1656  -24.1039   27.5345 C   0  0  0  0  0  0  0  0  0  0  0  0
  -27.6635  -24.1144   27.6212 C   0  0  0  0  0  0  0  0  0  0  0  0
  -28.9642  -25.7377   28.9980 C   0  0  0  0  0  0  0  0  0  0  0  0
  -26.2420  -29.4576   23.9360 C   0  0  0  0  0  0  0  0  0  0  0  0
  -30.5088  -17.1154   22.1545 C   0  0  0  0  0  0  0  0  0  0  0  0
  -31.9956  -22.5692   18.5571 C   0  0  0  0  0  0  0  0  0  0  0  0
  -31.8904  -23.7547   17.5966 C   0  0  0  0  0  0  0  0  0  0  0  0
  -31.7940  -21.2276   17.8574 C   0  0  0  0  0  0  0  0  0  0  0  0
  -32.0554  -25.0821   18.3259 C   0  0  0  0  0  0  0  0  0  1  0  0
  -28.8382  -26.0584   26.4933 C   0  0  1  0  0  0  0  0  0  0  0  0
  -25.6536  -28.0260   25.8964 C   0  0  2  0  0  0  0  0  0  0  0  0
  -28.9215  -25.0087   27.6373 C   0  0  0  0  0  0  0  0  0  0  0  0
  -25.8240  -11.6119   20.2849 N   0  0  0  0  0  0  0  0  0  0  0  0
  -31.2286  -18.6602   20.4366 N   0  0  0  0  0  0  0  0  0  0  0  0
  -29.7576  -20.3495   19.5481 N   0  0  0  0  0  0  0  0  0  0  0  0
  -26.1331  -12.9184   20.2239 N   0  0  0  0  0  0  0  0  0  0  0  0
  -30.7977  -26.9208   25.2522 N   0  0  0  0  0  0  0  0  0  0  0  0
  -29.8259  -13.8786   20.4471 N   0  0  0  0  0  0  0  0  0  0  0  0
  -25.2558  -15.0864   20.5989 N   0  0  0  0  0  0  0  0  0  0  0  0
  -21.8154  -12.3686   21.6820 N   0  0  0  0  0  0  0  0  0  0  0  0
  -27.5277  -20.5269   20.3642 N   0  0  0  0  0  0  0  0  0  0  0  0
  -31.9425  -20.1327   18.7865 N   0  0  0  0  0  0  0  0  0  0  0  0
  -34.2326  -27.0684   26.2059 N   0  0  0  0  0  0  0  0  0  0  0  0
  -27.6843  -26.9468   26.5804 N   0  0  0  0  0  0  0  0  0  0  0  0
  -29.9034  -15.8839   21.6986 N   0  0  0  0  0  0  0  0  0  0  0  0
  -26.8075  -23.9739   19.4119 N   0  3  0  0  0  0  0  0  0  0  0  0
  -25.1809  -28.7118   24.6606 N   0  3  0  0  0  0  0  0  0  0  0  0
  -22.4771  -14.5577   21.5133 O   0  0  0  0  0  0  0  0  0  0  0  0
  -32.9733  -25.4142   25.1569 O   0  0  0  0  0  0  0  0  0  0  0  0
  -30.3322  -27.6529   27.4163 O   0  0  0  0  0  0  0  0  0  0  0  0
  -26.7943  -26.4118   24.5071 O   0  0  0  0  0  0  0  0  0  0  0  0
  -31.6613  -15.2928   20.3506 O   0  0  0  0  0  0  0  0  0  0  0  0
  -21.8295   -6.8010   21.4884 O   0  0  0  0  0  0  0  0  0  0  0  0
  -31.0503  -25.2106   19.3306 O   0  0  0  0  0  0  0  0  0  1  0  0
  -18.8992   -6.2373   26.1251 F   0  0  0  0  0  0  0  0  0  0  0  0
  -22.3992   -4.7827   23.2897 F   0  0  0  0  0  0  0  0  0  0  0  0
  1  2  1  0  0  0  0
  1  5  2  0  0  0  0
  2  6  2  0  0  0  0
  3  8  2  0  0  0  0
  3 16  1  0  0  0  0
  4  9  1  0  0  0  0
  4 16  2  0  0  0  0
  5 18  1  0  0  0  0
  6 20  1  0  0  0  0
  7 10  2  0  0  0  0
  7 19  1  0  0  0  0
  8 22  1  0  0  0  0
  9 22  2  0  0  0  0
 10 23  1  0  0  0  0
 11 12  2  0  0  0  0
 11 24  1  0  0  0  0
 12 25  1  0  0  0  0
 13 21  1  0  0  0  0
 13 23  2  0  0  0  0
 14 25  2  0  0  0  0
 14 26  1  0  0  0  0
 15 28  1  0  0  0  0
 15 29  2  0  0  0  0
 16 27  1  0  0  0  0
 17 27  1  0  0  0  0
 17 30  2  0  0  0  0
 17 32  1  0  0  0  0
 18 20  2  0  0  0  0
 18 37  1  0  0  0  0
 19 21  2  0  0  0  0
 19 38  1  0  0  0  0
 20 49  1  0  0  0  0
 21 39  1  0  0  0  0
 22 86  1  0  0  0  0
 23 87  1  0  0  0  0
 24 26  2  0  0  0  0
 24 86  1  0  0  0  0
 25 88  1  0  0  0  0
 26 89  1  0  0  0  0
 27 66  2  0  0  0  0
 28 58  1  0  0  0  0
 28 67  2  0  0  0  0
 29 68  1  0  0  0  0
 29 74  1  0  0  0  0
 30 69  1  0  0  0  0
 30 72  1  0  0  0  0
 31 67  1  0  0  0  0
 31 68  2  0  0  0  0
 31 75  1  0  0  0  0
 32 73  1  0  0  0  0
 32 81  2  0  0  0  0
 33 50  1  0  0  0  0
 33 76  1  0  0  0  0
 33 82  2  0  0  0  0
 34 63  1  0  0  0  0
 34 70  1  0  0  0  0
 34 83  2  0  0  0  0
 35 64  1  0  0  0  0
 35 77  1  0  0  0  0
 35 84  2  0  0  0  0
 36 71  1  0  0  0  0
 36 78  1  0  0  0  0
 36 85  2  0  0  0  0
 37 40  1  0  0  0  0
 38 50  1  0  0  0  0
 39 70  1  0  0  0  0
 40 42  1  0  0  0  0
 41 43  1  0  0  0  0
 41 45  1  0  0  0  0
 42 49  1  0  0  0  0
 43 51  1  0  0  0  0
 44 47  1  0  0  0  0
 44 52  1  0  0  0  0
 45 71  1  0  0  0  0
 46 51  1  0  0  0  0
 46 71  1  0  0  0  0
 47 79  1  0  0  0  0
 48 52  1  0  0  0  0
 48 79  1  0  0  0  0
 49 76  1  0  0  0  0
 50 70  1  0  0  0  0
 51 69  1  0  0  0  0
 52 74  1  0  0  0  0
 53 64  1  0  0  0  0
 54 65  1  0  0  0  0
 55 65  1  0  0  0  0
 56 65  1  0  0  0  0
 57 80  1  0  0  0  0
 58 78  1  0  0  0  0
 59 60  1  0  0  0  0
 59 61  1  0  0  0  0
 60 62  1  0  0  0  0
 61 75  1  0  0  0  0
 62 87  1  0  0  0  0
 63 65  1  0  0  0  0
 63 77  1  0  0  0  0
 64 80  1  0  0  0  0
 66 69  1  0  0  0  0
M  CHG  2  79   1  80   1
M  ISO  4  36 100  62 101  78 100  87 101
M  END
> <Batch ID>
0193

> <Smiles>
CNC(C)C(=O)NC(C(=O)N1Cc2cc([101O:1][101CH2:1]CCCNc3nc(C[100NH:0][100C:0](=O)N4CCCC(n5nc(-c6ccc(Oc7ccc(F)cc7F)cc6)c(C(N)=O)c5N)C4)cc(NC4CCNC4)n3)ccc2CC1C(=O)NC1CCCc2ccccc21)C(C)(C)C

> <Shape>
0.235

> <Color>
0.200

> <Negative vol penalty>
0.000

$$$$

  -OEChem-04052323323D

 83 92  0     1  0  0  0  0  0999 V2000
  -24.0386  -29.4942   15.3293 C   0  0  0  0  0  0  0  0  0  0  0  0
  -24.6545  -28.2490   15.4034 C   0  0  0  0  0  0  0  0  0  0  0  0
  -23.1647   -9.8396   19.8541 C   0  0  0  0  0  0  0  0  0  0  0  0
  -23.8266   -9.8037   22.1774 C   0  0  0  0  0  0  0  0  0  0  0  0
  -24.3887  -30.4985   16.2308 C   0  0  0  0  0  0  0  0  0  0  0  0
  -25.6217  -28.0077   16.3784 C   0  0  0  0  0  0  0  0  0  0  0  0
  -26.6513  -22.7343   19.3172 C   0  0  0  0  0  0  0  0  0  0  0  0
  -22.4526   -8.6545   20.0387 C   0  0  0  0  0  0  0  0  0  0  0  0
  -23.1145   -8.6186   22.3620 C   0  0  0  0  0  0  0  0  0  0  0  0
  -27.5857  -21.7183   19.1214 C   0  0  0  0  0  0  0  0  0  0  0  0
  -19.8945   -7.6922   22.8017 C   0  0  0  0  0  0  0  0  0  0  0  0
  -19.0908   -7.5909   23.9372 C   0  0  0  0  0  0  0  0  0  0  0  0
  -29.0123  -22.7168   20.7908 C   0  0  0  0  0  0  0  0  0  0  0  0
  -20.3686   -5.6761   24.6708 C   0  0  0  0  0  0  0  0  0  0  0  0
  -34.0039  -16.5591   18.8594 C   0  0  0  0  0  0  0  0  0  0  0  0
  -23.8517  -10.4142   20.9235 C   0  0  0  0  0  0  0  0  0  0  0  0
  -24.1078  -12.9521   20.8906 C   0  0  0  0  0  0  0  0  0  0  0  0
  -25.3537  -30.2664   17.2235 C   0  0  0  0  0  0  0  0  0  0  0  0
  -26.8957  -23.7569   20.2451 C   0  0  0  0  0  0  0  0  0  0  0  0
  -25.9860  -29.0103   17.2932 C   0  0  0  0  0  0  0  0  0  0  0  0
  -28.0782  -23.7432   20.9984 C   0  0  0  0  0  0  0  0  0  0  0  0
  -22.4275   -8.0440   21.2926 C   0  0  0  0  0  0  0  0  0  0  0  0
  -28.7677  -21.7110   19.8562 C   0  0  0  0  0  0  0  0  0  0  0  0
  -20.9352   -6.7854   22.6006 C   0  0  0  0  0  0  0  0  0  0  0  0
  -19.3279   -6.5829   24.8718 C   0  0  0  0  0  0  0  0  0  0  0  0
  -21.1722   -5.7774   23.5352 C   0  0  0  0  0  0  0  0  0  0  0  0
  -24.5879  -11.6381   20.7333 C   0  0  0  0  0  0  0  0  0  0  0  0
  -33.8668  -18.2241   17.5403 C   0  0  0  0  0  0  0  0  0  0  0  0
  -33.0822  -18.5551   18.6233 C   0  0  0  0  0  0  0  0  0  0  0  0
  -25.1868  -13.7494   20.5964 C   0  0  0  0  0  0  0  0  0  0  0  0
  -31.7564  -18.4674   21.0556 C   0  0  0  0  0  0  0  0  0  0  0  0
  -32.5122  -17.4144   20.7011 C   0  0  0  0  0  0  0  0  0  0  0  0
  -31.7068  -19.6027   20.0792 C   0  0  0  0  0  0  0  0  0  0  0  0
  -22.8032  -13.4110   21.2690 C   0  0  0  0  0  0  0  0  0  0  0  0
  -27.2315  -26.9128   20.0685 C   0  0  0  0  0  0  0  0  0  0  0  0
  -27.3046  -26.6951   23.3041 C   0  0  0  0  0  0  0  0  0  0  0  0
  -27.9131  -24.7855   26.0664 C   0  0  0  0  0  0  0  0  0  0  0  0
  -30.5324  -14.8845   21.3455 C   0  0  0  0  0  0  0  0  0  0  0  0
  -25.7332  -31.3978   18.1457 C   0  0  0  0  0  0  0  0  0  0  0  0
  -25.8656  -24.8309   20.4638 C   0  0  0  0  0  0  0  0  0  0  0  0
  -28.3792  -24.8068   22.0214 C   0  0  0  0  0  0  0  0  0  0  0  0
  -26.4974  -30.9424   19.3861 C   0  0  0  0  0  0  0  0  0  0  0  0
  -29.6509  -12.6444   18.5378 C   0  0  0  0  0  0  0  0  0  0  0  0
  -27.6029  -29.9637   19.0027 C   0  0  0  0  0  0  0  0  0  0  0  0
  -28.2275  -12.2484   18.9169 C   0  0  0  0  0  0  0  0  0  0  0  0
  -30.5338  -12.8636   19.7658 C   0  0  0  0  0  0  0  0  0  0  0  0
  -28.5365  -13.4418   21.1191 C   0  0  0  0  0  0  0  0  0  0  0  0
  -27.0219  -28.7023   18.3525 C   0  0  1  0  0  0  0  0  0  0  0  0
  -26.4497  -26.1053   21.0657 C   0  0  1  0  0  0  0  0  0  0  0  0
  -27.6250  -13.2681   19.8949 C   0  0  2  0  0  0  0  0  0  0  0  0
  -27.9230  -24.8946   28.5734 C   0  0  0  0  0  0  0  0  0  0  0  0
  -29.9325  -28.2436   23.2240 C   0  0  0  0  0  0  0  0  0  0  0  0
  -30.3597  -27.5037   25.5773 C   0  0  0  0  0  0  0  0  0  0  0  0
  -28.3759  -28.9245   25.0592 C   0  0  0  0  0  0  0  0  0  0  0  0
  -25.8408  -22.6835   26.2817 C   0  0  0  0  0  0  0  0  0  0  0  0
  -32.6559  -16.2066   21.5764 C   0  0  0  0  0  0  0  0  0  0  0  0
  -30.8710  -20.7753   20.4533 C   0  0  0  0  0  0  0  0  0  1  0  0
  -28.3871  -26.5012   24.3384 C   0  0  1  0  0  0  0  0  0  0  0  0
  -27.1078  -24.5616   27.3336 C   0  0  2  0  0  0  0  0  0  0  0  0
  -29.2593  -27.7742   24.5291 C   0  0  0  0  0  0  0  0  0  0  0  0
  -34.4344  -16.9873   17.6937 N   0  0  0  0  0  0  0  0  0  0  0  0
  -25.8719  -11.5986   20.3674 N   0  0  0  0  0  0  0  0  0  0  0  0
  -32.3304  -19.6436   18.9368 N   0  0  0  0  0  0  0  0  0  0  0  0
  -33.1767  -17.4670   19.4750 N   0  0  0  0  0  0  0  0  0  0  0  0
  -26.2077  -12.8977   20.2922 N   0  0  0  0  0  0  0  0  0  0  0  0
  -27.3437  -25.8391   22.1944 N   0  0  0  0  0  0  0  0  0  0  0  0
  -29.9094  -13.7850   20.7284 N   0  0  0  0  0  0  0  0  0  0  0  0
  -25.3524  -15.0890   20.5706 N   0  0  0  0  0  0  0  0  0  0  0  0
  -21.8111  -12.4577   21.5361 N   0  0  0  0  0  0  0  0  0  0  0  0
  -26.4698  -27.8227   19.3604 N   0  0  0  0  0  0  0  0  0  0  0  0
  -27.7156  -26.0496   25.5523 N   0  0  0  0  0  0  0  0  0  0  0  0
  -31.8647  -15.0976   21.0052 N   0  0  0  0  0  0  0  0  0  0  0  0
  -26.6717  -23.1396   27.4257 N   0  3  0  0  0  0  0  0  0  0  0  0
  -22.5209  -14.6304   21.3512 O   0  0  0  0  0  0  0  0  0  0  0  0
  -28.4368  -26.7253   19.9512 O   0  0  0  0  0  0  0  0  0  0  0  0
  -26.4515  -27.5689   23.4781 O   0  0  0  0  0  0  0  0  0  0  0  0
  -28.6471  -23.9262   25.5831 O   0  0  0  0  0  0  0  0  0  0  0  0
  -29.9514  -15.6229   22.1482 O   0  0  0  0  0  0  0  0  0  0  0  0
  -21.7326   -6.8877   21.4731 O   0  0  0  0  0  0  0  0  0  0  0  0
  -29.6818  -20.7208   19.6665 O   0  0  0  0  0  0  0  0  0  1  0  0
  -18.5570   -6.4868   25.9630 F   0  0  0  0  0  0  0  0  0  0  0  0
  -22.1713   -4.9040   23.3481 F   0  0  0  0  0  0  0  0  0  0  0  0
  -34.1391  -19.1822   16.1576 Cl  0  0  0  0  0  0  0  0  0  0  0  0
  1  2  1  0  0  0  0
  1  5  2  0  0  0  0
  2  6  2  0  0  0  0
  3  8  2  0  0  0  0
  3 16  1  0  0  0  0
  4  9  1  0  0  0  0
  4 16  2  0  0  0  0
  5 18  1  0  0  0  0
  6 20  1  0  0  0  0
  7 10  2  0  0  0  0
  7 19  1  0  0  0  0
  8 22  1  0  0  0  0
  9 22  2  0  0  0  0
 10 23  1  0  0  0  0
 11 12  2  0  0  0  0
 11 24  1  0  0  0  0
 12 25  1  0  0  0  0
 13 21  1  0  0  0  0
 13 23  2  0  0  0  0
 14 25  2  0  0  0  0
 14 26  1  0  0  0  0
 15 61  2  0  0  0  0
 15 64  1  0  0  0  0
 16 27  1  0  0  0  0
 17 27  1  0  0  0  0
 17 30  2  0  0  0  0
 17 34  1  0  0  0  0
 18 20  2  0  0  0  0
 18 39  1  0  0  0  0
 19 21  2  0  0  0  0
 19 40  1  0  0  0  0
 20 48  1  0  0  0  0
 21 41  1  0  0  0  0
 22 79  1  0  0  0  0
 23 80  1  0  0  0  0
 24 26  2  0  0  0  0
 24 79  1  0  0  0  0
 25 81  1  0  0  0  0
 26 82  1  0  0  0  0
 27 62  2  0  0  0  0
 28 29  2  0  0  0  0
 28 61  1  0  0  0  0
 28 83  1  0  0  0  0
 29 63  1  0  0  0  0
 29 64  1  0  0  0  0
 30 65  1  0  0  0  0
 30 68  1  0  0  0  0
 31 32  2  0  0  0  0
 31 33  1  0  0  0  0
 32 56  1  0  0  0  0
 32 64  1  0  0  0  0
 33 57  1  0  0  0  0
 33 63  2  0  0  0  0
 34 69  1  0  0  0  0
 34 74  2  0  0  0  0
 35 49  1  0  0  0  0
 35 70  1  0  0  0  0
 35 75  2  0  0  0  0
 36 58  1  0  0  0  0
 36 66  1  0  0  0  0
 36 76  2  0  0  0  0
 37 59  1  0  0  0  0
 37 71  1  0  0  0  0
 37 77  2  0  0  0  0
 38 67  1  0  0  0  0
 38 72  1  0  0  0  0
 38 78  2  0  0  0  0
 39 42  1  0  0  0  0
 40 49  1  0  0  0  0
 41 66  1  0  0  0  0
 42 44  1  0  0  0  0
 43 45  1  0  0  0  0
 43 46  1  0  0  0  0
 44 48  1  0  0  0  0
 45 50  1  0  0  0  0
 46 67  1  0  0  0  0
 47 50  1  0  0  0  0
 47 67  1  0  0  0  0
 48 70  1  0  0  0  0
 49 66  1  0  0  0  0
 50 65  1  0  0  0  0
 51 59  1  0  0  0  0
 52 60  1  0  0  0  0
 53 60  1  0  0  0  0
 54 60  1  0  0  0  0
 55 73  1  0  0  0  0
 56 72  1  0  0  0  0
 57 80  1  0  0  0  0
 58 60  1  0  0  0  0
 58 71  1  0  0  0  0
 59 73  1  0  0  0  0
 62 65  1  0  0  0  0
M  CHG  1  73   1
M  ISO  4  38 100  57 101  72 100  80 101
M  END
> <Batch ID>
0193

> <Smiles>
CNC(C)C(=O)NC(C(=O)N1Cc2cc([101O:1][101CH2:1]c3cc(C[100NH:0][100C:0](=O)N4CCCC(n5nc(-c6ccc(Oc7ccc(F)cc7F)cc6)c(C(N)=O)c5N)C4)n4cnc(Cl)c4n3)ccc2CC1C(=O)NC1CCCc2ccccc21)C(C)(C)C

> <Shape>
0.219

> <Color>
0.202

> <Negative vol penalty>
0.000

$$$$

  -OEChem-04052323323D

 86 96  0     1  0  0  0  0  0999 V2000
  -21.2716  -30.1541   15.7636 C   0  0  0  0  0  0  0  0  0  0  0  0
  -21.4528  -28.9680   16.4676 C   0  0  0  0  0  0  0  0  0  0  0  0
  -23.0367  -10.4637   21.2684 C   0  0  0  0  0  0  0  0  0  0  0  0
  -24.7191   -8.8602   21.9281 C   0  0  0  0  0  0  0  0  0  0  0  0
  -21.9931  -31.2925   16.1205 C   0  0  0  0  0  0  0  0  0  0  0  0
  -22.3566  -28.9193   17.5283 C   0  0  0  0  0  0  0  0  0  0  0  0
  -21.8245  -25.6354   22.6702 C   0  0  0  0  0  0  0  0  0  0  0  0
  -22.1001   -9.4359   21.1586 C   0  0  0  0  0  0  0  0  0  0  0  0
  -23.7825   -7.8323   21.8184 C   0  0  0  0  0  0  0  0  0  0  0  0
  -22.3612  -24.4090   23.0597 C   0  0  0  0  0  0  0  0  0  0  0  0
  -21.2326   -6.5822   23.6502 C   0  0  0  0  0  0  0  0  0  0  0  0
  -21.1849   -5.6386   24.6764 C   0  0  0  0  0  0  0  0  0  0  0  0
  -24.1512  -25.5600   24.1957 C   0  0  0  0  0  0  0  0  0  0  0  0
  -21.6952   -3.8886   23.0908 C   0  0  0  0  0  0  0  0  0  0  0  0
  -26.7910  -21.2467   23.0654 C   0  0  0  0  0  0  0  0  0  0  0  0
  -24.3462  -10.1758   21.6531 C   0  0  0  0  0  0  0  0  0  0  0  0
  -25.6012  -12.0078   22.9087 C   0  0  0  0  0  0  0  0  0  0  0  0
  -22.8990  -31.2603   17.1924 C   0  0  0  0  0  0  0  0  0  0  0  0
  -22.4542  -26.8350   23.0320 C   0  0  0  0  0  0  0  0  0  0  0  0
  -23.0919  -30.0579   17.8991 C   0  0  0  0  0  0  0  0  0  0  0  0
  -23.6191  -26.8003   23.8117 C   0  0  0  0  0  0  0  0  0  0  0  0
  -26.7472  -21.4343   21.6989 C   0  0  0  0  0  0  0  0  0  0  0  0
  -22.4730   -8.1202   21.4336 C   0  0  0  0  0  0  0  0  0  0  0  0
  -23.5263  -24.3711   23.8201 C   0  0  0  0  0  0  0  0  0  0  0  0
  -21.5115   -6.1790   22.3443 C   0  0  0  0  0  0  0  0  0  0  0  0
  -21.4162   -4.2918   24.3967 C   0  0  0  0  0  0  0  0  0  0  0  0
  -21.7429   -4.8322   22.0646 C   0  0  0  0  0  0  0  0  0  0  0  0
  -25.3143  -11.2370   21.7661 C   0  0  0  0  0  0  0  0  0  0  0  0
  -25.7304  -22.2466   21.2401 C   0  0  0  0  0  0  0  0  0  0  0  0
  -26.5869  -12.8728   22.5006 C   0  0  0  0  0  0  0  0  0  0  0  0
  -24.9700  -22.5757   23.3568 C   0  0  0  0  0  0  0  0  0  1  0  0
  -25.0280  -11.9472   24.2215 C   0  0  0  0  0  0  0  0  0  0  0  0
  -23.7842  -29.2404   21.4354 C   0  0  0  0  0  0  0  0  0  0  0  0
  -24.0153  -30.5603   24.3895 C   0  0  0  0  0  0  0  0  0  0  0  0
  -24.1671  -30.0948   27.7670 C   0  0  0  0  0  0  0  0  0  0  0  0
  -28.6616  -16.4003   18.7072 C   0  0  0  0  0  0  0  0  0  0  0  0
  -23.6911  -32.5036   17.5110 C   0  0  0  0  0  0  0  0  0  0  0  0
  -21.8479  -28.1505   22.6265 C   0  0  0  0  0  0  0  0  0  0  0  0
  -24.3223  -28.0604   24.2433 C   0  0  0  0  0  0  0  0  0  0  0  0
  -24.3530  -32.4683   18.8861 C   0  0  0  0  0  0  0  0  0  0  0  0
  -29.3855  -12.9610   18.3105 C   0  0  0  0  0  0  0  0  0  0  0  0
  -25.0496  -31.1298   19.1092 C   0  0  0  0  0  0  0  0  0  0  0  0
  -26.3979  -23.6314   19.1638 C   0  0  0  0  0  0  0  0  0  0  0  0
  -24.9174  -23.7803   19.3256 C   0  0  0  0  0  0  0  0  0  0  0  0
  -28.3955  -12.2592   19.2357 C   0  0  0  0  0  0  0  0  0  0  0  0
  -26.3540  -18.6885   20.4171 C   0  0  0  0  0  0  0  0  0  0  0  0
  -28.7414  -14.1710   17.6474 C   0  0  0  0  0  0  0  0  0  0  0  0
  -26.6910  -17.2325   20.1219 C   0  0  0  0  0  0  0  0  0  0  0  0
  -28.6788  -18.5618   19.9159 C   0  0  0  0  0  0  0  0  0  0  0  0
  -27.2233  -14.4946   19.5819 C   0  0  0  0  0  0  0  0  0  0  0  0
  -24.0448  -29.9719   19.0716 C   0  0  1  0  0  0  0  0  0  0  0  0
  -25.5960  -22.5151   19.7763 C   0  0  0  0  0  0  0  0  0  0  0  0
  -22.8563  -29.2952   22.6159 C   0  0  1  0  0  0  0  0  0  0  0  0
  -27.7024  -19.2579   20.8596 C   0  0  1  0  0  0  0  0  0  0  0  0
  -27.8217  -13.2469   20.2634 C   0  0  1  0  0  0  0  0  0  0  0  0
  -29.1844  -21.2860   21.0725 C   0  0  0  0  0  0  0  0  0  0  0  0
  -24.3924  -31.3610   29.9218 C   0  0  0  0  0  0  0  0  0  0  0  0
  -26.9908  -30.9567   23.8428 C   0  0  0  0  0  0  0  0  0  0  0  0
  -27.3226  -31.3188   26.2978 C   0  0  0  0  0  0  0  0  0  0  0  0
  -25.8766  -32.8776   24.9931 C   0  0  0  0  0  0  0  0  0  0  0  0
  -21.5452  -29.1294   28.7429 C   0  0  0  0  0  0  0  0  0  0  0  0
  -27.7668  -20.7726   20.7827 C   0  0  2  0  0  0  0  0  0  0  0  0
  -25.0474  -30.5416   25.4911 C   0  0  1  0  0  0  0  0  0  0  0  0
  -23.4262  -30.7642   28.9104 C   0  0  2  0  0  0  0  0  0  0  0  0
  -26.2974  -31.3997   25.1466 C   0  0  0  0  0  0  0  0  0  0  0  0
  -25.9152  -21.8043   23.9270 N   0  0  0  0  0  0  0  0  0  0  0  0
  -26.0575  -11.5821   20.7114 N   0  0  0  0  0  0  0  0  0  0  0  0
  -24.8209  -22.8357   22.0439 N   0  0  0  0  0  0  0  0  0  0  0  0
  -26.8212  -12.5793   21.1894 N   0  0  0  0  0  0  0  0  0  0  0  0
  -23.6940  -29.3216   23.8167 N   0  0  0  0  0  0  0  0  0  0  0  0
  -28.1703  -15.0923   18.6317 N   0  0  0  0  0  0  0  0  0  0  0  0
  -28.0667  -17.2691   19.6212 N   0  0  0  0  0  0  0  0  0  0  0  0
  -27.2675  -13.8484   23.1390 N   0  0  0  0  0  0  0  0  0  0  0  0
  -24.0260  -10.9993   24.4699 N   0  0  0  0  0  0  0  0  0  0  0  0
  -23.3108  -29.8991   20.3167 N   0  0  0  0  0  0  0  0  0  0  0  0
  -24.3548  -30.9558   26.7065 N   0  0  0  0  0  0  0  0  0  0  0  0
  -22.5592  -29.7772   29.6141 N   0  3  0  0  0  0  0  0  0  0  0  0
  -25.3820  -12.7221   25.1422 O   0  0  0  0  0  0  0  0  0  0  0  0
  -24.8513  -28.6459   21.5328 O   0  0  0  0  0  0  0  0  0  0  0  0
  -23.5075  -31.6335   24.0548 O   0  0  0  0  0  0  0  0  0  0  0  0
  -24.5451  -28.9262   27.8117 O   0  0  0  0  0  0  0  0  0  0  0  0
  -29.5677  -16.7908   17.9586 O   0  0  0  0  0  0  0  0  0  0  0  0
  -21.5593   -7.1171   21.3268 O   0  0  0  0  0  0  0  0  0  0  0  0
  -24.0593  -23.1601   24.2059 O   0  0  0  0  0  0  0  0  0  1  0  0
  -21.3719   -3.3860   25.3824 F   0  0  0  0  0  0  0  0  0  0  0  0
  -22.0125   -4.4390   20.8123 F   0  0  0  0  0  0  0  0  0  0  0  0
  1  2  1  0  0  0  0
  1  5  2  0  0  0  0
  2  6  2  0  0  0  0
  3  8  2  0  0  0  0
  3 16  1  0  0  0  0
  4  9  1  0  0  0  0
  4 16  2  0  0  0  0
  5 18  1  0  0  0  0
  6 20  1  0  0  0  0
  7 10  2  0  0  0  0
  7 19  1  0  0  0  0
  8 23  1  0  0  0  0
  9 23  2  0  0  0  0
 10 24  1  0  0  0  0
 11 12  2  0  0  0  0
 11 25  1  0  0  0  0
 12 26  1  0  0  0  0
 13 21  1  0  0  0  0
 13 24  2  0  0  0  0
 14 26  2  0  0  0  0
 14 27  1  0  0  0  0
 15 22  1  0  0  0  0
 15 66  2  0  0  0  0
 16 28  1  0  0  0  0
 17 28  1  0  0  0  0
 17 30  2  0  0  0  0
 17 32  1  0  0  0  0
 18 20  2  0  0  0  0
 18 37  1  0  0  0  0
 19 21  2  0  0  0  0
 19 38  1  0  0  0  0
 20 51  1  0  0  0  0
 21 39  1  0  0  0  0
 22 29  2  0  0  0  0
 22 62  1  0  0  0  0
 23 83  1  0  0  0  0
 24 84  1  0  0  0  0
 25 27  2  0  0  0  0
 25 83  1  0  0  0  0
 26 85  1  0  0  0  0
 27 86  1  0  0  0  0
 28 67  2  0  0  0  0
 29 52  1  0  0  0  0
 29 68  1  0  0  0  0
 30 69  1  0  0  0  0
 30 73  1  0  0  0  0
 31 66  1  0  0  0  0
 31 68  2  0  0  0  0
 31 84  1  0  0  0  0
 32 74  1  0  0  0  0
 32 78  2  0  0  0  0
 33 53  1  0  0  0  0
 33 75  1  0  0  0  0
 33 79  2  0  0  0  0
 34 63  1  0  0  0  0
 34 70  1  0  0  0  0
 34 80  2  0  0  0  0
 35 64  1  0  0  0  0
 35 76  1  0  0  0  0
 35 81  2  0  0  0  0
 36 71  1  0  0  0  0
 36 72  1  0  0  0  0
 36 82  2  0  0  0  0
 37 40  1  0  0  0  0
 38 53  1  0  0  0  0
 39 70  1  0  0  0  0
 40 42  1  0  0  0  0
 41 45  1  0  0  0  0
 41 47  1  0  0  0  0
 42 51  1  0  0  0  0
 43 44  1  0  0  0  0
 43 52  1  0  0  0  0
 44 52  1  0  0  0  0
 45 55  1  0  0  0  0
 46 48  1  0  0  0  0
 46 54  1  0  0  0  0
 47 71  1  0  0  0  0
 48 72  1  0  0  0  0
 49 54  1  0  0  0  0
 49 72  1  0  0  0  0
 50 55  1  0  0  0  0
 50 71  1  0  0  0  0
 51 75  1  0  0  0  0
 53 70  1  0  0  0  0
 54 62  1  0  0  0  0
 55 69  1  0  0  0  0
 56 62  1  0  0  0  0
 57 64  1  0  0  0  0
 58 65  1  0  0  0  0
 59 65  1  0  0  0  0
 60 65  1  0  0  0  0
 61 77  1  0  0  0  0
 63 65  1  0  0  0  0
 63 76  1  0  0  0  0
 64 77  1  0  0  0  0
 67 69  1  0  0  0  0
M  CHG  1  77   1
M  ISO  4  31 101  36 100  72 100  84 101
M  END
> <Batch ID>
0193

> <Smiles>
CNC(C)C(=O)NC(C(=O)N1Cc2cc([101O:1][101c:1]3ncc(C(C)C4CC[100N:0]([100C:0](=O)N5CCCC(n6nc(-c7ccc(Oc8ccc(F)cc8F)cc7)c(C(N)=O)c6N)C5)C4)c(C4CC4)n3)ccc2CC1C(=O)NC1CCCc2ccccc21)C(C)(C)C

> <Shape>
0.248

> <Color>
0.106

> <Negative vol penalty>
0.000

$$$$

  -OEChem-04052323323D

 84 93  0     1  0  0  0  0  0999 V2000
  -20.1372  -31.0770   24.1170 C   0  0  0  0  0  0  0  0  0  0  0  0
  -21.4039  -30.5153   23.9934 C   0  0  0  0  0  0  0  0  0  0  0  0
  -25.5182  -13.8972   18.4534 C   0  0  0  0  0  0  0  0  0  0  0  0
  -24.8247  -14.1966   20.7482 C   0  0  0  0  0  0  0  0  0  0  0  0
  -19.0162  -30.3671   23.6887 C   0  0  0  0  0  0  0  0  0  0  0  0
  -21.5503  -29.2427   23.4424 C   0  0  0  0  0  0  0  0  0  0  0  0
  -25.3858  -28.9998   20.0186 C   0  0  0  0  0  0  0  0  0  0  0  0
  -25.6220  -12.5223   18.6641 C   0  0  0  0  0  0  0  0  0  0  0  0
  -24.9284  -12.8217   20.9590 C   0  0  0  0  0  0  0  0  0  0  0  0
  -26.6941  -28.9215   20.4939 C   0  0  0  0  0  0  0  0  0  0  0  0
  -23.1006  -10.0572   20.2981 C   0  0  0  0  0  0  0  0  0  0  0  0
  -22.0627   -9.4283   20.9859 C   0  0  0  0  0  0  0  0  0  0  0  0
  -26.6617  -26.5313   20.1714 C   0  0  0  0  0  0  0  0  0  0  0  0
  -23.6215   -8.7201   22.6905 C   0  0  0  0  0  0  0  0  0  0  0  0
  -25.1196  -14.7344   19.4954 C   0  0  0  0  0  0  0  0  0  0  0  0
  -23.8780  -16.8653   18.8431 C   0  0  0  0  0  0  0  0  0  0  0  0
  -19.1499  -29.0891   23.1233 C   0  0  0  0  0  0  0  0  0  0  0  0
  -24.7003  -27.8414   19.6250 C   0  0  0  0  0  0  0  0  0  0  0  0
  -20.4300  -28.5145   23.0073 C   0  0  0  0  0  0  0  0  0  0  0  0
  -25.3465  -26.5983   19.6870 C   0  0  0  0  0  0  0  0  0  0  0  0
  -25.3271  -11.9845   19.9169 C   0  0  0  0  0  0  0  0  0  0  0  0
  -27.3314  -27.6869   20.5725 C   0  0  0  0  0  0  0  0  0  0  0  0
  -24.3989  -10.0174   20.8064 C   0  0  0  0  0  0  0  0  0  0  0  0
  -22.3232   -8.7598   22.1821 C   0  0  0  0  0  0  0  0  0  0  0  0
  -24.6594   -9.3489   22.0027 C   0  0  0  0  0  0  0  0  0  0  0  0
  -25.0127  -16.1548   19.2785 C   0  0  0  0  0  0  0  0  0  0  0  0
  -24.2895  -18.1749   18.7975 C   0  0  0  0  0  0  0  0  0  0  0  0
  -31.0894  -23.9730   17.6706 C   0  0  0  0  0  0  0  0  0  0  0  0
  -30.4444  -22.6820   17.6912 C   0  0  0  0  0  0  0  0  0  0  0  0
  -32.0421  -24.5393   18.4190 C   0  0  0  0  0  0  0  0  0  0  0  0
  -22.5691  -16.3845   18.5098 C   0  0  0  0  0  0  0  0  0  0  0  0
  -22.0377  -26.3061   20.5191 C   0  0  0  0  0  0  0  0  0  0  0  0
  -22.8349  -24.4615   17.8705 C   0  0  0  0  0  0  0  0  0  0  0  0
  -19.7336  -23.0445   17.9869 C   0  0  0  0  0  0  0  0  0  0  0  0
  -29.7237  -20.5474   18.1161 C   0  0  0  0  0  0  0  0  0  0  0  0
  -17.9047  -28.3407   22.7182 C   0  0  0  0  0  0  0  0  0  0  0  0
  -23.2995  -27.9514   19.0865 C   0  0  0  0  0  0  0  0  0  0  0  0
  -24.6558  -25.3270   19.2732 C   0  0  0  0  0  0  0  0  0  0  0  0
  -30.2532  -24.4025   16.4750 C   0  0  0  0  0  0  0  0  0  0  0  0
  -29.5750  -23.0139   16.5154 C   0  0  0  0  0  0  0  0  0  0  0  0
  -18.1799  -27.1518   21.8011 C   0  0  0  0  0  0  0  0  0  0  0  0
  -34.5823  -27.2926   18.4426 C   0  0  0  0  0  0  0  0  0  0  0  0
  -27.3714  -21.2153   20.8155 C   0  0  0  0  0  0  0  0  0  0  0  0
  -19.3409  -26.3209   22.3382 C   0  0  0  0  0  0  0  0  0  0  0  0
  -34.0692  -25.9494   17.9104 C   0  0  0  0  0  0  0  0  0  0  0  0
  -26.4160  -20.0279   20.7021 C   0  0  0  0  0  0  0  0  0  0  0  0
  -33.3822  -27.9846   19.0832 C   0  0  0  0  0  0  0  0  0  0  0  0
  -28.8027  -20.8199   20.4632 C   0  0  0  0  0  0  0  0  0  0  0  0
  -27.9796  -18.9953   18.9984 C   0  0  0  0  0  0  0  0  0  0  0  0
  -20.6319  -27.1467   22.3920 C   0  0  1  0  0  0  0  0  0  0  0  0
  -32.5621  -25.9222   18.2038 C   0  0  2  0  0  0  0  0  0  0  0  0
  -22.5218  -26.6378   19.1360 C   0  0  1  0  0  0  0  0  0  0  0  0
  -26.5213  -19.3648   19.3174 C   0  0  1  0  0  0  0  0  0  0  0  0
  -32.4487  -26.8347   19.4228 C   0  0  2  0  0  0  0  0  0  0  0  0
  -18.2060  -21.5383   16.6849 C   0  0  0  0  0  0  0  0  0  0  0  0
  -22.2294  -26.7472   15.9432 C   0  0  0  0  0  0  0  0  0  0  0  0
  -20.1105  -25.5676   15.3212 C   0  0  0  0  0  0  0  0  0  0  0  0
  -22.3141  -24.4835   14.8835 C   0  0  0  0  0  0  0  0  0  0  0  0
  -19.6467  -21.0509   20.1725 C   0  0  0  0  0  0  0  0  0  0  0  0
  -30.8976  -28.2831   20.7401 C   0  0  0  0  0  0  0  0  0  0  0  0
  -29.4525  -28.7360   20.8098 C   0  0  0  0  0  0  0  0  0  1  0  0
  -21.4701  -24.6603   17.2602 C   0  0  1  0  0  0  0  0  0  0  0  0
  -19.2700  -21.6155   17.7687 C   0  0  2  0  0  0  0  0  0  0  0  0
  -21.5364  -25.3715   15.8791 C   0  0  0  0  0  0  0  0  0  0  0  0
  -26.0660  -16.9474   19.4939 N   0  0  0  0  0  0  0  0  0  0  0  0
  -30.5410  -21.6210   18.4164 N   0  0  0  0  0  0  0  0  0  0  0  0
  -25.5949  -18.1694   19.1926 N   0  0  0  0  0  0  0  0  0  0  0  0
  -23.3243  -25.4969   18.6770 N   0  0  0  0  0  0  0  0  0  0  0  0
  -28.8591  -20.1569   19.1555 N   0  0  0  0  0  0  0  0  0  0  0  0
  -23.6585  -19.3191   18.4583 N   0  0  0  0  0  0  0  0  0  0  0  0
  -22.3162  -15.0097   18.6120 N   0  0  0  0  0  0  0  0  0  0  0  0
  -21.2110  -27.2660   21.0711 N   0  0  0  0  0  0  0  0  0  0  0  0
  -20.8431  -23.3435   17.2247 N   0  0  0  0  0  0  0  0  0  0  0  0
  -31.0587  -27.3306   19.6127 N   0  3  0  0  0  0  0  0  0  0  0  0
  -18.6999  -21.0580   19.0277 N   0  3  0  0  0  0  0  0  0  0  0  0
  -21.6556  -17.1491   18.1168 O   0  0  0  0  0  0  0  0  0  0  0  0
  -22.3871  -25.2564   21.0460 O   0  0  0  0  0  0  0  0  0  0  0  0
  -23.4554  -23.4212   17.6341 O   0  0  0  0  0  0  0  0  0  0  0  0
  -19.1659  -23.8192   18.7538 O   0  0  0  0  0  0  0  0  0  0  0  0
  -29.7347  -19.9579   17.0326 O   0  0  0  0  0  0  0  0  0  0  0  0
  -25.4281  -10.6429   20.1228 O   0  0  0  0  0  0  0  0  0  0  0  0
  -28.6087  -27.6076   21.0355 O   0  0  0  0  0  0  0  0  0  1  0  0
  -21.3262   -8.1573   22.8433 F   0  0  0  0  0  0  0  0  0  0  0  0
  -25.9045   -9.3084   22.4966 F   0  0  0  0  0  0  0  0  0  0  0  0
  1  2  1  0  0  0  0
  1  5  2  0  0  0  0
  2  6  2  0  0  0  0
  3  8  2  0  0  0  0
  3 15  1  0  0  0  0
  4  9  1  0  0  0  0
  4 15  2  0  0  0  0
  5 17  1  0  0  0  0
  6 19  1  0  0  0  0
  7 10  2  0  0  0  0
  7 18  1  0  0  0  0
  8 21  1  0  0  0  0
  9 21  2  0  0  0  0
 10 22  1  0  0  0  0
 11 12  2  0  0  0  0
 11 23  1  0  0  0  0
 12 24  1  0  0  0  0
 13 20  1  0  0  0  0
 13 22  2  0  0  0  0
 14 24  2  0  0  0  0
 14 25  1  0  0  0  0
 15 26  1  0  0  0  0
 16 26  1  0  0  0  0
 16 27  2  0  0  0  0
 16 31  1  0  0  0  0
 17 19  2  0  0  0  0
 17 36  1  0  0  0  0
 18 20  2  0  0  0  0
 18 37  1  0  0  0  0
 19 50  1  0  0  0  0
 20 38  1  0  0  0  0
 21 81  1  0  0  0  0
 22 82  1  0  0  0  0
 23 25  2  0  0  0  0
 23 81  1  0  0  0  0
 24 83  1  0  0  0  0
 25 84  1  0  0  0  0
 26 65  2  0  0  0  0
 27 67  1  0  0  0  0
 27 70  1  0  0  0  0
 28 29  1  0  0  0  0
 28 30  2  0  0  0  0
 28 39  1  0  0  0  0
 29 40  1  0  0  0  0
 29 66  2  0  0  0  0
 30 51  1  0  0  0  0
 31 71  1  0  0  0  0
 31 76  2  0  0  0  0
 32 52  1  0  0  0  0
 32 72  1  0  0  0  0
 32 77  2  0  0  0  0
 33 62  1  0  0  0  0
 33 68  1  0  0  0  0
 33 78  2  0  0  0  0
 34 63  1  0  0  0  0
 34 73  1  0  0  0  0
 34 79  2  0  0  0  0
 35 66  1  0  0  0  0
 35 69  1  0  0  0  0
 35 80  2  0  0  0  0
 36 41  1  0  0  0  0
 37 52  1  0  0  0  0
 38 68  1  0  0  0  0
 39 40  1  0  0  0  0
 41 44  1  0  0  0  0
 42 45  1  0  0  0  0
 42 47  1  0  0  0  0
 43 46  1  0  0  0  0
 43 48  1  0  0  0  0
 44 50  1  0  0  0  0
 45 51  1  0  0  0  0
 46 53  1  0  0  0  0
 47 54  1  0  0  0  0
 48 69  1  0  0  0  0
 49 53  1  0  0  0  0
 49 69  1  0  0  0  0
 50 72  1  0  0  0  0
 51 54  1  0  0  0  0
 52 68  1  0  0  0  0
 53 67  1  0  0  0  0
 54 74  1  0  0  0  0
 55 63  1  0  0  0  0
 56 64  1  0  0  0  0
 57 64  1  0  0  0  0
 58 64  1  0  0  0  0
 59 75  1  0  0  0  0
 60 61  1  0  0  0  0
 60 74  1  0  0  0  0
 61 82  1  0  0  0  0
 62 64  1  0  0  0  0
 62 73  1  0  0  0  0
 63 75  1  0  0  0  0
 65 67  1  0  0  0  0
M  CHG  2  74   1  75   1
M  ISO  4  35 100  61 101  66 100  82 101
M  END
> <Batch ID>
0193

> <Smiles>
CNC(C)C(=O)NC(C(=O)N1Cc2cc([101O:1][101CH2:1]CNC3CCCC3C=C3CCC3=[100N:0][100C:0](=O)N3CCCC(n4nc(-c5ccc(Oc6ccc(F)cc6F)cc5)c(C(N)=O)c4N)C3)ccc2CC1C(=O)NC1CCCc2ccccc21)C(C)(C)C

> <Shape>
0.238

> <Color>
0.060

> <Negative vol penalty>
0.000

$$$$

  -OEChem-04052323323D

 85 94  0     1  0  0  0  0  0999 V2000
  -30.0740  -15.7502   21.3436 C   0  0  0  0  0  0  0  0  0  0  0  0
  -28.9783  -16.3087   21.9939 C   0  0  0  0  0  0  0  0  0  0  0  0
  -23.3305  -17.4302   20.8139 C   0  0  0  0  0  0  0  0  0  0  0  0
  -21.5329  -17.1377   19.2265 C   0  0  0  0  0  0  0  0  0  0  0  0
  -31.1948  -16.5333   21.0706 C   0  0  0  0  0  0  0  0  0  0  0  0
  -29.0032  -17.6505   22.3726 C   0  0  0  0  0  0  0  0  0  0  0  0
  -24.6803  -23.3062   23.1739 C   0  0  0  0  0  0  0  0  0  0  0  0
  -23.3455  -16.0556   21.0503 C   0  0  0  0  0  0  0  0  0  0  0  0
  -21.5479  -15.7631   19.4628 C   0  0  0  0  0  0  0  0  0  0  0  0
  -24.3334  -24.2715   24.1182 C   0  0  0  0  0  0  0  0  0  0  0  0
  -24.5367  -13.2797   19.5309 C   0  0  0  0  0  0  0  0  0  0  0  0
  -25.7767  -12.6423   19.5709 C   0  0  0  0  0  0  0  0  0  0  0  0
  -23.7899  -31.1070   25.0135 C   0  0  0  0  0  0  0  0  0  0  0  0
  -26.2918  -25.5483   23.5237 C   0  0  0  0  0  0  0  0  0  0  0  0
  -25.3431  -11.9413   21.8420 C   0  0  0  0  0  0  0  0  0  0  0  0
  -23.6763  -31.8105   23.8318 C   0  0  0  0  0  0  0  0  0  0  0  0
  -22.4242  -17.9713   19.9021 C   0  0  0  0  0  0  0  0  0  0  0  0
  -23.4649  -20.1819   19.1688 C   0  0  0  0  0  0  0  0  0  0  0  0
  -31.2295  -17.8879   21.4374 C   0  0  0  0  0  0  0  0  0  0  0  0
  -25.8434  -23.4496   22.4038 C   0  0  0  0  0  0  0  0  0  0  0  0
  -30.1260  -18.4522   22.1054 C   0  0  0  0  0  0  0  0  0  0  0  0
  -26.6499  -24.5847   22.5685 C   0  0  0  0  0  0  0  0  0  0  0  0
  -22.4542  -15.2220   20.3747 C   0  0  0  0  0  0  0  0  0  0  0  0
  -25.1407  -25.3913   24.2953 C   0  0  0  0  0  0  0  0  0  0  0  0
  -23.6999  -13.2480   20.6464 C   0  0  0  0  0  0  0  0  0  0  0  0
  -26.1799  -11.9731   20.7264 C   0  0  0  0  0  0  0  0  0  0  0  0
  -24.1030  -12.5788   21.8019 C   0  0  0  0  0  0  0  0  0  0  0  0
  -22.4078  -19.3912   19.6579 C   0  0  0  0  0  0  0  0  0  0  0  0
  -23.6169  -29.7415   24.9144 C   0  0  0  0  0  0  0  0  0  0  0  0
  -22.9472  -21.4530   19.1167 C   0  0  0  0  0  0  0  0  0  0  0  0
  -23.2666  -29.8977   22.6739 C   0  0  0  0  0  0  0  0  0  0  0  0
  -24.7957  -19.8014   18.7949 C   0  0  0  0  0  0  0  0  0  0  0  0
  -28.5298  -21.7843   22.0664 C   0  0  0  0  0  0  0  0  0  0  0  0
  -29.1107  -23.9395   19.7126 C   0  0  0  0  0  0  0  0  0  0  0  0
  -28.5195  -27.0386   18.4115 C   0  0  0  0  0  0  0  0  0  0  0  0
  -20.0150  -25.4796   21.7750 C   0  0  0  0  0  0  0  0  0  0  0  0
  -32.4819  -18.6823   21.1633 C   0  0  0  0  0  0  0  0  0  0  0  0
  -26.1895  -22.4128   21.3706 C   0  0  0  0  0  0  0  0  0  0  0  0
  -27.8982  -24.7958   21.7526 C   0  0  0  0  0  0  0  0  0  0  0  0
  -32.2796  -20.1921   21.2631 C   0  0  0  0  0  0  0  0  0  0  0  0
  -18.1997  -23.1141   19.6344 C   0  0  0  0  0  0  0  0  0  0  0  0
  -31.5016  -20.5440   22.5271 C   0  0  0  0  0  0  0  0  0  0  0  0
  -19.2082  -21.9789   19.4528 C   0  0  0  0  0  0  0  0  0  0  0  0
  -22.4646  -27.4659   19.8854 C   0  0  0  0  0  0  0  0  0  0  0  0
  -18.3707  -23.8213   20.9769 C   0  0  0  0  0  0  0  0  0  0  0  0
  -21.8255  -26.0931   20.0673 C   0  0  0  0  0  0  0  0  0  0  0  0
  -20.7430  -23.1603   21.0677 C   0  0  0  0  0  0  0  0  0  0  0  0
  -21.6046  -27.3529   22.0993 C   0  0  0  0  0  0  0  0  0  0  0  0
  -30.1053  -19.9103   22.5098 C   0  0  1  0  0  0  0  0  0  0  0  0
  -27.6701  -22.4067   21.0028 C   0  0  1  0  0  0  0  0  0  0  0  0
  -20.6470  -22.4694   19.7004 C   0  0  1  0  0  0  0  0  0  0  0  0
  -22.8111  -27.8527   21.3190 C   0  0  2  0  0  0  0  0  0  0  0  0
  -29.1675  -28.5285   16.4990 C   0  0  0  0  0  0  0  0  0  0  0  0
  -31.7860  -24.5080   21.0651 C   0  0  0  0  0  0  0  0  0  0  0  0
  -31.9462  -26.6068   19.7095 C   0  0  0  0  0  0  0  0  0  0  0  0
  -31.8835  -24.3891   18.5690 C   0  0  0  0  0  0  0  0  0  0  0  0
  -25.7344  -27.1709   17.4192 C   0  0  0  0  0  0  0  0  0  0  0  0
  -23.7211  -28.8968   26.1396 C   0  0  0  0  0  0  0  0  0  0  0  0
  -25.1387  -28.3809   26.4328 C   0  0  0  0  0  0  0  0  0  0  0  0
  -25.6759  -27.4563   25.3466 C   0  0  0  0  0  0  0  0  0  1  0  0
  -29.7793  -25.2911   19.6418 C   0  0  1  0  0  0  0  0  0  0  0  0
  -28.1764  -27.4913   17.0037 C   0  0  2  0  0  0  0  0  0  0  0  0
  -31.3264  -25.1941   19.7633 C   0  0  0  0  0  0  0  0  0  0  0  0
  -23.4144  -31.2358   22.6395 N   0  0  0  0  0  0  0  0  0  0  0  0
  -21.3022  -20.1006   19.8995 N   0  0  0  0  0  0  0  0  0  0  0  0
  -23.3529  -29.1014   23.7565 N   0  0  0  0  0  0  0  0  0  0  0  0
  -21.6618  -21.3505   19.5609 N   0  0  0  0  0  0  0  0  0  0  0  0
  -28.1976  -23.7509   20.7597 N   0  0  0  0  0  0  0  0  0  0  0  0
  -19.7579  -24.2418   21.1754 N   0  0  0  0  0  0  0  0  0  0  0  0
  -21.1558  -26.1703   21.3681 N   0  0  0  0  0  0  0  0  0  0  0  0
  -23.4708  -22.6373   18.7349 N   0  0  0  0  0  0  0  0  0  0  0  0
  -25.0337  -19.4213   17.4670 N   0  0  0  0  0  0  0  0  0  0  0  0
  -22.9960  -29.2725   21.4643 N   0  0  0  0  0  0  0  0  0  0  0  0
  -29.2194  -20.6626   21.6474 N   0  0  0  0  0  0  0  0  0  0  0  0
  -29.3147  -25.9121   18.4061 N   0  0  0  0  0  0  0  0  0  0  0  0
  -26.8120  -28.0897   16.9701 N   0  3  0  0  0  0  0  0  0  0  0  0
  -25.7422  -19.7827   19.6178 O   0  0  0  0  0  0  0  0  0  0  0  0
  -28.5660  -22.2857   23.1840 O   0  0  0  0  0  0  0  0  0  0  0  0
  -29.3831  -23.0850   18.8656 O   0  0  0  0  0  0  0  0  0  0  0  0
  -28.1249  -27.6276   19.4154 O   0  0  0  0  0  0  0  0  0  0  0  0
  -19.2350  -25.9685   22.6030 O   0  0  0  0  0  0  0  0  0  0  0  0
  -22.4687  -13.8806   20.6048 O   0  0  0  0  0  0  0  0  0  0  0  0
  -24.8023  -26.3412   25.2232 O   0  0  0  0  0  0  0  0  0  1  0  0
  -27.3701  -11.3598   20.7642 F   0  0  0  0  0  0  0  0  0  0  0  0
  -23.3029  -12.5439   22.8764 F   0  0  0  0  0  0  0  0  0  0  0  0
  1  2  1  0  0  0  0
  1  5  2  0  0  0  0
  2  6  2  0  0  0  0
  3  8  2  0  0  0  0
  3 17  1  0  0  0  0
  4  9  1  0  0  0  0
  4 17  2  0  0  0  0
  5 19  1  0  0  0  0
  6 21  1  0  0  0  0
  7 10  2  0  0  0  0
  7 20  1  0  0  0  0
  8 23  1  0  0  0  0
  9 23  2  0  0  0  0
 10 24  1  0  0  0  0
 11 12  2  0  0  0  0
 11 25  1  0  0  0  0
 12 26  1  0  0  0  0
 13 16  2  0  0  0  0
 13 29  1  0  0  0  0
 14 22  1  0  0  0  0
 14 24  2  0  0  0  0
 15 26  2  0  0  0  0
 15 27  1  0  0  0  0
 16 64  1  0  0  0  0
 17 28  1  0  0  0  0
 18 28  1  0  0  0  0
 18 30  2  0  0  0  0
 18 32  1  0  0  0  0
 19 21  2  0  0  0  0
 19 37  1  0  0  0  0
 20 22  2  0  0  0  0
 20 38  1  0  0  0  0
 21 49  1  0  0  0  0
 22 39  1  0  0  0  0
 23 82  1  0  0  0  0
 24 83  1  0  0  0  0
 25 27  2  0  0  0  0
 25 82  1  0  0  0  0
 26 84  1  0  0  0  0
 27 85  1  0  0  0  0
 28 65  2  0  0  0  0
 29 58  1  0  0  0  0
 29 66  2  0  0  0  0
 30 67  1  0  0  0  0
 30 71  1  0  0  0  0
 31 64  2  0  0  0  0
 31 66  1  0  0  0  0
 31 73  1  0  0  0  0
 32 72  1  0  0  0  0
 32 77  2  0  0  0  0
 33 50  1  0  0  0  0
 33 74  1  0  0  0  0
 33 78  2  0  0  0  0
 34 61  1  0  0  0  0
 34 68  1  0  0  0  0
 34 79  2  0  0  0  0
 35 62  1  0  0  0  0
 35 75  1  0  0  0  0
 35 80  2  0  0  0  0
 36 69  1  0  0  0  0
 36 70  1  0  0  0  0
 36 81  2  0  0  0  0
 37 40  1  0  0  0  0
 38 50  1  0  0  0  0
 39 68  1  0  0  0  0
 40 42  1  0  0  0  0
 41 43  1  0  0  0  0
 41 45  1  0  0  0  0
 42 49  1  0  0  0  0
 43 51  1  0  0  0  0
 44 46  1  0  0  0  0
 44 52  1  0  0  0  0
 45 69  1  0  0  0  0
 46 70  1  0  0  0  0
 47 51  1  0  0  0  0
 47 69  1  0  0  0  0
 48 52  1  0  0  0  0
 48 70  1  0  0  0  0
 49 74  1  0  0  0  0
 50 68  1  0  0  0  0
 51 67  1  0  0  0  0
 52 73  1  0  0  0  0
 53 62  1  0  0  0  0
 54 63  1  0  0  0  0
 55 63  1  0  0  0  0
 56 63  1  0  0  0  0
 57 76  1  0  0  0  0
 58 59  1  0  0  0  0
 59 60  1  0  0  0  0
 60 83  1  0  0  0  0
 61 63  1  0  0  0  0
 61 75  1  0  0  0  0
 62 76  1  0  0  0  0
 65 67  1  0  0  0  0
M  CHG  1  76   1
M  ISO  4  36 100  60 101  70 100  83 101
M  END
> <Batch ID>
0193

> <Smiles>
CNC(C)C(=O)NC(C(=O)N1Cc2cc([101O:1][101CH2:1]CCc3ccnc(NC4CC[100N:0]([100C:0](=O)N5CCCC(n6nc(-c7ccc(Oc8ccc(F)cc8F)cc7)c(C(N)=O)c6N)C5)C4)n3)ccc2CC1C(=O)NC1CCCc2ccccc21)C(C)(C)C

> <Shape>
0.179

> <Color>
0.067

> <Negative vol penalty>
0.000

$$$$

  -OEChem-04052323323D

 85 94  0     1  0  0  0  0  0999 V2000
  -26.2115  -23.5208   13.7677 C   0  0  0  0  0  0  0  0  0  0  0  0
  -26.4542  -23.2590   15.1123 C   0  0  0  0  0  0  0  0  0  0  0  0
  -23.5996   -9.8130   21.9537 C   0  0  0  0  0  0  0  0  0  0  0  0
  -24.9214   -7.8227   21.5955 C   0  0  0  0  0  0  0  0  0  0  0  0
  -26.5847  -24.7470   13.2190 C   0  0  0  0  0  0  0  0  0  0  0  0
  -27.0713  -24.2229   15.9087 C   0  0  0  0  0  0  0  0  0  0  0  0
  -24.8079  -24.7662   20.4061 C   0  0  0  0  0  0  0  0  0  0  0  0
  -22.4343   -9.0787   21.7342 C   0  0  0  0  0  0  0  0  0  0  0  0
  -23.7560   -7.0883   21.3760 C   0  0  0  0  0  0  0  0  0  0  0  0
  -25.0788  -23.8019   21.3759 C   0  0  0  0  0  0  0  0  0  0  0  0
  -21.5455   -6.6156   18.8618 C   0  0  0  0  0  0  0  0  0  0  0  0
  -21.5264   -5.7395   17.7766 C   0  0  0  0  0  0  0  0  0  0  0  0
  -26.6662  -25.2957   22.4093 C   0  0  0  0  0  0  0  0  0  0  0  0
  -21.1297   -3.8886   19.2778 C   0  0  0  0  0  0  0  0  0  0  0  0
  -24.8432   -9.1851   21.8843 C   0  0  0  0  0  0  0  0  0  0  0  0
  -26.7003  -10.1554   23.3394 C   0  0  0  0  0  0  0  0  0  0  0  0
  -27.1980  -25.7301   14.0114 C   0  0  0  0  0  0  0  0  0  0  0  0
  -25.4733  -26.0005   20.4243 C   0  0  0  0  0  0  0  0  0  0  0  0
  -27.4544  -25.4629   15.3698 C   0  0  0  0  0  0  0  0  0  0  0  0
  -26.4001  -26.2749   21.4401 C   0  0  0  0  0  0  0  0  0  0  0  0
  -22.5124   -7.7163   21.4454 C   0  0  0  0  0  0  0  0  0  0  0  0
  -26.0102  -24.0654   22.3760 C   0  0  0  0  0  0  0  0  0  0  0  0
  -21.3569   -6.1282   20.1551 C   0  0  0  0  0  0  0  0  0  0  0  0
  -21.3184   -4.3760   17.9846 C   0  0  0  0  0  0  0  0  0  0  0  0
  -21.1490   -4.7647   20.3631 C   0  0  0  0  0  0  0  0  0  0  0  0
  -26.0474   -9.9433   22.1104 C   0  0  0  0  0  0  0  0  0  0  0  0
  -27.7868  -10.9331   23.0213 C   0  0  0  0  0  0  0  0  0  0  0  0
  -29.3188  -20.2996   21.2668 C   0  0  0  0  0  0  0  0  0  0  0  0
  -29.4738  -22.0034   20.0709 C   0  0  0  0  0  0  0  0  0  0  0  0
  -26.3555   -9.6908   24.6513 C   0  0  0  0  0  0  0  0  0  0  0  0
  -27.4369  -27.5197   18.4394 C   0  0  0  0  0  0  0  0  0  0  0  0
  -27.1031  -29.9346   20.5792 C   0  0  0  0  0  0  0  0  0  0  0  0
  -26.3706  -30.8974   23.7704 C   0  0  0  0  0  0  0  0  0  0  0  0
  -30.1887  -15.0740   20.3562 C   0  0  0  0  0  0  0  0  0  0  0  0
  -27.6264  -27.0224   13.3626 C   0  0  0  0  0  0  0  0  0  0  0  0
  -25.1502  -27.0403   19.3866 C   0  0  0  0  0  0  0  0  0  0  0  0
  -27.1267  -27.5921   21.5159 C   0  0  0  0  0  0  0  0  0  0  0  0
  -27.9363  -28.1329   14.3631 C   0  0  0  0  0  0  0  0  0  0  0  0
  -29.7698  -12.1621   18.5414 C   0  0  0  0  0  0  0  0  0  0  0  0
  -28.8135  -27.6037   15.4932 C   0  0  0  0  0  0  0  0  0  0  0  0
  -28.8180  -11.3314   19.4019 C   0  0  0  0  0  0  0  0  0  0  0  0
  -28.3265  -17.9901   20.9450 C   0  0  0  0  0  0  0  0  0  0  0  0
  -30.7538  -18.2407   21.6197 C   0  0  0  0  0  0  0  0  0  0  0  0
  -29.3538  -13.6284   18.5275 C   0  0  0  0  0  0  0  0  0  0  0  0
  -28.3798  -16.5230   21.3806 C   0  0  0  0  0  0  0  0  0  0  0  0
  -30.7424  -16.7804   22.0622 C   0  0  0  0  0  0  0  0  0  0  0  0
  -28.3081  -13.4213   20.7595 C   0  0  0  0  0  0  0  0  0  0  0  0
  -28.0992  -26.4926   16.2721 C   0  0  1  0  0  0  0  0  0  0  0  0
  -29.3436  -18.8507   21.7159 C   0  0  0  0  0  0  0  0  0  0  0  0
  -26.2637  -28.0667   19.2024 C   0  0  1  0  0  0  0  0  0  0  0  0
  -28.6871  -11.9274   20.8147 C   0  0  1  0  0  0  0  0  0  0  0  0
  -29.6742  -22.9543   18.9811 C   0  0  0  0  0  0  0  0  0  0  0  0
  -26.2189  -32.9347   25.2276 C   0  0  0  0  0  0  0  0  0  0  0  0
  -30.1478  -30.0338   20.7533 C   0  0  0  0  0  0  0  0  0  0  0  0
  -29.9144  -31.3693   22.8581 C   0  0  0  0  0  0  0  0  0  0  0  0
  -29.0321  -32.2715   20.7063 C   0  0  0  0  0  0  0  0  0  0  0  0
  -23.4918  -30.4516   24.2931 C   0  0  0  0  0  0  0  0  0  0  0  0
  -27.1314  -20.9179   23.7357 C   0  0  0  0  0  0  0  0  0  0  0  0
  -28.5904  -21.3122   23.4955 C   0  0  0  0  0  0  0  0  0  0  0  0
  -26.1396  -21.7588   22.9403 C   0  0  0  0  0  0  0  0  0  1  0  0
  -27.8260  -30.3577   21.8352 C   0  0  1  0  0  0  0  0  0  0  0  0
  -25.4619  -31.9870   24.3103 C   0  0  2  0  0  0  0  0  0  0  0  0
  -29.2180  -30.9824   21.5359 C   0  0  0  0  0  0  0  0  0  0  0  0
  -26.6673  -10.5384   21.0878 N   0  0  0  0  0  0  0  0  0  0  0  0
  -29.6301  -20.7019   19.9996 N   0  0  0  0  0  0  0  0  0  0  0  0
  -29.0868  -22.3496   21.3279 N   0  0  0  0  0  0  0  0  0  0  0  0
  -27.7210  -11.1321   21.6737 N   0  0  0  0  0  0  0  0  0  0  0  0
  -28.9795  -21.2703   22.1177 N   0  0  0  0  0  0  0  0  0  0  0  0
  -26.7810  -28.5740   20.4749 N   0  0  0  0  0  0  0  0  0  0  0  0
  -29.2370  -14.1561   19.8868 N   0  0  0  0  0  0  0  0  0  0  0  0
  -29.7547  -16.0094   21.3076 N   0  0  0  0  0  0  0  0  0  0  0  0
  -28.7824  -11.4594   23.7658 N   0  0  0  0  0  0  0  0  0  0  0  0
  -25.2067   -8.9020   24.8002 N   0  0  0  0  0  0  0  0  0  0  0  0
  -27.1205  -27.0579   17.1760 N   0  0  0  0  0  0  0  0  0  0  0  0
  -26.9150  -31.2436   22.5518 N   0  0  0  0  0  0  0  0  0  0  0  0
  -24.3353  -31.3877   25.0801 N   0  3  0  0  0  0  0  0  0  0  0  0
  -27.0367   -9.9808   25.6639 O   0  0  0  0  0  0  0  0  0  0  0  0
  -28.5472  -27.5181   18.9579 O   0  0  0  0  0  0  0  0  0  0  0  0
  -26.8279  -30.7814   19.7256 O   0  0  0  0  0  0  0  0  0  0  0  0
  -26.5797  -29.8459   24.3714 O   0  0  0  0  0  0  0  0  0  0  0  0
  -31.3575  -15.0590   19.9502 O   0  0  0  0  0  0  0  0  0  0  0  0
  -21.3755   -6.9993   21.2314 O   0  0  0  0  0  0  0  0  0  0  0  0
  -26.2788  -23.1190   23.3301 O   0  0  0  0  0  0  0  0  0  1  0  0
  -21.2985   -3.5351   16.9422 F   0  0  0  0  0  0  0  0  0  0  0  0
  -20.9660   -4.2907   21.6031 F   0  0  0  0  0  0  0  0  0  0  0  0
  1  2  1  0  0  0  0
  1  5  2  0  0  0  0
  2  6  2  0  0  0  0
  3  8  2  0  0  0  0
  3 15  1  0  0  0  0
  4  9  1  0  0  0  0
  4 15  2  0  0  0  0
  5 17  1  0  0  0  0
  6 19  1  0  0  0  0
  7 10  2  0  0  0  0
  7 18  1  0  0  0  0
  8 21  1  0  0  0  0
  9 21  2  0  0  0  0
 10 22  1  0  0  0  0
 11 12  2  0  0  0  0
 11 23  1  0  0  0  0
 12 24  1  0  0  0  0
 13 20  1  0  0  0  0
 13 22  2  0  0  0  0
 14 24  2  0  0  0  0
 14 25  1  0  0  0  0
 15 26  1  0  0  0  0
 16 26  1  0  0  0  0
 16 27  2  0  0  0  0
 16 30  1  0  0  0  0
 17 19  2  0  0  0  0
 17 35  1  0  0  0  0
 18 20  2  0  0  0  0
 18 36  1  0  0  0  0
 19 48  1  0  0  0  0
 20 37  1  0  0  0  0
 21 82  1  0  0  0  0
 22 83  1  0  0  0  0
 23 25  2  0  0  0  0
 23 82  1  0  0  0  0
 24 84  1  0  0  0  0
 25 85  1  0  0  0  0
 26 64  2  0  0  0  0
 27 67  1  0  0  0  0
 27 72  1  0  0  0  0
 28 49  1  0  0  0  0
 28 65  2  0  0  0  0
 28 68  1  0  0  0  0
 29 52  1  0  0  0  0
 29 65  1  0  0  0  0
 29 66  2  0  0  0  0
 30 73  1  0  0  0  0
 30 77  2  0  0  0  0
 31 50  1  0  0  0  0
 31 74  1  0  0  0  0
 31 78  2  0  0  0  0
 32 61  1  0  0  0  0
 32 69  1  0  0  0  0
 32 79  2  0  0  0  0
 33 62  1  0  0  0  0
 33 75  1  0  0  0  0
 33 80  2  0  0  0  0
 34 70  1  0  0  0  0
 34 71  1  0  0  0  0
 34 81  2  0  0  0  0
 35 38  1  0  0  0  0
 36 50  1  0  0  0  0
 37 69  1  0  0  0  0
 38 40  1  0  0  0  0
 39 41  1  0  0  0  0
 39 44  1  0  0  0  0
 40 48  1  0  0  0  0
 41 51  1  0  0  0  0
 42 45  1  0  0  0  0
 42 49  1  0  0  0  0
 43 46  1  0  0  0  0
 43 49  1  0  0  0  0
 44 70  1  0  0  0  0
 45 71  1  0  0  0  0
 46 71  1  0  0  0  0
 47 51  1  0  0  0  0
 47 70  1  0  0  0  0
 48 74  1  0  0  0  0
 50 69  1  0  0  0  0
 51 67  1  0  0  0  0
 53 62  1  0  0  0  0
 54 63  1  0  0  0  0
 55 63  1  0  0  0  0
 56 63  1  0  0  0  0
 57 76  1  0  0  0  0
 58 59  1  0  0  0  0
 58 60  1  0  0  0  0
 59 68  1  0  0  0  0
 60 83  1  0  0  0  0
 61 63  1  0  0  0  0
 61 75  1  0  0  0  0
 62 76  1  0  0  0  0
 64 67  1  0  0  0  0
 66 68  1  0  0  0  0
M  CHG  1  76   1
M  ISO  4  34 100  60 101  71 100  83 101
M  END
> <Batch ID>
0193

> <Smiles>
CNC(C)C(=O)NC(C(=O)N1Cc2cc([101O:1][101CH2:1]CCn3nc(C)nc3C3CC[100N:0]([100C:0](=O)N4CCCC(n5nc(-c6ccc(Oc7ccc(F)cc7F)cc6)c(C(N)=O)c5N)C4)CC3)ccc2CC1C(=O)NC1CCCc2ccccc21)C(C)(C)C

> <Shape>
0.226

> <Color>
0.086

> <Negative vol penalty>
0.000

$$$$

  -OEChem-04052323323D

 85 94  0     1  0  0  0  0  0999 V2000
  -29.4067  -30.4924   26.8284 C   0  0  0  0  0  0  0  0  0  0  0  0
  -29.1673  -29.6762   25.7275 C   0  0  0  0  0  0  0  0  0  0  0  0
  -25.3540   -9.7165   22.8657 C   0  0  0  0  0  0  0  0  0  0  0  0
  -23.3910   -9.5228   21.4707 C   0  0  0  0  0  0  0  0  0  0  0  0
  -28.3364  -31.0334   27.5395 C   0  0  0  0  0  0  0  0  0  0  0  0
  -27.8573  -29.3996   25.3377 C   0  0  0  0  0  0  0  0  0  0  0  0
  -27.1977  -29.7839   20.3315 C   0  0  0  0  0  0  0  0  0  0  0  0
  -25.2526   -8.3651   23.1960 C   0  0  0  0  0  0  0  0  0  0  0  0
  -23.2896   -8.1714   21.8010 C   0  0  0  0  0  0  0  0  0  0  0  0
  -27.6475  -28.7230   19.5467 C   0  0  0  0  0  0  0  0  0  0  0  0
  -22.1754   -6.3189   24.4005 C   0  0  0  0  0  0  0  0  0  0  0  0
  -20.9138   -5.8261   24.7338 C   0  0  0  0  0  0  0  0  0  0  0  0
  -25.3922  -27.8785   19.4063 C   0  0  0  0  0  0  0  0  0  0  0  0
  -21.0387   -4.2633   22.8955 C   0  0  0  0  0  0  0  0  0  0  0  0
  -24.4231  -10.2954   22.0030 C   0  0  0  0  0  0  0  0  0  0  0  0
  -25.2374  -12.2525   20.5839 C   0  0  0  0  0  0  0  0  0  0  0  0
  -27.0127  -30.7711   27.1524 C   0  0  0  0  0  0  0  0  0  0  0  0
  -25.8412  -29.8943   20.6692 C   0  0  0  0  0  0  0  0  0  0  0  0
  -26.7683  -29.9365   26.0451 C   0  0  0  0  0  0  0  0  0  0  0  0
  -24.9273  -28.9432   20.1934 C   0  0  0  0  0  0  0  0  0  0  0  0
  -24.2205   -7.5926   22.6637 C   0  0  0  0  0  0  0  0  0  0  0  0
  -26.7452  -27.7685   19.0864 C   0  0  0  0  0  0  0  0  0  0  0  0
  -22.8686   -5.7840   23.3147 C   0  0  0  0  0  0  0  0  0  0  0  0
  -20.3454   -4.7982   23.9813 C   0  0  0  0  0  0  0  0  0  0  0  0
  -22.3003   -4.7562   22.5622 C   0  0  0  0  0  0  0  0  0  0  0  0
  -24.5269  -11.6914   21.6619 C   0  0  0  0  0  0  0  0  0  0  0  0
  -25.0224  -13.6043   20.6973 C   0  0  0  0  0  0  0  0  0  0  0  0
  -26.0216  -11.6093   19.5705 C   0  0  0  0  0  0  0  0  0  0  0  0
  -28.9023  -21.5034   20.9088 C   0  0  0  0  0  0  0  0  0  0  0  0
  -24.1987  -29.8788   23.3906 C   0  0  0  0  0  0  0  0  0  0  0  0
  -21.7083  -30.5916   21.4380 C   0  0  0  0  0  0  0  0  0  0  0  0
  -20.3600  -30.4828   18.3049 C   0  0  0  0  0  0  0  0  0  0  0  0
  -24.9184  -18.1087   24.0984 C   0  0  0  0  0  0  0  0  0  0  0  0
  -25.8880  -31.3400   27.9806 C   0  0  0  0  0  0  0  0  0  0  0  0
  -25.3678  -31.0594   21.4944 C   0  0  0  0  0  0  0  0  0  0  0  0
  -23.4575  -29.0275   20.5109 C   0  0  0  0  0  0  0  0  0  0  0  0
  -24.5339  -31.3022   27.2769 C   0  0  0  0  0  0  0  0  0  0  0  0
  -21.8149  -16.2106   23.6110 C   0  0  0  0  0  0  0  0  0  0  0  0
  -24.3005  -29.9352   26.6415 C   0  0  0  0  0  0  0  0  0  0  0  0
  -22.3135  -14.8930   23.0158 C   0  0  0  0  0  0  0  0  0  0  0  0
  -26.1568  -19.5713   20.9613 C   0  0  0  0  0  0  0  0  0  0  0  0
  -30.4163  -23.2263   19.9341 C   0  0  0  0  0  0  0  0  0  0  0  0
  -22.8463  -16.8437   24.5423 C   0  0  0  0  0  0  0  0  0  0  0  0
  -25.5047  -18.3583   21.6156 C   0  0  0  0  0  0  0  0  0  0  0  0
  -24.6783  -15.7003   23.3550 C   0  0  0  0  0  0  0  0  0  0  0  0
  -26.7171  -19.6007   23.2746 C   0  0  0  0  0  0  0  0  0  0  0  0
  -29.6994  -23.5197   18.6327 C   0  0  0  0  0  0  0  0  0  0  0  0
  -28.1207  -23.8192   20.4628 C   0  0  0  0  0  0  0  0  0  0  0  0
  -25.3617  -29.6335   25.5765 C   0  0  1  0  0  0  0  0  0  0  0  0
  -29.2897  -22.9524   20.9183 C   0  0  1  0  0  0  0  0  0  0  0  0
  -24.0453  -30.7897   22.2055 C   0  0  1  0  0  0  0  0  0  0  0  0
  -23.6958  -15.0679   22.3596 C   0  0  1  0  0  0  0  0  0  0  0  0
  -27.3231  -19.8592   21.9020 C   0  0  2  0  0  0  0  0  0  0  0  0
  -18.2939  -31.1110   17.0265 C   0  0  0  0  0  0  0  0  0  0  0  0
  -20.2332  -28.2164   22.6595 C   0  0  0  0  0  0  0  0  0  0  0  0
  -18.6331  -28.3102   20.7362 C   0  0  0  0  0  0  0  0  0  0  0  0
  -18.8199  -30.2475   22.2965 C   0  0  0  0  0  0  0  0  0  0  0  0
  -21.8741  -32.2957   16.5218 C   0  0  0  0  0  0  0  0  0  0  0  0
  -27.3813  -24.3419   18.0982 C   0  0  0  0  0  0  0  0  0  0  0  0
  -26.4617  -25.5045   18.4157 C   0  0  0  0  0  0  0  0  0  1  0  0
  -20.6934  -29.7869   20.6626 C   0  0  1  0  0  0  0  0  0  0  0  0
  -19.6838  -31.5487   17.4616 C   0  0  2  0  0  0  0  0  0  0  0  0
  -19.6228  -29.1373   21.5842 C   0  0  0  0  0  0  0  0  0  0  0  0
  -23.9070  -12.6115   22.4056 N   0  0  0  0  0  0  0  0  0  0  0  0
  -24.2274  -13.7645   21.7939 N   0  0  0  0  0  0  0  0  0  0  0  0
  -23.0445  -30.1817   21.3263 N   0  0  0  0  0  0  0  0  0  0  0  0
  -24.1466  -16.9619   23.8820 N   0  0  0  0  0  0  0  0  0  0  0  0
  -25.7248  -18.5523   23.0510 N   0  0  0  0  0  0  0  0  0  0  0  0
  -25.4377  -14.6596   19.9651 N   0  0  0  0  0  0  0  0  0  0  0  0
  -26.1382  -10.2129   19.6016 N   0  0  0  0  0  0  0  0  0  0  0  0
  -25.0693  -30.3510   24.3542 N   0  0  0  0  0  0  0  0  0  0  0  0
  -27.8519  -21.1836   21.7589 N   0  0  0  0  0  0  0  0  0  0  0  0
  -20.1461  -30.6853   19.6519 N   0  0  0  0  0  0  0  0  0  0  0  0
  -28.5051  -24.3190   19.0825 N   0  3  2  0  0  0  0  0  0  0  0  0
  -20.4907  -31.8328   16.2413 N   0  3  0  0  0  0  0  0  0  0  0  0
  -26.6153  -12.2550   18.6737 O   0  0  0  0  0  0  0  0  0  0  0  0
  -29.5061  -20.7214   20.1838 O   0  0  0  0  0  0  0  0  0  0  0  0
  -23.5724  -28.8262   23.4286 O   0  0  0  0  0  0  0  0  0  0  0  0
  -21.3304  -31.5530   22.1122 O   0  0  0  0  0  0  0  0  0  0  0  0
  -21.0095  -29.5604   17.8172 O   0  0  0  0  0  0  0  0  0  0  0  0
  -24.8549  -18.7362   25.1639 O   0  0  0  0  0  0  0  0  0  0  0  0
  -24.1214   -6.2738   22.9856 O   0  0  0  0  0  0  0  0  0  0  0  0
  -27.1848  -26.7242   18.3153 O   0  0  0  0  0  0  0  0  0  1  0  0
  -19.1346   -4.3240   24.3024 F   0  0  0  0  0  0  0  0  0  0  0  0
  -22.9620   -4.2375   21.5187 F   0  0  0  0  0  0  0  0  0  0  0  0
  1  2  1  0  0  0  0
  1  5  2  0  0  0  0
  2  6  2  0  0  0  0
  3  8  2  0  0  0  0
  3 15  1  0  0  0  0
  4  9  1  0  0  0  0
  4 15  2  0  0  0  0
  5 17  1  0  0  0  0
  6 19  1  0  0  0  0
  7 10  2  0  0  0  0
  7 18  1  0  0  0  0
  8 21  1  0  0  0  0
  9 21  2  0  0  0  0
 10 22  1  0  0  0  0
 11 12  2  0  0  0  0
 11 23  1  0  0  0  0
 12 24  1  0  0  0  0
 13 20  1  0  0  0  0
 13 22  2  0  0  0  0
 14 24  2  0  0  0  0
 14 25  1  0  0  0  0
 15 26  1  0  0  0  0
 16 26  1  0  0  0  0
 16 27  2  0  0  0  0
 16 28  1  0  0  0  0
 17 19  2  0  0  0  0
 17 34  1  0  0  0  0
 18 20  2  0  0  0  0
 18 35  1  0  0  0  0
 19 49  1  0  0  0  0
 20 36  1  0  0  0  0
 21 82  1  0  0  0  0
 22 83  1  0  0  0  0
 23 25  2  0  0  0  0
 23 82  1  0  0  0  0
 24 84  1  0  0  0  0
 25 85  1  0  0  0  0
 26 64  2  0  0  0  0
 27 65  1  0  0  0  0
 27 69  1  0  0  0  0
 28 70  1  0  0  0  0
 28 76  2  0  0  0  0
 29 50  1  0  0  0  0
 29 72  1  0  0  0  0
 29 77  2  0  0  0  0
 30 51  1  0  0  0  0
 30 71  1  0  0  0  0
 30 78  2  0  0  0  0
 31 61  1  0  0  0  0
 31 66  1  0  0  0  0
 31 79  2  0  0  0  0
 32 62  1  0  0  0  0
 32 73  1  0  0  0  0
 32 80  2  0  0  0  0
 33 67  1  0  0  0  0
 33 68  1  0  0  0  0
 33 81  2  0  0  0  0
 34 37  1  0  0  0  0
 35 51  1  0  0  0  0
 36 66  1  0  0  0  0
 37 39  1  0  0  0  0
 38 40  1  0  0  0  0
 38 43  1  0  0  0  0
 39 49  1  0  0  0  0
 40 52  1  0  0  0  0
 41 44  1  0  0  0  0
 41 53  1  0  0  0  0
 42 47  1  0  0  0  0
 42 50  1  0  0  0  0
 43 67  1  0  0  0  0
 44 68  1  0  0  0  0
 45 52  1  0  0  0  0
 45 67  1  0  0  0  0
 46 53  1  0  0  0  0
 46 68  1  0  0  0  0
 47 74  1  0  0  0  0
 48 50  1  0  0  0  0
 48 74  1  0  0  0  0
 49 71  1  0  0  0  0
 51 66  1  0  0  0  0
 52 65  1  0  0  0  0
 53 72  1  0  0  0  0
 54 62  1  0  0  0  0
 55 63  1  0  0  0  0
 56 63  1  0  0  0  0
 57 63  1  0  0  0  0
 58 75  1  0  0  0  0
 59 60  1  0  0  0  0
 59 74  1  0  0  0  0
 60 83  1  0  0  0  0
 61 63  1  0  0  0  0
 61 73  1  0  0  0  0
 62 75  1  0  0  0  0
 64 65  1  0  0  0  0
M  CHG  2  74   1  75   1
M  ISO  4  33 100  60 101  68 100  83 101
M  END
> <Batch ID>
0193

> <Smiles>
CNC(C)C(=O)NC(C(=O)N1Cc2cc([101O:1][101CH2:1]CN3CCC(C(=O)NC4CC[100N:0]([100C:0](=O)N5CCCC(n6nc(-c7ccc(Oc8ccc(F)cc8F)cc7)c(C(N)=O)c6N)C5)C4)C3)ccc2CC1C(=O)NC1CCCc2ccccc21)C(C)(C)C

> <Shape>
0.269

> <Color>
0.116

> <Negative vol penalty>
0.000

$$$$

  -OEChem-04052323323D

 84 93  0     1  0  0  0  0  0999 V2000
  -26.7663  -37.2347   19.6160 C   0  0  0  0  0  0  0  0  0  0  0  0
  -27.3619  -35.9796   19.5438 C   0  0  0  0  0  0  0  0  0  0  0  0
  -24.4507  -10.2875   22.3085 C   0  0  0  0  0  0  0  0  0  0  0  0
  -24.5664  -11.7056   24.2611 C   0  0  0  0  0  0  0  0  0  0  0  0
  -25.7402  -37.4666   20.5310 C   0  0  0  0  0  0  0  0  0  0  0  0
  -26.9324  -34.9557   20.3874 C   0  0  0  0  0  0  0  0  0  0  0  0
  -26.6384  -28.9816   19.0725 C   0  0  0  0  0  0  0  0  0  0  0  0
  -24.0196   -9.2264   23.1046 C   0  0  0  0  0  0  0  0  0  0  0  0
  -24.1353  -10.6445   25.0572 C   0  0  0  0  0  0  0  0  0  0  0  0
  -27.4940  -27.9166   19.3511 C   0  0  0  0  0  0  0  0  0  0  0  0
  -21.1416   -8.2158   24.5634 C   0  0  0  0  0  0  0  0  0  0  0  0
  -20.0685   -7.4534   24.1020 C   0  0  0  0  0  0  0  0  0  0  0  0
  -26.1703  -27.3689   21.2920 C   0  0  0  0  0  0  0  0  0  0  0  0
  -21.4660   -5.4826   24.1083 C   0  0  0  0  0  0  0  0  0  0  0  0
  -30.1559  -24.5856   22.2236 C   0  0  0  0  0  0  0  0  0  0  0  0
  -24.7242  -11.5271   22.8867 C   0  0  0  0  0  0  0  0  0  0  0  0
  -24.3675  -13.5814   21.4170 C   0  0  0  0  0  0  0  0  0  0  0  0
  -25.2913  -36.4423   21.3796 C   0  0  0  0  0  0  0  0  0  0  0  0
  -25.5468  -29.2553   19.9091 C   0  0  0  0  0  0  0  0  0  0  0  0
  -25.9002  -35.1744   21.3156 C   0  0  0  0  0  0  0  0  0  0  0  0
  -25.3009  -28.4363   21.0204 C   0  0  0  0  0  0  0  0  0  0  0  0
  -23.8619   -9.4049   24.4789 C   0  0  0  0  0  0  0  0  0  0  0  0
  -27.2617  -27.1118   20.4626 C   0  0  0  0  0  0  0  0  0  0  0  0
  -22.3769   -7.6116   24.7972 C   0  0  0  0  0  0  0  0  0  0  0  0
  -20.2307   -6.0868   23.8744 C   0  0  0  0  0  0  0  0  0  0  0  0
  -22.5391   -6.2450   24.5697 C   0  0  0  0  0  0  0  0  0  0  0  0
  -25.1701  -12.6234   22.0649 C   0  0  0  0  0  0  0  0  0  0  0  0
  -28.8337  -24.2267   22.0582 C   0  0  0  0  0  0  0  0  0  0  0  0
  -31.0445  -23.5400   22.3702 C   0  0  0  0  0  0  0  0  0  0  0  0
  -25.2624  -14.3990   20.7712 C   0  0  0  0  0  0  0  0  0  0  0  0
  -29.3639  -22.0201   22.1890 C   0  0  0  0  0  0  0  0  0  0  0  0
  -22.9405  -13.7200   21.4004 C   0  0  0  0  0  0  0  0  0  0  0  0
  -24.6739  -31.7131   21.7259 C   0  0  0  0  0  0  0  0  0  0  0  0
  -21.9693  -29.9645   22.1127 C   0  0  0  0  0  0  0  0  0  0  0  0
  -20.4694  -26.8994   22.0655 C   0  0  0  0  0  0  0  0  0  0  0  0
  -30.0162  -17.3144   20.7588 C   0  0  0  0  0  0  0  0  0  0  0  0
  -24.2113  -36.7538   22.3852 C   0  0  0  0  0  0  0  0  0  0  0  0
  -24.6179  -30.3915   19.5797 C   0  0  0  0  0  0  0  0  0  0  0  0
  -24.1311  -28.6756   21.9384 C   0  0  0  0  0  0  0  0  0  0  0  0
  -23.5597  -35.5101   22.9842 C   0  0  0  0  0  0  0  0  0  0  0  0
  -30.2058  -13.8842   19.9339 C   0  0  0  0  0  0  0  0  0  0  0  0
  -24.6228  -34.4998   23.4034 C   0  0  0  0  0  0  0  0  0  0  0  0
  -28.8653  -13.3133   20.3882 C   0  0  0  0  0  0  0  0  0  0  0  0
  -29.2491  -19.7300   23.4103 C   0  0  0  0  0  0  0  0  0  0  0  0
  -30.6996  -14.9457   20.9077 C   0  0  0  0  0  0  0  0  0  0  0  0
  -29.0511  -18.3032   22.9164 C   0  0  0  0  0  0  0  0  0  0  0  0
  -29.5477  -19.7278   21.0547 C   0  0  0  0  0  0  0  0  0  0  0  0
  -28.3737  -15.5355   21.5339 C   0  0  0  0  0  0  0  0  0  0  0  0
  -25.4451  -34.0314   22.1968 C   0  0  1  0  0  0  0  0  0  0  0  0
  -28.9178  -20.5748   22.1695 C   0  0  2  0  0  0  0  0  0  0  0  0
  -23.8339  -30.8921   20.7889 C   0  0  1  0  0  0  0  0  0  0  0  0
  -27.8383  -14.4380   20.5911 C   0  0  2  0  0  0  0  0  0  0  0  0
  -18.2574  -25.7824   22.4614 C   0  0  0  0  0  0  0  0  0  0  0  0
  -22.3745  -30.2351   25.1247 C   0  0  0  0  0  0  0  0  0  0  0  0
  -20.7450  -28.3611   25.4420 C   0  0  0  0  0  0  0  0  0  0  0  0
  -20.0053  -30.4856   24.3642 C   0  0  0  0  0  0  0  0  0  0  0  0
  -20.3360  -25.9154   19.2775 C   0  0  0  0  0  0  0  0  0  0  0  0
  -33.2458  -22.6969   22.6853 C   0  0  0  0  0  0  0  0  0  0  0  0
  -27.7991  -25.2884   21.8917 C   0  0  0  0  0  0  0  0  0  1  0  0
  -21.5105  -28.9063   23.0867 C   0  0  1  0  0  0  0  0  0  0  0  0
  -19.1760  -26.4205   21.4311 C   0  0  2  0  0  0  0  0  0  0  0  0
  -21.1821  -29.4935   24.4884 C   0  0  0  0  0  0  0  0  0  0  0  0
  -26.4746  -12.8135   21.8502 N   0  0  0  0  0  0  0  0  0  0  0  0
  -28.4010  -22.9490   22.0359 N   0  0  0  0  0  0  0  0  0  0  0  0
  -30.6817  -22.2406   22.3580 N   0  0  0  0  0  0  0  0  0  0  0  0
  -26.4986  -13.9003   21.0601 N   0  0  0  0  0  0  0  0  0  0  0  0
  -23.2551  -29.8026   21.5778 N   0  0  0  0  0  0  0  0  0  0  0  0
  -29.7035  -15.9982   21.1162 N   0  0  0  0  0  0  0  0  0  0  0  0
  -29.4574  -18.3453   21.5133 N   0  0  0  0  0  0  0  0  0  0  0  0
  -25.1048  -15.4887   19.9901 N   0  0  0  0  0  0  0  0  0  0  0  0
  -22.1710  -12.7938   22.1177 N   0  0  0  0  0  0  0  0  0  0  0  0
  -24.7001  -33.0612   21.4234 N   0  0  0  0  0  0  0  0  0  0  0  0
  -20.3914  -28.2217   22.4484 N   0  0  0  0  0  0  0  0  0  0  0  0
  -19.4614  -25.4148   20.3690 N   0  3  0  0  0  0  0  0  0  0  0  0
  -22.3641  -14.6280   20.7549 O   0  0  0  0  0  0  0  0  0  0  0  0
  -25.2541  -31.1644   22.6554 O   0  0  0  0  0  0  0  0  0  0  0  0
  -21.2118  -30.8965   21.8312 O   0  0  0  0  0  0  0  0  0  0  0  0
  -21.4494  -26.1721   22.2104 O   0  0  0  0  0  0  0  0  0  0  0  0
  -30.7964  -17.5599   19.8288 O   0  0  0  0  0  0  0  0  0  0  0  0
  -23.4410   -8.3697   25.2561 O   0  0  0  0  0  0  0  0  0  0  0  0
  -28.1014  -26.0649   20.7392 O   0  0  0  0  0  0  0  0  0  1  0  0
  -32.3760  -23.8135   22.5392 O   0  0  0  0  0  0  0  0  0  0  0  0
  -19.1998   -5.3545   23.4328 F   0  0  0  0  0  0  0  0  0  0  0  0
  -23.7232   -5.6588   24.7936 F   0  0  0  0  0  0  0  0  0  0  0  0
  1  2  1  0  0  0  0
  1  5  2  0  0  0  0
  2  6  2  0  0  0  0
  3  8  2  0  0  0  0
  3 16  1  0  0  0  0
  4  9  1  0  0  0  0
  4 16  2  0  0  0  0
  5 18  1  0  0  0  0
  6 20  1  0  0  0  0
  7 10  2  0  0  0  0
  7 19  1  0  0  0  0
  8 22  1  0  0  0  0
  9 22  2  0  0  0  0
 10 23  1  0  0  0  0
 11 12  2  0  0  0  0
 11 24  1  0  0  0  0
 12 25  1  0  0  0  0
 13 21  1  0  0  0  0
 13 23  2  0  0  0  0
 14 25  2  0  0  0  0
 14 26  1  0  0  0  0
 15 28  1  0  0  0  0
 15 29  2  0  0  0  0
 16 27  1  0  0  0  0
 17 27  1  0  0  0  0
 17 30  2  0  0  0  0
 17 32  1  0  0  0  0
 18 20  2  0  0  0  0
 18 37  1  0  0  0  0
 19 21  2  0  0  0  0
 19 38  1  0  0  0  0
 20 49  1  0  0  0  0
 21 39  1  0  0  0  0
 22 80  1  0  0  0  0
 23 81  1  0  0  0  0
 24 26  2  0  0  0  0
 24 80  1  0  0  0  0
 25 83  1  0  0  0  0
 26 84  1  0  0  0  0
 27 63  2  0  0  0  0
 28 59  1  0  0  0  0
 28 64  2  0  0  0  0
 29 65  1  0  0  0  0
 29 82  1  0  0  0  0
 30 66  1  0  0  0  0
 30 70  1  0  0  0  0
 31 50  1  0  0  0  0
 31 64  1  0  0  0  0
 31 65  2  0  0  0  0
 32 71  1  0  0  0  0
 32 75  2  0  0  0  0
 33 51  1  0  0  0  0
 33 72  1  0  0  0  0
 33 76  2  0  0  0  0
 34 60  1  0  0  0  0
 34 67  1  0  0  0  0
 34 77  2  0  0  0  0
 35 61  1  0  0  0  0
 35 73  1  0  0  0  0
 35 78  2  0  0  0  0
 36 68  1  0  0  0  0
 36 69  1  0  0  0  0
 36 79  2  0  0  0  0
 37 40  1  0  0  0  0
 38 51  1  0  0  0  0
 39 67  1  0  0  0  0
 40 42  1  0  0  0  0
 41 43  1  0  0  0  0
 41 45  1  0  0  0  0
 42 49  1  0  0  0  0
 43 52  1  0  0  0  0
 44 46  1  0  0  0  0
 44 50  1  0  0  0  0
 45 68  1  0  0  0  0
 46 69  1  0  0  0  0
 47 50  1  0  0  0  0
 47 69  1  0  0  0  0
 48 52  1  0  0  0  0
 48 68  1  0  0  0  0
 49 72  1  0  0  0  0
 51 67  1  0  0  0  0
 52 66  1  0  0  0  0
 53 61  1  0  0  0  0
 54 62  1  0  0  0  0
 55 62  1  0  0  0  0
 56 62  1  0  0  0  0
 57 74  1  0  0  0  0
 58 82  1  0  0  0  0
 59 81  1  0  0  0  0
 60 62  1  0  0  0  0
 60 73  1  0  0  0  0
 61 74  1  0  0  0  0
 63 66  1  0  0  0  0
M  CHG  1  74   1
M  ISO  4  36 100  59 101  69 100  81 101
M  END
> <Batch ID>
0193

> <Smiles>
CNC(C)C(=O)NC(C(=O)N1Cc2cc([101O:1][101CH2:1]c3cc(OC)nc(C4CC[100N:0]([100C:0](=O)N5CCCC(n6nc(-c7ccc(Oc8ccc(F)cc8F)cc7)c(C(N)=O)c6N)C5)C4)n3)ccc2CC1C(=O)NC1CCCc2ccccc21)C(C)(C)C

> <Shape>
0.290

> <Color>
0.128

> <Negative vol penalty>
0.000

$$$$

  -OEChem-04052323323D

 84 93  0     1  0  0  0  0  0999 V2000
  -17.9530  -30.5320   23.8094 C   0  0  0  0  0  0  0  0  0  0  0  0
  -19.3423  -30.5761   23.8665 C   0  0  0  0  0  0  0  0  0  0  0  0
  -25.8068  -14.6765   19.2877 C   0  0  0  0  0  0  0  0  0  0  0  0
  -24.9211  -14.6057   21.5343 C   0  0  0  0  0  0  0  0  0  0  0  0
  -17.3135  -29.4123   23.2791 C   0  0  0  0  0  0  0  0  0  0  0  0
  -20.0929  -29.4999   23.3945 C   0  0  0  0  0  0  0  0  0  0  0  0
  -25.5394  -29.7518   20.6055 C   0  0  0  0  0  0  0  0  0  0  0  0
  -25.9402  -13.2881   19.2965 C   0  0  0  0  0  0  0  0  0  0  0  0
  -25.0544  -13.2172   21.5432 C   0  0  0  0  0  0  0  0  0  0  0  0
  -26.8406  -29.5654   21.0701 C   0  0  0  0  0  0  0  0  0  0  0  0
  -23.3812  -10.5480   20.3200 C   0  0  0  0  0  0  0  0  0  0  0  0
  -22.3134   -9.7990   20.8146 C   0  0  0  0  0  0  0  0  0  0  0  0
  -26.7705  -27.2712   20.3281 C   0  0  0  0  0  0  0  0  0  0  0  0
  -23.7533   -8.8716   22.5186 C   0  0  0  0  0  0  0  0  0  0  0  0
  -33.2821  -27.1345   17.2469 C   0  0  0  0  0  0  0  0  0  0  0  0
  -32.6171  -25.1204   17.0683 C   0  0  0  0  0  0  0  0  0  0  0  0
  -25.2973  -15.3353   20.4066 C   0  0  0  0  0  0  0  0  0  0  0  0
  -24.0402  -17.5138   19.9806 C   0  0  0  0  0  0  0  0  0  0  0  0
  -18.0568  -28.3259   22.7915 C   0  0  0  0  0  0  0  0  0  0  0  0
  -24.8388  -28.6945   20.0075 C   0  0  0  0  0  0  0  0  0  0  0  0
  -19.4627  -28.3640   22.8584 C   0  0  0  0  0  0  0  0  0  0  0  0
  -25.4614  -27.4474   19.8544 C   0  0  0  0  0  0  0  0  0  0  0  0
  -25.5640  -12.5584   20.4242 C   0  0  0  0  0  0  0  0  0  0  0  0
  -27.4553  -28.3242   20.9340 C   0  0  0  0  0  0  0  0  0  0  0  0
  -24.6350  -10.4587   20.9247 C   0  0  0  0  0  0  0  0  0  0  0  0
  -22.4995   -8.9608   21.9139 C   0  0  0  0  0  0  0  0  0  0  0  0
  -24.8210   -9.6206   22.0240 C   0  0  0  0  0  0  0  0  0  0  0  0
  -25.1598  -16.7696   20.3983 C   0  0  0  0  0  0  0  0  0  0  0  0
  -32.7385  -26.8172   18.4693 C   0  0  0  0  0  0  0  0  0  0  0  0
  -24.4091  -18.8235   20.1682 C   0  0  0  0  0  0  0  0  0  0  0  0
  -22.7795  -17.0617   19.4689 C   0  0  0  0  0  0  0  0  0  0  0  0
  -22.1722  -27.1029   20.6857 C   0  0  0  0  0  0  0  0  0  0  0  0
  -22.7349  -25.7104   17.8105 C   0  0  0  0  0  0  0  0  0  0  0  0
  -24.9899  -24.8665   15.3919 C   0  0  0  0  0  0  0  0  0  0  0  0
  -28.9195  -22.1762   19.6371 C   0  0  0  0  0  0  0  0  0  0  0  0
  -17.3199  -27.1174   22.2707 C   0  0  0  0  0  0  0  0  0  0  0  0
  -23.4455  -28.9192   19.4875 C   0  0  0  0  0  0  0  0  0  0  0  0
  -24.7598  -26.2857   19.2014 C   0  0  0  0  0  0  0  0  0  0  0  0
  -18.1968  -26.1772   21.4478 C   0  0  0  0  0  0  0  0  0  0  0  0
  -27.7821  -21.1546   22.8974 C   0  0  0  0  0  0  0  0  0  0  0  0
  -19.5223  -25.9242   22.1590 C   0  0  0  0  0  0  0  0  0  0  0  0
  -26.9051  -19.9567   22.5443 C   0  0  0  0  0  0  0  0  0  0  0  0
  -32.3859  -23.3906   19.7578 C   0  0  0  0  0  0  0  0  0  0  0  0
  -29.0195  -21.2548   22.0029 C   0  0  0  0  0  0  0  0  0  0  0  0
  -31.3101  -22.5810   20.4719 C   0  0  0  0  0  0  0  0  0  0  0  0
  -27.8295  -20.0321   20.2035 C   0  0  0  0  0  0  0  0  0  0  0  0
  -30.2545  -24.1650   19.0059 C   0  0  0  0  0  0  0  0  0  0  0  0
  -20.3122  -27.2269   22.3336 C   0  0  1  0  0  0  0  0  0  0  0  0
  -22.6405  -27.6297   19.3587 C   0  0  1  0  0  0  0  0  0  0  0  0
  -26.5499  -19.9673   21.0490 C   0  0  1  0  0  0  0  0  0  0  0  0
  -31.6424  -24.6818   19.3929 C   0  0  2  0  0  0  0  0  0  0  0  0
  -25.1584  -23.7000   13.1764 C   0  0  0  0  0  0  0  0  0  0  0  0
  -22.5353  -23.0113   19.2193 C   0  0  0  0  0  0  0  0  0  0  0  0
  -23.6286  -21.9672   17.2236 C   0  0  0  0  0  0  0  0  0  0  0  0
  -21.4219  -23.1051   16.9818 C   0  0  0  0  0  0  0  0  0  0  0  0
  -25.9444  -27.3208   14.0413 C   0  0  0  0  0  0  0  0  0  0  0  0
  -32.5880  -27.6016   19.7069 C   0  0  0  0  0  0  0  0  0  0  0  0
  -31.0315  -28.8161   21.2370 C   0  0  0  0  0  0  0  0  0  0  0  0
  -29.5920  -29.2713   21.3738 C   0  0  0  0  0  0  0  0  0  1  0  0
  -23.5014  -24.4972   17.3419 C   0  0  1  0  0  0  0  0  0  0  0  0
  -24.9579  -25.0316   13.8832 C   0  0  2  0  0  0  0  0  0  0  0  0
  -22.7846  -23.1664   17.7057 C   0  0  0  0  0  0  0  0  0  0  0  0
  -33.2031  -26.0742   16.3791 N   0  0  0  0  0  0  0  0  0  0  0  0
  -26.1646  -17.5422   20.8194 N   0  0  0  0  0  0  0  0  0  0  0  0
  -32.3164  -25.5241   18.3395 N   0  0  0  0  0  0  0  0  0  0  0  0
  -25.6779  -18.7855   20.6672 N   0  0  0  0  0  0  0  0  0  0  0  0
  -23.3963  -26.5535   18.7147 N   0  0  0  0  0  0  0  0  0  0  0  0
  -28.6655  -21.1753   20.5813 N   0  0  0  0  0  0  0  0  0  0  0  0
  -30.0609  -22.9588   19.8074 N   0  0  0  0  0  0  0  0  0  0  0  0
  -23.7687  -19.9923   19.9534 N   0  0  0  0  0  0  0  0  0  0  0  0
  -22.5663  -15.6824   19.3405 N   0  0  0  0  0  0  0  0  0  0  0  0
  -20.9488  -27.6026   21.0894 N   0  0  0  0  0  0  0  0  0  0  0  0
  -23.7263  -24.6835   15.9125 N   0  0  0  0  0  0  0  0  0  0  0  0
  -26.0327  -25.9646   13.4413 N   0  3  0  0  0  0  0  0  0  0  0  0
  -31.1916  -28.0754   19.9621 N   0  3  0  0  0  0  0  0  0  0  0  0
  -21.8751  -17.8578   19.1198 O   0  0  0  0  0  0  0  0  0  0  0  0
  -22.8686  -26.3012   21.2973 O   0  0  0  0  0  0  0  0  0  0  0  0
  -21.5941  -25.9068   17.3843 O   0  0  0  0  0  0  0  0  0  0  0  0
  -26.0319  -24.8932   16.0430 O   0  0  0  0  0  0  0  0  0  0  0  0
  -28.1801  -22.3372   18.6566 O   0  0  0  0  0  0  0  0  0  0  0  0
  -25.6939  -11.2036   20.4331 O   0  0  0  0  0  0  0  0  0  0  0  0
  -28.7342  -28.1380   21.3905 O   0  0  0  0  0  0  0  0  0  1  0  0
  -21.4737   -8.2428   22.3896 F   0  0  0  0  0  0  0  0  0  0  0  0
  -26.0230   -9.5315   22.6099 F   0  0  0  0  0  0  0  0  0  0  0  0
  1  2  1  0  0  0  0
  1  5  2  0  0  0  0
  2  6  2  0  0  0  0
  3  8  2  0  0  0  0
  3 17  1  0  0  0  0
  4  9  1  0  0  0  0
  4 17  2  0  0  0  0
  5 19  1  0  0  0  0
  6 21  1  0  0  0  0
  7 10  2  0  0  0  0
  7 20  1  0  0  0  0
  8 23  1  0  0  0  0
  9 23  2  0  0  0  0
 10 24  1  0  0  0  0
 11 12  2  0  0  0  0
 11 25  1  0  0  0  0
 12 26  1  0  0  0  0
 13 22  1  0  0  0  0
 13 24  2  0  0  0  0
 14 26  2  0  0  0  0
 14 27  1  0  0  0  0
 15 29  2  0  0  0  0
 15 63  1  0  0  0  0
 16 63  2  0  0  0  0
 16 65  1  0  0  0  0
 17 28  1  0  0  0  0
 18 28  1  0  0  0  0
 18 30  2  0  0  0  0
 18 31  1  0  0  0  0
 19 21  2  0  0  0  0
 19 36  1  0  0  0  0
 20 22  2  0  0  0  0
 20 37  1  0  0  0  0
 21 48  1  0  0  0  0
 22 38  1  0  0  0  0
 23 81  1  0  0  0  0
 24 82  1  0  0  0  0
 25 27  2  0  0  0  0
 25 81  1  0  0  0  0
 26 83  1  0  0  0  0
 27 84  1  0  0  0  0
 28 64  2  0  0  0  0
 29 57  1  0  0  0  0
 29 65  1  0  0  0  0
 30 66  1  0  0  0  0
 30 70  1  0  0  0  0
 31 71  1  0  0  0  0
 31 76  2  0  0  0  0
 32 49  1  0  0  0  0
 32 72  1  0  0  0  0
 32 77  2  0  0  0  0
 33 60  1  0  0  0  0
 33 67  1  0  0  0  0
 33 78  2  0  0  0  0
 34 61  1  0  0  0  0
 34 73  1  0  0  0  0
 34 79  2  0  0  0  0
 35 68  1  0  0  0  0
 35 69  1  0  0  0  0
 35 80  2  0  0  0  0
 36 39  1  0  0  0  0
 37 49  1  0  0  0  0
 38 67  1  0  0  0  0
 39 41  1  0  0  0  0
 40 42  1  0  0  0  0
 40 44  1  0  0  0  0
 41 48  1  0  0  0  0
 42 50  1  0  0  0  0
 43 45  1  0  0  0  0
 43 51  1  0  0  0  0
 44 68  1  0  0  0  0
 45 69  1  0  0  0  0
 46 50  1  0  0  0  0
 46 68  1  0  0  0  0
 47 51  1  0  0  0  0
 47 69  1  0  0  0  0
 48 72  1  0  0  0  0
 49 67  1  0  0  0  0
 50 66  1  0  0  0  0
 51 65  1  0  0  0  0
 52 61  1  0  0  0  0
 53 62  1  0  0  0  0
 54 62  1  0  0  0  0
 55 62  1  0  0  0  0
 56 74  1  0  0  0  0
 57 75  1  0  0  0  0
 58 59  1  0  0  0  0
 58 75  1  0  0  0  0
 59 82  1  0  0  0  0
 60 62  1  0  0  0  0
 60 73  1  0  0  0  0
 61 74  1  0  0  0  0
 64 66  1  0  0  0  0
M  CHG  2  74   1  75   1
M  ISO  4  35 100  59 101  69 100  82 101
M  END
> <Batch ID>
0193

> <Smiles>
CNC(C)C(=O)NC(C(=O)N1Cc2cc([101O:1][101CH2:1]CNCc3cncn3C3CC[100N:0]([100C:0](=O)N4CCCC(n5nc(-c6ccc(Oc7ccc(F)cc7F)cc6)c(C(N)=O)c5N)C4)C3)ccc2CC1C(=O)NC1CCCc2ccccc21)C(C)(C)C

> <Shape>
0.256

> <Color>
0.070

> <Negative vol penalty>
0.000

$$$$

  -OEChem-04052323323D

 84 93  0     1  0  0  0  0  0999 V2000
  -30.8703  -11.0574   20.5674 C   0  0  0  0  0  0  0  0  0  0  0  0
  -30.6830  -12.3691   20.1435 C   0  0  0  0  0  0  0  0  0  0  0  0
  -22.0459  -26.0386   25.2692 C   0  0  0  0  0  0  0  0  0  0  0  0
  -20.3902  -27.7868   25.0702 C   0  0  0  0  0  0  0  0  0  0  0  0
  -29.7753  -10.2915   20.9654 C   0  0  0  0  0  0  0  0  0  0  0  0
  -29.4003  -12.9154   20.1162 C   0  0  0  0  0  0  0  0  0  0  0  0
  -29.2416  -17.5973   22.0398 C   0  0  0  0  0  0  0  0  0  0  0  0
  -21.5199  -25.6817   26.5108 C   0  0  0  0  0  0  0  0  0  0  0  0
  -19.8641  -27.4299   26.3118 C   0  0  0  0  0  0  0  0  0  0  0  0
  -29.6932  -18.6355   21.2263 C   0  0  0  0  0  0  0  0  0  0  0  0
  -18.8766  -23.9312   27.6863 C   0  0  0  0  0  0  0  0  0  0  0  0
  -18.6846  -22.5737   27.9430 C   0  0  0  0  0  0  0  0  0  0  0  0
  -27.4110  -19.1849   20.6707 C   0  0  0  0  0  0  0  0  0  0  0  0
  -20.1919  -22.7166   29.8257 C   0  0  0  0  0  0  0  0  0  0  0  0
  -31.0937  -26.8993   20.4045 C   0  0  0  0  0  0  0  0  0  0  0  0
  -21.4811  -27.0911   24.5489 C   0  0  0  0  0  0  0  0  0  0  0  0
  -21.6460  -26.9592   22.0067 C   0  0  0  0  0  0  0  0  0  0  0  0
  -28.4797  -10.8319   20.9522 C   0  0  0  0  0  0  0  0  0  0  0  0
  -27.8694  -17.3377   22.1665 C   0  0  0  0  0  0  0  0  0  0  0  0
  -28.2868  -12.1556   20.5132 C   0  0  0  0  0  0  0  0  0  0  0  0
  -26.9444  -18.1444   21.4885 C   0  0  0  0  0  0  0  0  0  0  0  0
  -29.9770  -27.5906   20.7872 C   0  0  0  0  0  0  0  0  0  0  0  0
  -20.4290  -26.3773   27.0321 C   0  0  0  0  0  0  0  0  0  0  0  0
  -28.7780  -19.4277   20.5393 C   0  0  0  0  0  0  0  0  0  0  0  0
  -19.7264  -24.6814   28.4992 C   0  0  0  0  0  0  0  0  0  0  0  0
  -19.3422  -21.9664   29.0127 C   0  0  0  0  0  0  0  0  0  0  0  0
  -20.3840  -24.0741   29.5689 C   0  0  0  0  0  0  0  0  0  0  0  0
  -22.0243  -27.4606   23.2665 C   0  0  0  0  0  0  0  0  0  0  0  0
  -28.7684  -27.1630   20.2691 C   0  0  0  0  0  0  0  0  0  0  0  0
  -22.4534  -27.6237   21.1161 C   0  0  0  0  0  0  0  0  0  0  0  0
  -29.7833  -25.5237   19.1204 C   0  0  0  0  0  0  0  0  0  0  0  0
  -20.6535  -25.9804   21.6713 C   0  0  0  0  0  0  0  0  0  0  0  0
  -25.9804  -14.8735   21.4861 C   0  0  0  0  0  0  0  0  0  0  0  0
  -23.7367  -16.6835   22.9734 C   0  0  0  0  0  0  0  0  0  0  0  0
  -22.6852  -19.7860   23.9303 C   0  0  0  0  0  0  0  0  0  0  0  0
  -27.8445  -30.2694   22.0120 C   0  0  0  0  0  0  0  0  0  0  0  0
  -27.3214   -9.9501   21.3466 C   0  0  0  0  0  0  0  0  0  0  0  0
  -27.3972  -16.2309   23.0690 C   0  0  0  0  0  0  0  0  0  0  0  0
  -25.4598  -17.9199   21.6068 C   0  0  0  0  0  0  0  0  0  0  0  0
  -29.7976  -28.7595   21.6811 C   0  0  0  0  0  0  0  0  0  0  0  0
  -27.6499  -28.0054   20.8081 C   0  0  0  0  0  0  0  0  0  0  0  0
  -26.0401  -10.7246   21.6441 C   0  0  0  0  0  0  0  0  0  0  0  0
  -24.8209  -31.7499   20.5549 C   0  0  0  0  0  0  0  0  0  0  0  0
  -25.7790  -11.7624   20.5571 C   0  0  0  0  0  0  0  0  0  0  0  0
  -23.7230  -30.7884   21.0150 C   0  0  0  0  0  0  0  0  0  0  0  0
  -25.9773  -31.8175   21.5503 C   0  0  0  0  0  0  0  0  0  0  0  0
  -25.4491  -29.5591   22.3796 C   0  0  0  0  0  0  0  0  0  0  0  0
  -26.9138  -12.7918   20.4931 C   0  0  1  0  0  0  0  0  0  0  0  0
  -25.9989  -15.7307   22.7199 C   0  0  1  0  0  0  0  0  0  0  0  0
  -24.3038  -29.4060   21.3699 C   0  0  1  0  0  0  0  0  0  0  0  0
  -21.2607  -21.5164   25.0590 C   0  0  0  0  0  0  0  0  0  0  0  0
  -28.2418  -19.5444   17.7303 C   0  0  0  0  0  0  0  0  0  0  0  0
  -22.0015  -16.3536   20.4854 C   0  0  0  0  0  0  0  0  0  0  0  0
  -20.5992  -18.2630   21.2954 C   0  0  0  0  0  0  0  0  0  0  0  0
  -20.7641  -16.1757   22.6514 C   0  0  0  0  0  0  0  0  0  0  0  0
  -24.2492  -19.6065   26.4364 C   0  0  0  0  0  0  0  0  0  0  0  0
  -29.6966  -24.3628   18.1877 C   0  0  0  0  0  0  0  0  0  0  0  0
  -29.0123  -21.9778   17.9002 C   0  0  0  0  0  0  0  0  0  0  0  0
  -22.7491  -17.7370   22.5332 C   0  0  1  0  0  0  0  0  0  0  0  0
  -22.1624  -20.3078   25.2565 C   0  0  2  0  0  0  0  0  0  0  0  0
  -28.4066  -20.7738   18.6142 C   0  0  2  0  0  0  0  0  0  1  0  0
  -21.5564  -17.1356   21.7374 C   0  0  0  0  0  0  0  0  0  0  0  0
  -31.0256  -25.8471   19.5598 N   0  0  0  0  0  0  0  0  0  0  0  0
  -22.9965  -28.3731   23.1876 N   0  0  0  0  0  0  0  0  0  0  0  0
  -28.6177  -26.1295   19.4306 N   0  0  0  0  0  0  0  0  0  0  0  0
  -23.2360  -28.4503   21.8675 N   0  0  0  0  0  0  0  0  0  0  0  0
  -25.0479  -16.8215   22.4963 N   0  0  0  0  0  0  0  0  0  0  0  0
  -28.3490  -29.0283   21.6167 N   0  0  0  0  0  0  0  0  0  0  0  0
  -26.4695  -30.4774   21.8659 N   0  0  0  0  0  0  0  0  0  0  0  0
  -22.5633  -27.5757   19.7715 N   0  0  0  0  0  0  0  0  0  0  0  0
  -19.9136  -25.3966   22.7086 N   0  0  0  0  0  0  0  0  0  0  0  0
  -26.7853  -13.7532   21.5672 N   0  0  0  0  0  0  0  0  0  0  0  0
  -22.3591  -18.4600   23.7388 N   0  0  0  0  0  0  0  0  0  0  0  0
  -23.2952  -20.7058   26.1394 N   0  3  0  0  0  0  0  0  0  0  0  0
  -29.1598  -23.1300   18.8273 N   0  3  0  0  0  0  0  0  0  0  0  0
  -20.4408  -25.6217   20.4882 O   0  0  0  0  0  0  0  0  0  0  0  0
  -25.2860  -15.2032   20.5317 O   0  0  0  0  0  0  0  0  0  0  0  0
  -23.3604  -15.7757   23.7190 O   0  0  0  0  0  0  0  0  0  0  0  0
  -23.3164  -20.4858   23.1413 O   0  0  0  0  0  0  0  0  0  0  0  0
  -28.5915  -31.1668   22.4224 O   0  0  0  0  0  0  0  0  0  0  0  0
  -19.9154  -26.0292   28.2435 O   0  0  0  0  0  0  0  0  0  0  0  0
  -29.2187  -20.4472   19.7394 O   0  0  0  0  0  0  0  0  0  1  0  0
  -19.1565  -20.6631   29.2601 F   0  0  0  0  0  0  0  0  0  0  0  0
  -21.2006  -24.7899   30.3542 F   0  0  0  0  0  0  0  0  0  0  0  0
  1  2  1  0  0  0  0
  1  5  2  0  0  0  0
  2  6  2  0  0  0  0
  3  8  2  0  0  0  0
  3 16  1  0  0  0  0
  4  9  1  0  0  0  0
  4 16  2  0  0  0  0
  5 18  1  0  0  0  0
  6 20  1  0  0  0  0
  7 10  2  0  0  0  0
  7 19  1  0  0  0  0
  8 23  1  0  0  0  0
  9 23  2  0  0  0  0
 10 24  1  0  0  0  0
 11 12  2  0  0  0  0
 11 25  1  0  0  0  0
 12 26  1  0  0  0  0
 13 21  1  0  0  0  0
 13 24  2  0  0  0  0
 14 26  2  0  0  0  0
 14 27  1  0  0  0  0
 15 22  1  0  0  0  0
 15 63  2  0  0  0  0
 16 28  1  0  0  0  0
 17 28  1  0  0  0  0
 17 30  2  0  0  0  0
 17 32  1  0  0  0  0
 18 20  2  0  0  0  0
 18 37  1  0  0  0  0
 19 21  2  0  0  0  0
 19 38  1  0  0  0  0
 20 48  1  0  0  0  0
 21 39  1  0  0  0  0
 22 29  2  0  0  0  0
 22 40  1  0  0  0  0
 23 81  1  0  0  0  0
 24 82  1  0  0  0  0
 25 27  2  0  0  0  0
 25 81  1  0  0  0  0
 26 83  1  0  0  0  0
 27 84  1  0  0  0  0
 28 64  2  0  0  0  0
 29 41  1  0  0  0  0
 29 65  1  0  0  0  0
 30 66  1  0  0  0  0
 30 70  1  0  0  0  0
 31 57  1  0  0  0  0
 31 63  1  0  0  0  0
 31 65  2  0  0  0  0
 32 71  1  0  0  0  0
 32 76  2  0  0  0  0
 33 49  1  0  0  0  0
 33 72  1  0  0  0  0
 33 77  2  0  0  0  0
 34 59  1  0  0  0  0
 34 67  1  0  0  0  0
 34 78  2  0  0  0  0
 35 60  1  0  0  0  0
 35 73  1  0  0  0  0
 35 79  2  0  0  0  0
 36 68  1  0  0  0  0
 36 69  1  0  0  0  0
 36 80  2  0  0  0  0
 37 42  1  0  0  0  0
 38 49  1  0  0  0  0
 39 67  1  0  0  0  0
 40 68  1  0  0  0  0
 41 68  1  0  0  0  0
 42 44  1  0  0  0  0
 43 45  1  0  0  0  0
 43 46  1  0  0  0  0
 44 48  1  0  0  0  0
 45 50  1  0  0  0  0
 46 69  1  0  0  0  0
 47 50  1  0  0  0  0
 47 69  1  0  0  0  0
 48 72  1  0  0  0  0
 49 67  1  0  0  0  0
 50 66  1  0  0  0  0
 51 60  1  0  0  0  0
 52 61  1  0  0  0  0
 53 62  1  0  0  0  0
 54 62  1  0  0  0  0
 55 62  1  0  0  0  0
 56 74  1  0  0  0  0
 57 75  1  0  0  0  0
 58 61  1  0  0  0  0
 58 75  1  0  0  0  0
 59 62  1  0  0  0  0
 59 73  1  0  0  0  0
 60 74  1  0  0  0  0
 61 82  1  0  0  0  0
 64 66  1  0  0  0  0
M  CHG  2  74   1  75   1
M  ISO  4  36 100  61 101  68 100  82 101
M  END
> <Batch ID>
0193

> <Smiles>
CNC(C)C(=O)NC(C(=O)N1Cc2cc([101O:1][101CH:1](C)CNCc3ncc4c(n3)C[100N:0]([100C:0](=O)N3CCCC(n5nc(-c6ccc(Oc7ccc(F)cc7F)cc6)c(C(N)=O)c5N)C3)C4)ccc2CC1C(=O)NC1CCCc2ccccc21)C(C)(C)C

> <Shape>
0.223

> <Color>
0.082

> <Negative vol penalty>
0.000

$$$$

  -OEChem-04052323323D

 88 97  0     1  0  0  0  0  0999 V2000
  -25.8388   -8.3089   22.6204 C   0  0  0  0  0  0  0  0  0  0  0  0
  -26.7865   -9.2258   22.1769 C   0  0  0  0  0  0  0  0  0  0  0  0
  -25.8709  -31.4056   23.6319 C   0  0  0  0  0  0  0  0  0  0  0  0
  -23.7811  -32.5714   23.2992 C   0  0  0  0  0  0  0  0  0  0  0  0
  -24.4809   -8.6104   22.5253 C   0  0  0  0  0  0  0  0  0  0  0  0
  -26.3766  -10.4444   21.6369 C   0  0  0  0  0  0  0  0  0  0  0  0
  -29.2231  -15.8424   22.1515 C   0  0  0  0  0  0  0  0  0  0  0  0
  -31.5861  -24.1495   20.7195 C   0  0  0  0  0  0  0  0  0  0  0  0
  -26.5669  -32.5191   23.1617 C   0  0  0  0  0  0  0  0  0  0  0  0
  -24.4771  -33.6850   22.8290 C   0  0  0  0  0  0  0  0  0  0  0  0
  -30.0777  -16.5373   21.2969 C   0  0  0  0  0  0  0  0  0  0  0  0
  -26.2231  -36.2649   24.1392 C   0  0  0  0  0  0  0  0  0  0  0  0
  -25.8365  -37.5176   24.6155 C   0  0  0  0  0  0  0  0  0  0  0  0
  -30.7874  -25.2268   21.0866 C   0  0  0  0  0  0  0  0  0  0  0  0
  -28.2038  -17.8100   20.4675 C   0  0  0  0  0  0  0  0  0  0  0  0
  -25.3348  -38.2207   22.3592 C   0  0  0  0  0  0  0  0  0  0  0  0
  -24.4779  -31.4317   23.7007 C   0  0  0  0  0  0  0  0  0  0  0  0
  -23.3928  -30.0069   25.5173 C   0  0  0  0  0  0  0  0  0  0  0  0
  -24.0545   -9.8373   21.9929 C   0  0  0  0  0  0  0  0  0  0  0  0
  -27.8484  -16.1190   22.1627 C   0  0  0  0  0  0  0  0  0  0  0  0
  -25.0117  -10.7620   21.5334 C   0  0  0  0  0  0  0  0  0  0  0  0
  -27.3342  -17.1190   21.3250 C   0  0  0  0  0  0  0  0  0  0  0  0
  -31.1500  -23.2724   19.7327 C   0  0  0  0  0  0  0  0  0  0  0  0
  -25.8701  -33.6588   22.7602 C   0  0  0  0  0  0  0  0  0  0  0  0
  -29.5678  -17.5193   20.4527 C   0  0  0  0  0  0  0  0  0  0  0  0
  -26.1656  -35.9901   22.7728 C   0  0  0  0  0  0  0  0  0  0  0  0
  -25.3923  -38.4955   23.7255 C   0  0  0  0  0  0  0  0  0  0  0  0
  -25.7214  -36.9680   21.8828 C   0  0  0  0  0  0  0  0  0  0  0  0
  -23.7583  -30.2816   24.1858 C   0  0  0  0  0  0  0  0  0  0  0  0
  -29.9173  -23.5147   19.1483 C   0  0  0  0  0  0  0  0  0  0  0  0
  -29.5710  -25.3817   20.4415 C   0  0  0  0  0  0  0  0  0  0  0  0
  -22.7318  -28.8048   25.4509 C   0  0  0  0  0  0  0  0  0  0  0  0
  -23.6297  -30.7702   26.7077 C   0  0  0  0  0  0  0  0  0  0  0  0
  -25.2195  -14.4511   21.5216 C   0  0  0  0  0  0  0  0  0  0  0  0
  -23.7305  -17.1211   22.6063 C   0  0  0  0  0  0  0  0  0  0  0  0
  -24.1474  -20.6892   22.2708 C   0  0  0  0  0  0  0  0  0  0  0  0
  -23.4620  -27.9330   20.1942 C   0  0  0  0  0  0  0  0  0  0  0  0
  -22.5745  -10.0988   21.8669 C   0  0  0  0  0  0  0  0  0  0  0  0
  -26.9438  -15.3790   23.1096 C   0  0  0  0  0  0  0  0  0  0  0  0
  -25.8691  -17.4679   21.3134 C   0  0  0  0  0  0  0  0  0  0  0  0
  -22.2337  -11.5674   21.6274 C   0  0  0  0  0  0  0  0  0  0  0  0
  -20.3663  -27.9853   21.8408 C   0  0  0  0  0  0  0  0  0  0  0  0
  -23.1332  -12.1545   20.5444 C   0  0  0  0  0  0  0  0  0  0  0  0
  -20.6407  -27.3535   23.2032 C   0  0  0  0  0  0  0  0  0  0  0  0
  -26.4454  -25.7676   20.8381 C   0  0  0  0  0  0  0  0  0  0  0  0
  -27.1586  -28.0271   19.9871 C   0  0  0  0  0  0  0  0  0  0  0  0
  -21.1416  -27.2720   20.7422 C   0  0  0  0  0  0  0  0  0  0  0  0
  -25.0740  -25.9967   20.2156 C   0  0  0  0  0  0  0  0  0  0  0  0
  -25.7725  -28.2192   19.3833 C   0  0  0  0  0  0  0  0  0  0  0  0
  -22.9403  -26.6329   22.3207 C   0  0  0  0  0  0  0  0  0  0  0  0
  -24.6071  -12.1047   20.9646 C   0  0  1  0  0  0  0  0  0  0  0  0
  -25.4834  -15.3853   22.6685 C   0  0  1  0  0  0  0  0  0  0  0  0
  -22.1387  -27.1912   23.5174 C   0  0  1  0  0  0  0  0  0  0  0  0
  -27.5281  -26.5493   20.0948 C   0  0  0  0  0  0  0  0  0  0  0  0
  -29.3983  -22.6056   18.0827 C   0  0  0  0  0  0  0  0  0  0  0  0
  -23.4935  -22.5601   23.8101 C   0  0  0  0  0  0  0  0  0  0  0  0
  -21.1897  -17.2329   20.9206 C   0  0  0  0  0  0  0  0  0  0  0  0
  -21.2563  -19.7284   21.1113 C   0  0  0  0  0  0  0  0  0  0  0  0
  -21.0043  -18.3289   23.1608 C   0  0  0  0  0  0  0  0  0  0  0  0
  -26.9104  -21.7471   22.3471 C   0  0  0  0  0  0  0  0  0  0  0  0
  -32.0016  -22.1169   19.3348 C   0  0  0  0  0  0  0  0  0  0  0  0
  -32.3189  -19.6411   19.4270 C   0  0  0  0  0  0  0  0  0  0  0  0
  -31.7467  -18.3818   20.0474 C   0  0  0  0  0  0  0  0  0  1  0  0
  -23.2364  -18.4006   21.9757 C   0  0  1  0  0  0  0  0  0  0  0  0
  -24.6217  -21.6535   23.3430 C   0  0  2  0  0  0  0  0  0  0  0  0
  -21.6938  -18.4084   21.7814 C   0  0  0  0  0  0  0  0  0  0  0  0
  -23.3624  -29.3304   23.3357 N   0  0  0  0  0  0  0  0  0  0  0  0
  -29.1137  -24.5504   19.4784 N   0  0  0  0  0  0  0  0  0  0  0  0
  -22.7414  -28.4463   24.1350 N   0  0  0  0  0  0  0  0  0  0  0  0
  -25.0242  -16.7122   22.2528 N   0  0  0  0  0  0  0  0  0  0  0  0
  -22.5733  -27.2433   21.0348 N   0  0  0  0  0  0  0  0  0  0  0  0
  -24.7678  -27.4287   20.0948 N   0  0  0  0  0  0  0  0  0  0  0  0
  -22.1492  -28.0299   26.3903 N   0  0  0  0  0  0  0  0  0  0  0  0
  -24.3244  -31.9823   26.5969 N   0  0  0  0  0  0  0  0  0  0  0  0
  -24.9000  -13.1632   21.9071 N   0  0  0  0  0  0  0  0  0  0  0  0
  -23.7392  -19.4872   22.8093 N   0  0  0  0  0  0  0  0  0  0  0  0
  -25.7251  -22.5078   22.8200 N   0  3  0  0  0  0  0  0  0  0  0  0
  -31.5133  -20.8116   19.8613 N   0  3  0  0  0  0  0  0  0  0  0  0
  -23.2512  -30.3805   27.8384 O   0  0  0  0  0  0  0  0  0  0  0  0
  -25.2983  -14.8683   20.3721 O   0  0  0  0  0  0  0  0  0  0  0  0
  -22.9984  -16.5109   23.3894 O   0  0  0  0  0  0  0  0  0  0  0  0
  -24.1365  -20.9750   21.0755 O   0  0  0  0  0  0  0  0  0  0  0  0
  -23.1204  -28.9557   19.5867 O   0  0  0  0  0  0  0  0  0  0  0  0
  -26.5490  -34.7457   22.3015 O   0  0  0  0  0  0  0  0  0  0  0  0
  -30.4057  -18.2035   19.6111 O   0  0  0  0  0  0  0  0  0  1  0  0
  -28.7660  -26.4352   20.7867 O   0  0  0  0  0  0  0  0  0  0  0  0
  -25.0196  -39.6979   24.1833 F   0  0  0  0  0  0  0  0  0  0  0  0
  -25.6629  -36.7095   20.5692 F   0  0  0  0  0  0  0  0  0  0  0  0
  1  2  1  0  0  0  0
  1  5  2  0  0  0  0
  2  6  2  0  0  0  0
  3  9  2  0  0  0  0
  3 17  1  0  0  0  0
  4 10  1  0  0  0  0
  4 17  2  0  0  0  0
  5 19  1  0  0  0  0
  6 21  1  0  0  0  0
  7 11  2  0  0  0  0
  7 20  1  0  0  0  0
  8 14  2  0  0  0  0
  8 23  1  0  0  0  0
  9 24  1  0  0  0  0
 10 24  2  0  0  0  0
 11 25  1  0  0  0  0
 12 13  2  0  0  0  0
 12 26  1  0  0  0  0
 13 27  1  0  0  0  0
 14 31  1  0  0  0  0
 15 22  1  0  0  0  0
 15 25  2  0  0  0  0
 16 27  2  0  0  0  0
 16 28  1  0  0  0  0
 17 29  1  0  0  0  0
 18 29  1  0  0  0  0
 18 32  2  0  0  0  0
 18 33  1  0  0  0  0
 19 21  2  0  0  0  0
 19 38  1  0  0  0  0
 20 22  2  0  0  0  0
 20 39  1  0  0  0  0
 21 51  1  0  0  0  0
 22 40  1  0  0  0  0
 23 30  2  0  0  0  0
 23 61  1  0  0  0  0
 24 84  1  0  0  0  0
 25 85  1  0  0  0  0
 26 28  2  0  0  0  0
 26 84  1  0  0  0  0
 27 87  1  0  0  0  0
 28 88  1  0  0  0  0
 29 67  2  0  0  0  0
 30 55  1  0  0  0  0
 30 68  1  0  0  0  0
 31 68  2  0  0  0  0
 31 86  1  0  0  0  0
 32 69  1  0  0  0  0
 32 73  1  0  0  0  0
 33 74  1  0  0  0  0
 33 79  2  0  0  0  0
 34 52  1  0  0  0  0
 34 75  1  0  0  0  0
 34 80  2  0  0  0  0
 35 64  1  0  0  0  0
 35 70  1  0  0  0  0
 35 81  2  0  0  0  0
 36 65  1  0  0  0  0
 36 76  1  0  0  0  0
 36 82  2  0  0  0  0
 37 71  1  0  0  0  0
 37 72  1  0  0  0  0
 37 83  2  0  0  0  0
 38 41  1  0  0  0  0
 39 52  1  0  0  0  0
 40 70  1  0  0  0  0
 41 43  1  0  0  0  0
 42 44  1  0  0  0  0
 42 47  1  0  0  0  0
 43 51  1  0  0  0  0
 44 53  1  0  0  0  0
 45 48  1  0  0  0  0
 45 54  1  0  0  0  0
 46 49  1  0  0  0  0
 46 54  1  0  0  0  0
 47 71  1  0  0  0  0
 48 72  1  0  0  0  0
 49 72  1  0  0  0  0
 50 53  1  0  0  0  0
 50 71  1  0  0  0  0
 51 75  1  0  0  0  0
 52 70  1  0  0  0  0
 53 69  1  0  0  0  0
 54 86  1  0  0  0  0
 56 65  1  0  0  0  0
 57 66  1  0  0  0  0
 58 66  1  0  0  0  0
 59 66  1  0  0  0  0
 60 77  1  0  0  0  0
 61 78  1  0  0  0  0
 62 63  1  0  0  0  0
 62 78  1  0  0  0  0
 63 85  1  0  0  0  0
 64 66  1  0  0  0  0
 64 76  1  0  0  0  0
 65 77  1  0  0  0  0
 67 69  1  0  0  0  0
M  CHG  2  77   1  78   1
M  ISO  4  37 100  63 101  72 100  85 101
M  END
> <Batch ID>
0193

> <Smiles>
CNC(C)C(=O)NC(C(=O)N1Cc2cc([101O:1][101CH2:1]CNCc3ccc(OC4CC[100N:0]([100C:0](=O)N5CCCC(n6nc(-c7ccc(Oc8ccc(F)cc8F)cc7)c(C(N)=O)c6N)C5)CC4)nc3C)ccc2CC1C(=O)NC1CCCc2ccccc21)C(C)(C)C

> <Shape>
0.253

> <Color>
0.075

> <Negative vol penalty>
0.000

$$$$

  -OEChem-04052323323D

 86 95  0     1  0  0  0  0  0999 V2000
  -20.6098  -33.6446   15.5282 C   0  0  0  0  0  0  0  0  0  0  0  0
  -21.6546  -32.7266   15.5625 C   0  0  0  0  0  0  0  0  0  0  0  0
  -24.3458   -9.3283   21.5639 C   0  0  0  0  0  0  0  0  0  0  0  0
  -22.4014  -10.3258   20.5335 C   0  0  0  0  0  0  0  0  0  0  0  0
  -20.4611  -34.5686   16.5617 C   0  0  0  0  0  0  0  0  0  0  0  0
  -22.5519  -32.7327   16.6298 C   0  0  0  0  0  0  0  0  0  0  0  0
  -25.3047  -27.8788   19.1532 C   0  0  0  0  0  0  0  0  0  0  0  0
  -23.5193   -8.6079   22.4261 C   0  0  0  0  0  0  0  0  0  0  0  0
  -21.5749   -9.6054   21.3958 C   0  0  0  0  0  0  0  0  0  0  0  0
  -26.5749  -27.3288   18.9861 C   0  0  0  0  0  0  0  0  0  0  0  0
  -21.9088   -6.2329   24.6579 C   0  0  0  0  0  0  0  0  0  0  0  0
  -22.1977   -4.8827   24.8558 C   0  0  0  0  0  0  0  0  0  0  0  0
  -27.3494  -28.5449   20.9201 C   0  0  0  0  0  0  0  0  0  0  0  0
  -21.8950   -4.4718   22.4943 C   0  0  0  0  0  0  0  0  0  0  0  0
  -23.7869  -10.1873   20.6176 C   0  0  0  0  0  0  0  0  0  0  0  0
  -25.1047  -10.5300   18.4604 C   0  0  0  0  0  0  0  0  0  0  0  0
  -21.3513  -34.5798   17.6470 C   0  0  0  0  0  0  0  0  0  0  0  0
  -25.0497  -28.7760   20.2003 C   0  0  0  0  0  0  0  0  0  0  0  0
  -22.4157  -33.6586   17.6781 C   0  0  0  0  0  0  0  0  0  0  0  0
  -26.0744  -29.1029   21.0999 C   0  0  0  0  0  0  0  0  0  0  0  0
  -29.7609  -24.4593   20.4686 C   0  0  0  0  0  0  0  0  0  0  0  0
  -22.1339   -8.7464   22.3421 C   0  0  0  0  0  0  0  0  0  0  0  0
  -27.5982  -27.6641   19.8678 C   0  0  0  0  0  0  0  0  0  0  0  0
  -21.6129   -6.7025   23.3782 C   0  0  0  0  0  0  0  0  0  0  0  0
  -22.1908   -4.0022   23.7740 C   0  0  0  0  0  0  0  0  0  0  0  0
  -21.6060   -5.8220   22.2964 C   0  0  0  0  0  0  0  0  0  0  0  0
  -24.6401  -10.9322   19.7269 C   0  0  0  0  0  0  0  0  0  0  0  0
  -29.1158  -23.7800   21.4819 C   0  0  0  0  0  0  0  0  0  0  0  0
  -29.6521  -23.9004   19.2116 C   0  0  0  0  0  0  0  0  0  0  0  0
  -25.8734  -11.5823   18.0265 C   0  0  0  0  0  0  0  0  0  0  0  0
  -28.3834  -22.1978   20.0233 C   0  0  0  0  0  0  0  0  0  0  0  0
  -24.8630   -9.3139   17.7403 C   0  0  0  0  0  0  0  0  0  0  0  0
  -24.1394  -31.8163   20.3777 C   0  0  0  0  0  0  0  0  0  0  0  0
  -24.0147  -31.1875   23.5575 C   0  0  0  0  0  0  0  0  0  0  0  0
  -25.0822  -29.2789   26.1775 C   0  0  0  0  0  0  0  0  0  0  0  0
  -25.8467  -17.2687   19.0718 C   0  0  0  0  0  0  0  0  0  0  0  0
  -21.1781  -35.6283   18.7172 C   0  0  0  0  0  0  0  0  0  0  0  0
  -23.6673  -29.3398   20.3829 C   0  0  0  0  0  0  0  0  0  0  0  0
  -25.8471  -30.0455   22.2524 C   0  0  0  0  0  0  0  0  0  0  0  0
  -21.9504  -35.3243   19.9984 C   0  0  0  0  0  0  0  0  0  0  0  0
  -28.5961  -15.1594   19.6473 C   0  0  0  0  0  0  0  0  0  0  0  0
  -23.3788  -34.8996   19.6727 C   0  0  0  0  0  0  0  0  0  0  0  0
  -27.9350  -13.7818   19.6107 C   0  0  0  0  0  0  0  0  0  0  0  0
  -27.7325  -16.1902   20.3760 C   0  0  0  0  0  0  0  0  0  0  0  0
  -27.5897  -20.4782   18.4293 C   0  0  0  0  0  0  0  0  0  0  0  0
  -27.5719  -20.0481   20.8912 C   0  0  0  0  0  0  0  0  0  0  0  0
  -26.3982  -19.5368   18.2748 C   0  0  0  0  0  0  0  0  0  0  0  0
  -26.3742  -19.1254   20.6949 C   0  0  0  0  0  0  0  0  0  0  0  0
  -25.6889  -14.9124   19.8204 C   0  0  0  0  0  0  0  0  0  0  0  0
  -23.3949  -33.6177   18.8312 C   0  0  1  0  0  0  0  0  0  0  0  0
  -23.6531  -30.6415   21.1783 C   0  0  1  0  0  0  0  0  0  0  0  0
  -26.5070  -13.8693   19.0434 C   0  0  2  0  0  0  0  0  0  0  0  0
  -29.1638  -24.2903   22.8846 C   0  0  0  0  0  0  0  0  0  0  0  0
  -30.3081  -24.5478   18.0366 C   0  0  0  0  0  0  0  0  0  0  0  0
  -24.8341  -29.0283   28.6621 C   0  0  0  0  0  0  0  0  0  0  0  0
  -25.8248  -33.6072   23.9799 C   0  0  0  0  0  0  0  0  0  0  0  0
  -26.3041  -32.7586   26.2860 C   0  0  0  0  0  0  0  0  0  0  0  0
  -23.9751  -33.3843   25.6482 C   0  0  0  0  0  0  0  0  0  0  0  0
  -23.9859  -26.5430   25.9089 C   0  0  0  0  0  0  0  0  0  0  0  0
  -30.5243  -25.7119   20.7154 C   0  0  0  0  0  0  0  0  0  0  0  0
  -29.6243  -26.9420   20.8824 C   0  0  0  0  0  0  0  0  0  1  0  0
  -24.9940  -31.2722   24.7033 C   0  0  1  0  0  0  0  0  0  0  0  0
  -24.3232  -28.5913   27.2980 C   0  0  2  0  0  0  0  0  0  0  0  0
  -25.2796  -32.7393   25.1316 C   0  0  0  0  0  0  0  0  0  0  0  0
  -25.0773  -12.1453   20.0752 N   0  0  0  0  0  0  0  0  0  0  0  0
  -28.4154  -22.6422   21.2941 N   0  0  0  0  0  0  0  0  0  0  0  0
  -28.9688  -22.7663   18.9520 N   0  0  0  0  0  0  0  0  0  0  0  0
  -25.8247  -12.5144   19.0211 N   0  0  0  0  0  0  0  0  0  0  0  0
  -27.6651  -21.0179   19.7912 N   0  0  0  0  0  0  0  0  0  0  0  0
  -24.4800  -30.5755   22.3851 N   0  0  0  0  0  0  0  0  0  0  0  0
  -26.3698  -16.2089   19.8276 N   0  0  0  0  0  0  0  0  0  0  0  0
  -26.3454  -18.5514   19.3480 N   0  0  0  0  0  0  0  0  0  0  0  0
  -26.5796  -11.7920   16.8953 N   0  0  0  0  0  0  0  0  0  0  0  0
  -24.0496   -8.3377   18.3318 N   0  0  0  0  0  0  0  0  0  0  0  0
  -23.1463  -32.4620   19.6661 N   0  0  0  0  0  0  0  0  0  0  0  0
  -24.4512  -30.4341   25.7670 N   0  0  0  0  0  0  0  0  0  0  0  0
  -24.4713  -27.1121   27.1925 N   0  3  0  0  0  0  0  0  0  0  0  0
  -25.3670   -9.0926   16.6132 O   0  0  0  0  0  0  0  0  0  0  0  0
  -25.3274  -32.1157   20.4048 O   0  0  0  0  0  0  0  0  0  0  0  0
  -22.8764  -31.6411   23.7001 O   0  0  0  0  0  0  0  0  0  0  0  0
  -26.1320  -28.8374   25.7154 O   0  0  0  0  0  0  0  0  0  0  0  0
  -24.9884  -17.0821   18.2003 O   0  0  0  0  0  0  0  0  0  0  0  0
  -21.3271   -8.0434   23.1832 O   0  0  0  0  0  0  0  0  0  0  0  0
  -28.8478  -27.1255   19.7054 O   0  0  0  0  0  0  0  0  0  1  0  0
  -22.4698   -2.7059   23.9640 F   0  0  0  0  0  0  0  0  0  0  0  0
  -21.3237   -6.2675   21.0645 F   0  0  0  0  0  0  0  0  0  0  0  0
  1  2  1  0  0  0  0
  1  5  2  0  0  0  0
  2  6  2  0  0  0  0
  3  8  2  0  0  0  0
  3 15  1  0  0  0  0
  4  9  1  0  0  0  0
  4 15  2  0  0  0  0
  5 17  1  0  0  0  0
  6 19  1  0  0  0  0
  7 10  2  0  0  0  0
  7 18  1  0  0  0  0
  8 22  1  0  0  0  0
  9 22  2  0  0  0  0
 10 23  1  0  0  0  0
 11 12  2  0  0  0  0
 11 24  1  0  0  0  0
 12 25  1  0  0  0  0
 13 20  1  0  0  0  0
 13 23  2  0  0  0  0
 14 25  2  0  0  0  0
 14 26  1  0  0  0  0
 15 27  1  0  0  0  0
 16 27  1  0  0  0  0
 16 30  2  0  0  0  0
 16 32  1  0  0  0  0
 17 19  2  0  0  0  0
 17 37  1  0  0  0  0
 18 20  2  0  0  0  0
 18 38  1  0  0  0  0
 19 50  1  0  0  0  0
 20 39  1  0  0  0  0
 21 28  1  0  0  0  0
 21 29  2  0  0  0  0
 21 60  1  0  0  0  0
 22 83  1  0  0  0  0
 23 84  1  0  0  0  0
 24 26  2  0  0  0  0
 24 83  1  0  0  0  0
 25 85  1  0  0  0  0
 26 86  1  0  0  0  0
 27 65  2  0  0  0  0
 28 53  1  0  0  0  0
 28 66  2  0  0  0  0
 29 54  1  0  0  0  0
 29 67  1  0  0  0  0
 30 68  1  0  0  0  0
 30 73  1  0  0  0  0
 31 66  1  0  0  0  0
 31 67  2  0  0  0  0
 31 69  1  0  0  0  0
 32 74  1  0  0  0  0
 32 78  2  0  0  0  0
 33 51  1  0  0  0  0
 33 75  1  0  0  0  0
 33 79  2  0  0  0  0
 34 62  1  0  0  0  0
 34 70  1  0  0  0  0
 34 80  2  0  0  0  0
 35 63  1  0  0  0  0
 35 76  1  0  0  0  0
 35 81  2  0  0  0  0
 36 71  1  0  0  0  0
 36 72  1  0  0  0  0
 36 82  2  0  0  0  0
 37 40  1  0  0  0  0
 38 51  1  0  0  0  0
 39 70  1  0  0  0  0
 40 42  1  0  0  0  0
 41 43  1  0  0  0  0
 41 44  1  0  0  0  0
 42 50  1  0  0  0  0
 43 52  1  0  0  0  0
 44 71  1  0  0  0  0
 45 47  1  0  0  0  0
 45 69  1  0  0  0  0
 46 48  1  0  0  0  0
 46 69  1  0  0  0  0
 47 72  1  0  0  0  0
 48 72  1  0  0  0  0
 49 52  1  0  0  0  0
 49 71  1  0  0  0  0
 50 75  1  0  0  0  0
 51 70  1  0  0  0  0
 52 68  1  0  0  0  0
 55 63  1  0  0  0  0
 56 64  1  0  0  0  0
 57 64  1  0  0  0  0
 58 64  1  0  0  0  0
 59 77  1  0  0  0  0
 60 61  1  0  0  0  0
 61 84  1  0  0  0  0
 62 64  1  0  0  0  0
 62 76  1  0  0  0  0
 63 77  1  0  0  0  0
 65 68  1  0  0  0  0
M  CHG  1  77   1
M  ISO  4  36 100  61 101  72 100  84 101
M  END
> <Batch ID>
0193

> <Smiles>
CNC(C)C(=O)NC(C(=O)N1Cc2cc([101O:1][101CH2:1]Cc3c(C)nc(N4CC[100N:0]([100C:0](=O)N5CCCC(n6nc(-c7ccc(Oc8ccc(F)cc8F)cc7)c(C(N)=O)c6N)C5)CC4)nc3C)ccc2CC1C(=O)NC1CCCc2ccccc21)C(C)(C)C

> <Shape>
0.292

> <Color>
0.118

> <Negative vol penalty>
0.000

$$$$

  -OEChem-04052323323D

 84 93  0     1  0  0  0  0  0999 V2000
  -26.6879  -24.4822   16.8058 C   0  0  0  0  0  0  0  0  0  0  0  0
  -25.5739  -24.8786   17.5388 C   0  0  0  0  0  0  0  0  0  0  0  0
  -28.7717  -17.9305   22.2630 C   0  0  0  0  0  0  0  0  0  0  0  0
  -28.2480  -18.7172   20.0396 C   0  0  0  0  0  0  0  0  0  0  0  0
  -27.9683  -24.7853   17.2670 C   0  0  0  0  0  0  0  0  0  0  0  0
  -25.7397  -25.5773   18.7341 C   0  0  0  0  0  0  0  0  0  0  0  0
  -22.5963  -29.5282   19.1268 C   0  0  0  0  0  0  0  0  0  0  0  0
  -29.6793  -17.0175   21.7263 C   0  0  0  0  0  0  0  0  0  0  0  0
  -29.1558  -17.8043   19.5027 C   0  0  0  0  0  0  0  0  0  0  0  0
  -21.2741  -29.2576   19.4768 C   0  0  0  0  0  0  0  0  0  0  0  0
  -29.5722  -14.0037   20.1998 C   0  0  0  0  0  0  0  0  0  0  0  0
  -29.5463  -12.6992   20.6928 C   0  0  0  0  0  0  0  0  0  0  0  0
  -21.7550  -29.8859   21.7556 C   0  0  0  0  0  0  0  0  0  0  0  0
  -31.8428  -12.9242   21.4088 C   0  0  0  0  0  0  0  0  0  0  0  0
  -17.7270  -26.3748   22.2879 C   0  0  0  0  0  0  0  0  0  0  0  0
  -28.0560  -18.7803   21.4197 C   0  0  0  0  0  0  0  0  0  0  0  0
  -27.3806  -21.0454   22.3793 C   0  0  0  0  0  0  0  0  0  0  0  0
  -28.1496  -25.4965   18.4636 C   0  0  0  0  0  0  0  0  0  0  0  0
  -23.5120  -29.9700   20.0926 C   0  0  0  0  0  0  0  0  0  0  0  0
  -27.0237  -25.8890   19.2124 C   0  0  0  0  0  0  0  0  0  0  0  0
  -23.0876  -30.1639   21.4148 C   0  0  0  0  0  0  0  0  0  0  0  0
  -18.6890  -25.3877   22.3547 C   0  0  0  0  0  0  0  0  0  0  0  0
  -29.8714  -16.9544   20.3461 C   0  0  0  0  0  0  0  0  0  0  0  0
  -20.8540  -29.4337   20.7919 C   0  0  0  0  0  0  0  0  0  0  0  0
  -30.7334  -14.7685   20.3112 C   0  0  0  0  0  0  0  0  0  0  0  0
  -30.6816  -12.1594   21.2973 C   0  0  0  0  0  0  0  0  0  0  0  0
  -31.8687  -14.2288   20.9157 C   0  0  0  0  0  0  0  0  0  0  0  0
  -27.1178  -19.7233   21.9735 C   0  0  0  0  0  0  0  0  0  0  0  0
  -19.9620  -25.7684   21.9820 C   0  0  0  0  0  0  0  0  0  0  0  0
  -26.1702  -21.5136   22.8291 C   0  0  0  0  0  0  0  0  0  0  0  0
  -19.2571  -27.8862   21.5519 C   0  0  0  0  0  0  0  0  0  1  0  0
  -28.6089  -21.7844   22.3520 C   0  0  0  0  0  0  0  0  0  0  0  0
  -26.2251  -28.8333   21.2971 C   0  0  0  0  0  0  0  0  0  0  0  0
  -26.2993  -31.7010   22.8115 C   0  0  0  0  0  0  0  0  0  0  0  0
  -24.5742  -34.3949   24.0005 C   0  0  0  0  0  0  0  0  0  0  0  0
  -20.6161  -19.8071   21.4535 C   0  0  0  0  0  0  0  0  0  0  0  0
  -29.5542  -25.7597   18.9460 C   0  0  0  0  0  0  0  0  0  0  0  0
  -24.9280  -30.2831   19.6934 C   0  0  0  0  0  0  0  0  0  0  0  0
  -24.0264  -30.6556   22.4850 C   0  0  0  0  0  0  0  0  0  0  0  0
  -29.6349  -26.8302   20.0312 C   0  0  0  0  0  0  0  0  0  0  0  0
  -22.0767  -20.0258   24.8062 C   0  0  0  0  0  0  0  0  0  0  0  0
  -28.5720  -26.5896   21.0986 C   0  0  0  0  0  0  0  0  0  0  0  0
  -23.5711  -20.0777   24.4842 C   0  0  0  0  0  0  0  0  0  0  0  0
  -21.3345  -19.1421   23.8109 C   0  0  0  0  0  0  0  0  0  0  0  0
  -23.0021  -19.5877   22.0563 C   0  0  0  0  0  0  0  0  0  0  0  0
  -18.2326  -20.5993   21.0131 C   0  0  0  0  0  0  0  0  0  0  0  0
  -18.8708  -20.9724   23.0153 C   0  0  0  0  0  0  0  0  0  0  0  0
  -27.1621  -26.6702   20.5011 C   0  0  1  0  0  0  0  0  0  0  0  0
  -25.9035  -30.2362   20.8654 C   0  0  1  0  0  0  0  0  0  0  0  0
  -23.8127  -20.4774   23.0169 C   0  0  2  0  0  0  0  0  0  0  0  0
  -17.8758  -21.6536   22.0664 C   0  0  0  0  0  0  0  0  0  0  0  0
  -22.4474  -25.4540   21.8792 C   0  0  0  0  0  0  0  0  0  0  0  0
  -24.9031  -36.5608   25.2245 C   0  0  0  0  0  0  0  0  0  0  0  0
  -26.6268  -30.1688   25.4297 C   0  0  0  0  0  0  0  0  0  0  0  0
  -26.0000  -32.2619   26.6521 C   0  0  0  0  0  0  0  0  0  0  0  0
  -28.0512  -32.2150   25.2333 C   0  0  0  0  0  0  0  0  0  0  0  0
  -23.5302  -35.9733   21.7251 C   0  0  0  0  0  0  0  0  0  0  0  0
  -18.3465  -23.9983   22.8056 C   0  0  0  0  0  0  0  0  0  0  0  0
  -21.0835  -24.7832   22.0139 C   0  0  0  0  0  0  0  0  0  0  0  0
  -25.7783  -32.2295   24.1261 C   0  0  1  0  0  0  0  0  0  0  0  0
  -24.8175  -35.8871   23.8638 C   0  0  2  0  0  0  0  0  0  0  0  0
  -26.5966  -31.7077   25.3408 C   0  0  0  0  0  0  0  0  0  0  0  0
  -17.9770  -27.6394   21.8896 N   0  0  0  0  0  0  0  0  0  0  0  0
  -25.8407  -19.3739   22.1501 N   0  0  0  0  0  0  0  0  0  0  0  0
  -20.2827  -27.0137   21.5739 N   0  0  0  0  0  0  0  0  0  0  0  0
  -25.2903  -20.4834   22.6719 N   0  0  0  0  0  0  0  0  0  0  0  0
  -25.4023  -30.9420   22.0465 N   0  0  0  0  0  0  0  0  0  0  0  0
  -21.5851  -19.5808   22.4346 N   0  0  0  0  0  0  0  0  0  0  0  0
  -19.3801  -20.2616   21.8517 N   0  0  0  0  0  0  0  0  0  0  0  0
  -25.7833  -22.7018   23.3398 N   0  0  0  0  0  0  0  0  0  0  0  0
  -29.7582  -21.1520   21.8584 N   0  0  0  0  0  0  0  0  0  0  0  0
  -26.7762  -28.0505   20.3006 N   0  0  0  0  0  0  0  0  0  0  0  0
  -25.7550  -33.6829   24.0013 N   0  0  0  0  0  0  0  0  0  0  0  0
  -18.2881  -23.0151   21.6808 N   0  3  0  0  0  0  0  0  0  0  0  0
  -23.7123  -36.5236   23.0929 N   0  3  0  0  0  0  0  0  0  0  0  0
  -28.6887  -22.9649   22.7686 O   0  0  0  0  0  0  0  0  0  0  0  0
  -25.9919  -28.4873   22.4493 O   0  0  0  0  0  0  0  0  0  0  0  0
  -27.4571  -31.9582   22.4725 O   0  0  0  0  0  0  0  0  0  0  0  0
  -23.4494  -33.9098   24.1006 O   0  0  0  0  0  0  0  0  0  0  0  0
  -20.8554  -19.6406   20.2501 O   0  0  0  0  0  0  0  0  0  0  0  0
  -30.7572  -16.0638   19.8220 O   0  0  0  0  0  0  0  0  0  0  0  0
  -19.5479  -29.1663   21.1407 O   0  0  0  0  0  0  0  0  0  1  0  0
  -30.6562  -10.9072   21.7721 F   0  0  0  0  0  0  0  0  0  0  0  0
  -32.9868  -14.9591   21.0267 F   0  0  0  0  0  0  0  0  0  0  0  0
  1  2  1  0  0  0  0
  1  5  2  0  0  0  0
  2  6  2  0  0  0  0
  3  8  2  0  0  0  0
  3 16  1  0  0  0  0
  4  9  1  0  0  0  0
  4 16  2  0  0  0  0
  5 18  1  0  0  0  0
  6 20  1  0  0  0  0
  7 10  2  0  0  0  0
  7 19  1  0  0  0  0
  8 23  1  0  0  0  0
  9 23  2  0  0  0  0
 10 24  1  0  0  0  0
 11 12  2  0  0  0  0
 11 25  1  0  0  0  0
 12 26  1  0  0  0  0
 13 21  1  0  0  0  0
 13 24  2  0  0  0  0
 14 26  2  0  0  0  0
 14 27  1  0  0  0  0
 15 22  1  0  0  0  0
 15 63  2  0  0  0  0
 16 28  1  0  0  0  0
 17 28  1  0  0  0  0
 17 30  2  0  0  0  0
 17 32  1  0  0  0  0
 18 20  2  0  0  0  0
 18 37  1  0  0  0  0
 19 21  2  0  0  0  0
 19 38  1  0  0  0  0
 20 48  1  0  0  0  0
 21 39  1  0  0  0  0
 22 29  2  0  0  0  0
 22 58  1  0  0  0  0
 23 81  1  0  0  0  0
 24 82  1  0  0  0  0
 25 27  2  0  0  0  0
 25 81  1  0  0  0  0
 26 83  1  0  0  0  0
 27 84  1  0  0  0  0
 28 64  2  0  0  0  0
 29 59  1  0  0  0  0
 29 65  1  0  0  0  0
 30 66  1  0  0  0  0
 30 70  1  0  0  0  0
 31 63  1  0  0  0  0
 31 65  2  0  0  0  0
 31 82  1  0  0  0  0
 32 71  1  0  0  0  0
 32 76  2  0  0  0  0
 33 49  1  0  0  0  0
 33 72  1  0  0  0  0
 33 77  2  0  0  0  0
 34 60  1  0  0  0  0
 34 67  1  0  0  0  0
 34 78  2  0  0  0  0
 35 61  1  0  0  0  0
 35 73  1  0  0  0  0
 35 79  2  0  0  0  0
 36 68  1  0  0  0  0
 36 69  1  0  0  0  0
 36 80  2  0  0  0  0
 37 40  1  0  0  0  0
 38 49  1  0  0  0  0
 39 67  1  0  0  0  0
 40 42  1  0  0  0  0
 41 43  1  0  0  0  0
 41 44  1  0  0  0  0
 42 48  1  0  0  0  0
 43 50  1  0  0  0  0
 44 68  1  0  0  0  0
 45 50  1  0  0  0  0
 45 68  1  0  0  0  0
 46 51  1  0  0  0  0
 46 69  1  0  0  0  0
 47 51  1  0  0  0  0
 47 69  1  0  0  0  0
 48 72  1  0  0  0  0
 49 67  1  0  0  0  0
 50 66  1  0  0  0  0
 51 74  1  0  0  0  0
 52 59  1  0  0  0  0
 53 61  1  0  0  0  0
 54 62  1  0  0  0  0
 55 62  1  0  0  0  0
 56 62  1  0  0  0  0
 57 75  1  0  0  0  0
 58 74  1  0  0  0  0
 60 62  1  0  0  0  0
 60 73  1  0  0  0  0
 61 75  1  0  0  0  0
 64 66  1  0  0  0  0
M  CHG  2  74   1  75   1
M  ISO  4  31 101  36 100  69 100  82 101
M  END
> <Batch ID>
0193

> <Smiles>
CCc1n[101c:1]([101O:1]c2ccc3c(c2)CN(C(=O)C(NC(=O)C(C)NC)C(C)(C)C)C(C(=O)NC2CCCc4ccccc42)C3)ncc1CNC1C[100N:0]([100C:0](=O)N2CCCC(n3nc(-c4ccc(Oc5ccc(F)cc5F)cc4)c(C(N)=O)c3N)C2)C1

> <Shape>
0.291

> <Color>
0.054

> <Negative vol penalty>
0.000

$$$$

  -OEChem-04052323323D

 87 96  0     1  0  0  0  0  0999 V2000
  -28.9634  -35.0843   27.3283 C   0  0  0  0  0  0  0  0  0  0  0  0
  -29.4920  -34.6464   26.1183 C   0  0  0  0  0  0  0  0  0  0  0  0
  -30.5695  -18.3401   20.8035 C   0  0  0  0  0  0  0  0  0  0  0  0
  -29.0529  -17.6720   19.0455 C   0  0  0  0  0  0  0  0  0  0  0  0
  -28.0417  -34.2927   28.0123 C   0  0  0  0  0  0  0  0  0  0  0  0
  -29.1001  -33.4161   25.5920 C   0  0  0  0  0  0  0  0  0  0  0  0
  -27.9631  -30.1303   19.3288 C   0  0  0  0  0  0  0  0  0  0  0  0
  -31.1569  -17.0753   20.7775 C   0  0  0  0  0  0  0  0  0  0  0  0
  -29.6403  -16.4072   19.0194 C   0  0  0  0  0  0  0  0  0  0  0  0
  -28.3243  -28.9746   18.6376 C   0  0  0  0  0  0  0  0  0  0  0  0
  -29.5028  -13.5585   20.8353 C   0  0  0  0  0  0  0  0  0  0  0  0
  -28.6556  -12.4514   20.7883 C   0  0  0  0  0  0  0  0  0  0  0  0
  -26.6655  -27.7278   19.8676 C   0  0  0  0  0  0  0  0  0  0  0  0
  -29.6522  -11.7778   18.6930 C   0  0  0  0  0  0  0  0  0  0  0  0
  -22.3458  -23.2284   14.7341 C   0  0  0  0  0  0  0  0  0  0  0  0
  -29.5174  -18.6385   19.9376 C   0  0  0  0  0  0  0  0  0  0  0  0
  -29.2859  -21.0729   19.2109 C   0  0  0  0  0  0  0  0  0  0  0  0
  -27.6310  -33.0564   27.4893 C   0  0  0  0  0  0  0  0  0  0  0  0
  -26.9562  -30.0910   20.3040 C   0  0  0  0  0  0  0  0  0  0  0  0
  -28.1730  -32.6066   26.2702 C   0  0  0  0  0  0  0  0  0  0  0  0
  -26.2916  -28.8848   20.5680 C   0  0  0  0  0  0  0  0  0  0  0  0
  -30.6924  -16.1088   19.8854 C   0  0  0  0  0  0  0  0  0  0  0  0
  -27.6775  -27.7725   18.9090 C   0  0  0  0  0  0  0  0  0  0  0  0
  -30.4246  -13.7753   19.8111 C   0  0  0  0  0  0  0  0  0  0  0  0
  -28.7304  -11.5610   19.7172 C   0  0  0  0  0  0  0  0  0  0  0  0
  -30.4993  -12.8850   18.7400 C   0  0  0  0  0  0  0  0  0  0  0  0
  -28.9098  -19.9447   19.9644 C   0  0  0  0  0  0  0  0  0  0  0  0
  -24.4505  -23.5289   13.9676 C   0  0  0  0  0  0  0  0  0  0  0  0
  -24.8632  -23.8909   15.2377 C   0  0  0  0  0  0  0  0  0  0  0  0
  -22.7602  -23.5880   16.0090 C   0  0  0  0  0  0  0  0  0  0  0  0
  -28.4049  -22.0531   19.5973 C   0  0  0  0  0  0  0  0  0  0  0  0
  -30.3376  -21.2214   18.2478 C   0  0  0  0  0  0  0  0  0  0  0  0
  -26.8372  -30.6576   23.4295 C   0  0  0  0  0  0  0  0  0  0  0  0
  -23.6527  -30.2214   22.9924 C   0  0  0  0  0  0  0  0  0  0  0  0
  -21.1453  -28.8509   21.1264 C   0  0  0  0  0  0  0  0  0  0  0  0
  -22.8745  -21.8931   21.8866 C   0  0  0  0  0  0  0  0  0  0  0  0
  -26.6680  -32.2142   28.2881 C   0  0  0  0  0  0  0  0  0  0  0  0
  -26.5598  -31.3520   21.0218 C   0  0  0  0  0  0  0  0  0  0  0  0
  -25.1901  -28.7938   21.5911 C   0  0  0  0  0  0  0  0  0  0  0  0
  -25.5978  -23.5316   13.0011 C   0  0  0  0  0  0  0  0  0  0  0  0
  -26.0217  -31.0936   27.4775 C   0  0  0  0  0  0  0  0  0  0  0  0
  -26.6111  -24.4051   13.7634 C   0  0  0  0  0  0  0  0  0  0  0  0
  -25.7425  -23.4378   23.3236 C   0  0  0  0  0  0  0  0  0  0  0  0
  -27.0736  -30.3514   26.6594 C   0  0  0  0  0  0  0  0  0  0  0  0
  -26.9134  -22.8195   22.5577 C   0  0  0  0  0  0  0  0  0  0  0  0
  -24.6238  -22.4251   23.5580 C   0  0  0  0  0  0  0  0  0  0  0  0
  -25.3071  -21.1301   21.5756 C   0  0  0  0  0  0  0  0  0  0  0  0
  -27.7539  -31.2892   25.6547 C   0  0  1  0  0  0  0  0  0  0  0  0
  -26.3364  -24.1651   15.2598 C   0  0  1  0  0  0  0  0  0  0  0  0
  -25.8746  -31.0881   22.3590 C   0  0  1  0  0  0  0  0  0  0  0  0
  -26.4362  -22.1281   21.2664 C   0  0  2  0  0  0  0  0  0  0  0  0
  -18.6467  -28.6344   21.0401 C   0  0  0  0  0  0  0  0  0  0  0  0
  -23.7581  -28.1429   25.2237 C   0  0  0  0  0  0  0  0  0  0  0  0
  -21.5263  -27.3074   24.4560 C   0  0  0  0  0  0  0  0  0  0  0  0
  -21.7605  -29.6460   25.2918 C   0  0  0  0  0  0  0  0  0  0  0  0
  -20.9998  -30.2325   18.5132 C   0  0  0  0  0  0  0  0  0  0  0  0
  -21.7823  -23.6117   17.1329 C   0  0  0  0  0  0  0  0  0  0  0  0
  -21.2391  -21.2953   20.1183 C   0  0  0  0  0  0  0  0  0  0  0  0
  -20.9962  -22.4982   19.2260 C   0  0  0  0  0  0  0  0  0  0  0  0
  -28.2222  -25.5559   16.1001 C   0  0  0  0  0  0  0  0  0  0  0  0
  -28.5189  -26.8051   16.9060 C   0  0  0  0  0  0  0  0  0  1  0  0
  -22.7205  -29.0346   23.0342 C   0  0  1  0  0  0  0  0  0  0  0  0
  -19.8544  -29.4395   20.5864 C   0  0  2  0  0  0  0  0  0  0  0  0
  -22.4634  -28.5337   24.4835 C   0  0  0  0  0  0  0  0  0  0  0  0
  -23.1890  -23.1853   13.6786 N   0  0  0  0  0  0  0  0  0  0  0  0
  -27.8709  -20.1848   20.7687 N   0  0  0  0  0  0  0  0  0  0  0  0
  -24.0385  -23.9232   16.2925 N   0  0  0  0  0  0  0  0  0  0  0  0
  -27.5867  -21.4752   20.5230 N   0  0  0  0  0  0  0  0  0  0  0  0
  -24.8429  -30.0527   22.2709 N   0  0  0  0  0  0  0  0  0  0  0  0
  -24.2160  -21.8069   22.2941 N   0  0  0  0  0  0  0  0  0  0  0  0
  -28.2580  -23.3445   19.2323 N   0  0  0  0  0  0  0  0  0  0  0  0
  -31.1497  -20.1136   17.9691 N   0  0  0  0  0  0  0  0  0  0  0  0
  -26.8948  -31.5145   24.5120 N   0  0  0  0  0  0  0  0  0  0  0  0
  -21.5147  -29.4373   22.3184 N   0  0  0  0  0  0  0  0  0  0  0  0
  -22.5741  -21.2857   20.6735 N   0  0  0  0  0  0  0  0  0  0  0  0
  -26.7537  -25.3440   16.0473 N   0  3  0  0  0  0  0  0  0  0  0  0
  -19.8759  -29.4554   19.0964 N   0  3  0  0  0  0  0  0  0  0  0  0
  -21.9260  -22.4607   18.0676 N   0  3  0  0  0  0  0  0  0  0  0  0
  -30.5612  -22.3089   17.6640 O   0  0  0  0  0  0  0  0  0  0  0  0
  -27.4789  -29.6237   23.2847 O   0  0  0  0  0  0  0  0  0  0  0  0
  -23.3331  -31.2621   23.5724 O   0  0  0  0  0  0  0  0  0  0  0  0
  -21.7622  -27.9574   20.5505 O   0  0  0  0  0  0  0  0  0  0  0  0
  -22.0098  -22.4732   22.5519 O   0  0  0  0  0  0  0  0  0  0  0  0
  -31.2655  -14.8745   19.8596 O   0  0  0  0  0  0  0  0  0  0  0  0
  -28.0286  -26.6429   18.2363 O   0  0  0  0  0  0  0  0  0  1  0  0
  -27.9178  -10.4970   19.6729 F   0  0  0  0  0  0  0  0  0  0  0  0
  -31.3837  -13.0874   17.7537 F   0  0  0  0  0  0  0  0  0  0  0  0
  1  2  1  0  0  0  0
  1  5  2  0  0  0  0
  2  6  2  0  0  0  0
  3  8  2  0  0  0  0
  3 16  1  0  0  0  0
  4  9  1  0  0  0  0
  4 16  2  0  0  0  0
  5 18  1  0  0  0  0
  6 20  1  0  0  0  0
  7 10  2  0  0  0  0
  7 19  1  0  0  0  0
  8 22  1  0  0  0  0
  9 22  2  0  0  0  0
 10 23  1  0  0  0  0
 11 12  2  0  0  0  0
 11 24  1  0  0  0  0
 12 25  1  0  0  0  0
 13 21  1  0  0  0  0
 13 23  2  0  0  0  0
 14 25  2  0  0  0  0
 14 26  1  0  0  0  0
 15 30  1  0  0  0  0
 15 65  2  0  0  0  0
 16 27  1  0  0  0  0
 17 27  1  0  0  0  0
 17 31  2  0  0  0  0
 17 32  1  0  0  0  0
 18 20  2  0  0  0  0
 18 37  1  0  0  0  0
 19 21  2  0  0  0  0
 19 38  1  0  0  0  0
 20 48  1  0  0  0  0
 21 39  1  0  0  0  0
 22 84  1  0  0  0  0
 23 85  1  0  0  0  0
 24 26  2  0  0  0  0
 24 84  1  0  0  0  0
 25 86  1  0  0  0  0
 26 87  1  0  0  0  0
 27 66  2  0  0  0  0
 28 29  2  0  0  0  0
 28 40  1  0  0  0  0
 28 65  1  0  0  0  0
 29 49  1  0  0  0  0
 29 67  1  0  0  0  0
 30 57  1  0  0  0  0
 30 67  2  0  0  0  0
 31 68  1  0  0  0  0
 31 71  1  0  0  0  0
 32 72  1  0  0  0  0
 32 79  2  0  0  0  0
 33 50  1  0  0  0  0
 33 73  1  0  0  0  0
 33 80  2  0  0  0  0
 34 62  1  0  0  0  0
 34 69  1  0  0  0  0
 34 81  2  0  0  0  0
 35 63  1  0  0  0  0
 35 74  1  0  0  0  0
 35 82  2  0  0  0  0
 36 70  1  0  0  0  0
 36 75  1  0  0  0  0
 36 83  2  0  0  0  0
 37 41  1  0  0  0  0
 38 50  1  0  0  0  0
 39 69  1  0  0  0  0
 40 42  1  0  0  0  0
 41 44  1  0  0  0  0
 42 49  1  0  0  0  0
 43 45  1  0  0  0  0
 43 46  1  0  0  0  0
 44 48  1  0  0  0  0
 45 51  1  0  0  0  0
 46 70  1  0  0  0  0
 47 51  1  0  0  0  0
 47 70  1  0  0  0  0
 48 73  1  0  0  0  0
 49 76  1  0  0  0  0
 50 69  1  0  0  0  0
 51 68  1  0  0  0  0
 52 63  1  0  0  0  0
 53 64  1  0  0  0  0
 54 64  1  0  0  0  0
 55 64  1  0  0  0  0
 56 77  1  0  0  0  0
 57 78  1  0  0  0  0
 58 59  1  0  0  0  0
 58 75  1  0  0  0  0
 59 78  1  0  0  0  0
 60 61  1  0  0  0  0
 60 76  1  0  0  0  0
 61 85  1  0  0  0  0
 62 64  1  0  0  0  0
 62 74  1  0  0  0  0
 63 77  1  0  0  0  0
 66 68  1  0  0  0  0
M  CHG  3  76   1  77   1  78   1
M  ISO  4  36 100  61 101  75 100  85 101
M  END
> <Batch ID>
0193

> <Smiles>
CNC(C)C(=O)NC(C(=O)N1Cc2cc([101O:1][101CH2:1]CNC3CCc4ncc(CNCC[100NH:0][100C:0](=O)N5CCCC(n6nc(-c7ccc(Oc8ccc(F)cc8F)cc7)c(C(N)=O)c6N)C5)nc43)ccc2CC1C(=O)NC1CCCc2ccccc21)C(C)(C)C

> <Shape>
0.233

> <Color>
0.065

> <Negative vol penalty>
0.000

$$$$

  -OEChem-04052323323D

 79 88  0     1  0  0  0  0  0999 V2000
  -23.5284   -7.9471   24.7364 C   0  0  0  0  0  0  0  0  0  0  0  0
  -24.5308   -8.8846   24.9635 C   0  0  0  0  0  0  0  0  0  0  0  0
  -25.3270  -31.0797   24.2865 C   0  0  0  0  0  0  0  0  0  0  0  0
  -25.4173  -32.9243   22.7288 C   0  0  0  0  0  0  0  0  0  0  0  0
  -22.9663   -7.8230   23.4665 C   0  0  0  0  0  0  0  0  0  0  0  0
  -24.9726   -9.6979   23.9205 C   0  0  0  0  0  0  0  0  0  0  0  0
  -27.4958  -16.2828   22.6599 C   0  0  0  0  0  0  0  0  0  0  0  0
  -25.4817  -31.9697   25.3494 C   0  0  0  0  0  0  0  0  0  0  0  0
  -25.5719  -33.8143   23.7917 C   0  0  0  0  0  0  0  0  0  0  0  0
  -28.5651  -16.9257   22.0378 C   0  0  0  0  0  0  0  0  0  0  0  0
  -23.6046  -35.2862   26.1120 C   0  0  0  0  0  0  0  0  0  0  0  0
  -22.8403  -36.4529   26.0947 C   0  0  0  0  0  0  0  0  0  0  0  0
  -27.4658  -16.6773   19.9049 C   0  0  0  0  0  0  0  0  0  0  0  0
  -24.8613  -37.7769   26.0985 C   0  0  0  0  0  0  0  0  0  0  0  0
  -25.2949  -31.5570   22.9762 C   0  0  0  0  0  0  0  0  0  0  0  0
  -23.9274  -30.2076   21.2979 C   0  0  0  0  0  0  0  0  0  0  0  0
  -23.3947   -8.6418   22.4098 C   0  0  0  0  0  0  0  0  0  0  0  0
  -26.4066  -15.8219   21.9065 C   0  0  0  0  0  0  0  0  0  0  0  0
  -24.4167   -9.5837   22.6350 C   0  0  0  0  0  0  0  0  0  0  0  0
  -26.3827  -16.0311   20.5202 C   0  0  0  0  0  0  0  0  0  0  0  0
  -25.6040  -33.3369   25.1020 C   0  0  0  0  0  0  0  0  0  0  0  0
  -28.5516  -17.1204   20.6597 C   0  0  0  0  0  0  0  0  0  0  0  0
  -24.9973  -35.3649   26.1225 C   0  0  0  0  0  0  0  0  0  0  0  0
  -23.4686  -37.6982   26.0880 C   0  0  0  0  0  0  0  0  0  0  0  0
  -25.6256  -36.6102   26.1158 C   0  0  0  0  0  0  0  0  0  0  0  0
  -25.1357  -30.6381   21.8779 C   0  0  0  0  0  0  0  0  0  0  0  0
  -24.3132  -29.3468   20.2996 C   0  0  0  0  0  0  0  0  0  0  0  0
  -22.5770  -30.5550   21.6316 C   0  0  0  0  0  0  0  0  0  0  0  0
  -25.1168  -12.9725   21.3393 C   0  0  0  0  0  0  0  0  0  0  0  0
  -22.8539  -14.7322   19.8211 C   0  0  0  0  0  0  0  0  0  0  0  0
  -22.0245  -17.6380   18.2350 C   0  0  0  0  0  0  0  0  0  0  0  0
  -27.3566  -25.0781   18.6806 C   0  0  0  0  0  0  0  0  0  0  0  0
  -22.7903   -8.4385   21.0430 C   0  0  0  0  0  0  0  0  0  0  0  0
  -25.2486  -15.1541   22.5961 C   0  0  0  0  0  0  0  0  0  0  0  0
  -25.2277  -15.5733   19.6689 C   0  0  0  0  0  0  0  0  0  0  0  0
  -23.0525   -9.5959   20.0828 C   0  0  0  0  0  0  0  0  0  0  0  0
  -28.8377  -28.4173   18.2973 C   0  0  0  0  0  0  0  0  0  0  0  0
  -24.5196  -10.0105   20.1344 C   0  0  0  0  0  0  0  0  0  0  0  0
  -27.9339  -29.2426   19.2068 C   0  0  0  0  0  0  0  0  0  0  0  0
  -29.0388  -26.9920   18.8135 C   0  0  0  0  0  0  0  0  0  0  0  0
  -26.8623  -27.1061   19.9988 C   0  0  0  0  0  0  0  0  0  0  0  0
  -29.6453  -23.8446   19.0319 C   0  0  0  0  0  0  0  0  0  0  0  0
  -28.1365  -22.7555   17.9503 C   0  0  0  0  0  0  0  0  0  0  0  0
  -30.3778  -21.4786   18.2240 C   0  0  0  0  0  0  0  0  0  0  0  0
  -29.1568  -21.4652   19.9497 C   0  0  0  0  0  0  0  0  0  0  0  0
  -24.9053  -10.5012   21.5351 C   0  0  1  0  0  0  0  0  0  0  0  0
  -24.4282  -14.2680   21.6638 C   0  0  1  0  0  0  0  0  0  0  0  0
  -26.6033  -28.5142   19.4453 C   0  0  1  0  0  0  0  0  0  0  0  0
  -29.3339  -22.4012   18.7835 C   0  0  0  0  0  0  0  0  0  0  0  0
  -20.1119  -18.7692   17.0690 C   0  0  0  0  0  0  0  0  0  0  0  0
  -23.3180  -12.9810   17.3659 C   0  0  0  0  0  0  0  0  0  0  0  0
  -22.1289  -14.7069   15.9964 C   0  0  0  0  0  0  0  0  0  0  0  0
  -20.9192  -13.5183   17.8257 C   0  0  0  0  0  0  0  0  0  0  0  0
  -21.9840  -19.8509   20.1998 C   0  0  0  0  0  0  0  0  0  0  0  0
  -30.9162  -19.7535   19.8864 C   0  0  0  0  0  0  0  0  0  0  0  0
  -30.3041  -18.7209   20.8121 C   0  0  0  0  0  0  0  0  0  1  0  0
  -22.6662  -15.2483   18.4149 C   0  0  1  0  0  0  0  0  0  0  0  0
  -20.8342  -18.5669   18.3920 C   0  0  2  0  0  0  0  0  0  0  0  0
  -22.2809  -14.1206   17.4162 C   0  0  0  0  0  0  0  0  0  0  0  0
  -26.2088  -30.0953   21.2966 N   0  0  0  0  0  0  0  0  0  0  0  0
  -25.6761  -29.3149   20.3409 N   0  0  0  0  0  0  0  0  0  0  0  0
  -24.1221  -14.9199   20.3888 N   0  0  0  0  0  0  0  0  0  0  0  0
  -27.7646  -26.3375   19.1330 N   0  0  0  0  0  0  0  0  0  0  0  0
  -28.3218  -24.1199   18.4659 N   0  0  0  0  0  0  0  0  0  0  0  0
  -23.6162  -28.6215   19.3993 N   0  0  0  0  0  0  0  0  0  0  0  0
  -22.3590  -31.4539   22.6846 N   0  0  0  0  0  0  0  0  0  0  0  0
  -24.4241  -11.8492   21.7487 N   0  0  0  0  0  0  0  0  0  0  0  0
  -21.6888  -16.3278   18.5034 N   0  0  0  0  0  0  0  0  0  0  0  0
  -29.8396  -20.4308   19.1301 N   0  3  0  0  0  0  0  0  0  0  0  0
  -21.2786  -19.8982   18.8931 N   0  3  0  0  0  0  0  0  0  0  0  0
  -21.5921  -30.0695   21.0250 O   0  0  0  0  0  0  0  0  0  0  0  0
  -26.1960  -12.9908   20.7591 O   0  0  0  0  0  0  0  0  0  0  0  0
  -21.9080  -14.1892   20.3973 O   0  0  0  0  0  0  0  0  0  0  0  0
  -23.1397  -18.0343   17.9036 O   0  0  0  0  0  0  0  0  0  0  0  0
  -26.1625  -24.8026   18.5036 O   0  0  0  0  0  0  0  0  0  0  0  0
  -25.7547  -34.2057   26.1388 O   0  0  0  0  0  0  0  0  0  0  0  0
  -29.6018  -17.7515   20.0455 O   0  0  0  0  0  0  0  0  0  1  0  0
  -22.7345  -38.8185   26.0699 F   0  0  0  0  0  0  0  0  0  0  0  0
  -26.9631  -36.6921   26.1246 F   0  0  0  0  0  0  0  0  0  0  0  0
  1  2  1  0  0  0  0
  1  5  2  0  0  0  0
  2  6  2  0  0  0  0
  3  8  2  0  0  0  0
  3 15  1  0  0  0  0
  4  9  1  0  0  0  0
  4 15  2  0  0  0  0
  5 17  1  0  0  0  0
  6 19  1  0  0  0  0
  7 10  2  0  0  0  0
  7 18  1  0  0  0  0
  8 21  1  0  0  0  0
  9 21  2  0  0  0  0
 10 22  1  0  0  0  0
 11 12  2  0  0  0  0
 11 23  1  0  0  0  0
 12 24  1  0  0  0  0
 13 20  1  0  0  0  0
 13 22  2  0  0  0  0
 14 24  2  0  0  0  0
 14 25  1  0  0  0  0
 15 26  1  0  0  0  0
 16 26  1  0  0  0  0
 16 27  2  0  0  0  0
 16 28  1  0  0  0  0
 17 19  2  0  0  0  0
 17 33  1  0  0  0  0
 18 20  2  0  0  0  0
 18 34  1  0  0  0  0
 19 46  1  0  0  0  0
 20 35  1  0  0  0  0
 21 76  1  0  0  0  0
 22 77  1  0  0  0  0
 23 25  2  0  0  0  0
 23 76  1  0  0  0  0
 24 78  1  0  0  0  0
 25 79  1  0  0  0  0
 26 60  2  0  0  0  0
 27 61  1  0  0  0  0
 27 65  1  0  0  0  0
 28 66  1  0  0  0  0
 28 71  2  0  0  0  0
 29 47  1  0  0  0  0
 29 67  1  0  0  0  0
 29 72  2  0  0  0  0
 30 57  1  0  0  0  0
 30 62  1  0  0  0  0
 30 73  2  0  0  0  0
 31 58  1  0  0  0  0
 31 68  1  0  0  0  0
 31 74  2  0  0  0  0
 32 63  1  0  0  0  0
 32 64  1  0  0  0  0
 32 75  2  0  0  0  0
 33 36  1  0  0  0  0
 34 47  1  0  0  0  0
 35 62  1  0  0  0  0
 36 38  1  0  0  0  0
 37 39  1  0  0  0  0
 37 40  1  0  0  0  0
 38 46  1  0  0  0  0
 39 48  1  0  0  0  0
 40 63  1  0  0  0  0
 41 48  1  0  0  0  0
 41 63  1  0  0  0  0
 42 49  1  0  0  0  0
 42 64  1  0  0  0  0
 43 49  1  0  0  0  0
 43 64  1  0  0  0  0
 44 49  1  0  0  0  0
 44 69  1  0  0  0  0
 45 49  1  0  0  0  0
 45 69  1  0  0  0  0
 46 67  1  0  0  0  0
 47 62  1  0  0  0  0
 48 61  1  0  0  0  0
 50 58  1  0  0  0  0
 51 59  1  0  0  0  0
 52 59  1  0  0  0  0
 53 59  1  0  0  0  0
 54 70  1  0  0  0  0
 55 56  1  0  0  0  0
 55 69  1  0  0  0  0
 56 77  1  0  0  0  0
 57 59  1  0  0  0  0
 57 68  1  0  0  0  0
 58 70  1  0  0  0  0
 60 61  1  0  0  0  0
M  CHG  2  69   1  70   1
M  ISO  4  32 100  56 101  64 100  77 101
M  END
> <Batch ID>
0193

> <Smiles>
CNC(C)C(=O)NC(C(=O)N1Cc2cc([101O:1][101CH2:1]CN3CC4(C3)C[100N:0]([100C:0](=O)N3CCCC(n5nc(-c6ccc(Oc7ccc(F)cc7F)cc6)c(C(N)=O)c5N)C3)C4)ccc2CC1C(=O)NC1CCCc2ccccc21)C(C)(C)C

> <Shape>
0.258

> <Color>
0.054

> <Negative vol penalty>
0.000

$$$$

  -OEChem-04052323323D

 83 91  0     1  0  0  0  0  0999 V2000
  -26.9724  -34.1005   25.4921 C   0  0  0  0  0  0  0  0  0  0  0  0
  -27.3392  -32.8753   24.9445 C   0  0  0  0  0  0  0  0  0  0  0  0
  -26.2606  -13.0668   21.5800 C   0  0  0  0  0  0  0  0  0  0  0  0
  -25.6558  -13.9746   19.4243 C   0  0  0  0  0  0  0  0  0  0  0  0
  -25.6389  -34.3467   25.8161 C   0  0  0  0  0  0  0  0  0  0  0  0
  -26.3727  -31.8952   24.7216 C   0  0  0  0  0  0  0  0  0  0  0  0
  -26.8487  -29.6935   20.1860 C   0  0  0  0  0  0  0  0  0  0  0  0
  -25.0713  -12.3386   21.6071 C   0  0  0  0  0  0  0  0  0  0  0  0
  -24.4665  -13.2464   19.4513 C   0  0  0  0  0  0  0  0  0  0  0  0
  -27.8471  -28.7303   20.0475 C   0  0  0  0  0  0  0  0  0  0  0  0
  -23.8634   -9.4897   20.2442 C   0  0  0  0  0  0  0  0  0  0  0  0
  -23.9301   -8.1539   20.6400 C   0  0  0  0  0  0  0  0  0  0  0  0
  -26.1963  -26.9906   20.3074 C   0  0  0  0  0  0  0  0  0  0  0  0
  -22.4289   -8.6224   22.4741 C   0  0  0  0  0  0  0  0  0  0  0  0
  -26.5529  -13.8849   20.4887 C   0  0  0  0  0  0  0  0  0  0  0  0
  -29.0206  -14.2232   19.9377 C   0  0  0  0  0  0  0  0  0  0  0  0
  -24.6540  -33.3727   25.5880 C   0  0  0  0  0  0  0  0  0  0  0  0
  -25.5160  -29.3120   20.3976 C   0  0  0  0  0  0  0  0  0  0  0  0
  -25.0250  -32.1281   25.0440 C   0  0  0  0  0  0  0  0  0  0  0  0
  -25.1825  -27.9509   20.4457 C   0  0  0  0  0  0  0  0  0  0  0  0
  -24.1742  -12.4283   20.5427 C   0  0  0  0  0  0  0  0  0  0  0  0
  -27.5215  -27.3787   20.1110 C   0  0  0  0  0  0  0  0  0  0  0  0
  -23.0795  -10.3919   20.9634 C   0  0  0  0  0  0  0  0  0  0  0  0
  -23.2129   -7.7202   21.7549 C   0  0  0  0  0  0  0  0  0  0  0  0
  -22.3623   -9.9582   22.0783 C   0  0  0  0  0  0  0  0  0  0  0  0
  -27.7810  -14.6379   20.4604 C   0  0  0  0  0  0  0  0  0  0  0  0
  -29.8579  -15.2908   20.1515 C   0  0  0  0  0  0  0  0  0  0  0  0
  -29.3828  -12.9837   19.3147 C   0  0  0  0  0  0  0  0  0  0  0  0
  -23.4002  -29.7507   22.7287 C   0  0  0  0  0  0  0  0  0  0  0  0
  -21.3800  -28.3150   20.6359 C   0  0  0  0  0  0  0  0  0  0  0  0
  -20.9786  -26.2417   17.9550 C   0  0  0  0  0  0  0  0  0  0  0  0
  -28.8897  -21.1614   20.8218 C   0  0  0  0  0  0  0  0  0  0  0  0
  -23.2329  -33.6673   25.9983 C   0  0  0  0  0  0  0  0  0  0  0  0
  -24.4468  -30.3629   20.5184 C   0  0  0  0  0  0  0  0  0  0  0  0
  -23.7638  -27.4888   20.6507 C   0  0  0  0  0  0  0  0  0  0  0  0
  -22.2114  -32.7142   25.3832 C   0  0  0  0  0  0  0  0  0  0  0  0
  -30.5311  -18.9869   23.1139 C   0  0  0  0  0  0  0  0  0  0  0  0
  -22.6825  -31.2694   25.5145 C   0  0  0  0  0  0  0  0  0  0  0  0
  -30.1243  -17.5883   22.6466 C   0  0  0  0  0  0  0  0  0  0  0  0
  -29.3930  -19.9912   22.9463 C   0  0  0  0  0  0  0  0  0  0  0  0
  -28.4109  -18.6561   21.1224 C   0  0  0  0  0  0  0  0  0  0  0  0
  -28.6118  -25.7698   16.5235 C   0  0  0  0  0  0  0  0  0  0  0  0
  -28.4315  -23.4209   15.8573 C   0  0  0  0  0  0  0  0  0  0  0  0
  -24.0017  -31.0489   24.7643 C   0  0  1  0  0  0  0  0  0  0  0  0
  -23.2001  -29.8663   21.2441 C   0  0  1  0  0  0  0  0  0  0  0  0
  -29.1106  -24.8391   17.6285 C   0  0  1  0  0  0  0  0  0  0  0  0
  -29.5443  -17.6205   21.2198 C   0  0  2  0  0  0  0  0  0  0  0  0
  -29.5619  -23.5662   16.8822 C   0  0  2  0  0  0  0  0  0  0  0  0
  -31.2225  -22.5260   15.3300 C   0  0  0  0  0  0  0  0  0  0  0  0
  -19.2059  -25.2294   16.4956 C   0  0  0  0  0  0  0  0  0  0  0  0
  -20.6830  -26.3412   22.8558 C   0  0  0  0  0  0  0  0  0  0  0  0
  -19.6868  -24.8425   21.1152 C   0  0  0  0  0  0  0  0  0  0  0  0
  -18.7312  -27.1149   21.4972 C   0  0  0  0  0  0  0  0  0  0  0  0
  -26.7468  -25.0689   14.9611 C   0  0  0  0  0  0  0  0  0  0  0  0
  -22.0623  -27.5506   15.5319 C   0  0  0  0  0  0  0  0  0  0  0  0
  -30.1531  -25.5062   18.5153 C   0  0  0  0  0  0  0  0  0  0  0  0
  -30.9224  -23.7134   16.1770 C   0  0  0  0  0  0  0  0  0  0  0  0
  -29.6126  -22.3453   17.8070 C   0  0  0  0  0  0  0  0  0  0  0  0
  -28.3439  -22.1891   18.6297 C   0  0  0  0  0  0  0  0  0  0  0  0
  -29.6172  -26.7736   19.1634 C   0  0  0  0  0  0  0  0  0  1  0  0
  -20.9727  -26.8898   20.3496 C   0  0  1  0  0  0  0  0  0  0  0  0
  -20.1706  -26.3907   16.6785 C   0  0  2  0  0  0  0  0  0  0  0  0
  -20.0455  -26.3055   21.4525 C   0  0  0  0  0  0  0  0  0  0  0  0
  -27.8226  -15.8726   20.9681 N   0  0  0  0  0  0  0  0  0  0  0  0
  -29.0985  -16.2429   20.7656 N   0  0  0  0  0  0  0  0  0  0  0  0
  -22.7549  -28.5545   20.7697 N   0  0  0  0  0  0  0  0  0  0  0  0
  -28.8890  -19.9733   21.5710 N   0  0  0  0  0  0  0  0  0  0  0  0
  -31.1622  -15.4986   19.8722 N   0  0  0  0  0  0  0  0  0  0  0  0
  -28.4003  -11.9941   19.1745 N   0  0  0  0  0  0  0  0  0  0  0  0
  -23.7612  -30.9353   23.3418 N   0  0  0  0  0  0  0  0  0  0  0  0
  -20.3843  -26.8937   19.0147 N   0  0  0  0  0  0  0  0  0  0  0  0
  -28.4011  -21.0553   19.5253 N   0  0  0  0  0  0  0  0  0  0  0  0
  -28.1545  -24.8429   15.4118 N   0  3  1  0  0  0  0  0  0  0  0  0
  -21.0756  -26.4406   15.4955 N   0  3  0  0  0  0  0  0  0  0  0  0
  -30.5476  -12.7541   18.9095 O   0  0  0  0  0  0  0  0  0  0  0  0
  -23.2375  -28.6672   23.2777 O   0  0  0  0  0  0  0  0  0  0  0  0
  -20.5106  -29.1851   20.7300 O   0  0  0  0  0  0  0  0  0  0  0  0
  -22.0299  -25.6072   18.0077 O   0  0  0  0  0  0  0  0  0  0  0  0
  -29.3007  -22.2359   21.2728 O   0  0  0  0  0  0  0  0  0  0  0  0
  -23.0137  -11.7176   20.5687 O   0  0  0  0  0  0  0  0  0  0  0  0
  -28.4941  -26.4364   19.9767 O   0  0  0  0  0  0  0  0  0  1  0  0
  -23.2758   -6.4370   22.1340 F   0  0  0  0  0  0  0  0  0  0  0  0
  -21.6065  -10.8201   22.7725 F   0  0  0  0  0  0  0  0  0  0  0  0
  1  2  1  0  0  0  0
  1  5  2  0  0  0  0
  2  6  2  0  0  0  0
  3  8  2  0  0  0  0
  3 15  1  0  0  0  0
  4  9  1  0  0  0  0
  4 15  2  0  0  0  0
  5 17  1  0  0  0  0
  6 19  1  0  0  0  0
  7 10  2  0  0  0  0
  7 18  1  0  0  0  0
  8 21  1  0  0  0  0
  9 21  2  0  0  0  0
 10 22  1  0  0  0  0
 11 12  2  0  0  0  0
 11 23  1  0  0  0  0
 12 24  1  0  0  0  0
 13 20  1  0  0  0  0
 13 22  2  0  0  0  0
 14 24  2  0  0  0  0
 14 25  1  0  0  0  0
 15 26  1  0  0  0  0
 16 26  1  0  0  0  0
 16 27  2  0  0  0  0
 16 28  1  0  0  0  0
 17 19  2  0  0  0  0
 17 33  1  0  0  0  0
 18 20  2  0  0  0  0
 18 34  1  0  0  0  0
 19 44  1  0  0  0  0
 20 35  1  0  0  0  0
 21 80  1  0  0  0  0
 22 81  1  0  0  0  0
 23 25  2  0  0  0  0
 23 80  1  0  0  0  0
 24 82  1  0  0  0  0
 25 83  1  0  0  0  0
 26 64  2  0  0  0  0
 27 65  1  0  0  0  0
 27 68  1  0  0  0  0
 28 69  1  0  0  0  0
 28 75  2  0  0  0  0
 29 45  1  0  0  0  0
 29 70  1  0  0  0  0
 29 76  2  0  0  0  0
 30 61  1  0  0  0  0
 30 66  1  0  0  0  0
 30 77  2  0  0  0  0
 31 62  1  0  0  0  0
 31 71  1  0  0  0  0
 31 78  2  0  0  0  0
 32 67  1  0  0  0  0
 32 72  1  0  0  0  0
 32 79  2  0  0  0  0
 33 36  1  0  0  0  0
 34 45  1  0  0  0  0
 35 66  1  0  0  0  0
 36 38  1  0  0  0  0
 37 39  1  0  0  0  0
 37 40  1  0  0  0  0
 38 44  1  0  0  0  0
 39 47  1  0  0  0  0
 40 67  1  0  0  0  0
 41 47  1  0  0  0  0
 41 67  1  0  0  0  0
 42 46  1  0  0  0  0
 42 73  1  0  0  0  0
 43 48  1  0  0  0  0
 43 73  1  0  0  0  0
 44 70  1  0  0  0  0
 45 66  1  0  0  0  0
 46 48  1  0  0  0  0
 46 56  1  0  0  0  0
 47 65  1  0  0  0  0
 48 57  1  0  0  0  0
 48 58  1  0  0  0  0
 49 57  1  0  0  0  0
 50 62  1  0  0  0  0
 51 63  1  0  0  0  0
 52 63  1  0  0  0  0
 53 63  1  0  0  0  0
 54 73  1  0  0  0  0
 55 74  1  0  0  0  0
 56 60  1  0  0  0  0
 58 59  1  0  0  0  0
 59 72  1  0  0  0  0
 60 81  1  0  0  0  0
 61 63  1  0  0  0  0
 61 71  1  0  0  0  0
 62 74  1  0  0  0  0
 64 65  1  0  0  0  0
M  CHG  2  73   1  74   1
M  ISO  4  32 100  60 101  72 100  81 101
M  END
> <Batch ID>
0193

> <Smiles>
CCC1(CC[100NH:0][100C:0](=O)N2CCCC(n3nc(-c4ccc(Oc5ccc(F)cc5F)cc4)c(C(N)=O)c3N)C2)CN(C)CC1C[101CH2:1][101O:1]c1ccc2c(c1)CN(C(=O)C(NC(=O)C(C)NC)C(C)(C)C)C(C(=O)NC1CCCc3ccccc31)C2

> <Shape>
0.339

> <Color>
0.092

> <Negative vol penalty>
0.000

$$$$

  -OEChem-04052323323D

 85 93  0     1  0  0  0  0  0999 V2000
  -21.7232  -31.3718   23.2655 C   0  0  0  0  0  0  0  0  0  0  0  0
  -21.2837  -30.4186   22.3524 C   0  0  0  0  0  0  0  0  0  0  0  0
  -24.2631  -15.5176   21.7868 C   0  0  0  0  0  0  0  0  0  0  0  0
  -23.2558  -15.0455   19.6421 C   0  0  0  0  0  0  0  0  0  0  0  0
  -22.9989  -31.9201   23.1395 C   0  0  0  0  0  0  0  0  0  0  0  0
  -22.1194  -30.0139   21.3121 C   0  0  0  0  0  0  0  0  0  0  0  0
  -22.4889  -24.4180   18.8513 C   0  0  0  0  0  0  0  0  0  0  0  0
  -23.5727  -16.7282   21.8446 C   0  0  0  0  0  0  0  0  0  0  0  0
  -22.5653  -16.2561   19.6999 C   0  0  0  0  0  0  0  0  0  0  0  0
  -21.9329  -23.8608   17.7006 C   0  0  0  0  0  0  0  0  0  0  0  0
  -22.3511  -20.1097   22.3894 C   0  0  0  0  0  0  0  0  0  0  0  0
  -23.0581  -21.2427   22.7919 C   0  0  0  0  0  0  0  0  0  0  0  0
  -23.9713  -24.3262   16.4975 C   0  0  0  0  0  0  0  0  0  0  0  0
  -24.5691  -20.9620   20.9277 C   0  0  0  0  0  0  0  0  0  0  0  0
  -24.1047  -14.6763   20.6855 C   0  0  0  0  0  0  0  0  0  0  0  0
  -24.3839  -12.1753   21.1039 C   0  0  0  0  0  0  0  0  0  0  0  0
  -23.8543  -31.5148   22.1028 C   0  0  0  0  0  0  0  0  0  0  0  0
  -23.7885  -24.9443   18.8309 C   0  0  0  0  0  0  0  0  0  0  0  0
  -23.4073  -30.5582   21.1713 C   0  0  0  0  0  0  0  0  0  0  0  0
  -24.5425  -24.8872   17.6500 C   0  0  0  0  0  0  0  0  0  0  0  0
  -22.7237  -17.0974   20.8012 C   0  0  0  0  0  0  0  0  0  0  0  0
  -22.6730  -23.8174   16.5227 C   0  0  0  0  0  0  0  0  0  0  0  0
  -22.7531  -19.4027   21.2561 C   0  0  0  0  0  0  0  0  0  0  0  0
  -24.1671  -21.6689   22.0610 C   0  0  0  0  0  0  0  0  0  0  0  0
  -23.8621  -19.8289   20.5252 C   0  0  0  0  0  0  0  0  0  0  0  0
  -24.8181  -13.4259   20.6249 C   0  0  0  0  0  0  0  0  0  0  0  0
  -25.4147  -11.3174   20.8076 C   0  0  0  0  0  0  0  0  0  0  0  0
  -23.1583  -11.8209   21.7581 C   0  0  0  0  0  0  0  0  0  0  0  0
  -25.0513  -27.8215   19.3111 C   0  0  0  0  0  0  0  0  0  0  0  0
  -27.8525  -26.2088   19.0376 C   0  0  0  0  0  0  0  0  0  0  0  0
  -29.5214  -23.4830   17.8411 C   0  0  0  0  0  0  0  0  0  0  0  0
  -28.6769  -14.8364   18.0810 C   0  0  0  0  0  0  0  0  0  0  0  0
  -25.2069  -32.1704   21.9795 C   0  0  0  0  0  0  0  0  0  0  0  0
  -24.3836  -25.5177   20.0876 C   0  0  0  0  0  0  0  0  0  0  0  0
  -25.9495  -25.4202   17.5809 C   0  0  0  0  0  0  0  0  0  0  0  0
  -26.1702  -31.4131   21.0691 C   0  0  0  0  0  0  0  0  0  0  0  0
  -29.4059  -12.9434   21.0225 C   0  0  0  0  0  0  0  0  0  0  0  0
  -28.7868  -14.6378   14.4619 C   0  0  0  0  0  0  0  0  0  0  0  0
  -25.4755  -31.0138   19.7711 C   0  0  0  0  0  0  0  0  0  0  0  0
  -28.7771  -11.5770   20.7735 C   0  0  0  0  0  0  0  0  0  0  0  0
  -27.7374  -15.7307   14.6085 C   0  0  0  0  0  0  0  0  0  0  0  0
  -29.9604  -13.5217   19.7298 C   0  0  0  0  0  0  0  0  0  0  0  0
  -28.6117  -13.8351   15.7417 C   0  0  0  0  0  0  0  0  0  0  0  0
  -28.2157  -12.3505   18.3991 C   0  0  0  0  0  0  0  0  0  0  0  0
  -24.2938  -30.0754   20.0439 C   0  0  1  0  0  0  0  0  0  0  0  0
  -25.5282  -26.4895   19.8173 C   0  0  1  0  0  0  0  0  0  0  0  0
  -27.7167  -11.6100   19.6613 C   0  0  2  0  0  0  0  0  0  0  0  0
  -27.7857  -16.0662   16.1017 C   0  0  1  0  0  0  0  0  0  0  0  0
  -31.8113  -22.4610   17.7445 C   0  0  0  0  0  0  0  0  0  0  0  0
  -22.6670  -19.7139   13.0004 C   0  0  0  0  0  0  0  0  0  0  0  0
  -25.0257  -20.8137   16.1842 C   0  0  0  0  0  0  0  0  0  0  0  0
  -28.6585  -28.2233   16.8923 C   0  0  0  0  0  0  0  0  0  0  0  0
  -30.4660  -26.6419   16.1851 C   0  0  0  0  0  0  0  0  0  0  0  0
  -30.4860  -27.6080   18.4849 C   0  0  0  0  0  0  0  0  0  0  0  0
  -28.6322  -21.0685   19.3035 C   0  0  0  0  0  0  0  0  0  0  0  0
  -26.4306  -16.5231   16.6264 C   0  0  0  0  0  0  0  0  0  0  0  0
  -21.2645  -21.2704   14.3944 C   0  0  0  0  0  0  0  0  0  0  0  0
  -24.6922  -18.2851   16.2919 C   0  0  0  0  0  0  0  0  0  0  0  0
  -21.1747  -22.2324   15.5747 C   0  0  0  0  0  0  0  0  0  1  0  0
  -28.7706  -25.8468   17.8951 C   0  0  1  0  0  0  0  0  0  0  0  0
  -30.4960  -22.5271   18.5050 C   0  0  2  0  0  0  0  0  0  0  0  0
  -22.6368  -20.5971   14.2472 C   0  0  1  0  0  0  0  0  0  0  0  0
  -24.3787  -19.5851   15.5520 C   0  0  1  0  0  0  0  0  0  0  0  0
  -29.5681  -27.0716   17.3648 C   0  0  0  0  0  0  0  0  0  0  0  0
  -26.0304  -13.3716   20.0669 N   0  0  0  0  0  0  0  0  0  0  0  0
  -26.3668  -12.0767   20.1934 N   0  0  0  0  0  0  0  0  0  0  0  0
  -26.4848  -25.9768   18.8344 N   0  0  0  0  0  0  0  0  0  0  0  0
  -28.9415  -13.5971   18.6826 N   0  0  0  0  0  0  0  0  0  0  0  0
  -28.2559  -14.8356   16.7492 N   0  0  0  0  0  0  0  0  0  0  0  0
  -25.5906   -9.9951   21.0153 N   0  0  0  0  0  0  0  0  0  0  0  0
  -22.2072  -12.8251   21.9846 N   0  0  0  0  0  0  0  0  0  0  0  0
  -24.7651  -28.7331   20.3094 N   0  0  0  0  0  0  0  0  0  0  0  0
  -29.6066  -24.7516   18.3746 N   0  0  0  0  0  0  0  0  0  0  0  0
  -22.9539  -19.7761   15.4135 N   0  0  0  0  0  0  0  0  0  0  0  0
  -29.9173  -21.1550   18.5633 N   0  3  0  0  0  0  0  0  0  0  0  0
  -26.0338  -17.7564   15.9146 N   0  3  0  0  0  0  0  0  0  0  0  0
  -22.9207  -10.6517   22.1454 O   0  0  0  0  0  0  0  0  0  0  0  0
  -24.9519  -28.0088   18.1042 O   0  0  0  0  0  0  0  0  0  0  0  0
  -28.3320  -26.6734   20.0748 O   0  0  0  0  0  0  0  0  0  0  0  0
  -28.7631  -23.1396   16.9368 O   0  0  0  0  0  0  0  0  0  0  0  0
  -28.8202  -15.8976   18.7026 O   0  0  0  0  0  0  0  0  0  0  0  0
  -22.0497  -18.2785   20.8574 O   0  0  0  0  0  0  0  0  0  0  0  0
  -22.1288  -23.2709   15.3902 O   0  0  0  0  0  0  0  0  0  1  0  0
  -24.8451  -22.7578   22.4467 F   0  0  0  0  0  0  0  0  0  0  0  0
  -24.2523  -19.1545   19.4349 F   0  0  0  0  0  0  0  0  0  0  0  0
  1  2  1  0  0  0  0
  1  5  2  0  0  0  0
  2  6  2  0  0  0  0
  3  8  2  0  0  0  0
  3 15  1  0  0  0  0
  4  9  1  0  0  0  0
  4 15  2  0  0  0  0
  5 17  1  0  0  0  0
  6 19  1  0  0  0  0
  7 10  2  0  0  0  0
  7 18  1  0  0  0  0
  8 21  1  0  0  0  0
  9 21  2  0  0  0  0
 10 22  1  0  0  0  0
 11 12  2  0  0  0  0
 11 23  1  0  0  0  0
 12 24  1  0  0  0  0
 13 20  1  0  0  0  0
 13 22  2  0  0  0  0
 14 24  2  0  0  0  0
 14 25  1  0  0  0  0
 15 26  1  0  0  0  0
 16 26  1  0  0  0  0
 16 27  2  0  0  0  0
 16 28  1  0  0  0  0
 17 19  2  0  0  0  0
 17 33  1  0  0  0  0
 18 20  2  0  0  0  0
 18 34  1  0  0  0  0
 19 45  1  0  0  0  0
 20 35  1  0  0  0  0
 21 82  1  0  0  0  0
 22 83  1  0  0  0  0
 23 25  2  0  0  0  0
 23 82  1  0  0  0  0
 24 84  1  0  0  0  0
 25 85  1  0  0  0  0
 26 65  2  0  0  0  0
 27 66  1  0  0  0  0
 27 70  1  0  0  0  0
 28 71  1  0  0  0  0
 28 77  2  0  0  0  0
 29 46  1  0  0  0  0
 29 72  1  0  0  0  0
 29 78  2  0  0  0  0
 30 60  1  0  0  0  0
 30 67  1  0  0  0  0
 30 79  2  0  0  0  0
 31 61  1  0  0  0  0
 31 73  1  0  0  0  0
 31 80  2  0  0  0  0
 32 68  1  0  0  0  0
 32 69  1  0  0  0  0
 32 81  2  0  0  0  0
 33 36  1  0  0  0  0
 34 46  1  0  0  0  0
 35 67  1  0  0  0  0
 36 39  1  0  0  0  0
 37 40  1  0  0  0  0
 37 42  1  0  0  0  0
 38 41  1  0  0  0  0
 38 43  1  0  0  0  0
 39 45  1  0  0  0  0
 40 47  1  0  0  0  0
 41 48  1  0  0  0  0
 42 68  1  0  0  0  0
 43 69  1  0  0  0  0
 44 47  1  0  0  0  0
 44 68  1  0  0  0  0
 45 72  1  0  0  0  0
 46 67  1  0  0  0  0
 47 66  1  0  0  0  0
 48 56  1  0  0  0  0
 48 69  1  0  0  0  0
 49 61  1  0  0  0  0
 50 62  1  0  0  0  0
 51 63  1  0  0  0  0
 52 64  1  0  0  0  0
 53 64  1  0  0  0  0
 54 64  1  0  0  0  0
 55 75  1  0  0  0  0
 56 76  1  0  0  0  0
 57 59  1  0  0  0  0
 57 62  1  0  0  0  0
 58 63  1  0  0  0  0
 58 76  1  0  0  0  0
 59 83  1  0  0  0  0
 60 64  1  0  0  0  0
 60 73  1  0  0  0  0
 61 75  1  0  0  0  0
 62 74  1  0  0  0  0
 63 74  1  0  0  0  0
 65 66  1  0  0  0  0
M  CHG  2  75   1  76   1
M  ISO  4  32 100  59 101  69 100  83 101
M  END
> <Batch ID>
0193

> <Smiles>
CNC(C)C(=O)NC(C(=O)N1Cc2cc([101O:1][101CH2:1]CC(C)NC(C)CNCC3CCC[100N:0]3[100C:0](=O)N3CCCC(n4nc(-c5ccc(Oc6ccc(F)cc6F)cc5)c(C(N)=O)c4N)C3)ccc2CC1C(=O)NC1CCCc2ccccc21)C(C)(C)C

> <Shape>
0.211

> <Color>
0.082

> <Negative vol penalty>
0.000

$$$$

  -OEChem-04052323323D

 81 89  0     1  0  0  0  0  0999 V2000
  -29.5962  -36.2500   24.6929 C   0  0  0  0  0  0  0  0  0  0  0  0
  -29.7986  -35.4522   23.5713 C   0  0  0  0  0  0  0  0  0  0  0  0
  -24.5222   -9.1459   22.1551 C   0  0  0  0  0  0  0  0  0  0  0  0
  -23.7293   -9.4097   19.8882 C   0  0  0  0  0  0  0  0  0  0  0  0
  -28.8821  -35.7516   25.7818 C   0  0  0  0  0  0  0  0  0  0  0  0
  -29.2880  -34.1551   23.5384 C   0  0  0  0  0  0  0  0  0  0  0  0
  -26.5940  -29.3297   18.9804 C   0  0  0  0  0  0  0  0  0  0  0  0
  -23.2672   -8.6736   22.5391 C   0  0  0  0  0  0  0  0  0  0  0  0
  -22.4743   -8.9373   20.2722 C   0  0  0  0  0  0  0  0  0  0  0  0
  -26.7691  -28.0033   18.5884 C   0  0  0  0  0  0  0  0  0  0  0  0
  -21.5240   -5.7835   22.3350 C   0  0  0  0  0  0  0  0  0  0  0  0
  -21.4785   -4.6512   23.1483 C   0  0  0  0  0  0  0  0  0  0  0  0
  -25.4833  -27.2762   20.4957 C   0  0  0  0  0  0  0  0  0  0  0  0
  -20.3317   -5.9219   24.8533 C   0  0  0  0  0  0  0  0  0  0  0  0
  -24.7532   -9.5141   20.8296 C   0  0  0  0  0  0  0  0  0  0  0  0
  -27.1372   -9.2423   19.9633 C   0  0  0  0  0  0  0  0  0  0  0  0
  -28.3542  -34.4511   25.7583 C   0  0  0  0  0  0  0  0  0  0  0  0
  -25.8703  -29.6393   20.1410 C   0  0  0  0  0  0  0  0  0  0  0  0
  -28.5673  -33.6383   24.6285 C   0  0  0  0  0  0  0  0  0  0  0  0
  -25.2983  -28.6075   20.8988 C   0  0  0  0  0  0  0  0  0  0  0  0
  -22.2432   -8.5692   21.5977 C   0  0  0  0  0  0  0  0  0  0  0  0
  -26.2162  -26.9761   19.3476 C   0  0  0  0  0  0  0  0  0  0  0  0
  -20.9734   -6.9851   22.7809 C   0  0  0  0  0  0  0  0  0  0  0  0
  -20.8824   -4.7204   24.4074 C   0  0  0  0  0  0  0  0  0  0  0  0
  -20.3772   -7.0542   24.0401 C   0  0  0  0  0  0  0  0  0  0  0  0
  -26.0492  -10.0026   20.4325 C   0  0  0  0  0  0  0  0  0  0  0  0
  -28.1246  -10.1667   19.7246 C   0  0  0  0  0  0  0  0  0  0  0  0
  -27.2455   -7.8270   19.7611 C   0  0  0  0  0  0  0  0  0  0  0  0
  -27.3132  -20.6797   18.5971 C   0  0  0  0  0  0  0  0  0  0  0  0
  -26.5537  -31.0700   22.8959 C   0  0  0  0  0  0  0  0  0  0  0  0
  -23.3644  -30.7594   23.4004 C   0  0  0  0  0  0  0  0  0  0  0  0
  -20.4664  -29.1036   22.6888 C   0  0  0  0  0  0  0  0  0  0  0  0
  -27.7789  -15.9359   18.4180 C   0  0  0  0  0  0  0  0  0  0  0  0
  -27.6297  -33.9396   26.9782 C   0  0  0  0  0  0  0  0  0  0  0  0
  -25.6678  -31.0766   20.5356 C   0  0  0  0  0  0  0  0  0  0  0  0
  -24.4954  -28.8879   22.1419 C   0  0  0  0  0  0  0  0  0  0  0  0
  -26.8002  -32.6859   26.7130 C   0  0  0  0  0  0  0  0  0  0  0  0
  -29.7028  -14.4302   21.1489 C   0  0  0  0  0  0  0  0  0  0  0  0
  -27.6096  -31.6695   25.9138 C   0  0  0  0  0  0  0  0  0  0  0  0
  -29.0313  -13.0656   21.2626 C   0  0  0  0  0  0  0  0  0  0  0  0
  -28.7179  -15.5319   20.7556 C   0  0  0  0  0  0  0  0  0  0  0  0
  -27.4592  -18.2457   19.6008 C   0  0  0  0  0  0  0  0  0  0  0  0
  -27.2697  -13.8532   19.6434 C   0  0  0  0  0  0  0  0  0  0  0  0
  -28.0078  -32.2347   24.5451 C   0  0  1  0  0  0  0  0  0  0  0  0
  -26.9671  -19.1924   18.4904 C   0  0  2  0  0  0  0  0  0  0  0  0
  -25.3482  -31.2501   22.0172 C   0  0  1  0  0  0  0  0  0  0  0  0
  -28.2664  -12.7331   19.9729 C   0  0  2  0  0  0  0  0  0  0  0  0
  -27.7507  -18.3161   17.4851 C   0  0  1  0  0  0  0  0  0  0  0  0
  -29.1441  -18.7353   17.0539 C   0  0  0  0  0  0  0  0  0  0  0  0
  -18.0294  -29.0524   23.2853 C   0  0  0  0  0  0  0  0  0  0  0  0
  -24.0424  -29.3913   26.0421 C   0  0  0  0  0  0  0  0  0  0  0  0
  -21.6905  -28.5367   26.1230 C   0  0  0  0  0  0  0  0  0  0  0  0
  -22.1251  -30.9928   26.1586 C   0  0  0  0  0  0  0  0  0  0  0  0
  -19.6536  -29.7003   19.9062 C   0  0  0  0  0  0  0  0  0  0  0  0
  -26.4242  -21.6257   17.8285 C   0  0  0  0  0  0  0  0  0  0  0  0
  -26.0297  -24.0246   17.2556 C   0  0  0  0  0  0  0  0  0  0  0  0
  -26.5194  -25.4241   17.5713 C   0  0  0  0  0  0  0  0  0  1  0  0
  -22.4768  -29.7029   24.0128 C   0  0  1  0  0  0  0  0  0  0  0  0
  -19.0789  -29.6079   22.3352 C   0  0  2  0  0  0  0  0  0  0  0  0
  -22.6004  -29.6502   25.5618 C   0  0  0  0  0  0  0  0  0  0  0  0
  -26.3198  -11.3094   20.4894 N   0  0  0  0  0  0  0  0  0  0  0  0
  -27.5890  -11.3773   20.0529 N   0  0  0  0  0  0  0  0  0  0  0  0
  -24.3308  -30.3089   22.4899 N   0  0  0  0  0  0  0  0  0  0  0  0
  -27.9271  -15.1635   19.5752 N   0  0  0  0  0  0  0  0  0  0  0  0
  -27.8066  -17.3067   18.5452 N   0  0  0  0  0  0  0  0  0  0  0  0
  -29.3900  -10.0540   19.2681 N   0  0  0  0  0  0  0  0  0  0  0  0
  -26.1360   -7.0231   20.0564 N   0  0  0  0  0  0  0  0  0  0  0  0
  -26.8844  -32.1906   23.6338 N   0  0  0  0  0  0  0  0  0  0  0  0
  -21.1271  -29.9737   23.5300 N   0  0  0  0  0  0  0  0  0  0  0  0
  -18.7182  -29.2020   20.9473 N   0  3  0  0  0  0  0  0  0  0  0  0
  -26.8298  -23.0374   18.0311 N   0  3  0  0  0  0  0  0  0  0  0  0
  -28.3004   -7.2893   19.3470 O   0  0  0  0  0  0  0  0  0  0  0  0
  -28.2646  -21.0632   19.2761 O   0  0  0  0  0  0  0  0  0  0  0  0
  -27.1394  -29.9937   22.9049 O   0  0  0  0  0  0  0  0  0  0  0  0
  -23.2014  -31.9415   23.7128 O   0  0  0  0  0  0  0  0  0  0  0  0
  -20.9174  -28.0420   22.2643 O   0  0  0  0  0  0  0  0  0  0  0  0
  -27.5967  -15.4208   17.3071 O   0  0  0  0  0  0  0  0  0  0  0  0
  -21.0186   -8.1081   21.9720 O   0  0  0  0  0  0  0  0  0  0  0  0
  -26.3873  -25.6712   18.9649 O   0  0  0  0  0  0  0  0  0  1  0  0
  -20.8374   -3.6326   25.1877 F   0  0  0  0  0  0  0  0  0  0  0  0
  -19.8455   -8.2055   24.4734 F   0  0  0  0  0  0  0  0  0  0  0  0
  1  2  1  0  0  0  0
  1  5  2  0  0  0  0
  2  6  2  0  0  0  0
  3  8  2  0  0  0  0
  3 15  1  0  0  0  0
  4  9  1  0  0  0  0
  4 15  2  0  0  0  0
  5 17  1  0  0  0  0
  6 19  1  0  0  0  0
  7 10  2  0  0  0  0
  7 18  1  0  0  0  0
  8 21  1  0  0  0  0
  9 21  2  0  0  0  0
 10 22  1  0  0  0  0
 11 12  2  0  0  0  0
 11 23  1  0  0  0  0
 12 24  1  0  0  0  0
 13 20  1  0  0  0  0
 13 22  2  0  0  0  0
 14 24  2  0  0  0  0
 14 25  1  0  0  0  0
 15 26  1  0  0  0  0
 16 26  1  0  0  0  0
 16 27  2  0  0  0  0
 16 28  1  0  0  0  0
 17 19  2  0  0  0  0
 17 34  1  0  0  0  0
 18 20  2  0  0  0  0
 18 35  1  0  0  0  0
 19 44  1  0  0  0  0
 20 36  1  0  0  0  0
 21 78  1  0  0  0  0
 22 79  1  0  0  0  0
 23 25  2  0  0  0  0
 23 78  1  0  0  0  0
 24 80  1  0  0  0  0
 25 81  1  0  0  0  0
 26 61  2  0  0  0  0
 27 62  1  0  0  0  0
 27 66  1  0  0  0  0
 28 67  1  0  0  0  0
 28 72  2  0  0  0  0
 29 45  1  0  0  0  0
 29 55  1  0  0  0  0
 29 73  2  0  0  0  0
 30 46  1  0  0  0  0
 30 68  1  0  0  0  0
 30 74  2  0  0  0  0
 31 58  1  0  0  0  0
 31 63  1  0  0  0  0
 31 75  2  0  0  0  0
 32 59  1  0  0  0  0
 32 69  1  0  0  0  0
 32 76  2  0  0  0  0
 33 64  1  0  0  0  0
 33 65  1  0  0  0  0
 33 77  2  0  0  0  0
 34 37  1  0  0  0  0
 35 46  1  0  0  0  0
 36 63  1  0  0  0  0
 37 39  1  0  0  0  0
 38 40  1  0  0  0  0
 38 41  1  0  0  0  0
 39 44  1  0  0  0  0
 40 47  1  0  0  0  0
 41 64  1  0  0  0  0
 42 45  1  0  0  0  0
 42 65  1  0  0  0  0
 43 47  1  0  0  0  0
 43 64  1  0  0  0  0
 44 68  1  0  0  0  0
 45 48  1  0  0  0  0
 46 63  1  0  0  0  0
 47 62  1  0  0  0  0
 48 49  1  0  0  0  0
 48 65  1  0  0  0  0
 50 59  1  0  0  0  0
 51 60  1  0  0  0  0
 52 60  1  0  0  0  0
 53 60  1  0  0  0  0
 54 70  1  0  0  0  0
 55 71  1  0  0  0  0
 56 57  1  0  0  0  0
 56 71  1  0  0  0  0
 57 79  1  0  0  0  0
 58 60  1  0  0  0  0
 58 69  1  0  0  0  0
 59 70  1  0  0  0  0
 61 62  1  0  0  0  0
M  CHG  2  70   1  71   1
M  ISO  4  33 100  57 101  65 100  79 101
M  END
> <Batch ID>
0193

> <Smiles>
CNC(C)C(=O)NC(C(=O)N1Cc2cc([101O:1][101CH2:1]CNCC(=O)C3C[100N:0]([100C:0](=O)N4CCCC(n5nc(-c6ccc(Oc7ccc(F)cc7F)cc6)c(C(N)=O)c5N)C4)C3C)ccc2CC1C(=O)NC1CCCc2ccccc21)C(C)(C)C

> <Shape>
0.272

> <Color>
0.096

> <Negative vol penalty>
0.000

$$$$

  -OEChem-04052323323D

 82 91  0     1  0  0  0  0  0999 V2000
  -26.4132  -38.0386   20.8359 C   0  0  0  0  0  0  0  0  0  0  0  0
  -26.7392  -36.9860   19.9867 C   0  0  0  0  0  0  0  0  0  0  0  0
  -23.0809  -10.9029   21.9201 C   0  0  0  0  0  0  0  0  0  0  0  0
  -24.7828   -9.2118   21.6353 C   0  0  0  0  0  0  0  0  0  0  0  0
  -26.3017  -37.8171   22.2079 C   0  0  0  0  0  0  0  0  0  0  0  0
  -26.9550  -35.7113   20.5093 C   0  0  0  0  0  0  0  0  0  0  0  0
  -26.1291  -28.7889   18.8617 C   0  0  0  0  0  0  0  0  0  0  0  0
  -22.0910   -9.9300   21.7813 C   0  0  0  0  0  0  0  0  0  0  0  0
  -23.7929   -8.2389   21.4966 C   0  0  0  0  0  0  0  0  0  0  0  0
  -26.8558  -27.6003   18.8084 C   0  0  0  0  0  0  0  0  0  0  0  0
  -21.7407   -6.4702   23.5167 C   0  0  0  0  0  0  0  0  0  0  0  0
  -21.9081   -5.2736   24.2136 C   0  0  0  0  0  0  0  0  0  0  0  0
  -26.5580  -27.3187   21.1856 C   0  0  0  0  0  0  0  0  0  0  0  0
  -21.8874   -4.0556   22.1272 C   0  0  0  0  0  0  0  0  0  0  0  0
  -24.4268  -10.5438   21.8470 C   0  0  0  0  0  0  0  0  0  0  0  0
  -26.0677  -11.9690   23.1825 C   0  0  0  0  0  0  0  0  0  0  0  0
  -26.5067  -36.5370   22.7464 C   0  0  0  0  0  0  0  0  0  0  0  0
  -25.6198  -29.2577   20.0812 C   0  0  0  0  0  0  0  0  0  0  0  0
  -26.8474  -35.4727   21.8899 C   0  0  0  0  0  0  0  0  0  0  0  0
  -25.8230  -28.5122   21.2513 C   0  0  0  0  0  0  0  0  0  0  0  0
  -22.4470   -8.5981   21.5696 C   0  0  0  0  0  0  0  0  0  0  0  0
  -27.0729  -26.8665   19.9709 C   0  0  0  0  0  0  0  0  0  0  0  0
  -21.6466   -6.4595   22.1250 C   0  0  0  0  0  0  0  0  0  0  0  0
  -21.9814   -4.0663   23.5189 C   0  0  0  0  0  0  0  0  0  0  0  0
  -21.7200   -5.2522   21.4303 C   0  0  0  0  0  0  0  0  0  0  0  0
  -25.4498  -11.5484   21.9896 C   0  0  0  0  0  0  0  0  0  0  0  0
  -26.9609  -12.9337   22.7849 C   0  0  0  0  0  0  0  0  0  0  0  0
  -28.9538  -24.0093   18.7270 C   0  0  0  0  0  0  0  0  0  0  0  0
  -30.4235  -22.5893   19.1522 C   0  0  0  0  0  0  0  0  0  0  0  0
  -25.8535  -11.5273   24.5296 C   0  0  0  0  0  0  0  0  0  0  0  0
  -26.0729  -31.8600   21.8494 C   0  0  0  0  0  0  0  0  0  0  0  0
  -23.6676  -30.5993   23.6234 C   0  0  0  0  0  0  0  0  0  0  0  0
  -21.9166  -27.8302   24.5788 C   0  0  0  0  0  0  0  0  0  0  0  0
  -28.1750  -17.3915   19.9409 C   0  0  0  0  0  0  0  0  0  0  0  0
  -26.4215  -36.3561   24.2413 C   0  0  0  0  0  0  0  0  0  0  0  0
  -24.8151  -30.5280   20.1175 C   0  0  0  0  0  0  0  0  0  0  0  0
  -25.2800  -28.9617   22.5823 C   0  0  0  0  0  0  0  0  0  0  0  0
  -26.2981  -34.8969   24.6722 C   0  0  0  0  0  0  0  0  0  0  0  0
  -28.5685  -14.2656   18.1970 C   0  0  0  0  0  0  0  0  0  0  0  0
  -27.3120  -34.0331   23.9289 C   0  0  0  0  0  0  0  0  0  0  0  0
  -27.8025  -13.3156   19.1134 C   0  0  0  0  0  0  0  0  0  0  0  0
  -27.8121  -20.1908   17.5878 C   0  0  0  0  0  0  0  0  0  0  0  0
  -27.9152  -15.6467   18.1122 C   0  0  0  0  0  0  0  0  0  0  0  0
  -27.7332  -18.6796   17.7680 C   0  0  0  0  0  0  0  0  0  0  0  0
  -26.9001  -15.3146   20.3500 C   0  0  0  0  0  0  0  0  0  0  0  0
  -29.1955  -19.5926   19.4414 C   0  0  0  0  0  0  0  0  0  0  0  0
  -27.0647  -34.0705   22.4160 C   0  0  1  0  0  0  0  0  0  0  0  0
  -24.7823  -31.1753   21.4985 C   0  0  1  0  0  0  0  0  0  0  0  0
  -27.5897  -13.9510   20.4965 C   0  0  1  0  0  0  0  0  0  0  0  0
  -29.1608  -20.5324   18.2337 C   0  0  2  0  0  0  0  0  0  0  0  0
  -31.6302  -21.8532   19.5700 C   0  0  0  0  0  0  0  0  0  0  0  0
  -20.0310  -27.1091   26.0695 C   0  0  0  0  0  0  0  0  0  0  0  0
  -25.4953  -30.8524   26.0535 C   0  0  0  0  0  0  0  0  0  0  0  0
  -23.9719  -29.2856   27.2753 C   0  0  0  0  0  0  0  0  0  0  0  0
  -23.1118  -31.4845   26.4704 C   0  0  0  0  0  0  0  0  0  0  0  0
  -20.3323  -26.8322   22.2869 C   0  0  0  0  0  0  0  0  0  0  0  0
  -28.2733  -25.3065   18.6363 C   0  0  0  0  0  0  0  0  0  1  0  0
  -23.5872  -29.6513   24.7955 C   0  0  1  0  0  0  0  0  0  0  0  0
  -20.4249  -27.5645   24.6730 C   0  0  2  0  0  0  0  0  0  0  0  0
  -24.0536  -30.3107   26.1241 C   0  0  0  0  0  0  0  0  0  0  0  0
  -25.9113  -12.1931   20.9147 N   0  0  0  0  0  0  0  0  0  0  0  0
  -30.2001  -23.8776   19.2694 N   0  0  0  0  0  0  0  0  0  0  0  0
  -28.3921  -22.8835   18.2815 N   0  0  0  0  0  0  0  0  0  0  0  0
  -26.8286  -13.0288   21.4308 N   0  0  0  0  0  0  0  0  0  0  0  0
  -29.3525  -21.9906   18.5653 N   0  0  0  0  0  0  0  0  0  0  0  0
  -24.5050  -30.2134   22.5672 N   0  0  0  0  0  0  0  0  0  0  0  0
  -27.6416  -16.1969   19.4444 N   0  0  0  0  0  0  0  0  0  0  0  0
  -28.4221  -18.4217   19.0343 N   0  0  0  0  0  0  0  0  0  0  0  0
  -27.8386  -13.7015   23.4650 N   0  0  0  0  0  0  0  0  0  0  0  0
  -24.8984  -10.5281   24.7612 N   0  0  0  0  0  0  0  0  0  0  0  0
  -25.9482  -33.2192   22.0652 N   0  0  0  0  0  0  0  0  0  0  0  0
  -22.2162  -29.1535   24.8246 N   0  0  0  0  0  0  0  0  0  0  0  0
  -20.0250  -26.5060   23.7032 N   0  3  0  0  0  0  0  0  0  0  0  0
  -26.4786  -12.0160   25.5012 O   0  0  0  0  0  0  0  0  0  0  0  0
  -27.1053  -31.2036   21.9205 O   0  0  0  0  0  0  0  0  0  0  0  0
  -23.0060  -31.6403   23.6410 O   0  0  0  0  0  0  0  0  0  0  0  0
  -22.7345  -26.9510   24.3173 O   0  0  0  0  0  0  0  0  0  0  0  0
  -28.3824  -17.5482   21.1518 O   0  0  0  0  0  0  0  0  0  0  0  0
  -21.4813   -7.6485   21.4345 O   0  0  0  0  0  0  0  0  0  0  0  0
  -27.7855  -25.7014   19.9216 O   0  0  0  0  0  0  0  0  0  1  0  0
  -22.1437   -2.9174   24.1881 F   0  0  0  0  0  0  0  0  0  0  0  0
  -21.6315   -5.2358   20.0932 F   0  0  0  0  0  0  0  0  0  0  0  0
  1  2  1  0  0  0  0
  1  5  2  0  0  0  0
  2  6  2  0  0  0  0
  3  8  2  0  0  0  0
  3 15  1  0  0  0  0
  4  9  1  0  0  0  0
  4 15  2  0  0  0  0
  5 17  1  0  0  0  0
  6 19  1  0  0  0  0
  7 10  2  0  0  0  0
  7 18  1  0  0  0  0
  8 21  1  0  0  0  0
  9 21  2  0  0  0  0
 10 22  1  0  0  0  0
 11 12  2  0  0  0  0
 11 23  1  0  0  0  0
 12 24  1  0  0  0  0
 13 20  1  0  0  0  0
 13 22  2  0  0  0  0
 14 24  2  0  0  0  0
 14 25  1  0  0  0  0
 15 26  1  0  0  0  0
 16 26  1  0  0  0  0
 16 27  2  0  0  0  0
 16 30  1  0  0  0  0
 17 19  2  0  0  0  0
 17 35  1  0  0  0  0
 18 20  2  0  0  0  0
 18 36  1  0  0  0  0
 19 47  1  0  0  0  0
 20 37  1  0  0  0  0
 21 79  1  0  0  0  0
 22 80  1  0  0  0  0
 23 25  2  0  0  0  0
 23 79  1  0  0  0  0
 24 81  1  0  0  0  0
 25 82  1  0  0  0  0
 26 61  2  0  0  0  0
 27 64  1  0  0  0  0
 27 69  1  0  0  0  0
 28 57  1  0  0  0  0
 28 62  1  0  0  0  0
 28 63  2  0  0  0  0
 29 51  1  0  0  0  0
 29 62  2  0  0  0  0
 29 65  1  0  0  0  0
 30 70  1  0  0  0  0
 30 74  2  0  0  0  0
 31 48  1  0  0  0  0
 31 71  1  0  0  0  0
 31 75  2  0  0  0  0
 32 58  1  0  0  0  0
 32 66  1  0  0  0  0
 32 76  2  0  0  0  0
 33 59  1  0  0  0  0
 33 72  1  0  0  0  0
 33 77  2  0  0  0  0
 34 67  1  0  0  0  0
 34 68  1  0  0  0  0
 34 78  2  0  0  0  0
 35 38  1  0  0  0  0
 36 48  1  0  0  0  0
 37 66  1  0  0  0  0
 38 40  1  0  0  0  0
 39 41  1  0  0  0  0
 39 43  1  0  0  0  0
 40 47  1  0  0  0  0
 41 49  1  0  0  0  0
 42 44  1  0  0  0  0
 42 50  1  0  0  0  0
 43 67  1  0  0  0  0
 44 68  1  0  0  0  0
 45 49  1  0  0  0  0
 45 67  1  0  0  0  0
 46 50  1  0  0  0  0
 46 68  1  0  0  0  0
 47 71  1  0  0  0  0
 48 66  1  0  0  0  0
 49 64  1  0  0  0  0
 50 65  1  0  0  0  0
 52 59  1  0  0  0  0
 53 60  1  0  0  0  0
 54 60  1  0  0  0  0
 55 60  1  0  0  0  0
 56 73  1  0  0  0  0
 57 80  1  0  0  0  0
 58 60  1  0  0  0  0
 58 72  1  0  0  0  0
 59 73  1  0  0  0  0
 61 64  1  0  0  0  0
 63 65  1  0  0  0  0
M  CHG  1  73   1
M  ISO  4  34 100  57 101  68 100  80 101
M  END
> <Batch ID>
0193

> <Smiles>
CNC(C)C(=O)NC(C(=O)N1Cc2cc([101O:1][101CH2:1]c3nc(C)n(C4CC[100N:0]([100C:0](=O)N5CCCC(n6nc(-c7ccc(Oc8ccc(F)cc8F)cc7)c(C(N)=O)c6N)C5)C4)n3)ccc2CC1C(=O)NC1CCCc2ccccc21)C(C)(C)C

> <Shape>
0.309

> <Color>
0.109

> <Negative vol penalty>
0.000

$$$$

  -OEChem-04052323323D

 90 99  0     1  0  0  0  0  0999 V2000
  -16.4064  -27.4193   20.8340 C   0  0  0  0  0  0  0  0  0  0  0  0
  -17.6453  -27.5211   20.2113 C   0  0  0  0  0  0  0  0  0  0  0  0
  -23.7575  -11.3268   23.6664 C   0  0  0  0  0  0  0  0  0  0  0  0
  -24.5677   -9.5587   22.2331 C   0  0  0  0  0  0  0  0  0  0  0  0
  -16.1852  -28.0673   22.0474 C   0  0  0  0  0  0  0  0  0  0  0  0
  -18.6669  -28.2612   20.8074 C   0  0  0  0  0  0  0  0  0  0  0  0
  -25.4693  -27.5595   19.5975 C   0  0  0  0  0  0  0  0  0  0  0  0
  -23.2991  -10.3770   24.5791 C   0  0  0  0  0  0  0  0  0  0  0  0
  -24.1093   -8.6088   23.1459 C   0  0  0  0  0  0  0  0  0  0  0  0
  -26.8210  -27.5629   19.2521 C   0  0  0  0  0  0  0  0  0  0  0  0
  -21.1616   -7.1845   23.9905 C   0  0  0  0  0  0  0  0  0  0  0  0
  -20.4689   -6.0834   23.4871 C   0  0  0  0  0  0  0  0  0  0  0  0
  -27.2303  -29.3485   20.8304 C   0  0  0  0  0  0  0  0  0  0  0  0
  -22.1367   -4.6066   24.4224 C   0  0  0  0  0  0  0  0  0  0  0  0
  -30.8075  -20.3304   21.2269 C   0  0  0  0  0  0  0  0  0  0  0  0
  -24.3918  -10.9177   22.4933 C   0  0  0  0  0  0  0  0  0  0  0  0
  -24.0979  -12.8637   20.8702 C   0  0  0  0  0  0  0  0  0  0  0  0
  -17.2012  -28.8258   22.6519 C   0  0  0  0  0  0  0  0  0  0  0  0
  -24.9948  -28.4412   20.5730 C   0  0  0  0  0  0  0  0  0  0  0  0
  -18.4707  -28.9029   22.0437 C   0  0  0  0  0  0  0  0  0  0  0  0
  -25.8799  -29.3406   21.1896 C   0  0  0  0  0  0  0  0  0  0  0  0
  -23.4750   -9.0179   24.3189 C   0  0  0  0  0  0  0  0  0  0  0  0
  -27.6992  -28.4554   19.8667 C   0  0  0  0  0  0  0  0  0  0  0  0
  -22.3419   -6.9966   24.7097 C   0  0  0  0  0  0  0  0  0  0  0  0
  -20.9564   -4.7945   23.7031 C   0  0  0  0  0  0  0  0  0  0  0  0
  -22.8294   -5.7077   24.9257 C   0  0  0  0  0  0  0  0  0  0  0  0
  -24.8650  -11.8985   21.5497 C   0  0  0  0  0  0  0  0  0  0  0  0
  -32.4263  -22.1026   22.3957 C   0  0  0  0  0  0  0  0  0  0  0  0
  -31.4688  -22.5036   21.4902 C   0  0  0  0  0  0  0  0  0  0  0  0
  -31.7654  -19.9292   22.1317 C   0  0  0  0  0  0  0  0  0  0  0  0
  -25.0078  -13.5440   20.0983 C   0  0  0  0  0  0  0  0  0  0  0  0
  -22.6890  -13.1222   20.9312 C   0  0  0  0  0  0  0  0  0  0  0  0
  -22.0687  -29.7504   22.4893 C   0  0  0  0  0  0  0  0  0  0  0  0
  -24.5663  -29.6161   24.4632 C   0  0  0  0  0  0  0  0  0  0  0  0
  -22.2046  -29.7533   27.1874 C   0  0  0  0  0  0  0  0  0  0  0  0
  -30.8966  -14.4664   20.5821 C   0  0  0  0  0  0  0  0  0  0  0  0
  -16.9099  -29.5001   23.9693 C   0  0  0  0  0  0  0  0  0  0  0  0
  -23.5338  -28.5139   20.9275 C   0  0  0  0  0  0  0  0  0  0  0  0
  -25.3206  -30.2932   22.2087 C   0  0  0  0  0  0  0  0  0  0  0  0
  -17.8980  -30.6145   24.2981 C   0  0  0  0  0  0  0  0  0  0  0  0
  -29.1943  -12.9586   17.8543 C   0  0  0  0  0  0  0  0  0  0  0  0
  -19.3237  -30.1146   24.1190 C   0  0  0  0  0  0  0  0  0  0  0  0
  -27.8205  -12.6065   18.4275 C   0  0  0  0  0  0  0  0  0  0  0  0
  -30.3030  -12.7639   18.8863 C   0  0  0  0  0  0  0  0  0  0  0  0
  -30.4465  -24.7059   21.9681 C   0  0  0  0  0  0  0  0  0  0  0  0
  -28.7173  -13.1121   20.7385 C   0  0  0  0  0  0  0  0  0  0  0  0
  -31.5284  -24.2604   19.7805 C   0  0  0  0  0  0  0  0  0  0  0  0
  -30.8818  -26.1605   21.8854 C   0  0  0  0  0  0  0  0  0  0  0  0
  -19.5873  -29.7275   22.6583 C   0  0  1  0  0  0  0  0  0  0  0  0
  -23.2751  -28.8619   22.4070 C   0  0  1  0  0  0  0  0  0  0  0  0
  -27.5591  -13.3464   19.7535 C   0  0  2  0  0  0  0  0  0  0  0  0
  -31.9670  -25.7280   19.6758 C   0  0  1  0  0  0  0  0  0  0  0  0
  -33.3392  -23.0781   23.0585 C   0  0  0  0  0  0  0  0  0  0  0  0
  -32.0326  -26.1463   18.2083 C   0  0  0  0  0  0  0  0  0  0  0  0
  -22.5731  -29.7199   29.6694 C   0  0  0  0  0  0  0  0  0  0  0  0
  -24.1242  -26.6089   24.1966 C   0  0  0  0  0  0  0  0  0  0  0  0
  -22.8740  -26.6708   26.3649 C   0  0  0  0  0  0  0  0  0  0  0  0
  -25.2842  -27.3105   26.2982 C   0  0  0  0  0  0  0  0  0  0  0  0
  -20.7065  -32.2782   27.5607 C   0  0  0  0  0  0  0  0  0  0  0  0
  -31.0308  -17.5637   21.8313 C   0  0  0  0  0  0  0  0  0  0  0  0
  -31.3740  -16.1781   22.3569 C   0  0  0  0  0  0  0  0  0  0  0  0
  -31.2449  -28.0713   20.3533 C   0  0  0  0  0  0  0  0  0  0  0  0
  -29.9489  -28.8354   20.5392 C   0  0  0  0  0  0  0  0  0  1  0  0
  -23.5598  -28.8708   25.3062 C   0  0  1  0  0  0  0  0  0  0  0  0
  -22.3195  -30.5904   28.4485 C   0  0  2  0  0  0  0  0  0  0  0  0
  -23.9525  -27.3816   25.5196 C   0  0  0  0  0  0  0  0  0  0  0  0
  -30.6420  -21.6248   20.8898 N   0  0  0  0  0  0  0  0  0  0  0  0
  -26.1622  -11.9571   21.2370 N   0  0  0  0  0  0  0  0  0  0  0  0
  -32.5920  -20.8081   22.7324 N   0  0  0  0  0  0  0  0  0  0  0  0
  -26.2173  -12.9672   20.3523 N   0  0  0  0  0  0  0  0  0  0  0  0
  -31.3464  -23.8630   21.1813 N   0  0  2  0  0  0  0  0  0  0  0  0
  -24.3667  -29.5942   23.0773 N   0  0  0  0  0  0  0  0  0  0  0  0
  -29.9943  -13.4968   20.1168 N   0  0  0  0  0  0  0  0  0  0  0  0
  -24.8832  -14.5734   19.2338 N   0  0  0  0  0  0  0  0  0  0  0  0
  -21.9002  -12.3294   21.7760 N   0  0  0  0  0  0  0  0  0  0  0  0
  -31.8722  -18.5522   22.4287 N   0  0  0  0  0  0  0  0  0  0  0  0
  -20.8707  -29.0666   22.5693 N   0  0  0  0  0  0  0  0  0  0  0  0
  -23.4168  -29.6339   26.5413 N   0  0  0  0  0  0  0  0  0  0  0  0
  -30.5316  -15.1268   21.7506 N   0  0  0  0  0  0  0  0  0  0  0  0
  -30.9665  -26.5909   20.4370 N   0  3  2  0  0  0  0  0  0  0  0  0
  -21.0648  -31.3622   28.6741 N   0  3  0  0  0  0  0  0  0  0  0  0
  -22.1431  -14.0187   20.2443 O   0  0  0  0  0  0  0  0  0  0  0  0
  -22.2131  -30.9673   22.4825 O   0  0  0  0  0  0  0  0  0  0  0  0
  -25.5053  -30.1922   25.0190 O   0  0  0  0  0  0  0  0  0  0  0  0
  -21.1461  -29.2520   26.8148 O   0  0  0  0  0  0  0  0  0  0  0  0
  -31.9518  -14.7358   19.9979 O   0  0  0  0  0  0  0  0  0  0  0  0
  -23.0281   -8.0907   25.2095 O   0  0  0  0  0  0  0  0  0  0  0  0
  -29.0183  -28.4507   19.5281 O   0  0  0  0  0  0  0  0  0  1  0  0
  -20.2903   -3.7371   23.2209 F   0  0  0  0  0  0  0  0  0  0  0  0
  -23.9622   -5.5209   25.6169 F   0  0  0  0  0  0  0  0  0  0  0  0
  1  2  1  0  0  0  0
  1  5  2  0  0  0  0
  2  6  2  0  0  0  0
  3  8  2  0  0  0  0
  3 16  1  0  0  0  0
  4  9  1  0  0  0  0
  4 16  2  0  0  0  0
  5 18  1  0  0  0  0
  6 20  1  0  0  0  0
  7 10  2  0  0  0  0
  7 19  1  0  0  0  0
  8 22  1  0  0  0  0
  9 22  2  0  0  0  0
 10 23  1  0  0  0  0
 11 12  2  0  0  0  0
 11 24  1  0  0  0  0
 12 25  1  0  0  0  0
 13 21  1  0  0  0  0
 13 23  2  0  0  0  0
 14 25  2  0  0  0  0
 14 26  1  0  0  0  0
 15 30  1  0  0  0  0
 15 67  2  0  0  0  0
 16 27  1  0  0  0  0
 17 27  1  0  0  0  0
 17 31  2  0  0  0  0
 17 32  1  0  0  0  0
 18 20  2  0  0  0  0
 18 37  1  0  0  0  0
 19 21  2  0  0  0  0
 19 38  1  0  0  0  0
 20 49  1  0  0  0  0
 21 39  1  0  0  0  0
 22 87  1  0  0  0  0
 23 88  1  0  0  0  0
 24 26  2  0  0  0  0
 24 87  1  0  0  0  0
 25 89  1  0  0  0  0
 26 90  1  0  0  0  0
 27 68  2  0  0  0  0
 28 29  2  0  0  0  0
 28 53  1  0  0  0  0
 28 69  1  0  0  0  0
 29 67  1  0  0  0  0
 29 71  1  0  0  0  0
 30 69  2  0  0  0  0
 30 76  1  0  0  0  0
 31 70  1  0  0  0  0
 31 74  1  0  0  0  0
 32 75  1  0  0  0  0
 32 82  2  0  0  0  0
 33 50  1  0  0  0  0
 33 77  1  0  0  0  0
 33 83  2  0  0  0  0
 34 64  1  0  0  0  0
 34 72  1  0  0  0  0
 34 84  2  0  0  0  0
 35 65  1  0  0  0  0
 35 78  1  0  0  0  0
 35 85  2  0  0  0  0
 36 73  1  0  0  0  0
 36 79  1  0  0  0  0
 36 86  2  0  0  0  0
 37 40  1  0  0  0  0
 38 50  1  0  0  0  0
 39 72  1  0  0  0  0
 40 42  1  0  0  0  0
 41 43  1  0  0  0  0
 41 44  1  0  0  0  0
 42 49  1  0  0  0  0
 43 51  1  0  0  0  0
 44 73  1  0  0  0  0
 45 48  1  0  0  0  0
 45 71  1  0  0  0  0
 46 51  1  0  0  0  0
 46 73  1  0  0  0  0
 47 52  1  0  0  0  0
 47 71  1  0  0  0  0
 48 80  1  0  0  0  0
 49 77  1  0  0  0  0
 50 72  1  0  0  0  0
 51 70  1  0  0  0  0
 52 54  1  0  0  0  0
 52 80  1  0  0  0  0
 55 65  1  0  0  0  0
 56 66  1  0  0  0  0
 57 66  1  0  0  0  0
 58 66  1  0  0  0  0
 59 81  1  0  0  0  0
 60 61  1  0  0  0  0
 60 76  1  0  0  0  0
 61 79  1  0  0  0  0
 62 63  1  0  0  0  0
 62 80  1  0  0  0  0
 63 88  1  0  0  0  0
 64 66  1  0  0  0  0
 64 78  1  0  0  0  0
 65 81  1  0  0  0  0
 68 70  1  0  0  0  0
M  CHG  2  80   1  81   1
M  ISO  4  36 100  63 101  79 100  88 101
M  END
> <Batch ID>
0193

> <Smiles>
CNC(C)C(=O)NC(C(=O)N1Cc2cc([101O:1][101CH2:1]CN3CCN(c4ncc(NCC[100NH:0][100C:0](=O)N5CCCC(n6nc(-c7ccc(Oc8ccc(F)cc8F)cc7)c(C(N)=O)c6N)C5)nc4C)CC3C)ccc2CC1C(=O)NC1CCCc2ccccc21)C(C)(C)C

> <Shape>
0.314

> <Color>
0.154

> <Negative vol penalty>
0.000

$$$$

  -OEChem-04052323323D

 85 94  0     1  0  0  0  0  0999 V2000
  -17.1604  -29.2073   24.6729 C   0  0  0  0  0  0  0  0  0  0  0  0
  -17.7579  -27.9850   24.3824 C   0  0  0  0  0  0  0  0  0  0  0  0
  -23.2243  -10.2350   18.7203 C   0  0  0  0  0  0  0  0  0  0  0  0
  -23.0557   -9.8665   21.1021 C   0  0  0  0  0  0  0  0  0  0  0  0
  -17.4832  -30.3359   23.9206 C   0  0  0  0  0  0  0  0  0  0  0  0
  -18.6778  -27.8904   23.3387 C   0  0  0  0  0  0  0  0  0  0  0  0
  -23.6314  -24.2964   23.1117 C   0  0  0  0  0  0  0  0  0  0  0  0
  -22.3920   -9.1393   18.4919 C   0  0  0  0  0  0  0  0  0  0  0  0
  -22.2233   -8.7708   20.8736 C   0  0  0  0  0  0  0  0  0  0  0  0
  -23.8661  -23.0595   22.5129 C   0  0  0  0  0  0  0  0  0  0  0  0
  -19.0819   -8.4587   18.6068 C   0  0  0  0  0  0  0  0  0  0  0  0
  -18.0566   -8.6071   17.6728 C   0  0  0  0  0  0  0  0  0  0  0  0
  -24.8112  -24.1746   20.5939 C   0  0  0  0  0  0  0  0  0  0  0  0
  -18.9917   -6.8072   16.3602 C   0  0  0  0  0  0  0  0  0  0  0  0
  -23.5562  -10.5986   20.0255 C   0  0  0  0  0  0  0  0  0  0  0  0
  -24.0272  -13.0709   20.4422 C   0  0  0  0  0  0  0  0  0  0  0  0
  -18.4147  -30.2572   22.8734 C   0  0  0  0  0  0  0  0  0  0  0  0
  -23.9754  -25.4842   22.4504 C   0  0  0  0  0  0  0  0  0  0  0  0
  -19.0123  -29.0188   22.5709 C   0  0  0  0  0  0  0  0  0  0  0  0
  -24.5821  -25.4253   21.1876 C   0  0  0  0  0  0  0  0  0  0  0  0
  -21.8915   -8.4072   19.5685 C   0  0  0  0  0  0  0  0  0  0  0  0
  -24.4535  -22.9985   21.2526 C   0  0  0  0  0  0  0  0  0  0  0  0
  -20.0622   -7.4846   18.4174 C   0  0  0  0  0  0  0  0  0  0  0  0
  -18.0115   -7.7813   16.5496 C   0  0  0  0  0  0  0  0  0  0  0  0
  -20.0171   -6.6588   17.2942 C   0  0  0  0  0  0  0  0  0  0  0  0
  -24.4164  -11.7301   20.2621 C   0  0  0  0  0  0  0  0  0  0  0  0
  -25.2068  -13.7484   20.6314 C   0  0  0  0  0  0  0  0  0  0  0  0
  -26.0175  -18.5290   16.7262 C   0  0  0  0  0  0  0  0  0  0  0  0
  -26.0560  -18.8290   15.4257 C   0  0  0  0  0  0  0  0  0  0  0  0
  -22.7164  -13.6520   20.4389 C   0  0  0  0  0  0  0  0  0  0  0  0
  -22.3610  -28.0054   21.3823 C   0  0  0  0  0  0  0  0  0  0  0  0
  -25.3300  -29.1511   20.7543 C   0  0  0  0  0  0  0  0  0  0  0  0
  -28.6184  -28.4881   20.1268 C   0  0  0  0  0  0  0  0  0  0  0  0
  -30.4390  -14.8183   19.4479 C   0  0  0  0  0  0  0  0  0  0  0  0
  -18.6963  -31.4942   22.0577 C   0  0  0  0  0  0  0  0  0  0  0  0
  -23.7400  -26.8096   23.1213 C   0  0  0  0  0  0  0  0  0  0  0  0
  -24.9887  -26.6706   20.4444 C   0  0  0  0  0  0  0  0  0  0  0  0
  -25.0413  -17.7225   17.5521 C   0  0  0  0  0  0  0  0  0  0  0  0
  -19.9614  -31.3897   21.2098 C   0  0  0  0  0  0  0  0  0  0  0  0
  -29.8961  -12.0551   21.4453 C   0  0  0  0  0  0  0  0  0  0  0  0
  -20.0025  -30.0538   20.4747 C   0  0  0  0  0  0  0  0  0  0  0  0
  -28.3886  -11.8240   21.3415 C   0  0  0  0  0  0  0  0  0  0  0  0
  -30.4861  -12.4272   20.0897 C   0  0  0  0  0  0  0  0  0  0  0  0
  -29.9775  -17.2414   19.3546 C   0  0  0  0  0  0  0  0  0  0  0  0
  -29.0647  -15.8081   17.5748 C   0  0  0  0  0  0  0  0  0  0  0  0
  -28.7207  -18.1074   19.2674 C   0  0  0  0  0  0  0  0  0  0  0  0
  -27.8179  -16.6889   17.5245 C   0  0  0  0  0  0  0  0  0  0  0  0
  -28.3385  -13.4046   19.3496 C   0  0  0  0  0  0  0  0  0  0  0  0
  -20.0335  -28.8813   21.4625 C   0  0  1  0  0  0  0  0  0  0  0  0
  -26.9191  -18.8855   17.8850 C   0  0  1  0  0  0  0  0  0  0  0  0
  -23.6601  -27.9720   22.1365 C   0  0  1  0  0  0  0  0  0  0  0  0
  -27.6870  -13.0326   20.6968 C   0  0  1  0  0  0  0  0  0  0  0  0
  -25.8475  -18.2119   18.7770 C   0  0  1  0  0  0  0  0  0  0  0  0
  -27.1242  -19.6551   14.7882 C   0  0  0  0  0  0  0  0  0  0  0  0
  -30.7950  -29.6277   19.6159 C   0  0  0  0  0  0  0  0  0  0  0  0
  -24.4007  -29.6361   17.8889 C   0  0  0  0  0  0  0  0  0  0  0  0
  -26.8034  -29.8575   17.2210 C   0  0  0  0  0  0  0  0  0  0  0  0
  -25.8109  -31.4633   18.8516 C   0  0  0  0  0  0  0  0  0  0  0  0
  -29.8878  -27.4163   22.5761 C   0  0  0  0  0  0  0  0  0  0  0  0
  -25.8011  -19.6645   20.8149 C   0  0  0  0  0  0  0  0  0  0  0  0
  -24.9388  -20.6868   21.5288 C   0  0  0  0  0  0  0  0  0  1  0  0
  -26.2742  -29.0865   19.5782 C   0  0  1  0  0  0  0  0  0  0  0  0
  -29.8927  -29.0739   20.7077 C   0  0  2  0  0  0  0  0  0  0  0  0
  -25.8130  -29.9873   18.3978 C   0  0  0  0  0  0  0  0  0  0  0  0
  -25.7399  -11.5637   20.3305 N   0  0  0  0  0  0  0  0  0  0  0  0
  -26.1926  -12.8089   20.5557 N   0  0  0  0  0  0  0  0  0  0  0  0
  -24.7321  -27.9428   21.1395 N   0  0  0  0  0  0  0  0  0  0  0  0
  -29.7903  -13.5759   19.5104 N   0  0  0  0  0  0  0  0  0  0  0  0
  -29.7160  -15.8823   18.8876 N   0  0  0  0  0  0  0  0  0  0  0  0
  -28.1430  -18.0671   17.9174 N   0  0  0  0  0  0  0  0  0  0  0  0
  -25.4867  -15.0503   20.8533 N   0  0  0  0  0  0  0  0  0  0  0  0
  -21.6138  -12.8123   20.2302 N   0  0  0  0  0  0  0  0  0  0  0  0
  -21.3616  -28.7204   22.0144 N   0  0  0  0  0  0  0  0  0  0  0  0
  -27.5973  -29.4142   20.0984 N   0  0  0  0  0  0  0  0  0  0  0  0
  -25.0954  -19.1973   19.5856 N   0  3  0  0  0  0  0  0  0  0  0  0
  -30.6479  -28.0304   21.4571 N   0  3  0  0  0  0  0  0  0  0  0  0
  -22.5297  -14.8820   20.5994 O   0  0  0  0  0  0  0  0  0  0  0  0
  -22.2723  -27.4266   20.3058 O   0  0  0  0  0  0  0  0  0  0  0  0
  -25.1359  -30.2324   21.3153 O   0  0  0  0  0  0  0  0  0  0  0  0
  -28.5381  -27.3263   19.7340 O   0  0  0  0  0  0  0  0  0  0  0  0
  -31.5912  -14.9719   19.8716 O   0  0  0  0  0  0  0  0  0  0  0  0
  -21.0791   -7.3380   19.3459 O   0  0  0  0  0  0  0  0  0  0  0  0
  -24.6848  -21.7838   20.6613 O   0  0  0  0  0  0  0  0  0  1  0  0
  -17.0259   -7.9229   15.6536 F   0  0  0  0  0  0  0  0  0  0  0  0
  -20.9554   -5.7205   17.1075 F   0  0  0  0  0  0  0  0  0  0  0  0
  1  2  1  0  0  0  0
  1  5  2  0  0  0  0
  2  6  2  0  0  0  0
  3  8  2  0  0  0  0
  3 15  1  0  0  0  0
  4  9  1  0  0  0  0
  4 15  2  0  0  0  0
  5 17  1  0  0  0  0
  6 19  1  0  0  0  0
  7 10  2  0  0  0  0
  7 18  1  0  0  0  0
  8 21  1  0  0  0  0
  9 21  2  0  0  0  0
 10 22  1  0  0  0  0
 11 12  2  0  0  0  0
 11 23  1  0  0  0  0
 12 24  1  0  0  0  0
 13 20  1  0  0  0  0
 13 22  2  0  0  0  0
 14 24  2  0  0  0  0
 14 25  1  0  0  0  0
 15 26  1  0  0  0  0
 16 26  1  0  0  0  0
 16 27  2  0  0  0  0
 16 30  1  0  0  0  0
 17 19  2  0  0  0  0
 17 35  1  0  0  0  0
 18 20  2  0  0  0  0
 18 36  1  0  0  0  0
 19 49  1  0  0  0  0
 20 37  1  0  0  0  0
 21 82  1  0  0  0  0
 22 83  1  0  0  0  0
 23 25  2  0  0  0  0
 23 82  1  0  0  0  0
 24 84  1  0  0  0  0
 25 85  1  0  0  0  0
 26 65  2  0  0  0  0
 27 66  1  0  0  0  0
 27 71  1  0  0  0  0
 28 29  2  0  0  0  0
 28 38  1  0  0  0  0
 28 50  1  0  0  0  0
 29 54  1  0  0  0  0
 30 72  1  0  0  0  0
 30 77  2  0  0  0  0
 31 51  1  0  0  0  0
 31 73  1  0  0  0  0
 31 78  2  0  0  0  0
 32 62  1  0  0  0  0
 32 67  1  0  0  0  0
 32 79  2  0  0  0  0
 33 63  1  0  0  0  0
 33 74  1  0  0  0  0
 33 80  2  0  0  0  0
 34 68  1  0  0  0  0
 34 69  1  0  0  0  0
 34 81  2  0  0  0  0
 35 39  1  0  0  0  0
 36 51  1  0  0  0  0
 37 67  1  0  0  0  0
 38 53  1  0  0  0  0
 39 41  1  0  0  0  0
 40 42  1  0  0  0  0
 40 43  1  0  0  0  0
 41 49  1  0  0  0  0
 42 52  1  0  0  0  0
 43 68  1  0  0  0  0
 44 46  1  0  0  0  0
 44 69  1  0  0  0  0
 45 47  1  0  0  0  0
 45 69  1  0  0  0  0
 46 70  1  0  0  0  0
 47 70  1  0  0  0  0
 48 52  1  0  0  0  0
 48 68  1  0  0  0  0
 49 73  1  0  0  0  0
 50 53  1  0  0  0  0
 50 70  1  0  0  0  0
 51 67  1  0  0  0  0
 52 66  1  0  0  0  0
 53 75  1  0  0  0  0
 55 63  1  0  0  0  0
 56 64  1  0  0  0  0
 57 64  1  0  0  0  0
 58 64  1  0  0  0  0
 59 76  1  0  0  0  0
 60 61  1  0  0  0  0
 60 75  1  0  0  0  0
 61 83  1  0  0  0  0
 62 64  1  0  0  0  0
 62 74  1  0  0  0  0
 63 76  1  0  0  0  0
 65 66  1  0  0  0  0
M  CHG  2  75   1  76   1
M  ISO  4  34 100  61 101  69 100  83 101
M  END
> <Batch ID>
0193

> <Smiles>
CC=C1CC(NC[101CH2:1][101O:1]c2ccc3c(c2)CN(C(=O)C(NC(=O)C(C)NC)C(C)(C)C)C(C(=O)NC2CCCc4ccccc42)C3)C1N1CC[100N:0]([100C:0](=O)N2CCCC(n3nc(-c4ccc(Oc5ccc(F)cc5F)cc4)c(C(N)=O)c3N)C2)CC1

> <Shape>
0.221

> <Color>
0.158

> <Negative vol penalty>
0.000

$$$$

  -OEChem-04052323323D

 87 96  0     1  0  0  0  0  0999 V2000
  -20.3434  -18.0548   16.7082 C   0  0  0  0  0  0  0  0  0  0  0  0
  -21.3767  -18.5705   17.4839 C   0  0  0  0  0  0  0  0  0  0  0  0
  -20.4572  -27.7076   24.1201 C   0  0  0  0  0  0  0  0  0  0  0  0
  -20.5778  -27.4191   21.7245 C   0  0  0  0  0  0  0  0  0  0  0  0
  -20.1392  -16.6769   16.6481 C   0  0  0  0  0  0  0  0  0  0  0  0
  -22.2059  -17.7086   18.2008 C   0  0  0  0  0  0  0  0  0  0  0  0
  -27.1038  -18.9220   17.7735 C   0  0  0  0  0  0  0  0  0  0  0  0
  -19.0653  -27.6428   24.0579 C   0  0  0  0  0  0  0  0  0  0  0  0
  -19.1858  -27.3543   21.6622 C   0  0  0  0  0  0  0  0  0  0  0  0
  -27.5642  -19.9913   18.5406 C   0  0  0  0  0  0  0  0  0  0  0  0
  -15.4952  -27.1920   24.5741 C   0  0  0  0  0  0  0  0  0  0  0  0
  -14.8399  -26.4014   25.5181 C   0  0  0  0  0  0  0  0  0  0  0  0
  -28.4700  -18.4390   20.1498 C   0  0  0  0  0  0  0  0  0  0  0  0
  -16.0363  -24.4592   24.7219 C   0  0  0  0  0  0  0  0  0  0  0  0
  -21.2135  -27.5958   22.9534 C   0  0  0  0  0  0  0  0  0  0  0  0
  -23.5458  -26.5902   23.1910 C   0  0  0  0  0  0  0  0  0  0  0  0
  -20.9723  -15.7971   17.3571 C   0  0  0  0  0  0  0  0  0  0  0  0
  -27.3140  -17.6011   18.1950 C   0  0  0  0  0  0  0  0  0  0  0  0
  -22.0118  -16.3177   18.1513 C   0  0  0  0  0  0  0  0  0  0  0  0
  -28.0136  -17.3547   19.3849 C   0  0  0  0  0  0  0  0  0  0  0  0
  -29.4791  -24.3276   20.4715 C   0  0  0  0  0  0  0  0  0  0  0  0
  -18.4296  -27.4662   22.8290 C   0  0  0  0  0  0  0  0  0  0  0  0
  -28.2449  -19.7500   19.7304 C   0  0  0  0  0  0  0  0  0  0  0  0
  -16.4210  -26.6163   23.7040 C   0  0  0  0  0  0  0  0  0  0  0  0
  -15.1105  -25.0350   25.5920 C   0  0  0  0  0  0  0  0  0  0  0  0
  -16.6916  -25.2499   23.7779 C   0  0  0  0  0  0  0  0  0  0  0  0
  -22.6514  -27.6632   23.0170 C   0  0  0  0  0  0  0  0  0  0  0  0
  -29.0293  -23.1084   20.9357 C   0  0  0  0  0  0  0  0  0  0  0  0
  -30.0061  -25.1726   21.4267 C   0  0  0  0  0  0  0  0  0  0  0  0
  -24.7888  -27.1744   23.1824 C   0  0  0  0  0  0  0  0  0  0  0  0
  -29.6205  -23.6439   23.0643 C   0  0  0  0  0  0  0  0  0  0  0  0
  -23.2771  -25.1904   23.3465 C   0  0  0  0  0  0  0  0  0  0  0  0
  -25.4234  -15.1724   18.9893 C   0  0  0  0  0  0  0  0  0  0  0  0
  -28.2258  -13.5445   19.1281 C   0  0  0  0  0  0  0  0  0  0  0  0
  -31.6134  -13.6374   19.5310 C   0  0  0  0  0  0  0  0  0  0  0  0
  -28.4594  -30.7740   21.0110 C   0  0  0  0  0  0  0  0  0  0  0  0
  -20.6832  -14.3180   17.2987 C   0  0  0  0  0  0  0  0  0  0  0  0
  -26.8345  -16.4583   17.3427 C   0  0  0  0  0  0  0  0  0  0  0  0
  -28.2828  -15.9549   19.8713 C   0  0  0  0  0  0  0  0  0  0  0  0
  -21.8395  -13.4515   17.7909 C   0  0  0  0  0  0  0  0  0  0  0  0
  -26.1390  -32.0446   23.3938 C   0  0  0  0  0  0  0  0  0  0  0  0
  -22.3929  -13.9955   19.1042 C   0  0  0  0  0  0  0  0  0  0  0  0
  -25.0959  -30.9326   23.5176 C   0  0  0  0  0  0  0  0  0  0  0  0
  -28.5836  -25.9271   18.6598 C   0  0  0  0  0  0  0  0  0  0  0  0
  -28.0512  -24.5655   18.3393 C   0  0  0  0  0  0  0  0  0  0  0  0
  -26.6542  -32.1784   21.9625 C   0  0  0  0  0  0  0  0  0  0  0  0
  -26.1253  -29.8174   21.4939 C   0  0  0  0  0  0  0  0  0  0  0  0
  -22.9479  -15.4136   18.9236 C   0  0  1  0  0  0  0  0  0  0  0  0
  -26.6541  -15.1624   18.1272 C   0  0  1  0  0  0  0  0  0  0  0  0
  -25.6171  -29.6071   22.9305 C   0  0  2  0  0  0  0  0  0  0  0  0
  -29.3960  -24.6996   19.0305 C   0  0  0  0  0  0  0  0  0  0  0  0
  -29.6985  -23.2642   24.5041 C   0  0  0  0  0  0  0  0  0  0  0  0
  -30.6315  -24.4062   18.2259 C   0  0  0  0  0  0  0  0  0  0  0  0
  -33.6267  -12.1429   19.6334 C   0  0  0  0  0  0  0  0  0  0  0  0
  -27.4469  -12.6931   21.9527 C   0  0  0  0  0  0  0  0  0  0  0  0
  -29.8320  -12.0358   22.3372 C   0  0  0  0  0  0  0  0  0  0  0  0
  -28.4936  -10.8904   20.5710 C   0  0  0  0  0  0  0  0  0  0  0  0
  -32.8457  -14.9420   17.1776 C   0  0  0  0  0  0  0  0  0  0  0  0
  -28.4344  -22.1063   19.9906 C   0  0  0  0  0  0  0  0  0  1  0  0
  -31.1166  -28.7869   21.1785 C   0  0  0  0  0  0  0  0  0  0  0  0
  -30.6573  -27.5307   21.9177 C   0  0  0  0  0  0  0  0  0  0  0  0
  -30.1676  -29.2388   20.0706 C   0  0  0  0  0  0  0  0  0  0  0  0
  -29.2526  -13.2735   20.2010 C   0  0  1  0  0  0  0  0  0  0  0  0
  -32.7397  -12.9965   18.7404 C   0  0  2  0  0  0  0  0  0  0  0  0
  -28.7497  -12.2497   21.2576 C   0  0  0  0  0  0  0  0  0  0  0  0
  -23.2732  -28.8401   22.9061 N   0  0  0  0  0  0  0  0  0  0  0  0
  -29.0849  -22.7323   22.2303 N   0  0  0  0  0  0  0  0  0  0  0  0
  -30.0925  -24.8620   22.7368 N   0  0  0  0  0  0  0  0  0  0  0  0
  -24.5718  -28.5099   23.0107 N   0  0  0  0  0  0  0  0  0  0  0  0
  -27.7886  -14.8711   19.0060 N   0  0  0  0  0  0  0  0  0  0  0  0
  -27.1352  -30.8870   21.4657 N   0  0  0  0  0  0  0  0  0  0  0  0
  -26.0354  -26.6709   23.3050 N   0  0  0  0  0  0  0  0  0  0  0  0
  -21.9433  -24.7605   23.3319 N   0  0  0  0  0  0  0  0  0  0  0  0
  -30.4855  -26.4401   21.0139 N   0  0  0  0  0  0  0  0  0  0  0  0
  -24.2482  -15.3706   18.2899 N   0  0  0  0  0  0  0  0  0  0  0  0
  -30.4701  -12.8670   19.5074 N   0  0  0  0  0  0  0  0  0  0  0  0
  -28.8362  -29.5139   20.5630 N   0  0  0  0  0  0  0  0  0  0  0  0
  -33.5854  -14.0441   18.1014 N   0  3  0  0  0  0  0  0  0  0  0  0
  -24.1920  -24.3479   23.5105 O   0  0  0  0  0  0  0  0  0  0  0  0
  -25.5319  -15.0107   20.1991 O   0  0  0  0  0  0  0  0  0  0  0  0
  -27.8315  -12.6149   18.4196 O   0  0  0  0  0  0  0  0  0  0  0  0
  -31.7367  -14.7121   20.1144 O   0  0  0  0  0  0  0  0  0  0  0  0
  -29.2491  -31.7245   21.0097 O   0  0  0  0  0  0  0  0  0  0  0  0
  -17.0713  -27.4027   22.7679 O   0  0  0  0  0  0  0  0  0  0  0  0
  -28.6947  -20.7919   20.4814 O   0  0  0  0  0  0  0  0  0  1  0  0
  -14.4823  -24.2761   26.4996 F   0  0  0  0  0  0  0  0  0  0  0  0
  -17.5809  -24.6913   22.9454 F   0  0  0  0  0  0  0  0  0  0  0  0
  1  2  1  0  0  0  0
  1  5  2  0  0  0  0
  2  6  2  0  0  0  0
  3  8  2  0  0  0  0
  3 15  1  0  0  0  0
  4  9  1  0  0  0  0
  4 15  2  0  0  0  0
  5 17  1  0  0  0  0
  6 19  1  0  0  0  0
  7 10  2  0  0  0  0
  7 18  1  0  0  0  0
  8 22  1  0  0  0  0
  9 22  2  0  0  0  0
 10 23  1  0  0  0  0
 11 12  2  0  0  0  0
 11 24  1  0  0  0  0
 12 25  1  0  0  0  0
 13 20  1  0  0  0  0
 13 23  2  0  0  0  0
 14 25  2  0  0  0  0
 14 26  1  0  0  0  0
 15 27  1  0  0  0  0
 16 27  1  0  0  0  0
 16 30  2  0  0  0  0
 16 32  1  0  0  0  0
 17 19  2  0  0  0  0
 17 37  1  0  0  0  0
 18 20  2  0  0  0  0
 18 38  1  0  0  0  0
 19 48  1  0  0  0  0
 20 39  1  0  0  0  0
 21 28  2  0  0  0  0
 21 29  1  0  0  0  0
 21 51  1  0  0  0  0
 22 84  1  0  0  0  0
 23 85  1  0  0  0  0
 24 26  2  0  0  0  0
 24 84  1  0  0  0  0
 25 86  1  0  0  0  0
 26 87  1  0  0  0  0
 27 66  2  0  0  0  0
 28 59  1  0  0  0  0
 28 67  1  0  0  0  0
 29 68  2  0  0  0  0
 29 74  1  0  0  0  0
 30 69  1  0  0  0  0
 30 72  1  0  0  0  0
 31 52  1  0  0  0  0
 31 67  2  0  0  0  0
 31 68  1  0  0  0  0
 32 73  1  0  0  0  0
 32 79  2  0  0  0  0
 33 49  1  0  0  0  0
 33 75  1  0  0  0  0
 33 80  2  0  0  0  0
 34 63  1  0  0  0  0
 34 70  1  0  0  0  0
 34 81  2  0  0  0  0
 35 64  1  0  0  0  0
 35 76  1  0  0  0  0
 35 82  2  0  0  0  0
 36 71  1  0  0  0  0
 36 77  1  0  0  0  0
 36 83  2  0  0  0  0
 37 40  1  0  0  0  0
 38 49  1  0  0  0  0
 39 70  1  0  0  0  0
 40 42  1  0  0  0  0
 41 43  1  0  0  0  0
 41 46  1  0  0  0  0
 42 48  1  0  0  0  0
 43 50  1  0  0  0  0
 44 45  1  0  0  0  0
 44 51  1  0  0  0  0
 45 51  1  0  0  0  0
 46 71  1  0  0  0  0
 47 50  1  0  0  0  0
 47 71  1  0  0  0  0
 48 75  1  0  0  0  0
 49 70  1  0  0  0  0
 50 69  1  0  0  0  0
 51 53  1  0  0  0  0
 54 64  1  0  0  0  0
 55 65  1  0  0  0  0
 56 65  1  0  0  0  0
 57 65  1  0  0  0  0
 58 78  1  0  0  0  0
 59 85  1  0  0  0  0
 60 61  1  0  0  0  0
 60 62  1  0  0  0  0
 61 74  1  0  0  0  0
 62 77  1  0  0  0  0
 63 65  1  0  0  0  0
 63 76  1  0  0  0  0
 64 78  1  0  0  0  0
 66 69  1  0  0  0  0
M  CHG  1  78   1
M  ISO  4  36 100  59 101  77 100  85 101
M  END
> <Batch ID>
0193

> <Smiles>
CNC(C)C(=O)NC(C(=O)N1Cc2cc([101O:1][101CH2:1]c3nc(C)nc(NCCC[100NH:0][100C:0](=O)N4CCCC(n5nc(-c6ccc(Oc7ccc(F)cc7F)cc6)c(C(N)=O)c5N)C4)c3C3(C)CC3)ccc2CC1C(=O)NC1CCCc2ccccc21)C(C)(C)C

> <Shape>
0.235

> <Color>
0.074

> <Negative vol penalty>
0.000

$$$$

  -OEChem-04052323323D

 84 93  0     1  0  0  0  0  0999 V2000
  -28.4503  -33.1215   27.4282 C   0  0  0  0  0  0  0  0  0  0  0  0
  -28.3442  -32.0166   26.5895 C   0  0  0  0  0  0  0  0  0  0  0  0
  -23.2874   -9.6691   20.3454 C   0  0  0  0  0  0  0  0  0  0  0  0
  -24.0855  -10.0652   22.5912 C   0  0  0  0  0  0  0  0  0  0  0  0
  -27.6879  -34.2615   27.1772 C   0  0  0  0  0  0  0  0  0  0  0  0
  -27.4747  -32.0508   25.4999 C   0  0  0  0  0  0  0  0  0  0  0  0
  -29.5770  -30.2062   21.2782 C   0  0  0  0  0  0  0  0  0  0  0  0
  -22.6603   -8.4994   20.7745 C   0  0  0  0  0  0  0  0  0  0  0  0
  -23.4583   -8.8955   23.0203 C   0  0  0  0  0  0  0  0  0  0  0  0
  -29.6582  -28.8194   21.1608 C   0  0  0  0  0  0  0  0  0  0  0  0
  -19.8276   -7.6489   22.4132 C   0  0  0  0  0  0  0  0  0  0  0  0
  -18.5222   -7.4169   21.9801 C   0  0  0  0  0  0  0  0  0  0  0  0
  -27.7072  -28.8314   19.7420 C   0  0  0  0  0  0  0  0  0  0  0  0
  -19.2380   -5.3672   20.9203 C   0  0  0  0  0  0  0  0  0  0  0  0
  -29.9096  -22.9089   19.6236 C   0  0  0  0  0  0  0  0  0  0  0  0
  -29.3051  -23.7490   21.5637 C   0  0  0  0  0  0  0  0  0  0  0  0
  -24.0001  -10.4520   21.2537 C   0  0  0  0  0  0  0  0  0  0  0  0
  -24.1000  -12.9562   20.7775 C   0  0  0  0  0  0  0  0  0  0  0  0
  -26.8158  -34.3132   26.0784 C   0  0  0  0  0  0  0  0  0  0  0  0
  -28.5522  -30.9161   20.6362 C   0  0  0  0  0  0  0  0  0  0  0  0
  -26.6989  -33.1920   25.2348 C   0  0  0  0  0  0  0  0  0  0  0  0
  -27.6168  -30.2275   19.8508 C   0  0  0  0  0  0  0  0  0  0  0  0
  -29.3893  -22.5585   20.8839 C   0  0  0  0  0  0  0  0  0  0  0  0
  -22.7457   -8.1126   22.1120 C   0  0  0  0  0  0  0  0  0  0  0  0
  -28.7215  -28.1314   20.3950 C   0  0  0  0  0  0  0  0  0  0  0  0
  -20.8383   -6.7401   22.0998 C   0  0  0  0  0  0  0  0  0  0  0  0
  -18.2274   -6.2760   21.2337 C   0  0  0  0  0  0  0  0  0  0  0  0
  -20.5435   -5.5992   21.3533 C   0  0  0  0  0  0  0  0  0  0  0  0
  -24.6486  -11.6601   20.8109 C   0  0  0  0  0  0  0  0  0  0  0  0
  -25.1098  -13.7436   20.2807 C   0  0  0  0  0  0  0  0  0  0  0  0
  -22.7945  -13.4079   21.1612 C   0  0  0  0  0  0  0  0  0  0  0  0
  -26.1475  -32.7540   21.6075 C   0  0  0  0  0  0  0  0  0  0  0  0
  -25.7534  -33.2484   18.4259 C   0  0  0  0  0  0  0  0  0  0  0  0
  -26.2332  -32.1274   15.2384 C   0  0  0  0  0  0  0  0  0  0  0  0
  -30.6405  -15.0252   20.6388 C   0  0  0  0  0  0  0  0  0  0  0  0
  -25.9770  -35.5500   25.8749 C   0  0  0  0  0  0  0  0  0  0  0  0
  -28.4943  -32.4148   20.7510 C   0  0  0  0  0  0  0  0  0  0  0  0
  -26.5092  -30.9450   19.1249 C   0  0  0  0  0  0  0  0  0  0  0  0
  -25.3575  -35.6436   24.4829 C   0  0  0  0  0  0  0  0  0  0  0  0
  -29.5180  -12.5208   18.1472 C   0  0  0  0  0  0  0  0  0  0  0  0
  -24.7299  -34.3109   24.0871 C   0  0  0  0  0  0  0  0  0  0  0  0
  -28.1361  -12.1320   18.6695 C   0  0  0  0  0  0  0  0  0  0  0  0
  -31.0610  -18.1048   22.1802 C   0  0  0  0  0  0  0  0  0  0  0  0
  -29.0392  -18.1633   20.6665 C   0  0  0  0  0  0  0  0  0  0  0  0
  -30.4404  -12.9799   19.2720 C   0  0  0  0  0  0  0  0  0  0  0  0
  -30.7340  -16.6500   22.5061 C   0  0  0  0  0  0  0  0  0  0  0  0
  -28.7668  -16.6942   21.0029 C   0  0  0  0  0  0  0  0  0  0  0  0
  -28.4937  -13.6954   20.6214 C   0  0  0  0  0  0  0  0  0  0  0  0
  -25.7852  -33.1999   24.0284 C   0  0  1  0  0  0  0  0  0  0  0  0
  -27.1057  -32.9821   20.4728 C   0  0  1  0  0  0  0  0  0  0  0  0
  -27.5269  -13.2703   19.5059 C   0  0  2  0  0  0  0  0  0  0  0  0
  -29.7874  -18.8584   21.8020 C   0  0  0  0  0  0  0  0  0  0  0  0
  -25.7674  -32.7299   12.8473 C   0  0  0  0  0  0  0  0  0  0  0  0
  -22.8440  -32.4007   18.7816 C   0  0  0  0  0  0  0  0  0  0  0  0
  -22.6996  -32.1047   16.2997 C   0  0  0  0  0  0  0  0  0  0  0  0
  -23.1822  -34.3560   17.2596 C   0  0  0  0  0  0  0  0  0  0  0  0
  -29.1172  -32.2384   14.5832 C   0  0  0  0  0  0  0  0  0  0  0  0
  -29.0088  -21.1930   21.3755 C   0  0  0  0  0  0  0  0  0  0  0  0
  -29.8639  -26.1179   20.9683 C   0  0  0  0  0  0  0  0  0  1  0  0
  -24.9707  -32.5703   17.3275 C   0  0  1  0  0  0  0  0  0  0  0  0
  -26.7606  -32.8211   13.9954 C   0  0  2  0  0  0  0  0  0  0  0  0
  -23.4437  -32.8439   17.4322 C   0  0  0  0  0  0  0  0  0  0  0  0
  -30.1395  -24.2195   19.5070 N   0  0  0  0  0  0  0  0  0  0  0  0
  -25.9089  -11.6220   20.3703 N   0  0  0  0  0  0  0  0  0  0  0  0
  -29.7619  -24.7030   20.7026 N   0  0  0  0  0  0  0  0  0  0  0  0
  -26.1607  -12.9040   20.0552 N   0  0  0  0  0  0  0  0  0  0  0  0
  -26.4911  -32.4097   19.2733 N   0  0  0  0  0  0  0  0  0  0  0  0
  -29.8210  -14.0290   20.0823 N   0  0  0  0  0  0  0  0  0  0  0  0
  -30.0060  -16.0134   21.4068 N   0  0  0  0  0  0  0  0  0  0  0  0
  -25.1924  -15.0654   20.0190 N   0  0  0  0  0  0  0  0  0  0  0  0
  -21.8792  -12.4666   21.6517 N   0  0  0  0  0  0  0  0  0  0  0  0
  -26.5576  -33.3004   22.8086 N   0  0  0  0  0  0  0  0  0  0  0  0
  -25.5707  -33.0047   16.0707 N   0  0  0  0  0  0  0  0  0  0  0  0
  -30.1470  -20.2354   21.3753 N   0  3  0  0  0  0  0  0  0  0  0  0
  -28.0421  -32.1981   13.5588 N   0  3  0  0  0  0  0  0  0  0  0  0
  -22.4444  -14.6079   21.0565 O   0  0  0  0  0  0  0  0  0  0  0  0
  -25.1121  -32.1298   21.4077 O   0  0  0  0  0  0  0  0  0  0  0  0
  -25.7175  -34.4775   18.5238 O   0  0  0  0  0  0  0  0  0  0  0  0
  -26.3898  -30.9266   15.4482 O   0  0  0  0  0  0  0  0  0  0  0  0
  -31.8646  -15.0313   20.4578 O   0  0  0  0  0  0  0  0  0  0  0  0
  -22.1337   -6.9714   22.5311 O   0  0  0  0  0  0  0  0  0  0  0  0
  -28.7985  -26.7689   20.2785 O   0  0  0  0  0  0  0  0  0  1  0  0
  -16.9734   -6.0526   20.8192 F   0  0  0  0  0  0  0  0  0  0  0  0
  -21.5101   -4.7219   21.0501 F   0  0  0  0  0  0  0  0  0  0  0  0
  1  2  1  0  0  0  0
  1  5  2  0  0  0  0
  2  6  2  0  0  0  0
  3  8  2  0  0  0  0
  3 17  1  0  0  0  0
  4  9  1  0  0  0  0
  4 17  2  0  0  0  0
  5 19  1  0  0  0  0
  6 21  1  0  0  0  0
  7 10  2  0  0  0  0
  7 20  1  0  0  0  0
  8 24  1  0  0  0  0
  9 24  2  0  0  0  0
 10 25  1  0  0  0  0
 11 12  2  0  0  0  0
 11 26  1  0  0  0  0
 12 27  1  0  0  0  0
 13 22  1  0  0  0  0
 13 25  2  0  0  0  0
 14 27  2  0  0  0  0
 14 28  1  0  0  0  0
 15 23  1  0  0  0  0
 15 63  2  0  0  0  0
 16 23  2  0  0  0  0
 16 65  1  0  0  0  0
 17 29  1  0  0  0  0
 18 29  1  0  0  0  0
 18 30  2  0  0  0  0
 18 31  1  0  0  0  0
 19 21  2  0  0  0  0
 19 36  1  0  0  0  0
 20 22  2  0  0  0  0
 20 37  1  0  0  0  0
 21 49  1  0  0  0  0
 22 38  1  0  0  0  0
 23 58  1  0  0  0  0
 24 81  1  0  0  0  0
 25 82  1  0  0  0  0
 26 28  2  0  0  0  0
 26 81  1  0  0  0  0
 27 83  1  0  0  0  0
 28 84  1  0  0  0  0
 29 64  2  0  0  0  0
 30 66  1  0  0  0  0
 30 70  1  0  0  0  0
 31 71  1  0  0  0  0
 31 76  2  0  0  0  0
 32 50  1  0  0  0  0
 32 72  1  0  0  0  0
 32 77  2  0  0  0  0
 33 60  1  0  0  0  0
 33 67  1  0  0  0  0
 33 78  2  0  0  0  0
 34 61  1  0  0  0  0
 34 73  1  0  0  0  0
 34 79  2  0  0  0  0
 35 68  1  0  0  0  0
 35 69  1  0  0  0  0
 35 80  2  0  0  0  0
 36 39  1  0  0  0  0
 37 50  1  0  0  0  0
 38 67  1  0  0  0  0
 39 41  1  0  0  0  0
 40 42  1  0  0  0  0
 40 45  1  0  0  0  0
 41 49  1  0  0  0  0
 42 51  1  0  0  0  0
 43 46  1  0  0  0  0
 43 52  1  0  0  0  0
 44 47  1  0  0  0  0
 44 52  1  0  0  0  0
 45 68  1  0  0  0  0
 46 69  1  0  0  0  0
 47 69  1  0  0  0  0
 48 51  1  0  0  0  0
 48 68  1  0  0  0  0
 49 72  1  0  0  0  0
 50 67  1  0  0  0  0
 51 66  1  0  0  0  0
 52 74  1  0  0  0  0
 53 61  1  0  0  0  0
 54 62  1  0  0  0  0
 55 62  1  0  0  0  0
 56 62  1  0  0  0  0
 57 75  1  0  0  0  0
 58 74  1  0  0  0  0
 59 65  1  0  0  0  0
 59 82  1  0  0  0  0
 60 62  1  0  0  0  0
 60 73  1  0  0  0  0
 61 75  1  0  0  0  0
 63 65  1  0  0  0  0
 64 66  1  0  0  0  0
M  CHG  2  74   1  75   1
M  ISO  4  35 100  59 101  69 100  82 101
M  END
> <Batch ID>
0193

> <Smiles>
CNC(C)C(=O)NC(C(=O)N1Cc2cc([101O:1][101CH2:1]n3cc(CNC4CC[100N:0]([100C:0](=O)N5CCCC(n6nc(-c7ccc(Oc8ccc(F)cc8F)cc7)c(C(N)=O)c6N)C5)CC4)cn3)ccc2CC1C(=O)NC1CCCc2ccccc21)C(C)(C)C

> <Shape>
0.309

> <Color>
0.182

> <Negative vol penalty>
0.000

$$$$

  -OEChem-04052323323D

 85 95  0     1  0  0  0  0  0999 V2000
  -27.1698  -35.5200   23.6742 C   0  0  0  0  0  0  0  0  0  0  0  0
  -27.5299  -34.2017   23.4136 C   0  0  0  0  0  0  0  0  0  0  0  0
  -24.7751   -8.6928   21.5150 C   0  0  0  0  0  0  0  0  0  0  0  0
  -23.2706   -9.4330   19.7756 C   0  0  0  0  0  0  0  0  0  0  0  0
  -25.8699  -35.8191   24.0798 C   0  0  0  0  0  0  0  0  0  0  0  0
  -26.5904  -33.1816   23.5595 C   0  0  0  0  0  0  0  0  0  0  0  0
  -26.6675  -29.9030   19.7008 C   0  0  0  0  0  0  0  0  0  0  0  0
  -23.8238   -7.7673   21.9440 C   0  0  0  0  0  0  0  0  0  0  0  0
  -22.3193   -8.5074   20.2046 C   0  0  0  0  0  0  0  0  0  0  0  0
  -27.6875  -28.9526   19.6931 C   0  0  0  0  0  0  0  0  0  0  0  0
  -22.7059   -4.7213   20.9926 C   0  0  0  0  0  0  0  0  0  0  0  0
  -23.1422   -3.4270   21.2753 C   0  0  0  0  0  0  0  0  0  0  0  0
  -26.1558  -27.3104   20.5743 C   0  0  0  0  0  0  0  0  0  0  0  0
  -22.3685   -3.6635   23.5518 C   0  0  0  0  0  0  0  0  0  0  0  0
  -28.4972  -23.2249   19.6642 C   0  0  0  0  0  0  0  0  0  0  0  0
  -24.4985   -9.5257   20.4308 C   0  0  0  0  0  0  0  0  0  0  0  0
  -26.4907  -10.2812   19.0280 C   0  0  0  0  0  0  0  0  0  0  0  0
  -24.9113  -34.8034   24.2215 C   0  0  0  0  0  0  0  0  0  0  0  0
  -25.3846  -29.5666   20.1563 C   0  0  0  0  0  0  0  0  0  0  0  0
  -25.2768  -33.4674   23.9687 C   0  0  0  0  0  0  0  0  0  0  0  0
  -25.1206  -28.2577   20.5844 C   0  0  0  0  0  0  0  0  0  0  0  0
  -27.5457  -23.0247   18.6850 C   0  0  0  0  0  0  0  0  0  0  0  0
  -22.5960   -7.6745   21.2888 C   0  0  0  0  0  0  0  0  0  0  0  0
  -27.4325  -27.6569   20.1326 C   0  0  0  0  0  0  0  0  0  0  0  0
  -22.1009   -5.4868   21.9895 C   0  0  0  0  0  0  0  0  0  0  0  0
  -22.9735   -2.8981   22.5549 C   0  0  0  0  0  0  0  0  0  0  0  0
  -21.9322   -4.9579   23.2691 C   0  0  0  0  0  0  0  0  0  0  0  0
  -25.4805  -10.4824   19.9876 C   0  0  0  0  0  0  0  0  0  0  0  0
  -26.9124  -24.1618   18.2265 C   0  0  0  0  0  0  0  0  0  0  0  0
  -27.1511  -11.4840   18.9673 C   0  0  0  0  0  0  0  0  0  0  0  0
  -28.1271  -25.4675   19.6360 C   0  0  0  0  0  0  0  0  0  1  0  0
  -26.8039   -9.1117   18.2600 C   0  0  0  0  0  0  0  0  0  0  0  0
  -23.5184  -30.5517   22.5335 C   0  0  0  0  0  0  0  0  0  0  0  0
  -21.3490  -28.5968   21.1213 C   0  0  0  0  0  0  0  0  0  0  0  0
  -20.7518  -25.9016   19.1148 C   0  0  0  0  0  0  0  0  0  0  0  0
  -25.4003  -16.9938   20.1265 C   0  0  0  0  0  0  0  0  0  0  0  0
  -23.5317  -35.1700   24.7080 C   0  0  0  0  0  0  0  0  0  0  0  0
  -24.2883  -30.5962   20.1332 C   0  0  0  0  0  0  0  0  0  0  0  0
  -23.7552  -27.8404   21.0640 C   0  0  0  0  0  0  0  0  0  0  0  0
  -22.4934  -34.0751   24.4768 C   0  0  0  0  0  0  0  0  0  0  0  0
  -28.2211  -15.3073   21.6394 C   0  0  0  0  0  0  0  0  0  0  0  0
  -23.0413  -32.7194   24.9115 C   0  0  0  0  0  0  0  0  0  0  0  0
  -24.8089  -25.1203   17.0730 C   0  0  0  0  0  0  0  0  0  0  0  0
  -24.4475  -23.7541   17.5660 C   0  0  0  0  0  0  0  0  0  0  0  0
  -27.9252  -13.8484   21.2875 C   0  0  0  0  0  0  0  0  0  0  0  0
  -26.9397  -16.0693   21.9657 C   0  0  0  0  0  0  0  0  0  0  0  0
  -25.6070  -14.5620   20.5442 C   0  0  0  0  0  0  0  0  0  0  0  0
  -25.8130  -19.6807   18.3600 C   0  0  0  0  0  0  0  0  0  0  0  0
  -26.0302  -20.7845   20.1179 C   0  0  0  0  0  0  0  0  0  0  0  0
  -24.2792  -32.3361   24.0917 C   0  0  1  0  0  0  0  0  0  0  0  0
  -25.8665  -24.0538   17.1648 C   0  0  0  0  0  0  0  0  0  0  0  0
  -23.1523  -30.2812   21.1015 C   0  0  1  0  0  0  0  0  0  0  0  0
  -26.8597  -13.7446   20.1804 C   0  0  2  0  0  0  0  0  0  0  0  0
  -25.2822  -19.4797   19.7906 C   0  0  0  0  0  0  0  0  0  0  0  0
  -18.8780  -24.5217   18.1755 C   0  0  0  0  0  0  0  0  0  0  0  0
  -20.9893  -27.2441   23.8325 C   0  0  0  0  0  0  0  0  0  0  0  0
  -19.8780  -25.3349   22.6544 C   0  0  0  0  0  0  0  0  0  0  0  0
  -18.8675  -27.6137   22.5614 C   0  0  0  0  0  0  0  0  0  0  0  0
  -21.5035  -26.5658   16.3304 C   0  0  0  0  0  0  0  0  0  0  0  0
  -27.2426  -21.6612   18.1786 C   0  0  0  0  0  0  0  0  0  0  0  0
  -20.9781  -27.1394   21.2528 C   0  0  1  0  0  0  0  0  0  0  0  0
  -19.8031  -25.7066   17.9458 C   0  0  2  0  0  0  0  0  0  0  0  0
  -20.2046  -26.8411   22.5681 C   0  0  0  0  0  0  0  0  0  0  0  0
  -28.8144  -24.4370   20.1646 N   0  0  0  0  0  0  0  0  0  0  0  0
  -25.4942  -11.7159   20.4999 N   0  0  0  0  0  0  0  0  0  0  0  0
  -27.1793  -25.4036   18.6814 N   0  0  0  0  0  0  0  0  0  0  0  0
  -26.5212  -12.3005   19.8598 N   0  0  0  0  0  0  0  0  0  0  0  0
  -22.7181  -28.8847   21.0283 N   0  0  0  0  0  0  0  0  0  0  0  0
  -25.9750  -15.9460   20.8633 N   0  0  0  0  0  0  0  0  0  0  0  0
  -28.2035  -11.9121   18.2382 N   0  0  0  0  0  0  0  0  0  0  0  0
  -26.0245   -7.9618   18.4458 N   0  0  0  0  0  0  0  0  0  0  0  0
  -23.8901  -31.8592   22.7818 N   0  0  0  0  0  0  0  0  0  0  0  0
  -20.2478  -26.7928   20.0384 N   0  0  0  0  0  0  0  0  0  0  0  0
  -25.7968  -18.2790   20.4808 N   0  0  0  0  0  0  0  0  0  0  0  0
  -25.9523  -21.1101   18.6841 N   0  3  0  0  0  0  0  0  0  0  0  0
  -20.5702  -25.4675   16.6906 N   0  3  0  0  0  0  0  0  0  0  0  0
  -27.7574   -9.0821   17.4454 O   0  0  0  0  0  0  0  0  0  0  0  0
  -23.4662  -29.6418   23.3527 O   0  0  0  0  0  0  0  0  0  0  0  0
  -20.4565  -29.4479   21.0945 O   0  0  0  0  0  0  0  0  0  0  0  0
  -21.8302  -25.3186   19.2019 O   0  0  0  0  0  0  0  0  0  0  0  0
  -24.5929  -16.8047   19.2100 O   0  0  0  0  0  0  0  0  0  0  0  0
  -21.6676   -6.7713   21.7070 O   0  0  0  0  0  0  0  0  0  0  0  0
  -28.4265  -26.7274   20.1267 O   0  0  0  0  0  0  0  0  0  1  0  0
  -23.3911   -1.6546   22.8259 F   0  0  0  0  0  0  0  0  0  0  0  0
  -21.3506   -5.6880   24.2306 F   0  0  0  0  0  0  0  0  0  0  0  0
  1  2  1  0  0  0  0
  1  5  2  0  0  0  0
  2  6  2  0  0  0  0
  3  8  2  0  0  0  0
  3 16  1  0  0  0  0
  4  9  1  0  0  0  0
  4 16  2  0  0  0  0
  5 18  1  0  0  0  0
  6 20  1  0  0  0  0
  7 10  2  0  0  0  0
  7 19  1  0  0  0  0
  8 23  1  0  0  0  0
  9 23  2  0  0  0  0
 10 24  1  0  0  0  0
 11 12  2  0  0  0  0
 11 25  1  0  0  0  0
 12 26  1  0  0  0  0
 13 21  1  0  0  0  0
 13 24  2  0  0  0  0
 14 26  2  0  0  0  0
 14 27  1  0  0  0  0
 15 22  1  0  0  0  0
 15 64  2  0  0  0  0
 16 28  1  0  0  0  0
 17 28  1  0  0  0  0
 17 30  2  0  0  0  0
 17 32  1  0  0  0  0
 18 20  2  0  0  0  0
 18 37  1  0  0  0  0
 19 21  2  0  0  0  0
 19 38  1  0  0  0  0
 20 50  1  0  0  0  0
 21 39  1  0  0  0  0
 22 29  2  0  0  0  0
 22 60  1  0  0  0  0
 23 82  1  0  0  0  0
 24 83  1  0  0  0  0
 25 27  2  0  0  0  0
 25 82  1  0  0  0  0
 26 84  1  0  0  0  0
 27 85  1  0  0  0  0
 28 65  2  0  0  0  0
 29 51  1  0  0  0  0
 29 66  1  0  0  0  0
 30 67  1  0  0  0  0
 30 70  1  0  0  0  0
 31 64  1  0  0  0  0
 31 66  2  0  0  0  0
 31 83  1  0  0  0  0
 32 71  1  0  0  0  0
 32 77  2  0  0  0  0
 33 52  1  0  0  0  0
 33 72  1  0  0  0  0
 33 78  2  0  0  0  0
 34 61  1  0  0  0  0
 34 68  1  0  0  0  0
 34 79  2  0  0  0  0
 35 62  1  0  0  0  0
 35 73  1  0  0  0  0
 35 80  2  0  0  0  0
 36 69  1  0  0  0  0
 36 74  1  0  0  0  0
 36 81  2  0  0  0  0
 37 40  1  0  0  0  0
 38 52  1  0  0  0  0
 39 68  1  0  0  0  0
 40 42  1  0  0  0  0
 41 45  1  0  0  0  0
 41 46  1  0  0  0  0
 42 50  1  0  0  0  0
 43 44  1  0  0  0  0
 43 51  1  0  0  0  0
 44 51  1  0  0  0  0
 45 53  1  0  0  0  0
 46 69  1  0  0  0  0
 47 53  1  0  0  0  0
 47 69  1  0  0  0  0
 48 54  1  0  0  0  0
 48 75  1  0  0  0  0
 49 54  1  0  0  0  0
 49 75  1  0  0  0  0
 50 72  1  0  0  0  0
 52 68  1  0  0  0  0
 53 67  1  0  0  0  0
 54 74  1  0  0  0  0
 55 62  1  0  0  0  0
 56 63  1  0  0  0  0
 57 63  1  0  0  0  0
 58 63  1  0  0  0  0
 59 76  1  0  0  0  0
 60 75  1  0  0  0  0
 61 63  1  0  0  0  0
 61 73  1  0  0  0  0
 62 76  1  0  0  0  0
 65 67  1  0  0  0  0
M  CHG  2  75   1  76   1
M  ISO  4  31 101  36 100  74 100  83 101
M  END
> <Batch ID>
0193

> <Smiles>
CNC(C)C(=O)NC(C(=O)N1Cc2cc([101O:1][101c:1]3ncc(CN4CC([100NH:0][100C:0](=O)N5CCCC(n6nc(-c7ccc(Oc8ccc(F)cc8F)cc7)c(C(N)=O)c6N)C5)C4)c(C4CC4)n3)ccc2CC1C(=O)NC1CCCc2ccccc21)C(C)(C)C

> <Shape>
0.291

> <Color>
0.090

> <Negative vol penalty>
0.000

$$$$

  -OEChem-04052323323D

 87 96  0     1  0  0  0  0  0999 V2000
  -16.9037  -29.9828   24.5415 C   0  0  0  0  0  0  0  0  0  0  0  0
  -18.1514  -30.5587   24.7522 C   0  0  0  0  0  0  0  0  0  0  0  0
  -24.2993  -10.3649   21.9899 C   0  0  0  0  0  0  0  0  0  0  0  0
  -22.1302  -11.2400   21.3849 C   0  0  0  0  0  0  0  0  0  0  0  0
  -16.7894  -28.8515   23.7365 C   0  0  0  0  0  0  0  0  0  0  0  0
  -19.2836  -30.0105   24.1483 C   0  0  0  0  0  0  0  0  0  0  0  0
  -26.9726  -29.2228   22.2824 C   0  0  0  0  0  0  0  0  0  0  0  0
  -24.1485   -9.3430   21.0525 C   0  0  0  0  0  0  0  0  0  0  0  0
  -21.9794  -10.2181   20.4475 C   0  0  0  0  0  0  0  0  0  0  0  0
  -27.9119  -28.3150   21.7952 C   0  0  0  0  0  0  0  0  0  0  0  0
  -24.1785   -6.2941   19.0708 C   0  0  0  0  0  0  0  0  0  0  0  0
  -24.5203   -4.9991   19.4603 C   0  0  0  0  0  0  0  0  0  0  0  0
  -26.5456  -27.9604   19.8390 C   0  0  0  0  0  0  0  0  0  0  0  0
  -22.8646   -5.0906   21.2174 C   0  0  0  0  0  0  0  0  0  0  0  0
  -23.2901  -11.3133   22.1562 C   0  0  0  0  0  0  0  0  0  0  0  0
  -23.6252  -12.2281   24.5138 C   0  0  0  0  0  0  0  0  0  0  0  0
  -17.9229  -28.2824   23.1329 C   0  0  0  0  0  0  0  0  0  0  0  0
  -25.8055  -29.4985   21.5555 C   0  0  0  0  0  0  0  0  0  0  0  0
  -19.1855  -28.8830   23.3130 C   0  0  0  0  0  0  0  0  0  0  0  0
  -25.5943  -28.8740   20.3180 C   0  0  0  0  0  0  0  0  0  0  0  0
  -22.9886   -9.2697   20.2813 C   0  0  0  0  0  0  0  0  0  0  0  0
  -27.6971  -27.6815   20.5747 C   0  0  0  0  0  0  0  0  0  0  0  0
  -23.1799   -6.9875   19.7547 C   0  0  0  0  0  0  0  0  0  0  0  0
  -23.8633   -4.3973   20.5335 C   0  0  0  0  0  0  0  0  0  0  0  0
  -22.5229   -6.3857   20.8279 C   0  0  0  0  0  0  0  0  0  0  0  0
  -23.4450  -12.3688   23.1247 C   0  0  0  0  0  0  0  0  0  0  0  0
  -23.7197  -13.5166   24.9800 C   0  0  0  0  0  0  0  0  0  0  0  0
  -23.7003  -11.0391   25.3114 C   0  0  0  0  0  0  0  0  0  0  0  0
  -22.6928  -29.1393   22.0898 C   0  0  0  0  0  0  0  0  0  0  0  0
  -22.4225  -30.7445   19.2839 C   0  0  0  0  0  0  0  0  0  0  0  0
  -24.0678  -30.7305   16.0730 C   0  0  0  0  0  0  0  0  0  0  0  0
  -25.3768  -18.6684   22.4177 C   0  0  0  0  0  0  0  0  0  0  0  0
  -17.7408  -27.0623   22.2648 C   0  0  0  0  0  0  0  0  0  0  0  0
  -24.8149  -30.5003   22.0822 C   0  0  0  0  0  0  0  0  0  0  0  0
  -24.3673  -29.1506   19.4894 C   0  0  0  0  0  0  0  0  0  0  0  0
  -19.0404  -26.2985   22.0327 C   0  0  0  0  0  0  0  0  0  0  0  0
  -22.2659  -17.9687   24.0018 C   0  0  0  0  0  0  0  0  0  0  0  0
  -20.1358  -27.2582   21.5927 C   0  0  0  0  0  0  0  0  0  0  0  0
  -22.2316  -16.4415   24.0820 C   0  0  0  0  0  0  0  0  0  0  0  0
  -27.9491  -21.8448   20.6457 C   0  0  0  0  0  0  0  0  0  0  0  0
  -30.4679  -22.0072   20.6502 C   0  0  0  0  0  0  0  0  0  0  0  0
  -22.9268  -18.4514   22.7125 C   0  0  0  0  0  0  0  0  0  0  0  0
  -30.5960  -19.1577   20.7745 C   0  0  0  0  0  0  0  0  0  0  0  0
  -24.2361  -16.3705   22.5406 C   0  0  0  0  0  0  0  0  0  0  0  0
  -27.8650  -23.2519   21.2202 C   0  0  0  0  0  0  0  0  0  0  0  0
  -30.3685  -23.4135   21.2243 C   0  0  0  0  0  0  0  0  0  0  0  0
  -30.7682  -17.8452   20.0222 C   0  0  0  0  0  0  0  0  0  0  0  0
  -20.4351  -28.2861   22.6912 C   0  0  1  0  0  0  0  0  0  0  0  0
  -23.4155  -30.3184   21.5025 C   0  0  1  0  0  0  0  0  0  0  0  0
  -23.6290  -15.8362   23.8491 C   0  0  2  0  0  0  0  0  0  0  0  0
  -29.2578  -21.1510   21.0294 C   0  0  0  0  0  0  0  0  0  0  0  0
  -28.1500  -18.9953   20.6512 C   0  0  1  0  0  0  0  0  0  0  0  0
  -28.2550  -17.6713   19.8618 C   0  0  1  0  0  0  0  0  0  0  0  0
  -28.1495  -17.8503   18.3480 C   0  0  0  0  0  0  0  0  0  0  0  0
  -24.3321  -32.5519   14.3672 C   0  0  0  0  0  0  0  0  0  0  0  0
  -19.9137  -29.5396   18.0332 C   0  0  0  0  0  0  0  0  0  0  0  0
  -20.9081  -29.9847   15.7791 C   0  0  0  0  0  0  0  0  0  0  0  0
  -20.4127  -31.8837   17.3189 C   0  0  0  0  0  0  0  0  0  0  0  0
  -27.0138  -30.4477   16.0574 C   0  0  0  0  0  0  0  0  0  0  0  0
  -27.8418  -18.7231   22.1345 C   0  0  0  0  0  0  0  0  0  0  0  0
  -29.0421  -24.5355   19.3938 C   0  0  0  0  0  0  0  0  0  0  0  0
  -28.1224  -25.7349   19.2763 C   0  0  0  0  0  0  0  0  0  1  0  0
  -22.3566  -30.3496   17.8284 C   0  0  1  0  0  0  0  0  0  0  0  0
  -24.9867  -31.8038   15.5181 C   0  0  2  0  0  0  0  0  0  0  0  0
  -20.9117  -30.4236   17.2590 C   0  0  0  0  0  0  0  0  0  0  0  0
  -23.4258  -13.6459   22.7339 N   0  0  0  0  0  0  0  0  0  0  0  0
  -23.5950  -14.3195   23.8845 N   0  0  0  0  0  0  0  0  0  0  0  0
  -23.4251  -30.1332   20.0499 N   0  0  0  0  0  0  0  0  0  0  0  0
  -24.2492  -17.8417   22.5524 N   0  0  0  0  0  0  0  0  0  0  0  0
  -29.3440  -19.8308   20.4122 N   0  0  2  0  0  0  0  0  0  0  0  0
  -23.8965  -14.0299   26.2160 N   0  0  0  0  0  0  0  0  0  0  0  0
  -23.5842   -9.7973   24.6721 N   0  0  0  0  0  0  0  0  0  0  0  0
  -21.3220  -29.2983   22.1616 N   0  0  0  0  0  0  0  0  0  0  0  0
  -23.3177  -31.1976   17.1315 N   0  0  0  0  0  0  0  0  0  0  0  0
  -26.5921  -18.0097   22.2769 N   0  0  0  0  0  0  0  0  0  0  0  0
  -29.5544  -16.9951   20.1982 N   0  3  0  0  0  0  0  0  0  0  0  0
  -29.0698  -24.0691   20.8243 N   0  3  0  0  0  0  0  0  0  0  0  0
  -26.2539  -31.1955   15.0228 N   0  3  0  0  0  0  0  0  0  0  0  0
  -23.8492  -11.0772   26.5564 O   0  0  0  0  0  0  0  0  0  0  0  0
  -23.3313  -28.1572   22.4496 O   0  0  0  0  0  0  0  0  0  0  0  0
  -21.6185  -31.5705   19.7234 O   0  0  0  0  0  0  0  0  0  0  0  0
  -24.0175  -29.5926   15.6112 O   0  0  0  0  0  0  0  0  0  0  0  0
  -25.3064  -19.9020   22.4279 O   0  0  0  0  0  0  0  0  0  0  0  0
  -22.8412   -8.2728   19.3663 O   0  0  0  0  0  0  0  0  0  0  0  0
  -28.6120  -26.7945   20.0972 O   0  0  0  0  0  0  0  0  0  1  0  0
  -24.1905   -3.1531   20.9064 F   0  0  0  0  0  0  0  0  0  0  0  0
  -21.5618   -7.0463   21.4880 F   0  0  0  0  0  0  0  0  0  0  0  0
  1  2  1  0  0  0  0
  1  5  2  0  0  0  0
  2  6  2  0  0  0  0
  3  8  2  0  0  0  0
  3 15  1  0  0  0  0
  4  9  1  0  0  0  0
  4 15  2  0  0  0  0
  5 17  1  0  0  0  0
  6 19  1  0  0  0  0
  7 10  2  0  0  0  0
  7 18  1  0  0  0  0
  8 21  1  0  0  0  0
  9 21  2  0  0  0  0
 10 22  1  0  0  0  0
 11 12  2  0  0  0  0
 11 23  1  0  0  0  0
 12 24  1  0  0  0  0
 13 20  1  0  0  0  0
 13 22  2  0  0  0  0
 14 24  2  0  0  0  0
 14 25  1  0  0  0  0
 15 26  1  0  0  0  0
 16 26  1  0  0  0  0
 16 27  2  0  0  0  0
 16 28  1  0  0  0  0
 17 19  2  0  0  0  0
 17 33  1  0  0  0  0
 18 20  2  0  0  0  0
 18 34  1  0  0  0  0
 19 48  1  0  0  0  0
 20 35  1  0  0  0  0
 21 84  1  0  0  0  0
 22 85  1  0  0  0  0
 23 25  2  0  0  0  0
 23 84  1  0  0  0  0
 24 86  1  0  0  0  0
 25 87  1  0  0  0  0
 26 66  2  0  0  0  0
 27 67  1  0  0  0  0
 27 71  1  0  0  0  0
 28 72  1  0  0  0  0
 28 79  2  0  0  0  0
 29 49  1  0  0  0  0
 29 73  1  0  0  0  0
 29 80  2  0  0  0  0
 30 63  1  0  0  0  0
 30 68  1  0  0  0  0
 30 81  2  0  0  0  0
 31 64  1  0  0  0  0
 31 74  1  0  0  0  0
 31 82  2  0  0  0  0
 32 69  1  0  0  0  0
 32 75  1  0  0  0  0
 32 83  2  0  0  0  0
 33 36  1  0  0  0  0
 34 49  1  0  0  0  0
 35 68  1  0  0  0  0
 36 38  1  0  0  0  0
 37 39  1  0  0  0  0
 37 42  1  0  0  0  0
 38 48  1  0  0  0  0
 39 50  1  0  0  0  0
 40 45  1  0  0  0  0
 40 51  1  0  0  0  0
 41 46  1  0  0  0  0
 41 51  1  0  0  0  0
 42 69  1  0  0  0  0
 43 47  1  0  0  0  0
 43 70  1  0  0  0  0
 44 50  1  0  0  0  0
 44 69  1  0  0  0  0
 45 77  1  0  0  0  0
 46 77  1  0  0  0  0
 47 76  1  0  0  0  0
 48 73  1  0  0  0  0
 49 68  1  0  0  0  0
 50 67  1  0  0  0  0
 51 70  1  0  0  0  0
 52 53  1  0  0  0  0
 52 60  1  0  0  0  0
 52 70  1  0  0  0  0
 53 54  1  0  0  0  0
 53 76  1  0  0  0  0
 55 64  1  0  0  0  0
 56 65  1  0  0  0  0
 57 65  1  0  0  0  0
 58 65  1  0  0  0  0
 59 78  1  0  0  0  0
 60 75  1  0  0  0  0
 61 62  1  0  0  0  0
 61 77  1  0  0  0  0
 62 85  1  0  0  0  0
 63 65  1  0  0  0  0
 63 74  1  0  0  0  0
 64 78  1  0  0  0  0
 66 67  1  0  0  0  0
M  CHG  3  76   1  77   1  78   1
M  ISO  4  32 100  62 101  75 100  85 101
M  END
> <Batch ID>
0193

> <Smiles>
CNC(C)C(=O)NC(C(=O)N1Cc2cc([101O:1][101CH2:1]CN3CCC(N4CCNC(C)C4C[100NH:0][100C:0](=O)N4CCCC(n5nc(-c6ccc(Oc7ccc(F)cc7F)cc6)c(C(N)=O)c5N)C4)CC3)ccc2CC1C(=O)NC1CCCc2ccccc21)C(C)(C)C

> <Shape>
0.255

> <Color>
0.096

> <Negative vol penalty>
0.000

$$$$

  -OEChem-04052323323D

 85 94  0     1  0  0  0  0  0999 V2000
  -28.5895  -33.3587   24.9613 C   0  0  0  0  0  0  0  0  0  0  0  0
  -29.0362  -32.1662   24.4012 C   0  0  0  0  0  0  0  0  0  0  0  0
  -26.5126  -13.7439   21.6694 C   0  0  0  0  0  0  0  0  0  0  0  0
  -26.2565  -13.8777   19.2708 C   0  0  0  0  0  0  0  0  0  0  0  0
  -27.2455  -33.5074   25.3013 C   0  0  0  0  0  0  0  0  0  0  0  0
  -28.1394  -31.1212   24.1817 C   0  0  0  0  0  0  0  0  0  0  0  0
  -28.7197  -28.9875   19.6259 C   0  0  0  0  0  0  0  0  0  0  0  0
  -25.6389  -12.6571   21.7021 C   0  0  0  0  0  0  0  0  0  0  0  0
  -25.3827  -12.7909   19.3035 C   0  0  0  0  0  0  0  0  0  0  0  0
  -29.7824  -28.0986   19.4698 C   0  0  0  0  0  0  0  0  0  0  0  0
  -23.1943  -10.0734   22.4588 C   0  0  0  0  0  0  0  0  0  0  0  0
  -22.2065  -10.0630   23.4434 C   0  0  0  0  0  0  0  0  0  0  0  0
  -28.2625  -26.2443   19.7351 C   0  0  0  0  0  0  0  0  0  0  0  0
  -30.1502  -23.4445   15.0762 C   0  0  0  0  0  0  0  0  0  0  0  0
  -27.7904  -23.1205   14.7430 C   0  0  0  0  0  0  0  0  0  0  0  0
  -21.3108  -12.1285   22.5667 C   0  0  0  0  0  0  0  0  0  0  0  0
  -26.8214  -14.3542   20.4538 C   0  0  0  0  0  0  0  0  0  0  0  0
  -29.1225  -15.4395   20.2677 C   0  0  0  0  0  0  0  0  0  0  0  0
  -26.3299  -32.4672   25.0770 C   0  0  0  0  0  0  0  0  0  0  0  0
  -27.4200  -28.5108   19.8490 C   0  0  0  0  0  0  0  0  0  0  0  0
  -26.7822  -31.2556   24.5203 C   0  0  0  0  0  0  0  0  0  0  0  0
  -27.1846  -27.1291   19.8912 C   0  0  0  0  0  0  0  0  0  0  0  0
  -29.0242  -23.5508   14.2675 C   0  0  0  0  0  0  0  0  0  0  0  0
  -25.0739  -12.1806   20.5192 C   0  0  0  0  0  0  0  0  0  0  0  0
  -29.5544  -26.7268   19.5273 C   0  0  0  0  0  0  0  0  0  0  0  0
  -23.2406  -11.1115   21.5281 C   0  0  0  0  0  0  0  0  0  0  0  0
  -21.2647  -11.0905   23.4974 C   0  0  0  0  0  0  0  0  0  0  0  0
  -22.2988  -12.1390   21.5821 C   0  0  0  0  0  0  0  0  0  0  0  0
  -27.7235  -15.4773   20.4194 C   0  0  0  0  0  0  0  0  0  0  0  0
  -29.9907  -22.9052   16.3424 C   0  0  0  0  0  0  0  0  0  0  0  0
  -27.7366  -22.5955   16.0241 C   0  0  0  0  0  0  0  0  0  0  0  0
  -29.5070  -16.7577   20.2993 C   0  0  0  0  0  0  0  0  0  0  0  0
  -29.9964  -14.3136   20.1120 C   0  0  0  0  0  0  0  0  0  0  0  0
  -25.3046  -28.7832   22.2058 C   0  0  0  0  0  0  0  0  0  0  0  0
  -23.3681  -27.2207   20.1247 C   0  0  0  0  0  0  0  0  0  0  0  0
  -22.6978  -24.7130   17.6188 C   0  0  0  0  0  0  0  0  0  0  0  0
  -26.6581  -21.8676   19.0250 C   0  0  0  0  0  0  0  0  0  0  0  0
  -24.8961  -32.6574   25.5045 C   0  0  0  0  0  0  0  0  0  0  0  0
  -26.2802  -29.4823   19.9887 C   0  0  0  0  0  0  0  0  0  0  0  0
  -25.8046  -26.5660   20.1081 C   0  0  0  0  0  0  0  0  0  0  0  0
  -23.9380  -31.6380   24.8937 C   0  0  0  0  0  0  0  0  0  0  0  0
  -28.2114  -20.9937   22.1073 C   0  0  0  0  0  0  0  0  0  0  0  0
  -24.5121  -30.2295   25.0098 C   0  0  0  0  0  0  0  0  0  0  0  0
  -28.3887  -19.4774   22.0105 C   0  0  0  0  0  0  0  0  0  0  0  0
  -26.9094  -21.4525   21.4542 C   0  0  0  0  0  0  0  0  0  0  0  0
  -26.9020  -19.4896   19.9640 C   0  0  0  0  0  0  0  0  0  0  0  0
  -31.1155  -21.5487   18.3826 C   0  0  0  0  0  0  0  0  0  0  0  0
  -32.4733  -21.9910   16.8617 C   0  0  0  0  0  0  0  0  0  0  0  0
  -25.8351  -30.1081   24.2440 C   0  0  1  0  0  0  0  0  0  0  0  0
  -25.0802  -28.8937   20.7242 C   0  0  1  0  0  0  0  0  0  0  0  0
  -28.2277  -18.9855   20.5595 C   0  0  2  0  0  0  0  0  0  0  0  0
  -31.2009  -22.7271   17.3708 C   0  0  0  0  0  0  0  0  0  0  0  0
  -29.1393  -24.1239   12.8960 C   0  0  0  0  0  0  0  0  0  0  0  0
  -20.6031  -24.2128   16.3306 C   0  0  0  0  0  0  0  0  0  0  0  0
  -22.8382  -25.1883   22.3380 C   0  0  0  0  0  0  0  0  0  0  0  0
  -21.9315  -23.6336   20.5977 C   0  0  0  0  0  0  0  0  0  0  0  0
  -20.8211  -25.8298   21.0059 C   0  0  0  0  0  0  0  0  0  0  0  0
  -24.0922  -24.9808   15.0220 C   0  0  0  0  0  0  0  0  0  0  0  0
  -26.4292  -22.1236   16.5671 C   0  0  0  0  0  0  0  0  0  0  0  0
  -31.5052  -24.0769   18.0352 C   0  0  0  0  0  0  0  0  0  0  0  0
  -30.2917  -24.5861   18.7996 C   0  0  0  0  0  0  0  0  0  1  0  0
  -23.0600  -25.7719   19.8328 C   0  0  1  0  0  0  0  0  0  0  0  0
  -21.9537  -24.9117   16.3106 C   0  0  2  0  0  0  0  0  0  0  0  0
  -22.1891  -25.1162   20.9414 C   0  0  0  0  0  0  0  0  0  0  0  0
  -27.2511  -16.7209   20.5387 N   0  0  0  0  0  0  0  0  0  0  0  0
  -28.8087  -22.4764   16.8390 N   0  0  0  0  0  0  0  0  0  0  0  0
  -28.3596  -17.4769   20.4621 N   0  0  0  0  0  0  0  0  0  0  0  0
  -24.7240  -27.5565   20.2454 N   0  0  0  0  0  0  0  0  0  0  0  0
  -26.8195  -20.9540   20.0797 N   0  0  0  0  0  0  0  0  0  0  0  0
  -30.7112  -17.3603   20.2036 N   0  0  0  0  0  0  0  0  0  0  0  0
  -29.4357  -13.0291   20.1010 N   0  0  0  0  0  0  0  0  0  0  0  0
  -25.5873  -29.9866   22.8233 N   0  0  0  0  0  0  0  0  0  0  0  0
  -22.4579  -25.7423   18.5043 N   0  0  0  0  0  0  0  0  0  0  0  0
  -26.5881  -21.3121   17.7533 N   0  0  0  0  0  0  0  0  0  0  0  0
  -32.5417  -21.2780   18.1463 N   0  3  0  0  0  0  0  0  0  0  0  0
  -22.7486  -24.3657   15.1744 N   0  3  0  0  0  0  0  0  0  0  0  0
  -31.2395  -14.4418   20.0029 O   0  0  0  0  0  0  0  0  0  0  0  0
  -25.2255  -27.6875   22.7488 O   0  0  0  0  0  0  0  0  0  0  0  0
  -22.4403  -28.0261   20.2343 O   0  0  0  0  0  0  0  0  0  0  0  0
  -23.4170  -23.7400   17.8349 O   0  0  0  0  0  0  0  0  0  0  0  0
  -26.5875  -23.0884   19.2030 O   0  0  0  0  0  0  0  0  0  0  0  0
  -24.2215  -11.1200   20.5507 O   0  0  0  0  0  0  0  0  0  0  0  0
  -30.5899  -25.8571   19.3759 O   0  0  0  0  0  0  0  0  0  1  0  0
  -20.3151  -11.0796   24.4420 F   0  0  0  0  0  0  0  0  0  0  0  0
  -22.3374  -13.1383   20.6900 F   0  0  0  0  0  0  0  0  0  0  0  0
  1  2  1  0  0  0  0
  1  5  2  0  0  0  0
  2  6  2  0  0  0  0
  3  8  2  0  0  0  0
  3 17  1  0  0  0  0
  4  9  1  0  0  0  0
  4 17  2  0  0  0  0
  5 19  1  0  0  0  0
  6 21  1  0  0  0  0
  7 10  2  0  0  0  0
  7 20  1  0  0  0  0
  8 24  1  0  0  0  0
  9 24  2  0  0  0  0
 10 25  1  0  0  0  0
 11 12  2  0  0  0  0
 11 26  1  0  0  0  0
 12 27  1  0  0  0  0
 13 22  1  0  0  0  0
 13 25  2  0  0  0  0
 14 23  2  0  0  0  0
 14 30  1  0  0  0  0
 15 23  1  0  0  0  0
 15 31  2  0  0  0  0
 16 27  2  0  0  0  0
 16 28  1  0  0  0  0
 17 29  1  0  0  0  0
 18 29  1  0  0  0  0
 18 32  2  0  0  0  0
 18 33  1  0  0  0  0
 19 21  2  0  0  0  0
 19 38  1  0  0  0  0
 20 22  2  0  0  0  0
 20 39  1  0  0  0  0
 21 49  1  0  0  0  0
 22 40  1  0  0  0  0
 23 53  1  0  0  0  0
 24 82  1  0  0  0  0
 25 83  1  0  0  0  0
 26 28  2  0  0  0  0
 26 82  1  0  0  0  0
 27 84  1  0  0  0  0
 28 85  1  0  0  0  0
 29 65  2  0  0  0  0
 30 52  1  0  0  0  0
 30 66  2  0  0  0  0
 31 59  1  0  0  0  0
 31 66  1  0  0  0  0
 32 67  1  0  0  0  0
 32 70  1  0  0  0  0
 33 71  1  0  0  0  0
 33 77  2  0  0  0  0
 34 50  1  0  0  0  0
 34 72  1  0  0  0  0
 34 78  2  0  0  0  0
 35 62  1  0  0  0  0
 35 68  1  0  0  0  0
 35 79  2  0  0  0  0
 36 63  1  0  0  0  0
 36 73  1  0  0  0  0
 36 80  2  0  0  0  0
 37 69  1  0  0  0  0
 37 74  1  0  0  0  0
 37 81  2  0  0  0  0
 38 41  1  0  0  0  0
 39 50  1  0  0  0  0
 40 68  1  0  0  0  0
 41 43  1  0  0  0  0
 42 44  1  0  0  0  0
 42 45  1  0  0  0  0
 43 49  1  0  0  0  0
 44 51  1  0  0  0  0
 45 69  1  0  0  0  0
 46 51  1  0  0  0  0
 46 69  1  0  0  0  0
 47 52  1  0  0  0  0
 47 75  1  0  0  0  0
 48 52  1  0  0  0  0
 48 75  1  0  0  0  0
 49 72  1  0  0  0  0
 50 68  1  0  0  0  0
 51 67  1  0  0  0  0
 52 60  1  0  0  0  0
 54 63  1  0  0  0  0
 55 64  1  0  0  0  0
 56 64  1  0  0  0  0
 57 64  1  0  0  0  0
 58 76  1  0  0  0  0
 59 74  1  0  0  0  0
 60 61  1  0  0  0  0
 61 83  1  0  0  0  0
 62 64  1  0  0  0  0
 62 73  1  0  0  0  0
 63 76  1  0  0  0  0
 65 67  1  0  0  0  0
M  CHG  2  75   1  76   1
M  ISO  4  37 100  61 101  74 100  83 101
M  END
> <Batch ID>
0193

> <Smiles>
CNC(C)C(=O)NC(C(=O)N1Cc2cc([101O:1][101CH2:1]CC3(c4cc(C)cc(C[100NH:0][100C:0](=O)N5CCCC(n6nc(-c7ccc(Oc8ccc(F)cc8F)cc7)c(C(N)=O)c6N)C5)n4)CNC3)ccc2CC1C(=O)NC1CCCc2ccccc21)C(C)(C)C

> <Shape>
0.257

> <Color>
0.066

> <Negative vol penalty>
0.000

$$$$

  -OEChem-04052323323D

 87 97  0     1  0  0  0  0  0999 V2000
  -16.5990  -26.9133   24.8306 C   0  0  0  0  0  0  0  0  0  0  0  0
  -17.5456  -26.2737   24.0368 C   0  0  0  0  0  0  0  0  0  0  0  0
  -26.7027  -12.8530   20.4847 C   0  0  0  0  0  0  0  0  0  0  0  0
  -25.0297  -14.5385   20.0406 C   0  0  0  0  0  0  0  0  0  0  0  0
  -16.5135  -28.3050   24.8270 C   0  0  0  0  0  0  0  0  0  0  0  0
  -18.4067  -27.0253   23.2381 C   0  0  0  0  0  0  0  0  0  0  0  0
  -24.2392  -25.7369   21.8862 C   0  0  0  0  0  0  0  0  0  0  0  0
  -25.7676  -11.8538   20.2153 C   0  0  0  0  0  0  0  0  0  0  0  0
  -24.0945  -13.5393   19.7711 C   0  0  0  0  0  0  0  0  0  0  0  0
  -24.8355  -25.1456   20.7733 C   0  0  0  0  0  0  0  0  0  0  0  0
  -23.7225   -8.8551   19.9940 C   0  0  0  0  0  0  0  0  0  0  0  0
  -23.6592   -7.7709   20.8692 C   0  0  0  0  0  0  0  0  0  0  0  0
  -25.2987  -27.3326   19.8670 C   0  0  0  0  0  0  0  0  0  0  0  0
  -23.1275   -9.2701   22.6878 C   0  0  0  0  0  0  0  0  0  0  0  0
  -30.8189  -21.7465   17.2536 C   0  0  0  0  0  0  0  0  0  0  0  0
  -26.3337  -14.1954   20.3974 C   0  0  0  0  0  0  0  0  0  0  0  0
  -28.1681  -15.8494   19.7594 C   0  0  0  0  0  0  0  0  0  0  0  0
  -17.3804  -29.0744   24.0352 C   0  0  0  0  0  0  0  0  0  0  0  0
  -24.1583  -27.1328   21.9928 C   0  0  0  0  0  0  0  0  0  0  0  0
  -18.3318  -28.4285   23.2228 C   0  0  0  0  0  0  0  0  0  0  0  0
  -24.7032  -27.9392   20.9835 C   0  0  0  0  0  0  0  0  0  0  0  0
  -29.9842  -22.8165   16.8792 C   0  0  0  0  0  0  0  0  0  0  0  0
  -24.4635  -12.1969   19.8584 C   0  0  0  0  0  0  0  0  0  0  0  0
  -25.3628  -25.9434   19.7621 C   0  0  0  0  0  0  0  0  0  0  0  0
  -23.4884  -10.1468   20.4656 C   0  0  0  0  0  0  0  0  0  0  0  0
  -23.3617   -7.9784   22.2161 C   0  0  0  0  0  0  0  0  0  0  0  0
  -23.1909  -10.3543   21.8125 C   0  0  0  0  0  0  0  0  0  0  0  0
  -27.2991  -15.2281   20.6762 C   0  0  0  0  0  0  0  0  0  0  0  0
  -28.8759  -16.7521   20.5147 C   0  0  0  0  0  0  0  0  0  0  0  0
  -29.4206  -23.2409   18.0577 C   0  0  0  0  0  0  0  0  0  0  0  0
  -28.3218  -15.6301   18.3508 C   0  0  0  0  0  0  0  0  0  0  0  0
  -21.7806  -29.2349   22.1700 C   0  0  0  0  0  0  0  0  0  0  0  0
  -24.1987  -31.3419   22.6553 C   0  0  0  0  0  0  0  0  0  0  0  0
  -27.4994  -32.1079   22.2488 C   0  0  0  0  0  0  0  0  0  0  0  0
  -29.2625  -20.6080   24.3740 C   0  0  0  0  0  0  0  0  0  0  0  0
  -17.2187  -30.5739   24.0284 C   0  0  0  0  0  0  0  0  0  0  0  0
  -23.5358  -27.7554   23.2124 C   0  0  0  0  0  0  0  0  0  0  0  0
  -24.6599  -29.4428   21.0598 C   0  0  0  0  0  0  0  0  0  0  0  0
  -18.4170  -31.3131   23.4385 C   0  0  0  0  0  0  0  0  0  0  0  0
  -29.1962  -17.3465   25.5209 C   0  0  0  0  0  0  0  0  0  0  0  0
  -28.5844  -22.8677   14.6635 C   0  0  0  0  0  0  0  0  0  0  0  0
  -29.9746  -22.4663   14.2809 C   0  0  0  0  0  0  0  0  0  0  0  0
  -18.8567  -30.6601   22.1320 C   0  0  0  0  0  0  0  0  0  0  0  0
  -28.7678  -16.5402   24.2947 C   0  0  0  0  0  0  0  0  0  0  0  0
  -30.8473  -22.0591   21.3618 C   0  0  0  0  0  0  0  0  0  0  0  0
  -28.3997  -21.6351   20.8818 C   0  0  0  0  0  0  0  0  0  0  0  0
  -28.4074  -18.6472   25.6224 C   0  0  0  0  0  0  0  0  0  0  0  0
  -30.5261  -22.0865   22.8543 C   0  0  0  0  0  0  0  0  0  0  0  0
  -28.1336  -21.6743   22.3838 C   0  0  0  0  0  0  0  0  0  0  0  0
  -28.0802  -18.7155   23.1723 C   0  0  0  0  0  0  0  0  0  0  0  0
  -29.7614  -23.3712   15.4846 C   0  0  0  0  0  0  0  0  0  0  0  0
  -19.3000  -29.2102   22.3616 C   0  0  1  0  0  0  0  0  0  0  0  0
  -23.0495  -29.1814   22.9730 C   0  0  1  0  0  0  0  0  0  0  0  0
  -28.8557  -17.3922   23.0161 C   0  0  2  0  0  0  0  0  0  0  0  0
  -29.6333  -22.4790   20.5151 C   0  0  0  0  0  0  0  0  0  0  0  0
  -29.1740  -33.9172   22.7172 C   0  0  0  0  0  0  0  0  0  0  0  0
  -23.0543  -32.9925   20.3584 C   0  0  0  0  0  0  0  0  0  0  0  0
  -25.2315  -34.2239   20.2506 C   0  0  0  0  0  0  0  0  0  0  0  0
  -23.8390  -34.3344   22.3174 C   0  0  0  0  0  0  0  0  0  0  0  0
  -29.1381  -30.3141   23.9388 C   0  0  0  0  0  0  0  0  0  0  0  0
  -27.9497  -25.1310   17.3580 C   0  0  0  0  0  0  0  0  0  0  0  0
  -26.9930  -26.0965   18.0373 C   0  0  0  0  0  0  0  0  0  1  0  0
  -25.0681  -32.1954   21.7639 C   0  0  1  0  0  0  0  0  0  0  0  0
  -28.5395  -32.6310   23.2230 C   0  0  2  0  0  0  0  0  0  0  0  0
  -24.2975  -33.4082   21.1699 C   0  0  0  0  0  0  0  0  0  0  0  0
  -30.7912  -21.5060   18.5671 N   0  0  0  0  0  0  0  0  0  0  0  0
  -27.4403  -15.6965   21.9191 N   0  0  0  0  0  0  0  0  0  0  0  0
  -29.9323  -22.4310   19.0285 N   0  0  0  0  0  0  0  0  0  0  0  0
  -28.4063  -16.6216   21.7885 N   0  0  0  0  0  0  0  0  0  0  0  0
  -24.0353  -30.0041   22.2690 N   0  0  0  0  0  0  0  0  0  0  0  0
  -28.5099  -19.4239   24.3871 N   0  0  0  0  0  0  0  0  0  0  0  0
  -29.3276  -21.3048   23.1562 N   0  0  0  0  0  0  0  0  0  0  0  0
  -29.8479  -17.6369   20.2069 N   0  0  0  0  0  0  0  0  0  0  0  0
  -27.5147  -14.6651   17.7329 N   0  0  0  0  0  0  0  0  0  0  0  0
  -28.5418  -24.2243   18.3435 N   0  0  0  0  0  0  0  0  0  0  0  0
  -20.6295  -29.1726   22.9320 N   0  0  0  0  0  0  0  0  0  0  0  0
  -26.2348  -32.5606   22.5600 N   0  0  0  0  0  0  0  0  0  0  0  0
  -29.6176  -31.6214   23.4212 N   0  3  0  0  0  0  0  0  0  0  0  0
  -29.1617  -16.2593   17.6637 O   0  0  0  0  0  0  0  0  0  0  0  0
  -21.8414  -29.3274   20.9496 O   0  0  0  0  0  0  0  0  0  0  0  0
  -23.6893  -31.8420   23.6614 O   0  0  0  0  0  0  0  0  0  0  0  0
  -27.7813  -31.3742   21.3039 O   0  0  0  0  0  0  0  0  0  0  0  0
  -29.8463  -21.0169   25.3854 O   0  0  0  0  0  0  0  0  0  0  0  0
  -23.5508  -11.2221   19.5952 O   0  0  0  0  0  0  0  0  0  0  0  0
  -25.9489  -25.3648   18.6668 O   0  0  0  0  0  0  0  0  0  1  0  0
  -23.2994   -6.9370   23.0562 F   0  0  0  0  0  0  0  0  0  0  0  0
  -22.9639  -11.5928   22.2711 F   0  0  0  0  0  0  0  0  0  0  0  0
  1  2  1  0  0  0  0
  1  5  2  0  0  0  0
  2  6  2  0  0  0  0
  3  8  2  0  0  0  0
  3 16  1  0  0  0  0
  4  9  1  0  0  0  0
  4 16  2  0  0  0  0
  5 18  1  0  0  0  0
  6 20  1  0  0  0  0
  7 10  2  0  0  0  0
  7 19  1  0  0  0  0
  8 23  1  0  0  0  0
  9 23  2  0  0  0  0
 10 24  1  0  0  0  0
 11 12  2  0  0  0  0
 11 25  1  0  0  0  0
 12 26  1  0  0  0  0
 13 21  1  0  0  0  0
 13 24  2  0  0  0  0
 14 26  2  0  0  0  0
 14 27  1  0  0  0  0
 15 22  1  0  0  0  0
 15 66  2  0  0  0  0
 16 28  1  0  0  0  0
 17 28  1  0  0  0  0
 17 29  2  0  0  0  0
 17 31  1  0  0  0  0
 18 20  2  0  0  0  0
 18 36  1  0  0  0  0
 19 21  2  0  0  0  0
 19 37  1  0  0  0  0
 20 52  1  0  0  0  0
 21 38  1  0  0  0  0
 22 30  2  0  0  0  0
 22 51  1  0  0  0  0
 23 84  1  0  0  0  0
 24 85  1  0  0  0  0
 25 27  2  0  0  0  0
 25 84  1  0  0  0  0
 26 86  1  0  0  0  0
 27 87  1  0  0  0  0
 28 67  2  0  0  0  0
 29 69  1  0  0  0  0
 29 73  1  0  0  0  0
 30 68  1  0  0  0  0
 30 75  1  0  0  0  0
 31 74  1  0  0  0  0
 31 79  2  0  0  0  0
 32 53  1  0  0  0  0
 32 76  1  0  0  0  0
 32 80  2  0  0  0  0
 33 63  1  0  0  0  0
 33 70  1  0  0  0  0
 33 81  2  0  0  0  0
 34 64  1  0  0  0  0
 34 77  1  0  0  0  0
 34 82  2  0  0  0  0
 35 71  1  0  0  0  0
 35 72  1  0  0  0  0
 35 83  2  0  0  0  0
 36 39  1  0  0  0  0
 37 53  1  0  0  0  0
 38 70  1  0  0  0  0
 39 43  1  0  0  0  0
 40 44  1  0  0  0  0
 40 47  1  0  0  0  0
 41 42  1  0  0  0  0
 41 51  1  0  0  0  0
 42 51  1  0  0  0  0
 43 52  1  0  0  0  0
 44 54  1  0  0  0  0
 45 48  1  0  0  0  0
 45 55  1  0  0  0  0
 46 49  1  0  0  0  0
 46 55  1  0  0  0  0
 47 71  1  0  0  0  0
 48 72  1  0  0  0  0
 49 72  1  0  0  0  0
 50 54  1  0  0  0  0
 50 71  1  0  0  0  0
 52 76  1  0  0  0  0
 53 70  1  0  0  0  0
 54 69  1  0  0  0  0
 55 68  1  0  0  0  0
 56 64  1  0  0  0  0
 57 65  1  0  0  0  0
 58 65  1  0  0  0  0
 59 65  1  0  0  0  0
 60 78  1  0  0  0  0
 61 62  1  0  0  0  0
 61 75  1  0  0  0  0
 62 85  1  0  0  0  0
 63 65  1  0  0  0  0
 63 77  1  0  0  0  0
 64 78  1  0  0  0  0
 66 68  1  0  0  0  0
 67 69  1  0  0  0  0
M  CHG  1  78   1
M  ISO  4  35 100  62 101  72 100  85 101
M  END
> <Batch ID>
0193

> <Smiles>
CNC(C)C(=O)NC(C(=O)N1Cc2cc([101O:1][101CH2:1]CNc3c(C4CC4)cnn3C3CC[100N:0]([100C:0](=O)N4CCCC(n5nc(-c6ccc(Oc7ccc(F)cc7F)cc6)c(C(N)=O)c5N)C4)CC3)ccc2CC1C(=O)NC1CCCc2ccccc21)C(C)(C)C

> <Shape>
0.264

> <Color>
0.080

> <Negative vol penalty>
0.000

$$$$

  -OEChem-04052323323D

 83 92  0     1  0  0  0  0  0999 V2000
  -27.2168  -33.1089   27.5478 C   0  0  0  0  0  0  0  0  0  0  0  0
  -27.6745  -32.1728   26.6261 C   0  0  0  0  0  0  0  0  0  0  0  0
  -22.4944  -10.6348   21.2576 C   0  0  0  0  0  0  0  0  0  0  0  0
  -24.1202   -9.5819   22.7016 C   0  0  0  0  0  0  0  0  0  0  0  0
  -25.8587  -33.1760   27.8557 C   0  0  0  0  0  0  0  0  0  0  0  0
  -26.7743  -31.3024   26.0124 C   0  0  0  0  0  0  0  0  0  0  0  0
  -27.0534  -29.1546   20.2840 C   0  0  0  0  0  0  0  0  0  0  0  0
  -21.9591   -9.3844   20.9486 C   0  0  0  0  0  0  0  0  0  0  0  0
  -23.5849   -8.3315   22.3926 C   0  0  0  0  0  0  0  0  0  0  0  0
  -27.5145  -27.9496   19.7555 C   0  0  0  0  0  0  0  0  0  0  0  0
  -20.9121   -6.4743   23.3022 C   0  0  0  0  0  0  0  0  0  0  0  0
  -20.6986   -5.5843   24.3548 C   0  0  0  0  0  0  0  0  0  0  0  0
  -25.2623  -27.0857   19.7760 C   0  0  0  0  0  0  0  0  0  0  0  0
  -22.2021   -4.0008   23.3209 C   0  0  0  0  0  0  0  0  0  0  0  0
  -29.0220  -24.1463   16.7976 C   0  0  0  0  0  0  0  0  0  0  0  0
  -23.5750  -10.7336   22.1341 C   0  0  0  0  0  0  0  0  0  0  0  0
  -23.7459  -12.8774   23.5062 C   0  0  0  0  0  0  0  0  0  0  0  0
  -24.9401  -32.3125   27.2383 C   0  0  0  0  0  0  0  0  0  0  0  0
  -25.6926  -29.3305   20.5732 C   0  0  0  0  0  0  0  0  0  0  0  0
  -25.4028  -31.3571   26.3133 C   0  0  0  0  0  0  0  0  0  0  0  0
  -24.7861  -28.2947   20.3058 C   0  0  0  0  0  0  0  0  0  0  0  0
  -22.5043   -8.2327   21.5161 C   0  0  0  0  0  0  0  0  0  0  0  0
  -26.6193  -26.9140   19.5041 C   0  0  0  0  0  0  0  0  0  0  0  0
  -21.7705   -6.1275   22.2589 C   0  0  0  0  0  0  0  0  0  0  0  0
  -21.3436   -4.3476   24.3642 C   0  0  0  0  0  0  0  0  0  0  0  0
  -22.4156   -4.8907   22.2683 C   0  0  0  0  0  0  0  0  0  0  0  0
  -24.1288  -12.0249   22.4533 C   0  0  0  0  0  0  0  0  0  0  0  0
  -29.0037  -22.0245   18.4177 C   0  0  0  0  0  0  0  0  0  0  0  0
  -28.7548  -24.2811   18.1422 C   0  0  0  0  0  0  0  0  0  0  0  0
  -29.2701  -21.8898   17.0729 C   0  0  0  0  0  0  0  0  0  0  0  0
  -24.5679  -13.9704   23.3791 C   0  0  0  0  0  0  0  0  0  0  0  0
  -22.7376  -12.6972   24.5094 C   0  0  0  0  0  0  0  0  0  0  0  0
  -24.0160  -29.9032   23.2123 C   0  0  0  0  0  0  0  0  0  0  0  0
  -21.5494  -30.1620   21.1216 C   0  0  0  0  0  0  0  0  0  0  0  0
  -20.2407  -29.3657   18.0720 C   0  0  0  0  0  0  0  0  0  0  0  0
  -26.7712  -17.8523   20.1497 C   0  0  0  0  0  0  0  0  0  0  0  0
  -23.4880  -32.3909   27.6384 C   0  0  0  0  0  0  0  0  0  0  0  0
  -25.2072  -30.6458   21.1181 C   0  0  0  0  0  0  0  0  0  0  0  0
  -23.3122  -28.4403   20.5797 C   0  0  0  0  0  0  0  0  0  0  0  0
  -22.5489  -31.6834   26.6649 C   0  0  0  0  0  0  0  0  0  0  0  0
  -28.6674  -14.7116   20.5414 C   0  0  0  0  0  0  0  0  0  0  0  0
  -23.0926  -30.3042   26.3056 C   0  0  0  0  0  0  0  0  0  0  0  0
  -27.5942  -13.7905   21.1142 C   0  0  0  0  0  0  0  0  0  0  0  0
  -28.1912  -20.8863   20.5896 C   0  0  0  0  0  0  0  0  0  0  0  0
  -28.0860  -15.7288   19.5604 C   0  0  0  0  0  0  0  0  0  0  0  0
  -25.8897  -15.6072   20.7029 C   0  0  0  0  0  0  0  0  0  0  0  0
  -24.4539  -30.4124   25.6081 C   0  0  1  0  0  0  0  0  0  0  0  0
  -28.9953  -20.8356   19.3186 C   0  0  1  0  0  0  0  0  0  0  0  0
  -23.8762  -30.5326   21.8551 C   0  0  1  0  0  0  0  0  0  0  0  0
  -26.4483  -14.6090   21.7285 C   0  0  1  0  0  0  0  0  0  0  0  0
  -27.7250  -20.0281   19.4510 C   0  0  1  0  0  0  0  0  0  0  0  0
  -28.3645  -20.0017   15.6939 C   0  0  0  0  0  0  0  0  0  0  0  0
  -18.1900  -29.6911   16.6626 C   0  0  0  0  0  0  0  0  0  0  0  0
  -20.0623  -28.1050   22.8149 C   0  0  0  0  0  0  0  0  0  0  0  0
  -18.4864  -27.7698   20.8985 C   0  0  0  0  0  0  0  0  0  0  0  0
  -18.6509  -30.0019   22.0000 C   0  0  0  0  0  0  0  0  0  0  0  0
  -21.7746  -30.7515   15.9541 C   0  0  0  0  0  0  0  0  0  0  0  0
  -29.5588  -20.5601   16.4638 C   0  0  0  0  0  0  0  0  0  0  0  0
  -28.4662  -25.6312   18.7297 C   0  0  0  0  0  0  0  0  0  1  0  0
  -20.5455  -29.2031   20.5287 C   0  0  1  0  0  0  0  0  0  0  0  0
  -19.5737  -30.2189   17.0082 C   0  0  2  0  0  0  0  0  0  0  0  0
  -19.4643  -28.7662   21.5570 C   0  0  0  0  0  0  0  0  0  0  0  0
  -29.2844  -22.9483   16.2388 N   0  0  0  0  0  0  0  0  0  0  0  0
  -25.1169  -12.5328   21.7119 N   0  0  0  0  0  0  0  0  0  0  0  0
  -28.7409  -23.2225   18.9764 N   0  0  0  0  0  0  0  0  0  0  0  0
  -25.3619  -13.7163   22.2997 N   0  0  0  0  0  0  0  0  0  0  0  0
  -22.8874  -29.7430   21.1182 N   0  0  0  0  0  0  0  0  0  0  0  0
  -26.9494  -16.4570   20.1460 N   0  0  0  0  0  0  0  0  0  0  0  0
  -24.6816  -15.1146   24.0865 N   0  0  0  0  0  0  0  0  0  0  0  0
  -21.9842  -11.5155   24.4948 N   0  0  0  0  0  0  0  0  0  0  0  0
  -24.2836  -30.8041   24.2254 N   0  0  0  0  0  0  0  0  0  0  0  0
  -20.0096  -29.8568   19.3396 N   0  0  0  0  0  0  0  0  0  0  0  0
  -27.7725  -18.5925   19.5313 N   0  0  0  0  0  0  0  0  0  0  0  0
  -20.3954  -30.2328   15.7650 N   0  3  0  0  0  0  0  0  0  0  0  0
  -22.5002  -13.5659   25.3827 O   0  0  0  0  0  0  0  0  0  0  0  0
  -23.8890  -28.6903   23.3319 O   0  0  0  0  0  0  0  0  0  0  0  0
  -21.1617  -31.2459   21.5648 O   0  0  0  0  0  0  0  0  0  0  0  0
  -20.8976  -28.3618   17.8055 O   0  0  0  0  0  0  0  0  0  0  0  0
  -25.7888  -18.4007   20.6614 O   0  0  0  0  0  0  0  0  0  0  0  0
  -21.9821   -7.0124   21.2150 O   0  0  0  0  0  0  0  0  0  0  0  0
  -27.0669  -25.7366   18.9888 O   0  0  0  0  0  0  0  0  0  1  0  0
  -21.1396   -3.4937   25.3758 F   0  0  0  0  0  0  0  0  0  0  0  0
  -23.2423   -4.5525   21.2694 F   0  0  0  0  0  0  0  0  0  0  0  0
  1  2  1  0  0  0  0
  1  5  2  0  0  0  0
  2  6  2  0  0  0  0
  3  8  2  0  0  0  0
  3 16  1  0  0  0  0
  4  9  1  0  0  0  0
  4 16  2  0  0  0  0
  5 18  1  0  0  0  0
  6 20  1  0  0  0  0
  7 10  2  0  0  0  0
  7 19  1  0  0  0  0
  8 22  1  0  0  0  0
  9 22  2  0  0  0  0
 10 23  1  0  0  0  0
 11 12  2  0  0  0  0
 11 24  1  0  0  0  0
 12 25  1  0  0  0  0
 13 21  1  0  0  0  0
 13 23  2  0  0  0  0
 14 25  2  0  0  0  0
 14 26  1  0  0  0  0
 15 29  1  0  0  0  0
 15 63  2  0  0  0  0
 16 27  1  0  0  0  0
 17 27  1  0  0  0  0
 17 31  2  0  0  0  0
 17 32  1  0  0  0  0
 18 20  2  0  0  0  0
 18 37  1  0  0  0  0
 19 21  2  0  0  0  0
 19 38  1  0  0  0  0
 20 47  1  0  0  0  0
 21 39  1  0  0  0  0
 22 80  1  0  0  0  0
 23 81  1  0  0  0  0
 24 26  2  0  0  0  0
 24 80  1  0  0  0  0
 25 82  1  0  0  0  0
 26 83  1  0  0  0  0
 27 64  2  0  0  0  0
 28 30  2  0  0  0  0
 28 48  1  0  0  0  0
 28 65  1  0  0  0  0
 29 59  1  0  0  0  0
 29 65  2  0  0  0  0
 30 58  1  0  0  0  0
 30 63  1  0  0  0  0
 31 66  1  0  0  0  0
 31 69  1  0  0  0  0
 32 70  1  0  0  0  0
 32 75  2  0  0  0  0
 33 49  1  0  0  0  0
 33 71  1  0  0  0  0
 33 76  2  0  0  0  0
 34 60  1  0  0  0  0
 34 67  1  0  0  0  0
 34 77  2  0  0  0  0
 35 61  1  0  0  0  0
 35 72  1  0  0  0  0
 35 78  2  0  0  0  0
 36 68  1  0  0  0  0
 36 73  1  0  0  0  0
 36 79  2  0  0  0  0
 37 40  1  0  0  0  0
 38 49  1  0  0  0  0
 39 67  1  0  0  0  0
 40 42  1  0  0  0  0
 41 43  1  0  0  0  0
 41 45  1  0  0  0  0
 42 47  1  0  0  0  0
 43 50  1  0  0  0  0
 44 48  1  0  0  0  0
 44 51  1  0  0  0  0
 45 68  1  0  0  0  0
 46 50  1  0  0  0  0
 46 68  1  0  0  0  0
 47 71  1  0  0  0  0
 48 51  1  0  0  0  0
 49 67  1  0  0  0  0
 50 66  1  0  0  0  0
 51 73  1  0  0  0  0
 52 58  1  0  0  0  0
 53 61  1  0  0  0  0
 54 62  1  0  0  0  0
 55 62  1  0  0  0  0
 56 62  1  0  0  0  0
 57 74  1  0  0  0  0
 59 81  1  0  0  0  0
 60 62  1  0  0  0  0
 60 72  1  0  0  0  0
 61 74  1  0  0  0  0
 64 66  1  0  0  0  0
M  CHG  1  74   1
M  ISO  4  36 100  59 101  73 100  81 101
M  END
> <Batch ID>
0193

> <Smiles>
CCc1ncc([101CH2:1][101O:1]c2ccc3c(c2)CN(C(=O)C(NC(=O)C(C)NC)C(C)(C)C)C(C(=O)NC2CCCc4ccccc42)C3)nc1C1CC1[100NH:0][100C:0](=O)N1CCCC(n2nc(-c3ccc(Oc4ccc(F)cc4F)cc3)c(C(N)=O)c2N)C1

> <Shape>
0.291

> <Color>
0.110

> <Negative vol penalty>
0.000

$$$$

  -OEChem-04052323323D

 85 94  0     1  0  0  0  0  0999 V2000
  -26.0530  -37.0239   16.5637 C   0  0  0  0  0  0  0  0  0  0  0  0
  -26.4345  -35.6879   16.4942 C   0  0  0  0  0  0  0  0  0  0  0  0
  -23.0561   -9.7575   21.6641 C   0  0  0  0  0  0  0  0  0  0  0  0
  -24.7938   -8.1034   21.9491 C   0  0  0  0  0  0  0  0  0  0  0  0
  -25.9704  -37.6606   17.8013 C   0  0  0  0  0  0  0  0  0  0  0  0
  -26.7348  -34.9881   17.6623 C   0  0  0  0  0  0  0  0  0  0  0  0
  -25.6498  -29.0669   18.7885 C   0  0  0  0  0  0  0  0  0  0  0  0
  -22.1476   -8.7483   21.3456 C   0  0  0  0  0  0  0  0  0  0  0  0
  -23.8852   -7.0940   21.6307 C   0  0  0  0  0  0  0  0  0  0  0  0
  -26.4615  -27.9353   18.7219 C   0  0  0  0  0  0  0  0  0  0  0  0
  -21.4015   -5.4021   23.1762 C   0  0  0  0  0  0  0  0  0  0  0  0
  -21.3970   -4.2600   23.9768 C   0  0  0  0  0  0  0  0  0  0  0  0
  -26.8993  -28.1176   21.0871 C   0  0  0  0  0  0  0  0  0  0  0  0
  -21.9317   -2.9062   22.0485 C   0  0  0  0  0  0  0  0  0  0  0  0
  -30.9600  -23.4606   18.9280 C   0  0  0  0  0  0  0  0  0  0  0  0
  -24.3793   -9.4351   21.9659 C   0  0  0  0  0  0  0  0  0  0  0  0
  -25.6014  -10.9946   23.5728 C   0  0  0  0  0  0  0  0  0  0  0  0
  -26.2605  -36.9655   18.9860 C   0  0  0  0  0  0  0  0  0  0  0  0
  -25.4651  -29.7398   20.0048 C   0  0  0  0  0  0  0  0  0  0  0  0
  -26.6574  -35.6164   18.9168 C   0  0  0  0  0  0  0  0  0  0  0  0
  -26.0826  -29.2560   21.1670 C   0  0  0  0  0  0  0  0  0  0  0  0
  -22.5621   -7.4165   21.3289 C   0  0  0  0  0  0  0  0  0  0  0  0
  -27.0887  -27.4622   19.8708 C   0  0  0  0  0  0  0  0  0  0  0  0
  -21.6709   -5.2964   21.8117 C   0  0  0  0  0  0  0  0  0  0  0  0
  -21.6622   -3.0120   23.4130 C   0  0  0  0  0  0  0  0  0  0  0  0
  -21.9361   -4.0484   21.2478 C   0  0  0  0  0  0  0  0  0  0  0  0
  -30.2637  -24.6468   18.8169 C   0  0  0  0  0  0  0  0  0  0  0  0
  -25.3184  -10.4773   22.2944 C   0  0  0  0  0  0  0  0  0  0  0  0
  -28.8975  -24.5252   18.6659 C   0  0  0  0  0  0  0  0  0  0  0  0
  -26.5554  -11.9572   23.3501 C   0  0  0  0  0  0  0  0  0  0  0  0
  -29.0399  -22.2579   18.7443 C   0  0  0  0  0  0  0  0  0  0  0  0
  -25.0511  -10.6368   24.8475 C   0  0  0  0  0  0  0  0  0  0  0  0
  -26.1086  -32.6646   21.0705 C   0  0  0  0  0  0  0  0  0  0  0  0
  -24.4816  -31.6476   23.6859 C   0  0  0  0  0  0  0  0  0  0  0  0
  -23.4125  -29.0293   25.5961 C   0  0  0  0  0  0  0  0  0  0  0  0
  -28.5816  -16.1512   20.6835 C   0  0  0  0  0  0  0  0  0  0  0  0
  -26.2031  -37.7094   20.2967 C   0  0  0  0  0  0  0  0  0  0  0  0
  -24.5650  -30.9434   20.0651 C   0  0  0  0  0  0  0  0  0  0  0  0
  -25.9004  -29.9304   22.5013 C   0  0  0  0  0  0  0  0  0  0  0  0
  -26.1753  -36.7923   21.5168 C   0  0  0  0  0  0  0  0  0  0  0  0
  -29.2660  -13.0314   19.2248 C   0  0  0  0  0  0  0  0  0  0  0  0
  -27.2328  -35.7006   21.3882 C   0  0  0  0  0  0  0  0  0  0  0  0
  -28.3158  -12.1190   20.0000 C   0  0  0  0  0  0  0  0  0  0  0  0
  -28.2484  -18.6477   18.2249 C   0  0  0  0  0  0  0  0  0  0  0  0
  -29.4414  -19.4839   20.2853 C   0  0  0  0  0  0  0  0  0  0  0  0
  -28.6172  -14.3727   18.8782 C   0  0  0  0  0  0  0  0  0  0  0  0
  -28.8915  -17.2732   18.4314 C   0  0  0  0  0  0  0  0  0  0  0  0
  -30.0806  -18.1062   20.4343 C   0  0  0  0  0  0  0  0  0  0  0  0
  -27.0991  -14.1716   20.8208 C   0  0  0  0  0  0  0  0  0  0  0  0
  -26.9672  -34.8166   20.1636 C   0  0  1  0  0  0  0  0  0  0  0  0
  -24.8593  -31.8506   21.2558 C   0  0  1  0  0  0  0  0  0  0  0  0
  -27.7427  -12.8389   21.2338 C   0  0  1  0  0  0  0  0  0  0  0  0
  -29.1088  -19.7660   18.8178 C   0  0  0  0  0  0  0  0  0  0  0  0
  -22.1354  -28.5135   27.6938 C   0  0  0  0  0  0  0  0  0  0  0  0
  -26.8929  -32.4856   25.3572 C   0  0  0  0  0  0  0  0  0  0  0  0
  -25.9792  -31.1097   27.2388 C   0  0  0  0  0  0  0  0  0  0  0  0
  -24.6761  -33.0503   26.3679 C   0  0  0  0  0  0  0  0  0  0  0  0
  -21.3581  -27.5043   24.1086 C   0  0  0  0  0  0  0  0  0  0  0  0
  -28.0287  -25.7335   18.5352 C   0  0  0  0  0  0  0  0  0  1  0  0
  -24.8535  -30.9499   24.9720 C   0  0  1  0  0  0  0  0  0  0  0  0
  -22.0529  -28.7026   26.1870 C   0  0  2  0  0  0  0  0  0  0  0  0
  -25.6056  -31.8871   25.9586 C   0  0  0  0  0  0  0  0  0  0  0  0
  -30.3779  -22.2439   18.8957 N   0  0  0  0  0  0  0  0  0  0  0  0
  -26.0346  -11.0630   21.3311 N   0  0  0  0  0  0  0  0  0  0  0  0
  -28.2501  -23.3422   18.6251 N   0  0  0  0  0  0  0  0  0  0  0  0
  -26.7770  -11.9582   22.0044 N   0  0  0  0  0  0  0  0  0  0  0  0
  -25.0158  -31.1072   22.5077 N   0  0  0  0  0  0  0  0  0  0  0  0
  -28.0501  -15.0021   20.0789 N   0  0  0  0  0  0  0  0  0  0  0  0
  -29.2357  -17.0666   19.8455 N   0  0  0  0  0  0  0  0  0  0  0  0
  -27.2180  -12.7945   24.1762 N   0  0  0  0  0  0  0  0  0  0  0  0
  -24.0806   -9.6268   24.8966 N   0  0  0  0  0  0  0  0  0  0  0  0
  -28.4093  -21.0270   18.7065 N   0  0  0  0  0  0  0  0  0  0  0  0
  -25.9019  -33.8768   20.4402 N   0  0  0  0  0  0  0  0  0  0  0  0
  -23.6163  -30.3900   25.5052 N   0  0  0  0  0  0  0  0  0  0  0  0
  -21.5138  -27.4505   25.5850 N   0  3  0  0  0  0  0  0  0  0  0  0
  -25.3975  -11.2075   25.9095 O   0  0  0  0  0  0  0  0  0  0  0  0
  -27.1805  -32.2259   21.4710 O   0  0  0  0  0  0  0  0  0  0  0  0
  -23.7384  -32.6314   23.7247 O   0  0  0  0  0  0  0  0  0  0  0  0
  -24.2151  -28.1640   25.2531 O   0  0  0  0  0  0  0  0  0  0  0  0
  -28.4778  -16.3479   21.9007 O   0  0  0  0  0  0  0  0  0  0  0  0
  -21.6757   -6.4314   21.0183 O   0  0  0  0  0  0  0  0  0  0  0  0
  -27.8878  -26.3504   19.8080 O   0  0  0  0  0  0  0  0  0  1  0  0
  -21.6594   -1.9154   24.1822 F   0  0  0  0  0  0  0  0  0  0  0  0
  -22.1968   -3.9407   19.9378 F   0  0  0  0  0  0  0  0  0  0  0  0
  -31.0804  -26.1524   18.8670 Cl  0  0  0  0  0  0  0  0  0  0  0  0
  1  2  1  0  0  0  0
  1  5  2  0  0  0  0
  2  6  2  0  0  0  0
  3  8  2  0  0  0  0
  3 16  1  0  0  0  0
  4  9  1  0  0  0  0
  4 16  2  0  0  0  0
  5 18  1  0  0  0  0
  6 20  1  0  0  0  0
  7 10  2  0  0  0  0
  7 19  1  0  0  0  0
  8 22  1  0  0  0  0
  9 22  2  0  0  0  0
 10 23  1  0  0  0  0
 11 12  2  0  0  0  0
 11 24  1  0  0  0  0
 12 25  1  0  0  0  0
 13 21  1  0  0  0  0
 13 23  2  0  0  0  0
 14 25  2  0  0  0  0
 14 26  1  0  0  0  0
 15 27  1  0  0  0  0
 15 63  2  0  0  0  0
 16 28  1  0  0  0  0
 17 28  1  0  0  0  0
 17 30  2  0  0  0  0
 17 32  1  0  0  0  0
 18 20  2  0  0  0  0
 18 37  1  0  0  0  0
 19 21  2  0  0  0  0
 19 38  1  0  0  0  0
 20 50  1  0  0  0  0
 21 39  1  0  0  0  0
 22 81  1  0  0  0  0
 23 82  1  0  0  0  0
 24 26  2  0  0  0  0
 24 81  1  0  0  0  0
 25 83  1  0  0  0  0
 26 84  1  0  0  0  0
 27 29  2  0  0  0  0
 27 85  1  0  0  0  0
 28 64  2  0  0  0  0
 29 59  1  0  0  0  0
 29 65  1  0  0  0  0
 30 66  1  0  0  0  0
 30 70  1  0  0  0  0
 31 63  1  0  0  0  0
 31 65  2  0  0  0  0
 31 72  1  0  0  0  0
 32 71  1  0  0  0  0
 32 76  2  0  0  0  0
 33 51  1  0  0  0  0
 33 73  1  0  0  0  0
 33 77  2  0  0  0  0
 34 60  1  0  0  0  0
 34 67  1  0  0  0  0
 34 78  2  0  0  0  0
 35 61  1  0  0  0  0
 35 74  1  0  0  0  0
 35 79  2  0  0  0  0
 36 68  1  0  0  0  0
 36 69  1  0  0  0  0
 36 80  2  0  0  0  0
 37 40  1  0  0  0  0
 38 51  1  0  0  0  0
 39 67  1  0  0  0  0
 40 42  1  0  0  0  0
 41 43  1  0  0  0  0
 41 46  1  0  0  0  0
 42 50  1  0  0  0  0
 43 52  1  0  0  0  0
 44 47  1  0  0  0  0
 44 53  1  0  0  0  0
 45 48  1  0  0  0  0
 45 53  1  0  0  0  0
 46 68  1  0  0  0  0
 47 69  1  0  0  0  0
 48 69  1  0  0  0  0
 49 52  1  0  0  0  0
 49 68  1  0  0  0  0
 50 73  1  0  0  0  0
 51 67  1  0  0  0  0
 52 66  1  0  0  0  0
 53 72  1  0  0  0  0
 54 61  1  0  0  0  0
 55 62  1  0  0  0  0
 56 62  1  0  0  0  0
 57 62  1  0  0  0  0
 58 75  1  0  0  0  0
 59 82  1  0  0  0  0
 60 62  1  0  0  0  0
 60 74  1  0  0  0  0
 61 75  1  0  0  0  0
 64 66  1  0  0  0  0
M  CHG  1  75   1
M  ISO  4  36 100  59 101  69 100  82 101
M  END
> <Batch ID>
0193

> <Smiles>
CNC(C)C(=O)NC(C(=O)N1Cc2cc([101O:1][101CH2:1]c3nc(NC4CC[100N:0]([100C:0](=O)N5CCCC(n6nc(-c7ccc(Oc8ccc(F)cc8F)cc7)c(C(N)=O)c6N)C5)CC4)ncc3Cl)ccc2CC1C(=O)NC1CCCc2ccccc21)C(C)(C)C

> <Shape>
0.298

> <Color>
0.102

> <Negative vol penalty>
0.000

$$$$

  -OEChem-04052323323D

 86 95  0     1  0  0  0  0  0999 V2000
  -33.5742  -32.3900   20.8987 C   0  0  0  0  0  0  0  0  0  0  0  0
  -33.2635  -31.2444   21.6244 C   0  0  0  0  0  0  0  0  0  0  0  0
  -22.9942   -9.8479   20.0033 C   0  0  0  0  0  0  0  0  0  0  0  0
  -23.6828   -9.9613   22.3163 C   0  0  0  0  0  0  0  0  0  0  0  0
  -32.7084  -32.8388   19.9023 C   0  0  0  0  0  0  0  0  0  0  0  0
  -32.0860  -30.5477   21.3548 C   0  0  0  0  0  0  0  0  0  0  0  0
  -32.7997  -25.5390   21.1339 C   0  0  0  0  0  0  0  0  0  0  0  0
  -22.2196   -8.7236   20.2890 C   0  0  0  0  0  0  0  0  0  0  0  0
  -22.9082   -8.8370   22.6020 C   0  0  0  0  0  0  0  0  0  0  0  0
  -32.9166  -24.8585   22.3451 C   0  0  0  0  0  0  0  0  0  0  0  0
  -23.1484   -5.4854   22.2277 C   0  0  0  0  0  0  0  0  0  0  0  0
  -23.7203   -4.4880   23.0173 C   0  0  0  0  0  0  0  0  0  0  0  0
  -30.6126  -24.1654   22.1711 C   0  0  0  0  0  0  0  0  0  0  0  0
  -21.9709   -4.7830   24.6573 C   0  0  0  0  0  0  0  0  0  0  0  0
  -23.7259  -10.4667   21.0169 C   0  0  0  0  0  0  0  0  0  0  0  0
  -24.1227  -12.9752   20.7767 C   0  0  0  0  0  0  0  0  0  0  0  0
  -31.5245  -32.1418   19.6138 C   0  0  0  0  0  0  0  0  0  0  0  0
  -31.5833  -25.5469   20.4364 C   0  0  0  0  0  0  0  0  0  0  0  0
  -31.2029  -30.9884   20.3545 C   0  0  0  0  0  0  0  0  0  0  0  0
  -30.4836  -24.8446   20.9500 C   0  0  0  0  0  0  0  0  0  0  0  0
  -22.1766   -8.2182   21.5883 C   0  0  0  0  0  0  0  0  0  0  0  0
  -31.8221  -24.1739   22.8653 C   0  0  0  0  0  0  0  0  0  0  0  0
  -21.9877   -6.1318   22.6529 C   0  0  0  0  0  0  0  0  0  0  0  0
  -23.1316   -4.1367   24.2321 C   0  0  0  0  0  0  0  0  0  0  0  0
  -21.3989   -5.7805   23.8677 C   0  0  0  0  0  0  0  0  0  0  0  0
  -24.5267  -11.6277   20.7223 C   0  0  0  0  0  0  0  0  0  0  0  0
  -30.8818  -18.6950   23.4911 C   0  0  0  0  0  0  0  0  0  0  0  0
  -32.9100  -19.5465   24.1162 C   0  0  0  0  0  0  0  0  0  0  0  0
  -32.2830  -20.6558   24.6397 C   0  0  0  0  0  0  0  0  0  0  0  0
  -30.2547  -19.8038   24.0152 C   0  0  0  0  0  0  0  0  0  0  0  0
  -25.2406  -13.6839   20.4101 C   0  0  0  0  0  0  0  0  0  0  0  0
  -22.8507  -13.5360   21.1275 C   0  0  0  0  0  0  0  0  0  0  0  0
  -29.5260  -27.7982   19.5401 C   0  0  0  0  0  0  0  0  0  0  0  0
  -28.0900  -25.3269   18.0061 C   0  0  0  0  0  0  0  0  0  0  0  0
  -27.5682  -21.9612   17.7902 C   0  0  0  0  0  0  0  0  0  0  0  0
  -30.7368  -14.5654   20.7452 C   0  0  0  0  0  0  0  0  0  0  0  0
  -30.5966  -32.6921   18.5599 C   0  0  0  0  0  0  0  0  0  0  0  0
  -31.4812  -26.2635   19.1179 C   0  0  0  0  0  0  0  0  0  0  0  0
  -29.1613  -24.8053   20.2300 C   0  0  0  0  0  0  0  0  0  0  0  0
  -29.5533  -31.6857   18.0813 C   0  0  0  0  0  0  0  0  0  0  0  0
  -29.6104  -12.1670   18.4082 C   0  0  0  0  0  0  0  0  0  0  0  0
  -28.9075  -30.9804   19.2697 C   0  0  0  0  0  0  0  0  0  0  0  0
  -28.1663  -11.8915   18.8181 C   0  0  0  0  0  0  0  0  0  0  0  0
  -29.6827  -16.4037   23.7391 C   0  0  0  0  0  0  0  0  0  0  0  0
  -30.4905  -12.3736   19.6336 C   0  0  0  0  0  0  0  0  0  0  0  0
  -29.3140  -15.3157   22.7395 C   0  0  0  0  0  0  0  0  0  0  0  0
  -30.8641  -16.8359   21.7252 C   0  0  0  0  0  0  0  0  0  0  0  0
  -28.5703  -13.2490   20.9363 C   0  0  0  0  0  0  0  0  0  0  0  0
  -29.9473  -30.1914   20.0746 C   0  0  1  0  0  0  0  0  0  0  0  0
  -30.1046  -17.5743   22.8364 C   0  0  2  0  0  0  0  0  0  0  0  0
  -30.0479  -26.6329   18.7480 C   0  0  1  0  0  0  0  0  0  0  0  0
  -27.6391  -13.0105   19.7297 C   0  0  2  0  0  0  0  0  0  0  0  0
  -34.8929  -18.2693   23.2656 C   0  0  0  0  0  0  0  0  0  0  0  0
  -26.3157  -20.2436   16.4566 C   0  0  0  0  0  0  0  0  0  0  0  0
  -25.5079  -26.1049   19.4336 C   0  0  0  0  0  0  0  0  0  0  0  0
  -24.5801  -23.8590   18.8310 C   0  0  0  0  0  0  0  0  0  0  0  0
  -25.2208  -25.4651   17.0331 C   0  0  0  0  0  0  0  0  0  0  0  0
  -30.0704  -20.6337   16.9325 C   0  0  0  0  0  0  0  0  0  0  0  0
  -34.3917  -19.3942   24.1682 C   0  0  0  0  0  0  0  0  0  0  0  0
  -33.0572  -21.7553   25.2825 C   0  0  0  0  0  0  0  0  0  0  0  0
  -33.2165  -22.9827   24.3795 C   0  0  0  0  0  0  0  0  0  1  0  0
  -27.0319  -24.3132   18.3691 C   0  0  1  0  0  0  0  0  0  0  0  0
  -27.6218  -21.0072   16.6105 C   0  0  2  0  0  0  0  0  0  0  0  0
  -25.6094  -24.9377   18.4315 C   0  0  0  0  0  0  0  0  0  0  0  0
  -25.8017  -11.4863   20.3502 N   0  0  0  0  0  0  0  0  0  0  0  0
  -32.2207  -18.5464   23.5322 N   0  0  0  0  0  0  0  0  0  0  0  0
  -30.9441  -20.8042   24.5989 N   0  0  0  0  0  0  0  0  0  0  0  0
  -26.2085  -12.7541   20.1674 N   0  0  0  0  0  0  0  0  0  0  0  0
  -29.1097  -25.5265   18.9475 N   0  0  0  0  0  0  0  0  0  0  0  0
  -29.9651  -13.4221   20.5101 N   0  0  0  0  0  0  0  0  0  0  0  0
  -30.2306  -15.5253   21.6206 N   0  0  0  0  0  0  0  0  0  0  0  0
  -28.8469  -19.9006   23.9412 N   0  0  0  0  0  0  0  0  0  0  0  0
  -25.4803  -15.0055   20.2747 N   0  0  0  0  0  0  0  0  0  0  0  0
  -21.8105  -12.6650   21.4791 N   0  0  0  0  0  0  0  0  0  0  0  0
  -30.2733  -28.9523   19.4018 N   0  0  0  0  0  0  0  0  0  0  0  0
  -27.1643  -23.2232   17.4085 N   0  0  0  0  0  0  0  0  0  0  0  0
  -28.7243  -20.0211   16.7916 N   0  3  0  0  0  0  0  0  0  0  0  0
  -22.6379  -14.7722   21.1132 O   0  0  0  0  0  0  0  0  0  0  0  0
  -28.5191  -27.6608   20.2248 O   0  0  0  0  0  0  0  0  0  0  0  0
  -28.0184  -25.9147   16.9240 O   0  0  0  0  0  0  0  0  0  0  0  0
  -27.8523  -21.6201   18.9362 O   0  0  0  0  0  0  0  0  0  0  0  0
  -31.8528  -14.7054   20.2267 O   0  0  0  0  0  0  0  0  0  0  0  0
  -21.4206   -7.1213   21.8675 O   0  0  0  0  0  0  0  0  0  0  0  0
  -31.9341  -23.5048   24.0560 O   0  0  0  0  0  0  0  0  0  1  0  0
  -23.6801   -3.1777   24.9895 F   0  0  0  0  0  0  0  0  0  0  0  0
  -20.2832   -6.3971   24.2809 F   0  0  0  0  0  0  0  0  0  0  0  0
  1  2  1  0  0  0  0
  1  5  2  0  0  0  0
  2  6  2  0  0  0  0
  3  8  2  0  0  0  0
  3 15  1  0  0  0  0
  4  9  1  0  0  0  0
  4 15  2  0  0  0  0
  5 17  1  0  0  0  0
  6 19  1  0  0  0  0
  7 10  2  0  0  0  0
  7 18  1  0  0  0  0
  8 21  1  0  0  0  0
  9 21  2  0  0  0  0
 10 22  1  0  0  0  0
 11 12  2  0  0  0  0
 11 23  1  0  0  0  0
 12 24  1  0  0  0  0
 13 20  1  0  0  0  0
 13 22  2  0  0  0  0
 14 24  2  0  0  0  0
 14 25  1  0  0  0  0
 15 26  1  0  0  0  0
 16 26  1  0  0  0  0
 16 31  2  0  0  0  0
 16 32  1  0  0  0  0
 17 19  2  0  0  0  0
 17 37  1  0  0  0  0
 18 20  2  0  0  0  0
 18 38  1  0  0  0  0
 19 49  1  0  0  0  0
 20 39  1  0  0  0  0
 21 83  1  0  0  0  0
 22 84  1  0  0  0  0
 23 25  2  0  0  0  0
 23 83  1  0  0  0  0
 24 85  1  0  0  0  0
 25 86  1  0  0  0  0
 26 65  2  0  0  0  0
 27 30  1  0  0  0  0
 27 50  1  0  0  0  0
 27 66  2  0  0  0  0
 28 29  2  0  0  0  0
 28 59  1  0  0  0  0
 28 66  1  0  0  0  0
 29 60  1  0  0  0  0
 29 67  1  0  0  0  0
 30 67  2  0  0  0  0
 30 72  1  0  0  0  0
 31 68  1  0  0  0  0
 31 73  1  0  0  0  0
 32 74  1  0  0  0  0
 32 78  2  0  0  0  0
 33 51  1  0  0  0  0
 33 75  1  0  0  0  0
 33 79  2  0  0  0  0
 34 62  1  0  0  0  0
 34 69  1  0  0  0  0
 34 80  2  0  0  0  0
 35 63  1  0  0  0  0
 35 76  1  0  0  0  0
 35 81  2  0  0  0  0
 36 70  1  0  0  0  0
 36 71  1  0  0  0  0
 36 82  2  0  0  0  0
 37 40  1  0  0  0  0
 38 51  1  0  0  0  0
 39 69  1  0  0  0  0
 40 42  1  0  0  0  0
 41 43  1  0  0  0  0
 41 45  1  0  0  0  0
 42 49  1  0  0  0  0
 43 52  1  0  0  0  0
 44 46  1  0  0  0  0
 44 50  1  0  0  0  0
 45 70  1  0  0  0  0
 46 71  1  0  0  0  0
 47 50  1  0  0  0  0
 47 71  1  0  0  0  0
 48 52  1  0  0  0  0
 48 70  1  0  0  0  0
 49 75  1  0  0  0  0
 51 69  1  0  0  0  0
 52 68  1  0  0  0  0
 53 59  1  0  0  0  0
 54 63  1  0  0  0  0
 55 64  1  0  0  0  0
 56 64  1  0  0  0  0
 57 64  1  0  0  0  0
 58 77  1  0  0  0  0
 60 61  1  0  0  0  0
 61 84  1  0  0  0  0
 62 64  1  0  0  0  0
 62 76  1  0  0  0  0
 63 77  1  0  0  0  0
 65 68  1  0  0  0  0
M  CHG  1  77   1
M  ISO  4  36 100  61 101  71 100  84 101
M  END
> <Batch ID>
0193

> <Smiles>
CCc1nc(C2CC[100N:0]([100C:0](=O)N3CCCC(n4nc(-c5ccc(Oc6ccc(F)cc6F)cc5)c(C(N)=O)c4N)C3)C2)c(N)nc1C[101CH2:1][101O:1]c1ccc2c(c1)CN(C(=O)C(NC(=O)C(C)NC)C(C)(C)C)C(C(=O)NC1CCCc3ccccc31)C2

> <Shape>
0.236

> <Color>
0.196

> <Negative vol penalty>
0.000

$$$$

  -OEChem-04052323323D

 80 89  0     1  0  0  0  0  0999 V2000
  -17.5008  -32.7133   22.0597 C   0  0  0  0  0  0  0  0  0  0  0  0
  -18.6710  -32.7466   21.3081 C   0  0  0  0  0  0  0  0  0  0  0  0
  -28.3871  -13.7469   21.1066 C   0  0  0  0  0  0  0  0  0  0  0  0
  -26.6843  -14.5718   19.6043 C   0  0  0  0  0  0  0  0  0  0  0  0
  -17.4587  -31.9889   23.2502 C   0  0  0  0  0  0  0  0  0  0  0  0
  -19.8003  -32.0565   21.7473 C   0  0  0  0  0  0  0  0  0  0  0  0
  -25.4875  -28.4907   19.2458 C   0  0  0  0  0  0  0  0  0  0  0  0
  -27.7022  -12.5370   21.2187 C   0  0  0  0  0  0  0  0  0  0  0  0
  -25.9994  -13.3618   19.7163 C   0  0  0  0  0  0  0  0  0  0  0  0
  -26.8761  -28.4572   19.3662 C   0  0  0  0  0  0  0  0  0  0  0  0
  -23.6159  -10.6233   19.8887 C   0  0  0  0  0  0  0  0  0  0  0  0
  -22.2347  -10.6751   20.0760 C   0  0  0  0  0  0  0  0  0  0  0  0
  -26.6629  -27.1745   21.3981 C   0  0  0  0  0  0  0  0  0  0  0  0
  -22.5592  -11.9113   22.1264 C   0  0  0  0  0  0  0  0  0  0  0  0
  -27.8781  -14.7644   20.2995 C   0  0  0  0  0  0  0  0  0  0  0  0
  -29.5767  -16.3465   19.2415 C   0  0  0  0  0  0  0  0  0  0  0  0
  -18.5851  -31.2816   23.6993 C   0  0  0  0  0  0  0  0  0  0  0  0
  -24.6746  -27.8747   20.2081 C   0  0  0  0  0  0  0  0  0  0  0  0
  -19.7736  -31.3230   22.9456 C   0  0  0  0  0  0  0  0  0  0  0  0
  -25.2644  -27.1994   21.2862 C   0  0  0  0  0  0  0  0  0  0  0  0
  -26.5084  -12.3444   20.5235 C   0  0  0  0  0  0  0  0  0  0  0  0
  -27.4639  -27.8015   20.4440 C   0  0  0  0  0  0  0  0  0  0  0  0
  -24.4688  -11.2154   20.8202 C   0  0  0  0  0  0  0  0  0  0  0  0
  -21.7063  -11.3191   21.1949 C   0  0  0  0  0  0  0  0  0  0  0  0
  -23.9405  -11.8594   21.9390 C   0  0  0  0  0  0  0  0  0  0  0  0
  -28.5849  -16.0146   20.1838 C   0  0  0  0  0  0  0  0  0  0  0  0
  -29.9271  -17.6377   19.5520 C   0  0  0  0  0  0  0  0  0  0  0  0
  -30.1317  -15.5580   18.1803 C   0  0  0  0  0  0  0  0  0  0  0  0
  -22.4632  -28.8852   22.2556 C   0  0  0  0  0  0  0  0  0  0  0  0
  -22.0902  -25.7120   22.8161 C   0  0  0  0  0  0  0  0  0  0  0  0
  -23.4385  -22.5779   22.7373 C   0  0  0  0  0  0  0  0  0  0  0  0
  -28.0769  -22.8447   20.8070 C   0  0  0  0  0  0  0  0  0  0  0  0
  -18.5061  -30.5514   25.0166 C   0  0  0  0  0  0  0  0  0  0  0  0
  -23.1790  -27.8969   20.0495 C   0  0  0  0  0  0  0  0  0  0  0  0
  -24.4366  -26.5049   22.3355 C   0  0  0  0  0  0  0  0  0  0  0  0
  -19.6318  -29.5409   25.2213 C   0  0  0  0  0  0  0  0  0  0  0  0
  -28.7979  -20.4999   23.5598 C   0  0  0  0  0  0  0  0  0  0  0  0
  -20.9772  -30.1589   24.8540 C   0  0  0  0  0  0  0  0  0  0  0  0
  -28.8269  -19.1465   22.8498 C   0  0  0  0  0  0  0  0  0  0  0  0
  -27.8721  -21.4908   22.8593 C   0  0  0  0  0  0  0  0  0  0  0  0
  -30.2986  -22.5662   19.5840 C   0  0  0  0  0  0  0  0  0  0  0  0
  -28.1813  -20.3186   20.7104 C   0  0  0  0  0  0  0  0  0  0  0  0
  -28.7075  -24.2208   18.8408 C   0  0  0  0  0  0  0  0  0  0  0  0
  -31.7103  -24.7555   20.0098 C   0  0  0  0  0  0  0  0  0  0  0  0
  -21.0118  -30.5670   23.3763 C   0  0  1  0  0  0  0  0  0  0  0  0
  -22.4355  -27.6766   21.3633 C   0  0  1  0  0  0  0  0  0  0  0  0
  -31.0945  -23.7400   19.0303 C   0  0  2  0  0  0  0  0  0  0  0  0
  -29.1488  -19.3149   21.3539 C   0  0  2  0  0  0  0  0  0  0  0  0
  -30.0826  -24.8310   18.6682 C   0  0  2  0  0  0  0  0  0  0  0  0
  -22.9058  -20.1897   23.2941 C   0  0  0  0  0  0  0  0  0  0  0  0
  -31.7596  -27.5479   20.6100 C   0  0  0  0  0  0  0  0  0  0  0  0
  -22.4944  -26.3153   25.7796 C   0  0  0  0  0  0  0  0  0  0  0  0
  -22.9002  -23.8728   26.1501 C   0  0  0  0  0  0  0  0  0  0  0  0
  -20.6921  -24.6520   25.2900 C   0  0  0  0  0  0  0  0  0  0  0  0
  -23.7750  -21.7253   19.9233 C   0  0  0  0  0  0  0  0  0  0  0  0
  -29.5793  -27.7964   19.3572 C   0  0  0  0  0  0  0  0  0  1  0  0
  -22.7081  -24.7142   23.7656 C   0  0  1  0  0  0  0  0  0  0  0  0
  -22.8951  -21.2605   22.2143 C   0  0  2  0  0  0  0  0  0  0  0  0
  -30.8670  -26.9949   19.5109 C   0  0  2  0  0  0  0  0  0  0  0  0
  -22.2145  -24.9032   25.2278 C   0  0  0  0  0  0  0  0  0  0  0  0
  -28.3222  -17.0144   21.0297 N   0  0  0  0  0  0  0  0  0  0  0  0
  -29.1542  -17.9871   20.6201 N   0  0  0  0  0  0  0  0  0  0  0  0
  -22.9785  -26.5601   22.1397 N   0  0  0  0  0  0  0  0  0  0  0  0
  -28.1880  -21.5960   21.4344 N   0  0  0  0  0  0  0  0  0  0  0  0
  -28.9588  -23.1191   19.7583 N   0  0  0  0  0  0  0  0  0  0  0  0
  -30.8179  -18.4970   19.0130 N   0  0  0  0  0  0  0  0  0  0  0  0
  -29.6580  -14.2512   18.0009 N   0  0  0  0  0  0  0  0  0  0  0  0
  -21.2144  -29.4063   22.5360 N   0  0  0  0  0  0  0  0  0  0  0  0
  -22.4321  -23.3948   23.2076 N   0  0  0  0  0  0  0  0  0  0  0  0
  -30.5134  -25.6001   19.8612 N   0  3  2  0  0  0  0  0  0  0  0  0
  -23.7170  -20.7798   21.0677 N   0  3  0  0  0  0  0  0  0  0  0  0
  -31.0329  -15.9936   17.4243 O   0  0  0  0  0  0  0  0  0  0  0  0
  -23.5378  -29.3124   22.6610 O   0  0  0  0  0  0  0  0  0  0  0  0
  -20.8650  -25.7332   22.6743 O   0  0  0  0  0  0  0  0  0  0  0  0
  -24.6363  -22.8532   22.7328 O   0  0  0  0  0  0  0  0  0  0  0  0
  -27.2545  -23.6847   21.1948 O   0  0  0  0  0  0  0  0  0  0  0  0
  -25.8399  -11.1638   20.6324 O   0  0  0  0  0  0  0  0  0  0  0  0
  -28.8282  -27.7676   20.5651 O   0  0  0  0  0  0  0  0  0  1  0  0
  -20.3799  -11.3701   21.3739 F   0  0  0  0  0  0  0  0  0  0  0  0
  -24.7548  -12.4311   22.8367 F   0  0  0  0  0  0  0  0  0  0  0  0
  1  2  1  0  0  0  0
  1  5  2  0  0  0  0
  2  6  2  0  0  0  0
  3  8  2  0  0  0  0
  3 15  1  0  0  0  0
  4  9  1  0  0  0  0
  4 15  2  0  0  0  0
  5 17  1  0  0  0  0
  6 19  1  0  0  0  0
  7 10  2  0  0  0  0
  7 18  1  0  0  0  0
  8 21  1  0  0  0  0
  9 21  2  0  0  0  0
 10 22  1  0  0  0  0
 11 12  2  0  0  0  0
 11 23  1  0  0  0  0
 12 24  1  0  0  0  0
 13 20  1  0  0  0  0
 13 22  2  0  0  0  0
 14 24  2  0  0  0  0
 14 25  1  0  0  0  0
 15 26  1  0  0  0  0
 16 26  1  0  0  0  0
 16 27  2  0  0  0  0
 16 28  1  0  0  0  0
 17 19  2  0  0  0  0
 17 33  1  0  0  0  0
 18 20  2  0  0  0  0
 18 34  1  0  0  0  0
 19 45  1  0  0  0  0
 20 35  1  0  0  0  0
 21 77  1  0  0  0  0
 22 78  1  0  0  0  0
 23 25  2  0  0  0  0
 23 77  1  0  0  0  0
 24 79  1  0  0  0  0
 25 80  1  0  0  0  0
 26 61  2  0  0  0  0
 27 62  1  0  0  0  0
 27 66  1  0  0  0  0
 28 67  1  0  0  0  0
 28 72  2  0  0  0  0
 29 46  1  0  0  0  0
 29 68  1  0  0  0  0
 29 73  2  0  0  0  0
 30 57  1  0  0  0  0
 30 63  1  0  0  0  0
 30 74  2  0  0  0  0
 31 58  1  0  0  0  0
 31 69  1  0  0  0  0
 31 75  2  0  0  0  0
 32 64  1  0  0  0  0
 32 65  1  0  0  0  0
 32 76  2  0  0  0  0
 33 36  1  0  0  0  0
 34 46  1  0  0  0  0
 35 63  1  0  0  0  0
 36 38  1  0  0  0  0
 37 39  1  0  0  0  0
 37 40  1  0  0  0  0
 38 45  1  0  0  0  0
 39 48  1  0  0  0  0
 40 64  1  0  0  0  0
 41 47  1  0  0  0  0
 41 65  1  0  0  0  0
 42 48  1  0  0  0  0
 42 64  1  0  0  0  0
 43 49  1  0  0  0  0
 43 65  1  0  0  0  0
 44 47  1  0  0  0  0
 44 70  1  0  0  0  0
 45 68  1  0  0  0  0
 46 63  1  0  0  0  0
 47 49  1  0  0  0  0
 48 62  1  0  0  0  0
 49 70  1  0  0  0  0
 50 58  1  0  0  0  0
 51 59  1  0  0  0  0
 52 60  1  0  0  0  0
 53 60  1  0  0  0  0
 54 60  1  0  0  0  0
 55 71  1  0  0  0  0
 56 59  1  0  0  0  0
 56 78  1  0  0  0  0
 57 60  1  0  0  0  0
 57 69  1  0  0  0  0
 58 71  1  0  0  0  0
 59 70  1  0  0  0  0
 61 62  1  0  0  0  0
M  CHG  2  70   1  71   1
M  ISO  4  32 100  56 101  65 100  78 101
M  END
> <Batch ID>
0193

> <Smiles>
CNC(C)C(=O)NC(C(=O)N1Cc2cc([101O:1][101CH2:1]C(C)N3CC4C[100N:0]([100C:0](=O)N5CCCC(n6nc(-c7ccc(Oc8ccc(F)cc8F)cc7)c(C(N)=O)c6N)C5)CC43)ccc2CC1C(=O)NC1CCCc2ccccc21)C(C)(C)C

> <Shape>
0.254

> <Color>
0.062

> <Negative vol penalty>
0.000

$$$$

  -OEChem-04052323323D

 83 92  0     1  0  0  0  0  0999 V2000
  -19.2109  -21.8414   22.4024 C   0  0  0  0  0  0  0  0  0  0  0  0
  -20.5145  -22.0783   21.9780 C   0  0  0  0  0  0  0  0  0  0  0  0
  -25.7910  -14.3535   22.4990 C   0  0  0  0  0  0  0  0  0  0  0  0
  -25.4464  -13.8271   20.1664 C   0  0  0  0  0  0  0  0  0  0  0  0
  -18.2340  -22.8210   22.2298 C   0  0  0  0  0  0  0  0  0  0  0  0
  -20.8416  -23.2946   21.3797 C   0  0  0  0  0  0  0  0  0  0  0  0
  -26.1391  -26.3289   21.8644 C   0  0  0  0  0  0  0  0  0  0  0  0
  -24.8695  -13.3697   22.8573 C   0  0  0  0  0  0  0  0  0  0  0  0
  -24.5249  -12.8431   20.5246 C   0  0  0  0  0  0  0  0  0  0  0  0
  -27.2548  -26.4070   21.0321 C   0  0  0  0  0  0  0  0  0  0  0  0
  -24.5962   -9.6723   21.6914 C   0  0  0  0  0  0  0  0  0  0  0  0
  -24.6891   -8.4360   21.0522 C   0  0  0  0  0  0  0  0  0  0  0  0
  -26.3869  -28.4416   20.0696 C   0  0  0  0  0  0  0  0  0  0  0  0
  -22.4449   -8.7083   20.1997 C   0  0  0  0  0  0  0  0  0  0  0  0
  -26.0795  -14.5823   21.1536 C   0  0  0  0  0  0  0  0  0  0  0  0
  -28.4195  -15.4421   20.6128 C   0  0  0  0  0  0  0  0  0  0  0  0
  -18.5514  -24.0537   21.6379 C   0  0  0  0  0  0  0  0  0  0  0  0
  -25.1319  -27.3023   21.7978 C   0  0  0  0  0  0  0  0  0  0  0  0
  -19.8676  -24.2911   21.1978 C   0  0  0  0  0  0  0  0  0  0  0  0
  -25.2606  -28.3750   20.9040 C   0  0  0  0  0  0  0  0  0  0  0  0
  -29.3810  -23.9480   16.8906 C   0  0  0  0  0  0  0  0  0  0  0  0
  -24.2364  -12.6145   21.8701 C   0  0  0  0  0  0  0  0  0  0  0  0
  -27.3775  -27.4619   20.1325 C   0  0  0  0  0  0  0  0  0  0  0  0
  -23.4277  -10.4266   21.5848 C   0  0  0  0  0  0  0  0  0  0  0  0
  -23.6134   -7.9540   20.3064 C   0  0  0  0  0  0  0  0  0  0  0  0
  -22.3521   -9.9446   20.8389 C   0  0  0  0  0  0  0  0  0  0  0  0
  -27.0309  -15.5989   20.7828 C   0  0  0  0  0  0  0  0  0  0  0  0
  -29.8950  -25.1265   17.3372 C   0  0  0  0  0  0  0  0  0  0  0  0
  -28.2843  -24.3067   16.1131 C   0  0  0  0  0  0  0  0  0  0  0  0
  -28.8661  -16.6932   20.2636 C   0  0  0  0  0  0  0  0  0  0  0  0
  -29.2330  -14.2704   20.7576 C   0  0  0  0  0  0  0  0  0  0  0  0
  -22.0357  -27.2809   21.0790 C   0  0  0  0  0  0  0  0  0  0  0  0
  -22.1984  -30.3863   22.0021 C   0  0  0  0  0  0  0  0  0  0  0  0
  -24.1102  -33.1756   22.4625 C   0  0  0  0  0  0  0  0  0  0  0  0
  -26.1819  -21.2307   17.6228 C   0  0  0  0  0  0  0  0  0  0  0  0
  -17.4510  -25.0638   21.4296 C   0  0  0  0  0  0  0  0  0  0  0  0
  -23.9475  -27.2182   22.7212 C   0  0  0  0  0  0  0  0  0  0  0  0
  -30.1545  -22.7978   17.3809 C   0  0  0  0  0  0  0  0  0  0  0  0
  -24.2171  -29.4567   20.8078 C   0  0  0  0  0  0  0  0  0  0  0  0
  -31.0797  -25.0174   18.1953 C   0  0  0  0  0  0  0  0  0  0  0  0
  -17.9637  -26.4694   21.1267 C   0  0  0  0  0  0  0  0  0  0  0  0
  -31.0728  -23.4702   18.4687 C   0  0  0  0  0  0  0  0  0  0  0  0
  -27.8377  -21.3316   20.8381 C   0  0  0  0  0  0  0  0  0  0  0  0
  -19.0646  -26.4203   20.0720 C   0  0  0  0  0  0  0  0  0  0  0  0
  -27.9492  -19.8421   21.1675 C   0  0  0  0  0  0  0  0  0  0  0  0
  -26.5194  -21.6467   20.1368 C   0  0  0  0  0  0  0  0  0  0  0  0
  -26.3818  -19.3596   19.2321 C   0  0  0  0  0  0  0  0  0  0  0  0
  -20.2670  -25.6074   20.5669 C   0  0  1  0  0  0  0  0  0  0  0  0
  -22.7336  -27.9861   22.2074 C   0  0  1  0  0  0  0  0  0  0  0  0
  -27.7035  -18.9730   19.9201 C   0  0  2  0  0  0  0  0  0  0  0  0
  -23.9551  -35.5718   23.1915 C   0  0  0  0  0  0  0  0  0  0  0  0
  -20.9487  -31.1198   19.3170 C   0  0  0  0  0  0  0  0  0  0  0  0
  -21.6860  -33.4819   19.6979 C   0  0  0  0  0  0  0  0  0  0  0  0
  -20.0666  -32.4142   21.2665 C   0  0  0  0  0  0  0  0  0  0  0  0
  -25.9681  -32.7293   24.7225 C   0  0  0  0  0  0  0  0  0  0  0  0
  -27.3570  -23.4291   15.3828 C   0  0  0  0  0  0  0  0  0  0  0  0
  -29.2914  -27.6065   17.0503 C   0  0  0  0  0  0  0  0  0  0  0  0
  -26.0032  -23.2096   16.0871 C   0  0  0  0  0  0  0  0  0  0  0  0
  -28.2822  -28.1640   18.0481 C   0  0  0  0  0  0  0  0  0  1  0  0
  -22.4899  -31.6943   21.3071 C   0  0  1  0  0  0  0  0  0  0  0  0
  -24.2204  -34.1399   23.6297 C   0  0  2  0  0  0  0  0  0  0  0  0
  -21.3167  -32.1563   20.3973 C   0  0  0  0  0  0  0  0  0  0  0  0
  -26.6222  -16.8508   20.5601 N   0  0  0  0  0  0  0  0  0  0  0  0
  -28.1187  -25.6421   16.0745 N   0  0  0  0  0  0  0  0  0  0  0  0
  -29.1314  -26.1202   16.8417 N   0  0  0  0  0  0  0  0  0  0  0  0
  -27.7608  -17.4922   20.2467 N   0  0  0  0  0  0  0  0  0  0  0  0
  -23.0745  -29.3267   21.7272 N   0  0  0  0  0  0  0  0  0  0  0  0
  -26.3559  -20.7986   18.9473 N   0  0  0  0  0  0  0  0  0  0  0  0
  -30.0924  -17.1768   19.9725 N   0  0  0  0  0  0  0  0  0  0  0  0
  -28.6130  -13.0673   21.1215 N   0  0  0  0  0  0  0  0  0  0  0  0
  -21.0615  -26.3906   21.4888 N   0  0  0  0  0  0  0  0  0  0  0  0
  -22.8421  -32.6446   22.3566 N   0  0  0  0  0  0  0  0  0  0  0  0
  -26.1705  -22.6075   17.4259 N   0  0  0  0  0  0  0  0  0  0  0  0
  -25.5841  -34.0762   24.2273 N   0  3  0  0  0  0  0  0  0  0  0  0
  -30.4754  -14.2934   20.5857 O   0  0  0  0  0  0  0  0  0  0  0  0
  -22.3562  -27.5273   19.9222 O   0  0  0  0  0  0  0  0  0  0  0  0
  -21.2333  -30.3096   22.7665 O   0  0  0  0  0  0  0  0  0  0  0  0
  -25.0537  -32.9218   21.7168 O   0  0  0  0  0  0  0  0  0  0  0  0
  -26.0509  -20.4490   16.6744 O   0  0  0  0  0  0  0  0  0  0  0  0
  -23.3373  -11.6541   22.2193 O   0  0  0  0  0  0  0  0  0  0  0  0
  -28.4652  -27.5402   19.3185 O   0  0  0  0  0  0  0  0  0  1  0  0
  -23.7033   -6.7675   19.6913 F   0  0  0  0  0  0  0  0  0  0  0  0
  -21.2273  -10.6652   20.7319 F   0  0  0  0  0  0  0  0  0  0  0  0
  1  2  1  0  0  0  0
  1  5  2  0  0  0  0
  2  6  2  0  0  0  0
  3  8  2  0  0  0  0
  3 15  1  0  0  0  0
  4  9  1  0  0  0  0
  4 15  2  0  0  0  0
  5 17  1  0  0  0  0
  6 19  1  0  0  0  0
  7 10  2  0  0  0  0
  7 18  1  0  0  0  0
  8 22  1  0  0  0  0
  9 22  2  0  0  0  0
 10 23  1  0  0  0  0
 11 12  2  0  0  0  0
 11 24  1  0  0  0  0
 12 25  1  0  0  0  0
 13 20  1  0  0  0  0
 13 23  2  0  0  0  0
 14 25  2  0  0  0  0
 14 26  1  0  0  0  0
 15 27  1  0  0  0  0
 16 27  1  0  0  0  0
 16 30  2  0  0  0  0
 16 31  1  0  0  0  0
 17 19  2  0  0  0  0
 17 36  1  0  0  0  0
 18 20  2  0  0  0  0
 18 37  1  0  0  0  0
 19 48  1  0  0  0  0
 20 39  1  0  0  0  0
 21 28  2  0  0  0  0
 21 29  1  0  0  0  0
 21 38  1  0  0  0  0
 22 80  1  0  0  0  0
 23 81  1  0  0  0  0
 24 26  2  0  0  0  0
 24 80  1  0  0  0  0
 25 82  1  0  0  0  0
 26 83  1  0  0  0  0
 27 63  2  0  0  0  0
 28 40  1  0  0  0  0
 28 65  1  0  0  0  0
 29 56  1  0  0  0  0
 29 64  2  0  0  0  0
 30 66  1  0  0  0  0
 30 69  1  0  0  0  0
 31 70  1  0  0  0  0
 31 75  2  0  0  0  0
 32 49  1  0  0  0  0
 32 71  1  0  0  0  0
 32 76  2  0  0  0  0
 33 60  1  0  0  0  0
 33 67  1  0  0  0  0
 33 77  2  0  0  0  0
 34 61  1  0  0  0  0
 34 72  1  0  0  0  0
 34 78  2  0  0  0  0
 35 68  1  0  0  0  0
 35 73  1  0  0  0  0
 35 79  2  0  0  0  0
 36 41  1  0  0  0  0
 37 49  1  0  0  0  0
 38 42  1  0  0  0  0
 39 67  1  0  0  0  0
 40 42  1  0  0  0  0
 41 44  1  0  0  0  0
 43 45  1  0  0  0  0
 43 46  1  0  0  0  0
 44 48  1  0  0  0  0
 45 50  1  0  0  0  0
 46 68  1  0  0  0  0
 47 50  1  0  0  0  0
 47 68  1  0  0  0  0
 48 71  1  0  0  0  0
 49 67  1  0  0  0  0
 50 66  1  0  0  0  0
 51 61  1  0  0  0  0
 52 62  1  0  0  0  0
 53 62  1  0  0  0  0
 54 62  1  0  0  0  0
 55 74  1  0  0  0  0
 56 58  1  0  0  0  0
 57 59  1  0  0  0  0
 57 65  1  0  0  0  0
 58 73  1  0  0  0  0
 59 81  1  0  0  0  0
 60 62  1  0  0  0  0
 60 72  1  0  0  0  0
 61 74  1  0  0  0  0
 63 66  1  0  0  0  0
 64 65  1  0  0  0  0
M  CHG  1  74   1
M  ISO  4  35 100  59 101  73 100  81 101
M  END
> <Batch ID>
0193

> <Smiles>
CNC(C)C(=O)NC(C(=O)N1Cc2cc([101O:1][101CH2:1]Cn3nc(CC[100NH:0][100C:0](=O)N4CCCC(n5nc(-c6ccc(Oc7ccc(F)cc7F)cc6)c(C(N)=O)c5N)C4)c4c3CCC4)ccc2CC1C(=O)NC1CCCc2ccccc21)C(C)(C)C

> <Shape>
0.257

> <Color>
0.065

> <Negative vol penalty>
0.000

$$$$

  -OEChem-04052323323D

 85 94  0     1  0  0  0  0  0999 V2000
  -18.6886  -26.4192   23.0104 C   0  0  0  0  0  0  0  0  0  0  0  0
  -18.9812  -25.2432   22.3270 C   0  0  0  0  0  0  0  0  0  0  0  0
  -26.3395  -28.4357   18.8648 C   0  0  0  0  0  0  0  0  0  0  0  0
  -26.4008  -28.0943   21.2558 C   0  0  0  0  0  0  0  0  0  0  0  0
  -19.6929  -27.0844   23.7124 C   0  0  0  0  0  0  0  0  0  0  0  0
  -20.2785  -24.7324   22.3444 C   0  0  0  0  0  0  0  0  0  0  0  0
  -21.9111  -18.8298   22.3444 C   0  0  0  0  0  0  0  0  0  0  0  0
  -25.4186  -29.4692   19.0359 C   0  0  0  0  0  0  0  0  0  0  0  0
  -25.4800  -29.1279   21.4269 C   0  0  0  0  0  0  0  0  0  0  0  0
  -22.3249  -17.9711   21.3271 C   0  0  0  0  0  0  0  0  0  0  0  0
  -25.5082  -32.5071   21.4583 C   0  0  0  0  0  0  0  0  0  0  0  0
  -25.7601  -33.4370   22.4670 C   0  0  0  0  0  0  0  0  0  0  0  0
  -24.6266  -18.4197   21.8928 C   0  0  0  0  0  0  0  0  0  0  0  0
  -23.6730  -32.8473   23.5317 C   0  0  0  0  0  0  0  0  0  0  0  0
  -26.8306  -27.7481   19.9747 C   0  0  0  0  0  0  0  0  0  0  0  0
  -29.1850  -26.7861   19.7778 C   0  0  0  0  0  0  0  0  0  0  0  0
  -21.0011  -26.5762   23.7464 C   0  0  0  0  0  0  0  0  0  0  0  0
  -22.8536  -19.4995   23.1379 C   0  0  0  0  0  0  0  0  0  0  0  0
  -21.3015  -25.3921   23.0464 C   0  0  0  0  0  0  0  0  0  0  0  0
  -24.2221  -19.2845   22.9213 C   0  0  0  0  0  0  0  0  0  0  0  0
  -24.9889  -29.8154   20.3170 C   0  0  0  0  0  0  0  0  0  0  0  0
  -23.6829  -17.7681   21.0992 C   0  0  0  0  0  0  0  0  0  0  0  0
  -24.3387  -31.7474   21.4862 C   0  0  0  0  0  0  0  0  0  0  0  0
  -24.8425  -33.6071   23.5037 C   0  0  0  0  0  0  0  0  0  0  0  0
  -23.4211  -31.9175   22.5229 C   0  0  0  0  0  0  0  0  0  0  0  0
  -27.7814  -26.6800   19.7985 C   0  0  0  0  0  0  0  0  0  0  0  0
  -29.6238  -25.4992   19.5837 C   0  0  0  0  0  0  0  0  0  0  0  0
  -30.0177  -27.9445   19.9213 C   0  0  0  0  0  0  0  0  0  0  0  0
  -23.5780  -22.5488   23.6680 C   0  0  0  0  0  0  0  0  0  0  0  0
  -25.5768  -21.2834   25.8874 C   0  0  0  0  0  0  0  0  0  0  0  0
  -27.3895  -18.5973   26.9578 C   0  0  0  0  0  0  0  0  0  0  0  0
  -28.3157  -20.1825   21.1437 C   0  0  0  0  0  0  0  0  0  0  0  0
  -22.0638  -27.3557   24.4797 C   0  0  0  0  0  0  0  0  0  0  0  0
  -22.3907  -20.4019   24.2487 C   0  0  0  0  0  0  0  0  0  0  0  0
  -25.2739  -19.9638   23.7585 C   0  0  0  0  0  0  0  0  0  0  0  0
  -23.3287  -26.5477   24.7582 C   0  0  0  0  0  0  0  0  0  0  0  0
  -27.5967  -21.3576   17.7972 C   0  0  0  0  0  0  0  0  0  0  0  0
  -23.7659  -25.7924   23.5071 C   0  0  0  0  0  0  0  0  0  0  0  0
  -27.7102  -22.8727   17.9758 C   0  0  0  0  0  0  0  0  0  0  0  0
  -25.3573  -12.1339   21.3724 C   0  0  0  0  0  0  0  0  0  0  0  0
  -26.9660  -20.7022   19.0222 C   0  0  0  0  0  0  0  0  0  0  0  0
  -27.7771  -22.5108   20.4867 C   0  0  0  0  0  0  0  0  0  0  0  0
  -24.4537  -13.3578   21.3337 C   0  0  0  0  0  0  0  0  0  0  0  0
  -28.8501  -12.8311   22.3341 C   0  0  0  0  0  0  0  0  0  0  0  0
  -26.2393  -13.5264   19.6714 C   0  0  0  0  0  0  0  0  0  0  0  0
  -22.6912  -24.7932   23.0621 C   0  0  1  0  0  0  0  0  0  0  0  0
  -23.4406  -21.4292   24.6607 C   0  0  1  0  0  0  0  0  0  0  0  0
  -28.4280  -23.2296   19.2910 C   0  0  2  0  0  0  0  0  0  0  0  0
  -27.5164  -13.3709   21.8569 C   0  0  2  0  0  0  0  0  0  0  0  0
  -26.6979  -12.6068   20.8031 C   0  0  1  0  0  0  0  0  0  0  0  0
  -27.5286  -11.4381   20.2699 C   0  0  0  0  0  0  0  0  0  0  0  0
  -28.9528  -17.8772   28.7840 C   0  0  0  0  0  0  0  0  0  0  0  0
  -27.8307  -22.8718   24.5810 C   0  0  0  0  0  0  0  0  0  0  0  0
  -29.4664  -21.4170   25.7960 C   0  0  0  0  0  0  0  0  0  0  0  0
  -27.8816  -22.8521   27.0812 C   0  0  0  0  0  0  0  0  0  0  0  0
  -25.5451  -16.4635   27.8543 C   0  0  0  0  0  0  0  0  0  0  0  0
  -28.5136  -16.4011   21.1332 C   0  0  0  0  0  0  0  0  0  0  0  0
  -28.7764  -17.8026   21.6735 C   0  0  0  0  0  0  0  0  0  0  0  0
  -29.1021  -15.3177   22.0281 C   0  0  0  0  0  0  0  0  0  0  0  0
  -24.0503  -14.6947   19.2232 C   0  0  0  0  0  0  0  0  0  0  0  0
  -23.2294  -15.8387   19.7849 C   0  0  0  0  0  0  0  0  0  1  0  0
  -27.0077  -20.8022   25.8869 C   0  0  1  0  0  0  0  0  0  0  0  0
  -27.5057  -17.9390   28.3207 C   0  0  2  0  0  0  0  0  0  0  0  0
  -28.0271  -21.9743   25.8191 C   0  0  0  0  0  0  0  0  0  0  0  0
  -27.3567  -25.4248   19.6307 N   0  0  0  0  0  0  0  0  0  0  0  0
  -28.5002  -24.7304   19.5026 N   0  0  0  0  0  0  0  0  0  0  0  0
  -24.7713  -20.8415   24.8283 N   0  0  0  0  0  0  0  0  0  0  0  0
  -27.7074  -21.0670   20.2377 N   0  0  0  0  0  0  0  0  0  0  0  0
  -30.8574  -24.9615   19.4759 N   0  0  0  0  0  0  0  0  0  0  0  0
  -29.4032  -29.1893   20.1141 N   0  0  0  0  0  0  0  0  0  0  0  0
  -22.7239  -23.6109   23.8960 N   0  0  0  0  0  0  0  0  0  0  0  0
  -27.1527  -19.9516   27.0632 N   0  0  0  0  0  0  0  0  0  0  0  0
  -28.1978  -18.8320   20.8390 N   0  0  0  0  0  0  0  0  0  0  0  0
  -25.0382  -14.2449   20.2513 N   0  3  1  0  0  0  0  0  0  0  0  0
  -28.7687  -14.0043   21.4711 N   0  3  1  0  0  0  0  0  0  0  0  0
  -26.9679  -16.5500   28.2726 N   0  3  0  0  0  0  0  0  0  0  0  0
  -31.2691  -27.8799   19.8635 O   0  0  0  0  0  0  0  0  0  0  0  0
  -24.3991  -22.4565   22.7631 O   0  0  0  0  0  0  0  0  0  0  0  0
  -25.1862  -22.0182   26.7979 O   0  0  0  0  0  0  0  0  0  0  0  0
  -27.5017  -17.9732   25.9049 O   0  0  0  0  0  0  0  0  0  0  0  0
  -28.9241  -20.5681   22.1479 O   0  0  0  0  0  0  0  0  0  0  0  0
  -24.0905  -30.8241   20.4844 O   0  0  0  0  0  0  0  0  0  0  0  0
  -24.0896  -16.9310   20.1064 O   0  0  0  0  0  0  0  0  0  1  0  0
  -25.0853  -34.4990   24.4731 F   0  0  0  0  0  0  0  0  0  0  0  0
  -22.2964  -31.1897   22.5557 F   0  0  0  0  0  0  0  0  0  0  0  0
  1  2  1  0  0  0  0
  1  5  2  0  0  0  0
  2  6  2  0  0  0  0
  3  8  2  0  0  0  0
  3 15  1  0  0  0  0
  4  9  1  0  0  0  0
  4 15  2  0  0  0  0
  5 17  1  0  0  0  0
  6 19  1  0  0  0  0
  7 10  2  0  0  0  0
  7 18  1  0  0  0  0
  8 21  1  0  0  0  0
  9 21  2  0  0  0  0
 10 22  1  0  0  0  0
 11 12  2  0  0  0  0
 11 23  1  0  0  0  0
 12 24  1  0  0  0  0
 13 20  1  0  0  0  0
 13 22  2  0  0  0  0
 14 24  2  0  0  0  0
 14 25  1  0  0  0  0
 15 26  1  0  0  0  0
 16 26  1  0  0  0  0
 16 27  2  0  0  0  0
 16 28  1  0  0  0  0
 17 19  2  0  0  0  0
 17 33  1  0  0  0  0
 18 20  2  0  0  0  0
 18 34  1  0  0  0  0
 19 46  1  0  0  0  0
 20 35  1  0  0  0  0
 21 82  1  0  0  0  0
 22 83  1  0  0  0  0
 23 25  2  0  0  0  0
 23 82  1  0  0  0  0
 24 84  1  0  0  0  0
 25 85  1  0  0  0  0
 26 65  2  0  0  0  0
 27 66  1  0  0  0  0
 27 69  1  0  0  0  0
 28 70  1  0  0  0  0
 28 77  2  0  0  0  0
 29 47  1  0  0  0  0
 29 71  1  0  0  0  0
 29 78  2  0  0  0  0
 30 62  1  0  0  0  0
 30 67  1  0  0  0  0
 30 79  2  0  0  0  0
 31 63  1  0  0  0  0
 31 72  1  0  0  0  0
 31 80  2  0  0  0  0
 32 68  1  0  0  0  0
 32 73  1  0  0  0  0
 32 81  2  0  0  0  0
 33 36  1  0  0  0  0
 34 47  1  0  0  0  0
 35 67  1  0  0  0  0
 36 38  1  0  0  0  0
 37 39  1  0  0  0  0
 37 41  1  0  0  0  0
 38 46  1  0  0  0  0
 39 48  1  0  0  0  0
 40 43  1  0  0  0  0
 40 50  1  0  0  0  0
 41 68  1  0  0  0  0
 42 48  1  0  0  0  0
 42 68  1  0  0  0  0
 43 74  1  0  0  0  0
 44 49  1  0  0  0  0
 44 75  1  0  0  0  0
 45 50  1  0  0  0  0
 45 74  1  0  0  0  0
 46 71  1  0  0  0  0
 47 67  1  0  0  0  0
 48 66  1  0  0  0  0
 49 50  1  0  0  0  0
 49 75  1  0  0  0  0
 50 51  1  0  0  0  0
 52 63  1  0  0  0  0
 53 64  1  0  0  0  0
 54 64  1  0  0  0  0
 55 64  1  0  0  0  0
 56 76  1  0  0  0  0
 57 58  1  0  0  0  0
 57 59  1  0  0  0  0
 58 73  1  0  0  0  0
 59 75  1  0  0  0  0
 60 61  1  0  0  0  0
 60 74  1  0  0  0  0
 61 83  1  0  0  0  0
 62 64  1  0  0  0  0
 62 72  1  0  0  0  0
 63 76  1  0  0  0  0
 65 66  1  0  0  0  0
M  CHG  3  74   1  75   1  76   1
M  ISO  4  32 100  61 101  73 100  83 101
M  END
> <Batch ID>
0193

> <Smiles>
CNC(C)C(=O)NC(C(=O)N1Cc2cc([101O:1][101CH2:1]CN3CCC(C)(C4CN4CCC[100NH:0][100C:0](=O)N4CCCC(n5nc(-c6ccc(Oc7ccc(F)cc7F)cc6)c(C(N)=O)c5N)C4)C3)ccc2CC1C(=O)NC1CCCc2ccccc21)C(C)(C)C

> <Shape>
0.217

> <Color>
0.050

> <Negative vol penalty>
0.000

$$$$

  -OEChem-04052323323D

 90100  0     1  0  0  0  0  0999 V2000
  -28.9471  -22.1300   14.9612 C   0  0  0  0  0  0  0  0  0  0  0  0
  -27.8230  -22.5690   15.6515 C   0  0  0  0  0  0  0  0  0  0  0  0
  -27.7953  -17.1366   18.8682 C   0  0  0  0  0  0  0  0  0  0  0  0
  -27.8065  -17.4317   21.2661 C   0  0  0  0  0  0  0  0  0  0  0  0
  -30.2092  -22.5945   15.3251 C   0  0  0  0  0  0  0  0  0  0  0  0
  -27.9593  -23.4817   16.6980 C   0  0  0  0  0  0  0  0  0  0  0  0
  -23.8167  -25.2881   18.6421 C   0  0  0  0  0  0  0  0  0  0  0  0
  -28.5107  -18.3246   18.7186 C   0  0  0  0  0  0  0  0  0  0  0  0
  -28.5219  -18.6197   21.1165 C   0  0  0  0  0  0  0  0  0  0  0  0
  -22.9660  -24.5277   19.4432 C   0  0  0  0  0  0  0  0  0  0  0  0
  -30.0386  -21.9147   21.3464 C   0  0  0  0  0  0  0  0  0  0  0  0
  -29.6268  -23.0180   22.0939 C   0  0  0  0  0  0  0  0  0  0  0  0
  -23.8200  -25.6470   21.4020 C   0  0  0  0  0  0  0  0  0  0  0  0
  -27.4619  -22.9343   21.0245 C   0  0  0  0  0  0  0  0  0  0  0  0
  -27.4431  -16.6901   20.1419 C   0  0  0  0  0  0  0  0  0  0  0  0
  -27.2304  -14.1673   20.4543 C   0  0  0  0  0  0  0  0  0  0  0  0
  -30.3614  -23.5038   16.3848 C   0  0  0  0  0  0  0  0  0  0  0  0
  -24.6847  -26.2275   19.2168 C   0  0  0  0  0  0  0  0  0  0  0  0
  -29.2223  -23.9807   17.0648 C   0  0  0  0  0  0  0  0  0  0  0  0
  -24.6789  -26.4199   20.6058 C   0  0  0  0  0  0  0  0  0  0  0  0
  -28.8740  -19.0662   19.8428 C   0  0  0  0  0  0  0  0  0  0  0  0
  -22.9696  -24.7050   20.8237 C   0  0  0  0  0  0  0  0  0  0  0  0
  -29.1622  -21.3212   20.4379 C   0  0  0  0  0  0  0  0  0  0  0  0
  -28.3384  -23.5278   21.9329 C   0  0  0  0  0  0  0  0  0  0  0  0
  -27.8738  -21.8310   20.2770 C   0  0  0  0  0  0  0  0  0  0  0  0
  -26.7036  -15.4633   20.2971 C   0  0  0  0  0  0  0  0  0  0  0  0
  -19.1085  -22.5210   22.2473 C   0  0  0  0  0  0  0  0  0  0  0  0
  -20.4425  -22.3306   21.9740 C   0  0  0  0  0  0  0  0  0  0  0  0
  -26.1256  -13.3581   20.5599 C   0  0  0  0  0  0  0  0  0  0  0  0
  -19.9859  -20.9758   23.5508 C   0  0  0  0  0  0  0  0  0  0  0  0
  -28.5962  -13.7337   20.5008 C   0  0  0  0  0  0  0  0  0  0  0  0
  -27.8409  -26.5845   19.3396 C   0  0  0  0  0  0  0  0  0  0  0  0
  -27.0765  -29.3955   20.7665 C   0  0  0  0  0  0  0  0  0  0  0  0
  -24.8019  -31.2203   22.5394 C   0  0  0  0  0  0  0  0  0  0  0  0
  -20.4929  -14.3582   22.3273 C   0  0  0  0  0  0  0  0  0  0  0  0
  -31.7501  -23.9801   16.7315 C   0  0  0  0  0  0  0  0  0  0  0  0
  -25.5771  -27.0588   18.3364 C   0  0  0  0  0  0  0  0  0  0  0  0
  -25.5772  -27.4299   21.2702 C   0  0  0  0  0  0  0  0  0  0  0  0
  -31.8376  -24.5932   18.1253 C   0  0  0  0  0  0  0  0  0  0  0  0
  -21.5527  -13.0661   19.1834 C   0  0  0  0  0  0  0  0  0  0  0  0
  -30.7278  -25.6167   18.3135 C   0  0  0  0  0  0  0  0  0  0  0  0
  -23.0406  -13.4170   19.1265 C   0  0  0  0  0  0  0  0  0  0  0  0
  -17.8413  -23.3364   20.1339 C   0  0  0  0  0  0  0  0  0  0  0  0
  -20.7404  -14.1617   19.8703 C   0  0  0  0  0  0  0  0  0  0  0  0
  -22.7129  -14.8955   21.1527 C   0  0  0  0  0  0  0  0  0  0  0  0
  -19.1986  -18.8613   24.5686 C   0  0  0  0  0  0  0  0  0  0  0  0
  -21.1250  -19.4754   25.1565 C   0  0  0  0  0  0  0  0  0  0  0  0
  -17.0447  -24.5836   19.8097 C   0  0  0  0  0  0  0  0  0  0  0  0
  -18.4264  -24.9331   21.7858 C   0  0  0  0  0  0  0  0  0  0  0  0
  -29.3492  -24.9497   18.2263 C   0  0  1  0  0  0  0  0  0  0  0  0
  -18.0786  -23.4499   21.6418 C   0  0  2  0  0  0  0  0  0  0  0  0
  -26.7874  -27.6225   19.0746 C   0  0  1  0  0  0  0  0  0  0  0  0
  -23.5811  -13.7953   20.5186 C   0  0  2  0  0  0  0  0  0  0  0  0
  -20.2167  -18.3128   25.5762 C   0  0  0  0  0  0  0  0  0  0  0  0
  -24.4758  -33.4744   23.5930 C   0  0  0  0  0  0  0  0  0  0  0  0
  -28.9114  -28.5839   23.0652 C   0  0  0  0  0  0  0  0  0  0  0  0
  -27.8304  -30.3579   24.4624 C   0  0  0  0  0  0  0  0  0  0  0  0
  -29.0781  -30.9879   22.3963 C   0  0  0  0  0  0  0  0  0  0  0  0
  -17.5443  -21.4715   23.8981 C   0  0  0  0  0  0  0  0  0  0  0  0
  -22.4671  -31.8147   20.8205 C   0  0  0  0  0  0  0  0  0  0  0  0
  -21.2937  -23.0224   20.9501 C   0  0  0  0  0  0  0  0  0  1  0  0
  -20.4047  -14.5888   24.7967 C   0  0  0  0  0  0  0  0  0  0  0  0
  -19.7300  -15.8988   25.1589 C   0  0  0  0  0  0  0  0  0  0  0  0
  -26.8342  -29.8417   22.1882 C   0  0  1  0  0  0  0  0  0  0  0  0
  -24.2697  -32.6288   22.3459 C   0  0  2  0  0  0  0  0  0  0  0  0
  -28.1479  -29.9223   23.0160 C   0  0  0  0  0  0  0  0  0  0  0  0
  -25.3681  -15.4811   20.3016 N   0  0  0  0  0  0  0  0  0  0  0  0
  -20.9828  -21.3672   22.7886 N   0  0  0  0  0  0  0  0  0  0  0  0
  -18.8304  -21.6458   23.2592 N   0  0  0  0  0  0  0  0  0  0  0  0
  -25.0463  -14.1863   20.4629 N   0  0  0  0  0  0  0  0  0  0  0  0
  -19.9864  -20.0387   24.5281 N   0  0  0  0  0  0  0  0  0  0  0  0
  -26.4360  -28.2139   20.3673 N   0  0  0  0  0  0  0  0  0  0  0  0
  -21.3041  -14.4722   21.1863 N   0  0  0  0  0  0  0  0  0  0  0  0
  -25.9818  -12.0260   20.7252 N   0  0  0  0  0  0  0  0  0  0  0  0
  -29.6074  -14.6962   20.3769 N   0  0  0  0  0  0  0  0  0  0  0  0
  -28.3296  -25.9751   18.1997 N   0  0  0  0  0  0  0  0  0  0  0  0
  -26.1040  -31.1017   22.1018 N   0  0  0  0  0  0  0  0  0  0  0  0
  -21.1073  -14.6650   23.5352 N   0  0  0  0  0  0  0  0  0  0  0  0
  -17.6013  -25.6205   20.7360 N   0  3  0  0  0  0  0  0  0  0  0  0
  -20.7475  -16.9927   25.2168 N   0  3  0  0  0  0  0  0  0  0  0  0
  -22.8121  -32.5939   22.0374 N   0  3  0  0  0  0  0  0  0  0  0  0
  -28.9105  -12.5263   20.6315 O   0  0  0  0  0  0  0  0  0  0  0  0
  -28.1860  -26.3545   20.4927 O   0  0  0  0  0  0  0  0  0  0  0  0
  -27.8014  -30.0744   20.0348 O   0  0  0  0  0  0  0  0  0  0  0  0
  -24.1308  -30.3166   23.0330 O   0  0  0  0  0  0  0  0  0  0  0  0
  -19.3103  -14.0038   22.2740 O   0  0  0  0  0  0  0  0  0  0  0  0
  -29.5723  -20.2254   19.6972 O   0  0  0  0  0  0  0  0  0  0  0  0
  -22.1408  -23.9636   21.6080 O   0  0  0  0  0  0  0  0  0  1  0  0
  -27.9425  -24.5863   22.6519 F   0  0  0  0  0  0  0  0  0  0  0  0
  -27.0270  -21.2643   19.4067 F   0  0  0  0  0  0  0  0  0  0  0  0
  1  2  1  0  0  0  0
  1  5  2  0  0  0  0
  2  6  2  0  0  0  0
  3  8  2  0  0  0  0
  3 15  1  0  0  0  0
  4  9  1  0  0  0  0
  4 15  2  0  0  0  0
  5 17  1  0  0  0  0
  6 19  1  0  0  0  0
  7 10  2  0  0  0  0
  7 18  1  0  0  0  0
  8 21  1  0  0  0  0
  9 21  2  0  0  0  0
 10 22  1  0  0  0  0
 11 12  2  0  0  0  0
 11 23  1  0  0  0  0
 12 24  1  0  0  0  0
 13 20  1  0  0  0  0
 13 22  2  0  0  0  0
 14 24  2  0  0  0  0
 14 25  1  0  0  0  0
 15 26  1  0  0  0  0
 16 26  1  0  0  0  0
 16 29  2  0  0  0  0
 16 31  1  0  0  0  0
 17 19  2  0  0  0  0
 17 36  1  0  0  0  0
 18 20  2  0  0  0  0
 18 37  1  0  0  0  0
 19 50  1  0  0  0  0
 20 38  1  0  0  0  0
 21 87  1  0  0  0  0
 22 88  1  0  0  0  0
 23 25  2  0  0  0  0
 23 87  1  0  0  0  0
 24 89  1  0  0  0  0
 25 90  1  0  0  0  0
 26 67  2  0  0  0  0
 27 28  2  0  0  0  0
 27 51  1  0  0  0  0
 27 69  1  0  0  0  0
 28 61  1  0  0  0  0
 28 68  1  0  0  0  0
 29 70  1  0  0  0  0
 29 74  1  0  0  0  0
 30 68  2  0  0  0  0
 30 69  1  0  0  0  0
 30 71  1  0  0  0  0
 31 75  1  0  0  0  0
 31 82  2  0  0  0  0
 32 52  1  0  0  0  0
 32 76  1  0  0  0  0
 32 83  2  0  0  0  0
 33 64  1  0  0  0  0
 33 72  1  0  0  0  0
 33 84  2  0  0  0  0
 34 65  1  0  0  0  0
 34 77  1  0  0  0  0
 34 85  2  0  0  0  0
 35 73  1  0  0  0  0
 35 78  1  0  0  0  0
 35 86  2  0  0  0  0
 36 39  1  0  0  0  0
 37 52  1  0  0  0  0
 38 72  1  0  0  0  0
 39 41  1  0  0  0  0
 40 42  1  0  0  0  0
 40 44  1  0  0  0  0
 41 50  1  0  0  0  0
 42 53  1  0  0  0  0
 43 48  1  0  0  0  0
 43 51  1  0  0  0  0
 44 73  1  0  0  0  0
 45 53  1  0  0  0  0
 45 73  1  0  0  0  0
 46 54  1  0  0  0  0
 46 71  1  0  0  0  0
 47 54  1  0  0  0  0
 47 71  1  0  0  0  0
 48 79  1  0  0  0  0
 49 51  1  0  0  0  0
 49 79  1  0  0  0  0
 50 76  1  0  0  0  0
 52 72  1  0  0  0  0
 53 70  1  0  0  0  0
 54 80  1  0  0  0  0
 55 65  1  0  0  0  0
 56 66  1  0  0  0  0
 57 66  1  0  0  0  0
 58 66  1  0  0  0  0
 59 69  1  0  0  0  0
 60 81  1  0  0  0  0
 61 88  1  0  0  0  0
 62 63  1  0  0  0  0
 62 78  1  0  0  0  0
 63 80  1  0  0  0  0
 64 66  1  0  0  0  0
 64 77  1  0  0  0  0
 65 81  1  0  0  0  0
 67 70  1  0  0  0  0
M  CHG  3  79   1  80   1  81   1
M  ISO  4  35 100  61 101  78 100  88 101
M  END
> <Batch ID>
0193

> <Smiles>
CNC(C)C(=O)NC(C(=O)N1Cc2cc([101O:1][101CH2:1]c3nc(N4CC(NCC[100NH:0][100C:0](=O)N5CCCC(n6nc(-c7ccc(Oc8ccc(F)cc8F)cc7)c(C(N)=O)c6N)C5)C4)n(C)c3C3CCNC3)ccc2CC1C(=O)NC1CCCc2ccccc21)C(C)(C)C

> <Shape>
0.233

> <Color>
0.062

> <Negative vol penalty>
0.000

$$$$

  -OEChem-04052323323D

 84 92  0     1  0  0  0  0  0999 V2000
  -17.0037  -30.2553   23.5472 C   0  0  0  0  0  0  0  0  0  0  0  0
  -18.2983  -30.7199   23.3384 C   0  0  0  0  0  0  0  0  0  0  0  0
  -24.6667  -13.9777   21.7837 C   0  0  0  0  0  0  0  0  0  0  0  0
  -26.9860  -13.4237   21.3947 C   0  0  0  0  0  0  0  0  0  0  0  0
  -16.7507  -28.8843   23.5649 C   0  0  0  0  0  0  0  0  0  0  0  0
  -19.3409  -29.8136   23.1484 C   0  0  0  0  0  0  0  0  0  0  0  0
  -25.5339  -29.0878   19.6218 C   0  0  0  0  0  0  0  0  0  0  0  0
  -32.0006  -23.1567   19.3766 C   0  0  0  0  0  0  0  0  0  0  0  0
  -24.3860  -12.6330   22.0255 C   0  0  0  0  0  0  0  0  0  0  0  0
  -26.7053  -12.0789   21.6366 C   0  0  0  0  0  0  0  0  0  0  0  0
  -26.8710  -28.7643   19.8486 C   0  0  0  0  0  0  0  0  0  0  0  0
  -23.8767   -9.8292   20.2077 C   0  0  0  0  0  0  0  0  0  0  0  0
  -22.7381   -9.2881   19.6109 C   0  0  0  0  0  0  0  0  0  0  0  0
  -31.1368  -22.0741   19.2534 C   0  0  0  0  0  0  0  0  0  0  0  0
  -26.3023  -26.4201   19.8204 C   0  0  0  0  0  0  0  0  0  0  0  0
  -21.8480   -8.7547   21.7928 C   0  0  0  0  0  0  0  0  0  0  0  0
  -31.2802  -23.9082   17.2382 C   0  0  0  0  0  0  0  0  0  0  0  0
  -25.9667  -14.3731   21.4682 C   0  0  0  0  0  0  0  0  0  0  0  0
  -26.6472  -16.7323   22.1602 C   0  0  0  0  0  0  0  0  0  0  0  0
  -17.7891  -27.9610   23.3653 C   0  0  0  0  0  0  0  0  0  0  0  0
  -24.5676  -28.0785   19.5034 C   0  0  0  0  0  0  0  0  0  0  0  0
  -19.1018  -28.4290   23.1648 C   0  0  0  0  0  0  0  0  0  0  0  0
  -24.9541  -26.7334   19.5897 C   0  0  0  0  0  0  0  0  0  0  0  0
  -32.0796  -24.0958   18.3542 C   0  0  0  0  0  0  0  0  0  0  0  0
  -25.4053  -11.6836   21.9520 C   0  0  0  0  0  0  0  0  0  0  0  0
  -27.2549  -27.4304   19.9508 C   0  0  0  0  0  0  0  0  0  0  0  0
  -24.0011   -9.8330   21.5971 C   0  0  0  0  0  0  0  0  0  0  0  0
  -21.7237   -8.7509   20.4034 C   0  0  0  0  0  0  0  0  0  0  0  0
  -22.9867   -9.2958   22.3896 C   0  0  0  0  0  0  0  0  0  0  0  0
  -26.2572  -15.7620   21.2178 C   0  0  0  0  0  0  0  0  0  0  0  0
  -30.3795  -21.9772   18.0972 C   0  0  0  0  0  0  0  0  0  0  0  0
  -26.7996  -17.8827   21.4255 C   0  0  0  0  0  0  0  0  0  0  0  0
  -26.8533  -16.6050   23.5734 C   0  0  0  0  0  0  0  0  0  0  0  0
  -21.9586  -27.2690   21.1286 C   0  0  0  0  0  0  0  0  0  0  0  0
  -21.5929  -25.1306   18.7170 C   0  0  0  0  0  0  0  0  0  0  0  0
  -23.0388  -23.2855   16.2368 C   0  0  0  0  0  0  0  0  0  0  0  0
  -28.6530  -20.5729   16.9166 C   0  0  0  0  0  0  0  0  0  0  0  0
  -17.4749  -26.4878   23.4401 C   0  0  0  0  0  0  0  0  0  0  0  0
  -23.1338  -28.4432   19.2323 C   0  0  0  0  0  0  0  0  0  0  0  0
  -23.9587  -25.6118   19.4495 C   0  0  0  0  0  0  0  0  0  0  0  0
  -18.5720  -25.6006   22.8574 C   0  0  0  0  0  0  0  0  0  0  0  0
  -25.5026  -18.9359   16.6474 C   0  0  0  0  0  0  0  0  0  0  0  0
  -19.9410  -26.0413   23.3656 C   0  0  0  0  0  0  0  0  0  0  0  0
  -25.4502  -18.0441   17.8900 C   0  0  0  0  0  0  0  0  0  0  0  0
  -26.9130  -19.0160   16.0660 C   0  0  0  0  0  0  0  0  0  0  0  0
  -27.9050  -18.5140   18.2644 C   0  0  0  0  0  0  0  0  0  0  0  0
  -20.2551  -27.4777   22.9301 C   0  0  1  0  0  0  0  0  0  0  0  0
  -22.1516  -27.3496   19.6407 C   0  0  1  0  0  0  0  0  0  0  0  0
  -26.5173  -18.4544   18.9236 C   0  0  2  0  0  0  0  0  0  0  0  0
  -34.9650  -24.0374   17.3659 C   0  0  0  0  0  0  0  0  0  0  0  0
  -22.4898  -21.6021   14.4586 C   0  0  0  0  0  0  0  0  0  0  0  0
  -21.3771  -22.9556   20.8461 C   0  0  0  0  0  0  0  0  0  0  0  0
  -21.7863  -21.2570   19.0529 C   0  0  0  0  0  0  0  0  0  0  0  0
  -19.7680  -22.7191   18.9463 C   0  0  0  0  0  0  0  0  0  0  0  0
  -23.9589  -25.0913   14.0801 C   0  0  0  0  0  0  0  0  0  0  0  0
  -34.4961  -24.8630   18.5583 C   0  0  0  0  0  0  0  0  0  0  0  0
  -30.8640  -27.6528   20.5944 C   0  0  0  0  0  0  0  0  0  0  0  0
  -32.6626  -26.1981   19.6522 C   0  0  0  0  0  0  0  0  0  0  0  0
  -29.4812  -28.1947   20.2907 C   0  0  0  0  0  0  0  0  0  1  0  0
  -33.0145  -25.2918   18.4599 C   0  0  2  0  0  0  0  0  0  0  0  0
  -22.0438  -23.7114   18.4691 C   0  0  1  0  0  0  0  0  0  0  0  0
  -22.6571  -23.0786   14.7822 C   0  0  2  0  0  0  0  0  0  0  0  0
  -21.2625  -22.6817   19.3332 C   0  0  0  0  0  0  0  0  0  0  0  0
  -30.4291  -22.8694   17.0828 N   0  0  0  0  0  0  0  0  0  0  0  0
  -26.1673  -16.2532   19.9790 N   0  0  0  0  0  0  0  0  0  0  0  0
  -26.5029  -17.5448   20.1379 N   0  0  0  0  0  0  0  0  0  0  0  0
  -22.5678  -26.0195   19.1914 N   0  0  0  0  0  0  0  0  0  0  0  0
  -27.8693  -19.4143   17.1013 N   0  0  0  0  0  0  0  0  0  0  0  0
  -27.1572  -19.1403   21.7618 N   0  0  0  0  0  0  0  0  0  0  0  0
  -26.6528  -15.3516   24.1676 N   0  0  0  0  0  0  0  0  0  0  0  0
  -29.5026  -20.8702   17.9817 N   0  0  0  0  0  0  0  0  0  0  0  0
  -20.6616  -27.5073   21.5414 N   0  0  0  0  0  0  0  0  0  0  0  0
  -21.9309  -23.4926   17.0311 N   0  0  0  0  0  0  0  0  0  0  0  0
  -23.7072  -23.6401   13.8861 N   0  3  0  0  0  0  0  0  0  0  0  0
  -31.2999  -26.7709   19.4824 N   0  3  0  0  0  0  0  0  0  0  0  0
  -27.1889  -17.5779   24.2906 O   0  0  0  0  0  0  0  0  0  0  0  0
  -22.9153  -27.0084   21.8487 O   0  0  0  0  0  0  0  0  0  0  0  0
  -20.4205  -25.4408   18.4912 O   0  0  0  0  0  0  0  0  0  0  0  0
  -24.2031  -23.2618   16.6298 O   0  0  0  0  0  0  0  0  0  0  0  0
  -28.5565  -21.2666   15.9010 O   0  0  0  0  0  0  0  0  0  0  0  0
  -25.1319  -10.3713   22.1881 O   0  0  0  0  0  0  0  0  0  0  0  0
  -28.5592  -27.1119   20.1727 O   0  0  0  0  0  0  0  0  0  1  0  0
  -20.6296   -8.2327   19.8302 F   0  0  0  0  0  0  0  0  0  0  0  0
  -23.1000   -9.2977   23.7249 F   0  0  0  0  0  0  0  0  0  0  0  0
  1  2  1  0  0  0  0
  1  5  2  0  0  0  0
  2  6  2  0  0  0  0
  3  9  2  0  0  0  0
  3 18  1  0  0  0  0
  4 10  1  0  0  0  0
  4 18  2  0  0  0  0
  5 20  1  0  0  0  0
  6 22  1  0  0  0  0
  7 11  2  0  0  0  0
  7 21  1  0  0  0  0
  8 14  2  0  0  0  0
  8 24  1  0  0  0  0
  9 25  1  0  0  0  0
 10 25  2  0  0  0  0
 11 26  1  0  0  0  0
 12 13  2  0  0  0  0
 12 27  1  0  0  0  0
 13 28  1  0  0  0  0
 14 31  1  0  0  0  0
 15 23  1  0  0  0  0
 15 26  2  0  0  0  0
 16 28  2  0  0  0  0
 16 29  1  0  0  0  0
 17 24  2  0  0  0  0
 17 64  1  0  0  0  0
 18 30  1  0  0  0  0
 19 30  1  0  0  0  0
 19 32  2  0  0  0  0
 19 33  1  0  0  0  0
 20 22  2  0  0  0  0
 20 38  1  0  0  0  0
 21 23  2  0  0  0  0
 21 39  1  0  0  0  0
 22 47  1  0  0  0  0
 23 40  1  0  0  0  0
 24 60  1  0  0  0  0
 25 81  1  0  0  0  0
 26 82  1  0  0  0  0
 27 29  2  0  0  0  0
 27 81  1  0  0  0  0
 28 83  1  0  0  0  0
 29 84  1  0  0  0  0
 30 65  2  0  0  0  0
 31 64  2  0  0  0  0
 31 71  1  0  0  0  0
 32 66  1  0  0  0  0
 32 69  1  0  0  0  0
 33 70  1  0  0  0  0
 33 76  2  0  0  0  0
 34 48  1  0  0  0  0
 34 72  1  0  0  0  0
 34 77  2  0  0  0  0
 35 61  1  0  0  0  0
 35 67  1  0  0  0  0
 35 78  2  0  0  0  0
 36 62  1  0  0  0  0
 36 73  1  0  0  0  0
 36 79  2  0  0  0  0
 37 68  1  0  0  0  0
 37 71  1  0  0  0  0
 37 80  2  0  0  0  0
 38 41  1  0  0  0  0
 39 48  1  0  0  0  0
 40 67  1  0  0  0  0
 41 43  1  0  0  0  0
 42 44  1  0  0  0  0
 42 45  1  0  0  0  0
 43 47  1  0  0  0  0
 44 49  1  0  0  0  0
 45 68  1  0  0  0  0
 46 49  1  0  0  0  0
 46 68  1  0  0  0  0
 47 72  1  0  0  0  0
 48 67  1  0  0  0  0
 49 66  1  0  0  0  0
 50 56  1  0  0  0  0
 51 62  1  0  0  0  0
 52 63  1  0  0  0  0
 53 63  1  0  0  0  0
 54 63  1  0  0  0  0
 55 74  1  0  0  0  0
 56 60  1  0  0  0  0
 57 59  1  0  0  0  0
 57 75  1  0  0  0  0
 58 60  1  0  0  0  0
 58 75  1  0  0  0  0
 59 82  1  0  0  0  0
 61 63  1  0  0  0  0
 61 73  1  0  0  0  0
 62 74  1  0  0  0  0
 65 66  1  0  0  0  0
M  CHG  2  74   1  75   1
M  ISO  4  37 100  59 101  71 100  82 101
M  END
> <Batch ID>
0193

> <Smiles>
CCC(CNC[101CH2:1][101O:1]c1ccc2c(c1)CN(C(=O)C(NC(=O)C(C)NC)C(C)(C)C)C(C(=O)NC1CCCc3ccccc31)C2)c1ccc([100NH:0][100C:0](=O)N2CCCC(n3nc(-c4ccc(Oc5ccc(F)cc5F)cc4)c(C(N)=O)c3N)C2)nc1

> <Shape>
0.215

> <Color>
0.076

> <Negative vol penalty>
0.000

$$$$

  -OEChem-04052323323D

 81 90  0     1  0  0  0  0  0999 V2000
  -22.1107  -24.3995   21.2924 C   0  0  0  0  0  0  0  0  0  0  0  0
  -23.1535  -23.5548   20.9258 C   0  0  0  0  0  0  0  0  0  0  0  0
  -22.4345  -28.3194   21.1016 C   0  0  0  0  0  0  0  0  0  0  0  0
  -23.6460  -28.1177   23.1821 C   0  0  0  0  0  0  0  0  0  0  0  0
  -21.2328  -24.0214   22.3073 C   0  0  0  0  0  0  0  0  0  0  0  0
  -23.3196  -22.3318   21.5749 C   0  0  0  0  0  0  0  0  0  0  0  0
  -24.2476  -18.5343   18.3558 C   0  0  0  0  0  0  0  0  0  0  0  0
  -21.2322  -28.1319   21.7834 C   0  0  0  0  0  0  0  0  0  0  0  0
  -22.4437  -27.9303   23.8640 C   0  0  0  0  0  0  0  0  0  0  0  0
  -25.5419  -18.4322   17.8476 C   0  0  0  0  0  0  0  0  0  0  0  0
  -17.8169  -28.0663   23.0270 C   0  0  0  0  0  0  0  0  0  0  0  0
  -16.7542  -28.9133   22.7126 C   0  0  0  0  0  0  0  0  0  0  0  0
  -30.7272  -19.0541   21.0991 C   0  0  0  0  0  0  0  0  0  0  0  0
  -26.0290  -16.6989   19.4532 C   0  0  0  0  0  0  0  0  0  0  0  0
  -18.0763  -30.8211   23.3831 C   0  0  0  0  0  0  0  0  0  0  0  0
  -30.3873  -17.6945   20.9659 C   0  0  0  0  0  0  0  0  0  0  0  0
  -23.6414  -28.3122   21.8009 C   0  0  0  0  0  0  0  0  0  0  0  0
  -25.5329  -29.7272   20.8377 C   0  0  0  0  0  0  0  0  0  0  0  0
  -21.3824  -22.7890   22.9625 C   0  0  0  0  0  0  0  0  0  0  0  0
  -23.8370  -17.7257   19.4254 C   0  0  0  0  0  0  0  0  0  0  0  0
  -22.4437  -21.9375   22.6005 C   0  0  0  0  0  0  0  0  0  0  0  0
  -24.7282  -16.7909   19.9713 C   0  0  0  0  0  0  0  0  0  0  0  0
  -21.2368  -27.9374   23.1647 C   0  0  0  0  0  0  0  0  0  0  0  0
  -26.4337  -17.5165   18.3982 C   0  0  0  0  0  0  0  0  0  0  0  0
  -19.0093  -28.5967   23.5195 C   0  0  0  0  0  0  0  0  0  0  0  0
  -16.8838  -30.2906   22.8907 C   0  0  0  0  0  0  0  0  0  0  0  0
  -19.1390  -29.9741   23.6975 C   0  0  0  0  0  0  0  0  0  0  0  0
  -24.8837  -28.5053   21.0970 C   0  0  0  0  0  0  0  0  0  0  0  0
  -30.5432  -19.5788   19.8432 C   0  0  0  0  0  0  0  0  0  0  0  0
  -26.6652  -29.3743   20.1451 C   0  0  0  0  0  0  0  0  0  0  0  0
  -25.1469  -31.0620   21.1913 C   0  0  0  0  0  0  0  0  0  0  0  0
  -22.8368  -18.2693   22.3932 C   0  0  0  0  0  0  0  0  0  0  0  0
  -22.3166  -15.0675   22.3885 C   0  0  0  0  0  0  0  0  0  0  0  0
  -23.0824  -12.0098   21.0805 C   0  0  0  0  0  0  0  0  0  0  0  0
  -29.7306  -24.2762   20.1360 C   0  0  0  0  0  0  0  0  0  0  0  0
  -20.4369  -22.4445   24.0859 C   0  0  0  0  0  0  0  0  0  0  0  0
  -22.4291  -17.8293   19.9445 C   0  0  0  0  0  0  0  0  0  0  0  0
  -24.3303  -15.8855   21.1073 C   0  0  0  0  0  0  0  0  0  0  0  0
  -20.4574  -20.9667   24.4678 C   0  0  0  0  0  0  0  0  0  0  0  0
  -28.3970  -26.0543   17.2077 C   0  0  0  0  0  0  0  0  0  0  0  0
  -21.8934  -20.4685   24.5967 C   0  0  0  0  0  0  0  0  0  0  0  0
  -27.3458  -26.9450   17.8603 C   0  0  0  0  0  0  0  0  0  0  0  0
  -28.5541  -24.7139   17.9261 C   0  0  0  0  0  0  0  0  0  0  0  0
  -29.5553  -21.9453   19.0022 C   0  0  0  0  0  0  0  0  0  0  0  0
  -31.0736  -22.1472   20.4747 C   0  0  0  0  0  0  0  0  0  0  0  0
  -27.7496  -25.7493   20.0388 C   0  0  0  0  0  0  0  0  0  0  0  0
  -22.6418  -20.5919   23.2640 C   0  0  1  0  0  0  0  0  0  0  0  0
  -30.7767  -21.0830   19.3981 C   0  0  0  0  0  0  0  0  0  0  0  0
  -22.2800  -17.3165   21.3735 C   0  0  1  0  0  0  0  0  0  0  0  0
  -27.6463  -27.1197   19.3560 C   0  0  2  0  0  0  0  0  0  0  0  0
  -22.5206   -9.5744   21.3052 C   0  0  0  0  0  0  0  0  0  0  0  0
  -23.9967  -14.9171   24.9311 C   0  0  0  0  0  0  0  0  0  0  0  0
  -24.1939  -12.4473   24.5714 C   0  0  0  0  0  0  0  0  0  0  0  0
  -21.9524  -13.4765   24.9448 C   0  0  0  0  0  0  0  0  0  0  0  0
  -22.0977  -11.8606   18.2935 C   0  0  0  0  0  0  0  0  0  0  0  0
  -29.7793  -18.6000   17.5952 C   0  0  0  0  0  0  0  0  0  0  0  0
  -28.2745  -18.5963   17.3488 C   0  0  0  0  0  0  0  0  0  1  0  0
  -23.1369  -13.8506   22.7427 C   0  0  1  0  0  0  0  0  0  0  0  0
  -22.2017  -10.8762   20.5867 C   0  0  2  0  0  0  0  0  0  0  0  0
  -23.3284  -13.6912   24.2774 C   0  0  0  0  0  0  0  0  0  0  0  0
  -30.0154  -17.3754   19.7233 N   0  0  0  0  0  0  0  0  0  0  0  0
  -25.5483  -27.4546   20.6087 N   0  0  0  0  0  0  0  0  0  0  0  0
  -30.1205  -18.5420   19.0644 N   0  0  0  0  0  0  0  0  0  0  0  0
  -26.6268  -28.0153   20.0356 N   0  0  0  0  0  0  0  0  0  0  0  0
  -22.9449  -16.0290   21.5843 N   0  0  0  0  0  0  0  0  0  0  0  0
  -28.7232  -24.8769   19.3737 N   0  0  0  0  0  0  0  0  0  0  0  0
  -30.1881  -23.0383   19.7305 N   0  0  0  0  0  0  0  0  0  0  0  0
  -27.6800  -30.0969   19.6250 N   0  0  0  0  0  0  0  0  0  0  0  0
  -23.9537  -31.2460   21.9031 N   0  0  0  0  0  0  0  0  0  0  0  0
  -22.2568  -19.5233   22.3673 N   0  0  0  0  0  0  0  0  0  0  0  0
  -22.4816  -12.7159   22.1012 N   0  0  0  0  0  0  0  0  0  0  0  0
  -22.3986  -10.6665   19.1245 N   0  3  0  0  0  0  0  0  0  0  0  0
  -25.8313  -32.0632   20.8709 O   0  0  0  0  0  0  0  0  0  0  0  0
  -23.7259  -17.8942   23.1485 O   0  0  0  0  0  0  0  0  0  0  0  0
  -21.1587  -15.1582   22.8040 O   0  0  0  0  0  0  0  0  0  0  0  0
  -24.1937  -12.2431   20.6104 O   0  0  0  0  0  0  0  0  0  0  0  0
  -30.1841  -24.8048   21.1590 O   0  0  0  0  0  0  0  0  0  0  0  0
  -20.0638  -27.7546   23.8304 O   0  0  0  0  0  0  0  0  0  0  0  0
  -27.6978  -17.4152   17.9046 O   0  0  0  0  0  0  0  0  0  1  0  0
  -15.8637  -31.1040   22.5873 F   0  0  0  0  0  0  0  0  0  0  0  0
  -20.2825  -30.4896   24.1692 F   0  0  0  0  0  0  0  0  0  0  0  0
  1  2  1  0  0  0  0
  1  5  2  0  0  0  0
  2  6  2  0  0  0  0
  3  8  2  0  0  0  0
  3 17  1  0  0  0  0
  4  9  1  0  0  0  0
  4 17  2  0  0  0  0
  5 19  1  0  0  0  0
  6 21  1  0  0  0  0
  7 10  2  0  0  0  0
  7 20  1  0  0  0  0
  8 23  1  0  0  0  0
  9 23  2  0  0  0  0
 10 24  1  0  0  0  0
 11 12  2  0  0  0  0
 11 25  1  0  0  0  0
 12 26  1  0  0  0  0
 13 16  1  0  0  0  0
 13 29  2  0  0  0  0
 14 22  1  0  0  0  0
 14 24  2  0  0  0  0
 15 26  2  0  0  0  0
 15 27  1  0  0  0  0
 16 61  2  0  0  0  0
 17 28  1  0  0  0  0
 18 28  1  0  0  0  0
 18 30  2  0  0  0  0
 18 31  1  0  0  0  0
 19 21  2  0  0  0  0
 19 36  1  0  0  0  0
 20 22  2  0  0  0  0
 20 37  1  0  0  0  0
 21 47  1  0  0  0  0
 22 38  1  0  0  0  0
 23 78  1  0  0  0  0
 24 79  1  0  0  0  0
 25 27  2  0  0  0  0
 25 78  1  0  0  0  0
 26 80  1  0  0  0  0
 27 81  1  0  0  0  0
 28 62  2  0  0  0  0
 29 48  1  0  0  0  0
 29 63  1  0  0  0  0
 30 64  1  0  0  0  0
 30 68  1  0  0  0  0
 31 69  1  0  0  0  0
 31 73  2  0  0  0  0
 32 49  1  0  0  0  0
 32 70  1  0  0  0  0
 32 74  2  0  0  0  0
 33 58  1  0  0  0  0
 33 65  1  0  0  0  0
 33 75  2  0  0  0  0
 34 59  1  0  0  0  0
 34 71  1  0  0  0  0
 34 76  2  0  0  0  0
 35 66  1  0  0  0  0
 35 67  1  0  0  0  0
 35 77  2  0  0  0  0
 36 39  1  0  0  0  0
 37 49  1  0  0  0  0
 38 65  1  0  0  0  0
 39 41  1  0  0  0  0
 40 42  1  0  0  0  0
 40 43  1  0  0  0  0
 41 47  1  0  0  0  0
 42 50  1  0  0  0  0
 43 66  1  0  0  0  0
 44 48  1  0  0  0  0
 44 67  1  0  0  0  0
 45 48  1  0  0  0  0
 45 67  1  0  0  0  0
 46 50  1  0  0  0  0
 46 66  1  0  0  0  0
 47 70  1  0  0  0  0
 49 65  1  0  0  0  0
 50 64  1  0  0  0  0
 51 59  1  0  0  0  0
 52 60  1  0  0  0  0
 53 60  1  0  0  0  0
 54 60  1  0  0  0  0
 55 72  1  0  0  0  0
 56 57  1  0  0  0  0
 56 63  1  0  0  0  0
 57 79  1  0  0  0  0
 58 60  1  0  0  0  0
 58 71  1  0  0  0  0
 59 72  1  0  0  0  0
 61 63  1  0  0  0  0
 62 64  1  0  0  0  0
M  CHG  1  72   1
M  ISO  4  35 100  57 101  67 100  79 101
M  END
> <Batch ID>
0193

> <Smiles>
CNC(C)C(=O)NC(C(=O)N1Cc2cc([101O:1][101CH2:1]Cn3nccc3C3C[100N:0]([100C:0](=O)N4CCCC(n5nc(-c6ccc(Oc7ccc(F)cc7F)cc6)c(C(N)=O)c5N)C4)C3)ccc2CC1C(=O)NC1CCCc2ccccc21)C(C)(C)C

> <Shape>
0.225

> <Color>
0.064

> <Negative vol penalty>
0.000

$$$$

  -OEChem-04052323323D

 85 94  0     1  0  0  0  0  0999 V2000
  -26.5755  -38.5016   22.7484 C   0  0  0  0  0  0  0  0  0  0  0  0
  -27.2137  -37.5616   21.9456 C   0  0  0  0  0  0  0  0  0  0  0  0
  -24.5360  -10.1737   23.1517 C   0  0  0  0  0  0  0  0  0  0  0  0
  -24.4693   -8.6641   21.2665 C   0  0  0  0  0  0  0  0  0  0  0  0
  -25.8493  -38.0861   23.8637 C   0  0  0  0  0  0  0  0  0  0  0  0
  -27.1271  -36.2055   22.2584 C   0  0  0  0  0  0  0  0  0  0  0  0
  -26.8993  -29.7604   19.1398 C   0  0  0  0  0  0  0  0  0  0  0  0
  -23.3921   -9.5709   23.6749 C   0  0  0  0  0  0  0  0  0  0  0  0
  -23.3254   -8.0613   21.7897 C   0  0  0  0  0  0  0  0  0  0  0  0
  -27.5311  -28.5185   19.1863 C   0  0  0  0  0  0  0  0  0  0  0  0
  -22.5779   -5.8062   24.1931 C   0  0  0  0  0  0  0  0  0  0  0  0
  -22.5235   -4.4124   24.1919 C   0  0  0  0  0  0  0  0  0  0  0  0
  -26.1830  -27.9109   21.0923 C   0  0  0  0  0  0  0  0  0  0  0  0
  -30.6679  -23.1121   20.5532 C   0  0  0  0  0  0  0  0  0  0  0  0
  -20.5433   -4.4909   22.8100 C   0  0  0  0  0  0  0  0  0  0  0  0
  -28.9510  -23.7373   18.5265 C   0  0  0  0  0  0  0  0  0  0  0  0
  -25.0746   -9.7204   21.9474 C   0  0  0  0  0  0  0  0  0  0  0  0
  -27.5945   -9.9811   21.6484 C   0  0  0  0  0  0  0  0  0  0  0  0
  -25.7456  -36.7234   24.1847 C   0  0  0  0  0  0  0  0  0  0  0  0
  -25.9106  -30.0916   20.0775 C   0  0  0  0  0  0  0  0  0  0  0  0
  -26.3999  -35.7714   23.3798 C   0  0  0  0  0  0  0  0  0  0  0  0
  -25.5384  -29.1567   21.0539 C   0  0  0  0  0  0  0  0  0  0  0  0
  -30.1995  -24.4158   20.4338 C   0  0  0  0  0  0  0  0  0  0  0  0
  -29.3244  -24.7426   19.4039 C   0  0  0  0  0  0  0  0  0  0  0  0
  -22.7868   -8.5147   22.9939 C   0  0  0  0  0  0  0  0  0  0  0  0
  -27.1750  -27.5946   20.1644 C   0  0  0  0  0  0  0  0  0  0  0  0
  -21.6149   -6.5424   23.5028 C   0  0  0  0  0  0  0  0  0  0  0  0
  -21.5062   -3.7548   23.5004 C   0  0  0  0  0  0  0  0  0  0  0  0
  -20.5977   -5.8847   22.8112 C   0  0  0  0  0  0  0  0  0  0  0  0
  -26.2558  -10.3430   21.4062 C   0  0  0  0  0  0  0  0  0  0  0  0
  -30.2343  -22.1797   19.6245 C   0  0  0  0  0  0  0  0  0  0  0  0
  -28.3308  -10.8727   20.9073 C   0  0  0  0  0  0  0  0  0  0  0  0
  -28.1251   -8.9325   22.4698 C   0  0  0  0  0  0  0  0  0  0  0  0
  -25.6049  -32.3215   22.3221 C   0  0  0  0  0  0  0  0  0  0  0  0
  -22.6166  -31.0885   22.5901 C   0  0  0  0  0  0  0  0  0  0  0  0
  -20.5300  -28.4257   22.1399 C   0  0  0  0  0  0  0  0  0  0  0  0
  -29.4876  -15.8042   19.1330 C   0  0  0  0  0  0  0  0  0  0  0  0
  -24.9888  -36.3259   25.4273 C   0  0  0  0  0  0  0  0  0  0  0  0
  -25.2198  -31.4254   19.9973 C   0  0  0  0  0  0  0  0  0  0  0  0
  -24.4687  -29.4557   22.0712 C   0  0  0  0  0  0  0  0  0  0  0  0
  -24.6347  -34.8418   25.4761 C   0  0  0  0  0  0  0  0  0  0  0  0
  -26.9165  -14.1895   17.3691 C   0  0  0  0  0  0  0  0  0  0  0  0
  -25.8450  -33.9917   25.1032 C   0  0  0  0  0  0  0  0  0  0  0  0
  -26.6170  -13.0044   18.2868 C   0  0  0  0  0  0  0  0  0  0  0  0
  -28.9557  -19.2819   19.2364 C   0  0  0  0  0  0  0  0  0  0  0  0
  -31.3920  -18.6926   18.9447 C   0  0  0  0  0  0  0  0  0  0  0  0
  -27.1715  -15.4751   18.1581 C   0  0  0  0  0  0  0  0  0  0  0  0
  -28.5768  -18.0544   18.4026 C   0  0  0  0  0  0  0  0  0  0  0  0
  -30.9674  -17.4973   18.0962 C   0  0  0  0  0  0  0  0  0  0  0  0
  -27.9179  -14.1588   20.1148 C   0  0  0  0  0  0  0  0  0  0  0  0
  -26.3086  -34.2894   23.6722 C   0  0  1  0  0  0  0  0  0  0  0  0
  -24.5892  -31.8521   21.3193 C   0  0  1  0  0  0  0  0  0  0  0  0
  -27.7148  -12.8400   19.3529 C   0  0  1  0  0  0  0  0  0  0  0  0
  -30.3449  -19.8066   18.8656 C   0  0  0  0  0  0  0  0  0  0  0  0
  -30.6471  -25.4447   21.4185 C   0  0  0  0  0  0  0  0  0  0  0  0
  -18.1514  -27.7060   22.4886 C   0  0  0  0  0  0  0  0  0  0  0  0
  -23.1581  -30.7528   25.5741 C   0  0  0  0  0  0  0  0  0  0  0  0
  -21.1951  -29.2028   25.6850 C   0  0  0  0  0  0  0  0  0  0  0  0
  -20.8660  -31.5835   25.0168 C   0  0  0  0  0  0  0  0  0  0  0  0
  -20.1179  -27.9812   19.2431 C   0  0  0  0  0  0  0  0  0  0  0  0
  -28.7923  -26.1226   19.2297 C   0  0  0  0  0  0  0  0  0  1  0  0
  -21.9837  -29.9872   23.4060 C   0  0  1  0  0  0  0  0  0  0  0  0
  -19.1483  -28.3223   21.5196 C   0  0  2  0  0  0  0  0  0  0  0  0
  -21.8223  -30.3764   24.9027 C   0  0  0  0  0  0  0  0  0  0  0  0
  -29.3850  -22.4597   18.6106 N   0  0  0  0  0  0  0  0  0  0  0  0
  -26.1452  -11.3836   20.5762 N   0  0  0  0  0  0  0  0  0  0  0  0
  -27.4237  -11.6832   20.2905 N   0  0  0  0  0  0  0  0  0  0  0  0
  -23.8270  -30.7757   21.9554 N   0  0  0  0  0  0  0  0  0  0  0  0
  -28.1964  -15.2585   19.1887 N   0  0  0  0  0  0  0  0  0  0  0  0
  -29.6314  -17.0328   18.4712 N   0  0  0  0  0  0  0  0  0  0  0  0
  -29.6592  -11.0348   20.7296 N   0  0  0  0  0  0  0  0  0  0  0  0
  -27.2282   -8.1080   23.1628 N   0  0  0  0  0  0  0  0  0  0  0  0
  -30.7088  -20.8867   19.7560 N   0  0  0  0  0  0  0  0  0  0  0  0
  -25.4424  -33.6365   22.7142 N   0  0  0  0  0  0  0  0  0  0  0  0
  -20.7311  -29.6521   22.7373 N   0  0  0  0  0  0  0  0  0  0  0  0
  -19.1936  -27.4787   20.2919 N   0  3  0  0  0  0  0  0  0  0  0  0
  -29.3584   -8.7430   22.5988 O   0  0  0  0  0  0  0  0  0  0  0  0
  -26.4711  -31.5474   22.7124 O   0  0  0  0  0  0  0  0  0  0  0  0
  -22.0541  -32.1835   22.5129 O   0  0  0  0  0  0  0  0  0  0  0  0
  -21.3476  -27.5089   22.1019 O   0  0  0  0  0  0  0  0  0  0  0  0
  -30.4556  -15.2277   19.6446 O   0  0  0  0  0  0  0  0  0  0  0  0
  -21.6708   -7.9260   23.5043 O   0  0  0  0  0  0  0  0  0  0  0  0
  -27.7946  -26.3738   20.2128 O   0  0  0  0  0  0  0  0  0  1  0  0
  -21.4550   -2.4163   23.4980 F   0  0  0  0  0  0  0  0  0  0  0  0
  -19.6704   -6.5865   22.1453 F   0  0  0  0  0  0  0  0  0  0  0  0
  1  2  1  0  0  0  0
  1  5  2  0  0  0  0
  2  6  2  0  0  0  0
  3  8  2  0  0  0  0
  3 17  1  0  0  0  0
  4  9  1  0  0  0  0
  4 17  2  0  0  0  0
  5 19  1  0  0  0  0
  6 21  1  0  0  0  0
  7 10  2  0  0  0  0
  7 20  1  0  0  0  0
  8 25  1  0  0  0  0
  9 25  2  0  0  0  0
 10 26  1  0  0  0  0
 11 12  2  0  0  0  0
 11 27  1  0  0  0  0
 12 28  1  0  0  0  0
 13 22  1  0  0  0  0
 13 26  2  0  0  0  0
 14 23  1  0  0  0  0
 14 31  2  0  0  0  0
 15 28  2  0  0  0  0
 15 29  1  0  0  0  0
 16 24  1  0  0  0  0
 16 65  2  0  0  0  0
 17 30  1  0  0  0  0
 18 30  1  0  0  0  0
 18 32  2  0  0  0  0
 18 33  1  0  0  0  0
 19 21  2  0  0  0  0
 19 38  1  0  0  0  0
 20 22  2  0  0  0  0
 20 39  1  0  0  0  0
 21 51  1  0  0  0  0
 22 40  1  0  0  0  0
 23 24  2  0  0  0  0
 23 55  1  0  0  0  0
 24 61  1  0  0  0  0
 25 82  1  0  0  0  0
 26 83  1  0  0  0  0
 27 29  2  0  0  0  0
 27 82  1  0  0  0  0
 28 84  1  0  0  0  0
 29 85  1  0  0  0  0
 30 66  2  0  0  0  0
 31 65  1  0  0  0  0
 31 73  1  0  0  0  0
 32 67  1  0  0  0  0
 32 71  1  0  0  0  0
 33 72  1  0  0  0  0
 33 77  2  0  0  0  0
 34 52  1  0  0  0  0
 34 74  1  0  0  0  0
 34 78  2  0  0  0  0
 35 62  1  0  0  0  0
 35 68  1  0  0  0  0
 35 79  2  0  0  0  0
 36 63  1  0  0  0  0
 36 75  1  0  0  0  0
 36 80  2  0  0  0  0
 37 69  1  0  0  0  0
 37 70  1  0  0  0  0
 37 81  2  0  0  0  0
 38 41  1  0  0  0  0
 39 52  1  0  0  0  0
 40 68  1  0  0  0  0
 41 43  1  0  0  0  0
 42 44  1  0  0  0  0
 42 47  1  0  0  0  0
 43 51  1  0  0  0  0
 44 53  1  0  0  0  0
 45 48  1  0  0  0  0
 45 54  1  0  0  0  0
 46 49  1  0  0  0  0
 46 54  1  0  0  0  0
 47 69  1  0  0  0  0
 48 70  1  0  0  0  0
 49 70  1  0  0  0  0
 50 53  1  0  0  0  0
 50 69  1  0  0  0  0
 51 74  1  0  0  0  0
 52 68  1  0  0  0  0
 53 67  1  0  0  0  0
 54 73  1  0  0  0  0
 56 63  1  0  0  0  0
 57 64  1  0  0  0  0
 58 64  1  0  0  0  0
 59 64  1  0  0  0  0
 60 76  1  0  0  0  0
 61 83  1  0  0  0  0
 62 64  1  0  0  0  0
 62 75  1  0  0  0  0
 63 76  1  0  0  0  0
 66 67  1  0  0  0  0
M  CHG  1  76   1
M  ISO  4  37 100  61 101  70 100  83 101
M  END
> <Batch ID>
0193

> <Smiles>
CNC(C)C(=O)NC(C(=O)N1Cc2cc([101O:1][101CH2:1]c3cnc(NC4CC[100N:0]([100C:0](=O)N5CCCC(n6nc(-c7ccc(Oc8ccc(F)cc8F)cc7)c(C(N)=O)c6N)C5)CC4)cc3C)ccc2CC1C(=O)NC1CCCc2ccccc21)C(C)(C)C

> <Shape>
0.329

> <Color>
0.104

> <Negative vol penalty>
0.000

$$$$

  -OEChem-04052323323D

 81 89  0     1  0  0  0  0  0999 V2000
  -23.4758  -23.9144   18.4790 C   0  0  0  0  0  0  0  0  0  0  0  0
  -24.3753  -22.8641   18.3357 C   0  0  0  0  0  0  0  0  0  0  0  0
  -22.1921  -28.7318   20.8928 C   0  0  0  0  0  0  0  0  0  0  0  0
  -22.7937  -26.6774   22.0130 C   0  0  0  0  0  0  0  0  0  0  0  0
  -22.4281  -23.8102   19.3915 C   0  0  0  0  0  0  0  0  0  0  0  0
  -24.2206  -21.7045   19.0962 C   0  0  0  0  0  0  0  0  0  0  0  0
  -27.1969  -17.9302   18.0474 C   0  0  0  0  0  0  0  0  0  0  0  0
  -20.8622  -28.5488   21.2714 C   0  0  0  0  0  0  0  0  0  0  0  0
  -21.4637  -26.4944   22.3916 C   0  0  0  0  0  0  0  0  0  0  0  0
  -28.5550  -17.9312   18.3625 C   0  0  0  0  0  0  0  0  0  0  0  0
  -17.3708  -28.8085   22.2502 C   0  0  0  0  0  0  0  0  0  0  0  0
  -16.6831  -29.9113   22.7564 C   0  0  0  0  0  0  0  0  0  0  0  0
  -28.1178  -16.4616   20.2249 C   0  0  0  0  0  0  0  0  0  0  0  0
  -18.2900  -30.0894   24.5517 C   0  0  0  0  0  0  0  0  0  0  0  0
  -23.1579  -27.7960   21.2635 C   0  0  0  0  0  0  0  0  0  0  0  0
  -25.3684  -29.0677   21.2005 C   0  0  0  0  0  0  0  0  0  0  0  0
  -22.2685  -22.6535   20.1722 C   0  0  0  0  0  0  0  0  0  0  0  0
  -26.2859  -17.2025   18.8265 C   0  0  0  0  0  0  0  0  0  0  0  0
  -23.1556  -21.5706   20.0053 C   0  0  0  0  0  0  0  0  0  0  0  0
  -26.7490  -16.4510   19.9160 C   0  0  0  0  0  0  0  0  0  0  0  0
  -20.4980  -27.4302   22.0208 C   0  0  0  0  0  0  0  0  0  0  0  0
  -29.0152  -17.1992   19.4531 C   0  0  0  0  0  0  0  0  0  0  0  0
  -18.5182  -28.3460   22.8948 C   0  0  0  0  0  0  0  0  0  0  0  0
  -17.1426  -30.5518   23.9071 C   0  0  0  0  0  0  0  0  0  0  0  0
  -18.9778  -28.9865   24.0456 C   0  0  0  0  0  0  0  0  0  0  0  0
  -24.5318  -27.9842   20.8722 C   0  0  0  0  0  0  0  0  0  0  0  0
  -26.5647  -28.7743   20.5927 C   0  0  0  0  0  0  0  0  0  0  0  0
  -25.0893  -30.2350   21.9848 C   0  0  0  0  0  0  0  0  0  0  0  0
  -23.7661  -17.9486   20.6147 C   0  0  0  0  0  0  0  0  0  0  0  0
  -23.4625  -14.7270   20.8410 C   0  0  0  0  0  0  0  0  0  0  0  0
  -24.9493  -11.6590   20.6875 C   0  0  0  0  0  0  0  0  0  0  0  0
  -29.1242  -23.6336   18.8977 C   0  0  0  0  0  0  0  0  0  0  0  0
  -21.1123  -22.5907   21.1389 C   0  0  0  0  0  0  0  0  0  0  0  0
  -24.8278  -17.1903   18.4574 C   0  0  0  0  0  0  0  0  0  0  0  0
  -25.8148  -15.6368   20.7720 C   0  0  0  0  0  0  0  0  0  0  0  0
  -21.2891  -21.5177   22.2083 C   0  0  0  0  0  0  0  0  0  0  0  0
  -28.3806  -26.4376   16.8333 C   0  0  0  0  0  0  0  0  0  0  0  0
  -21.6735  -20.1961   21.5599 C   0  0  0  0  0  0  0  0  0  0  0  0
  -27.3854  -27.2497   17.6640 C   0  0  0  0  0  0  0  0  0  0  0  0
  -34.1096  -22.3402   21.2133 C   0  0  0  0  0  0  0  0  0  0  0  0
  -28.1749  -24.9355   17.0161 C   0  0  0  0  0  0  0  0  0  0  0  0
  -33.3677  -22.7806   22.4826 C   0  0  0  0  0  0  0  0  0  0  0  0
  -27.1902  -25.2870   19.2478 C   0  0  0  0  0  0  0  0  0  0  0  0
  -23.0251  -20.3120   20.8438 C   0  0  1  0  0  0  0  0  0  0  0  0
  -23.9185  -16.8265   19.6271 C   0  0  1  0  0  0  0  0  0  0  0  0
  -27.3947  -26.8078   19.1398 C   0  0  2  0  0  0  0  0  0  0  0  0
  -32.9249  -21.3845   20.9707 C   0  0  1  0  0  0  0  0  0  0  0  0
  -24.4526   -9.2137   20.9548 C   0  0  0  0  0  0  0  0  0  0  0  0
  -23.4200  -15.0695   23.8727 C   0  0  0  0  0  0  0  0  0  0  0  0
  -23.8803  -12.6178   24.0862 C   0  0  0  0  0  0  0  0  0  0  0  0
  -21.7814  -13.4000   22.9883 C   0  0  0  0  0  0  0  0  0  0  0  0
  -25.7148  -11.0789   17.8881 C   0  0  0  0  0  0  0  0  0  0  0  0
  -33.1484  -19.9323   21.3715 C   0  0  0  0  0  0  0  0  0  0  0  0
  -31.2536  -23.0915   21.3583 C   0  0  0  0  0  0  0  0  0  0  0  0
  -29.9771  -22.4131   20.8831 C   0  0  0  0  0  0  0  0  0  0  0  0
  -32.0175  -17.7056   21.4103 C   0  0  0  0  0  0  0  0  0  0  0  0
  -30.6854  -17.0349   21.1381 C   0  0  0  0  0  0  0  0  0  1  0  0
  -23.9861  -13.6672   21.7800 C   0  0  1  0  0  0  0  0  0  0  0  0
  -24.5448  -10.3779   19.9806 C   0  0  2  0  0  0  0  0  0  0  0  0
  -23.2845  -13.7054   23.1670 C   0  0  0  0  0  0  0  0  0  0  0  0
  -25.1445  -27.0707   20.1145 N   0  0  0  0  0  0  0  0  0  0  0  0
  -26.3789  -27.5796   19.9616 N   0  0  0  0  0  0  0  0  0  0  0  0
  -24.3974  -15.6620   20.3745 N   0  0  0  0  0  0  0  0  0  0  0  0
  -28.1960  -24.5822   18.4376 N   0  0  0  0  0  0  0  0  0  0  0  0
  -32.1407  -22.1168   21.9946 N   0  0  2  0  0  0  0  0  0  0  0  0
  -27.7467  -29.4244   20.5418 N   0  0  0  0  0  0  0  0  0  0  0  0
  -23.8088  -30.3790   22.5362 N   0  0  0  0  0  0  0  0  0  0  0  0
  -23.2542  -19.1112   20.0708 N   0  0  0  0  0  0  0  0  0  0  0  0
  -23.8510  -12.3961   21.0769 N   0  0  0  0  0  0  0  0  0  0  0  0
  -29.0811  -23.3613   20.2596 N   0  0  0  0  0  0  0  0  0  0  0  0
  -25.5400  -10.0313   18.9269 N   0  3  0  0  0  0  0  0  0  0  0  0
  -31.9055  -19.1560   21.1137 N   0  3  0  0  0  0  0  0  0  0  0  0
  -25.9448  -31.1320   22.1770 O   0  0  0  0  0  0  0  0  0  0  0  0
  -24.0878  -17.7723   21.7839 O   0  0  0  0  0  0  0  0  0  0  0  0
  -22.2696  -14.7211   20.5272 O   0  0  0  0  0  0  0  0  0  0  0  0
  -26.1222  -11.9725   20.8786 O   0  0  0  0  0  0  0  0  0  0  0  0
  -29.9350  -23.0750   18.1511 O   0  0  0  0  0  0  0  0  0  0  0  0
  -19.2003  -27.2514   22.3906 O   0  0  0  0  0  0  0  0  0  0  0  0
  -30.3403  -17.1989   19.7632 O   0  0  0  0  0  0  0  0  0  1  0  0
  -16.4829  -31.6119   24.3922 F   0  0  0  0  0  0  0  0  0  0  0  0
  -20.0801  -28.5476   24.6685 F   0  0  0  0  0  0  0  0  0  0  0  0
  1  2  1  0  0  0  0
  1  5  2  0  0  0  0
  2  6  2  0  0  0  0
  3  8  2  0  0  0  0
  3 15  1  0  0  0  0
  4  9  1  0  0  0  0
  4 15  2  0  0  0  0
  5 17  1  0  0  0  0
  6 19  1  0  0  0  0
  7 10  2  0  0  0  0
  7 18  1  0  0  0  0
  8 21  1  0  0  0  0
  9 21  2  0  0  0  0
 10 22  1  0  0  0  0
 11 12  2  0  0  0  0
 11 23  1  0  0  0  0
 12 24  1  0  0  0  0
 13 20  1  0  0  0  0
 13 22  2  0  0  0  0
 14 24  2  0  0  0  0
 14 25  1  0  0  0  0
 15 26  1  0  0  0  0
 16 26  1  0  0  0  0
 16 27  2  0  0  0  0
 16 28  1  0  0  0  0
 17 19  2  0  0  0  0
 17 33  1  0  0  0  0
 18 20  2  0  0  0  0
 18 34  1  0  0  0  0
 19 44  1  0  0  0  0
 20 35  1  0  0  0  0
 21 78  1  0  0  0  0
 22 79  1  0  0  0  0
 23 25  2  0  0  0  0
 23 78  1  0  0  0  0
 24 80  1  0  0  0  0
 25 81  1  0  0  0  0
 26 61  2  0  0  0  0
 27 62  1  0  0  0  0
 27 66  1  0  0  0  0
 28 67  1  0  0  0  0
 28 73  2  0  0  0  0
 29 45  1  0  0  0  0
 29 68  1  0  0  0  0
 29 74  2  0  0  0  0
 30 58  1  0  0  0  0
 30 63  1  0  0  0  0
 30 75  2  0  0  0  0
 31 59  1  0  0  0  0
 31 69  1  0  0  0  0
 31 76  2  0  0  0  0
 32 64  1  0  0  0  0
 32 70  1  0  0  0  0
 32 77  2  0  0  0  0
 33 36  1  0  0  0  0
 34 45  1  0  0  0  0
 35 63  1  0  0  0  0
 36 38  1  0  0  0  0
 37 39  1  0  0  0  0
 37 41  1  0  0  0  0
 38 44  1  0  0  0  0
 39 46  1  0  0  0  0
 40 42  1  0  0  0  0
 40 47  1  0  0  0  0
 41 64  1  0  0  0  0
 42 65  1  0  0  0  0
 43 46  1  0  0  0  0
 43 64  1  0  0  0  0
 44 68  1  0  0  0  0
 45 63  1  0  0  0  0
 46 62  1  0  0  0  0
 47 53  1  0  0  0  0
 47 65  1  0  0  0  0
 48 59  1  0  0  0  0
 49 60  1  0  0  0  0
 50 60  1  0  0  0  0
 51 60  1  0  0  0  0
 52 71  1  0  0  0  0
 53 72  1  0  0  0  0
 54 55  1  0  0  0  0
 54 65  1  0  0  0  0
 55 70  1  0  0  0  0
 56 57  1  0  0  0  0
 56 72  1  0  0  0  0
 57 79  1  0  0  0  0
 58 60  1  0  0  0  0
 58 69  1  0  0  0  0
 59 71  1  0  0  0  0
 61 62  1  0  0  0  0
M  CHG  2  71   1  72   1
M  ISO  4  32 100  57 101  70 100  79 101
M  END
> <Batch ID>
0193

> <Smiles>
CNC(C)C(=O)NC(C(=O)N1Cc2cc([101O:1][101CH2:1]CNCC3CCN3CC[100NH:0][100C:0](=O)N3CCCC(n4nc(-c5ccc(Oc6ccc(F)cc6F)cc5)c(C(N)=O)c4N)C3)ccc2CC1C(=O)NC1CCCc2ccccc21)C(C)(C)C

> <Shape>
0.240

> <Color>
0.085

> <Negative vol penalty>
0.000

$$$$

  -OEChem-04052323323D

 86 95  0     1  0  0  0  0  0999 V2000
  -28.5833  -36.8424   24.8024 C   0  0  0  0  0  0  0  0  0  0  0  0
  -28.7854  -35.4666   24.8448 C   0  0  0  0  0  0  0  0  0  0  0  0
  -24.4552   -8.9078   22.4388 C   0  0  0  0  0  0  0  0  0  0  0  0
  -23.9120   -9.4895   20.1576 C   0  0  0  0  0  0  0  0  0  0  0  0
  -27.2877  -37.3538   24.7413 C   0  0  0  0  0  0  0  0  0  0  0  0
  -27.6920  -34.6015   24.8272 C   0  0  0  0  0  0  0  0  0  0  0  0
  -26.9664  -29.6465   19.6490 C   0  0  0  0  0  0  0  0  0  0  0  0
  -23.3383   -8.0740   22.4921 C   0  0  0  0  0  0  0  0  0  0  0  0
  -22.7951   -8.6556   20.2109 C   0  0  0  0  0  0  0  0  0  0  0  0
  -26.8649  -28.5344   18.8130 C   0  0  0  0  0  0  0  0  0  0  0  0
  -22.4879   -4.9783   21.4306 C   0  0  0  0  0  0  0  0  0  0  0  0
  -22.6505   -3.7120   21.9923 C   0  0  0  0  0  0  0  0  0  0  0  0
  -24.7503  -27.9495   19.8302 C   0  0  0  0  0  0  0  0  0  0  0  0
  -20.9961   -4.2439   23.6707 C   0  0  0  0  0  0  0  0  0  0  0  0
  -24.7420   -9.6156   21.2715 C   0  0  0  0  0  0  0  0  0  0  0  0
  -27.2419  -10.1084   21.3952 C   0  0  0  0  0  0  0  0  0  0  0  0
  -26.1781  -36.4943   24.7132 C   0  0  0  0  0  0  0  0  0  0  0  0
  -25.9516  -29.9233   20.5693 C   0  0  0  0  0  0  0  0  0  0  0  0
  -26.3802  -35.1020   24.7671 C   0  0  0  0  0  0  0  0  0  0  0  0
  -24.8406  -29.0690   20.6616 C   0  0  0  0  0  0  0  0  0  0  0  0
  -22.5082   -7.9478   21.3782 C   0  0  0  0  0  0  0  0  0  0  0  0
  -25.7597  -27.6878   18.9036 C   0  0  0  0  0  0  0  0  0  0  0  0
  -21.5794   -5.8775   21.9891 C   0  0  0  0  0  0  0  0  0  0  0  0
  -21.9047   -3.3447   23.1123 C   0  0  0  0  0  0  0  0  0  0  0  0
  -20.8335   -5.5103   23.1091 C   0  0  0  0  0  0  0  0  0  0  0  0
  -25.8953  -10.4776   21.2160 C   0  0  0  0  0  0  0  0  0  0  0  0
  -27.9420  -11.2806   21.2462 C   0  0  0  0  0  0  0  0  0  0  0  0
  -27.8092   -8.8210   21.6715 C   0  0  0  0  0  0  0  0  0  0  0  0
  -24.6631  -32.1977   23.2606 C   0  0  0  0  0  0  0  0  0  0  0  0
  -22.2542  -31.4059   21.5342 C   0  0  0  0  0  0  0  0  0  0  0  0
  -19.9459  -30.6347   19.1437 C   0  0  0  0  0  0  0  0  0  0  0  0
  -26.5146  -16.2775   18.2939 C   0  0  0  0  0  0  0  0  0  0  0  0
  -24.7948  -37.0950   24.6947 C   0  0  0  0  0  0  0  0  0  0  0  0
  -26.0486  -31.0755   21.5321 C   0  0  0  0  0  0  0  0  0  0  0  0
  -23.7899  -29.3866   21.6903 C   0  0  0  0  0  0  0  0  0  0  0  0
  -23.7046  -36.1014   24.3015 C   0  0  0  0  0  0  0  0  0  0  0  0
  -27.5000  -16.0085   21.8157 C   0  0  0  0  0  0  0  0  0  0  0  0
  -23.8779  -34.7903   25.0616 C   0  0  0  0  0  0  0  0  0  0  0  0
  -27.3002  -14.5143   22.0745 C   0  0  0  0  0  0  0  0  0  0  0  0
  -28.4889  -22.7747   14.5564 C   0  0  0  0  0  0  0  0  0  0  0  0
  -26.4620  -16.5352   20.8321 C   0  0  0  0  0  0  0  0  0  0  0  0
  -26.2293  -14.3227   19.7777 C   0  0  0  0  0  0  0  0  0  0  0  0
  -28.2940  -18.1488   18.7277 C   0  0  0  0  0  0  0  0  0  0  0  0
  -27.2767  -18.2479   16.8604 C   0  0  0  0  0  0  0  0  0  0  0  0
  -27.8919  -24.1358   14.8716 C   0  0  0  0  0  0  0  0  0  0  0  0
  -27.3096  -22.4933   16.5876 C   0  0  0  0  0  0  0  0  0  0  0  0
  -25.2206  -34.1306   24.7248 C   0  0  1  0  0  0  0  0  0  0  0  0
  -24.6860  -31.7232   21.8374 C   0  0  1  0  0  0  0  0  0  0  0  0
  -28.6189  -22.1093   15.9187 C   0  0  1  0  0  0  0  0  0  0  0  0
  -27.2554  -13.7210   20.7556 C   0  0  2  0  0  0  0  0  0  0  0  0
  -28.6930  -18.6117   17.3198 C   0  0  0  0  0  0  0  0  0  0  0  0
  -17.5320  -30.9810   18.5519 C   0  0  0  0  0  0  0  0  0  0  0  0
  -24.0488  -26.2586   15.6847 C   0  0  0  0  0  0  0  0  0  0  0  0
  -21.4471  -29.3521   23.6400 C   0  0  0  0  0  0  0  0  0  0  0  0
  -19.2924  -29.0372   22.4047 C   0  0  0  0  0  0  0  0  0  0  0  0
  -19.8543  -31.2627   23.3814 C   0  0  0  0  0  0  0  0  0  0  0  0
  -20.6424  -32.0202   16.6229 C   0  0  0  0  0  0  0  0  0  0  0  0
  -30.3409  -20.4152   17.8019 C   0  0  0  0  0  0  0  0  0  0  0  0
  -28.8249  -20.6073   15.8358 C   0  0  0  0  0  0  0  0  0  0  0  0
  -25.6757  -24.3432   16.0780 C   0  0  0  0  0  0  0  0  0  0  0  0
  -26.2741  -26.7120   16.7955 C   0  0  0  0  0  0  0  0  0  1  0  0
  -21.0990  -30.4581   21.3331 C   0  0  1  0  0  0  0  0  0  0  0  0
  -18.9527  -31.4977   18.3866 C   0  0  2  0  0  0  0  0  0  0  0  0
  -25.5200  -25.8397   15.7841 C   0  0  2  0  0  0  0  0  0  0  0  0
  -20.4481  -30.0236   22.6767 C   0  0  0  0  0  0  0  0  0  0  0  0
  -25.7464  -11.7823   20.9720 N   0  0  0  0  0  0  0  0  0  0  0  0
  -27.0085  -12.2432   20.9969 N   0  0  0  0  0  0  0  0  0  0  0  0
  -23.5205  -30.8329   21.7032 N   0  0  0  0  0  0  0  0  0  0  0  0
  -26.4758  -15.7563   19.5900 N   0  0  0  0  0  0  0  0  0  0  0  0
  -27.1785  -17.4643   18.0897 N   0  0  0  0  0  0  0  0  0  0  0  0
  -29.2589  -11.5716   21.3055 N   0  0  0  0  0  0  0  0  0  0  0  0
  -26.9467   -7.7230   21.7935 N   0  0  0  0  0  0  0  0  0  0  0  0
  -25.1534  -33.4778   23.4349 N   0  0  0  0  0  0  0  0  0  0  0  0
  -20.1824  -31.1212   20.4120 N   0  0  0  0  0  0  0  0  0  0  0  0
  -27.1107  -23.9317   16.1573 N   0  3  2  0  0  0  0  0  0  0  0  0
  -19.2814  -31.5120   16.9330 N   0  3  0  0  0  0  0  0  0  0  0  0
  -28.9846  -20.0475   17.2349 N   0  3  1  0  0  0  0  0  0  0  0  0
  -29.0430   -8.6522   21.8225 O   0  0  0  0  0  0  0  0  0  0  0  0
  -24.2311  -31.4582   24.1371 O   0  0  0  0  0  0  0  0  0  0  0  0
  -22.0416  -32.6216   21.5472 O   0  0  0  0  0  0  0  0  0  0  0  0
  -20.4578  -29.6276   18.6598 O   0  0  0  0  0  0  0  0  0  0  0  0
  -25.9988  -15.6848   17.3368 O   0  0  0  0  0  0  0  0  0  0  0  0
  -21.4184   -7.1341   21.4298 O   0  0  0  0  0  0  0  0  0  0  0  0
  -25.6641  -26.5990   18.0758 O   0  0  0  0  0  0  0  0  0  1  0  0
  -22.0599   -2.1280   23.6507 F   0  0  0  0  0  0  0  0  0  0  0  0
  -19.9583   -6.3694   23.6493 F   0  0  0  0  0  0  0  0  0  0  0  0
  1  2  1  0  0  0  0
  1  5  2  0  0  0  0
  2  6  2  0  0  0  0
  3  8  2  0  0  0  0
  3 15  1  0  0  0  0
  4  9  1  0  0  0  0
  4 15  2  0  0  0  0
  5 17  1  0  0  0  0
  6 19  1  0  0  0  0
  7 10  2  0  0  0  0
  7 18  1  0  0  0  0
  8 21  1  0  0  0  0
  9 21  2  0  0  0  0
 10 22  1  0  0  0  0
 11 12  2  0  0  0  0
 11 23  1  0  0  0  0
 12 24  1  0  0  0  0
 13 20  1  0  0  0  0
 13 22  2  0  0  0  0
 14 24  2  0  0  0  0
 14 25  1  0  0  0  0
 15 26  1  0  0  0  0
 16 26  1  0  0  0  0
 16 27  2  0  0  0  0
 16 28  1  0  0  0  0
 17 19  2  0  0  0  0
 17 33  1  0  0  0  0
 18 20  2  0  0  0  0
 18 34  1  0  0  0  0
 19 47  1  0  0  0  0
 20 35  1  0  0  0  0
 21 83  1  0  0  0  0
 22 84  1  0  0  0  0
 23 25  2  0  0  0  0
 23 83  1  0  0  0  0
 24 85  1  0  0  0  0
 25 86  1  0  0  0  0
 26 66  2  0  0  0  0
 27 67  1  0  0  0  0
 27 71  1  0  0  0  0
 28 72  1  0  0  0  0
 28 78  2  0  0  0  0
 29 48  1  0  0  0  0
 29 73  1  0  0  0  0
 29 79  2  0  0  0  0
 30 62  1  0  0  0  0
 30 68  1  0  0  0  0
 30 80  2  0  0  0  0
 31 63  1  0  0  0  0
 31 74  1  0  0  0  0
 31 81  2  0  0  0  0
 32 69  1  0  0  0  0
 32 70  1  0  0  0  0
 32 82  2  0  0  0  0
 33 36  1  0  0  0  0
 34 48  1  0  0  0  0
 35 68  1  0  0  0  0
 36 38  1  0  0  0  0
 37 39  1  0  0  0  0
 37 41  1  0  0  0  0
 38 47  1  0  0  0  0
 39 50  1  0  0  0  0
 40 45  1  0  0  0  0
 40 49  1  0  0  0  0
 41 69  1  0  0  0  0
 42 50  1  0  0  0  0
 42 69  1  0  0  0  0
 43 51  1  0  0  0  0
 43 70  1  0  0  0  0
 44 51  1  0  0  0  0
 44 70  1  0  0  0  0
 45 75  1  0  0  0  0
 46 49  1  0  0  0  0
 46 75  1  0  0  0  0
 47 73  1  0  0  0  0
 48 68  1  0  0  0  0
 49 59  1  0  0  0  0
 50 67  1  0  0  0  0
 51 77  1  0  0  0  0
 52 63  1  0  0  0  0
 53 64  1  0  0  0  0
 54 65  1  0  0  0  0
 55 65  1  0  0  0  0
 56 65  1  0  0  0  0
 57 76  1  0  0  0  0
 58 77  1  0  0  0  0
 59 77  1  0  0  0  0
 60 64  1  0  0  0  0
 60 75  1  0  0  0  0
 61 64  1  0  0  0  0
 61 84  1  0  0  0  0
 62 65  1  0  0  0  0
 62 74  1  0  0  0  0
 63 76  1  0  0  0  0
 66 67  1  0  0  0  0
M  CHG  3  75   1  76   1  77   1
M  ISO  4  32 100  61 101  70 100  84 101
M  END
> <Batch ID>
0193

> <Smiles>
CNC(C)C(=O)NC(C(=O)N1Cc2cc([101O:1][101CH2:1]C(C)CN3CCC(CN(C)C4C[100N:0]([100C:0](=O)N5CCCC(n6nc(-c7ccc(Oc8ccc(F)cc8F)cc7)c(C(N)=O)c6N)C5)C4)C3)ccc2CC1C(=O)NC1CCCc2ccccc21)C(C)(C)C

> <Shape>
0.264

> <Color>
0.089

> <Negative vol penalty>
0.000

$$$$

  -OEChem-04052323323D

 85 94  0     1  0  0  0  0  0999 V2000
  -23.1211  -32.5104   25.3490 C   0  0  0  0  0  0  0  0  0  0  0  0
  -23.9750  -31.5234   24.8673 C   0  0  0  0  0  0  0  0  0  0  0  0
  -22.4742  -11.2244   22.2443 C   0  0  0  0  0  0  0  0  0  0  0  0
  -22.3242  -10.9849   19.8449 C   0  0  0  0  0  0  0  0  0  0  0  0
  -21.7416  -32.3099   25.3244 C   0  0  0  0  0  0  0  0  0  0  0  0
  -23.4498  -30.3347   24.3616 C   0  0  0  0  0  0  0  0  0  0  0  0
  -25.6497  -28.9300   20.0219 C   0  0  0  0  0  0  0  0  0  0  0  0
  -21.9540   -9.9402   22.4050 C   0  0  0  0  0  0  0  0  0  0  0  0
  -21.8041   -9.7006   20.0056 C   0  0  0  0  0  0  0  0  0  0  0  0
  -26.9050  -28.3297   20.1096 C   0  0  0  0  0  0  0  0  0  0  0  0
  -21.0032   -6.5875   23.4397 C   0  0  0  0  0  0  0  0  0  0  0  0
  -21.6231   -5.7479   24.3651 C   0  0  0  0  0  0  0  0  0  0  0  0
  -28.6186  -22.8295   24.1596 C   0  0  0  0  0  0  0  0  0  0  0  0
  -25.8784  -26.1609   19.8612 C   0  0  0  0  0  0  0  0  0  0  0  0
  -23.6931   -5.9152   23.1305 C   0  0  0  0  0  0  0  0  0  0  0  0
  -27.7515  -21.8909   24.6737 C   0  0  0  0  0  0  0  0  0  0  0  0
  -27.3315  -22.0587   22.4805 C   0  0  0  0  0  0  0  0  0  0  0  0
  -22.6592  -11.7468   20.9642 C   0  0  0  0  0  0  0  0  0  0  0  0
  -28.3530  -22.9356   22.7720 C   0  0  0  0  0  0  0  0  0  0  0  0
  -24.5516  -13.4331   20.6768 C   0  0  0  0  0  0  0  0  0  0  0  0
  -21.1988  -31.1222   24.8092 C   0  0  0  0  0  0  0  0  0  0  0  0
  -24.4963  -28.1483   19.8640 C   0  0  0  0  0  0  0  0  0  0  0  0
  -22.0618  -30.1176   24.3312 C   0  0  0  0  0  0  0  0  0  0  0  0
  -24.6099  -26.7539   19.7693 C   0  0  0  0  0  0  0  0  0  0  0  0
  -21.6190   -9.1783   21.2857 C   0  0  0  0  0  0  0  0  0  0  0  0
  -27.0192  -26.9447   20.0322 C   0  0  0  0  0  0  0  0  0  0  0  0
  -21.7283   -7.0909   22.3596 C   0  0  0  0  0  0  0  0  0  0  0  0
  -22.9680   -5.4118   24.2106 C   0  0  0  0  0  0  0  0  0  0  0  0
  -23.0732   -6.7548   22.2050 C   0  0  0  0  0  0  0  0  0  0  0  0
  -23.1959  -13.0735   20.7976 C   0  0  0  0  0  0  0  0  0  0  0  0
  -24.5335  -14.7997   20.5407 C   0  0  0  0  0  0  0  0  0  0  0  0
  -29.0008  -23.7811   21.8117 C   0  0  0  0  0  0  0  0  0  0  0  0
  -25.7226  -12.6058   20.6866 C   0  0  0  0  0  0  0  0  0  0  0  0
  -21.8657  -27.6591   21.5798 C   0  0  0  0  0  0  0  0  0  0  0  0
  -20.9555  -25.9494   18.9777 C   0  0  0  0  0  0  0  0  0  0  0  0
  -21.8732  -24.1853   16.2042 C   0  0  0  0  0  0  0  0  0  0  0  0
  -22.4962  -19.7146   22.4376 C   0  0  0  0  0  0  0  0  0  0  0  0
  -19.7032  -30.9313   24.8469 C   0  0  0  0  0  0  0  0  0  0  0  0
  -23.1523  -28.8129   19.7442 C   0  0  0  0  0  0  0  0  0  0  0  0
  -23.4045  -25.8712   19.5794 C   0  0  0  0  0  0  0  0  0  0  0  0
  -19.2109  -29.7987   23.9496 C   0  0  0  0  0  0  0  0  0  0  0  0
  -20.6959  -17.9932   19.7406 C   0  0  0  0  0  0  0  0  0  0  0  0
  -20.0709  -28.5536   24.1412 C   0  0  0  0  0  0  0  0  0  0  0  0
  -21.2670  -16.5759   19.8023 C   0  0  0  0  0  0  0  0  0  0  0  0
  -26.0948  -19.1383   22.9068 C   0  0  0  0  0  0  0  0  0  0  0  0
  -20.6978  -18.6698   21.1094 C   0  0  0  0  0  0  0  0  0  0  0  0
  -24.7076  -18.5070   22.9050 C   0  0  0  0  0  0  0  0  0  0  0  0
  -22.5729  -17.2528   21.8512 C   0  0  0  0  0  0  0  0  0  0  0  0
  -24.4974  -20.8599   23.3451 C   0  0  0  0  0  0  0  0  0  0  0  0
  -21.5291  -28.8250   23.7520 C   0  0  1  0  0  0  0  0  0  0  0  0
  -21.9937  -27.8864   20.1001 C   0  0  1  0  0  0  0  0  0  0  0  0
  -22.6491  -16.5635   20.4818 C   0  0  1  0  0  0  0  0  0  0  0  0
  -25.8900  -20.3887   23.7714 C   0  0  2  0  0  0  0  0  0  0  0  0
  -20.9075  -22.8745   14.2945 C   0  0  0  0  0  0  0  0  0  0  0  0
  -20.4195  -23.6078   20.8592 C   0  0  0  0  0  0  0  0  0  0  0  0
  -20.3876  -22.0999   18.8608 C   0  0  0  0  0  0  0  0  0  0  0  0
  -18.6996  -23.9245   19.0714 C   0  0  0  0  0  0  0  0  0  0  0  0
  -23.0230  -26.0355   14.2008 C   0  0  0  0  0  0  0  0  0  0  0  0
  -30.2381  -25.9473   21.4305 C   0  0  0  0  0  0  0  0  0  0  0  0
  -29.2720  -26.9879   20.8930 C   0  0  0  0  0  0  0  0  0  1  0  0
  -21.1002  -24.5123   18.5387 C   0  0  1  0  0  0  0  0  0  0  0  0
  -21.3831  -24.2391   14.7684 C   0  0  2  0  0  0  0  0  0  0  0  0
  -20.1744  -23.5523   19.3381 C   0  0  0  0  0  0  0  0  0  0  0  0
  -22.3763  -14.1267   20.7432 N   0  0  0  0  0  0  0  0  0  0  0  0
  -26.9736  -21.4294   23.6441 N   0  0  0  0  0  0  0  0  0  0  0  0
  -23.2193  -15.1616   20.5868 N   0  0  0  0  0  0  0  0  0  0  0  0
  -22.1117  -26.5678   19.4742 N   0  0  0  0  0  0  0  0  0  0  0  0
  -22.0243  -18.6074   21.7237 N   0  0  0  0  0  0  0  0  0  0  0  0
  -23.7849  -19.6423   22.9654 N   0  0  0  0  0  0  0  0  0  0  0  0
  -25.5137  -15.7152   20.3873 N   0  0  0  0  0  0  0  0  0  0  0  0
  -25.5614  -11.2216   20.8356 N   0  0  0  0  0  0  0  0  0  0  0  0
  -29.5726  -24.9823   22.2759 N   0  0  0  0  0  0  0  0  0  0  0  0
  -21.6781  -28.8156   22.3125 N   0  0  0  0  0  0  0  0  0  0  0  0
  -20.8716  -24.5007   17.0978 N   0  0  0  0  0  0  0  0  0  0  0  0
  -22.4766  -24.6956   13.8646 N   0  3  0  0  0  0  0  0  0  0  0  0
  -29.0407  -23.4749   20.5961 O   0  0  0  0  0  0  0  0  0  0  0  0
  -26.8786  -13.0817   20.5833 O   0  0  0  0  0  0  0  0  0  0  0  0
  -21.9307  -26.5188   22.0238 O   0  0  0  0  0  0  0  0  0  0  0  0
  -19.8588  -26.5050   18.8770 O   0  0  0  0  0  0  0  0  0  0  0  0
  -23.0279  -23.8892   16.5032 O   0  0  0  0  0  0  0  0  0  0  0  0
  -21.8143  -20.7411   22.5581 O   0  0  0  0  0  0  0  0  0  0  0  0
  -21.1117   -7.9250   21.4421 O   0  0  0  0  0  0  0  0  0  0  0  0
  -28.2672  -26.3446   20.1198 O   0  0  0  0  0  0  0  0  0  1  0  0
  -23.5635   -4.6067   25.1002 F   0  0  0  0  0  0  0  0  0  0  0  0
  -23.7752   -7.2363   21.1701 F   0  0  0  0  0  0  0  0  0  0  0  0
  1  2  1  0  0  0  0
  1  5  2  0  0  0  0
  2  6  2  0  0  0  0
  3  8  2  0  0  0  0
  3 18  1  0  0  0  0
  4  9  1  0  0  0  0
  4 18  2  0  0  0  0
  5 21  1  0  0  0  0
  6 23  1  0  0  0  0
  7 10  2  0  0  0  0
  7 22  1  0  0  0  0
  8 25  1  0  0  0  0
  9 25  2  0  0  0  0
 10 26  1  0  0  0  0
 11 12  2  0  0  0  0
 11 27  1  0  0  0  0
 12 28  1  0  0  0  0
 13 16  2  0  0  0  0
 13 19  1  0  0  0  0
 14 24  1  0  0  0  0
 14 26  2  0  0  0  0
 15 28  2  0  0  0  0
 15 29  1  0  0  0  0
 16 65  1  0  0  0  0
 17 19  2  0  0  0  0
 17 65  1  0  0  0  0
 18 30  1  0  0  0  0
 19 32  1  0  0  0  0
 20 30  1  0  0  0  0
 20 31  2  0  0  0  0
 20 33  1  0  0  0  0
 21 23  2  0  0  0  0
 21 38  1  0  0  0  0
 22 24  2  0  0  0  0
 22 39  1  0  0  0  0
 23 50  1  0  0  0  0
 24 40  1  0  0  0  0
 25 82  1  0  0  0  0
 26 83  1  0  0  0  0
 27 29  2  0  0  0  0
 27 82  1  0  0  0  0
 28 84  1  0  0  0  0
 29 85  1  0  0  0  0
 30 64  2  0  0  0  0
 31 66  1  0  0  0  0
 31 70  1  0  0  0  0
 32 72  1  0  0  0  0
 32 76  2  0  0  0  0
 33 71  1  0  0  0  0
 33 77  2  0  0  0  0
 34 51  1  0  0  0  0
 34 73  1  0  0  0  0
 34 78  2  0  0  0  0
 35 61  1  0  0  0  0
 35 67  1  0  0  0  0
 35 79  2  0  0  0  0
 36 62  1  0  0  0  0
 36 74  1  0  0  0  0
 36 80  2  0  0  0  0
 37 68  1  0  0  0  0
 37 69  1  0  0  0  0
 37 81  2  0  0  0  0
 38 41  1  0  0  0  0
 39 51  1  0  0  0  0
 40 67  1  0  0  0  0
 41 43  1  0  0  0  0
 42 44  1  0  0  0  0
 42 46  1  0  0  0  0
 43 50  1  0  0  0  0
 44 52  1  0  0  0  0
 45 47  1  0  0  0  0
 45 53  1  0  0  0  0
 46 68  1  0  0  0  0
 47 69  1  0  0  0  0
 48 52  1  0  0  0  0
 48 68  1  0  0  0  0
 49 53  1  0  0  0  0
 49 69  1  0  0  0  0
 50 73  1  0  0  0  0
 51 67  1  0  0  0  0
 52 66  1  0  0  0  0
 53 65  1  0  0  0  0
 54 62  1  0  0  0  0
 55 63  1  0  0  0  0
 56 63  1  0  0  0  0
 57 63  1  0  0  0  0
 58 75  1  0  0  0  0
 59 60  1  0  0  0  0
 59 72  1  0  0  0  0
 60 83  1  0  0  0  0
 61 63  1  0  0  0  0
 61 74  1  0  0  0  0
 62 75  1  0  0  0  0
 64 66  1  0  0  0  0
M  CHG  1  75   1
M  ISO  4  37 100  60 101  69 100  83 101
M  END
> <Batch ID>
0193

> <Smiles>
CNC(C)C(=O)NC(C(=O)N1Cc2cc([101O:1][101CH2:1]CNC(=O)c3ccn(C4CC[100N:0]([100C:0](=O)N5CCCC(n6nc(-c7ccc(Oc8ccc(F)cc8F)cc7)c(C(N)=O)c6N)C5)C4)c3)ccc2CC1C(=O)NC1CCCc2ccccc21)C(C)(C)C

> <Shape>
0.207

> <Color>
0.098

> <Negative vol penalty>
0.000

$$$$

  -OEChem-04052323323D

 86 94  0     1  0  0  0  0  0999 V2000
  -29.7510  -11.9370   19.9770 C   0  0  0  0  0  0  0  0  0  0  0  0
  -29.7313  -13.1181   20.7119 C   0  0  0  0  0  0  0  0  0  0  0  0
  -30.3550  -21.5224   20.1565 C   0  0  0  0  0  0  0  0  0  0  0  0
  -28.0348  -21.3781   20.8142 C   0  0  0  0  0  0  0  0  0  0  0  0
  -28.8269  -11.7397   18.9518 C   0  0  0  0  0  0  0  0  0  0  0  0
  -28.7880  -14.1031   20.4212 C   0  0  0  0  0  0  0  0  0  0  0  0
  -24.8664  -19.1879   23.5965 C   0  0  0  0  0  0  0  0  0  0  0  0
  -30.3981  -20.1366   20.0043 C   0  0  0  0  0  0  0  0  0  0  0  0
  -28.0778  -19.9923   20.6620 C   0  0  0  0  0  0  0  0  0  0  0  0
  -24.5756  -20.5473   23.4904 C   0  0  0  0  0  0  0  0  0  0  0  0
  -31.2186  -16.6004   19.7901 C   0  0  0  0  0  0  0  0  0  0  0  0
  -32.3190  -15.9227   20.3150 C   0  0  0  0  0  0  0  0  0  0  0  0
  -22.9775  -20.0634   21.7494 C   0  0  0  0  0  0  0  0  0  0  0  0
  -31.7694  -16.7392   22.5214 C   0  0  0  0  0  0  0  0  0  0  0  0
  -29.1734  -22.1432   20.5615 C   0  0  0  0  0  0  0  0  0  0  0  0
  -28.7912  -24.5278   19.7398 C   0  0  0  0  0  0  0  0  0  0  0  0
  -27.8657  -12.7187   18.6548 C   0  0  0  0  0  0  0  0  0  0  0  0
  -24.2217  -18.2556   22.7709 C   0  0  0  0  0  0  0  0  0  0  0  0
  -27.8510  -13.9193   19.3902 C   0  0  0  0  0  0  0  0  0  0  0  0
  -23.2600  -18.6925   21.8488 C   0  0  0  0  0  0  0  0  0  0  0  0
  -29.2595  -19.3715   20.2571 C   0  0  0  0  0  0  0  0  0  0  0  0
  -23.6332  -20.9855   22.5648 C   0  0  0  0  0  0  0  0  0  0  0  0
  -30.3936  -17.3476   20.6309 C   0  0  0  0  0  0  0  0  0  0  0  0
  -32.5944  -15.9921   21.6806 C   0  0  0  0  0  0  0  0  0  0  0  0
  -30.6691  -17.4169   21.9966 C   0  0  0  0  0  0  0  0  0  0  0  0
  -29.1284  -23.5747   20.7194 C   0  0  0  0  0  0  0  0  0  0  0  0
  -28.8981  -25.7357   20.3848 C   0  0  0  0  0  0  0  0  0  0  0  0
  -28.4150  -24.3383   18.3693 C   0  0  0  0  0  0  0  0  0  0  0  0
  -25.1744  -16.1841   20.5562 C   0  0  0  0  0  0  0  0  0  0  0  0
  -22.0626  -15.2711   20.6287 C   0  0  0  0  0  0  0  0  0  0  0  0
  -18.8215  -16.0800   21.3270 C   0  0  0  0  0  0  0  0  0  0  0  0
  -28.0686  -28.9852   24.7421 C   0  0  0  0  0  0  0  0  0  0  0  0
  -26.9175  -12.4803   17.5064 C   0  0  0  0  0  0  0  0  0  0  0  0
  -24.5271  -16.7900   22.9162 C   0  0  0  0  0  0  0  0  0  0  0  0
  -22.5251  -17.7300   20.9532 C   0  0  0  0  0  0  0  0  0  0  0  0
  -25.7109  -13.4154   17.5085 C   0  0  0  0  0  0  0  0  0  0  0  0
  -30.8665  -26.9277   24.8732 C   0  0  0  0  0  0  0  0  0  0  0  0
  -26.1517  -14.8551   17.7525 C   0  0  0  0  0  0  0  0  0  0  0  0
  -30.6416  -25.9315   23.7377 C   0  0  0  0  0  0  0  0  0  0  0  0
  -29.5625  -27.2154   25.6059 C   0  0  0  0  0  0  0  0  0  0  0  0
  -28.2410  -26.7661   23.5564 C   0  0  0  0  0  0  0  0  0  0  0  0
  -26.4678  -30.6918   23.8938 C   0  0  0  0  0  0  0  0  0  0  0  0
  -26.1441  -28.4248   23.1484 C   0  0  0  0  0  0  0  0  0  0  0  0
  -26.8273  -15.0009   19.1213 C   0  0  1  0  0  0  0  0  0  0  0  0
  -24.1847  -15.9817   21.6685 C   0  0  1  0  0  0  0  0  0  0  0  0
  -29.5363  -26.4260   22.7900 C   0  0  2  0  0  0  0  0  0  0  0  0
  -25.0175  -30.5093   23.4493 C   0  0  2  0  0  0  0  0  0  0  0  0
  -25.1383  -29.3454   22.4709 C   0  0  2  0  0  0  0  0  0  0  0  0
  -23.5163  -33.9140   23.2525 C   0  0  0  0  0  0  0  0  0  0  0  0
  -16.4959  -15.1405   21.2482 C   0  0  0  0  0  0  0  0  0  0  0  0
  -22.3558  -26.2801   19.6700 C   0  0  0  0  0  0  0  0  0  0  0  0
  -22.0014  -15.6826   17.6060 C   0  0  0  0  0  0  0  0  0  0  0  0
  -19.5006  -15.6646   17.7242 C   0  0  0  0  0  0  0  0  0  0  0  0
  -20.7943  -13.6436   18.4059 C   0  0  0  0  0  0  0  0  0  0  0  0
  -18.4874  -16.3525   24.2550 C   0  0  0  0  0  0  0  0  0  0  0  0
  -24.0648  -32.6722   23.8689 C   0  0  0  0  0  0  0  0  0  0  0  0
  -22.5406  -24.2896   23.5710 C   0  0  0  0  0  0  0  0  0  0  0  0
  -23.7788  -27.7933   21.0633 C   0  0  0  0  0  0  0  0  0  0  0  0
  -21.9940  -26.2900   22.1788 C   0  0  0  0  0  0  0  0  0  0  0  0
  -23.4809  -23.1024   23.6380 C   0  0  0  0  0  0  0  0  0  1  0  0
  -20.8094  -15.6858   19.8962 C   0  0  1  0  0  0  0  0  0  0  0  0
  -17.7421  -15.3403   22.0966 C   0  0  2  0  0  0  0  0  0  0  0  0
  -22.4058  -27.1182   20.9525 C   0  0  2  0  0  0  0  0  0  0  0  0
  -20.7915  -15.1877   18.4235 C   0  0  0  0  0  0  0  0  0  0  0  0
  -29.4272  -24.1293   21.8971 N   0  0  0  0  0  0  0  0  0  0  0  0
  -29.2783  -25.4440   21.6617 N   0  0  0  0  0  0  0  0  0  0  0  0
  -22.8632  -16.3079   21.1287 N   0  0  0  0  0  0  0  0  0  0  0  0
  -28.5153  -27.6605   24.6875 N   0  0  0  0  0  0  0  0  0  0  0  0
  -27.0341  -29.3419   23.8748 N   0  0  0  0  0  0  0  0  0  0  0  0
  -28.7030  -27.0083   19.9786 N   0  0  0  0  0  0  0  0  0  0  0  0
  -28.3548  -23.0310   17.8676 N   0  0  0  0  0  0  0  0  0  0  0  0
  -25.8348  -15.0319   20.1741 N   0  0  0  0  0  0  0  0  0  0  0  0
  -19.6897  -15.2103   20.7015 N   0  0  0  0  0  0  0  0  0  0  0  0
  -24.4683  -31.7123   22.8483 N   0  0  0  0  0  0  0  0  0  0  0  0
  -23.8459  -28.6633   22.2737 N   0  3  0  0  0  0  0  0  0  0  0  0
  -17.3614  -16.1040   23.3184 N   0  3  0  0  0  0  0  0  0  0  0  0
  -22.8681  -25.1089   22.3716 N   0  3  0  0  0  0  0  0  0  0  0  0
  -28.1562  -25.3007   17.6075 O   0  0  0  0  0  0  0  0  0  0  0  0
  -25.3266  -17.3024   20.0789 O   0  0  0  0  0  0  0  0  0  0  0  0
  -22.3180  -14.0713   20.7588 O   0  0  0  0  0  0  0  0  0  0  0  0
  -18.8857  -17.3065   21.2819 O   0  0  0  0  0  0  0  0  0  0  0  0
  -28.5417  -29.7910   25.5531 O   0  0  0  0  0  0  0  0  0  0  0  0
  -29.3011  -18.0192   20.1085 O   0  0  0  0  0  0  0  0  0  0  0  0
  -23.3459  -22.3214   22.4580 O   0  0  0  0  0  0  0  0  0  1  0  0
  -33.6503  -15.3400   22.1847 F   0  0  0  0  0  0  0  0  0  0  0  0
  -29.8794  -18.1322   22.8095 F   0  0  0  0  0  0  0  0  0  0  0  0
  1  2  1  0  0  0  0
  1  5  2  0  0  0  0
  2  6  2  0  0  0  0
  3  8  2  0  0  0  0
  3 15  1  0  0  0  0
  4  9  1  0  0  0  0
  4 15  2  0  0  0  0
  5 17  1  0  0  0  0
  6 19  1  0  0  0  0
  7 10  2  0  0  0  0
  7 18  1  0  0  0  0
  8 21  1  0  0  0  0
  9 21  2  0  0  0  0
 10 22  1  0  0  0  0
 11 12  2  0  0  0  0
 11 23  1  0  0  0  0
 12 24  1  0  0  0  0
 13 20  1  0  0  0  0
 13 22  2  0  0  0  0
 14 24  2  0  0  0  0
 14 25  1  0  0  0  0
 15 26  1  0  0  0  0
 16 26  1  0  0  0  0
 16 27  2  0  0  0  0
 16 28  1  0  0  0  0
 17 19  2  0  0  0  0
 17 33  1  0  0  0  0
 18 20  2  0  0  0  0
 18 34  1  0  0  0  0
 19 44  1  0  0  0  0
 20 35  1  0  0  0  0
 21 83  1  0  0  0  0
 22 84  1  0  0  0  0
 23 25  2  0  0  0  0
 23 83  1  0  0  0  0
 24 85  1  0  0  0  0
 25 86  1  0  0  0  0
 26 65  2  0  0  0  0
 27 66  1  0  0  0  0
 27 70  1  0  0  0  0
 28 71  1  0  0  0  0
 28 78  2  0  0  0  0
 29 45  1  0  0  0  0
 29 72  1  0  0  0  0
 29 79  2  0  0  0  0
 30 61  1  0  0  0  0
 30 67  1  0  0  0  0
 30 80  2  0  0  0  0
 31 62  1  0  0  0  0
 31 73  1  0  0  0  0
 31 81  2  0  0  0  0
 32 68  1  0  0  0  0
 32 69  1  0  0  0  0
 32 82  2  0  0  0  0
 33 36  1  0  0  0  0
 34 45  1  0  0  0  0
 35 67  1  0  0  0  0
 36 38  1  0  0  0  0
 37 39  1  0  0  0  0
 37 40  1  0  0  0  0
 38 44  1  0  0  0  0
 39 46  1  0  0  0  0
 40 68  1  0  0  0  0
 41 46  1  0  0  0  0
 41 68  1  0  0  0  0
 42 47  1  0  0  0  0
 42 69  1  0  0  0  0
 43 48  1  0  0  0  0
 43 69  1  0  0  0  0
 44 72  1  0  0  0  0
 45 67  1  0  0  0  0
 46 66  1  0  0  0  0
 47 48  1  0  0  0  0
 47 74  1  0  0  0  0
 48 75  1  0  0  0  0
 49 56  1  0  0  0  0
 50 62  1  0  0  0  0
 51 63  1  0  0  0  0
 52 64  1  0  0  0  0
 53 64  1  0  0  0  0
 54 64  1  0  0  0  0
 55 76  1  0  0  0  0
 56 74  1  0  0  0  0
 57 60  1  0  0  0  0
 57 77  1  0  0  0  0
 58 63  1  0  0  0  0
 58 75  1  0  0  0  0
 59 63  1  0  0  0  0
 59 77  1  0  0  0  0
 60 84  1  0  0  0  0
 61 64  1  0  0  0  0
 61 73  1  0  0  0  0
 62 76  1  0  0  0  0
 65 66  1  0  0  0  0
M  CHG  3  75   1  76   1  77   1
M  ISO  4  32 100  60 101  69 100  84 101
M  END
> <Batch ID>
0193

> <Smiles>
CCNC1C[100N:0]([100C:0](=O)N2CCCC(n3nc(-c4ccc(Oc5ccc(F)cc5F)cc4)c(C(N)=O)c3N)C2)CC1NCC(C)CNC[101CH2:1][101O:1]c1ccc2c(c1)CN(C(=O)C(NC(=O)C(C)NC)C(C)(C)C)C(C(=O)NC1CCCc3ccccc31)C2

> <Shape>
0.209

> <Color>
0.064

> <Negative vol penalty>
0.000

$$$$

  -OEChem-04052323323D

 86 96  0     1  0  0  0  0  0999 V2000
  -20.2795  -32.8848   14.8895 C   0  0  0  0  0  0  0  0  0  0  0  0
  -21.1751  -31.8432   15.1094 C   0  0  0  0  0  0  0  0  0  0  0  0
  -24.9911  -14.3646   21.2518 C   0  0  0  0  0  0  0  0  0  0  0  0
  -24.9279  -13.0136   23.2538 C   0  0  0  0  0  0  0  0  0  0  0  0
  -20.4507  -34.1009   15.5496 C   0  0  0  0  0  0  0  0  0  0  0  0
  -22.2432  -32.0176   15.9888 C   0  0  0  0  0  0  0  0  0  0  0  0
  -24.7061  -27.7908   19.6731 C   0  0  0  0  0  0  0  0  0  0  0  0
  -25.7968  -13.4091   20.6324 C   0  0  0  0  0  0  0  0  0  0  0  0
  -25.7336  -12.0581   22.6344 C   0  0  0  0  0  0  0  0  0  0  0  0
  -25.8359  -26.9831   19.5505 C   0  0  0  0  0  0  0  0  0  0  0  0
  -29.0522  -12.5002   20.6607 C   0  0  0  0  0  0  0  0  0  0  0  0
  -30.1623  -12.9533   19.9481 C   0  0  0  0  0  0  0  0  0  0  0  0
  -27.1098  -28.5807   20.8327 C   0  0  0  0  0  0  0  0  0  0  0  0
  -29.2798  -11.9495   17.9354 C   0  0  0  0  0  0  0  0  0  0  0  0
  -30.3898  -25.5548   22.3065 C   0  0  0  0  0  0  0  0  0  0  0  0
  -24.5567  -14.1668   22.5625 C   0  0  0  0  0  0  0  0  0  0  0  0
  -22.3184  -15.2123   23.1984 C   0  0  0  0  0  0  0  0  0  0  0  0
  -21.5158  -34.2870   16.4448 C   0  0  0  0  0  0  0  0  0  0  0  0
  -24.7726  -29.0068   20.3684 C   0  0  0  0  0  0  0  0  0  0  0  0
  -22.4296  -33.2378   16.6604 C   0  0  0  0  0  0  0  0  0  0  0  0
  -25.9789  -29.4008   20.9649 C   0  0  0  0  0  0  0  0  0  0  0  0
  -26.1680  -12.2559   21.3237 C   0  0  0  0  0  0  0  0  0  0  0  0
  -27.0387  -27.3794   20.1278 C   0  0  0  0  0  0  0  0  0  0  0  0
  -28.0559  -11.7717   20.0108 C   0  0  0  0  0  0  0  0  0  0  0  0
  -30.2761  -12.6779   18.5854 C   0  0  0  0  0  0  0  0  0  0  0  0
  -28.1697  -11.4963   18.6481 C   0  0  0  0  0  0  0  0  0  0  0  0
  -23.7249  -15.1537   23.2030 C   0  0  0  0  0  0  0  0  0  0  0  0
  -30.2917  -25.5560   23.6693 C   0  0  0  0  0  0  0  0  0  0  0  0
  -22.0188  -16.3273   23.9424 C   0  0  0  0  0  0  0  0  0  0  0  0
  -28.7102  -24.2282   22.8717 C   0  0  0  0  0  0  0  0  0  0  0  0
  -21.3677  -14.3371   22.5773 C   0  0  0  0  0  0  0  0  0  0  0  0
  -24.3413  -32.0596   19.5947 C   0  0  0  0  0  0  0  0  0  0  0  0
  -24.7094  -32.5159   22.7851 C   0  0  0  0  0  0  0  0  0  0  0  0
  -25.9587  -31.3767   25.7496 C   0  0  0  0  0  0  0  0  0  0  0  0
  -24.8375  -21.3188   25.2019 C   0  0  0  0  0  0  0  0  0  0  0  0
  -21.6872  -35.6351   17.0990 C   0  0  0  0  0  0  0  0  0  0  0  0
  -23.5383  -29.8539   20.5145 C   0  0  0  0  0  0  0  0  0  0  0  0
  -26.0977  -30.6873   21.7390 C   0  0  0  0  0  0  0  0  0  0  0  0
  -22.6292  -35.6140   18.3000 C   0  0  0  0  0  0  0  0  0  0  0  0
  -23.6962  -19.0180   27.5153 C   0  0  0  0  0  0  0  0  0  0  0  0
  -23.9016  -34.8415   17.9669 C   0  0  0  0  0  0  0  0  0  0  0  0
  -30.5146  -27.2647   25.6448 C   0  0  0  0  0  0  0  0  0  0  0  0
  -31.2953  -27.8311   24.5003 C   0  0  0  0  0  0  0  0  0  0  0  0
  -23.4309  -17.7649   26.6812 C   0  0  0  0  0  0  0  0  0  0  0  0
  -27.8444  -21.9305   23.4985 C   0  0  0  0  0  0  0  0  0  0  0  0
  -26.2500  -23.8935   23.3799 C   0  0  0  0  0  0  0  0  0  0  0  0
  -24.9833  -19.7049   27.0740 C   0  0  0  0  0  0  0  0  0  0  0  0
  -26.6437  -20.9810   23.4572 C   0  0  0  0  0  0  0  0  0  0  0  0
  -25.0926  -22.9011   23.3151 C   0  0  0  0  0  0  0  0  0  0  0  0
  -24.7454  -18.8206   24.7763 C   0  0  0  0  0  0  0  0  0  0  0  0
  -23.5864  -33.3801   17.6257 C   0  0  1  0  0  0  0  0  0  0  0  0
  -31.1674  -26.3238   24.6458 C   0  0  0  0  0  0  0  0  0  0  0  0
  -27.5355  -23.2703   22.8064 C   0  0  0  0  0  0  0  0  0  0  0  0
  -23.8498  -31.3186   20.8059 C   0  0  1  0  0  0  0  0  0  0  0  0
  -23.4485  -18.0882   25.1766 C   0  0  1  0  0  0  0  0  0  0  0  0
  -26.1331  -31.9856   28.1778 C   0  0  0  0  0  0  0  0  0  0  0  0
  -26.8847  -34.5484   22.1166 C   0  0  0  0  0  0  0  0  0  0  0  0
  -27.6518  -34.4057   24.4956 C   0  0  0  0  0  0  0  0  0  0  0  0
  -25.3557  -35.2298   23.9747 C   0  0  0  0  0  0  0  0  0  0  0  0
  -24.4622  -28.9628   26.5819 C   0  0  0  0  0  0  0  0  0  0  0  0
  -29.1450  -24.4347   20.4420 C   0  0  0  0  0  0  0  0  0  0  0  0
  -27.9318  -25.1865   19.9054 C   0  0  0  0  0  0  0  0  0  1  0  0
  -25.8825  -32.7724   23.7000 C   0  0  1  0  0  0  0  0  0  0  0  0
  -25.3274  -31.2424   27.1236 C   0  0  2  0  0  0  0  0  0  0  0  0
  -26.4422  -34.2157   23.5556 C   0  0  0  0  0  0  0  0  0  0  0  0
  -24.2804  -16.1521   23.8949 N   0  0  0  0  0  0  0  0  0  0  0  0
  -29.3995  -24.7246   21.8392 N   0  0  0  0  0  0  0  0  0  0  0  0
  -23.2174  -16.8487   24.3319 N   0  0  0  0  0  0  0  0  0  0  0  0
  -29.2442  -24.7271   23.9912 N   0  3  0  0  0  0  0  0  0  0  0  0
  -24.8645  -31.4840   21.8486 N   0  0  0  0  0  0  0  0  0  0  0  0
  -24.9627  -19.9918   25.6398 N   0  0  0  0  0  0  0  0  0  0  0  0
  -25.4396  -21.6437   23.9770 N   0  0  0  0  0  0  0  0  0  0  0  0
  -20.8496  -16.9029   24.2948 N   0  0  0  0  0  0  0  0  0  0  0  0
  -21.8463  -13.2387   21.8502 N   0  0  0  0  0  0  0  0  0  0  0  0
  -23.3352  -32.6221   18.8326 N   0  0  0  0  0  0  0  0  0  0  0  0
  -25.4305  -32.4387   25.0465 N   0  0  0  0  0  0  0  0  0  0  0  0
  -25.2468  -29.8077   27.5187 N   0  3  0  0  0  0  0  0  0  0  0  0
  -20.1308  -14.5329   22.6507 O   0  0  0  0  0  0  0  0  0  0  0  0
  -25.5443  -32.1179   19.3691 O   0  0  0  0  0  0  0  0  0  0  0  0
  -23.6902  -33.2009   22.9019 O   0  0  0  0  0  0  0  0  0  0  0  0
  -26.8355  -30.6178   25.3423 O   0  0  0  0  0  0  0  0  0  0  0  0
  -24.2234  -22.1638   25.8652 O   0  0  0  0  0  0  0  0  0  0  0  0
  -26.9540  -11.3232   20.7196 O   0  0  0  0  0  0  0  0  0  0  0  0
  -28.1508  -26.5877   20.0082 O   0  0  0  0  0  0  0  0  0  1  0  0
  -31.3415  -13.1144   17.9008 F   0  0  0  0  0  0  0  0  0  0  0  0
  -27.2152  -10.7980   18.0180 F   0  0  0  0  0  0  0  0  0  0  0  0
  1  2  1  0  0  0  0
  1  5  2  0  0  0  0
  2  6  2  0  0  0  0
  3  8  2  0  0  0  0
  3 16  1  0  0  0  0
  4  9  1  0  0  0  0
  4 16  2  0  0  0  0
  5 18  1  0  0  0  0
  6 20  1  0  0  0  0
  7 10  2  0  0  0  0
  7 19  1  0  0  0  0
  8 22  1  0  0  0  0
  9 22  2  0  0  0  0
 10 23  1  0  0  0  0
 11 12  2  0  0  0  0
 11 24  1  0  0  0  0
 12 25  1  0  0  0  0
 13 21  1  0  0  0  0
 13 23  2  0  0  0  0
 14 25  2  0  0  0  0
 14 26  1  0  0  0  0
 15 28  2  0  0  0  0
 15 67  1  0  0  0  0
 16 27  1  0  0  0  0
 17 27  1  0  0  0  0
 17 29  2  0  0  0  0
 17 31  1  0  0  0  0
 18 20  2  0  0  0  0
 18 36  1  0  0  0  0
 19 21  2  0  0  0  0
 19 37  1  0  0  0  0
 20 51  1  0  0  0  0
 21 38  1  0  0  0  0
 22 83  1  0  0  0  0
 23 84  1  0  0  0  0
 24 26  2  0  0  0  0
 24 83  1  0  0  0  0
 25 85  1  0  0  0  0
 26 86  1  0  0  0  0
 27 66  2  0  0  0  0
 28 52  1  0  0  0  0
 28 69  1  0  0  0  0
 29 68  1  0  0  0  0
 29 73  1  0  0  0  0
 30 53  1  0  0  0  0
 30 67  1  0  0  0  0
 30 69  2  0  0  0  0
 31 74  1  0  0  0  0
 31 78  2  0  0  0  0
 32 54  1  0  0  0  0
 32 75  1  0  0  0  0
 32 79  2  0  0  0  0
 33 63  1  0  0  0  0
 33 70  1  0  0  0  0
 33 80  2  0  0  0  0
 34 64  1  0  0  0  0
 34 76  1  0  0  0  0
 34 81  2  0  0  0  0
 35 71  1  0  0  0  0
 35 72  1  0  0  0  0
 35 82  2  0  0  0  0
 36 39  1  0  0  0  0
 37 54  1  0  0  0  0
 38 70  1  0  0  0  0
 39 41  1  0  0  0  0
 40 44  1  0  0  0  0
 40 47  1  0  0  0  0
 41 51  1  0  0  0  0
 42 43  1  0  0  0  0
 42 52  1  0  0  0  0
 43 52  1  0  0  0  0
 44 55  1  0  0  0  0
 45 48  1  0  0  0  0
 45 53  1  0  0  0  0
 46 49  1  0  0  0  0
 46 53  1  0  0  0  0
 47 71  1  0  0  0  0
 48 72  1  0  0  0  0
 49 72  1  0  0  0  0
 50 55  1  0  0  0  0
 50 71  1  0  0  0  0
 51 75  1  0  0  0  0
 54 70  1  0  0  0  0
 55 68  1  0  0  0  0
 56 64  1  0  0  0  0
 57 65  1  0  0  0  0
 58 65  1  0  0  0  0
 59 65  1  0  0  0  0
 60 77  1  0  0  0  0
 61 62  1  0  0  0  0
 61 67  1  0  0  0  0
 62 84  1  0  0  0  0
 63 65  1  0  0  0  0
 63 76  1  0  0  0  0
 64 77  1  0  0  0  0
 66 68  1  0  0  0  0
M  CHG  2  69   1  77   1
M  ISO  4  35 100  62 101  72 100  84 101
M  END
> <Batch ID>
0193

> <Smiles>
CNC(C)C(=O)NC(C(=O)N1Cc2cc([101O:1][101CH2:1]Cn3cc(C4CC4)nc3C3CC[100N:0]([100C:0](=O)N4CCCC(n5nc(-c6ccc(Oc7ccc(F)cc7F)cc6)c(C(N)=O)c5N)C4)CC3)ccc2CC1C(=O)NC1CCCc2ccccc21)C(C)(C)C

> <Shape>
0.207

> <Color>
0.096

> <Negative vol penalty>
0.000

$$$$

  -OEChem-04052323323D

 82 90  0     1  0  0  0  0  0999 V2000
  -23.4011   -8.7495   22.2060 C   0  0  0  0  0  0  0  0  0  0  0  0
  -24.6474   -9.3298   21.9931 C   0  0  0  0  0  0  0  0  0  0  0  0
  -19.6083  -28.6235   23.6678 C   0  0  0  0  0  0  0  0  0  0  0  0
  -20.3353  -26.7766   22.2903 C   0  0  0  0  0  0  0  0  0  0  0  0
  -22.2422   -9.4432   21.8602 C   0  0  0  0  0  0  0  0  0  0  0  0
  -24.7356  -10.6038   21.4331 C   0  0  0  0  0  0  0  0  0  0  0  0
  -28.7667  -16.5221   21.6305 C   0  0  0  0  0  0  0  0  0  0  0  0
  -18.2902  -28.4024   23.2687 C   0  0  0  0  0  0  0  0  0  0  0  0
  -19.0172  -26.5554   21.8913 C   0  0  0  0  0  0  0  0  0  0  0  0
  -29.4469  -17.3909   20.7783 C   0  0  0  0  0  0  0  0  0  0  0  0
  -15.7969  -25.2764   20.7902 C   0  0  0  0  0  0  0  0  0  0  0  0
  -15.3344  -23.9605   20.7779 C   0  0  0  0  0  0  0  0  0  0  0  0
  -27.3751  -18.5275   20.2933 C   0  0  0  0  0  0  0  0  0  0  0  0
  -15.7786  -23.7823   23.1461 C   0  0  0  0  0  0  0  0  0  0  0  0
  -20.6309  -27.8107   23.1785 C   0  0  0  0  0  0  0  0  0  0  0  0
  -22.6527  -27.4728   24.6970 C   0  0  0  0  0  0  0  0  0  0  0  0
  -22.3158  -10.7303   21.3046 C   0  0  0  0  0  0  0  0  0  0  0  0
  -27.3815  -16.6428   21.8124 C   0  0  0  0  0  0  0  0  0  0  0  0
  -23.5766  -11.3148   21.0782 C   0  0  0  0  0  0  0  0  0  0  0  0
  -26.6802  -17.6606   21.1503 C   0  0  0  0  0  0  0  0  0  0  0  0
  -17.9946  -27.3683   22.3805 C   0  0  0  0  0  0  0  0  0  0  0  0
  -28.7507  -18.3920   20.1073 C   0  0  0  0  0  0  0  0  0  0  0  0
  -16.2504  -25.8452   21.9804 C   0  0  0  0  0  0  0  0  0  0  0  0
  -15.3252  -23.2135   21.9558 C   0  0  0  0  0  0  0  0  0  0  0  0
  -16.2412  -25.0982   23.1583 C   0  0  0  0  0  0  0  0  0  0  0  0
  -21.9928  -28.0390   23.5899 C   0  0  0  0  0  0  0  0  0  0  0  0
  -23.9184  -28.0042   24.6510 C   0  0  0  0  0  0  0  0  0  0  0  0
  -22.1652  -26.5490   25.6792 C   0  0  0  0  0  0  0  0  0  0  0  0
  -24.8744  -14.7698   21.2556 C   0  0  0  0  0  0  0  0  0  0  0  0
  -23.2614  -17.1341   22.7823 C   0  0  0  0  0  0  0  0  0  0  0  0
  -23.1209  -20.4161   23.7070 C   0  0  0  0  0  0  0  0  0  0  0  0
  -27.2516  -30.2180   20.1968 C   0  0  0  0  0  0  0  0  0  0  0  0
  -21.0371  -11.4219   20.9030 C   0  0  0  0  0  0  0  0  0  0  0  0
  -26.6669  -15.7145   22.7558 C   0  0  0  0  0  0  0  0  0  0  0  0
  -25.1959  -17.8452   21.3271 C   0  0  0  0  0  0  0  0  0  0  0  0
  -21.2049  -12.9197   20.6610 C   0  0  0  0  0  0  0  0  0  0  0  0
  -26.2969  -31.8905   23.1914 C   0  0  0  0  0  0  0  0  0  0  0  0
  -22.4345  -13.1867   19.7987 C   0  0  0  0  0  0  0  0  0  0  0  0
  -25.1451  -31.0420   23.7330 C   0  0  0  0  0  0  0  0  0  0  0  0
  -29.1577  -26.0733   18.1772 C   0  0  0  0  0  0  0  0  0  0  0  0
  -26.2787  -31.9590   21.6660 C   0  0  0  0  0  0  0  0  0  0  0  0
  -25.0958  -29.8013   21.5292 C   0  0  0  0  0  0  0  0  0  0  0  0
  -23.7125  -12.7050   20.4959 C   0  0  1  0  0  0  0  0  0  0  0  0
  -25.1726  -15.6049   22.4686 C   0  0  1  0  0  0  0  0  0  0  0  0
  -25.1049  -29.6565   23.0606 C   0  0  2  0  0  0  0  0  0  0  0  0
  -28.1652  -26.8777   19.0245 C   0  0  2  0  0  0  0  0  0  0  0  0
  -29.7981  -25.6935   19.5250 C   0  0  2  0  0  0  0  0  0  0  0  0
  -31.2378  -26.1523   19.7033 C   0  0  0  0  0  0  0  0  0  0  0  0
  -21.6613  -22.0616   24.9150 C   0  0  0  0  0  0  0  0  0  0  0  0
  -21.4014  -17.2539   20.3665 C   0  0  0  0  0  0  0  0  0  0  0  0
  -20.5971  -19.4795   21.1838 C   0  0  0  0  0  0  0  0  0  0  0  0
  -20.2509  -17.4409   22.5791 C   0  0  0  0  0  0  0  0  0  0  0  0
  -25.2073  -20.9537   25.7360 C   0  0  0  0  0  0  0  0  0  0  0  0
  -28.1110  -28.3713   18.7789 C   0  0  0  0  0  0  0  0  0  0  0  0
  -29.5777  -24.2532   19.9585 C   0  0  0  0  0  0  0  0  0  0  0  0
  -30.5643  -23.3172   19.2788 C   0  0  0  0  0  0  0  0  0  0  0  0
  -31.1413  -20.8974   19.0545 C   0  0  0  0  0  0  0  0  0  0  0  0
  -30.7752  -19.5255   19.5857 C   0  0  0  0  0  0  0  0  0  1  0  0
  -22.5756  -18.4091   22.3546 C   0  0  1  0  0  0  0  0  0  0  0  0
  -22.8118  -21.0749   25.0393 C   0  0  2  0  0  0  0  0  0  0  0  0
  -21.2339  -18.1414   21.6159 C   0  0  0  0  0  0  0  0  0  0  0  0
  -22.7746  -28.8668   22.8916 N   0  0  0  0  0  0  0  0  0  0  0  0
  -23.9387  -28.8248   23.5617 N   0  0  0  0  0  0  0  0  0  0  0  0
  -24.5409  -16.9086   22.2552 N   0  0  0  0  0  0  0  0  0  0  0  0
  -26.2423  -30.6124   21.0905 N   0  0  0  0  0  0  0  0  0  0  0  0
  -25.0047  -27.8451   25.4365 N   0  0  0  0  0  0  0  0  0  0  0  0
  -20.8401  -26.1038   25.5781 N   0  0  0  0  0  0  0  0  0  0  0  0
  -24.1153  -13.6457   21.5193 N   0  0  0  0  0  0  0  0  0  0  0  0
  -22.4434  -19.2246   23.5570 N   0  0  0  0  0  0  0  0  0  0  0  0
  -27.1455  -28.9236   19.7028 N   0  0  0  0  0  0  0  0  0  0  0  0
  -24.0070  -21.8078   25.5444 N   0  3  0  0  0  0  0  0  0  0  0  0
  -30.2787  -21.9190   19.6998 N   0  3  0  0  0  0  0  0  0  0  0  0
  -22.8784  -26.1434   26.6281 O   0  0  0  0  0  0  0  0  0  0  0  0
  -25.3003  -15.1202   20.1613 O   0  0  0  0  0  0  0  0  0  0  0  0
  -22.6860  -16.3698   23.5610 O   0  0  0  0  0  0  0  0  0  0  0  0
  -23.8840  -20.9110   22.8804 O   0  0  0  0  0  0  0  0  0  0  0  0
  -28.1815  -30.9623   19.8678 O   0  0  0  0  0  0  0  0  0  0  0  0
  -28.8961  -26.5787   20.2405 O   0  0  0  0  0  0  0  0  0  0  0  0
  -16.7085  -27.1520   21.9911 O   0  0  0  0  0  0  0  0  0  0  0  0
  -29.4120  -19.2409   19.2743 O   0  0  0  0  0  0  0  0  0  1  0  0
  -14.8796  -21.9503   21.9442 F   0  0  0  0  0  0  0  0  0  0  0  0
  -16.6744  -25.6396   24.3050 F   0  0  0  0  0  0  0  0  0  0  0  0
  1  2  1  0  0  0  0
  1  5  2  0  0  0  0
  2  6  2  0  0  0  0
  3  8  2  0  0  0  0
  3 15  1  0  0  0  0
  4  9  1  0  0  0  0
  4 15  2  0  0  0  0
  5 17  1  0  0  0  0
  6 19  1  0  0  0  0
  7 10  2  0  0  0  0
  7 18  1  0  0  0  0
  8 21  1  0  0  0  0
  9 21  2  0  0  0  0
 10 22  1  0  0  0  0
 11 12  2  0  0  0  0
 11 23  1  0  0  0  0
 12 24  1  0  0  0  0
 13 20  1  0  0  0  0
 13 22  2  0  0  0  0
 14 24  2  0  0  0  0
 14 25  1  0  0  0  0
 15 26  1  0  0  0  0
 16 26  1  0  0  0  0
 16 27  2  0  0  0  0
 16 28  1  0  0  0  0
 17 19  2  0  0  0  0
 17 33  1  0  0  0  0
 18 20  2  0  0  0  0
 18 34  1  0  0  0  0
 19 43  1  0  0  0  0
 20 35  1  0  0  0  0
 21 79  1  0  0  0  0
 22 80  1  0  0  0  0
 23 25  2  0  0  0  0
 23 79  1  0  0  0  0
 24 81  1  0  0  0  0
 25 82  1  0  0  0  0
 26 62  2  0  0  0  0
 27 63  1  0  0  0  0
 27 66  1  0  0  0  0
 28 67  1  0  0  0  0
 28 73  2  0  0  0  0
 29 44  1  0  0  0  0
 29 68  1  0  0  0  0
 29 74  2  0  0  0  0
 30 59  1  0  0  0  0
 30 64  1  0  0  0  0
 30 75  2  0  0  0  0
 31 60  1  0  0  0  0
 31 69  1  0  0  0  0
 31 76  2  0  0  0  0
 32 65  1  0  0  0  0
 32 70  1  0  0  0  0
 32 77  2  0  0  0  0
 33 36  1  0  0  0  0
 34 44  1  0  0  0  0
 35 64  1  0  0  0  0
 36 38  1  0  0  0  0
 37 39  1  0  0  0  0
 37 41  1  0  0  0  0
 38 43  1  0  0  0  0
 39 45  1  0  0  0  0
 40 46  1  0  0  0  0
 40 47  1  0  0  0  0
 41 65  1  0  0  0  0
 42 45  1  0  0  0  0
 42 65  1  0  0  0  0
 43 68  1  0  0  0  0
 44 64  1  0  0  0  0
 45 63  1  0  0  0  0
 46 54  1  0  0  0  0
 46 78  1  0  0  0  0
 47 48  1  0  0  0  0
 47 55  1  0  0  0  0
 47 78  1  0  0  0  0
 49 60  1  0  0  0  0
 50 61  1  0  0  0  0
 51 61  1  0  0  0  0
 52 61  1  0  0  0  0
 53 71  1  0  0  0  0
 54 70  1  0  0  0  0
 55 56  1  0  0  0  0
 56 72  1  0  0  0  0
 57 58  1  0  0  0  0
 57 72  1  0  0  0  0
 58 80  1  0  0  0  0
 59 61  1  0  0  0  0
 59 69  1  0  0  0  0
 60 71  1  0  0  0  0
 62 63  1  0  0  0  0
M  CHG  2  71   1  72   1
M  ISO  4  32 100  58 101  70 100  80 101
M  END
> <Batch ID>
0193

> <Smiles>
CNC(C)C(=O)NC(C(=O)N1Cc2cc([101O:1][101CH2:1]CNCCC3(C)CC(C[100NH:0][100C:0](=O)N4CCCC(n5nc(-c6ccc(Oc7ccc(F)cc7F)cc6)c(C(N)=O)c5N)C4)O3)ccc2CC1C(=O)NC1CCCc2ccccc21)C(C)(C)C

> <Shape>
0.238

> <Color>
0.071

> <Negative vol penalty>
0.000

$$$$

  -OEChem-04052323323D

 85 94  0     1  0  0  0  0  0999 V2000
  -29.0015  -37.4665   21.0738 C   0  0  0  0  0  0  0  0  0  0  0  0
  -29.2949  -36.1480   20.7407 C   0  0  0  0  0  0  0  0  0  0  0  0
  -24.9698   -8.3042   21.5933 C   0  0  0  0  0  0  0  0  0  0  0  0
  -23.4903   -9.2868   19.9554 C   0  0  0  0  0  0  0  0  0  0  0  0
  -28.0707  -37.7407   22.0750 C   0  0  0  0  0  0  0  0  0  0  0  0
  -28.6584  -35.1029   21.4093 C   0  0  0  0  0  0  0  0  0  0  0  0
  -26.9920  -29.7001   19.0558 C   0  0  0  0  0  0  0  0  0  0  0  0
  -23.8673   -7.8850   22.3378 C   0  0  0  0  0  0  0  0  0  0  0  0
  -22.3877   -8.8676   20.6999 C   0  0  0  0  0  0  0  0  0  0  0  0
  -27.5878  -28.4400   19.0860 C   0  0  0  0  0  0  0  0  0  0  0  0
  -21.5940   -5.3843   22.2301 C   0  0  0  0  0  0  0  0  0  0  0  0
  -21.6038   -4.0802   22.7248 C   0  0  0  0  0  0  0  0  0  0  0  0
  -26.2076  -27.8393   20.9710 C   0  0  0  0  0  0  0  0  0  0  0  0
  -21.4466   -4.9343   24.9794 C   0  0  0  0  0  0  0  0  0  0  0  0
  -24.7814   -9.0051   20.4021 C   0  0  0  0  0  0  0  0  0  0  0  0
  -26.5771   -8.7268   18.6117 C   0  0  0  0  0  0  0  0  0  0  0  0
  -27.4154  -36.6985   22.7496 C   0  0  0  0  0  0  0  0  0  0  0  0
  -26.0056  -30.0437   19.9915 C   0  0  0  0  0  0  0  0  0  0  0  0
  -27.7190  -35.3634   22.4214 C   0  0  0  0  0  0  0  0  0  0  0  0
  -25.5991  -29.1035   20.9490 C   0  0  0  0  0  0  0  0  0  0  0  0
  -28.4033  -23.5416   19.1462 C   0  0  0  0  0  0  0  0  0  0  0  0
  -22.5762   -8.1667   21.8911 C   0  0  0  0  0  0  0  0  0  0  0  0
  -27.1977  -27.5104   20.0455 C   0  0  0  0  0  0  0  0  0  0  0  0
  -21.5106   -6.4635   23.1100 C   0  0  0  0  0  0  0  0  0  0  0  0
  -21.5300   -3.8552   24.0995 C   0  0  0  0  0  0  0  0  0  0  0  0
  -21.4368   -6.2385   24.4846 C   0  0  0  0  0  0  0  0  0  0  0  0
  -25.9199   -9.4389   19.6329 C   0  0  0  0  0  0  0  0  0  0  0  0
  -28.9643  -22.2923   19.3158 C   0  0  0  0  0  0  0  0  0  0  0  0
  -29.2725  -24.6072   19.2622 C   0  0  0  0  0  0  0  0  0  0  0  0
  -27.5853   -9.5651   18.2027 C   0  0  0  0  0  0  0  0  0  0  0  0
  -31.0159  -23.2059   19.6675 C   0  0  0  0  0  0  0  0  0  0  0  0
  -26.3009   -7.4241   18.0803 C   0  0  0  0  0  0  0  0  0  0  0  0
  -25.7454  -32.2433   22.2713 C   0  0  0  0  0  0  0  0  0  0  0  0
  -22.7211  -31.0919   22.4956 C   0  0  0  0  0  0  0  0  0  0  0  0
  -20.5633  -28.4979   21.9843 C   0  0  0  0  0  0  0  0  0  0  0  0
  -28.0344  -15.4676   18.4392 C   0  0  0  0  0  0  0  0  0  0  0  0
  -26.4518  -37.0436   23.8573 C   0  0  0  0  0  0  0  0  0  0  0  0
  -25.3537  -31.3978   19.9287 C   0  0  0  0  0  0  0  0  0  0  0  0
  -24.5301  -29.4158   21.9630 C   0  0  0  0  0  0  0  0  0  0  0  0
  -25.5449  -35.8833   24.2592 C   0  0  0  0  0  0  0  0  0  0  0  0
  -30.4439  -13.0430   19.7566 C   0  0  0  0  0  0  0  0  0  0  0  0
  -26.3576  -34.6032   24.4250 C   0  0  0  0  0  0  0  0  0  0  0  0
  -29.5832  -11.7862   19.8313 C   0  0  0  0  0  0  0  0  0  0  0  0
  -29.6444  -14.3136   20.0480 C   0  0  0  0  0  0  0  0  0  0  0  0
  -27.5679  -13.1941   19.2830 C   0  0  0  0  0  0  0  0  0  0  0  0
  -28.0903  -18.0094   18.1952 C   0  0  0  0  0  0  0  0  0  0  0  0
  -28.7809  -17.3511   20.0987 C   0  0  0  0  0  0  0  0  0  0  0  0
  -27.0312  -34.2028   23.1068 C   0  0  1  0  0  0  0  0  0  0  0  0
  -24.7249  -31.8201   21.2529 C   0  0  1  0  0  0  0  0  0  0  0  0
  -28.3509  -11.9231   18.9248 C   0  0  2  0  0  0  0  0  0  0  0  0
  -28.0252  -18.5947   19.6105 C   0  0  0  0  0  0  0  0  0  0  0  0
  -26.9562  -23.7271   18.8556 C   0  0  0  0  0  0  0  0  0  0  0  0
  -32.4672  -23.0194   19.9542 C   0  0  0  0  0  0  0  0  0  0  0  0
  -18.1624  -27.8407   22.3025 C   0  0  0  0  0  0  0  0  0  0  0  0
  -23.2287  -30.6908   25.4775 C   0  0  0  0  0  0  0  0  0  0  0  0
  -21.2215  -29.1959   25.5470 C   0  0  0  0  0  0  0  0  0  0  0  0
  -20.9657  -31.5960   24.9169 C   0  0  0  0  0  0  0  0  0  0  0  0
  -20.1622  -28.1140   19.0773 C   0  0  0  0  0  0  0  0  0  0  0  0
  -28.1169  -21.0586   19.2119 C   0  0  0  0  0  0  0  0  0  0  0  0
  -28.7794  -26.0073   19.0996 C   0  0  0  0  0  0  0  0  0  1  0  0
  -22.0505  -29.9956   23.2878 C   0  0  1  0  0  0  0  0  0  0  0  0
  -19.1843  -28.4444   21.3518 C   0  0  2  0  0  0  0  0  0  0  0  0
  -21.8881  -30.3640   24.7896 C   0  0  0  0  0  0  0  0  0  0  0  0
  -26.4648  -10.6372   19.8588 N   0  0  0  0  0  0  0  0  0  0  0  0
  -30.2717  -22.0871   19.5784 N   0  0  0  0  0  0  0  0  0  0  0  0
  -30.5896  -24.4752   19.5233 N   0  0  0  0  0  0  0  0  0  0  0  0
  -27.4752  -10.6846   18.9739 N   0  0  0  0  0  0  0  0  0  0  0  0
  -23.9272  -30.7554   21.8648 N   0  0  0  0  0  0  0  0  0  0  0  0
  -28.4210  -14.3876   19.2403 N   0  0  0  0  0  0  0  0  0  0  0  0
  -28.3990  -16.7334   18.8362 N   0  0  0  0  0  0  0  0  0  0  0  0
  -28.5464   -9.4464   17.2622 N   0  0  0  0  0  0  0  0  0  0  0  0
  -25.2279   -6.6981   18.6151 N   0  0  0  0  0  0  0  0  0  0  0  0
  -26.0721  -33.5848   22.2165 N   0  0  0  0  0  0  0  0  0  0  0  0
  -20.7944  -29.7078   22.6039 N   0  0  0  0  0  0  0  0  0  0  0  0
  -28.7852  -19.8406   19.7639 N   0  3  0  0  0  0  0  0  0  0  0  0
  -19.2154  -27.6205   20.1103 N   0  3  0  0  0  0  0  0  0  0  0  0
  -26.9954   -6.9121   17.1698 O   0  0  0  0  0  0  0  0  0  0  0  0
  -26.2015  -31.4144   23.0502 O   0  0  0  0  0  0  0  0  0  0  0  0
  -22.1906  -32.2038   22.4328 O   0  0  0  0  0  0  0  0  0  0  0  0
  -21.3547  -27.5588   21.9368 O   0  0  0  0  0  0  0  0  0  0  0  0
  -27.3563  -15.3119   17.4151 O   0  0  0  0  0  0  0  0  0  0  0  0
  -21.5001   -7.7576   22.6172 O   0  0  0  0  0  0  0  0  0  0  0  0
  -27.7822  -26.2712   20.0778 O   0  0  0  0  0  0  0  0  0  1  0  0
  -21.5379   -2.6028   24.5743 F   0  0  0  0  0  0  0  0  0  0  0  0
  -21.3553   -7.2712   25.3347 F   0  0  0  0  0  0  0  0  0  0  0  0
  1  2  1  0  0  0  0
  1  5  2  0  0  0  0
  2  6  2  0  0  0  0
  3  8  2  0  0  0  0
  3 15  1  0  0  0  0
  4  9  1  0  0  0  0
  4 15  2  0  0  0  0
  5 17  1  0  0  0  0
  6 19  1  0  0  0  0
  7 10  2  0  0  0  0
  7 18  1  0  0  0  0
  8 22  1  0  0  0  0
  9 22  2  0  0  0  0
 10 23  1  0  0  0  0
 11 12  2  0  0  0  0
 11 24  1  0  0  0  0
 12 25  1  0  0  0  0
 13 20  1  0  0  0  0
 13 23  2  0  0  0  0
 14 25  2  0  0  0  0
 14 26  1  0  0  0  0
 15 27  1  0  0  0  0
 16 27  1  0  0  0  0
 16 30  2  0  0  0  0
 16 32  1  0  0  0  0
 17 19  2  0  0  0  0
 17 37  1  0  0  0  0
 18 20  2  0  0  0  0
 18 38  1  0  0  0  0
 19 48  1  0  0  0  0
 20 39  1  0  0  0  0
 21 28  1  0  0  0  0
 21 29  2  0  0  0  0
 21 52  1  0  0  0  0
 22 82  1  0  0  0  0
 23 83  1  0  0  0  0
 24 26  2  0  0  0  0
 24 82  1  0  0  0  0
 25 84  1  0  0  0  0
 26 85  1  0  0  0  0
 27 64  2  0  0  0  0
 28 59  1  0  0  0  0
 28 65  2  0  0  0  0
 29 60  1  0  0  0  0
 29 66  1  0  0  0  0
 30 67  1  0  0  0  0
 30 71  1  0  0  0  0
 31 53  1  0  0  0  0
 31 65  1  0  0  0  0
 31 66  2  0  0  0  0
 32 72  1  0  0  0  0
 32 77  2  0  0  0  0
 33 49  1  0  0  0  0
 33 73  1  0  0  0  0
 33 78  2  0  0  0  0
 34 61  1  0  0  0  0
 34 68  1  0  0  0  0
 34 79  2  0  0  0  0
 35 62  1  0  0  0  0
 35 74  1  0  0  0  0
 35 80  2  0  0  0  0
 36 69  1  0  0  0  0
 36 70  1  0  0  0  0
 36 81  2  0  0  0  0
 37 40  1  0  0  0  0
 38 49  1  0  0  0  0
 39 68  1  0  0  0  0
 40 42  1  0  0  0  0
 41 43  1  0  0  0  0
 41 44  1  0  0  0  0
 42 48  1  0  0  0  0
 43 50  1  0  0  0  0
 44 69  1  0  0  0  0
 45 50  1  0  0  0  0
 45 69  1  0  0  0  0
 46 51  1  0  0  0  0
 46 70  1  0  0  0  0
 47 51  1  0  0  0  0
 47 70  1  0  0  0  0
 48 73  1  0  0  0  0
 49 68  1  0  0  0  0
 50 67  1  0  0  0  0
 51 75  1  0  0  0  0
 54 62  1  0  0  0  0
 55 63  1  0  0  0  0
 56 63  1  0  0  0  0
 57 63  1  0  0  0  0
 58 76  1  0  0  0  0
 59 75  1  0  0  0  0
 60 83  1  0  0  0  0
 61 63  1  0  0  0  0
 61 74  1  0  0  0  0
 62 76  1  0  0  0  0
 64 67  1  0  0  0  0
M  CHG  2  75   1  76   1
M  ISO  4  36 100  60 101  70 100  83 101
M  END
> <Batch ID>
0193

> <Smiles>
CNC(C)C(=O)NC(C(=O)N1Cc2cc([101O:1][101CH2:1]c3nc(C)nc(CNC4C[100N:0]([100C:0](=O)N5CCCC(n6nc(-c7ccc(Oc8ccc(F)cc8F)cc7)c(C(N)=O)c6N)C5)C4)c3C)ccc2CC1C(=O)NC1CCCc2ccccc21)C(C)(C)C

> <Shape>
0.334

> <Color>
0.110

> <Negative vol penalty>
0.000

$$$$

  -OEChem-04052323323D

 83 92  0     1  0  0  0  0  0999 V2000
  -28.4276  -35.9179   20.7624 C   0  0  0  0  0  0  0  0  0  0  0  0
  -28.6229  -34.5430   20.8455 C   0  0  0  0  0  0  0  0  0  0  0  0
  -26.1281  -13.7790   20.9621 C   0  0  0  0  0  0  0  0  0  0  0  0
  -25.4229  -12.1601   19.3132 C   0  0  0  0  0  0  0  0  0  0  0  0
  -27.3548  -36.5099   21.4277 C   0  0  0  0  0  0  0  0  0  0  0  0
  -27.7462  -33.7594   21.5950 C   0  0  0  0  0  0  0  0  0  0  0  0
  -26.3778  -29.5237   19.1802 C   0  0  0  0  0  0  0  0  0  0  0  0
  -25.0418  -13.4335   21.7660 C   0  0  0  0  0  0  0  0  0  0  0  0
  -24.3366  -11.8145   20.1171 C   0  0  0  0  0  0  0  0  0  0  0  0
  -27.2945  -28.4734   19.1678 C   0  0  0  0  0  0  0  0  0  0  0  0
  -23.7729   -9.9278   22.8635 C   0  0  0  0  0  0  0  0  0  0  0  0
  -23.5001   -8.5705   23.0333 C   0  0  0  0  0  0  0  0  0  0  0  0
  -26.0834  -27.4032   20.9587 C   0  0  0  0  0  0  0  0  0  0  0  0
  -21.3083   -8.8904   22.0684 C   0  0  0  0  0  0  0  0  0  0  0  0
  -26.3187  -13.1423   19.7357 C   0  0  0  0  0  0  0  0  0  0  0  0
  -28.7255  -12.9248   18.9187 C   0  0  0  0  0  0  0  0  0  0  0  0
  -26.4589  -35.7319   22.1778 C   0  0  0  0  0  0  0  0  0  0  0  0
  -25.3114  -29.5270   20.0908 C   0  0  0  0  0  0  0  0  0  0  0  0
  -26.6612  -34.3418   22.2721 C   0  0  0  0  0  0  0  0  0  0  0  0
  -25.1531  -28.4535   20.9788 C   0  0  0  0  0  0  0  0  0  0  0  0
  -24.1461  -12.4513   21.3435 C   0  0  0  0  0  0  0  0  0  0  0  0
  -27.1491  -27.4143   20.0591 C   0  0  0  0  0  0  0  0  0  0  0  0
  -22.8134  -10.7665   22.2963 C   0  0  0  0  0  0  0  0  0  0  0  0
  -22.2678   -8.0518   22.6357 C   0  0  0  0  0  0  0  0  0  0  0  0
  -21.5811  -10.2478   21.8987 C   0  0  0  0  0  0  0  0  0  0  0  0
  -27.4403  -13.4992   18.9046 C   0  0  0  0  0  0  0  0  0  0  0  0
  -29.4179  -13.6090   17.9496 C   0  0  0  0  0  0  0  0  0  0  0  0
  -29.9444  -25.2670   19.1515 C   0  0  0  0  0  0  0  0  0  0  0  0
  -30.4999  -23.2566   19.0710 C   0  0  0  0  0  0  0  0  0  0  0  0
  -29.2467  -11.8674   19.7346 C   0  0  0  0  0  0  0  0  0  0  0  0
  -24.4011  -31.4255   22.4722 C   0  0  0  0  0  0  0  0  0  0  0  0
  -21.8023  -29.4845   22.5079 C   0  0  0  0  0  0  0  0  0  0  0  0
  -20.4501  -26.4395   21.7688 C   0  0  0  0  0  0  0  0  0  0  0  0
  -28.4042  -19.1494   15.6511 C   0  0  0  0  0  0  0  0  0  0  0  0
  -25.3414  -36.4229   22.9183 C   0  0  0  0  0  0  0  0  0  0  0  0
  -24.3158  -30.6544   20.0734 C   0  0  0  0  0  0  0  0  0  0  0  0
  -24.0138  -28.3995   21.9626 C   0  0  0  0  0  0  0  0  0  0  0  0
  -24.2412  -35.4731   23.3849 C   0  0  0  0  0  0  0  0  0  0  0  0
  -28.7716  -15.9775   13.8409 C   0  0  0  0  0  0  0  0  0  0  0  0
  -24.8466  -34.2381   24.0447 C   0  0  0  0  0  0  0  0  0  0  0  0
  -28.5356  -14.9343   14.9341 C   0  0  0  0  0  0  0  0  0  0  0  0
  -29.8552  -19.5461   19.0057 C   0  0  0  0  0  0  0  0  0  0  0  0
  -27.9997  -17.2680   14.1060 C   0  0  0  0  0  0  0  0  0  0  0  0
  -28.8593  -18.7749   18.1458 C   0  0  0  0  0  0  0  0  0  0  0  0
  -27.9892  -16.8109   16.5276 C   0  0  0  0  0  0  0  0  0  0  0  0
  -29.2865  -20.9166   17.1477 C   0  0  0  0  0  0  0  0  0  0  0  0
  -25.7175  -33.4549   23.0549 C   0  0  1  0  0  0  0  0  0  0  0  0
  -23.5617  -30.8060   21.3909 C   0  0  1  0  0  0  0  0  0  0  0  0
  -28.8028  -15.5242   16.3315 C   0  0  1  0  0  0  0  0  0  0  0  0
  -29.5388  -20.9936   18.6459 C   0  0  2  0  0  0  0  0  0  0  0  0
  -18.3132  -25.1364   21.9508 C   0  0  0  0  0  0  0  0  0  0  0  0
  -22.3237  -29.0496   25.4827 C   0  0  0  0  0  0  0  0  0  0  0  0
  -20.8008  -27.0646   25.3882 C   0  0  0  0  0  0  0  0  0  0  0  0
  -19.9146  -29.3397   24.8773 C   0  0  0  0  0  0  0  0  0  0  0  0
  -32.9385  -23.6162   19.6304 C   0  0  0  0  0  0  0  0  0  0  0  0
  -20.2440  -26.1447   18.8312 C   0  0  0  0  0  0  0  0  0  0  0  0
  -29.1063  -26.4703   19.0926 C   0  0  0  0  0  0  0  0  0  1  0  0
  -21.4371  -28.1998   23.2116 C   0  0  1  0  0  0  0  0  0  0  0  0
  -19.1551  -26.0535   21.0772 C   0  0  2  0  0  0  0  0  0  0  0  0
  -21.1417  -28.4151   24.7228 C   0  0  0  0  0  0  0  0  0  0  0  0
  -27.3207  -14.4733   17.9987 N   0  0  0  0  0  0  0  0  0  0  0  0
  -29.4420  -24.0188   18.9189 N   0  0  0  0  0  0  0  0  0  0  0  0
  -31.2467  -25.3251   19.4379 N   0  0  0  0  0  0  0  0  0  0  0  0
  -28.5397  -14.5164   17.4344 N   0  0  0  0  0  0  0  0  0  0  0  0
  -31.5779  -24.0262   19.3799 N   0  0  0  0  0  0  0  0  0  0  0  0
  -23.0702  -29.5284   21.9110 N   0  0  0  0  0  0  0  0  0  0  0  0
  -28.2659  -17.7711   15.4538 N   0  0  0  0  0  0  0  0  0  0  0  0
  -28.7098  -19.5907   16.9379 N   0  0  0  0  0  0  0  0  0  0  0  0
  -30.6862  -13.5169   17.4966 N   0  0  0  0  0  0  0  0  0  0  0  0
  -28.3998  -11.2739   20.6806 N   0  0  0  0  0  0  0  0  0  0  0  0
  -30.6284  -21.8784   18.9639 N   0  0  0  0  0  0  0  0  0  0  0  0
  -24.8891  -32.6792   22.1568 N   0  0  0  0  0  0  0  0  0  0  0  0
  -20.3256  -27.6252   22.4614 N   0  0  0  0  0  0  0  0  0  0  0  0
  -19.4422  -25.3488   19.7959 N   0  3  0  0  0  0  0  0  0  0  0  0
  -30.4334  -11.4719   19.6393 O   0  0  0  0  0  0  0  0  0  0  0  0
  -24.5907  -30.8121   23.5160 O   0  0  0  0  0  0  0  0  0  0  0  0
  -20.9897  -30.4122   22.4825 O   0  0  0  0  0  0  0  0  0  0  0  0
  -21.4692  -25.7554   21.7043 O   0  0  0  0  0  0  0  0  0  0  0  0
  -28.3058  -19.9478   14.7098 O   0  0  0  0  0  0  0  0  0  0  0  0
  -23.0861  -12.1137   22.1277 O   0  0  0  0  0  0  0  0  0  0  0  0
  -28.0466  -26.3838   20.0495 O   0  0  0  0  0  0  0  0  0  1  0  0
  -22.0065   -6.7480   22.7974 F   0  0  0  0  0  0  0  0  0  0  0  0
  -20.6559  -11.0483   21.3520 F   0  0  0  0  0  0  0  0  0  0  0  0
  1  2  1  0  0  0  0
  1  5  2  0  0  0  0
  2  6  2  0  0  0  0
  3  8  2  0  0  0  0
  3 15  1  0  0  0  0
  4  9  1  0  0  0  0
  4 15  2  0  0  0  0
  5 17  1  0  0  0  0
  6 19  1  0  0  0  0
  7 10  2  0  0  0  0
  7 18  1  0  0  0  0
  8 21  1  0  0  0  0
  9 21  2  0  0  0  0
 10 22  1  0  0  0  0
 11 12  2  0  0  0  0
 11 23  1  0  0  0  0
 12 24  1  0  0  0  0
 13 20  1  0  0  0  0
 13 22  2  0  0  0  0
 14 24  2  0  0  0  0
 14 25  1  0  0  0  0
 15 26  1  0  0  0  0
 16 26  1  0  0  0  0
 16 27  2  0  0  0  0
 16 30  1  0  0  0  0
 17 19  2  0  0  0  0
 17 35  1  0  0  0  0
 18 20  2  0  0  0  0
 18 36  1  0  0  0  0
 19 47  1  0  0  0  0
 20 37  1  0  0  0  0
 21 80  1  0  0  0  0
 22 81  1  0  0  0  0
 23 25  2  0  0  0  0
 23 80  1  0  0  0  0
 24 82  1  0  0  0  0
 25 83  1  0  0  0  0
 26 61  2  0  0  0  0
 27 64  1  0  0  0  0
 27 69  1  0  0  0  0
 28 57  1  0  0  0  0
 28 62  1  0  0  0  0
 28 63  2  0  0  0  0
 29 62  2  0  0  0  0
 29 65  1  0  0  0  0
 29 71  1  0  0  0  0
 30 70  1  0  0  0  0
 30 75  2  0  0  0  0
 31 48  1  0  0  0  0
 31 72  1  0  0  0  0
 31 76  2  0  0  0  0
 32 58  1  0  0  0  0
 32 66  1  0  0  0  0
 32 77  2  0  0  0  0
 33 59  1  0  0  0  0
 33 73  1  0  0  0  0
 33 78  2  0  0  0  0
 34 67  1  0  0  0  0
 34 68  1  0  0  0  0
 34 79  2  0  0  0  0
 35 38  1  0  0  0  0
 36 48  1  0  0  0  0
 37 66  1  0  0  0  0
 38 40  1  0  0  0  0
 39 41  1  0  0  0  0
 39 43  1  0  0  0  0
 40 47  1  0  0  0  0
 41 49  1  0  0  0  0
 42 44  1  0  0  0  0
 42 50  1  0  0  0  0
 43 67  1  0  0  0  0
 44 68  1  0  0  0  0
 45 49  1  0  0  0  0
 45 67  1  0  0  0  0
 46 50  1  0  0  0  0
 46 68  1  0  0  0  0
 47 72  1  0  0  0  0
 48 66  1  0  0  0  0
 49 64  1  0  0  0  0
 50 71  1  0  0  0  0
 51 59  1  0  0  0  0
 52 60  1  0  0  0  0
 53 60  1  0  0  0  0
 54 60  1  0  0  0  0
 55 65  1  0  0  0  0
 56 74  1  0  0  0  0
 57 81  1  0  0  0  0
 58 60  1  0  0  0  0
 58 73  1  0  0  0  0
 59 74  1  0  0  0  0
 61 64  1  0  0  0  0
 63 65  1  0  0  0  0
M  CHG  1  74   1
M  ISO  4  34 100  57 101  68 100  81 101
M  END
> <Batch ID>
0193

> <Smiles>
CNC(C)C(=O)NC(C(=O)N1Cc2cc([101O:1][101CH2:1]c3nc(NC4CC[100N:0]([100C:0](=O)N5CCCC(n6nc(-c7ccc(Oc8ccc(F)cc8F)cc7)c(C(N)=O)c6N)C5)C4)n(C)n3)ccc2CC1C(=O)NC1CCCc2ccccc21)C(C)(C)C

> <Shape>
0.312

> <Color>
0.087

> <Negative vol penalty>
0.000

$$$$

  -OEChem-04052323323D

 84 93  0     1  0  0  0  0  0999 V2000
  -19.5368  -26.1274   25.3278 C   0  0  0  0  0  0  0  0  0  0  0  0
  -20.5056  -25.8396   24.3718 C   0  0  0  0  0  0  0  0  0  0  0  0
  -24.6418   -9.2200   22.0568 C   0  0  0  0  0  0  0  0  0  0  0  0
  -23.7309   -9.4435   19.8303 C   0  0  0  0  0  0  0  0  0  0  0  0
  -18.7627  -27.2809   25.2087 C   0  0  0  0  0  0  0  0  0  0  0  0
  -20.7002  -26.7046   23.2956 C   0  0  0  0  0  0  0  0  0  0  0  0
  -25.6003  -27.6050   22.3882 C   0  0  0  0  0  0  0  0  0  0  0  0
  -23.4616   -8.6075   22.4782 C   0  0  0  0  0  0  0  0  0  0  0  0
  -22.5507   -8.8309   20.2517 C   0  0  0  0  0  0  0  0  0  0  0  0
  -26.3151  -26.6163   21.7135 C   0  0  0  0  0  0  0  0  0  0  0  0
  -22.0298   -5.5514   22.2711 C   0  0  0  0  0  0  0  0  0  0  0  0
  -22.1396   -4.4043   23.0571 C   0  0  0  0  0  0  0  0  0  0  0  0
  -26.0868  -27.8612   19.6599 C   0  0  0  0  0  0  0  0  0  0  0  0
  -20.9362   -5.5088   24.8372 C   0  0  0  0  0  0  0  0  0  0  0  0
  -24.7764   -9.6381   20.7329 C   0  0  0  0  0  0  0  0  0  0  0  0
  -27.1373   -9.6425   19.7665 C   0  0  0  0  0  0  0  0  0  0  0  0
  -18.9545  -28.1655   24.1357 C   0  0  0  0  0  0  0  0  0  0  0  0
  -25.1132  -28.7258   21.7005 C   0  0  0  0  0  0  0  0  0  0  0  0
  -19.9271  -27.8703   23.1613 C   0  0  0  0  0  0  0  0  0  0  0  0
  -25.3684  -28.8640   20.3287 C   0  0  0  0  0  0  0  0  0  0  0  0
  -22.4161   -8.4129   21.5756 C   0  0  0  0  0  0  0  0  0  0  0  0
  -26.5560  -26.7429   20.3485 C   0  0  0  0  0  0  0  0  0  0  0  0
  -21.3733   -6.6773   22.7682 C   0  0  0  0  0  0  0  0  0  0  0  0
  -21.5928   -4.3830   24.3401 C   0  0  0  0  0  0  0  0  0  0  0  0
  -20.8265   -6.6559   24.0513 C   0  0  0  0  0  0  0  0  0  0  0  0
  -25.9951  -10.2714   20.2971 C   0  0  0  0  0  0  0  0  0  0  0  0
  -28.0095  -10.6725   19.5122 C   0  0  0  0  0  0  0  0  0  0  0  0
  -30.2227  -23.3477   18.2192 C   0  0  0  0  0  0  0  0  0  0  0  0
  -28.4825  -23.7365   19.5820 C   0  0  0  0  0  0  0  0  0  0  0  0
  -28.7625  -21.7044   18.6715 C   0  0  0  0  0  0  0  0  0  0  0  0
  -27.3875   -8.2515   19.5251 C   0  0  0  0  0  0  0  0  0  0  0  0
  -22.2259  -29.9232   21.1231 C   0  0  0  0  0  0  0  0  0  0  0  0
  -23.9249  -32.3725   19.8438 C   0  0  0  0  0  0  0  0  0  0  0  0
  -26.8396  -33.4514   18.4341 C   0  0  0  0  0  0  0  0  0  0  0  0
  -27.3422  -16.2775   18.2606 C   0  0  0  0  0  0  0  0  0  0  0  0
  -18.0613  -29.3756   24.0239 C   0  0  0  0  0  0  0  0  0  0  0  0
  -24.3670  -29.7966   22.4482 C   0  0  0  0  0  0  0  0  0  0  0  0
  -24.8845  -30.0579   19.5484 C   0  0  0  0  0  0  0  0  0  0  0  0
  -18.5861  -30.4326   23.0556 C   0  0  0  0  0  0  0  0  0  0  0  0
  -29.1698  -15.0618   21.0031 C   0  0  0  0  0  0  0  0  0  0  0  0
  -19.0370  -29.7843   21.7505 C   0  0  0  0  0  0  0  0  0  0  0  0
  -28.6706  -13.6196   21.0855 C   0  0  0  0  0  0  0  0  0  0  0  0
  -28.0395  -16.0421   20.6852 C   0  0  0  0  0  0  0  0  0  0  0  0
  -29.1104  -19.4786   17.6454 C   0  0  0  0  0  0  0  0  0  0  0  0
  -27.5926  -19.7597   19.6110 C   0  0  0  0  0  0  0  0  0  0  0  0
  -28.2629  -18.2963   17.1833 C   0  0  0  0  0  0  0  0  0  0  0  0
  -26.7656  -18.5818   19.1077 C   0  0  0  0  0  0  0  0  0  0  0  0
  -26.7630  -14.2482   19.5580 C   0  0  0  0  0  0  0  0  0  0  0  0
  -20.1849  -28.7968   21.9929 C   0  0  1  0  0  0  0  0  0  0  0  0
  -23.4746  -30.6438   21.5463 C   0  0  1  0  0  0  0  0  0  0  0  0
  -27.8868  -13.2332   19.8187 C   0  0  2  0  0  0  0  0  0  0  0  0
  -31.4498  -23.8287   17.5230 C   0  0  0  0  0  0  0  0  0  0  0  0
  -27.9162  -35.4964   17.4562 C   0  0  0  0  0  0  0  0  0  0  0  0
  -22.2831  -32.0158   17.2967 C   0  0  0  0  0  0  0  0  0  0  0  0
  -23.9953  -33.3826   16.0849 C   0  0  0  0  0  0  0  0  0  0  0  0
  -22.6877  -34.3950   17.9525 C   0  0  0  0  0  0  0  0  0  0  0  0
  -28.9795  -33.4443   20.4786 C   0  0  0  0  0  0  0  0  0  0  0  0
  -27.7078  -24.6648   20.4538 C   0  0  0  0  0  0  0  0  0  1  0  0
  -24.4791  -32.6894   18.4758 C   0  0  1  0  0  0  0  0  0  0  0  0
  -27.7039  -34.6676   18.7136 C   0  0  2  0  0  0  0  0  0  0  0  0
  -23.3689  -33.0972   17.4665 C   0  0  0  0  0  0  0  0  0  0  0  0
  -26.1268  -11.5982   20.3759 N   0  0  0  0  0  0  0  0  0  0  0  0
  -29.5763  -24.2394   18.9876 N   0  0  0  0  0  0  0  0  0  0  0  0
  -29.8758  -22.0667   18.0141 N   0  0  0  0  0  0  0  0  0  0  0  0
  -28.0153  -22.4826   19.4710 N   0  0  0  0  0  0  0  0  0  0  0  0
  -27.3621  -11.8114   19.8915 N   0  0  0  0  0  0  0  0  0  0  0  0
  -28.3372  -20.3800   18.5065 N   0  0  0  0  0  0  0  0  0  0  0  0
  -24.1541  -31.0749   20.3229 N   0  0  0  0  0  0  0  0  0  0  0  0
  -27.2959  -15.6107   19.4940 N   0  0  0  0  0  0  0  0  0  0  0  0
  -27.5665  -17.6627   18.2964 N   0  0  0  0  0  0  0  0  0  0  0  0
  -29.2595  -10.7061   19.0034 N   0  0  0  0  0  0  0  0  0  0  0  0
  -26.3836   -7.3269   19.8438 N   0  0  0  0  0  0  0  0  0  0  0  0
  -21.4325  -29.5071   22.1753 N   0  0  0  0  0  0  0  0  0  0  0  0
  -25.5063  -33.7056   18.6769 N   0  0  0  0  0  0  0  0  0  0  0  0
  -29.0372  -34.2479   19.2304 N   0  3  0  0  0  0  0  0  0  0  0  0
  -28.4755   -7.8392   19.0563 O   0  0  0  0  0  0  0  0  0  0  0  0
  -21.9982  -29.7583   19.9304 O   0  0  0  0  0  0  0  0  0  0  0  0
  -23.3173  -33.2463   20.4674 O   0  0  0  0  0  0  0  0  0  0  0  0
  -27.3006  -32.3837   18.0364 O   0  0  0  0  0  0  0  0  0  0  0  0
  -27.1956  -15.6735   17.1908 O   0  0  0  0  0  0  0  0  0  0  0  0
  -21.2644   -7.8150   21.9864 O   0  0  0  0  0  0  0  0  0  0  0  0
  -27.2575  -25.7724   19.6829 O   0  0  0  0  0  0  0  0  0  1  0  0
  -21.6970   -3.2809   25.0941 F   0  0  0  0  0  0  0  0  0  0  0  0
  -20.1935   -7.7341   24.5338 F   0  0  0  0  0  0  0  0  0  0  0  0
  1  2  1  0  0  0  0
  1  5  2  0  0  0  0
  2  6  2  0  0  0  0
  3  8  2  0  0  0  0
  3 15  1  0  0  0  0
  4  9  1  0  0  0  0
  4 15  2  0  0  0  0
  5 17  1  0  0  0  0
  6 19  1  0  0  0  0
  7 10  2  0  0  0  0
  7 18  1  0  0  0  0
  8 21  1  0  0  0  0
  9 21  2  0  0  0  0
 10 22  1  0  0  0  0
 11 12  2  0  0  0  0
 11 23  1  0  0  0  0
 12 24  1  0  0  0  0
 13 20  1  0  0  0  0
 13 22  2  0  0  0  0
 14 24  2  0  0  0  0
 14 25  1  0  0  0  0
 15 26  1  0  0  0  0
 16 26  1  0  0  0  0
 16 27  2  0  0  0  0
 16 31  1  0  0  0  0
 17 19  2  0  0  0  0
 17 36  1  0  0  0  0
 18 20  2  0  0  0  0
 18 37  1  0  0  0  0
 19 49  1  0  0  0  0
 20 38  1  0  0  0  0
 21 81  1  0  0  0  0
 22 82  1  0  0  0  0
 23 25  2  0  0  0  0
 23 81  1  0  0  0  0
 24 83  1  0  0  0  0
 25 84  1  0  0  0  0
 26 62  2  0  0  0  0
 27 66  1  0  0  0  0
 27 71  1  0  0  0  0
 28 52  1  0  0  0  0
 28 63  2  0  0  0  0
 28 64  1  0  0  0  0
 29 58  1  0  0  0  0
 29 63  1  0  0  0  0
 29 65  2  0  0  0  0
 30 64  2  0  0  0  0
 30 65  1  0  0  0  0
 30 67  1  0  0  0  0
 31 72  1  0  0  0  0
 31 76  2  0  0  0  0
 32 50  1  0  0  0  0
 32 73  1  0  0  0  0
 32 77  2  0  0  0  0
 33 59  1  0  0  0  0
 33 68  1  0  0  0  0
 33 78  2  0  0  0  0
 34 60  1  0  0  0  0
 34 74  1  0  0  0  0
 34 79  2  0  0  0  0
 35 69  1  0  0  0  0
 35 70  1  0  0  0  0
 35 80  2  0  0  0  0
 36 39  1  0  0  0  0
 37 50  1  0  0  0  0
 38 68  1  0  0  0  0
 39 41  1  0  0  0  0
 40 42  1  0  0  0  0
 40 43  1  0  0  0  0
 41 49  1  0  0  0  0
 42 51  1  0  0  0  0
 43 69  1  0  0  0  0
 44 46  1  0  0  0  0
 44 67  1  0  0  0  0
 45 47  1  0  0  0  0
 45 67  1  0  0  0  0
 46 70  1  0  0  0  0
 47 70  1  0  0  0  0
 48 51  1  0  0  0  0
 48 69  1  0  0  0  0
 49 73  1  0  0  0  0
 50 68  1  0  0  0  0
 51 66  1  0  0  0  0
 53 60  1  0  0  0  0
 54 61  1  0  0  0  0
 55 61  1  0  0  0  0
 56 61  1  0  0  0  0
 57 75  1  0  0  0  0
 58 82  1  0  0  0  0
 59 61  1  0  0  0  0
 59 74  1  0  0  0  0
 60 75  1  0  0  0  0
 62 66  1  0  0  0  0
M  CHG  1  75   1
M  ISO  4  35 100  58 101  70 100  82 101
M  END
> <Batch ID>
0193

> <Smiles>
CNC(C)C(=O)NC(C(=O)N1Cc2cc([101O:1][101CH2:1]c3nc(C)nc(N4CC[100N:0]([100C:0](=O)N5CCCC(n6nc(-c7ccc(Oc8ccc(F)cc8F)cc7)c(C(N)=O)c6N)C5)CC4)n3)ccc2CC1C(=O)NC1CCCc2ccccc21)C(C)(C)C

> <Shape>
0.273

> <Color>
0.116

> <Negative vol penalty>
0.000

$$$$
