
  -OEChem-04052323343D

 84 93  0     1  0  0  0  0  0999 V2000
  -22.7229  -35.0141   15.1974 C   0  0  0  0  0  0  0  0  0  0  0  0
  -23.3990  -33.8041   15.3165 C   0  0  0  0  0  0  0  0  0  0  0  0
  -22.7245  -10.9896   19.5520 C   0  0  0  0  0  0  0  0  0  0  0  0
  -21.0734  -11.3348   21.2816 C   0  0  0  0  0  0  0  0  0  0  0  0
  -22.8208  -35.9686   16.2089 C   0  0  0  0  0  0  0  0  0  0  0  0
  -24.1744  -33.5483   16.4469 C   0  0  0  0  0  0  0  0  0  0  0  0
  -24.9860  -28.1428   19.2086 C   0  0  0  0  0  0  0  0  0  0  0  0
  -22.7888   -9.6362   19.8834 C   0  0  0  0  0  0  0  0  0  0  0  0
  -21.1376   -9.9814   21.6130 C   0  0  0  0  0  0  0  0  0  0  0  0
  -26.0098  -27.1989   19.1403 C   0  0  0  0  0  0  0  0  0  0  0  0
  -20.9637   -6.8453   19.3240 C   0  0  0  0  0  0  0  0  0  0  0  0
  -20.9520   -5.9209   18.2795 C   0  0  0  0  0  0  0  0  0  0  0  0
  -27.0135  -28.1534   21.1153 C   0  0  0  0  0  0  0  0  0  0  0  0
  -23.1083   -5.0930   18.9881 C   0  0  0  0  0  0  0  0  0  0  0  0
  -21.8669  -11.8389   20.2512 C   0  0  0  0  0  0  0  0  0  0  0  0
  -20.9439  -13.8433   18.9712 C   0  0  0  0  0  0  0  0  0  0  0  0
  -23.5900  -35.7205   17.3567 C   0  0  0  0  0  0  0  0  0  0  0  0
  -24.9741  -29.1075   20.2262 C   0  0  0  0  0  0  0  0  0  0  0  0
  -24.2838  -34.5010   17.4741 C   0  0  0  0  0  0  0  0  0  0  0  0
  -25.9871  -29.1068   21.1958 C   0  0  0  0  0  0  0  0  0  0  0  0
  -21.9953   -9.1321   20.9139 C   0  0  0  0  0  0  0  0  0  0  0  0
  -27.0253  -27.2059   20.0920 C   0  0  0  0  0  0  0  0  0  0  0  0
  -22.0477   -6.8937   20.2005 C   0  0  0  0  0  0  0  0  0  0  0  0
  -22.0242   -5.0448   18.1116 C   0  0  0  0  0  0  0  0  0  0  0  0
  -23.1200   -6.0175   20.0325 C   0  0  0  0  0  0  0  0  0  0  0  0
  -21.8005  -13.2372   19.9097 C   0  0  0  0  0  0  0  0  0  0  0  0
  -21.2711  -15.1764   19.0186 C   0  0  0  0  0  0  0  0  0  0  0  0
  -31.3053  -23.9506   18.8361 C   0  0  0  0  0  0  0  0  0  0  0  0
  -29.1174  -24.3932   19.0675 C   0  0  0  0  0  0  0  0  0  0  0  0
  -29.9116  -22.3591   19.5853 C   0  0  0  0  0  0  0  0  0  0  0  0
  -19.9421  -13.2540   18.1318 C   0  0  0  0  0  0  0  0  0  0  0  0
  -25.1147  -32.2820   20.3094 C   0  0  0  0  0  0  0  0  0  0  0  0
  -24.5772  -31.8340   23.4768 C   0  0  0  0  0  0  0  0  0  0  0  0
  -24.7741  -29.7666   26.1849 C   0  0  0  0  0  0  0  0  0  0  0  0
  -26.3269  -17.8568   20.5618 C   0  0  0  0  0  0  0  0  0  0  0  0
  -23.7038  -36.8018   18.4020 C   0  0  0  0  0  0  0  0  0  0  0  0
  -23.8483  -30.1021   20.3016 C   0  0  0  0  0  0  0  0  0  0  0  0
  -26.0093  -30.1087   22.3202 C   0  0  0  0  0  0  0  0  0  0  0  0
  -24.2444  -36.3018   19.7391 C   0  0  0  0  0  0  0  0  0  0  0  0
  -22.9957  -18.5198   21.9413 C   0  0  0  0  0  0  0  0  0  0  0  0
  -25.4692  -35.4186   19.5232 C   0  0  0  0  0  0  0  0  0  0  0  0
  -22.2523  -17.2525   21.5328 C   0  0  0  0  0  0  0  0  0  0  0  0
  -29.0731  -18.7959   22.2517 C   0  0  0  0  0  0  0  0  0  0  0  0
  -24.4668  -18.2533   22.2623 C   0  0  0  0  0  0  0  0  0  0  0  0
  -27.6220  -18.6090   22.7053 C   0  0  0  0  0  0  0  0  0  0  0  0
  -24.4432  -16.2734   20.7680 C   0  0  0  0  0  0  0  0  0  0  0  0
  -25.1149  -34.1766   18.6965 C   0  0  1  0  0  0  0  0  0  0  0  0
  -24.2140  -31.3606   21.0823 C   0  0  1  0  0  0  0  0  0  0  0  0
  -22.9835  -16.5480   20.3804 C   0  0  1  0  0  0  0  0  0  0  0  0
  -28.5489  -19.0886   20.8376 C   0  0  2  0  0  0  0  0  0  0  0  0
  -32.6788  -24.3912   18.4599 C   0  0  0  0  0  0  0  0  0  0  0  0
  -24.2922  -29.6935   28.6466 C   0  0  0  0  0  0  0  0  0  0  0  0
  -27.0555  -33.5323   24.0099 C   0  0  0  0  0  0  0  0  0  0  0  0
  -27.0715  -32.6489   26.3524 C   0  0  0  0  0  0  0  0  0  0  0  0
  -25.1300  -33.9877   25.5395 C   0  0  0  0  0  0  0  0  0  0  0  0
  -22.8523  -27.5394   25.8604 C   0  0  0  0  0  0  0  0  0  0  0  0
  -27.9737  -25.3430   18.9579 C   0  0  0  0  0  0  0  0  0  1  0  0
  -28.4219  -20.5414   20.4236 C   0  0  0  0  0  0  0  0  0  0  0  0
  -25.4506  -31.6278   24.6907 C   0  0  1  0  0  0  0  0  0  0  0  0
  -23.7571  -29.4055   27.2525 C   0  0  2  0  0  0  0  0  0  0  0  0
  -26.1778  -32.9314   25.1259 C   0  0  0  0  0  0  0  0  0  0  0  0
  -22.6110  -14.1133   20.5092 N   0  0  0  0  0  0  0  0  0  0  0  0
  -30.3249  -24.8599   18.7114 N   0  0  0  0  0  0  0  0  0  0  0  0
  -31.1742  -22.6850   19.2651 N   0  0  0  0  0  0  0  0  0  0  0  0
  -28.8350  -23.1582   19.5124 N   0  0  0  0  0  0  0  0  0  0  0  0
  -22.2653  -15.2835   19.9462 N   0  0  0  0  0  0  0  0  0  0  0  0
  -24.8899  -31.0647   22.3472 N   0  0  0  0  0  0  0  0  0  0  0  0
  -25.1324  -17.4968   21.1950 N   0  0  0  0  0  0  0  0  0  0  0  0
  -27.2680  -18.5451   21.2948 N   0  0  0  0  0  0  0  0  0  0  0  0
  -20.8025  -16.2558   18.3569 N   0  0  0  0  0  0  0  0  0  0  0  0
  -19.7350  -11.8700   18.2093 N   0  0  0  0  0  0  0  0  0  0  0  0
  -29.6965  -21.0583   20.0399 N   0  0  0  0  0  0  0  0  0  0  0  0
  -24.4419  -33.1958   19.5209 N   0  0  0  0  0  0  0  0  0  0  0  0
  -24.5910  -31.0514   25.7189 N   0  0  0  0  0  0  0  0  0  0  0  0
  -23.4126  -27.9578   27.1712 N   0  3  0  0  0  0  0  0  0  0  0  0
  -19.2623  -13.9322   17.3247 O   0  0  0  0  0  0  0  0  0  0  0  0
  -26.3302  -32.1728   20.4212 O   0  0  0  0  0  0  0  0  0  0  0  0
  -23.6472  -32.6426   23.5312 O   0  0  0  0  0  0  0  0  0  0  0  0
  -25.6461  -28.9883   25.8052 O   0  0  0  0  0  0  0  0  0  0  0  0
  -26.5626  -17.5478   19.3863 O   0  0  0  0  0  0  0  0  0  0  0  0
  -22.0575   -7.8115   21.2374 O   0  0  0  0  0  0  0  0  0  0  0  0
  -28.0330  -26.2799   20.0268 O   0  0  0  0  0  0  0  0  0  1  0  0
  -22.0121   -4.1560   17.1095 F   0  0  0  0  0  0  0  0  0  0  0  0
  -24.1637   -6.0584   20.8721 F   0  0  0  0  0  0  0  0  0  0  0  0
  1  2  1  0  0  0  0
  1  5  2  0  0  0  0
  2  6  2  0  0  0  0
  3  8  2  0  0  0  0
  3 15  1  0  0  0  0
  4  9  1  0  0  0  0
  4 15  2  0  0  0  0
  5 17  1  0  0  0  0
  6 19  1  0  0  0  0
  7 10  2  0  0  0  0
  7 18  1  0  0  0  0
  8 21  1  0  0  0  0
  9 21  2  0  0  0  0
 10 22  1  0  0  0  0
 11 12  2  0  0  0  0
 11 23  1  0  0  0  0
 12 24  1  0  0  0  0
 13 20  1  0  0  0  0
 13 22  2  0  0  0  0
 14 24  2  0  0  0  0
 14 25  1  0  0  0  0
 15 26  1  0  0  0  0
 16 26  1  0  0  0  0
 16 27  2  0  0  0  0
 16 31  1  0  0  0  0
 17 19  2  0  0  0  0
 17 36  1  0  0  0  0
 18 20  2  0  0  0  0
 18 37  1  0  0  0  0
 19 47  1  0  0  0  0
 20 38  1  0  0  0  0
 21 81  1  0  0  0  0
 22 82  1  0  0  0  0
 23 25  2  0  0  0  0
 23 81  1  0  0  0  0
 24 83  1  0  0  0  0
 25 84  1  0  0  0  0
 26 62  2  0  0  0  0
 27 66  1  0  0  0  0
 27 70  1  0  0  0  0
 28 51  1  0  0  0  0
 28 63  2  0  0  0  0
 28 64  1  0  0  0  0
 29 57  1  0  0  0  0
 29 63  1  0  0  0  0
 29 65  2  0  0  0  0
 30 64  2  0  0  0  0
 30 65  1  0  0  0  0
 30 72  1  0  0  0  0
 31 71  1  0  0  0  0
 31 76  2  0  0  0  0
 32 48  1  0  0  0  0
 32 73  1  0  0  0  0
 32 77  2  0  0  0  0
 33 59  1  0  0  0  0
 33 67  1  0  0  0  0
 33 78  2  0  0  0  0
 34 60  1  0  0  0  0
 34 74  1  0  0  0  0
 34 79  2  0  0  0  0
 35 68  1  0  0  0  0
 35 69  1  0  0  0  0
 35 80  2  0  0  0  0
 36 39  1  0  0  0  0
 37 48  1  0  0  0  0
 38 67  1  0  0  0  0
 39 41  1  0  0  0  0
 40 42  1  0  0  0  0
 40 44  1  0  0  0  0
 41 47  1  0  0  0  0
 42 49  1  0  0  0  0
 43 45  1  0  0  0  0
 43 50  1  0  0  0  0
 44 68  1  0  0  0  0
 45 69  1  0  0  0  0
 46 49  1  0  0  0  0
 46 68  1  0  0  0  0
 47 73  1  0  0  0  0
 48 67  1  0  0  0  0
 49 66  1  0  0  0  0
 50 58  1  0  0  0  0
 50 69  1  0  0  0  0
 52 60  1  0  0  0  0
 53 61  1  0  0  0  0
 54 61  1  0  0  0  0
 55 61  1  0  0  0  0
 56 75  1  0  0  0  0
 57 82  1  0  0  0  0
 58 72  1  0  0  0  0
 59 61  1  0  0  0  0
 59 74  1  0  0  0  0
 60 75  1  0  0  0  0
 62 66  1  0  0  0  0
M  CHG  1  75   1
M  ISO  4  35 100  57 101  69 100  82 101
M  END
> <Batch ID>
0194

> <Smiles>
CNC(C)C(=O)NC(C(=O)N1Cc2cc([101O:1][101CH2:1]c3nc(C)nc(NCC4CC[100N:0]4[100C:0](=O)N4CCCC(n5nc(-c6ccc(Oc7ccc(F)cc7F)cc6)c(C(N)=O)c5N)C4)n3)ccc2CC1C(=O)NC1CCCc2ccccc21)C(C)(C)C

> <Shape>
0.216

> <Color>
0.105

> <Negative vol penalty>
0.000

$$$$

  -OEChem-04052323343D

 85 94  0     1  0  0  0  0  0999 V2000
  -32.6977  -35.9881   18.3351 C   0  0  0  0  0  0  0  0  0  0  0  0
  -32.4527  -34.6456   18.6054 C   0  0  0  0  0  0  0  0  0  0  0  0
  -23.9770   -9.0350   21.5141 C   0  0  0  0  0  0  0  0  0  0  0  0
  -24.3464  -10.3098   23.5328 C   0  0  0  0  0  0  0  0  0  0  0  0
  -32.2212  -36.9707   19.2019 C   0  0  0  0  0  0  0  0  0  0  0  0
  -31.7320  -34.2849   19.7434 C   0  0  0  0  0  0  0  0  0  0  0  0
  -28.2428  -30.7405   18.7907 C   0  0  0  0  0  0  0  0  0  0  0  0
  -23.5032   -7.9666   22.2754 C   0  0  0  0  0  0  0  0  0  0  0  0
  -23.8726   -9.2414   24.2942 C   0  0  0  0  0  0  0  0  0  0  0  0
  -28.6887  -29.4255   18.6651 C   0  0  0  0  0  0  0  0  0  0  0  0
  -20.6449   -7.1185   23.8702 C   0  0  0  0  0  0  0  0  0  0  0  0
  -19.4795   -6.4833   23.4412 C   0  0  0  0  0  0  0  0  0  0  0  0
  -27.9897  -28.9785   20.9302 C   0  0  0  0  0  0  0  0  0  0  0  0
  -28.0564  -18.8223   20.2868 C   0  0  0  0  0  0  0  0  0  0  0  0
  -20.6895   -4.4022   23.2358 C   0  0  0  0  0  0  0  0  0  0  0  0
  -24.3986  -10.2066   22.1428 C   0  0  0  0  0  0  0  0  0  0  0  0
  -24.1365  -12.3740   20.8232 C   0  0  0  0  0  0  0  0  0  0  0  0
  -31.4861  -36.6224   20.3460 C   0  0  0  0  0  0  0  0  0  0  0  0
  -27.6759  -31.1881   19.9927 C   0  0  0  0  0  0  0  0  0  0  0  0
  -31.2465  -35.2637   20.6270 C   0  0  0  0  0  0  0  0  0  0  0  0
  -27.5350  -30.2989   21.0676 C   0  0  0  0  0  0  0  0  0  0  0  0
  -28.1915  -20.1690   20.0580 C   0  0  0  0  0  0  0  0  0  0  0  0
  -23.4510   -8.0698   23.6655 C   0  0  0  0  0  0  0  0  0  0  0  0
  -28.5649  -28.5451   19.7359 C   0  0  0  0  0  0  0  0  0  0  0  0
  -21.8326   -6.3956   23.9819 C   0  0  0  0  0  0  0  0  0  0  0  0
  -19.5018   -5.1251   23.1241 C   0  0  0  0  0  0  0  0  0  0  0  0
  -21.8549   -5.0375   23.6648 C   0  0  0  0  0  0  0  0  0  0  0  0
  -24.8887  -11.3104   21.3569 C   0  0  0  0  0  0  0  0  0  0  0  0
  -29.3808  -20.6461   19.5366 C   0  0  0  0  0  0  0  0  0  0  0  0
  -29.1482  -18.0384   19.9604 C   0  0  0  0  0  0  0  0  0  0  0  0
  -25.0588  -13.1504   20.1651 C   0  0  0  0  0  0  0  0  0  0  0  0
  -22.7300  -12.6367   20.9141 C   0  0  0  0  0  0  0  0  0  0  0  0
  -28.4276  -33.4117   22.1361 C   0  0  0  0  0  0  0  0  0  0  0  0
  -25.5690  -32.5809   23.4247 C   0  0  0  0  0  0  0  0  0  0  0  0
  -23.1285  -30.2225   23.7833 C   0  0  0  0  0  0  0  0  0  0  0  0
  -30.0164  -15.6738   19.9241 C   0  0  0  0  0  0  0  0  0  0  0  0
  -31.0322  -37.7174   21.2785 C   0  0  0  0  0  0  0  0  0  0  0  0
  -27.1754  -32.6022   20.1032 C   0  0  0  0  0  0  0  0  0  0  0  0
  -26.9150  -30.7243   22.3726 C   0  0  0  0  0  0  0  0  0  0  0  0
  -27.2347  -21.2801   20.3092 C   0  0  0  0  0  0  0  0  0  0  0  0
  -29.3399  -22.1335   19.3901 C   0  0  0  0  0  0  0  0  0  0  0  0
  -29.9553  -37.2707   22.2639 C   0  0  0  0  0  0  0  0  0  0  0  0
  -29.8987  -12.2382   18.9969 C   0  0  0  0  0  0  0  0  0  0  0  0
  -30.3328  -35.9359   22.8984 C   0  0  0  0  0  0  0  0  0  0  0  0
  -28.5229  -11.7780   19.4843 C   0  0  0  0  0  0  0  0  0  0  0  0
  -30.5333  -13.2434   19.9563 C   0  0  0  0  0  0  0  0  0  0  0  0
  -28.3170  -13.9409   20.7753 C   0  0  0  0  0  0  0  0  0  0  0  0
  -30.4474  -34.8339   21.8382 C   0  0  1  0  0  0  0  0  0  0  0  0
  -27.0836  -33.0926   21.5449 C   0  0  1  0  0  0  0  0  0  0  0  0
  -27.6100  -12.9768   19.8087 C   0  0  2  0  0  0  0  0  0  0  0  0
  -25.4789  -24.3022   19.2410 C   0  0  0  0  0  0  0  0  0  0  0  0
  -20.9320  -29.8189   24.9279 C   0  0  0  0  0  0  0  0  0  0  0  0
  -27.0296  -32.1410   26.0673 C   0  0  0  0  0  0  0  0  0  0  0  0
  -25.0350  -30.8625   26.8767 C   0  0  0  0  0  0  0  0  0  0  0  0
  -24.8099  -33.2736   26.2781 C   0  0  0  0  0  0  0  0  0  0  0  0
  -21.7178  -29.8709   21.2055 C   0  0  0  0  0  0  0  0  0  0  0  0
  -26.1951  -24.0701   20.5649 C   0  0  0  0  0  0  0  0  0  0  0  0
  -28.4014  -24.9226   19.6715 C   0  0  0  0  0  0  0  0  0  0  0  0
  -28.3174  -26.2700   20.3829 C   0  0  0  0  0  0  0  0  0  1  0  0
  -25.1097  -31.5631   24.4407 C   0  0  1  0  0  0  0  0  0  0  0  0
  -21.6178  -30.3098   23.6624 C   0  0  2  0  0  0  0  0  0  0  0  0
  -27.6950  -23.7823   20.4146 C   0  0  2  0  0  0  0  0  0  0  0  0
  -25.5096  -31.9523   25.8919 C   0  0  0  0  0  0  0  0  0  0  0  0
  -26.1886  -11.3998   21.0632 N   0  0  0  0  0  0  0  0  0  0  0  0
  -30.4305  -19.8689   19.2316 N   0  0  0  0  0  0  0  0  0  0  0  0
  -30.3064  -18.5324   19.4466 N   0  0  0  0  0  0  0  0  0  0  0  0
  -26.2604  -12.5287   20.3377 N   0  0  0  0  0  0  0  0  0  0  0  0
  -26.4466  -32.1187   22.4337 N   0  0  0  0  0  0  0  0  0  0  0  0
  -29.6130  -14.3532   20.2138 N   0  0  0  0  0  0  0  0  0  0  0  0
  -24.9510  -14.2974   19.4614 N   0  0  0  0  0  0  0  0  0  0  0  0
  -21.9271  -11.7369   21.6283 N   0  0  0  0  0  0  0  0  0  0  0  0
  -29.0460  -16.6422   20.1793 N   0  0  0  0  0  0  0  0  0  0  0  0
  -29.1332  -34.3756   21.4414 N   0  0  0  0  0  0  0  0  0  0  0  0
  -23.6736  -31.4043   24.2388 N   0  0  0  0  0  0  0  0  0  0  0  0
  -27.8797  -22.5108   19.6585 N   0  3  2  0  0  0  0  0  0  0  0  0
  -21.1411  -29.4823   22.5183 N   0  3  0  0  0  0  0  0  0  0  0  0
  -22.1983  -13.6308   20.3641 O   0  0  0  0  0  0  0  0  0  0  0  0
  -28.7965  -32.8279   23.1483 O   0  0  0  0  0  0  0  0  0  0  0  0
  -25.1586  -33.7415   23.5032 O   0  0  0  0  0  0  0  0  0  0  0  0
  -23.7614  -29.2062   23.5054 O   0  0  0  0  0  0  0  0  0  0  0  0
  -31.1302  -15.9243   19.4564 O   0  0  0  0  0  0  0  0  0  0  0  0
  -22.9885   -7.0275   24.4087 O   0  0  0  0  0  0  0  0  0  0  0  0
  -28.9999  -27.2612   19.6161 O   0  0  0  0  0  0  0  0  0  1  0  0
  -18.3823   -4.5149   22.7136 F   0  0  0  0  0  0  0  0  0  0  0  0
  -22.9927   -4.3375   23.7713 F   0  0  0  0  0  0  0  0  0  0  0  0
  1  2  1  0  0  0  0
  1  5  2  0  0  0  0
  2  6  2  0  0  0  0
  3  8  2  0  0  0  0
  3 16  1  0  0  0  0
  4  9  1  0  0  0  0
  4 16  2  0  0  0  0
  5 18  1  0  0  0  0
  6 20  1  0  0  0  0
  7 10  2  0  0  0  0
  7 19  1  0  0  0  0
  8 23  1  0  0  0  0
  9 23  2  0  0  0  0
 10 24  1  0  0  0  0
 11 12  2  0  0  0  0
 11 25  1  0  0  0  0
 12 26  1  0  0  0  0
 13 21  1  0  0  0  0
 13 24  2  0  0  0  0
 14 22  1  0  0  0  0
 14 30  2  0  0  0  0
 15 26  2  0  0  0  0
 15 27  1  0  0  0  0
 16 28  1  0  0  0  0
 17 28  1  0  0  0  0
 17 31  2  0  0  0  0
 17 32  1  0  0  0  0
 18 20  2  0  0  0  0
 18 37  1  0  0  0  0
 19 21  2  0  0  0  0
 19 38  1  0  0  0  0
 20 48  1  0  0  0  0
 21 39  1  0  0  0  0
 22 29  2  0  0  0  0
 22 40  1  0  0  0  0
 23 82  1  0  0  0  0
 24 83  1  0  0  0  0
 25 27  2  0  0  0  0
 25 82  1  0  0  0  0
 26 84  1  0  0  0  0
 27 85  1  0  0  0  0
 28 64  2  0  0  0  0
 29 41  1  0  0  0  0
 29 65  1  0  0  0  0
 30 66  1  0  0  0  0
 30 72  1  0  0  0  0
 31 67  1  0  0  0  0
 31 70  1  0  0  0  0
 32 71  1  0  0  0  0
 32 77  2  0  0  0  0
 33 49  1  0  0  0  0
 33 73  1  0  0  0  0
 33 78  2  0  0  0  0
 34 60  1  0  0  0  0
 34 68  1  0  0  0  0
 34 79  2  0  0  0  0
 35 61  1  0  0  0  0
 35 74  1  0  0  0  0
 35 80  2  0  0  0  0
 36 69  1  0  0  0  0
 36 72  1  0  0  0  0
 36 81  2  0  0  0  0
 37 42  1  0  0  0  0
 38 49  1  0  0  0  0
 39 68  1  0  0  0  0
 40 75  1  0  0  0  0
 41 75  1  0  0  0  0
 42 44  1  0  0  0  0
 43 45  1  0  0  0  0
 43 46  1  0  0  0  0
 44 48  1  0  0  0  0
 45 50  1  0  0  0  0
 46 69  1  0  0  0  0
 47 50  1  0  0  0  0
 47 69  1  0  0  0  0
 48 73  1  0  0  0  0
 49 68  1  0  0  0  0
 50 67  1  0  0  0  0
 51 57  1  0  0  0  0
 52 61  1  0  0  0  0
 53 63  1  0  0  0  0
 54 63  1  0  0  0  0
 55 63  1  0  0  0  0
 56 76  1  0  0  0  0
 57 62  1  0  0  0  0
 58 59  1  0  0  0  0
 58 62  1  0  0  0  0
 59 83  1  0  0  0  0
 60 63  1  0  0  0  0
 60 74  1  0  0  0  0
 61 76  1  0  0  0  0
 62 75  1  0  0  0  0
 64 67  1  0  0  0  0
 65 66  2  0  0  0  0
M  CHG  2  75   1  76   1
M  ISO  4  36 100  59 101  72 100  83 101
M  END
> <Batch ID>
0194

> <Smiles>
CCC(C[101CH2:1][101O:1]c1ccc2c(c1)CN(C(=O)C(NC(=O)C(C)NC)C(C)(C)C)C(C(=O)NC1CCCc3ccccc31)C2)N1Cc2cc([100NH:0][100C:0](=O)N3CCCC(n4nc(-c5ccc(Oc6ccc(F)cc6F)cc5)c(C(N)=O)c4N)C3)nnc2C1

> <Shape>
0.309

> <Color>
0.119

> <Negative vol penalty>
0.000

$$$$

  -OEChem-04052323342D

  0  0  0     0  0  0  0  0  0999 V2000
M  END
$$$$

  -OEChem-04052323343D

 83 91  0     1  0  0  0  0  0999 V2000
  -45.2877  -25.2580   18.1676 C   0  0  0  0  0  0  0  0  0  0  0  0
  -44.0853  -25.0153   18.8240 C   0  0  0  0  0  0  0  0  0  0  0  0
  -22.6712  -10.1816   20.1926 C   0  0  0  0  0  0  0  0  0  0  0  0
  -24.3082   -9.4559   21.8145 C   0  0  0  0  0  0  0  0  0  0  0  0
  -45.2959  -25.4870   16.7923 C   0  0  0  0  0  0  0  0  0  0  0  0
  -42.8903  -25.0025   18.1056 C   0  0  0  0  0  0  0  0  0  0  0  0
  -39.9091  -21.1070   19.3633 C   0  0  0  0  0  0  0  0  0  0  0  0
  -21.9389   -9.0145   20.4095 C   0  0  0  0  0  0  0  0  0  0  0  0
  -23.5759   -8.2888   22.0315 C   0  0  0  0  0  0  0  0  0  0  0  0
  -39.1859  -21.2159   20.5503 C   0  0  0  0  0  0  0  0  0  0  0  0
  -20.8124   -7.3664   23.7440 C   0  0  0  0  0  0  0  0  0  0  0  0
  -20.6142   -6.9636   25.0646 C   0  0  0  0  0  0  0  0  0  0  0  0
  -37.2231  -21.8325   19.2908 C   0  0  0  0  0  0  0  0  0  0  0  0
  -21.7514   -4.8830   24.6006 C   0  0  0  0  0  0  0  0  0  0  0  0
  -23.8560  -10.4023   20.8950 C   0  0  0  0  0  0  0  0  0  0  0  0
  -24.1797  -12.9326   20.8660 C   0  0  0  0  0  0  0  0  0  0  0  0
  -44.1015  -25.4674   16.0551 C   0  0  0  0  0  0  0  0  0  0  0  0
  -39.2965  -21.3710   18.1299 C   0  0  0  0  0  0  0  0  0  0  0  0
  -42.8824  -25.2327   16.7193 C   0  0  0  0  0  0  0  0  0  0  0  0
  -37.9400  -21.7237   18.0895 C   0  0  0  0  0  0  0  0  0  0  0  0
  -22.3912   -8.0681   21.3290 C   0  0  0  0  0  0  0  0  0  0  0  0
  -37.8435  -21.5816   20.5144 C   0  0  0  0  0  0  0  0  0  0  0  0
  -21.4800   -6.5275   22.8517 C   0  0  0  0  0  0  0  0  0  0  0  0
  -21.0837   -5.7219   25.4930 C   0  0  0  0  0  0  0  0  0  0  0  0
  -21.9495   -5.2859   23.2800 C   0  0  0  0  0  0  0  0  0  0  0  0
  -24.6132  -11.6075   20.6710 C   0  0  0  0  0  0  0  0  0  0  0  0
  -25.2611  -13.7029   20.5147 C   0  0  0  0  0  0  0  0  0  0  0  0
  -22.9127  -13.4232   21.3240 C   0  0  0  0  0  0  0  0  0  0  0  0
  -39.7541  -23.4911   15.8063 C   0  0  0  0  0  0  0  0  0  0  0  0
  -37.4813  -21.7405   14.2924 C   0  0  0  0  0  0  0  0  0  0  0  0
  -34.3627  -20.1521   15.1689 C   0  0  0  0  0  0  0  0  0  0  0  0
  -30.7405  -14.7525   20.6567 C   0  0  0  0  0  0  0  0  0  0  0  0
  -44.1551  -25.7672   14.5779 C   0  0  0  0  0  0  0  0  0  0  0  0
  -40.0833  -21.2230   16.8565 C   0  0  0  0  0  0  0  0  0  0  0  0
  -37.2303  -21.9980   16.7896 C   0  0  0  0  0  0  0  0  0  0  0  0
  -42.8874  -25.3654   13.8285 C   0  0  0  0  0  0  0  0  0  0  0  0
  -29.5807  -12.4525   18.1987 C   0  0  0  0  0  0  0  0  0  0  0  0
  -31.4113  -16.7288   25.6455 C   0  0  0  0  0  0  0  0  0  0  0  0
  -41.6487  -25.8361   14.5840 C   0  0  0  0  0  0  0  0  0  0  0  0
  -28.1522  -12.1325   18.6424 C   0  0  0  0  0  0  0  0  0  0  0  0
  -30.7783  -16.1282   24.3950 C   0  0  0  0  0  0  0  0  0  0  0  0
  -30.5153  -12.6339   19.3928 C   0  0  0  0  0  0  0  0  0  0  0  0
  -32.6147  -17.5098   25.1454 C   0  0  0  0  0  0  0  0  0  0  0  0
  -28.6310  -13.2985   20.8355 C   0  0  0  0  0  0  0  0  0  0  0  0
  -41.5681  -25.1862   15.9706 C   0  0  1  0  0  0  0  0  0  0  0  0
  -39.4935  -22.0156   15.6941 C   0  0  1  0  0  0  0  0  0  0  0  0
  -27.6395  -13.1619   19.6674 C   0  0  2  0  0  0  0  0  0  0  0  0
  -31.6409  -16.6178   23.2295 C   0  0  1  0  0  0  0  0  0  0  0  0
  -33.2010  -18.1700   14.1594 C   0  0  0  0  0  0  0  0  0  0  0  0
  -33.1608  -20.7340   23.7356 C   0  0  0  0  0  0  0  0  0  0  0  0
  -35.9858  -23.8243   12.6396 C   0  0  0  0  0  0  0  0  0  0  0  0
  -33.9198  -22.4309   12.8804 C   0  0  0  0  0  0  0  0  0  0  0  0
  -35.9161  -21.5055   11.7053 C   0  0  0  0  0  0  0  0  0  0  0  0
  -34.2357  -18.7532   17.7740 C   0  0  0  0  0  0  0  0  0  0  0  0
  -30.8121  -16.8549   21.9734 C   0  0  0  0  0  0  0  0  0  0  0  0
  -33.4042  -18.2972   23.0023 C   0  0  0  0  0  0  0  0  0  0  0  0
  -36.3310  -20.5752   23.6450 C   0  0  0  0  0  0  0  0  0  0  0  0
  -37.5271  -20.8454   22.7536 C   0  0  0  0  0  0  0  0  0  1  0  0
  -35.9740  -21.7809   14.2178 C   0  0  1  0  0  0  0  0  0  0  0  0
  -34.1025  -18.6607   15.2815 C   0  0  2  0  0  0  0  0  0  0  0  0
  -34.0693  -19.5155   23.6410 C   0  0  1  0  0  0  0  0  0  0  0  0
  -35.4629  -22.3946   12.8838 C   0  0  0  0  0  0  0  0  0  0  0  0
  -25.8719  -11.5365   20.2298 N   0  0  0  0  0  0  0  0  0  0  0  0
  -26.2385  -12.8266   20.1446 N   0  0  0  0  0  0  0  0  0  0  0  0
  -38.0441  -21.8461   15.5722 N   0  0  0  0  0  0  0  0  0  0  0  0
  -29.9721  -13.6242   20.3257 N   0  0  0  0  0  0  0  0  0  0  0  0
  -32.2486  -17.8433   23.7666 N   0  0  2  0  0  0  0  0  0  0  0  0
  -25.4618  -15.0377   20.4892 N   0  0  0  0  0  0  0  0  0  0  0  0
  -21.9120  -12.4948   21.6420 N   0  0  0  0  0  0  0  0  0  0  0  0
  -41.0943  -23.8230   15.8631 N   0  0  0  0  0  0  0  0  0  0  0  0
  -35.5165  -20.4174   14.4622 N   0  0  0  0  0  0  0  0  0  0  0  0
  -30.1488  -15.6444   21.5427 N   0  0  0  0  0  0  0  0  0  0  0  0
  -33.4474  -18.3459   16.5825 N   0  3  0  0  0  0  0  0  0  0  0  0
  -35.2780  -19.8867   22.8568 N   0  3  0  0  0  0  0  0  0  0  0  0
  -22.6695  -14.6490   21.4318 O   0  0  0  0  0  0  0  0  0  0  0  0
  -38.8093  -24.2709   15.8374 O   0  0  0  0  0  0  0  0  0  0  0  0
  -38.1349  -21.6126   13.2541 O   0  0  0  0  0  0  0  0  0  0  0  0
  -33.6149  -20.9973   15.6558 O   0  0  0  0  0  0  0  0  0  0  0  0
  -31.8680  -14.9530   20.1925 O   0  0  0  0  0  0  0  0  0  0  0  0
  -21.6766   -6.9292   21.5411 O   0  0  0  0  0  0  0  0  0  0  0  0
  -37.1355  -21.6893   21.6716 O   0  0  0  0  0  0  0  0  0  1  0  0
  -20.8947   -5.3358   26.7616 F   0  0  0  0  0  0  0  0  0  0  0  0
  -22.5926   -4.4761   22.4276 F   0  0  0  0  0  0  0  0  0  0  0  0
  1  2  1  0  0  0  0
  1  5  2  0  0  0  0
  2  6  2  0  0  0  0
  3  8  2  0  0  0  0
  3 15  1  0  0  0  0
  4  9  1  0  0  0  0
  4 15  2  0  0  0  0
  5 17  1  0  0  0  0
  6 19  1  0  0  0  0
  7 10  2  0  0  0  0
  7 18  1  0  0  0  0
  8 21  1  0  0  0  0
  9 21  2  0  0  0  0
 10 22  1  0  0  0  0
 11 12  2  0  0  0  0
 11 23  1  0  0  0  0
 12 24  1  0  0  0  0
 13 20  1  0  0  0  0
 13 22  2  0  0  0  0
 14 24  2  0  0  0  0
 14 25  1  0  0  0  0
 15 26  1  0  0  0  0
 16 26  1  0  0  0  0
 16 27  2  0  0  0  0
 16 28  1  0  0  0  0
 17 19  2  0  0  0  0
 17 33  1  0  0  0  0
 18 20  2  0  0  0  0
 18 34  1  0  0  0  0
 19 45  1  0  0  0  0
 20 35  1  0  0  0  0
 21 80  1  0  0  0  0
 22 81  1  0  0  0  0
 23 25  2  0  0  0  0
 23 80  1  0  0  0  0
 24 82  1  0  0  0  0
 25 83  1  0  0  0  0
 26 63  2  0  0  0  0
 27 64  1  0  0  0  0
 27 68  1  0  0  0  0
 28 69  1  0  0  0  0
 28 75  2  0  0  0  0
 29 46  1  0  0  0  0
 29 70  1  0  0  0  0
 29 76  2  0  0  0  0
 30 59  1  0  0  0  0
 30 65  1  0  0  0  0
 30 77  2  0  0  0  0
 31 60  1  0  0  0  0
 31 71  1  0  0  0  0
 31 78  2  0  0  0  0
 32 66  1  0  0  0  0
 32 72  1  0  0  0  0
 32 79  2  0  0  0  0
 33 36  1  0  0  0  0
 34 46  1  0  0  0  0
 35 65  1  0  0  0  0
 36 39  1  0  0  0  0
 37 40  1  0  0  0  0
 37 42  1  0  0  0  0
 38 41  1  0  0  0  0
 38 43  1  0  0  0  0
 39 45  1  0  0  0  0
 40 47  1  0  0  0  0
 41 48  1  0  0  0  0
 42 66  1  0  0  0  0
 43 67  1  0  0  0  0
 44 47  1  0  0  0  0
 44 66  1  0  0  0  0
 45 70  1  0  0  0  0
 46 65  1  0  0  0  0
 47 64  1  0  0  0  0
 48 55  1  0  0  0  0
 48 67  1  0  0  0  0
 49 60  1  0  0  0  0
 50 61  1  0  0  0  0
 51 62  1  0  0  0  0
 52 62  1  0  0  0  0
 53 62  1  0  0  0  0
 54 73  1  0  0  0  0
 55 72  1  0  0  0  0
 56 61  1  0  0  0  0
 56 67  1  0  0  0  0
 57 58  1  0  0  0  0
 57 74  1  0  0  0  0
 58 81  1  0  0  0  0
 59 62  1  0  0  0  0
 59 71  1  0  0  0  0
 60 73  1  0  0  0  0
 61 74  1  0  0  0  0
 63 64  1  0  0  0  0
M  CHG  2  73   1  74   1
M  ISO  4  32 100  58 101  72 100  81 101
M  END
> <Batch ID>
0194

> <Smiles>
CNC(C)C(=O)NC(C(=O)N1Cc2cc([101O:1][101CH2:1]CNC(C)CN3CCCC3C[100NH:0][100C:0](=O)N3CCCC(n4nc(-c5ccc(Oc6ccc(F)cc6F)cc5)c(C(N)=O)c4N)C3)ccc2CC1C(=O)NC1CCCc2ccccc21)C(C)(C)C

> <Shape>
0.182

> <Color>
0.192

> <Negative vol penalty>
0.000

$$$$

  -OEChem-04052323343D

 85 94  0     1  0  0  0  0  0999 V2000
  -16.7362  -30.6417   23.1025 C   0  0  0  0  0  0  0  0  0  0  0  0
  -17.9042  -31.3181   23.4396 C   0  0  0  0  0  0  0  0  0  0  0  0
  -29.2987  -20.6540   21.1566 C   0  0  0  0  0  0  0  0  0  0  0  0
  -29.1776  -19.0109   22.9237 C   0  0  0  0  0  0  0  0  0  0  0  0
  -16.7768  -29.2742   22.8337 C   0  0  0  0  0  0  0  0  0  0  0  0
  -19.1133  -30.6271   23.5093 C   0  0  0  0  0  0  0  0  0  0  0  0
  -24.6607  -32.7554   22.0252 C   0  0  0  0  0  0  0  0  0  0  0  0
  -29.8364  -19.6933   20.3002 C   0  0  0  0  0  0  0  0  0  0  0  0
  -29.7152  -18.0501   22.0673 C   0  0  0  0  0  0  0  0  0  0  0  0
  -25.7036  -33.2716   22.7931 C   0  0  0  0  0  0  0  0  0  0  0  0
  -30.7203  -15.0731   20.2383 C   0  0  0  0  0  0  0  0  0  0  0  0
  -30.1232  -13.8126   20.2200 C   0  0  0  0  0  0  0  0  0  0  0  0
  -26.7470  -31.0968   22.8267 C   0  0  0  0  0  0  0  0  0  0  0  0
  -28.0349  -14.8119   19.5290 C   0  0  0  0  0  0  0  0  0  0  0  0
  -28.9693  -20.3128   22.4685 C   0  0  0  0  0  0  0  0  0  0  0  0
  -27.0530  -21.6089   23.5434 C   0  0  0  0  0  0  0  0  0  0  0  0
  -17.9886  -28.5680   22.8907 C   0  0  0  0  0  0  0  0  0  0  0  0
  -24.6475  -31.4014   21.6609 C   0  0  0  0  0  0  0  0  0  0  0  0
  -19.1699  -29.2486   23.2424 C   0  0  0  0  0  0  0  0  0  0  0  0
  -25.7041  -30.5666   22.0520 C   0  0  0  0  0  0  0  0  0  0  0  0
  -30.0446  -18.3914   20.7555 C   0  0  0  0  0  0  0  0  0  0  0  0
  -26.7455  -32.4416   23.1964 C   0  0  0  0  0  0  0  0  0  0  0  0
  -29.9746  -16.2030   19.9020 C   0  0  0  0  0  0  0  0  0  0  0  0
  -28.7805  -13.6820   19.8653 C   0  0  0  0  0  0  0  0  0  0  0  0
  -28.6320  -16.0724   19.5473 C   0  0  0  0  0  0  0  0  0  0  0  0
  -28.4144  -21.3049   23.3538 C   0  0  0  0  0  0  0  0  0  0  0  0
  -27.0527  -22.6142   24.4793 C   0  0  0  0  0  0  0  0  0  0  0  0
  -25.8924  -21.0339   22.9285 C   0  0  0  0  0  0  0  0  0  0  0  0
  -22.7085  -28.9461   22.2227 C   0  0  0  0  0  0  0  0  0  0  0  0
  -24.6693  -27.4226   20.1354 C   0  0  0  0  0  0  0  0  0  0  0  0
  -27.7395  -27.2299   18.6577 C   0  0  0  0  0  0  0  0  0  0  0  0
  -29.2539  -27.5112   26.0497 C   0  0  0  0  0  0  0  0  0  0  0  0
  -17.9749  -27.0811   22.6382 C   0  0  0  0  0  0  0  0  0  0  0  0
  -23.5288  -30.8661   20.8097 C   0  0  0  0  0  0  0  0  0  0  0  0
  -25.7473  -29.1103   21.6701 C   0  0  0  0  0  0  0  0  0  0  0  0
  -19.3589  -26.4965   22.3678 C   0  0  0  0  0  0  0  0  0  0  0  0
  -30.7702  -24.4068   27.3982 C   0  0  0  0  0  0  0  0  0  0  0  0
  -29.7854  -33.2868   30.2269 C   0  0  0  0  0  0  0  0  0  0  0  0
  -20.3661  -27.0140   23.3898 C   0  0  0  0  0  0  0  0  0  0  0  0
  -30.2024  -23.3560   26.4430 C   0  0  0  0  0  0  0  0  0  0  0  0
  -29.1777  -33.8518   28.9594 C   0  0  0  0  0  0  0  0  0  0  0  0
  -29.3869  -29.0652   29.3782 C   0  0  0  0  0  0  0  0  0  0  0  0
  -30.9469  -25.7453   26.6932 C   0  0  0  0  0  0  0  0  0  0  0  0
  -29.8231  -27.8801   28.5223 C   0  0  0  0  0  0  0  0  0  0  0  0
  -29.1302  -25.2331   25.1075 C   0  0  0  0  0  0  0  0  0  0  0  0
  -29.3447  -29.7562   27.0973 C   0  0  0  0  0  0  0  0  0  0  0  0
  -29.1948  -31.8924   30.3128 C   0  0  0  0  0  0  0  0  0  0  0  0
  -20.5050  -28.5388   23.3041 C   0  0  1  0  0  0  0  0  0  0  0  0
  -23.3566  -29.3551   20.9303 C   0  0  1  0  0  0  0  0  0  0  0  0
  -28.9148  -23.8581   25.7645 C   0  0  1  0  0  0  0  0  0  0  0  0
  -29.7388  -30.2418   28.4802 C   0  0  1  0  0  0  0  0  0  0  0  0
  -29.2775  -32.6811   27.9922 C   0  0  2  0  0  0  0  0  0  0  0  0
  -29.0558  -25.8550   17.0224 C   0  0  0  0  0  0  0  0  0  0  0  0
  -25.0395  -25.2598   22.2555 C   0  0  0  0  0  0  0  0  0  0  0  0
  -27.0383  -24.4519   20.9825 C   0  0  0  0  0  0  0  0  0  0  0  0
  -24.7812  -24.3994   19.9216 C   0  0  0  0  0  0  0  0  0  0  0  0
  -28.0955  -29.5316   16.8317 C   0  0  0  0  0  0  0  0  0  0  0  0
  -30.0108  -35.4239   24.7013 C   0  0  0  0  0  0  0  0  0  0  0  0
  -28.2906  -32.7569   26.8418 C   0  0  0  0  0  0  0  0  0  0  0  0
  -27.4561  -34.0306   24.8170 C   0  0  0  0  0  0  0  0  0  1  0  0
  -25.9424  -26.6202   20.2556 C   0  0  1  0  0  0  0  0  0  0  0  0
  -28.1499  -27.0626   17.2058 C   0  0  2  0  0  0  0  0  0  0  0  0
  -28.3971  -34.0467   26.0197 C   0  0  2  0  0  0  0  0  0  0  0  0
  -25.6988  -25.2098   20.8628 C   0  0  0  0  0  0  0  0  0  0  0  0
  -29.2205  -22.0564   24.1085 N   0  0  0  0  0  0  0  0  0  0  0  0
  -28.3629  -22.8426   24.7814 N   0  0  0  0  0  0  0  0  0  0  0  0
  -24.6273  -28.6327   20.8424 N   0  0  0  0  0  0  0  0  0  0  0  0
  -29.6964  -26.1836   26.0671 N   0  0  0  0  0  0  0  0  0  0  0  0
  -29.5775  -28.3136   27.1429 N   0  0  0  0  0  0  0  0  0  0  0  0
  -26.0595  -23.3162   25.0650 N   0  0  0  0  0  0  0  0  0  0  0  0
  -26.0723  -20.0103   21.9881 N   0  0  0  0  0  0  0  0  0  0  0  0
  -21.3281  -28.9085   22.1726 N   0  0  0  0  0  0  0  0  0  0  0  0
  -26.5410  -26.6028   18.9252 N   0  0  0  0  0  0  0  0  0  0  0  0
  -28.9767  -31.4719   28.8684 N   0  3  2  0  0  0  0  0  0  0  0  0
  -28.8781  -28.2729   16.7306 N   0  3  0  0  0  0  0  0  0  0  0  0
  -29.7922  -34.1987   25.5107 N   0  3  0  0  0  0  0  0  0  0  0  0
  -24.7311  -21.4277   23.1927 O   0  0  0  0  0  0  0  0  0  0  0  0
  -23.4091  -28.6826   23.1930 O   0  0  0  0  0  0  0  0  0  0  0  0
  -23.7489  -26.9951   19.4342 O   0  0  0  0  0  0  0  0  0  0  0  0
  -28.4165  -27.8513   19.4739 O   0  0  0  0  0  0  0  0  0  0  0  0
  -28.5591  -27.9469   25.1221 O   0  0  0  0  0  0  0  0  0  0  0  0
  -30.5691  -17.4536   19.9199 O   0  0  0  0  0  0  0  0  0  0  0  0
  -27.7713  -32.9460   23.9516 O   0  0  0  0  0  0  0  0  0  1  0  0
  -28.2077  -12.4714   19.8463 F   0  0  0  0  0  0  0  0  0  0  0  0
  -27.9109  -17.1541   19.2221 F   0  0  0  0  0  0  0  0  0  0  0  0
  1  2  1  0  0  0  0
  1  5  2  0  0  0  0
  2  6  2  0  0  0  0
  3  8  2  0  0  0  0
  3 15  1  0  0  0  0
  4  9  1  0  0  0  0
  4 15  2  0  0  0  0
  5 17  1  0  0  0  0
  6 19  1  0  0  0  0
  7 10  2  0  0  0  0
  7 18  1  0  0  0  0
  8 21  1  0  0  0  0
  9 21  2  0  0  0  0
 10 22  1  0  0  0  0
 11 12  2  0  0  0  0
 11 23  1  0  0  0  0
 12 24  1  0  0  0  0
 13 20  1  0  0  0  0
 13 22  2  0  0  0  0
 14 24  2  0  0  0  0
 14 25  1  0  0  0  0
 15 26  1  0  0  0  0
 16 26  1  0  0  0  0
 16 27  2  0  0  0  0
 16 28  1  0  0  0  0
 17 19  2  0  0  0  0
 17 33  1  0  0  0  0
 18 20  2  0  0  0  0
 18 34  1  0  0  0  0
 19 48  1  0  0  0  0
 20 35  1  0  0  0  0
 21 82  1  0  0  0  0
 22 83  1  0  0  0  0
 23 25  2  0  0  0  0
 23 82  1  0  0  0  0
 24 84  1  0  0  0  0
 25 85  1  0  0  0  0
 26 65  2  0  0  0  0
 27 66  1  0  0  0  0
 27 70  1  0  0  0  0
 28 71  1  0  0  0  0
 28 77  2  0  0  0  0
 29 49  1  0  0  0  0
 29 72  1  0  0  0  0
 29 78  2  0  0  0  0
 30 61  1  0  0  0  0
 30 67  1  0  0  0  0
 30 79  2  0  0  0  0
 31 62  1  0  0  0  0
 31 73  1  0  0  0  0
 31 80  2  0  0  0  0
 32 68  1  0  0  0  0
 32 69  1  0  0  0  0
 32 81  2  0  0  0  0
 33 36  1  0  0  0  0
 34 49  1  0  0  0  0
 35 67  1  0  0  0  0
 36 39  1  0  0  0  0
 37 40  1  0  0  0  0
 37 43  1  0  0  0  0
 38 41  1  0  0  0  0
 38 47  1  0  0  0  0
 39 48  1  0  0  0  0
 40 50  1  0  0  0  0
 41 52  1  0  0  0  0
 42 44  1  0  0  0  0
 42 51  1  0  0  0  0
 43 68  1  0  0  0  0
 44 69  1  0  0  0  0
 45 50  1  0  0  0  0
 45 68  1  0  0  0  0
 46 51  1  0  0  0  0
 46 69  1  0  0  0  0
 47 74  1  0  0  0  0
 48 72  1  0  0  0  0
 49 67  1  0  0  0  0
 50 66  1  0  0  0  0
 51 74  1  0  0  0  0
 52 59  1  0  0  0  0
 52 74  1  0  0  0  0
 53 62  1  0  0  0  0
 54 64  1  0  0  0  0
 55 64  1  0  0  0  0
 56 64  1  0  0  0  0
 57 75  1  0  0  0  0
 58 76  1  0  0  0  0
 59 63  1  0  0  0  0
 60 63  1  0  0  0  0
 60 83  1  0  0  0  0
 61 64  1  0  0  0  0
 61 73  1  0  0  0  0
 62 75  1  0  0  0  0
 63 76  1  0  0  0  0
 65 66  1  0  0  0  0
M  CHG  3  74   1  75   1  76   1
M  ISO  4  32 100  60 101  69 100  83 101
M  END
> <Batch ID>
0194

> <Smiles>
CNC(C)C(=O)NC(C(=O)N1Cc2cc([101O:1][101CH2:1]C(CC3CCCN3C3CC[100N:0]([100C:0](=O)N4CCCC(n5nc(-c6ccc(Oc7ccc(F)cc7F)cc6)c(C(N)=O)c5N)C4)C3)NC)ccc2CC1C(=O)NC1CCCc2ccccc21)C(C)(C)C

> <Shape>
0.235

> <Color>
0.100

> <Negative vol penalty>
0.000

$$$$

  -OEChem-04052323343D

 88 97  0     1  0  0  0  0  0999 V2000
  -30.8693  -24.1867   14.2513 C   0  0  0  0  0  0  0  0  0  0  0  0
  -30.1759  -23.4667   15.2188 C   0  0  0  0  0  0  0  0  0  0  0  0
  -24.5759   -9.1318   22.3577 C   0  0  0  0  0  0  0  0  0  0  0  0
  -24.6110   -7.9777   20.2354 C   0  0  0  0  0  0  0  0  0  0  0  0
  -31.3010  -25.4839   14.5254 C   0  0  0  0  0  0  0  0  0  0  0  0
  -29.9146  -24.0430   16.4614 C   0  0  0  0  0  0  0  0  0  0  0  0
  -24.9448  -23.1992   19.9391 C   0  0  0  0  0  0  0  0  0  0  0  0
  -23.2199   -8.8361   22.4961 C   0  0  0  0  0  0  0  0  0  0  0  0
  -23.2549   -7.6820   20.3738 C   0  0  0  0  0  0  0  0  0  0  0  0
  -24.6977  -22.3785   21.0387 C   0  0  0  0  0  0  0  0  0  0  0  0
  -21.3283   -6.1825   23.3978 C   0  0  0  0  0  0  0  0  0  0  0  0
  -20.8897   -5.7157   24.6368 C   0  0  0  0  0  0  0  0  0  0  0  0
  -25.1962  -24.2187   22.5166 C   0  0  0  0  0  0  0  0  0  0  0  0
  -19.3950   -7.6050   24.8196 C   0  0  0  0  0  0  0  0  0  0  0  0
  -25.2715   -8.7026   21.2273 C   0  0  0  0  0  0  0  0  0  0  0  0
  -27.7612   -8.2319   21.5234 C   0  0  0  0  0  0  0  0  0  0  0  0
  -31.0364  -26.0799   15.7685 C   0  0  0  0  0  0  0  0  0  0  0  0
  -25.3306  -24.5351   20.1204 C   0  0  0  0  0  0  0  0  0  0  0  0
  -30.3443  -25.3488   16.7528 C   0  0  0  0  0  0  0  0  0  0  0  0
  -25.4451  -25.0550   21.4176 C   0  0  0  0  0  0  0  0  0  0  0  0
  -22.5593   -8.1112   21.5041 C   0  0  0  0  0  0  0  0  0  0  0  0
  -24.8263  -22.8874   22.3278 C   0  0  0  0  0  0  0  0  0  0  0  0
  -20.8002   -7.3606   22.8696 C   0  0  0  0  0  0  0  0  0  0  0  0
  -19.9231   -6.4269   25.3478 C   0  0  0  0  0  0  0  0  0  0  0  0
  -19.8336   -8.0718   23.5805 C   0  0  0  0  0  0  0  0  0  0  0  0
  -26.6723   -9.0082   21.0835 C   0  0  0  0  0  0  0  0  0  0  0  0
  -28.8694   -8.9519   21.1492 C   0  0  0  0  0  0  0  0  0  0  0  0
  -27.7702   -6.9727   22.2088 C   0  0  0  0  0  0  0  0  0  0  0  0
  -27.9035  -26.2474   19.3773 C   0  0  0  0  0  0  0  0  0  0  0  0
  -26.1102  -28.7074   20.4975 C   0  0  0  0  0  0  0  0  0  0  0  0
  -23.5394  -29.7480   22.4863 C   0  0  0  0  0  0  0  0  0  0  0  0
  -30.6401  -14.4388   20.6563 C   0  0  0  0  0  0  0  0  0  0  0  0
  -31.5643  -27.4672   16.0354 C   0  0  0  0  0  0  0  0  0  0  0  0
  -25.5675  -25.4147   18.9236 C   0  0  0  0  0  0  0  0  0  0  0  0
  -25.8369  -26.4880   21.6659 C   0  0  0  0  0  0  0  0  0  0  0  0
  -30.9200  -28.1420   17.2437 C   0  0  0  0  0  0  0  0  0  0  0  0
  -29.7983  -12.4811   17.8408 C   0  0  0  0  0  0  0  0  0  0  0  0
  -30.8712  -27.1822   18.4282 C   0  0  0  0  0  0  0  0  0  0  0  0
  -28.9842  -11.3249   18.4149 C   0  0  0  0  0  0  0  0  0  0  0  0
  -30.6871  -16.0160   24.0058 C   0  0  0  0  0  0  0  0  0  0  0  0
  -26.7384  -17.7020   24.2209 C   0  0  0  0  0  0  0  0  0  0  0  0
  -29.4866  -13.7781   18.5749 C   0  0  0  0  0  0  0  0  0  0  0  0
  -31.3362  -15.7042   22.6650 C   0  0  0  0  0  0  0  0  0  0  0  0
  -28.9500  -12.5398   20.6552 C   0  0  0  0  0  0  0  0  0  0  0  0
  -29.1194  -14.7764   22.6974 C   0  0  0  0  0  0  0  0  0  0  0  0
  -26.0526  -18.6928   25.1462 C   0  0  0  0  0  0  0  0  0  0  0  0
  -27.7004  -20.4647   24.4858 C   0  0  0  0  0  0  0  0  0  0  0  0
  -30.0200  -25.9485   18.1039 C   0  0  1  0  0  0  0  0  0  0  0  0
  -26.4544  -26.6171   19.2319 C   0  0  1  0  0  0  0  0  0  0  0  0
  -28.4066  -19.4829   23.5484 C   0  0  2  0  0  0  0  0  0  0  0  0
  -29.2094  -11.2030   19.9300 C   0  0  1  0  0  0  0  0  0  0  0  0
  -29.1967  -15.9240   23.6971 C   0  0  2  0  0  0  0  0  0  0  0  0
  -28.2171  -18.0345   24.0274 C   0  0  2  0  0  0  0  0  0  0  0  0
  -22.3354  -31.8222   23.2249 C   0  0  0  0  0  0  0  0  0  0  0  0
  -28.4356  -29.3948   22.3495 C   0  0  0  0  0  0  0  0  0  0  0  0
  -26.8627  -30.8144   23.6832 C   0  0  0  0  0  0  0  0  0  0  0  0
  -27.3223  -31.3706   21.2953 C   0  0  0  0  0  0  0  0  0  0  0  0
  -31.8567  -22.4732   21.5002 C   0  0  0  0  0  0  0  0  0  0  0  0
  -20.9753  -28.8045   21.3488 C   0  0  0  0  0  0  0  0  0  0  0  0
  -29.8875  -19.8544   23.4336 C   0  0  0  0  0  0  0  0  0  0  0  0
  -25.4745  -21.1026   25.4128 C   0  0  0  0  0  0  0  0  0  0  0  0
  -30.0774  -21.0276   22.4918 C   0  0  0  0  0  0  0  0  0  0  0  0
  -25.3111  -22.3704   24.5979 C   0  0  0  0  0  0  0  0  0  1  0  0
  -25.9035  -29.3519   21.8469 C   0  0  1  0  0  0  0  0  0  0  0  0
  -22.3735  -30.6826   22.2186 C   0  0  2  0  0  0  0  0  0  0  0  0
  -27.1255  -30.2054   22.2894 C   0  0  0  0  0  0  0  0  0  0  0  0
  -27.0541  -10.1350   20.4765 N   0  0  0  0  0  0  0  0  0  0  0  0
  -28.3954  -10.0721   20.5324 N   0  0  0  0  0  0  0  0  0  0  0  0
  -26.0640  -27.3065   20.4634 N   0  0  0  0  0  0  0  0  0  0  0  0
  -29.6798  -13.6446   20.0200 N   0  0  0  0  0  0  0  0  0  0  0  0
  -30.3925  -14.8352   21.9703 N   0  0  0  0  0  0  0  0  0  0  0  0
  -30.1934   -8.7297   21.2911 N   0  0  0  0  0  0  0  0  0  0  0  0
  -26.5425   -6.3708   22.5167 N   0  0  0  0  0  0  0  0  0  0  0  0
  -28.6115  -26.2693   18.1908 N   0  0  0  0  0  0  0  0  0  0  0  0
  -24.6542  -30.0998   21.7550 N   0  0  0  0  0  0  0  0  0  0  0  0
  -26.2417  -20.0900   24.6072 N   0  3  2  0  0  0  0  0  0  0  0  0
  -31.5272  -21.3161   22.3771 N   0  3  0  0  0  0  0  0  0  0  0  0
  -21.0844  -29.9394   22.3012 N   0  3  0  0  0  0  0  0  0  0  0  0
  -28.8351   -6.4061   22.5531 O   0  0  0  0  0  0  0  0  0  0  0  0
  -28.3467  -25.9647   20.4842 O   0  0  0  0  0  0  0  0  0  0  0  0
  -26.2984  -29.4208   19.5090 O   0  0  0  0  0  0  0  0  0  0  0  0
  -23.4695  -28.8029   23.2688 O   0  0  0  0  0  0  0  0  0  0  0  0
  -31.6588  -14.8156   20.0612 O   0  0  0  0  0  0  0  0  0  0  0  0
  -21.2361   -7.8224   21.6390 O   0  0  0  0  0  0  0  0  0  0  0  0
  -24.5846  -22.0826   23.4106 O   0  0  0  0  0  0  0  0  0  1  0  0
  -28.7418  -17.1193   23.0755 O   0  0  0  0  0  0  0  0  0  0  0  0
  -19.5009   -5.9776   26.5369 F   0  0  0  0  0  0  0  0  0  0  0  0
  -19.3217   -9.2036   23.0777 F   0  0  0  0  0  0  0  0  0  0  0  0
  1  2  1  0  0  0  0
  1  5  2  0  0  0  0
  2  6  2  0  0  0  0
  3  8  2  0  0  0  0
  3 15  1  0  0  0  0
  4  9  1  0  0  0  0
  4 15  2  0  0  0  0
  5 17  1  0  0  0  0
  6 19  1  0  0  0  0
  7 10  2  0  0  0  0
  7 18  1  0  0  0  0
  8 21  1  0  0  0  0
  9 21  2  0  0  0  0
 10 22  1  0  0  0  0
 11 12  2  0  0  0  0
 11 23  1  0  0  0  0
 12 24  1  0  0  0  0
 13 20  1  0  0  0  0
 13 22  2  0  0  0  0
 14 24  2  0  0  0  0
 14 25  1  0  0  0  0
 15 26  1  0  0  0  0
 16 26  1  0  0  0  0
 16 27  2  0  0  0  0
 16 28  1  0  0  0  0
 17 19  2  0  0  0  0
 17 33  1  0  0  0  0
 18 20  2  0  0  0  0
 18 34  1  0  0  0  0
 19 48  1  0  0  0  0
 20 35  1  0  0  0  0
 21 84  1  0  0  0  0
 22 85  1  0  0  0  0
 23 25  2  0  0  0  0
 23 84  1  0  0  0  0
 24 87  1  0  0  0  0
 25 88  1  0  0  0  0
 26 67  2  0  0  0  0
 27 68  1  0  0  0  0
 27 72  1  0  0  0  0
 28 73  1  0  0  0  0
 28 79  2  0  0  0  0
 29 49  1  0  0  0  0
 29 74  1  0  0  0  0
 29 80  2  0  0  0  0
 30 64  1  0  0  0  0
 30 69  1  0  0  0  0
 30 81  2  0  0  0  0
 31 65  1  0  0  0  0
 31 75  1  0  0  0  0
 31 82  2  0  0  0  0
 32 70  1  0  0  0  0
 32 71  1  0  0  0  0
 32 83  2  0  0  0  0
 33 36  1  0  0  0  0
 34 49  1  0  0  0  0
 35 69  1  0  0  0  0
 36 38  1  0  0  0  0
 37 39  1  0  0  0  0
 37 42  1  0  0  0  0
 38 48  1  0  0  0  0
 39 51  1  0  0  0  0
 40 43  1  0  0  0  0
 40 52  1  0  0  0  0
 41 46  1  0  0  0  0
 41 53  1  0  0  0  0
 42 70  1  0  0  0  0
 43 71  1  0  0  0  0
 44 51  1  0  0  0  0
 44 70  1  0  0  0  0
 45 52  1  0  0  0  0
 45 71  1  0  0  0  0
 46 76  1  0  0  0  0
 47 50  1  0  0  0  0
 47 76  1  0  0  0  0
 48 74  1  0  0  0  0
 49 69  1  0  0  0  0
 50 53  1  0  0  0  0
 50 60  1  0  0  0  0
 51 68  1  0  0  0  0
 52 86  1  0  0  0  0
 53 86  1  0  0  0  0
 54 65  1  0  0  0  0
 55 66  1  0  0  0  0
 56 66  1  0  0  0  0
 57 66  1  0  0  0  0
 58 77  1  0  0  0  0
 59 78  1  0  0  0  0
 60 62  1  0  0  0  0
 61 63  1  0  0  0  0
 61 76  1  0  0  0  0
 62 77  1  0  0  0  0
 63 85  1  0  0  0  0
 64 66  1  0  0  0  0
 64 75  1  0  0  0  0
 65 78  1  0  0  0  0
 67 68  1  0  0  0  0
M  CHG  3  76   1  77   1  78   1
M  ISO  4  32 100  63 101  71 100  85 101
M  END
> <Batch ID>
0194

> <Smiles>
CNCCC1CN(C[101CH2:1][101O:1]c2ccc3c(c2)CN(C(=O)C(NC(=O)C(C)NC)C(C)(C)C)C(C(=O)NC2CCCc4ccccc42)C3)CCC1OC1CC[100N:0]([100C:0](=O)N2CCCC(n3nc(-c4ccc(Oc5ccc(F)cc5F)cc4)c(C(N)=O)c3N)C2)C1

> <Shape>
0.211

> <Color>
0.082

> <Negative vol penalty>
0.000

$$$$

  -OEChem-04052323343D

 85 94  0     1  0  0  0  0  0999 V2000
  -29.7142  -11.7285   20.1569 C   0  0  0  0  0  0  0  0  0  0  0  0
  -29.8583  -13.1113   20.1063 C   0  0  0  0  0  0  0  0  0  0  0  0
  -19.6144  -28.5118   23.7782 C   0  0  0  0  0  0  0  0  0  0  0  0
  -20.1515  -26.9801   21.9886 C   0  0  0  0  0  0  0  0  0  0  0  0
  -28.4889  -11.1443   19.8388 C   0  0  0  0  0  0  0  0  0  0  0  0
  -28.7773  -13.9107   19.7364 C   0  0  0  0  0  0  0  0  0  0  0  0
  -28.2309  -17.9506   22.7407 C   0  0  0  0  0  0  0  0  0  0  0  0
  -18.2581  -28.2336   23.6093 C   0  0  0  0  0  0  0  0  0  0  0  0
  -18.7951  -26.7018   21.8197 C   0  0  0  0  0  0  0  0  0  0  0  0
  -29.0912  -19.0262   22.5241 C   0  0  0  0  0  0  0  0  0  0  0  0
  -16.4346  -24.8129   23.3300 C   0  0  0  0  0  0  0  0  0  0  0  0
  -16.0621  -23.4768   23.1828 C   0  0  0  0  0  0  0  0  0  0  0  0
  -27.3513  -20.1632   21.2996 C   0  0  0  0  0  0  0  0  0  0  0  0
  -15.1279  -23.9765   21.0114 C   0  0  0  0  0  0  0  0  0  0  0  0
  -29.0768  -25.5628   17.9761 C   0  0  0  0  0  0  0  0  0  0  0  0
  -20.5611  -27.8850   22.9678 C   0  0  0  0  0  0  0  0  0  0  0  0
  -22.8691  -27.5037   23.9855 C   0  0  0  0  0  0  0  0  0  0  0  0
  -27.3896  -11.9376   19.4742 C   0  0  0  0  0  0  0  0  0  0  0  0
  -26.9258  -17.9686   22.2282 C   0  0  0  0  0  0  0  0  0  0  0  0
  -27.5364  -13.3365   19.4118 C   0  0  0  0  0  0  0  0  0  0  0  0
  -26.4757  -19.0878   21.5134 C   0  0  0  0  0  0  0  0  0  0  0  0
  -17.8484  -27.3287   22.6301 C   0  0  0  0  0  0  0  0  0  0  0  0
  -28.6524  -20.1315   21.8010 C   0  0  0  0  0  0  0  0  0  0  0  0
  -16.1538  -25.7308   22.3179 C   0  0  0  0  0  0  0  0  0  0  0  0
  -15.4088  -23.0586   22.0235 C   0  0  0  0  0  0  0  0  0  0  0  0
  -15.5005  -25.3126   21.1586 C   0  0  0  0  0  0  0  0  0  0  0  0
  -21.9624  -28.1724   23.1414 C   0  0  0  0  0  0  0  0  0  0  0  0
  -29.5273  -24.5933   19.9977 C   0  0  0  0  0  0  0  0  0  0  0  0
  -28.6583  -26.7074   18.6182 C   0  0  0  0  0  0  0  0  0  0  0  0
  -29.1096  -25.7381   20.6399 C   0  0  0  0  0  0  0  0  0  0  0  0
  -24.0638  -28.1518   23.7882 C   0  0  0  0  0  0  0  0  0  0  0  0
  -22.6508  -26.3958   24.8690 C   0  0  0  0  0  0  0  0  0  0  0  0
  -25.3064  -16.1882   20.1518 C   0  0  0  0  0  0  0  0  0  0  0  0
  -22.8196  -18.0467   21.0920 C   0  0  0  0  0  0  0  0  0  0  0  0
  -21.7531  -20.9990   22.4313 C   0  0  0  0  0  0  0  0  0  0  0  0
  -26.1145  -31.3716   19.1512 C   0  0  0  0  0  0  0  0  0  0  0  0
  -26.0983  -11.2577   19.0932 C   0  0  0  0  0  0  0  0  0  0  0  0
  -26.0015  -16.8120   22.4935 C   0  0  0  0  0  0  0  0  0  0  0  0
  -25.0772  -19.1651   20.9594 C   0  0  0  0  0  0  0  0  0  0  0  0
  -24.8969  -12.1992   19.0739 C   0  0  0  0  0  0  0  0  0  0  0  0
  -25.8778  -32.4044   22.5888 C   0  0  0  0  0  0  0  0  0  0  0  0
  -25.2416  -13.4895   18.3367 C   0  0  0  0  0  0  0  0  0  0  0  0
  -24.8957  -31.3971   23.1861 C   0  0  0  0  0  0  0  0  0  0  0  0
  -25.5335  -32.7274   21.1384 C   0  0  0  0  0  0  0  0  0  0  0  0
  -24.4631  -30.5080   20.8523 C   0  0  0  0  0  0  0  0  0  0  0  0
  -26.3814  -28.9015   19.0704 C   0  0  0  0  0  0  0  0  0  0  0  0
  -27.0573  -29.9193   17.3678 C   0  0  0  0  0  0  0  0  0  0  0  0
  -26.3802  -14.2389   19.0392 C   0  0  1  0  0  0  0  0  0  0  0  0
  -24.8601  -16.7160   21.4859 C   0  0  1  0  0  0  0  0  0  0  0  0
  -24.7957  -30.1369   22.3079 C   0  0  2  0  0  0  0  0  0  0  0  0
  -27.7562  -29.0133   18.3929 C   0  0  0  0  0  0  0  0  0  0  0  0
  -19.6613  -22.2438   23.0411 C   0  0  0  0  0  0  0  0  0  0  0  0
  -22.3368  -18.6740   18.1453 C   0  0  0  0  0  0  0  0  0  0  0  0
  -20.9090  -20.6018   18.8615 C   0  0  0  0  0  0  0  0  0  0  0  0
  -20.2604  -18.2740   19.4805 C   0  0  0  0  0  0  0  0  0  0  0  0
  -24.6368  -29.9871   17.7367 C   0  0  0  0  0  0  0  0  0  0  0  0
  -22.5145  -21.1116   25.2890 C   0  0  0  0  0  0  0  0  0  0  0  0
  -30.0216  -23.3880   20.7600 C   0  0  0  0  0  0  0  0  0  0  0  0
  -28.9748  -22.2821   20.8383 C   0  0  0  0  0  0  0  0  0  1  0  0
  -22.2321  -19.3591   20.6324 C   0  0  1  0  0  0  0  0  0  0  0  0
  -20.7511  -21.3028   23.5304 C   0  0  2  0  0  0  0  0  0  0  0  0
  -21.4616  -19.2253   19.2886 C   0  0  0  0  0  0  0  0  0  0  0  0
  -29.5188  -24.4852   18.6543 N   0  0  0  0  0  0  0  0  0  0  0  0
  -22.5323  -29.1690   22.4587 N   0  0  0  0  0  0  0  0  0  0  0  0
  -28.6673  -26.8156   19.9616 N   0  0  0  0  0  0  0  0  0  0  0  0
  -23.8100  -29.1314   22.8737 N   0  0  0  0  0  0  0  0  0  0  0  0
  -24.2133  -18.0065   21.2399 N   0  0  0  0  0  0  0  0  0  0  0  0
  -25.4062  -31.5082   20.3420 N   0  0  0  0  0  0  0  0  0  0  0  0
  -25.2963  -27.9738   24.3095 N   0  0  0  0  0  0  0  0  0  0  0  0
  -21.3625  -25.8500   24.9506 N   0  0  0  0  0  0  0  0  0  0  0  0
  -28.2095  -27.7914   17.8315 N   0  0  0  0  0  0  0  0  0  0  0  0
  -25.8829  -14.9336   20.2073 N   0  0  0  0  0  0  0  0  0  0  0  0
  -21.4208  -19.8533   21.7397 N   0  0  0  0  0  0  0  0  0  0  0  0
  -25.9783  -30.1477   18.3655 N   0  3  0  0  0  0  0  0  0  0  0  0
  -21.4339  -21.9384   24.6926 N   0  3  0  0  0  0  0  0  0  0  0  0
  -23.5673  -25.9149   25.5777 O   0  0  0  0  0  0  0  0  0  0  0  0
  -25.1388  -16.8683   19.1462 O   0  0  0  0  0  0  0  0  0  0  0  0
  -22.0689  -17.0944   21.3186 O   0  0  0  0  0  0  0  0  0  0  0  0
  -22.7306  -21.7091   22.2062 O   0  0  0  0  0  0  0  0  0  0  0  0
  -26.8747  -32.2024   18.6672 O   0  0  0  0  0  0  0  0  0  0  0  0
  -16.5250  -27.0568   22.4652 O   0  0  0  0  0  0  0  0  0  0  0  0
  -29.4902  -21.1824   21.5875 O   0  0  0  0  0  0  0  0  0  1  0  0
  -15.0525  -21.7752   21.8817 F   0  0  0  0  0  0  0  0  0  0  0  0
  -15.2290  -26.1896   20.1824 F   0  0  0  0  0  0  0  0  0  0  0  0
  -29.1050  -25.9169   22.3451 Cl  0  0  0  0  0  0  0  0  0  0  0  0
  1  2  1  0  0  0  0
  1  5  2  0  0  0  0
  2  6  2  0  0  0  0
  3  8  2  0  0  0  0
  3 16  1  0  0  0  0
  4  9  1  0  0  0  0
  4 16  2  0  0  0  0
  5 18  1  0  0  0  0
  6 20  1  0  0  0  0
  7 10  2  0  0  0  0
  7 19  1  0  0  0  0
  8 22  1  0  0  0  0
  9 22  2  0  0  0  0
 10 23  1  0  0  0  0
 11 12  2  0  0  0  0
 11 24  1  0  0  0  0
 12 25  1  0  0  0  0
 13 21  1  0  0  0  0
 13 23  2  0  0  0  0
 14 25  2  0  0  0  0
 14 26  1  0  0  0  0
 15 29  1  0  0  0  0
 15 63  2  0  0  0  0
 16 27  1  0  0  0  0
 17 27  1  0  0  0  0
 17 31  2  0  0  0  0
 17 32  1  0  0  0  0
 18 20  2  0  0  0  0
 18 37  1  0  0  0  0
 19 21  2  0  0  0  0
 19 38  1  0  0  0  0
 20 48  1  0  0  0  0
 21 39  1  0  0  0  0
 22 81  1  0  0  0  0
 23 82  1  0  0  0  0
 24 26  2  0  0  0  0
 24 81  1  0  0  0  0
 25 83  1  0  0  0  0
 26 84  1  0  0  0  0
 27 64  2  0  0  0  0
 28 30  2  0  0  0  0
 28 58  1  0  0  0  0
 28 63  1  0  0  0  0
 29 65  2  0  0  0  0
 29 71  1  0  0  0  0
 30 65  1  0  0  0  0
 30 85  1  0  0  0  0
 31 66  1  0  0  0  0
 31 69  1  0  0  0  0
 32 70  1  0  0  0  0
 32 76  2  0  0  0  0
 33 49  1  0  0  0  0
 33 72  1  0  0  0  0
 33 77  2  0  0  0  0
 34 60  1  0  0  0  0
 34 67  1  0  0  0  0
 34 78  2  0  0  0  0
 35 61  1  0  0  0  0
 35 73  1  0  0  0  0
 35 79  2  0  0  0  0
 36 68  1  0  0  0  0
 36 74  1  0  0  0  0
 36 80  2  0  0  0  0
 37 40  1  0  0  0  0
 38 49  1  0  0  0  0
 39 67  1  0  0  0  0
 40 42  1  0  0  0  0
 41 43  1  0  0  0  0
 41 44  1  0  0  0  0
 42 48  1  0  0  0  0
 43 50  1  0  0  0  0
 44 68  1  0  0  0  0
 45 50  1  0  0  0  0
 45 68  1  0  0  0  0
 46 51  1  0  0  0  0
 46 74  1  0  0  0  0
 47 51  1  0  0  0  0
 47 74  1  0  0  0  0
 48 72  1  0  0  0  0
 49 67  1  0  0  0  0
 50 66  1  0  0  0  0
 51 71  1  0  0  0  0
 52 61  1  0  0  0  0
 53 62  1  0  0  0  0
 54 62  1  0  0  0  0
 55 62  1  0  0  0  0
 56 74  1  0  0  0  0
 57 75  1  0  0  0  0
 58 59  1  0  0  0  0
 59 82  1  0  0  0  0
 60 62  1  0  0  0  0
 60 73  1  0  0  0  0
 61 75  1  0  0  0  0
 64 66  1  0  0  0  0
M  CHG  2  74   1  75   1
M  ISO  4  36 100  59 101  74 100  82 101
M  END
> <Batch ID>
0194

> <Smiles>
CNC(C)C(=O)NC(C(=O)N1Cc2cc([101O:1][101CH2:1]Cc3ncc(NC4C[100N+:0](C)([100C:0](=O)N5CCCC(n6nc(-c7ccc(Oc8ccc(F)cc8F)cc7)c(C(N)=O)c6N)C5)C4)nc3Cl)ccc2CC1C(=O)NC1CCCc2ccccc21)C(C)(C)C

> <Shape>
0.210

> <Color>
0.072

> <Negative vol penalty>
0.000

$$$$

  -OEChem-04052323343D

 85 94  0     1  0  0  0  0  0999 V2000
  -25.3038  -34.0922   14.9180 C   0  0  0  0  0  0  0  0  0  0  0  0
  -25.9075  -32.8392   14.9483 C   0  0  0  0  0  0  0  0  0  0  0  0
  -22.9837  -10.3093   19.8864 C   0  0  0  0  0  0  0  0  0  0  0  0
  -23.7342   -9.7428   22.1119 C   0  0  0  0  0  0  0  0  0  0  0  0
  -25.1071  -34.7987   16.1038 C   0  0  0  0  0  0  0  0  0  0  0  0
  -26.3158  -32.2924   16.1643 C   0  0  0  0  0  0  0  0  0  0  0  0
  -26.2476  -26.3773   17.7494 C   0  0  0  0  0  0  0  0  0  0  0  0
  -22.0930   -9.2362   19.9135 C   0  0  0  0  0  0  0  0  0  0  0  0
  -22.8435   -8.6697   22.1391 C   0  0  0  0  0  0  0  0  0  0  0  0
  -27.2403  -25.3985   17.7637 C   0  0  0  0  0  0  0  0  0  0  0  0
  -19.3653   -6.8626   19.5385 C   0  0  0  0  0  0  0  0  0  0  0  0
  -18.0655   -7.0869   19.0848 C   0  0  0  0  0  0  0  0  0  0  0  0
  -27.6272  -25.8338   20.1047 C   0  0  0  0  0  0  0  0  0  0  0  0
  -17.7610   -8.7713   20.7898 C   0  0  0  0  0  0  0  0  0  0  0  0
  -31.5160  -22.6259   17.5969 C   0  0  0  0  0  0  0  0  0  0  0  0
  -23.8043  -10.5626   20.9855 C   0  0  0  0  0  0  0  0  0  0  0  0
  -24.4782  -12.9916   21.3775 C   0  0  0  0  0  0  0  0  0  0  0  0
  -25.5045  -34.2562   17.3360 C   0  0  0  0  0  0  0  0  0  0  0  0
  -25.9441  -27.1005   18.9119 C   0  0  0  0  0  0  0  0  0  0  0  0
  -26.1255  -32.9930   17.3675 C   0  0  0  0  0  0  0  0  0  0  0  0
  -26.6283  -26.8194   20.1031 C   0  0  0  0  0  0  0  0  0  0  0  0
  -32.1329  -21.4828   18.0434 C   0  0  0  0  0  0  0  0  0  0  0  0
  -22.0229   -8.4164   21.0398 C   0  0  0  0  0  0  0  0  0  0  0  0
  -27.9323  -25.1287   18.9408 C   0  0  0  0  0  0  0  0  0  0  0  0
  -19.8629   -7.5926   20.6180 C   0  0  0  0  0  0  0  0  0  0  0  0
  -17.2634   -8.0413   19.7104 C   0  0  0  0  0  0  0  0  0  0  0  0
  -19.0608   -8.5470   21.2436 C   0  0  0  0  0  0  0  0  0  0  0  0
  -24.7249  -11.6707   20.9578 C   0  0  0  0  0  0  0  0  0  0  0  0
  -31.1090  -20.7559   18.6798 C   0  0  0  0  0  0  0  0  0  0  0  0
  -25.6607  -13.6514   21.1476 C   0  0  0  0  0  0  0  0  0  0  0  0
  -23.2867  -13.5704   21.9262 C   0  0  0  0  0  0  0  0  0  0  0  0
  -26.0746  -30.1651   19.7453 C   0  0  0  0  0  0  0  0  0  0  0  0
  -24.6294  -29.0903   22.4431 C   0  0  0  0  0  0  0  0  0  0  0  0
  -24.0105  -26.4830   24.5563 C   0  0  0  0  0  0  0  0  0  0  0  0
  -29.8440  -14.5738   17.4053 C   0  0  0  0  0  0  0  0  0  0  0  0
  -25.3138  -35.0779   18.5863 C   0  0  0  0  0  0  0  0  0  0  0  0
  -24.8520  -28.1344   18.8864 C   0  0  0  0  0  0  0  0  0  0  0  0
  -26.3265  -27.5535   21.3831 C   0  0  0  0  0  0  0  0  0  0  0  0
  -25.4355  -34.2660   19.8732 C   0  0  0  0  0  0  0  0  0  0  0  0
  -30.2456  -11.9116   19.9513 C   0  0  0  0  0  0  0  0  0  0  0  0
  -26.6641  -33.3634   19.8208 C   0  0  0  0  0  0  0  0  0  0  0  0
  -28.8083  -11.6758   20.4123 C   0  0  0  0  0  0  0  0  0  0  0  0
  -30.3031  -12.4171   18.5132 C   0  0  0  0  0  0  0  0  0  0  0  0
  -29.8308  -16.9661   16.7697 C   0  0  0  0  0  0  0  0  0  0  0  0
  -28.0445  -13.4031   18.7338 C   0  0  0  0  0  0  0  0  0  0  0  0
  -28.9221  -16.3402   18.9742 C   0  0  0  0  0  0  0  0  0  0  0  0
  -30.8536  -17.8916   17.4084 C   0  0  0  0  0  0  0  0  0  0  0  0
  -26.5597  -32.3557   18.6696 C   0  0  1  0  0  0  0  0  0  0  0  0
  -24.9810  -29.1672   20.0018 C   0  0  1  0  0  0  0  0  0  0  0  0
  -27.9500  -12.9336   20.1936 C   0  0  1  0  0  0  0  0  0  0  0  0
  -29.9241  -17.2574   19.6913 C   0  0  1  0  0  0  0  0  0  0  0  0
  -33.5494  -21.1126   17.8855 C   0  0  0  0  0  0  0  0  0  0  0  0
  -31.1400  -16.4920   20.2131 C   0  0  0  0  0  0  0  0  0  0  0  0
  -22.8278  -25.9202   26.6969 C   0  0  0  0  0  0  0  0  0  0  0  0
  -26.8534  -30.4521   24.0272 C   0  0  0  0  0  0  0  0  0  0  0  0
  -26.1764  -29.0895   26.0154 C   0  0  0  0  0  0  0  0  0  0  0  0
  -24.5671  -30.7075   25.0080 C   0  0  0  0  0  0  0  0  0  0  0  0
  -22.2541  -24.5211   23.2055 C   0  0  0  0  0  0  0  0  0  0  0  0
  -31.2126  -19.4203   19.3553 C   0  0  0  0  0  0  0  0  0  0  0  0
  -29.1651  -23.4824   17.7333 C   0  0  0  0  0  0  0  0  0  1  0  0
  -25.1073  -28.5669   23.7760 C   0  0  1  0  0  0  0  0  0  0  0  0
  -22.7230  -25.9762   25.1807 C   0  0  2  0  0  0  0  0  0  0  0  0
  -25.6833  -29.6913   24.6822 C   0  0  0  0  0  0  0  0  0  0  0  0
  -25.9665  -11.4997   20.4962 N   0  0  0  0  0  0  0  0  0  0  0  0
  -29.9310  -21.3846   18.6432 N   0  0  0  0  0  0  0  0  0  0  0  0
  -30.2110  -22.5185   17.9785 N   0  0  0  0  0  0  0  0  0  0  0  0
  -26.5106  -12.7219   20.6243 N   0  0  0  0  0  0  0  0  0  0  0  0
  -25.2545  -28.5597   21.3058 N   0  0  0  0  0  0  0  0  0  0  0  0
  -29.4439  -13.5851   18.3191 N   0  0  0  0  0  0  0  0  0  0  0  0
  -29.4406  -15.8898   17.6766 N   0  0  0  0  0  0  0  0  0  0  0  0
  -26.0459  -14.9302   21.3440 N   0  0  0  0  0  0  0  0  0  0  0  0
  -22.1626  -12.7506   22.0958 N   0  0  0  0  0  0  0  0  0  0  0  0
  -25.6683  -31.2725   19.0255 N   0  0  0  0  0  0  0  0  0  0  0  0
  -23.9804  -27.8474   24.3598 N   0  0  0  0  0  0  0  0  0  0  0  0
  -30.3214  -18.3769   18.7383 N   0  3  1  0  0  0  0  0  0  0  0  0
  -22.4082  -24.6081   24.6805 N   0  3  0  0  0  0  0  0  0  0  0  0
  -23.2157  -14.7825   22.2410 O   0  0  0  0  0  0  0  0  0  0  0  0
  -27.2032  -29.9473   20.1702 O   0  0  0  0  0  0  0  0  0  0  0  0
  -23.7295  -29.9334   22.4119 O   0  0  0  0  0  0  0  0  0  0  0  0
  -24.9506  -25.7430   24.2748 O   0  0  0  0  0  0  0  0  0  0  0  0
  -30.5268  -14.2969   16.4111 O   0  0  0  0  0  0  0  0  0  0  0  0
  -21.1538   -7.3693   21.0668 O   0  0  0  0  0  0  0  0  0  0  0  0
  -28.9086  -24.1681   18.9575 O   0  0  0  0  0  0  0  0  0  1  0  0
  -16.0158   -8.2577   19.2735 F   0  0  0  0  0  0  0  0  0  0  0  0
  -19.5337   -9.2522   22.2803 F   0  0  0  0  0  0  0  0  0  0  0  0
  1  2  1  0  0  0  0
  1  5  2  0  0  0  0
  2  6  2  0  0  0  0
  3  8  2  0  0  0  0
  3 16  1  0  0  0  0
  4  9  1  0  0  0  0
  4 16  2  0  0  0  0
  5 18  1  0  0  0  0
  6 20  1  0  0  0  0
  7 10  2  0  0  0  0
  7 19  1  0  0  0  0
  8 23  1  0  0  0  0
  9 23  2  0  0  0  0
 10 24  1  0  0  0  0
 11 12  2  0  0  0  0
 11 25  1  0  0  0  0
 12 26  1  0  0  0  0
 13 21  1  0  0  0  0
 13 24  2  0  0  0  0
 14 26  2  0  0  0  0
 14 27  1  0  0  0  0
 15 22  2  0  0  0  0
 15 66  1  0  0  0  0
 16 28  1  0  0  0  0
 17 28  1  0  0  0  0
 17 30  2  0  0  0  0
 17 31  1  0  0  0  0
 18 20  2  0  0  0  0
 18 36  1  0  0  0  0
 19 21  2  0  0  0  0
 19 37  1  0  0  0  0
 20 48  1  0  0  0  0
 21 38  1  0  0  0  0
 22 29  1  0  0  0  0
 22 52  1  0  0  0  0
 23 82  1  0  0  0  0
 24 83  1  0  0  0  0
 25 27  2  0  0  0  0
 25 82  1  0  0  0  0
 26 84  1  0  0  0  0
 27 85  1  0  0  0  0
 28 64  2  0  0  0  0
 29 59  1  0  0  0  0
 29 65  2  0  0  0  0
 30 67  1  0  0  0  0
 30 71  1  0  0  0  0
 31 72  1  0  0  0  0
 31 77  2  0  0  0  0
 32 49  1  0  0  0  0
 32 73  1  0  0  0  0
 32 78  2  0  0  0  0
 33 61  1  0  0  0  0
 33 68  1  0  0  0  0
 33 79  2  0  0  0  0
 34 62  1  0  0  0  0
 34 74  1  0  0  0  0
 34 80  2  0  0  0  0
 35 69  1  0  0  0  0
 35 70  1  0  0  0  0
 35 81  2  0  0  0  0
 36 39  1  0  0  0  0
 37 49  1  0  0  0  0
 38 68  1  0  0  0  0
 39 41  1  0  0  0  0
 40 42  1  0  0  0  0
 40 43  1  0  0  0  0
 41 48  1  0  0  0  0
 42 50  1  0  0  0  0
 43 69  1  0  0  0  0
 44 47  1  0  0  0  0
 44 70  1  0  0  0  0
 45 50  1  0  0  0  0
 45 69  1  0  0  0  0
 46 51  1  0  0  0  0
 46 70  1  0  0  0  0
 47 75  1  0  0  0  0
 48 73  1  0  0  0  0
 49 68  1  0  0  0  0
 50 67  1  0  0  0  0
 51 53  1  0  0  0  0
 51 75  1  0  0  0  0
 54 62  1  0  0  0  0
 55 63  1  0  0  0  0
 56 63  1  0  0  0  0
 57 63  1  0  0  0  0
 58 76  1  0  0  0  0
 59 75  1  0  0  0  0
 60 66  1  0  0  0  0
 60 83  1  0  0  0  0
 61 63  1  0  0  0  0
 61 74  1  0  0  0  0
 62 76  1  0  0  0  0
 64 67  1  0  0  0  0
 65 66  1  0  0  0  0
M  CHG  2  75   1  76   1
M  ISO  4  35 100  60 101  70 100  83 101
M  END
> <Batch ID>
0194

> <Smiles>
CNC(C)C(=O)NC(C(=O)N1Cc2cc([101O:1][101CH2:1]n3cc(C)c(CN4CC[100N:0]([100C:0](=O)N5CCCC(n6nc(-c7ccc(Oc8ccc(F)cc8F)cc7)c(C(N)=O)c6N)C5)CC4C)n3)ccc2CC1C(=O)NC1CCCc2ccccc21)C(C)(C)C

> <Shape>
0.235

> <Color>
0.139

> <Negative vol penalty>
0.000

$$$$

  -OEChem-04052323343D

 90 99  0     1  0  0  0  0  0999 V2000
  -17.6674  -32.5700   24.0033 C   0  0  0  0  0  0  0  0  0  0  0  0
  -19.0101  -32.7471   24.3214 C   0  0  0  0  0  0  0  0  0  0  0  0
  -24.5100  -13.3790   19.9970 C   0  0  0  0  0  0  0  0  0  0  0  0
  -25.4203  -13.7683   22.2008 C   0  0  0  0  0  0  0  0  0  0  0  0
  -17.2227  -31.3394   23.5217 C   0  0  0  0  0  0  0  0  0  0  0  0
  -19.9088  -31.6933   24.1590 C   0  0  0  0  0  0  0  0  0  0  0  0
  -25.7817  -32.0907   22.4687 C   0  0  0  0  0  0  0  0  0  0  0  0
  -24.6418  -12.0033   20.1856 C   0  0  0  0  0  0  0  0  0  0  0  0
  -25.5521  -12.3926   22.3894 C   0  0  0  0  0  0  0  0  0  0  0  0
  -26.9701  -32.0828   23.1977 C   0  0  0  0  0  0  0  0  0  0  0  0
  -24.4026   -8.3761   20.2276 C   0  0  0  0  0  0  0  0  0  0  0  0
  -23.3308   -7.5649   19.8552 C   0  0  0  0  0  0  0  0  0  0  0  0
  -27.2004  -29.7172   22.7852 C   0  0  0  0  0  0  0  0  0  0  0  0
  -21.9066   -8.7265   21.4234 C   0  0  0  0  0  0  0  0  0  0  0  0
  -31.0336  -24.6975   25.2415 C   0  0  0  0  0  0  0  0  0  0  0  0
  -28.4762  -25.6175   24.9990 C   0  0  0  0  0  0  0  0  0  0  0  0
  -24.8993  -14.2616   21.0046 C   0  0  0  0  0  0  0  0  0  0  0  0
  -23.6500  -16.4822   21.1293 C   0  0  0  0  0  0  0  0  0  0  0  0
  -18.1182  -30.2730   23.3442 C   0  0  0  0  0  0  0  0  0  0  0  0
  -25.2872  -30.9078   21.9008 C   0  0  0  0  0  0  0  0  0  0  0  0
  -19.4754  -30.4469   23.6758 C   0  0  0  0  0  0  0  0  0  0  0  0
  -26.0068  -29.7133   22.0473 C   0  0  0  0  0  0  0  0  0  0  0  0
  -29.3535  -26.3230   25.8066 C   0  0  0  0  0  0  0  0  0  0  0  0
  -25.1628  -11.5100   21.3818 C   0  0  0  0  0  0  0  0  0  0  0  0
  -27.6782  -30.8954   23.3584 C   0  0  0  0  0  0  0  0  0  0  0  0
  -24.2264   -9.3625   21.1981 C   0  0  0  0  0  0  0  0  0  0  0  0
  -22.0828   -7.7401   20.4530 C   0  0  0  0  0  0  0  0  0  0  0  0
  -22.9784   -9.5377   21.7959 C   0  0  0  0  0  0  0  0  0  0  0  0
  -30.6548  -25.8476   25.9249 C   0  0  0  0  0  0  0  0  0  0  0  0
  -24.7640  -15.6828   20.8101 C   0  0  0  0  0  0  0  0  0  0  0  0
  -30.0810  -24.0646   24.4593 C   0  0  0  0  0  0  0  0  0  0  0  0
  -24.0189  -17.7508   20.7537 C   0  0  0  0  0  0  0  0  0  0  0  0
  -22.3942  -16.1112   21.7131 C   0  0  0  0  0  0  0  0  0  0  0  0
  -22.6463  -29.1770   22.2668 C   0  0  0  0  0  0  0  0  0  0  0  0
  -23.8716  -27.4944   19.7788 C   0  0  0  0  0  0  0  0  0  0  0  0
  -26.6217  -26.5647   17.9846 C   0  0  0  0  0  0  0  0  0  0  0  0
  -29.3353  -20.4297   20.1127 C   0  0  0  0  0  0  0  0  0  0  0  0
  -17.5821  -28.9471   22.8655 C   0  0  0  0  0  0  0  0  0  0  0  0
  -24.0176  -30.9383   21.0948 C   0  0  0  0  0  0  0  0  0  0  0  0
  -25.5292  -28.4202   21.4404 C   0  0  0  0  0  0  0  0  0  0  0  0
  -18.6670  -27.9954   22.3677 C   0  0  0  0  0  0  0  0  0  0  0  0
  -26.8062  -20.0704   17.6325 C   0  0  0  0  0  0  0  0  0  0  0  0
  -19.8331  -27.9546   23.3502 C   0  0  0  0  0  0  0  0  0  0  0  0
  -25.8955  -18.9773   18.1945 C   0  0  0  0  0  0  0  0  0  0  0  0
  -28.2737  -19.8073   17.9628 C   0  0  0  0  0  0  0  0  0  0  0  0
  -30.0512  -32.2037   27.4092 C   0  0  0  0  0  0  0  0  0  0  0  0
  -27.6470  -18.5005   19.9562 C   0  0  0  0  0  0  0  0  0  0  0  0
  -29.8266  -30.0179   28.2617 C   0  0  0  0  0  0  0  0  0  0  0  0
  -20.4854  -29.3354   23.4899 C   0  0  1  0  0  0  0  0  0  0  0  0
  -23.3404  -29.5749   20.9949 C   0  0  1  0  0  0  0  0  0  0  0  0
  -29.8421  -31.2517   26.2199 C   0  0  1  0  0  0  0  0  0  0  0  0
  -26.1517  -18.7514   19.6967 C   0  0  2  0  0  0  0  0  0  0  0  0
  -29.2462  -30.0023   26.8622 C   0  0  1  0  0  0  0  0  0  0  0  0
  -27.3129  -25.1516   16.0293 C   0  0  0  0  0  0  0  0  0  0  0  0
  -23.5630  -24.9848   21.4865 C   0  0  0  0  0  0  0  0  0  0  0  0
  -25.1050  -23.8043   19.9064 C   0  0  0  0  0  0  0  0  0  0  0  0
  -22.9254  -24.6976   19.0854 C   0  0  0  0  0  0  0  0  0  0  0  0
  -30.3961  -31.8202   29.7908 C   0  0  0  0  0  0  0  0  0  0  0  0
  -27.6716  -28.9083   16.5136 C   0  0  0  0  0  0  0  0  0  0  0  0
  -28.8761  -27.5568   26.5143 C   0  0  0  0  0  0  0  0  0  0  0  0
  -28.9608  -31.8363   25.1263 C   0  0  0  0  0  0  0  0  0  1  0  0
  -29.5954  -22.1519   22.9324 C   0  0  0  0  0  0  0  0  0  0  0  0
  -30.3030  -20.9429   22.3397 C   0  0  0  0  0  0  0  0  0  0  0  0
  -24.7939  -26.3071   19.6421 C   0  0  1  0  0  0  0  0  0  0  0  0
  -26.8874  -26.5370   16.4902 C   0  0  2  0  0  0  0  0  0  0  0  0
  -24.1051  -24.9723   20.0433 C   0  0  0  0  0  0  0  0  0  0  0  0
  -28.8076  -24.4965   24.3198 N   0  0  0  0  0  0  0  0  0  0  0  0
  -25.7654  -16.3847   20.2730 N   0  0  0  0  0  0  0  0  0  0  0  0
  -25.2820  -17.6385   20.2517 N   0  0  0  0  0  0  0  0  0  0  0  0
  -24.2792  -28.5002   20.6666 N   0  0  0  0  0  0  0  0  0  0  0  0
  -28.4488  -19.6032   19.4028 N   0  0  0  0  0  0  0  0  0  0  0  0
  -29.6588  -31.4335   28.5983 N   0  0  1  0  0  0  0  0  0  0  0  0
  -23.3827  -18.9403   20.8072 N   0  0  0  0  0  0  0  0  0  0  0  0
  -22.1803  -14.7648   22.0384 N   0  0  0  0  0  0  0  0  0  0  0  0
  -30.4816  -22.8939   23.7687 N   0  0  0  0  0  0  0  0  0  0  0  0
  -21.3368  -29.6096   22.3521 N   0  0  0  0  0  0  0  0  0  0  0  0
  -25.2930  -26.3336   18.2714 N   0  0  0  0  0  0  0  0  0  0  0  0
  -29.4371  -20.1731   21.4745 N   0  0  0  0  0  0  0  0  0  0  0  0
  -29.6393  -28.7810   26.1341 N   0  3  0  0  0  0  0  0  0  0  0  0
  -27.9674  -27.5017   16.1382 N   0  3  0  0  0  0  0  0  0  0  0  0
  -21.4822  -16.9462   21.9244 O   0  0  0  0  0  0  0  0  0  0  0  0
  -23.2535  -28.5244   23.1077 O   0  0  0  0  0  0  0  0  0  0  0  0
  -22.8314  -27.5315   19.1168 O   0  0  0  0  0  0  0  0  0  0  0  0
  -27.5053  -26.7670   18.8146 O   0  0  0  0  0  0  0  0  0  0  0  0
  -29.9836  -21.3332   19.5739 O   0  0  0  0  0  0  0  0  0  0  0  0
  -25.2913  -10.1676   21.5662 O   0  0  0  0  0  0  0  0  0  0  0  0
  -28.8381  -30.8848   24.0700 O   0  0  0  0  0  0  0  0  0  1  0  0
  -21.0533   -6.9620   20.0941 F   0  0  0  0  0  0  0  0  0  0  0  0
  -22.8028  -10.4845   22.7279 F   0  0  0  0  0  0  0  0  0  0  0  0
  -31.8197  -26.6569   26.9063 Cl  0  0  0  0  0  0  0  0  0  0  0  0
  1  2  1  0  0  0  0
  1  5  2  0  0  0  0
  2  6  2  0  0  0  0
  3  8  2  0  0  0  0
  3 17  1  0  0  0  0
  4  9  1  0  0  0  0
  4 17  2  0  0  0  0
  5 19  1  0  0  0  0
  6 21  1  0  0  0  0
  7 10  2  0  0  0  0
  7 20  1  0  0  0  0
  8 24  1  0  0  0  0
  9 24  2  0  0  0  0
 10 25  1  0  0  0  0
 11 12  2  0  0  0  0
 11 26  1  0  0  0  0
 12 27  1  0  0  0  0
 13 22  1  0  0  0  0
 13 25  2  0  0  0  0
 14 27  2  0  0  0  0
 14 28  1  0  0  0  0
 15 29  1  0  0  0  0
 15 31  2  0  0  0  0
 16 23  1  0  0  0  0
 16 67  2  0  0  0  0
 17 30  1  0  0  0  0
 18 30  1  0  0  0  0
 18 32  2  0  0  0  0
 18 33  1  0  0  0  0
 19 21  2  0  0  0  0
 19 38  1  0  0  0  0
 20 22  2  0  0  0  0
 20 39  1  0  0  0  0
 21 49  1  0  0  0  0
 22 40  1  0  0  0  0
 23 29  2  0  0  0  0
 23 60  1  0  0  0  0
 24 86  1  0  0  0  0
 25 87  1  0  0  0  0
 26 28  2  0  0  0  0
 26 86  1  0  0  0  0
 27 88  1  0  0  0  0
 28 89  1  0  0  0  0
 29 90  1  0  0  0  0
 30 68  2  0  0  0  0
 31 67  1  0  0  0  0
 31 75  1  0  0  0  0
 32 69  1  0  0  0  0
 32 73  1  0  0  0  0
 33 74  1  0  0  0  0
 33 81  2  0  0  0  0
 34 50  1  0  0  0  0
 34 76  1  0  0  0  0
 34 82  2  0  0  0  0
 35 64  1  0  0  0  0
 35 70  1  0  0  0  0
 35 83  2  0  0  0  0
 36 65  1  0  0  0  0
 36 77  1  0  0  0  0
 36 84  2  0  0  0  0
 37 71  1  0  0  0  0
 37 78  1  0  0  0  0
 37 85  2  0  0  0  0
 38 41  1  0  0  0  0
 39 50  1  0  0  0  0
 40 70  1  0  0  0  0
 41 43  1  0  0  0  0
 42 44  1  0  0  0  0
 42 45  1  0  0  0  0
 43 49  1  0  0  0  0
 44 52  1  0  0  0  0
 45 71  1  0  0  0  0
 46 51  1  0  0  0  0
 46 72  1  0  0  0  0
 47 52  1  0  0  0  0
 47 71  1  0  0  0  0
 48 53  1  0  0  0  0
 48 72  1  0  0  0  0
 49 76  1  0  0  0  0
 50 70  1  0  0  0  0
 51 53  1  0  0  0  0
 51 61  1  0  0  0  0
 52 69  1  0  0  0  0
 53 79  1  0  0  0  0
 54 65  1  0  0  0  0
 55 66  1  0  0  0  0
 56 66  1  0  0  0  0
 57 66  1  0  0  0  0
 58 72  1  0  0  0  0
 59 80  1  0  0  0  0
 60 79  1  0  0  0  0
 61 87  1  0  0  0  0
 62 63  1  0  0  0  0
 62 75  1  0  0  0  0
 63 78  1  0  0  0  0
 64 66  1  0  0  0  0
 64 77  1  0  0  0  0
 65 80  1  0  0  0  0
 68 69  1  0  0  0  0
M  CHG  2  79   1  80   1
M  ISO  4  37 100  61 101  78 100  87 101
M  END
> <Batch ID>
0194

> <Smiles>
CNC(C)C(=O)NC(C(=O)N1Cc2cc([101O:1][101CH2:1]C3CN(C)CC3NCc3cnc(NCC[100NH:0][100C:0](=O)N4CCCC(n5nc(-c6ccc(Oc7ccc(F)cc7F)cc6)c(C(N)=O)c5N)C4)cc3Cl)ccc2CC1C(=O)NC1CCCc2ccccc21)C(C)(C)C

> <Shape>
0.234

> <Color>
0.084

> <Negative vol penalty>
0.000

$$$$

  -OEChem-04052323343D

 85 94  0     1  0  0  0  0  0999 V2000
  -27.9526   -5.7884   21.8279 C   0  0  0  0  0  0  0  0  0  0  0  0
  -27.1309   -6.9004   21.9820 C   0  0  0  0  0  0  0  0  0  0  0  0
  -24.9759  -29.8477   23.0805 C   0  0  0  0  0  0  0  0  0  0  0  0
  -26.8790  -31.0371   22.1859 C   0  0  0  0  0  0  0  0  0  0  0  0
  -29.3342   -5.9201   21.9614 C   0  0  0  0  0  0  0  0  0  0  0  0
  -27.6903   -8.1447   22.2708 C   0  0  0  0  0  0  0  0  0  0  0  0
  -25.6894  -11.8686   19.4827 C   0  0  0  0  0  0  0  0  0  0  0  0
  -24.9490  -30.7132   24.1740 C   0  0  0  0  0  0  0  0  0  0  0  0
  -26.8521  -31.9027   23.2793 C   0  0  0  0  0  0  0  0  0  0  0  0
  -24.4386  -12.3499   19.8667 C   0  0  0  0  0  0  0  0  0  0  0  0
  -27.0607  -34.6481   25.6536 C   0  0  0  0  0  0  0  0  0  0  0  0
  -27.1995  -36.0135   25.4044 C   0  0  0  0  0  0  0  0  0  0  0  0
  -25.4994  -14.2287   20.9456 C   0  0  0  0  0  0  0  0  0  0  0  0
  -25.2127  -35.9648   24.0306 C   0  0  0  0  0  0  0  0  0  0  0  0
  -20.9786  -19.2624   18.3929 C   0  0  0  0  0  0  0  0  0  0  0  0
  -25.9409  -30.0096   22.0865 C   0  0  0  0  0  0  0  0  0  0  0  0
  -25.2954  -29.2725   19.7311 C   0  0  0  0  0  0  0  0  0  0  0  0
  -29.9115   -7.1685   22.2425 C   0  0  0  0  0  0  0  0  0  0  0  0
  -26.8573  -12.5591   19.8372 C   0  0  0  0  0  0  0  0  0  0  0  0
  -29.0808   -8.2929   22.4095 C   0  0  0  0  0  0  0  0  0  0  0  0
  -26.7637  -13.7554   20.5626 C   0  0  0  0  0  0  0  0  0  0  0  0
  -21.1501  -18.5316   19.5837 C   0  0  0  0  0  0  0  0  0  0  0  0
  -25.8871  -31.7407   24.2734 C   0  0  0  0  0  0  0  0  0  0  0  0
  -24.3436  -13.5286   20.6008 C   0  0  0  0  0  0  0  0  0  0  0  0
  -25.9979  -33.9410   25.0912 C   0  0  0  0  0  0  0  0  0  0  0  0
  -26.2755  -36.6718   24.5930 C   0  0  0  0  0  0  0  0  0  0  0  0
  -25.0739  -34.5993   24.2797 C   0  0  0  0  0  0  0  0  0  0  0  0
  -25.9696  -29.1154   20.9570 C   0  0  0  0  0  0  0  0  0  0  0  0
  -21.9811  -19.3125   20.3493 C   0  0  0  0  0  0  0  0  0  0  0  0
  -25.6468  -28.1631   19.0015 C   0  0  0  0  0  0  0  0  0  0  0  0
  -24.4292  -30.3269   19.2913 C   0  0  0  0  0  0  0  0  0  0  0  0
  -29.4196  -11.8803   21.5914 C   0  0  0  0  0  0  0  0  0  0  0  0
  -30.4569  -14.7465   20.4821 C   0  0  0  0  0  0  0  0  0  0  0  0
  -29.6760  -17.8172   19.2141 C   0  0  0  0  0  0  0  0  0  0  0  0
  -26.7120  -22.4835   20.0949 C   0  0  0  0  0  0  0  0  0  0  0  0
  -31.4064   -7.2525   22.4245 C   0  0  0  0  0  0  0  0  0  0  0  0
  -28.1974  -12.0409   19.3923 C   0  0  0  0  0  0  0  0  0  0  0  0
  -27.9861  -14.5451   20.9509 C   0  0  0  0  0  0  0  0  0  0  0  0
  -31.9486   -8.6780   22.3606 C   0  0  0  0  0  0  0  0  0  0  0  0
  -29.3393  -24.8816   19.1869 C   0  0  0  0  0  0  0  0  0  0  0  0
  -31.0956   -9.6123   23.2130 C   0  0  0  0  0  0  0  0  0  0  0  0
  -28.6844  -26.2311   19.4847 C   0  0  0  0  0  0  0  0  0  0  0  0
  -23.2368  -22.6831   18.9177 C   0  0  0  0  0  0  0  0  0  0  0  0
  -28.8133  -23.7774   20.1010 C   0  0  0  0  0  0  0  0  0  0  0  0
  -24.4553  -23.4696   19.3865 C   0  0  0  0  0  0  0  0  0  0  0  0
  -26.6938  -24.9946   20.4176 C   0  0  0  0  0  0  0  0  0  0  0  0
  -24.5772  -21.2371   20.2668 C   0  0  0  0  0  0  0  0  0  0  0  0
  -29.6519   -9.6642   22.6986 C   0  0  1  0  0  0  0  0  0  0  0  0
  -29.3507  -12.5530   20.2497 C   0  0  1  0  0  0  0  0  0  0  0  0
  -27.1485  -26.1170   19.4743 C   0  0  1  0  0  0  0  0  0  0  0  0
  -23.1143  -21.5908   19.9877 C   0  0  2  0  0  0  0  0  0  0  0  0
  -22.5371  -19.1089   21.7004 C   0  0  0  0  0  0  0  0  0  0  0  0
  -30.7353  -19.9565   18.4404 C   0  0  0  0  0  0  0  0  0  0  0  0
  -30.9409  -15.5537   23.3845 C   0  0  0  0  0  0  0  0  0  0  0  0
  -31.0733  -17.9363   22.6269 C   0  0  0  0  0  0  0  0  0  0  0  0
  -32.7301  -16.2694   21.7905 C   0  0  0  0  0  0  0  0  0  0  0  0
  -28.5894  -17.5019   16.4794 C   0  0  0  0  0  0  0  0  0  0  0  0
  -20.5667  -17.2238   19.9263 C   0  0  0  0  0  0  0  0  0  0  0  0
  -20.9612  -14.7801   20.2602 C   0  0  0  0  0  0  0  0  0  0  0  0
  -22.0200  -13.7036   20.1252 C   0  0  0  0  0  0  0  0  0  1  0  0
  -30.3472  -16.1774   20.9505 C   0  0  1  0  0  0  0  0  0  0  0  0
  -30.2248  -18.5854   18.0254 C   0  0  2  0  0  0  0  0  0  0  0  0
  -31.2498  -16.4685   22.1826 C   0  0  0  0  0  0  0  0  0  0  0  0
  -21.6469  -20.4189   18.3969 N   0  0  0  0  0  0  0  0  0  0  0  0
  -26.6942  -27.9945   21.0070 N   0  0  0  0  0  0  0  0  0  0  0  0
  -22.2463  -20.4207   19.5997 N   0  0  0  0  0  0  0  0  0  0  0  0
  -26.4774  -27.4371   19.8035 N   0  0  0  0  0  0  0  0  0  0  0  0
  -29.2740  -13.9940   20.4979 N   0  0  0  0  0  0  0  0  0  0  0  0
  -27.3512  -23.7282   20.0767 N   0  0  0  0  0  0  0  0  0  0  0  0
  -25.3196  -22.4703   20.0175 N   0  0  0  0  0  0  0  0  0  0  0  0
  -25.3231  -27.7475   17.7585 N   0  0  0  0  0  0  0  0  0  0  0  0
  -24.1745  -31.3914   20.1667 N   0  0  0  0  0  0  0  0  0  0  0  0
  -29.5632  -10.5075   21.5259 N   0  0  0  0  0  0  0  0  0  0  0  0
  -30.6357  -17.0107   19.7882 N   0  0  0  0  0  0  0  0  0  0  0  0
  -29.1648  -18.7710   16.9944 N   0  3  0  0  0  0  0  0  0  0  0  0
  -21.5375  -16.0866   19.8599 N   0  3  0  0  0  0  0  0  0  0  0  0
  -23.8836  -30.3170   18.1617 O   0  0  0  0  0  0  0  0  0  0  0  0
  -29.3492  -12.5568   22.6108 O   0  0  0  0  0  0  0  0  0  0  0  0
  -31.5504  -14.3145   20.1089 O   0  0  0  0  0  0  0  0  0  0  0  0
  -28.5132  -17.9249   19.5975 O   0  0  0  0  0  0  0  0  0  0  0  0
  -27.3587  -21.4282   20.1311 O   0  0  0  0  0  0  0  0  0  0  0  0
  -25.8610  -32.5857   25.3402 O   0  0  0  0  0  0  0  0  0  0  0  0
  -23.1152  -14.0036   20.9802 O   0  0  0  0  0  0  0  0  0  1  0  0
  -26.4081  -37.9833   24.3550 F   0  0  0  0  0  0  0  0  0  0  0  0
  -24.0502  -33.9256   23.7376 F   0  0  0  0  0  0  0  0  0  0  0  0
  1  2  1  0  0  0  0
  1  5  2  0  0  0  0
  2  6  2  0  0  0  0
  3  8  2  0  0  0  0
  3 16  1  0  0  0  0
  4  9  1  0  0  0  0
  4 16  2  0  0  0  0
  5 18  1  0  0  0  0
  6 20  1  0  0  0  0
  7 10  2  0  0  0  0
  7 19  1  0  0  0  0
  8 23  1  0  0  0  0
  9 23  2  0  0  0  0
 10 24  1  0  0  0  0
 11 12  2  0  0  0  0
 11 25  1  0  0  0  0
 12 26  1  0  0  0  0
 13 21  1  0  0  0  0
 13 24  2  0  0  0  0
 14 26  2  0  0  0  0
 14 27  1  0  0  0  0
 15 22  1  0  0  0  0
 15 64  2  0  0  0  0
 16 28  1  0  0  0  0
 17 28  1  0  0  0  0
 17 30  2  0  0  0  0
 17 31  1  0  0  0  0
 18 20  2  0  0  0  0
 18 36  1  0  0  0  0
 19 21  2  0  0  0  0
 19 37  1  0  0  0  0
 20 48  1  0  0  0  0
 21 38  1  0  0  0  0
 22 29  2  0  0  0  0
 22 58  1  0  0  0  0
 23 82  1  0  0  0  0
 24 83  1  0  0  0  0
 25 27  2  0  0  0  0
 25 82  1  0  0  0  0
 26 84  1  0  0  0  0
 27 85  1  0  0  0  0
 28 65  2  0  0  0  0
 29 52  1  0  0  0  0
 29 66  1  0  0  0  0
 30 67  1  0  0  0  0
 30 71  1  0  0  0  0
 31 72  1  0  0  0  0
 31 77  2  0  0  0  0
 32 49  1  0  0  0  0
 32 73  1  0  0  0  0
 32 78  2  0  0  0  0
 33 61  1  0  0  0  0
 33 68  1  0  0  0  0
 33 79  2  0  0  0  0
 34 62  1  0  0  0  0
 34 74  1  0  0  0  0
 34 80  2  0  0  0  0
 35 69  1  0  0  0  0
 35 70  1  0  0  0  0
 35 81  2  0  0  0  0
 36 39  1  0  0  0  0
 37 49  1  0  0  0  0
 38 68  1  0  0  0  0
 39 41  1  0  0  0  0
 40 42  1  0  0  0  0
 40 44  1  0  0  0  0
 41 48  1  0  0  0  0
 42 50  1  0  0  0  0
 43 45  1  0  0  0  0
 43 51  1  0  0  0  0
 44 69  1  0  0  0  0
 45 70  1  0  0  0  0
 46 50  1  0  0  0  0
 46 69  1  0  0  0  0
 47 51  1  0  0  0  0
 47 70  1  0  0  0  0
 48 73  1  0  0  0  0
 49 68  1  0  0  0  0
 50 67  1  0  0  0  0
 51 66  1  0  0  0  0
 53 62  1  0  0  0  0
 54 63  1  0  0  0  0
 55 63  1  0  0  0  0
 56 63  1  0  0  0  0
 57 75  1  0  0  0  0
 58 76  1  0  0  0  0
 59 60  1  0  0  0  0
 59 76  1  0  0  0  0
 60 83  1  0  0  0  0
 61 63  1  0  0  0  0
 61 74  1  0  0  0  0
 62 75  1  0  0  0  0
 64 66  1  0  0  0  0
 65 67  1  0  0  0  0
M  CHG  2  75   1  76   1
M  ISO  4  35 100  60 101  70 100  83 101
M  END
> <Batch ID>
0194

> <Smiles>
CNC(C)C(=O)NC(C(=O)N1Cc2cc([101O:1][101CH2:1]CNCc3cnn(C4CC[100N:0]([100C:0](=O)N5CCCC(n6nc(-c7ccc(Oc8ccc(F)cc8F)cc7)c(C(N)=O)c6N)C5)C4)c3C)ccc2CC1C(=O)NC1CCCc2ccccc21)C(C)(C)C

> <Shape>
0.272

> <Color>
0.057

> <Negative vol penalty>
0.000

$$$$

  -OEChem-04052323343D

 84 93  0     1  0  0  0  0  0999 V2000
  -22.6606   -6.7142   23.7734 C   0  0  0  0  0  0  0  0  0  0  0  0
  -23.9895   -7.1022   23.9110 C   0  0  0  0  0  0  0  0  0  0  0  0
  -25.4546  -31.5548   22.7827 C   0  0  0  0  0  0  0  0  0  0  0  0
  -26.0162  -31.9175   20.4610 C   0  0  0  0  0  0  0  0  0  0  0  0
  -21.8767   -7.2630   22.7594 C   0  0  0  0  0  0  0  0  0  0  0  0
  -24.5356   -8.0386   23.0338 C   0  0  0  0  0  0  0  0  0  0  0  0
  -29.3417  -13.3461   22.8166 C   0  0  0  0  0  0  0  0  0  0  0  0
  -25.8627  -32.8540   23.0844 C   0  0  0  0  0  0  0  0  0  0  0  0
  -26.4243  -33.2168   20.7628 C   0  0  0  0  0  0  0  0  0  0  0  0
  -30.4487  -13.7673   22.0811 C   0  0  0  0  0  0  0  0  0  0  0  0
  -24.6158  -35.9846   22.8058 C   0  0  0  0  0  0  0  0  0  0  0  0
  -23.7914  -36.7474   23.6328 C   0  0  0  0  0  0  0  0  0  0  0  0
  -28.9775  -14.7072   20.4163 C   0  0  0  0  0  0  0  0  0  0  0  0
  -25.5912  -36.9608   25.2303 C   0  0  0  0  0  0  0  0  0  0  0  0
  -31.8328  -17.6816   18.7758 C   0  0  0  0  0  0  0  0  0  0  0  0
  -25.5314  -31.0865   21.4710 C   0  0  0  0  0  0  0  0  0  0  0  0
  -23.8213  -29.3239   20.7809 C   0  0  0  0  0  0  0  0  0  0  0  0
  -22.4108   -8.2137   21.8753 C   0  0  0  0  0  0  0  0  0  0  0  0
  -28.0422  -13.5931   22.3512 C   0  0  0  0  0  0  0  0  0  0  0  0
  -23.7585   -8.5996   22.0061 C   0  0  0  0  0  0  0  0  0  0  0  0
  -27.8557  -14.2903   21.1490 C   0  0  0  0  0  0  0  0  0  0  0  0
  -26.3475  -33.6850   22.0745 C   0  0  0  0  0  0  0  0  0  0  0  0
  -30.2668  -14.4454   20.8794 C   0  0  0  0  0  0  0  0  0  0  0  0
  -25.9280  -35.7098   23.1911 C   0  0  0  0  0  0  0  0  0  0  0  0
  -24.2790  -37.2355   24.8450 C   0  0  0  0  0  0  0  0  0  0  0  0
  -26.4157  -36.1979   24.4033 C   0  0  0  0  0  0  0  0  0  0  0  0
  -25.1106  -29.7443   21.1587 C   0  0  0  0  0  0  0  0  0  0  0  0
  -32.6044  -17.4954   19.8939 C   0  0  0  0  0  0  0  0  0  0  0  0
  -23.9422  -27.9681   20.5974 C   0  0  0  0  0  0  0  0  0  0  0  0
  -31.3067  -19.7472   19.5218 C   0  0  0  0  0  0  0  0  0  0  0  0
  -22.6216  -30.0904   20.6109 C   0  0  0  0  0  0  0  0  0  0  0  0
  -25.5830  -11.7714   21.4925 C   0  0  0  0  0  0  0  0  0  0  0  0
  -24.0476  -14.6210   21.2813 C   0  0  0  0  0  0  0  0  0  0  0  0
  -24.2578  -18.0008   20.8575 C   0  0  0  0  0  0  0  0  0  0  0  0
  -28.3200  -24.4957   19.1123 C   0  0  0  0  0  0  0  0  0  0  0  0
  -21.5380   -8.7437   20.7654 C   0  0  0  0  0  0  0  0  0  0  0  0
  -26.8584  -13.1558   23.1697 C   0  0  0  0  0  0  0  0  0  0  0  0
  -26.4811  -14.5983   20.6159 C   0  0  0  0  0  0  0  0  0  0  0  0
  -22.0865  -10.0088   20.1105 C   0  0  0  0  0  0  0  0  0  0  0  0
  -26.4662  -24.1912   22.0805 C   0  0  0  0  0  0  0  0  0  0  0  0
  -23.5725   -9.8503   19.8045 C   0  0  0  0  0  0  0  0  0  0  0  0
  -25.7750  -25.5526   22.1480 C   0  0  0  0  0  0  0  0  0  0  0  0
  -27.9158  -24.3073   21.6065 C   0  0  0  0  0  0  0  0  0  0  0  0
  -29.3587  -20.9717   18.6085 C   0  0  0  0  0  0  0  0  0  0  0  0
  -30.7979  -21.9921   20.3786 C   0  0  0  0  0  0  0  0  0  0  0  0
  -29.0391  -22.3704   18.0878 C   0  0  0  0  0  0  0  0  0  0  0  0
  -30.4633  -23.3705   19.8193 C   0  0  0  0  0  0  0  0  0  0  0  0
  -27.3817  -26.3963   20.3946 C   0  0  0  0  0  0  0  0  0  0  0  0
  -24.3800   -9.6310   21.0896 C   0  0  1  0  0  0  0  0  0  0  0  0
  -25.5834  -13.0087   22.3450 C   0  0  1  0  0  0  0  0  0  0  0  0
  -25.9056  -26.3053   20.8119 C   0  0  2  0  0  0  0  0  0  0  0  0
  -22.8301  -20.0580   20.6926 C   0  0  0  0  0  0  0  0  0  0  0  0
  -23.2634  -13.8458   18.4363 C   0  0  0  0  0  0  0  0  0  0  0  0
  -22.6927  -16.2466   18.0138 C   0  0  0  0  0  0  0  0  0  0  0  0
  -21.4505  -14.9583   19.7516 C   0  0  0  0  0  0  0  0  0  0  0  0
  -25.5237  -19.2117   23.2429 C   0  0  0  0  0  0  0  0  0  0  0  0
  -33.3442  -16.2249   20.1161 C   0  0  0  0  0  0  0  0  0  0  0  0
  -32.5287  -15.1800   20.8872 C   0  0  0  0  0  0  0  0  0  1  0  0
  -23.8428  -15.6470   20.1930 C   0  0  1  0  0  0  0  0  0  0  0  0
  -23.6269  -19.1526   21.6190 C   0  0  2  0  0  0  0  0  0  0  0  0
  -22.8384  -15.1671   19.1075 C   0  0  0  0  0  0  0  0  0  0  0  0
  -31.1598  -18.8223   18.5614 N   0  0  0  0  0  0  0  0  0  0  0  0
  -25.9862  -28.7371   21.2126 N   0  0  0  0  0  0  0  0  0  0  0  0
  -32.7139  -18.4607   20.8246 N   0  0  0  0  0  0  0  0  0  0  0  0
  -32.0492  -19.6202   20.6391 N   0  0  0  0  0  0  0  0  0  0  0  0
  -25.2458  -27.6704   20.8664 N   0  0  0  0  0  0  0  0  0  0  0  0
  -30.6252  -20.9586   19.3486 N   0  0  0  0  0  0  0  0  0  0  0  0
  -25.3555  -14.1445   21.4492 N   0  0  0  0  0  0  0  0  0  0  0  0
  -27.9941  -25.0668   20.3515 N   0  0  0  0  0  0  0  0  0  0  0  0
  -29.1701  -23.3789   19.1325 N   0  0  0  0  0  0  0  0  0  0  0  0
  -23.0596  -27.0134   20.2340 N   0  0  0  0  0  0  0  0  0  0  0  0
  -22.6734  -31.4721   20.8402 N   0  0  0  0  0  0  0  0  0  0  0  0
  -24.5662  -10.8840   21.7895 N   0  0  0  0  0  0  0  0  0  0  0  0
  -23.4521  -16.8819   20.8644 N   0  0  0  0  0  0  0  0  0  0  0  0
  -24.6790  -19.9711   22.2854 N   0  3  0  0  0  0  0  0  0  0  0  0
  -21.5319  -29.5631   20.2819 O   0  0  0  0  0  0  0  0  0  0  0  0
  -26.4407  -11.6328   20.6283 O   0  0  0  0  0  0  0  0  0  0  0  0
  -23.0840  -14.2612   21.9622 O   0  0  0  0  0  0  0  0  0  0  0  0
  -25.3539  -18.0865   20.3082 O   0  0  0  0  0  0  0  0  0  0  0  0
  -27.8770  -24.9524   18.0511 O   0  0  0  0  0  0  0  0  0  0  0  0
  -26.7455  -34.9529   22.3686 O   0  0  0  0  0  0  0  0  0  0  0  0
  -31.3531  -14.8599   20.1541 O   0  0  0  0  0  0  0  0  0  1  0  0
  -23.4877  -37.9694   25.6384 F   0  0  0  0  0  0  0  0  0  0  0  0
  -27.6758  -35.9382   24.7783 F   0  0  0  0  0  0  0  0  0  0  0  0
  1  2  1  0  0  0  0
  1  5  2  0  0  0  0
  2  6  2  0  0  0  0
  3  8  2  0  0  0  0
  3 16  1  0  0  0  0
  4  9  1  0  0  0  0
  4 16  2  0  0  0  0
  5 18  1  0  0  0  0
  6 20  1  0  0  0  0
  7 10  2  0  0  0  0
  7 19  1  0  0  0  0
  8 22  1  0  0  0  0
  9 22  2  0  0  0  0
 10 23  1  0  0  0  0
 11 12  2  0  0  0  0
 11 24  1  0  0  0  0
 12 25  1  0  0  0  0
 13 21  1  0  0  0  0
 13 23  2  0  0  0  0
 14 25  2  0  0  0  0
 14 26  1  0  0  0  0
 15 28  1  0  0  0  0
 15 62  2  0  0  0  0
 16 27  1  0  0  0  0
 17 27  1  0  0  0  0
 17 29  2  0  0  0  0
 17 31  1  0  0  0  0
 18 20  2  0  0  0  0
 18 36  1  0  0  0  0
 19 21  2  0  0  0  0
 19 37  1  0  0  0  0
 20 49  1  0  0  0  0
 21 38  1  0  0  0  0
 22 81  1  0  0  0  0
 23 82  1  0  0  0  0
 24 26  2  0  0  0  0
 24 81  1  0  0  0  0
 25 83  1  0  0  0  0
 26 84  1  0  0  0  0
 27 63  2  0  0  0  0
 28 57  1  0  0  0  0
 28 64  2  0  0  0  0
 29 66  1  0  0  0  0
 29 71  1  0  0  0  0
 30 62  1  0  0  0  0
 30 65  2  0  0  0  0
 30 67  1  0  0  0  0
 31 72  1  0  0  0  0
 31 76  2  0  0  0  0
 32 50  1  0  0  0  0
 32 73  1  0  0  0  0
 32 77  2  0  0  0  0
 33 59  1  0  0  0  0
 33 68  1  0  0  0  0
 33 78  2  0  0  0  0
 34 60  1  0  0  0  0
 34 74  1  0  0  0  0
 34 79  2  0  0  0  0
 35 69  1  0  0  0  0
 35 70  1  0  0  0  0
 35 80  2  0  0  0  0
 36 39  1  0  0  0  0
 37 50  1  0  0  0  0
 38 68  1  0  0  0  0
 39 41  1  0  0  0  0
 40 42  1  0  0  0  0
 40 43  1  0  0  0  0
 41 49  1  0  0  0  0
 42 51  1  0  0  0  0
 43 69  1  0  0  0  0
 44 46  1  0  0  0  0
 44 67  1  0  0  0  0
 45 47  1  0  0  0  0
 45 67  1  0  0  0  0
 46 70  1  0  0  0  0
 47 70  1  0  0  0  0
 48 51  1  0  0  0  0
 48 69  1  0  0  0  0
 49 73  1  0  0  0  0
 50 68  1  0  0  0  0
 51 66  1  0  0  0  0
 52 60  1  0  0  0  0
 53 61  1  0  0  0  0
 54 61  1  0  0  0  0
 55 61  1  0  0  0  0
 56 75  1  0  0  0  0
 57 58  1  0  0  0  0
 58 82  1  0  0  0  0
 59 61  1  0  0  0  0
 59 74  1  0  0  0  0
 60 75  1  0  0  0  0
 63 66  1  0  0  0  0
 64 65  1  0  0  0  0
M  CHG  1  75   1
M  ISO  4  35 100  58 101  70 100  82 101
M  END
> <Batch ID>
0194

> <Smiles>
CNC(C)C(=O)NC(C(=O)N1Cc2cc([101O:1][101CH2:1]Cc3cnc(N4CC[100N:0]([100C:0](=O)N5CCCC(n6nc(-c7ccc(Oc8ccc(F)cc8F)cc7)c(C(N)=O)c6N)C5)CC4)nn3)ccc2CC1C(=O)NC1CCCc2ccccc21)C(C)(C)C

> <Shape>
0.272

> <Color>
0.071

> <Negative vol penalty>
0.000

$$$$

  -OEChem-04052323343D

 81 89  0     1  0  0  0  0  0999 V2000
  -25.9235  -13.1710   16.4738 C   0  0  0  0  0  0  0  0  0  0  0  0
  -25.1252  -14.2775   16.7459 C   0  0  0  0  0  0  0  0  0  0  0  0
  -29.5368  -28.1203   20.8034 C   0  0  0  0  0  0  0  0  0  0  0  0
  -27.8277  -27.2470   19.3360 C   0  0  0  0  0  0  0  0  0  0  0  0
  -26.3197  -12.3270   17.5104 C   0  0  0  0  0  0  0  0  0  0  0  0
  -24.7218  -14.5399   18.0546 C   0  0  0  0  0  0  0  0  0  0  0  0
  -23.9288  -20.0395   20.6299 C   0  0  0  0  0  0  0  0  0  0  0  0
  -30.3555  -27.0335   20.4968 C   0  0  0  0  0  0  0  0  0  0  0  0
  -28.6465  -26.1601   19.0293 C   0  0  0  0  0  0  0  0  0  0  0  0
  -22.7920  -20.8141   20.8561 C   0  0  0  0  0  0  0  0  0  0  0  0
  -29.5423  -23.2328   20.4643 C   0  0  0  0  0  0  0  0  0  0  0  0
  -28.9613  -21.9648   20.4598 C   0  0  0  0  0  0  0  0  0  0  0  0
  -22.6535  -19.9442   23.1019 C   0  0  0  0  0  0  0  0  0  0  0  0
  -29.5598  -21.6989   18.1342 C   0  0  0  0  0  0  0  0  0  0  0  0
  -28.2729  -28.2271   20.2231 C   0  0  0  0  0  0  0  0  0  0  0  0
  -27.3689  -30.5863   19.8704 C   0  0  0  0  0  0  0  0  0  0  0  0
  -25.9290  -12.5846   18.8339 C   0  0  0  0  0  0  0  0  0  0  0  0
  -24.4311  -19.2017   21.6361 C   0  0  0  0  0  0  0  0  0  0  0  0
  -25.1121  -13.6978   19.1097 C   0  0  0  0  0  0  0  0  0  0  0  0
  -23.7984  -19.1619   22.8868 C   0  0  0  0  0  0  0  0  0  0  0  0
  -29.9104  -26.0534   19.6098 C   0  0  0  0  0  0  0  0  0  0  0  0
  -22.1524  -20.7644   22.0913 C   0  0  0  0  0  0  0  0  0  0  0  0
  -30.1320  -23.7340   19.3038 C   0  0  0  0  0  0  0  0  0  0  0  0
  -28.9701  -21.1978   19.2948 C   0  0  0  0  0  0  0  0  0  0  0  0
  -30.1407  -22.9670   18.1388 C   0  0  0  0  0  0  0  0  0  0  0  0
  -27.4265  -29.3493   20.5399 C   0  0  0  0  0  0  0  0  0  0  0  0
  -26.4159  -31.3021   20.5530 C   0  0  0  0  0  0  0  0  0  0  0  0
  -28.1105  -31.0472   18.7331 C   0  0  0  0  0  0  0  0  0  0  0  0
  -24.8688  -16.0675   21.9343 C   0  0  0  0  0  0  0  0  0  0  0  0
  -26.3093  -16.9266   24.7108 C   0  0  0  0  0  0  0  0  0  0  0  0
  -26.6418  -19.2243   27.2122 C   0  0  0  0  0  0  0  0  0  0  0  0
  -21.7332  -29.7047   23.9121 C   0  0  0  0  0  0  0  0  0  0  0  0
  -26.3430  -11.6173   19.9144 C   0  0  0  0  0  0  0  0  0  0  0  0
  -25.6740  -18.3926   21.3851 C   0  0  0  0  0  0  0  0  0  0  0  0
  -24.3095  -18.2942   24.0068 C   0  0  0  0  0  0  0  0  0  0  0  0
  -26.1830  -12.1759   21.3260 C   0  0  0  0  0  0  0  0  0  0  0  0
  -24.4665  -31.7448   24.9015 C   0  0  0  0  0  0  0  0  0  0  0  0
  -24.8219  -12.8462   21.4838 C   0  0  0  0  0  0  0  0  0  0  0  0
  -25.5293  -31.4788   23.8339 C   0  0  0  0  0  0  0  0  0  0  0  0
  -23.6745  -30.4827   25.2360 C   0  0  0  0  0  0  0  0  0  0  0  0
  -24.1340  -29.5363   23.0090 C   0  0  0  0  0  0  0  0  0  0  0  0
  -19.2283  -27.7469   23.2760 C   0  0  0  0  0  0  0  0  0  0  0  0
  -19.5544  -28.0193   21.2327 C   0  0  0  0  0  0  0  0  0  0  0  0
  -24.6747  -14.0297   20.5199 C   0  0  1  0  0  0  0  0  0  0  0  0
  -25.7986  -17.1862   22.3105 C   0  0  1  0  0  0  0  0  0  0  0  0
  -24.9217  -30.7915   22.5960 C   0  0  2  0  0  0  0  0  0  0  0  0
  -19.8480  -28.8970   22.4624 C   0  0  0  0  0  0  0  0  0  0  0  0
  -27.8680  -19.6306   29.3636 C   0  0  0  0  0  0  0  0  0  0  0  0
  -24.4615  -14.9585   26.1328 C   0  0  0  0  0  0  0  0  0  0  0  0
  -25.0473  -16.0778   28.2943 C   0  0  0  0  0  0  0  0  0  0  0  0
  -26.8238  -14.9510   26.9537 C   0  0  0  0  0  0  0  0  0  0  0  0
  -27.9477  -21.6557   26.1435 C   0  0  0  0  0  0  0  0  0  0  0  0
  -17.5246  -25.1766   22.7226 C   0  0  0  0  0  0  0  0  0  0  0  0
  -18.5742  -25.8624   21.8545 C   0  0  0  0  0  0  0  0  0  0  0  0
  -17.4307  -23.6611   22.5805 C   0  0  0  0  0  0  0  0  0  0  0  0
  -18.7061  -21.5351   22.8846 C   0  0  0  0  0  0  0  0  0  0  0  0
  -20.0819  -21.0048   23.2364 C   0  0  0  0  0  0  0  0  0  1  0  0
  -25.8499  -17.1353   26.1336 C   0  0  1  0  0  0  0  0  0  0  0  0
  -27.8701  -19.8403   27.8574 C   0  0  2  0  0  0  0  0  0  0  0  0
  -25.5346  -15.7956   26.8571 C   0  0  0  0  0  0  0  0  0  0  0  0
  -26.5778  -29.2799   21.5689 N   0  0  0  0  0  0  0  0  0  0  0  0
  -25.9779  -30.4823   21.5511 N   0  0  0  0  0  0  0  0  0  0  0  0
  -25.5242  -17.5170   23.7104 N   0  0  0  0  0  0  0  0  0  0  0  0
  -23.1214  -29.8851   24.0179 N   0  0  0  0  0  0  0  0  0  0  0  0
  -25.9182  -32.5465   20.3908 N   0  0  0  0  0  0  0  0  0  0  0  0
  -29.0502  -30.1838   18.1537 N   0  0  0  0  0  0  0  0  0  0  0  0
  -25.3987  -15.1798   21.0174 N   0  0  0  0  0  0  0  0  0  0  0  0
  -26.8822  -17.9363   26.7825 N   0  0  0  0  0  0  0  0  0  0  0  0
  -21.2815  -29.1402   22.7237 N   0  0  0  0  0  0  0  0  0  0  0  0
  -18.5308  -27.3310   22.0434 N   0  3  0  0  0  0  0  0  0  0  0  0
  -27.9177  -21.3050   27.5869 N   0  3  0  0  0  0  0  0  0  0  0  0
  -18.7245  -23.0187   22.9373 N   0  3  0  0  0  0  0  0  0  0  0  0
  -27.9564  -32.1967   18.2553 O   0  0  0  0  0  0  0  0  0  0  0  0
  -23.7537  -16.0129   22.4395 O   0  0  0  0  0  0  0  0  0  0  0  0
  -27.3312  -16.2702   24.4954 O   0  0  0  0  0  0  0  0  0  0  0  0
  -25.5746  -19.8242   27.1037 O   0  0  0  0  0  0  0  0  0  0  0  0
  -20.9446  -30.0289   24.8067 O   0  0  0  0  0  0  0  0  0  0  0  0
  -30.7091  -24.9928   19.3101 O   0  0  0  0  0  0  0  0  0  0  0  0
  -21.0422  -21.5190   22.3145 O   0  0  0  0  0  0  0  0  0  1  0  0
  -28.4135  -19.9794   19.2910 F   0  0  0  0  0  0  0  0  0  0  0  0
  -30.7068  -23.4426   17.0211 F   0  0  0  0  0  0  0  0  0  0  0  0
  1  2  1  0  0  0  0
  1  5  2  0  0  0  0
  2  6  2  0  0  0  0
  3  8  2  0  0  0  0
  3 15  1  0  0  0  0
  4  9  1  0  0  0  0
  4 15  2  0  0  0  0
  5 17  1  0  0  0  0
  6 19  1  0  0  0  0
  7 10  2  0  0  0  0
  7 18  1  0  0  0  0
  8 21  1  0  0  0  0
  9 21  2  0  0  0  0
 10 22  1  0  0  0  0
 11 12  2  0  0  0  0
 11 23  1  0  0  0  0
 12 24  1  0  0  0  0
 13 20  1  0  0  0  0
 13 22  2  0  0  0  0
 14 24  2  0  0  0  0
 14 25  1  0  0  0  0
 15 26  1  0  0  0  0
 16 26  1  0  0  0  0
 16 27  2  0  0  0  0
 16 28  1  0  0  0  0
 17 19  2  0  0  0  0
 17 33  1  0  0  0  0
 18 20  2  0  0  0  0
 18 34  1  0  0  0  0
 19 44  1  0  0  0  0
 20 35  1  0  0  0  0
 21 78  1  0  0  0  0
 22 79  1  0  0  0  0
 23 25  2  0  0  0  0
 23 78  1  0  0  0  0
 24 80  1  0  0  0  0
 25 81  1  0  0  0  0
 26 61  2  0  0  0  0
 27 62  1  0  0  0  0
 27 65  1  0  0  0  0
 28 66  1  0  0  0  0
 28 73  2  0  0  0  0
 29 45  1  0  0  0  0
 29 67  1  0  0  0  0
 29 74  2  0  0  0  0
 30 58  1  0  0  0  0
 30 63  1  0  0  0  0
 30 75  2  0  0  0  0
 31 59  1  0  0  0  0
 31 68  1  0  0  0  0
 31 76  2  0  0  0  0
 32 64  1  0  0  0  0
 32 69  1  0  0  0  0
 32 77  2  0  0  0  0
 33 36  1  0  0  0  0
 34 45  1  0  0  0  0
 35 63  1  0  0  0  0
 36 38  1  0  0  0  0
 37 39  1  0  0  0  0
 37 40  1  0  0  0  0
 38 44  1  0  0  0  0
 39 46  1  0  0  0  0
 40 64  1  0  0  0  0
 41 46  1  0  0  0  0
 41 64  1  0  0  0  0
 42 47  1  0  0  0  0
 42 70  1  0  0  0  0
 43 47  1  0  0  0  0
 43 70  1  0  0  0  0
 44 67  1  0  0  0  0
 45 63  1  0  0  0  0
 46 62  1  0  0  0  0
 47 69  1  0  0  0  0
 48 59  1  0  0  0  0
 49 60  1  0  0  0  0
 50 60  1  0  0  0  0
 51 60  1  0  0  0  0
 52 71  1  0  0  0  0
 53 54  1  0  0  0  0
 53 55  1  0  0  0  0
 54 70  1  0  0  0  0
 55 72  1  0  0  0  0
 56 57  1  0  0  0  0
 56 72  1  0  0  0  0
 57 79  1  0  0  0  0
 58 60  1  0  0  0  0
 58 68  1  0  0  0  0
 59 71  1  0  0  0  0
 61 62  1  0  0  0  0
M  CHG  3  70   1  71   1  72   1
M  ISO  4  32 100  57 101  69 100  79 101
M  END
> <Batch ID>
0194

> <Smiles>
CNC(C)C(=O)NC(C(=O)N1Cc2cc([101O:1][101CH2:1]CNCCCN3CC([100NH:0][100C:0](=O)N4CCCC(n5nc(-c6ccc(Oc7ccc(F)cc7F)cc6)c(C(N)=O)c5N)C4)C3)ccc2CC1C(=O)NC1CCCc2ccccc21)C(C)(C)C

> <Shape>
0.210

> <Color>
0.073

> <Negative vol penalty>
0.000

$$$$

  -OEChem-04052323343D

 83 92  0     1  0  0  0  0  0999 V2000
  -33.0937  -23.7830   36.7683 C   0  0  0  0  0  0  0  0  0  0  0  0
  -32.4716  -22.6837   36.1852 C   0  0  0  0  0  0  0  0  0  0  0  0
  -23.0130   -9.8906   19.9702 C   0  0  0  0  0  0  0  0  0  0  0  0
  -23.6667   -9.9591   22.2951 C   0  0  0  0  0  0  0  0  0  0  0  0
  -33.2167  -24.9735   36.0531 C   0  0  0  0  0  0  0  0  0  0  0  0
  -31.9711  -22.7747   34.8869 C   0  0  0  0  0  0  0  0  0  0  0  0
  -30.9541  -18.8137   29.0054 C   0  0  0  0  0  0  0  0  0  0  0  0
  -22.2279   -8.7660   20.2240 C   0  0  0  0  0  0  0  0  0  0  0  0
  -22.8815   -8.8345   22.5489 C   0  0  0  0  0  0  0  0  0  0  0  0
  -29.9515  -18.4658   28.1012 C   0  0  0  0  0  0  0  0  0  0  0  0
  -23.1090   -5.4887   22.1189 C   0  0  0  0  0  0  0  0  0  0  0  0
  -23.6633   -4.4742   22.8993 C   0  0  0  0  0  0  0  0  0  0  0  0
  -30.2913  -20.5485   26.9324 C   0  0  0  0  0  0  0  0  0  0  0  0
  -21.8905   -4.7502   24.5174 C   0  0  0  0  0  0  0  0  0  0  0  0
  -23.7324  -10.4872   21.0057 C   0  0  0  0  0  0  0  0  0  0  0  0
  -24.1466  -12.9972   20.8162 C   0  0  0  0  0  0  0  0  0  0  0  0
  -32.7261  -25.0761   34.7419 C   0  0  0  0  0  0  0  0  0  0  0  0
  -31.6264  -20.0384   28.8861 C   0  0  0  0  0  0  0  0  0  0  0  0
  -32.0865  -23.9681   34.1540 C   0  0  0  0  0  0  0  0  0  0  0  0
  -31.3038  -20.9084   27.8348 C   0  0  0  0  0  0  0  0  0  0  0  0
  -22.1622   -8.2379   21.5134 C   0  0  0  0  0  0  0  0  0  0  0  0
  -29.6180  -19.3345   27.0662 C   0  0  0  0  0  0  0  0  0  0  0  0
  -21.9455   -6.1341   22.5378 C   0  0  0  0  0  0  0  0  0  0  0  0
  -23.0541   -4.1049   24.0985 C   0  0  0  0  0  0  0  0  0  0  0  0
  -21.3363   -5.7649   23.7370 C   0  0  0  0  0  0  0  0  0  0  0  0
  -24.5440  -11.6486   20.7440 C   0  0  0  0  0  0  0  0  0  0  0  0
  -25.2739  -13.7058   20.4792 C   0  0  0  0  0  0  0  0  0  0  0  0
  -25.4039  -19.1216   23.3711 C   0  0  0  0  0  0  0  0  0  0  0  0
  -27.2344  -19.4644   24.3139 C   0  0  0  0  0  0  0  0  0  0  0  0
  -22.8725  -13.5591   21.1574 C   0  0  0  0  0  0  0  0  0  0  0  0
  -31.9300  -22.6184   30.7179 C   0  0  0  0  0  0  0  0  0  0  0  0
  -34.0317  -23.5248   28.4193 C   0  0  0  0  0  0  0  0  0  0  0  0
  -35.0816  -23.2529   25.1834 C   0  0  0  0  0  0  0  0  0  0  0  0
  -30.6505  -14.6788   20.7188 C   0  0  0  0  0  0  0  0  0  0  0  0
  -32.8402  -26.3984   34.0255 C   0  0  0  0  0  0  0  0  0  0  0  0
  -32.7240  -20.3870   29.8538 C   0  0  0  0  0  0  0  0  0  0  0  0
  -32.0097  -22.2261   27.6509 C   0  0  0  0  0  0  0  0  0  0  0  0
  -32.6169  -26.2962   32.5189 C   0  0  0  0  0  0  0  0  0  0  0  0
  -29.6788  -12.1847   18.5296 C   0  0  0  0  0  0  0  0  0  0  0  0
  -31.3823  -25.4523   32.2182 C   0  0  0  0  0  0  0  0  0  0  0  0
  -28.2206  -11.9211   18.9053 C   0  0  0  0  0  0  0  0  0  0  0  0
  -29.0237  -17.8915   21.5685 C   0  0  0  0  0  0  0  0  0  0  0  0
  -28.4308  -16.1764   23.3313 C   0  0  0  0  0  0  0  0  0  0  0  0
  -30.5348  -12.3922   19.7740 C   0  0  0  0  0  0  0  0  0  0  0  0
  -30.2570  -17.0651   21.2120 C   0  0  0  0  0  0  0  0  0  0  0  0
  -29.6778  -15.3903   22.9369 C   0  0  0  0  0  0  0  0  0  0  0  0
  -28.5917  -13.2378   21.0484 C   0  0  0  0  0  0  0  0  0  0  0  0
  -31.5529  -24.0200   32.7388 C   0  0  1  0  0  0  0  0  0  0  0  0
  -32.9886  -21.8869   29.9420 C   0  0  1  0  0  0  0  0  0  0  0  0
  -27.6784  -13.0306   19.8237 C   0  0  2  0  0  0  0  0  0  0  0  0
  -28.6035  -17.6762   23.0328 C   0  0  0  0  0  0  0  0  0  0  0  0
  -23.9840  -19.2540   23.0243 C   0  0  0  0  0  0  0  0  0  0  0  0
  -36.8010  -24.1460   23.5887 C   0  0  0  0  0  0  0  0  0  0  0  0
  -32.4530  -26.1245   28.1768 C   0  0  0  0  0  0  0  0  0  0  0  0
  -33.5970  -26.5336   25.9877 C   0  0  0  0  0  0  0  0  0  0  0  0
  -34.9370  -26.4003   28.0875 C   0  0  0  0  0  0  0  0  0  0  0  0
  -36.2458  -20.5663   24.7524 C   0  0  0  0  0  0  0  0  0  0  0  0
  -28.3532  -19.9422   25.1461 C   0  0  0  0  0  0  0  0  0  1  0  0
  -33.9328  -24.2905   27.1220 C   0  0  1  0  0  0  0  0  0  0  0  0
  -36.4622  -23.0491   24.5862 C   0  0  2  0  0  0  0  0  0  0  0  0
  -33.7151  -25.8133   27.3478 C   0  0  0  0  0  0  0  0  0  0  0  0
  -25.8237  -11.5064   20.3889 N   0  0  0  0  0  0  0  0  0  0  0  0
  -25.9957  -19.8992   24.3248 N   0  0  0  0  0  0  0  0  0  0  0  0
  -26.1985  -18.2329   22.7708 N   0  0  0  0  0  0  0  0  0  0  0  0
  -26.2403  -12.7748   20.2348 N   0  0  0  0  0  0  0  0  0  0  0  0
  -27.3633  -18.4729   23.3920 N   0  0  0  0  0  0  0  0  0  0  0  0
  -33.0712  -22.5246   28.6265 N   0  0  0  0  0  0  0  0  0  0  0  0
  -29.9836  -13.4480   20.6232 N   0  0  0  0  0  0  0  0  0  0  0  0
  -30.0675  -15.6537   21.5449 N   0  0  0  0  0  0  0  0  0  0  0  0
  -25.5229  -15.0282   20.3710 N   0  0  0  0  0  0  0  0  0  0  0  0
  -21.8222  -12.6880   21.4776 N   0  0  0  0  0  0  0  0  0  0  0  0
  -32.4016  -23.2567   31.8491 N   0  0  0  0  0  0  0  0  0  0  0  0
  -35.1354  -23.9648   26.3631 N   0  0  0  0  0  0  0  0  0  0  0  0
  -36.5343  -21.7367   23.8839 N   0  3  0  0  0  0  0  0  0  0  0  0
  -22.6668  -14.7965   21.1618 O   0  0  0  0  0  0  0  0  0  0  0  0
  -30.7714  -22.6059   30.3189 O   0  0  0  0  0  0  0  0  0  0  0  0
  -34.9326  -23.7989   29.2161 O   0  0  0  0  0  0  0  0  0  0  0  0
  -34.0574  -22.8266   24.6544 O   0  0  0  0  0  0  0  0  0  0  0  0
  -31.6996  -14.8979   20.1005 O   0  0  0  0  0  0  0  0  0  0  0  0
  -21.3960   -7.1407   21.7615 O   0  0  0  0  0  0  0  0  0  0  0  0
  -28.6345  -18.9961   26.1783 O   0  0  0  0  0  0  0  0  0  1  0  0
  -23.5856   -3.1295   24.8470 F   0  0  0  0  0  0  0  0  0  0  0  0
  -20.2177   -6.3804   24.1440 F   0  0  0  0  0  0  0  0  0  0  0  0
  1  2  1  0  0  0  0
  1  5  2  0  0  0  0
  2  6  2  0  0  0  0
  3  8  2  0  0  0  0
  3 15  1  0  0  0  0
  4  9  1  0  0  0  0
  4 15  2  0  0  0  0
  5 17  1  0  0  0  0
  6 19  1  0  0  0  0
  7 10  2  0  0  0  0
  7 18  1  0  0  0  0
  8 21  1  0  0  0  0
  9 21  2  0  0  0  0
 10 22  1  0  0  0  0
 11 12  2  0  0  0  0
 11 23  1  0  0  0  0
 12 24  1  0  0  0  0
 13 20  1  0  0  0  0
 13 22  2  0  0  0  0
 14 24  2  0  0  0  0
 14 25  1  0  0  0  0
 15 26  1  0  0  0  0
 16 26  1  0  0  0  0
 16 27  2  0  0  0  0
 16 30  1  0  0  0  0
 17 19  2  0  0  0  0
 17 35  1  0  0  0  0
 18 20  2  0  0  0  0
 18 36  1  0  0  0  0
 19 48  1  0  0  0  0
 20 37  1  0  0  0  0
 21 80  1  0  0  0  0
 22 81  1  0  0  0  0
 23 25  2  0  0  0  0
 23 80  1  0  0  0  0
 24 82  1  0  0  0  0
 25 83  1  0  0  0  0
 26 62  2  0  0  0  0
 27 65  1  0  0  0  0
 27 70  1  0  0  0  0
 28 52  1  0  0  0  0
 28 63  1  0  0  0  0
 28 64  2  0  0  0  0
 29 58  1  0  0  0  0
 29 63  2  0  0  0  0
 29 66  1  0  0  0  0
 30 71  1  0  0  0  0
 30 75  2  0  0  0  0
 31 49  1  0  0  0  0
 31 72  1  0  0  0  0
 31 76  2  0  0  0  0
 32 59  1  0  0  0  0
 32 67  1  0  0  0  0
 32 77  2  0  0  0  0
 33 60  1  0  0  0  0
 33 73  1  0  0  0  0
 33 78  2  0  0  0  0
 34 68  1  0  0  0  0
 34 69  1  0  0  0  0
 34 79  2  0  0  0  0
 35 38  1  0  0  0  0
 36 49  1  0  0  0  0
 37 67  1  0  0  0  0
 38 40  1  0  0  0  0
 39 41  1  0  0  0  0
 39 44  1  0  0  0  0
 40 48  1  0  0  0  0
 41 50  1  0  0  0  0
 42 45  1  0  0  0  0
 42 51  1  0  0  0  0
 43 46  1  0  0  0  0
 43 51  1  0  0  0  0
 44 68  1  0  0  0  0
 45 69  1  0  0  0  0
 46 69  1  0  0  0  0
 47 50  1  0  0  0  0
 47 68  1  0  0  0  0
 48 72  1  0  0  0  0
 49 67  1  0  0  0  0
 50 65  1  0  0  0  0
 51 66  1  0  0  0  0
 53 60  1  0  0  0  0
 54 61  1  0  0  0  0
 55 61  1  0  0  0  0
 56 61  1  0  0  0  0
 57 74  1  0  0  0  0
 58 81  1  0  0  0  0
 59 61  1  0  0  0  0
 59 73  1  0  0  0  0
 60 74  1  0  0  0  0
 62 65  1  0  0  0  0
 64 66  1  0  0  0  0
M  CHG  1  74   1
M  ISO  4  34 100  58 101  69 100  81 101
M  END
> <Batch ID>
0194

> <Smiles>
CNC(C)C(=O)NC(C(=O)N1Cc2cc([101O:1][101CH2:1]c3nc(C)nn3C3CC[100N:0]([100C:0](=O)N4CCCC(n5nc(-c6ccc(Oc7ccc(F)cc7F)cc6)c(C(N)=O)c5N)C4)CC3)ccc2CC1C(=O)NC1CCCc2ccccc21)C(C)(C)C

> <Shape>
0.175

> <Color>
0.198

> <Negative vol penalty>
0.000

$$$$

  -OEChem-04052323343D

 85 94  0     1  0  0  0  0  0999 V2000
  -27.3198  -36.5467   24.2898 C   0  0  0  0  0  0  0  0  0  0  0  0
  -27.8784  -35.4089   23.7163 C   0  0  0  0  0  0  0  0  0  0  0  0
  -22.8556  -11.8620   22.7498 C   0  0  0  0  0  0  0  0  0  0  0  0
  -23.6073   -9.9189   21.5266 C   0  0  0  0  0  0  0  0  0  0  0  0
  -26.1214  -36.4533   24.9962 C   0  0  0  0  0  0  0  0  0  0  0  0
  -27.2394  -34.1768   23.8498 C   0  0  0  0  0  0  0  0  0  0  0  0
  -27.0698  -29.6516   19.7267 C   0  0  0  0  0  0  0  0  0  0  0  0
  -22.0072  -11.0560   23.5088 C   0  0  0  0  0  0  0  0  0  0  0  0
  -22.7589   -9.1128   22.2856 C   0  0  0  0  0  0  0  0  0  0  0  0
  -27.8082  -28.4767   19.5927 C   0  0  0  0  0  0  0  0  0  0  0  0
  -19.4676   -8.3436   22.3682 C   0  0  0  0  0  0  0  0  0  0  0  0
  -18.7061   -7.3890   21.6942 C   0  0  0  0  0  0  0  0  0  0  0  0
  -26.0655  -27.2585   20.7322 C   0  0  0  0  0  0  0  0  0  0  0  0
  -19.7622   -5.6380   22.9811 C   0  0  0  0  0  0  0  0  0  0  0  0
  -23.6557  -11.2934   21.7586 C   0  0  0  0  0  0  0  0  0  0  0  0
  -24.1645  -13.2023   20.1447 C   0  0  0  0  0  0  0  0  0  0  0  0
  -25.4624  -35.2210   25.1303 C   0  0  0  0  0  0  0  0  0  0  0  0
  -25.8265  -29.6408   20.3753 C   0  0  0  0  0  0  0  0  0  0  0  0
  -26.0317  -34.0665   24.5599 C   0  0  0  0  0  0  0  0  0  0  0  0
  -25.3121  -28.4342   20.8709 C   0  0  0  0  0  0  0  0  0  0  0  0
  -21.9588   -9.6814   23.2768 C   0  0  0  0  0  0  0  0  0  0  0  0
  -27.3074  -27.2804   20.0980 C   0  0  0  0  0  0  0  0  0  0  0  0
  -20.3765   -7.9455   23.3486 C   0  0  0  0  0  0  0  0  0  0  0  0
  -18.8534   -6.0362   22.0006 C   0  0  0  0  0  0  0  0  0  0  0  0
  -20.5238   -6.5927   23.6550 C   0  0  0  0  0  0  0  0  0  0  0  0
  -24.5319  -12.1256   20.9738 C   0  0  0  0  0  0  0  0  0  0  0  0
  -25.3524  -13.6580   19.6272 C   0  0  0  0  0  0  0  0  0  0  0  0
  -22.8657  -13.7424   19.8671 C   0  0  0  0  0  0  0  0  0  0  0  0
  -24.6411  -31.0316   22.9761 C   0  0  0  0  0  0  0  0  0  0  0  0
  -21.8675  -29.6983   21.9504 C   0  0  0  0  0  0  0  0  0  0  0  0
  -20.3254  -27.2627   20.1238 C   0  0  0  0  0  0  0  0  0  0  0  0
  -30.6327  -15.0352   20.0671 C   0  0  0  0  0  0  0  0  0  0  0  0
  -24.1936  -35.1611   25.9433 C   0  0  0  0  0  0  0  0  0  0  0  0
  -25.0302  -30.9119   20.4881 C   0  0  0  0  0  0  0  0  0  0  0  0
  -23.9734  -28.3655   21.5575 C   0  0  0  0  0  0  0  0  0  0  0  0
  -23.3867  -33.8846   25.7199 C   0  0  0  0  0  0  0  0  0  0  0  0
  -29.9886  -11.6547   19.7331 C   0  0  0  0  0  0  0  0  0  0  0  0
  -24.2973  -32.6619   25.7700 C   0  0  0  0  0  0  0  0  0  0  0  0
  -28.4799  -11.5492   19.9547 C   0  0  0  0  0  0  0  0  0  0  0  0
  -28.9920  -17.9776   18.5254 C   0  0  0  0  0  0  0  0  0  0  0  0
  -28.0525  -17.6363   20.8383 C   0  0  0  0  0  0  0  0  0  0  0  0
  -26.4852  -22.1585   16.9890 C   0  0  0  0  0  0  0  0  0  0  0  0
  -30.6159  -12.6434   20.7093 C   0  0  0  0  0  0  0  0  0  0  0  0
  -30.2341  -17.1906   18.9339 C   0  0  0  0  0  0  0  0  0  0  0  0
  -29.3138  -16.8610   21.2047 C   0  0  0  0  0  0  0  0  0  0  0  0
  -26.1785  -20.7545   17.5119 C   0  0  0  0  0  0  0  0  0  0  0  0
  -28.5044  -13.9200   20.8750 C   0  0  0  0  0  0  0  0  0  0  0  0
  -27.8240  -21.6407   18.9159 C   0  0  0  0  0  0  0  0  0  0  0  0
  -25.3557  -32.7164   24.6618 C   0  0  1  0  0  0  0  0  0  0  0  0
  -24.0094  -30.8788   21.6214 C   0  0  1  0  0  0  0  0  0  0  0  0
  -28.3312  -18.6604   19.7298 C   0  0  0  0  0  0  0  0  0  0  0  0
  -27.8160  -12.9369   19.9070 C   0  0  2  0  0  0  0  0  0  0  0  0
  -27.7620  -22.5609   17.7131 C   0  0  2  0  0  0  0  0  0  0  0  0
  -18.0485  -26.4065   19.5073 C   0  0  0  0  0  0  0  0  0  0  0  0
  -21.5920  -28.4451   24.7187 C   0  0  0  0  0  0  0  0  0  0  0  0
  -19.8773  -26.8888   23.7670 C   0  0  0  0  0  0  0  0  0  0  0  0
  -19.4635  -29.3487   23.7661 C   0  0  0  0  0  0  0  0  0  0  0  0
  -20.7939  -27.7523   17.2428 C   0  0  0  0  0  0  0  0  0  0  0  0
  -27.0469  -19.3737   19.3139 C   0  0  0  0  0  0  0  0  0  0  0  0
  -29.0551  -24.5636   18.4586 C   0  0  0  0  0  0  0  0  0  0  0  0
  -28.8785  -26.0224   18.8311 C   0  0  0  0  0  0  0  0  0  1  0  0
  -21.1696  -28.3783   22.1725 C   0  0  1  0  0  0  0  0  0  0  0  0
  -19.1944  -27.3254   19.1132 C   0  0  2  0  0  0  0  0  0  0  0  0
  -20.5517  -28.2665   23.5949 C   0  0  0  0  0  0  0  0  0  0  0  0
  -25.8500  -11.9100   20.9853 N   0  0  0  0  0  0  0  0  0  0  0  0
  -26.3213  -12.8575   20.1570 N   0  0  0  0  0  0  0  0  0  0  0  0
  -23.2354  -29.6361   21.6489 N   0  0  0  0  0  0  0  0  0  0  0  0
  -29.9553  -13.9465   20.6368 N   0  0  0  0  0  0  0  0  0  0  0  0
  -29.9431  -16.2582   20.0221 N   0  0  0  0  0  0  0  0  0  0  0  0
  -27.3484  -20.3907   18.3181 N   0  0  1  0  0  0  0  0  0  0  0  0
  -25.6523  -14.6613   18.7752 N   0  0  0  0  0  0  0  0  0  0  0  0
  -22.1423  -13.2208   18.7859 N   0  0  0  0  0  0  0  0  0  0  0  0
  -24.7752  -32.3432   23.3897 N   0  0  0  0  0  0  0  0  0  0  0  0
  -20.2029  -28.2402   21.0886 N   0  0  0  0  0  0  0  0  0  0  0  0
  -27.7249  -23.9765   18.1228 N   0  3  0  0  0  0  0  0  0  0  0  0
  -19.6813  -26.9177   17.7649 N   0  3  0  0  0  0  0  0  0  0  0  0
  -22.3684  -14.6716   20.5474 O   0  0  0  0  0  0  0  0  0  0  0  0
  -24.9803  -30.0332   23.6006 O   0  0  0  0  0  0  0  0  0  0  0  0
  -21.2213  -30.7457   22.0342 O   0  0  0  0  0  0  0  0  0  0  0  0
  -21.2253  -26.4277   20.0654 O   0  0  0  0  0  0  0  0  0  0  0  0
  -31.7814  -14.9233   19.6210 O   0  0  0  0  0  0  0  0  0  0  0  0
  -21.1312   -8.8946   24.0174 O   0  0  0  0  0  0  0  0  0  0  0  0
  -28.0316  -26.1240   19.9681 O   0  0  0  0  0  0  0  0  0  1  0  0
  -18.1209   -5.1196   21.3544 F   0  0  0  0  0  0  0  0  0  0  0  0
  -21.3945   -6.2043   24.5968 F   0  0  0  0  0  0  0  0  0  0  0  0
  1  2  1  0  0  0  0
  1  5  2  0  0  0  0
  2  6  2  0  0  0  0
  3  8  2  0  0  0  0
  3 15  1  0  0  0  0
  4  9  1  0  0  0  0
  4 15  2  0  0  0  0
  5 17  1  0  0  0  0
  6 19  1  0  0  0  0
  7 10  2  0  0  0  0
  7 18  1  0  0  0  0
  8 21  1  0  0  0  0
  9 21  2  0  0  0  0
 10 22  1  0  0  0  0
 11 12  2  0  0  0  0
 11 23  1  0  0  0  0
 12 24  1  0  0  0  0
 13 20  1  0  0  0  0
 13 22  2  0  0  0  0
 14 24  2  0  0  0  0
 14 25  1  0  0  0  0
 15 26  1  0  0  0  0
 16 26  1  0  0  0  0
 16 27  2  0  0  0  0
 16 28  1  0  0  0  0
 17 19  2  0  0  0  0
 17 33  1  0  0  0  0
 18 20  2  0  0  0  0
 18 34  1  0  0  0  0
 19 49  1  0  0  0  0
 20 35  1  0  0  0  0
 21 82  1  0  0  0  0
 22 83  1  0  0  0  0
 23 25  2  0  0  0  0
 23 82  1  0  0  0  0
 24 84  1  0  0  0  0
 25 85  1  0  0  0  0
 26 65  2  0  0  0  0
 27 66  1  0  0  0  0
 27 71  1  0  0  0  0
 28 72  1  0  0  0  0
 28 77  2  0  0  0  0
 29 50  1  0  0  0  0
 29 73  1  0  0  0  0
 29 78  2  0  0  0  0
 30 62  1  0  0  0  0
 30 67  1  0  0  0  0
 30 79  2  0  0  0  0
 31 63  1  0  0  0  0
 31 74  1  0  0  0  0
 31 80  2  0  0  0  0
 32 68  1  0  0  0  0
 32 69  1  0  0  0  0
 32 81  2  0  0  0  0
 33 36  1  0  0  0  0
 34 50  1  0  0  0  0
 35 67  1  0  0  0  0
 36 38  1  0  0  0  0
 37 39  1  0  0  0  0
 37 43  1  0  0  0  0
 38 49  1  0  0  0  0
 39 52  1  0  0  0  0
 40 44  1  0  0  0  0
 40 51  1  0  0  0  0
 41 45  1  0  0  0  0
 41 51  1  0  0  0  0
 42 46  1  0  0  0  0
 42 53  1  0  0  0  0
 43 68  1  0  0  0  0
 44 69  1  0  0  0  0
 45 69  1  0  0  0  0
 46 70  1  0  0  0  0
 47 52  1  0  0  0  0
 47 68  1  0  0  0  0
 48 53  1  0  0  0  0
 48 70  1  0  0  0  0
 49 73  1  0  0  0  0
 50 67  1  0  0  0  0
 51 59  1  0  0  0  0
 52 66  1  0  0  0  0
 53 75  1  0  0  0  0
 54 63  1  0  0  0  0
 55 64  1  0  0  0  0
 56 64  1  0  0  0  0
 57 64  1  0  0  0  0
 58 76  1  0  0  0  0
 59 70  1  0  0  0  0
 60 61  1  0  0  0  0
 60 75  1  0  0  0  0
 61 83  1  0  0  0  0
 62 64  1  0  0  0  0
 62 74  1  0  0  0  0
 63 76  1  0  0  0  0
 65 66  1  0  0  0  0
M  CHG  2  75   1  76   1
M  ISO  4  32 100  61 101  69 100  83 101
M  END
> <Batch ID>
0194

> <Smiles>
CNC(C)C(=O)NC(C(=O)N1Cc2cc([101O:1][101CH2:1]CNC3CCN(CC4CC[100N:0]([100C:0](=O)N5CCCC(n6nc(-c7ccc(Oc8ccc(F)cc8F)cc7)c(C(N)=O)c6N)C5)CC4)C3)ccc2CC1C(=O)NC1CCCc2ccccc21)C(C)(C)C

> <Shape>
0.345

> <Color>
0.125

> <Negative vol penalty>
0.000

$$$$

  -OEChem-04052323343D

 90100  0     1  0  0  0  0  0999 V2000
  -22.7320  -37.2466   23.8300 C   0  0  0  0  0  0  0  0  0  0  0  0
  -23.3176  -36.6359   22.7256 C   0  0  0  0  0  0  0  0  0  0  0  0
  -23.0384  -10.6444   19.4230 C   0  0  0  0  0  0  0  0  0  0  0  0
  -23.2607   -9.8980   21.7100 C   0  0  0  0  0  0  0  0  0  0  0  0
  -22.8441  -36.6606   25.0901 C   0  0  0  0  0  0  0  0  0  0  0  0
  -24.0166  -35.4394   22.8810 C   0  0  0  0  0  0  0  0  0  0  0  0
  -25.4985  -29.3487   19.4134 C   0  0  0  0  0  0  0  0  0  0  0  0
  -22.0776   -9.6593   19.1949 C   0  0  0  0  0  0  0  0  0  0  0  0
  -22.2999   -8.9129   21.4819 C   0  0  0  0  0  0  0  0  0  0  0  0
  -26.5852  -28.5607   19.0370 C   0  0  0  0  0  0  0  0  0  0  0  0
  -22.1544   -5.8637   20.0286 C   0  0  0  0  0  0  0  0  0  0  0  0
  -22.4171   -4.5795   20.5052 C   0  0  0  0  0  0  0  0  0  0  0  0
  -26.6463  -27.5990   21.2485 C   0  0  0  0  0  0  0  0  0  0  0  0
  -20.4320   -4.6831   21.8785 C   0  0  0  0  0  0  0  0  0  0  0  0
  -28.7137  -23.7087   18.1863 C   0  0  0  0  0  0  0  0  0  0  0  0
  -23.6300  -10.7637   20.6806 C   0  0  0  0  0  0  0  0  0  0  0  0
  -24.4023  -13.0960   21.3676 C   0  0  0  0  0  0  0  0  0  0  0  0
  -23.5366  -35.4513   25.2594 C   0  0  0  0  0  0  0  0  0  0  0  0
  -24.9835  -29.2756   20.7157 C   0  0  0  0  0  0  0  0  0  0  0  0
  -24.1392  -34.8374   24.1448 C   0  0  0  0  0  0  0  0  0  0  0  0
  -25.5513  -28.3853   21.6382 C   0  0  0  0  0  0  0  0  0  0  0  0
  -27.4226  -23.2487   18.0250 C   0  0  0  0  0  0  0  0  0  0  0  0
  -21.7083   -8.7936   20.2243 C   0  0  0  0  0  0  0  0  0  0  0  0
  -27.1611  -27.6878   19.9554 C   0  0  0  0  0  0  0  0  0  0  0  0
  -21.0305   -6.5577   20.4769 C   0  0  0  0  0  0  0  0  0  0  0  0
  -21.5559   -3.9891   21.4302 C   0  0  0  0  0  0  0  0  0  0  0  0
  -20.1693   -5.9674   21.4018 C   0  0  0  0  0  0  0  0  0  0  0  0
  -24.6230  -11.7807   20.9167 C   0  0  0  0  0  0  0  0  0  0  0  0
  -26.4259  -24.1135   18.4289 C   0  0  0  0  0  0  0  0  0  0  0  0
  -25.6562  -13.6531   21.4284 C   0  0  0  0  0  0  0  0  0  0  0  0
  -27.9602  -25.6685   19.0573 C   0  0  0  0  0  0  0  0  0  1  0  0
  -28.7383  -21.7711   21.2921 C   0  0  0  0  0  0  0  0  0  0  0  0
  -27.7533  -21.0906   20.6961 C   0  0  0  0  0  0  0  0  0  0  0  0
  -23.1736  -13.7551   21.7016 C   0  0  0  0  0  0  0  0  0  0  0  0
  -24.6753  -31.3268   23.1243 C   0  0  0  0  0  0  0  0  0  0  0  0
  -23.0541  -28.8735   24.4937 C   0  0  0  0  0  0  0  0  0  0  0  0
  -22.4865  -25.5126   24.6635 C   0  0  0  0  0  0  0  0  0  0  0  0
  -30.6733  -14.5553   19.4446 C   0  0  0  0  0  0  0  0  0  0  0  0
  -23.6714  -34.8803   26.6489 C   0  0  0  0  0  0  0  0  0  0  0  0
  -23.7939  -30.1129   21.0982 C   0  0  0  0  0  0  0  0  0  0  0  0
  -25.0229  -28.2545   23.0425 C   0  0  0  0  0  0  0  0  0  0  0  0
  -24.1095  -33.4181   26.6667 C   0  0  0  0  0  0  0  0  0  0  0  0
  -30.2312  -11.5413   21.0693 C   0  0  0  0  0  0  0  0  0  0  0  0
  -25.2807  -33.2001   25.7140 C   0  0  0  0  0  0  0  0  0  0  0  0
  -28.7142  -11.4310   21.2211 C   0  0  0  0  0  0  0  0  0  0  0  0
  -30.6042  -12.0931   19.6980 C   0  0  0  0  0  0  0  0  0  0  0  0
  -30.4370  -16.9855   19.8071 C   0  0  0  0  0  0  0  0  0  0  0  0
  -29.0897  -15.9309   18.0386 C   0  0  0  0  0  0  0  0  0  0  0  0
  -29.2737  -17.9353   20.0925 C   0  0  0  0  0  0  0  0  0  0  0  0
  -27.9441  -16.8885   18.3600 C   0  0  0  0  0  0  0  0  0  0  0  0
  -28.4630  -13.3198   19.5365 C   0  0  0  0  0  0  0  0  0  0  0  0
  -26.6834  -19.5292   17.9055 C   0  0  0  0  0  0  0  0  0  0  0  0
  -24.8844  -33.5261   24.2689 C   0  0  1  0  0  0  0  0  0  0  0  0
  -27.8570  -20.4975   19.3485 C   0  0  1  0  0  0  0  0  0  0  0  0
  -23.6767  -30.3323   22.6033 C   0  0  1  0  0  0  0  0  0  0  0  0
  -28.0284  -12.7736   20.9115 C   0  0  1  0  0  0  0  0  0  0  0  0
  -27.3384  -19.0495   19.2120 C   0  0  2  0  0  0  0  0  0  0  0  0
  -24.9907  -23.7219   18.3020 C   0  0  0  0  0  0  0  0  0  0  0  0
  -21.1324  -23.8037   25.9059 C   0  0  0  0  0  0  0  0  0  0  0  0
  -24.9137  -29.1507   26.8968 C   0  0  0  0  0  0  0  0  0  0  0  0
  -24.1652  -26.8833   27.6495 C   0  0  0  0  0  0  0  0  0  0  0  0
  -22.5147  -28.7456   27.4755 C   0  0  0  0  0  0  0  0  0  0  0  0
  -21.1277  -24.6211   22.1900 C   0  0  0  0  0  0  0  0  0  0  0  0
  -27.1479  -21.8919   17.4466 C   0  0  0  0  0  0  0  0  0  0  0  0
  -23.4286  -27.6980   25.3638 C   0  0  1  0  0  0  0  0  0  0  0  0
  -21.1992  -24.7082   24.6852 C   0  0  2  0  0  0  0  0  0  0  0  0
  -23.7670  -28.1230   26.8206 C   0  0  0  0  0  0  0  0  0  0  0  0
  -29.0198  -24.9177   18.7009 N   0  0  0  0  0  0  0  0  0  0  0  0
  -25.9155  -11.5180   20.7058 N   0  0  0  0  0  0  0  0  0  0  0  0
  -26.6597  -25.3353   18.9512 N   0  0  0  0  0  0  0  0  0  0  0  0
  -26.5182  -12.6759   21.0256 N   0  0  0  0  0  0  0  0  0  0  0  0
  -23.8623  -29.0989   23.3704 N   0  0  0  0  0  0  0  0  0  0  0  0
  -29.9300  -13.3655   19.4417 N   0  0  0  0  0  0  0  0  0  0  0  0
  -29.9678  -15.7430   19.1992 N   0  0  0  0  0  0  0  0  0  0  0  0
  -28.4644  -18.1578   18.8870 N   0  0  0  0  0  0  0  0  0  0  0  0
  -26.0946  -14.8786   21.7865 N   0  0  0  0  0  0  0  0  0  0  0  0
  -21.9762  -13.0366   21.5828 N   0  0  0  0  0  0  0  0  0  0  0  0
  -24.1062  -32.4455   23.7022 N   0  0  0  0  0  0  0  0  0  0  0  0
  -22.3282  -26.7459   25.2594 N   0  0  0  0  0  0  0  0  0  0  0  0
  -26.7298  -20.9008   18.4648 N   0  3  1  0  0  0  0  0  0  0  0  0
  -21.0985  -23.8589   23.4648 N   0  3  0  0  0  0  0  0  0  0  0  0
  -23.1371  -14.9511   22.0783 O   0  0  0  0  0  0  0  0  0  0  0  0
  -25.8735  -31.0955   23.0118 O   0  0  0  0  0  0  0  0  0  0  0  0
  -22.0760  -29.5619   24.7956 O   0  0  0  0  0  0  0  0  0  0  0  0
  -23.5291  -25.0877   24.1706 O   0  0  0  0  0  0  0  0  0  0  0  0
  -31.8918  -14.5598   19.6592 O   0  0  0  0  0  0  0  0  0  0  0  0
  -20.7706   -7.8324   20.0022 O   0  0  0  0  0  0  0  0  0  0  0  0
  -28.2358  -26.9081   19.5861 O   0  0  0  0  0  0  0  0  0  1  0  0
  -21.8075   -2.7552   21.8866 F   0  0  0  0  0  0  0  0  0  0  0  0
  -19.0874   -6.6287   21.8353 F   0  0  0  0  0  0  0  0  0  0  0  0
  1  2  1  0  0  0  0
  1  5  2  0  0  0  0
  2  6  2  0  0  0  0
  3  8  2  0  0  0  0
  3 16  1  0  0  0  0
  4  9  1  0  0  0  0
  4 16  2  0  0  0  0
  5 18  1  0  0  0  0
  6 20  1  0  0  0  0
  7 10  2  0  0  0  0
  7 19  1  0  0  0  0
  8 23  1  0  0  0  0
  9 23  2  0  0  0  0
 10 24  1  0  0  0  0
 11 12  2  0  0  0  0
 11 25  1  0  0  0  0
 12 26  1  0  0  0  0
 13 21  1  0  0  0  0
 13 24  2  0  0  0  0
 14 26  2  0  0  0  0
 14 27  1  0  0  0  0
 15 22  1  0  0  0  0
 15 68  2  0  0  0  0
 16 28  1  0  0  0  0
 17 28  1  0  0  0  0
 17 30  2  0  0  0  0
 17 34  1  0  0  0  0
 18 20  2  0  0  0  0
 18 39  1  0  0  0  0
 19 21  2  0  0  0  0
 19 40  1  0  0  0  0
 20 53  1  0  0  0  0
 21 41  1  0  0  0  0
 22 29  2  0  0  0  0
 22 64  1  0  0  0  0
 23 87  1  0  0  0  0
 24 88  1  0  0  0  0
 25 27  2  0  0  0  0
 25 87  1  0  0  0  0
 26 89  1  0  0  0  0
 27 90  1  0  0  0  0
 28 69  2  0  0  0  0
 29 58  1  0  0  0  0
 29 70  1  0  0  0  0
 30 71  1  0  0  0  0
 30 76  1  0  0  0  0
 31 68  1  0  0  0  0
 31 70  2  0  0  0  0
 31 88  1  0  0  0  0
 32 33  2  0  0  0  0
 33 54  1  0  0  0  0
 34 77  1  0  0  0  0
 34 82  2  0  0  0  0
 35 55  1  0  0  0  0
 35 78  1  0  0  0  0
 35 83  2  0  0  0  0
 36 65  1  0  0  0  0
 36 72  1  0  0  0  0
 36 84  2  0  0  0  0
 37 66  1  0  0  0  0
 37 79  1  0  0  0  0
 37 85  2  0  0  0  0
 38 73  1  0  0  0  0
 38 74  1  0  0  0  0
 38 86  2  0  0  0  0
 39 42  1  0  0  0  0
 40 55  1  0  0  0  0
 41 72  1  0  0  0  0
 42 44  1  0  0  0  0
 43 45  1  0  0  0  0
 43 46  1  0  0  0  0
 44 53  1  0  0  0  0
 45 56  1  0  0  0  0
 46 73  1  0  0  0  0
 47 49  1  0  0  0  0
 47 74  1  0  0  0  0
 48 50  1  0  0  0  0
 48 74  1  0  0  0  0
 49 75  1  0  0  0  0
 50 75  1  0  0  0  0
 51 56  1  0  0  0  0
 51 73  1  0  0  0  0
 52 57  1  0  0  0  0
 52 80  1  0  0  0  0
 53 78  1  0  0  0  0
 54 57  1  0  0  0  0
 54 80  1  0  0  0  0
 55 72  1  0  0  0  0
 56 71  1  0  0  0  0
 57 75  1  0  0  0  0
 59 66  1  0  0  0  0
 60 67  1  0  0  0  0
 61 67  1  0  0  0  0
 62 67  1  0  0  0  0
 63 81  1  0  0  0  0
 64 80  1  0  0  0  0
 65 67  1  0  0  0  0
 65 79  1  0  0  0  0
 66 81  1  0  0  0  0
 69 71  1  0  0  0  0
M  CHG  2  80   1  81   1
M  ISO  4  31 101  38 100  74 100  88 101
M  END
> <Batch ID>
0194

> <Smiles>
C=CC1C(N2CC[100N:0]([100C:0](=O)N3CCCC(n4nc(-c5ccc(Oc6ccc(F)cc6F)cc5)c(C(N)=O)c4N)C3)CC2)CN1Cc1cn[101c:1]([101O:1]c2ccc3c(c2)CN(C(=O)C(NC(=O)C(C)NC)C(C)(C)C)C(C(=O)NC2CCCc4ccccc42)C3)nc1C

> <Shape>
0.299

> <Color>
0.117

> <Negative vol penalty>
0.000

$$$$

  -OEChem-04052323343D

 86 95  0     1  0  0  0  0  0999 V2000
  -25.3294  -35.7527   22.4602 C   0  0  0  0  0  0  0  0  0  0  0  0
  -26.0135  -34.5520   22.2996 C   0  0  0  0  0  0  0  0  0  0  0  0
  -22.6700   -9.8771   22.3289 C   0  0  0  0  0  0  0  0  0  0  0  0
  -23.2588   -9.5186   20.0134 C   0  0  0  0  0  0  0  0  0  0  0  0
  -24.0577  -35.7579   23.0317 C   0  0  0  0  0  0  0  0  0  0  0  0
  -25.4267  -33.3560   22.7114 C   0  0  0  0  0  0  0  0  0  0  0  0
  -25.9573  -29.6547   19.2961 C   0  0  0  0  0  0  0  0  0  0  0  0
  -22.0974   -8.6062   22.3801 C   0  0  0  0  0  0  0  0  0  0  0  0
  -22.6862   -8.2477   20.0645 C   0  0  0  0  0  0  0  0  0  0  0  0
  -27.1959  -29.0176   19.2349 C   0  0  0  0  0  0  0  0  0  0  0  0
  -20.8009   -5.3164   23.2236 C   0  0  0  0  0  0  0  0  0  0  0  0
  -21.0879   -4.5200   24.3321 C   0  0  0  0  0  0  0  0  0  0  0  0
  -26.3120  -27.1876   20.5345 C   0  0  0  0  0  0  0  0  0  0  0  0
  -23.4402   -4.6107   23.7883 C   0  0  0  0  0  0  0  0  0  0  0  0
  -27.8556  -24.0578   18.2599 C   0  0  0  0  0  0  0  0  0  0  0  0
  -29.4014  -24.9555   20.2428 C   0  0  0  0  0  0  0  0  0  0  0  0
  -23.2507  -10.3333   21.1455 C   0  0  0  0  0  0  0  0  0  0  0  0
  -25.1767  -11.9898   21.3779 C   0  0  0  0  0  0  0  0  0  0  0  0
  -23.4510  -34.5603   23.4419 C   0  0  0  0  0  0  0  0  0  0  0  0
  -24.8881  -29.0672   19.9874 C   0  0  0  0  0  0  0  0  0  0  0  0
  -24.1463  -33.3454   23.2902 C   0  0  0  0  0  0  0  0  0  0  0  0
  -25.0601  -27.8181   20.6008 C   0  0  0  0  0  0  0  0  0  0  0  0
  -22.1055   -7.7915   21.2479 C   0  0  0  0  0  0  0  0  0  0  0  0
  -27.3742  -27.7852   19.8566 C   0  0  0  0  0  0  0  0  0  0  0  0
  -21.8335   -5.7600   22.3973 C   0  0  0  0  0  0  0  0  0  0  0  0
  -22.4076   -4.1671   24.6145 C   0  0  0  0  0  0  0  0  0  0  0  0
  -23.1532   -5.4071   22.6797 C   0  0  0  0  0  0  0  0  0  0  0  0
  -23.8418  -11.6462   21.0919 C   0  0  0  0  0  0  0  0  0  0  0  0
  -28.6485  -23.1982   18.9880 C   0  0  0  0  0  0  0  0  0  0  0  0
  -28.6088  -25.8151   19.5145 C   0  0  0  0  0  0  0  0  0  1  0  0
  -25.2315  -13.3479   21.1807 C   0  0  0  0  0  0  0  0  0  0  0  0
  -26.2695  -11.1558   21.7854 C   0  0  0  0  0  0  0  0  0  0  0  0
  -23.1244  -29.8829   22.5029 C   0  0  0  0  0  0  0  0  0  0  0  0
  -21.4421  -27.2303   21.6930 C   0  0  0  0  0  0  0  0  0  0  0  0
  -21.3924  -24.1949   20.1340 C   0  0  0  0  0  0  0  0  0  0  0  0
  -23.8416  -17.6216   17.6929 C   0  0  0  0  0  0  0  0  0  0  0  0
  -22.0943  -34.6213   24.0978 C   0  0  0  0  0  0  0  0  0  0  0  0
  -23.5507  -29.7548   20.0214 C   0  0  0  0  0  0  0  0  0  0  0  0
  -23.9382  -27.1355   21.3383 C   0  0  0  0  0  0  0  0  0  0  0  0
  -21.3887  -33.2693   24.1645 C   0  0  0  0  0  0  0  0  0  0  0  0
  -21.5623  -16.7432   20.4812 C   0  0  0  0  0  0  0  0  0  0  0  0
  -22.3470  -32.1908   24.6596 C   0  0  0  0  0  0  0  0  0  0  0  0
  -22.0226  -15.3347   20.8524 C   0  0  0  0  0  0  0  0  0  0  0  0
  -26.3838  -19.9731   17.4824 C   0  0  0  0  0  0  0  0  0  0  0  0
  -26.4857  -18.7852   19.7097 C   0  0  0  0  0  0  0  0  0  0  0  0
  -21.8339  -17.0597   19.0139 C   0  0  0  0  0  0  0  0  0  0  0  0
  -25.9206  -18.6664   16.8438 C   0  0  0  0  0  0  0  0  0  0  0  0
  -25.9932  -17.5045   19.0292 C   0  0  0  0  0  0  0  0  0  0  0  0
  -23.7153  -15.4529   18.9808 C   0  0  0  0  0  0  0  0  0  0  0  0
  -23.5329  -32.0246   23.7017 C   0  0  1  0  0  0  0  0  0  0  0  0
  -22.6778  -29.3061   21.1894 C   0  0  1  0  0  0  0  0  0  0  0  0
  -23.4956  -15.1200   20.4643 C   0  0  2  0  0  0  0  0  0  0  0  0
  -27.2277  -19.6829   18.7219 C   0  0  0  0  0  0  0  0  0  0  0  0
  -29.9926  -21.0569   19.0240 C   0  0  0  0  0  0  0  0  0  0  0  0
  -19.8862  -22.2412   19.6737 C   0  0  0  0  0  0  0  0  0  0  0  0
  -21.8147  -26.2695   24.5649 C   0  0  0  0  0  0  0  0  0  0  0  0
  -21.1545  -23.9757   23.8095 C   0  0  0  0  0  0  0  0  0  0  0  0
  -19.5363  -25.8643   23.6166 C   0  0  0  0  0  0  0  0  0  0  0  0
  -21.5789  -24.5921   17.2072 C   0  0  0  0  0  0  0  0  0  0  0  0
  -27.8840  -20.7891   20.8541 C   0  0  0  0  0  0  0  0  0  0  0  0
  -28.6611  -21.7189   18.6787 C   0  0  1  0  0  0  0  0  0  0  0  0
  -21.5183  -25.7655   22.0501 C   0  0  1  0  0  0  0  0  0  0  0  0
  -20.4024  -23.5774   19.1629 C   0  0  2  0  0  0  0  0  0  0  0  0
  -21.0278  -25.4823   23.4981 C   0  0  0  0  0  0  0  0  0  0  0  0
  -29.4355  -23.6315   19.9927 N   0  0  0  0  0  0  0  0  0  0  0  0
  -27.8216  -25.3817   18.5100 N   0  0  0  0  0  0  0  0  0  0  0  0
  -23.1019  -12.7011   20.7399 N   0  0  0  0  0  0  0  0  0  0  0  0
  -23.9749  -13.7208   20.8036 N   0  0  0  0  0  0  0  0  0  0  0  0
  -22.6514  -27.8508   21.3489 N   0  0  0  0  0  0  0  0  0  0  0  0
  -23.2292  -16.8029   18.6566 N   0  0  0  0  0  0  0  0  0  0  0  0
  -25.2250  -17.8210   17.8160 N   0  0  0  0  0  0  0  0  0  0  0  0
  -26.2314  -14.2477   21.2949 N   0  0  0  0  0  0  0  0  0  0  0  0
  -26.0398   -9.7820   21.9404 N   0  0  0  0  0  0  0  0  0  0  0  0
  -23.1378  -31.2643   22.5354 N   0  0  0  0  0  0  0  0  0  0  0  0
  -20.7734  -25.0541   21.0170 N   0  0  0  0  0  0  0  0  0  0  0  0
  -21.0463  -23.3566   17.8371 N   0  3  0  0  0  0  0  0  0  0  0  0
  -27.5650  -20.9661   19.3906 N   0  3  1  0  0  0  0  0  0  0  0  0
  -27.4116  -11.6178   22.0213 O   0  0  0  0  0  0  0  0  0  0  0  0
  -23.4327  -29.1303   23.4196 O   0  0  0  0  0  0  0  0  0  0  0  0
  -20.3488  -27.8012   21.7115 O   0  0  0  0  0  0  0  0  0  0  0  0
  -22.5940  -23.9376   20.1138 O   0  0  0  0  0  0  0  0  0  0  0  0
  -23.1899  -18.1437   16.7798 O   0  0  0  0  0  0  0  0  0  0  0  0
  -21.5470   -6.5513   21.2976 O   0  0  0  0  0  0  0  0  0  0  0  0
  -28.6015  -27.1516   19.7980 O   0  0  0  0  0  0  0  0  0  1  0  0
  -22.6832   -3.4036   25.6800 F   0  0  0  0  0  0  0  0  0  0  0  0
  -24.1495   -5.8312   21.8902 F   0  0  0  0  0  0  0  0  0  0  0  0
  1  2  1  0  0  0  0
  1  5  2  0  0  0  0
  2  6  2  0  0  0  0
  3  8  2  0  0  0  0
  3 17  1  0  0  0  0
  4  9  1  0  0  0  0
  4 17  2  0  0  0  0
  5 19  1  0  0  0  0
  6 21  1  0  0  0  0
  7 10  2  0  0  0  0
  7 20  1  0  0  0  0
  8 23  1  0  0  0  0
  9 23  2  0  0  0  0
 10 24  1  0  0  0  0
 11 12  2  0  0  0  0
 11 25  1  0  0  0  0
 12 26  1  0  0  0  0
 13 22  1  0  0  0  0
 13 24  2  0  0  0  0
 14 26  2  0  0  0  0
 14 27  1  0  0  0  0
 15 29  2  0  0  0  0
 15 66  1  0  0  0  0
 16 30  1  0  0  0  0
 16 65  2  0  0  0  0
 17 28  1  0  0  0  0
 18 28  1  0  0  0  0
 18 31  2  0  0  0  0
 18 32  1  0  0  0  0
 19 21  2  0  0  0  0
 19 37  1  0  0  0  0
 20 22  2  0  0  0  0
 20 38  1  0  0  0  0
 21 50  1  0  0  0  0
 22 39  1  0  0  0  0
 23 83  1  0  0  0  0
 24 84  1  0  0  0  0
 25 27  2  0  0  0  0
 25 83  1  0  0  0  0
 26 85  1  0  0  0  0
 27 86  1  0  0  0  0
 28 67  2  0  0  0  0
 29 61  1  0  0  0  0
 29 65  1  0  0  0  0
 30 66  2  0  0  0  0
 30 84  1  0  0  0  0
 31 68  1  0  0  0  0
 31 72  1  0  0  0  0
 32 73  1  0  0  0  0
 32 78  2  0  0  0  0
 33 51  1  0  0  0  0
 33 74  1  0  0  0  0
 33 79  2  0  0  0  0
 34 62  1  0  0  0  0
 34 69  1  0  0  0  0
 34 80  2  0  0  0  0
 35 63  1  0  0  0  0
 35 75  1  0  0  0  0
 35 81  2  0  0  0  0
 36 70  1  0  0  0  0
 36 71  1  0  0  0  0
 36 82  2  0  0  0  0
 37 40  1  0  0  0  0
 38 51  1  0  0  0  0
 39 69  1  0  0  0  0
 40 42  1  0  0  0  0
 41 43  1  0  0  0  0
 41 46  1  0  0  0  0
 42 50  1  0  0  0  0
 43 52  1  0  0  0  0
 44 47  1  0  0  0  0
 44 53  1  0  0  0  0
 45 48  1  0  0  0  0
 45 53  1  0  0  0  0
 46 70  1  0  0  0  0
 47 71  1  0  0  0  0
 48 71  1  0  0  0  0
 49 52  1  0  0  0  0
 49 70  1  0  0  0  0
 50 74  1  0  0  0  0
 51 69  1  0  0  0  0
 52 68  1  0  0  0  0
 53 77  1  0  0  0  0
 54 61  1  0  0  0  0
 55 63  1  0  0  0  0
 56 64  1  0  0  0  0
 57 64  1  0  0  0  0
 58 64  1  0  0  0  0
 59 76  1  0  0  0  0
 60 77  1  0  0  0  0
 61 77  1  0  0  0  0
 62 64  1  0  0  0  0
 62 75  1  0  0  0  0
 63 76  1  0  0  0  0
 67 68  1  0  0  0  0
M  CHG  2  76   1  77   1
M  ISO  4  30 101  36 100  71 100  84 101
M  END
> <Batch ID>
0194

> <Smiles>
CNC(C)C(=O)NC(C(=O)N1Cc2cc([101O:1][101c:1]3cnc(C(C)N(C)C4CC[100N:0]([100C:0](=O)N5CCCC(n6nc(-c7ccc(Oc8ccc(F)cc8F)cc7)c(C(N)=O)c6N)C5)CC4)cn3)ccc2CC1C(=O)NC1CCCc2ccccc21)C(C)(C)C

> <Shape>
0.267

> <Color>
0.109

> <Negative vol penalty>
0.000

$$$$

  -OEChem-04052323343D

 86 95  0     1  0  0  0  0  0999 V2000
  -27.9291  -31.9693   27.2661 C   0  0  0  0  0  0  0  0  0  0  0  0
  -27.9201  -30.6916   26.7158 C   0  0  0  0  0  0  0  0  0  0  0  0
  -24.1666  -14.4424   20.6328 C   0  0  0  0  0  0  0  0  0  0  0  0
  -25.9754  -14.1372   19.0604 C   0  0  0  0  0  0  0  0  0  0  0  0
  -26.8229  -32.8031   27.1076 C   0  0  0  0  0  0  0  0  0  0  0  0
  -26.8043  -30.2465   26.0077 C   0  0  0  0  0  0  0  0  0  0  0  0
  -28.0487  -27.9038   21.6940 C   0  0  0  0  0  0  0  0  0  0  0  0
  -23.7161  -13.1497   20.3655 C   0  0  0  0  0  0  0  0  0  0  0  0
  -25.5248  -12.8444   18.7932 C   0  0  0  0  0  0  0  0  0  0  0  0
  -28.5023  -26.5891   21.7914 C   0  0  0  0  0  0  0  0  0  0  0  0
  -22.3008   -9.8013   20.3651 C   0  0  0  0  0  0  0  0  0  0  0  0
  -21.9416   -9.0023   21.4505 C   0  0  0  0  0  0  0  0  0  0  0  0
  -26.3143  -25.7936   21.1597 C   0  0  0  0  0  0  0  0  0  0  0  0
  -24.1834   -9.1915   22.3314 C   0  0  0  0  0  0  0  0  0  0  0  0
  -25.2962  -14.9362   19.9802 C   0  0  0  0  0  0  0  0  0  0  0  0
  -26.6861  -16.6633   21.2424 C   0  0  0  0  0  0  0  0  0  0  0  0
  -25.6969  -32.3715   26.3889 C   0  0  0  0  0  0  0  0  0  0  0  0
  -26.7192  -28.1735   21.3387 C   0  0  0  0  0  0  0  0  0  0  0  0
  -25.6815  -31.0748   25.8407 C   0  0  0  0  0  0  0  0  0  0  0  0
  -25.8469  -27.1127   21.0560 C   0  0  0  0  0  0  0  0  0  0  0  0
  -24.3952  -12.3507   19.4457 C   0  0  0  0  0  0  0  0  0  0  0  0
  -27.6344  -25.5337   21.5270 C   0  0  0  0  0  0  0  0  0  0  0  0
  -23.6012  -10.2953   20.2627 C   0  0  0  0  0  0  0  0  0  0  0  0
  -22.8829   -8.6974   22.4337 C   0  0  0  0  0  0  0  0  0  0  0  0
  -24.5425   -9.9905   21.2459 C   0  0  0  0  0  0  0  0  0  0  0  0
  -25.7618  -16.2717   20.2554 C   0  0  0  0  0  0  0  0  0  0  0  0
  -26.7892  -18.0250   21.0954 C   0  0  0  0  0  0  0  0  0  0  0  0
  -28.2730  -20.0272   17.1829 C   0  0  0  0  0  0  0  0  0  0  0  0
  -29.6048  -19.1936   18.7855 C   0  0  0  0  0  0  0  0  0  0  0  0
  -28.8982  -21.3202   18.9075 C   0  0  0  0  0  0  0  0  0  0  0  0
  -27.3887  -15.8672   22.2059 C   0  0  0  0  0  0  0  0  0  0  0  0
  -24.2636  -29.6054   22.7612 C   0  0  0  0  0  0  0  0  0  0  0  0
  -22.8392  -29.1622   19.8807 C   0  0  0  0  0  0  0  0  0  0  0  0
  -22.6901  -27.3979   16.9632 C   0  0  0  0  0  0  0  0  0  0  0  0
  -25.3996  -21.4406   16.1553 C   0  0  0  0  0  0  0  0  0  0  0  0
  -24.5061  -33.2912   26.2845 C   0  0  0  0  0  0  0  0  0  0  0  0
  -26.2526  -29.5978   21.2120 C   0  0  0  0  0  0  0  0  0  0  0  0
  -24.4157  -27.3493   20.6509 C   0  0  0  0  0  0  0  0  0  0  0  0
  -23.5128  -32.8808   25.2004 C   0  0  0  0  0  0  0  0  0  0  0  0
  -24.3290  -21.8435   19.6797 C   0  0  0  0  0  0  0  0  0  0  0  0
  -23.2252  -31.3848   25.2786 C   0  0  0  0  0  0  0  0  0  0  0  0
  -24.5752  -20.4581   20.2691 C   0  0  0  0  0  0  0  0  0  0  0  0
  -28.1810  -20.3298   14.5432 C   0  0  0  0  0  0  0  0  0  0  0  0
  -24.0533  -21.7761   18.1818 C   0  0  0  0  0  0  0  0  0  0  0  0
  -26.8955  -21.0418   14.1386 C   0  0  0  0  0  0  0  0  0  0  0  0
  -25.3868  -19.7024   17.9965 C   0  0  0  0  0  0  0  0  0  0  0  0
  -24.4998  -30.5649   25.0447 C   0  0  1  0  0  0  0  0  0  0  0  0
  -27.4737  -19.8381   15.8261 C   0  0  2  0  0  0  0  0  0  0  0  0
  -24.7398  -29.7448   21.3429 C   0  0  1  0  0  0  0  0  0  0  0  0
  -25.6945  -19.7376   19.5026 C   0  0  2  0  0  0  0  0  0  0  0  0
  -32.6964  -17.0771   19.7168 C   0  0  0  0  0  0  0  0  0  0  0  0
  -21.3964  -27.2433   14.8185 C   0  0  0  0  0  0  0  0  0  0  0  0
  -20.5479  -27.7985   21.3639 C   0  0  0  0  0  0  0  0  0  0  0  0
  -19.7883  -26.8494   19.1752 C   0  0  0  0  0  0  0  0  0  0  0  0
  -19.8329  -29.3206   19.5128 C   0  0  0  0  0  0  0  0  0  0  0  0
  -25.0916  -27.9867   15.3369 C   0  0  0  0  0  0  0  0  0  0  0  0
  -30.3881  -18.0587   19.3527 C   0  0  0  0  0  0  0  0  0  0  0  0
  -31.8965  -18.2178   19.1079 C   0  0  0  0  0  0  0  0  0  0  0  0
  -29.4534  -24.0130   21.3413 C   0  0  0  0  0  0  0  0  0  1  0  0
  -29.6101  -22.6173   20.7694 C   0  0  0  0  0  0  0  0  0  0  0  0
  -22.0123  -28.0654   19.2544 C   0  0  1  0  0  0  0  0  0  0  0  0
  -22.6041  -27.8492   15.5164 C   0  0  2  0  0  0  0  0  0  0  0  0
  -20.5717  -28.0036   19.8361 C   0  0  0  0  0  0  0  0  0  0  0  0
  -25.3098  -17.3015   19.5348 N   0  0  0  0  0  0  0  0  0  0  0  0
  -28.9544  -18.9615   17.6340 N   0  0  0  0  0  0  0  0  0  0  0  0
  -28.1988  -21.2353   17.7644 N   0  0  0  0  0  0  0  0  0  0  0  0
  -29.6228  -20.3441   19.4776 N   0  0  0  0  0  0  0  0  0  0  0  0
  -25.9527  -18.3535   20.0695 N   0  0  0  0  0  0  0  0  0  0  0  0
  -24.0052  -28.7593   20.5470 N   0  0  0  0  0  0  0  0  0  0  0  0
  -25.0956  -21.0394   17.4620 N   0  0  0  0  0  0  0  0  0  0  0  0
  -26.3983  -20.7749   15.4826 N   0  0  0  0  0  0  0  0  0  0  0  0
  -27.5129  -18.9614   21.7450 N   0  0  0  0  0  0  0  0  0  0  0  0
  -27.1660  -14.4836   22.2195 N   0  0  0  0  0  0  0  0  0  0  0  0
  -24.8203  -30.5205   23.6341 N   0  0  0  0  0  0  0  0  0  0  0  0
  -22.0658  -28.2861   17.8133 N   0  0  0  0  0  0  0  0  0  0  0  0
  -23.8298  -27.4418   14.7730 N   0  3  0  0  0  0  0  0  0  0  0  0
  -28.1779  -16.3702   23.0412 O   0  0  0  0  0  0  0  0  0  0  0  0
  -23.4501  -28.7331   23.0424 O   0  0  0  0  0  0  0  0  0  0  0  0
  -22.4681  -30.3340   19.7762 O   0  0  0  0  0  0  0  0  0  0  0  0
  -23.2513  -26.3592   17.3048 O   0  0  0  0  0  0  0  0  0  0  0  0
  -24.8132  -22.3872   15.6130 O   0  0  0  0  0  0  0  0  0  0  0  0
  -23.9560  -11.0891   19.1849 O   0  0  0  0  0  0  0  0  0  0  0  0
  -28.0744  -24.2495   21.6220 O   0  0  0  0  0  0  0  0  0  1  0  0
  -28.8698  -22.5256   19.5583 O   0  0  0  0  0  0  0  0  0  0  0  0
  -22.5375   -7.9314   23.4768 F   0  0  0  0  0  0  0  0  0  0  0  0
  -25.7930  -10.4632   21.1537 F   0  0  0  0  0  0  0  0  0  0  0  0
  1  2  1  0  0  0  0
  1  5  2  0  0  0  0
  2  6  2  0  0  0  0
  3  8  2  0  0  0  0
  3 15  1  0  0  0  0
  4  9  1  0  0  0  0
  4 15  2  0  0  0  0
  5 17  1  0  0  0  0
  6 19  1  0  0  0  0
  7 10  2  0  0  0  0
  7 18  1  0  0  0  0
  8 21  1  0  0  0  0
  9 21  2  0  0  0  0
 10 22  1  0  0  0  0
 11 12  2  0  0  0  0
 11 23  1  0  0  0  0
 12 24  1  0  0  0  0
 13 20  1  0  0  0  0
 13 22  2  0  0  0  0
 14 24  2  0  0  0  0
 14 25  1  0  0  0  0
 15 26  1  0  0  0  0
 16 26  1  0  0  0  0
 16 27  2  0  0  0  0
 16 31  1  0  0  0  0
 17 19  2  0  0  0  0
 17 36  1  0  0  0  0
 18 20  2  0  0  0  0
 18 37  1  0  0  0  0
 19 47  1  0  0  0  0
 20 38  1  0  0  0  0
 21 82  1  0  0  0  0
 22 83  1  0  0  0  0
 23 25  2  0  0  0  0
 23 82  1  0  0  0  0
 24 85  1  0  0  0  0
 25 86  1  0  0  0  0
 26 64  2  0  0  0  0
 27 68  1  0  0  0  0
 27 72  1  0  0  0  0
 28 48  1  0  0  0  0
 28 65  1  0  0  0  0
 28 66  2  0  0  0  0
 29 57  1  0  0  0  0
 29 65  2  0  0  0  0
 29 67  1  0  0  0  0
 30 66  1  0  0  0  0
 30 67  2  0  0  0  0
 30 84  1  0  0  0  0
 31 73  1  0  0  0  0
 31 77  2  0  0  0  0
 32 49  1  0  0  0  0
 32 74  1  0  0  0  0
 32 78  2  0  0  0  0
 33 61  1  0  0  0  0
 33 69  1  0  0  0  0
 33 79  2  0  0  0  0
 34 62  1  0  0  0  0
 34 75  1  0  0  0  0
 34 80  2  0  0  0  0
 35 70  1  0  0  0  0
 35 71  1  0  0  0  0
 35 81  2  0  0  0  0
 36 39  1  0  0  0  0
 37 49  1  0  0  0  0
 38 69  1  0  0  0  0
 39 41  1  0  0  0  0
 40 42  1  0  0  0  0
 40 44  1  0  0  0  0
 41 47  1  0  0  0  0
 42 50  1  0  0  0  0
 43 45  1  0  0  0  0
 43 48  1  0  0  0  0
 44 70  1  0  0  0  0
 45 71  1  0  0  0  0
 46 50  1  0  0  0  0
 46 70  1  0  0  0  0
 47 74  1  0  0  0  0
 48 71  1  0  0  0  0
 49 69  1  0  0  0  0
 50 68  1  0  0  0  0
 51 58  1  0  0  0  0
 52 62  1  0  0  0  0
 53 63  1  0  0  0  0
 54 63  1  0  0  0  0
 55 63  1  0  0  0  0
 56 76  1  0  0  0  0
 57 58  1  0  0  0  0
 59 60  1  0  0  0  0
 59 83  1  0  0  0  0
 60 84  1  0  0  0  0
 61 63  1  0  0  0  0
 61 75  1  0  0  0  0
 62 76  1  0  0  0  0
 64 68  1  0  0  0  0
M  CHG  1  76   1
M  ISO  4  35 100  59 101  71 100  83 101
M  END
> <Batch ID>
0194

> <Smiles>
CCCc1nc(OC[101CH2:1][101O:1]c2ccc3c(c2)CN(C(=O)C(NC(=O)C(C)NC)C(C)(C)C)C(C(=O)NC2CCCc4ccccc42)C3)nc(C2CC[100N:0]2[100C:0](=O)N2CCCC(n3nc(-c4ccc(Oc5ccc(F)cc5F)cc4)c(C(N)=O)c3N)C2)n1

> <Shape>
0.224

> <Color>
0.063

> <Negative vol penalty>
0.000

$$$$

  -OEChem-04052323343D

 85 95  0     1  0  0  0  0  0999 V2000
  -28.7808  -38.1629   25.2304 C   0  0  0  0  0  0  0  0  0  0  0  0
  -29.2716  -37.3735   24.1953 C   0  0  0  0  0  0  0  0  0  0  0  0
  -23.0875   -9.9821   20.4245 C   0  0  0  0  0  0  0  0  0  0  0  0
  -24.4811   -9.0456   22.1617 C   0  0  0  0  0  0  0  0  0  0  0  0
  -28.0309  -37.5828   26.2527 C   0  0  0  0  0  0  0  0  0  0  0  0
  -29.0136  -36.0032   24.1825 C   0  0  0  0  0  0  0  0  0  0  0  0
  -27.8684  -30.5803   19.6441 C   0  0  0  0  0  0  0  0  0  0  0  0
  -22.3827   -8.7812   20.3424 C   0  0  0  0  0  0  0  0  0  0  0  0
  -23.7763   -7.8446   22.0797 C   0  0  0  0  0  0  0  0  0  0  0  0
  -28.3316  -29.2959   19.3618 C   0  0  0  0  0  0  0  0  0  0  0  0
  -20.8226   -6.6127   23.1652 C   0  0  0  0  0  0  0  0  0  0  0  0
  -20.4383   -6.0056   24.3607 C   0  0  0  0  0  0  0  0  0  0  0  0
  -26.9575  -28.4164   21.1388 C   0  0  0  0  0  0  0  0  0  0  0  0
  -21.7253   -4.0454   23.7790 C   0  0  0  0  0  0  0  0  0  0  0  0
  -29.3855  -23.4351   17.4078 C   0  0  0  0  0  0  0  0  0  0  0  0
  -24.1367  -10.1143   21.3341 C   0  0  0  0  0  0  0  0  0  0  0  0
  -24.5752  -12.4561   22.2459 C   0  0  0  0  0  0  0  0  0  0  0  0
  -27.7555  -36.2063   26.2473 C   0  0  0  0  0  0  0  0  0  0  0  0
  -26.9531  -30.7941   20.6847 C   0  0  0  0  0  0  0  0  0  0  0  0
  -28.2605  -35.4039   25.2063 C   0  0  0  0  0  0  0  0  0  0  0  0
  -26.4823  -29.7041   21.4306 C   0  0  0  0  0  0  0  0  0  0  0  0
  -30.2109  -22.7948   18.2935 C   0  0  0  0  0  0  0  0  0  0  0  0
  -22.7271   -7.7125   21.1700 C   0  0  0  0  0  0  0  0  0  0  0  0
  -27.8784  -28.2141   20.1111 C   0  0  0  0  0  0  0  0  0  0  0  0
  -21.6582   -5.9361   22.2765 C   0  0  0  0  0  0  0  0  0  0  0  0
  -20.8896   -4.7220   24.6677 C   0  0  0  0  0  0  0  0  0  0  0  0
  -22.1095   -4.6525   22.5835 C   0  0  0  0  0  0  0  0  0  0  0  0
  -24.8654  -11.3544   21.4189 C   0  0  0  0  0  0  0  0  0  0  0  0
  -30.7169  -23.5557   19.3349 C   0  0  0  0  0  0  0  0  0  0  0  0
  -25.5561  -13.3722   21.9541 C   0  0  0  0  0  0  0  0  0  0  0  0
  -29.6172  -25.3744   18.6079 C   0  0  0  0  0  0  0  0  0  0  0  0
  -23.5140  -12.6352   23.1932 C   0  0  0  0  0  0  0  0  0  0  0  0
  -26.9940  -32.4361   23.4061 C   0  0  0  0  0  0  0  0  0  0  0  0
  -23.8757  -31.5515   23.5332 C   0  0  0  0  0  0  0  0  0  0  0  0
  -21.4465  -29.3533   22.5772 C   0  0  0  0  0  0  0  0  0  0  0  0
  -28.4376  -16.1337   18.1563 C   0  0  0  0  0  0  0  0  0  0  0  0
  -26.9804  -35.6166   27.3988 C   0  0  0  0  0  0  0  0  0  0  0  0
  -26.4427  -32.1822   20.9592 C   0  0  0  0  0  0  0  0  0  0  0  0
  -25.4842  -29.8776   22.5450 C   0  0  0  0  0  0  0  0  0  0  0  0
  -31.6427  -22.7360   20.1898 C   0  0  0  0  0  0  0  0  0  0  0  0
  -26.4347  -34.2197   27.1139 C   0  0  0  0  0  0  0  0  0  0  0  0
  -31.2123  -21.3119   19.7959 C   0  0  0  0  0  0  0  0  0  0  0  0
  -29.8249  -12.9164   19.3126 C   0  0  0  0  0  0  0  0  0  0  0  0
  -27.5137  -33.3427   26.4867 C   0  0  0  0  0  0  0  0  0  0  0  0
  -28.6048  -12.2963   19.9872 C   0  0  0  0  0  0  0  0  0  0  0  0
  -31.1023  -18.5298   16.8383 C   0  0  0  0  0  0  0  0  0  0  0  0
  -29.4403  -13.7721   18.1064 C   0  0  0  0  0  0  0  0  0  0  0  0
  -27.2089  -14.2024   19.0963 C   0  0  0  0  0  0  0  0  0  0  0  0
  -27.9808  -33.9180   25.1442 C   0  0  1  0  0  0  0  0  0  0  0  0
  -30.7360  -21.4038   18.3335 C   0  0  1  0  0  0  0  0  0  0  0  0
  -25.9033  -32.3511   22.3761 C   0  0  1  0  0  0  0  0  0  0  0  0
  -27.5722  -13.3777   20.3406 C   0  0  1  0  0  0  0  0  0  0  0  0
  -29.7328  -17.9571   17.0935 C   0  0  2  0  0  0  0  0  0  0  0  0
  -30.3276  -18.9560   18.0511 C   0  0  2  0  0  0  0  0  0  0  0  0
  -19.0019  -28.8685   22.8715 C   0  0  0  0  0  0  0  0  0  0  0  0
  -24.4339  -30.4412   26.3199 C   0  0  0  0  0  0  0  0  0  0  0  0
  -22.2864  -29.1635   26.1650 C   0  0  0  0  0  0  0  0  0  0  0  0
  -22.2597  -31.6570   26.0975 C   0  0  0  0  0  0  0  0  0  0  0  0
  -20.9155  -29.6756   19.6836 C   0  0  0  0  0  0  0  0  0  0  0  0
  -29.2662  -26.8242   18.7702 C   0  0  0  0  0  0  0  0  0  1  0  0
  -23.1211  -30.3721   24.0978 C   0  0  1  0  0  0  0  0  0  0  0  0
  -20.0499  -29.5733   22.0243 C   0  0  2  0  0  0  0  0  0  0  0  0
  -23.0456  -30.4051   25.6504 C   0  0  0  0  0  0  0  0  0  0  0  0
  -29.0621  -24.7396   17.5459 N   0  0  0  0  0  0  0  0  0  0  0  0
  -25.9459  -11.5508   20.6587 N   0  0  0  0  0  0  0  0  0  0  0  0
  -30.4507  -24.8540   19.5329 N   0  0  0  0  0  0  0  0  0  0  0  0
  -26.3433  -12.7865   21.0068 N   0  0  0  0  0  0  0  0  0  0  0  0
  -25.0199  -31.2550   22.7791 N   0  0  0  0  0  0  0  0  0  0  0  0
  -28.4044  -14.7587   18.4509 N   0  0  0  0  0  0  0  0  0  0  0  0
  -25.8133  -14.6136   22.4180 N   0  0  0  0  0  0  0  0  0  0  0  0
  -22.5929  -11.5937   23.3696 N   0  0  0  0  0  0  0  0  0  0  0  0
  -27.0151  -33.6272   24.1063 N   0  0  0  0  0  0  0  0  0  0  0  0
  -21.8208  -30.3649   23.4363 N   0  0  0  0  0  0  0  0  0  0  0  0
  -29.5613  -16.5792   17.4695 N   0  0  0  0  0  0  0  0  0  0  0  0
  -29.7548  -20.3317   18.0586 N   0  3  0  0  0  0  0  0  0  0  0  0
  -19.9563  -29.0521   20.6313 N   0  3  0  0  0  0  0  0  0  0  0  0
  -23.3767  -13.6942   23.8515 O   0  0  0  0  0  0  0  0  0  0  0  0
  -27.7588  -31.4903   23.5556 O   0  0  0  0  0  0  0  0  0  0  0  0
  -23.4610  -32.6933   23.7473 O   0  0  0  0  0  0  0  0  0  0  0  0
  -22.1348  -28.3795   22.2800 O   0  0  0  0  0  0  0  0  0  0  0  0
  -27.5299  -16.9093   18.4762 O   0  0  0  0  0  0  0  0  0  0  0  0
  -22.0395   -6.5405   21.0903 O   0  0  0  0  0  0  0  0  0  0  0  0
  -28.3294  -26.9596   19.8381 O   0  0  0  0  0  0  0  0  0  1  0  0
  -20.5217   -4.1397   25.8165 F   0  0  0  0  0  0  0  0  0  0  0  0
  -22.9134   -3.9980   21.7342 F   0  0  0  0  0  0  0  0  0  0  0  0
  1  2  1  0  0  0  0
  1  5  2  0  0  0  0
  2  6  2  0  0  0  0
  3  8  2  0  0  0  0
  3 16  1  0  0  0  0
  4  9  1  0  0  0  0
  4 16  2  0  0  0  0
  5 18  1  0  0  0  0
  6 20  1  0  0  0  0
  7 10  2  0  0  0  0
  7 19  1  0  0  0  0
  8 23  1  0  0  0  0
  9 23  2  0  0  0  0
 10 24  1  0  0  0  0
 11 12  2  0  0  0  0
 11 25  1  0  0  0  0
 12 26  1  0  0  0  0
 13 21  1  0  0  0  0
 13 24  2  0  0  0  0
 14 26  2  0  0  0  0
 14 27  1  0  0  0  0
 15 22  1  0  0  0  0
 15 64  2  0  0  0  0
 16 28  1  0  0  0  0
 17 28  1  0  0  0  0
 17 30  2  0  0  0  0
 17 32  1  0  0  0  0
 18 20  2  0  0  0  0
 18 37  1  0  0  0  0
 19 21  2  0  0  0  0
 19 38  1  0  0  0  0
 20 49  1  0  0  0  0
 21 39  1  0  0  0  0
 22 29  2  0  0  0  0
 22 50  1  0  0  0  0
 23 82  1  0  0  0  0
 24 83  1  0  0  0  0
 25 27  2  0  0  0  0
 25 82  1  0  0  0  0
 26 84  1  0  0  0  0
 27 85  1  0  0  0  0
 28 65  2  0  0  0  0
 29 40  1  0  0  0  0
 29 66  1  0  0  0  0
 30 67  1  0  0  0  0
 30 70  1  0  0  0  0
 31 60  1  0  0  0  0
 31 64  1  0  0  0  0
 31 66  2  0  0  0  0
 32 71  1  0  0  0  0
 32 77  2  0  0  0  0
 33 51  1  0  0  0  0
 33 72  1  0  0  0  0
 33 78  2  0  0  0  0
 34 61  1  0  0  0  0
 34 68  1  0  0  0  0
 34 79  2  0  0  0  0
 35 62  1  0  0  0  0
 35 73  1  0  0  0  0
 35 80  2  0  0  0  0
 36 69  1  0  0  0  0
 36 74  1  0  0  0  0
 36 81  2  0  0  0  0
 37 41  1  0  0  0  0
 38 51  1  0  0  0  0
 39 68  1  0  0  0  0
 40 42  1  0  0  0  0
 41 44  1  0  0  0  0
 42 50  1  0  0  0  0
 43 45  1  0  0  0  0
 43 47  1  0  0  0  0
 44 49  1  0  0  0  0
 45 52  1  0  0  0  0
 46 53  1  0  0  0  0
 46 54  1  0  0  0  0
 47 69  1  0  0  0  0
 48 52  1  0  0  0  0
 48 69  1  0  0  0  0
 49 72  1  0  0  0  0
 50 75  1  0  0  0  0
 51 68  1  0  0  0  0
 52 67  1  0  0  0  0
 53 54  1  0  0  0  0
 53 74  1  0  0  0  0
 54 75  1  0  0  0  0
 55 62  1  0  0  0  0
 56 63  1  0  0  0  0
 57 63  1  0  0  0  0
 58 63  1  0  0  0  0
 59 76  1  0  0  0  0
 60 83  1  0  0  0  0
 61 63  1  0  0  0  0
 61 73  1  0  0  0  0
 62 76  1  0  0  0  0
 65 67  1  0  0  0  0
M  CHG  2  75   1  76   1
M  ISO  4  36 100  60 101  74 100  83 101
M  END
> <Batch ID>
0194

> <Smiles>
CNC(C)C(=O)NC(C(=O)N1Cc2cc([101O:1][101CH2:1]c3ncc4c(n3)CCC4NC3CC3[100NH:0][100C:0](=O)N3CCCC(n4nc(-c5ccc(Oc6ccc(F)cc6F)cc5)c(C(N)=O)c4N)C3)ccc2CC1C(=O)NC1CCCc2ccccc21)C(C)(C)C

> <Shape>
0.339

> <Color>
0.133

> <Negative vol penalty>
0.000

$$$$

  -OEChem-04052323343D

 92103  0     1  0  0  0  0  0999 V2000
  -18.7577  -27.8643   23.5368 C   0  0  0  0  0  0  0  0  0  0  0  0
  -19.3400  -26.6038   23.4508 C   0  0  0  0  0  0  0  0  0  0  0  0
  -22.4194  -17.8006   17.8638 C   0  0  0  0  0  0  0  0  0  0  0  0
  -20.4042  -16.9738   18.9089 C   0  0  0  0  0  0  0  0  0  0  0  0
  -19.1386  -28.8690   22.6482 C   0  0  0  0  0  0  0  0  0  0  0  0
  -20.3028  -26.3468   22.4754 C   0  0  0  0  0  0  0  0  0  0  0  0
  -25.1798  -22.6791   22.9927 C   0  0  0  0  0  0  0  0  0  0  0  0
  -21.6562  -18.3785   16.8493 C   0  0  0  0  0  0  0  0  0  0  0  0
  -19.6409  -17.5517   17.8944 C   0  0  0  0  0  0  0  0  0  0  0  0
  -25.4131  -21.3658   22.5868 C   0  0  0  0  0  0  0  0  0  0  0  0
  -17.1867  -18.5017   15.3876 C   0  0  0  0  0  0  0  0  0  0  0  0
  -16.1631  -17.7357   14.8299 C   0  0  0  0  0  0  0  0  0  0  0  0
  -26.4669  -22.1810   20.5757 C   0  0  0  0  0  0  0  0  0  0  0  0
  -17.7800  -16.0795   14.1372 C   0  0  0  0  0  0  0  0  0  0  0  0
  -27.6264  -18.7691   19.3201 C   0  0  0  0  0  0  0  0  0  0  0  0
  -21.7934  -17.0982   18.8936 C   0  0  0  0  0  0  0  0  0  0  0  0
  -22.9683  -17.0942   21.1580 C   0  0  0  0  0  0  0  0  0  0  0  0
  -20.1136  -28.6270   21.6676 C   0  0  0  0  0  0  0  0  0  0  0  0
  -25.5793  -23.7548   22.1866 C   0  0  0  0  0  0  0  0  0  0  0  0
  -20.6961  -27.3488   21.5720 C   0  0  0  0  0  0  0  0  0  0  0  0
  -26.2398  -23.5070   20.9749 C   0  0  0  0  0  0  0  0  0  0  0  0
  -20.2670  -18.2540   16.8646 C   0  0  0  0  0  0  0  0  0  0  0  0
  -26.0542  -21.1166   21.3768 C   0  0  0  0  0  0  0  0  0  0  0  0
  -18.5070  -18.0567   15.3201 C   0  0  0  0  0  0  0  0  0  0  0  0
  -16.4598  -16.5246   14.2047 C   0  0  0  0  0  0  0  0  0  0  0  0
  -18.8036  -16.8456   14.6949 C   0  0  0  0  0  0  0  0  0  0  0  0
  -22.5812  -16.5006   19.9416 C   0  0  0  0  0  0  0  0  0  0  0  0
  -28.9101  -18.5198   18.8793 C   0  0  0  0  0  0  0  0  0  0  0  0
  -27.5262  -19.5248   20.4704 C   0  0  0  0  0  0  0  0  0  1  0  0
  -23.6978  -16.1221   21.7976 C   0  0  0  0  0  0  0  0  0  0  0  0
  -29.7883  -19.6945   20.6159 C   0  0  0  0  0  0  0  0  0  0  0  0
  -22.6928  -18.4070   21.6644 C   0  0  0  0  0  0  0  0  0  0  0  0
  -24.0705  -26.1234   20.6975 C   0  0  0  0  0  0  0  0  0  0  0  0
  -27.0894  -27.1206   20.0538 C   0  0  0  0  0  0  0  0  0  0  0  0
  -30.3866  -26.3229   19.6817 C   0  0  0  0  0  0  0  0  0  0  0  0
  -26.6726  -11.3737   19.4702 C   0  0  0  0  0  0  0  0  0  0  0  0
  -20.4586  -29.7305   20.6991 C   0  0  0  0  0  0  0  0  0  0  0  0
  -25.3442  -25.1659   22.6513 C   0  0  0  0  0  0  0  0  0  0  0  0
  -26.7066  -24.6270   20.0826 C   0  0  0  0  0  0  0  0  0  0  0  0
  -21.7572  -29.4862   19.9349 C   0  0  0  0  0  0  0  0  0  0  0  0
  -24.1407  -11.3643   22.1300 C   0  0  0  0  0  0  0  0  0  0  0  0
  -21.8010  -28.0587   19.3992 C   0  0  0  0  0  0  0  0  0  0  0  0
  -31.1026  -21.6881   21.6018 C   0  0  0  0  0  0  0  0  0  0  0  0
  -31.9913  -21.0452   20.5834 C   0  0  0  0  0  0  0  0  0  0  0  0
  -23.4576  -12.7206   21.9413 C   0  0  0  0  0  0  0  0  0  0  0  0
  -29.4773  -13.2476   18.0119 C   0  0  0  0  0  0  0  0  0  0  0  0
  -24.6761  -10.8045   20.8137 C   0  0  0  0  0  0  0  0  0  0  0  0
  -24.8566  -13.0777   19.8756 C   0  0  0  0  0  0  0  0  0  0  0  0
  -27.9777  -13.2953   20.4892 C   0  0  0  0  0  0  0  0  0  0  0  0
  -30.0125  -11.4404   19.6807 C   0  0  0  0  0  0  0  0  0  0  0  0
  -21.7620  -27.0386   20.5435 C   0  0  1  0  0  0  0  0  0  0  0  0
  -30.9890  -20.2103   21.3359 C   0  0  0  0  0  0  0  0  0  0  0  0
  -25.3339  -26.1772   21.5091 C   0  0  1  0  0  0  0  0  0  0  0  0
  -24.3727  -13.7060   21.1892 C   0  0  1  0  0  0  0  0  0  0  0  0
  -28.9627  -11.9580   18.6761 C   0  0  1  0  0  0  0  0  0  0  0  0
  -29.4745  -13.6816   20.4954 C   0  0  2  0  0  0  0  0  0  0  0  0
  -29.8774  -14.2438   19.1118 C   0  0  2  0  0  0  0  0  0  0  0  0
  -29.7998  -18.5337   16.5252 C   0  0  0  0  0  0  0  0  0  0  0  0
  -32.6087  -27.3433   19.1173 C   0  0  0  0  0  0  0  0  0  0  0  0
  -26.2988  -27.2069   17.1081 C   0  0  0  0  0  0  0  0  0  0  0  0
  -28.7330  -27.2928   16.5291 C   0  0  0  0  0  0  0  0  0  0  0  0
  -27.7055  -29.1302   17.8674 C   0  0  0  0  0  0  0  0  0  0  0  0
  -30.3116  -11.9630   22.0417 C   0  0  0  0  0  0  0  0  0  0  0  0
  -31.5221  -25.5912   22.3150 C   0  0  0  0  0  0  0  0  0  0  0  0
  -29.9233  -16.4108   17.8710 C   0  0  0  0  0  0  0  0  0  0  0  0
  -29.1233  -17.6948   17.6158 C   0  0  1  0  0  0  0  0  0  0  0  0
  -28.0830  -26.8741   18.9443 C   0  0  1  0  0  0  0  0  0  0  0  0
  -31.6468  -26.9652   20.2329 C   0  0  2  0  0  0  0  0  0  0  0  0
  -27.6947  -27.6047   17.6279 C   0  0  0  0  0  0  0  0  0  0  0  0
  -23.0281  -15.2484   19.8138 N   0  0  0  0  0  0  0  0  0  0  0  0
  -30.0179  -18.9688   19.5050 N   0  0  0  0  0  0  0  0  0  0  0  0
  -28.5902  -20.0055   21.1464 N   0  0  0  0  0  0  0  0  0  0  0  0
  -23.7035  -15.0473   20.9581 N   0  0  0  0  0  0  0  0  0  0  0  0
  -26.4480  -25.9892   20.5777 N   0  0  0  0  0  0  0  0  0  0  0  0
  -25.5115  -11.7911   20.1318 N   0  0  0  0  0  0  0  0  0  0  0  0
  -27.7458  -12.2782   19.4476 N   0  0  0  0  0  0  0  0  0  0  0  0
  -30.3270  -12.4827   20.6805 N   0  0  1  0  0  0  0  0  0  0  0  0
  -24.3287  -16.0904   22.9907 N   0  0  0  0  0  0  0  0  0  0  0  0
  -21.9280  -19.2796   20.8782 N   0  0  0  0  0  0  0  0  0  0  0  0
  -23.0604  -26.9369   21.1744 N   0  0  0  0  0  0  0  0  0  0  0  0
  -29.3887  -27.2516   19.4744 N   0  0  0  0  0  0  0  0  0  0  0  0
  -29.2173  -15.5513   18.8580 N   0  3  0  0  0  0  0  0  0  0  0  0
  -32.3445  -26.0273   21.1572 N   0  3  0  0  0  0  0  0  0  0  0  0
  -23.1263  -18.8004   22.7738 O   0  0  0  0  0  0  0  0  0  0  0  0
  -24.0166  -25.3986   19.7109 O   0  0  0  0  0  0  0  0  0  0  0  0
  -26.8949  -28.2738   20.4463 O   0  0  0  0  0  0  0  0  0  0  0  0
  -30.2978  -25.1184   19.4540 O   0  0  0  0  0  0  0  0  0  0  0  0
  -26.7596  -10.2468   18.9674 O   0  0  0  0  0  0  0  0  0  0  0  0
  -19.5220  -18.8180   15.8749 O   0  0  0  0  0  0  0  0  0  0  0  0
  -26.2859  -19.8168   20.9720 O   0  0  0  0  0  0  0  0  0  1  0  0
  -15.4766  -15.7883   13.6705 F   0  0  0  0  0  0  0  0  0  0  0  0
  -20.0700  -16.4123   14.6279 F   0  0  0  0  0  0  0  0  0  0  0  0
  1  2  1  0  0  0  0
  1  5  2  0  0  0  0
  2  6  2  0  0  0  0
  3  8  2  0  0  0  0
  3 16  1  0  0  0  0
  4  9  1  0  0  0  0
  4 16  2  0  0  0  0
  5 18  1  0  0  0  0
  6 20  1  0  0  0  0
  7 10  2  0  0  0  0
  7 19  1  0  0  0  0
  8 22  1  0  0  0  0
  9 22  2  0  0  0  0
 10 23  1  0  0  0  0
 11 12  2  0  0  0  0
 11 24  1  0  0  0  0
 12 25  1  0  0  0  0
 13 21  1  0  0  0  0
 13 23  2  0  0  0  0
 14 25  2  0  0  0  0
 14 26  1  0  0  0  0
 15 28  2  0  0  0  0
 15 29  1  0  0  0  0
 16 27  1  0  0  0  0
 17 27  1  0  0  0  0
 17 30  2  0  0  0  0
 17 32  1  0  0  0  0
 18 20  2  0  0  0  0
 18 37  1  0  0  0  0
 19 21  2  0  0  0  0
 19 38  1  0  0  0  0
 20 51  1  0  0  0  0
 21 39  1  0  0  0  0
 22 89  1  0  0  0  0
 23 90  1  0  0  0  0
 24 26  2  0  0  0  0
 24 89  1  0  0  0  0
 25 91  1  0  0  0  0
 26 92  1  0  0  0  0
 27 70  2  0  0  0  0
 28 66  1  0  0  0  0
 28 71  1  0  0  0  0
 29 72  2  0  0  0  0
 29 90  1  0  0  0  0
 30 73  1  0  0  0  0
 30 78  1  0  0  0  0
 31 52  1  0  0  0  0
 31 71  2  0  0  0  0
 31 72  1  0  0  0  0
 32 79  1  0  0  0  0
 32 84  2  0  0  0  0
 33 53  1  0  0  0  0
 33 80  1  0  0  0  0
 33 85  2  0  0  0  0
 34 67  1  0  0  0  0
 34 74  1  0  0  0  0
 34 86  2  0  0  0  0
 35 68  1  0  0  0  0
 35 81  1  0  0  0  0
 35 87  2  0  0  0  0
 36 75  1  0  0  0  0
 36 76  1  0  0  0  0
 36 88  2  0  0  0  0
 37 40  1  0  0  0  0
 38 53  1  0  0  0  0
 39 74  1  0  0  0  0
 40 42  1  0  0  0  0
 41 45  1  0  0  0  0
 41 47  1  0  0  0  0
 42 51  1  0  0  0  0
 43 44  1  0  0  0  0
 43 52  1  0  0  0  0
 44 52  1  0  0  0  0
 45 54  1  0  0  0  0
 46 55  1  0  0  0  0
 46 57  1  0  0  0  0
 47 75  1  0  0  0  0
 48 54  1  0  0  0  0
 48 75  1  0  0  0  0
 49 56  1  0  0  0  0
 49 76  1  0  0  0  0
 50 55  1  0  0  0  0
 50 77  1  0  0  0  0
 51 80  1  0  0  0  0
 53 74  1  0  0  0  0
 54 73  1  0  0  0  0
 55 76  1  0  0  0  0
 56 57  1  0  0  0  0
 56 77  1  0  0  0  0
 57 82  1  0  0  0  0
 58 66  1  0  0  0  0
 59 68  1  0  0  0  0
 60 69  1  0  0  0  0
 61 69  1  0  0  0  0
 62 69  1  0  0  0  0
 63 77  1  0  0  0  0
 64 83  1  0  0  0  0
 65 66  1  0  0  0  0
 65 82  1  0  0  0  0
 67 69  1  0  0  0  0
 67 81  1  0  0  0  0
 68 83  1  0  0  0  0
 70 73  1  0  0  0  0
M  CHG  2  82   1  83   1
M  ISO  4  29 101  36 100  76 100  90 101
M  END
> <Batch ID>
0194

> <Smiles>
CNC(C)C(=O)NC(C(=O)N1Cc2cc([101O:1][101c:1]3cc(C(C)CNC4CC5CN(C)C4C[100N:0]5[100C:0](=O)N4CCCC(n5nc(-c6ccc(Oc7ccc(F)cc7F)cc6)c(C(N)=O)c5N)C4)nc(C4CC4)n3)ccc2CC1C(=O)NC1CCCc2ccccc21)C(C)(C)C

> <Shape>
0.216

> <Color>
0.082

> <Negative vol penalty>
0.000

$$$$

  -OEChem-04052323343D

 88 97  0     1  0  0  0  0  0999 V2000
  -18.2677  -26.7266   22.0394 C   0  0  0  0  0  0  0  0  0  0  0  0
  -19.4032  -26.7274   21.2358 C   0  0  0  0  0  0  0  0  0  0  0  0
  -22.4227  -10.4202   21.8685 C   0  0  0  0  0  0  0  0  0  0  0  0
  -24.2674   -9.1495   22.7738 C   0  0  0  0  0  0  0  0  0  0  0  0
  -17.9032  -27.8815   22.7304 C   0  0  0  0  0  0  0  0  0  0  0  0
  -20.1745  -27.8835   21.1218 C   0  0  0  0  0  0  0  0  0  0  0  0
  -25.1393  -26.9492   21.4722 C   0  0  0  0  0  0  0  0  0  0  0  0
  -21.7876   -9.2347   21.4986 C   0  0  0  0  0  0  0  0  0  0  0  0
  -23.6323   -7.9640   22.4039 C   0  0  0  0  0  0  0  0  0  0  0  0
  -25.7699  -26.4259   20.3443 C   0  0  0  0  0  0  0  0  0  0  0  0
  -21.1321   -6.0114   23.5687 C   0  0  0  0  0  0  0  0  0  0  0  0
  -21.1040   -4.9747   24.5015 C   0  0  0  0  0  0  0  0  0  0  0  0
  -26.5981  -28.6240   19.7951 C   0  0  0  0  0  0  0  0  0  0  0  0
  -22.3020   -3.5535   22.9581 C   0  0  0  0  0  0  0  0  0  0  0  0
  -23.6627  -10.3776   22.5060 C   0  0  0  0  0  0  0  0  0  0  0  0
  -24.1932  -12.2890   24.1100 C   0  0  0  0  0  0  0  0  0  0  0  0
  -18.6758  -29.0494   22.6324 C   0  0  0  0  0  0  0  0  0  0  0  0
  -25.2245  -28.3180   21.7646 C   0  0  0  0  0  0  0  0  0  0  0  0
  -19.8193  -29.0555   21.8110 C   0  0  0  0  0  0  0  0  0  0  0  0
  -25.9698  -29.1617   20.9288 C   0  0  0  0  0  0  0  0  0  0  0  0
  -22.3924   -8.0066   21.7663 C   0  0  0  0  0  0  0  0  0  0  0  0
  -26.4971  -27.2638   19.5039 C   0  0  0  0  0  0  0  0  0  0  0  0
  -21.7451   -5.8191   22.3305 C   0  0  0  0  0  0  0  0  0  0  0  0
  -21.6890   -3.7458   24.1962 C   0  0  0  0  0  0  0  0  0  0  0  0
  -22.3301   -4.5902   22.0253 C   0  0  0  0  0  0  0  0  0  0  0  0
  -24.3195  -11.6019   22.8878 C   0  0  0  0  0  0  0  0  0  0  0  0
  -25.0134  -13.3824   23.9756 C   0  0  0  0  0  0  0  0  0  0  0  0
  -30.2933  -23.1923   19.7542 C   0  0  0  0  0  0  0  0  0  0  0  0
  -29.3504  -22.9635   18.8376 C   0  0  0  0  0  0  0  0  0  0  0  0
  -30.8754  -24.5415   19.8201 C   0  0  0  0  0  0  0  0  0  0  0  0
  -28.9415  -24.0824   17.9347 C   0  0  0  0  0  0  0  0  0  0  0  0
  -23.4050  -11.9675   25.2637 C   0  0  0  0  0  0  0  0  0  0  0  0
  -23.1257  -30.6911   22.0243 C   0  0  0  0  0  0  0  0  0  0  0  0
  -25.7258  -32.3630   23.0073 C   0  0  0  0  0  0  0  0  0  0  0  0
  -29.1211  -32.7075   23.0011 C   0  0  0  0  0  0  0  0  0  0  0  0
  -26.9711  -17.5844   21.2706 C   0  0  0  0  0  0  0  0  0  0  0  0
  -18.2157  -30.2874   23.3607 C   0  0  0  0  0  0  0  0  0  0  0  0
  -24.5607  -28.8622   22.9998 C   0  0  0  0  0  0  0  0  0  0  0  0
  -26.1089  -30.6349   21.2095 C   0  0  0  0  0  0  0  0  0  0  0  0
  -19.2955  -31.3596   23.4818 C   0  0  0  0  0  0  0  0  0  0  0  0
  -28.4663  -14.5112   20.4652 C   0  0  0  0  0  0  0  0  0  0  0  0
  -19.9949  -31.5665   22.1421 C   0  0  0  0  0  0  0  0  0  0  0  0
  -27.5048  -13.5236   21.1257 C   0  0  0  0  0  0  0  0  0  0  0  0
  -28.5969  -19.3712   18.7109 C   0  0  0  0  0  0  0  0  0  0  0  0
  -28.3287  -20.7394   20.8142 C   0  0  0  0  0  0  0  0  0  0  0  0
  -27.7264  -15.6690   19.7928 C   0  0  0  0  0  0  0  0  0  0  0  0
  -28.7748  -18.1162   19.5705 C   0  0  0  0  0  0  0  0  0  0  0  0
  -28.5394  -19.4667   21.6297 C   0  0  0  0  0  0  0  0  0  0  0  0
  -25.8225  -15.3912   21.3475 C   0  0  0  0  0  0  0  0  0  0  0  0
  -20.6954  -30.2826   21.6813 C   0  0  1  0  0  0  0  0  0  0  0  0
  -24.2862  -30.3607   22.9197 C   0  0  1  0  0  0  0  0  0  0  0  0
  -26.5398  -14.2476   22.0815 C   0  0  1  0  0  0  0  0  0  0  0  0
  -29.0341  -20.6324   19.4597 C   0  0  0  0  0  0  0  0  0  0  0  0
  -31.3004  -25.2549   22.1473 C   0  0  0  0  0  0  0  0  0  0  0  0
  -30.9520  -34.1925   23.8612 C   0  0  0  0  0  0  0  0  0  0  0  0
  -25.0467  -34.4333   20.8713 C   0  0  0  0  0  0  0  0  0  0  0  0
  -27.3611  -35.3535   21.1265 C   0  0  0  0  0  0  0  0  0  0  0  0
  -25.7842  -35.3949   23.0590 C   0  0  0  0  0  0  0  0  0  0  0  0
  -30.3335  -30.5044   24.5617 C   0  0  0  0  0  0  0  0  0  0  0  0
  -31.9381  -24.7898   20.8608 C   0  0  0  0  0  0  0  0  0  0  0  0
  -29.1988  -26.4079   17.2497 C   0  0  0  0  0  0  0  0  0  0  0  0
  -28.3057  -27.4050   17.9661 C   0  0  0  0  0  0  0  0  0  1  0  0
  -26.7848  -33.1929   22.3226 C   0  0  1  0  0  0  0  0  0  0  0  0
  -30.1107  -32.9536   24.1257 C   0  0  2  0  0  0  0  0  0  0  0  0
  -26.2401  -34.5663   21.8382 C   0  0  0  0  0  0  0  0  0  0  0  0
  -25.1541  -12.2082   22.0393 N   0  0  0  0  0  0  0  0  0  0  0  0
  -30.5401  -25.5281   19.0567 N   0  0  0  0  0  0  0  0  0  0  0  0
  -25.5596  -13.2877   22.7294 N   0  0  0  0  0  0  0  0  0  0  0  0
  -29.5790  -25.3035   18.1155 N   0  0  0  0  0  0  0  0  0  0  0  0
  -25.4364  -31.1205   22.4258 N   0  0  0  0  0  0  0  0  0  0  0  0
  -26.7891  -16.3023   20.7309 N   0  0  0  0  0  0  0  0  0  0  0  0
  -28.1220  -18.2833   20.8769 N   0  0  0  0  0  0  0  0  0  0  0  0
  -25.3135  -14.4061   24.8029 N   0  0  0  0  0  0  0  0  0  0  0  0
  -22.6194  -10.8072   25.2340 N   0  0  0  0  0  0  0  0  0  0  0  0
  -28.7378  -21.7994   18.6583 N   0  0  0  0  0  0  0  0  0  0  0  0
  -21.9366  -30.0974   22.4022 N   0  0  0  0  0  0  0  0  0  0  0  0
  -27.8980  -33.2888   23.2607 N   0  0  0  0  0  0  0  0  0  0  0  0
  -31.0259  -31.7870   24.2749 N   0  3  0  0  0  0  0  0  0  0  0  0
  -28.0724  -23.8809   17.0842 O   0  0  0  0  0  0  0  0  0  0  0  0
  -23.3849  -12.6965   26.2843 O   0  0  0  0  0  0  0  0  0  0  0  0
  -23.2962  -31.4311   21.0625 O   0  0  0  0  0  0  0  0  0  0  0  0
  -25.1807  -32.7980   24.0248 O   0  0  0  0  0  0  0  0  0  0  0  0
  -29.4059  -32.0670   21.9916 O   0  0  0  0  0  0  0  0  0  0  0  0
  -26.1532  -18.0763   22.0581 O   0  0  0  0  0  0  0  0  0  0  0  0
  -21.7728   -6.8495   21.4058 O   0  0  0  0  0  0  0  0  0  0  0  0
  -27.1173  -26.7522   18.3941 O   0  0  0  0  0  0  0  0  0  1  0  0
  -21.6632   -2.7509   25.0927 F   0  0  0  0  0  0  0  0  0  0  0  0
  -22.9215   -4.3999   20.8379 F   0  0  0  0  0  0  0  0  0  0  0  0
  1  2  1  0  0  0  0
  1  5  2  0  0  0  0
  2  6  2  0  0  0  0
  3  8  2  0  0  0  0
  3 15  1  0  0  0  0
  4  9  1  0  0  0  0
  4 15  2  0  0  0  0
  5 17  1  0  0  0  0
  6 19  1  0  0  0  0
  7 10  2  0  0  0  0
  7 18  1  0  0  0  0
  8 21  1  0  0  0  0
  9 21  2  0  0  0  0
 10 22  1  0  0  0  0
 11 12  2  0  0  0  0
 11 23  1  0  0  0  0
 12 24  1  0  0  0  0
 13 20  1  0  0  0  0
 13 22  2  0  0  0  0
 14 24  2  0  0  0  0
 14 25  1  0  0  0  0
 15 26  1  0  0  0  0
 16 26  1  0  0  0  0
 16 27  2  0  0  0  0
 16 32  1  0  0  0  0
 17 19  2  0  0  0  0
 17 37  1  0  0  0  0
 18 20  2  0  0  0  0
 18 38  1  0  0  0  0
 19 50  1  0  0  0  0
 20 39  1  0  0  0  0
 21 85  1  0  0  0  0
 22 86  1  0  0  0  0
 23 25  2  0  0  0  0
 23 85  1  0  0  0  0
 24 87  1  0  0  0  0
 25 88  1  0  0  0  0
 26 66  2  0  0  0  0
 27 68  1  0  0  0  0
 27 73  1  0  0  0  0
 28 29  2  0  0  0  0
 28 30  1  0  0  0  0
 29 31  1  0  0  0  0
 29 75  1  0  0  0  0
 30 60  1  0  0  0  0
 30 67  2  0  0  0  0
 31 69  1  0  0  0  0
 31 79  2  0  0  0  0
 32 74  1  0  0  0  0
 32 80  2  0  0  0  0
 33 51  1  0  0  0  0
 33 76  1  0  0  0  0
 33 81  2  0  0  0  0
 34 63  1  0  0  0  0
 34 70  1  0  0  0  0
 34 82  2  0  0  0  0
 35 64  1  0  0  0  0
 35 77  1  0  0  0  0
 35 83  2  0  0  0  0
 36 71  1  0  0  0  0
 36 72  1  0  0  0  0
 36 84  2  0  0  0  0
 37 40  1  0  0  0  0
 38 51  1  0  0  0  0
 39 70  1  0  0  0  0
 40 42  1  0  0  0  0
 41 43  1  0  0  0  0
 41 46  1  0  0  0  0
 42 50  1  0  0  0  0
 43 52  1  0  0  0  0
 44 47  1  0  0  0  0
 44 53  1  0  0  0  0
 45 48  1  0  0  0  0
 45 53  1  0  0  0  0
 46 71  1  0  0  0  0
 47 72  1  0  0  0  0
 48 72  1  0  0  0  0
 49 52  1  0  0  0  0
 49 71  1  0  0  0  0
 50 76  1  0  0  0  0
 51 70  1  0  0  0  0
 52 68  1  0  0  0  0
 53 75  1  0  0  0  0
 54 60  1  0  0  0  0
 55 64  1  0  0  0  0
 56 65  1  0  0  0  0
 57 65  1  0  0  0  0
 58 65  1  0  0  0  0
 59 78  1  0  0  0  0
 61 62  1  0  0  0  0
 61 69  1  0  0  0  0
 62 86  1  0  0  0  0
 63 65  1  0  0  0  0
 63 77  1  0  0  0  0
 64 78  1  0  0  0  0
 66 68  1  0  0  0  0
 67 69  1  0  0  0  0
M  CHG  1  78   1
M  ISO  4  36 100  62 101  72 100  86 101
M  END
> <Batch ID>
0194

> <Smiles>
CCc1cc(NC2CC[100N:0]([100C:0](=O)N3CCCC(n4nc(-c5ccc(Oc6ccc(F)cc6F)cc5)c(C(N)=O)c4N)C3)CC2)c(=O)n(C[101CH2:1][101O:1]c2ccc3c(c2)CN(C(=O)C(NC(=O)C(C)NC)C(C)(C)C)C(C(=O)NC2CCCc4ccccc42)C3)n1

> <Shape>
0.329

> <Color>
0.091

> <Negative vol penalty>
0.000

$$$$

  -OEChem-04052323343D

 88 98  0     1  0  0  0  0  0999 V2000
  -30.0478  -32.3326   25.3353 C   0  0  0  0  0  0  0  0  0  0  0  0
  -29.6216  -31.1190   24.8054 C   0  0  0  0  0  0  0  0  0  0  0  0
  -25.0812  -15.3472   22.7845 C   0  0  0  0  0  0  0  0  0  0  0  0
  -24.1928  -15.9998   20.6346 C   0  0  0  0  0  0  0  0  0  0  0  0
  -29.1112  -33.2886   25.7263 C   0  0  0  0  0  0  0  0  0  0  0  0
  -28.2584  -30.8601   24.6672 C   0  0  0  0  0  0  0  0  0  0  0  0
  -27.1158  -28.8074   20.1810 C   0  0  0  0  0  0  0  0  0  0  0  0
  -24.7522  -16.6004   23.3009 C   0  0  0  0  0  0  0  0  0  0  0  0
  -23.8638  -17.2531   21.1510 C   0  0  0  0  0  0  0  0  0  0  0  0
  -27.3832  -27.4491   20.0157 C   0  0  0  0  0  0  0  0  0  0  0  0
  -21.9831  -18.1839   24.4224 C   0  0  0  0  0  0  0  0  0  0  0  0
  -21.3639  -18.2281   25.6714 C   0  0  0  0  0  0  0  0  0  0  0  0
  -25.0585  -26.9485   20.4209 C   0  0  0  0  0  0  0  0  0  0  0  0
  -23.1964  -19.5459   26.5332 C   0  0  0  0  0  0  0  0  0  0  0  0
  -29.3941  -19.4451   19.9919 C   0  0  0  0  0  0  0  0  0  0  0  0
  -24.8015  -15.0469   21.4513 C   0  0  0  0  0  0  0  0  0  0  0  0
  -24.3330  -12.6003   20.9012 C   0  0  0  0  0  0  0  0  0  0  0  0
  -27.7361  -33.0452   25.5839 C   0  0  0  0  0  0  0  0  0  0  0  0
  -25.8177  -29.2463   20.4788 C   0  0  0  0  0  0  0  0  0  0  0  0
  -27.3025  -31.8132   25.0579 C   0  0  0  0  0  0  0  0  0  0  0  0
  -24.7768  -28.3131   20.5870 C   0  0  0  0  0  0  0  0  0  0  0  0
  -24.1435  -17.5534   22.4842 C   0  0  0  0  0  0  0  0  0  0  0  0
  -26.3550  -26.5192   20.1385 C   0  0  0  0  0  0  0  0  0  0  0  0
  -23.2091  -18.8206   24.2287 C   0  0  0  0  0  0  0  0  0  0  0  0
  -21.9705  -18.9092   26.7268 C   0  0  0  0  0  0  0  0  0  0  0  0
  -23.8156  -19.5016   25.2841 C   0  0  0  0  0  0  0  0  0  0  0  0
  -25.1415  -13.7526   20.9171 C   0  0  0  0  0  0  0  0  0  0  0  0
  -28.1534  -21.1126   19.5330 C   0  0  0  0  0  0  0  0  0  0  0  0
  -27.4184  -20.0023   19.1902 C   0  0  0  0  0  0  0  0  0  0  0  0
  -25.1081  -11.6453   20.2900 C   0  0  0  0  0  0  0  0  0  0  0  0
  -23.0003  -12.4103   21.3947 C   0  0  0  0  0  0  0  0  0  0  0  0
  -24.4745  -30.7900   22.9112 C   0  0  0  0  0  0  0  0  0  0  0  0
  -21.8682  -30.7654   20.9801 C   0  0  0  0  0  0  0  0  0  0  0  0
  -20.1949  -29.3026   18.3903 C   0  0  0  0  0  0  0  0  0  0  0  0
  -29.4658  -14.7868   19.0242 C   0  0  0  0  0  0  0  0  0  0  0  0
  -26.7603  -34.0900   26.0644 C   0  0  0  0  0  0  0  0  0  0  0  0
  -25.5406  -30.7171   20.6277 C   0  0  0  0  0  0  0  0  0  0  0  0
  -23.3619  -28.7343   20.8856 C   0  0  0  0  0  0  0  0  0  0  0  0
  -25.3421  -33.8873   25.5371 C   0  0  0  0  0  0  0  0  0  0  0  0
  -29.3543  -11.8348   21.0344 C   0  0  0  0  0  0  0  0  0  0  0  0
  -28.1615  -16.0888   15.9012 C   0  0  0  0  0  0  0  0  0  0  0  0
  -24.9208  -32.4288   25.6856 C   0  0  0  0  0  0  0  0  0  0  0  0
  -28.3973  -10.9000   20.3030 C   0  0  0  0  0  0  0  0  0  0  0  0
  -27.8773  -17.2871   16.7959 C   0  0  0  0  0  0  0  0  0  0  0  0
  -27.8561  -23.2793   20.7575 C   0  0  0  0  0  0  0  0  0  0  0  0
  -30.1690  -12.6507   20.0426 C   0  0  0  0  0  0  0  0  0  0  0  0
  -28.1047  -14.9242   16.8777 C   0  0  0  0  0  0  0  0  0  0  0  0
  -28.3034  -12.6072   18.3982 C   0  0  0  0  0  0  0  0  0  0  0  0
  -28.8268  -24.7446   19.1188 C   0  0  0  0  0  0  0  0  0  0  0  0
  -25.8329  -31.5052   24.8692 C   0  0  1  0  0  0  0  0  0  0  0  0
  -27.7750  -22.5304   19.4242 C   0  0  1  0  0  0  0  0  0  0  0  0
  -24.2809  -31.0089   21.4373 C   0  0  1  0  0  0  0  0  0  0  0  0
  -27.4996  -11.6424   19.3002 C   0  0  2  0  0  0  0  0  0  0  0  0
  -27.9175  -24.7372   20.3363 C   0  0  1  0  0  0  0  0  0  1  0  0
  -28.6095  -16.9377   18.0945 C   0  0  1  0  0  0  0  0  0  0  0  0
  -26.0654  -19.8550   18.6249 C   0  0  0  0  0  0  0  0  0  0  0  0
  -18.0718  -29.4823   17.0647 C   0  0  0  0  0  0  0  0  0  0  0  0
  -20.3202  -29.5180   23.2948 C   0  0  0  0  0  0  0  0  0  0  0  0
  -18.5426  -28.8592   21.6594 C   0  0  0  0  0  0  0  0  0  0  0  0
  -19.0663  -31.2705   22.0255 C   0  0  0  0  0  0  0  0  0  0  0  0
  -28.2834  -23.3510   17.0768 C   0  0  0  0  0  0  0  0  0  0  0  0
  -21.6719  -29.7842   15.8713 C   0  0  0  0  0  0  0  0  0  0  0  0
  -27.9169  -17.5296   19.3153 C   0  0  0  0  0  0  0  0  0  0  0  0
  -20.7091  -29.8235   20.7607 C   0  0  1  0  0  0  0  0  0  0  0  0
  -19.5335  -29.8917   17.1575 C   0  0  2  0  0  0  0  0  0  0  0  0
  -19.6865  -29.8594   21.9314 C   0  0  0  0  0  0  0  0  0  0  0  0
  -29.3824  -20.7590   20.0311 N   0  0  0  0  0  0  0  0  0  0  0  0
  -26.3387  -13.5502   20.3604 N   0  0  0  0  0  0  0  0  0  0  0  0
  -28.2264  -18.9417   19.4895 N   0  0  0  0  0  0  0  0  0  0  0  0
  -26.2881  -12.2596   19.9890 N   0  0  0  0  0  0  0  0  0  0  0  0
  -23.1427  -30.1831   21.0289 N   0  0  0  0  0  0  0  0  0  0  0  0
  -29.3164  -13.3949   19.1154 N   0  0  0  0  0  0  0  0  0  0  0  0
  -28.6468  -15.4705   18.1228 N   0  0  0  0  0  0  0  0  0  0  0  0
  -24.8888  -10.3484   19.9861 N   0  0  0  0  0  0  0  0  0  0  0  0
  -22.3487  -13.4965   21.9946 N   0  0  0  0  0  0  0  0  0  0  0  0
  -25.4804  -31.5576   23.4666 N   0  0  0  0  0  0  0  0  0  0  0  0
  -20.1424  -30.1692   19.4616 N   0  0  0  0  0  0  0  0  0  0  0  0
  -28.6970  -23.3509   18.5167 N   0  3  1  0  0  0  0  0  0  0  0  0
  -20.2305  -29.4286   15.9244 N   0  3  0  0  0  0  0  0  0  0  0  0
  -22.4111  -11.3053   21.3211 O   0  0  0  0  0  0  0  0  0  0  0  0
  -23.7629  -29.9854   23.5011 O   0  0  0  0  0  0  0  0  0  0  0  0
  -21.6515  -31.9742   21.0966 O   0  0  0  0  0  0  0  0  0  0  0  0
  -20.7037  -28.1839   18.4029 O   0  0  0  0  0  0  0  0  0  0  0  0
  -30.3008  -15.3911   19.7103 O   0  0  0  0  0  0  0  0  0  0  0  0
  -23.8222  -18.7764   22.9879 O   0  0  0  0  0  0  0  0  0  0  0  0
  -26.6150  -25.1839   19.9772 O   0  0  0  0  0  0  0  0  0  1  0  0
  -21.3749  -18.9529   27.9258 F   0  0  0  0  0  0  0  0  0  0  0  0
  -24.9928  -20.1162   25.1039 F   0  0  0  0  0  0  0  0  0  0  0  0
  1  2  1  0  0  0  0
  1  5  2  0  0  0  0
  2  6  2  0  0  0  0
  3  8  2  0  0  0  0
  3 16  1  0  0  0  0
  4  9  1  0  0  0  0
  4 16  2  0  0  0  0
  5 18  1  0  0  0  0
  6 20  1  0  0  0  0
  7 10  2  0  0  0  0
  7 19  1  0  0  0  0
  8 22  1  0  0  0  0
  9 22  2  0  0  0  0
 10 23  1  0  0  0  0
 11 12  2  0  0  0  0
 11 24  1  0  0  0  0
 12 25  1  0  0  0  0
 13 21  1  0  0  0  0
 13 23  2  0  0  0  0
 14 25  2  0  0  0  0
 14 26  1  0  0  0  0
 15 67  2  0  0  0  0
 15 69  1  0  0  0  0
 16 27  1  0  0  0  0
 17 27  1  0  0  0  0
 17 30  2  0  0  0  0
 17 31  1  0  0  0  0
 18 20  2  0  0  0  0
 18 36  1  0  0  0  0
 19 21  2  0  0  0  0
 19 37  1  0  0  0  0
 20 50  1  0  0  0  0
 21 38  1  0  0  0  0
 22 85  1  0  0  0  0
 23 86  1  0  0  0  0
 24 26  2  0  0  0  0
 24 85  1  0  0  0  0
 25 87  1  0  0  0  0
 26 88  1  0  0  0  0
 27 68  2  0  0  0  0
 28 29  2  0  0  0  0
 28 51  1  0  0  0  0
 28 67  1  0  0  0  0
 29 56  1  0  0  0  0
 29 69  1  0  0  0  0
 30 70  1  0  0  0  0
 30 74  1  0  0  0  0
 31 75  1  0  0  0  0
 31 80  2  0  0  0  0
 32 52  1  0  0  0  0
 32 76  1  0  0  0  0
 32 81  2  0  0  0  0
 33 64  1  0  0  0  0
 33 71  1  0  0  0  0
 33 82  2  0  0  0  0
 34 65  1  0  0  0  0
 34 77  1  0  0  0  0
 34 83  2  0  0  0  0
 35 72  1  0  0  0  0
 35 73  1  0  0  0  0
 35 84  2  0  0  0  0
 36 39  1  0  0  0  0
 37 52  1  0  0  0  0
 38 71  1  0  0  0  0
 39 42  1  0  0  0  0
 40 43  1  0  0  0  0
 40 46  1  0  0  0  0
 41 44  1  0  0  0  0
 41 47  1  0  0  0  0
 42 50  1  0  0  0  0
 43 53  1  0  0  0  0
 44 55  1  0  0  0  0
 45 51  1  0  0  0  0
 45 54  1  0  0  0  0
 46 72  1  0  0  0  0
 47 73  1  0  0  0  0
 48 53  1  0  0  0  0
 48 72  1  0  0  0  0
 49 54  1  0  0  0  0
 49 78  1  0  0  0  0
 50 76  1  0  0  0  0
 51 78  1  0  0  0  0
 52 71  1  0  0  0  0
 53 70  1  0  0  0  0
 54 86  1  0  0  0  0
 55 63  1  0  0  0  0
 55 73  1  0  0  0  0
 57 65  1  0  0  0  0
 58 66  1  0  0  0  0
 59 66  1  0  0  0  0
 60 66  1  0  0  0  0
 61 78  1  0  0  0  0
 62 79  1  0  0  0  0
 63 69  1  0  0  0  0
 64 66  1  0  0  0  0
 64 77  1  0  0  0  0
 65 79  1  0  0  0  0
 68 70  1  0  0  0  0
M  CHG  2  78   1  79   1
M  ISO  4  35 100  54 101  73 100  86 101
M  END
> <Batch ID>
0194

> <Smiles>
CNC(C)C(=O)NC(C(=O)N1Cc2cc([101O:1][101CH:1]3CC(c4ncn(CC5CCC[100N:0]5[100C:0](=O)N5CCCC(n6nc(-c7ccc(Oc8ccc(F)cc8F)cc7)c(C(N)=O)c6N)C5)c4C)N(C)C3)ccc2CC1C(=O)NC1CCCc2ccccc21)C(C)(C)C

> <Shape>
0.294

> <Color>
0.094

> <Negative vol penalty>
0.000

$$$$

  -OEChem-04052323343D

 81 89  0     1  0  0  0  0  0999 V2000
  -30.0530  -34.6798   24.4448 C   0  0  0  0  0  0  0  0  0  0  0  0
  -29.5908  -33.3786   24.6143 C   0  0  0  0  0  0  0  0  0  0  0  0
  -23.4589   -9.7052   19.8102 C   0  0  0  0  0  0  0  0  0  0  0  0
  -24.3774   -9.6383   22.0438 C   0  0  0  0  0  0  0  0  0  0  0  0
  -29.1752  -35.6822   24.0344 C   0  0  0  0  0  0  0  0  0  0  0  0
  -28.2501  -33.0793   24.3744 C   0  0  0  0  0  0  0  0  0  0  0  0
  -27.6590  -28.8242   21.6931 C   0  0  0  0  0  0  0  0  0  0  0  0
  -22.9429   -8.4210   19.9839 C   0  0  0  0  0  0  0  0  0  0  0  0
  -23.8612   -8.3541   22.2176 C   0  0  0  0  0  0  0  0  0  0  0  0
  -27.7989  -27.6167   22.3760 C   0  0  0  0  0  0  0  0  0  0  0  0
  -22.4769   -5.2000   23.3808 C   0  0  0  0  0  0  0  0  0  0  0  0
  -21.8296   -4.9176   24.5836 C   0  0  0  0  0  0  0  0  0  0  0  0
  -25.3983  -27.4242   22.5150 C   0  0  0  0  0  0  0  0  0  0  0  0
  -20.2223   -6.6630   24.1283 C   0  0  0  0  0  0  0  0  0  0  0  0
  -24.1762  -10.3138   20.8401 C   0  0  0  0  0  0  0  0  0  0  0  0
  -24.0739  -12.8600   20.9594 C   0  0  0  0  0  0  0  0  0  0  0  0
  -27.8252  -35.3931   23.7801 C   0  0  0  0  0  0  0  0  0  0  0  0
  -26.3857  -29.3470   21.4252 C   0  0  0  0  0  0  0  0  0  0  0  0
  -27.3531  -34.0791   23.9615 C   0  0  0  0  0  0  0  0  0  0  0  0
  -25.2449  -28.6371   21.8263 C   0  0  0  0  0  0  0  0  0  0  0  0
  -23.1440   -7.7455   21.1876 C   0  0  0  0  0  0  0  0  0  0  0  0
  -26.6685  -26.9179   22.7895 C   0  0  0  0  0  0  0  0  0  0  0  0
  -21.9970   -6.2139   22.5517 C   0  0  0  0  0  0  0  0  0  0  0  0
  -20.7022   -5.6491   24.9574 C   0  0  0  0  0  0  0  0  0  0  0  0
  -20.8697   -6.9454   22.9255 C   0  0  0  0  0  0  0  0  0  0  0  0
  -24.7101  -11.6401   20.6611 C   0  0  0  0  0  0  0  0  0  0  0  0
  -24.9922  -13.8202   20.6115 C   0  0  0  0  0  0  0  0  0  0  0  0
  -22.7695  -13.1033   21.5026 C   0  0  0  0  0  0  0  0  0  0  0  0
  -24.8311  -31.9962   22.2428 C   0  0  0  0  0  0  0  0  0  0  0  0
  -22.6001  -30.8573   20.1819 C   0  0  0  0  0  0  0  0  0  0  0  0
  -21.2352  -28.1670   18.5862 C   0  0  0  0  0  0  0  0  0  0  0  0
  -30.4349  -15.4321   20.9853 C   0  0  0  0  0  0  0  0  0  0  0  0
  -26.9038  -36.5195   23.3839 C   0  0  0  0  0  0  0  0  0  0  0  0
  -26.2514  -30.6374   20.6642 C   0  0  0  0  0  0  0  0  0  0  0  0
  -23.8552  -29.1453   21.5455 C   0  0  0  0  0  0  0  0  0  0  0  0
  -25.5809  -36.0436   22.7890 C   0  0  0  0  0  0  0  0  0  0  0  0
  -29.3199  -13.4844   18.0351 C   0  0  0  0  0  0  0  0  0  0  0  0
  -24.9824  -34.9293   23.6416 C   0  0  0  0  0  0  0  0  0  0  0  0
  -28.0058  -12.8745   18.5197 C   0  0  0  0  0  0  0  0  0  0  0  0
  -30.7480  -18.0988   23.1825 C   0  0  0  0  0  0  0  0  0  0  0  0
  -28.6298  -18.3384   21.8267 C   0  0  0  0  0  0  0  0  0  0  0  0
  -30.2825  -13.7464   19.1890 C   0  0  0  0  0  0  0  0  0  0  0  0
  -30.5432  -16.5863   23.1743 C   0  0  0  0  0  0  0  0  0  0  0  0
  -28.4809  -16.8141   21.8227 C   0  0  0  0  0  0  0  0  0  0  0  0
  -28.3869  -13.9713   20.7633 C   0  0  0  0  0  0  0  0  0  0  0  0
  -25.9113  -33.7101   23.6873 C   0  0  1  0  0  0  0  0  0  0  0  0
  -24.9135  -31.3323   20.8975 C   0  0  1  0  0  0  0  0  0  0  0  0
  -27.3783  -13.7365   19.6286 C   0  0  2  0  0  0  0  0  0  0  0  0
  -29.4038  -18.8126   23.0549 C   0  0  0  0  0  0  0  0  0  0  0  0
  -19.3982  -27.5445   16.9939 C   0  0  0  0  0  0  0  0  0  0  0  0
  -20.5569  -31.1479   22.4293 C   0  0  0  0  0  0  0  0  0  0  0  0
  -19.0180  -29.6623   21.1282 C   0  0  0  0  0  0  0  0  0  0  0  0
  -19.7353  -31.8530   20.1749 C   0  0  0  0  0  0  0  0  0  0  0  0
  -23.1588  -27.1309   16.5898 C   0  0  0  0  0  0  0  0  0  0  0  0
  -28.8048  -22.5780   23.0496 C   0  0  0  0  0  0  0  0  0  0  0  0
  -27.6161  -23.4800   23.3728 C   0  0  0  0  0  0  0  0  0  0  0  0
  -28.4417  -21.1112   23.2263 C   0  0  0  0  0  0  0  0  0  0  0  0
  -27.9508  -24.9495   23.1592 C   0  0  0  0  0  0  0  0  0  1  0  0
  -21.3976  -29.9523   20.3010 C   0  0  1  0  0  0  0  0  0  0  0  0
  -20.8596  -27.9419   17.1326 C   0  0  2  0  0  0  0  0  0  0  0  0
  -20.2030  -30.6450   21.0155 C   0  0  0  0  0  0  0  0  0  0  0  0
  -25.9376  -11.8073   20.1619 N   0  0  0  0  0  0  0  0  0  0  0  0
  -26.0801  -13.1435   20.1438 N   0  0  0  0  0  0  0  0  0  0  0  0
  -23.7761  -30.4147   20.8038 N   0  0  0  0  0  0  0  0  0  0  0  0
  -29.6493  -14.5270   20.2522 N   0  0  0  0  0  0  0  0  0  0  0  0
  -29.7878  -16.1622   21.9938 N   0  0  0  0  0  0  0  0  0  0  0  0
  -24.9672  -15.1690   20.6630 N   0  0  0  0  0  0  0  0  0  0  0  0
  -21.9552  -12.0031   21.8036 N   0  0  0  0  0  0  0  0  0  0  0  0
  -25.8076  -32.9494   22.4606 N   0  0  0  0  0  0  0  0  0  0  0  0
  -21.0992  -29.4900   18.9499 N   0  0  0  0  0  0  0  0  0  0  0  0
  -29.6397  -20.2755   22.9454 N   0  3  0  0  0  0  0  0  0  0  0  0
  -21.6986  -26.8611   16.5422 N   0  3  0  0  0  0  0  0  0  0  0  0
  -22.3326  -14.2626   21.6993 O   0  0  0  0  0  0  0  0  0  0  0  0
  -23.9462  -31.6692   23.0249 O   0  0  0  0  0  0  0  0  0  0  0  0
  -22.5015  -31.9144   19.5539 O   0  0  0  0  0  0  0  0  0  0  0  0
  -21.6081  -27.2592   19.3260 O   0  0  0  0  0  0  0  0  0  0  0  0
  -31.6407  -15.5795   20.7503 O   0  0  0  0  0  0  0  0  0  0  0  0
  -22.6403   -6.4925   21.3575 O   0  0  0  0  0  0  0  0  0  0  0  0
  -26.8032  -25.7308   23.4617 O   0  0  0  0  0  0  0  0  0  1  0  0
  -20.0798   -5.3768   26.1117 F   0  0  0  0  0  0  0  0  0  0  0  0
  -20.4033   -7.9199   22.1326 F   0  0  0  0  0  0  0  0  0  0  0  0
  1  2  1  0  0  0  0
  1  5  2  0  0  0  0
  2  6  2  0  0  0  0
  3  8  2  0  0  0  0
  3 15  1  0  0  0  0
  4  9  1  0  0  0  0
  4 15  2  0  0  0  0
  5 17  1  0  0  0  0
  6 19  1  0  0  0  0
  7 10  2  0  0  0  0
  7 18  1  0  0  0  0
  8 21  1  0  0  0  0
  9 21  2  0  0  0  0
 10 22  1  0  0  0  0
 11 12  2  0  0  0  0
 11 23  1  0  0  0  0
 12 24  1  0  0  0  0
 13 20  1  0  0  0  0
 13 22  2  0  0  0  0
 14 24  2  0  0  0  0
 14 25  1  0  0  0  0
 15 26  1  0  0  0  0
 16 26  1  0  0  0  0
 16 27  2  0  0  0  0
 16 28  1  0  0  0  0
 17 19  2  0  0  0  0
 17 33  1  0  0  0  0
 18 20  2  0  0  0  0
 18 34  1  0  0  0  0
 19 46  1  0  0  0  0
 20 35  1  0  0  0  0
 21 78  1  0  0  0  0
 22 79  1  0  0  0  0
 23 25  2  0  0  0  0
 23 78  1  0  0  0  0
 24 80  1  0  0  0  0
 25 81  1  0  0  0  0
 26 62  2  0  0  0  0
 27 63  1  0  0  0  0
 27 67  1  0  0  0  0
 28 68  1  0  0  0  0
 28 73  2  0  0  0  0
 29 47  1  0  0  0  0
 29 69  1  0  0  0  0
 29 74  2  0  0  0  0
 30 59  1  0  0  0  0
 30 64  1  0  0  0  0
 30 75  2  0  0  0  0
 31 60  1  0  0  0  0
 31 70  1  0  0  0  0
 31 76  2  0  0  0  0
 32 65  1  0  0  0  0
 32 66  1  0  0  0  0
 32 77  2  0  0  0  0
 33 36  1  0  0  0  0
 34 47  1  0  0  0  0
 35 64  1  0  0  0  0
 36 38  1  0  0  0  0
 37 39  1  0  0  0  0
 37 42  1  0  0  0  0
 38 46  1  0  0  0  0
 39 48  1  0  0  0  0
 40 43  1  0  0  0  0
 40 49  1  0  0  0  0
 41 44  1  0  0  0  0
 41 49  1  0  0  0  0
 42 65  1  0  0  0  0
 43 66  1  0  0  0  0
 44 66  1  0  0  0  0
 45 48  1  0  0  0  0
 45 65  1  0  0  0  0
 46 69  1  0  0  0  0
 47 64  1  0  0  0  0
 48 63  1  0  0  0  0
 49 71  1  0  0  0  0
 50 60  1  0  0  0  0
 51 61  1  0  0  0  0
 52 61  1  0  0  0  0
 53 61  1  0  0  0  0
 54 72  1  0  0  0  0
 55 56  1  0  0  0  0
 55 57  1  0  0  0  0
 56 58  1  0  0  0  0
 57 71  1  0  0  0  0
 58 79  1  0  0  0  0
 59 61  1  0  0  0  0
 59 70  1  0  0  0  0
 60 72  1  0  0  0  0
 62 63  1  0  0  0  0
M  CHG  2  71   1  72   1
M  ISO  4  32 100  58 101  66 100  79 101
M  END
> <Batch ID>
0194

> <Smiles>
CNC(C)C(=O)NC(C(=O)N1Cc2cc([101O:1][101CH2:1]CCCNC3CC[100N:0]([100C:0](=O)N4CCCC(n5nc(-c6ccc(Oc7ccc(F)cc7F)cc6)c(C(N)=O)c5N)C4)CC3)ccc2CC1C(=O)NC1CCCc2ccccc21)C(C)(C)C

> <Shape>
0.303

> <Color>
0.161

> <Negative vol penalty>
0.000

$$$$

  -OEChem-04052323343D

 87 97  0     1  0  0  0  0  0999 V2000
  -19.6114  -25.1479   19.9326 C   0  0  0  0  0  0  0  0  0  0  0  0
  -20.8525  -24.5467   20.1161 C   0  0  0  0  0  0  0  0  0  0  0  0
  -26.8542  -12.9190   20.9813 C   0  0  0  0  0  0  0  0  0  0  0  0
  -26.6721  -13.2422   18.5939 C   0  0  0  0  0  0  0  0  0  0  0  0
  -19.4595  -26.5148   20.1616 C   0  0  0  0  0  0  0  0  0  0  0  0
  -21.9427  -25.3124   20.5278 C   0  0  0  0  0  0  0  0  0  0  0  0
  -26.5170  -23.5340   24.1911 C   0  0  0  0  0  0  0  0  0  0  0  0
  -26.2867  -11.6513   20.8529 C   0  0  0  0  0  0  0  0  0  0  0  0
  -26.1047  -11.9745   18.4655 C   0  0  0  0  0  0  0  0  0  0  0  0
  -27.8103  -23.0857   23.9265 C   0  0  0  0  0  0  0  0  0  0  0  0
  -23.1995  -10.3331   20.4579 C   0  0  0  0  0  0  0  0  0  0  0  0
  -22.2059   -9.9735   21.3683 C   0  0  0  0  0  0  0  0  0  0  0  0
  -28.6487  -25.3217   24.2680 C   0  0  0  0  0  0  0  0  0  0  0  0
  -23.5584   -8.1139   22.1098 C   0  0  0  0  0  0  0  0  0  0  0  0
  -27.0469  -13.7145   19.8518 C   0  0  0  0  0  0  0  0  0  0  0  0
  -28.9998  -15.3542   19.9240 C   0  0  0  0  0  0  0  0  0  0  0  0
  -20.5462  -27.2958   20.5856 C   0  0  0  0  0  0  0  0  0  0  0  0
  -26.2779  -24.8840   24.4858 C   0  0  0  0  0  0  0  0  0  0  0  0
  -21.8055  -26.6913   20.7614 C   0  0  0  0  0  0  0  0  0  0  0  0
  -27.3518  -25.7841   24.5384 C   0  0  0  0  0  0  0  0  0  0  0  0
  -25.9120  -11.1790   19.5951 C   0  0  0  0  0  0  0  0  0  0  0  0
  -28.8761  -23.9802   23.9621 C   0  0  0  0  0  0  0  0  0  0  0  0
  -24.3725   -9.5831   20.3733 C   0  0  0  0  0  0  0  0  0  0  0  0
  -22.3853   -8.8639   22.1943 C   0  0  0  0  0  0  0  0  0  0  0  0
  -24.5520   -8.4735   21.1993 C   0  0  0  0  0  0  0  0  0  0  0  0
  -27.6325  -15.0243   19.9838 C   0  0  0  0  0  0  0  0  0  0  0  0
  -29.0328  -16.7153   20.1050 C   0  0  0  0  0  0  0  0  0  0  0  0
  -30.6487  -25.6155   18.6402 C   0  0  0  0  0  0  0  0  0  0  0  0
  -28.7444  -24.4913   19.0231 C   0  0  0  0  0  0  0  0  0  0  0  0
  -30.6303  -23.8985   20.0855 C   0  0  0  0  0  0  0  0  0  0  0  0
  -30.1381  -14.5060   19.7228 C   0  0  0  0  0  0  0  0  0  0  0  0
  -24.5973  -27.2136   23.1249 C   0  0  0  0  0  0  0  0  0  0  0  0
  -25.4453  -28.8537   25.7920 C   0  0  0  0  0  0  0  0  0  0  0  0
  -27.6299  -29.2363   28.3859 C   0  0  0  0  0  0  0  0  0  0  0  0
  -27.1139  -21.7035   18.8665 C   0  0  0  0  0  0  0  0  0  0  0  0
  -20.3445  -28.7784   20.7749 C   0  0  0  0  0  0  0  0  0  0  0  0
  -24.8805  -25.3465   24.7951 C   0  0  0  0  0  0  0  0  0  0  0  0
  -27.1510  -27.2396   24.8697 C   0  0  0  0  0  0  0  0  0  0  0  0
  -21.4616  -29.4483   21.5708 C   0  0  0  0  0  0  0  0  0  0  0  0
  -25.4048  -19.9358   21.5434 C   0  0  0  0  0  0  0  0  0  0  0  0
  -22.8261  -28.9968   21.0597 C   0  0  0  0  0  0  0  0  0  0  0  0
  -32.1360  -27.7244   18.7584 C   0  0  0  0  0  0  0  0  0  0  0  0
  -30.8786  -28.1208   18.0497 C   0  0  0  0  0  0  0  0  0  0  0  0
  -25.9549  -18.5186   21.3694 C   0  0  0  0  0  0  0  0  0  0  0  0
  -26.1961  -24.8625   19.7565 C   0  0  0  0  0  0  0  0  0  0  0  0
  -25.2067  -20.6112   20.1914 C   0  0  0  0  0  0  0  0  0  0  0  0
  -25.4332  -23.5397   19.7134 C   0  0  0  0  0  0  0  0  0  0  0  0
  -26.9736  -19.2570   19.1601 C   0  0  0  0  0  0  0  0  0  0  0  0
  -23.0063  -27.4836   21.2311 C   0  0  1  0  0  0  0  0  0  0  0  0
  -31.3858  -26.7070   17.9398 C   0  0  0  0  0  0  0  0  0  0  0  0
  -27.1982  -24.2726   18.7447 C   0  0  2  0  0  0  0  0  0  0  0  0
  -24.6850  -26.8439   24.5786 C   0  0  1  0  0  0  0  0  0  0  0  0
  -27.2169  -18.5109   20.4859 C   0  0  2  0  0  0  0  0  0  0  0  0
  -28.0832  -30.6884   30.3817 C   0  0  0  0  0  0  0  0  0  0  0  0
  -26.5211  -31.0391   23.9546 C   0  0  0  0  0  0  0  0  0  0  0  0
  -27.7770  -31.9687   25.9108 C   0  0  0  0  0  0  0  0  0  0  0  0
  -25.2846  -31.8776   25.9602 C   0  0  0  0  0  0  0  0  0  0  0  0
  -27.3437  -26.9584   30.2535 C   0  0  0  0  0  0  0  0  0  0  0  0
  -32.0353  -23.7478   22.2196 C   0  0  0  0  0  0  0  0  0  0  0  0
  -31.0413  -24.4823   23.1162 C   0  0  0  0  0  0  0  0  0  1  0  0
  -31.3576  -22.9995   21.0611 C   0  0  2  0  0  0  0  0  0  0  0  0
  -26.6079  -29.7346   26.1810 C   0  0  1  0  0  0  0  0  0  0  0  0
  -27.4025  -29.4265   29.8747 C   0  0  2  0  0  0  0  0  0  0  0  0
  -26.5515  -31.1280   25.4934 C   0  0  0  0  0  0  0  0  0  0  0  0
  -26.8534  -16.0900   20.1870 N   0  0  0  0  0  0  0  0  0  0  0  0
  -29.3420  -25.4915   18.3559 N   0  0  0  0  0  0  0  0  0  0  0  0
  -31.3585  -24.8578   19.4919 N   0  0  0  0  0  0  0  0  0  0  0  0
  -29.3226  -23.6559   19.9010 N   0  0  0  0  0  0  0  0  0  0  0  0
  -27.7340  -17.1028   20.2566 N   0  0  0  0  0  0  0  0  0  0  0  0
  -25.7653  -27.6446   25.1584 N   0  0  0  0  0  0  0  0  0  0  0  0
  -26.4554  -20.6050   19.4242 N   0  0  0  0  0  0  0  0  0  0  0  0
  -26.5946  -22.9630   19.0613 N   0  0  0  0  0  0  0  0  0  0  0  0
  -30.0459  -17.6065   20.1477 N   0  0  0  0  0  0  0  0  0  0  0  0
  -29.9254  -13.1311   19.5537 N   0  0  0  0  0  0  0  0  0  0  0  0
  -23.3167  -27.1644   22.6081 N   0  0  0  0  0  0  0  0  0  0  0  0
  -26.6102  -29.7873   27.6389 N   0  0  0  0  0  0  0  0  0  0  0  0
  -32.4064  -22.1734   20.3789 N   0  3  0  0  0  0  0  0  0  0  0  0
  -27.9427  -28.2636   30.6340 N   0  3  0  0  0  0  0  0  0  0  0  0
  -31.3105  -14.9520   19.7104 O   0  0  0  0  0  0  0  0  0  0  0  0
  -25.6159  -27.5222   22.5175 O   0  0  0  0  0  0  0  0  0  0  0  0
  -24.2959  -29.2214   26.0477 O   0  0  0  0  0  0  0  0  0  0  0  0
  -28.6155  -28.6600   27.9309 O   0  0  0  0  0  0  0  0  0  0  0  0
  -28.1712  -21.5623   18.2358 O   0  0  0  0  0  0  0  0  0  0  0  0
  -25.3584   -9.9419   19.4694 O   0  0  0  0  0  0  0  0  0  0  0  0
  -30.1394  -23.5453   23.7037 O   0  0  0  0  0  0  0  0  0  1  0  0
  -21.4317   -8.5195   23.0697 F   0  0  0  0  0  0  0  0  0  0  0  0
  -25.6773   -7.7498   21.1234 F   0  0  0  0  0  0  0  0  0  0  0  0
  1  2  1  0  0  0  0
  1  5  2  0  0  0  0
  2  6  2  0  0  0  0
  3  8  2  0  0  0  0
  3 15  1  0  0  0  0
  4  9  1  0  0  0  0
  4 15  2  0  0  0  0
  5 17  1  0  0  0  0
  6 19  1  0  0  0  0
  7 10  2  0  0  0  0
  7 18  1  0  0  0  0
  8 21  1  0  0  0  0
  9 21  2  0  0  0  0
 10 22  1  0  0  0  0
 11 12  2  0  0  0  0
 11 23  1  0  0  0  0
 12 24  1  0  0  0  0
 13 20  1  0  0  0  0
 13 22  2  0  0  0  0
 14 24  2  0  0  0  0
 14 25  1  0  0  0  0
 15 26  1  0  0  0  0
 16 26  1  0  0  0  0
 16 27  2  0  0  0  0
 16 31  1  0  0  0  0
 17 19  2  0  0  0  0
 17 36  1  0  0  0  0
 18 20  2  0  0  0  0
 18 37  1  0  0  0  0
 19 49  1  0  0  0  0
 20 38  1  0  0  0  0
 21 84  1  0  0  0  0
 22 85  1  0  0  0  0
 23 25  2  0  0  0  0
 23 84  1  0  0  0  0
 24 86  1  0  0  0  0
 25 87  1  0  0  0  0
 26 65  2  0  0  0  0
 27 69  1  0  0  0  0
 27 73  1  0  0  0  0
 28 50  1  0  0  0  0
 28 66  1  0  0  0  0
 28 67  2  0  0  0  0
 29 51  1  0  0  0  0
 29 66  2  0  0  0  0
 29 68  1  0  0  0  0
 30 61  1  0  0  0  0
 30 67  1  0  0  0  0
 30 68  2  0  0  0  0
 31 74  1  0  0  0  0
 31 79  2  0  0  0  0
 32 52  1  0  0  0  0
 32 75  1  0  0  0  0
 32 80  2  0  0  0  0
 33 62  1  0  0  0  0
 33 70  1  0  0  0  0
 33 81  2  0  0  0  0
 34 63  1  0  0  0  0
 34 76  1  0  0  0  0
 34 82  2  0  0  0  0
 35 71  1  0  0  0  0
 35 72  1  0  0  0  0
 35 83  2  0  0  0  0
 36 39  1  0  0  0  0
 37 52  1  0  0  0  0
 38 70  1  0  0  0  0
 39 41  1  0  0  0  0
 40 44  1  0  0  0  0
 40 46  1  0  0  0  0
 41 49  1  0  0  0  0
 42 43  1  0  0  0  0
 42 50  1  0  0  0  0
 43 50  1  0  0  0  0
 44 53  1  0  0  0  0
 45 47  1  0  0  0  0
 45 51  1  0  0  0  0
 46 71  1  0  0  0  0
 47 72  1  0  0  0  0
 48 53  1  0  0  0  0
 48 71  1  0  0  0  0
 49 75  1  0  0  0  0
 51 72  1  0  0  0  0
 52 70  1  0  0  0  0
 53 69  1  0  0  0  0
 54 63  1  0  0  0  0
 55 64  1  0  0  0  0
 56 64  1  0  0  0  0
 57 64  1  0  0  0  0
 58 78  1  0  0  0  0
 59 60  1  0  0  0  0
 59 61  1  0  0  0  0
 60 85  1  0  0  0  0
 61 77  1  0  0  0  0
 62 64  1  0  0  0  0
 62 76  1  0  0  0  0
 63 78  1  0  0  0  0
 65 69  1  0  0  0  0
M  CHG  2  77   1  78   1
M  ISO  4  35 100  60 101  72 100  85 101
M  END
> <Batch ID>
0194

> <Smiles>
CNC(C)C(=O)NC(C(=O)N1Cc2cc([101O:1][101CH2:1]CC(N)c3nc(C4CC4)nc(C4CC[100N:0]4[100C:0](=O)N4CCCC(n5nc(-c6ccc(Oc7ccc(F)cc7F)cc6)c(C(N)=O)c5N)C4)n3)ccc2CC1C(=O)NC1CCCc2ccccc21)C(C)(C)C

> <Shape>
0.207

> <Color>
0.082

> <Negative vol penalty>
0.000

$$$$

  -OEChem-04052323343D

 88 97  0     1  0  0  0  0  0999 V2000
  -29.9368  -37.1087   23.4920 C   0  0  0  0  0  0  0  0  0  0  0  0
  -30.0520  -35.7224   23.5035 C   0  0  0  0  0  0  0  0  0  0  0  0
  -24.8693   -8.6710   22.4020 C   0  0  0  0  0  0  0  0  0  0  0  0
  -25.9035   -7.4148   20.6161 C   0  0  0  0  0  0  0  0  0  0  0  0
  -28.7618  -37.7132   23.9371 C   0  0  0  0  0  0  0  0  0  0  0  0
  -28.9926  -34.9396   23.9613 C   0  0  0  0  0  0  0  0  0  0  0  0
  -28.0646  -30.9744   20.9512 C   0  0  0  0  0  0  0  0  0  0  0  0
  -23.7233   -7.8834   22.2923 C   0  0  0  0  0  0  0  0  0  0  0  0
  -24.7575   -6.6272   20.5064 C   0  0  0  0  0  0  0  0  0  0  0  0
  -28.9157  -29.8760   21.0646 C   0  0  0  0  0  0  0  0  0  0  0  0
  -22.7127   -4.8068   23.2650 C   0  0  0  0  0  0  0  0  0  0  0  0
  -22.1363   -4.3333   24.4436 C   0  0  0  0  0  0  0  0  0  0  0  0
  -27.2746  -28.7529   22.4301 C   0  0  0  0  0  0  0  0  0  0  0  0
  -20.0864   -5.4941   23.9074 C   0  0  0  0  0  0  0  0  0  0  0  0
  -30.0645  -25.5792   21.0399 C   0  0  0  0  0  0  0  0  0  0  0  0
  -25.9594   -8.4367   21.5638 C   0  0  0  0  0  0  0  0  0  0  0  0
  -28.2645   -9.0114   22.4933 C   0  0  0  0  0  0  0  0  0  0  0  0
  -27.6840  -36.9371   24.3915 C   0  0  0  0  0  0  0  0  0  0  0  0
  -26.8145  -30.9747   21.5866 C   0  0  0  0  0  0  0  0  0  0  0  0
  -27.8027  -35.5343   24.4142 C   0  0  0  0  0  0  0  0  0  0  0  0
  -26.4084  -29.8515   22.3212 C   0  0  0  0  0  0  0  0  0  0  0  0
  -23.6674   -6.8615   21.3446 C   0  0  0  0  0  0  0  0  0  0  0  0
  -28.5220  -28.7662   21.8065 C   0  0  0  0  0  0  0  0  0  0  0  0
  -21.9760   -5.6240   22.4076 C   0  0  0  0  0  0  0  0  0  0  0  0
  -20.8231   -4.6769   24.7648 C   0  0  0  0  0  0  0  0  0  0  0  0
  -20.6628   -5.9677   22.7288 C   0  0  0  0  0  0  0  0  0  0  0  0
  -27.1433   -9.2503   21.6763 C   0  0  0  0  0  0  0  0  0  0  0  0
  -29.0620  -24.7482   19.1596 C   0  0  0  0  0  0  0  0  0  0  0  0
  -29.2529  -26.6908   20.9812 C   0  0  0  0  0  0  0  0  0  1  0  0
  -28.2506  -25.8599   19.1008 C   0  0  0  0  0  0  0  0  0  0  0  0
  -29.1064  -10.0661   22.2379 C   0  0  0  0  0  0  0  0  0  0  0  0
  -28.5219   -7.9325   23.4018 C   0  0  0  0  0  0  0  0  0  0  0  0
  -25.4446  -32.7479   23.8411 C   0  0  0  0  0  0  0  0  0  0  0  0
  -22.8355  -30.9641   23.1114 C   0  0  0  0  0  0  0  0  0  0  0  0
  -21.5754  -28.0637   21.8280 C   0  0  0  0  0  0  0  0  0  0  0  0
  -28.2880  -15.5257   20.5257 C   0  0  0  0  0  0  0  0  0  0  0  0
  -26.4518  -37.6373   24.9073 C   0  0  0  0  0  0  0  0  0  0  0  0
  -25.8969  -32.1566   21.4325 C   0  0  0  0  0  0  0  0  0  0  0  0
  -25.0681  -29.7938   23.0057 C   0  0  0  0  0  0  0  0  0  0  0  0
  -25.2356  -36.7223   25.0253 C   0  0  0  0  0  0  0  0  0  0  0  0
  -30.2775  -13.1892   18.8151 C   0  0  0  0  0  0  0  0  0  0  0  0
  -25.6185  -35.4101   25.7024 C   0  0  0  0  0  0  0  0  0  0  0  0
  -29.8058  -11.8757   19.4380 C   0  0  0  0  0  0  0  0  0  0  0  0
  -29.1170  -14.1534   18.5624 C   0  0  0  0  0  0  0  0  0  0  0  0
  -28.1082  -16.9224   18.4182 C   0  0  0  0  0  0  0  0  0  0  0  0
  -28.7904  -17.9498   20.5553 C   0  0  0  0  0  0  0  0  0  0  0  0
  -27.8105  -13.0998   20.3795 C   0  0  0  0  0  0  0  0  0  0  0  0
  -26.9517  -17.9100   18.3017 C   0  0  0  0  0  0  0  0  0  0  0  0
  -27.6335  -18.9333   20.4846 C   0  0  0  0  0  0  0  0  0  0  0  0
  -26.6663  -34.6502   24.8801 C   0  0  1  0  0  0  0  0  0  0  0  0
  -24.8600  -32.2572   22.5469 C   0  0  1  0  0  0  0  0  0  0  0  0
  -28.9621  -12.1341   20.6989 C   0  0  1  0  0  0  0  0  0  0  0  0
  -19.4056  -26.8778   21.4002 C   0  0  0  0  0  0  0  0  0  0  0  0
  -22.6226  -30.2880   26.0791 C   0  0  0  0  0  0  0  0  0  0  0  0
  -21.0871  -28.4069   25.4691 C   0  0  0  0  0  0  0  0  0  0  0  0
  -20.4378  -30.7605   24.9575 C   0  0  0  0  0  0  0  0  0  0  0  0
  -22.0564  -27.9923   18.9087 C   0  0  0  0  0  0  0  0  0  0  0  0
  -28.9698  -23.6456   18.1463 C   0  0  0  0  0  0  0  0  0  0  0  0
  -26.3315  -20.9326   17.5426 C   0  0  0  0  0  0  0  0  0  0  0  0
  -26.2143  -20.2208   18.8862 C   0  0  0  0  0  0  0  0  0  0  0  0
  -27.6203  -21.7154   17.3146 C   0  0  0  0  0  0  0  0  0  0  0  0
  -22.2636  -29.6558   23.6017 C   0  0  1  0  0  0  0  0  0  0  0  0
  -20.4657  -27.8043   20.8252 C   0  0  2  0  0  0  0  0  0  0  0  0
  -21.6289  -29.7794   25.0157 C   0  0  0  0  0  0  0  0  0  0  0  0
  -29.9835  -24.5878   20.1302 N   0  0  0  0  0  0  0  0  0  0  0  0
  -27.2592  -10.3690   20.9559 N   0  0  0  0  0  0  0  0  0  0  0  0
  -28.3315  -26.8512   20.0104 N   0  0  0  0  0  0  0  0  0  0  0  0
  -28.4632  -10.8426   21.3195 N   0  0  0  0  0  0  0  0  0  0  0  0
  -24.2091  -30.9766   22.8307 N   0  0  0  0  0  0  0  0  0  0  0  0
  -28.3175  -14.3367   19.7817 N   0  0  0  0  0  0  0  0  0  0  0  0
  -28.4883  -16.7225   19.8219 N   0  0  0  0  0  0  0  0  0  0  0  0
  -30.3267  -10.3958   22.7117 N   0  0  0  0  0  0  0  0  0  0  0  0
  -27.5505   -6.9323   23.5438 N   0  0  0  0  0  0  0  0  0  0  0  0
  -26.0429  -33.9904   23.7530 N   0  0  0  0  0  0  0  0  0  0  0  0
  -21.3384  -29.2021   22.5690 N   0  0  0  0  0  0  0  0  0  0  0  0
  -27.2937  -19.1853   19.0341 N   0  3  0  0  0  0  0  0  0  0  0  0
  -21.0186  -27.1775   19.5914 N   0  3  0  0  0  0  0  0  0  0  0  0
  -27.7760  -22.7760   18.3371 N   0  3  0  0  0  0  0  0  0  0  0  0
  -29.5750   -7.8663   24.0803 O   0  0  0  0  0  0  0  0  0  0  0  0
  -25.3580  -32.0514   24.8457 O   0  0  0  0  0  0  0  0  0  0  0  0
  -22.0895  -31.9370   22.9754 O   0  0  0  0  0  0  0  0  0  0  0  0
  -22.5528  -27.3278   21.9451 O   0  0  0  0  0  0  0  0  0  0  0  0
  -28.0932  -15.5185   21.7478 O   0  0  0  0  0  0  0  0  0  0  0  0
  -22.5494   -6.0927   21.2374 O   0  0  0  0  0  0  0  0  0  0  0  0
  -29.3643  -27.6759   21.9211 O   0  0  0  0  0  0  0  0  0  1  0  0
  -20.2692   -4.2209   25.8959 F   0  0  0  0  0  0  0  0  0  0  0  0
  -19.9497   -6.7515   21.9085 F   0  0  0  0  0  0  0  0  0  0  0  0
  -27.0669  -26.1022   17.8841 Cl  0  0  0  0  0  0  0  0  0  0  0  0
  1  2  1  0  0  0  0
  1  5  2  0  0  0  0
  2  6  2  0  0  0  0
  3  8  2  0  0  0  0
  3 16  1  0  0  0  0
  4  9  1  0  0  0  0
  4 16  2  0  0  0  0
  5 18  1  0  0  0  0
  6 20  1  0  0  0  0
  7 10  2  0  0  0  0
  7 19  1  0  0  0  0
  8 22  1  0  0  0  0
  9 22  2  0  0  0  0
 10 23  1  0  0  0  0
 11 12  2  0  0  0  0
 11 24  1  0  0  0  0
 12 25  1  0  0  0  0
 13 21  1  0  0  0  0
 13 23  2  0  0  0  0
 14 25  2  0  0  0  0
 14 26  1  0  0  0  0
 15 29  1  0  0  0  0
 15 65  2  0  0  0  0
 16 27  1  0  0  0  0
 17 27  1  0  0  0  0
 17 31  2  0  0  0  0
 17 32  1  0  0  0  0
 18 20  2  0  0  0  0
 18 37  1  0  0  0  0
 19 21  2  0  0  0  0
 19 38  1  0  0  0  0
 20 50  1  0  0  0  0
 21 39  1  0  0  0  0
 22 84  1  0  0  0  0
 23 85  1  0  0  0  0
 24 26  2  0  0  0  0
 24 84  1  0  0  0  0
 25 86  1  0  0  0  0
 26 87  1  0  0  0  0
 27 66  2  0  0  0  0
 28 30  2  0  0  0  0
 28 58  1  0  0  0  0
 28 65  1  0  0  0  0
 29 67  2  0  0  0  0
 29 85  1  0  0  0  0
 30 67  1  0  0  0  0
 30 88  1  0  0  0  0
 31 68  1  0  0  0  0
 31 72  1  0  0  0  0
 32 73  1  0  0  0  0
 32 79  2  0  0  0  0
 33 51  1  0  0  0  0
 33 74  1  0  0  0  0
 33 80  2  0  0  0  0
 34 62  1  0  0  0  0
 34 69  1  0  0  0  0
 34 81  2  0  0  0  0
 35 63  1  0  0  0  0
 35 75  1  0  0  0  0
 35 82  2  0  0  0  0
 36 70  1  0  0  0  0
 36 71  1  0  0  0  0
 36 83  2  0  0  0  0
 37 40  1  0  0  0  0
 38 51  1  0  0  0  0
 39 69  1  0  0  0  0
 40 42  1  0  0  0  0
 41 43  1  0  0  0  0
 41 44  1  0  0  0  0
 42 50  1  0  0  0  0
 43 52  1  0  0  0  0
 44 70  1  0  0  0  0
 45 48  1  0  0  0  0
 45 71  1  0  0  0  0
 46 49  1  0  0  0  0
 46 71  1  0  0  0  0
 47 52  1  0  0  0  0
 47 70  1  0  0  0  0
 48 76  1  0  0  0  0
 49 76  1  0  0  0  0
 50 74  1  0  0  0  0
 51 69  1  0  0  0  0
 52 68  1  0  0  0  0
 53 63  1  0  0  0  0
 54 64  1  0  0  0  0
 55 64  1  0  0  0  0
 56 64  1  0  0  0  0
 57 77  1  0  0  0  0
 58 78  1  0  0  0  0
 59 60  1  0  0  0  0
 59 61  1  0  0  0  0
 60 76  1  0  0  0  0
 61 78  1  0  0  0  0
 62 64  1  0  0  0  0
 62 75  1  0  0  0  0
 63 77  1  0  0  0  0
 66 68  1  0  0  0  0
M  CHG  3  76   1  77   1  78   1
M  ISO  4  29 101  36 100  71 100  85 101
M  END
> <Batch ID>
0194

> <Smiles>
CNC(C)C(=O)NC(C(=O)N1Cc2cc([101O:1][101c:1]3cnc(CNCCCN4CC[100N:0]([100C:0](=O)N5CCCC(n6nc(-c7ccc(Oc8ccc(F)cc8F)cc7)c(C(N)=O)c6N)C5)CC4)c(Cl)n3)ccc2CC1C(=O)NC1CCCc2ccccc21)C(C)(C)C

> <Shape>
0.297

> <Color>
0.090

> <Negative vol penalty>
0.000

$$$$

  -OEChem-04052323343D

 86 95  0     1  0  0  0  0  0999 V2000
  -28.9732  -23.9040   17.5497 C   0  0  0  0  0  0  0  0  0  0  0  0
  -27.7467  -24.0880   18.1799 C   0  0  0  0  0  0  0  0  0  0  0  0
  -25.8987  -13.2161   21.7493 C   0  0  0  0  0  0  0  0  0  0  0  0
  -25.6653  -13.0761   19.3487 C   0  0  0  0  0  0  0  0  0  0  0  0
  -30.1124  -24.5366   18.0456 C   0  0  0  0  0  0  0  0  0  0  0  0
  -27.6588  -24.9040   19.3072 C   0  0  0  0  0  0  0  0  0  0  0  0
  -23.6750  -28.0259   19.1401 C   0  0  0  0  0  0  0  0  0  0  0  0
  -25.3127  -11.9570   21.8797 C   0  0  0  0  0  0  0  0  0  0  0  0
  -25.0793  -11.8170   19.4791 C   0  0  0  0  0  0  0  0  0  0  0  0
  -22.4274  -27.4830   19.4447 C   0  0  0  0  0  0  0  0  0  0  0  0
  -26.2461   -8.7264   21.5265 C   0  0  0  0  0  0  0  0  0  0  0  0
  -26.8474   -7.8187   22.3983 C   0  0  0  0  0  0  0  0  0  0  0  0
  -17.3355  -25.4756   24.0468 C   0  0  0  0  0  0  0  0  0  0  0  0
  -22.5809  -28.3958   21.6724 C   0  0  0  0  0  0  0  0  0  0  0  0
  -24.8109   -7.7143   23.6941 C   0  0  0  0  0  0  0  0  0  0  0  0
  -17.6900  -24.8510   25.2252 C   0  0  0  0  0  0  0  0  0  0  0  0
  -26.0750  -13.7756   20.4837 C   0  0  0  0  0  0  0  0  0  0  0  0
  -28.0492  -15.3658   20.1982 C   0  0  0  0  0  0  0  0  0  0  0  0
  -30.0367  -25.3684   19.1739 C   0  0  0  0  0  0  0  0  0  0  0  0
  -24.3909  -28.7497   20.1044 C   0  0  0  0  0  0  0  0  0  0  0  0
  -28.7983  -25.5473   19.8195 C   0  0  0  0  0  0  0  0  0  0  0  0
  -23.8362  -28.9490   21.3767 C   0  0  0  0  0  0  0  0  0  0  0  0
  -24.9031  -11.2575   20.7446 C   0  0  0  0  0  0  0  0  0  0  0  0
  -21.8815  -27.6655   20.7119 C   0  0  0  0  0  0  0  0  0  0  0  0
  -24.9272   -9.1282   21.7384 C   0  0  0  0  0  0  0  0  0  0  0  0
  -26.1298   -7.3127   23.4821 C   0  0  0  0  0  0  0  0  0  0  0  0
  -24.2097   -8.6221   22.8222 C   0  0  0  0  0  0  0  0  0  0  0  0
  -26.6797  -15.0764   20.3484 C   0  0  0  0  0  0  0  0  0  0  0  0
  -18.2912  -25.4591   23.0515 C   0  0  0  0  0  0  0  0  0  0  0  0
  -28.1033  -16.7355   20.1122 C   0  0  0  0  0  0  0  0  0  0  0  0
  -19.7286  -24.3045   24.3811 C   0  0  0  0  0  0  0  0  0  0  0  0
  -29.1720  -14.4759   20.1413 C   0  0  0  0  0  0  0  0  0  0  0  0
  -27.1947  -28.3866   21.5573 C   0  0  0  0  0  0  0  0  0  0  0  0
  -26.4982  -31.3084   22.7821 C   0  0  0  0  0  0  0  0  0  0  0  0
  -24.1193  -33.6126   23.6057 C   0  0  0  0  0  0  0  0  0  0  0  0
  -24.7795  -21.0142   22.1209 C   0  0  0  0  0  0  0  0  0  0  0  0
  -31.3039  -25.9934   19.7014 C   0  0  0  0  0  0  0  0  0  0  0  0
  -25.7235  -29.3516   19.7516 C   0  0  0  0  0  0  0  0  0  0  0  0
  -24.5553  -29.7354   22.4410 C   0  0  0  0  0  0  0  0  0  0  0  0
  -31.0567  -27.1402   20.6780 C   0  0  0  0  0  0  0  0  0  0  0  0
  -25.5242  -20.5135   18.7262 C   0  0  0  0  0  0  0  0  0  0  0  0
  -30.0006  -26.7475   21.7063 C   0  0  0  0  0  0  0  0  0  0  0  0
  -26.0443  -19.0763   18.7385 C   0  0  0  0  0  0  0  0  0  0  0  0
  -21.6489  -22.5753   22.5090 C   0  0  0  0  0  0  0  0  0  0  0  0
  -23.3514  -23.4137   24.1722 C   0  0  0  0  0  0  0  0  0  0  0  0
  -24.3179  -20.6943   19.6495 C   0  0  0  0  0  0  0  0  0  0  0  0
  -22.7659  -22.4119   21.4740 C   0  0  0  0  0  0  0  0  0  0  0  0
  -24.4261  -23.2612   23.0994 C   0  0  0  0  0  0  0  0  0  0  0  0
  -25.0712  -18.7998   21.0501 C   0  0  0  0  0  0  0  0  0  0  0  0
  -28.6580  -26.4446   21.0301 C   0  0  1  0  0  0  0  0  0  0  0  0
  -26.5938  -29.6334   20.9725 C   0  0  1  0  0  0  0  0  0  0  0  0
  -26.3192  -18.6006   20.1762 C   0  0  1  0  0  0  0  0  0  0  0  0
  -21.9841  -23.6642   23.5309 C   0  0  0  0  0  0  0  0  0  0  0  0
  -23.8522  -35.8901   24.6249 C   0  0  0  0  0  0  0  0  0  0  0  0
  -26.9716  -30.1213   25.5528 C   0  0  0  0  0  0  0  0  0  0  0  0
  -25.7936  -32.1041   26.5271 C   0  0  0  0  0  0  0  0  0  0  0  0
  -27.9009  -32.4207   25.2303 C   0  0  0  0  0  0  0  0  0  0  0  0
  -22.9143  -34.7051   21.1332 C   0  0  0  0  0  0  0  0  0  0  0  0
  -17.9990  -26.1097   21.7412 C   0  0  0  0  0  0  0  0  0  0  0  0
  -18.3981  -27.5920   21.6687 C   0  0  0  0  0  0  0  0  0  0  0  0
  -19.8724  -27.8306   21.9736 C   0  0  0  0  0  0  0  0  0  1  0  0
  -25.7738  -31.8085   24.0086 C   0  0  1  0  0  0  0  0  0  0  0  0
  -24.0244  -35.1033   23.3350 C   0  0  2  0  0  0  0  0  0  0  0  0
  -26.5970  -31.5971   25.3105 C   0  0  0  0  0  0  0  0  0  0  0  0
  -18.8824  -24.2532   25.4275 N   0  0  0  0  0  0  0  0  0  0  0  0
  -25.9188  -16.1741   20.3579 N   0  0  0  0  0  0  0  0  0  0  0  0
  -19.5028  -24.8807   23.1850 N   0  0  0  0  0  0  0  0  0  0  0  0
  -26.8133  -17.1666   20.2126 N   0  0  0  0  0  0  0  0  0  0  0  0
  -25.8581  -30.2987   22.0497 N   0  0  0  0  0  0  0  0  0  0  0  0
  -24.6143  -20.1901   20.9976 N   0  0  0  0  0  0  0  0  0  0  0  0
  -24.0647  -22.2212   22.1355 N   0  0  0  0  0  0  0  0  0  0  0  0
  -29.1281  -17.6012   19.9613 N   0  0  0  0  0  0  0  0  0  0  0  0
  -28.9383  -13.0979   20.2452 N   0  0  0  0  0  0  0  0  0  0  0  0
  -20.9616  -23.7010   24.5533 N   0  0  0  0  0  0  0  0  0  0  0  0
  -27.9828  -27.6740   20.6738 N   0  0  0  0  0  0  0  0  0  0  0  0
  -25.4282  -33.2001   23.7394 N   0  0  0  0  0  0  0  0  0  0  0  0
  -22.8634  -35.3957   22.4475 N   0  3  0  0  0  0  0  0  0  0  0  0
  -30.3492  -14.8915   20.0191 O   0  0  0  0  0  0  0  0  0  0  0  0
  -26.9617  -28.0935   22.7241 O   0  0  0  0  0  0  0  0  0  0  0  0
  -27.5884  -31.8007   22.4810 O   0  0  0  0  0  0  0  0  0  0  0  0
  -23.1310  -32.8873   23.6937 O   0  0  0  0  0  0  0  0  0  0  0  0
  -25.5221  -20.6906   23.0563 O   0  0  0  0  0  0  0  0  0  0  0  0
  -24.3314  -10.0288   20.8715 O   0  0  0  0  0  0  0  0  0  0  0  0
  -20.6557  -27.1324   21.0142 O   0  0  0  0  0  0  0  0  0  1  0  0
  -26.7069   -6.4399   24.3184 F   0  0  0  0  0  0  0  0  0  0  0  0
  -22.9419   -9.0034   23.0303 F   0  0  0  0  0  0  0  0  0  0  0  0
  1  2  1  0  0  0  0
  1  5  2  0  0  0  0
  2  6  2  0  0  0  0
  3  8  2  0  0  0  0
  3 17  1  0  0  0  0
  4  9  1  0  0  0  0
  4 17  2  0  0  0  0
  5 19  1  0  0  0  0
  6 21  1  0  0  0  0
  7 10  2  0  0  0  0
  7 20  1  0  0  0  0
  8 23  1  0  0  0  0
  9 23  2  0  0  0  0
 10 24  1  0  0  0  0
 11 12  2  0  0  0  0
 11 25  1  0  0  0  0
 12 26  1  0  0  0  0
 13 16  2  0  0  0  0
 13 29  1  0  0  0  0
 14 22  1  0  0  0  0
 14 24  2  0  0  0  0
 15 26  2  0  0  0  0
 15 27  1  0  0  0  0
 16 65  1  0  0  0  0
 17 28  1  0  0  0  0
 18 28  1  0  0  0  0
 18 30  2  0  0  0  0
 18 32  1  0  0  0  0
 19 21  2  0  0  0  0
 19 37  1  0  0  0  0
 20 22  2  0  0  0  0
 20 38  1  0  0  0  0
 21 50  1  0  0  0  0
 22 39  1  0  0  0  0
 23 83  1  0  0  0  0
 24 84  1  0  0  0  0
 25 27  2  0  0  0  0
 25 83  1  0  0  0  0
 26 85  1  0  0  0  0
 27 86  1  0  0  0  0
 28 66  2  0  0  0  0
 29 59  1  0  0  0  0
 29 67  2  0  0  0  0
 30 68  1  0  0  0  0
 30 72  1  0  0  0  0
 31 65  2  0  0  0  0
 31 67  1  0  0  0  0
 31 74  1  0  0  0  0
 32 73  1  0  0  0  0
 32 78  2  0  0  0  0
 33 51  1  0  0  0  0
 33 75  1  0  0  0  0
 33 79  2  0  0  0  0
 34 62  1  0  0  0  0
 34 69  1  0  0  0  0
 34 80  2  0  0  0  0
 35 63  1  0  0  0  0
 35 76  1  0  0  0  0
 35 81  2  0  0  0  0
 36 70  1  0  0  0  0
 36 71  1  0  0  0  0
 36 82  2  0  0  0  0
 37 40  1  0  0  0  0
 38 51  1  0  0  0  0
 39 69  1  0  0  0  0
 40 42  1  0  0  0  0
 41 43  1  0  0  0  0
 41 46  1  0  0  0  0
 42 50  1  0  0  0  0
 43 52  1  0  0  0  0
 44 47  1  0  0  0  0
 44 53  1  0  0  0  0
 45 48  1  0  0  0  0
 45 53  1  0  0  0  0
 46 70  1  0  0  0  0
 47 71  1  0  0  0  0
 48 71  1  0  0  0  0
 49 52  1  0  0  0  0
 49 70  1  0  0  0  0
 50 75  1  0  0  0  0
 51 69  1  0  0  0  0
 52 68  1  0  0  0  0
 53 74  1  0  0  0  0
 54 63  1  0  0  0  0
 55 64  1  0  0  0  0
 56 64  1  0  0  0  0
 57 64  1  0  0  0  0
 58 77  1  0  0  0  0
 59 60  1  0  0  0  0
 60 61  1  0  0  0  0
 61 84  1  0  0  0  0
 62 64  1  0  0  0  0
 62 76  1  0  0  0  0
 63 77  1  0  0  0  0
 66 68  1  0  0  0  0
M  CHG  1  77   1
M  ISO  4  36 100  61 101  71 100  84 101
M  END
> <Batch ID>
0194

> <Smiles>
CNC(C)C(=O)NC(C(=O)N1Cc2cc([101O:1][101CH2:1]CCc3ccnc(NC4CC[100N:0]([100C:0](=O)N5CCCC(n6nc(-c7ccc(Oc8ccc(F)cc8F)cc7)c(C(N)=O)c6N)C5)CC4)n3)ccc2CC1C(=O)NC1CCCc2ccccc21)C(C)(C)C

> <Shape>
0.288

> <Color>
0.075

> <Negative vol penalty>
0.000

$$$$

  -OEChem-04052323343D

 85 94  0     1  0  0  0  0  0999 V2000
  -30.7313  -24.7329   18.4772 C   0  0  0  0  0  0  0  0  0  0  0  0
  -29.4523  -24.7482   19.0243 C   0  0  0  0  0  0  0  0  0  0  0  0
  -27.4024  -15.8858   19.0106 C   0  0  0  0  0  0  0  0  0  0  0  0
  -27.7185  -16.0084   21.4027 C   0  0  0  0  0  0  0  0  0  0  0  0
  -31.7256  -25.5528   19.0091 C   0  0  0  0  0  0  0  0  0  0  0  0
  -29.1672  -25.5827   20.1044 C   0  0  0  0  0  0  0  0  0  0  0  0
  -24.7738  -28.0404   19.5539 C   0  0  0  0  0  0  0  0  0  0  0  0
  -28.6365  -16.5060   18.8157 C   0  0  0  0  0  0  0  0  0  0  0  0
  -28.9527  -16.6285   21.2078 C   0  0  0  0  0  0  0  0  0  0  0  0
  -23.6063  -27.3226   19.8096 C   0  0  0  0  0  0  0  0  0  0  0  0
  -30.0959  -19.7180   20.4469 C   0  0  0  0  0  0  0  0  0  0  0  0
  -30.3922  -20.8325   21.2315 C   0  0  0  0  0  0  0  0  0  0  0  0
  -23.4720  -28.3317   21.9966 C   0  0  0  0  0  0  0  0  0  0  0  0
  -32.3192  -19.6864   22.1317 C   0  0  0  0  0  0  0  0  0  0  0  0
  -18.0592  -22.6064   22.7349 C   0  0  0  0  0  0  0  0  0  0  0  0
  -26.9434  -15.6371   20.3041 C   0  0  0  0  0  0  0  0  0  0  0  0
  -25.4176  -13.6157   20.6101 C   0  0  0  0  0  0  0  0  0  0  0  0
  -31.4500  -26.4049   20.0902 C   0  0  0  0  0  0  0  0  0  0  0  0
  -25.3061  -28.9025   20.5234 C   0  0  0  0  0  0  0  0  0  0  0  0
  -30.1591  -26.4138   20.6522 C   0  0  0  0  0  0  0  0  0  0  0  0
  -24.6450  -29.0612   21.7497 C   0  0  0  0  0  0  0  0  0  0  0  0
  -29.4117  -16.8773   19.9143 C   0  0  0  0  0  0  0  0  0  0  0  0
  -22.9568  -27.4660   21.0321 C   0  0  0  0  0  0  0  0  0  0  0  0
  -30.9111  -18.5876   20.5047 C   0  0  0  0  0  0  0  0  0  0  0  0
  -31.5039  -20.8167   22.0739 C   0  0  0  0  0  0  0  0  0  0  0  0
  -32.0228  -18.5719   21.3471 C   0  0  0  0  0  0  0  0  0  0  0  0
  -25.6684  -14.9970   20.5061 C   0  0  0  0  0  0  0  0  0  0  0  0
  -17.9889  -21.6333   23.7109 C   0  0  0  0  0  0  0  0  0  0  0  0
  -18.0219  -23.9095   23.1873 C   0  0  0  0  0  0  0  0  0  0  0  0
  -24.0595  -13.5262   20.7950 C   0  0  0  0  0  0  0  0  0  0  0  0
  -17.8628  -23.2094   25.3441 C   0  0  0  0  0  0  0  0  0  0  0  0
  -26.3306  -12.5121   20.5455 C   0  0  0  0  0  0  0  0  0  0  0  0
  -28.0307  -29.0337   22.1553 C   0  0  0  0  0  0  0  0  0  0  0  0
  -26.8181  -31.8563   23.1967 C   0  0  0  0  0  0  0  0  0  0  0  0
  -24.0669  -33.7932   23.7678 C   0  0  0  0  0  0  0  0  0  0  0  0
  -20.2250  -17.4611   23.0751 C   0  0  0  0  0  0  0  0  0  0  0  0
  -32.5697  -27.2382   20.6615 C   0  0  0  0  0  0  0  0  0  0  0  0
  -26.5517  -29.6899   20.2220 C   0  0  0  0  0  0  0  0  0  0  0  0
  -25.1643  -29.9893   22.8163 C   0  0  0  0  0  0  0  0  0  0  0  0
  -32.0870  -28.3689   21.5663 C   0  0  0  0  0  0  0  0  0  0  0  0
  -19.9748  -15.7665   19.8223 C   0  0  0  0  0  0  0  0  0  0  0  0
  -31.0377  -27.8563   22.5477 C   0  0  0  0  0  0  0  0  0  0  0  0
  -21.4170  -15.3177   19.6148 C   0  0  0  0  0  0  0  0  0  0  0  0
  -19.8785  -17.0880   20.5851 C   0  0  0  0  0  0  0  0  0  0  0  0
  -18.9376  -19.5651   22.2596 C   0  0  0  0  0  0  0  0  0  0  0  0
  -18.7858  -19.1326   24.3343 C   0  0  0  0  0  0  0  0  0  0  0  0
  -22.0726  -16.6291   21.6615 C   0  0  0  0  0  0  0  0  0  0  0  0
  -29.8044  -27.3236   21.8083 C   0  0  1  0  0  0  0  0  0  0  0  0
  -18.0170  -20.0803   23.3906 C   0  0  0  0  0  0  0  0  0  0  0  0
  -27.2867  -30.1493   21.4774 C   0  0  1  0  0  0  0  0  0  0  0  0
  -22.1605  -15.2684   20.9574 C   0  0  2  0  0  0  0  0  0  0  0  0
  -17.7538  -23.5442   26.7929 C   0  0  0  0  0  0  0  0  0  0  0  0
  -23.3894  -36.0386   24.6602 C   0  0  0  0  0  0  0  0  0  0  0  0
  -27.2836  -30.8626   26.0438 C   0  0  0  0  0  0  0  0  0  0  0  0
  -25.7557  -32.6740   26.8515 C   0  0  0  0  0  0  0  0  0  0  0  0
  -27.8708  -33.2643   25.6681 C   0  0  0  0  0  0  0  0  0  0  0  0
  -22.8748  -34.5914   21.1792 C   0  0  0  0  0  0  0  0  0  0  0  0
  -18.0925  -25.0371   22.2001 C   0  0  0  0  0  0  0  0  0  0  0  0
  -19.5493  -26.3154   20.6246 C   0  0  0  0  0  0  0  0  0  0  0  0
  -20.9883  -26.4499   20.1669 C   0  0  0  0  0  0  0  0  0  1  0  0
  -25.9469  -32.2840   24.3530 C   0  0  1  0  0  0  0  0  0  0  0  0
  -23.7640  -35.2398   23.4215 C   0  0  2  0  0  0  0  0  0  0  0  0
  -26.7052  -32.2522   25.7099 C   0  0  0  0  0  0  0  0  0  0  0  0
  -24.5586  -15.7322   20.6156 N   0  0  0  0  0  0  0  0  0  0  0  0
  -17.8897  -21.9002   25.0297 N   0  0  0  0  0  0  0  0  0  0  0  0
  -17.9236  -24.2484   24.4895 N   0  0  0  0  0  0  0  0  0  0  0  0
  -23.5974  -14.8094   20.7903 N   0  0  0  0  0  0  0  0  0  0  0  0
  -26.3889  -30.7326   22.4764 N   0  0  0  0  0  0  0  0  0  0  0  0
  -20.6852  -17.0815   21.8098 N   0  0  0  0  0  0  0  0  0  0  0  0
  -19.2585  -18.4450   23.1360 N   0  0  0  0  0  0  0  0  0  0  0  0
  -23.2276  -12.4759   20.9595 N   0  0  0  0  0  0  0  0  0  0  0  0
  -27.6921  -12.7819   20.3510 N   0  0  0  0  0  0  0  0  0  0  0  0
  -28.9747  -28.4191   21.3548 N   0  0  0  0  0  0  0  0  0  0  0  0
  -25.4117  -33.5940   23.9981 N   0  0  0  0  0  0  0  0  0  0  0  0
  -22.6329  -35.3149   22.4540 N   0  3  0  0  0  0  0  0  0  0  0  0
  -19.4590  -25.2449   21.6493 N   0  3  0  0  0  0  0  0  0  0  0  0
  -25.9482  -11.3212   20.6406 O   0  0  0  0  0  0  0  0  0  0  0  0
  -27.7689  -28.7523   23.3189 O   0  0  0  0  0  0  0  0  0  0  0  0
  -27.8380  -32.5000   22.9376 O   0  0  0  0  0  0  0  0  0  0  0  0
  -23.1970  -32.9273   23.8315 O   0  0  0  0  0  0  0  0  0  0  0  0
  -20.6800  -16.9679   24.1150 O   0  0  0  0  0  0  0  0  0  0  0  0
  -30.6161  -17.4822   19.7245 O   0  0  0  0  0  0  0  0  0  0  0  0
  -21.8174  -26.7660   21.2845 O   0  0  0  0  0  0  0  0  0  1  0  0
  -31.7892  -21.8876   22.8262 F   0  0  0  0  0  0  0  0  0  0  0  0
  -32.8104  -17.4893   21.4060 F   0  0  0  0  0  0  0  0  0  0  0  0
  1  2  1  0  0  0  0
  1  5  2  0  0  0  0
  2  6  2  0  0  0  0
  3  8  2  0  0  0  0
  3 16  1  0  0  0  0
  4  9  1  0  0  0  0
  4 16  2  0  0  0  0
  5 18  1  0  0  0  0
  6 20  1  0  0  0  0
  7 10  2  0  0  0  0
  7 19  1  0  0  0  0
  8 22  1  0  0  0  0
  9 22  2  0  0  0  0
 10 23  1  0  0  0  0
 11 12  2  0  0  0  0
 11 24  1  0  0  0  0
 12 25  1  0  0  0  0
 13 21  1  0  0  0  0
 13 23  2  0  0  0  0
 14 25  2  0  0  0  0
 14 26  1  0  0  0  0
 15 28  2  0  0  0  0
 15 29  1  0  0  0  0
 16 27  1  0  0  0  0
 17 27  1  0  0  0  0
 17 30  2  0  0  0  0
 17 32  1  0  0  0  0
 18 20  2  0  0  0  0
 18 37  1  0  0  0  0
 19 21  2  0  0  0  0
 19 38  1  0  0  0  0
 20 48  1  0  0  0  0
 21 39  1  0  0  0  0
 22 82  1  0  0  0  0
 23 83  1  0  0  0  0
 24 26  2  0  0  0  0
 24 82  1  0  0  0  0
 25 84  1  0  0  0  0
 26 85  1  0  0  0  0
 27 64  2  0  0  0  0
 28 49  1  0  0  0  0
 28 65  1  0  0  0  0
 29 58  1  0  0  0  0
 29 66  2  0  0  0  0
 30 67  1  0  0  0  0
 30 71  1  0  0  0  0
 31 52  1  0  0  0  0
 31 65  2  0  0  0  0
 31 66  1  0  0  0  0
 32 72  1  0  0  0  0
 32 77  2  0  0  0  0
 33 50  1  0  0  0  0
 33 73  1  0  0  0  0
 33 78  2  0  0  0  0
 34 61  1  0  0  0  0
 34 68  1  0  0  0  0
 34 79  2  0  0  0  0
 35 62  1  0  0  0  0
 35 74  1  0  0  0  0
 35 80  2  0  0  0  0
 36 69  1  0  0  0  0
 36 70  1  0  0  0  0
 36 81  2  0  0  0  0
 37 40  1  0  0  0  0
 38 50  1  0  0  0  0
 39 68  1  0  0  0  0
 40 42  1  0  0  0  0
 41 43  1  0  0  0  0
 41 44  1  0  0  0  0
 42 48  1  0  0  0  0
 43 51  1  0  0  0  0
 44 69  1  0  0  0  0
 45 49  1  0  0  0  0
 45 70  1  0  0  0  0
 46 49  1  0  0  0  0
 46 70  1  0  0  0  0
 47 51  1  0  0  0  0
 47 69  1  0  0  0  0
 48 73  1  0  0  0  0
 50 68  1  0  0  0  0
 51 67  1  0  0  0  0
 53 62  1  0  0  0  0
 54 63  1  0  0  0  0
 55 63  1  0  0  0  0
 56 63  1  0  0  0  0
 57 75  1  0  0  0  0
 58 76  1  0  0  0  0
 59 60  1  0  0  0  0
 59 76  1  0  0  0  0
 60 83  1  0  0  0  0
 61 63  1  0  0  0  0
 61 74  1  0  0  0  0
 62 75  1  0  0  0  0
 64 67  1  0  0  0  0
M  CHG  2  75   1  76   1
M  ISO  4  36 100  60 101  70 100  83 101
M  END
> <Batch ID>
0194

> <Smiles>
CNC(C)C(=O)NC(C(=O)N1Cc2cc([101O:1][101CH2:1]CNCc3cc(C4C[100N:0]([100C:0](=O)N5CCCC(n6nc(-c7ccc(Oc8ccc(F)cc8F)cc7)c(C(N)=O)c6N)C5)C4)nc(C)n3)ccc2CC1C(=O)NC1CCCc2ccccc21)C(C)(C)C

> <Shape>
0.260

> <Color>
0.074

> <Negative vol penalty>
0.000

$$$$

  -OEChem-04052323343D

 91100  0     1  0  0  0  0  0999 V2000
  -28.7001  -37.1565   23.0879 C   0  0  0  0  0  0  0  0  0  0  0  0
  -29.1344  -35.9454   22.5587 C   0  0  0  0  0  0  0  0  0  0  0  0
  -23.9037  -13.0395   24.3155 C   0  0  0  0  0  0  0  0  0  0  0  0
  -24.4060  -10.8046   23.5474 C   0  0  0  0  0  0  0  0  0  0  0  0
  -27.5551  -37.1982   23.8824 C   0  0  0  0  0  0  0  0  0  0  0  0
  -28.4245  -34.7750   22.8246 C   0  0  0  0  0  0  0  0  0  0  0  0
  -26.6752  -28.5051   19.8338 C   0  0  0  0  0  0  0  0  0  0  0  0
  -23.3774  -12.5155   25.4962 C   0  0  0  0  0  0  0  0  0  0  0  0
  -23.8798  -10.2806   24.7282 C   0  0  0  0  0  0  0  0  0  0  0  0
  -26.7143  -27.1370   20.0994 C   0  0  0  0  0  0  0  0  0  0  0  0
  -20.8241   -9.6325   26.0219 C   0  0  0  0  0  0  0  0  0  0  0  0
  -19.9717   -8.5332   25.9197 C   0  0  0  0  0  0  0  0  0  0  0  0
  -24.7058  -27.3421   21.4197 C   0  0  0  0  0  0  0  0  0  0  0  0
  -21.4858   -7.2325   27.2808 C   0  0  0  0  0  0  0  0  0  0  0  0
  -25.3670  -21.3759   21.7828 C   0  0  0  0  0  0  0  0  0  0  0  0
  -24.4179  -12.1841   23.3411 C   0  0  0  0  0  0  0  0  0  0  0  0
  -24.2878  -13.5081   21.1645 C   0  0  0  0  0  0  0  0  0  0  0  0
  -26.8253  -36.0293   24.1502 C   0  0  0  0  0  0  0  0  0  0  0  0
  -25.6555  -29.3052   20.3691 C   0  0  0  0  0  0  0  0  0  0  0  0
  -27.2694  -34.8009   23.6245 C   0  0  0  0  0  0  0  0  0  0  0  0
  -24.6546  -28.7196   21.1574 C   0  0  0  0  0  0  0  0  0  0  0  0
  -27.7413  -22.1521   20.7979 C   0  0  0  0  0  0  0  0  0  0  0  0
  -23.3655  -11.1360   25.7026 C   0  0  0  0  0  0  0  0  0  0  0  0
  -25.7311  -26.5558   20.8948 C   0  0  0  0  0  0  0  0  0  0  0  0
  -22.0075   -9.5318   26.7535 C   0  0  0  0  0  0  0  0  0  0  0  0
  -20.3025   -7.3333   26.5492 C   0  0  0  0  0  0  0  0  0  0  0  0
  -22.3383   -8.3319   27.3830 C   0  0  0  0  0  0  0  0  0  0  0  0
  -24.9611  -12.7248   22.1210 C   0  0  0  0  0  0  0  0  0  0  0  0
  -26.6897  -23.0310   20.9593 C   0  0  0  0  0  0  0  0  0  0  0  0
  -27.4931  -20.8484   21.1759 C   0  0  0  0  0  0  0  0  0  0  0  0
  -25.2345  -13.7648   20.2030 C   0  0  0  0  0  0  0  0  0  0  0  0
  -22.9283  -13.9631   21.1467 C   0  0  0  0  0  0  0  0  0  0  0  0
  -25.5583  -31.7785   22.3634 C   0  0  0  0  0  0  0  0  0  0  0  0
  -22.4107  -31.7880   21.5793 C   0  0  0  0  0  0  0  0  0  0  0  0
  -19.2173  -31.0915   20.5978 C   0  0  0  0  0  0  0  0  0  0  0  0
  -31.2175  -13.9659   20.3227 C   0  0  0  0  0  0  0  0  0  0  0  0
  -25.6206  -36.1165   25.0533 C   0  0  0  0  0  0  0  0  0  0  0  0
  -25.6126  -30.7748   20.0513 C   0  0  0  0  0  0  0  0  0  0  0  0
  -23.5271  -29.5312   21.7392 C   0  0  0  0  0  0  0  0  0  0  0  0
  -24.7137  -34.8909   24.9791 C   0  0  0  0  0  0  0  0  0  0  0  0
  -29.1858  -11.9056   18.2481 C   0  0  0  0  0  0  0  0  0  0  0  0
  -25.5396  -33.6105   25.0515 C   0  0  0  0  0  0  0  0  0  0  0  0
  -27.8119  -11.9526   18.9191 C   0  0  0  0  0  0  0  0  0  0  0  0
  -30.3159  -11.9101   19.2751 C   0  0  0  0  0  0  0  0  0  0  0  0
  -28.6107  -19.1820   19.7630 C   0  0  0  0  0  0  0  0  0  0  0  0
  -29.0196  -19.1991   22.2181 C   0  0  0  0  0  0  0  0  0  0  0  0
  -28.8887  -13.0628   20.9208 C   0  0  0  0  0  0  0  0  0  0  0  0
  -30.0278  -18.6751   19.5321 C   0  0  0  0  0  0  0  0  0  0  0  0
  -30.4348  -18.6869   21.9820 C   0  0  0  0  0  0  0  0  0  0  0  0
  -26.5123  -33.5138   23.8699 C   0  0  1  0  0  0  0  0  0  0  0  0
  -24.8168  -31.5836   21.0711 C   0  0  1  0  0  0  0  0  0  0  0  0
  -27.7182  -13.1164   19.9241 C   0  0  2  0  0  0  0  0  0  0  0  0
  -16.8503  -31.8695   20.8974 C   0  0  0  0  0  0  0  0  0  0  0  0
  -22.3381  -30.4952   24.3422 C   0  0  0  0  0  0  0  0  0  0  0  0
  -19.8404  -30.4454   24.1766 C   0  0  0  0  0  0  0  0  0  0  0  0
  -21.0469  -32.6287   24.1545 C   0  0  0  0  0  0  0  0  0  0  0  0
  -32.3615  -23.9873   21.5962 C   0  0  0  0  0  0  0  0  0  0  0  0
  -18.9255  -31.6875   17.7136 C   0  0  0  0  0  0  0  0  0  0  0  0
  -26.8408  -24.4756   20.5830 C   0  0  0  0  0  0  0  0  0  1  0  0
  -31.9762  -16.0447   21.4462 C   0  0  0  0  0  0  0  0  0  0  0  0
  -31.8064  -17.2207   20.5026 C   0  0  0  0  0  0  0  0  0  0  0  0
  -30.0603  -23.0589   21.3110 C   0  0  0  0  0  0  0  0  0  0  0  0
  -29.0542  -22.5920   20.2508 C   0  0  1  0  0  0  0  0  0  0  0  0
  -21.1706  -31.1237   22.1268 C   0  0  1  0  0  0  0  0  0  0  0  0
  -18.1129  -31.9817   20.0570 C   0  0  2  0  0  0  0  0  0  0  0  0
  -21.1151  -31.1607   23.6801 C   0  0  0  0  0  0  0  0  0  0  0  0
  -25.4844  -22.6756   21.4506 N   0  0  0  0  0  0  0  0  0  0  0  0
  -26.3133  -20.4239   21.6741 N   0  0  0  0  0  0  0  0  0  0  0  0
  -26.2369  -12.4985   21.7966 N   0  0  0  0  0  0  0  0  0  0  0  0
  -26.3728  -13.1435   20.6254 N   0  0  0  0  0  0  0  0  0  0  0  0
  -28.5218  -19.9095   21.0359 N   0  0  0  0  0  0  0  0  0  0  0  0
  -23.5323  -30.9650   21.4050 N   0  0  0  0  0  0  0  0  0  0  0  0
  -30.1694  -13.0392   20.1969 N   0  0  0  0  0  0  0  0  0  0  0  0
  -25.1959  -14.4589   19.0458 N   0  0  0  0  0  0  0  0  0  0  0  0
  -22.0911  -13.6088   22.2135 N   0  0  0  0  0  0  0  0  0  0  0  0
  -25.8129  -33.1012   22.6720 N   0  0  0  0  0  0  0  0  0  0  0  0
  -20.0383  -31.7708   21.4728 N   0  0  0  0  0  0  0  0  0  0  0  0
  -30.9943  -15.0092   21.2130 N   0  0  0  0  0  0  0  0  0  0  0  0
  -30.4640  -17.8595   20.7227 N   0  3  0  0  0  0  0  0  0  0  0  0
  -31.3344  -23.4563   20.6599 N   0  3  0  0  0  0  0  0  0  0  0  0
  -17.7799  -31.6004   18.6553 N   0  3  0  0  0  0  0  0  0  0  0  0
  -22.4649  -14.6494   20.2044 O   0  0  0  0  0  0  0  0  0  0  0  0
  -25.8747  -30.8014   23.0317 O   0  0  0  0  0  0  0  0  0  0  0  0
  -22.3831  -32.9914   21.3093 O   0  0  0  0  0  0  0  0  0  0  0  0
  -19.3372  -29.9106   20.2789 O   0  0  0  0  0  0  0  0  0  0  0  0
  -32.2717  -13.8735   19.6848 O   0  0  0  0  0  0  0  0  0  0  0  0
  -22.8524  -10.6244   26.8547 O   0  0  0  0  0  0  0  0  0  0  0  0
  -25.7672  -25.2207   21.1560 O   0  0  0  0  0  0  0  0  0  1  0  0
  -19.4830   -6.2781   26.4522 F   0  0  0  0  0  0  0  0  0  0  0  0
  -23.4732   -8.2294   28.0883 F   0  0  0  0  0  0  0  0  0  0  0  0
  -29.6880  -21.6368   19.4905 F   0  0  0  0  0  0  0  0  0  0  0  0
  1  2  1  0  0  0  0
  1  5  2  0  0  0  0
  2  6  2  0  0  0  0
  3  8  2  0  0  0  0
  3 16  1  0  0  0  0
  4  9  1  0  0  0  0
  4 16  2  0  0  0  0
  5 18  1  0  0  0  0
  6 20  1  0  0  0  0
  7 10  2  0  0  0  0
  7 19  1  0  0  0  0
  8 23  1  0  0  0  0
  9 23  2  0  0  0  0
 10 24  1  0  0  0  0
 11 12  2  0  0  0  0
 11 25  1  0  0  0  0
 12 26  1  0  0  0  0
 13 21  1  0  0  0  0
 13 24  2  0  0  0  0
 14 26  2  0  0  0  0
 14 27  1  0  0  0  0
 15 67  2  0  0  0  0
 15 68  1  0  0  0  0
 16 28  1  0  0  0  0
 17 28  1  0  0  0  0
 17 31  2  0  0  0  0
 17 32  1  0  0  0  0
 18 20  2  0  0  0  0
 18 37  1  0  0  0  0
 19 21  2  0  0  0  0
 19 38  1  0  0  0  0
 20 50  1  0  0  0  0
 21 39  1  0  0  0  0
 22 29  2  0  0  0  0
 22 30  1  0  0  0  0
 22 63  1  0  0  0  0
 23 87  1  0  0  0  0
 24 88  1  0  0  0  0
 25 27  2  0  0  0  0
 25 87  1  0  0  0  0
 26 89  1  0  0  0  0
 27 90  1  0  0  0  0
 28 69  2  0  0  0  0
 29 59  1  0  0  0  0
 29 67  1  0  0  0  0
 30 68  2  0  0  0  0
 30 71  1  0  0  0  0
 31 70  1  0  0  0  0
 31 74  1  0  0  0  0
 32 75  1  0  0  0  0
 32 82  2  0  0  0  0
 33 51  1  0  0  0  0
 33 76  1  0  0  0  0
 33 83  2  0  0  0  0
 34 64  1  0  0  0  0
 34 72  1  0  0  0  0
 34 84  2  0  0  0  0
 35 65  1  0  0  0  0
 35 77  1  0  0  0  0
 35 85  2  0  0  0  0
 36 73  1  0  0  0  0
 36 78  1  0  0  0  0
 36 86  2  0  0  0  0
 37 40  1  0  0  0  0
 38 51  1  0  0  0  0
 39 72  1  0  0  0  0
 40 42  1  0  0  0  0
 41 43  1  0  0  0  0
 41 44  1  0  0  0  0
 42 50  1  0  0  0  0
 43 52  1  0  0  0  0
 44 73  1  0  0  0  0
 45 48  1  0  0  0  0
 45 71  1  0  0  0  0
 46 49  1  0  0  0  0
 46 71  1  0  0  0  0
 47 52  1  0  0  0  0
 47 73  1  0  0  0  0
 48 79  1  0  0  0  0
 49 79  1  0  0  0  0
 50 76  1  0  0  0  0
 51 72  1  0  0  0  0
 52 70  1  0  0  0  0
 53 65  1  0  0  0  0
 54 66  1  0  0  0  0
 55 66  1  0  0  0  0
 56 66  1  0  0  0  0
 57 80  1  0  0  0  0
 58 81  1  0  0  0  0
 59 88  1  0  0  0  0
 60 61  1  0  0  0  0
 60 78  1  0  0  0  0
 61 79  1  0  0  0  0
 62 63  1  0  0  0  0
 62 80  1  0  0  0  0
 63 91  1  0  0  0  0
 64 66  1  0  0  0  0
 64 77  1  0  0  0  0
 65 81  1  0  0  0  0
 69 70  1  0  0  0  0
M  CHG  3  79   1  80   1  81   1
M  ISO  4  36 100  59 101  78 100  88 101
M  END
> <Batch ID>
0194

> <Smiles>
CNCC(F)c1c(N2CCN(CC[100NH:0][100C:0](=O)N3CCCC(n4nc(-c5ccc(Oc6ccc(F)cc6F)cc5)c(C(N)=O)c4N)C3)CC2)ncnc1[101CH2:1][101O:1]c1ccc2c(c1)CN(C(=O)C(NC(=O)C(C)NC)C(C)(C)C)C(C(=O)NC1CCCc3ccccc31)C2

> <Shape>
0.287

> <Color>
0.092

> <Negative vol penalty>
0.000

$$$$

  -OEChem-04052323343D

 84 93  0     1  0  0  0  0  0999 V2000
  -19.7782  -25.6741   26.0585 C   0  0  0  0  0  0  0  0  0  0  0  0
  -21.0952  -25.5481   25.6284 C   0  0  0  0  0  0  0  0  0  0  0  0
  -24.3559   -9.5390   22.3991 C   0  0  0  0  0  0  0  0  0  0  0  0
  -23.6356  -10.0698   20.1549 C   0  0  0  0  0  0  0  0  0  0  0  0
  -18.8117  -26.1935   25.1982 C   0  0  0  0  0  0  0  0  0  0  0  0
  -21.4463  -25.9405   24.3372 C   0  0  0  0  0  0  0  0  0  0  0  0
  -26.7414  -28.4566   22.5660 C   0  0  0  0  0  0  0  0  0  0  0  0
  -23.1881   -8.8030   22.5998 C   0  0  0  0  0  0  0  0  0  0  0  0
  -22.4678   -9.3338   20.3556 C   0  0  0  0  0  0  0  0  0  0  0  0
  -27.8824  -27.9197   21.9712 C   0  0  0  0  0  0  0  0  0  0  0  0
  -21.9973   -5.7473   21.7769 C   0  0  0  0  0  0  0  0  0  0  0  0
  -22.1157   -4.4958   22.3815 C   0  0  0  0  0  0  0  0  0  0  0  0
  -27.0542  -28.5773   19.8031 C   0  0  0  0  0  0  0  0  0  0  0  0
  -20.6830   -5.2305   24.1828 C   0  0  0  0  0  0  0  0  0  0  0  0
  -30.1343  -24.3224   18.6876 C   0  0  0  0  0  0  0  0  0  0  0  0
  -24.5796  -10.1725   21.1766 C   0  0  0  0  0  0  0  0  0  0  0  0
  -27.0117  -10.4618   20.4635 C   0  0  0  0  0  0  0  0  0  0  0  0
  -19.1531  -26.6014   23.8991 C   0  0  0  0  0  0  0  0  0  0  0  0
  -25.7415  -29.0490   21.7815 C   0  0  0  0  0  0  0  0  0  0  0  0
  -20.4833  -26.4646   23.4583 C   0  0  0  0  0  0  0  0  0  0  0  0
  -25.9027  -29.1232   20.3906 C   0  0  0  0  0  0  0  0  0  0  0  0
  -29.0108  -23.5454   18.8836 C   0  0  0  0  0  0  0  0  0  0  0  0
  -22.2441   -8.7004   21.5781 C   0  0  0  0  0  0  0  0  0  0  0  0
  -28.0376  -27.9775   20.5893 C   0  0  0  0  0  0  0  0  0  0  0  0
  -21.2218   -6.7404   22.3753 C   0  0  0  0  0  0  0  0  0  0  0  0
  -21.4585   -4.2374   23.5844 C   0  0  0  0  0  0  0  0  0  0  0  0
  -20.5647   -6.4820   23.5783 C   0  0  0  0  0  0  0  0  0  0  0  0
  -25.7854  -10.9334   20.9689 C   0  0  0  0  0  0  0  0  0  0  0  0
  -27.9427  -24.1809   19.4834 C   0  0  0  0  0  0  0  0  0  0  0  0
  -27.8293  -11.5654   20.4612 C   0  0  0  0  0  0  0  0  0  0  0  0
  -29.1120  -26.1253   19.6210 C   0  0  0  0  0  0  0  0  0  1  0  0
  -27.3790   -9.1439   20.0344 C   0  0  0  0  0  0  0  0  0  0  0  0
  -22.6685  -28.4477   21.2345 C   0  0  0  0  0  0  0  0  0  0  0  0
  -22.8183  -31.2360   19.5837 C   0  0  0  0  0  0  0  0  0  0  0  0
  -24.7288  -33.5033   17.8938 C   0  0  0  0  0  0  0  0  0  0  0  0
  -26.4617  -17.3786   20.2180 C   0  0  0  0  0  0  0  0  0  0  0  0
  -18.0645  -27.1130   22.9893 C   0  0  0  0  0  0  0  0  0  0  0  0
  -24.5291  -29.6473   22.4407 C   0  0  0  0  0  0  0  0  0  0  0  0
  -24.8678  -29.7667   19.5055 C   0  0  0  0  0  0  0  0  0  0  0  0
  -18.5931  -27.8542   21.7639 C   0  0  0  0  0  0  0  0  0  0  0  0
  -28.5369  -15.7104   22.7395 C   0  0  0  0  0  0  0  0  0  0  0  0
  -19.7254  -27.0675   21.1114 C   0  0  0  0  0  0  0  0  0  0  0  0
  -28.1541  -14.2448   22.5276 C   0  0  0  0  0  0  0  0  0  0  0  0
  -27.3448  -16.6268   22.4910 C   0  0  0  0  0  0  0  0  0  0  0  0
  -26.3368  -15.0150   20.9267 C   0  0  0  0  0  0  0  0  0  0  0  0
  -28.6074  -18.8475   20.5256 C   0  0  0  0  0  0  0  0  0  0  0  0
  -27.0447  -19.7147   19.3692 C   0  0  0  0  0  0  0  0  0  0  0  0
  -20.9081  -26.9023   22.0733 C   0  0  1  0  0  0  0  0  0  0  0  0
  -23.3351  -29.7681   21.4988 C   0  0  1  0  0  0  0  0  0  0  0  0
  -27.5015  -14.0324   21.1493 C   0  0  2  0  0  0  0  0  0  0  0  0
  -28.5742  -19.8045   19.3261 C   0  0  0  0  0  0  0  0  0  0  0  0
  -26.6742  -23.4385   19.7459 C   0  0  0  0  0  0  0  0  0  0  0  0
  -24.5632  -35.6618   16.6245 C   0  0  0  0  0  0  0  0  0  0  0  0
  -21.6546  -29.7383   17.1935 C   0  0  0  0  0  0  0  0  0  0  0  0
  -22.3915  -31.6351   15.7349 C   0  0  0  0  0  0  0  0  0  0  0  0
  -20.7198  -32.0314   17.5436 C   0  0  0  0  0  0  0  0  0  0  0  0
  -26.5147  -34.8953   19.7994 C   0  0  0  0  0  0  0  0  0  0  0  0
  -30.5051  -21.1296   20.1725 C   0  0  0  0  0  0  0  0  0  0  0  0
  -28.9791  -22.1054   18.4637 C   0  0  0  0  0  0  0  0  0  0  0  0
  -23.1372  -31.6189   18.1587 C   0  0  1  0  0  0  0  0  0  0  0  0
  -24.8080  -35.0168   17.9798 C   0  0  2  0  0  0  0  0  0  0  0  0
  -21.9946  -31.2420   17.1739 C   0  0  0  0  0  0  0  0  0  0  0  0
  -30.2198  -25.6205   19.0453 N   0  0  0  0  0  0  0  0  0  0  0  0
  -25.8166  -12.2352   21.2662 N   0  0  0  0  0  0  0  0  0  0  0  0
  -27.9589  -25.4744   19.8664 N   0  0  0  0  0  0  0  0  0  0  0  0
  -27.0726  -12.5909   20.9468 N   0  0  0  0  0  0  0  0  0  0  0  0
  -23.6972  -30.3318   20.1967 N   0  0  0  0  0  0  0  0  0  0  0  0
  -26.7753  -16.3950   21.1600 N   0  0  0  0  0  0  0  0  0  0  0  0
  -27.2298  -18.5188   20.1879 N   0  0  0  0  0  0  0  0  0  0  0  0
  -29.1146  -11.7489   20.0913 N   0  0  0  0  0  0  0  0  0  0  0  0
  -26.4173   -8.1267   20.1032 N   0  0  0  0  0  0  0  0  0  0  0  0
  -21.6780  -28.1258   22.1426 N   0  0  0  0  0  0  0  0  0  0  0  0
  -23.4619  -33.0410   18.1811 N   0  0  0  0  0  0  0  0  0  0  0  0
  -26.1525  -35.4384   18.4649 N   0  3  0  0  0  0  0  0  0  0  0  0
  -29.0902  -21.1443   19.6300 N   0  3  1  0  0  0  0  0  0  0  0  0
  -28.5308   -8.8728   19.6182 O   0  0  0  0  0  0  0  0  0  0  0  0
  -23.0254  -27.7716   20.2768 O   0  0  0  0  0  0  0  0  0  0  0  0
  -21.8299  -31.7267   20.1351 O   0  0  0  0  0  0  0  0  0  0  0  0
  -25.6933  -32.8016   17.5974 O   0  0  0  0  0  0  0  0  0  0  0  0
  -25.5414  -17.2312   19.4028 O   0  0  0  0  0  0  0  0  0  0  0  0
  -21.1047   -7.9820   21.7735 O   0  0  0  0  0  0  0  0  0  0  0  0
  -29.1641  -27.4470   19.9988 O   0  0  0  0  0  0  0  0  0  1  0  0
  -21.5710   -3.0351   24.1641 F   0  0  0  0  0  0  0  0  0  0  0  0
  -19.8173   -7.4317   24.1573 F   0  0  0  0  0  0  0  0  0  0  0  0
  1  2  1  0  0  0  0
  1  5  2  0  0  0  0
  2  6  2  0  0  0  0
  3  8  2  0  0  0  0
  3 16  1  0  0  0  0
  4  9  1  0  0  0  0
  4 16  2  0  0  0  0
  5 18  1  0  0  0  0
  6 20  1  0  0  0  0
  7 10  2  0  0  0  0
  7 19  1  0  0  0  0
  8 23  1  0  0  0  0
  9 23  2  0  0  0  0
 10 24  1  0  0  0  0
 11 12  2  0  0  0  0
 11 25  1  0  0  0  0
 12 26  1  0  0  0  0
 13 21  1  0  0  0  0
 13 24  2  0  0  0  0
 14 26  2  0  0  0  0
 14 27  1  0  0  0  0
 15 22  1  0  0  0  0
 15 63  2  0  0  0  0
 16 28  1  0  0  0  0
 17 28  1  0  0  0  0
 17 30  2  0  0  0  0
 17 32  1  0  0  0  0
 18 20  2  0  0  0  0
 18 37  1  0  0  0  0
 19 21  2  0  0  0  0
 19 38  1  0  0  0  0
 20 48  1  0  0  0  0
 21 39  1  0  0  0  0
 22 29  2  0  0  0  0
 22 59  1  0  0  0  0
 23 81  1  0  0  0  0
 24 82  1  0  0  0  0
 25 27  2  0  0  0  0
 25 81  1  0  0  0  0
 26 83  1  0  0  0  0
 27 84  1  0  0  0  0
 28 64  2  0  0  0  0
 29 52  1  0  0  0  0
 29 65  1  0  0  0  0
 30 66  1  0  0  0  0
 30 70  1  0  0  0  0
 31 63  1  0  0  0  0
 31 65  2  0  0  0  0
 31 82  1  0  0  0  0
 32 71  1  0  0  0  0
 32 76  2  0  0  0  0
 33 49  1  0  0  0  0
 33 72  1  0  0  0  0
 33 77  2  0  0  0  0
 34 60  1  0  0  0  0
 34 67  1  0  0  0  0
 34 78  2  0  0  0  0
 35 61  1  0  0  0  0
 35 73  1  0  0  0  0
 35 79  2  0  0  0  0
 36 68  1  0  0  0  0
 36 69  1  0  0  0  0
 36 80  2  0  0  0  0
 37 40  1  0  0  0  0
 38 49  1  0  0  0  0
 39 67  1  0  0  0  0
 40 42  1  0  0  0  0
 41 43  1  0  0  0  0
 41 44  1  0  0  0  0
 42 48  1  0  0  0  0
 43 50  1  0  0  0  0
 44 68  1  0  0  0  0
 45 50  1  0  0  0  0
 45 68  1  0  0  0  0
 46 51  1  0  0  0  0
 46 69  1  0  0  0  0
 47 51  1  0  0  0  0
 47 69  1  0  0  0  0
 48 72  1  0  0  0  0
 49 67  1  0  0  0  0
 50 66  1  0  0  0  0
 51 75  1  0  0  0  0
 53 61  1  0  0  0  0
 54 62  1  0  0  0  0
 55 62  1  0  0  0  0
 56 62  1  0  0  0  0
 57 74  1  0  0  0  0
 58 75  1  0  0  0  0
 59 75  1  0  0  0  0
 60 62  1  0  0  0  0
 60 73  1  0  0  0  0
 61 74  1  0  0  0  0
 64 66  1  0  0  0  0
M  CHG  2  74   1  75   1
M  ISO  4  31 101  36 100  69 100  82 101
M  END
> <Batch ID>
0194

> <Smiles>
CNC(C)C(=O)NC(C(=O)N1Cc2cc([101O:1][101c:1]3ncc(CN(C)C4C[100N:0]([100C:0](=O)N5CCCC(n6nc(-c7ccc(Oc8ccc(F)cc8F)cc7)c(C(N)=O)c6N)C5)C4)c(C)n3)ccc2CC1C(=O)NC1CCCc2ccccc21)C(C)(C)C

> <Shape>
0.291

> <Color>
0.094

> <Negative vol penalty>
0.000

$$$$

  -OEChem-04052323342D

  0  0  0     0  0  0  0  0  0999 V2000
M  END
$$$$

  -OEChem-04052323343D

 86 95  0     1  0  0  0  0  0999 V2000
  -16.0791  -29.2274   20.2070 C   0  0  0  0  0  0  0  0  0  0  0  0
  -17.1166  -28.3222   20.0077 C   0  0  0  0  0  0  0  0  0  0  0  0
  -22.9964  -10.0183   19.9198 C   0  0  0  0  0  0  0  0  0  0  0  0
  -24.0364   -9.7749   22.0869 C   0  0  0  0  0  0  0  0  0  0  0  0
  -16.3539  -30.5909   20.3029 C   0  0  0  0  0  0  0  0  0  0  0  0
  -18.4295  -28.7802   19.9031 C   0  0  0  0  0  0  0  0  0  0  0  0
  -23.4859  -25.9452   21.8780 C   0  0  0  0  0  0  0  0  0  0  0  0
  -22.2932   -8.8311   20.1240 C   0  0  0  0  0  0  0  0  0  0  0  0
  -23.3332   -8.5877   22.2911 C   0  0  0  0  0  0  0  0  0  0  0  0
  -24.4370  -25.1613   21.2263 C   0  0  0  0  0  0  0  0  0  0  0  0
  -20.2079   -7.6692   23.1909 C   0  0  0  0  0  0  0  0  0  0  0  0
  -19.6031   -7.4816   24.4337 C   0  0  0  0  0  0  0  0  0  0  0  0
  -25.8467  -27.1012   20.9635 C   0  0  0  0  0  0  0  0  0  0  0  0
  -20.9327   -5.4945   24.7808 C   0  0  0  0  0  0  0  0  0  0  0  0
  -23.8681  -10.4901   20.9013 C   0  0  0  0  0  0  0  0  0  0  0  0
  -24.1843  -13.0180   21.0344 C   0  0  0  0  0  0  0  0  0  0  0  0
  -17.6719  -31.0650   20.2090 C   0  0  0  0  0  0  0  0  0  0  0  0
  -23.7036  -27.3174   22.0680 C   0  0  0  0  0  0  0  0  0  0  0  0
  -18.7221  -30.1515   19.9964 C   0  0  0  0  0  0  0  0  0  0  0  0
  -24.8979  -27.8997   21.6202 C   0  0  0  0  0  0  0  0  0  0  0  0
  -22.4615   -8.1158   21.3096 C   0  0  0  0  0  0  0  0  0  0  0  0
  -25.6164  -25.7399   20.7664 C   0  0  0  0  0  0  0  0  0  0  0  0
  -21.1751   -6.7694   22.7430 C   0  0  0  0  0  0  0  0  0  0  0  0
  -19.9655   -6.3942   25.2287 C   0  0  0  0  0  0  0  0  0  0  0  0
  -21.5376   -5.6821   23.5380 C   0  0  0  0  0  0  0  0  0  0  0  0
  -24.5953  -11.7161   20.6908 C   0  0  0  0  0  0  0  0  0  0  0  0
  -25.2203  -13.8234   20.6286 C   0  0  0  0  0  0  0  0  0  0  0  0
  -22.9744  -13.4597   21.6642 C   0  0  0  0  0  0  0  0  0  0  0  0
  -22.2377  -29.9735   21.1195 C   0  0  0  0  0  0  0  0  0  0  0  0
  -24.3937  -31.3988   23.0798 C   0  0  0  0  0  0  0  0  0  0  0  0
  -27.4199  -31.2542   24.6508 C   0  0  0  0  0  0  0  0  0  0  0  0
  -30.8638  -14.5375   20.6425 C   0  0  0  0  0  0  0  0  0  0  0  0
  -17.9147  -32.5522   20.2715 C   0  0  0  0  0  0  0  0  0  0  0  0
  -22.6796  -28.1438   22.7966 C   0  0  0  0  0  0  0  0  0  0  0  0
  -25.1887  -29.3643   21.8172 C   0  0  0  0  0  0  0  0  0  0  0  0
  -19.3741  -32.9211   20.5248 C   0  0  0  0  0  0  0  0  0  0  0  0
  -29.2596  -12.8336   17.7678 C   0  0  0  0  0  0  0  0  0  0  0  0
  -20.2949  -32.1086   19.6198 C   0  0  0  0  0  0  0  0  0  0  0  0
  -27.8992  -12.4356   18.3374 C   0  0  0  0  0  0  0  0  0  0  0  0
  -31.1774  -17.6486   22.1457 C   0  0  0  0  0  0  0  0  0  0  0  0
  -28.7495  -17.1766   21.6311 C   0  0  0  0  0  0  0  0  0  0  0  0
  -30.3252  -12.9225   18.8557 C   0  0  0  0  0  0  0  0  0  0  0  0
  -31.3694  -16.1635   22.4414 C   0  0  0  0  0  0  0  0  0  0  0  0
  -28.9969  -15.6915   21.9121 C   0  0  0  0  0  0  0  0  0  0  0  0
  -28.5976  -13.4267   20.5537 C   0  0  0  0  0  0  0  0  0  0  0  0
  -28.2846  -21.6207   22.1523 C   0  0  0  0  0  0  0  0  0  0  0  0
  -29.4553  -19.5965   20.4879 C   0  0  0  0  0  0  0  0  0  0  0  0
  -20.1621  -30.6073   19.9027 C   0  0  1  0  0  0  0  0  0  0  0  0
  -22.7780  -29.6328   22.4796 C   0  0  1  0  0  0  0  0  0  0  0  0
  -27.4923  -13.3719   19.4882 C   0  0  2  0  0  0  0  0  0  0  0  0
  -29.7285  -18.0543   22.4079 C   0  0  0  0  0  0  0  0  0  0  0  0
  -29.3752  -21.0682   20.0614 C   0  0  1  0  0  0  0  0  0  0  0  0
  -28.3424  -20.1684   22.6453 C   0  0  2  0  0  0  0  0  0  0  0  0
  -29.3272  -21.1122   18.5275 C   0  0  0  0  0  0  0  0  0  0  0  0
  -28.4730  -20.1397   24.1671 C   0  0  0  0  0  0  0  0  0  0  0  0
  -28.9245  -32.5857   26.1545 C   0  0  0  0  0  0  0  0  0  0  0  0
  -25.1803  -33.1683   20.7219 C   0  0  0  0  0  0  0  0  0  0  0  0
  -27.2641  -33.7814   21.9669 C   0  0  0  0  0  0  0  0  0  0  0  0
  -25.0307  -34.3594   22.9159 C   0  0  0  0  0  0  0  0  0  0  0  0
  -27.3296  -29.1858   26.7656 C   0  0  0  0  0  0  0  0  0  0  0  0
  -28.0535  -23.1163   20.2959 C   0  0  0  0  0  0  0  0  0  0  0  0
  -26.6276  -23.6035   20.5029 C   0  0  0  0  0  0  0  0  0  1  0  0
  -25.7901  -31.9479   22.9139 C   0  0  1  0  0  0  0  0  0  0  0  0
  -27.8243  -31.5379   26.0862 C   0  0  2  0  0  0  0  0  0  0  0  0
  -25.8103  -33.2870   22.1241 C   0  0  0  0  0  0  0  0  0  0  0  0
  -25.7984  -11.6913   20.1111 N   0  0  0  0  0  0  0  0  0  0  0  0
  -26.1523  -12.9875   20.0874 N   0  0  0  0  0  0  0  0  0  0  0  0
  -24.1538  -30.1316   22.5297 N   0  0  0  0  0  0  0  0  0  0  0  0
  -29.8967  -13.7799   19.9610 N   0  0  0  0  0  0  0  0  0  0  0  0
  -30.4100  -15.3480   21.6941 N   0  0  0  0  0  0  0  0  0  0  0  0
  -28.2007  -21.7110   20.6857 N   0  0  2  0  0  0  0  0  0  0  0  0
  -25.4157  -15.1579   20.6855 N   0  0  0  0  0  0  0  0  0  0  0  0
  -22.0153  -12.5001   22.0158 N   0  0  0  0  0  0  0  0  0  0  0  0
  -20.8847  -30.2537   21.1057 N   0  0  0  0  0  0  0  0  0  0  0  0
  -26.3558  -32.0370   24.2557 N   0  0  0  0  0  0  0  0  0  0  0  0
  -29.5369  -19.4921   21.9941 N   0  3  2  0  0  0  0  0  0  0  0  0
  -28.3190  -30.2937   26.7406 N   0  3  0  0  0  0  0  0  0  0  0  0
  -22.7433  -14.6712   21.8930 O   0  0  0  0  0  0  0  0  0  0  0  0
  -22.9928  -29.9831   20.1544 O   0  0  0  0  0  0  0  0  0  0  0  0
  -23.5489  -32.0663   23.6818 O   0  0  0  0  0  0  0  0  0  0  0  0
  -27.9933  -30.4241   23.9489 O   0  0  0  0  0  0  0  0  0  0  0  0
  -32.0597  -14.4930   20.3279 O   0  0  0  0  0  0  0  0  0  0  0  0
  -21.7753   -6.9575   21.5093 O   0  0  0  0  0  0  0  0  0  0  0  0
  -26.5528  -24.9718   20.1248 O   0  0  0  0  0  0  0  0  0  1  0  0
  -19.3857   -6.2150   26.4228 F   0  0  0  0  0  0  0  0  0  0  0  0
  -22.4670   -4.8150   23.1136 F   0  0  0  0  0  0  0  0  0  0  0  0
  1  2  1  0  0  0  0
  1  5  2  0  0  0  0
  2  6  2  0  0  0  0
  3  8  2  0  0  0  0
  3 15  1  0  0  0  0
  4  9  1  0  0  0  0
  4 15  2  0  0  0  0
  5 17  1  0  0  0  0
  6 19  1  0  0  0  0
  7 10  2  0  0  0  0
  7 18  1  0  0  0  0
  8 21  1  0  0  0  0
  9 21  2  0  0  0  0
 10 22  1  0  0  0  0
 11 12  2  0  0  0  0
 11 23  1  0  0  0  0
 12 24  1  0  0  0  0
 13 20  1  0  0  0  0
 13 22  2  0  0  0  0
 14 24  2  0  0  0  0
 14 25  1  0  0  0  0
 15 26  1  0  0  0  0
 16 26  1  0  0  0  0
 16 27  2  0  0  0  0
 16 28  1  0  0  0  0
 17 19  2  0  0  0  0
 17 33  1  0  0  0  0
 18 20  2  0  0  0  0
 18 34  1  0  0  0  0
 19 48  1  0  0  0  0
 20 35  1  0  0  0  0
 21 83  1  0  0  0  0
 22 84  1  0  0  0  0
 23 25  2  0  0  0  0
 23 83  1  0  0  0  0
 24 85  1  0  0  0  0
 25 86  1  0  0  0  0
 26 66  2  0  0  0  0
 27 67  1  0  0  0  0
 27 72  1  0  0  0  0
 28 73  1  0  0  0  0
 28 78  2  0  0  0  0
 29 49  1  0  0  0  0
 29 74  1  0  0  0  0
 29 79  2  0  0  0  0
 30 63  1  0  0  0  0
 30 68  1  0  0  0  0
 30 80  2  0  0  0  0
 31 64  1  0  0  0  0
 31 75  1  0  0  0  0
 31 81  2  0  0  0  0
 32 69  1  0  0  0  0
 32 70  1  0  0  0  0
 32 82  2  0  0  0  0
 33 36  1  0  0  0  0
 34 49  1  0  0  0  0
 35 68  1  0  0  0  0
 36 38  1  0  0  0  0
 37 39  1  0  0  0  0
 37 42  1  0  0  0  0
 38 48  1  0  0  0  0
 39 50  1  0  0  0  0
 40 43  1  0  0  0  0
 40 51  1  0  0  0  0
 41 44  1  0  0  0  0
 41 51  1  0  0  0  0
 42 69  1  0  0  0  0
 43 70  1  0  0  0  0
 44 70  1  0  0  0  0
 45 50  1  0  0  0  0
 45 69  1  0  0  0  0
 46 53  1  0  0  0  0
 46 71  1  0  0  0  0
 47 52  1  0  0  0  0
 47 76  1  0  0  0  0
 48 74  1  0  0  0  0
 49 68  1  0  0  0  0
 50 67  1  0  0  0  0
 51 76  1  0  0  0  0
 52 54  1  0  0  0  0
 52 71  1  0  0  0  0
 53 55  1  0  0  0  0
 53 76  1  0  0  0  0
 56 64  1  0  0  0  0
 57 65  1  0  0  0  0
 58 65  1  0  0  0  0
 59 65  1  0  0  0  0
 60 77  1  0  0  0  0
 61 62  1  0  0  0  0
 61 71  1  0  0  0  0
 62 84  1  0  0  0  0
 63 65  1  0  0  0  0
 63 75  1  0  0  0  0
 64 77  1  0  0  0  0
 66 67  1  0  0  0  0
M  CHG  2  76   1  77   1
M  ISO  4  32 100  62 101  70 100  84 101
M  END
> <Batch ID>
0194

> <Smiles>
CNC(C)C(=O)NC(C(=O)N1Cc2cc([101O:1][101CH2:1]CN3CC(C)N(C4CC[100N:0]([100C:0](=O)N5CCCC(n6nc(-c7ccc(Oc8ccc(F)cc8F)cc7)c(C(N)=O)c6N)C5)CC4)CC3C)ccc2CC1C(=O)NC1CCCc2ccccc21)C(C)(C)C

> <Shape>
0.352

> <Color>
0.196

> <Negative vol penalty>
0.000

$$$$

  -OEChem-04052323343D

 82 90  0     1  0  0  0  0  0999 V2000
  -31.6146  -32.6884   23.6195 C   0  0  0  0  0  0  0  0  0  0  0  0
  -31.3082  -31.4625   23.0375 C   0  0  0  0  0  0  0  0  0  0  0  0
  -22.9158  -10.1467   19.9627 C   0  0  0  0  0  0  0  0  0  0  0  0
  -23.8021   -9.9380   22.2005 C   0  0  0  0  0  0  0  0  0  0  0  0
  -30.7515  -33.2466   24.5615 C   0  0  0  0  0  0  0  0  0  0  0  0
  -30.1390  -30.7936   23.3981 C   0  0  0  0  0  0  0  0  0  0  0  0
  -26.6042  -27.3450   19.7762 C   0  0  0  0  0  0  0  0  0  0  0  0
  -22.1010   -9.0360   20.1818 C   0  0  0  0  0  0  0  0  0  0  0  0
  -22.9872   -8.8273   22.4197 C   0  0  0  0  0  0  0  0  0  0  0  0
  -26.5159  -25.9662   19.5891 C   0  0  0  0  0  0  0  0  0  0  0  0
  -19.7465   -8.2261   23.1659 C   0  0  0  0  0  0  0  0  0  0  0  0
  -19.0560   -8.1595   24.3759 C   0  0  0  0  0  0  0  0  0  0  0  0
  -24.6838  -25.8770   21.1558 C   0  0  0  0  0  0  0  0  0  0  0  0
  -20.1847   -6.0902   24.9062 C   0  0  0  0  0  0  0  0  0  0  0  0
  -23.7664  -10.5977   20.9720 C   0  0  0  0  0  0  0  0  0  0  0  0
  -24.2936  -13.0935   20.9969 C   0  0  0  0  0  0  0  0  0  0  0  0
  -29.5664  -32.5889   24.9267 C   0  0  0  0  0  0  0  0  0  0  0  0
  -25.7386  -27.9996   20.6642 C   0  0  0  0  0  0  0  0  0  0  0  0
  -29.2599  -31.3429   24.3469 C   0  0  0  0  0  0  0  0  0  0  0  0
  -24.7615  -27.2645   21.3504 C   0  0  0  0  0  0  0  0  0  0  0  0
  -22.1367   -8.3763   21.4103 C   0  0  0  0  0  0  0  0  0  0  0  0
  -25.5575  -25.2316   20.2811 C   0  0  0  0  0  0  0  0  0  0  0  0
  -20.6561   -7.2247   22.8259 C   0  0  0  0  0  0  0  0  0  0  0  0
  -19.2750   -7.0916   25.2461 C   0  0  0  0  0  0  0  0  0  0  0  0
  -20.8752   -6.1568   23.6960 C   0  0  0  0  0  0  0  0  0  0  0  0
  -24.6088  -11.7446   20.7461 C   0  0  0  0  0  0  0  0  0  0  0  0
  -25.4178  -13.7852   20.6171 C   0  0  0  0  0  0  0  0  0  0  0  0
  -23.0921  -13.6697   21.5260 C   0  0  0  0  0  0  0  0  0  0  0  0
  -26.1170  -29.6863   23.3317 C   0  0  0  0  0  0  0  0  0  0  0  0
  -22.9281  -30.1841   23.0067 C   0  0  0  0  0  0  0  0  0  0  0  0
  -19.9443  -29.1201   21.7372 C   0  0  0  0  0  0  0  0  0  0  0  0
  -30.9654  -14.3872   20.5345 C   0  0  0  0  0  0  0  0  0  0  0  0
  -28.6882  -33.2091   25.9844 C   0  0  0  0  0  0  0  0  0  0  0  0
  -25.8292  -29.4913   20.8347 C   0  0  0  0  0  0  0  0  0  0  0  0
  -23.7951  -27.9227   22.2999 C   0  0  0  0  0  0  0  0  0  0  0  0
  -27.2830  -32.6148   26.0347 C   0  0  0  0  0  0  0  0  0  0  0  0
  -29.5155  -12.2645   18.0710 C   0  0  0  0  0  0  0  0  0  0  0  0
  -27.3460  -31.0912   25.9959 C   0  0  0  0  0  0  0  0  0  0  0  0
  -28.0865  -12.0465   18.5713 C   0  0  0  0  0  0  0  0  0  0  0  0
  -29.9959  -20.4779   20.7815 C   0  0  0  0  0  0  0  0  0  0  0  0
  -30.5131  -12.3335   19.2252 C   0  0  0  0  0  0  0  0  0  0  0  0
  -29.0009  -21.6253   20.6154 C   0  0  0  0  0  0  0  0  0  0  0  0
  -28.7543  -13.1021   20.7709 C   0  0  0  0  0  0  0  0  0  0  0  0
  -27.9888  -30.5986   24.6937 C   0  0  1  0  0  0  0  0  0  0  0  0
  -25.2340  -29.9794   22.1519 C   0  0  1  0  0  0  0  0  0  0  0  0
  -27.7048  -13.0816   19.6465 C   0  0  2  0  0  0  0  0  0  0  0  0
  -29.2248  -19.2472   20.3332 C   0  0  2  0  0  0  0  0  0  0  0  0
  -27.7612  -19.6320   20.5157 C   0  0  2  0  0  0  0  0  0  0  0  0
  -26.8199  -18.7352   19.7195 C   0  0  0  0  0  0  0  0  0  0  0  0
  -17.5073  -29.7149   21.6712 C   0  0  0  0  0  0  0  0  0  0  0  0
  -22.6047  -29.1658   25.8647 C   0  0  0  0  0  0  0  0  0  0  0  0
  -20.1584  -28.8832   25.4130 C   0  0  0  0  0  0  0  0  0  0  0  0
  -21.1923  -31.1505   25.2983 C   0  0  0  0  0  0  0  0  0  0  0  0
  -19.9744  -29.4041   18.7915 C   0  0  0  0  0  0  0  0  0  0  0  0
  -26.5998  -21.7857   20.3424 C   0  0  0  0  0  0  0  0  0  0  0  0
  -31.2656  -16.4355   21.9032 C   0  0  0  0  0  0  0  0  0  0  0  0
  -31.0185  -17.6602   21.0422 C   0  0  0  0  0  0  0  0  0  0  0  0
  -26.6742  -23.1942   19.7732 C   0  0  0  0  0  0  0  0  0  1  0  0
  -21.6818  -29.4711   23.4728 C   0  0  1  0  0  0  0  0  0  0  0  0
  -18.8537  -29.8539   20.9779 C   0  0  2  0  0  0  0  0  0  0  0  0
  -21.4286  -29.6547   24.9958 C   0  0  0  0  0  0  0  0  0  0  0  0
  -25.8370  -11.5866   20.2455 N   0  0  0  0  0  0  0  0  0  0  0  0
  -26.3034  -12.8452   20.1786 N   0  0  0  0  0  0  0  0  0  0  0  0
  -23.9277  -29.3825   22.4375 N   0  0  0  0  0  0  0  0  0  0  0  0
  -30.0939  -13.3349   20.2088 N   0  0  0  0  0  0  0  0  0  0  0  0
  -27.7974  -21.0204   20.0258 N   0  0  1  0  0  0  0  0  0  0  0  0
  -25.7252  -15.0996   20.6187 N   0  0  0  0  0  0  0  0  0  0  0  0
  -22.0340  -12.8151   21.8645 N   0  0  0  0  0  0  0  0  0  0  0  0
  -27.0421  -30.6766   23.6018 N   0  0  0  0  0  0  0  0  0  0  0  0
  -20.5959  -29.9504   22.6245 N   0  0  0  0  0  0  0  0  0  0  0  0
  -30.4877  -15.2960   21.4708 N   0  0  0  0  0  0  0  0  0  0  0  0
  -29.5883  -18.0700   21.1463 N   0  3  0  0  0  0  0  0  0  0  0  0
  -18.7290  -29.3101   19.5959 N   0  3  0  0  0  0  0  0  0  0  0  0
  -22.9545  -14.9072   21.6783 O   0  0  0  0  0  0  0  0  0  0  0  0
  -25.9689  -28.6399   23.9521 O   0  0  0  0  0  0  0  0  0  0  0  0
  -23.0088  -31.4082   23.1361 O   0  0  0  0  0  0  0  0  0  0  0  0
  -20.1909  -27.9287   21.5635 O   0  0  0  0  0  0  0  0  0  0  0  0
  -32.0841  -14.5110   20.0244 O   0  0  0  0  0  0  0  0  0  0  0  0
  -21.3415   -7.2926   21.6245 O   0  0  0  0  0  0  0  0  0  0  0  0
  -25.4697  -23.8856   20.1008 O   0  0  0  0  0  0  0  0  0  1  0  0
  -18.6130   -7.0286   26.4088 F   0  0  0  0  0  0  0  0  0  0  0  0
  -21.7487   -5.1924   23.3754 F   0  0  0  0  0  0  0  0  0  0  0  0
  1  2  1  0  0  0  0
  1  5  2  0  0  0  0
  2  6  2  0  0  0  0
  3  8  2  0  0  0  0
  3 15  1  0  0  0  0
  4  9  1  0  0  0  0
  4 15  2  0  0  0  0
  5 17  1  0  0  0  0
  6 19  1  0  0  0  0
  7 10  2  0  0  0  0
  7 18  1  0  0  0  0
  8 21  1  0  0  0  0
  9 21  2  0  0  0  0
 10 22  1  0  0  0  0
 11 12  2  0  0  0  0
 11 23  1  0  0  0  0
 12 24  1  0  0  0  0
 13 20  1  0  0  0  0
 13 22  2  0  0  0  0
 14 24  2  0  0  0  0
 14 25  1  0  0  0  0
 15 26  1  0  0  0  0
 16 26  1  0  0  0  0
 16 27  2  0  0  0  0
 16 28  1  0  0  0  0
 17 19  2  0  0  0  0
 17 33  1  0  0  0  0
 18 20  2  0  0  0  0
 18 34  1  0  0  0  0
 19 44  1  0  0  0  0
 20 35  1  0  0  0  0
 21 79  1  0  0  0  0
 22 80  1  0  0  0  0
 23 25  2  0  0  0  0
 23 79  1  0  0  0  0
 24 81  1  0  0  0  0
 25 82  1  0  0  0  0
 26 62  2  0  0  0  0
 27 63  1  0  0  0  0
 27 67  1  0  0  0  0
 28 68  1  0  0  0  0
 28 74  2  0  0  0  0
 29 45  1  0  0  0  0
 29 69  1  0  0  0  0
 29 75  2  0  0  0  0
 30 59  1  0  0  0  0
 30 64  1  0  0  0  0
 30 76  2  0  0  0  0
 31 60  1  0  0  0  0
 31 70  1  0  0  0  0
 31 77  2  0  0  0  0
 32 65  1  0  0  0  0
 32 71  1  0  0  0  0
 32 78  2  0  0  0  0
 33 36  1  0  0  0  0
 34 45  1  0  0  0  0
 35 64  1  0  0  0  0
 36 38  1  0  0  0  0
 37 39  1  0  0  0  0
 37 41  1  0  0  0  0
 38 44  1  0  0  0  0
 39 46  1  0  0  0  0
 40 42  1  0  0  0  0
 40 47  1  0  0  0  0
 41 65  1  0  0  0  0
 42 66  1  0  0  0  0
 43 46  1  0  0  0  0
 43 65  1  0  0  0  0
 44 69  1  0  0  0  0
 45 64  1  0  0  0  0
 46 63  1  0  0  0  0
 47 48  1  0  0  0  0
 47 72  1  0  0  0  0
 48 49  1  0  0  0  0
 48 66  1  0  0  0  0
 50 60  1  0  0  0  0
 51 61  1  0  0  0  0
 52 61  1  0  0  0  0
 53 61  1  0  0  0  0
 54 73  1  0  0  0  0
 55 58  1  0  0  0  0
 55 66  1  0  0  0  0
 56 57  1  0  0  0  0
 56 71  1  0  0  0  0
 57 72  1  0  0  0  0
 58 80  1  0  0  0  0
 59 61  1  0  0  0  0
 59 70  1  0  0  0  0
 60 73  1  0  0  0  0
 62 63  1  0  0  0  0
M  CHG  2  72   1  73   1
M  ISO  4  32 100  58 101  71 100  80 101
M  END
> <Batch ID>
0194

> <Smiles>
CNC(C)C(=O)NC(C(=O)N1Cc2cc([101O:1][101CH2:1]CN3CCC(NCC[100NH:0][100C:0](=O)N4CCCC(n5nc(-c6ccc(Oc7ccc(F)cc7F)cc6)c(C(N)=O)c5N)C4)C3C)ccc2CC1C(=O)NC1CCCc2ccccc21)C(C)(C)C

> <Shape>
0.348

> <Color>
0.189

> <Negative vol penalty>
0.000

$$$$

  -OEChem-04052323343D

 85 94  0     1  0  0  0  0  0999 V2000
  -25.8283  -37.1547   17.2846 C   0  0  0  0  0  0  0  0  0  0  0  0
  -26.1115  -35.8311   16.9632 C   0  0  0  0  0  0  0  0  0  0  0  0
  -24.4789   -9.4375   22.2825 C   0  0  0  0  0  0  0  0  0  0  0  0
  -23.7624   -9.6761   19.9875 C   0  0  0  0  0  0  0  0  0  0  0  0
  -25.8889  -37.5767   18.6121 C   0  0  0  0  0  0  0  0  0  0  0  0
  -26.4564  -34.9289   17.9689 C   0  0  0  0  0  0  0  0  0  0  0  0
  -25.0658  -28.9694   18.2045 C   0  0  0  0  0  0  0  0  0  0  0  0
  -23.3590   -8.6505   22.5503 C   0  0  0  0  0  0  0  0  0  0  0  0
  -22.6424   -8.8890   20.2554 C   0  0  0  0  0  0  0  0  0  0  0  0
  -25.7908  -27.8235   17.8804 C   0  0  0  0  0  0  0  0  0  0  0  0
  -22.3853   -5.4513   22.0501 C   0  0  0  0  0  0  0  0  0  0  0  0
  -22.5757   -4.2824   22.7869 C   0  0  0  0  0  0  0  0  0  0  0  0
  -26.4285  -27.5800   20.1941 C   0  0  0  0  0  0  0  0  0  0  0  0
  -21.0683   -5.1074   24.4852 C   0  0  0  0  0  0  0  0  0  0  0  0
  -29.7029  -24.2281   18.3412 C   0  0  0  0  0  0  0  0  0  0  0  0
  -24.6806   -9.9504   21.0011 C   0  0  0  0  0  0  0  0  0  0  0  0
  -27.1000  -10.3245   20.2837 C   0  0  0  0  0  0  0  0  0  0  0  0
  -26.2254  -36.6770   19.6358 C   0  0  0  0  0  0  0  0  0  0  0  0
  -25.0255  -29.4361   19.5262 C   0  0  0  0  0  0  0  0  0  0  0  0
  -26.5229  -35.3396   19.3112 C   0  0  0  0  0  0  0  0  0  0  0  0
  -25.7002  -28.7306   20.5328 C   0  0  0  0  0  0  0  0  0  0  0  0
  -29.9820  -22.9186   18.0351 C   0  0  0  0  0  0  0  0  0  0  0  0
  -22.4407   -8.3762   21.5368 C   0  0  0  0  0  0  0  0  0  0  0  0
  -26.4747  -27.1302   18.8748 C   0  0  0  0  0  0  0  0  0  0  0  0
  -21.5365   -6.4484   22.5308 C   0  0  0  0  0  0  0  0  0  0  0  0
  -21.9172   -4.1104   24.0044 C   0  0  0  0  0  0  0  0  0  0  0  0
  -20.8780   -6.2764   23.7484 C   0  0  0  0  0  0  0  0  0  0  0  0
  -25.8371  -10.7640   20.7239 C   0  0  0  0  0  0  0  0  0  0  0  0
  -28.9377  -22.1873   18.6320 C   0  0  0  0  0  0  0  0  0  0  0  0
  -27.8432  -11.4740   20.1703 C   0  0  0  0  0  0  0  0  0  0  0  0
  -27.5601   -8.9960   20.0024 C   0  0  0  0  0  0  0  0  0  0  0  0
  -25.9497  -32.1001   20.9934 C   0  0  0  0  0  0  0  0  0  0  0  0
  -24.4728  -30.7447   23.5436 C   0  0  0  0  0  0  0  0  0  0  0  0
  -23.3853  -27.9025   25.0884 C   0  0  0  0  0  0  0  0  0  0  0  0
  -28.5557  -16.5756   18.6508 C   0  0  0  0  0  0  0  0  0  0  0  0
  -26.3241  -37.1907   21.0504 C   0  0  0  0  0  0  0  0  0  0  0  0
  -24.2170  -30.6587   19.8639 C   0  0  0  0  0  0  0  0  0  0  0  0
  -25.6720  -29.1787   21.9704 C   0  0  0  0  0  0  0  0  0  0  0  0
  -26.3322  -36.0836   22.1013 C   0  0  0  0  0  0  0  0  0  0  0  0
  -26.8959  -16.1866   21.7221 C   0  0  0  0  0  0  0  0  0  0  0  0
  -27.2994  -34.9742   21.7006 C   0  0  0  0  0  0  0  0  0  0  0  0
  -26.5687  -14.6938   21.7036 C   0  0  0  0  0  0  0  0  0  0  0  0
  -26.6950  -16.8343   20.3511 C   0  0  0  0  0  0  0  0  0  0  0  0
  -29.9641  -19.9794   19.0787 C   0  0  0  0  0  0  0  0  0  0  0  0
  -27.5335  -20.1746   18.5307 C   0  0  0  0  0  0  0  0  0  0  0  0
  -29.9732  -18.5849   18.4580 C   0  0  0  0  0  0  0  0  0  0  0  0
  -27.5887  -18.7835   17.9091 C   0  0  0  0  0  0  0  0  0  0  0  0
  -27.0939  -14.6630   19.2356 C   0  0  0  0  0  0  0  0  0  0  0  0
  -26.8768  -34.3253   20.3770 C   0  0  1  0  0  0  0  0  0  0  0  0
  -24.6670  -31.3347   21.1554 C   0  0  1  0  0  0  0  0  0  0  0  0
  -27.3425  -13.9725   20.5857 C   0  0  2  0  0  0  0  0  0  0  0  0
  -22.2488  -27.1090   27.1803 C   0  0  0  0  0  0  0  0  0  0  0  0
  -27.0619  -31.1581   25.1043 C   0  0  0  0  0  0  0  0  0  0  0  0
  -26.2110  -29.5350   26.8101 C   0  0  0  0  0  0  0  0  0  0  0  0
  -24.9769  -31.6619   26.3902 C   0  0  0  0  0  0  0  0  0  0  0  0
  -32.7383  -22.8472   15.3947 C   0  0  0  0  0  0  0  0  0  0  0  0
  -21.1193  -26.7629   23.5636 C   0  0  0  0  0  0  0  0  0  0  0  0
  -31.1273  -22.4172   17.2544 C   0  0  0  0  0  0  0  0  0  0  0  0
  -27.8646  -25.3443   19.6273 C   0  0  0  0  0  0  0  0  0  1  0  0
  -24.8986  -29.8209   24.6591 C   0  0  1  0  0  0  0  0  0  0  0  0
  -22.0586  -27.5540   25.7386 C   0  0  2  0  0  0  0  0  0  0  0  0
  -25.7894  -30.5363   25.7136 C   0  0  0  0  0  0  0  0  0  0  0  0
  -25.7778  -12.0893   20.8797 N   0  0  0  0  0  0  0  0  0  0  0  0
  -28.0606  -22.9674   19.2693 N   0  0  0  0  0  0  0  0  0  0  0  0
  -28.5532  -24.2026   19.0746 N   0  0  0  0  0  0  0  0  0  0  0  0
  -27.0128  -12.4924   20.5355 N   0  0  0  0  0  0  0  0  0  0  0  0
  -28.8671  -20.7913   18.5408 N   0  0  0  0  0  0  0  0  0  0  0  0
  -24.8727  -30.3832   22.2493 N   0  0  0  0  0  0  0  0  0  0  0  0
  -27.4182  -16.0890   19.3121 N   0  0  0  0  0  0  0  0  0  0  0  0
  -28.6531  -17.9675   18.4969 N   0  0  0  0  0  0  0  0  0  0  0  0
  -29.1195  -11.7028   19.7948 N   0  0  0  0  0  0  0  0  0  0  0  0
  -26.6664   -7.9297   20.1713 N   0  0  0  0  0  0  0  0  0  0  0  0
  -25.7759  -33.4107   20.5914 N   0  0  0  0  0  0  0  0  0  0  0  0
  -23.6731  -29.2461   25.2033 N   0  0  0  0  0  0  0  0  0  0  0  0
  -31.6230  -23.3751   16.2176 N   0  3  0  0  0  0  0  0  0  0  0  0
  -21.3890  -26.4522   24.9910 N   0  3  0  0  0  0  0  0  0  0  0  0
  -28.7339   -8.7599   19.6285 O   0  0  0  0  0  0  0  0  0  0  0  0
  -27.0180  -31.5434   21.2181 O   0  0  0  0  0  0  0  0  0  0  0  0
  -23.8037  -31.7462   23.8101 O   0  0  0  0  0  0  0  0  0  0  0  0
  -24.0972  -27.0658   24.5372 O   0  0  0  0  0  0  0  0  0  0  0  0
  -29.4339  -15.8148   18.2255 O   0  0  0  0  0  0  0  0  0  0  0  0
  -21.3479   -7.6080   21.7978 O   0  0  0  0  0  0  0  0  0  0  0  0
  -27.1883  -26.0046   18.5591 O   0  0  0  0  0  0  0  0  0  1  0  0
  -22.0989   -2.9871   24.7111 F   0  0  0  0  0  0  0  0  0  0  0  0
  -20.0604   -7.2302   24.2148 F   0  0  0  0  0  0  0  0  0  0  0  0
  1  2  1  0  0  0  0
  1  5  2  0  0  0  0
  2  6  2  0  0  0  0
  3  8  2  0  0  0  0
  3 16  1  0  0  0  0
  4  9  1  0  0  0  0
  4 16  2  0  0  0  0
  5 18  1  0  0  0  0
  6 20  1  0  0  0  0
  7 10  2  0  0  0  0
  7 19  1  0  0  0  0
  8 23  1  0  0  0  0
  9 23  2  0  0  0  0
 10 24  1  0  0  0  0
 11 12  2  0  0  0  0
 11 25  1  0  0  0  0
 12 26  1  0  0  0  0
 13 21  1  0  0  0  0
 13 24  2  0  0  0  0
 14 26  2  0  0  0  0
 14 27  1  0  0  0  0
 15 22  2  0  0  0  0
 15 65  1  0  0  0  0
 16 28  1  0  0  0  0
 17 28  1  0  0  0  0
 17 30  2  0  0  0  0
 17 31  1  0  0  0  0
 18 20  2  0  0  0  0
 18 36  1  0  0  0  0
 19 21  2  0  0  0  0
 19 37  1  0  0  0  0
 20 49  1  0  0  0  0
 21 38  1  0  0  0  0
 22 29  1  0  0  0  0
 22 58  1  0  0  0  0
 23 82  1  0  0  0  0
 24 83  1  0  0  0  0
 25 27  2  0  0  0  0
 25 82  1  0  0  0  0
 26 84  1  0  0  0  0
 27 85  1  0  0  0  0
 28 63  2  0  0  0  0
 29 64  2  0  0  0  0
 29 67  1  0  0  0  0
 30 66  1  0  0  0  0
 30 71  1  0  0  0  0
 31 72  1  0  0  0  0
 31 77  2  0  0  0  0
 32 50  1  0  0  0  0
 32 73  1  0  0  0  0
 32 78  2  0  0  0  0
 33 60  1  0  0  0  0
 33 68  1  0  0  0  0
 33 79  2  0  0  0  0
 34 61  1  0  0  0  0
 34 74  1  0  0  0  0
 34 80  2  0  0  0  0
 35 69  1  0  0  0  0
 35 70  1  0  0  0  0
 35 81  2  0  0  0  0
 36 39  1  0  0  0  0
 37 50  1  0  0  0  0
 38 68  1  0  0  0  0
 39 41  1  0  0  0  0
 40 42  1  0  0  0  0
 40 43  1  0  0  0  0
 41 49  1  0  0  0  0
 42 51  1  0  0  0  0
 43 69  1  0  0  0  0
 44 46  1  0  0  0  0
 44 67  1  0  0  0  0
 45 47  1  0  0  0  0
 45 67  1  0  0  0  0
 46 70  1  0  0  0  0
 47 70  1  0  0  0  0
 48 51  1  0  0  0  0
 48 69  1  0  0  0  0
 49 73  1  0  0  0  0
 50 68  1  0  0  0  0
 51 66  1  0  0  0  0
 52 61  1  0  0  0  0
 53 62  1  0  0  0  0
 54 62  1  0  0  0  0
 55 62  1  0  0  0  0
 56 75  1  0  0  0  0
 57 76  1  0  0  0  0
 58 75  1  0  0  0  0
 59 65  1  0  0  0  0
 59 83  1  0  0  0  0
 60 62  1  0  0  0  0
 60 74  1  0  0  0  0
 61 76  1  0  0  0  0
 63 66  1  0  0  0  0
 64 65  1  0  0  0  0
M  CHG  2  75   1  76   1
M  ISO  4  35 100  59 101  70 100  83 101
M  END
> <Batch ID>
0194

> <Smiles>
CNCc1cn([101CH2:1][101O:1]c2ccc3c(c2)CN(C(=O)C(NC(=O)C(C)NC)C(C)(C)C)C(C(=O)NC2CCCc4ccccc42)C3)nc1N1CC[100N:0]([100C:0](=O)N2CCCC(n3nc(-c4ccc(Oc5ccc(F)cc5F)cc4)c(C(N)=O)c3N)C2)CC1

> <Shape>
0.286

> <Color>
0.112

> <Negative vol penalty>
0.000

$$$$

  -OEChem-04052323343D

 82 91  0     1  0  0  0  0  0999 V2000
  -22.8484  -11.5679   18.3780 C   0  0  0  0  0  0  0  0  0  0  0  0
  -22.5333  -12.9226   18.3456 C   0  0  0  0  0  0  0  0  0  0  0  0
  -25.7497  -26.7847   20.2097 C   0  0  0  0  0  0  0  0  0  0  0  0
  -24.9795  -29.0358   19.7900 C   0  0  0  0  0  0  0  0  0  0  0  0
  -23.9098  -11.1188   19.1626 C   0  0  0  0  0  0  0  0  0  0  0  0
  -23.2788  -13.8288   19.0988 C   0  0  0  0  0  0  0  0  0  0  0  0
  -24.4795  -17.9992   16.4890 C   0  0  0  0  0  0  0  0  0  0  0  0
  -27.0704  -27.2331   20.1917 C   0  0  0  0  0  0  0  0  0  0  0  0
  -26.3002  -29.4843   19.7721 C   0  0  0  0  0  0  0  0  0  0  0  0
  -23.4825  -18.9611   16.3318 C   0  0  0  0  0  0  0  0  0  0  0  0
  -30.6614  -27.7255   19.8985 C   0  0  0  0  0  0  0  0  0  0  0  0
  -31.5935  -26.9737   19.1833 C   0  0  0  0  0  0  0  0  0  0  0  0
  -24.4528  -20.2510   18.1245 C   0  0  0  0  0  0  0  0  0  0  0  0
  -30.3197  -27.3194   17.1597 C   0  0  0  0  0  0  0  0  0  0  0  0
  -24.7043  -27.6860   20.0088 C   0  0  0  0  0  0  0  0  0  0  0  0
  -22.7564  -26.2638   19.1776 C   0  0  0  0  0  0  0  0  0  0  0  0
  -24.6748  -12.0213   19.9183 C   0  0  0  0  0  0  0  0  0  0  0  0
  -25.4659  -18.1510   17.4740 C   0  0  0  0  0  0  0  0  0  0  0  0
  -24.3506  -13.3912   19.8953 C   0  0  0  0  0  0  0  0  0  0  0  0
  -25.4626  -19.2909   18.2905 C   0  0  0  0  0  0  0  0  0  0  0  0
  -27.3456  -28.5830   19.9729 C   0  0  0  0  0  0  0  0  0  0  0  0
  -23.4674  -20.0857   17.1515 C   0  0  0  0  0  0  0  0  0  0  0  0
  -29.5583  -28.2742   19.2443 C   0  0  0  0  0  0  0  0  0  0  0  0
  -31.4227  -26.7706   17.8139 C   0  0  0  0  0  0  0  0  0  0  0  0
  -29.3875  -28.0711   17.8749 C   0  0  0  0  0  0  0  0  0  0  0  0
  -23.3398  -27.2233   20.0267 C   0  0  0  0  0  0  0  0  0  0  0  0
  -21.4518  -26.1805   19.5990 C   0  0  0  0  0  0  0  0  0  0  0  0
  -23.3414  -25.5148   18.1041 C   0  0  0  0  0  0  0  0  0  0  0  0
  -26.3370  -16.5031   20.0488 C   0  0  0  0  0  0  0  0  0  0  0  0
  -28.7540  -18.6648   20.1354 C   0  0  0  0  0  0  0  0  0  0  0  0
  -29.9031  -21.7618   19.2779 C   0  0  0  0  0  0  0  0  0  0  0  0
  -17.6108  -25.9275   23.4918 C   0  0  0  0  0  0  0  0  0  0  0  0
  -25.7829  -11.4828   20.7882 C   0  0  0  0  0  0  0  0  0  0  0  0
  -26.5500  -17.1176   17.6131 C   0  0  0  0  0  0  0  0  0  0  0  0
  -26.5108  -19.5110   19.3495 C   0  0  0  0  0  0  0  0  0  0  0  0
  -26.7592  -12.5553   21.2645 C   0  0  0  0  0  0  0  0  0  0  0  0
  -18.8123  -29.0894   22.7755 C   0  0  0  0  0  0  0  0  0  0  0  0
  -26.0023  -13.7728   21.7854 C   0  0  0  0  0  0  0  0  0  0  0  0
  -20.0526  -28.8217   21.9231 C   0  0  0  0  0  0  0  0  0  0  0  0
  -16.9354  -23.0339   21.2787 C   0  0  0  0  0  0  0  0  0  0  0  0
  -19.1941  -22.7313   22.3538 C   0  0  0  0  0  0  0  0  0  0  0  0
  -18.7192  -28.0984   23.9301 C   0  0  0  0  0  0  0  0  0  0  0  0
  -16.5456  -23.9833   22.4083 C   0  0  0  0  0  0  0  0  0  0  0  0
  -18.7600  -23.6812   23.4652 C   0  0  0  0  0  0  0  0  0  0  0  0
  -19.9561  -26.3851   22.6456 C   0  0  0  0  0  0  0  0  0  0  0  0
  -20.0821  -21.7905   17.2476 C   0  0  0  0  0  0  0  0  0  0  0  0
  -20.6749  -20.3225   18.6101 C   0  0  0  0  0  0  0  0  0  0  0  0
  -25.1515  -14.4083   20.6791 C   0  0  1  0  0  0  0  0  0  0  0  0
  -27.2060  -17.1214   18.9904 C   0  0  1  0  0  0  0  0  0  0  0  0
  -17.9880  -22.0141   21.7322 C   0  0  0  0  0  0  0  0  0  0  0  0
  -20.0961  -27.3560   21.4559 C   0  0  2  0  0  0  0  0  0  0  0  0
  -21.1111  -20.6486   17.1710 C   0  0  0  0  0  0  0  0  0  1  0  0
  -31.9027  -23.2582   19.5223 C   0  0  0  0  0  0  0  0  0  0  0  0
  -27.9612  -19.2486   23.0234 C   0  0  0  0  0  0  0  0  0  0  0  0
  -29.3163  -21.3500   22.8973 C   0  0  0  0  0  0  0  0  0  0  0  0
  -30.4269  -19.1335   22.6213 C   0  0  0  0  0  0  0  0  0  0  0  0
  -30.3191  -21.8778   16.3501 C   0  0  0  0  0  0  0  0  0  0  0  0
  -18.4239  -21.1277   20.5680 C   0  0  0  0  0  0  0  0  0  0  0  0
  -19.0638  -21.9533   19.4666 C   0  0  0  0  0  0  0  0  0  0  0  0
  -28.9534  -20.0208   20.7684 C   0  0  1  0  0  0  0  0  0  0  0  0
  -31.2129  -22.2142   18.6581 C   0  0  2  0  0  0  0  0  0  0  0  0
  -29.1434  -19.9334   22.3090 C   0  0  0  0  0  0  0  0  0  0  0  0
  -22.4766  -27.7144   20.9198 N   0  0  0  0  0  0  0  0  0  0  0  0
  -21.3375  -27.0611   20.6342 N   0  0  0  0  0  0  0  0  0  0  0  0
  -27.5461  -18.4692   19.4508 N   0  0  0  0  0  0  0  0  0  0  0  0
  -18.7684  -26.7190   23.4459 N   0  0  0  0  0  0  0  0  0  0  0  0
  -17.7212  -24.6135   23.0075 N   0  0  0  0  0  0  0  0  0  0  0  0
  -20.4027  -25.4408   19.1811 N   0  0  0  0  0  0  0  0  0  0  0  0
  -23.9265  -24.2751   18.3956 N   0  0  0  0  0  0  0  0  0  0  0  0
  -25.9818  -15.1929   19.7907 N   0  0  0  0  0  0  0  0  0  0  0  0
  -30.0699  -20.6404   20.0628 N   0  0  0  0  0  0  0  0  0  0  0  0
  -19.4244  -21.0581   18.3455 N   0  3  0  0  0  0  0  0  0  0  0  0
  -30.9719  -22.8039   17.3108 N   0  3  0  0  0  0  0  0  0  0  0  0
  -23.3597  -25.9401   16.9241 O   0  0  0  0  0  0  0  0  0  0  0  0
  -26.0138  -17.1653   21.0280 O   0  0  0  0  0  0  0  0  0  0  0  0
  -29.6403  -17.8132   20.2383 O   0  0  0  0  0  0  0  0  0  0  0  0
  -28.8391  -22.3470   19.0882 O   0  0  0  0  0  0  0  0  0  0  0  0
  -16.5417  -26.3666   23.9335 O   0  0  0  0  0  0  0  0  0  0  0  0
  -28.6342  -29.0210   19.9556 O   0  0  0  0  0  0  0  0  0  0  0  0
  -22.4836  -21.0368   16.9989 O   0  0  0  0  0  0  0  0  0  1  0  0
  -32.3187  -26.0499   17.1269 F   0  0  0  0  0  0  0  0  0  0  0  0
  -28.3304  -28.5968   17.2407 F   0  0  0  0  0  0  0  0  0  0  0  0
  1  2  1  0  0  0  0
  1  5  2  0  0  0  0
  2  6  2  0  0  0  0
  3  8  2  0  0  0  0
  3 15  1  0  0  0  0
  4  9  1  0  0  0  0
  4 15  2  0  0  0  0
  5 17  1  0  0  0  0
  6 19  1  0  0  0  0
  7 10  2  0  0  0  0
  7 18  1  0  0  0  0
  8 21  1  0  0  0  0
  9 21  2  0  0  0  0
 10 22  1  0  0  0  0
 11 12  2  0  0  0  0
 11 23  1  0  0  0  0
 12 24  1  0  0  0  0
 13 20  1  0  0  0  0
 13 22  2  0  0  0  0
 14 24  2  0  0  0  0
 14 25  1  0  0  0  0
 15 26  1  0  0  0  0
 16 26  1  0  0  0  0
 16 27  2  0  0  0  0
 16 28  1  0  0  0  0
 17 19  2  0  0  0  0
 17 33  1  0  0  0  0
 18 20  2  0  0  0  0
 18 34  1  0  0  0  0
 19 48  1  0  0  0  0
 20 35  1  0  0  0  0
 21 79  1  0  0  0  0
 22 80  1  0  0  0  0
 23 25  2  0  0  0  0
 23 79  1  0  0  0  0
 24 81  1  0  0  0  0
 25 82  1  0  0  0  0
 26 63  2  0  0  0  0
 27 64  1  0  0  0  0
 27 68  1  0  0  0  0
 28 69  1  0  0  0  0
 28 74  2  0  0  0  0
 29 49  1  0  0  0  0
 29 70  1  0  0  0  0
 29 75  2  0  0  0  0
 30 60  1  0  0  0  0
 30 65  1  0  0  0  0
 30 76  2  0  0  0  0
 31 61  1  0  0  0  0
 31 71  1  0  0  0  0
 31 77  2  0  0  0  0
 32 66  1  0  0  0  0
 32 67  1  0  0  0  0
 32 78  2  0  0  0  0
 33 36  1  0  0  0  0
 34 49  1  0  0  0  0
 35 65  1  0  0  0  0
 36 38  1  0  0  0  0
 37 39  1  0  0  0  0
 37 42  1  0  0  0  0
 38 48  1  0  0  0  0
 39 51  1  0  0  0  0
 40 43  1  0  0  0  0
 40 50  1  0  0  0  0
 41 44  1  0  0  0  0
 41 50  1  0  0  0  0
 42 66  1  0  0  0  0
 43 67  1  0  0  0  0
 44 67  1  0  0  0  0
 45 51  1  0  0  0  0
 45 66  1  0  0  0  0
 46 52  1  0  0  0  0
 46 72  1  0  0  0  0
 47 52  1  0  0  0  0
 47 72  1  0  0  0  0
 48 70  1  0  0  0  0
 49 65  1  0  0  0  0
 50 58  1  0  0  0  0
 51 64  1  0  0  0  0
 52 80  1  0  0  0  0
 53 61  1  0  0  0  0
 54 62  1  0  0  0  0
 55 62  1  0  0  0  0
 56 62  1  0  0  0  0
 57 73  1  0  0  0  0
 58 59  1  0  0  0  0
 59 72  1  0  0  0  0
 60 62  1  0  0  0  0
 60 71  1  0  0  0  0
 61 73  1  0  0  0  0
 63 64  1  0  0  0  0
M  CHG  2  72   1  73   1
M  ISO  4  32 100  52 101  67 100  80 101
M  END
> <Batch ID>
0194

> <Smiles>
CNC(C)C(=O)NC(C(=O)N1Cc2cc([101O:1][101CH:1]3CN(CCC4CC[100N:0]([100C:0](=O)N5CCCC(n6nc(-c7ccc(Oc8ccc(F)cc8F)cc7)c(C(N)=O)c6N)C5)CC4)C3)ccc2CC1C(=O)NC1CCCc2ccccc21)C(C)(C)C

> <Shape>
0.192

> <Color>
0.087

> <Negative vol penalty>
0.000

$$$$

  -OEChem-04052323343D

 86 95  0     1  0  0  0  0  0999 V2000
  -26.0004  -37.1578   17.5114 C   0  0  0  0  0  0  0  0  0  0  0  0
  -26.4125  -35.9668   16.9224 C   0  0  0  0  0  0  0  0  0  0  0  0
  -22.7454  -10.2195   20.1061 C   0  0  0  0  0  0  0  0  0  0  0  0
  -24.2360   -9.4768   21.8565 C   0  0  0  0  0  0  0  0  0  0  0  0
  -25.6901  -37.1913   18.8703 C   0  0  0  0  0  0  0  0  0  0  0  0
  -26.5156  -34.8087   17.6922 C   0  0  0  0  0  0  0  0  0  0  0  0
  -25.7313  -27.7038   17.2214 C   0  0  0  0  0  0  0  0  0  0  0  0
  -22.0111   -9.0402   20.2310 C   0  0  0  0  0  0  0  0  0  0  0  0
  -23.5016   -8.2975   21.9815 C   0  0  0  0  0  0  0  0  0  0  0  0
  -26.4237  -26.5237   17.4890 C   0  0  0  0  0  0  0  0  0  0  0  0
  -20.6047   -7.3090   23.4137 C   0  0  0  0  0  0  0  0  0  0  0  0
  -20.2914   -6.8758   24.7020 C   0  0  0  0  0  0  0  0  0  0  0  0
  -25.7854  -26.6825   19.8099 C   0  0  0  0  0  0  0  0  0  0  0  0
  -21.4925   -4.8180   24.3022 C   0  0  0  0  0  0  0  0  0  0  0  0
  -23.8579  -10.4378   20.9189 C   0  0  0  0  0  0  0  0  0  0  0  0
  -24.4089  -12.8645   21.4805 C   0  0  0  0  0  0  0  0  0  0  0  0
  -25.7801  -36.0309   19.6551 C   0  0  0  0  0  0  0  0  0  0  0  0
  -25.0687  -28.3891   18.2499 C   0  0  0  0  0  0  0  0  0  0  0  0
  -26.2075  -34.8270   19.0631 C   0  0  0  0  0  0  0  0  0  0  0  0
  -25.0832  -27.8698   19.5522 C   0  0  0  0  0  0  0  0  0  0  0  0
  -22.3892   -8.0793   21.1687 C   0  0  0  0  0  0  0  0  0  0  0  0
  -26.4533  -26.0144   18.7839 C   0  0  0  0  0  0  0  0  0  0  0  0
  -21.3618   -6.4967   22.5695 C   0  0  0  0  0  0  0  0  0  0  0  0
  -20.7353   -5.6304   25.1463 C   0  0  0  0  0  0  0  0  0  0  0  0
  -21.8058   -5.2512   23.0138 C   0  0  0  0  0  0  0  0  0  0  0  0
  -24.6172  -11.6556   20.7899 C   0  0  0  0  0  0  0  0  0  0  0  0
  -25.3865  -13.7042   21.0055 C   0  0  0  0  0  0  0  0  0  0  0  0
  -30.0911  -21.9236   19.5079 C   0  0  0  0  0  0  0  0  0  0  0  0
  -28.4338  -22.9685   18.4134 C   0  0  0  0  0  0  0  0  0  0  0  0
  -28.4674  -20.7272   18.5235 C   0  0  0  0  0  0  0  0  0  0  0  0
  -23.4201  -13.1985   22.4636 C   0  0  0  0  0  0  0  0  0  0  0  0
  -25.3426  -31.2699   19.5651 C   0  0  0  0  0  0  0  0  0  0  0  0
  -22.6757  -30.3611   21.1726 C   0  0  0  0  0  0  0  0  0  0  0  0
  -20.7283  -27.8181   22.3504 C   0  0  0  0  0  0  0  0  0  0  0  0
  -28.0010  -15.7043   16.3913 C   0  0  0  0  0  0  0  0  0  0  0  0
  -25.4796  -36.1269   21.1299 C   0  0  0  0  0  0  0  0  0  0  0  0
  -24.3039  -29.6466   17.9397 C   0  0  0  0  0  0  0  0  0  0  0  0
  -24.3710  -28.5566   20.6878 C   0  0  0  0  0  0  0  0  0  0  0  0
  -25.2546  -34.7715   21.7951 C   0  0  0  0  0  0  0  0  0  0  0  0
  -29.4483  -12.7864   18.1450 C   0  0  0  0  0  0  0  0  0  0  0  0
  -26.3380  -33.7837   21.3740 C   0  0  0  0  0  0  0  0  0  0  0  0
  -28.2751  -12.2934   18.9916 C   0  0  0  0  0  0  0  0  0  0  0  0
  -28.9771  -13.4913   16.8761 C   0  0  0  0  0  0  0  0  0  0  0  0
  -27.1288  -19.3493   16.9722 C   0  0  0  0  0  0  0  0  0  0  0  0
  -27.6211  -18.1232   16.2112 C   0  0  0  0  0  0  0  0  0  0  0  0
  -26.8457  -14.1022   17.9641 C   0  0  0  0  0  0  0  0  0  0  0  0
  -27.3899  -17.0698   18.4504 C   0  0  0  0  0  0  0  0  0  0  0  0
  -26.3078  -33.5442   19.8597 C   0  0  1  0  0  0  0  0  0  0  0  0
  -24.0952  -30.5358   19.1616 C   0  0  1  0  0  0  0  0  0  0  0  0
  -27.2848  -13.4365   19.2764 C   0  0  1  0  0  0  0  0  0  0  0  0
  -28.1329  -18.2906   19.0293 C   0  0  2  0  0  0  0  0  0  0  0  0
  -27.6514  -18.5008   20.4701 C   0  0  0  0  0  0  0  0  0  0  0  0
  -31.1077  -21.7328   21.7919 C   0  0  0  0  0  0  0  0  0  0  0  0
  -18.6313  -27.3868   23.6596 C   0  0  0  0  0  0  0  0  0  0  0  0
  -24.1487  -31.0501   23.7543 C   0  0  0  0  0  0  0  0  0  0  0  0
  -22.4236  -29.7372   25.0069 C   0  0  0  0  0  0  0  0  0  0  0  0
  -21.7494  -31.7538   23.7025 C   0  0  0  0  0  0  0  0  0  0  0  0
  -19.4552  -26.4216   20.0727 C   0  0  0  0  0  0  0  0  0  0  0  0
  -31.3494  -21.9817   20.3050 C   0  0  0  0  0  0  0  0  0  0  0  0
  -27.7852  -24.2286   17.9514 C   0  0  0  0  0  0  0  0  0  1  0  0
  -22.4034  -29.6439   22.4727 C   0  0  1  0  0  0  0  0  0  0  0  0
  -19.2312  -27.5780   22.2753 C   0  0  2  0  0  0  0  0  0  0  0  0
  -22.6964  -30.5341   23.7133 C   0  0  0  0  0  0  0  0  0  0  0  0
  -25.6463  -11.7177   19.9407 N   0  0  0  0  0  0  0  0  0  0  0  0
  -29.5640  -23.0984   19.1264 N   0  0  0  0  0  0  0  0  0  0  0  0
  -29.6000  -20.7019   19.2443 N   0  0  0  0  0  0  0  0  0  0  0  0
  -27.8282  -21.8191   18.0740 N   0  0  0  0  0  0  0  0  0  0  0  0
  -26.0932  -12.9757   20.0945 N   0  0  0  0  0  0  0  0  0  0  0  0
  -27.8972  -19.4946   18.2101 N   0  0  3  0  0  0  0  0  0  0  0  0
  -23.6423  -29.7864   20.3353 N   0  0  0  0  0  0  0  0  0  0  0  0
  -28.0066  -14.5434   17.1786 N   0  0  0  0  0  0  0  0  0  0  0  0
  -27.6118  -16.9031   17.0110 N   0  0  0  0  0  0  0  0  0  0  0  0
  -25.7018  -14.9873   21.2824 N   0  0  0  0  0  0  0  0  0  0  0  0
  -22.4914  -12.2176   22.8372 N   0  0  0  0  0  0  0  0  0  0  0  0
  -25.2279  -32.6459   19.5115 N   0  0  0  0  0  0  0  0  0  0  0  0
  -21.0282  -29.1633   22.3935 N   0  0  0  0  0  0  0  0  0  0  0  0
  -18.9419  -26.3608   21.4655 N   0  3  0  0  0  0  0  0  0  0  0  0
  -23.3516  -14.3383   22.9830 O   0  0  0  0  0  0  0  0  0  0  0  0
  -26.3352  -30.6349   19.9016 O   0  0  0  0  0  0  0  0  0  0  0  0
  -22.0485  -31.3895   20.9063 O   0  0  0  0  0  0  0  0  0  0  0  0
  -21.5493  -26.9038   22.3727 O   0  0  0  0  0  0  0  0  0  0  0  0
  -28.3430  -15.6769   15.2017 O   0  0  0  0  0  0  0  0  0  0  0  0
  -21.6727   -6.9285   21.2910 O   0  0  0  0  0  0  0  0  0  0  0  0
  -27.1336  -24.8552   19.0498 O   0  0  0  0  0  0  0  0  0  1  0  0
  -20.4357   -5.2152   26.3840 F   0  0  0  0  0  0  0  0  0  0  0  0
  -22.5345   -4.4669   22.2078 F   0  0  0  0  0  0  0  0  0  0  0  0
  1  2  1  0  0  0  0
  1  5  2  0  0  0  0
  2  6  2  0  0  0  0
  3  8  2  0  0  0  0
  3 15  1  0  0  0  0
  4  9  1  0  0  0  0
  4 15  2  0  0  0  0
  5 17  1  0  0  0  0
  6 19  1  0  0  0  0
  7 10  2  0  0  0  0
  7 18  1  0  0  0  0
  8 21  1  0  0  0  0
  9 21  2  0  0  0  0
 10 22  1  0  0  0  0
 11 12  2  0  0  0  0
 11 23  1  0  0  0  0
 12 24  1  0  0  0  0
 13 20  1  0  0  0  0
 13 22  2  0  0  0  0
 14 24  2  0  0  0  0
 14 25  1  0  0  0  0
 15 26  1  0  0  0  0
 16 26  1  0  0  0  0
 16 27  2  0  0  0  0
 16 31  1  0  0  0  0
 17 19  2  0  0  0  0
 17 36  1  0  0  0  0
 18 20  2  0  0  0  0
 18 37  1  0  0  0  0
 19 48  1  0  0  0  0
 20 38  1  0  0  0  0
 21 83  1  0  0  0  0
 22 84  1  0  0  0  0
 23 25  2  0  0  0  0
 23 83  1  0  0  0  0
 24 85  1  0  0  0  0
 25 86  1  0  0  0  0
 26 64  2  0  0  0  0
 27 68  1  0  0  0  0
 27 73  1  0  0  0  0
 28 59  1  0  0  0  0
 28 65  2  0  0  0  0
 28 66  1  0  0  0  0
 29 60  1  0  0  0  0
 29 65  1  0  0  0  0
 29 67  2  0  0  0  0
 30 66  2  0  0  0  0
 30 67  1  0  0  0  0
 30 69  1  0  0  0  0
 31 74  1  0  0  0  0
 31 78  2  0  0  0  0
 32 49  1  0  0  0  0
 32 75  1  0  0  0  0
 32 79  2  0  0  0  0
 33 61  1  0  0  0  0
 33 70  1  0  0  0  0
 33 80  2  0  0  0  0
 34 62  1  0  0  0  0
 34 76  1  0  0  0  0
 34 81  2  0  0  0  0
 35 71  1  0  0  0  0
 35 72  1  0  0  0  0
 35 82  2  0  0  0  0
 36 39  1  0  0  0  0
 37 49  1  0  0  0  0
 38 70  1  0  0  0  0
 39 41  1  0  0  0  0
 40 42  1  0  0  0  0
 40 43  1  0  0  0  0
 41 48  1  0  0  0  0
 42 50  1  0  0  0  0
 43 71  1  0  0  0  0
 44 45  1  0  0  0  0
 44 69  1  0  0  0  0
 45 72  1  0  0  0  0
 46 50  1  0  0  0  0
 46 71  1  0  0  0  0
 47 51  1  0  0  0  0
 47 72  1  0  0  0  0
 48 75  1  0  0  0  0
 49 70  1  0  0  0  0
 50 68  1  0  0  0  0
 51 52  1  0  0  0  0
 51 69  1  0  0  0  0
 53 59  1  0  0  0  0
 54 62  1  0  0  0  0
 55 63  1  0  0  0  0
 56 63  1  0  0  0  0
 57 63  1  0  0  0  0
 58 77  1  0  0  0  0
 60 84  1  0  0  0  0
 61 63  1  0  0  0  0
 61 76  1  0  0  0  0
 62 77  1  0  0  0  0
 64 68  1  0  0  0  0
M  CHG  1  77   1
M  ISO  4  35 100  60 101  72 100  84 101
M  END
> <Batch ID>
0194

> <Smiles>
CCc1nc(N2CC[100N:0]([100C:0](=O)N3CCCC(n4nc(-c5ccc(Oc6ccc(F)cc6F)cc5)c(C(N)=O)c4N)C3)CC2C)nc([101CH2:1][101O:1]c2ccc3c(c2)CN(C(=O)C(NC(=O)C(C)NC)C(C)(C)C)C(C(=O)NC2CCCc4ccccc42)C3)n1

> <Shape>
0.313

> <Color>
0.141

> <Negative vol penalty>
0.000

$$$$

  -OEChem-04052323343D

 86 95  0     1  0  0  0  0  0999 V2000
  -24.5526  -37.8476   21.1040 C   0  0  0  0  0  0  0  0  0  0  0  0
  -25.4475  -36.8284   20.7943 C   0  0  0  0  0  0  0  0  0  0  0  0
  -24.1981   -9.2677   22.1589 C   0  0  0  0  0  0  0  0  0  0  0  0
  -23.8462   -8.9549   19.7892 C   0  0  0  0  0  0  0  0  0  0  0  0
  -23.5650  -37.6382   22.0656 C   0  0  0  0  0  0  0  0  0  0  0  0
  -25.3559  -35.5995   21.4469 C   0  0  0  0  0  0  0  0  0  0  0  0
  -26.5362  -30.0765   19.0787 C   0  0  0  0  0  0  0  0  0  0  0  0
  -23.1361   -8.4052   22.4305 C   0  0  0  0  0  0  0  0  0  0  0  0
  -22.7841   -8.0924   20.0608 C   0  0  0  0  0  0  0  0  0  0  0  0
  -27.6555  -29.2478   19.1434 C   0  0  0  0  0  0  0  0  0  0  0  0
  -22.5905   -5.0689   22.4951 C   0  0  0  0  0  0  0  0  0  0  0  0
  -22.7765   -4.1028   23.4838 C   0  0  0  0  0  0  0  0  0  0  0  0
  -26.6521  -28.0457   20.9784 C   0  0  0  0  0  0  0  0  0  0  0  0
  -20.9350   -5.0340   24.7403 C   0  0  0  0  0  0  0  0  0  0  0  0
  -24.5532   -9.5426   20.8383 C   0  0  0  0  0  0  0  0  0  0  0  0
  -27.0060  -10.0902   20.4008 C   0  0  0  0  0  0  0  0  0  0  0  0
  -23.4552  -36.4029   22.7234 C   0  0  0  0  0  0  0  0  0  0  0  0
  -25.4693  -29.9026   19.9720 C   0  0  0  0  0  0  0  0  0  0  0  0
  -24.3667  -35.3739   22.4192 C   0  0  0  0  0  0  0  0  0  0  0  0
  -25.5192  -28.8718   20.9213 C   0  0  0  0  0  0  0  0  0  0  0  0
  -22.4291   -7.8175   21.3815 C   0  0  0  0  0  0  0  0  0  0  0  0
  -27.7149  -28.2341   20.0952 C   0  0  0  0  0  0  0  0  0  0  0  0
  -21.5768   -6.0177   22.6290 C   0  0  0  0  0  0  0  0  0  0  0  0
  -21.9488   -4.0853   24.6064 C   0  0  0  0  0  0  0  0  0  0  0  0
  -20.7490   -6.0002   23.7515 C   0  0  0  0  0  0  0  0  0  0  0  0
  -25.6498  -10.4339   20.5571 C   0  0  0  0  0  0  0  0  0  0  0  0
  -27.6360  -11.2844   20.1488 C   0  0  0  0  0  0  0  0  0  0  0  0
  -27.9295  -22.2711   21.5743 C   0  0  0  0  0  0  0  0  0  0  0  0
  -28.2074  -23.4928   21.1110 C   0  0  0  0  0  0  0  0  0  0  0  0
  -28.9976  -21.2703   21.3792 C   0  0  0  0  0  0  0  0  0  0  0  0
  -30.3416  -22.8251   20.3505 C   0  0  0  0  0  0  0  0  0  0  0  0
  -27.6396   -8.8063   20.4766 C   0  0  0  0  0  0  0  0  0  0  0  0
  -24.1115  -31.6931   22.2201 C   0  0  0  0  0  0  0  0  0  0  0  0
  -21.9857  -29.2457   22.3365 C   0  0  0  0  0  0  0  0  0  0  0  0
  -21.3335  -25.9451   21.7646 C   0  0  0  0  0  0  0  0  0  0  0  0
  -28.4652  -16.5411   21.4624 C   0  0  0  0  0  0  0  0  0  0  0  0
  -22.4010  -36.2394   23.7895 C   0  0  0  0  0  0  0  0  0  0  0  0
  -24.2573  -30.7877   19.8717 C   0  0  0  0  0  0  0  0  0  0  0  0
  -24.3915  -28.6306   21.8900 C   0  0  0  0  0  0  0  0  0  0  0  0
  -22.1362  -34.7839   24.1660 C   0  0  0  0  0  0  0  0  0  0  0  0
  -25.7828  -15.8393   19.0625 C   0  0  0  0  0  0  0  0  0  0  0  0
  -23.4508  -34.0389   24.3748 C   0  0  0  0  0  0  0  0  0  0  0  0
  -25.5846  -14.3423   19.2753 C   0  0  0  0  0  0  0  0  0  0  0  0
  -26.1671  -16.5646   20.3528 C   0  0  0  0  0  0  0  0  0  0  0  0
  -27.6598  -19.0138   21.1689 C   0  0  0  0  0  0  0  0  0  0  0  0
  -29.7385  -18.7515   21.5172 C   0  0  0  0  0  0  0  0  0  0  0  0
  -27.1402  -14.4681   21.2524 C   0  0  0  0  0  0  0  0  0  0  0  0
  -24.2840  -34.0187   23.0876 C   0  0  1  0  0  0  0  0  0  0  0  0
  -28.7310  -19.8529   21.8920 C   0  0  0  0  0  0  0  0  0  0  0  0
  -23.4529  -30.8482   21.1665 C   0  0  1  0  0  0  0  0  0  0  0  0
  -26.8207  -13.7262   19.9470 C   0  0  1  0  0  0  0  0  0  0  0  0
  -19.5189  -24.2270   21.9947 C   0  0  0  0  0  0  0  0  0  0  0  0
  -32.7559  -24.2588   18.0701 C   0  0  0  0  0  0  0  0  0  0  0  0
  -32.5063  -25.1750   20.4053 C   0  0  0  0  0  0  0  0  0  0  0  0
  -22.5071  -29.1009   25.3394 C   0  0  0  0  0  0  0  0  0  0  0  0
  -21.4450  -26.8337   25.3439 C   0  0  0  0  0  0  0  0  0  0  0  0
  -20.1087  -28.8337   24.6829 C   0  0  0  0  0  0  0  0  0  0  0  0
  -21.2743  -25.4480   18.8477 C   0  0  0  0  0  0  0  0  0  0  0  0
  -29.6418  -25.1759   20.0067 C   0  0  0  0  0  0  0  0  0  0  0  0
  -28.6003  -26.0902   20.6202 C   0  0  0  0  0  0  0  0  0  1  0  0
  -21.8836  -27.9543   23.1117 C   0  0  1  0  0  0  0  0  0  0  0  0
  -20.1695  -25.2523   21.0792 C   0  0  2  0  0  0  0  0  0  0  0  0
  -31.8436  -24.4048   19.2759 C   0  0  0  0  0  0  0  0  0  0  0  0
  -21.5084  -28.1862   24.6026 C   0  0  0  0  0  0  0  0  0  0  0  0
  -25.4303  -11.7439   20.4163 N   0  0  0  0  0  0  0  0  0  0  0  0
  -30.1239  -21.5484   20.8022 N   0  0  0  0  0  0  0  0  0  0  0  0
  -26.6570  -12.2338   20.1690 N   0  0  0  0  0  0  0  0  0  0  0  0
  -29.4124  -23.8028   20.4903 N   0  0  0  0  0  0  0  0  0  0  0  0
  -23.2309  -29.5265   21.7563 N   0  0  0  0  0  0  0  0  0  0  0  0
  -27.2909  -15.9118   21.0350 N   0  0  0  0  0  0  0  0  0  0  0  0
  -28.5848  -17.8971   21.2645 N   0  0  0  0  0  0  0  0  0  0  0  0
  -28.9263  -11.6045   19.9142 N   0  0  0  0  0  0  0  0  0  0  0  0
  -26.8444   -7.6835   20.7437 N   0  0  0  0  0  0  0  0  0  0  0  0
  -23.7665  -33.0301   22.1661 N   0  0  0  0  0  0  0  0  0  0  0  0
  -20.9406  -27.1137   22.3819 N   0  0  0  0  0  0  0  0  0  0  0  0
  -31.5140  -23.0742   19.7614 N   0  3  0  0  0  0  0  0  0  0  0  0
  -20.6346  -24.5544   19.8473 N   0  3  0  0  0  0  0  0  0  0  0  0
  -28.8768   -8.6612   20.3287 O   0  0  0  0  0  0  0  0  0  0  0  0
  -24.8750  -31.1704   23.0236 O   0  0  0  0  0  0  0  0  0  0  0  0
  -20.9952  -29.9749   22.2431 O   0  0  0  0  0  0  0  0  0  0  0  0
  -22.4762  -25.4927   21.7565 O   0  0  0  0  0  0  0  0  0  0  0  0
  -29.3700  -15.9175   22.0330 O   0  0  0  0  0  0  0  0  0  0  0  0
  -21.3928   -6.9757   21.6461 O   0  0  0  0  0  0  0  0  0  0  0  0
  -28.8144  -27.4186   20.1614 O   0  0  0  0  0  0  0  0  0  1  0  0
  -22.1266   -3.1565   25.5550 F   0  0  0  0  0  0  0  0  0  0  0  0
  -19.7727   -6.9083   23.8852 F   0  0  0  0  0  0  0  0  0  0  0  0
  1  2  1  0  0  0  0
  1  5  2  0  0  0  0
  2  6  2  0  0  0  0
  3  8  2  0  0  0  0
  3 15  1  0  0  0  0
  4  9  1  0  0  0  0
  4 15  2  0  0  0  0
  5 17  1  0  0  0  0
  6 19  1  0  0  0  0
  7 10  2  0  0  0  0
  7 18  1  0  0  0  0
  8 21  1  0  0  0  0
  9 21  2  0  0  0  0
 10 22  1  0  0  0  0
 11 12  2  0  0  0  0
 11 23  1  0  0  0  0
 12 24  1  0  0  0  0
 13 20  1  0  0  0  0
 13 22  2  0  0  0  0
 14 24  2  0  0  0  0
 14 25  1  0  0  0  0
 15 26  1  0  0  0  0
 16 26  1  0  0  0  0
 16 27  2  0  0  0  0
 16 32  1  0  0  0  0
 17 19  2  0  0  0  0
 17 37  1  0  0  0  0
 18 20  2  0  0  0  0
 18 38  1  0  0  0  0
 19 48  1  0  0  0  0
 20 39  1  0  0  0  0
 21 83  1  0  0  0  0
 22 84  1  0  0  0  0
 23 25  2  0  0  0  0
 23 83  1  0  0  0  0
 24 85  1  0  0  0  0
 25 86  1  0  0  0  0
 26 65  2  0  0  0  0
 27 67  1  0  0  0  0
 27 72  1  0  0  0  0
 28 29  2  0  0  0  0
 28 30  1  0  0  0  0
 29 68  1  0  0  0  0
 30 49  1  0  0  0  0
 30 66  2  0  0  0  0
 31 66  1  0  0  0  0
 31 68  1  0  0  0  0
 31 76  2  0  0  0  0
 32 73  1  0  0  0  0
 32 78  2  0  0  0  0
 33 50  1  0  0  0  0
 33 74  1  0  0  0  0
 33 79  2  0  0  0  0
 34 61  1  0  0  0  0
 34 69  1  0  0  0  0
 34 80  2  0  0  0  0
 35 62  1  0  0  0  0
 35 75  1  0  0  0  0
 35 81  2  0  0  0  0
 36 70  1  0  0  0  0
 36 71  1  0  0  0  0
 36 82  2  0  0  0  0
 37 40  1  0  0  0  0
 38 50  1  0  0  0  0
 39 69  1  0  0  0  0
 40 42  1  0  0  0  0
 41 43  1  0  0  0  0
 41 44  1  0  0  0  0
 42 48  1  0  0  0  0
 43 51  1  0  0  0  0
 44 70  1  0  0  0  0
 45 49  1  0  0  0  0
 45 71  1  0  0  0  0
 46 49  1  0  0  0  0
 46 71  1  0  0  0  0
 47 51  1  0  0  0  0
 47 70  1  0  0  0  0
 48 74  1  0  0  0  0
 50 69  1  0  0  0  0
 51 67  1  0  0  0  0
 52 62  1  0  0  0  0
 53 63  1  0  0  0  0
 54 63  1  0  0  0  0
 55 64  1  0  0  0  0
 56 64  1  0  0  0  0
 57 64  1  0  0  0  0
 58 77  1  0  0  0  0
 59 60  1  0  0  0  0
 59 68  1  0  0  0  0
 60 84  1  0  0  0  0
 61 64  1  0  0  0  0
 61 75  1  0  0  0  0
 62 77  1  0  0  0  0
 63 76  1  0  0  0  0
 65 67  1  0  0  0  0
M  CHG  2  76   1  77   1
M  ISO  4  36 100  60 101  71 100  84 101
M  END
> <Batch ID>
0194

> <Smiles>
CNC(C)C(=O)NC(C(=O)N1Cc2cc([101O:1][101CH2:1]Cn3ccc(C4C[100N:0]([100C:0](=O)N5CCCC(n6nc(-c7ccc(Oc8ccc(F)cc8F)cc7)c(C(N)=O)c6N)C5)C4)nc3=NC(C)C)ccc2CC1C(=O)NC1CCCc2ccccc21)C(C)(C)C

> <Shape>
0.320

> <Color>
0.098

> <Negative vol penalty>
0.000

$$$$

  -OEChem-04052323342D

  0  0  0     0  0  0  0  0  0999 V2000
M  END
$$$$

  -OEChem-04052323343D

 85 93  0     1  0  0  0  0  0999 V2000
  -27.1158  -25.7416   24.3711 C   0  0  0  0  0  0  0  0  0  0  0  0
  -28.2088  -24.8831   24.4324 C   0  0  0  0  0  0  0  0  0  0  0  0
  -23.2019   -9.7842   19.9113 C   0  0  0  0  0  0  0  0  0  0  0  0
  -23.7576   -9.8804   22.2605 C   0  0  0  0  0  0  0  0  0  0  0  0
  -26.2167  -25.6490   23.3096 C   0  0  0  0  0  0  0  0  0  0  0  0
  -28.4027  -23.9306   23.4325 C   0  0  0  0  0  0  0  0  0  0  0  0
  -33.2144  -23.7068   21.8696 C   0  0  0  0  0  0  0  0  0  0  0  0
  -22.4729   -8.6156   20.1315 C   0  0  0  0  0  0  0  0  0  0  0  0
  -23.0286   -8.7118   22.4808 C   0  0  0  0  0  0  0  0  0  0  0  0
  -34.1174  -23.0249   22.6842 C   0  0  0  0  0  0  0  0  0  0  0  0
  -19.7847   -7.8295   22.8259 C   0  0  0  0  0  0  0  0  0  0  0  0
  -18.9296   -7.7988   23.9275 C   0  0  0  0  0  0  0  0  0  0  0  0
  -33.9483  -21.0954   21.2463 C   0  0  0  0  0  0  0  0  0  0  0  0
  -20.1576   -5.9234   24.8285 C   0  0  0  0  0  0  0  0  0  0  0  0
  -23.8443  -10.4166   20.9758 C   0  0  0  0  0  0  0  0  0  0  0  0
  -24.1217  -12.9469   20.8074 C   0  0  0  0  0  0  0  0  0  0  0  0
  -26.4050  -24.7014   22.2911 C   0  0  0  0  0  0  0  0  0  0  0  0
  -32.6623  -23.0832   20.7415 C   0  0  0  0  0  0  0  0  0  0  0  0
  -27.5046  -23.8244   22.3570 C   0  0  0  0  0  0  0  0  0  0  0  0
  -33.0405  -21.7724   20.4176 C   0  0  0  0  0  0  0  0  0  0  0  0
  -22.3862   -8.0794   21.4163 C   0  0  0  0  0  0  0  0  0  0  0  0
  -34.4822  -21.7181   22.3742 C   0  0  0  0  0  0  0  0  0  0  0  0
  -20.8262   -6.9070   22.7255 C   0  0  0  0  0  0  0  0  0  0  0  0
  -19.1161   -6.8458   24.9288 C   0  0  0  0  0  0  0  0  0  0  0  0
  -21.0127   -5.9541   23.7269 C   0  0  0  0  0  0  0  0  0  0  0  0
  -24.5980  -11.6235   20.7488 C   0  0  0  0  0  0  0  0  0  0  0  0
  -25.2192  -13.7200   20.5170 C   0  0  0  0  0  0  0  0  0  0  0  0
  -22.8049  -13.4338   21.0985 C   0  0  0  0  0  0  0  0  0  0  0  0
  -29.7219  -22.2916   19.8298 C   0  0  0  0  0  0  0  0  0  0  0  0
  -31.2169  -21.4774   17.0686 C   0  0  0  0  0  0  0  0  0  0  0  0
  -34.1008  -20.5399   15.5029 C   0  0  0  0  0  0  0  0  0  0  0  0
  -30.9576  -13.3683   21.6948 C   0  0  0  0  0  0  0  0  0  0  0  0
  -25.3804  -24.6075   21.1884 C   0  0  0  0  0  0  0  0  0  0  0  0
  -31.7101  -23.8416   19.8580 C   0  0  0  0  0  0  0  0  0  0  0  0
  -32.4920  -21.0651   19.2063 C   0  0  0  0  0  0  0  0  0  0  0  0
  -25.8639  -23.8203   19.9731 C   0  0  0  0  0  0  0  0  0  0  0  0
  -29.5366  -12.9583   18.2570 C   0  0  0  0  0  0  0  0  0  0  0  0
  -26.5292  -22.5190   20.4101 C   0  0  0  0  0  0  0  0  0  0  0  0
  -28.0817  -12.6237   18.5820 C   0  0  0  0  0  0  0  0  0  0  0  0
  -30.4705  -12.5057   19.3731 C   0  0  0  0  0  0  0  0  0  0  0  0
  -30.9939  -14.4717   23.9741 C   0  0  0  0  0  0  0  0  0  0  0  0
  -31.9056  -15.6832   24.1803 C   0  0  0  0  0  0  0  0  0  0  0  0
  -28.6627  -12.7254   21.0485 C   0  0  0  0  0  0  0  0  0  0  0  0
  -29.9857  -15.6194   22.0564 C   0  0  0  0  0  0  0  0  0  0  0  0
  -27.7626  -22.7946   21.2786 C   0  0  1  0  0  0  0  0  0  0  0  0
  -30.8161  -22.9306   19.0223 C   0  0  1  0  0  0  0  0  0  0  0  0
  -27.6826  -13.1857   19.9569 C   0  0  2  0  0  0  0  0  0  0  0  0
  -30.9269  -16.8206   22.2627 C   0  0  1  0  0  0  0  0  0  0  0  0
  -28.9775  -18.3669   22.5031 C   0  0  0  0  0  0  0  0  0  0  0  0
  -35.0023  -19.9087   13.2476 C   0  0  0  0  0  0  0  0  0  0  0  0
  -31.3191  -18.4428   26.3261 C   0  0  0  0  0  0  0  0  0  0  0  0
  -29.9119  -18.7307   17.3184 C   0  0  0  0  0  0  0  0  0  0  0  0
  -31.5520  -17.8751   15.6313 C   0  0  0  0  0  0  0  0  0  0  0  0
  -29.9359  -19.6672   14.9996 C   0  0  0  0  0  0  0  0  0  0  0  0
  -35.9967  -22.8124   15.4961 C   0  0  0  0  0  0  0  0  0  0  0  0
  -30.2221  -18.0776   21.7352 C   0  0  0  0  0  0  0  0  0  0  0  0
  -35.8007  -20.1724   25.3612 C   0  0  0  0  0  0  0  0  0  0  0  0
  -32.1991  -18.0513   23.9582 C   0  0  0  0  0  0  0  0  0  0  0  0
  -34.8855  -18.9713   25.1766 C   0  0  0  0  0  0  0  0  0  0  0  0
  -35.3805  -21.3935   24.5522 C   0  0  0  0  0  0  0  0  0  1  0  0
  -31.8666  -20.2239   16.5340 C   0  0  1  0  0  0  0  0  0  0  0  0
  -34.7673  -21.0416   14.2346 C   0  0  2  0  0  0  0  0  0  0  0  0
  -32.5319  -18.1789   25.4439 C   0  0  1  0  0  0  0  0  0  0  0  0
  -30.8257  -19.1366   16.1448 C   0  0  0  0  0  0  0  0  0  0  0  0
  -25.8969  -11.5559   20.4448 N   0  0  0  0  0  0  0  0  0  0  0  0
  -26.2461  -12.8466   20.3098 N   0  0  0  0  0  0  0  0  0  0  0  0
  -31.5595  -21.8464   18.3771 N   0  0  0  0  0  0  0  0  0  0  0  0
  -30.0478  -13.0269   20.6803 N   0  0  0  0  0  0  0  0  0  0  0  0
  -30.5719  -14.3881   22.5758 N   0  0  0  0  0  0  0  0  0  0  0  0
  -31.2918  -16.9315   23.6939 N   0  0  2  0  0  0  0  0  0  0  0  0
  -25.3963  -15.0549   20.4212 N   0  0  0  0  0  0  0  0  0  0  0  0
  -21.7943  -12.5030   21.3749 N   0  0  0  0  0  0  0  0  0  0  0  0
  -28.8824  -23.1946   20.4537 N   0  0  0  0  0  0  0  0  0  0  0  0
  -32.7278  -20.6473   15.4351 N   0  0  0  0  0  0  0  0  0  0  0  0
  -36.0816  -21.6677   14.5530 N   0  3  0  0  0  0  0  0  0  0  0  0
  -33.5090  -19.2864   25.6388 N   0  3  0  0  0  0  0  0  0  0  0  0
  -22.5289  -14.6575   21.0969 O   0  0  0  0  0  0  0  0  0  0  0  0
  -29.6441  -21.0697   19.8817 O   0  0  0  0  0  0  0  0  0  0  0  0
  -30.4398  -22.1098   16.3490 O   0  0  0  0  0  0  0  0  0  0  0  0
  -34.7345  -20.0937   16.4567 O   0  0  0  0  0  0  0  0  0  0  0  0
  -32.0459  -12.7906   21.8080 O   0  0  0  0  0  0  0  0  0  0  0  0
  -21.6747   -6.9393   21.6316 O   0  0  0  0  0  0  0  0  0  0  0  0
  -35.3691  -21.0454   23.1736 O   0  0  0  0  0  0  0  0  0  1  0  0
  -18.2958   -6.8175   25.9874 F   0  0  0  0  0  0  0  0  0  0  0  0
  -22.0123   -5.0661   23.6366 F   0  0  0  0  0  0  0  0  0  0  0  0
  1  2  1  0  0  0  0
  1  5  2  0  0  0  0
  2  6  2  0  0  0  0
  3  8  2  0  0  0  0
  3 15  1  0  0  0  0
  4  9  1  0  0  0  0
  4 15  2  0  0  0  0
  5 17  1  0  0  0  0
  6 19  1  0  0  0  0
  7 10  2  0  0  0  0
  7 18  1  0  0  0  0
  8 21  1  0  0  0  0
  9 21  2  0  0  0  0
 10 22  1  0  0  0  0
 11 12  2  0  0  0  0
 11 23  1  0  0  0  0
 12 24  1  0  0  0  0
 13 20  1  0  0  0  0
 13 22  2  0  0  0  0
 14 24  2  0  0  0  0
 14 25  1  0  0  0  0
 15 26  1  0  0  0  0
 16 26  1  0  0  0  0
 16 27  2  0  0  0  0
 16 28  1  0  0  0  0
 17 19  2  0  0  0  0
 17 33  1  0  0  0  0
 18 20  2  0  0  0  0
 18 34  1  0  0  0  0
 19 45  1  0  0  0  0
 20 35  1  0  0  0  0
 21 82  1  0  0  0  0
 22 83  1  0  0  0  0
 23 25  2  0  0  0  0
 23 82  1  0  0  0  0
 24 84  1  0  0  0  0
 25 85  1  0  0  0  0
 26 65  2  0  0  0  0
 27 66  1  0  0  0  0
 27 71  1  0  0  0  0
 28 72  1  0  0  0  0
 28 77  2  0  0  0  0
 29 46  1  0  0  0  0
 29 73  1  0  0  0  0
 29 78  2  0  0  0  0
 30 61  1  0  0  0  0
 30 67  1  0  0  0  0
 30 79  2  0  0  0  0
 31 62  1  0  0  0  0
 31 74  1  0  0  0  0
 31 80  2  0  0  0  0
 32 68  1  0  0  0  0
 32 69  1  0  0  0  0
 32 81  2  0  0  0  0
 33 36  1  0  0  0  0
 34 46  1  0  0  0  0
 35 67  1  0  0  0  0
 36 38  1  0  0  0  0
 37 39  1  0  0  0  0
 37 40  1  0  0  0  0
 38 45  1  0  0  0  0
 39 47  1  0  0  0  0
 40 68  1  0  0  0  0
 41 42  1  0  0  0  0
 41 69  1  0  0  0  0
 42 70  1  0  0  0  0
 43 47  1  0  0  0  0
 43 68  1  0  0  0  0
 44 48  1  0  0  0  0
 44 69  1  0  0  0  0
 45 73  1  0  0  0  0
 46 67  1  0  0  0  0
 47 66  1  0  0  0  0
 48 56  1  0  0  0  0
 48 70  1  0  0  0  0
 49 56  1  0  0  0  0
 50 62  1  0  0  0  0
 51 63  1  0  0  0  0
 52 64  1  0  0  0  0
 53 64  1  0  0  0  0
 54 64  1  0  0  0  0
 55 75  1  0  0  0  0
 57 59  1  0  0  0  0
 57 60  1  0  0  0  0
 58 63  1  0  0  0  0
 58 70  1  0  0  0  0
 59 76  1  0  0  0  0
 60 83  1  0  0  0  0
 61 64  1  0  0  0  0
 61 74  1  0  0  0  0
 62 75  1  0  0  0  0
 63 76  1  0  0  0  0
 65 66  1  0  0  0  0
M  CHG  2  75   1  76   1
M  ISO  4  32 100  60 101  69 100  83 101
M  END
> <Batch ID>
0194

> <Smiles>
CCC1C[100N:0]([100C:0](=O)N2CCCC(n3nc(-c4ccc(Oc5ccc(F)cc5F)cc4)c(C(N)=O)c3N)C2)CCN1CC(C)NCC[101CH2:1][101O:1]c1ccc2c(c1)CN(C(=O)C(NC(=O)C(C)NC)C(C)(C)C)C(C(=O)NC1CCCc3ccccc31)C2

> <Shape>
0.205

> <Color>
0.184

> <Negative vol penalty>
0.000

$$$$

  -OEChem-04052323343D

 81 89  0     1  0  0  0  0  0999 V2000
  -21.6614  -37.0029   17.8002 C   0  0  0  0  0  0  0  0  0  0  0  0
  -22.0200  -35.7650   17.2764 C   0  0  0  0  0  0  0  0  0  0  0  0
  -24.0774   -9.3807   22.4136 C   0  0  0  0  0  0  0  0  0  0  0  0
  -24.9063   -7.7831   20.8019 C   0  0  0  0  0  0  0  0  0  0  0  0
  -22.3123  -37.4952   18.9306 C   0  0  0  0  0  0  0  0  0  0  0  0
  -23.0305  -35.0191   17.8821 C   0  0  0  0  0  0  0  0  0  0  0  0
  -24.9666  -28.2412   19.1581 C   0  0  0  0  0  0  0  0  0  0  0  0
  -22.7951   -8.8475   22.2827 C   0  0  0  0  0  0  0  0  0  0  0  0
  -23.6241   -7.2499   20.6710 C   0  0  0  0  0  0  0  0  0  0  0  0
  -26.0550  -27.3842   19.0012 C   0  0  0  0  0  0  0  0  0  0  0  0
  -20.6393   -5.2325   20.1813 C   0  0  0  0  0  0  0  0  0  0  0  0
  -20.5105   -3.8436   20.1820 C   0  0  0  0  0  0  0  0  0  0  0  0
  -27.0555  -28.2995   20.9963 C   0  0  0  0  0  0  0  0  0  0  0  0
  -21.4850   -3.7543   22.3910 C   0  0  0  0  0  0  0  0  0  0  0  0
  -25.1330   -8.8485   21.6732 C   0  0  0  0  0  0  0  0  0  0  0  0
  -27.4560   -9.0002   22.7163 C   0  0  0  0  0  0  0  0  0  0  0  0
  -23.3246  -36.7507   19.5562 C   0  0  0  0  0  0  0  0  0  0  0  0
  -24.9194  -29.1429   20.2310 C   0  0  0  0  0  0  0  0  0  0  0  0
  -23.6965  -35.5025   19.0212 C   0  0  0  0  0  0  0  0  0  0  0  0
  -25.9641  -29.1651   21.1660 C   0  0  0  0  0  0  0  0  0  0  0  0
  -22.5685   -7.7821   21.4114 C   0  0  0  0  0  0  0  0  0  0  0  0
  -27.1011  -27.4153   19.9187 C   0  0  0  0  0  0  0  0  0  0  0  0
  -21.1910   -5.8823   21.2855 C   0  0  0  0  0  0  0  0  0  0  0  0
  -20.9333   -3.1045   21.2868 C   0  0  0  0  0  0  0  0  0  0  0  0
  -21.6138   -5.1432   22.3903 C   0  0  0  0  0  0  0  0  0  0  0  0
  -26.4576   -9.3993   21.8075 C   0  0  0  0  0  0  0  0  0  0  0  0
  -28.5189   -9.8261   22.4431 C   0  0  0  0  0  0  0  0  0  0  0  0
  -27.4254   -7.9747   23.7177 C   0  0  0  0  0  0  0  0  0  0  0  0
  -24.8248  -32.3089   20.4978 C   0  0  0  0  0  0  0  0  0  0  0  0
  -24.4377  -31.6420   23.6486 C   0  0  0  0  0  0  0  0  0  0  0  0
  -24.8871  -29.4455   26.2216 C   0  0  0  0  0  0  0  0  0  0  0  0
  -28.4952  -15.2753   19.8314 C   0  0  0  0  0  0  0  0  0  0  0  0
  -24.0321  -37.3454   20.7481 C   0  0  0  0  0  0  0  0  0  0  0  0
  -23.7257  -30.0420   20.4011 C   0  0  0  0  0  0  0  0  0  0  0  0
  -25.9520  -30.1003   22.3465 C   0  0  0  0  0  0  0  0  0  0  0  0
  -24.8346  -36.3253   21.5515 C   0  0  0  0  0  0  0  0  0  0  0  0
  -30.5169  -12.3145   18.8818 C   0  0  0  0  0  0  0  0  0  0  0  0
  -25.6669  -35.4486   20.6212 C   0  0  0  0  0  0  0  0  0  0  0  0
  -29.7510  -11.1911   19.5821 C   0  0  0  0  0  0  0  0  0  0  0  0
  -31.4582  -17.4329   19.5531 C   0  0  0  0  0  0  0  0  0  0  0  0
  -29.5769  -13.4393   18.4682 C   0  0  0  0  0  0  0  0  0  0  0  0
  -30.8794  -16.0466   19.2881 C   0  0  0  0  0  0  0  0  0  0  0  0
  -28.0098  -12.8996   20.2930 C   0  0  0  0  0  0  0  0  0  0  0  0
  -29.0883  -17.6454   19.4108 C   0  0  0  0  0  0  0  0  0  0  0  0
  -24.7707  -34.6528   19.6647 C   0  0  1  0  0  0  0  0  0  0  0  0
  -24.0242  -31.2787   21.2431 C   0  0  1  0  0  0  0  0  0  0  0  0
  -28.9075  -11.7357   20.7492 C   0  0  1  0  0  0  0  0  0  0  0  0
  -30.3720  -18.3353   18.9869 C   0  0  1  0  0  0  0  0  0  0  0  0
  -24.5018  -29.1960   28.6888 C   0  0  0  0  0  0  0  0  0  0  0  0
  -26.7995  -33.4928   24.2022 C   0  0  0  0  0  0  0  0  0  0  0  0
  -26.9667  -32.4817   26.4865 C   0  0  0  0  0  0  0  0  0  0  0  0
  -24.9021  -33.7112   25.8168 C   0  0  0  0  0  0  0  0  0  0  0  0
  -23.1272  -27.0990   25.8271 C   0  0  0  0  0  0  0  0  0  0  0  0
  -29.6474  -22.0165   19.6521 C   0  0  0  0  0  0  0  0  0  0  0  0
  -28.9146  -24.3019   19.6707 C   0  0  0  0  0  0  0  0  0  0  0  0
  -29.4644  -20.6622   18.9933 C   0  0  0  0  0  0  0  0  0  0  0  0
  -27.9219  -25.3240   19.1386 C   0  0  0  0  0  0  0  0  0  1  0  0
  -25.3676  -31.4350   24.8197 C   0  0  1  0  0  0  0  0  0  0  0  0
  -23.9395  -28.9472   27.2978 C   0  0  2  0  0  0  0  0  0  0  0  0
  -26.0104  -32.7638   25.3081 C   0  0  0  0  0  0  0  0  0  0  0  0
  -26.8510  -10.4009   21.0163 N   0  0  0  0  0  0  0  0  0  0  0  0
  -28.1084  -10.6382   21.4271 N   0  0  0  0  0  0  0  0  0  0  0  0
  -24.7659  -30.9642   22.4659 N   0  0  0  0  0  0  0  0  0  0  0  0
  -28.7993  -13.9272   19.6108 N   0  0  0  0  0  0  0  0  0  0  0  0
  -29.4291  -16.2237   19.4166 N   0  0  0  0  0  0  0  0  0  0  0  0
  -29.7553   -9.9297   22.9752 N   0  0  0  0  0  0  0  0  0  0  0  0
  -26.2540   -7.2194   23.8650 N   0  0  0  0  0  0  0  0  0  0  0  0
  -24.1803  -33.5221   20.3484 N   0  0  0  0  0  0  0  0  0  0  0  0
  -24.5915  -30.7367   25.8388 N   0  0  0  0  0  0  0  0  0  0  0  0
  -28.6989  -22.9975   19.0792 N   0  0  0  0  0  0  0  0  0  0  0  0
  -30.4620  -19.6960   19.5415 N   0  3  0  0  0  0  0  0  0  0  0  0
  -23.7017  -27.4843   27.1418 N   0  3  0  0  0  0  0  0  0  0  0  0
  -28.4020   -7.7461   24.4711 O   0  0  0  0  0  0  0  0  0  0  0  0
  -25.9448  -32.0247   20.0899 O   0  0  0  0  0  0  0  0  0  0  0  0
  -23.4523  -32.3722   23.7806 O   0  0  0  0  0  0  0  0  0  0  0  0
  -25.8007  -28.7593   25.7688 O   0  0  0  0  0  0  0  0  0  0  0  0
  -27.4583  -15.6147   20.4167 O   0  0  0  0  0  0  0  0  0  0  0  0
  -21.3174   -7.2613   21.2836 O   0  0  0  0  0  0  0  0  0  0  0  0
  -28.1726  -26.5744   19.7665 O   0  0  0  0  0  0  0  0  0  1  0  0
  -20.8082   -1.7709   21.2879 F   0  0  0  0  0  0  0  0  0  0  0  0
  -22.1434   -5.7620   23.4544 F   0  0  0  0  0  0  0  0  0  0  0  0
  1  2  1  0  0  0  0
  1  5  2  0  0  0  0
  2  6  2  0  0  0  0
  3  8  2  0  0  0  0
  3 15  1  0  0  0  0
  4  9  1  0  0  0  0
  4 15  2  0  0  0  0
  5 17  1  0  0  0  0
  6 19  1  0  0  0  0
  7 10  2  0  0  0  0
  7 18  1  0  0  0  0
  8 21  1  0  0  0  0
  9 21  2  0  0  0  0
 10 22  1  0  0  0  0
 11 12  2  0  0  0  0
 11 23  1  0  0  0  0
 12 24  1  0  0  0  0
 13 20  1  0  0  0  0
 13 22  2  0  0  0  0
 14 24  2  0  0  0  0
 14 25  1  0  0  0  0
 15 26  1  0  0  0  0
 16 26  1  0  0  0  0
 16 27  2  0  0  0  0
 16 28  1  0  0  0  0
 17 19  2  0  0  0  0
 17 33  1  0  0  0  0
 18 20  2  0  0  0  0
 18 34  1  0  0  0  0
 19 45  1  0  0  0  0
 20 35  1  0  0  0  0
 21 78  1  0  0  0  0
 22 79  1  0  0  0  0
 23 25  2  0  0  0  0
 23 78  1  0  0  0  0
 24 80  1  0  0  0  0
 25 81  1  0  0  0  0
 26 61  2  0  0  0  0
 27 62  1  0  0  0  0
 27 66  1  0  0  0  0
 28 67  1  0  0  0  0
 28 73  2  0  0  0  0
 29 46  1  0  0  0  0
 29 68  1  0  0  0  0
 29 74  2  0  0  0  0
 30 58  1  0  0  0  0
 30 63  1  0  0  0  0
 30 75  2  0  0  0  0
 31 59  1  0  0  0  0
 31 69  1  0  0  0  0
 31 76  2  0  0  0  0
 32 64  1  0  0  0  0
 32 65  1  0  0  0  0
 32 77  2  0  0  0  0
 33 36  1  0  0  0  0
 34 46  1  0  0  0  0
 35 63  1  0  0  0  0
 36 38  1  0  0  0  0
 37 39  1  0  0  0  0
 37 41  1  0  0  0  0
 38 45  1  0  0  0  0
 39 47  1  0  0  0  0
 40 42  1  0  0  0  0
 40 48  1  0  0  0  0
 41 64  1  0  0  0  0
 42 65  1  0  0  0  0
 43 47  1  0  0  0  0
 43 64  1  0  0  0  0
 44 48  1  0  0  0  0
 44 65  1  0  0  0  0
 45 68  1  0  0  0  0
 46 63  1  0  0  0  0
 47 62  1  0  0  0  0
 48 71  1  0  0  0  0
 49 59  1  0  0  0  0
 50 60  1  0  0  0  0
 51 60  1  0  0  0  0
 52 60  1  0  0  0  0
 53 72  1  0  0  0  0
 54 56  1  0  0  0  0
 54 70  1  0  0  0  0
 55 57  1  0  0  0  0
 55 70  1  0  0  0  0
 56 71  1  0  0  0  0
 57 79  1  0  0  0  0
 58 60  1  0  0  0  0
 58 69  1  0  0  0  0
 59 72  1  0  0  0  0
 61 62  1  0  0  0  0
M  CHG  2  71   1  72   1
M  ISO  4  32 100  57 101  65 100  79 101
M  END
> <Batch ID>
0194

> <Smiles>
CNC(C)C(=O)NC(C(=O)N1Cc2cc([101O:1][101CH2:1]CNCCNC3CC[100N:0]([100C:0](=O)N4CCCC(n5nc(-c6ccc(Oc7ccc(F)cc7F)cc6)c(C(N)=O)c5N)C4)C3)ccc2CC1C(=O)NC1CCCc2ccccc21)C(C)(C)C

> <Shape>
0.262

> <Color>
0.112

> <Negative vol penalty>
0.000

$$$$

  -OEChem-04052323343D

 84 93  0     1  0  0  0  0  0999 V2000
  -29.5742  -36.1917   18.5080 C   0  0  0  0  0  0  0  0  0  0  0  0
  -29.5304  -34.8122   18.3332 C   0  0  0  0  0  0  0  0  0  0  0  0
  -23.1328  -10.2483   20.5560 C   0  0  0  0  0  0  0  0  0  0  0  0
  -24.7766   -8.6347   21.2849 C   0  0  0  0  0  0  0  0  0  0  0  0
  -29.2156  -36.7496   19.7345 C   0  0  0  0  0  0  0  0  0  0  0  0
  -29.1289  -33.9897   19.3852 C   0  0  0  0  0  0  0  0  0  0  0  0
  -25.9607  -28.7651   18.9709 C   0  0  0  0  0  0  0  0  0  0  0  0
  -22.2314   -9.7565   21.5001 C   0  0  0  0  0  0  0  0  0  0  0  0
  -23.8752   -8.1429   22.2290 C   0  0  0  0  0  0  0  0  0  0  0  0
  -26.3523  -27.4270   18.9848 C   0  0  0  0  0  0  0  0  0  0  0  0
  -21.1863   -6.0940   22.2752 C   0  0  0  0  0  0  0  0  0  0  0  0
  -21.0586   -4.7097   22.3897 C   0  0  0  0  0  0  0  0  0  0  0  0
  -26.5164  -22.5088   19.6327 C   0  0  0  0  0  0  0  0  0  0  0  0
  -26.8853  -21.1877   19.8156 C   0  0  0  0  0  0  0  0  0  0  0  0
  -25.8736  -27.3177   21.3466 C   0  0  0  0  0  0  0  0  0  0  0  0
  -21.7538   -4.8367   24.7001 C   0  0  0  0  0  0  0  0  0  0  0  0
  -24.4054   -9.6873   20.4484 C   0  0  0  0  0  0  0  0  0  0  0  0
  -25.1686  -10.2313   18.0758 C   0  0  0  0  0  0  0  0  0  0  0  0
  -28.8003  -35.9341   20.7990 C   0  0  0  0  0  0  0  0  0  0  0  0
  -25.5323  -29.3935   20.1490 C   0  0  0  0  0  0  0  0  0  0  0  0
  -28.7657  -34.5371   20.6275 C   0  0  0  0  0  0  0  0  0  0  0  0
  -25.4747  -28.6631   21.3445 C   0  0  0  0  0  0  0  0  0  0  0  0
  -22.6026   -8.7038   22.3366 C   0  0  0  0  0  0  0  0  0  0  0  0
  -26.3115  -26.7040   20.1733 C   0  0  0  0  0  0  0  0  0  0  0  0
  -21.5979   -6.8496   23.3731 C   0  0  0  0  0  0  0  0  0  0  0  0
  -21.3423   -4.0811   23.6021 C   0  0  0  0  0  0  0  0  0  0  0  0
  -21.8816   -6.2209   24.5855 C   0  0  0  0  0  0  0  0  0  0  0  0
  -25.3368  -10.1945   19.4730 C   0  0  0  0  0  0  0  0  0  0  0  0
  -27.4740  -23.3889   19.1703 C   0  0  0  0  0  0  0  0  0  0  0  0
  -28.1873  -20.8341   19.5238 C   0  0  0  0  0  0  0  0  0  0  0  0
  -26.3264  -10.8013   17.6055 C   0  0  0  0  0  0  0  0  0  0  0  0
  -24.0646   -9.7896   17.2747 C   0  0  0  0  0  0  0  0  0  0  0  0
  -26.5634  -31.8493   21.8839 C   0  0  0  0  0  0  0  0  0  0  0  0
  -23.8268  -31.3228   23.5441 C   0  0  0  0  0  0  0  0  0  0  0  0
  -21.3661  -29.1415   24.4571 C   0  0  0  0  0  0  0  0  0  0  0  0
  -30.3501  -14.4870   20.0705 C   0  0  0  0  0  0  0  0  0  0  0  0
  -28.4675  -36.5796   22.1209 C   0  0  0  0  0  0  0  0  0  0  0  0
  -25.0879  -30.8300   20.1119 C   0  0  0  0  0  0  0  0  0  0  0  0
  -25.0032  -29.2857   22.6323 C   0  0  0  0  0  0  0  0  0  0  0  0
  -27.6945  -35.6652   23.0677 C   0  0  0  0  0  0  0  0  0  0  0  0
  -30.9675  -11.2735   18.6674 C   0  0  0  0  0  0  0  0  0  0  0  0
  -28.3363  -34.2822   23.1167 C   0  0  0  0  0  0  0  0  0  0  0  0
  -29.5793  -10.6359   18.5887 C   0  0  0  0  0  0  0  0  0  0  0  0
  -29.4810  -17.3945   18.8122 C   0  0  0  0  0  0  0  0  0  0  0  0
  -28.2890  -17.4196   21.0136 C   0  0  0  0  0  0  0  0  0  0  0  0
  -31.1214  -12.1380   19.9168 C   0  0  0  0  0  0  0  0  0  0  0  0
  -29.6066  -18.9172   18.8641 C   0  0  0  0  0  0  0  0  0  0  0  0
  -28.4218  -18.9409   21.0647 C   0  0  0  0  0  0  0  0  0  0  0  0
  -28.6899  -12.5282   20.0124 C   0  0  0  0  0  0  0  0  0  0  0  0
  -28.3118  -33.6134   21.7370 C   0  0  1  0  0  0  0  0  0  0  0  0
  -25.1574  -31.5124   21.4746 C   0  0  1  0  0  0  0  0  0  0  0  0
  -28.4678  -11.6918   18.7406 C   0  0  2  0  0  0  0  0  0  0  0  0
  -29.4240  -16.7852   20.2117 C   0  0  0  0  0  0  0  0  0  0  0  0
  -19.2860  -28.9902   25.8526 C   0  0  0  0  0  0  0  0  0  0  0  0
  -25.5341  -31.1776   26.0688 C   0  0  0  0  0  0  0  0  0  0  0  0
  -23.5947  -30.1064   27.2348 C   0  0  0  0  0  0  0  0  0  0  0  0
  -23.3819  -32.4233   26.3351 C   0  0  0  0  0  0  0  0  0  0  0  0
  -19.6913  -28.5096   22.1002 C   0  0  0  0  0  0  0  0  0  0  0  0
  -27.1256  -24.8320   18.9530 C   0  0  0  0  0  0  0  0  0  1  0  0
  -23.4427  -30.4710   24.7298 C   0  0  1  0  0  0  0  0  0  0  0  0
  -19.8542  -29.2771   24.4715 C   0  0  2  0  0  0  0  0  0  0  0  0
  -23.9992  -31.0331   26.0684 C   0  0  0  0  0  0  0  0  0  0  0  0
  -26.5090  -10.7008   19.8648 N   0  0  0  0  0  0  0  0  0  0  0  0
  -28.7411  -23.0151   18.8929 N   0  0  0  0  0  0  0  0  0  0  0  0
  -29.1035  -21.7165   19.0723 N   0  0  0  0  0  0  0  0  0  0  0  0
  -27.0880  -11.0610   18.7067 N   0  0  0  0  0  0  0  0  0  0  0  0
  -28.5608  -19.4974   19.7125 N   0  0  0  0  0  0  0  0  0  0  0  0
  -24.5851  -30.6947   22.5460 N   0  0  0  0  0  0  0  0  0  0  0  0
  -30.0372  -13.1195   20.0005 N   0  0  0  0  0  0  0  0  0  0  0  0
  -26.7570  -11.1008   16.3616 N   0  0  0  0  0  0  0  0  0  0  0  0
  -22.9543   -9.2272   17.9190 N   0  0  0  0  0  0  0  0  0  0  0  0
  -26.9930  -33.0898   21.4525 N   0  0  0  0  0  0  0  0  0  0  0  0
  -21.9895  -30.3489   24.6911 N   0  0  0  0  0  0  0  0  0  0  0  0
  -29.2633  -15.3500   20.1410 N   0  0  0  0  0  0  0  0  0  0  0  0
  -19.2395  -28.3254   23.5033 N   0  3  0  0  0  0  0  0  0  0  0  0
  -24.0697   -9.8757   16.0232 O   0  0  0  0  0  0  0  0  0  0  0  0
  -27.2100  -31.0441   22.5436 O   0  0  0  0  0  0  0  0  0  0  0  0
  -23.4611  -32.5002   23.5016 O   0  0  0  0  0  0  0  0  0  0  0  0
  -21.9370  -28.0708   24.2617 O   0  0  0  0  0  0  0  0  0  0  0  0
  -31.5118  -14.9081   20.0649 O   0  0  0  0  0  0  0  0  0  0  0  0
  -21.7234   -8.2239   23.2581 O   0  0  0  0  0  0  0  0  0  0  0  0
  -26.6937  -25.3980   20.1897 O   0  0  0  0  0  0  0  0  0  1  0  0
  -21.2181   -2.7519   23.7124 F   0  0  0  0  0  0  0  0  0  0  0  0
  -22.2762   -6.9417   25.6441 F   0  0  0  0  0  0  0  0  0  0  0  0
  1  2  1  0  0  0  0
  1  5  2  0  0  0  0
  2  6  2  0  0  0  0
  3  8  2  0  0  0  0
  3 17  1  0  0  0  0
  4  9  1  0  0  0  0
  4 17  2  0  0  0  0
  5 19  1  0  0  0  0
  6 21  1  0  0  0  0
  7 10  2  0  0  0  0
  7 20  1  0  0  0  0
  8 23  1  0  0  0  0
  9 23  2  0  0  0  0
 10 24  1  0  0  0  0
 11 12  2  0  0  0  0
 11 25  1  0  0  0  0
 12 26  1  0  0  0  0
 13 14  2  0  0  0  0
 13 29  1  0  0  0  0
 14 30  1  0  0  0  0
 15 22  1  0  0  0  0
 15 24  2  0  0  0  0
 16 26  2  0  0  0  0
 16 27  1  0  0  0  0
 17 28  1  0  0  0  0
 18 28  1  0  0  0  0
 18 31  2  0  0  0  0
 18 32  1  0  0  0  0
 19 21  2  0  0  0  0
 19 37  1  0  0  0  0
 20 22  2  0  0  0  0
 20 38  1  0  0  0  0
 21 50  1  0  0  0  0
 22 39  1  0  0  0  0
 23 81  1  0  0  0  0
 24 82  1  0  0  0  0
 25 27  2  0  0  0  0
 25 81  1  0  0  0  0
 26 83  1  0  0  0  0
 27 84  1  0  0  0  0
 28 63  2  0  0  0  0
 29 59  1  0  0  0  0
 29 64  2  0  0  0  0
 30 65  2  0  0  0  0
 30 67  1  0  0  0  0
 31 66  1  0  0  0  0
 31 70  1  0  0  0  0
 32 71  1  0  0  0  0
 32 76  2  0  0  0  0
 33 51  1  0  0  0  0
 33 72  1  0  0  0  0
 33 77  2  0  0  0  0
 34 60  1  0  0  0  0
 34 68  1  0  0  0  0
 34 78  2  0  0  0  0
 35 61  1  0  0  0  0
 35 73  1  0  0  0  0
 35 79  2  0  0  0  0
 36 69  1  0  0  0  0
 36 74  1  0  0  0  0
 36 80  2  0  0  0  0
 37 40  1  0  0  0  0
 38 51  1  0  0  0  0
 39 68  1  0  0  0  0
 40 42  1  0  0  0  0
 41 43  1  0  0  0  0
 41 46  1  0  0  0  0
 42 50  1  0  0  0  0
 43 52  1  0  0  0  0
 44 47  1  0  0  0  0
 44 53  1  0  0  0  0
 45 48  1  0  0  0  0
 45 53  1  0  0  0  0
 46 69  1  0  0  0  0
 47 67  1  0  0  0  0
 48 67  1  0  0  0  0
 49 52  1  0  0  0  0
 49 69  1  0  0  0  0
 50 72  1  0  0  0  0
 51 68  1  0  0  0  0
 52 66  1  0  0  0  0
 53 74  1  0  0  0  0
 54 61  1  0  0  0  0
 55 62  1  0  0  0  0
 56 62  1  0  0  0  0
 57 62  1  0  0  0  0
 58 75  1  0  0  0  0
 59 82  1  0  0  0  0
 60 62  1  0  0  0  0
 60 73  1  0  0  0  0
 61 75  1  0  0  0  0
 63 66  1  0  0  0  0
 64 65  1  0  0  0  0
M  CHG  1  75   1
M  ISO  4  36 100  59 101  74 100  82 101
M  END
> <Batch ID>
0194

> <Smiles>
CNC(C)C(=O)NC(C(=O)N1Cc2cc([101O:1][101CH2:1]c3ccc(N4CCC([100NH:0][100C:0](=O)N5CCCC(n6nc(-c7ccc(Oc8ccc(F)cc8F)cc7)c(C(N)=O)c6N)C5)CC4)nn3)ccc2CC1C(=O)NC1CCCc2ccccc21)C(C)(C)C

> <Shape>
0.295

> <Color>
0.134

> <Negative vol penalty>
0.000

$$$$

  -OEChem-04052323343D

 84 93  0     1  0  0  0  0  0999 V2000
  -16.9744  -27.4530   24.1477 C   0  0  0  0  0  0  0  0  0  0  0  0
  -17.4404  -26.7046   23.0715 C   0  0  0  0  0  0  0  0  0  0  0  0
  -26.6558  -20.4404   19.2850 C   0  0  0  0  0  0  0  0  0  0  0  0
  -28.8825  -19.5265   19.0757 C   0  0  0  0  0  0  0  0  0  0  0  0
  -17.5853  -28.6643   24.4695 C   0  0  0  0  0  0  0  0  0  0  0  0
  -18.5169  -27.1677   22.3158 C   0  0  0  0  0  0  0  0  0  0  0  0
  -22.8791  -23.7847   19.6638 C   0  0  0  0  0  0  0  0  0  0  0  0
  -27.1809  -21.7316   19.2337 C   0  0  0  0  0  0  0  0  0  0  0  0
  -29.4076  -20.8178   19.0243 C   0  0  0  0  0  0  0  0  0  0  0  0
  -23.0479  -23.3286   18.3572 C   0  0  0  0  0  0  0  0  0  0  0  0
  -29.7228  -23.2876   16.7394 C   0  0  0  0  0  0  0  0  0  0  0  0
  -30.6887  -23.5547   15.7692 C   0  0  0  0  0  0  0  0  0  0  0  0
  -28.3270  -21.0119   12.2661 C   0  0  0  0  0  0  0  0  0  0  0  0
  -24.4800  -25.2129   17.8909 C   0  0  0  0  0  0  0  0  0  0  0  0
  -32.2676  -24.1392   17.5020 C   0  0  0  0  0  0  0  0  0  0  0  0
  -28.1757  -22.3949   12.0513 C   0  0  0  0  0  0  0  0  0  0  0  0
  -27.5066  -19.3378   19.2061 C   0  0  0  0  0  0  0  0  0  0  0  0
  -26.2199  -17.4302   20.3074 C   0  0  0  0  0  0  0  0  0  0  0  0
  -18.6760  -29.1378   23.7233 C   0  0  0  0  0  0  0  0  0  0  0  0
  -23.5018  -24.9662   20.0913 C   0  0  0  0  0  0  0  0  0  0  0  0
  -19.1421  -28.3871   22.6271 C   0  0  0  0  0  0  0  0  0  0  0  0
  -24.3196  -25.6805   19.2042 C   0  0  0  0  0  0  0  0  0  0  0  0
  -28.5567  -21.9203   19.1033 C   0  0  0  0  0  0  0  0  0  0  0  0
  -23.8461  -24.0443   17.4697 C   0  0  0  0  0  0  0  0  0  0  0  0
  -30.0292  -23.4464   18.0909 C   0  0  0  0  0  0  0  0  0  0  0  0
  -31.9611  -23.9804   16.1505 C   0  0  0  0  0  0  0  0  0  0  0  0
  -31.3016  -23.8722   18.4722 C   0  0  0  0  0  0  0  0  0  0  0  0
  -26.9649  -18.0037   19.2596 C   0  0  0  0  0  0  0  0  0  0  0  0
  -27.6207  -20.7639   13.4176 C   0  0  0  0  0  0  0  0  0  0  0  0
  -25.9439  -16.1561   19.8750 C   0  0  0  0  0  0  0  0  0  0  0  0
  -25.8135  -17.9984   21.5595 C   0  0  0  0  0  0  0  0  0  0  0  0
  -22.4805  -27.7782   21.1652 C   0  0  0  0  0  0  0  0  0  0  0  0
  -25.6442  -28.3014   21.6546 C   0  0  0  0  0  0  0  0  0  0  0  0
  -28.8678  -27.5432   20.8297 C   0  0  0  0  0  0  0  0  0  0  0  0
  -28.1533  -16.4863   14.8283 C   0  0  0  0  0  0  0  0  0  0  0  0
  -19.2736  -30.4758   24.0801 C   0  0  0  0  0  0  0  0  0  0  0  0
  -23.3312  -25.4304   21.5118 C   0  0  0  0  0  0  0  0  0  0  0  0
  -25.0264  -26.9439   19.6197 C   0  0  0  0  0  0  0  0  0  0  0  0
  -20.6479  -30.7140   23.4597 C   0  0  0  0  0  0  0  0  0  0  0  0
  -28.9700  -14.2305   17.4761 C   0  0  0  0  0  0  0  0  0  0  0  0
  -25.9275  -16.8670   11.9910 C   0  0  0  0  0  0  0  0  0  0  0  0
  -20.6401  -30.3330   21.9827 C   0  0  0  0  0  0  0  0  0  0  0  0
  -27.6281  -13.8441   18.0882 C   0  0  0  0  0  0  0  0  0  0  0  0
  -26.2625  -18.3327   12.2290 C   0  0  0  0  0  0  0  0  0  0  0  0
  -28.8411  -14.4092   15.9713 C   0  0  0  0  0  0  0  0  0  0  0  0
  -26.0725  -16.2633   13.3793 C   0  0  0  0  0  0  0  0  0  0  0  0
  -26.4798  -15.1525   16.2117 C   0  0  0  0  0  0  0  0  0  0  0  0
  -20.3232  -28.8439   21.7987 C   0  0  1  0  0  0  0  0  0  0  0  0
  -23.5984  -26.9219   21.6892 C   0  0  1  0  0  0  0  0  0  0  0  0
  -26.5081  -14.8318   17.7240 C   0  0  2  0  0  0  0  0  0  0  0  0
  -27.3919  -18.2719   13.2611 C   0  0  1  0  0  0  0  0  0  0  0  0
  -31.3735  -27.5692   20.9645 C   0  0  0  0  0  0  0  0  0  0  0  0
  -25.3428  -30.8682   20.0326 C   0  0  0  0  0  0  0  0  0  0  0  0
  -27.8351  -30.9336   19.8036 C   0  0  0  0  0  0  0  0  0  0  0  0
  -26.7877  -31.0807   22.0628 C   0  0  0  0  0  0  0  0  0  0  0  0
  -28.9020  -25.3131   22.7750 C   0  0  0  0  0  0  0  0  0  0  0  0
  -27.3889  -19.4867   14.1801 C   0  0  0  0  0  0  0  0  0  0  0  0
  -24.8219  -21.8299   14.7865 C   0  0  0  0  0  0  0  0  0  0  0  0
  -26.2888  -22.2261   14.9678 C   0  0  0  0  0  0  0  0  0  0  0  0
  -23.9461  -22.1931   15.9800 C   0  0  0  0  0  0  0  0  0  1  0  0
  -26.7733  -28.8727   20.8313 C   0  0  1  0  0  0  0  0  0  0  0  0
  -30.0798  -27.2287   21.6879 C   0  0  2  0  0  0  0  0  0  0  0  0
  -26.6700  -30.4161   20.6739 C   0  0  0  0  0  0  0  0  0  0  0  0
  -27.4315  -22.9842   12.9909 N   0  0  0  0  0  0  0  0  0  0  0  0
  -27.1506  -17.1629   18.2386 N   0  0  0  0  0  0  0  0  0  0  0  0
  -27.1088  -21.9666   13.8072 N   0  0  0  0  0  0  0  0  0  0  0  0
  -26.5184  -16.0480   18.6427 N   0  0  0  0  0  0  0  0  0  0  0  0
  -24.8233  -27.3605   21.0171 N   0  0  0  0  0  0  0  0  0  0  0  0
  -27.8067  -15.3832   15.6226 N   0  0  0  0  0  0  0  0  0  0  0  0
  -27.1720  -17.0149   13.9865 N   0  0  0  0  0  0  0  0  0  0  0  0
  -25.2685  -15.1288   20.4326 N   0  0  0  0  0  0  0  0  0  0  0  0
  -26.6658  -17.8610   22.6635 N   0  0  0  0  0  0  0  0  0  0  0  0
  -21.4895  -28.0390   22.0923 N   0  0  0  0  0  0  0  0  0  0  0  0
  -28.0083  -28.4175   21.4606 N   0  0  0  0  0  0  0  0  0  0  0  0
  -30.1045  -25.7805   22.0385 N   0  3  0  0  0  0  0  0  0  0  0  0
  -24.7192  -18.5955   21.6992 O   0  0  0  0  0  0  0  0  0  0  0  0
  -22.5152  -28.1744   20.0061 O   0  0  0  0  0  0  0  0  0  0  0  0
  -25.5004  -28.6710   22.8227 O   0  0  0  0  0  0  0  0  0  0  0  0
  -28.7021  -27.0644   19.7100 O   0  0  0  0  0  0  0  0  0  0  0  0
  -29.2919  -16.9716   14.8618 O   0  0  0  0  0  0  0  0  0  0  0  0
  -29.0694  -23.1801   19.0529 O   0  0  0  0  0  0  0  0  0  0  0  0
  -24.0132  -23.5986   16.1846 O   0  0  0  0  0  0  0  0  0  1  0  0
  -32.8891  -24.2354   15.2188 F   0  0  0  0  0  0  0  0  0  0  0  0
  -31.6022  -24.0254   19.7691 F   0  0  0  0  0  0  0  0  0  0  0  0
  1  2  1  0  0  0  0
  1  5  2  0  0  0  0
  2  6  2  0  0  0  0
  3  8  2  0  0  0  0
  3 17  1  0  0  0  0
  4  9  1  0  0  0  0
  4 17  2  0  0  0  0
  5 19  1  0  0  0  0
  6 21  1  0  0  0  0
  7 10  2  0  0  0  0
  7 20  1  0  0  0  0
  8 23  1  0  0  0  0
  9 23  2  0  0  0  0
 10 24  1  0  0  0  0
 11 12  2  0  0  0  0
 11 25  1  0  0  0  0
 12 26  1  0  0  0  0
 13 16  1  0  0  0  0
 13 29  2  0  0  0  0
 14 22  1  0  0  0  0
 14 24  2  0  0  0  0
 15 26  2  0  0  0  0
 15 27  1  0  0  0  0
 16 64  2  0  0  0  0
 17 28  1  0  0  0  0
 18 28  1  0  0  0  0
 18 30  2  0  0  0  0
 18 31  1  0  0  0  0
 19 21  2  0  0  0  0
 19 36  1  0  0  0  0
 20 22  2  0  0  0  0
 20 37  1  0  0  0  0
 21 48  1  0  0  0  0
 22 38  1  0  0  0  0
 23 81  1  0  0  0  0
 24 82  1  0  0  0  0
 25 27  2  0  0  0  0
 25 81  1  0  0  0  0
 26 83  1  0  0  0  0
 27 84  1  0  0  0  0
 28 65  2  0  0  0  0
 29 57  1  0  0  0  0
 29 66  1  0  0  0  0
 30 67  1  0  0  0  0
 30 71  1  0  0  0  0
 31 72  1  0  0  0  0
 31 76  2  0  0  0  0
 32 49  1  0  0  0  0
 32 73  1  0  0  0  0
 32 77  2  0  0  0  0
 33 61  1  0  0  0  0
 33 68  1  0  0  0  0
 33 78  2  0  0  0  0
 34 62  1  0  0  0  0
 34 74  1  0  0  0  0
 34 79  2  0  0  0  0
 35 69  1  0  0  0  0
 35 70  1  0  0  0  0
 35 80  2  0  0  0  0
 36 39  1  0  0  0  0
 37 49  1  0  0  0  0
 38 68  1  0  0  0  0
 39 42  1  0  0  0  0
 40 43  1  0  0  0  0
 40 45  1  0  0  0  0
 41 44  1  0  0  0  0
 41 46  1  0  0  0  0
 42 48  1  0  0  0  0
 43 50  1  0  0  0  0
 44 51  1  0  0  0  0
 45 69  1  0  0  0  0
 46 70  1  0  0  0  0
 47 50  1  0  0  0  0
 47 69  1  0  0  0  0
 48 73  1  0  0  0  0
 49 68  1  0  0  0  0
 50 67  1  0  0  0  0
 51 57  1  0  0  0  0
 51 70  1  0  0  0  0
 52 62  1  0  0  0  0
 53 63  1  0  0  0  0
 54 63  1  0  0  0  0
 55 63  1  0  0  0  0
 56 75  1  0  0  0  0
 58 59  1  0  0  0  0
 58 60  1  0  0  0  0
 59 66  1  0  0  0  0
 60 82  1  0  0  0  0
 61 63  1  0  0  0  0
 61 74  1  0  0  0  0
 62 75  1  0  0  0  0
 64 66  1  0  0  0  0
 65 67  1  0  0  0  0
M  CHG  1  75   1
M  ISO  4  35 100  60 101  70 100  82 101
M  END
> <Batch ID>
0194

> <Smiles>
CNC(C)C(=O)NC(C(=O)N1Cc2cc([101O:1][101CH2:1]CCn3nccc3CC3CCC[100N:0]3[100C:0](=O)N3CCCC(n4nc(-c5ccc(Oc6ccc(F)cc6F)cc5)c(C(N)=O)c4N)C3)ccc2CC1C(=O)NC1CCCc2ccccc21)C(C)(C)C

> <Shape>
0.187

> <Color>
0.079

> <Negative vol penalty>
0.000

$$$$

  -OEChem-04052323343D

 80 89  0     1  0  0  0  0  0999 V2000
  -27.7526  -36.8489   17.5120 C   0  0  0  0  0  0  0  0  0  0  0  0
  -28.1881  -35.5293   17.4457 C   0  0  0  0  0  0  0  0  0  0  0  0
  -23.6146  -10.0229   22.2856 C   0  0  0  0  0  0  0  0  0  0  0  0
  -23.3792   -9.7687   19.8945 C   0  0  0  0  0  0  0  0  0  0  0  0
  -27.0198  -37.2853   18.6150 C   0  0  0  0  0  0  0  0  0  0  0  0
  -27.8919  -34.6456   18.4828 C   0  0  0  0  0  0  0  0  0  0  0  0
  -26.4529  -27.7321   19.6867 C   0  0  0  0  0  0  0  0  0  0  0  0
  -22.7317   -8.9618   22.4854 C   0  0  0  0  0  0  0  0  0  0  0  0
  -22.4962   -8.7075   20.0943 C   0  0  0  0  0  0  0  0  0  0  0  0
  -26.8710  -26.6680   20.4846 C   0  0  0  0  0  0  0  0  0  0  0  0
  -22.8331   -5.5836   22.3819 C   0  0  0  0  0  0  0  0  0  0  0  0
  -23.1796   -4.6220   23.3310 C   0  0  0  0  0  0  0  0  0  0  0  0
  -25.5303  -27.5127   22.3034 C   0  0  0  0  0  0  0  0  0  0  0  0
  -21.1678   -5.1219   24.5720 C   0  0  0  0  0  0  0  0  0  0  0  0
  -23.9384  -10.4264   20.9901 C   0  0  0  0  0  0  0  0  0  0  0  0
  -26.2499  -11.4515   20.6526 C   0  0  0  0  0  0  0  0  0  0  0  0
  -26.7062  -36.4040   19.6616 C   0  0  0  0  0  0  0  0  0  0  0  0
  -25.5774  -28.7021   20.1956 C   0  0  0  0  0  0  0  0  0  0  0  0
  -27.1554  -35.0709   19.6014 C   0  0  0  0  0  0  0  0  0  0  0  0
  -25.1005  -28.5868   21.5091 C   0  0  0  0  0  0  0  0  0  0  0  0
  -22.1725   -8.3041   21.3898 C   0  0  0  0  0  0  0  0  0  0  0  0
  -26.4120  -26.5597   21.7941 C   0  0  0  0  0  0  0  0  0  0  0  0
  -21.6540   -6.3145   22.5279 C   0  0  0  0  0  0  0  0  0  0  0  0
  -22.3470   -4.3911   24.4260 C   0  0  0  0  0  0  0  0  0  0  0  0
  -20.8214   -6.0836   23.6229 C   0  0  0  0  0  0  0  0  0  0  0  0
  -24.8500  -11.5229   20.7831 C   0  0  0  0  0  0  0  0  0  0  0  0
  -26.6450  -12.7548   20.4743 C   0  0  0  0  0  0  0  0  0  0  0  0
  -27.1156  -10.3093   20.6893 C   0  0  0  0  0  0  0  0  0  0  0  0
  -25.7504  -31.8354   20.7017 C   0  0  0  0  0  0  0  0  0  0  0  0
  -22.6144  -31.4927   21.4569 C   0  0  0  0  0  0  0  0  0  0  0  0
  -20.0959  -29.4470   22.5149 C   0  0  0  0  0  0  0  0  0  0  0  0
  -26.2169  -18.0350   22.2711 C   0  0  0  0  0  0  0  0  0  0  0  0
  -25.9521  -36.9338   20.8555 C   0  0  0  0  0  0  0  0  0  0  0  0
  -25.1148  -29.8292   19.3135 C   0  0  0  0  0  0  0  0  0  0  0  0
  -24.1436  -29.5906   22.0964 C   0  0  0  0  0  0  0  0  0  0  0  0
  -25.3590  -35.8376   21.7369 C   0  0  0  0  0  0  0  0  0  0  0  0
  -23.9417  -16.9272   19.5598 C   0  0  0  0  0  0  0  0  0  0  0  0
  -26.3928  -34.7475   22.0013 C   0  0  0  0  0  0  0  0  0  0  0  0
  -24.0685  -15.4067   19.6641 C   0  0  0  0  0  0  0  0  0  0  0  0
  -26.8698  -21.1817   20.4869 C   0  0  0  0  0  0  0  0  0  0  0  0
  -28.6837  -24.3878   23.5940 C   0  0  0  0  0  0  0  0  0  0  0  0
  -24.1254  -17.5840   20.9217 C   0  0  0  0  0  0  0  0  0  0  0  0
  -26.0136  -19.9206   20.5456 C   0  0  0  0  0  0  0  0  0  0  0  0
  -25.5447  -15.7278   21.7072 C   0  0  0  0  0  0  0  0  0  0  0  0
  -26.9194  -20.3684   22.7269 C   0  0  0  0  0  0  0  0  0  0  0  0
  -27.9890  -23.0436   23.6778 C   0  0  0  0  0  0  0  0  0  0  0  0
  -28.0166  -23.8158   21.3534 C   0  0  0  0  0  0  0  0  0  0  0  0
  -26.8328  -34.0758   20.6949 C   0  0  1  0  0  0  0  0  0  0  0  0
  -24.6256  -31.0414   20.1001 C   0  0  1  0  0  0  0  0  0  0  0  0
  -25.3821  -15.0039   20.3588 C   0  0  1  0  0  0  0  0  0  0  0  0
  -26.8203  -21.6571   21.9313 C   0  0  1  0  0  0  0  0  0  0  0  0
  -28.1170  -24.9868   22.3184 C   0  0  1  0  0  0  0  0  0  1  0  0
  -17.6495  -29.4615   23.0735 C   0  0  0  0  0  0  0  0  0  0  0  0
  -23.2299  -32.8768   24.1056 C   0  0  0  0  0  0  0  0  0  0  0  0
  -21.0440  -32.0243   24.9791 C   0  0  0  0  0  0  0  0  0  0  0  0
  -21.0844  -33.5841   23.0328 C   0  0  0  0  0  0  0  0  0  0  0  0
  -19.4823  -27.4715   20.3984 C   0  0  0  0  0  0  0  0  0  0  0  0
  -21.8457  -31.1934   22.7213 C   0  0  1  0  0  0  0  0  0  0  0  0
  -18.6891  -29.2265   21.9888 C   0  0  2  0  0  0  0  0  0  0  0  0
  -21.8205  -32.4016   23.6996 C   0  0  0  0  0  0  0  0  0  0  0  0
  -24.3870  -12.7727   20.6953 N   0  0  0  0  0  0  0  0  0  0  0  0
  -25.5023  -13.4987   20.5078 N   0  0  0  0  0  0  0  0  0  0  0  0
  -23.7254  -30.6781   21.1964 N   0  0  0  0  0  0  0  0  0  0  0  0
  -25.3888  -17.1746   21.5414 N   0  0  0  0  0  0  0  0  0  0  0  0
  -26.2567  -19.3739   21.8847 N   0  0  0  0  0  0  0  0  0  0  0  0
  -27.8549  -13.3256   20.2937 N   0  0  0  0  0  0  0  0  0  0  0  0
  -26.5444   -9.0438   20.8809 N   0  0  0  0  0  0  0  0  0  0  0  0
  -25.8268  -33.1375   20.2454 N   0  0  0  0  0  0  0  0  0  0  0  0
  -20.5254  -30.7393   22.2985 N   0  0  0  0  0  0  0  0  0  0  0  0
  -27.9373  -22.5664   22.2353 N   0  3  2  0  0  0  0  0  0  0  0  0
  -18.5368  -27.8318   21.4861 N   0  3  0  0  0  0  0  0  0  0  0  0
  -28.3606  -10.4096   20.5725 O   0  0  0  0  0  0  0  0  0  0  0  0
  -26.4930  -31.3064   21.5205 O   0  0  0  0  0  0  0  0  0  0  0  0
  -22.2386  -32.4108   20.7237 O   0  0  0  0  0  0  0  0  0  0  0  0
  -20.7472  -28.5625   23.0662 O   0  0  0  0  0  0  0  0  0  0  0  0
  -26.9264  -17.6165   23.1955 O   0  0  0  0  0  0  0  0  0  0  0  0
  -21.3111   -7.2684   21.5844 O   0  0  0  0  0  0  0  0  0  0  0  0
  -26.8218  -25.5156   22.5803 O   0  0  0  0  0  0  0  0  0  1  0  0
  -22.6790   -3.4665   25.3365 F   0  0  0  0  0  0  0  0  0  0  0  0
  -19.6868   -6.7818   23.7679 F   0  0  0  0  0  0  0  0  0  0  0  0
  1  2  1  0  0  0  0
  1  5  2  0  0  0  0
  2  6  2  0  0  0  0
  3  8  2  0  0  0  0
  3 15  1  0  0  0  0
  4  9  1  0  0  0  0
  4 15  2  0  0  0  0
  5 17  1  0  0  0  0
  6 19  1  0  0  0  0
  7 10  2  0  0  0  0
  7 18  1  0  0  0  0
  8 21  1  0  0  0  0
  9 21  2  0  0  0  0
 10 22  1  0  0  0  0
 11 12  2  0  0  0  0
 11 23  1  0  0  0  0
 12 24  1  0  0  0  0
 13 20  1  0  0  0  0
 13 22  2  0  0  0  0
 14 24  2  0  0  0  0
 14 25  1  0  0  0  0
 15 26  1  0  0  0  0
 16 26  1  0  0  0  0
 16 27  2  0  0  0  0
 16 28  1  0  0  0  0
 17 19  2  0  0  0  0
 17 33  1  0  0  0  0
 18 20  2  0  0  0  0
 18 34  1  0  0  0  0
 19 48  1  0  0  0  0
 20 35  1  0  0  0  0
 21 77  1  0  0  0  0
 22 78  1  0  0  0  0
 23 25  2  0  0  0  0
 23 77  1  0  0  0  0
 24 79  1  0  0  0  0
 25 80  1  0  0  0  0
 26 61  2  0  0  0  0
 27 62  1  0  0  0  0
 27 66  1  0  0  0  0
 28 67  1  0  0  0  0
 28 72  2  0  0  0  0
 29 49  1  0  0  0  0
 29 68  1  0  0  0  0
 29 73  2  0  0  0  0
 30 58  1  0  0  0  0
 30 63  1  0  0  0  0
 30 74  2  0  0  0  0
 31 59  1  0  0  0  0
 31 69  1  0  0  0  0
 31 75  2  0  0  0  0
 32 64  1  0  0  0  0
 32 65  1  0  0  0  0
 32 76  2  0  0  0  0
 33 36  1  0  0  0  0
 34 49  1  0  0  0  0
 35 63  1  0  0  0  0
 36 38  1  0  0  0  0
 37 39  1  0  0  0  0
 37 42  1  0  0  0  0
 38 48  1  0  0  0  0
 39 50  1  0  0  0  0
 40 43  1  0  0  0  0
 40 51  1  0  0  0  0
 41 46  1  0  0  0  0
 41 52  1  0  0  0  0
 42 64  1  0  0  0  0
 43 65  1  0  0  0  0
 44 50  1  0  0  0  0
 44 64  1  0  0  0  0
 45 51  1  0  0  0  0
 45 65  1  0  0  0  0
 46 70  1  0  0  0  0
 47 52  1  0  0  0  0
 47 70  1  0  0  0  0
 48 68  1  0  0  0  0
 49 63  1  0  0  0  0
 50 62  1  0  0  0  0
 51 70  1  0  0  0  0
 52 78  1  0  0  0  0
 53 59  1  0  0  0  0
 54 60  1  0  0  0  0
 55 60  1  0  0  0  0
 56 60  1  0  0  0  0
 57 71  1  0  0  0  0
 58 60  1  0  0  0  0
 58 69  1  0  0  0  0
 59 71  1  0  0  0  0
 61 62  1  0  0  0  0
M  CHG  2  70   1  71   1
M  ISO  4  32 100  52 101  65 100  78 101
M  END
> <Batch ID>
0194

> <Smiles>
CNC(C)C(=O)NC(C(=O)N1Cc2cc([101O:1][101CH:1]3CCN(C4CC[100N:0]([100C:0](=O)N5CCCC(n6nc(-c7ccc(Oc8ccc(F)cc8F)cc7)c(C(N)=O)c6N)C5)C4)C3)ccc2CC1C(=O)NC1CCCc2ccccc21)C(C)(C)C

> <Shape>
0.236

> <Color>
0.091

> <Negative vol penalty>
0.000

$$$$

  -OEChem-04052323343D

 88 97  0     1  0  0  0  0  0999 V2000
  -27.0726  -32.1818   27.4557 C   0  0  0  0  0  0  0  0  0  0  0  0
  -27.4598  -31.1602   26.5943 C   0  0  0  0  0  0  0  0  0  0  0  0
  -23.3367   -9.7780   20.0196 C   0  0  0  0  0  0  0  0  0  0  0  0
  -24.1177   -9.9557   22.2990 C   0  0  0  0  0  0  0  0  0  0  0  0
  -25.7190  -32.4567   27.6452 C   0  0  0  0  0  0  0  0  0  0  0  0
  -26.4933  -30.4123   25.9226 C   0  0  0  0  0  0  0  0  0  0  0  0
  -27.6233  -29.7193   21.0351 C   0  0  0  0  0  0  0  0  0  0  0  0
  -22.7556   -8.5448   20.3149 C   0  0  0  0  0  0  0  0  0  0  0  0
  -23.5365   -8.7225   22.5943 C   0  0  0  0  0  0  0  0  0  0  0  0
  -28.5754  -28.7465   20.7335 C   0  0  0  0  0  0  0  0  0  0  0  0
  -20.4506   -7.5238   23.2727 C   0  0  0  0  0  0  0  0  0  0  0  0
  -19.7204   -7.4201   24.4566 C   0  0  0  0  0  0  0  0  0  0  0  0
  -26.8102  -27.2047   20.1623 C   0  0  0  0  0  0  0  0  0  0  0  0
  -21.2169   -5.6873   25.2278 C   0  0  0  0  0  0  0  0  0  0  0  0
  -24.0179  -10.4834   21.0117 C   0  0  0  0  0  0  0  0  0  0  0  0
  -24.0202  -13.0267   20.8135 C   0  0  0  0  0  0  0  0  0  0  0  0
  -24.7357  -31.7182   26.9681 C   0  0  0  0  0  0  0  0  0  0  0  0
  -26.2549  -29.4381   20.9128 C   0  0  0  0  0  0  0  0  0  0  0  0
  -25.1252  -30.6768   26.1043 C   0  0  0  0  0  0  0  0  0  0  0  0
  -25.8428  -28.1765   20.4605 C   0  0  0  0  0  0  0  0  0  0  0  0
  -22.8554   -8.0171   21.6022 C   0  0  0  0  0  0  0  0  0  0  0  0
  -28.1688  -27.4881   20.2997 C   0  0  0  0  0  0  0  0  0  0  0  0
  -21.5639   -6.7092   23.0663 C   0  0  0  0  0  0  0  0  0  0  0  0
  -20.1036   -6.5019   25.4342 C   0  0  0  0  0  0  0  0  0  0  0  0
  -21.9471   -5.7910   24.0439 C   0  0  0  0  0  0  0  0  0  0  0  0
  -24.6189  -11.7570   20.7071 C   0  0  0  0  0  0  0  0  0  0  0  0
  -24.9986  -13.9025   20.4108 C   0  0  0  0  0  0  0  0  0  0  0  0
  -22.6979  -13.3826   21.2384 C   0  0  0  0  0  0  0  0  0  0  0  0
  -23.7955  -29.3452   22.9244 C   0  0  0  0  0  0  0  0  0  0  0  0
  -22.0910  -28.8739   20.2051 C   0  0  0  0  0  0  0  0  0  0  0  0
  -22.0445  -27.8112   16.9623 C   0  0  0  0  0  0  0  0  0  0  0  0
  -30.4750  -15.3504   20.9335 C   0  0  0  0  0  0  0  0  0  0  0  0
  -23.2837  -32.0211   27.2413 C   0  0  0  0  0  0  0  0  0  0  0  0
  -25.2411  -30.5069   21.2166 C   0  0  0  0  0  0  0  0  0  0  0  0
  -24.3865  -27.8308   20.2931 C   0  0  0  0  0  0  0  0  0  0  0  0
  -22.3325  -31.4286   26.2048 C   0  0  0  0  0  0  0  0  0  0  0  0
  -29.4521  -13.0931   18.1768 C   0  0  0  0  0  0  0  0  0  0  0  0
  -22.6926  -29.9741   25.9194 C   0  0  0  0  0  0  0  0  0  0  0  0
  -28.0863  -12.5960   18.6469 C   0  0  0  0  0  0  0  0  0  0  0  0
  -30.7742  -18.2561   22.8054 C   0  0  0  0  0  0  0  0  0  0  0  0
  -28.7524  -18.4020   21.2977 C   0  0  0  0  0  0  0  0  0  0  0  0
  -30.3554  -13.4613   19.3496 C   0  0  0  0  0  0  0  0  0  0  0  0
  -30.5042  -16.7626   22.9681 C   0  0  0  0  0  0  0  0  0  0  0  0
  -28.5374  -16.8954   21.4696 C   0  0  0  0  0  0  0  0  0  0  0  0
  -28.3817  -13.9483   20.7601 C   0  0  0  0  0  0  0  0  0  0  0  0
  -29.0627  -22.8123   22.1289 C   0  0  0  0  0  0  0  0  0  0  0  0
  -30.3696  -20.6023   20.8458 C   0  0  0  0  0  0  0  0  0  0  0  0
  -24.1072  -29.8597   25.3387 C   0  0  1  0  0  0  0  0  0  0  0  0
  -23.8620  -29.9454   21.5485 C   0  0  1  0  0  0  0  0  0  0  0  0
  -27.4327  -13.6111   19.6002 C   0  0  2  0  0  0  0  0  0  0  0  0
  -29.4724  -18.9967   22.5061 C   0  0  0  0  0  0  0  0  0  0  0  0
  -30.7907  -22.0584   20.6081 C   0  0  1  0  0  0  0  0  0  0  0  0
  -28.5980  -21.3788   22.4200 C   0  0  2  0  0  0  0  0  0  0  0  0
  -28.0637  -21.2845   23.8481 C   0  0  0  0  0  0  0  0  0  0  0  0
  -20.4973  -27.5117   15.0095 C   0  0  0  0  0  0  0  0  0  0  0  0
  -32.6417  -21.2604   19.1114 C   0  0  0  0  0  0  0  0  0  0  0  0
  -30.3764  -21.7586   18.1503 C   0  0  0  0  0  0  0  0  0  0  0  0
  -20.9117  -26.3879   21.5238 C   0  0  0  0  0  0  0  0  0  0  0  0
  -20.1497  -25.6343   19.2611 C   0  0  0  0  0  0  0  0  0  0  0  0
  -19.2704  -27.7593   20.2277 C   0  0  0  0  0  0  0  0  0  0  0  0
  -23.6022  -29.6926   15.2911 C   0  0  0  0  0  0  0  0  0  0  0  0
  -29.9602  -24.3610   20.5375 C   0  0  0  0  0  0  0  0  0  0  0  0
  -28.7193  -25.1763   20.2075 C   0  0  0  0  0  0  0  0  0  1  0  0
  -21.6606  -27.6657   19.4089 C   0  0  1  0  0  0  0  0  0  0  0  0
  -21.4790  -28.4432   15.7032 C   0  0  2  0  0  0  0  0  0  0  0  0
  -31.4060  -22.1478   19.2044 C   0  0  0  0  0  0  0  0  0  0  0  0
  -20.5256  -26.8674   20.1103 C   0  0  0  0  0  0  0  0  0  0  0  0
  -25.8799  -11.8165   20.2709 N   0  0  0  0  0  0  0  0  0  0  0  0
  -26.0816  -13.1340   20.0996 N   0  0  0  0  0  0  0  0  0  0  0  0
  -23.4332  -28.9075   20.6088 N   0  0  0  0  0  0  0  0  0  0  0  0
  -29.6953  -14.3902   20.2671 N   0  0  0  0  0  0  0  0  0  0  0  0
  -29.8021  -16.2229   21.8022 N   0  0  0  0  0  0  0  0  0  0  0  0
  -29.6278  -22.9538   20.7773 N   0  0  2  0  0  0  0  0  0  0  0  0
  -25.0297  -15.2472   20.2961 N   0  0  0  0  0  0  0  0  0  0  0  0
  -21.8198  -12.3584   21.6183 N   0  0  0  0  0  0  0  0  0  0  0  0
  -24.1105  -30.2285   23.9393 N   0  0  0  0  0  0  0  0  0  0  0  0
  -21.3131  -28.1555   18.0794 N   0  0  0  0  0  0  0  0  0  0  0  0
  -29.7828  -20.4468   22.2306 N   0  3  2  0  0  0  0  0  0  0  0  0
  -22.5763  -28.7656   14.7478 N   0  3  0  0  0  0  0  0  0  0  0  0
  -22.3013  -14.5724   21.2642 O   0  0  0  0  0  0  0  0  0  0  0  0
  -23.4802  -28.1683   23.0556 O   0  0  0  0  0  0  0  0  0  0  0  0
  -21.2683  -29.7589   20.4533 O   0  0  0  0  0  0  0  0  0  0  0  0
  -23.0338  -27.0819   16.9551 O   0  0  0  0  0  0  0  0  0  0  0  0
  -31.6980  -15.4237   20.7599 O   0  0  0  0  0  0  0  0  0  0  0  0
  -22.2883   -6.8139   21.8907 O   0  0  0  0  0  0  0  0  0  0  0  0
  -29.1027  -26.5297   20.0031 O   0  0  0  0  0  0  0  0  0  1  0  0
  -19.4032   -6.4035   26.5717 F   0  0  0  0  0  0  0  0  0  0  0  0
  -23.0165   -5.0065   23.8518 F   0  0  0  0  0  0  0  0  0  0  0  0
  1  2  1  0  0  0  0
  1  5  2  0  0  0  0
  2  6  2  0  0  0  0
  3  8  2  0  0  0  0
  3 15  1  0  0  0  0
  4  9  1  0  0  0  0
  4 15  2  0  0  0  0
  5 17  1  0  0  0  0
  6 19  1  0  0  0  0
  7 10  2  0  0  0  0
  7 18  1  0  0  0  0
  8 21  1  0  0  0  0
  9 21  2  0  0  0  0
 10 22  1  0  0  0  0
 11 12  2  0  0  0  0
 11 23  1  0  0  0  0
 12 24  1  0  0  0  0
 13 20  1  0  0  0  0
 13 22  2  0  0  0  0
 14 24  2  0  0  0  0
 14 25  1  0  0  0  0
 15 26  1  0  0  0  0
 16 26  1  0  0  0  0
 16 27  2  0  0  0  0
 16 28  1  0  0  0  0
 17 19  2  0  0  0  0
 17 33  1  0  0  0  0
 18 20  2  0  0  0  0
 18 34  1  0  0  0  0
 19 48  1  0  0  0  0
 20 35  1  0  0  0  0
 21 85  1  0  0  0  0
 22 86  1  0  0  0  0
 23 25  2  0  0  0  0
 23 85  1  0  0  0  0
 24 87  1  0  0  0  0
 25 88  1  0  0  0  0
 26 68  2  0  0  0  0
 27 69  1  0  0  0  0
 27 74  1  0  0  0  0
 28 75  1  0  0  0  0
 28 80  2  0  0  0  0
 29 49  1  0  0  0  0
 29 76  1  0  0  0  0
 29 81  2  0  0  0  0
 30 64  1  0  0  0  0
 30 70  1  0  0  0  0
 30 82  2  0  0  0  0
 31 65  1  0  0  0  0
 31 77  1  0  0  0  0
 31 83  2  0  0  0  0
 32 71  1  0  0  0  0
 32 72  1  0  0  0  0
 32 84  2  0  0  0  0
 33 36  1  0  0  0  0
 34 49  1  0  0  0  0
 35 70  1  0  0  0  0
 36 38  1  0  0  0  0
 37 39  1  0  0  0  0
 37 42  1  0  0  0  0
 38 48  1  0  0  0  0
 39 50  1  0  0  0  0
 40 43  1  0  0  0  0
 40 51  1  0  0  0  0
 41 44  1  0  0  0  0
 41 51  1  0  0  0  0
 42 71  1  0  0  0  0
 43 72  1  0  0  0  0
 44 72  1  0  0  0  0
 45 50  1  0  0  0  0
 45 71  1  0  0  0  0
 46 53  1  0  0  0  0
 46 73  1  0  0  0  0
 47 52  1  0  0  0  0
 47 78  1  0  0  0  0
 48 76  1  0  0  0  0
 49 70  1  0  0  0  0
 50 69  1  0  0  0  0
 51 78  1  0  0  0  0
 52 66  1  0  0  0  0
 52 73  1  0  0  0  0
 53 54  1  0  0  0  0
 53 78  1  0  0  0  0
 55 65  1  0  0  0  0
 56 66  1  0  0  0  0
 57 66  1  0  0  0  0
 58 67  1  0  0  0  0
 59 67  1  0  0  0  0
 60 67  1  0  0  0  0
 61 79  1  0  0  0  0
 62 63  1  0  0  0  0
 62 73  1  0  0  0  0
 63 86  1  0  0  0  0
 64 67  1  0  0  0  0
 64 77  1  0  0  0  0
 65 79  1  0  0  0  0
 68 69  1  0  0  0  0
M  CHG  2  78   1  79   1
M  ISO  4  32 100  63 101  72 100  86 101
M  END
> <Batch ID>
0194

> <Smiles>
CNC(C)C(=O)NC(C(=O)N1Cc2cc([101O:1][101CH2:1]CN3CC(C)N(C4CC[100N:0]([100C:0](=O)N5CCCC(n6nc(-c7ccc(Oc8ccc(F)cc8F)cc7)c(C(N)=O)c6N)C5)CC4)CC3C(C)C)ccc2CC1C(=O)NC1CCCc2ccccc21)C(C)(C)C

> <Shape>
0.362

> <Color>
0.186

> <Negative vol penalty>
0.000

$$$$

  -OEChem-04052323343D

 86 95  0     1  0  0  0  0  0999 V2000
  -17.9887  -24.2367   22.7632 C   0  0  0  0  0  0  0  0  0  0  0  0
  -19.2704  -24.0968   22.2405 C   0  0  0  0  0  0  0  0  0  0  0  0
  -24.6959   -9.1163   22.0354 C   0  0  0  0  0  0  0  0  0  0  0  0
  -23.8065   -9.3668   19.8030 C   0  0  0  0  0  0  0  0  0  0  0  0
  -17.5287  -25.4946   23.1506 C   0  0  0  0  0  0  0  0  0  0  0  0
  -20.0924  -25.2148   22.1040 C   0  0  0  0  0  0  0  0  0  0  0  0
  -24.8238  -24.3530   23.6903 C   0  0  0  0  0  0  0  0  0  0  0  0
  -23.4894   -8.5549   22.4531 C   0  0  0  0  0  0  0  0  0  0  0  0
  -22.5999   -8.8053   20.2208 C   0  0  0  0  0  0  0  0  0  0  0  0
  -25.6625  -23.6408   22.8342 C   0  0  0  0  0  0  0  0  0  0  0  0
  -21.9340   -5.5593   22.2519 C   0  0  0  0  0  0  0  0  0  0  0  0
  -21.9924   -4.4124   23.0434 C   0  0  0  0  0  0  0  0  0  0  0  0
  -26.6747  -25.7089   22.1150 C   0  0  0  0  0  0  0  0  0  0  0  0
  -20.8264   -5.5737   24.8123 C   0  0  0  0  0  0  0  0  0  0  0  0
  -30.9117  -22.9803   18.1388 C   0  0  0  0  0  0  0  0  0  0  0  0
  -24.8545   -9.5224   20.7103 C   0  0  0  0  0  0  0  0  0  0  0  0
  -27.2185   -9.4251   19.7566 C   0  0  0  0  0  0  0  0  0  0  0  0
  -18.3489  -26.6271   23.0277 C   0  0  0  0  0  0  0  0  0  0  0  0
  -24.8968  -25.7518   23.7572 C   0  0  0  0  0  0  0  0  0  0  0  0
  -19.6424  -26.4892   22.4888 C   0  0  0  0  0  0  0  0  0  0  0  0
  -25.8375  -26.4364   22.9746 C   0  0  0  0  0  0  0  0  0  0  0  0
  -30.2632  -23.9087   18.9274 C   0  0  0  0  0  0  0  0  0  0  0  0
  -22.4414   -8.3993   21.5459 C   0  0  0  0  0  0  0  0  0  0  0  0
  -26.5862  -24.3189   22.0443 C   0  0  0  0  0  0  0  0  0  0  0  0
  -21.3218   -6.7136   22.7405 C   0  0  0  0  0  0  0  0  0  0  0  0
  -21.4386   -4.4195   24.3236 C   0  0  0  0  0  0  0  0  0  0  0  0
  -20.7680   -6.7207   24.0207 C   0  0  0  0  0  0  0  0  0  0  0  0
  -26.1004  -10.1030   20.2783 C   0  0  0  0  0  0  0  0  0  0  0  0
  -29.1118  -23.4663   19.5460 C   0  0  0  0  0  0  0  0  0  0  0  0
  -28.1337  -10.4172   19.5024 C   0  0  0  0  0  0  0  0  0  0  0  0
  -29.3446  -21.4047   18.6171 C   0  0  0  0  0  0  0  0  0  0  0  0
  -27.4124   -8.0239   19.5226 C   0  0  0  0  0  0  0  0  0  0  0  0
  -22.8854  -28.1350   23.1422 C   0  0  0  0  0  0  0  0  0  0  0  0
  -25.2744  -29.9512   24.3737 C   0  0  0  0  0  0  0  0  0  0  0  0
  -28.6015  -30.2874   25.0552 C   0  0  0  0  0  0  0  0  0  0  0  0
  -27.7043  -16.0391   18.2225 C   0  0  0  0  0  0  0  0  0  0  0  0
  -17.7907  -27.9734   23.4158 C   0  0  0  0  0  0  0  0  0  0  0  0
  -24.0033  -26.5034   24.7055 C   0  0  0  0  0  0  0  0  0  0  0  0
  -25.9697  -27.9359   23.0245 C   0  0  0  0  0  0  0  0  0  0  0  0
  -18.8596  -29.0496   23.5872 C   0  0  0  0  0  0  0  0  0  0  0  0
  -29.4660  -14.7619   20.9801 C   0  0  0  0  0  0  0  0  0  0  0  0
  -19.8397  -29.0194   22.4187 C   0  0  0  0  0  0  0  0  0  0  0  0
  -28.9075  -13.3418   21.0662 C   0  0  0  0  0  0  0  0  0  0  0  0
  -28.3787  -15.7864   20.6518 C   0  0  0  0  0  0  0  0  0  0  0  0
  -29.6059  -19.1618   17.6027 C   0  0  0  0  0  0  0  0  0  0  0  0
  -28.0908  -19.5142   19.5588 C   0  0  0  0  0  0  0  0  0  0  0  0
  -28.7128  -18.0133   17.1412 C   0  0  0  0  0  0  0  0  0  0  0  0
  -27.2187  -18.3691   19.0563 C   0  0  0  0  0  0  0  0  0  0  0  0
  -27.0352  -14.0413   19.5258 C   0  0  0  0  0  0  0  0  0  0  0  0
  -20.5728  -27.6744   22.3482 C   0  0  1  0  0  0  0  0  0  0  0  0
  -23.8110  -27.9652   24.3135 C   0  0  1  0  0  0  0  0  0  0  0  0
  -28.1149  -12.9821   19.7969 C   0  0  2  0  0  0  0  0  0  0  0  0
  -30.2593  -31.8986   26.0313 C   0  0  0  0  0  0  0  0  0  0  0  0
  -25.1542  -31.6178   21.8206 C   0  0  0  0  0  0  0  0  0  0  0  0
  -27.3926  -32.5671   22.4179 C   0  0  0  0  0  0  0  0  0  0  0  0
  -25.4380  -32.9456   23.9208 C   0  0  0  0  0  0  0  0  0  0  0  0
  -30.5777  -27.6864   18.4215 C   0  0  0  0  0  0  0  0  0  0  0  0
  -29.3611  -28.3894   27.1952 C   0  0  0  0  0  0  0  0  0  0  0  0
  -30.7918  -25.2876   19.0841 C   0  0  0  0  0  0  0  0  0  0  0  0
  -28.3284  -24.3831   20.4266 C   0  0  0  0  0  0  0  0  0  1  0  0
  -26.4878  -30.6484   23.8075 C   0  0  1  0  0  0  0  0  0  0  0  0
  -29.3332  -30.7253   26.3111 C   0  0  2  0  0  0  0  0  0  0  0  0
  -26.1146  -31.9166   22.9891 C   0  0  0  0  0  0  0  0  0  0  0  0
  -30.4788  -21.7150   17.9607 N   0  0  0  0  0  0  0  0  0  0  0  0
  -26.2862  -11.4236   20.3519 N   0  0  0  0  0  0  0  0  0  0  0  0
  -28.6218  -22.2163   19.4123 N   0  0  0  0  0  0  0  0  0  0  0  0
  -27.5317  -11.5835   19.8731 N   0  0  0  0  0  0  0  0  0  0  0  0
  -28.8660  -20.0982   18.4556 N   0  0  0  0  0  0  0  0  0  0  0  0
  -25.0695  -28.6265   23.9627 N   0  0  0  0  0  0  0  0  0  0  0  0
  -27.6241  -15.3804   19.4586 N   0  0  0  0  0  0  0  0  0  0  0  0
  -27.9852  -17.4140   18.2534 N   0  0  0  0  0  0  0  0  0  0  0  0
  -29.3866  -10.3969   19.0001 N   0  0  0  0  0  0  0  0  0  0  0  0
  -26.3697   -7.1429   19.8400 N   0  0  0  0  0  0  0  0  0  0  0  0
  -21.6205  -27.6170   23.3449 N   0  0  0  0  0  0  0  0  0  0  0  0
  -27.3747  -30.9058   24.9370 N   0  0  0  0  0  0  0  0  0  0  0  0
  -30.0245  -26.3121   18.3183 N   0  3  0  0  0  0  0  0  0  0  0  0
  -30.1485  -29.6020   26.8538 N   0  3  0  0  0  0  0  0  0  0  0  0
  -28.4850   -7.5650   19.0615 O   0  0  0  0  0  0  0  0  0  0  0  0
  -23.2885  -28.6959   22.1299 O   0  0  0  0  0  0  0  0  0  0  0  0
  -24.5395  -30.5573   25.1574 O   0  0  0  0  0  0  0  0  0  0  0  0
  -29.0727  -29.4805   24.2568 O   0  0  0  0  0  0  0  0  0  0  0  0
  -27.5384  -15.4366   17.1546 O   0  0  0  0  0  0  0  0  0  0  0  0
  -21.2639   -7.8512   21.9531 O   0  0  0  0  0  0  0  0  0  0  0  0
  -27.4115  -23.6212   21.2014 O   0  0  0  0  0  0  0  0  0  1  0  0
  -21.4934   -3.3175   25.0831 F   0  0  0  0  0  0  0  0  0  0  0  0
  -20.1775   -7.8262   24.4951 F   0  0  0  0  0  0  0  0  0  0  0  0
  1  2  1  0  0  0  0
  1  5  2  0  0  0  0
  2  6  2  0  0  0  0
  3  8  2  0  0  0  0
  3 16  1  0  0  0  0
  4  9  1  0  0  0  0
  4 16  2  0  0  0  0
  5 18  1  0  0  0  0
  6 20  1  0  0  0  0
  7 10  2  0  0  0  0
  7 19  1  0  0  0  0
  8 23  1  0  0  0  0
  9 23  2  0  0  0  0
 10 24  1  0  0  0  0
 11 12  2  0  0  0  0
 11 25  1  0  0  0  0
 12 26  1  0  0  0  0
 13 21  1  0  0  0  0
 13 24  2  0  0  0  0
 14 26  2  0  0  0  0
 14 27  1  0  0  0  0
 15 22  1  0  0  0  0
 15 64  2  0  0  0  0
 16 28  1  0  0  0  0
 17 28  1  0  0  0  0
 17 30  2  0  0  0  0
 17 32  1  0  0  0  0
 18 20  2  0  0  0  0
 18 37  1  0  0  0  0
 19 21  2  0  0  0  0
 19 38  1  0  0  0  0
 20 50  1  0  0  0  0
 21 39  1  0  0  0  0
 22 29  2  0  0  0  0
 22 59  1  0  0  0  0
 23 83  1  0  0  0  0
 24 84  1  0  0  0  0
 25 27  2  0  0  0  0
 25 83  1  0  0  0  0
 26 85  1  0  0  0  0
 27 86  1  0  0  0  0
 28 65  2  0  0  0  0
 29 60  1  0  0  0  0
 29 66  1  0  0  0  0
 30 67  1  0  0  0  0
 30 72  1  0  0  0  0
 31 64  1  0  0  0  0
 31 66  2  0  0  0  0
 31 68  1  0  0  0  0
 32 73  1  0  0  0  0
 32 78  2  0  0  0  0
 33 51  1  0  0  0  0
 33 74  1  0  0  0  0
 33 79  2  0  0  0  0
 34 61  1  0  0  0  0
 34 69  1  0  0  0  0
 34 80  2  0  0  0  0
 35 62  1  0  0  0  0
 35 75  1  0  0  0  0
 35 81  2  0  0  0  0
 36 70  1  0  0  0  0
 36 71  1  0  0  0  0
 36 82  2  0  0  0  0
 37 40  1  0  0  0  0
 38 51  1  0  0  0  0
 39 69  1  0  0  0  0
 40 42  1  0  0  0  0
 41 43  1  0  0  0  0
 41 44  1  0  0  0  0
 42 50  1  0  0  0  0
 43 52  1  0  0  0  0
 44 70  1  0  0  0  0
 45 47  1  0  0  0  0
 45 68  1  0  0  0  0
 46 48  1  0  0  0  0
 46 68  1  0  0  0  0
 47 71  1  0  0  0  0
 48 71  1  0  0  0  0
 49 52  1  0  0  0  0
 49 70  1  0  0  0  0
 50 74  1  0  0  0  0
 51 69  1  0  0  0  0
 52 67  1  0  0  0  0
 53 62  1  0  0  0  0
 54 63  1  0  0  0  0
 55 63  1  0  0  0  0
 56 63  1  0  0  0  0
 57 76  1  0  0  0  0
 58 77  1  0  0  0  0
 59 76  1  0  0  0  0
 60 84  1  0  0  0  0
 61 63  1  0  0  0  0
 61 75  1  0  0  0  0
 62 77  1  0  0  0  0
 65 67  1  0  0  0  0
M  CHG  2  76   1  77   1
M  ISO  4  36 100  60 101  71 100  84 101
M  END
> <Batch ID>
0194

> <Smiles>
CNCc1cnc(N2CC[100N:0]([100C:0](=O)N3CCCC(n4nc(-c5ccc(Oc6ccc(F)cc6F)cc5)c(C(N)=O)c4N)C3)CC2)nc1[101CH2:1][101O:1]c1ccc2c(c1)CN(C(=O)C(NC(=O)C(C)NC)C(C)(C)C)C(C(=O)NC1CCCc3ccccc31)C2

> <Shape>
0.307

> <Color>
0.077

> <Negative vol penalty>
0.000

$$$$

  -OEChem-04052323343D

 85 94  0     1  0  0  0  0  0999 V2000
  -24.1420   -7.1335   24.7428 C   0  0  0  0  0  0  0  0  0  0  0  0
  -25.3423   -7.7688   24.4410 C   0  0  0  0  0  0  0  0  0  0  0  0
  -24.5337  -30.6609   23.2253 C   0  0  0  0  0  0  0  0  0  0  0  0
  -23.6926  -31.6906   21.2081 C   0  0  0  0  0  0  0  0  0  0  0  0
  -23.0350   -7.3069   23.9132 C   0  0  0  0  0  0  0  0  0  0  0  0
  -25.4366   -8.5770   23.3086 C   0  0  0  0  0  0  0  0  0  0  0  0
  -28.7602  -13.6844   22.6972 C   0  0  0  0  0  0  0  0  0  0  0  0
  -24.4397  -31.8841   23.8890 C   0  0  0  0  0  0  0  0  0  0  0  0
  -23.5985  -32.9139   21.8718 C   0  0  0  0  0  0  0  0  0  0  0  0
  -30.0099  -13.9278   22.1290 C   0  0  0  0  0  0  0  0  0  0  0  0
  -26.2119  -34.7558   24.0811 C   0  0  0  0  0  0  0  0  0  0  0  0
  -27.2897  -35.1455   24.8761 C   0  0  0  0  0  0  0  0  0  0  0  0
  -28.9385  -14.5962   20.0737 C   0  0  0  0  0  0  0  0  0  0  0  0
  -25.8416  -35.2073   26.8091 C   0  0  0  0  0  0  0  0  0  0  0  0
  -24.1602  -30.5641   21.8848 C   0  0  0  0  0  0  0  0  0  0  0  0
  -23.2661  -28.3062   21.1039 C   0  0  0  0  0  0  0  0  0  0  0  0
  -23.1130   -8.1254   22.7753 C   0  0  0  0  0  0  0  0  0  0  0  0
  -27.5887  -13.8849   21.9530 C   0  0  0  0  0  0  0  0  0  0  0  0
  -24.3299   -8.7604   22.4622 C   0  0  0  0  0  0  0  0  0  0  0  0
  -27.6751  -14.3570   20.6355 C   0  0  0  0  0  0  0  0  0  0  0  0
  -23.9721  -33.0106   23.2123 C   0  0  0  0  0  0  0  0  0  0  0  0
  -30.0993  -14.3811   20.8161 C   0  0  0  0  0  0  0  0  0  0  0  0
  -24.9489  -34.5920   24.6501 C   0  0  0  0  0  0  0  0  0  0  0  0
  -27.1046  -35.3712   26.2401 C   0  0  0  0  0  0  0  0  0  0  0  0
  -24.7637  -34.8177   26.0141 C   0  0  0  0  0  0  0  0  0  0  0  0
  -24.2577  -29.3010   21.1985 C   0  0  0  0  0  0  0  0  0  0  0  0
  -23.8467  -27.3129   20.3538 C   0  0  0  0  0  0  0  0  0  0  0  0
  -32.4259  -17.4363   18.6001 C   0  0  0  0  0  0  0  0  0  0  0  0
  -31.9750  -19.1247   19.7416 C   0  0  0  0  0  0  0  0  0  0  0  0
  -21.9388  -28.2822   21.6457 C   0  0  0  0  0  0  0  0  0  0  0  0
  -25.2143  -12.0189   20.9612 C   0  0  0  0  0  0  0  0  0  0  0  0
  -23.9392  -14.8311   19.9673 C   0  0  0  0  0  0  0  0  0  0  0  0
  -24.4503  -18.0683   19.0153 C   0  0  0  0  0  0  0  0  0  0  0  0
  -27.9113  -24.0534   19.0653 C   0  0  0  0  0  0  0  0  0  0  0  0
  -21.9032   -8.2447   21.8826 C   0  0  0  0  0  0  0  0  0  0  0  0
  -26.2474  -13.6432   22.5892 C   0  0  0  0  0  0  0  0  0  0  0  0
  -26.4467  -14.6076   19.8008 C   0  0  0  0  0  0  0  0  0  0  0  0
  -21.9789   -9.4168   20.9076 C   0  0  0  0  0  0  0  0  0  0  0  0
  -28.1293  -27.2703   17.6749 C   0  0  0  0  0  0  0  0  0  0  0  0
  -23.3445   -9.4596   20.2293 C   0  0  0  0  0  0  0  0  0  0  0  0
  -27.0538  -28.0157   18.4647 C   0  0  0  0  0  0  0  0  0  0  0  0
  -31.1104  -22.7555   19.7504 C   0  0  0  0  0  0  0  0  0  0  0  0
  -29.5275  -20.9943   18.8783 C   0  0  0  0  0  0  0  0  0  0  0  0
  -28.9336  -26.3169   18.5606 C   0  0  0  0  0  0  0  0  0  0  0  0
  -30.4240  -23.7912   18.8550 C   0  0  0  0  0  0  0  0  0  0  0  0
  -28.8933  -22.0548   17.9826 C   0  0  0  0  0  0  0  0  0  0  0  0
  -27.0246  -26.1116   20.1202 C   0  0  0  0  0  0  0  0  0  0  0  0
  -24.4645   -9.6649   21.2564 C   0  0  1  0  0  0  0  0  0  0  0  0
  -25.1400  -13.3902   21.5708 C   0  0  1  0  0  0  0  0  0  0  0  0
  -26.1617  -27.0340   19.2453 C   0  0  1  0  0  0  0  0  0  0  0  0
  -30.9888  -21.3436   19.1724 C   0  0  0  0  0  0  0  0  0  0  0  0
  -32.5697  -16.5199   17.4452 C   0  0  0  0  0  0  0  0  0  0  0  0
  -23.2191  -20.1067   18.2239 C   0  0  0  0  0  0  0  0  0  0  0  0
  -23.6446  -13.5764   17.2017 C   0  0  0  0  0  0  0  0  0  0  0  0
  -23.3242  -15.8774   16.2684 C   0  0  0  0  0  0  0  0  0  0  0  0
  -21.6985  -14.9690   17.9280 C   0  0  0  0  0  0  0  0  0  0  0  0
  -25.3314  -19.6515   21.3555 C   0  0  0  0  0  0  0  0  0  0  0  0
  -33.3852  -15.8693   20.3745 C   0  0  0  0  0  0  0  0  0  0  0  0
  -32.3648  -15.0301   21.1359 C   0  0  0  0  0  0  0  0  0  1  0  0
  -24.0085  -15.6477   18.6995 C   0  0  1  0  0  0  0  0  0  0  0  0
  -23.7682  -19.3597   19.4294 C   0  0  2  0  0  0  0  0  0  0  0  0
  -23.1924  -15.0112   17.5392 C   0  0  0  0  0  0  0  0  0  0  0  0
  -25.3829  -28.9698   20.5596 N   0  0  0  0  0  0  0  0  0  0  0  0
  -31.9083  -18.6961   18.5026 N   0  0  0  0  0  0  0  0  0  0  0  0
  -32.5096  -18.1562   20.5328 N   0  0  0  0  0  0  0  0  0  0  0  0
  -25.1019  -27.7557   20.0565 N   0  0  0  0  0  0  0  0  0  0  0  0
  -32.8087  -17.0584   19.8217 N   0  0  0  0  0  0  0  0  0  0  0  0
  -25.1584  -14.3505   20.4655 N   0  0  0  0  0  0  0  0  0  0  0  0
  -28.0389  -25.4281   19.3149 N   0  0  0  0  0  0  0  0  0  0  0  0
  -29.0405  -23.3905   18.5617 N   0  0  0  0  0  0  0  0  0  0  0  0
  -23.4008  -26.1126   19.9261 N   0  0  0  0  0  0  0  0  0  0  0  0
  -21.5017  -29.3851   22.3919 N   0  0  0  0  0  0  0  0  0  0  0  0
  -31.5438  -20.3880   20.1056 N   0  0  0  0  0  0  0  0  0  0  0  0
  -24.5255  -11.0512   21.6673 N   0  0  0  0  0  0  0  0  0  0  0  0
  -23.5841  -16.9964   19.0588 N   0  0  0  0  0  0  0  0  0  0  0  0
  -24.7313  -20.2509   20.1358 N   0  3  0  0  0  0  0  0  0  0  0  0
  -21.1692  -27.3044   21.4870 O   0  0  0  0  0  0  0  0  0  0  0  0
  -25.8483  -11.8515   19.9259 O   0  0  0  0  0  0  0  0  0  0  0  0
  -22.8443  -14.6333   20.5000 O   0  0  0  0  0  0  0  0  0  0  0  0
  -25.6323  -18.0163   18.6828 O   0  0  0  0  0  0  0  0  0  0  0  0
  -26.8508  -23.4532   19.2800 O   0  0  0  0  0  0  0  0  0  0  0  0
  -23.8800  -34.2043   23.8596 O   0  0  0  0  0  0  0  0  0  0  0  0
  -31.3264  -14.6206   20.2550 O   0  0  0  0  0  0  0  0  0  1  0  0
  -28.1400  -35.7439   27.0037 F   0  0  0  0  0  0  0  0  0  0  0  0
  -23.5530  -34.6607   26.5665 F   0  0  0  0  0  0  0  0  0  0  0  0
  1  2  1  0  0  0  0
  1  5  2  0  0  0  0
  2  6  2  0  0  0  0
  3  8  2  0  0  0  0
  3 15  1  0  0  0  0
  4  9  1  0  0  0  0
  4 15  2  0  0  0  0
  5 17  1  0  0  0  0
  6 19  1  0  0  0  0
  7 10  2  0  0  0  0
  7 18  1  0  0  0  0
  8 21  1  0  0  0  0
  9 21  2  0  0  0  0
 10 22  1  0  0  0  0
 11 12  2  0  0  0  0
 11 23  1  0  0  0  0
 12 24  1  0  0  0  0
 13 20  1  0  0  0  0
 13 22  2  0  0  0  0
 14 24  2  0  0  0  0
 14 25  1  0  0  0  0
 15 26  1  0  0  0  0
 16 26  1  0  0  0  0
 16 27  2  0  0  0  0
 16 30  1  0  0  0  0
 17 19  2  0  0  0  0
 17 35  1  0  0  0  0
 18 20  2  0  0  0  0
 18 36  1  0  0  0  0
 19 48  1  0  0  0  0
 20 37  1  0  0  0  0
 21 82  1  0  0  0  0
 22 83  1  0  0  0  0
 23 25  2  0  0  0  0
 23 82  1  0  0  0  0
 24 84  1  0  0  0  0
 25 85  1  0  0  0  0
 26 63  2  0  0  0  0
 27 66  1  0  0  0  0
 27 71  1  0  0  0  0
 28 52  1  0  0  0  0
 28 64  2  0  0  0  0
 28 67  1  0  0  0  0
 29 64  1  0  0  0  0
 29 65  2  0  0  0  0
 29 73  1  0  0  0  0
 30 72  1  0  0  0  0
 30 77  2  0  0  0  0
 31 49  1  0  0  0  0
 31 74  1  0  0  0  0
 31 78  2  0  0  0  0
 32 60  1  0  0  0  0
 32 68  1  0  0  0  0
 32 79  2  0  0  0  0
 33 61  1  0  0  0  0
 33 75  1  0  0  0  0
 33 80  2  0  0  0  0
 34 69  1  0  0  0  0
 34 70  1  0  0  0  0
 34 81  2  0  0  0  0
 35 38  1  0  0  0  0
 36 49  1  0  0  0  0
 37 68  1  0  0  0  0
 38 40  1  0  0  0  0
 39 41  1  0  0  0  0
 39 44  1  0  0  0  0
 40 48  1  0  0  0  0
 41 50  1  0  0  0  0
 42 45  1  0  0  0  0
 42 51  1  0  0  0  0
 43 46  1  0  0  0  0
 43 51  1  0  0  0  0
 44 69  1  0  0  0  0
 45 70  1  0  0  0  0
 46 70  1  0  0  0  0
 47 50  1  0  0  0  0
 47 69  1  0  0  0  0
 48 74  1  0  0  0  0
 49 68  1  0  0  0  0
 50 66  1  0  0  0  0
 51 73  1  0  0  0  0
 53 61  1  0  0  0  0
 54 62  1  0  0  0  0
 55 62  1  0  0  0  0
 56 62  1  0  0  0  0
 57 76  1  0  0  0  0
 58 59  1  0  0  0  0
 58 67  1  0  0  0  0
 59 83  1  0  0  0  0
 60 62  1  0  0  0  0
 60 75  1  0  0  0  0
 61 76  1  0  0  0  0
 63 66  1  0  0  0  0
 65 67  1  0  0  0  0
M  CHG  1  76   1
M  ISO  4  34 100  59 101  70 100  83 101
M  END
> <Batch ID>
0194

> <Smiles>
CNC(C)C(=O)NC(C(=O)N1Cc2cc([101O:1][101CH2:1]Cn3nc(NC4CC[100N:0]([100C:0](=O)N5CCCC(n6nc(-c7ccc(Oc8ccc(F)cc8F)cc7)c(C(N)=O)c6N)C5)CC4)nc3C)ccc2CC1C(=O)NC1CCCc2ccccc21)C(C)(C)C

> <Shape>
0.249

> <Color>
0.078

> <Negative vol penalty>
0.000

$$$$

  -OEChem-04052323343D

 88 97  0     1  0  0  0  0  0999 V2000
  -27.9091  -25.2976   15.7990 C   0  0  0  0  0  0  0  0  0  0  0  0
  -26.7841  -25.3255   16.6169 C   0  0  0  0  0  0  0  0  0  0  0  0
  -25.2892   -9.6750   21.5926 C   0  0  0  0  0  0  0  0  0  0  0  0
  -23.2710  -10.3931   22.7100 C   0  0  0  0  0  0  0  0  0  0  0  0
  -29.1070  -25.8555   16.2438 C   0  0  0  0  0  0  0  0  0  0  0  0
  -26.8566  -25.9105   17.8807 C   0  0  0  0  0  0  0  0  0  0  0  0
  -22.8889  -28.8980   18.8689 C   0  0  0  0  0  0  0  0  0  0  0  0
  -25.1733   -8.4199   22.1899 C   0  0  0  0  0  0  0  0  0  0  0  0
  -23.1551   -9.1379   23.3073 C   0  0  0  0  0  0  0  0  0  0  0  0
  -21.6971  -28.2736   19.2343 C   0  0  0  0  0  0  0  0  0  0  0  0
  -22.1296   -6.0065   24.8438 C   0  0  0  0  0  0  0  0  0  0  0  0
  -20.8719   -5.4035   24.8489 C   0  0  0  0  0  0  0  0  0  0  0  0
  -22.1641  -28.7516   21.5521 C   0  0  0  0  0  0  0  0  0  0  0  0
  -20.8424   -5.4446   22.4334 C   0  0  0  0  0  0  0  0  0  0  0  0
  -24.3380  -10.6616   21.8527 C   0  0  0  0  0  0  0  0  0  0  0  0
  -25.5246  -12.8673   21.3680 C   0  0  0  0  0  0  0  0  0  0  0  0
  -29.1916  -26.4562   17.5098 C   0  0  0  0  0  0  0  0  0  0  0  0
  -23.7340  -29.4452   19.8450 C   0  0  0  0  0  0  0  0  0  0  0  0
  -28.0570  -26.4758   18.3433 C   0  0  0  0  0  0  0  0  0  0  0  0
  -23.3648  -29.3847   21.1964 C   0  0  0  0  0  0  0  0  0  0  0  0
  -24.1063   -8.1513   23.0473 C   0  0  0  0  0  0  0  0  0  0  0  0
  -21.3359  -28.1978   20.5762 C   0  0  0  0  0  0  0  0  0  0  0  0
  -22.7438   -6.3287   23.6335 C   0  0  0  0  0  0  0  0  0  0  0  0
  -20.2283   -5.1226   23.6438 C   0  0  0  0  0  0  0  0  0  0  0  0
  -22.1001   -6.0477   22.4284 C   0  0  0  0  0  0  0  0  0  0  0  0
  -24.4575  -11.9586   21.2364 C   0  0  0  0  0  0  0  0  0  0  0  0
  -25.1595  -13.9403   20.5921 C   0  0  0  0  0  0  0  0  0  0  0  0
  -26.7375  -12.7517   22.1238 C   0  0  0  0  0  0  0  0  0  0  0  0
  -26.7151  -28.8898   20.7979 C   0  0  0  0  0  0  0  0  0  0  0  0
  -26.1987  -31.5066   22.6439 C   0  0  0  0  0  0  0  0  0  0  0  0
  -23.9600  -33.5475   24.2154 C   0  0  0  0  0  0  0  0  0  0  0  0
  -21.0895  -17.5879   19.1762 C   0  0  0  0  0  0  0  0  0  0  0  0
  -30.5206  -27.0041   17.9660 C   0  0  0  0  0  0  0  0  0  0  0  0
  -25.0031  -30.1390   19.4324 C   0  0  0  0  0  0  0  0  0  0  0  0
  -24.2273  -29.9745   22.2812 C   0  0  0  0  0  0  0  0  0  0  0  0
  -30.4140  -27.9380   19.1688 C   0  0  0  0  0  0  0  0  0  0  0  0
  -21.4044  -14.4793   17.2496 C   0  0  0  0  0  0  0  0  0  0  0  0
  -29.5141  -27.3290   20.2393 C   0  0  0  0  0  0  0  0  0  0  0  0
  -22.2760  -13.6071   18.1543 C   0  0  0  0  0  0  0  0  0  0  0  0
  -24.0950  -19.6888   18.9221 C   0  0  0  0  0  0  0  0  0  0  0  0
  -23.7525  -23.5871   20.9493 C   0  0  0  0  0  0  0  0  0  0  0  0
  -20.5497  -15.4588   18.0508 C   0  0  0  0  0  0  0  0  0  0  0  0
  -23.5582  -18.2668   19.0456 C   0  0  0  0  0  0  0  0  0  0  0  0
  -24.5889  -22.4563   20.3207 C   0  0  0  0  0  0  0  0  0  0  0  0
  -22.1720  -15.4185   19.9053 C   0  0  0  0  0  0  0  0  0  0  0  0
  -21.9212  -19.8140   19.8792 C   0  0  0  0  0  0  0  0  0  0  0  0
  -28.0894  -27.1233   19.7107 C   0  0  1  0  0  0  0  0  0  0  0  0
  -26.0374  -30.2081   20.5517 C   0  0  1  0  0  0  0  0  0  0  0  0
  -23.0970  -14.4683   19.1321 C   0  0  1  0  0  0  0  0  0  0  0  0
  -23.3114  -20.4251   20.0074 C   0  0  2  0  0  0  0  0  0  0  0  0
  -22.6057  -22.5476   20.9500 C   0  0  1  0  0  0  0  0  0  0  0  0
  -15.1962  -28.2026   23.9486 C   0  0  0  0  0  0  0  0  0  0  0  0
  -23.8395  -35.5826   25.6787 C   0  0  0  0  0  0  0  0  0  0  0  0
  -27.0595  -29.8295   25.0431 C   0  0  0  0  0  0  0  0  0  0  0  0
  -26.0310  -31.5590   26.5328 C   0  0  0  0  0  0  0  0  0  0  0  0
  -27.9335  -32.1726   25.0408 C   0  0  0  0  0  0  0  0  0  0  0  0
  -22.4172  -35.0555   22.1894 C   0  0  0  0  0  0  0  0  0  0  0  0
  -21.2361  -23.0544   20.5426 C   0  0  0  0  0  0  0  0  0  0  0  0
  -15.8221  -27.5177   22.7420 C   0  0  0  0  0  0  0  0  0  0  0  0
  -17.2097  -26.9601   23.0354 C   0  0  0  0  0  0  0  0  0  0  0  0
  -19.4874  -24.7215   21.1763 C   0  0  0  0  0  0  0  0  0  0  0  0
  -20.1404  -26.9590   22.2170 C   0  0  0  0  0  0  0  0  0  1  0  0
  -25.6550  -31.7454   24.0318 C   0  0  1  0  0  0  0  0  0  0  0  0
  -23.8276  -35.0594   24.2509 C   0  0  2  0  0  0  0  0  0  0  0  0
  -19.1386  -25.8002   22.2019 C   0  0  1  0  0  0  0  0  0  0  0  0
  -26.6542  -31.3137   25.1421 C   0  0  0  0  0  0  0  0  0  0  0  0
  -23.4871  -12.4146   20.4398 N   0  0  0  0  0  0  0  0  0  0  0  0
  -23.9431  -13.6216   20.0639 N   0  0  0  0  0  0  0  0  0  0  0  0
  -25.4614  -30.6369   21.8279 N   0  0  0  0  0  0  0  0  0  0  0  0
  -21.3712  -16.2310   18.9832 N   0  0  0  0  0  0  0  0  0  0  0  0
  -22.1602  -18.4375   19.4515 N   0  0  0  0  0  0  0  0  0  0  0  0
  -23.3157  -21.8728   19.8258 N   0  0  1  0  0  0  0  0  0  0  0  0
  -25.7635  -15.1158   20.3172 N   0  0  0  0  0  0  0  0  0  0  0  0
  -26.7459  -13.2110   23.4479 N   0  0  0  0  0  0  0  0  0  0  0  0
  -27.3704  -28.3792   19.6936 N   0  0  0  0  0  0  0  0  0  0  0  0
  -25.2747  -33.1529   24.0847 N   0  0  0  0  0  0  0  0  0  0  0  0
  -17.8086  -26.3267   21.8732 N   0  0  0  0  0  0  0  0  0  0  0  0
  -22.5527  -35.4830   23.6057 N   0  3  0  0  0  0  0  0  0  0  0  0
  -20.8012  -24.0978   21.4987 N   0  3  0  0  0  0  0  0  0  0  0  0
  -27.7875  -12.2709   21.6341 O   0  0  0  0  0  0  0  0  0  0  0  0
  -26.6497  -28.3748   21.9079 O   0  0  0  0  0  0  0  0  0  0  0  0
  -27.2353  -32.0765   22.2941 O   0  0  0  0  0  0  0  0  0  0  0  0
  -22.9941  -32.7922   24.2994 O   0  0  0  0  0  0  0  0  0  0  0  0
  -19.9385  -18.0296   19.0614 O   0  0  0  0  0  0  0  0  0  0  0  0
  -23.9928   -6.9266   23.6301 O   0  0  0  0  0  0  0  0  0  0  0  0
  -20.1661  -27.5844   20.9379 O   0  0  0  0  0  0  0  0  0  1  0  0
  -19.0211   -4.5421   23.6488 F   0  0  0  0  0  0  0  0  0  0  0  0
  -22.6856   -6.3537   21.2625 F   0  0  0  0  0  0  0  0  0  0  0  0
  1  2  1  0  0  0  0
  1  5  2  0  0  0  0
  2  6  2  0  0  0  0
  3  8  2  0  0  0  0
  3 15  1  0  0  0  0
  4  9  1  0  0  0  0
  4 15  2  0  0  0  0
  5 17  1  0  0  0  0
  6 19  1  0  0  0  0
  7 10  2  0  0  0  0
  7 18  1  0  0  0  0
  8 21  1  0  0  0  0
  9 21  2  0  0  0  0
 10 22  1  0  0  0  0
 11 12  2  0  0  0  0
 11 23  1  0  0  0  0
 12 24  1  0  0  0  0
 13 20  1  0  0  0  0
 13 22  2  0  0  0  0
 14 24  2  0  0  0  0
 14 25  1  0  0  0  0
 15 26  1  0  0  0  0
 16 26  1  0  0  0  0
 16 27  2  0  0  0  0
 16 28  1  0  0  0  0
 17 19  2  0  0  0  0
 17 33  1  0  0  0  0
 18 20  2  0  0  0  0
 18 34  1  0  0  0  0
 19 47  1  0  0  0  0
 20 35  1  0  0  0  0
 21 85  1  0  0  0  0
 22 86  1  0  0  0  0
 23 25  2  0  0  0  0
 23 85  1  0  0  0  0
 24 87  1  0  0  0  0
 25 88  1  0  0  0  0
 26 67  2  0  0  0  0
 27 68  1  0  0  0  0
 27 73  1  0  0  0  0
 28 74  1  0  0  0  0
 28 80  2  0  0  0  0
 29 48  1  0  0  0  0
 29 75  1  0  0  0  0
 29 81  2  0  0  0  0
 30 63  1  0  0  0  0
 30 69  1  0  0  0  0
 30 82  2  0  0  0  0
 31 64  1  0  0  0  0
 31 76  1  0  0  0  0
 31 83  2  0  0  0  0
 32 70  1  0  0  0  0
 32 71  1  0  0  0  0
 32 84  2  0  0  0  0
 33 36  1  0  0  0  0
 34 48  1  0  0  0  0
 35 69  1  0  0  0  0
 36 38  1  0  0  0  0
 37 39  1  0  0  0  0
 37 42  1  0  0  0  0
 38 47  1  0  0  0  0
 39 49  1  0  0  0  0
 40 43  1  0  0  0  0
 40 50  1  0  0  0  0
 41 44  1  0  0  0  0
 41 51  1  0  0  0  0
 42 70  1  0  0  0  0
 43 71  1  0  0  0  0
 44 72  1  0  0  0  0
 45 49  1  0  0  0  0
 45 70  1  0  0  0  0
 46 50  1  0  0  0  0
 46 71  1  0  0  0  0
 47 75  1  0  0  0  0
 48 69  1  0  0  0  0
 49 68  1  0  0  0  0
 50 72  1  0  0  0  0
 51 58  1  0  0  0  0
 51 72  1  0  0  0  0
 52 59  1  0  0  0  0
 53 64  1  0  0  0  0
 54 66  1  0  0  0  0
 55 66  1  0  0  0  0
 56 66  1  0  0  0  0
 57 78  1  0  0  0  0
 58 79  1  0  0  0  0
 59 60  1  0  0  0  0
 60 77  1  0  0  0  0
 61 65  1  0  0  0  0
 61 79  1  0  0  0  0
 62 65  1  0  0  0  0
 62 86  1  0  0  0  0
 63 66  1  0  0  0  0
 63 76  1  0  0  0  0
 64 78  1  0  0  0  0
 65 77  1  0  0  0  0
 67 68  1  0  0  0  0
M  CHG  2  78   1  79   1
M  ISO  4  32 100  62 101  71 100  86 101
M  END
> <Batch ID>
0194

> <Smiles>
CCCNC(CNCC1CCN1C1CC[100N:0]([100C:0](=O)N2CCCC(n3nc(-c4ccc(Oc5ccc(F)cc5F)cc4)c(C(N)=O)c3N)C2)C1)[101CH2:1][101O:1]c1ccc2c(c1)CN(C(=O)C(NC(=O)C(C)NC)C(C)(C)C)C(C(=O)NC1CCCc3ccccc31)C2

> <Shape>
0.286

> <Color>
0.107

> <Negative vol penalty>
0.000

$$$$

  -OEChem-04052323343D

 85 95  0     1  0  0  0  0  0999 V2000
  -16.4684  -28.8168   23.3325 C   0  0  0  0  0  0  0  0  0  0  0  0
  -17.3642  -28.2183   22.4523 C   0  0  0  0  0  0  0  0  0  0  0  0
  -22.3641  -12.4595   21.2069 C   0  0  0  0  0  0  0  0  0  0  0  0
  -21.8806  -14.5627   22.2929 C   0  0  0  0  0  0  0  0  0  0  0  0
  -16.8988  -29.8423   24.1733 C   0  0  0  0  0  0  0  0  0  0  0  0
  -18.6908  -28.6458   22.4116 C   0  0  0  0  0  0  0  0  0  0  0  0
  -23.6407  -25.1939   21.3680 C   0  0  0  0  0  0  0  0  0  0  0  0
  -21.4089  -11.8284   22.0036 C   0  0  0  0  0  0  0  0  0  0  0  0
  -20.9253  -13.9317   23.0897 C   0  0  0  0  0  0  0  0  0  0  0  0
  -24.4009  -24.9665   20.2216 C   0  0  0  0  0  0  0  0  0  0  0  0
  -19.3510   -9.5937   24.0024 C   0  0  0  0  0  0  0  0  0  0  0  0
  -19.6915   -8.3705   24.5798 C   0  0  0  0  0  0  0  0  0  0  0  0
  -25.9597  -26.6677   20.9252 C   0  0  0  0  0  0  0  0  0  0  0  0
  -21.5237   -9.4305   25.7447 C   0  0  0  0  0  0  0  0  0  0  0  0
  -30.5782  -24.7382   19.4085 C   0  0  0  0  0  0  0  0  0  0  0  0
  -22.6000  -13.8266   21.3515 C   0  0  0  0  0  0  0  0  0  0  0  0
  -23.3836  -15.0810   19.2730 C   0  0  0  0  0  0  0  0  0  0  0  0
  -18.2337  -30.2760   24.1497 C   0  0  0  0  0  0  0  0  0  0  0  0
  -24.0291  -26.1692   22.2977 C   0  0  0  0  0  0  0  0  0  0  0  0
  -19.1392  -29.6790   23.2519 C   0  0  0  0  0  0  0  0  0  0  0  0
  -25.2041  -26.9038   22.0838 C   0  0  0  0  0  0  0  0  0  0  0  0
  -20.6894  -12.5645   22.9450 C   0  0  0  0  0  0  0  0  0  0  0  0
  -25.5591  -25.7054   19.9987 C   0  0  0  0  0  0  0  0  0  0  0  0
  -20.0969  -10.7353   24.2960 C   0  0  0  0  0  0  0  0  0  0  0  0
  -20.7778   -8.2889   25.4510 C   0  0  0  0  0  0  0  0  0  0  0  0
  -21.1832  -10.6537   25.1672 C   0  0  0  0  0  0  0  0  0  0  0  0
  -23.5871  -14.4790   20.5292 C   0  0  0  0  0  0  0  0  0  0  0  0
  -29.6292  -25.0461   18.4750 C   0  0  0  0  0  0  0  0  0  0  0  0
  -24.6225  -15.5525   18.9135 C   0  0  0  0  0  0  0  0  0  0  0  0
  -29.1367  -23.0605   19.3208 C   0  0  0  0  0  0  0  0  0  0  0  0
  -22.1820  -15.2033   18.5003 C   0  0  0  0  0  0  0  0  0  0  0  0
  -22.7383  -28.8559   23.4019 C   0  0  0  0  0  0  0  0  0  0  0  0
  -25.2891  -28.7989   25.4050 C   0  0  0  0  0  0  0  0  0  0  0  0
  -28.4730  -27.7305   26.0118 C   0  0  0  0  0  0  0  0  0  0  0  0
  -29.3627  -18.1857   20.2153 C   0  0  0  0  0  0  0  0  0  0  0  0
  -18.6412  -31.4201   25.0440 C   0  0  0  0  0  0  0  0  0  0  0  0
  -23.2125  -26.3838   23.5425 C   0  0  0  0  0  0  0  0  0  0  0  0
  -25.6754  -27.9482   23.0613 C   0  0  0  0  0  0  0  0  0  0  0  0
  -20.1529  -31.5595   25.2041 C   0  0  0  0  0  0  0  0  0  0  0  0
  -29.1812  -14.7237   20.8969 C   0  0  0  0  0  0  0  0  0  0  0  0
  -20.8445  -31.4630   23.8480 C   0  0  0  0  0  0  0  0  0  0  0  0
  -30.1873  -26.3212   16.2537 C   0  0  0  0  0  0  0  0  0  0  0  0
  -30.8513  -27.0800   17.3599 C   0  0  0  0  0  0  0  0  0  0  0  0
  -27.6938  -14.3976   20.7948 C   0  0  0  0  0  0  0  0  0  0  0  0
  -28.0068  -21.4891   21.0539 C   0  0  0  0  0  0  0  0  0  0  0  0
  -29.3926  -16.0936   21.5276 C   0  0  0  0  0  0  0  0  0  0  0  0
  -27.7591  -19.9868   21.0808 C   0  0  0  0  0  0  0  0  0  0  0  0
  -29.3279  -20.5036   19.3447 C   0  0  0  0  0  0  0  0  0  0  0  0
  -27.2156  -16.8963   20.6521 C   0  0  0  0  0  0  0  0  0  0  0  0
  -20.5923  -30.0981   23.1959 C   0  0  1  0  0  0  0  0  0  0  0  0
  -29.5683  -26.3177   17.6402 C   0  0  0  0  0  0  0  0  0  0  0  0
  -28.4559  -21.7399   19.6052 C   0  0  2  0  0  0  0  0  0  0  0  0
  -23.4247  -27.7597   24.1665 C   0  0  1  0  0  0  0  0  0  0  0  0
  -26.9467  -15.5068   20.0382 C   0  0  2  0  0  0  0  0  0  0  0  0
  -30.3083  -27.8761   27.7170 C   0  0  0  0  0  0  0  0  0  0  0  0
  -25.9217  -31.6363   24.4783 C   0  0  0  0  0  0  0  0  0  0  0  0
  -28.2136  -31.3679   25.4495 C   0  0  0  0  0  0  0  0  0  0  0  0
  -26.2110  -31.2514   26.9324 C   0  0  0  0  0  0  0  0  0  0  0  0
  -28.4593  -24.8031   26.4465 C   0  0  0  0  0  0  0  0  0  0  0  0
  -27.5850  -23.8965   17.5841 C   0  0  0  0  0  0  0  0  0  0  0  0
  -26.2873  -24.1669   18.3378 C   0  0  0  0  0  0  0  0  0  1  0  0
  -26.6991  -29.3360   25.3560 C   0  0  1  0  0  0  0  0  0  0  0  0
  -29.1033  -27.0848   27.2325 C   0  0  2  0  0  0  0  0  0  0  0  0
  -26.7517  -30.8797   25.5345 C   0  0  0  0  0  0  0  0  0  0  0  0
  -24.8555  -14.5591   20.9399 N   0  0  0  0  0  0  0  0  0  0  0  0
  -28.7503  -23.9904   18.4413 N   0  0  0  0  0  0  0  0  0  0  0  0
  -25.4602  -15.2169   19.9361 N   0  0  0  0  0  0  0  0  0  0  0  0
  -30.2485  -23.5046   19.9158 N   0  3  0  0  0  0  0  0  0  0  0  0
  -24.8395  -28.1257   24.2602 N   0  0  0  0  0  0  0  0  0  0  0  0
  -28.6546  -17.1394   20.8168 N   0  0  0  0  0  0  0  0  0  0  0  0
  -28.7534  -19.4387   20.1606 N   0  0  0  0  0  0  0  0  0  0  0  0
  -25.0661  -16.2172   17.8254 N   0  0  0  0  0  0  0  0  0  0  0  0
  -20.9970  -14.6628   19.0178 N   0  0  0  0  0  0  0  0  0  0  0  0
  -21.4347  -29.0870   23.7979 N   0  0  0  0  0  0  0  0  0  0  0  0
  -27.4542  -28.5925   26.3587 N   0  0  0  0  0  0  0  0  0  0  0  0
  -29.5486  -25.6988   26.9136 N   0  3  0  0  0  0  0  0  0  0  0  0
  -22.1632  -15.7605   17.3766 O   0  0  0  0  0  0  0  0  0  0  0  0
  -23.3467  -29.4492   22.5190 O   0  0  0  0  0  0  0  0  0  0  0  0
  -24.6140  -28.9641   26.4241 O   0  0  0  0  0  0  0  0  0  0  0  0
  -28.8494  -27.4967   24.8654 O   0  0  0  0  0  0  0  0  0  0  0  0
  -30.5104  -18.0190   19.7809 O   0  0  0  0  0  0  0  0  0  0  0  0
  -19.7571  -11.9491   23.7225 O   0  0  0  0  0  0  0  0  0  0  0  0
  -26.3078  -25.4844   18.8724 O   0  0  0  0  0  0  0  0  0  1  0  0
  -21.1038   -7.1145   26.0066 F   0  0  0  0  0  0  0  0  0  0  0  0
  -21.9027  -11.7472   25.4540 F   0  0  0  0  0  0  0  0  0  0  0  0
  1  2  1  0  0  0  0
  1  5  2  0  0  0  0
  2  6  2  0  0  0  0
  3  8  2  0  0  0  0
  3 16  1  0  0  0  0
  4  9  1  0  0  0  0
  4 16  2  0  0  0  0
  5 18  1  0  0  0  0
  6 20  1  0  0  0  0
  7 10  2  0  0  0  0
  7 19  1  0  0  0  0
  8 22  1  0  0  0  0
  9 22  2  0  0  0  0
 10 23  1  0  0  0  0
 11 12  2  0  0  0  0
 11 24  1  0  0  0  0
 12 25  1  0  0  0  0
 13 21  1  0  0  0  0
 13 23  2  0  0  0  0
 14 25  2  0  0  0  0
 14 26  1  0  0  0  0
 15 28  2  0  0  0  0
 15 68  1  0  0  0  0
 16 27  1  0  0  0  0
 17 27  1  0  0  0  0
 17 29  2  0  0  0  0
 17 31  1  0  0  0  0
 18 20  2  0  0  0  0
 18 36  1  0  0  0  0
 19 21  2  0  0  0  0
 19 37  1  0  0  0  0
 20 50  1  0  0  0  0
 21 38  1  0  0  0  0
 22 82  1  0  0  0  0
 23 83  1  0  0  0  0
 24 26  2  0  0  0  0
 24 82  1  0  0  0  0
 25 84  1  0  0  0  0
 26 85  1  0  0  0  0
 27 65  2  0  0  0  0
 28 51  1  0  0  0  0
 28 66  1  0  0  0  0
 29 67  1  0  0  0  0
 29 72  1  0  0  0  0
 30 52  1  0  0  0  0
 30 66  1  0  0  0  0
 30 68  2  0  0  0  0
 31 73  1  0  0  0  0
 31 77  2  0  0  0  0
 32 53  1  0  0  0  0
 32 74  1  0  0  0  0
 32 78  2  0  0  0  0
 33 62  1  0  0  0  0
 33 69  1  0  0  0  0
 33 79  2  0  0  0  0
 34 63  1  0  0  0  0
 34 75  1  0  0  0  0
 34 80  2  0  0  0  0
 35 70  1  0  0  0  0
 35 71  1  0  0  0  0
 35 81  2  0  0  0  0
 36 39  1  0  0  0  0
 37 53  1  0  0  0  0
 38 69  1  0  0  0  0
 39 41  1  0  0  0  0
 40 44  1  0  0  0  0
 40 46  1  0  0  0  0
 41 50  1  0  0  0  0
 42 43  1  0  0  0  0
 42 51  1  0  0  0  0
 43 51  1  0  0  0  0
 44 54  1  0  0  0  0
 45 47  1  0  0  0  0
 45 52  1  0  0  0  0
 46 70  1  0  0  0  0
 47 71  1  0  0  0  0
 48 52  1  0  0  0  0
 48 71  1  0  0  0  0
 49 54  1  0  0  0  0
 49 70  1  0  0  0  0
 50 74  1  0  0  0  0
 53 69  1  0  0  0  0
 54 67  1  0  0  0  0
 55 63  1  0  0  0  0
 56 64  1  0  0  0  0
 57 64  1  0  0  0  0
 58 64  1  0  0  0  0
 59 76  1  0  0  0  0
 60 61  1  0  0  0  0
 60 66  1  0  0  0  0
 61 83  1  0  0  0  0
 62 64  1  0  0  0  0
 62 75  1  0  0  0  0
 63 76  1  0  0  0  0
 65 67  1  0  0  0  0
M  CHG  2  68   1  76   1
M  ISO  4  35 100  61 101  71 100  83 101
M  END
> <Batch ID>
0194

> <Smiles>
CNC(C)C(=O)NC(C(=O)N1Cc2cc([101O:1][101CH2:1]Cn3c(C4CC4)cnc3C3CC[100N:0]([100C:0](=O)N4CCCC(n5nc(-c6ccc(Oc7ccc(F)cc7F)cc6)c(C(N)=O)c5N)C4)C3)ccc2CC1C(=O)NC1CCCc2ccccc21)C(C)(C)C

> <Shape>
0.246

> <Color>
0.068

> <Negative vol penalty>
0.000

$$$$

  -OEChem-04052323343D

 84 93  0     1  0  0  0  0  0999 V2000
  -25.5654  -38.6616   19.4748 C   0  0  0  0  0  0  0  0  0  0  0  0
  -26.2195  -37.5849   18.8847 C   0  0  0  0  0  0  0  0  0  0  0  0
  -24.4493   -8.5761   21.3253 C   0  0  0  0  0  0  0  0  0  0  0  0
  -23.7902   -7.9612   19.0838 C   0  0  0  0  0  0  0  0  0  0  0  0
  -25.0527  -38.5418   20.7658 C   0  0  0  0  0  0  0  0  0  0  0  0
  -26.3624  -36.3880   19.5857 C   0  0  0  0  0  0  0  0  0  0  0  0
  -26.6320  -29.3058   18.5440 C   0  0  0  0  0  0  0  0  0  0  0  0
  -23.3303   -7.9175   21.8350 C   0  0  0  0  0  0  0  0  0  0  0  0
  -22.6712   -7.3025   19.5935 C   0  0  0  0  0  0  0  0  0  0  0  0
  -27.4304  -28.2027   18.8432 C   0  0  0  0  0  0  0  0  0  0  0  0
  -22.4007   -4.7349   22.4985 C   0  0  0  0  0  0  0  0  0  0  0  0
  -22.5832   -3.9124   23.6101 C   0  0  0  0  0  0  0  0  0  0  0  0
  -26.4349  -28.0851   21.0374 C   0  0  0  0  0  0  0  0  0  0  0  0
  -21.0245   -5.2648   24.8666 C   0  0  0  0  0  0  0  0  0  0  0  0
  -24.6792   -8.5980   19.9497 C   0  0  0  0  0  0  0  0  0  0  0  0
  -27.1125   -8.7336   19.1960 C   0  0  0  0  0  0  0  0  0  0  0  0
  -25.1808  -37.3397   21.4794 C   0  0  0  0  0  0  0  0  0  0  0  0
  -25.7353  -29.8143   19.4947 C   0  0  0  0  0  0  0  0  0  0  0  0
  -25.8521  -36.2525   20.8880 C   0  0  0  0  0  0  0  0  0  0  0  0
  -25.6244  -29.1931   20.7468 C   0  0  0  0  0  0  0  0  0  0  0  0
  -22.4413   -7.2807   20.9691 C   0  0  0  0  0  0  0  0  0  0  0  0
  -27.3341  -27.5940   20.0911 C   0  0  0  0  0  0  0  0  0  0  0  0
  -21.5302   -5.8225   22.5709 C   0  0  0  0  0  0  0  0  0  0  0  0
  -21.8951   -4.1773   24.7942 C   0  0  0  0  0  0  0  0  0  0  0  0
  -20.8421   -6.0873   23.7550 C   0  0  0  0  0  0  0  0  0  0  0  0
  -25.8345   -9.2787   19.4225 C   0  0  0  0  0  0  0  0  0  0  0  0
  -27.8474   -9.7789   18.6923 C   0  0  0  0  0  0  0  0  0  0  0  0
  -27.5925   -7.4013   19.4209 C   0  0  0  0  0  0  0  0  0  0  0  0
  -25.4139  -32.5858   21.0175 C   0  0  0  0  0  0  0  0  0  0  0  0
  -22.6844  -31.2202   22.1163 C   0  0  0  0  0  0  0  0  0  0  0  0
  -20.9465  -28.3645   22.8030 C   0  0  0  0  0  0  0  0  0  0  0  0
  -26.9187  -15.7133   19.3519 C   0  0  0  0  0  0  0  0  0  0  0  0
  -24.6519  -37.2731   22.8902 C   0  0  0  0  0  0  0  0  0  0  0  0
  -24.8619  -30.9884   19.1468 C   0  0  0  0  0  0  0  0  0  0  0  0
  -24.6629  -29.6880   21.7952 C   0  0  0  0  0  0  0  0  0  0  0  0
  -24.5160  -35.8491   23.4232 C   0  0  0  0  0  0  0  0  0  0  0  0
  -27.3834  -13.8284   16.1918 C   0  0  0  0  0  0  0  0  0  0  0  0
  -25.7746  -35.0428   23.1188 C   0  0  0  0  0  0  0  0  0  0  0  0
  -27.1048  -12.3969   16.6525 C   0  0  0  0  0  0  0  0  0  0  0  0
  -29.2603  -18.3001   18.1957 C   0  0  0  0  0  0  0  0  0  0  0  0
  -28.5863  -21.7392   21.6465 C   0  0  0  0  0  0  0  0  0  0  0  0
  -27.3117  -22.0536   19.4835 C   0  0  0  0  0  0  0  0  0  0  0  0
  -26.5754  -14.8300   17.0065 C   0  0  0  0  0  0  0  0  0  0  0  0
  -28.4562  -17.0635   17.8069 C   0  0  0  0  0  0  0  0  0  0  0  0
  -26.5137  -13.3122   18.9480 C   0  0  0  0  0  0  0  0  0  0  0  0
  -27.4299  -18.1124   19.7110 C   0  0  0  0  0  0  0  0  0  0  0  0
  -29.5935  -22.7901   21.1941 C   0  0  0  0  0  0  0  0  0  0  0  0
  -28.3288  -23.1021   19.0482 C   0  0  0  0  0  0  0  0  0  0  0  0
  -26.0052  -34.9297   21.6070 C   0  0  1  0  0  0  0  0  0  0  0  0
  -24.3529  -31.7388   20.3737 C   0  0  1  0  0  0  0  0  0  0  0  0
  -27.3121  -12.2504   18.1710 C   0  0  1  0  0  0  0  0  0  0  0  0
  -28.2120  -19.1386   18.9117 C   0  0  1  0  0  0  0  0  0  0  0  0
  -27.8757  -21.0471   20.4848 C   0  0  0  0  0  0  0  0  0  0  0  0
  -18.7550  -27.5669   23.7295 C   0  0  0  0  0  0  0  0  0  0  0  0
  -23.6450  -31.8674   24.9391 C   0  0  0  0  0  0  0  0  0  0  0  0
  -21.9462  -30.2493   25.8132 C   0  0  0  0  0  0  0  0  0  0  0  0
  -21.2076  -32.2689   24.5489 C   0  0  0  0  0  0  0  0  0  0  0  0
  -20.2322  -27.0170   20.2667 C   0  0  0  0  0  0  0  0  0  0  0  0
  -29.8314  -24.9033   19.8929 C   0  0  0  0  0  0  0  0  0  0  0  0
  -29.0063  -26.0635   19.3720 C   0  0  0  0  0  0  0  0  0  1  0  0
  -22.3200  -30.3678   23.3078 C   0  0  1  0  0  0  0  0  0  0  0  0
  -19.5245  -27.9471   22.4741 C   0  0  2  0  0  0  0  0  0  0  0  0
  -22.2993  -31.1800   24.6334 C   0  0  0  0  0  0  0  0  0  0  0  0
  -25.7585  -10.5701   19.0900 N   0  0  0  0  0  0  0  0  0  0  0  0
  -26.9980  -10.8452   18.6496 N   0  0  0  0  0  0  0  0  0  0  0  0
  -23.8350  -30.8427   21.4096 N   0  0  0  0  0  0  0  0  0  0  0  0
  -26.8078  -14.6550   18.4430 N   0  0  0  0  0  0  0  0  0  0  0  0
  -27.4829  -16.9024   18.8922 N   0  0  0  0  0  0  0  0  0  0  0  0
  -29.1308   -9.8808   18.2862 N   0  0  0  0  0  0  0  0  0  0  0  0
  -26.7050   -6.4507   19.9434 N   0  0  0  0  0  0  0  0  0  0  0  0
  -25.1223  -33.9365   21.0340 N   0  0  0  0  0  0  0  0  0  0  0  0
  -21.0506  -29.7281   22.9791 N   0  0  0  0  0  0  0  0  0  0  0  0
  -28.9148  -23.7714   20.2685 N   0  3  0  0  0  0  0  0  0  0  0  0
  -28.8358  -20.1438   19.7877 N   0  3  0  0  0  0  0  0  0  0  0  0
  -19.5285  -26.7759   21.5526 N   0  3  0  0  0  0  0  0  0  0  0  0
  -28.7779   -7.0682   19.1813 O   0  0  0  0  0  0  0  0  0  0  0  0
  -26.4217  -32.0533   21.4675 O   0  0  0  0  0  0  0  0  0  0  0  0
  -21.9703  -32.1812   21.8192 O   0  0  0  0  0  0  0  0  0  0  0  0
  -21.8715  -27.5609   22.8981 O   0  0  0  0  0  0  0  0  0  0  0  0
  -26.5741  -15.5862   20.5343 O   0  0  0  0  0  0  0  0  0  0  0  0
  -21.3495   -6.6377   21.4662 O   0  0  0  0  0  0  0  0  0  0  0  0
  -28.1183  -26.5099   20.3882 O   0  0  0  0  0  0  0  0  0  1  0  0
  -22.0692   -3.3865   25.8611 F   0  0  0  0  0  0  0  0  0  0  0  0
  -20.0035   -7.1299   23.8302 F   0  0  0  0  0  0  0  0  0  0  0  0
  1  2  1  0  0  0  0
  1  5  2  0  0  0  0
  2  6  2  0  0  0  0
  3  8  2  0  0  0  0
  3 15  1  0  0  0  0
  4  9  1  0  0  0  0
  4 15  2  0  0  0  0
  5 17  1  0  0  0  0
  6 19  1  0  0  0  0
  7 10  2  0  0  0  0
  7 18  1  0  0  0  0
  8 21  1  0  0  0  0
  9 21  2  0  0  0  0
 10 22  1  0  0  0  0
 11 12  2  0  0  0  0
 11 23  1  0  0  0  0
 12 24  1  0  0  0  0
 13 20  1  0  0  0  0
 13 22  2  0  0  0  0
 14 24  2  0  0  0  0
 14 25  1  0  0  0  0
 15 26  1  0  0  0  0
 16 26  1  0  0  0  0
 16 27  2  0  0  0  0
 16 28  1  0  0  0  0
 17 19  2  0  0  0  0
 17 33  1  0  0  0  0
 18 20  2  0  0  0  0
 18 34  1  0  0  0  0
 19 49  1  0  0  0  0
 20 35  1  0  0  0  0
 21 81  1  0  0  0  0
 22 82  1  0  0  0  0
 23 25  2  0  0  0  0
 23 81  1  0  0  0  0
 24 83  1  0  0  0  0
 25 84  1  0  0  0  0
 26 64  2  0  0  0  0
 27 65  1  0  0  0  0
 27 69  1  0  0  0  0
 28 70  1  0  0  0  0
 28 76  2  0  0  0  0
 29 50  1  0  0  0  0
 29 71  1  0  0  0  0
 29 77  2  0  0  0  0
 30 61  1  0  0  0  0
 30 66  1  0  0  0  0
 30 78  2  0  0  0  0
 31 62  1  0  0  0  0
 31 72  1  0  0  0  0
 31 79  2  0  0  0  0
 32 67  1  0  0  0  0
 32 68  1  0  0  0  0
 32 80  2  0  0  0  0
 33 36  1  0  0  0  0
 34 50  1  0  0  0  0
 35 66  1  0  0  0  0
 36 38  1  0  0  0  0
 37 39  1  0  0  0  0
 37 43  1  0  0  0  0
 38 49  1  0  0  0  0
 39 51  1  0  0  0  0
 40 44  1  0  0  0  0
 40 52  1  0  0  0  0
 41 47  1  0  0  0  0
 41 53  1  0  0  0  0
 42 48  1  0  0  0  0
 42 53  1  0  0  0  0
 43 67  1  0  0  0  0
 44 68  1  0  0  0  0
 45 51  1  0  0  0  0
 45 67  1  0  0  0  0
 46 52  1  0  0  0  0
 46 68  1  0  0  0  0
 47 73  1  0  0  0  0
 48 73  1  0  0  0  0
 49 71  1  0  0  0  0
 50 66  1  0  0  0  0
 51 65  1  0  0  0  0
 52 74  1  0  0  0  0
 53 74  1  0  0  0  0
 54 62  1  0  0  0  0
 55 63  1  0  0  0  0
 56 63  1  0  0  0  0
 57 63  1  0  0  0  0
 58 75  1  0  0  0  0
 59 60  1  0  0  0  0
 59 73  1  0  0  0  0
 60 82  1  0  0  0  0
 61 63  1  0  0  0  0
 61 72  1  0  0  0  0
 62 75  1  0  0  0  0
 64 65  1  0  0  0  0
M  CHG  3  73   1  74   1  75   1
M  ISO  4  32 100  60 101  68 100  82 101
M  END
> <Batch ID>
0194

> <Smiles>
CNC(C)C(=O)NC(C(=O)N1Cc2cc([101O:1][101CH2:1]CN3CCC(NC4CC[100N:0]([100C:0](=O)N5CCCC(n6nc(-c7ccc(Oc8ccc(F)cc8F)cc7)c(C(N)=O)c6N)C5)C4)CC3)ccc2CC1C(=O)NC1CCCc2ccccc21)C(C)(C)C

> <Shape>
0.288

> <Color>
0.089

> <Negative vol penalty>
0.000

$$$$

  -OEChem-04052323343D

 80 89  0     1  0  0  0  0  0999 V2000
  -33.5764  -32.7412   16.8345 C   0  0  0  0  0  0  0  0  0  0  0  0
  -33.0099  -31.5380   17.2430 C   0  0  0  0  0  0  0  0  0  0  0  0
  -24.9672   -9.5456   18.8626 C   0  0  0  0  0  0  0  0  0  0  0  0
  -25.0975   -9.1934   21.2492 C   0  0  0  0  0  0  0  0  0  0  0  0
  -33.4619  -33.8733   17.6402 C   0  0  0  0  0  0  0  0  0  0  0  0
  -32.3296  -31.4660   18.4581 C   0  0  0  0  0  0  0  0  0  0  0  0
  -27.9503  -28.9504   18.0866 C   0  0  0  0  0  0  0  0  0  0  0  0
  -24.8008   -8.1743   18.6693 C   0  0  0  0  0  0  0  0  0  0  0  0
  -24.9311   -7.8221   21.0560 C   0  0  0  0  0  0  0  0  0  0  0  0
  -28.0169  -27.5582   18.0496 C   0  0  0  0  0  0  0  0  0  0  0  0
  -26.7498   -5.4135   18.6075 C   0  0  0  0  0  0  0  0  0  0  0  0
  -27.4924   -4.8079   17.5940 C   0  0  0  0  0  0  0  0  0  0  0  0
  -27.4403  -27.4745   20.3905 C   0  0  0  0  0  0  0  0  0  0  0  0
  -25.4474   -4.1192   16.5073 C   0  0  0  0  0  0  0  0  0  0  0  0
  -27.2017  -22.4326   17.6465 C   0  0  0  0  0  0  0  0  0  0  0  0
  -25.1156  -10.0552   20.1526 C   0  0  0  0  0  0  0  0  0  0  0  0
  -24.2773  -12.4316   20.5499 C   0  0  0  0  0  0  0  0  0  0  0  0
  -32.7716  -33.8175   18.8612 C   0  0  0  0  0  0  0  0  0  0  0  0
  -27.6384  -29.6165   19.2805 C   0  0  0  0  0  0  0  0  0  0  0  0
  -32.2070  -32.5981   19.2815 C   0  0  0  0  0  0  0  0  0  0  0  0
  -27.3680  -28.8750   20.4394 C   0  0  0  0  0  0  0  0  0  0  0  0
  -24.7828   -7.3125   19.7660 C   0  0  0  0  0  0  0  0  0  0  0  0
  -27.7647  -26.8202   19.2023 C   0  0  0  0  0  0  0  0  0  0  0  0
  -25.3560   -5.3719   18.5711 C   0  0  0  0  0  0  0  0  0  0  0  0
  -26.8412   -4.1607   16.5438 C   0  0  0  0  0  0  0  0  0  0  0  0
  -24.7048   -4.7248   17.5210 C   0  0  0  0  0  0  0  0  0  0  0  0
  -25.2880  -11.4716   20.3529 C   0  0  0  0  0  0  0  0  0  0  0  0
  -28.1543  -23.3654   18.0798 C   0  0  0  0  0  0  0  0  0  0  0  0
  -24.9538  -13.6188   20.6890 C   0  0  0  0  0  0  0  0  0  0  0  0
  -22.8543  -12.2650   20.6026 C   0  0  0  0  0  0  0  0  0  0  0  0
  -29.1522  -31.6922   21.1524 C   0  0  0  0  0  0  0  0  0  0  0  0
  -26.3099  -31.7619   22.7141 C   0  0  0  0  0  0  0  0  0  0  0  0
  -23.3753  -30.1882   23.4613 C   0  0  0  0  0  0  0  0  0  0  0  0
  -28.8082  -17.0859   18.8247 C   0  0  0  0  0  0  0  0  0  0  0  0
  -32.7148  -35.0559   19.7203 C   0  0  0  0  0  0  0  0  0  0  0  0
  -27.5444  -31.1176   19.2974 C   0  0  0  0  0  0  0  0  0  0  0  0
  -27.0089  -29.5414   21.7415 C   0  0  0  0  0  0  0  0  0  0  0  0
  -31.6555  -34.9880   20.8174 C   0  0  0  0  0  0  0  0  0  0  0  0
  -29.8644  -14.5721   21.3102 C   0  0  0  0  0  0  0  0  0  0  0  0
  -31.7226  -33.6474   21.5421 C   0  0  0  0  0  0  0  0  0  0  0  0
  -28.6960  -13.5924   21.2514 C   0  0  0  0  0  0  0  0  0  0  0  0
  -30.9931  -20.2104   18.8253 C   0  0  0  0  0  0  0  0  0  0  0  0
  -30.1479  -15.2089   19.9504 C   0  0  0  0  0  0  0  0  0  0  0  0
  -27.7845  -14.8794   19.2796 C   0  0  0  0  0  0  0  0  0  0  0  0
  -31.4400  -32.4862   20.5813 C   0  0  1  0  0  0  0  0  0  0  0  0
  -27.7223  -31.7118   20.6912 C   0  0  1  0  0  0  0  0  0  0  0  0
  -27.4535  -14.2656   20.6486 C   0  0  1  0  0  0  0  0  0  0  0  0
  -29.5387  -20.3829   19.1908 C   0  0  2  0  0  0  0  0  0  0  0  0
  -29.9854  -19.2101   18.3410 C   0  0  2  0  0  0  0  0  0  0  0  0
  -21.2683  -30.4778   24.7932 C   0  0  0  0  0  0  0  0  0  0  0  0
  -27.8428  -31.1222   25.2736 C   0  0  0  0  0  0  0  0  0  0  0  0
  -25.6654  -30.4942   26.3379 C   0  0  0  0  0  0  0  0  0  0  0  0
  -26.0340  -32.8286   25.5398 C   0  0  0  0  0  0  0  0  0  0  0  0
  -21.6859  -30.0592   21.0347 C   0  0  0  0  0  0  0  0  0  0  0  0
  -28.1616  -24.8573   17.9196 C   0  0  0  0  0  0  0  0  0  1  0  0
  -25.6942  -30.9798   23.8491 C   0  0  1  0  0  0  0  0  0  0  0  0
  -21.9377  -30.6755   23.4421 C   0  0  2  0  0  0  0  0  0  0  0  0
  -26.3178  -31.3434   25.2262 C   0  0  0  0  0  0  0  0  0  0  0  0
  -27.5823  -21.2006   17.9962 N   0  0  0  0  0  0  0  0  0  0  0  0
  -26.5133  -12.0031   20.3649 N   0  0  0  0  0  0  0  0  0  0  0  0
  -29.1498  -22.7364   18.7107 N   0  0  0  0  0  0  0  0  0  0  0  0
  -26.2770  -13.3099   20.5711 N   0  0  0  0  0  0  0  0  0  0  0  0
  -28.7420  -21.4603   18.6212 N   0  0  0  0  0  0  0  0  0  0  0  0
  -26.9358  -31.0115   21.7087 N   0  0  0  0  0  0  0  0  0  0  0  0
  -28.9319  -15.7917   19.3616 N   0  0  0  0  0  0  0  0  0  0  0  0
  -24.5400  -14.8864   20.8994 N   0  0  0  0  0  0  0  0  0  0  0  0
  -22.3259  -10.9770   20.4406 N   0  0  0  0  0  0  0  0  0  0  0  0
  -30.0200  -32.3774   20.3237 N   0  0  0  0  0  0  0  0  0  0  0  0
  -24.2552  -31.2050   23.7666 N   0  0  0  0  0  0  0  0  0  0  0  0
  -29.9570  -17.8682   18.8588 N   0  0  0  0  0  0  0  0  0  0  0  0
  -21.1528  -29.9331   22.4156 N   0  3  0  0  0  0  0  0  0  0  0  0
  -22.0734  -13.2321   20.7714 O   0  0  0  0  0  0  0  0  0  0  0  0
  -29.4461  -31.1004   22.1845 O   0  0  0  0  0  0  0  0  0  0  0  0
  -26.2319  -32.9930   22.7158 O   0  0  0  0  0  0  0  0  0  0  0  0
  -23.6862  -29.0215   23.2323 O   0  0  0  0  0  0  0  0  0  0  0  0
  -27.7529  -17.5136   18.3439 O   0  0  0  0  0  0  0  0  0  0  0  0
  -24.6202   -5.9743   19.5777 O   0  0  0  0  0  0  0  0  0  0  0  0
  -27.8296  -25.4613   19.1691 O   0  0  0  0  0  0  0  0  0  1  0  0
  -27.5544   -3.5805   15.5697 F   0  0  0  0  0  0  0  0  0  0  0  0
  -23.3660   -4.6826   17.4799 F   0  0  0  0  0  0  0  0  0  0  0  0
  1  2  1  0  0  0  0
  1  5  2  0  0  0  0
  2  6  2  0  0  0  0
  3  8  2  0  0  0  0
  3 16  1  0  0  0  0
  4  9  1  0  0  0  0
  4 16  2  0  0  0  0
  5 18  1  0  0  0  0
  6 20  1  0  0  0  0
  7 10  2  0  0  0  0
  7 19  1  0  0  0  0
  8 22  1  0  0  0  0
  9 22  2  0  0  0  0
 10 23  1  0  0  0  0
 11 12  2  0  0  0  0
 11 24  1  0  0  0  0
 12 25  1  0  0  0  0
 13 21  1  0  0  0  0
 13 23  2  0  0  0  0
 14 25  2  0  0  0  0
 14 26  1  0  0  0  0
 15 28  1  0  0  0  0
 15 59  2  0  0  0  0
 16 27  1  0  0  0  0
 17 27  1  0  0  0  0
 17 29  2  0  0  0  0
 17 30  1  0  0  0  0
 18 20  2  0  0  0  0
 18 35  1  0  0  0  0
 19 21  2  0  0  0  0
 19 36  1  0  0  0  0
 20 45  1  0  0  0  0
 21 37  1  0  0  0  0
 22 77  1  0  0  0  0
 23 78  1  0  0  0  0
 24 26  2  0  0  0  0
 24 77  1  0  0  0  0
 25 79  1  0  0  0  0
 26 80  1  0  0  0  0
 27 60  2  0  0  0  0
 28 55  1  0  0  0  0
 28 61  2  0  0  0  0
 29 62  1  0  0  0  0
 29 66  1  0  0  0  0
 30 67  1  0  0  0  0
 30 72  2  0  0  0  0
 31 46  1  0  0  0  0
 31 68  1  0  0  0  0
 31 73  2  0  0  0  0
 32 56  1  0  0  0  0
 32 64  1  0  0  0  0
 32 74  2  0  0  0  0
 33 57  1  0  0  0  0
 33 69  1  0  0  0  0
 33 75  2  0  0  0  0
 34 65  1  0  0  0  0
 34 70  1  0  0  0  0
 34 76  2  0  0  0  0
 35 38  1  0  0  0  0
 36 46  1  0  0  0  0
 37 64  1  0  0  0  0
 38 40  1  0  0  0  0
 39 41  1  0  0  0  0
 39 43  1  0  0  0  0
 40 45  1  0  0  0  0
 41 47  1  0  0  0  0
 42 48  1  0  0  0  0
 42 49  1  0  0  0  0
 43 65  1  0  0  0  0
 44 47  1  0  0  0  0
 44 65  1  0  0  0  0
 45 68  1  0  0  0  0
 46 64  1  0  0  0  0
 47 62  1  0  0  0  0
 48 49  1  0  0  0  0
 48 63  1  0  0  0  0
 49 70  1  0  0  0  0
 50 57  1  0  0  0  0
 51 58  1  0  0  0  0
 52 58  1  0  0  0  0
 53 58  1  0  0  0  0
 54 71  1  0  0  0  0
 55 78  1  0  0  0  0
 56 58  1  0  0  0  0
 56 69  1  0  0  0  0
 57 71  1  0  0  0  0
 59 63  1  0  0  0  0
 60 62  1  0  0  0  0
 61 63  1  0  0  0  0
M  CHG  1  71   1
M  ISO  4  34 100  55 101  70 100  78 101
M  END
> <Batch ID>
0194

> <Smiles>
CNC(C)C(=O)NC(C(=O)N1Cc2cc([101O:1][101CH2:1]c3cnn(C4CC4[100NH:0][100C:0](=O)N4CCCC(n5nc(-c6ccc(Oc7ccc(F)cc7F)cc6)c(C(N)=O)c5N)C4)n3)ccc2CC1C(=O)NC1CCCc2ccccc21)C(C)(C)C

> <Shape>
0.221

> <Color>
0.118

> <Negative vol penalty>
0.000

$$$$

  -OEChem-04052323343D

 82 91  0     1  0  0  0  0  0999 V2000
  -29.2180  -33.9523   25.2619 C   0  0  0  0  0  0  0  0  0  0  0  0
  -29.9066  -32.9543   24.5798 C   0  0  0  0  0  0  0  0  0  0  0  0
  -25.2008  -13.3939   24.5810 C   0  0  0  0  0  0  0  0  0  0  0  0
  -25.2242  -15.4919   23.3831 C   0  0  0  0  0  0  0  0  0  0  0  0
  -27.8854  -33.7567   25.6223 C   0  0  0  0  0  0  0  0  0  0  0  0
  -29.2632  -31.7596   24.2586 C   0  0  0  0  0  0  0  0  0  0  0  0
  -29.1209  -26.6767   19.2128 C   0  0  0  0  0  0  0  0  0  0  0  0
  -25.0313  -14.0817   25.7825 C   0  0  0  0  0  0  0  0  0  0  0  0
  -25.0546  -16.1798   24.5847 C   0  0  0  0  0  0  0  0  0  0  0  0
  -29.2054  -25.2918   19.0764 C   0  0  0  0  0  0  0  0  0  0  0  0
  -26.9723  -17.1365   27.1997 C   0  0  0  0  0  0  0  0  0  0  0  0
  -27.7701  -18.2588   27.4220 C   0  0  0  0  0  0  0  0  0  0  0  0
  -26.8780  -25.0965   19.6799 C   0  0  0  0  0  0  0  0  0  0  0  0
  -25.7897  -19.6315   27.5985 C   0  0  0  0  0  0  0  0  0  0  0  0
  -29.2826  -20.5469   17.4003 C   0  0  0  0  0  0  0  0  0  0  0  0
  -25.2973  -14.0990   23.3813 C   0  0  0  0  0  0  0  0  0  0  0  0
  -24.6068  -12.4320   21.5779 C   0  0  0  0  0  0  0  0  0  0  0  0
  -27.2225  -32.5628   25.2968 C   0  0  0  0  0  0  0  0  0  0  0  0
  -27.9152  -27.2821   19.5950 C   0  0  0  0  0  0  0  0  0  0  0  0
  -27.9209  -31.5473   24.6162 C   0  0  0  0  0  0  0  0  0  0  0  0
  -26.7802  -26.4895   19.8179 C   0  0  0  0  0  0  0  0  0  0  0  0
  -24.9582  -15.4747   25.7844 C   0  0  0  0  0  0  0  0  0  0  0  0
  -28.0846  -24.5012   19.3127 C   0  0  0  0  0  0  0  0  0  0  0  0
  -25.5832  -17.2616   27.1767 C   0  0  0  0  0  0  0  0  0  0  0  0
  -27.1788  -19.5063   27.6215 C   0  0  0  0  0  0  0  0  0  0  0  0
  -24.9920  -18.5091   27.3762 C   0  0  0  0  0  0  0  0  0  0  0  0
  -25.4729  -13.3890   22.1398 C   0  0  0  0  0  0  0  0  0  0  0  0
  -29.1331  -18.5035   18.3507 C   0  0  0  0  0  0  0  0  0  0  0  0
  -29.1633  -19.0807   19.6050 C   0  0  0  0  0  0  0  0  0  0  0  0
  -29.3207  -21.1277   18.6605 C   0  0  0  0  0  0  0  0  0  0  0  0
  -25.2188  -12.0615   20.4054 C   0  0  0  0  0  0  0  0  0  0  0  0
  -23.3605  -11.9235   22.0716 C   0  0  0  0  0  0  0  0  0  0  0  0
  -26.9752  -29.0449   22.0673 C   0  0  0  0  0  0  0  0  0  0  0  0
  -24.2360  -29.2956   20.3479 C   0  0  0  0  0  0  0  0  0  0  0  0
  -22.1895  -27.9859   17.9514 C   0  0  0  0  0  0  0  0  0  0  0  0
  -29.5118  -15.5675   20.5120 C   0  0  0  0  0  0  0  0  0  0  0  0
  -25.7956  -32.3783   25.7490 C   0  0  0  0  0  0  0  0  0  0  0  0
  -27.8335  -28.7794   19.7117 C   0  0  0  0  0  0  0  0  0  0  0  0
  -25.4569  -27.0920   20.2106 C   0  0  0  0  0  0  0  0  0  0  0  0
  -29.0047  -17.0161   18.4532 C   0  0  0  0  0  0  0  0  0  0  0  0
  -25.0757  -31.2331   25.0415 C   0  0  0  0  0  0  0  0  0  0  0  0
  -29.5235  -11.9819   20.4326 C   0  0  0  0  0  0  0  0  0  0  0  0
  -25.9563  -29.9879   25.0092 C   0  0  0  0  0  0  0  0  0  0  0  0
  -28.4208  -11.6132   19.4471 C   0  0  0  0  0  0  0  0  0  0  0  0
  -30.2209  -13.2621   20.0007 C   0  0  0  0  0  0  0  0  0  0  0  0
  -28.1232  -14.1075   18.9588 C   0  0  0  0  0  0  0  0  0  0  0  0
  -27.2502  -30.2474   24.2281 C   0  0  1  0  0  0  0  0  0  0  0  0
  -29.1088  -18.0283   20.6757 C   0  0  1  0  0  0  0  0  0  0  0  0
  -26.6896  -29.2475   20.6061 C   0  0  1  0  0  0  0  0  0  0  0  0
  -27.4191  -12.7587   19.2337 C   0  0  2  0  0  0  0  0  0  0  0  0
  -26.6119  -18.0637   20.7333 C   0  0  0  0  0  0  0  0  0  0  0  0
  -20.0029  -28.3948   16.7900 C   0  0  0  0  0  0  0  0  0  0  0  0
  -22.7418  -28.3128   22.8200 C   0  0  0  0  0  0  0  0  0  0  0  0
  -20.7689  -27.8386   21.3534 C   0  0  0  0  0  0  0  0  0  0  0  0
  -21.6123  -30.1743   21.5899 C   0  0  0  0  0  0  0  0  0  0  0  0
  -23.5028  -28.2129   15.3089 C   0  0  0  0  0  0  0  0  0  0  0  0
  -29.4277  -22.6073   18.7977 C   0  0  0  0  0  0  0  0  0  1  0  0
  -27.8638  -18.1531   21.5441 C   0  0  0  0  0  0  0  0  0  0  0  0
  -22.9561  -28.5006   20.2539 C   0  0  1  0  0  0  0  0  0  0  0  0
  -21.5063  -28.6206   16.7535 C   0  0  2  0  0  0  0  0  0  0  0  0
  -22.0451  -28.6947   21.4988 C   0  0  0  0  0  0  0  0  0  0  0  0
  -29.1859  -19.2114   17.2159 N   0  0  0  0  0  0  0  0  0  0  0  0
  -26.5530  -13.6124   21.3864 N   0  0  0  0  0  0  0  0  0  0  0  0
  -29.2642  -20.4019   19.7994 N   0  0  0  0  0  0  0  0  0  0  0  0
  -26.3696  -12.7905   20.3391 N   0  0  0  0  0  0  0  0  0  0  0  0
  -25.4292  -28.5601   20.3180 N   0  0  0  0  0  0  0  0  0  0  0  0
  -29.1051  -16.7603   19.9073 N   0  0  0  0  0  0  0  0  0  0  0  0
  -29.2829  -14.3702   19.8209 N   0  0  0  0  0  0  0  0  0  0  0  0
  -24.8794  -11.1865   19.4351 N   0  0  0  0  0  0  0  0  0  0  0  0
  -22.1783  -12.5811   21.7050 N   0  0  0  0  0  0  0  0  0  0  0  0
  -26.9961  -30.2139   22.8038 N   0  0  0  0  0  0  0  0  0  0  0  0
  -22.3315  -28.8801   18.9913 N   0  0  0  0  0  0  0  0  0  0  0  0
  -22.0379  -28.0417   15.4872 N   0  3  0  0  0  0  0  0  0  0  0  0
  -23.2983  -10.9256   22.8291 O   0  0  0  0  0  0  0  0  0  0  0  0
  -27.1612  -27.9118   22.4951 O   0  0  0  0  0  0  0  0  0  0  0  0
  -24.1792  -30.5246   20.4371 O   0  0  0  0  0  0  0  0  0  0  0  0
  -22.5567  -26.8131   17.9647 O   0  0  0  0  0  0  0  0  0  0  0  0
  -30.0812  -15.5734   21.6118 O   0  0  0  0  0  0  0  0  0  0  0  0
  -24.7926  -16.1462   26.9566 O   0  0  0  0  0  0  0  0  0  0  0  0
  -28.1650  -23.1400   19.1801 O   0  0  0  0  0  0  0  0  0  1  0  0
  -27.9450  -20.5838   27.8365 F   0  0  0  0  0  0  0  0  0  0  0  0
  -23.6580  -18.6353   27.3564 F   0  0  0  0  0  0  0  0  0  0  0  0
  1  2  1  0  0  0  0
  1  5  2  0  0  0  0
  2  6  2  0  0  0  0
  3  8  2  0  0  0  0
  3 16  1  0  0  0  0
  4  9  1  0  0  0  0
  4 16  2  0  0  0  0
  5 18  1  0  0  0  0
  6 20  1  0  0  0  0
  7 10  2  0  0  0  0
  7 19  1  0  0  0  0
  8 22  1  0  0  0  0
  9 22  2  0  0  0  0
 10 23  1  0  0  0  0
 11 12  2  0  0  0  0
 11 24  1  0  0  0  0
 12 25  1  0  0  0  0
 13 21  1  0  0  0  0
 13 23  2  0  0  0  0
 14 25  2  0  0  0  0
 14 26  1  0  0  0  0
 15 30  1  0  0  0  0
 15 62  2  0  0  0  0
 16 27  1  0  0  0  0
 17 27  1  0  0  0  0
 17 31  2  0  0  0  0
 17 32  1  0  0  0  0
 18 20  2  0  0  0  0
 18 37  1  0  0  0  0
 19 21  2  0  0  0  0
 19 38  1  0  0  0  0
 20 47  1  0  0  0  0
 21 39  1  0  0  0  0
 22 79  1  0  0  0  0
 23 80  1  0  0  0  0
 24 26  2  0  0  0  0
 24 79  1  0  0  0  0
 25 81  1  0  0  0  0
 26 82  1  0  0  0  0
 27 63  2  0  0  0  0
 28 29  2  0  0  0  0
 28 40  1  0  0  0  0
 28 62  1  0  0  0  0
 29 48  1  0  0  0  0
 29 64  1  0  0  0  0
 30 57  1  0  0  0  0
 30 64  2  0  0  0  0
 31 65  1  0  0  0  0
 31 69  1  0  0  0  0
 32 70  1  0  0  0  0
 32 74  2  0  0  0  0
 33 49  1  0  0  0  0
 33 71  1  0  0  0  0
 33 75  2  0  0  0  0
 34 59  1  0  0  0  0
 34 66  1  0  0  0  0
 34 76  2  0  0  0  0
 35 60  1  0  0  0  0
 35 72  1  0  0  0  0
 35 77  2  0  0  0  0
 36 67  1  0  0  0  0
 36 68  1  0  0  0  0
 36 78  2  0  0  0  0
 37 41  1  0  0  0  0
 38 49  1  0  0  0  0
 39 66  1  0  0  0  0
 40 67  1  0  0  0  0
 41 43  1  0  0  0  0
 42 44  1  0  0  0  0
 42 45  1  0  0  0  0
 43 47  1  0  0  0  0
 44 50  1  0  0  0  0
 45 68  1  0  0  0  0
 46 50  1  0  0  0  0
 46 68  1  0  0  0  0
 47 71  1  0  0  0  0
 48 58  1  0  0  0  0
 48 67  1  0  0  0  0
 49 66  1  0  0  0  0
 50 65  1  0  0  0  0
 51 58  1  0  0  0  0
 52 60  1  0  0  0  0
 53 61  1  0  0  0  0
 54 61  1  0  0  0  0
 55 61  1  0  0  0  0
 56 73  1  0  0  0  0
 57 80  1  0  0  0  0
 59 61  1  0  0  0  0
 59 72  1  0  0  0  0
 60 73  1  0  0  0  0
 63 65  1  0  0  0  0
M  CHG  1  73   1
M  ISO  4  36 100  57 101  67 100  80 101
M  END
> <Batch ID>
0194

> <Smiles>
CCC1c2nc([101CH2:1][101O:1]c3ccc4c(c3)CN(C(=O)C(NC(=O)C(C)NC)C(C)(C)C)C(C(=O)NC3CCCc5ccccc53)C4)cnc2C[100N:0]1[100C:0](=O)N1CCCC(n2nc(-c3ccc(Oc4ccc(F)cc4F)cc3)c(C(N)=O)c2N)C1

> <Shape>
0.283

> <Color>
0.086

> <Negative vol penalty>
0.000

$$$$

  -OEChem-04052323343D

 83 92  0     1  0  0  0  0  0999 V2000
  -22.8754  -27.6768   15.9979 C   0  0  0  0  0  0  0  0  0  0  0  0
  -23.3984  -26.6637   16.7952 C   0  0  0  0  0  0  0  0  0  0  0  0
  -22.8833  -10.0466   19.9695 C   0  0  0  0  0  0  0  0  0  0  0  0
  -23.5606  -10.0900   22.2883 C   0  0  0  0  0  0  0  0  0  0  0  0
  -21.5038  -27.7323   15.7538 C   0  0  0  0  0  0  0  0  0  0  0  0
  -22.5499  -25.7062   17.3498 C   0  0  0  0  0  0  0  0  0  0  0  0
  -24.3693  -21.0020   16.8964 C   0  0  0  0  0  0  0  0  0  0  0  0
  -22.0450   -8.9638   20.2346 C   0  0  0  0  0  0  0  0  0  0  0  0
  -22.7222   -9.0071   22.5534 C   0  0  0  0  0  0  0  0  0  0  0  0
  -25.3717  -20.6186   17.7862 C   0  0  0  0  0  0  0  0  0  0  0  0
  -22.3509   -5.6263   20.6730 C   0  0  0  0  0  0  0  0  0  0  0  0
  -22.3716   -4.5572   19.7774 C   0  0  0  0  0  0  0  0  0  0  0  0
  -23.7327  -19.4591   19.1236 C   0  0  0  0  0  0  0  0  0  0  0  0
  -20.0206   -4.8873   19.3291 C   0  0  0  0  0  0  0  0  0  0  0  0
  -23.6412  -10.6097   20.9964 C   0  0  0  0  0  0  0  0  0  0  0  0
  -24.1794  -13.0950   20.7936 C   0  0  0  0  0  0  0  0  0  0  0  0
  -20.6392  -26.7694   16.2978 C   0  0  0  0  0  0  0  0  0  0  0  0
  -23.0371  -20.6255   17.1197 C   0  0  0  0  0  0  0  0  0  0  0  0
  -21.1652  -25.7497   17.1138 C   0  0  0  0  0  0  0  0  0  0  0  0
  -22.7156  -19.8370   18.2337 C   0  0  0  0  0  0  0  0  0  0  0  0
  -21.9644   -8.4441   21.5265 C   0  0  0  0  0  0  0  0  0  0  0  0
  -25.0531  -19.8494   18.9016 C   0  0  0  0  0  0  0  0  0  0  0  0
  -21.1650   -6.3259   20.8967 C   0  0  0  0  0  0  0  0  0  0  0  0
  -21.2065   -4.1877   19.1054 C   0  0  0  0  0  0  0  0  0  0  0  0
  -19.9999   -5.9564   20.2247 C   0  0  0  0  0  0  0  0  0  0  0  0
  -24.5078  -11.7279   20.7231 C   0  0  0  0  0  0  0  0  0  0  0  0
  -25.3379  -13.7449   20.4440 C   0  0  0  0  0  0  0  0  0  0  0  0
  -22.9383  -13.7215   21.1439 C   0  0  0  0  0  0  0  0  0  0  0  0
  -20.3209  -22.1916   17.6427 C   0  0  0  0  0  0  0  0  0  0  0  0
  -19.0252  -19.2249   17.4373 C   0  0  0  0  0  0  0  0  0  0  0  0
  -19.4551  -15.8504   17.7101 C   0  0  0  0  0  0  0  0  0  0  0  0
  -30.8735  -14.3558   20.8022 C   0  0  0  0  0  0  0  0  0  0  0  0
  -19.1580  -26.8981   16.0447 C   0  0  0  0  0  0  0  0  0  0  0  0
  -21.9715  -21.0247   16.1361 C   0  0  0  0  0  0  0  0  0  0  0  0
  -21.3038  -19.3895   18.5078 C   0  0  0  0  0  0  0  0  0  0  0  0
  -18.3731  -25.6282   16.3629 C   0  0  0  0  0  0  0  0  0  0  0  0
  -29.6411  -11.9682   18.4661 C   0  0  0  0  0  0  0  0  0  0  0  0
  -18.7960  -25.0641   17.7156 C   0  0  0  0  0  0  0  0  0  0  0  0
  -28.1711  -11.8012   18.8549 C   0  0  0  0  0  0  0  0  0  0  0  0
  -26.6249  -20.3657   21.9242 C   0  0  0  0  0  0  0  0  0  0  0  0
  -30.5297  -12.1682   19.6918 C   0  0  0  0  0  0  0  0  0  0  0  0
  -28.6421  -13.0961   20.9762 C   0  0  0  0  0  0  0  0  0  0  0  0
  -27.6184  -19.2678   22.2467 C   0  0  0  0  0  0  0  0  0  0  0  0
  -31.1183  -18.7127   22.9502 C   0  0  0  0  0  0  0  0  0  0  0  0
  -31.7832  -16.3768   23.2820 C   0  0  0  0  0  0  0  0  0  0  0  0
  -28.2464  -20.3589   20.1456 C   0  0  0  0  0  0  0  0  0  0  0  0
  -20.2801  -24.6784   17.7130 C   0  0  1  0  0  0  0  0  0  0  0  0
  -20.5698  -21.0179   16.7381 C   0  0  1  0  0  0  0  0  0  0  0  0
  -30.1769  -17.7606   22.2181 C   0  0  2  0  0  0  0  0  0  0  0  0
  -27.6993  -12.9473   19.7698 C   0  0  2  0  0  0  0  0  0  0  0  0
  -31.0605  -16.5439   21.9581 C   0  0  2  0  0  0  0  0  0  0  0  0
  -26.7587  -20.5167   20.4187 C   0  0  1  0  0  0  0  0  0  1  0  0
  -18.2040  -13.6834   17.5196 C   0  0  0  0  0  0  0  0  0  0  0  0
  -17.7169  -19.7451   20.1443 C   0  0  0  0  0  0  0  0  0  0  0  0
  -17.2949  -17.2847   20.3349 C   0  0  0  0  0  0  0  0  0  0  0  0
  -16.2501  -18.5877   18.4820 C   0  0  0  0  0  0  0  0  0  0  0  0
  -32.0959  -18.0092   25.1785 C   0  0  0  0  0  0  0  0  0  0  0  0
  -21.1985  -14.9029   15.5142 C   0  0  0  0  0  0  0  0  0  0  0  0
  -29.5913  -18.3724   20.9642 C   0  0  0  0  0  0  0  0  0  0  0  0
  -18.7331  -18.1156   18.4186 C   0  0  1  0  0  0  0  0  0  0  0  0
  -19.0613  -14.7073   16.7920 C   0  0  2  0  0  0  0  0  0  0  0  0
  -17.5252  -18.4432   19.3411 C   0  0  0  0  0  0  0  0  0  0  0  0
  -25.7755  -11.5203   20.3572 N   0  0  0  0  0  0  0  0  0  0  0  0
  -26.2539  -12.7656   20.1946 N   0  0  0  0  0  0  0  0  0  0  0  0
  -20.2964  -19.8105   17.5202 N   0  0  0  0  0  0  0  0  0  0  0  0
  -30.0288  -13.2705   20.5165 N   0  0  0  0  0  0  0  0  0  0  0  0
  -25.6521  -15.0527   20.3285 N   0  0  0  0  0  0  0  0  0  0  0  0
  -21.8485  -12.9054   21.4767 N   0  0  0  0  0  0  0  0  0  0  0  0
  -20.4738  -23.4190   17.0267 N   0  0  0  0  0  0  0  0  0  0  0  0
  -18.5676  -16.9022   17.6256 N   0  0  0  0  0  0  0  0  0  0  0  0
  -30.3181  -15.3605   21.5849 N   0  0  0  0  0  0  0  0  0  0  0  0
  -32.0822  -17.8048   23.6971 N   0  3  2  0  0  0  0  0  0  0  0  0
  -28.7828  -19.5742   21.3340 N   0  3  2  0  0  0  0  0  0  0  0  0
  -20.2763  -14.0185   16.2720 N   0  3  0  0  0  0  0  0  0  0  0  0
  -22.7951  -14.9677   21.1455 O   0  0  0  0  0  0  0  0  0  0  0  0
  -20.0116  -21.9979   18.8125 O   0  0  0  0  0  0  0  0  0  0  0  0
  -18.1599  -19.5547   16.6223 O   0  0  0  0  0  0  0  0  0  0  0  0
  -20.4485  -15.8124   18.4327 O   0  0  0  0  0  0  0  0  0  0  0  0
  -32.0348  -14.4267   20.3858 O   0  0  0  0  0  0  0  0  0  0  0  0
  -21.1463   -7.3876   21.7856 O   0  0  0  0  0  0  0  0  0  0  0  0
  -26.0295  -19.4743   19.7720 O   0  0  0  0  0  0  0  0  0  1  0  0
  -21.2269   -3.1620   18.2442 F   0  0  0  0  0  0  0  0  0  0  0  0
  -18.8579   -6.6254   20.4347 F   0  0  0  0  0  0  0  0  0  0  0  0
  1  2  1  0  0  0  0
  1  5  2  0  0  0  0
  2  6  2  0  0  0  0
  3  8  2  0  0  0  0
  3 15  1  0  0  0  0
  4  9  1  0  0  0  0
  4 15  2  0  0  0  0
  5 17  1  0  0  0  0
  6 19  1  0  0  0  0
  7 10  2  0  0  0  0
  7 18  1  0  0  0  0
  8 21  1  0  0  0  0
  9 21  2  0  0  0  0
 10 22  1  0  0  0  0
 11 12  2  0  0  0  0
 11 23  1  0  0  0  0
 12 24  1  0  0  0  0
 13 20  1  0  0  0  0
 13 22  2  0  0  0  0
 14 24  2  0  0  0  0
 14 25  1  0  0  0  0
 15 26  1  0  0  0  0
 16 26  1  0  0  0  0
 16 27  2  0  0  0  0
 16 28  1  0  0  0  0
 17 19  2  0  0  0  0
 17 33  1  0  0  0  0
 18 20  2  0  0  0  0
 18 34  1  0  0  0  0
 19 47  1  0  0  0  0
 20 35  1  0  0  0  0
 21 80  1  0  0  0  0
 22 81  1  0  0  0  0
 23 25  2  0  0  0  0
 23 80  1  0  0  0  0
 24 82  1  0  0  0  0
 25 83  1  0  0  0  0
 26 63  2  0  0  0  0
 27 64  1  0  0  0  0
 27 67  1  0  0  0  0
 28 68  1  0  0  0  0
 28 75  2  0  0  0  0
 29 48  1  0  0  0  0
 29 69  1  0  0  0  0
 29 76  2  0  0  0  0
 30 60  1  0  0  0  0
 30 65  1  0  0  0  0
 30 77  2  0  0  0  0
 31 61  1  0  0  0  0
 31 70  1  0  0  0  0
 31 78  2  0  0  0  0
 32 66  1  0  0  0  0
 32 71  1  0  0  0  0
 32 79  2  0  0  0  0
 33 36  1  0  0  0  0
 34 48  1  0  0  0  0
 35 65  1  0  0  0  0
 36 38  1  0  0  0  0
 37 39  1  0  0  0  0
 37 41  1  0  0  0  0
 38 47  1  0  0  0  0
 39 50  1  0  0  0  0
 40 43  1  0  0  0  0
 40 52  1  0  0  0  0
 41 66  1  0  0  0  0
 42 50  1  0  0  0  0
 42 66  1  0  0  0  0
 43 73  1  0  0  0  0
 44 49  1  0  0  0  0
 44 72  1  0  0  0  0
 45 51  1  0  0  0  0
 45 72  1  0  0  0  0
 46 52  1  0  0  0  0
 46 73  1  0  0  0  0
 47 69  1  0  0  0  0
 48 65  1  0  0  0  0
 49 51  1  0  0  0  0
 49 59  1  0  0  0  0
 50 64  1  0  0  0  0
 51 71  1  0  0  0  0
 52 81  1  0  0  0  0
 53 61  1  0  0  0  0
 54 62  1  0  0  0  0
 55 62  1  0  0  0  0
 56 62  1  0  0  0  0
 57 72  1  0  0  0  0
 58 74  1  0  0  0  0
 59 73  1  0  0  0  0
 60 62  1  0  0  0  0
 60 70  1  0  0  0  0
 61 74  1  0  0  0  0
 63 64  1  0  0  0  0
M  CHG  3  72   1  73   1  74   1
M  ISO  4  32 100  52 101  71 100  81 101
M  END
> <Batch ID>
0194

> <Smiles>
CNC(C)C(=O)NC(C(=O)N1Cc2cc([101O:1][101CH:1]3CCN(CC4CN(C)CC4[100NH:0][100C:0](=O)N4CCCC(n5nc(-c6ccc(Oc7ccc(F)cc7F)cc6)c(C(N)=O)c5N)C4)C3)ccc2CC1C(=O)NC1CCCc2ccccc21)C(C)(C)C

> <Shape>
0.174

> <Color>
0.158

> <Negative vol penalty>
0.000

$$$$

  -OEChem-04052323343D

 91101  0     1  0  0  0  0  0999 V2000
  -24.4066  -37.9702   23.4135 C   0  0  0  0  0  0  0  0  0  0  0  0
  -23.5305  -37.0840   22.7971 C   0  0  0  0  0  0  0  0  0  0  0  0
  -24.9307   -7.6591   18.6105 C   0  0  0  0  0  0  0  0  0  0  0  0
  -22.5658   -7.9140   18.1870 C   0  0  0  0  0  0  0  0  0  0  0  0
  -25.7779  -37.7259   23.3791 C   0  0  0  0  0  0  0  0  0  0  0  0
  -24.0243  -35.9470   22.1565 C   0  0  0  0  0  0  0  0  0  0  0  0
  -25.3417  -28.3852   18.9183 C   0  0  0  0  0  0  0  0  0  0  0  0
  -25.0564   -6.8959   17.4498 C   0  0  0  0  0  0  0  0  0  0  0  0
  -22.6914   -7.1508   17.0262 C   0  0  0  0  0  0  0  0  0  0  0  0
  -26.4533  -27.5536   18.7896 C   0  0  0  0  0  0  0  0  0  0  0  0
  -24.4318   -3.7194   16.4781 C   0  0  0  0  0  0  0  0  0  0  0  0
  -25.1839   -2.5471   16.5524 C   0  0  0  0  0  0  0  0  0  0  0  0
  -27.1751  -28.1859   21.0028 C   0  0  0  0  0  0  0  0  0  0  0  0
  -27.0739  -15.7736   20.6390 C   0  0  0  0  0  0  0  0  0  0  0  0
  -26.6853   -3.4034   14.8643 C   0  0  0  0  0  0  0  0  0  0  0  0
  -26.5445  -18.3562   21.3236 C   0  0  0  0  0  0  0  0  0  0  0  0
  -23.6854   -8.1681   18.9792 C   0  0  0  0  0  0  0  0  0  0  0  0
  -23.8484   -8.5547   21.4955 C   0  0  0  0  0  0  0  0  0  0  0  0
  -26.2888  -36.5918   22.7268 C   0  0  0  0  0  0  0  0  0  0  0  0
  -25.1440  -29.1331   20.0880 C   0  0  0  0  0  0  0  0  0  0  0  0
  -25.4033  -35.6704   22.1315 C   0  0  0  0  0  0  0  0  0  0  0  0
  -26.0589  -29.0243   21.1449 C   0  0  0  0  0  0  0  0  0  0  0  0
  -28.1319  -16.6855   20.6994 C   0  0  0  0  0  0  0  0  0  0  0  0
  -27.8689  -18.0145   21.0563 C   0  0  0  0  0  0  0  0  0  0  0  0
  -23.9367   -6.6418   16.6576 C   0  0  0  0  0  0  0  0  0  0  0  0
  -27.3717  -27.4560   19.8308 C   0  0  0  0  0  0  0  0  0  0  0  0
  -24.8063   -4.7337   15.5968 C   0  0  0  0  0  0  0  0  0  0  0  0
  -26.3107   -2.3891   15.7455 C   0  0  0  0  0  0  0  0  0  0  0  0
  -25.9331   -4.5757   14.7899 C   0  0  0  0  0  0  0  0  0  0  0  0
  -23.5549   -8.9561   20.1784 C   0  0  0  0  0  0  0  0  0  0  0  0
  -25.7955  -16.2252   20.9219 C   0  0  0  0  0  0  0  0  0  0  0  0
  -23.5589   -9.6565   22.2628 C   0  0  0  0  0  0  0  0  0  0  0  0
  -24.3389   -7.2983   21.9818 C   0  0  0  0  0  0  0  0  0  0  0  0
  -24.9712  -32.2339   20.7655 C   0  0  0  0  0  0  0  0  0  0  0  0
  -24.1905  -31.1467   23.7203 C   0  0  0  0  0  0  0  0  0  0  0  0
  -25.2915  -28.5207   25.9359 C   0  0  0  0  0  0  0  0  0  0  0  0
  -23.3849  -15.5138   21.0935 C   0  0  0  0  0  0  0  0  0  0  0  0
  -27.7811  -36.3720   22.7268 C   0  0  0  0  0  0  0  0  0  0  0  0
  -23.9258  -30.0051   20.2217 C   0  0  0  0  0  0  0  0  0  0  0  0
  -29.5372  -16.2052   20.4487 C   0  0  0  0  0  0  0  0  0  0  0  0
  -25.8816  -29.7907   22.4293 C   0  0  0  0  0  0  0  0  0  0  0  0
  -28.2373  -35.3894   21.6531 C   0  0  0  0  0  0  0  0  0  0  0  0
  -20.7231  -13.5145   22.3564 C   0  0  0  0  0  0  0  0  0  0  0  0
  -27.3892  -34.1276   21.7091 C   0  0  0  0  0  0  0  0  0  0  0  0
  -21.1767  -12.0819   22.0665 C   0  0  0  0  0  0  0  0  0  0  0  0
  -28.8272  -22.2268   21.2676 C   0  0  0  0  0  0  0  0  0  0  0  0
  -30.0148  -22.0989   19.0499 C   0  0  0  0  0  0  0  0  0  0  0  0
  -21.1322  -14.4754   21.2415 C   0  0  0  0  0  0  0  0  0  0  0  0
  -23.0117  -13.0169   20.6017 C   0  0  0  0  0  0  0  0  0  0  0  0
  -30.5253  -17.3260   20.1522 C   0  0  0  0  0  0  0  0  0  0  0  0
  -29.5458  -23.5347   21.5697 C   0  0  0  0  0  0  0  0  0  0  0  0
  -30.7275  -23.4073   19.3635 C   0  0  0  0  0  0  0  0  0  0  0  0
  -25.9198  -34.4432   21.4024 C   0  0  1  0  0  0  0  0  0  0  0  0
  -28.9647  -19.0475   21.1386 C   0  0  2  0  0  0  0  0  0  0  0  0
  -24.0958  -31.1149   21.2546 C   0  0  1  0  0  0  0  0  0  0  0  0
  -29.6436  -21.3341   20.3258 C   0  0  0  0  0  0  0  0  0  0  0  0
  -22.6792  -12.0241   21.7276 C   0  0  2  0  0  0  0  0  0  0  0  0
  -24.0613  -27.2873   27.7422 C   0  0  0  0  0  0  0  0  0  0  0  0
  -25.3919  -33.2511   25.5745 C   0  0  0  0  0  0  0  0  0  0  0  0
  -25.7122  -31.4559   27.2901 C   0  0  0  0  0  0  0  0  0  0  0  0
  -23.4150  -32.0403   26.5128 C   0  0  0  0  0  0  0  0  0  0  0  0
  -30.8486  -18.0895   22.5319 C   0  0  0  0  0  0  0  0  0  0  0  0
  -25.9122  -25.8926   24.7247 C   0  0  0  0  0  0  0  0  0  0  0  0
  -28.8765  -20.0574   19.9887 C   0  0  0  0  0  0  0  0  0  0  0  0
  -30.4654  -25.6003   20.5199 C   0  0  0  0  0  0  0  0  0  0  0  0
  -29.3583  -26.5935   20.8133 C   0  0  0  0  0  0  0  0  0  1  0  0
  -24.9644  -30.7793   24.9633 C   0  0  1  0  0  0  0  0  0  0  0  0
  -24.5311  -27.2572   26.2961 C   0  0  2  0  0  0  0  0  0  0  0  0
  -24.8823  -31.8791   26.0592 C   0  0  0  0  0  0  0  0  0  0  0  0
  -25.5025  -17.4970   21.2634 N   0  0  0  0  0  0  0  0  0  0  0  0
  -23.1128  -10.2146   20.1093 N   0  0  0  0  0  0  0  0  0  0  0  0
  -23.1262  -10.6135   21.3926 N   0  0  0  0  0  0  0  0  0  0  0  0
  -24.6780  -30.6347   22.5095 N   0  0  0  0  0  0  0  0  0  0  0  0
  -22.5688  -14.3686   20.9781 N   0  0  0  0  0  0  0  0  0  0  0  0
  -23.6348   -9.8904   23.5901 N   0  0  0  0  0  0  0  0  0  0  0  0
  -23.4099   -6.3137   22.3447 N   0  0  0  0  0  0  0  0  0  0  0  0
  -24.7388  -15.2838   20.8514 N   0  0  0  0  0  0  0  0  0  0  0  0
  -25.1191  -33.2687   21.6692 N   0  0  0  0  0  0  0  0  0  0  0  0
  -24.4632  -29.4760   25.3859 N   0  0  0  0  0  0  0  0  0  0  0  0
  -29.8635  -24.2438   20.2757 N   0  3  0  0  0  0  0  0  0  0  0  0
  -30.3746  -18.4518   21.1468 N   0  3  1  0  0  0  0  0  0  0  0  0
  -25.3980  -26.0596   26.1084 N   0  3  0  0  0  0  0  0  0  0  0  0
  -25.5645   -7.0619   22.1068 O   0  0  0  0  0  0  0  0  0  0  0  0
  -25.4764  -32.1629   19.6513 O   0  0  0  0  0  0  0  0  0  0  0  0
  -23.1861  -31.8559   23.8208 O   0  0  0  0  0  0  0  0  0  0  0  0
  -26.4988  -28.6489   26.1271 O   0  0  0  0  0  0  0  0  0  0  0  0
  -22.9212  -16.6117   21.4123 O   0  0  0  0  0  0  0  0  0  0  0  0
  -24.0590   -5.8973   15.5248 O   0  0  0  0  0  0  0  0  0  0  0  0
  -28.4579  -26.6455   19.7075 O   0  0  0  0  0  0  0  0  0  1  0  0
  -27.0338   -1.2639   15.8181 F   0  0  0  0  0  0  0  0  0  0  0  0
  -26.2985   -5.5471   13.9422 F   0  0  0  0  0  0  0  0  0  0  0  0
  1  2  1  0  0  0  0
  1  5  2  0  0  0  0
  2  6  2  0  0  0  0
  3  8  2  0  0  0  0
  3 17  1  0  0  0  0
  4  9  1  0  0  0  0
  4 17  2  0  0  0  0
  5 19  1  0  0  0  0
  6 21  1  0  0  0  0
  7 10  2  0  0  0  0
  7 20  1  0  0  0  0
  8 25  1  0  0  0  0
  9 25  2  0  0  0  0
 10 26  1  0  0  0  0
 11 12  2  0  0  0  0
 11 27  1  0  0  0  0
 12 28  1  0  0  0  0
 13 22  1  0  0  0  0
 13 26  2  0  0  0  0
 14 23  1  0  0  0  0
 14 31  2  0  0  0  0
 15 28  2  0  0  0  0
 15 29  1  0  0  0  0
 16 24  1  0  0  0  0
 16 70  2  0  0  0  0
 17 30  1  0  0  0  0
 18 30  1  0  0  0  0
 18 32  2  0  0  0  0
 18 33  1  0  0  0  0
 19 21  2  0  0  0  0
 19 38  1  0  0  0  0
 20 22  2  0  0  0  0
 20 39  1  0  0  0  0
 21 53  1  0  0  0  0
 22 41  1  0  0  0  0
 23 24  2  0  0  0  0
 23 40  1  0  0  0  0
 24 54  1  0  0  0  0
 25 88  1  0  0  0  0
 26 89  1  0  0  0  0
 27 29  2  0  0  0  0
 27 88  1  0  0  0  0
 28 90  1  0  0  0  0
 29 91  1  0  0  0  0
 30 71  2  0  0  0  0
 31 70  1  0  0  0  0
 31 77  1  0  0  0  0
 32 72  1  0  0  0  0
 32 75  1  0  0  0  0
 33 76  1  0  0  0  0
 33 83  2  0  0  0  0
 34 55  1  0  0  0  0
 34 78  1  0  0  0  0
 34 84  2  0  0  0  0
 35 67  1  0  0  0  0
 35 73  1  0  0  0  0
 35 85  2  0  0  0  0
 36 68  1  0  0  0  0
 36 79  1  0  0  0  0
 36 86  2  0  0  0  0
 37 74  1  0  0  0  0
 37 77  1  0  0  0  0
 37 87  2  0  0  0  0
 38 42  1  0  0  0  0
 39 55  1  0  0  0  0
 40 50  1  0  0  0  0
 41 73  1  0  0  0  0
 42 44  1  0  0  0  0
 43 45  1  0  0  0  0
 43 48  1  0  0  0  0
 44 53  1  0  0  0  0
 45 57  1  0  0  0  0
 46 51  1  0  0  0  0
 46 56  1  0  0  0  0
 47 52  1  0  0  0  0
 47 56  1  0  0  0  0
 48 74  1  0  0  0  0
 49 57  1  0  0  0  0
 49 74  1  0  0  0  0
 50 81  1  0  0  0  0
 51 80  1  0  0  0  0
 52 80  1  0  0  0  0
 53 78  1  0  0  0  0
 54 64  1  0  0  0  0
 54 81  1  0  0  0  0
 55 73  1  0  0  0  0
 56 64  1  0  0  0  0
 57 72  1  0  0  0  0
 58 68  1  0  0  0  0
 59 69  1  0  0  0  0
 60 69  1  0  0  0  0
 61 69  1  0  0  0  0
 62 81  1  0  0  0  0
 63 82  1  0  0  0  0
 65 66  1  0  0  0  0
 65 80  1  0  0  0  0
 66 89  1  0  0  0  0
 67 69  1  0  0  0  0
 67 79  1  0  0  0  0
 68 82  1  0  0  0  0
 71 72  1  0  0  0  0
M  CHG  3  80   1  81   1  82   1
M  ISO  4  37 100  66 101  77 100  89 101
M  END
> <Batch ID>
0194

> <Smiles>
CNC(C)C(=O)NC(C(=O)N1Cc2cc([101O:1][101CH2:1]CN3CCC(CC4c5cnc([100NH:0][100C:0](=O)N6CCCC(n7nc(-c8ccc(Oc9ccc(F)cc9F)cc8)c(C(N)=O)c7N)C6)cc5CCN4C)CC3)ccc2CC1C(=O)NC1CCCc2ccccc21)C(C)(C)C

> <Shape>
0.285

> <Color>
0.086

> <Negative vol penalty>
0.000

$$$$

  -OEChem-04052323343D

 85 94  0     1  0  0  0  0  0999 V2000
  -25.9017  -39.0238   21.8430 C   0  0  0  0  0  0  0  0  0  0  0  0
  -26.8458  -38.1393   21.3314 C   0  0  0  0  0  0  0  0  0  0  0  0
  -23.3028   -9.6698   19.8199 C   0  0  0  0  0  0  0  0  0  0  0  0
  -24.4502   -9.4667   21.9363 C   0  0  0  0  0  0  0  0  0  0  0  0
  -25.0449  -38.6136   22.8636 C   0  0  0  0  0  0  0  0  0  0  0  0
  -26.9344  -36.8443   21.8409 C   0  0  0  0  0  0  0  0  0  0  0  0
  -28.4827  -30.1463   19.8271 C   0  0  0  0  0  0  0  0  0  0  0  0
  -22.7942   -8.3799   19.9718 C   0  0  0  0  0  0  0  0  0  0  0  0
  -23.9416   -8.1767   22.0882 C   0  0  0  0  0  0  0  0  0  0  0  0
  -29.2980  -29.0744   20.1877 C   0  0  0  0  0  0  0  0  0  0  0  0
  -21.0268   -6.7443   23.0223 C   0  0  0  0  0  0  0  0  0  0  0  0
  -20.5053   -6.3975   24.2686 C   0  0  0  0  0  0  0  0  0  0  0  0
  -27.7130  -28.4513   21.8961 C   0  0  0  0  0  0  0  0  0  0  0  0
  -22.1308   -4.6197   24.4541 C   0  0  0  0  0  0  0  0  0  0  0  0
  -24.1308  -10.2132   20.8022 C   0  0  0  0  0  0  0  0  0  0  0  0
  -24.0686  -12.7482   21.0802 C   0  0  0  0  0  0  0  0  0  0  0  0
  -25.1167  -37.3099   23.3793 C   0  0  0  0  0  0  0  0  0  0  0  0
  -27.2796  -30.3855   20.5066 C   0  0  0  0  0  0  0  0  0  0  0  0
  -26.0787  -36.4167   22.8704 C   0  0  0  0  0  0  0  0  0  0  0  0
  -26.8829  -29.5254   21.5405 C   0  0  0  0  0  0  0  0  0  0  0  0
  -23.1136   -7.6333   21.1059 C   0  0  0  0  0  0  0  0  0  0  0  0
  -28.9146  -28.2284   21.2243 C   0  0  0  0  0  0  0  0  0  0  0  0
  -22.1003   -6.0287   22.4917 C   0  0  0  0  0  0  0  0  0  0  0  0
  -21.0573   -5.3352   24.9845 C   0  0  0  0  0  0  0  0  0  0  0  0
  -22.6522   -4.9664   23.2077 C   0  0  0  0  0  0  0  0  0  0  0  0
  -24.6569  -11.5454   20.6456 C   0  0  0  0  0  0  0  0  0  0  0  0
  -24.9554  -13.7234   20.6939 C   0  0  0  0  0  0  0  0  0  0  0  0
  -22.8312  -12.9647   21.7713 C   0  0  0  0  0  0  0  0  0  0  0  0
  -26.1333  -32.7719   22.2659 C   0  0  0  0  0  0  0  0  0  0  0  0
  -23.4159  -31.0019   22.1948 C   0  0  0  0  0  0  0  0  0  0  0  0
  -21.9642  -27.9360   21.8210 C   0  0  0  0  0  0  0  0  0  0  0  0
  -30.3508  -15.4015   20.5089 C   0  0  0  0  0  0  0  0  0  0  0  0
  -24.2011  -36.9271   24.5150 C   0  0  0  0  0  0  0  0  0  0  0  0
  -26.3983  -31.5303   20.0878 C   0  0  0  0  0  0  0  0  0  0  0  0
  -25.5910  -29.7270   22.2881 C   0  0  0  0  0  0  0  0  0  0  0  0
  -24.1089  -35.4203   24.7417 C   0  0  0  0  0  0  0  0  0  0  0  0
  -28.9950  -13.5094   17.6639 C   0  0  0  0  0  0  0  0  0  0  0  0
  -25.4995  -34.7934   24.7345 C   0  0  0  0  0  0  0  0  0  0  0  0
  -31.9999  -15.9896   23.3657 C   0  0  0  0  0  0  0  0  0  0  0  0
  -32.0762  -17.3809   23.9298 C   0  0  0  0  0  0  0  0  0  0  0  0
  -27.7249  -12.8876   18.2452 C   0  0  0  0  0  0  0  0  0  0  0  0
  -28.6349  -18.5773   20.7624 C   0  0  0  0  0  0  0  0  0  0  0  0
  -30.0698  -13.7118   18.7290 C   0  0  0  0  0  0  0  0  0  0  0  0
  -28.4378  -17.0734   20.6316 C   0  0  0  0  0  0  0  0  0  0  0  0
  -28.3496  -13.8484   20.4926 C   0  0  0  0  0  0  0  0  0  0  0  0
  -26.1891  -34.9961   23.3799 C   0  0  1  0  0  0  0  0  0  0  0  0
  -25.4441  -31.9834   21.1885 C   0  0  1  0  0  0  0  0  0  0  0  0
  -30.8259  -16.9197   23.2337 C   0  0  0  0  0  0  0  0  0  0  0  0
  -27.2237  -13.6874   19.4615 C   0  0  2  0  0  0  0  0  0  0  0  0
  -30.4552  -17.4849   21.8929 C   0  0  2  0  0  0  0  0  0  0  0  0
  -29.4934  -18.6701   22.0143 C   0  0  1  0  0  0  0  0  0  0  0  0
  -19.7277  -26.7984   21.8529 C   0  0  0  0  0  0  0  0  0  0  0  0
  -29.2225  -21.0807   23.9815 C   0  0  0  0  0  0  0  0  0  0  0  0
  -23.3804  -31.1624   25.2416 C   0  0  0  0  0  0  0  0  0  0  0  0
  -21.7380  -29.2729   25.2525 C   0  0  0  0  0  0  0  0  0  0  0  0
  -21.1436  -31.4335   24.1565 C   0  0  0  0  0  0  0  0  0  0  0  0
  -22.2425  -27.0552   19.0093 C   0  0  0  0  0  0  0  0  0  0  0  0
  -29.8697  -24.7922   21.7404 C   0  0  0  0  0  0  0  0  0  0  0  0
  -30.0499  -22.4089   21.9601 C   0  0  0  0  0  0  0  0  0  0  0  0
  -29.0643  -26.0275   22.1128 C   0  0  0  0  0  0  0  0  0  1  0  0
  -22.8304  -29.9071   23.0535 C   0  0  1  0  0  0  0  0  0  0  0  0
  -20.7799  -27.4769   20.9897 C   0  0  2  0  0  0  0  0  0  0  0  0
  -29.3986  -21.1241   22.4696 C   0  0  1  0  0  0  0  0  0  0  0  0
  -22.2984  -30.4411   24.4134 C   0  0  0  0  0  0  0  0  0  0  0  0
  -25.8269  -11.7365   20.0302 N   0  0  0  0  0  0  0  0  0  0  0  0
  -25.9808  -13.0708   20.0752 N   0  0  0  0  0  0  0  0  0  0  0  0
  -24.7668  -30.8638   21.8457 N   0  0  0  0  0  0  0  0  0  0  0  0
  -29.5415  -14.4464   19.8787 N   0  0  0  0  0  0  0  0  0  0  0  0
  -29.7103  -16.5030   21.0851 N   0  0  0  0  0  0  0  0  0  0  0  0
  -24.9502  -15.0668   20.8265 N   0  0  0  0  0  0  0  0  0  0  0  0
  -22.0414  -11.8521   22.0919 N   0  0  0  0  0  0  0  0  0  0  0  0
  -25.6666  -34.0653   22.4025 N   0  0  0  0  0  0  0  0  0  0  0  0
  -21.8208  -29.2431   22.2361 N   0  0  0  0  0  0  0  0  0  0  0  0
  -29.2598  -23.5768   22.2745 N   0  0  0  0  0  0  0  0  0  0  0  0
  -30.2231  -19.9525   22.0546 N   0  3  0  0  0  0  0  0  0  0  0  0
  -21.2239  -26.5119   19.9443 N   0  3  0  0  0  0  0  0  0  0  0  0
  -22.4297  -14.1122   22.0805 O   0  0  0  0  0  0  0  0  0  0  0  0
  -27.0218  -32.2454   22.9255 O   0  0  0  0  0  0  0  0  0  0  0  0
  -22.6992  -31.9413   21.8407 O   0  0  0  0  0  0  0  0  0  0  0  0
  -22.9192  -27.2069   22.0796 O   0  0  0  0  0  0  0  0  0  0  0  0
  -31.5833  -15.2909   20.5297 O   0  0  0  0  0  0  0  0  0  0  0  0
  -22.6174   -6.3747   21.2546 O   0  0  0  0  0  0  0  0  0  0  0  0
  -29.7146  -27.1743   21.5813 O   0  0  0  0  0  0  0  0  0  1  0  0
  -20.5574   -5.0033   26.1821 F   0  0  0  0  0  0  0  0  0  0  0  0
  -23.6843   -4.2761   22.7037 F   0  0  0  0  0  0  0  0  0  0  0  0
  1  2  1  0  0  0  0
  1  5  2  0  0  0  0
  2  6  2  0  0  0  0
  3  8  2  0  0  0  0
  3 15  1  0  0  0  0
  4  9  1  0  0  0  0
  4 15  2  0  0  0  0
  5 17  1  0  0  0  0
  6 19  1  0  0  0  0
  7 10  2  0  0  0  0
  7 18  1  0  0  0  0
  8 21  1  0  0  0  0
  9 21  2  0  0  0  0
 10 22  1  0  0  0  0
 11 12  2  0  0  0  0
 11 23  1  0  0  0  0
 12 24  1  0  0  0  0
 13 20  1  0  0  0  0
 13 22  2  0  0  0  0
 14 24  2  0  0  0  0
 14 25  1  0  0  0  0
 15 26  1  0  0  0  0
 16 26  1  0  0  0  0
 16 27  2  0  0  0  0
 16 28  1  0  0  0  0
 17 19  2  0  0  0  0
 17 33  1  0  0  0  0
 18 20  2  0  0  0  0
 18 34  1  0  0  0  0
 19 46  1  0  0  0  0
 20 35  1  0  0  0  0
 21 82  1  0  0  0  0
 22 83  1  0  0  0  0
 23 25  2  0  0  0  0
 23 82  1  0  0  0  0
 24 84  1  0  0  0  0
 25 85  1  0  0  0  0
 26 65  2  0  0  0  0
 27 66  1  0  0  0  0
 27 70  1  0  0  0  0
 28 71  1  0  0  0  0
 28 77  2  0  0  0  0
 29 47  1  0  0  0  0
 29 72  1  0  0  0  0
 29 78  2  0  0  0  0
 30 61  1  0  0  0  0
 30 67  1  0  0  0  0
 30 79  2  0  0  0  0
 31 62  1  0  0  0  0
 31 73  1  0  0  0  0
 31 80  2  0  0  0  0
 32 68  1  0  0  0  0
 32 69  1  0  0  0  0
 32 81  2  0  0  0  0
 33 36  1  0  0  0  0
 34 47  1  0  0  0  0
 35 67  1  0  0  0  0
 36 38  1  0  0  0  0
 37 41  1  0  0  0  0
 37 43  1  0  0  0  0
 38 46  1  0  0  0  0
 39 40  1  0  0  0  0
 39 48  1  0  0  0  0
 40 48  1  0  0  0  0
 41 49  1  0  0  0  0
 42 44  1  0  0  0  0
 42 51  1  0  0  0  0
 43 68  1  0  0  0  0
 44 69  1  0  0  0  0
 45 49  1  0  0  0  0
 45 68  1  0  0  0  0
 46 72  1  0  0  0  0
 47 67  1  0  0  0  0
 48 50  1  0  0  0  0
 49 66  1  0  0  0  0
 50 51  1  0  0  0  0
 50 69  1  0  0  0  0
 51 75  1  0  0  0  0
 52 62  1  0  0  0  0
 53 63  1  0  0  0  0
 54 64  1  0  0  0  0
 55 64  1  0  0  0  0
 56 64  1  0  0  0  0
 57 76  1  0  0  0  0
 58 60  1  0  0  0  0
 58 74  1  0  0  0  0
 59 63  1  0  0  0  0
 59 74  1  0  0  0  0
 60 83  1  0  0  0  0
 61 64  1  0  0  0  0
 61 73  1  0  0  0  0
 62 76  1  0  0  0  0
 63 75  1  0  0  0  0
 65 66  1  0  0  0  0
M  CHG  2  75   1  76   1
M  ISO  4  32 100  60 101  69 100  83 101
M  END
> <Batch ID>
0194

> <Smiles>
CNC(C)C(=O)NC(C(=O)N1Cc2cc([101O:1][101CH2:1]CNCC(C)NC3CC[100N:0]([100C:0](=O)N4CCCC(n5nc(-c6ccc(Oc7ccc(F)cc7F)cc6)c(C(N)=O)c5N)C4)C3C3CC3)ccc2CC1C(=O)NC1CCCc2ccccc21)C(C)(C)C

> <Shape>
0.377

> <Color>
0.143

> <Negative vol penalty>
0.000

$$$$

  -OEChem-04052323343D

 89 98  0     1  0  0  0  0  0999 V2000
  -22.1527  -37.6740   18.5883 C   0  0  0  0  0  0  0  0  0  0  0  0
  -22.9012  -36.7099   17.9206 C   0  0  0  0  0  0  0  0  0  0  0  0
  -22.5155   -5.6796   24.3138 C   0  0  0  0  0  0  0  0  0  0  0  0
  -21.2069   -4.9378   22.4231 C   0  0  0  0  0  0  0  0  0  0  0  0
  -22.3220  -37.8599   19.9597 C   0  0  0  0  0  0  0  0  0  0  0  0
  -23.8201  -35.9319   18.6239 C   0  0  0  0  0  0  0  0  0  0  0  0
  -24.3804  -28.1623   19.2130 C   0  0  0  0  0  0  0  0  0  0  0  0
  -21.7944   -4.8253   25.1480 C   0  0  0  0  0  0  0  0  0  0  0  0
  -20.4859   -4.0835   23.2574 C   0  0  0  0  0  0  0  0  0  0  0  0
  -24.4865  -26.8059   19.5210 C   0  0  0  0  0  0  0  0  0  0  0  0
  -17.9543   -4.3279   25.4850 C   0  0  0  0  0  0  0  0  0  0  0  0
  -16.5672   -4.3003   25.3413 C   0  0  0  0  0  0  0  0  0  0  0  0
  -25.5368  -27.3556   21.6288 C   0  0  0  0  0  0  0  0  0  0  0  0
  -16.6692   -1.9462   24.8075 C   0  0  0  0  0  0  0  0  0  0  0  0
  -22.2217   -5.7359   22.9514 C   0  0  0  0  0  0  0  0  0  0  0  0
  -24.1490   -6.3222   21.3863 C   0  0  0  0  0  0  0  0  0  0  0  0
  -23.2365  -37.0772   20.6818 C   0  0  0  0  0  0  0  0  0  0  0  0
  -24.8387  -29.1222   20.1197 C   0  0  0  0  0  0  0  0  0  0  0  0
  -24.0028  -36.1084   20.0060 C   0  0  0  0  0  0  0  0  0  0  0  0
  -25.4218  -28.7162   21.3313 C   0  0  0  0  0  0  0  0  0  0  0  0
  -20.7796   -4.0273   24.6198 C   0  0  0  0  0  0  0  0  0  0  0  0
  -25.0635  -26.4035   20.7258 C   0  0  0  0  0  0  0  0  0  0  0  0
  -18.6989   -3.1646   25.2898 C   0  0  0  0  0  0  0  0  0  0  0  0
  -15.9246   -3.1095   25.0026 C   0  0  0  0  0  0  0  0  0  0  0  0
  -18.0564   -1.9738   24.9511 C   0  0  0  0  0  0  0  0  0  0  0  0
  -22.9658   -6.6185   22.0892 C   0  0  0  0  0  0  0  0  0  0  0  0
  -24.4524   -7.4840   20.7195 C   0  0  0  0  0  0  0  0  0  0  0  0
  -28.7537  -18.7902   20.5660 C   0  0  0  0  0  0  0  0  0  0  0  0
  -27.4770  -18.7621   20.9806 C   0  0  0  0  0  0  0  0  0  0  0  0
  -26.5681  -19.8889   20.5665 C   0  0  0  0  0  0  0  0  0  0  0  0
  -28.5430  -20.7393   19.4218 C   0  0  0  0  0  0  0  0  0  0  0  0
  -24.9061   -5.1055   21.3403 C   0  0  0  0  0  0  0  0  0  0  0  0
  -25.2868  -32.7630   20.9071 C   0  0  0  0  0  0  0  0  0  0  0  0
  -24.4079  -31.3908   23.5062 C   0  0  0  0  0  0  0  0  0  0  0  0
  -23.0232  -29.5804   26.0443 C   0  0  0  0  0  0  0  0  0  0  0  0
  -25.0496  -12.8112   20.4296 C   0  0  0  0  0  0  0  0  0  0  0  0
  -23.4189  -37.3469   22.1545 C   0  0  0  0  0  0  0  0  0  0  0  0
  -24.8007  -30.5926   19.8027 C   0  0  0  0  0  0  0  0  0  0  0  0
  -25.9325  -29.7829   22.2609 C   0  0  0  0  0  0  0  0  0  0  0  0
  -24.1431  -36.2250   22.8941 C   0  0  0  0  0  0  0  0  0  0  0  0
  -21.7463  -11.6902   20.0116 C   0  0  0  0  0  0  0  0  0  0  0  0
  -25.3775  -35.7820   22.1153 C   0  0  0  0  0  0  0  0  0  0  0  0
  -21.8609  -10.2343   20.4624 C   0  0  0  0  0  0  0  0  0  0  0  0
  -22.5650  -12.6309   20.8975 C   0  0  0  0  0  0  0  0  0  0  0  0
  -24.1913  -15.0774   21.1727 C   0  0  0  0  0  0  0  0  0  0  0  0
  -25.8993  -14.8969   19.4012 C   0  0  0  0  0  0  0  0  0  0  0  0
  -24.1000  -10.7831   21.4878 C   0  0  0  0  0  0  0  0  0  0  0  0
  -25.1199  -15.9698   21.9901 C   0  0  0  0  0  0  0  0  0  0  0  0
  -26.8602  -15.7626   20.1998 C   0  0  0  0  0  0  0  0  0  0  0  0
  -24.9917  -35.2278   20.7385 C   0  0  1  0  0  0  0  0  0  0  0  0
  -24.5372  -31.4699   21.0397 C   0  0  1  0  0  0  0  0  0  0  0  0
  -23.3347   -9.8072   20.5807 C   0  0  1  0  0  0  0  0  0  0  0  0
  -29.1326  -21.8395   18.5831 C   0  0  0  0  0  0  0  0  0  0  0  0
  -22.2395  -29.7966   28.4184 C   0  0  0  0  0  0  0  0  0  0  0  0
  -27.3054  -31.3874   24.4591 C   0  0  0  0  0  0  0  0  0  0  0  0
  -26.4900  -30.6536   26.7096 C   0  0  0  0  0  0  0  0  0  0  0  0
  -25.7734  -32.8558   25.7824 C   0  0  0  0  0  0  0  0  0  0  0  0
  -24.3690  -20.9188   20.6627 C   0  0  0  0  0  0  0  0  0  0  0  0
  -20.2525  -28.8337   25.3199 C   0  0  0  0  0  0  0  0  0  0  0  0
  -26.9497  -17.6574   21.8211 C   0  0  0  0  0  0  0  0  0  0  0  0
  -26.1214  -22.9733   20.3726 C   0  0  0  0  0  0  0  0  0  0  0  0
  -26.3066  -21.9476   19.2664 C   0  0  0  0  0  0  0  0  0  0  0  0
  -25.2956  -24.1739   19.9278 C   0  0  0  0  0  0  0  0  0  1  0  0
  -24.8314  -30.7285   24.7927 C   0  0  1  0  0  0  0  0  0  0  0  0
  -21.8396  -29.8605   26.9526 C   0  0  2  0  0  0  0  0  0  0  0  0
  -26.0940  -31.3911   25.4127 C   0  0  0  0  0  0  0  0  0  0  0  0
  -22.5462   -7.8705   21.8878 N   0  0  0  0  0  0  0  0  0  0  0  0
  -29.3195  -19.7692   19.7967 N   0  0  0  0  0  0  0  0  0  0  0  0
  -23.4709   -8.3711   21.0509 N   0  0  0  0  0  0  0  0  0  0  0  0
  -27.1235  -20.8231   19.7676 N   0  0  0  0  0  0  0  0  0  0  0  0
  -24.9722  -30.8958   22.3242 N   0  0  0  0  0  0  0  0  0  0  0  0
  -23.9524  -12.1608   21.0137 N   0  0  0  0  0  0  0  0  0  0  0  0
  -24.9581  -14.2027   20.2773 N   0  0  0  0  0  0  0  0  0  0  0  0
  -25.4604   -7.8231   19.8880 N   0  0  0  0  0  0  0  0  0  0  0  0
  -24.4532   -4.0081   22.0852 N   0  0  0  0  0  0  0  0  0  0  0  0
  -24.4762  -33.8811   20.8621 N   0  0  0  0  0  0  0  0  0  0  0  0
  -23.6609  -30.7420   25.6634 N   0  0  0  0  0  0  0  0  0  0  0  0
  -25.3144  -19.8686   21.0146 N   0  3  0  0  0  0  0  0  0  0  0  0
  -26.0617  -16.7065   21.0683 N   0  3  0  0  0  0  0  0  0  0  0  0
  -20.7580  -28.8628   26.7166 N   0  3  0  0  0  0  0  0  0  0  0  0
  -25.9622   -4.9998   20.6717 O   0  0  0  0  0  0  0  0  0  0  0  0
  -26.5109  -32.7487   20.8513 O   0  0  0  0  0  0  0  0  0  0  0  0
  -23.6029  -32.3256   23.5456 O   0  0  0  0  0  0  0  0  0  0  0  0
  -23.3516  -28.4443   25.7094 O   0  0  0  0  0  0  0  0  0  0  0  0
  -26.0531  -12.1851   20.0658 O   0  0  0  0  0  0  0  0  0  0  0  0
  -20.0760   -3.1934   25.4335 O   0  0  0  0  0  0  0  0  0  0  0  0
  -25.1606  -25.0682   21.0243 O   0  0  0  0  0  0  0  0  0  1  0  0
  -14.5924   -3.0829   24.8663 F   0  0  0  0  0  0  0  0  0  0  0  0
  -18.7663   -0.8528   24.7635 F   0  0  0  0  0  0  0  0  0  0  0  0
  1  2  1  0  0  0  0
  1  5  2  0  0  0  0
  2  6  2  0  0  0  0
  3  8  2  0  0  0  0
  3 15  1  0  0  0  0
  4  9  1  0  0  0  0
  4 15  2  0  0  0  0
  5 17  1  0  0  0  0
  6 19  1  0  0  0  0
  7 10  2  0  0  0  0
  7 18  1  0  0  0  0
  8 21  1  0  0  0  0
  9 21  2  0  0  0  0
 10 22  1  0  0  0  0
 11 12  2  0  0  0  0
 11 23  1  0  0  0  0
 12 24  1  0  0  0  0
 13 20  1  0  0  0  0
 13 22  2  0  0  0  0
 14 24  2  0  0  0  0
 14 25  1  0  0  0  0
 15 26  1  0  0  0  0
 16 26  1  0  0  0  0
 16 27  2  0  0  0  0
 16 32  1  0  0  0  0
 17 19  2  0  0  0  0
 17 37  1  0  0  0  0
 18 20  2  0  0  0  0
 18 38  1  0  0  0  0
 19 50  1  0  0  0  0
 20 39  1  0  0  0  0
 21 86  1  0  0  0  0
 22 87  1  0  0  0  0
 23 25  2  0  0  0  0
 23 86  1  0  0  0  0
 24 88  1  0  0  0  0
 25 89  1  0  0  0  0
 26 67  2  0  0  0  0
 27 69  1  0  0  0  0
 27 74  1  0  0  0  0
 28 29  2  0  0  0  0
 28 68  1  0  0  0  0
 29 30  1  0  0  0  0
 29 60  1  0  0  0  0
 30 70  1  0  0  0  0
 30 78  2  0  0  0  0
 31 53  1  0  0  0  0
 31 68  2  0  0  0  0
 31 70  1  0  0  0  0
 32 75  1  0  0  0  0
 32 81  2  0  0  0  0
 33 51  1  0  0  0  0
 33 76  1  0  0  0  0
 33 82  2  0  0  0  0
 34 64  1  0  0  0  0
 34 71  1  0  0  0  0
 34 83  2  0  0  0  0
 35 65  1  0  0  0  0
 35 77  1  0  0  0  0
 35 84  2  0  0  0  0
 36 72  1  0  0  0  0
 36 73  1  0  0  0  0
 36 85  2  0  0  0  0
 37 40  1  0  0  0  0
 38 51  1  0  0  0  0
 39 71  1  0  0  0  0
 40 42  1  0  0  0  0
 41 43  1  0  0  0  0
 41 44  1  0  0  0  0
 42 50  1  0  0  0  0
 43 52  1  0  0  0  0
 44 72  1  0  0  0  0
 45 48  1  0  0  0  0
 45 73  1  0  0  0  0
 46 49  1  0  0  0  0
 46 73  1  0  0  0  0
 47 52  1  0  0  0  0
 47 72  1  0  0  0  0
 48 79  1  0  0  0  0
 49 79  1  0  0  0  0
 50 76  1  0  0  0  0
 51 71  1  0  0  0  0
 52 69  1  0  0  0  0
 54 65  1  0  0  0  0
 55 66  1  0  0  0  0
 56 66  1  0  0  0  0
 57 66  1  0  0  0  0
 58 78  1  0  0  0  0
 59 80  1  0  0  0  0
 60 79  1  0  0  0  0
 61 62  1  0  0  0  0
 61 63  1  0  0  0  0
 62 70  1  0  0  0  0
 63 87  1  0  0  0  0
 64 66  1  0  0  0  0
 64 77  1  0  0  0  0
 65 80  1  0  0  0  0
 67 69  1  0  0  0  0
M  CHG  3  78   1  79   1  80   1
M  ISO  4  36 100  63 101  73 100  87 101
M  END
> <Batch ID>
0194

> <Smiles>
CN=c1c(CN2CC[100N:0]([100C:0](=O)N3CCCC(n4nc(-c5ccc(Oc6ccc(F)cc6F)cc5)c(C(N)=O)c4N)C3)CC2)cnc(C)n1CC[101CH2:1][101O:1]c1ccc2c(c1)CN(C(=O)C(NC(=O)C(C)NC)C(C)(C)C)C(C(=O)NC1CCCc3ccccc31)C2

> <Shape>
0.243

> <Color>
0.099

> <Negative vol penalty>
0.000

$$$$

  -OEChem-04052323343D

 84 93  0     1  0  0  0  0  0999 V2000
  -29.6300  -33.5390   24.9596 C   0  0  0  0  0  0  0  0  0  0  0  0
  -29.4377  -32.2532   24.4645 C   0  0  0  0  0  0  0  0  0  0  0  0
  -25.6610   -9.4057   23.9429 C   0  0  0  0  0  0  0  0  0  0  0  0
  -25.1889   -8.3519   21.8207 C   0  0  0  0  0  0  0  0  0  0  0  0
  -28.5399  -34.2802   25.4137 C   0  0  0  0  0  0  0  0  0  0  0  0
  -28.1552  -31.7074   24.4243 C   0  0  0  0  0  0  0  0  0  0  0  0
  -27.1715  -29.3789   20.0362 C   0  0  0  0  0  0  0  0  0  0  0  0
  -24.4174   -8.9956   24.4232 C   0  0  0  0  0  0  0  0  0  0  0  0
  -23.9452   -7.9417   22.3010 C   0  0  0  0  0  0  0  0  0  0  0  0
  -27.7110  -28.1061   19.8559 C   0  0  0  0  0  0  0  0  0  0  0  0
  -22.7288   -5.4976   24.2927 C   0  0  0  0  0  0  0  0  0  0  0  0
  -22.3390   -4.1827   24.0382 C   0  0  0  0  0  0  0  0  0  0  0  0
  -25.5808  -27.1287   20.4268 C   0  0  0  0  0  0  0  0  0  0  0  0
  -20.4059   -4.9890   22.8338 C   0  0  0  0  0  0  0  0  0  0  0  0
  -26.0468   -9.0839   22.6416 C   0  0  0  0  0  0  0  0  0  0  0  0
  -28.5476   -8.8038   22.2233 C   0  0  0  0  0  0  0  0  0  0  0  0
  -27.2421  -33.7468   25.3701 C   0  0  0  0  0  0  0  0  0  0  0  0
  -25.8332  -29.5362   20.4245 C   0  0  0  0  0  0  0  0  0  0  0  0
  -27.0468  -32.4416   24.8796 C   0  0  0  0  0  0  0  0  0  0  0  0
  -25.0259  -28.4047   20.6090 C   0  0  0  0  0  0  0  0  0  0  0  0
  -23.5595   -8.2636   23.6023 C   0  0  0  0  0  0  0  0  0  0  0  0
  -26.9165  -26.9807   20.0540 C   0  0  0  0  0  0  0  0  0  0  0  0
  -21.9572   -6.5582   23.8179 C   0  0  0  0  0  0  0  0  0  0  0  0
  -21.1776   -3.9285   23.3087 C   0  0  0  0  0  0  0  0  0  0  0  0
  -20.7958   -6.3039   23.0884 C   0  0  0  0  0  0  0  0  0  0  0  0
  -27.3311   -9.5078   22.1446 C   0  0  0  0  0  0  0  0  0  0  0  0
  -29.4608   -9.6267   21.6106 C   0  0  0  0  0  0  0  0  0  0  0  0
  -27.3029  -23.3564   19.9219 C   0  0  0  0  0  0  0  0  0  0  0  0
  -28.3010  -21.5724   20.3439 C   0  0  0  0  0  0  0  0  0  0  0  0
  -28.8272   -7.5207   22.7988 C   0  0  0  0  0  0  0  0  0  0  0  0
  -24.3619  -30.8012   22.9422 C   0  0  0  0  0  0  0  0  0  0  0  0
  -21.6944  -30.1874   21.2016 C   0  0  0  0  0  0  0  0  0  0  0  0
  -20.1982  -28.3557   18.7412 C   0  0  0  0  0  0  0  0  0  0  0  0
  -29.8455  -15.3450   20.8744 C   0  0  0  0  0  0  0  0  0  0  0  0
  -26.1010  -34.5680   25.9161 C   0  0  0  0  0  0  0  0  0  0  0  0
  -25.2589  -30.9166   20.5889 C   0  0  0  0  0  0  0  0  0  0  0  0
  -23.5777  -28.5200   21.0064 C   0  0  0  0  0  0  0  0  0  0  0  0
  -24.7261  -34.0584   25.4916 C   0  0  0  0  0  0  0  0  0  0  0  0
  -29.8026  -13.0104   18.2521 C   0  0  0  0  0  0  0  0  0  0  0  0
  -24.6376  -32.5465   25.6735 C   0  0  0  0  0  0  0  0  0  0  0  0
  -29.2774  -11.7640   18.9641 C   0  0  0  0  0  0  0  0  0  0  0  0
  -28.4950  -18.4270   19.8421 C   0  0  0  0  0  0  0  0  0  0  0  0
  -30.4722  -18.7145   21.3835 C   0  0  0  0  0  0  0  0  0  0  0  0
  -29.0781  -14.2785   18.7072 C   0  0  0  0  0  0  0  0  0  0  0  0
  -29.1532  -17.1727   19.2598 C   0  0  0  0  0  0  0  0  0  0  0  0
  -31.1019  -17.4753   20.7533 C   0  0  0  0  0  0  0  0  0  0  0  0
  -28.5551  -13.2308   20.8861 C   0  0  0  0  0  0  0  0  0  0  0  0
  -25.6677  -31.8242   24.7968 C   0  0  1  0  0  0  0  0  0  0  0  0
  -24.0249  -30.9476   21.4853 C   0  0  1  0  0  0  0  0  0  0  0  0
  -29.3040  -11.9483   20.4919 C   0  0  1  0  0  0  0  0  0  0  0  0
  -29.5364  -19.4063   20.3889 C   0  0  0  0  0  0  0  0  0  0  0  0
  -17.9995  -28.0553   17.5695 C   0  0  0  0  0  0  0  0  0  0  0  0
  -20.6123  -28.6801   23.6238 C   0  0  0  0  0  0  0  0  0  0  0  0
  -18.9083  -27.6286   22.1208 C   0  0  0  0  0  0  0  0  0  0  0  0
  -18.9282  -30.1022   22.4423 C   0  0  0  0  0  0  0  0  0  0  0  0
  -27.4153  -23.4059   17.3706 C   0  0  0  0  0  0  0  0  0  0  0  0
  -21.3607  -29.0963   16.1223 C   0  0  0  0  0  0  0  0  0  0  0  0
  -26.5658  -24.6289   20.1004 C   0  0  0  0  0  0  0  0  0  1  0  0
  -20.7512  -29.0163   21.0677 C   0  0  1  0  0  0  0  0  0  0  0  0
  -19.3427  -28.7684   17.5571 C   0  0  2  0  0  0  0  0  0  0  0  0
  -19.8278  -28.8543   22.3080 C   0  0  0  0  0  0  0  0  0  0  0  0
  -27.4567  -10.6872   21.5304 N   0  0  0  0  0  0  0  0  0  0  0  0
  -27.6996  -22.5633   20.9602 N   0  0  0  0  0  0  0  0  0  0  0  0
  -28.2585  -21.7762   18.9999 N   0  0  0  0  0  0  0  0  0  0  0  0
  -28.7630  -10.7307   21.2177 N   0  0  0  0  0  0  0  0  0  0  0  0
  -27.6210  -22.9185   18.7018 N   0  0  0  0  0  0  0  0  0  0  0  0
  -23.0642  -29.8911   21.1610 N   0  0  0  0  0  0  0  0  0  0  0  0
  -29.0950  -14.3900   20.1724 N   0  0  0  0  0  0  0  0  0  0  0  0
  -30.0768  -16.5705   20.2319 N   0  0  0  0  0  0  0  0  0  0  0  0
  -30.7846   -9.5064   21.3750 N   0  0  0  0  0  0  0  0  0  0  0  0
  -27.7734   -6.8086   23.3877 N   0  0  0  0  0  0  0  0  0  0  0  0
  -28.8680  -20.5152   21.0334 N   0  0  0  0  0  0  0  0  0  0  0  0
  -25.2162  -31.7753   23.4226 N   0  0  0  0  0  0  0  0  0  0  0  0
  -20.0356  -29.2101   19.8112 N   0  0  0  0  0  0  0  0  0  0  0  0
  -20.0359  -28.4426   16.2787 N   0  3  0  0  0  0  0  0  0  0  0  0
  -29.9806   -7.0277   22.8056 O   0  0  0  0  0  0  0  0  0  0  0  0
  -23.8813  -29.8741   23.5834 O   0  0  0  0  0  0  0  0  0  0  0  0
  -21.2327  -31.3241   21.3300 O   0  0  0  0  0  0  0  0  0  0  0  0
  -20.9341  -27.3716   18.7205 O   0  0  0  0  0  0  0  0  0  0  0  0
  -30.2833  -15.1165   22.0090 O   0  0  0  0  0  0  0  0  0  0  0  0
  -22.3460   -7.8630   24.0708 O   0  0  0  0  0  0  0  0  0  0  0  0
  -27.4438  -25.7299   19.8783 O   0  0  0  0  0  0  0  0  0  1  0  0
  -20.8041   -2.6658   23.0630 F   0  0  0  0  0  0  0  0  0  0  0  0
  -20.0510   -7.3187   22.6287 F   0  0  0  0  0  0  0  0  0  0  0  0
  1  2  1  0  0  0  0
  1  5  2  0  0  0  0
  2  6  2  0  0  0  0
  3  8  2  0  0  0  0
  3 15  1  0  0  0  0
  4  9  1  0  0  0  0
  4 15  2  0  0  0  0
  5 17  1  0  0  0  0
  6 19  1  0  0  0  0
  7 10  2  0  0  0  0
  7 18  1  0  0  0  0
  8 21  1  0  0  0  0
  9 21  2  0  0  0  0
 10 22  1  0  0  0  0
 11 12  2  0  0  0  0
 11 23  1  0  0  0  0
 12 24  1  0  0  0  0
 13 20  1  0  0  0  0
 13 22  2  0  0  0  0
 14 24  2  0  0  0  0
 14 25  1  0  0  0  0
 15 26  1  0  0  0  0
 16 26  1  0  0  0  0
 16 27  2  0  0  0  0
 16 30  1  0  0  0  0
 17 19  2  0  0  0  0
 17 35  1  0  0  0  0
 18 20  2  0  0  0  0
 18 36  1  0  0  0  0
 19 48  1  0  0  0  0
 20 37  1  0  0  0  0
 21 81  1  0  0  0  0
 22 82  1  0  0  0  0
 23 25  2  0  0  0  0
 23 81  1  0  0  0  0
 24 83  1  0  0  0  0
 25 84  1  0  0  0  0
 26 62  2  0  0  0  0
 27 65  1  0  0  0  0
 27 70  1  0  0  0  0
 28 58  1  0  0  0  0
 28 63  2  0  0  0  0
 28 66  1  0  0  0  0
 29 63  1  0  0  0  0
 29 64  2  0  0  0  0
 29 72  1  0  0  0  0
 30 71  1  0  0  0  0
 30 76  2  0  0  0  0
 31 49  1  0  0  0  0
 31 73  1  0  0  0  0
 31 77  2  0  0  0  0
 32 59  1  0  0  0  0
 32 67  1  0  0  0  0
 32 78  2  0  0  0  0
 33 60  1  0  0  0  0
 33 74  1  0  0  0  0
 33 79  2  0  0  0  0
 34 68  1  0  0  0  0
 34 69  1  0  0  0  0
 34 80  2  0  0  0  0
 35 38  1  0  0  0  0
 36 49  1  0  0  0  0
 37 67  1  0  0  0  0
 38 40  1  0  0  0  0
 39 41  1  0  0  0  0
 39 44  1  0  0  0  0
 40 48  1  0  0  0  0
 41 50  1  0  0  0  0
 42 45  1  0  0  0  0
 42 51  1  0  0  0  0
 43 46  1  0  0  0  0
 43 51  1  0  0  0  0
 44 68  1  0  0  0  0
 45 69  1  0  0  0  0
 46 69  1  0  0  0  0
 47 50  1  0  0  0  0
 47 68  1  0  0  0  0
 48 73  1  0  0  0  0
 49 67  1  0  0  0  0
 50 65  1  0  0  0  0
 51 72  1  0  0  0  0
 52 60  1  0  0  0  0
 53 61  1  0  0  0  0
 54 61  1  0  0  0  0
 55 61  1  0  0  0  0
 56 66  1  0  0  0  0
 57 75  1  0  0  0  0
 58 82  1  0  0  0  0
 59 61  1  0  0  0  0
 59 74  1  0  0  0  0
 60 75  1  0  0  0  0
 62 65  1  0  0  0  0
 64 66  1  0  0  0  0
M  CHG  1  75   1
M  ISO  4  34 100  58 101  69 100  82 101
M  END
> <Batch ID>
0194

> <Smiles>
CNC(C)C(=O)NC(C(=O)N1Cc2cc([101O:1][101CH2:1]c3nc(NC4CC[100N:0]([100C:0](=O)N5CCCC(n6nc(-c7ccc(Oc8ccc(F)cc8F)cc7)c(C(N)=O)c6N)C5)CC4)nn3C)ccc2CC1C(=O)NC1CCCc2ccccc21)C(C)(C)C

> <Shape>
0.310

> <Color>
0.077

> <Negative vol penalty>
0.000

$$$$

  -OEChem-04052323343D

 86 95  0     1  0  0  0  0  0999 V2000
  -18.8921  -32.7389   20.8761 C   0  0  0  0  0  0  0  0  0  0  0  0
  -20.2136  -32.4352   20.5651 C   0  0  0  0  0  0  0  0  0  0  0  0
  -23.0591  -10.0500   21.5522 C   0  0  0  0  0  0  0  0  0  0  0  0
  -23.8547  -10.9748   23.6376 C   0  0  0  0  0  0  0  0  0  0  0  0
  -18.2498  -32.0676   21.9157 C   0  0  0  0  0  0  0  0  0  0  0  0
  -20.8940  -31.4606   21.2942 C   0  0  0  0  0  0  0  0  0  0  0  0
  -25.1130  -27.5571   19.1803 C   0  0  0  0  0  0  0  0  0  0  0  0
  -22.3270   -9.0936   22.2556 C   0  0  0  0  0  0  0  0  0  0  0  0
  -23.1225  -10.0183   24.3411 C   0  0  0  0  0  0  0  0  0  0  0  0
  -26.5066  -27.5731   19.2149 C   0  0  0  0  0  0  0  0  0  0  0  0
  -20.5332   -6.1832   23.4947 C   0  0  0  0  0  0  0  0  0  0  0  0
  -20.5887   -4.8634   23.0469 C   0  0  0  0  0  0  0  0  0  0  0  0
  -26.4677  -26.1804   21.1842 C   0  0  0  0  0  0  0  0  0  0  0  0
  -22.9797   -4.8464   23.3931 C   0  0  0  0  0  0  0  0  0  0  0  0
  -30.3592  -20.7924   20.8102 C   0  0  0  0  0  0  0  0  0  0  0  0
  -32.7412  -20.6754   22.0441 C   0  0  0  0  0  0  0  0  0  0  0  0
  -23.8231  -10.9906   22.2432 C   0  0  0  0  0  0  0  0  0  0  0  0
  -24.1461  -13.2563   21.1163 C   0  0  0  0  0  0  0  0  0  0  0  0
  -18.9197  -31.0775   22.6517 C   0  0  0  0  0  0  0  0  0  0  0  0
  -24.3847  -26.8605   20.1554 C   0  0  0  0  0  0  0  0  0  0  0  0
  -20.2606  -30.7764   22.3455 C   0  0  0  0  0  0  0  0  0  0  0  0
  -25.0649  -26.1550   21.1582 C   0  0  0  0  0  0  0  0  0  0  0  0
  -22.3586   -9.0778   23.6500 C   0  0  0  0  0  0  0  0  0  0  0  0
  -27.1842  -26.8870   20.2186 C   0  0  0  0  0  0  0  0  0  0  0  0
  -21.7010   -6.8347   23.8916 C   0  0  0  0  0  0  0  0  0  0  0  0
  -21.8119   -4.1950   22.9961 C   0  0  0  0  0  0  0  0  0  0  0  0
  -22.9242   -6.1663   23.8409 C   0  0  0  0  0  0  0  0  0  0  0  0
  -24.5801  -11.9785   21.5172 C   0  0  0  0  0  0  0  0  0  0  0  0
  -30.8847  -19.6071   21.2829 C   0  0  0  0  0  0  0  0  0  0  0  0
  -31.1376  -21.9136   21.0132 C   0  0  0  0  0  0  0  0  0  0  0  0
  -25.2275  -13.7974   20.4648 C   0  0  0  0  0  0  0  0  0  0  0  0
  -22.8789  -13.8969   21.3152 C   0  0  0  0  0  0  0  0  0  0  0  0
  -22.2693  -27.6754   22.3836 C   0  0  0  0  0  0  0  0  0  0  0  0
  -22.0490  -24.4652   22.7945 C   0  0  0  0  0  0  0  0  0  0  0  0
  -23.5043  -21.3958   22.4667 C   0  0  0  0  0  0  0  0  0  0  0  0
  -30.7101  -14.7743   20.1746 C   0  0  0  0  0  0  0  0  0  0  0  0
  -18.1989  -30.4122   23.7973 C   0  0  0  0  0  0  0  0  0  0  0  0
  -22.8824  -26.8309   20.0885 C   0  0  0  0  0  0  0  0  0  0  0  0
  -24.3302  -25.3750   22.2167 C   0  0  0  0  0  0  0  0  0  0  0  0
  -18.8718  -29.1288   24.2773 C   0  0  0  0  0  0  0  0  0  0  0  0
  -29.5323  -11.6998   18.8928 C   0  0  0  0  0  0  0  0  0  0  0  0
  -20.3739  -29.3410   24.4366 C   0  0  0  0  0  0  0  0  0  0  0  0
  -28.1167  -11.5774   19.4500 C   0  0  0  0  0  0  0  0  0  0  0  0
  -29.7556  -17.5425   22.3837 C   0  0  0  0  0  0  0  0  0  0  0  0
  -30.4647  -12.3301   19.9186 C   0  0  0  0  0  0  0  0  0  0  0  0
  -29.3664  -16.1699   21.8512 C   0  0  0  0  0  0  0  0  0  0  0  0
  -30.8282  -17.2452   20.2863 C   0  0  0  0  0  0  0  0  0  0  0  0
  -28.5882  -13.5962   20.9314 C   0  0  0  0  0  0  0  0  0  0  0  0
  -21.0244  -29.7080   23.0973 C   0  0  1  0  0  0  0  0  0  0  0  0
  -30.1049  -18.3230   21.1062 C   0  0  2  0  0  0  0  0  0  0  0  0
  -22.2307  -26.5140   21.4310 C   0  0  1  0  0  0  0  0  0  0  0  0
  -27.6064  -12.9424   19.9372 C   0  0  2  0  0  0  0  0  0  0  0  0
  -23.0955  -18.9628   22.9258 C   0  0  0  0  0  0  0  0  0  0  0  0
  -22.6144  -24.9316   25.7564 C   0  0  0  0  0  0  0  0  0  0  0  0
  -23.1322  -22.4914   25.9703 C   0  0  0  0  0  0  0  0  0  0  0  0
  -20.8476  -23.2247   25.2877 C   0  0  0  0  0  0  0  0  0  0  0  0
  -23.6961  -20.7027   19.5959 C   0  0  0  0  0  0  0  0  0  0  0  0
  -31.3440  -24.3794   20.6927 C   0  0  0  0  0  0  0  0  0  0  0  0
  -29.1915  -25.7554   20.8068 C   0  0  0  0  0  0  0  0  0  1  0  0
  -22.7612  -23.4456   23.6502 C   0  0  1  0  0  0  0  0  0  0  0  0
  -22.9783  -20.0862   21.9075 C   0  0  2  0  0  0  0  0  0  0  0  0
  -30.5532  -25.5659   20.1439 C   0  0  2  0  0  0  0  0  0  0  0  0
  -22.3529  -23.5395   25.1475 C   0  0  0  0  0  0  0  0  0  0  0  0
  -32.0771  -19.5119   21.9069 N   0  0  0  0  0  0  0  0  0  0  0  0
  -32.3380  -21.8914   21.6289 N   0  0  0  0  0  0  0  0  0  0  0  0
  -25.8389  -11.7230   21.1508 N   0  0  0  0  0  0  0  0  0  0  0  0
  -26.2051  -12.8477   20.5129 N   0  0  0  0  0  0  0  0  0  0  0  0
  -22.8617  -25.3818   22.1123 N   0  0  0  0  0  0  0  0  0  0  0  0
  -29.9563  -13.6168   20.3977 N   0  0  0  0  0  0  0  0  0  0  0  0
  -30.2228  -15.9779   20.6828 N   0  0  0  0  0  0  0  0  0  0  0  0
  -25.4278  -14.9882   19.8612 N   0  0  0  0  0  0  0  0  0  0  0  0
  -21.8785  -13.1990   22.0054 N   0  0  0  0  0  0  0  0  0  0  0  0
  -30.6336  -23.1510   20.5429 N   0  0  0  0  0  0  0  0  0  0  0  0
  -21.1877  -28.5285   22.2748 N   0  0  0  0  0  0  0  0  0  0  0  0
  -22.4997  -22.1465   23.0399 N   0  0  0  0  0  0  0  0  0  0  0  0
  -30.3450  -25.3751   18.6776 N   0  3  0  0  0  0  0  0  0  0  0  0
  -23.7443  -19.6983   20.6894 N   0  3  0  0  0  0  0  0  0  0  0  0
  -22.6354  -15.0475   20.8790 O   0  0  0  0  0  0  0  0  0  0  0  0
  -23.2101  -27.7883   23.1607 O   0  0  0  0  0  0  0  0  0  0  0  0
  -20.8174  -24.4446   22.7281 O   0  0  0  0  0  0  0  0  0  0  0  0
  -24.6885  -21.7187   22.4049 O   0  0  0  0  0  0  0  0  0  0  0  0
  -31.7961  -14.7297   19.5810 O   0  0  0  0  0  0  0  0  0  0  0  0
  -21.6441   -8.1448   24.3367 O   0  0  0  0  0  0  0  0  0  0  0  0
  -28.5535  -26.9016   20.2553 O   0  0  0  0  0  0  0  0  0  1  0  0
  -21.8648   -2.9270   22.5675 F   0  0  0  0  0  0  0  0  0  0  0  0
  -24.0493   -6.7866   24.2220 F   0  0  0  0  0  0  0  0  0  0  0  0
  1  2  1  0  0  0  0
  1  5  2  0  0  0  0
  2  6  2  0  0  0  0
  3  8  2  0  0  0  0
  3 17  1  0  0  0  0
  4  9  1  0  0  0  0
  4 17  2  0  0  0  0
  5 19  1  0  0  0  0
  6 21  1  0  0  0  0
  7 10  2  0  0  0  0
  7 20  1  0  0  0  0
  8 23  1  0  0  0  0
  9 23  2  0  0  0  0
 10 24  1  0  0  0  0
 11 12  2  0  0  0  0
 11 25  1  0  0  0  0
 12 26  1  0  0  0  0
 13 22  1  0  0  0  0
 13 24  2  0  0  0  0
 14 26  2  0  0  0  0
 14 27  1  0  0  0  0
 15 29  2  0  0  0  0
 15 30  1  0  0  0  0
 16 64  2  0  0  0  0
 16 65  1  0  0  0  0
 17 28  1  0  0  0  0
 18 28  1  0  0  0  0
 18 31  2  0  0  0  0
 18 32  1  0  0  0  0
 19 21  2  0  0  0  0
 19 37  1  0  0  0  0
 20 22  2  0  0  0  0
 20 38  1  0  0  0  0
 21 49  1  0  0  0  0
 22 39  1  0  0  0  0
 23 83  1  0  0  0  0
 24 84  1  0  0  0  0
 25 27  2  0  0  0  0
 25 83  1  0  0  0  0
 26 85  1  0  0  0  0
 27 86  1  0  0  0  0
 28 66  2  0  0  0  0
 29 50  1  0  0  0  0
 29 64  1  0  0  0  0
 30 65  2  0  0  0  0
 30 73  1  0  0  0  0
 31 67  1  0  0  0  0
 31 71  1  0  0  0  0
 32 72  1  0  0  0  0
 32 78  2  0  0  0  0
 33 51  1  0  0  0  0
 33 74  1  0  0  0  0
 33 79  2  0  0  0  0
 34 60  1  0  0  0  0
 34 68  1  0  0  0  0
 34 80  2  0  0  0  0
 35 61  1  0  0  0  0
 35 75  1  0  0  0  0
 35 81  2  0  0  0  0
 36 69  1  0  0  0  0
 36 70  1  0  0  0  0
 36 82  2  0  0  0  0
 37 40  1  0  0  0  0
 38 51  1  0  0  0  0
 39 68  1  0  0  0  0
 40 42  1  0  0  0  0
 41 43  1  0  0  0  0
 41 45  1  0  0  0  0
 42 49  1  0  0  0  0
 43 52  1  0  0  0  0
 44 46  1  0  0  0  0
 44 50  1  0  0  0  0
 45 69  1  0  0  0  0
 46 70  1  0  0  0  0
 47 50  1  0  0  0  0
 47 70  1  0  0  0  0
 48 52  1  0  0  0  0
 48 69  1  0  0  0  0
 49 74  1  0  0  0  0
 51 68  1  0  0  0  0
 52 67  1  0  0  0  0
 53 61  1  0  0  0  0
 54 63  1  0  0  0  0
 55 63  1  0  0  0  0
 56 63  1  0  0  0  0
 57 77  1  0  0  0  0
 58 62  1  0  0  0  0
 58 73  1  0  0  0  0
 59 62  1  0  0  0  0
 59 84  1  0  0  0  0
 60 63  1  0  0  0  0
 60 75  1  0  0  0  0
 61 77  1  0  0  0  0
 62 76  1  0  0  0  0
 66 67  1  0  0  0  0
M  CHG  2  76   1  77   1
M  ISO  4  36 100  59 101  70 100  84 101
M  END
> <Batch ID>
0194

> <Smiles>
CNC(C)C(=O)NC(C(=O)N1Cc2cc([101O:1][101CH2:1]C(N)CNc3cc(C4CC[100N:0]([100C:0](=O)N5CCCC(n6nc(-c7ccc(Oc8ccc(F)cc8F)cc7)c(C(N)=O)c6N)C5)C4)ncn3)ccc2CC1C(=O)NC1CCCc2ccccc21)C(C)(C)C

> <Shape>
0.271

> <Color>
0.180

> <Negative vol penalty>
0.000

$$$$

  -OEChem-04052323343D

 89 99  0     1  0  0  0  0  0999 V2000
  -29.9642  -32.2969   24.9383 C   0  0  0  0  0  0  0  0  0  0  0  0
  -29.5105  -31.0313   24.5806 C   0  0  0  0  0  0  0  0  0  0  0  0
  -22.8269  -13.6527   18.6148 C   0  0  0  0  0  0  0  0  0  0  0  0
  -22.7145  -11.2959   19.1343 C   0  0  0  0  0  0  0  0  0  0  0  0
  -29.0497  -33.3202   25.1842 C   0  0  0  0  0  0  0  0  0  0  0  0
  -28.1419  -30.7880   24.4698 C   0  0  0  0  0  0  0  0  0  0  0  0
  -26.9678  -28.1534   20.3075 C   0  0  0  0  0  0  0  0  0  0  0  0
  -21.7193  -13.5209   17.7773 C   0  0  0  0  0  0  0  0  0  0  0  0
  -21.6069  -11.1641   18.2969 C   0  0  0  0  0  0  0  0  0  0  0  0
  -27.2024  -26.7794   20.3364 C   0  0  0  0  0  0  0  0  0  0  0  0
  -18.5288  -10.2791   16.5764 C   0  0  0  0  0  0  0  0  0  0  0  0
  -17.4441   -9.5386   17.0462 C   0  0  0  0  0  0  0  0  0  0  0  0
  -24.8644  -26.3959   20.7903 C   0  0  0  0  0  0  0  0  0  0  0  0
  -17.2050  -11.0666   18.9023 C   0  0  0  0  0  0  0  0  0  0  0  0
  -23.3246  -12.5402   19.2933 C   0  0  0  0  0  0  0  0  0  0  0  0
  -24.4647  -12.9787   21.5328 C   0  0  0  0  0  0  0  0  0  0  0  0
  -27.6696  -33.0919   25.0669 C   0  0  0  0  0  0  0  0  0  0  0  0
  -25.6796  -28.6604   20.5310 C   0  0  0  0  0  0  0  0  0  0  0  0
  -27.2081  -31.8089   24.7157 C   0  0  0  0  0  0  0  0  0  0  0  0
  -24.6157  -27.7766   20.7612 C   0  0  0  0  0  0  0  0  0  0  0  0
  -28.9733  -21.9695   20.5256 C   0  0  0  0  0  0  0  0  0  0  0  0
  -21.1092  -12.2767   17.6184 C   0  0  0  0  0  0  0  0  0  0  0  0
  -26.1512  -25.9005   20.5807 C   0  0  0  0  0  0  0  0  0  0  0  0
  -18.9517  -11.4133   17.2696 C   0  0  0  0  0  0  0  0  0  0  0  0
  -16.7821   -9.9324   18.2091 C   0  0  0  0  0  0  0  0  0  0  0  0
  -18.2897  -11.8071   18.4325 C   0  0  0  0  0  0  0  0  0  0  0  0
  -24.4691  -12.6756   20.1581 C   0  0  0  0  0  0  0  0  0  0  0  0
  -28.9033  -20.5914   20.5444 C   0  0  0  0  0  0  0  0  0  0  0  0
  -27.7653  -22.6272   20.4139 C   0  0  0  0  0  0  0  0  0  0  0  0
  -25.7920  -12.9923   21.8857 C   0  0  0  0  0  0  0  0  0  0  0  0
  -26.6388  -20.6537   20.3564 C   0  0  0  0  0  0  0  0  0  0  0  0
  -23.3596  -13.2257   22.4123 C   0  0  0  0  0  0  0  0  0  0  0  0
  -24.3647  -30.5619   22.7125 C   0  0  0  0  0  0  0  0  0  0  0  0
  -21.7666  -30.3282   20.7844 C   0  0  0  0  0  0  0  0  0  0  0  0
  -20.0686  -28.5563   18.4129 C   0  0  0  0  0  0  0  0  0  0  0  0
  -30.8617  -14.6282   19.4153 C   0  0  0  0  0  0  0  0  0  0  0  0
  -26.7178  -34.2167   25.3888 C   0  0  0  0  0  0  0  0  0  0  0  0
  -25.4382  -30.1438   20.4700 C   0  0  0  0  0  0  0  0  0  0  0  0
  -23.2104  -28.2691   20.9871 C   0  0  0  0  0  0  0  0  0  0  0  0
  -25.2973  -33.9758   24.8845 C   0  0  0  0  0  0  0  0  0  0  0  0
  -29.9430  -11.1173   19.9602 C   0  0  0  0  0  0  0  0  0  0  0  0
  -30.6301  -23.6917   19.5442 C   0  0  0  0  0  0  0  0  0  0  0  0
  -31.3603  -22.3879   19.6281 C   0  0  0  0  0  0  0  0  0  0  0  0
  -24.8396  -32.5630   25.2329 C   0  0  0  0  0  0  0  0  0  0  0  0
  -28.4268  -11.1907   20.1484 C   0  0  0  0  0  0  0  0  0  0  0  0
  -30.4598  -12.2215   19.0406 C   0  0  0  0  0  0  0  0  0  0  0  0
  -30.2310  -15.4533   21.7585 C   0  0  0  0  0  0  0  0  0  0  0  0
  -28.5358  -13.6514   19.6115 C   0  0  0  0  0  0  0  0  0  0  0  0
  -31.4418  -16.8877   20.2515 C   0  0  0  0  0  0  0  0  0  0  0  0
  -30.2684  -22.6992   20.6192 C   0  0  0  0  0  0  0  0  0  0  0  0
  -25.7322  -31.5125   24.5611 C   0  0  1  0  0  0  0  0  0  0  0  0
  -24.1827  -30.5761   21.2211 C   0  0  1  0  0  0  0  0  0  0  0  0
  -30.9586  -16.5338   22.5631 C   0  0  1  0  0  0  0  0  0  0  0  0
  -27.9887  -12.6007   20.5873 C   0  0  1  0  0  0  0  0  0  0  0  0
  -31.1596  -17.6556   21.5361 C   0  0  2  0  0  0  0  0  0  0  0  0
  -25.3424  -19.9230   20.2618 C   0  0  0  0  0  0  0  0  0  0  0  0
  -30.2335  -16.9176   23.8433 C   0  0  0  0  0  0  0  0  0  0  0  0
  -17.9561  -28.5985   17.0591 C   0  0  0  0  0  0  0  0  0  0  0  0
  -20.1788  -29.4554   23.2394 C   0  0  0  0  0  0  0  0  0  0  0  0
  -18.3924  -28.6158   21.6993 C   0  0  0  0  0  0  0  0  0  0  0  0
  -18.9737  -31.0415   21.7274 C   0  0  0  0  0  0  0  0  0  0  0  0
  -21.5674  -28.6442   15.8625 C   0  0  0  0  0  0  0  0  0  0  0  0
  -30.1513  -19.7670   20.6618 C   0  0  0  0  0  0  0  0  0  0  0  0
  -27.7149  -24.1197   20.3827 C   0  0  0  0  0  0  0  0  0  1  0  0
  -20.5856  -29.3926   20.6906 C   0  0  1  0  0  0  0  0  0  0  0  0
  -19.4270  -28.9820   17.1047 C   0  0  2  0  0  0  0  0  0  0  0  0
  -19.5593  -29.6168   21.8369 C   0  0  0  0  0  0  0  0  0  0  0  0
  -25.7015  -12.5089   19.6708 N   0  0  0  0  0  0  0  0  0  0  0  0
  -27.7487  -19.8983   20.4615 N   0  0  0  0  0  0  0  0  0  0  0  0
  -26.5747  -21.9985   20.3267 N   0  0  0  0  0  0  0  0  0  0  0  0
  -26.4838  -12.7080   20.7452 N   0  0  0  0  0  0  0  0  0  0  0  0
  -23.0262  -29.7284   20.9240 N   0  0  0  0  0  0  0  0  0  0  0  0
  -29.9924  -13.5343   19.4854 N   0  0  0  0  0  0  0  0  0  0  0  0
  -30.7339  -15.6167   20.3910 N   0  0  0  0  0  0  0  0  0  0  0  0
  -26.4232  -13.2197   23.0571 N   0  0  0  0  0  0  0  0  0  0  0  0
  -22.0618  -13.1723   21.8857 N   0  0  0  0  0  0  0  0  0  0  0  0
  -25.3868  -31.3758   23.1623 N   0  0  0  0  0  0  0  0  0  0  0  0
  -20.0330  -29.5657   19.3515 N   0  0  0  0  0  0  0  0  0  0  0  0
  -29.9294  -18.4688   21.3531 N   0  3  0  0  0  0  0  0  0  0  0  0
  -20.1175  -28.3339   15.9540 N   0  3  0  0  0  0  0  0  0  0  0  0
  -23.5190  -13.5023   23.6254 O   0  0  0  0  0  0  0  0  0  0  0  0
  -23.6312  -29.8652   23.4041 O   0  0  0  0  0  0  0  0  0  0  0  0
  -21.5792  -31.5461   20.7285 O   0  0  0  0  0  0  0  0  0  0  0  0
  -20.5498  -27.4387   18.5862 O   0  0  0  0  0  0  0  0  0  0  0  0
  -31.7440  -14.6957   18.5494 O   0  0  0  0  0  0  0  0  0  0  0  0
  -20.0282  -12.1477   16.8014 O   0  0  0  0  0  0  0  0  0  0  0  0
  -26.3791  -24.5494   20.6103 O   0  0  0  0  0  0  0  0  0  1  0  0
  -15.7395   -9.2222   18.6593 F   0  0  0  0  0  0  0  0  0  0  0  0
  -18.6907  -12.8964   19.1021 F   0  0  0  0  0  0  0  0  0  0  0  0
  1  2  1  0  0  0  0
  1  5  2  0  0  0  0
  2  6  2  0  0  0  0
  3  8  2  0  0  0  0
  3 15  1  0  0  0  0
  4  9  1  0  0  0  0
  4 15  2  0  0  0  0
  5 17  1  0  0  0  0
  6 19  1  0  0  0  0
  7 10  2  0  0  0  0
  7 18  1  0  0  0  0
  8 22  1  0  0  0  0
  9 22  2  0  0  0  0
 10 23  1  0  0  0  0
 11 12  2  0  0  0  0
 11 24  1  0  0  0  0
 12 25  1  0  0  0  0
 13 20  1  0  0  0  0
 13 23  2  0  0  0  0
 14 25  2  0  0  0  0
 14 26  1  0  0  0  0
 15 27  1  0  0  0  0
 16 27  1  0  0  0  0
 16 30  2  0  0  0  0
 16 32  1  0  0  0  0
 17 19  2  0  0  0  0
 17 37  1  0  0  0  0
 18 20  2  0  0  0  0
 18 38  1  0  0  0  0
 19 51  1  0  0  0  0
 20 39  1  0  0  0  0
 21 28  1  0  0  0  0
 21 29  2  0  0  0  0
 21 50  1  0  0  0  0
 22 86  1  0  0  0  0
 23 87  1  0  0  0  0
 24 26  2  0  0  0  0
 24 86  1  0  0  0  0
 25 88  1  0  0  0  0
 26 89  1  0  0  0  0
 27 68  2  0  0  0  0
 28 63  1  0  0  0  0
 28 69  2  0  0  0  0
 29 64  1  0  0  0  0
 29 70  1  0  0  0  0
 30 71  1  0  0  0  0
 30 75  1  0  0  0  0
 31 56  1  0  0  0  0
 31 69  1  0  0  0  0
 31 70  2  0  0  0  0
 32 76  1  0  0  0  0
 32 81  2  0  0  0  0
 33 52  1  0  0  0  0
 33 77  1  0  0  0  0
 33 82  2  0  0  0  0
 34 65  1  0  0  0  0
 34 72  1  0  0  0  0
 34 83  2  0  0  0  0
 35 66  1  0  0  0  0
 35 78  1  0  0  0  0
 35 84  2  0  0  0  0
 36 73  1  0  0  0  0
 36 74  1  0  0  0  0
 36 85  2  0  0  0  0
 37 40  1  0  0  0  0
 38 52  1  0  0  0  0
 39 72  1  0  0  0  0
 40 44  1  0  0  0  0
 41 45  1  0  0  0  0
 41 46  1  0  0  0  0
 42 43  1  0  0  0  0
 42 50  1  0  0  0  0
 43 50  1  0  0  0  0
 44 51  1  0  0  0  0
 45 54  1  0  0  0  0
 46 73  1  0  0  0  0
 47 53  1  0  0  0  0
 47 74  1  0  0  0  0
 48 54  1  0  0  0  0
 48 73  1  0  0  0  0
 49 55  1  0  0  0  0
 49 74  1  0  0  0  0
 51 77  1  0  0  0  0
 52 72  1  0  0  0  0
 53 55  1  0  0  0  0
 53 57  1  0  0  0  0
 54 71  1  0  0  0  0
 55 79  1  0  0  0  0
 58 66  1  0  0  0  0
 59 67  1  0  0  0  0
 60 67  1  0  0  0  0
 61 67  1  0  0  0  0
 62 80  1  0  0  0  0
 63 79  1  0  0  0  0
 64 87  1  0  0  0  0
 65 67  1  0  0  0  0
 65 78  1  0  0  0  0
 66 80  1  0  0  0  0
 68 71  1  0  0  0  0
M  CHG  2  79   1  80   1
M  ISO  4  36 100  64 101  74 100  87 101
M  END
> <Batch ID>
0194

> <Smiles>
CNC(C)C(=O)NC(C(=O)N1Cc2cc([101O:1][101CH2:1]c3nc(C)nc(CNC4C[100N:0]([100C:0](=O)N5CCCC(n6nc(-c7ccc(Oc8ccc(F)cc8F)cc7)c(C(N)=O)c6N)C5)CC4C)c3C3CC3)ccc2CC1C(=O)NC1CCCc2ccccc21)C(C)(C)C

> <Shape>
0.292

> <Color>
0.074

> <Negative vol penalty>
0.000

$$$$

  -OEChem-04052323343D

 87 96  0     1  0  0  0  0  0999 V2000
  -23.6859   -8.8340   21.9860 C   0  0  0  0  0  0  0  0  0  0  0  0
  -24.8801   -9.5460   22.0335 C   0  0  0  0  0  0  0  0  0  0  0  0
  -20.8472  -26.6587   22.7981 C   0  0  0  0  0  0  0  0  0  0  0  0
  -20.3778  -28.2969   24.5107 C   0  0  0  0  0  0  0  0  0  0  0  0
  -22.5646   -9.3955   21.3766 C   0  0  0  0  0  0  0  0  0  0  0  0
  -24.9541  -10.8196   21.4706 C   0  0  0  0  0  0  0  0  0  0  0  0
  -28.1954  -17.1436   22.3751 C   0  0  0  0  0  0  0  0  0  0  0  0
  -19.8887  -25.8082   23.3490 C   0  0  0  0  0  0  0  0  0  0  0  0
  -19.4193  -27.4464   25.0616 C   0  0  0  0  0  0  0  0  0  0  0  0
  -28.9504  -18.0778   21.6675 C   0  0  0  0  0  0  0  0  0  0  0  0
  -16.5936  -25.8562   26.7062 C   0  0  0  0  0  0  0  0  0  0  0  0
  -15.3672  -26.4107   27.0723 C   0  0  0  0  0  0  0  0  0  0  0  0
  -26.9276  -18.9793   20.7111 C   0  0  0  0  0  0  0  0  0  0  0  0
  -14.9969  -27.1007   24.7868 C   0  0  0  0  0  0  0  0  0  0  0  0
  -30.2498  -21.1776   17.7541 C   0  0  0  0  0  0  0  0  0  0  0  0
  -21.0918  -27.9031   23.3790 C   0  0  0  0  0  0  0  0  0  0  0  0
  -21.8814  -29.7610   21.8195 C   0  0  0  0  0  0  0  0  0  0  0  0
  -22.6222  -10.6806   20.8145 C   0  0  0  0  0  0  0  0  0  0  0  0
  -26.7992  -17.1130   22.2474 C   0  0  0  0  0  0  0  0  0  0  0  0
  -23.8329  -11.3983   20.8519 C   0  0  0  0  0  0  0  0  0  0  0  0
  -26.1569  -18.0453   21.4202 C   0  0  0  0  0  0  0  0  0  0  0  0
  -19.1747  -26.2020   24.4807 C   0  0  0  0  0  0  0  0  0  0  0  0
  -28.3168  -18.9940   20.8331 C   0  0  0  0  0  0  0  0  0  0  0  0
  -17.0217  -25.9241   25.3804 C   0  0  0  0  0  0  0  0  0  0  0  0
  -14.5688  -27.0329   26.1126 C   0  0  0  0  0  0  0  0  0  0  0  0
  -16.2233  -26.5463   24.4207 C   0  0  0  0  0  0  0  0  0  0  0  0
  -22.0822  -28.7819   22.8108 C   0  0  0  0  0  0  0  0  0  0  0  0
  -29.2939  -21.7065   18.5932 C   0  0  0  0  0  0  0  0  0  0  0  0
  -31.0234  -23.2829   17.3082 C   0  0  0  0  0  0  0  0  0  0  0  0
  -30.0670  -23.8120   18.1468 C   0  0  0  0  0  0  0  0  0  0  0  0
  -23.1229  -30.3168   21.6293 C   0  0  0  0  0  0  0  0  0  0  0  0
  -20.6800  -30.1348   21.1320 C   0  0  0  0  0  0  0  0  0  0  0  0
  -24.6878  -14.9751   21.2107 C   0  0  0  0  0  0  0  0  0  0  0  0
  -22.5384  -17.1556   22.2822 C   0  0  0  0  0  0  0  0  0  0  0  0
  -21.8525  -20.4065   23.0616 C   0  0  0  0  0  0  0  0  0  0  0  0
  -28.6038  -27.8869   22.9109 C   0  0  0  0  0  0  0  0  0  0  0  0
  -21.3972  -11.2268   20.1248 C   0  0  0  0  0  0  0  0  0  0  0  0
  -25.9970  -16.1163   23.0382 C   0  0  0  0  0  0  0  0  0  0  0  0
  -24.6590  -18.0675   21.2640 C   0  0  0  0  0  0  0  0  0  0  0  0
  -21.4548  -12.7329   19.8831 C   0  0  0  0  0  0  0  0  0  0  0  0
  -27.2376  -31.1881   23.8935 C   0  0  0  0  0  0  0  0  0  0  0  0
  -22.8086  -13.1289   19.3022 C   0  0  0  0  0  0  0  0  0  0  0  0
  -25.7336  -30.9906   23.7119 C   0  0  0  0  0  0  0  0  0  0  0  0
  -27.9461  -29.8761   24.2148 C   0  0  0  0  0  0  0  0  0  0  0  0
  -28.8715  -25.5905   22.0265 C   0  0  0  0  0  0  0  0  0  0  0  0
  -26.1846  -28.5976   23.0381 C   0  0  0  0  0  0  0  0  0  0  0  0
  -27.5528  -27.2020   20.7069 C   0  0  0  0  0  0  0  0  0  0  0  0
  -29.8318  -25.3664   20.8697 C   0  0  0  0  0  0  0  0  0  0  0  0
  -23.9458  -12.7926   20.2744 C   0  0  1  0  0  0  0  0  0  0  0  0
  -24.6224  -15.8429   22.4356 C   0  0  1  0  0  0  0  0  0  0  0  0
  -25.4472  -29.8944   22.6713 C   0  0  1  0  0  0  0  0  0  0  0  0
  -28.4785  -27.0258   19.4938 C   0  0  1  0  0  0  0  0  0  0  0  0
  -31.9929  -24.1554   16.5866 C   0  0  0  0  0  0  0  0  0  0  0  0
  -28.8973  -29.4788   19.2560 C   0  0  0  0  0  0  0  0  0  0  0  0
  -19.9978  -21.8879   23.8758 C   0  0  0  0  0  0  0  0  0  0  0  0
  -21.2524  -17.0613   19.5168 C   0  0  0  0  0  0  0  0  0  0  0  0
  -20.0578  -19.1893   20.0764 C   0  0  0  0  0  0  0  0  0  0  0  0
  -19.6309  -17.1310   21.4196 C   0  0  0  0  0  0  0  0  0  0  0  0
  -23.3736  -21.1773   25.4804 C   0  0  0  0  0  0  0  0  0  0  0  0
  -29.9567  -25.2911   18.3728 C   0  0  0  0  0  0  0  0  0  0  0  0
  -28.3366  -20.8155   19.3041 C   0  0  0  0  0  0  0  0  0  1  0  0
  -29.5280  -28.1331   19.3998 C   0  0  0  0  0  0  0  0  0  0  0  0
  -21.8326  -18.3463   21.6798 C   0  0  1  0  0  0  0  0  0  0  0  0
  -21.1905  -21.0333   24.2754 C   0  0  2  0  0  0  0  0  0  0  0  0
  -20.7218  -17.9306   20.6744 C   0  0  0  0  0  0  0  0  0  0  0  0
  -31.1317  -21.9563   17.0966 N   0  0  0  0  0  0  0  0  0  0  0  0
  -23.3515  -28.7168   23.2216 N   0  0  0  0  0  0  0  0  0  0  0  0
  -29.1854  -23.0332   18.8046 N   0  0  0  0  0  0  0  0  0  0  0  0
  -23.9594  -29.6621   22.4847 N   0  0  0  0  0  0  0  0  0  0  0  0
  -23.9189  -17.0690   22.0531 N   0  0  0  0  0  0  0  0  0  0  0  0
  -27.6221  -28.8367   23.2376 N   0  0  0  0  0  0  0  0  0  0  0  0
  -28.2545  -26.9128   21.9637 N   0  0  0  0  0  0  0  0  0  0  0  0
  -23.5698  -31.2967   20.8154 N   0  0  0  0  0  0  0  0  0  0  0  0
  -19.4920  -29.4620   21.4489 N   0  0  0  0  0  0  0  0  0  0  0  0
  -24.0123  -13.7760   21.3341 N   0  0  0  0  0  0  0  0  0  0  0  0
  -21.3541  -19.1475   22.8011 N   0  0  0  0  0  0  0  0  0  0  0  0
  -29.1135  -25.6435   19.5679 N   0  3  1  0  0  0  0  0  0  0  0  0
  -22.1614  -21.8945   25.0080 N   0  3  0  0  0  0  0  0  0  0  0  0
  -20.6637  -31.0273   20.2507 O   0  0  0  0  0  0  0  0  0  0  0  0
  -25.3042  -15.3653   20.2260 O   0  0  0  0  0  0  0  0  0  0  0  0
  -21.8900  -16.3364   22.9381 O   0  0  0  0  0  0  0  0  0  0  0  0
  -22.7218  -20.9783   22.4075 O   0  0  0  0  0  0  0  0  0  0  0  0
  -29.7268  -27.9132   23.4299 O   0  0  0  0  0  0  0  0  0  0  0  0
  -18.2392  -25.3724   25.0183 O   0  0  0  0  0  0  0  0  0  0  0  0
  -29.0563  -19.9126   20.1362 O   0  0  0  0  0  0  0  0  0  1  0  0
  -13.3904  -27.5640   26.4640 F   0  0  0  0  0  0  0  0  0  0  0  0
  -16.6287  -26.6135   23.1452 F   0  0  0  0  0  0  0  0  0  0  0  0
  1  2  1  0  0  0  0
  1  5  2  0  0  0  0
  2  6  2  0  0  0  0
  3  8  2  0  0  0  0
  3 16  1  0  0  0  0
  4  9  1  0  0  0  0
  4 16  2  0  0  0  0
  5 18  1  0  0  0  0
  6 20  1  0  0  0  0
  7 10  2  0  0  0  0
  7 19  1  0  0  0  0
  8 22  1  0  0  0  0
  9 22  2  0  0  0  0
 10 23  1  0  0  0  0
 11 12  2  0  0  0  0
 11 24  1  0  0  0  0
 12 25  1  0  0  0  0
 13 21  1  0  0  0  0
 13 23  2  0  0  0  0
 14 25  2  0  0  0  0
 14 26  1  0  0  0  0
 15 28  1  0  0  0  0
 15 66  2  0  0  0  0
 16 27  1  0  0  0  0
 17 27  1  0  0  0  0
 17 31  2  0  0  0  0
 17 32  1  0  0  0  0
 18 20  2  0  0  0  0
 18 37  1  0  0  0  0
 19 21  2  0  0  0  0
 19 38  1  0  0  0  0
 20 49  1  0  0  0  0
 21 39  1  0  0  0  0
 22 84  1  0  0  0  0
 23 85  1  0  0  0  0
 24 26  2  0  0  0  0
 24 84  1  0  0  0  0
 25 86  1  0  0  0  0
 26 87  1  0  0  0  0
 27 67  2  0  0  0  0
 28 61  1  0  0  0  0
 28 68  2  0  0  0  0
 29 30  2  0  0  0  0
 29 53  1  0  0  0  0
 29 66  1  0  0  0  0
 30 60  1  0  0  0  0
 30 68  1  0  0  0  0
 31 69  1  0  0  0  0
 31 73  1  0  0  0  0
 32 74  1  0  0  0  0
 32 79  2  0  0  0  0
 33 50  1  0  0  0  0
 33 75  1  0  0  0  0
 33 80  2  0  0  0  0
 34 63  1  0  0  0  0
 34 70  1  0  0  0  0
 34 81  2  0  0  0  0
 35 64  1  0  0  0  0
 35 76  1  0  0  0  0
 35 82  2  0  0  0  0
 36 71  1  0  0  0  0
 36 72  1  0  0  0  0
 36 83  2  0  0  0  0
 37 40  1  0  0  0  0
 38 50  1  0  0  0  0
 39 70  1  0  0  0  0
 40 42  1  0  0  0  0
 41 43  1  0  0  0  0
 41 44  1  0  0  0  0
 42 49  1  0  0  0  0
 43 51  1  0  0  0  0
 44 71  1  0  0  0  0
 45 48  1  0  0  0  0
 45 72  1  0  0  0  0
 46 51  1  0  0  0  0
 46 71  1  0  0  0  0
 47 52  1  0  0  0  0
 47 72  1  0  0  0  0
 48 77  1  0  0  0  0
 49 75  1  0  0  0  0
 50 70  1  0  0  0  0
 51 69  1  0  0  0  0
 52 62  1  0  0  0  0
 52 77  1  0  0  0  0
 54 62  1  0  0  0  0
 55 64  1  0  0  0  0
 56 65  1  0  0  0  0
 57 65  1  0  0  0  0
 58 65  1  0  0  0  0
 59 78  1  0  0  0  0
 60 77  1  0  0  0  0
 61 85  1  0  0  0  0
 63 65  1  0  0  0  0
 63 76  1  0  0  0  0
 64 78  1  0  0  0  0
 67 69  1  0  0  0  0
M  CHG  2  77   1  78   1
M  ISO  4  36 100  61 101  72 100  85 101
M  END
> <Batch ID>
0194

> <Smiles>
CCC1C[100N:0]([100C:0](=O)N2CCCC(n3nc(-c4ccc(Oc5ccc(F)cc5F)cc4)c(C(N)=O)c3N)C2)CCN1Cc1nc([101CH2:1][101O:1]c2ccc3c(c2)CN(C(=O)C(NC(=O)C(C)NC)C(C)(C)C)C(C(=O)NC2CCCc4ccccc42)C3)cnc1C

> <Shape>
0.234

> <Color>
0.071

> <Negative vol penalty>
0.000

$$$$

  -OEChem-04052323343D

 85 95  0     1  0  0  0  0  0999 V2000
  -29.2511  -24.3383   16.5362 C   0  0  0  0  0  0  0  0  0  0  0  0
  -27.9701  -24.2030   17.0617 C   0  0  0  0  0  0  0  0  0  0  0  0
  -25.9844  -13.6824   21.4601 C   0  0  0  0  0  0  0  0  0  0  0  0
  -26.2428  -12.6246   19.3034 C   0  0  0  0  0  0  0  0  0  0  0  0
  -30.2200  -25.0528   17.2395 C   0  0  0  0  0  0  0  0  0  0  0  0
  -27.6576  -24.7813   18.2915 C   0  0  0  0  0  0  0  0  0  0  0  0
  -22.2917  -27.2191   19.9560 C   0  0  0  0  0  0  0  0  0  0  0  0
  -24.7324  -13.0846   21.6033 C   0  0  0  0  0  0  0  0  0  0  0  0
  -24.9908  -12.0267   19.4467 C   0  0  0  0  0  0  0  0  0  0  0  0
  -21.2241  -26.7178   20.6993 C   0  0  0  0  0  0  0  0  0  0  0  0
  -21.5864  -13.5928   20.4769 C   0  0  0  0  0  0  0  0  0  0  0  0
  -20.5381  -14.3886   20.9388 C   0  0  0  0  0  0  0  0  0  0  0  0
  -22.1117  -27.7765   22.6769 C   0  0  0  0  0  0  0  0  0  0  0  0
  -20.2621  -12.9219   22.8388 C   0  0  0  0  0  0  0  0  0  0  0  0
  -26.7396  -13.4525   20.3101 C   0  0  0  0  0  0  0  0  0  0  0  0
  -29.2760  -13.5482   20.5661 C   0  0  0  0  0  0  0  0  0  0  0  0
  -29.9165  -25.6483   18.4740 C   0  0  0  0  0  0  0  0  0  0  0  0
  -23.2849  -27.9950   20.5708 C   0  0  0  0  0  0  0  0  0  0  0  0
  -28.6238  -25.5033   19.0127 C   0  0  0  0  0  0  0  0  0  0  0  0
  -23.1896  -28.2885   21.9386 C   0  0  0  0  0  0  0  0  0  0  0  0
  -24.2356  -12.2567   20.5967 C   0  0  0  0  0  0  0  0  0  0  0  0
  -21.1354  -26.9941   22.0606 C   0  0  0  0  0  0  0  0  0  0  0  0
  -21.9725  -12.4615   21.1958 C   0  0  0  0  0  0  0  0  0  0  0  0
  -19.8760  -14.0532   22.1198 C   0  0  0  0  0  0  0  0  0  0  0  0
  -21.3104  -12.1261   22.3767 C   0  0  0  0  0  0  0  0  0  0  0  0
  -28.0328  -14.0703   20.1613 C   0  0  0  0  0  0  0  0  0  0  0  0
  -30.1869  -14.5098   20.2026 C   0  0  0  0  0  0  0  0  0  0  0  0
  -29.5801  -12.3052   21.2127 C   0  0  0  0  0  0  0  0  0  0  0  0
  -26.4170  -27.6866   21.0167 C   0  0  0  0  0  0  0  0  0  0  0  0
  -26.1507  -30.6951   22.2000 C   0  0  0  0  0  0  0  0  0  0  0  0
  -24.1700  -33.0870   23.6153 C   0  0  0  0  0  0  0  0  0  0  0  0
  -29.7105  -20.4041   19.2957 C   0  0  0  0  0  0  0  0  0  0  0  0
  -31.0102  -26.3709   19.2198 C   0  0  0  0  0  0  0  0  0  0  0  0
  -24.4160  -28.5506   19.7495 C   0  0  0  0  0  0  0  0  0  0  0  0
  -24.2190  -29.1336   22.6419 C   0  0  0  0  0  0  0  0  0  0  0  0
  -30.4925  -27.2705   20.3392 C   0  0  0  0  0  0  0  0  0  0  0  0
  -30.9169  -17.9847   17.0222 C   0  0  0  0  0  0  0  0  0  0  0  0
  -29.4544  -26.5334   21.1794 C   0  0  0  0  0  0  0  0  0  0  0  0
  -30.4071  -16.6580   17.5783 C   0  0  0  0  0  0  0  0  0  0  0  0
  -27.7444  -22.1873   21.8750 C   0  0  0  0  0  0  0  0  0  0  0  0
  -24.2462  -23.2138   21.5688 C   0  0  0  0  0  0  0  0  0  0  0  0
  -19.2435  -24.5107   24.0244 C   0  0  0  0  0  0  0  0  0  0  0  0
  -29.8820  -19.0851   17.2148 C   0  0  0  0  0  0  0  0  0  0  0  0
  -28.9730  -22.0532   20.9889 C   0  0  0  0  0  0  0  0  0  0  0  0
  -27.4579  -20.2530   20.5162 C   0  0  0  0  0  0  0  0  0  0  0  0
  -28.9861  -17.9677   19.2393 C   0  0  0  0  0  0  0  0  0  0  0  0
  -23.2880  -24.0613   22.3886 C   0  0  0  0  0  0  0  0  0  0  0  0
  -23.5638  -21.8370   23.3672 C   0  0  0  0  0  0  0  0  0  0  0  0
  -28.2393  -26.1371   20.3320 C   0  0  1  0  0  0  0  0  0  0  0  0
  -25.6444  -28.9005   20.5837 C   0  0  1  0  0  0  0  0  0  0  0  0
  -26.6740  -21.4376   21.0810 C   0  0  1  0  0  0  0  0  0  0  0  0
  -24.8033  -22.2172   22.5746 C   0  0  1  0  0  0  0  0  0  0  0  0
  -20.7353  -24.3658   23.9037 C   0  0  2  0  0  0  0  0  0  0  0  0
  -29.9901  -16.8119   19.0492 C   0  0  1  0  0  0  0  0  0  0  0  0
  -19.9585  -25.0747   22.8266 C   0  0  2  0  0  0  0  0  0  1  0  0
  -24.2438  -35.4321   24.5054 C   0  0  0  0  0  0  0  0  0  0  0  0
  -27.5390  -29.6906   24.7246 C   0  0  0  0  0  0  0  0  0  0  0  0
  -26.7424  -31.7530   25.8994 C   0  0  0  0  0  0  0  0  0  0  0  0
  -28.2872  -31.9479   23.9505 C   0  0  0  0  0  0  0  0  0  0  0  0
  -22.1941  -34.0289   21.6235 C   0  0  0  0  0  0  0  0  0  0  0  0
  -25.4816  -21.0242   21.9249 C   0  0  0  0  0  0  0  0  0  0  0  0
  -21.3488  -23.0098   23.6312 C   0  0  0  0  0  0  0  0  0  0  0  0
  -25.8778  -31.2883   23.5611 C   0  0  1  0  0  0  0  0  0  0  0  0
  -23.9777  -34.5573   23.2902 C   0  0  2  0  0  0  0  0  0  0  0  0
  -27.0931  -31.1524   24.5213 C   0  0  0  0  0  0  0  0  0  0  0  0
  -28.1406  -15.2704   19.5850 N   0  0  0  0  0  0  0  0  0  0  0  0
  -29.4622  -15.5105   19.6251 N   0  0  0  0  0  0  0  0  0  0  0  0
  -25.3092  -29.6485   21.7972 N   0  0  0  0  0  0  0  0  0  0  0  0
  -29.4704  -19.2056   18.6147 N   0  0  0  0  0  0  0  0  0  0  0  0
  -28.8006  -20.7893   20.2795 N   0  0  0  0  0  0  0  0  0  0  0  0
  -31.5291  -14.5885   20.3241 N   0  0  0  0  0  0  0  0  0  0  0  0
  -28.5250  -11.4335   21.5147 N   0  0  0  0  0  0  0  0  0  0  0  0
  -27.3808  -27.2814   20.1132 N   0  0  0  0  0  0  0  0  0  0  0  0
  -25.4507  -32.6638   23.3288 N   0  0  0  0  0  0  0  0  0  0  0  0
  -22.8324  -23.1545   23.5178 N   0  3  2  0  0  0  0  0  0  0  0  0
  -22.5834  -34.8074   22.8273 N   0  3  0  0  0  0  0  0  0  0  0  0
  -30.7510  -11.9845   21.5285 O   0  0  0  0  0  0  0  0  0  0  0  0
  -26.1588  -27.1578   22.0915 O   0  0  0  0  0  0  0  0  0  0  0  0
  -27.0718  -31.1487   21.5163 O   0  0  0  0  0  0  0  0  0  0  0  0
  -23.2749  -32.3850   24.0805 O   0  0  0  0  0  0  0  0  0  0  0  0
  -30.6761  -21.1244   19.0084 O   0  0  0  0  0  0  0  0  0  0  0  0
  -23.0140  -11.6730   20.7362 O   0  0  0  0  0  0  0  0  0  0  0  0
  -20.0923  -26.5044   22.7902 O   0  0  0  0  0  0  0  0  0  1  0  0
  -18.8703  -14.8183   22.5642 F   0  0  0  0  0  0  0  0  0  0  0  0
  -21.6776  -11.0412   23.0723 F   0  0  0  0  0  0  0  0  0  0  0  0
  1  2  1  0  0  0  0
  1  5  2  0  0  0  0
  2  6  2  0  0  0  0
  3  8  2  0  0  0  0
  3 15  1  0  0  0  0
  4  9  1  0  0  0  0
  4 15  2  0  0  0  0
  5 17  1  0  0  0  0
  6 19  1  0  0  0  0
  7 10  2  0  0  0  0
  7 18  1  0  0  0  0
  8 21  1  0  0  0  0
  9 21  2  0  0  0  0
 10 22  1  0  0  0  0
 11 12  2  0  0  0  0
 11 23  1  0  0  0  0
 12 24  1  0  0  0  0
 13 20  1  0  0  0  0
 13 22  2  0  0  0  0
 14 24  2  0  0  0  0
 14 25  1  0  0  0  0
 15 26  1  0  0  0  0
 16 26  1  0  0  0  0
 16 27  2  0  0  0  0
 16 28  1  0  0  0  0
 17 19  2  0  0  0  0
 17 33  1  0  0  0  0
 18 20  2  0  0  0  0
 18 34  1  0  0  0  0
 19 49  1  0  0  0  0
 20 35  1  0  0  0  0
 21 82  1  0  0  0  0
 22 83  1  0  0  0  0
 23 25  2  0  0  0  0
 23 82  1  0  0  0  0
 24 84  1  0  0  0  0
 25 85  1  0  0  0  0
 26 66  2  0  0  0  0
 27 67  1  0  0  0  0
 27 71  1  0  0  0  0
 28 72  1  0  0  0  0
 28 77  2  0  0  0  0
 29 50  1  0  0  0  0
 29 73  1  0  0  0  0
 29 78  2  0  0  0  0
 30 63  1  0  0  0  0
 30 68  1  0  0  0  0
 30 79  2  0  0  0  0
 31 64  1  0  0  0  0
 31 74  1  0  0  0  0
 31 80  2  0  0  0  0
 32 69  1  0  0  0  0
 32 70  1  0  0  0  0
 32 81  2  0  0  0  0
 33 36  1  0  0  0  0
 34 50  1  0  0  0  0
 35 68  1  0  0  0  0
 36 38  1  0  0  0  0
 37 39  1  0  0  0  0
 37 43  1  0  0  0  0
 38 49  1  0  0  0  0
 39 54  1  0  0  0  0
 40 44  1  0  0  0  0
 40 51  1  0  0  0  0
 41 47  1  0  0  0  0
 41 52  1  0  0  0  0
 42 53  1  0  0  0  0
 42 55  1  0  0  0  0
 43 69  1  0  0  0  0
 44 70  1  0  0  0  0
 45 51  1  0  0  0  0
 45 70  1  0  0  0  0
 46 54  1  0  0  0  0
 46 69  1  0  0  0  0
 47 75  1  0  0  0  0
 48 52  1  0  0  0  0
 48 75  1  0  0  0  0
 49 73  1  0  0  0  0
 50 68  1  0  0  0  0
 51 61  1  0  0  0  0
 52 61  1  0  0  0  0
 53 55  1  0  0  0  0
 53 62  1  0  0  0  0
 54 67  1  0  0  0  0
 55 83  1  0  0  0  0
 56 64  1  0  0  0  0
 57 65  1  0  0  0  0
 58 65  1  0  0  0  0
 59 65  1  0  0  0  0
 60 76  1  0  0  0  0
 62 75  1  0  0  0  0
 63 65  1  0  0  0  0
 63 74  1  0  0  0  0
 64 76  1  0  0  0  0
 66 67  1  0  0  0  0
M  CHG  2  75   1  76   1
M  ISO  4  32 100  55 101  70 100  83 101
M  END
> <Batch ID>
0194

> <Smiles>
CNC(C)C(=O)NC(C(=O)N1Cc2cc([101O:1][101CH:1]3CC3CN3CCC(CC4CC[100N:0]([100C:0](=O)N5CCCC(n6nc(-c7ccc(Oc8ccc(F)cc8F)cc7)c(C(N)=O)c6N)C5)C4)C3)ccc2CC1C(=O)NC1CCCc2ccccc21)C(C)(C)C

> <Shape>
0.323

> <Color>
0.060

> <Negative vol penalty>
0.000

$$$$

  -OEChem-04052323343D

 86 96  0     1  0  0  0  0  0999 V2000
  -17.1285  -27.0486   21.0359 C   0  0  0  0  0  0  0  0  0  0  0  0
  -18.2850  -27.3027   20.3056 C   0  0  0  0  0  0  0  0  0  0  0  0
  -22.6462  -10.4668   21.7106 C   0  0  0  0  0  0  0  0  0  0  0  0
  -24.4983   -9.0246   22.2823 C   0  0  0  0  0  0  0  0  0  0  0  0
  -16.9969  -27.5533   22.3289 C   0  0  0  0  0  0  0  0  0  0  0  0
  -19.3102  -28.0627   20.8675 C   0  0  0  0  0  0  0  0  0  0  0  0
  -23.8852  -26.0410   20.0757 C   0  0  0  0  0  0  0  0  0  0  0  0
  -21.8778   -9.3499   21.3824 C   0  0  0  0  0  0  0  0  0  0  0  0
  -23.7299   -7.9077   21.9542 C   0  0  0  0  0  0  0  0  0  0  0  0
  -24.4519  -26.2222   18.8148 C   0  0  0  0  0  0  0  0  0  0  0  0
  -22.1361   -4.6581   21.6104 C   0  0  0  0  0  0  0  0  0  0  0  0
  -22.1606   -3.5730   22.4865 C   0  0  0  0  0  0  0  0  0  0  0  0
  -25.8046  -28.0188   19.6875 C   0  0  0  0  0  0  0  0  0  0  0  0
  -21.3016   -4.9799   24.2529 C   0  0  0  0  0  0  0  0  0  0  0  0
  -23.9565  -10.3042   22.1605 C   0  0  0  0  0  0  0  0  0  0  0  0
  -24.8495  -12.0824   23.7568 C   0  0  0  0  0  0  0  0  0  0  0  0
  -18.0251  -28.3118   22.9105 C   0  0  0  0  0  0  0  0  0  0  0  0
  -24.2668  -26.8559   21.1513 C   0  0  0  0  0  0  0  0  0  0  0  0
  -19.1917  -28.5792   22.1690 C   0  0  0  0  0  0  0  0  0  0  0  0
  -25.2432  -27.8442   20.9616 C   0  0  0  0  0  0  0  0  0  0  0  0
  -22.4196   -8.0703   21.5042 C   0  0  0  0  0  0  0  0  0  0  0  0
  -25.4096  -27.2130   18.6198 C   0  0  0  0  0  0  0  0  0  0  0  0
  -21.6945   -5.9041   22.0555 C   0  0  0  0  0  0  0  0  0  0  0  0
  -21.7433   -3.7339   23.8077 C   0  0  0  0  0  0  0  0  0  0  0  0
  -21.2772   -6.0650   23.3767 C   0  0  0  0  0  0  0  0  0  0  0  0
  -24.7509  -11.4575   22.4992 C   0  0  0  0  0  0  0  0  0  0  0  0
  -28.7362  -24.7689   17.3690 C   0  0  0  0  0  0  0  0  0  0  0  0
  -28.7028  -24.0280   18.5268 C   0  0  0  0  0  0  0  0  0  0  0  0
  -25.7230  -13.1231   23.5556 C   0  0  0  0  0  0  0  0  0  0  0  0
  -29.7404  -22.9494   16.9092 C   0  0  0  0  0  0  0  0  0  0  0  0
  -24.2088  -11.7516   24.9961 C   0  0  0  0  0  0  0  0  0  0  0  0
  -22.7657  -28.9249   23.0407 C   0  0  0  0  0  0  0  0  0  0  0  0
  -25.6107  -28.9699   24.5984 C   0  0  0  0  0  0  0  0  0  0  0  0
  -28.9852  -28.4737   24.4829 C   0  0  0  0  0  0  0  0  0  0  0  0
  -27.2495  -17.4692   20.5336 C   0  0  0  0  0  0  0  0  0  0  0  0
  -17.8175  -28.8760   24.2937 C   0  0  0  0  0  0  0  0  0  0  0  0
  -23.6656  -26.6301   22.5114 C   0  0  0  0  0  0  0  0  0  0  0  0
  -25.7021  -28.7321   22.0883 C   0  0  0  0  0  0  0  0  0  0  0  0
  -19.1065  -29.3567   24.9552 C   0  0  0  0  0  0  0  0  0  0  0  0
  -28.7333  -14.2060   19.6604 C   0  0  0  0  0  0  0  0  0  0  0  0
  -19.9243  -30.1991   23.9814 C   0  0  0  0  0  0  0  0  0  0  0  0
  -27.7930  -13.2514   20.3903 C   0  0  0  0  0  0  0  0  0  0  0  0
  -27.7224  -26.6228   15.8181 C   0  0  0  0  0  0  0  0  0  0  0  0
  -27.2137  -20.6431   19.3572 C   0  0  0  0  0  0  0  0  0  0  0  0
  -28.0050  -15.4470   19.1461 C   0  0  0  0  0  0  0  0  0  0  0  0
  -26.3057  -15.2174   20.9361 C   0  0  0  0  0  0  0  0  0  0  0  0
  -20.3362  -29.3785   22.7532 C   0  0  1  0  0  0  0  0  0  0  0  0
  -28.1288  -26.1724   17.2018 C   0  0  1  0  0  0  0  0  0  0  0  0
  -23.7537  -27.8564   23.4147 C   0  0  1  0  0  0  0  0  0  0  0  0
  -28.6228  -20.5968   18.8376 C   0  0  2  0  0  0  0  0  0  0  0  0
  -27.0299  -13.9866   21.5027 C   0  0  1  0  0  0  0  0  0  0  0  0
  -28.2044  -19.6807   19.9595 C   0  0  2  0  0  0  0  0  0  0  0  0
  -26.6673  -26.2859   16.8270 C   0  0  1  0  0  0  0  0  0  1  0  0
  -30.4730  -21.8587   16.2337 C   0  0  0  0  0  0  0  0  0  0  0  0
  -28.9897  -25.2653   20.6885 C   0  0  0  0  0  0  0  0  0  0  0  0
  -31.3404  -28.2799   25.3270 C   0  0  0  0  0  0  0  0  0  0  0  0
  -25.5792  -32.0071   24.3086 C   0  0  0  0  0  0  0  0  0  0  0  0
  -28.0214  -32.0153   24.8600 C   0  0  0  0  0  0  0  0  0  0  0  0
  -26.3699  -31.1795   26.5322 C   0  0  0  0  0  0  0  0  0  0  0  0
  -28.6433  -25.6042   25.1216 C   0  0  0  0  0  0  0  0  0  0  0  0
  -28.1307  -24.3058   19.8568 C   0  0  0  0  0  0  0  0  0  0  0  0
  -29.5751  -21.7492   19.1070 C   0  0  0  0  0  0  0  0  0  0  0  0
  -26.8778  -29.7828   24.4869 C   0  0  1  0  0  0  0  0  0  0  0  0
  -29.9260  -27.7277   25.4118 C   0  0  2  0  0  0  0  0  0  0  0  0
  -26.7022  -31.2309   25.0250 C   0  0  0  0  0  0  0  0  0  0  0  0
  -25.5017  -12.0518   21.5679 N   0  0  0  0  0  0  0  0  0  0  0  0
  -29.3832  -24.0918   16.3658 N   0  0  0  0  0  0  0  0  0  0  0  0
  -29.3495  -22.8649   18.2166 N   0  0  0  0  0  0  0  0  0  0  0  0
  -26.0803  -13.0609   22.2409 N   0  0  0  0  0  0  0  0  0  0  0  0
  -25.0801  -28.4766   23.3980 N   0  0  0  0  0  0  0  0  0  0  0  0
  -27.2292  -16.0999   20.2123 N   0  0  0  0  0  0  0  0  0  0  0  0
  -26.2125  -14.0761   24.3769 N   0  0  0  0  0  0  0  0  0  0  0  0
  -23.3414  -10.6511   25.0270 N   0  0  0  0  0  0  0  0  0  0  0  0
  -21.4481  -28.5100   23.0754 N   0  0  0  0  0  0  0  0  0  0  0  0
  -27.9164  -29.0150   25.1655 N   0  0  0  0  0  0  0  0  0  0  0  0
  -28.0837  -18.2621   19.7535 N   0  0  0  0  0  0  0  0  0  0  0  0
  -29.9644  -26.2807   25.0573 N   0  3  0  0  0  0  0  0  0  0  0  0
  -24.3871  -12.4222   26.0411 O   0  0  0  0  0  0  0  0  0  0  0  0
  -23.1689  -30.0435   22.7440 O   0  0  0  0  0  0  0  0  0  0  0  0
  -25.1139  -28.7736   25.7104 O   0  0  0  0  0  0  0  0  0  0  0  0
  -29.1809  -28.5701   23.2734 O   0  0  0  0  0  0  0  0  0  0  0  0
  -26.5700  -17.9535   21.4454 O   0  0  0  0  0  0  0  0  0  0  0  0
  -21.6700   -6.9802   21.1843 O   0  0  0  0  0  0  0  0  0  0  0  0
  -25.9638  -27.3924   17.3900 O   0  0  0  0  0  0  0  0  0  1  0  0
  -21.7654   -2.6914   24.6485 F   0  0  0  0  0  0  0  0  0  0  0  0
  -20.8508   -7.2593   23.8098 F   0  0  0  0  0  0  0  0  0  0  0  0
  1  2  1  0  0  0  0
  1  5  2  0  0  0  0
  2  6  2  0  0  0  0
  3  8  2  0  0  0  0
  3 15  1  0  0  0  0
  4  9  1  0  0  0  0
  4 15  2  0  0  0  0
  5 17  1  0  0  0  0
  6 19  1  0  0  0  0
  7 10  2  0  0  0  0
  7 18  1  0  0  0  0
  8 21  1  0  0  0  0
  9 21  2  0  0  0  0
 10 22  1  0  0  0  0
 11 12  2  0  0  0  0
 11 23  1  0  0  0  0
 12 24  1  0  0  0  0
 13 20  1  0  0  0  0
 13 22  2  0  0  0  0
 14 24  2  0  0  0  0
 14 25  1  0  0  0  0
 15 26  1  0  0  0  0
 16 26  1  0  0  0  0
 16 29  2  0  0  0  0
 16 31  1  0  0  0  0
 17 19  2  0  0  0  0
 17 36  1  0  0  0  0
 18 20  2  0  0  0  0
 18 37  1  0  0  0  0
 19 47  1  0  0  0  0
 20 38  1  0  0  0  0
 21 83  1  0  0  0  0
 22 84  1  0  0  0  0
 23 25  2  0  0  0  0
 23 83  1  0  0  0  0
 24 85  1  0  0  0  0
 25 86  1  0  0  0  0
 26 66  2  0  0  0  0
 27 28  2  0  0  0  0
 27 48  1  0  0  0  0
 27 67  1  0  0  0  0
 28 61  1  0  0  0  0
 28 68  1  0  0  0  0
 29 69  1  0  0  0  0
 29 72  1  0  0  0  0
 30 54  1  0  0  0  0
 30 67  2  0  0  0  0
 30 68  1  0  0  0  0
 31 73  1  0  0  0  0
 31 78  2  0  0  0  0
 32 49  1  0  0  0  0
 32 74  1  0  0  0  0
 32 79  2  0  0  0  0
 33 63  1  0  0  0  0
 33 70  1  0  0  0  0
 33 80  2  0  0  0  0
 34 64  1  0  0  0  0
 34 75  1  0  0  0  0
 34 81  2  0  0  0  0
 35 71  1  0  0  0  0
 35 76  1  0  0  0  0
 35 82  2  0  0  0  0
 36 39  1  0  0  0  0
 37 49  1  0  0  0  0
 38 70  1  0  0  0  0
 39 41  1  0  0  0  0
 40 42  1  0  0  0  0
 40 45  1  0  0  0  0
 41 47  1  0  0  0  0
 42 51  1  0  0  0  0
 43 48  1  0  0  0  0
 43 53  1  0  0  0  0
 44 50  1  0  0  0  0
 44 52  1  0  0  0  0
 45 71  1  0  0  0  0
 46 51  1  0  0  0  0
 46 71  1  0  0  0  0
 47 74  1  0  0  0  0
 48 53  1  0  0  0  0
 49 70  1  0  0  0  0
 50 52  1  0  0  0  0
 50 62  1  0  0  0  0
 51 69  1  0  0  0  0
 52 76  1  0  0  0  0
 53 84  1  0  0  0  0
 55 61  1  0  0  0  0
 56 64  1  0  0  0  0
 57 65  1  0  0  0  0
 58 65  1  0  0  0  0
 59 65  1  0  0  0  0
 60 77  1  0  0  0  0
 62 68  1  0  0  0  0
 63 65  1  0  0  0  0
 63 75  1  0  0  0  0
 64 77  1  0  0  0  0
 66 69  1  0  0  0  0
M  CHG  1  77   1
M  ISO  4  35 100  53 101  76 100  84 101
M  END
> <Batch ID>
0194

> <Smiles>
CCc1c(C2C[101CH:1]2[101O:1]c2ccc3c(c2)CN(C(=O)C(NC(=O)C(C)NC)C(C)(C)C)C(C(=O)NC2CCCc4ccccc42)C3)nc(C)n1CC1CC1[100NH:0][100C:0](=O)N1CCCC(n2nc(-c3ccc(Oc4ccc(F)cc4F)cc3)c(C(N)=O)c2N)C1

> <Shape>
0.300

> <Color>
0.079

> <Negative vol penalty>
0.000

$$$$

  -OEChem-04052323343D

 87 96  0     1  0  0  0  0  0999 V2000
  -27.3392  -33.7548   26.6205 C   0  0  0  0  0  0  0  0  0  0  0  0
  -27.6665  -32.6432   25.8506 C   0  0  0  0  0  0  0  0  0  0  0  0
  -23.7448   -9.7083   22.2667 C   0  0  0  0  0  0  0  0  0  0  0  0
  -24.0547   -8.6320   20.1261 C   0  0  0  0  0  0  0  0  0  0  0  0
  -26.0138  -33.9796   26.9900 C   0  0  0  0  0  0  0  0  0  0  0  0
  -26.6685  -31.7552   25.4506 C   0  0  0  0  0  0  0  0  0  0  0  0
  -27.0829  -30.4329   20.5798 C   0  0  0  0  0  0  0  0  0  0  0  0
  -22.4585   -9.1751   22.3487 C   0  0  0  0  0  0  0  0  0  0  0  0
  -22.7684   -8.0987   20.2080 C   0  0  0  0  0  0  0  0  0  0  0  0
  -28.0490  -29.4805   20.2586 C   0  0  0  0  0  0  0  0  0  0  0  0
  -19.2264   -7.8024   23.2891 C   0  0  0  0  0  0  0  0  0  0  0  0
  -18.8345   -7.2380   24.5029 C   0  0  0  0  0  0  0  0  0  0  0  0
  -26.3407  -27.7787   20.1922 C   0  0  0  0  0  0  0  0  0  0  0  0
  -20.6435   -5.6443   24.3461 C   0  0  0  0  0  0  0  0  0  0  0  0
  -31.8247  -22.2478   21.5129 C   0  0  0  0  0  0  0  0  0  0  0  0
  -24.5429   -9.4368   21.1554 C   0  0  0  0  0  0  0  0  0  0  0  0
  -27.0652   -9.4047   21.5357 C   0  0  0  0  0  0  0  0  0  0  0  0
  -24.9977  -33.0992   26.5862 C   0  0  0  0  0  0  0  0  0  0  0  0
  -25.7377  -30.0627   20.7206 C   0  0  0  0  0  0  0  0  0  0  0  0
  -25.3284  -31.9678   25.8161 C   0  0  0  0  0  0  0  0  0  0  0  0
  -25.3590  -28.7287   20.5127 C   0  0  0  0  0  0  0  0  0  0  0  0
  -21.9703   -8.3703   21.3193 C   0  0  0  0  0  0  0  0  0  0  0  0
  -27.6785  -28.1526   20.0675 C   0  0  0  0  0  0  0  0  0  0  0  0
  -20.3269   -7.2877   22.6037 C   0  0  0  0  0  0  0  0  0  0  0  0
  -19.5430   -6.1590   25.0314 C   0  0  0  0  0  0  0  0  0  0  0  0
  -21.0354   -6.2087   23.1322 C   0  0  0  0  0  0  0  0  0  0  0  0
  -25.8715   -9.9878   21.0699 C   0  0  0  0  0  0  0  0  0  0  0  0
  -31.0900  -21.5188   22.4219 C   0  0  0  0  0  0  0  0  0  0  0  0
  -30.3530  -23.9862   21.7174 C   0  0  0  0  0  0  0  0  0  0  0  0
  -29.6178  -23.2570   22.6258 C   0  0  0  0  0  0  0  0  0  0  0  0
  -28.0405  -10.3177   21.2169 C   0  0  0  0  0  0  0  0  0  0  0  0
  -27.2738   -8.1499   22.1973 C   0  0  0  0  0  0  0  0  0  0  0  0
  -23.6315  -30.1243   23.1005 C   0  0  0  0  0  0  0  0  0  0  0  0
  -21.5701  -29.1764   20.7822 C   0  0  0  0  0  0  0  0  0  0  0  0
  -21.1071  -27.6597   17.7602 C   0  0  0  0  0  0  0  0  0  0  0  0
  -30.0184  -15.3015   20.9522 C   0  0  0  0  0  0  0  0  0  0  0  0
  -23.5861  -33.3582   27.0499 C   0  0  0  0  0  0  0  0  0  0  0  0
  -24.7037  -31.1070   21.0412 C   0  0  0  0  0  0  0  0  0  0  0  0
  -23.9251  -28.2836   20.6323 C   0  0  0  0  0  0  0  0  0  0  0  0
  -22.5350  -32.5725   26.2700 C   0  0  0  0  0  0  0  0  0  0  0  0
  -27.8819  -14.4387   18.2999 C   0  0  0  0  0  0  0  0  0  0  0  0
  -22.9575  -31.1139   26.1251 C   0  0  0  0  0  0  0  0  0  0  0  0
  -27.2561  -13.1461   18.8229 C   0  0  0  0  0  0  0  0  0  0  0  0
  -28.0241  -15.4928   19.3994 C   0  0  0  0  0  0  0  0  0  0  0  0
  -29.5182  -17.7556   20.5628 C   0  0  0  0  0  0  0  0  0  0  0  0
  -31.8467  -16.9546   20.7194 C   0  0  0  0  0  0  0  0  0  0  0  0
  -28.1189  -13.7212   21.1232 C   0  0  0  0  0  0  0  0  0  0  0  0
  -29.7681  -18.7347   21.7054 C   0  0  0  0  0  0  0  0  0  0  0  0
  -32.1242  -17.8999   21.8769 C   0  0  0  0  0  0  0  0  0  0  0  0
  -24.2706  -30.9951   25.3419 C   0  0  1  0  0  0  0  0  0  0  0  0
  -23.4393  -30.5242   21.6649 C   0  0  1  0  0  0  0  0  0  0  0  0
  -28.0173  -12.6226   20.0538 C   0  0  1  0  0  0  0  0  0  0  0  0
  -19.3054  -26.9998   16.1429 C   0  0  0  0  0  0  0  0  0  0  0  0
  -20.8022  -26.8439   22.5932 C   0  0  0  0  0  0  0  0  0  0  0  0
  -19.7612  -25.7338   20.6051 C   0  0  0  0  0  0  0  0  0  0  0  0
  -18.8807  -27.9239   21.4118 C   0  0  0  0  0  0  0  0  0  0  0  0
  -22.2400  -29.3649   15.6230 C   0  0  0  0  0  0  0  0  0  0  0  0
  -31.5149  -20.1330   22.8091 C   0  0  0  0  0  0  0  0  0  0  0  0
  -30.6455  -26.1042   20.4312 C   0  0  0  0  0  0  0  0  0  0  0  0
  -29.9392  -27.4374   20.2506 C   0  0  0  0  0  0  0  0  0  1  0  0
  -21.1165  -27.8449   20.2341 C   0  0  1  0  0  0  0  0  0  0  0  0
  -20.3078  -28.0731   16.5377 C   0  0  2  0  0  0  0  0  0  0  0  0
  -20.1675  -27.0943   21.2106 C   0  0  0  0  0  0  0  0  0  0  0  0
  -31.4695  -23.4946   21.1444 N   0  0  0  0  0  0  0  0  0  0  0  0
  -26.0681  -11.1791   20.4988 N   0  0  0  0  0  0  0  0  0  0  0  0
  -29.9733  -22.0104   22.9946 N   0  0  0  0  0  0  0  0  0  0  0  0
  -27.3967  -11.3520   20.6037 N   0  0  0  0  0  0  0  0  0  0  0  0
  -22.9520  -29.3406   20.9536 N   0  0  0  0  0  0  0  0  0  0  0  0
  -28.7197  -14.9358   20.5679 N   0  0  0  0  0  0  0  0  0  0  0  0
  -30.4291  -16.6075   20.6467 N   0  0  0  0  0  0  0  0  0  0  0  0
  -29.3774  -10.3287   21.4041 N   0  0  0  0  0  0  0  0  0  0  0  0
  -26.1622   -7.3337   22.4477 N   0  0  0  0  0  0  0  0  0  0  0  0
  -29.9350  -25.2888   21.3651 N   0  0  0  0  0  0  0  0  0  0  0  0
  -24.0301  -31.1596   23.9243 N   0  0  0  0  0  0  0  0  0  0  0  0
  -20.5320  -28.1197   18.9260 N   0  0  0  0  0  0  0  0  0  0  0  0
  -31.2299  -19.1106   21.7448 N   0  3  0  0  0  0  0  0  0  0  0  0
  -21.2170  -28.3151   15.3819 N   0  3  0  0  0  0  0  0  0  0  0  0
  -28.4099   -7.7713   22.5706 O   0  0  0  0  0  0  0  0  0  0  0  0
  -23.4315  -28.9628   23.4361 O   0  0  0  0  0  0  0  0  0  0  0  0
  -20.7300  -30.0415   21.0417 O   0  0  0  0  0  0  0  0  0  0  0  0
  -22.1365  -26.9921   17.6886 O   0  0  0  0  0  0  0  0  0  0  0  0
  -30.7674  -14.5073   21.5351 O   0  0  0  0  0  0  0  0  0  0  0  0
  -20.7153   -7.8496   21.3991 O   0  0  0  0  0  0  0  0  0  0  0  0
  -28.6262  -27.2143   19.7524 O   0  0  0  0  0  0  0  0  0  1  0  0
  -19.1674   -5.6181   26.1978 F   0  0  0  0  0  0  0  0  0  0  0  0
  -22.0942   -5.7106   22.4789 F   0  0  0  0  0  0  0  0  0  0  0  0
  -28.1907  -23.8340   23.3862 Cl  0  0  0  0  0  0  0  0  0  0  0  0
  1  2  1  0  0  0  0
  1  5  2  0  0  0  0
  2  6  2  0  0  0  0
  3  8  2  0  0  0  0
  3 16  1  0  0  0  0
  4  9  1  0  0  0  0
  4 16  2  0  0  0  0
  5 18  1  0  0  0  0
  6 20  1  0  0  0  0
  7 10  2  0  0  0  0
  7 19  1  0  0  0  0
  8 22  1  0  0  0  0
  9 22  2  0  0  0  0
 10 23  1  0  0  0  0
 11 12  2  0  0  0  0
 11 24  1  0  0  0  0
 12 25  1  0  0  0  0
 13 21  1  0  0  0  0
 13 23  2  0  0  0  0
 14 25  2  0  0  0  0
 14 26  1  0  0  0  0
 15 28  1  0  0  0  0
 15 64  2  0  0  0  0
 16 27  1  0  0  0  0
 17 27  1  0  0  0  0
 17 31  2  0  0  0  0
 17 32  1  0  0  0  0
 18 20  2  0  0  0  0
 18 37  1  0  0  0  0
 19 21  2  0  0  0  0
 19 38  1  0  0  0  0
 20 50  1  0  0  0  0
 21 39  1  0  0  0  0
 22 83  1  0  0  0  0
 23 84  1  0  0  0  0
 24 26  2  0  0  0  0
 24 83  1  0  0  0  0
 25 85  1  0  0  0  0
 26 86  1  0  0  0  0
 27 65  2  0  0  0  0
 28 58  1  0  0  0  0
 28 66  2  0  0  0  0
 29 30  2  0  0  0  0
 29 64  1  0  0  0  0
 29 73  1  0  0  0  0
 30 66  1  0  0  0  0
 30 87  1  0  0  0  0
 31 67  1  0  0  0  0
 31 71  1  0  0  0  0
 32 72  1  0  0  0  0
 32 78  2  0  0  0  0
 33 51  1  0  0  0  0
 33 74  1  0  0  0  0
 33 79  2  0  0  0  0
 34 61  1  0  0  0  0
 34 68  1  0  0  0  0
 34 80  2  0  0  0  0
 35 62  1  0  0  0  0
 35 75  1  0  0  0  0
 35 81  2  0  0  0  0
 36 69  1  0  0  0  0
 36 70  1  0  0  0  0
 36 82  2  0  0  0  0
 37 40  1  0  0  0  0
 38 51  1  0  0  0  0
 39 68  1  0  0  0  0
 40 42  1  0  0  0  0
 41 43  1  0  0  0  0
 41 44  1  0  0  0  0
 42 50  1  0  0  0  0
 43 52  1  0  0  0  0
 44 69  1  0  0  0  0
 45 48  1  0  0  0  0
 45 70  1  0  0  0  0
 46 49  1  0  0  0  0
 46 70  1  0  0  0  0
 47 52  1  0  0  0  0
 47 69  1  0  0  0  0
 48 76  1  0  0  0  0
 49 76  1  0  0  0  0
 50 74  1  0  0  0  0
 51 68  1  0  0  0  0
 52 67  1  0  0  0  0
 53 62  1  0  0  0  0
 54 63  1  0  0  0  0
 55 63  1  0  0  0  0
 56 63  1  0  0  0  0
 57 77  1  0  0  0  0
 58 76  1  0  0  0  0
 59 60  1  0  0  0  0
 59 73  1  0  0  0  0
 60 84  1  0  0  0  0
 61 63  1  0  0  0  0
 61 75  1  0  0  0  0
 62 77  1  0  0  0  0
 65 67  1  0  0  0  0
M  CHG  2  76   1  77   1
M  ISO  4  36 100  60 101  70 100  84 101
M  END
> <Batch ID>
0194

> <Smiles>
CNC(C)C(=O)NC(C(=O)N1Cc2cc([101O:1][101CH2:1]CNc3ncc(CN4CC[100N:0]([100C:0](=O)N5CCCC(n6nc(-c7ccc(Oc8ccc(F)cc8F)cc7)c(C(N)=O)c6N)C5)CC4)nc3Cl)ccc2CC1C(=O)NC1CCCc2ccccc21)C(C)(C)C

> <Shape>
0.292

> <Color>
0.085

> <Negative vol penalty>
0.000

$$$$

  -OEChem-04052323343D

 81 90  0     1  0  0  0  0  0999 V2000
  -28.6453  -33.7576   25.0664 C   0  0  0  0  0  0  0  0  0  0  0  0
  -28.6543  -32.4484   24.5958 C   0  0  0  0  0  0  0  0  0  0  0  0
  -26.2013  -14.2519   20.4420 C   0  0  0  0  0  0  0  0  0  0  0  0
  -26.8152  -12.1979   19.3280 C   0  0  0  0  0  0  0  0  0  0  0  0
  -27.4386  -34.3645   25.4123 C   0  0  0  0  0  0  0  0  0  0  0  0
  -27.4567  -31.7450   24.4718 C   0  0  0  0  0  0  0  0  0  0  0  0
  -27.1276  -29.2268   20.0905 C   0  0  0  0  0  0  0  0  0  0  0  0
  -24.9123  -13.7581   20.6422 C   0  0  0  0  0  0  0  0  0  0  0  0
  -25.5262  -11.7040   19.5282 C   0  0  0  0  0  0  0  0  0  0  0  0
  -27.8334  -28.0287   19.9902 C   0  0  0  0  0  0  0  0  0  0  0  0
  -23.7521  -10.3281   22.0541 C   0  0  0  0  0  0  0  0  0  0  0  0
  -23.6260   -9.0160   22.5101 C   0  0  0  0  0  0  0  0  0  0  0  0
  -25.8012  -26.8025   20.4217 C   0  0  0  0  0  0  0  0  0  0  0  0
  -22.3763   -8.4454   20.5227 C   0  0  0  0  0  0  0  0  0  0  0  0
  -27.1528  -13.4718   19.7849 C   0  0  0  0  0  0  0  0  0  0  0  0
  -29.5905  -13.8455   20.4374 C   0  0  0  0  0  0  0  0  0  0  0  0
  -26.2247  -33.6714   25.2832 C   0  0  0  0  0  0  0  0  0  0  0  0
  -25.7531  -29.2222   20.3685 C   0  0  0  0  0  0  0  0  0  0  0  0
  -26.2328  -32.3427   24.8174 C   0  0  0  0  0  0  0  0  0  0  0  0
  -25.0798  -28.0019   20.5225 C   0  0  0  0  0  0  0  0  0  0  0  0
  -24.5747  -12.4842   20.1854 C   0  0  0  0  0  0  0  0  0  0  0  0
  -27.1708  -26.8164   20.1587 C   0  0  0  0  0  0  0  0  0  0  0  0
  -23.1903  -10.6990   20.8325 C   0  0  0  0  0  0  0  0  0  0  0  0
  -22.9382   -8.0746   21.7444 C   0  0  0  0  0  0  0  0  0  0  0  0
  -22.5024   -9.7577   20.0667 C   0  0  0  0  0  0  0  0  0  0  0  0
  -28.4844  -13.9816   19.5772 C   0  0  0  0  0  0  0  0  0  0  0  0
  -30.6106  -14.4998   19.7911 C   0  0  0  0  0  0  0  0  0  0  0  0
  -28.0470  -23.2698   20.1310 C   0  0  0  0  0  0  0  0  0  0  0  0
  -29.2471  -21.6551   20.6877 C   0  0  0  0  0  0  0  0  0  0  0  0
  -29.6872  -13.1863   21.7070 C   0  0  0  0  0  0  0  0  0  0  0  0
  -23.9375  -30.3407   22.7256 C   0  0  0  0  0  0  0  0  0  0  0  0
  -21.5163  -29.3628   20.8010 C   0  0  0  0  0  0  0  0  0  0  0  0
  -20.4626  -27.3103   18.2863 C   0  0  0  0  0  0  0  0  0  0  0  0
  -30.5465  -18.9120   15.6915 C   0  0  0  0  0  0  0  0  0  0  0  0
  -24.9502  -34.3531   25.7143 C   0  0  0  0  0  0  0  0  0  0  0  0
  -25.0010  -30.5224   20.4470 C   0  0  0  0  0  0  0  0  0  0  0  0
  -23.6011  -27.9419   20.8022 C   0  0  0  0  0  0  0  0  0  0  0  0
  -23.6879  -33.6666   25.1990 C   0  0  0  0  0  0  0  0  0  0  0  0
  -32.1288  -15.6791   15.4052 C   0  0  0  0  0  0  0  0  0  0  0  0
  -23.7728  -32.1593   25.4177 C   0  0  0  0  0  0  0  0  0  0  0  0
  -31.4571  -14.8558   16.5059 C   0  0  0  0  0  0  0  0  0  0  0  0
  -31.1715  -16.6984   14.7894 C   0  0  0  0  0  0  0  0  0  0  0  0
  -29.8314  -16.7530   16.8526 C   0  0  0  0  0  0  0  0  0  0  0  0
  -29.8917  -21.1146   16.8038 C   0  0  0  0  0  0  0  0  0  0  0  0
  -29.6832  -19.4532   18.1028 C   0  0  0  0  0  0  0  0  0  0  0  0
  -24.9520  -31.5554   24.6455 C   0  0  1  0  0  0  0  0  0  0  0  0
  -23.7041  -30.4153   21.2431 C   0  0  1  0  0  0  0  0  0  0  0  0
  -30.7810  -15.7665   17.5482 C   0  0  1  0  0  0  0  0  0  0  0  0
  -30.1088  -20.9252   18.3227 C   0  0  0  0  0  0  0  0  0  0  0  0
  -29.9937  -20.5983   21.3950 C   0  0  0  0  0  0  0  0  0  0  0  0
  -18.4202  -26.7133   16.9560 C   0  0  0  0  0  0  0  0  0  0  0  0
  -20.4363  -27.7787   23.1746 C   0  0  0  0  0  0  0  0  0  0  0  0
  -19.0030  -26.4924   21.5748 C   0  0  0  0  0  0  0  0  0  0  0  0
  -18.6905  -28.9547   21.8242 C   0  0  0  0  0  0  0  0  0  0  0  0
  -21.7329  -28.1403   15.7453 C   0  0  0  0  0  0  0  0  0  0  0  0
  -27.1155  -24.4404   20.2457 C   0  0  0  0  0  0  0  0  0  1  0  0
  -20.7392  -28.0801   20.6283 C   0  0  1  0  0  0  0  0  0  0  0  0
  -19.6614  -27.5892   17.0274 C   0  0  2  0  0  0  0  0  0  0  0  0
  -19.7455  -27.8273   21.7971 C   0  0  0  0  0  0  0  0  0  0  0  0
  -28.7744  -14.6687   18.4692 N   0  0  0  0  0  0  0  0  0  0  0  0
  -28.4665  -22.5650   21.2228 N   0  0  0  0  0  0  0  0  0  0  0  0
  -28.5189  -22.8532   18.9541 N   0  0  0  0  0  0  0  0  0  0  0  0
  -30.0743  -14.9702   18.6286 N   0  0  0  0  0  0  0  0  0  0  0  0
  -29.2836  -21.8198   19.3381 N   0  0  0  0  0  0  0  0  0  0  0  0
  -22.9110  -29.2403   20.8761 N   0  0  0  0  0  0  0  0  0  0  0  0
  -30.5504  -17.5216   15.8299 N   0  0  0  0  0  0  0  0  0  0  0  0
  -29.9882  -19.6637   16.6980 N   0  0  0  0  0  0  0  0  0  0  0  0
  -31.9050  -14.7132   20.1096 N   0  0  0  0  0  0  0  0  0  0  0  0
  -28.5434  -12.5641   22.2256 N   0  0  0  0  0  0  0  0  0  0  0  0
  -24.6229  -31.4236   23.2424 N   0  0  0  0  0  0  0  0  0  0  0  0
  -20.1093  -28.1581   19.3148 N   0  0  0  0  0  0  0  0  0  0  0  0
  -20.4909  -27.3284   15.8171 N   0  3  0  0  0  0  0  0  0  0  0  0
  -30.7520  -13.1643   22.3697 O   0  0  0  0  0  0  0  0  0  0  0  0
  -23.5249  -29.3731   23.3542 O   0  0  0  0  0  0  0  0  0  0  0  0
  -20.9086  -30.4347   20.8596 O   0  0  0  0  0  0  0  0  0  0  0  0
  -21.3139  -26.4263   18.3519 O   0  0  0  0  0  0  0  0  0  0  0  0
  -31.0549  -19.4711   14.7107 O   0  0  0  0  0  0  0  0  0  0  0  0
  -23.3170  -12.0019   20.3808 O   0  0  0  0  0  0  0  0  0  0  0  0
  -27.8574  -25.6454   20.0619 O   0  0  0  0  0  0  0  0  0  1  0  0
  -22.8185   -6.8142   22.1817 F   0  0  0  0  0  0  0  0  0  0  0  0
  -21.9615  -10.1077   18.8917 F   0  0  0  0  0  0  0  0  0  0  0  0
  1  2  1  0  0  0  0
  1  5  2  0  0  0  0
  2  6  2  0  0  0  0
  3  8  2  0  0  0  0
  3 15  1  0  0  0  0
  4  9  1  0  0  0  0
  4 15  2  0  0  0  0
  5 17  1  0  0  0  0
  6 19  1  0  0  0  0
  7 10  2  0  0  0  0
  7 18  1  0  0  0  0
  8 21  1  0  0  0  0
  9 21  2  0  0  0  0
 10 22  1  0  0  0  0
 11 12  2  0  0  0  0
 11 23  1  0  0  0  0
 12 24  1  0  0  0  0
 13 20  1  0  0  0  0
 13 22  2  0  0  0  0
 14 24  2  0  0  0  0
 14 25  1  0  0  0  0
 15 26  1  0  0  0  0
 16 26  1  0  0  0  0
 16 27  2  0  0  0  0
 16 30  1  0  0  0  0
 17 19  2  0  0  0  0
 17 35  1  0  0  0  0
 18 20  2  0  0  0  0
 18 36  1  0  0  0  0
 19 46  1  0  0  0  0
 20 37  1  0  0  0  0
 21 78  1  0  0  0  0
 22 79  1  0  0  0  0
 23 25  2  0  0  0  0
 23 78  1  0  0  0  0
 24 80  1  0  0  0  0
 25 81  1  0  0  0  0
 26 60  2  0  0  0  0
 27 63  1  0  0  0  0
 27 68  1  0  0  0  0
 28 56  1  0  0  0  0
 28 61  1  0  0  0  0
 28 62  2  0  0  0  0
 29 50  1  0  0  0  0
 29 61  2  0  0  0  0
 29 64  1  0  0  0  0
 30 69  1  0  0  0  0
 30 73  2  0  0  0  0
 31 47  1  0  0  0  0
 31 70  1  0  0  0  0
 31 74  2  0  0  0  0
 32 57  1  0  0  0  0
 32 65  1  0  0  0  0
 32 75  2  0  0  0  0
 33 58  1  0  0  0  0
 33 71  1  0  0  0  0
 33 76  2  0  0  0  0
 34 66  1  0  0  0  0
 34 67  1  0  0  0  0
 34 77  2  0  0  0  0
 35 38  1  0  0  0  0
 36 47  1  0  0  0  0
 37 65  1  0  0  0  0
 38 40  1  0  0  0  0
 39 41  1  0  0  0  0
 39 42  1  0  0  0  0
 40 46  1  0  0  0  0
 41 48  1  0  0  0  0
 42 66  1  0  0  0  0
 43 48  1  0  0  0  0
 43 66  1  0  0  0  0
 44 49  1  0  0  0  0
 44 67  1  0  0  0  0
 45 49  1  0  0  0  0
 45 67  1  0  0  0  0
 46 70  1  0  0  0  0
 47 65  1  0  0  0  0
 48 63  1  0  0  0  0
 49 64  1  0  0  0  0
 51 58  1  0  0  0  0
 52 59  1  0  0  0  0
 53 59  1  0  0  0  0
 54 59  1  0  0  0  0
 55 72  1  0  0  0  0
 56 79  1  0  0  0  0
 57 59  1  0  0  0  0
 57 71  1  0  0  0  0
 58 72  1  0  0  0  0
 60 63  1  0  0  0  0
 62 64  1  0  0  0  0
M  CHG  1  72   1
M  ISO  4  34 100  56 101  67 100  79 101
M  END
> <Batch ID>
0194

> <Smiles>
CNC(C)C(=O)NC(C(=O)N1Cc2cc([101O:1][101CH2:1]c3nc(C)n(C4C[100N:0]([100C:0](=O)N5CCCC(n6nc(-c7ccc(Oc8ccc(F)cc8F)cc7)c(C(N)=O)c6N)C5)C4)n3)ccc2CC1C(=O)NC1CCCc2ccccc21)C(C)(C)C

> <Shape>
0.312

> <Color>
0.104

> <Negative vol penalty>
0.000

$$$$

  -OEChem-04052323343D

 90 99  0     1  0  0  0  0  0999 V2000
  -32.5426  -16.8648   21.5403 C   0  0  0  0  0  0  0  0  0  0  0  0
  -31.3452  -17.5514   21.7136 C   0  0  0  0  0  0  0  0  0  0  0  0
  -27.4475  -25.4923   21.8549 C   0  0  0  0  0  0  0  0  0  0  0  0
  -27.6922  -25.3259   19.4571 C   0  0  0  0  0  0  0  0  0  0  0  0
  -32.5554  -15.6496   20.8569 C   0  0  0  0  0  0  0  0  0  0  0  0
  -30.1599  -17.0238   21.2027 C   0  0  0  0  0  0  0  0  0  0  0  0
  -26.3269  -17.3067   24.5002 C   0  0  0  0  0  0  0  0  0  0  0  0
  -27.3167  -24.1061   21.9378 C   0  0  0  0  0  0  0  0  0  0  0  0
  -27.5615  -23.9396   19.5400 C   0  0  0  0  0  0  0  0  0  0  0  0
  -25.7037  -18.5451   24.6473 C   0  0  0  0  0  0  0  0  0  0  0  0
  -27.6530  -20.3252   19.1588 C   0  0  0  0  0  0  0  0  0  0  0  0
  -28.5444  -19.5438   18.4236 C   0  0  0  0  0  0  0  0  0  0  0  0
  -23.9181  -17.8117   23.2006 C   0  0  0  0  0  0  0  0  0  0  0  0
  -30.3954  -20.5172   19.6335 C   0  0  0  0  0  0  0  0  0  0  0  0
  -18.4050  -28.8821   22.9288 C   0  0  0  0  0  0  0  0  0  0  0  0
  -27.6352  -26.1022   20.6146 C   0  0  0  0  0  0  0  0  0  0  0  0
  -28.9606  -28.2818   20.5977 C   0  0  0  0  0  0  0  0  0  0  0  0
  -31.3682  -15.1020   20.3458 C   0  0  0  0  0  0  0  0  0  0  0  0
  -25.7550  -16.3136   23.6920 C   0  0  0  0  0  0  0  0  0  0  0  0
  -30.1570  -15.8007   20.5107 C   0  0  0  0  0  0  0  0  0  0  0  0
  -24.5348  -16.5606   23.0469 C   0  0  0  0  0  0  0  0  0  0  0  0
  -27.3738  -23.3297   20.7803 C   0  0  0  0  0  0  0  0  0  0  0  0
  -24.5006  -18.7988   23.9951 C   0  0  0  0  0  0  0  0  0  0  0  0
  -28.1328  -21.2026   20.1313 C   0  0  0  0  0  0  0  0  0  0  0  0
  -29.9156  -19.6398   18.6609 C   0  0  0  0  0  0  0  0  0  0  0  0
  -29.5039  -21.2985   20.3686 C   0  0  0  0  0  0  0  0  0  0  0  0
  -27.7698  -27.5342   20.5282 C   0  0  0  0  0  0  0  0  0  0  0  0
  -18.6316  -26.6800   22.3552 C   0  0  0  0  0  0  0  0  0  0  0  0
  -20.0022  -26.8077   22.4058 C   0  0  0  0  0  0  0  0  0  0  0  0
  -19.7756  -29.0097   22.9801 C   0  0  0  0  0  0  0  0  0  0  0  0
  -28.5546  -29.5872   20.4648 C   0  0  0  0  0  0  0  0  0  0  0  0
  -30.3128  -27.8362   20.7671 C   0  0  0  0  0  0  0  0  0  0  0  0
  -26.6520  -14.7696   21.0624 C   0  0  0  0  0  0  0  0  0  0  0  0
  -23.9467  -13.0653   21.6096 C   0  0  0  0  0  0  0  0  0  0  0  0
  -20.8487  -12.9260   23.0343 C   0  0  0  0  0  0  0  0  0  0  0  0
  -23.3635  -32.3475   21.5772 C   0  0  0  0  0  0  0  0  0  0  0  0
  -31.4390  -13.8087   19.5730 C   0  0  0  0  0  0  0  0  0  0  0  0
  -26.4263  -14.9736   23.5651 C   0  0  0  0  0  0  0  0  0  0  0  0
  -23.8692  -15.5208   22.1842 C   0  0  0  0  0  0  0  0  0  0  0  0
  -30.0821  -13.1343   19.3885 C   0  0  0  0  0  0  0  0  0  0  0  0
  -25.1315  -32.2781   18.5215 C   0  0  0  0  0  0  0  0  0  0  0  0
  -29.0374  -14.1509   18.9390 C   0  0  0  0  0  0  0  0  0  0  0  0
  -26.0997  -31.1080   18.6722 C   0  0  0  0  0  0  0  0  0  0  0  0
  -21.8076  -31.4238   24.8075 C   0  0  0  0  0  0  0  0  0  0  0  0
  -23.7941  -31.9604   19.1764 C   0  0  0  0  0  0  0  0  0  0  0  0
  -22.2499  -32.4593   23.7836 C   0  0  0  0  0  0  0  0  0  0  0  0
  -24.8892  -30.4604   20.8196 C   0  0  0  0  0  0  0  0  0  0  0  0
  -22.7188  -30.2622   22.9296 C   0  0  0  0  0  0  0  0  0  0  0  0
  -28.8467  -15.2486   19.9926 C   0  0  1  0  0  0  0  0  0  0  0  0
  -26.0154  -14.2164   22.3060 C   0  0  1  0  0  0  0  0  0  0  0  0
  -26.2550  -30.7198   20.1508 C   0  0  1  0  0  0  0  0  0  0  0  0
  -21.6035  -30.1700   23.9641 C   0  0  2  0  0  0  0  0  0  0  0  0
  -17.9749  -25.3866   22.0083 C   0  0  0  0  0  0  0  0  0  0  0  0
  -18.8585  -11.4170   23.2777 C   0  0  0  0  0  0  0  0  0  0  0  0
  -23.1110  -13.7098   18.7467 C   0  0  0  0  0  0  0  0  0  0  0  0
  -20.7795  -13.0225   19.3465 C   0  0  0  0  0  0  0  0  0  0  0  0
  -22.6376  -11.3626   19.4683 C   0  0  0  0  0  0  0  0  0  0  0  0
  -21.1263  -12.8426   25.9796 C   0  0  0  0  0  0  0  0  0  0  0  0
  -22.9209  -24.4775   21.9654 C   0  0  0  0  0  0  0  0  0  0  0  0
  -22.1847  -25.7961   21.7434 C   0  0  0  0  0  0  0  0  0  0  0  0
  -22.8872  -24.0349   23.4229 C   0  0  0  0  0  0  0  0  0  0  0  0
  -23.7530  -22.2667   24.9599 C   0  0  0  0  0  0  0  0  0  0  0  0
  -24.5368  -20.9690   24.9671 C   0  0  0  0  0  0  0  0  0  1  0  0
  -22.4991  -13.1974   21.2021 C   0  0  1  0  0  0  0  0  0  0  0  0
  -20.1787  -11.8632   23.8864 C   0  0  2  0  0  0  0  0  0  0  0  0
  -22.2701  -12.8436   19.7056 C   0  0  0  0  0  0  0  0  0  0  0  0
  -17.8084  -27.7149   22.6155 N   0  0  0  0  0  0  0  0  0  0  0  0
  -26.6884  -28.3008   20.3641 N   0  0  0  0  0  0  0  0  0  0  0  0
  -20.5988  -27.9748   22.7195 N   0  0  0  0  0  0  0  0  0  0  0  0
  -27.1982  -29.5438   20.3295 N   0  0  0  0  0  0  0  0  0  0  0  0
  -24.5677  -14.2285   22.0862 N   0  0  0  0  0  0  0  0  0  0  0  0
  -23.9549  -31.5674   20.5775 N   0  0  0  0  0  0  0  0  0  0  0  0
  -22.9182  -31.7023   22.7307 N   0  0  0  0  0  0  0  0  0  0  0  0
  -29.2292  -30.7565   20.4518 N   0  0  0  0  0  0  0  0  0  0  0  0
  -30.5527  -26.4606   20.8878 N   0  0  0  0  0  0  0  0  0  0  0  0
  -20.8115  -25.6848   22.1217 N   0  0  0  0  0  0  0  0  0  0  0  0
  -28.0336  -14.7630   21.0869 N   0  0  0  0  0  0  0  0  0  0  0  0
  -21.7359  -12.3746   22.1343 N   0  0  0  0  0  0  0  0  0  0  0  0
  -19.9114  -12.3891   25.2549 N   0  3  0  0  0  0  0  0  0  0  0  0
  -23.6606  -22.7770   23.5647 N   0  3  0  0  0  0  0  0  0  0  0  0
  -31.2779  -28.6353   20.8266 O   0  0  0  0  0  0  0  0  0  0  0  0
  -25.9422  -15.1712   20.1477 O   0  0  0  0  0  0  0  0  0  0  0  0
  -24.5038  -11.9688   21.5154 O   0  0  0  0  0  0  0  0  0  0  0  0
  -20.6062  -14.1251   23.1525 O   0  0  0  0  0  0  0  0  0  0  0  0
  -23.2000  -33.5661   21.4288 O   0  0  0  0  0  0  0  0  0  0  0  0
  -27.2464  -21.9770   20.8609 O   0  0  0  0  0  0  0  0  0  0  0  0
  -23.8861  -20.0156   24.1375 O   0  0  0  0  0  0  0  0  0  1  0  0
  -20.3454  -30.2134   23.3028 O   0  0  0  0  0  0  0  0  0  0  0  0
  -30.7714  -18.8883   17.9559 F   0  0  0  0  0  0  0  0  0  0  0  0
  -29.9707  -22.1388   21.3024 F   0  0  0  0  0  0  0  0  0  0  0  0
  1  2  1  0  0  0  0
  1  5  2  0  0  0  0
  2  6  2  0  0  0  0
  3  8  2  0  0  0  0
  3 16  1  0  0  0  0
  4  9  1  0  0  0  0
  4 16  2  0  0  0  0
  5 18  1  0  0  0  0
  6 20  1  0  0  0  0
  7 10  2  0  0  0  0
  7 19  1  0  0  0  0
  8 22  1  0  0  0  0
  9 22  2  0  0  0  0
 10 23  1  0  0  0  0
 11 12  2  0  0  0  0
 11 24  1  0  0  0  0
 12 25  1  0  0  0  0
 13 21  1  0  0  0  0
 13 23  2  0  0  0  0
 14 25  2  0  0  0  0
 14 26  1  0  0  0  0
 15 30  1  0  0  0  0
 15 67  2  0  0  0  0
 16 27  1  0  0  0  0
 17 27  1  0  0  0  0
 17 31  2  0  0  0  0
 17 32  1  0  0  0  0
 18 20  2  0  0  0  0
 18 37  1  0  0  0  0
 19 21  2  0  0  0  0
 19 38  1  0  0  0  0
 20 49  1  0  0  0  0
 21 39  1  0  0  0  0
 22 86  1  0  0  0  0
 23 87  1  0  0  0  0
 24 26  2  0  0  0  0
 24 86  1  0  0  0  0
 25 89  1  0  0  0  0
 26 90  1  0  0  0  0
 27 68  2  0  0  0  0
 28 29  2  0  0  0  0
 28 53  1  0  0  0  0
 28 67  1  0  0  0  0
 29 69  1  0  0  0  0
 29 76  1  0  0  0  0
 30 69  2  0  0  0  0
 30 88  1  0  0  0  0
 31 70  1  0  0  0  0
 31 74  1  0  0  0  0
 32 75  1  0  0  0  0
 32 81  2  0  0  0  0
 33 50  1  0  0  0  0
 33 77  1  0  0  0  0
 33 82  2  0  0  0  0
 34 64  1  0  0  0  0
 34 71  1  0  0  0  0
 34 83  2  0  0  0  0
 35 65  1  0  0  0  0
 35 78  1  0  0  0  0
 35 84  2  0  0  0  0
 36 72  1  0  0  0  0
 36 73  1  0  0  0  0
 36 85  2  0  0  0  0
 37 40  1  0  0  0  0
 38 50  1  0  0  0  0
 39 71  1  0  0  0  0
 40 42  1  0  0  0  0
 41 43  1  0  0  0  0
 41 45  1  0  0  0  0
 42 49  1  0  0  0  0
 43 51  1  0  0  0  0
 44 46  1  0  0  0  0
 44 52  1  0  0  0  0
 45 72  1  0  0  0  0
 46 73  1  0  0  0  0
 47 51  1  0  0  0  0
 47 72  1  0  0  0  0
 48 52  1  0  0  0  0
 48 73  1  0  0  0  0
 49 77  1  0  0  0  0
 50 71  1  0  0  0  0
 51 70  1  0  0  0  0
 52 88  1  0  0  0  0
 54 65  1  0  0  0  0
 55 66  1  0  0  0  0
 56 66  1  0  0  0  0
 57 66  1  0  0  0  0
 58 79  1  0  0  0  0
 59 60  1  0  0  0  0
 59 61  1  0  0  0  0
 60 76  1  0  0  0  0
 61 80  1  0  0  0  0
 62 63  1  0  0  0  0
 62 80  1  0  0  0  0
 63 87  1  0  0  0  0
 64 66  1  0  0  0  0
 64 78  1  0  0  0  0
 65 79  1  0  0  0  0
 68 70  1  0  0  0  0
M  CHG  2  79   1  80   1
M  ISO  4  36 100  63 101  73 100  87 101
M  END
> <Batch ID>
0194

> <Smiles>
CNC(C)C(=O)NC(C(=O)N1Cc2cc([101O:1][101CH2:1]CNCCCNc3nc(OC4CC[100N:0]([100C:0](=O)N5CCCC(n6nc(-c7ccc(Oc8ccc(F)cc8F)cc7)c(C(N)=O)c6N)C5)C4)cnc3C)ccc2CC1C(=O)NC1CCCc2ccccc21)C(C)(C)C

> <Shape>
0.267

> <Color>
0.044

> <Negative vol penalty>
0.000

$$$$

  -OEChem-04052323343D

 87 95  0     1  0  0  0  0  0999 V2000
  -34.7658  -25.3666   30.6475 C   0  0  0  0  0  0  0  0  0  0  0  0
  -33.7666  -25.1186   29.7118 C   0  0  0  0  0  0  0  0  0  0  0  0
  -22.9989   -9.8972   19.9804 C   0  0  0  0  0  0  0  0  0  0  0  0
  -23.7292   -9.9438   22.2829 C   0  0  0  0  0  0  0  0  0  0  0  0
  -36.0943  -25.4676   30.2367 C   0  0  0  0  0  0  0  0  0  0  0  0
  -34.0952  -24.9725   28.3646 C   0  0  0  0  0  0  0  0  0  0  0  0
  -31.7333  -21.0490   26.2031 C   0  0  0  0  0  0  0  0  0  0  0  0
  -29.4940  -20.0079   19.1658 C   0  0  0  0  0  0  0  0  0  0  0  0
  -22.2332   -8.7620   20.2462 C   0  0  0  0  0  0  0  0  0  0  0  0
  -22.9634   -8.8087   22.5488 C   0  0  0  0  0  0  0  0  0  0  0  0
  -30.3962  -21.2265   25.8502 C   0  0  0  0  0  0  0  0  0  0  0  0
  -21.4851   -5.7130   23.7494 C   0  0  0  0  0  0  0  0  0  0  0  0
  -22.0730   -4.6959   24.5014 C   0  0  0  0  0  0  0  0  0  0  0  0
  -28.9658  -20.9895   18.3346 C   0  0  0  0  0  0  0  0  0  0  0  0
  -31.0575  -21.6130   23.5628 C   0  0  0  0  0  0  0  0  0  0  0  0
  -23.7957   -4.4523   22.8250 C   0  0  0  0  0  0  0  0  0  0  0  0
  -23.7470  -10.4881   20.9987 C   0  0  0  0  0  0  0  0  0  0  0  0
  -24.1314  -13.0041   20.8267 C   0  0  0  0  0  0  0  0  0  0  0  0
  -36.4406  -25.3130   28.8851 C   0  0  0  0  0  0  0  0  0  0  0  0
  -32.7451  -21.1631   25.2389 C   0  0  0  0  0  0  0  0  0  0  0  0
  -35.4295  -25.0728   27.9352 C   0  0  0  0  0  0  0  0  0  0  0  0
  -32.4064  -21.4340   23.9055 C   0  0  0  0  0  0  0  0  0  0  0  0
  -28.6470  -19.2660   19.9816 C   0  0  0  0  0  0  0  0  0  0  0  0
  -22.2154   -8.2178   21.5304 C   0  0  0  0  0  0  0  0  0  0  0  0
  -30.0583  -21.5114   24.5305 C   0  0  0  0  0  0  0  0  0  0  0  0
  -22.0525   -6.0997   22.5352 C   0  0  0  0  0  0  0  0  0  0  0  0
  -23.2283   -4.0655   24.0392 C   0  0  0  0  0  0  0  0  0  0  0  0
  -23.2078   -5.4694   22.0730 C   0  0  0  0  0  0  0  0  0  0  0  0
  -24.5386  -11.6603   20.7246 C   0  0  0  0  0  0  0  0  0  0  0  0
  -27.2903  -19.5422   19.9296 C   0  0  0  0  0  0  0  0  0  0  0  0
  -27.5947  -21.1884   18.3562 C   0  0  0  0  0  0  0  0  0  0  0  0
  -25.2403  -13.7276   20.4613 C   0  0  0  0  0  0  0  0  0  0  0  0
  -22.8642  -13.5495   21.2171 C   0  0  0  0  0  0  0  0  0  0  0  0
  -35.2458  -23.0818   24.8280 C   0  0  0  0  0  0  0  0  0  0  0  0
  -35.8874  -21.0741   22.3622 C   0  0  0  0  0  0  0  0  0  0  0  0
  -34.7183  -18.8205   20.0815 C   0  0  0  0  0  0  0  0  0  0  0  0
  -30.7370  -14.6627   20.6995 C   0  0  0  0  0  0  0  0  0  0  0  0
  -37.8846  -25.4776   28.4823 C   0  0  0  0  0  0  0  0  0  0  0  0
  -34.1804  -20.9424   25.6306 C   0  0  0  0  0  0  0  0  0  0  0  0
  -33.4534  -21.5468   22.8286 C   0  0  0  0  0  0  0  0  0  0  0  0
  -38.1934  -24.9378   27.0881 C   0  0  0  0  0  0  0  0  0  0  0  0
  -29.5916  -12.2433   18.3519 C   0  0  0  0  0  0  0  0  0  0  0  0
  -37.1402  -25.4062   26.0890 C   0  0  0  0  0  0  0  0  0  0  0  0
  -28.1441  -11.9825   18.7722 C   0  0  0  0  0  0  0  0  0  0  0  0
  -30.4966  -12.4766   19.5596 C   0  0  0  0  0  0  0  0  0  0  0  0
  -28.5893  -13.2691   20.9041 C   0  0  0  0  0  0  0  0  0  0  0  0
  -35.7492  -24.8838   26.4681 C   0  0  1  0  0  0  0  0  0  0  0  0
  -35.1693  -21.5899   24.6660 C   0  0  1  0  0  0  0  0  0  0  0  0
  -27.6277  -13.0836   19.7178 C   0  0  2  0  0  0  0  0  0  0  0  0
  -34.7977  -17.1048   18.2519 C   0  0  0  0  0  0  0  0  0  0  0  0
  -36.0181  -23.5320   20.5589 C   0  0  0  0  0  0  0  0  0  0  0  0
  -35.8209  -22.0069   18.5833 C   0  0  0  0  0  0  0  0  0  0  0  0
  -37.7820  -21.8161   20.1131 C   0  0  0  0  0  0  0  0  0  0  0  0
  -35.0498  -16.6046   22.0152 C   0  0  0  0  0  0  0  0  0  0  0  0
  -25.6383  -22.3133   17.6060 C   0  0  0  0  0  0  0  0  0  0  0  0
  -26.3256  -18.7758   20.7875 C   0  0  0  0  0  0  0  0  0  0  0  0
  -30.5693  -17.9666   20.8993 C   0  0  0  0  0  0  0  0  0  0  0  0
  -30.8219  -16.8393   21.8887 C   0  0  0  0  0  0  0  0  0  0  0  0
  -25.8174  -19.5582   21.9942 C   0  0  0  0  0  0  0  0  0  0  0  0
  -26.5562  -20.7155   24.0807 C   0  0  0  0  0  0  0  0  0  0  0  0
  -27.7793  -20.9687   24.9398 C   0  0  0  0  0  0  0  0  0  1  0  0
  -35.5141  -21.0229   20.9003 C   0  0  1  0  0  0  0  0  0  0  0  0
  -35.2230  -17.4489   19.6709 C   0  0  2  0  0  0  0  0  0  0  0  0
  -36.2640  -22.0943   20.0593 C   0  0  0  0  0  0  0  0  0  0  0  0
  -25.8070  -11.5348   20.3254 N   0  0  0  0  0  0  0  0  0  0  0  0
  -26.7403  -20.4877   19.1351 N   0  0  0  0  0  0  0  0  0  0  0  0
  -26.2064  -12.8090   20.1734 N   0  0  0  0  0  0  0  0  0  0  0  0
  -34.8432  -21.3289   23.2626 N   0  0  0  0  0  0  0  0  0  0  0  0
  -29.9515  -13.5335   20.4149 N   0  0  0  0  0  0  0  0  0  0  0  0
  -25.4733  -15.0535   20.3613 N   0  0  0  0  0  0  0  0  0  0  0  0
  -21.8334  -12.6645   21.5612 N   0  0  0  0  0  0  0  0  0  0  0  0
  -29.1716  -18.2713   20.8262 N   0  0  0  0  0  0  0  0  0  0  0  0
  -35.6131  -23.4920   26.0953 N   0  0  0  0  0  0  0  0  0  0  0  0
  -35.7502  -19.6501   20.4666 N   0  0  0  0  0  0  0  0  0  0  0  0
  -30.1423  -15.6198   21.5125 N   0  0  0  0  0  0  0  0  0  0  0  0
  -34.6875  -16.4038   20.5885 N   0  3  0  0  0  0  0  0  0  0  0  0
  -26.9450  -19.8992   22.9031 N   0  3  0  0  0  0  0  0  0  0  0  0
  -22.6474  -14.7847   21.2438 O   0  0  0  0  0  0  0  0  0  0  0  0
  -34.9919  -23.8069   23.8733 O   0  0  0  0  0  0  0  0  0  0  0  0
  -37.0608  -20.8876   22.6936 O   0  0  0  0  0  0  0  0  0  0  0  0
  -33.5282  -19.1265   20.0592 O   0  0  0  0  0  0  0  0  0  0  0  0
  -31.8814  -14.8096   20.2572 O   0  0  0  0  0  0  0  0  0  0  0  0
  -21.4681   -7.1103   21.7902 O   0  0  0  0  0  0  0  0  0  0  0  0
  -28.7541  -21.6858   24.1835 O   0  0  0  0  0  0  0  0  0  1  0  0
  -27.0501  -22.1497   17.5454 O   0  0  0  0  0  0  0  0  0  0  0  0
  -23.7936   -3.0898   24.7621 F   0  0  0  0  0  0  0  0  0  0  0  0
  -23.7581   -5.8374   20.9079 F   0  0  0  0  0  0  0  0  0  0  0  0
  1  2  1  0  0  0  0
  1  5  2  0  0  0  0
  2  6  2  0  0  0  0
  3  9  2  0  0  0  0
  3 17  1  0  0  0  0
  4 10  1  0  0  0  0
  4 17  2  0  0  0  0
  5 19  1  0  0  0  0
  6 21  1  0  0  0  0
  7 11  2  0  0  0  0
  7 20  1  0  0  0  0
  8 14  2  0  0  0  0
  8 23  1  0  0  0  0
  9 24  1  0  0  0  0
 10 24  2  0  0  0  0
 11 25  1  0  0  0  0
 12 13  2  0  0  0  0
 12 26  1  0  0  0  0
 13 27  1  0  0  0  0
 14 31  1  0  0  0  0
 15 22  1  0  0  0  0
 15 25  2  0  0  0  0
 16 27  2  0  0  0  0
 16 28  1  0  0  0  0
 17 29  1  0  0  0  0
 18 29  1  0  0  0  0
 18 32  2  0  0  0  0
 18 33  1  0  0  0  0
 19 21  2  0  0  0  0
 19 38  1  0  0  0  0
 20 22  2  0  0  0  0
 20 39  1  0  0  0  0
 21 47  1  0  0  0  0
 22 40  1  0  0  0  0
 23 30  2  0  0  0  0
 23 72  1  0  0  0  0
 24 83  1  0  0  0  0
 25 84  1  0  0  0  0
 26 28  2  0  0  0  0
 26 83  1  0  0  0  0
 27 86  1  0  0  0  0
 28 87  1  0  0  0  0
 29 65  2  0  0  0  0
 30 56  1  0  0  0  0
 30 66  1  0  0  0  0
 31 66  2  0  0  0  0
 31 85  1  0  0  0  0
 32 67  1  0  0  0  0
 32 70  1  0  0  0  0
 33 71  1  0  0  0  0
 33 78  2  0  0  0  0
 34 48  1  0  0  0  0
 34 73  1  0  0  0  0
 34 79  2  0  0  0  0
 35 62  1  0  0  0  0
 35 68  1  0  0  0  0
 35 80  2  0  0  0  0
 36 63  1  0  0  0  0
 36 74  1  0  0  0  0
 36 81  2  0  0  0  0
 37 69  1  0  0  0  0
 37 75  1  0  0  0  0
 37 82  2  0  0  0  0
 38 41  1  0  0  0  0
 39 48  1  0  0  0  0
 40 68  1  0  0  0  0
 41 43  1  0  0  0  0
 42 44  1  0  0  0  0
 42 45  1  0  0  0  0
 43 47  1  0  0  0  0
 44 49  1  0  0  0  0
 45 69  1  0  0  0  0
 46 49  1  0  0  0  0
 46 69  1  0  0  0  0
 47 73  1  0  0  0  0
 48 68  1  0  0  0  0
 49 67  1  0  0  0  0
 50 63  1  0  0  0  0
 51 64  1  0  0  0  0
 52 64  1  0  0  0  0
 53 64  1  0  0  0  0
 54 76  1  0  0  0  0
 55 85  1  0  0  0  0
 56 59  1  0  0  0  0
 57 58  1  0  0  0  0
 57 72  1  0  0  0  0
 58 75  1  0  0  0  0
 59 77  1  0  0  0  0
 60 61  1  0  0  0  0
 60 77  1  0  0  0  0
 61 84  1  0  0  0  0
 62 64  1  0  0  0  0
 62 74  1  0  0  0  0
 63 76  1  0  0  0  0
 65 67  1  0  0  0  0
M  CHG  2  76   1  77   1
M  ISO  4  37 100  61 101  75 100  84 101
M  END
> <Batch ID>
0194

> <Smiles>
CNC(C)C(=O)NC(C(=O)N1Cc2cc([101O:1][101CH2:1]CNCCc3nc(OC)ccc3NCC[100NH:0][100C:0](=O)N3CCCC(n4nc(-c5ccc(Oc6ccc(F)cc6F)cc5)c(C(N)=O)c4N)C3)ccc2CC1C(=O)NC1CCCc2ccccc21)C(C)(C)C

> <Shape>
0.198

> <Color>
0.186

> <Negative vol penalty>
0.000

$$$$

  -OEChem-04052323343D

 83 92  0     1  0  0  0  0  0999 V2000
  -16.5379  -29.8737   23.1972 C   0  0  0  0  0  0  0  0  0  0  0  0
  -17.4761  -30.0044   22.1783 C   0  0  0  0  0  0  0  0  0  0  0  0
  -26.0212  -12.9547   20.0508 C   0  0  0  0  0  0  0  0  0  0  0  0
  -24.2581  -14.3907   20.8673 C   0  0  0  0  0  0  0  0  0  0  0  0
  -16.9575  -29.6024   24.4989 C   0  0  0  0  0  0  0  0  0  0  0  0
  -18.8345  -29.8650   22.4607 C   0  0  0  0  0  0  0  0  0  0  0  0
  -24.9374  -27.5355   19.5206 C   0  0  0  0  0  0  0  0  0  0  0  0
  -25.4939  -11.8909   20.7829 C   0  0  0  0  0  0  0  0  0  0  0  0
  -23.7308  -13.3269   21.5994 C   0  0  0  0  0  0  0  0  0  0  0  0
  -26.2427  -27.9573   19.2717 C   0  0  0  0  0  0  0  0  0  0  0  0
  -24.4044   -8.7045   22.1520 C   0  0  0  0  0  0  0  0  0  0  0  0
  -24.3004   -7.4676   21.5156 C   0  0  0  0  0  0  0  0  0  0  0  0
  -26.8460  -27.4107   21.5425 C   0  0  0  0  0  0  0  0  0  0  0  0
  -22.8454   -8.4454   19.8531 C   0  0  0  0  0  0  0  0  0  0  0  0
  -33.1808  -25.4574   21.5362 C   0  0  0  0  0  0  0  0  0  0  0  0
  -32.9316  -27.5441   21.1987 C   0  0  0  0  0  0  0  0  0  0  0  0
  -25.4033  -14.2046   20.0930 C   0  0  0  0  0  0  0  0  0  0  0  0
  -25.6302  -15.6663   18.0147 C   0  0  0  0  0  0  0  0  0  0  0  0
  -18.3211  -29.4501   24.7956 C   0  0  0  0  0  0  0  0  0  0  0  0
  -24.5733  -27.0575   20.7877 C   0  0  0  0  0  0  0  0  0  0  0  0
  -19.2727  -29.5928   23.7678 C   0  0  0  0  0  0  0  0  0  0  0  0
  -25.5360  -26.9810   21.8042 C   0  0  0  0  0  0  0  0  0  0  0  0
  -24.3487  -12.0770   21.5572 C   0  0  0  0  0  0  0  0  0  0  0  0
  -27.1965  -27.8977   20.2835 C   0  0  0  0  0  0  0  0  0  0  0  0
  -23.7288   -9.8118   21.6390 C   0  0  0  0  0  0  0  0  0  0  0  0
  -23.5209   -7.3381   20.3661 C   0  0  0  0  0  0  0  0  0  0  0  0
  -22.9493   -9.6822   20.4895 C   0  0  0  0  0  0  0  0  0  0  0  0
  -25.9479  -15.3039   19.3374 C   0  0  0  0  0  0  0  0  0  0  0  0
  -32.0027  -25.5786   20.8378 C   0  0  0  0  0  0  0  0  0  0  0  0
  -26.4106  -16.7684   17.7638 C   0  0  0  0  0  0  0  0  0  0  0  0
  -24.7118  -15.0609   17.0950 C   0  0  0  0  0  0  0  0  0  0  0  0
  -22.5128  -27.9790   23.0257 C   0  0  0  0  0  0  0  0  0  0  0  0
  -23.4161  -25.2068   24.4474 C   0  0  0  0  0  0  0  0  0  0  0  0
  -25.7793  -22.7709   24.8065 C   0  0  0  0  0  0  0  0  0  0  0  0
  -28.5176  -21.5321   19.0723 C   0  0  0  0  0  0  0  0  0  0  0  0
  -18.7296  -29.2042   26.2264 C   0  0  0  0  0  0  0  0  0  0  0  0
  -23.1677  -26.5813   21.0324 C   0  0  0  0  0  0  0  0  0  0  0  0
  -25.2011  -26.4568   23.1759 C   0  0  0  0  0  0  0  0  0  0  0  0
  -20.1629  -28.6996   26.3725 C   0  0  0  0  0  0  0  0  0  0  0  0
  -30.2445  -18.7652   20.3767 C   0  0  0  0  0  0  0  0  0  0  0  0
  -21.1120  -29.5327   25.5169 C   0  0  0  0  0  0  0  0  0  0  0  0
  -29.2487  -17.6353   20.1166 C   0  0  0  0  0  0  0  0  0  0  0  0
  -29.5498  -20.0448   20.8451 C   0  0  0  0  0  0  0  0  0  0  0  0
  -31.2310  -24.0596   19.0419 C   0  0  0  0  0  0  0  0  0  0  0  0
  -30.3850  -23.8118   21.3805 C   0  0  0  0  0  0  0  0  0  0  0  0
  -29.9125  -23.4910   18.5242 C   0  0  0  0  0  0  0  0  0  0  0  0
  -29.0782  -23.2602   20.8214 C   0  0  0  0  0  0  0  0  0  0  0  0
  -27.4700  -19.3730   19.6871 C   0  0  0  0  0  0  0  0  0  0  0  0
  -20.7536  -29.4239   24.0299 C   0  0  1  0  0  0  0  0  0  0  0  0
  -22.7808  -26.5941   22.5080 C   0  0  1  0  0  0  0  0  0  0  0  0
  -28.1335  -18.0915   19.1590 C   0  0  2  0  0  0  0  0  0  0  0  0
  -26.8043  -20.6186   25.5902 C   0  0  0  0  0  0  0  0  0  0  0  0
  -24.0522  -26.8405   26.9446 C   0  0  0  0  0  0  0  0  0  0  0  0
  -25.3731  -24.8923   27.7979 C   0  0  0  0  0  0  0  0  0  0  0  0
  -22.9241  -24.6531   27.3884 C   0  0  0  0  0  0  0  0  0  0  0  0
  -24.6635  -21.2696   22.5130 C   0  0  0  0  0  0  0  0  0  0  0  0
  -30.7763  -27.5850   19.9365 C   0  0  0  0  0  0  0  0  0  0  0  0
  -29.5107  -27.6713   20.7827 C   0  0  0  0  0  0  0  0  0  1  0  0
  -24.5010  -24.8071   25.4181 C   0  0  1  0  0  0  0  0  0  0  0  0
  -25.6744  -21.2565   24.7970 C   0  0  2  0  0  0  0  0  0  0  0  0
  -24.2188  -25.3100   26.8621 C   0  0  0  0  0  0  0  0  0  0  0  0
  -33.7540  -26.6845   21.7579 N   0  0  0  0  0  0  0  0  0  0  0  0
  -26.8591  -16.1103   19.8883 N   0  0  0  0  0  0  0  0  0  0  0  0
  -31.8561  -26.9211   20.6292 N   0  0  0  0  0  0  0  0  0  0  0  0
  -27.1208  -16.9903   18.9068 N   0  0  0  0  0  0  0  0  0  0  0  0
  -31.0683  -24.6415   20.3786 N   0  0  0  0  0  0  0  0  0  0  0  0
  -23.8117  -26.0090   23.3677 N   0  0  0  0  0  0  0  0  0  0  0  0
  -28.4686  -20.4177   19.9231 N   0  0  0  0  0  0  0  0  0  0  0  0
  -29.2690  -22.6332   19.5119 N   0  0  0  0  0  0  0  0  0  0  0  0
  -26.5517  -17.5596   16.6791 N   0  0  0  0  0  0  0  0  0  0  0  0
  -23.9904  -13.9351   17.5150 N   0  0  0  0  0  0  0  0  0  0  0  0
  -21.2240  -28.1674   23.4872 N   0  0  0  0  0  0  0  0  0  0  0  0
  -24.6363  -23.3589   25.3055 N   0  0  0  0  0  0  0  0  0  0  0  0
  -25.7325  -20.7420   23.3995 N   0  3  0  0  0  0  0  0  0  0  0  0
  -24.5483  -15.4953   15.9297 O   0  0  0  0  0  0  0  0  0  0  0  0
  -23.4093  -28.8142   23.0092 O   0  0  0  0  0  0  0  0  0  0  0  0
  -22.2616  -24.8154   24.6360 O   0  0  0  0  0  0  0  0  0  0  0  0
  -26.7769  -23.3720   24.4142 O   0  0  0  0  0  0  0  0  0  0  0  0
  -27.9291  -21.5435   17.9840 O   0  0  0  0  0  0  0  0  0  0  0  0
  -23.8337  -11.0392   22.2715 O   0  0  0  0  0  0  0  0  0  0  0  0
  -28.4801  -28.3122   20.0417 O   0  0  0  0  0  0  0  0  0  1  0  0
  -23.4224   -6.1506   19.7542 F   0  0  0  0  0  0  0  0  0  0  0  0
  -22.2990  -10.7427   19.9913 F   0  0  0  0  0  0  0  0  0  0  0  0
  1  2  1  0  0  0  0
  1  5  2  0  0  0  0
  2  6  2  0  0  0  0
  3  8  2  0  0  0  0
  3 17  1  0  0  0  0
  4  9  1  0  0  0  0
  4 17  2  0  0  0  0
  5 19  1  0  0  0  0
  6 21  1  0  0  0  0
  7 10  2  0  0  0  0
  7 20  1  0  0  0  0
  8 23  1  0  0  0  0
  9 23  2  0  0  0  0
 10 24  1  0  0  0  0
 11 12  2  0  0  0  0
 11 25  1  0  0  0  0
 12 26  1  0  0  0  0
 13 22  1  0  0  0  0
 13 24  2  0  0  0  0
 14 26  2  0  0  0  0
 14 27  1  0  0  0  0
 15 29  2  0  0  0  0
 15 62  1  0  0  0  0
 16 62  2  0  0  0  0
 16 64  1  0  0  0  0
 17 28  1  0  0  0  0
 18 28  1  0  0  0  0
 18 30  2  0  0  0  0
 18 31  1  0  0  0  0
 19 21  2  0  0  0  0
 19 36  1  0  0  0  0
 20 22  2  0  0  0  0
 20 37  1  0  0  0  0
 21 49  1  0  0  0  0
 22 38  1  0  0  0  0
 23 80  1  0  0  0  0
 24 81  1  0  0  0  0
 25 27  2  0  0  0  0
 25 80  1  0  0  0  0
 26 82  1  0  0  0  0
 27 83  1  0  0  0  0
 28 63  2  0  0  0  0
 29 64  1  0  0  0  0
 29 66  1  0  0  0  0
 30 65  1  0  0  0  0
 30 70  1  0  0  0  0
 31 71  1  0  0  0  0
 31 75  2  0  0  0  0
 32 50  1  0  0  0  0
 32 72  1  0  0  0  0
 32 76  2  0  0  0  0
 33 59  1  0  0  0  0
 33 67  1  0  0  0  0
 33 77  2  0  0  0  0
 34 60  1  0  0  0  0
 34 73  1  0  0  0  0
 34 78  2  0  0  0  0
 35 68  1  0  0  0  0
 35 69  1  0  0  0  0
 35 79  2  0  0  0  0
 36 39  1  0  0  0  0
 37 50  1  0  0  0  0
 38 67  1  0  0  0  0
 39 41  1  0  0  0  0
 40 42  1  0  0  0  0
 40 43  1  0  0  0  0
 41 49  1  0  0  0  0
 42 51  1  0  0  0  0
 43 68  1  0  0  0  0
 44 46  1  0  0  0  0
 44 66  1  0  0  0  0
 45 47  1  0  0  0  0
 45 66  1  0  0  0  0
 46 69  1  0  0  0  0
 47 69  1  0  0  0  0
 48 51  1  0  0  0  0
 48 68  1  0  0  0  0
 49 72  1  0  0  0  0
 50 67  1  0  0  0  0
 51 65  1  0  0  0  0
 52 60  1  0  0  0  0
 53 61  1  0  0  0  0
 54 61  1  0  0  0  0
 55 61  1  0  0  0  0
 56 74  1  0  0  0  0
 57 58  1  0  0  0  0
 57 64  1  0  0  0  0
 58 81  1  0  0  0  0
 59 61  1  0  0  0  0
 59 73  1  0  0  0  0
 60 74  1  0  0  0  0
 63 65  1  0  0  0  0
M  CHG  1  74   1
M  ISO  4  35 100  58 101  69 100  81 101
M  END
> <Batch ID>
0194

> <Smiles>
CNC(C)C(=O)NC(C(=O)N1Cc2cc([101O:1][101CH2:1]Cn3cncc3N3CC[100N:0]([100C:0](=O)N4CCCC(n5nc(-c6ccc(Oc7ccc(F)cc7F)cc6)c(C(N)=O)c5N)C4)CC3)ccc2CC1C(=O)NC1CCCc2ccccc21)C(C)(C)C

> <Shape>
0.236

> <Color>
0.070

> <Negative vol penalty>
0.000

$$$$

  -OEChem-04052323343D

 85 94  0     1  0  0  0  0  0999 V2000
  -18.6025  -25.0442   22.5235 C   0  0  0  0  0  0  0  0  0  0  0  0
  -19.9594  -24.8355   22.2987 C   0  0  0  0  0  0  0  0  0  0  0  0
  -24.1536  -15.6364   21.5088 C   0  0  0  0  0  0  0  0  0  0  0  0
  -25.6256  -16.4738   19.7857 C   0  0  0  0  0  0  0  0  0  0  0  0
  -18.0556  -26.3149   22.3498 C   0  0  0  0  0  0  0  0  0  0  0  0
  -20.7702  -25.8973   21.8989 C   0  0  0  0  0  0  0  0  0  0  0  0
  -26.6310  -26.8271   23.4128 C   0  0  0  0  0  0  0  0  0  0  0  0
  -24.6445  -14.3473   21.3017 C   0  0  0  0  0  0  0  0  0  0  0  0
  -26.1165  -15.1847   19.5786 C   0  0  0  0  0  0  0  0  0  0  0  0
  -27.8256  -26.5652   22.7434 C   0  0  0  0  0  0  0  0  0  0  0  0
  -28.3141  -13.0898   21.0627 C   0  0  0  0  0  0  0  0  0  0  0  0
  -29.6951  -12.9354   20.9431 C   0  0  0  0  0  0  0  0  0  0  0  0
  -27.8634  -28.8375   21.9343 C   0  0  0  0  0  0  0  0  0  0  0  0
  -29.4008  -12.0198   18.7268 C   0  0  0  0  0  0  0  0  0  0  0  0
  -29.3462  -25.9504   17.5232 C   0  0  0  0  0  0  0  0  0  0  0  0
  -24.6441  -16.6996   20.7508 C   0  0  0  0  0  0  0  0  0  0  0  0
  -24.6348  -18.9976   21.8585 C   0  0  0  0  0  0  0  0  0  0  0  0
  -18.8619  -27.3949   21.9570 C   0  0  0  0  0  0  0  0  0  0  0  0
  -26.0369  -28.0952   23.3390 C   0  0  0  0  0  0  0  0  0  0  0  0
  -20.2333  -27.1834   21.7185 C   0  0  0  0  0  0  0  0  0  0  0  0
  -26.6626  -29.1136   22.6058 C   0  0  0  0  0  0  0  0  0  0  0  0
  -25.6259  -14.1215   20.3367 C   0  0  0  0  0  0  0  0  0  0  0  0
  -28.4405  -27.5696   22.0017 C   0  0  0  0  0  0  0  0  0  0  0  0
  -27.4763  -12.7091   20.0144 C   0  0  0  0  0  0  0  0  0  0  0  0
  -30.2385  -12.4004   19.7751 C   0  0  0  0  0  0  0  0  0  0  0  0
  -28.0196  -12.1741   18.8464 C   0  0  0  0  0  0  0  0  0  0  0  0
  -24.1370  -18.0314   20.9638 C   0  0  0  0  0  0  0  0  0  0  0  0
  -30.5611  -26.1540   18.1453 C   0  0  0  0  0  0  0  0  0  0  0  0
  -28.2308  -26.2399   18.2823 C   0  0  0  0  0  0  0  0  0  0  0  0
  -23.8129  -20.0839   21.6830 C   0  0  0  0  0  0  0  0  0  0  0  0
  -29.5278  -26.8515   20.0460 C   0  0  0  0  0  0  0  0  0  1  0  0
  -25.7415  -18.9201   22.7668 C   0  0  0  0  0  0  0  0  0  0  0  0
  -23.2739  -29.2173   22.2387 C   0  0  0  0  0  0  0  0  0  0  0  0
  -24.3271  -31.9928   23.5461 C   0  0  0  0  0  0  0  0  0  0  0  0
  -26.9694  -33.8893   24.5798 C   0  0  0  0  0  0  0  0  0  0  0  0
  -20.9189  -22.9336   17.7257 C   0  0  0  0  0  0  0  0  0  0  0  0
  -18.2165  -28.7400   21.7363 C   0  0  0  0  0  0  0  0  0  0  0  0
  -24.7621  -28.3693   24.0887 C   0  0  0  0  0  0  0  0  0  0  0  0
  -26.0762  -30.4977   22.5113 C   0  0  0  0  0  0  0  0  0  0  0  0
  -19.2160  -29.8922   21.6739 C   0  0  0  0  0  0  0  0  0  0  0  0
  -19.2734  -20.7774   19.8699 C   0  0  0  0  0  0  0  0  0  0  0  0
  -20.3894  -29.5325   20.7682 C   0  0  0  0  0  0  0  0  0  0  0  0
  -20.3983  -19.9354   20.4715 C   0  0  0  0  0  0  0  0  0  0  0  0
  -23.8731  -25.1027   18.2680 C   0  0  0  0  0  0  0  0  0  0  0  0
  -24.6189  -22.9689   17.1547 C   0  0  0  0  0  0  0  0  0  0  0  0
  -19.5024  -21.0106   18.3809 C   0  0  0  0  0  0  0  0  0  0  0  0
  -22.4603  -24.8604   17.7442 C   0  0  0  0  0  0  0  0  0  0  0  0
  -23.1944  -22.7698   16.6476 C   0  0  0  0  0  0  0  0  0  0  0  0
  -21.9518  -20.8158   18.6604 C   0  0  0  0  0  0  0  0  0  0  0  0
  -21.1500  -28.3153   21.3080 C   0  0  1  0  0  0  0  0  0  0  0  0
  -23.9786  -29.5500   23.5234 C   0  0  1  0  0  0  0  0  0  0  0  0
  -24.9318  -24.4565   17.3651 C   0  0  0  0  0  0  0  0  0  0  0  0
  -21.7744  -20.5552   20.1698 C   0  0  2  0  0  0  0  0  0  0  0  0
  -31.8240  -25.8681   17.4043 C   0  0  0  0  0  0  0  0  0  0  0  0
  -27.5191  -36.1288   25.5698 C   0  0  0  0  0  0  0  0  0  0  0  0
  -23.8472  -33.3067   20.8344 C   0  0  0  0  0  0  0  0  0  0  0  0
  -25.2687  -35.2242   21.5899 C   0  0  0  0  0  0  0  0  0  0  0  0
  -23.1543  -34.6885   22.8003 C   0  0  0  0  0  0  0  0  0  0  0  0
  -28.1786  -32.6590   26.9846 C   0  0  0  0  0  0  0  0  0  0  0  0
  -26.8582  -26.0499   17.6878 C   0  0  0  0  0  0  0  0  0  0  0  0
  -26.3304  -24.6402   17.9492 C   0  0  0  0  0  0  0  0  0  0  0  0
  -25.1513  -33.1596   23.0578 C   0  0  1  0  0  0  0  0  0  0  0  0
  -27.2104  -34.6683   25.8603 C   0  0  2  0  0  0  0  0  0  0  0  0
  -24.3656  -34.0682   22.0706 C   0  0  0  0  0  0  0  0  0  0  0  0
  -23.0804  -18.4655   20.2716 N   0  0  0  0  0  0  0  0  0  0  0  0
  -30.6892  -26.6053   19.4103 N   0  0  0  0  0  0  0  0  0  0  0  0
  -28.2851  -26.6939   19.5516 N   0  0  0  0  0  0  0  0  0  0  0  0
  -22.9076  -19.7165   20.7313 N   0  0  0  0  0  0  0  0  0  0  0  0
  -24.8253  -30.7146   23.2568 N   0  0  0  0  0  0  0  0  0  0  0  0
  -20.8207  -21.5954   18.1358 N   0  0  0  0  0  0  0  0  0  0  0  0
  -22.2123  -23.4382   17.5117 N   0  0  0  0  0  0  0  0  0  0  0  0
  -23.7832  -21.3079   22.2516 N   0  0  0  0  0  0  0  0  0  0  0  0
  -26.4799  -17.7301   22.8203 N   0  0  0  0  0  0  0  0  0  0  0  0
  -22.0037  -28.7012   22.4110 N   0  0  0  0  0  0  0  0  0  0  0  0
  -25.6309  -33.8483   24.2511 N   0  0  0  0  0  0  0  0  0  0  0  0
  -28.3576  -34.0861   26.6126 N   0  3  0  0  0  0  0  0  0  0  0  0
  -26.0557  -19.8721   23.5209 O   0  0  0  0  0  0  0  0  0  0  0  0
  -23.8401  -29.4156   21.1702 O   0  0  0  0  0  0  0  0  0  0  0  0
  -23.2836  -32.2077   24.1678 O   0  0  0  0  0  0  0  0  0  0  0  0
  -27.8781  -33.3723   23.9336 O   0  0  0  0  0  0  0  0  0  0  0  0
  -19.9146  -23.6381   17.5644 O   0  0  0  0  0  0  0  0  0  0  0  0
  -26.1054  -12.8638   20.1345 O   0  0  0  0  0  0  0  0  0  0  0  0
  -29.6210  -27.3132   21.3385 O   0  0  0  0  0  0  0  0  0  1  0  0
  -31.5649  -12.2536   19.6597 F   0  0  0  0  0  0  0  0  0  0  0  0
  -27.2199  -11.8077   17.8355 F   0  0  0  0  0  0  0  0  0  0  0  0
  1  2  1  0  0  0  0
  1  5  2  0  0  0  0
  2  6  2  0  0  0  0
  3  8  2  0  0  0  0
  3 16  1  0  0  0  0
  4  9  1  0  0  0  0
  4 16  2  0  0  0  0
  5 18  1  0  0  0  0
  6 20  1  0  0  0  0
  7 10  2  0  0  0  0
  7 19  1  0  0  0  0
  8 22  1  0  0  0  0
  9 22  2  0  0  0  0
 10 23  1  0  0  0  0
 11 12  2  0  0  0  0
 11 24  1  0  0  0  0
 12 25  1  0  0  0  0
 13 21  1  0  0  0  0
 13 23  2  0  0  0  0
 14 25  2  0  0  0  0
 14 26  1  0  0  0  0
 15 28  1  0  0  0  0
 15 29  2  0  0  0  0
 16 27  1  0  0  0  0
 17 27  1  0  0  0  0
 17 30  2  0  0  0  0
 17 32  1  0  0  0  0
 18 20  2  0  0  0  0
 18 37  1  0  0  0  0
 19 21  2  0  0  0  0
 19 38  1  0  0  0  0
 20 50  1  0  0  0  0
 21 39  1  0  0  0  0
 22 82  1  0  0  0  0
 23 83  1  0  0  0  0
 24 26  2  0  0  0  0
 24 82  1  0  0  0  0
 25 84  1  0  0  0  0
 26 85  1  0  0  0  0
 27 65  2  0  0  0  0
 28 54  1  0  0  0  0
 28 66  2  0  0  0  0
 29 60  1  0  0  0  0
 29 67  1  0  0  0  0
 30 68  1  0  0  0  0
 30 72  1  0  0  0  0
 31 66  1  0  0  0  0
 31 67  2  0  0  0  0
 31 83  1  0  0  0  0
 32 73  1  0  0  0  0
 32 77  2  0  0  0  0
 33 51  1  0  0  0  0
 33 74  1  0  0  0  0
 33 78  2  0  0  0  0
 34 62  1  0  0  0  0
 34 69  1  0  0  0  0
 34 79  2  0  0  0  0
 35 63  1  0  0  0  0
 35 75  1  0  0  0  0
 35 80  2  0  0  0  0
 36 70  1  0  0  0  0
 36 71  1  0  0  0  0
 36 81  2  0  0  0  0
 37 40  1  0  0  0  0
 38 51  1  0  0  0  0
 39 69  1  0  0  0  0
 40 42  1  0  0  0  0
 41 43  1  0  0  0  0
 41 46  1  0  0  0  0
 42 50  1  0  0  0  0
 43 53  1  0  0  0  0
 44 47  1  0  0  0  0
 44 52  1  0  0  0  0
 45 48  1  0  0  0  0
 45 52  1  0  0  0  0
 46 70  1  0  0  0  0
 47 71  1  0  0  0  0
 48 71  1  0  0  0  0
 49 53  1  0  0  0  0
 49 70  1  0  0  0  0
 50 74  1  0  0  0  0
 51 69  1  0  0  0  0
 52 61  1  0  0  0  0
 53 68  1  0  0  0  0
 55 63  1  0  0  0  0
 56 64  1  0  0  0  0
 57 64  1  0  0  0  0
 58 64  1  0  0  0  0
 59 76  1  0  0  0  0
 60 61  1  0  0  0  0
 62 64  1  0  0  0  0
 62 75  1  0  0  0  0
 63 76  1  0  0  0  0
 65 68  1  0  0  0  0
M  CHG  1  76   1
M  ISO  4  31 101  36 100  71 100  83 101
M  END
> <Batch ID>
0194

> <Smiles>
CNC(C)C(=O)NC(C(=O)N1Cc2cc([101O:1][101c:1]3nc(C)cc(CCC4CC[100N:0]([100C:0](=O)N5CCCC(n6nc(-c7ccc(Oc8ccc(F)cc8F)cc7)c(C(N)=O)c6N)C5)CC4)n3)ccc2CC1C(=O)NC1CCCc2ccccc21)C(C)(C)C

> <Shape>
0.249

> <Color>
0.088

> <Negative vol penalty>
0.000

$$$$

  -OEChem-04052323343D

 85 94  0     1  0  0  0  0  0999 V2000
  -31.9449  -24.7148   18.3608 C   0  0  0  0  0  0  0  0  0  0  0  0
  -30.6245  -24.6191   18.7882 C   0  0  0  0  0  0  0  0  0  0  0  0
  -26.2720  -12.3755   21.5035 C   0  0  0  0  0  0  0  0  0  0  0  0
  -25.1296  -13.2853   19.5788 C   0  0  0  0  0  0  0  0  0  0  0  0
  -32.8305  -25.5650   19.0217 C   0  0  0  0  0  0  0  0  0  0  0  0
  -30.1891  -25.3728   19.8777 C   0  0  0  0  0  0  0  0  0  0  0  0
  -25.7052  -27.5755   19.0486 C   0  0  0  0  0  0  0  0  0  0  0  0
  -25.0991  -11.7298   21.8945 C   0  0  0  0  0  0  0  0  0  0  0  0
  -23.9566  -12.6396   19.9699 C   0  0  0  0  0  0  0  0  0  0  0  0
  -24.5710  -26.7725   19.1602 C   0  0  0  0  0  0  0  0  0  0  0  0
  -20.7571  -10.9386   20.2660 C   0  0  0  0  0  0  0  0  0  0  0  0
  -20.0274  -10.2673   19.2849 C   0  0  0  0  0  0  0  0  0  0  0  0
  -24.1760  -27.6482   21.3729 C   0  0  0  0  0  0  0  0  0  0  0  0
  -21.9315   -8.8482   18.8399 C   0  0  0  0  0  0  0  0  0  0  0  0
  -24.3606  -22.0442   17.1225 C   0  0  0  0  0  0  0  0  0  0  0  0
  -26.2873  -13.1533   20.3456 C   0  0  0  0  0  0  0  0  0  0  0  0
  -28.5088  -13.3146   19.1021 C   0  0  0  0  0  0  0  0  0  0  0  0
  -32.4033  -26.3367   20.1137 C   0  0  0  0  0  0  0  0  0  0  0  0
  -26.0901  -28.4143   20.1044 C   0  0  0  0  0  0  0  0  0  0  0  0
  -31.0702  -26.2331   20.5547 C   0  0  0  0  0  0  0  0  0  0  0  0
  -25.3140  -28.4628   21.2712 C   0  0  0  0  0  0  0  0  0  0  0  0
  -23.9414  -11.8619   21.1277 C   0  0  0  0  0  0  0  0  0  0  0  0
  -23.8078  -26.8066   20.3235 C   0  0  0  0  0  0  0  0  0  0  0  0
  -22.0740  -10.5648   20.5340 C   0  0  0  0  0  0  0  0  0  0  0  0
  -20.6146   -9.2221   18.5719 C   0  0  0  0  0  0  0  0  0  0  0  0
  -22.6611   -9.5196   19.8210 C   0  0  0  0  0  0  0  0  0  0  0  0
  -27.4984  -13.8210   19.9415 C   0  0  0  0  0  0  0  0  0  0  0  0
  -24.4760  -21.6369   18.4291 C   0  0  0  0  0  0  0  0  0  0  0  0
  -22.9766  -22.0170   16.8664 C   0  0  0  0  0  0  0  0  0  0  0  0
  -29.4345  -14.3267   19.0299 C   0  0  0  0  0  0  0  0  0  0  0  0
  -28.6021  -12.0431   18.4462 C   0  0  0  0  0  0  0  0  0  0  0  0
  -28.6447  -28.6263   21.9839 C   0  0  0  0  0  0  0  0  0  0  0  0
  -27.1564  -31.3048   23.0482 C   0  0  0  0  0  0  0  0  0  0  0  0
  -24.2405  -33.0298   23.4596 C   0  0  0  0  0  0  0  0  0  0  0  0
  -28.8838  -20.3024   19.8961 C   0  0  0  0  0  0  0  0  0  0  0  0
  -33.4092  -27.2060   20.8260 C   0  0  0  0  0  0  0  0  0  0  0  0
  -27.3012  -29.2942   19.9579 C   0  0  0  0  0  0  0  0  0  0  0  0
  -25.6730  -29.3612   22.4256 C   0  0  0  0  0  0  0  0  0  0  0  0
  -32.7728  -28.2522   21.7375 C   0  0  0  0  0  0  0  0  0  0  0  0
  -31.1623  -18.0223   21.4905 C   0  0  0  0  0  0  0  0  0  0  0  0
  -31.6782  -27.6208   22.5919 C   0  0  0  0  0  0  0  0  0  0  0  0
  -30.5489  -16.6467   21.2507 C   0  0  0  0  0  0  0  0  0  0  0  0
  -30.0788  -19.0767   21.6730 C   0  0  0  0  0  0  0  0  0  0  0  0
  -26.2858  -20.0604   19.6682 C   0  0  0  0  0  0  0  0  0  0  0  0
  -27.1721  -21.6116   18.5274 C   0  0  0  0  0  0  0  0  0  0  0  0
  -28.5202  -17.7964   20.2289 C   0  0  0  0  0  0  0  0  0  0  0  0
  -30.5539  -27.0532   21.7170 C   0  0  1  0  0  0  0  0  0  0  0  0
  -25.8170  -21.4778   19.2595 C   0  0  0  0  0  0  0  0  0  0  0  0
  -27.8896  -29.7286   21.2967 C   0  0  1  0  0  0  0  0  0  0  0  0
  -29.5809  -16.6906   20.0597 C   0  0  2  0  0  0  0  0  0  0  0  0
  -22.2900  -22.3639   15.6106 C   0  0  0  0  0  0  0  0  0  0  0  0
  -23.3362  -35.1751   24.3961 C   0  0  0  0  0  0  0  0  0  0  0  0
  -27.4348  -30.1860   25.8732 C   0  0  0  0  0  0  0  0  0  0  0  0
  -25.7222  -31.8500   26.6260 C   0  0  0  0  0  0  0  0  0  0  0  0
  -27.8888  -32.6371   25.6725 C   0  0  0  0  0  0  0  0  0  0  0  0
  -23.2304  -33.8936   20.8152 C   0  0  0  0  0  0  0  0  0  0  0  0
  -22.8043  -20.9448   20.1869 C   0  0  0  0  0  0  0  0  0  0  0  0
  -21.8551  -21.8987   20.9002 C   0  0  0  0  0  0  0  0  0  0  0  0
  -21.5977  -24.2667   21.6520 C   0  0  0  0  0  0  0  0  0  0  0  0
  -22.3476  -25.5809   21.7452 C   0  0  0  0  0  0  0  0  0  1  0  0
  -26.1594  -31.6119   24.1394 C   0  0  1  0  0  0  0  0  0  0  0  0
  -23.8720  -34.4714   23.1590 C   0  0  2  0  0  0  0  0  0  0  0  0
  -26.7953  -31.5528   25.5570 C   0  0  0  0  0  0  0  0  0  0  0  0
  -27.7578  -15.0585   20.3719 N   0  0  0  0  0  0  0  0  0  0  0  0
  -22.2639  -21.6235   17.9252 N   0  0  0  0  0  0  0  0  0  0  0  0
  -23.2037  -21.3995   18.8594 N   0  0  0  0  0  0  0  0  0  0  0  0
  -28.9417  -15.3382   19.8008 N   0  0  0  0  0  0  0  0  0  0  0  0
  -26.8696  -30.1979   22.2368 N   0  0  0  0  0  0  0  0  0  0  0  0
  -29.1304  -19.0929   20.5551 N   0  0  0  0  0  0  0  0  0  0  0  0
  -27.6335  -20.5098   19.3631 N   0  0  0  0  0  0  0  0  0  0  0  0
  -30.6139  -14.4411   18.3831 N   0  0  0  0  0  0  0  0  0  0  0  0
  -27.5633  -11.1200   18.6274 N   0  0  0  0  0  0  0  0  0  0  0  0
  -29.6952  -28.1177   21.2440 N   0  0  0  0  0  0  0  0  0  0  0  0
  -25.5701  -32.9033   23.8022 N   0  0  0  0  0  0  0  0  0  0  0  0
  -22.8284  -34.5286   22.0967 N   0  3  0  0  0  0  0  0  0  0  0  0
  -22.4730  -23.2468   21.0211 N   0  3  0  0  0  0  0  0  0  0  0  0
  -29.5857  -11.7285   17.7341 O   0  0  0  0  0  0  0  0  0  0  0  0
  -28.3008  -28.2649   23.1032 O   0  0  0  0  0  0  0  0  0  0  0  0
  -28.1492  -32.0248   22.9160 O   0  0  0  0  0  0  0  0  0  0  0  0
  -23.4291  -32.1086   23.4002 O   0  0  0  0  0  0  0  0  0  0  0  0
  -29.7458  -21.1872   19.8106 O   0  0  0  0  0  0  0  0  0  0  0  0
  -22.7968  -11.2318   21.5089 O   0  0  0  0  0  0  0  0  0  0  0  0
  -22.7006  -26.0233   20.4353 O   0  0  0  0  0  0  0  0  0  1  0  0
  -19.9133   -8.5765   17.6308 F   0  0  0  0  0  0  0  0  0  0  0  0
  -23.9254   -9.1552   20.0749 F   0  0  0  0  0  0  0  0  0  0  0  0
  1  2  1  0  0  0  0
  1  5  2  0  0  0  0
  2  6  2  0  0  0  0
  3  8  2  0  0  0  0
  3 16  1  0  0  0  0
  4  9  1  0  0  0  0
  4 16  2  0  0  0  0
  5 18  1  0  0  0  0
  6 20  1  0  0  0  0
  7 10  2  0  0  0  0
  7 19  1  0  0  0  0
  8 22  1  0  0  0  0
  9 22  2  0  0  0  0
 10 23  1  0  0  0  0
 11 12  2  0  0  0  0
 11 24  1  0  0  0  0
 12 25  1  0  0  0  0
 13 21  1  0  0  0  0
 13 23  2  0  0  0  0
 14 25  2  0  0  0  0
 14 26  1  0  0  0  0
 15 28  2  0  0  0  0
 15 29  1  0  0  0  0
 16 27  1  0  0  0  0
 17 27  1  0  0  0  0
 17 30  2  0  0  0  0
 17 31  1  0  0  0  0
 18 20  2  0  0  0  0
 18 36  1  0  0  0  0
 19 21  2  0  0  0  0
 19 37  1  0  0  0  0
 20 47  1  0  0  0  0
 21 38  1  0  0  0  0
 22 82  1  0  0  0  0
 23 83  1  0  0  0  0
 24 26  2  0  0  0  0
 24 82  1  0  0  0  0
 25 84  1  0  0  0  0
 26 85  1  0  0  0  0
 27 64  2  0  0  0  0
 28 48  1  0  0  0  0
 28 66  1  0  0  0  0
 29 51  1  0  0  0  0
 29 65  2  0  0  0  0
 30 67  1  0  0  0  0
 30 71  1  0  0  0  0
 31 72  1  0  0  0  0
 31 77  2  0  0  0  0
 32 49  1  0  0  0  0
 32 73  1  0  0  0  0
 32 78  2  0  0  0  0
 33 61  1  0  0  0  0
 33 68  1  0  0  0  0
 33 79  2  0  0  0  0
 34 62  1  0  0  0  0
 34 74  1  0  0  0  0
 34 80  2  0  0  0  0
 35 69  1  0  0  0  0
 35 70  1  0  0  0  0
 35 81  2  0  0  0  0
 36 39  1  0  0  0  0
 37 49  1  0  0  0  0
 38 68  1  0  0  0  0
 39 41  1  0  0  0  0
 40 42  1  0  0  0  0
 40 43  1  0  0  0  0
 41 47  1  0  0  0  0
 42 50  1  0  0  0  0
 43 69  1  0  0  0  0
 44 48  1  0  0  0  0
 44 70  1  0  0  0  0
 45 48  1  0  0  0  0
 45 70  1  0  0  0  0
 46 50  1  0  0  0  0
 46 69  1  0  0  0  0
 47 73  1  0  0  0  0
 49 68  1  0  0  0  0
 50 67  1  0  0  0  0
 52 62  1  0  0  0  0
 53 63  1  0  0  0  0
 54 63  1  0  0  0  0
 55 63  1  0  0  0  0
 56 75  1  0  0  0  0
 57 58  1  0  0  0  0
 57 66  1  0  0  0  0
 58 76  1  0  0  0  0
 59 60  1  0  0  0  0
 59 76  1  0  0  0  0
 60 83  1  0  0  0  0
 61 63  1  0  0  0  0
 61 74  1  0  0  0  0
 62 75  1  0  0  0  0
 64 67  1  0  0  0  0
 65 66  1  0  0  0  0
M  CHG  2  75   1  76   1
M  ISO  4  35 100  60 101  70 100  83 101
M  END
> <Batch ID>
0194

> <Smiles>
CNC(C)C(=O)NC(C(=O)N1Cc2cc([101O:1][101CH2:1]CNCCn3nc(C)cc3C3C[100N:0]([100C:0](=O)N4CCCC(n5nc(-c6ccc(Oc7ccc(F)cc7F)cc6)c(C(N)=O)c5N)C4)C3)ccc2CC1C(=O)NC1CCCc2ccccc21)C(C)(C)C

> <Shape>
0.292

> <Color>
0.068

> <Negative vol penalty>
0.000

$$$$

  -OEChem-04052323343D

 85 94  0     1  0  0  0  0  0999 V2000
  -27.1191  -37.4605   22.3474 C   0  0  0  0  0  0  0  0  0  0  0  0
  -27.6891  -36.2868   21.8648 C   0  0  0  0  0  0  0  0  0  0  0  0
  -25.9525   -8.6039   21.2368 C   0  0  0  0  0  0  0  0  0  0  0  0
  -23.8625   -9.6950   21.7646 C   0  0  0  0  0  0  0  0  0  0  0  0
  -26.1282  -37.4016   23.3265 C   0  0  0  0  0  0  0  0  0  0  0  0
  -27.2692  -35.0535   22.3617 C   0  0  0  0  0  0  0  0  0  0  0  0
  -26.8238  -29.7925   19.2586 C   0  0  0  0  0  0  0  0  0  0  0  0
  -25.6407   -7.5761   22.1268 C   0  0  0  0  0  0  0  0  0  0  0  0
  -23.5507   -8.6671   22.6546 C   0  0  0  0  0  0  0  0  0  0  0  0
  -27.6686  -28.6879   19.1588 C   0  0  0  0  0  0  0  0  0  0  0  0
  -22.3729   -5.5039   22.4900 C   0  0  0  0  0  0  0  0  0  0  0  0
  -21.0802   -4.9818   22.4475 C   0  0  0  0  0  0  0  0  0  0  0  0
  -26.4001  -27.5698   20.8792 C   0  0  0  0  0  0  0  0  0  0  0  0
  -20.7448   -5.6248   24.7521 C   0  0  0  0  0  0  0  0  0  0  0  0
  -25.0634   -9.6634   21.0558 C   0  0  0  0  0  0  0  0  0  0  0  0
  -25.0714  -10.7881   18.7661 C   0  0  0  0  0  0  0  0  0  0  0  0
  -25.6891  -36.1664   23.8287 C   0  0  0  0  0  0  0  0  0  0  0  0
  -25.7655  -29.7983   20.1787 C   0  0  0  0  0  0  0  0  0  0  0  0
  -26.2725  -34.9780   23.3494 C   0  0  0  0  0  0  0  0  0  0  0  0
  -25.5417  -28.6746   20.9869 C   0  0  0  0  0  0  0  0  0  0  0  0
  -24.4398   -7.6077   22.8356 C   0  0  0  0  0  0  0  0  0  0  0  0
  -27.4586  -27.5775   19.9712 C   0  0  0  0  0  0  0  0  0  0  0  0
  -22.8517   -6.0863   23.6636 C   0  0  0  0  0  0  0  0  0  0  0  0
  -20.2661   -5.0423   23.5785 C   0  0  0  0  0  0  0  0  0  0  0  0
  -22.0376   -6.1468   24.7946 C   0  0  0  0  0  0  0  0  0  0  0  0
  -25.3852  -10.7256   20.1370 C   0  0  0  0  0  0  0  0  0  0  0  0
  -25.5919  -11.9887   18.3490 C   0  0  0  0  0  0  0  0  0  0  0  0
  -25.8756  -23.3765   17.8093 C   0  0  0  0  0  0  0  0  0  0  0  0
  -27.9251  -23.9055   18.5553 C   0  0  0  0  0  0  0  0  0  0  0  0
  -26.7659  -22.2529   19.5361 C   0  0  0  0  0  0  0  0  0  0  0  0
  -24.3719   -9.8451   17.9432 C   0  0  0  0  0  0  0  0  0  0  0  0
  -24.9979  -31.5705   22.7033 C   0  0  0  0  0  0  0  0  0  0  0  0
  -22.2762  -29.8074   22.6247 C   0  0  0  0  0  0  0  0  0  0  0  0
  -20.7203  -26.9212   21.6782 C   0  0  0  0  0  0  0  0  0  0  0  0
  -26.6955  -17.0106   21.2353 C   0  0  0  0  0  0  0  0  0  0  0  0
  -24.6488  -36.1552   24.9206 C   0  0  0  0  0  0  0  0  0  0  0  0
  -24.8469  -30.9869   20.2554 C   0  0  0  0  0  0  0  0  0  0  0  0
  -24.4074  -28.6227   21.9765 C   0  0  0  0  0  0  0  0  0  0  0  0
  -23.9949  -34.7910   25.1249 C   0  0  0  0  0  0  0  0  0  0  0  0
  -29.1001  -15.0923   19.3305 C   0  0  0  0  0  0  0  0  0  0  0  0
  -25.0528  -33.6930   25.1679 C   0  0  0  0  0  0  0  0  0  0  0  0
  -28.3763  -13.7518   19.1928 C   0  0  0  0  0  0  0  0  0  0  0  0
  -28.8517  -15.7177   20.7002 C   0  0  0  0  0  0  0  0  0  0  0  0
  -26.6893  -14.5563   20.9081 C   0  0  0  0  0  0  0  0  0  0  0  0
  -25.9376  -20.0424   20.4069 C   0  0  0  0  0  0  0  0  0  0  0  0
  -27.7380  -20.7058   21.2660 C   0  0  0  0  0  0  0  0  0  0  0  0
  -25.8261  -33.6199   23.8457 C   0  0  1  0  0  0  0  0  0  0  0  0
  -24.1126  -31.0895   21.5886 C   0  0  1  0  0  0  0  0  0  0  0  0
  -26.8810  -13.8852   19.5360 C   0  0  2  0  0  0  0  0  0  0  0  0
  -26.8262  -19.5005   21.5355 C   0  0  0  0  0  0  0  0  0  0  0  0
  -23.9204  -24.8341   17.2270 C   0  0  0  0  0  0  0  0  0  0  0  0
  -18.5027  -25.7517   21.7872 C   0  0  0  0  0  0  0  0  0  0  0  0
  -22.7857  -29.1195   25.5534 C   0  0  0  0  0  0  0  0  0  0  0  0
  -21.1339  -27.2515   25.3297 C   0  0  0  0  0  0  0  0  0  0  0  0
  -20.3976  -29.6116   24.9975 C   0  0  0  0  0  0  0  0  0  0  0  0
  -20.4770  -26.8595   18.7293 C   0  0  0  0  0  0  0  0  0  0  0  0
  -24.7483  -23.6045   16.8611 C   0  0  0  0  0  0  0  0  0  0  0  0
  -29.1711  -24.7525   18.4641 C   0  0  0  0  0  0  0  0  0  0  0  0
  -28.8716  -26.2412   18.6023 C   0  0  0  0  0  0  0  0  0  1  0  0
  -21.8308  -28.5008   23.2357 C   0  0  1  0  0  0  0  0  0  0  0  0
  -19.3982  -26.6737   20.9744 C   0  0  2  0  0  0  0  0  0  0  0  0
  -21.5596  -28.6223   24.7619 C   0  0  0  0  0  0  0  0  0  0  0  0
  -26.0535  -11.8010   20.5625 N   0  0  0  0  0  0  0  0  0  0  0  0
  -26.9515  -24.1678   17.6686 N   0  0  0  0  0  0  0  0  0  0  0  0
  -25.7121  -22.4007   18.7173 N   0  0  0  0  0  0  0  0  0  0  0  0
  -27.9031  -22.9665   19.5149 N   0  0  0  0  0  0  0  0  0  0  0  0
  -26.1639  -12.5504   19.4524 N   0  0  0  0  0  0  0  0  0  0  0  0
  -26.6683  -21.2448   20.5194 N   0  0  0  0  0  0  0  0  0  0  0  0
  -23.5406  -29.8120   22.0187 N   0  0  0  0  0  0  0  0  0  0  0  0
  -27.4089  -15.8339   20.9569 N   0  0  0  0  0  0  0  0  0  0  0  0
  -25.6117  -12.6082   17.1498 N   0  0  0  0  0  0  0  0  0  0  0  0
  -23.9040   -8.6624   18.5321 N   0  0  0  0  0  0  0  0  0  0  0  0
  -25.0385  -32.9454   22.8362 N   0  0  0  0  0  0  0  0  0  0  0  0
  -20.6790  -28.0579   22.4576 N   0  0  0  0  0  0  0  0  0  0  0  0
  -27.4406  -18.1847   21.2627 N   0  0  0  0  0  0  0  0  0  0  0  0
  -19.6300  -26.0486   19.6415 N   0  3  0  0  0  0  0  0  0  0  0  0
  -24.1820  -10.0378   16.7184 O   0  0  0  0  0  0  0  0  0  0  0  0
  -25.5985  -30.7547   23.3928 O   0  0  0  0  0  0  0  0  0  0  0  0
  -21.5269  -30.7859   22.6766 O   0  0  0  0  0  0  0  0  0  0  0  0
  -21.6913  -26.1783   21.5523 O   0  0  0  0  0  0  0  0  0  0  0  0
  -25.4768  -17.0229   21.4405 O   0  0  0  0  0  0  0  0  0  0  0  0
  -24.1351   -6.6048   23.7040 O   0  0  0  0  0  0  0  0  0  0  0  0
  -28.2822  -26.4983   19.8762 O   0  0  0  0  0  0  0  0  0  1  0  0
  -19.0241   -4.5423   23.5371 F   0  0  0  0  0  0  0  0  0  0  0  0
  -22.4916   -6.7062   25.9246 F   0  0  0  0  0  0  0  0  0  0  0  0
  1  2  1  0  0  0  0
  1  5  2  0  0  0  0
  2  6  2  0  0  0  0
  3  8  2  0  0  0  0
  3 15  1  0  0  0  0
  4  9  1  0  0  0  0
  4 15  2  0  0  0  0
  5 17  1  0  0  0  0
  6 19  1  0  0  0  0
  7 10  2  0  0  0  0
  7 18  1  0  0  0  0
  8 21  1  0  0  0  0
  9 21  2  0  0  0  0
 10 22  1  0  0  0  0
 11 12  2  0  0  0  0
 11 23  1  0  0  0  0
 12 24  1  0  0  0  0
 13 20  1  0  0  0  0
 13 22  2  0  0  0  0
 14 24  2  0  0  0  0
 14 25  1  0  0  0  0
 15 26  1  0  0  0  0
 16 26  1  0  0  0  0
 16 27  2  0  0  0  0
 16 31  1  0  0  0  0
 17 19  2  0  0  0  0
 17 36  1  0  0  0  0
 18 20  2  0  0  0  0
 18 37  1  0  0  0  0
 19 47  1  0  0  0  0
 20 38  1  0  0  0  0
 21 82  1  0  0  0  0
 22 83  1  0  0  0  0
 23 25  2  0  0  0  0
 23 82  1  0  0  0  0
 24 84  1  0  0  0  0
 25 85  1  0  0  0  0
 26 63  2  0  0  0  0
 27 67  1  0  0  0  0
 27 71  1  0  0  0  0
 28 57  1  0  0  0  0
 28 64  1  0  0  0  0
 28 65  2  0  0  0  0
 29 58  1  0  0  0  0
 29 64  2  0  0  0  0
 29 66  1  0  0  0  0
 30 65  1  0  0  0  0
 30 66  2  0  0  0  0
 30 68  1  0  0  0  0
 31 72  1  0  0  0  0
 31 77  2  0  0  0  0
 32 48  1  0  0  0  0
 32 73  1  0  0  0  0
 32 78  2  0  0  0  0
 33 60  1  0  0  0  0
 33 69  1  0  0  0  0
 33 79  2  0  0  0  0
 34 61  1  0  0  0  0
 34 74  1  0  0  0  0
 34 80  2  0  0  0  0
 35 70  1  0  0  0  0
 35 75  1  0  0  0  0
 35 81  2  0  0  0  0
 36 39  1  0  0  0  0
 37 48  1  0  0  0  0
 38 69  1  0  0  0  0
 39 41  1  0  0  0  0
 40 42  1  0  0  0  0
 40 43  1  0  0  0  0
 41 47  1  0  0  0  0
 42 49  1  0  0  0  0
 43 70  1  0  0  0  0
 44 49  1  0  0  0  0
 44 70  1  0  0  0  0
 45 50  1  0  0  0  0
 45 68  1  0  0  0  0
 46 50  1  0  0  0  0
 46 68  1  0  0  0  0
 47 73  1  0  0  0  0
 48 69  1  0  0  0  0
 49 67  1  0  0  0  0
 50 75  1  0  0  0  0
 51 57  1  0  0  0  0
 52 61  1  0  0  0  0
 53 62  1  0  0  0  0
 54 62  1  0  0  0  0
 55 62  1  0  0  0  0
 56 76  1  0  0  0  0
 58 59  1  0  0  0  0
 59 83  1  0  0  0  0
 60 62  1  0  0  0  0
 60 74  1  0  0  0  0
 61 76  1  0  0  0  0
 63 67  1  0  0  0  0
M  CHG  1  76   1
M  ISO  4  35 100  59 101  75 100  83 101
M  END
> <Batch ID>
0194

> <Smiles>
CCc1nc(C[101CH2:1][101O:1]c2ccc3c(c2)CN(C(=O)C(NC(=O)C(C)NC)C(C)(C)C)C(C(=O)NC2CCCc4ccccc42)C3)nc(N2CC([100NH:0][100C:0](=O)N3CCCC(n4nc(-c5ccc(Oc6ccc(F)cc6F)cc5)c(C(N)=O)c4N)C3)C2)n1

> <Shape>
0.293

> <Color>
0.087

> <Negative vol penalty>
0.000

$$$$

  -OEChem-04052323343D

 87 97  0     1  0  0  0  0  0999 V2000
  -28.0179  -37.6591   22.7640 C   0  0  0  0  0  0  0  0  0  0  0  0
  -28.1922  -36.7769   21.7025 C   0  0  0  0  0  0  0  0  0  0  0  0
  -24.3899   -9.0274   22.4083 C   0  0  0  0  0  0  0  0  0  0  0  0
  -23.5394  -10.4824   20.6772 C   0  0  0  0  0  0  0  0  0  0  0  0
  -27.7532  -37.1672   24.0415 C   0  0  0  0  0  0  0  0  0  0  0  0
  -28.1029  -35.4022   21.9181 C   0  0  0  0  0  0  0  0  0  0  0  0
  -26.0312  -29.3643   18.6672 C   0  0  0  0  0  0  0  0  0  0  0  0
  -23.3050   -8.1709   22.2215 C   0  0  0  0  0  0  0  0  0  0  0  0
  -22.4545   -9.6258   20.4903 C   0  0  0  0  0  0  0  0  0  0  0  0
  -26.5046  -28.0894   18.3599 C   0  0  0  0  0  0  0  0  0  0  0  0
  -22.3774   -5.7672   20.0318 C   0  0  0  0  0  0  0  0  0  0  0  0
  -22.6356   -4.3978   19.9708 C   0  0  0  0  0  0  0  0  0  0  0  0
  -25.9644  -27.3569   20.5940 C   0  0  0  0  0  0  0  0  0  0  0  0
  -21.2085   -4.0432   21.8878 C   0  0  0  0  0  0  0  0  0  0  0  0
  -24.5071  -10.1832   21.6362 C   0  0  0  0  0  0  0  0  0  0  0  0
  -26.8728  -11.0189   21.1751 C   0  0  0  0  0  0  0  0  0  0  0  0
  -27.6510  -35.7861   24.2710 C   0  0  0  0  0  0  0  0  0  0  0  0
  -25.5301  -29.6484   19.9457 C   0  0  0  0  0  0  0  0  0  0  0  0
  -27.8378  -34.8913   23.2001 C   0  0  0  0  0  0  0  0  0  0  0  0
  -25.4829  -28.6355   20.9142 C   0  0  0  0  0  0  0  0  0  0  0  0
  -28.6573  -22.9615   19.7978 C   0  0  0  0  0  0  0  0  0  0  0  0
  -22.3373   -8.4700   21.2625 C   0  0  0  0  0  0  0  0  0  0  0  0
  -26.4739  -27.0863   19.3242 C   0  0  0  0  0  0  0  0  0  0  0  0
  -21.5347   -6.2746   21.0209 C   0  0  0  0  0  0  0  0  0  0  0  0
  -22.0512   -3.5358   20.8987 C   0  0  0  0  0  0  0  0  0  0  0  0
  -20.9503   -5.4126   21.9488 C   0  0  0  0  0  0  0  0  0  0  0  0
  -25.6272  -11.0687   21.8292 C   0  0  0  0  0  0  0  0  0  0  0  0
  -28.6149  -21.7823   19.0301 C   0  0  0  0  0  0  0  0  0  0  0  0
  -27.4524  -23.5739   19.5533 C   0  0  0  0  0  0  0  0  0  0  0  0
  -27.5822  -12.0679   21.7070 C   0  0  0  0  0  0  0  0  0  0  0  0
  -27.3462  -10.1060   20.1759 C   0  0  0  0  0  0  0  0  0  0  0  0
  -26.3550  -31.6320   22.2885 C   0  0  0  0  0  0  0  0  0  0  0  0
  -23.6089  -30.5565   23.6393 C   0  0  0  0  0  0  0  0  0  0  0  0
  -21.2629  -28.0881   23.8619 C   0  0  0  0  0  0  0  0  0  0  0  0
  -27.8963  -17.3880   23.3631 C   0  0  0  0  0  0  0  0  0  0  0  0
  -27.4102  -35.2999   25.6782 C   0  0  0  0  0  0  0  0  0  0  0  0
  -24.9985  -31.0215   20.2531 C   0  0  0  0  0  0  0  0  0  0  0  0
  -24.9360  -28.8837   22.2954 C   0  0  0  0  0  0  0  0  0  0  0  0
  -26.9599  -33.8431   25.7507 C   0  0  0  0  0  0  0  0  0  0  0  0
  -26.5952  -15.0270   25.6889 C   0  0  0  0  0  0  0  0  0  0  0  0
  -30.3687  -24.8332   20.4612 C   0  0  0  0  0  0  0  0  0  0  0  0
  -31.1750  -23.6203   20.1162 C   0  0  0  0  0  0  0  0  0  0  0  0
  -27.8352  -32.9688   24.8584 C   0  0  0  0  0  0  0  0  0  0  0  0
  -26.3245  -13.7855   24.8372 C   0  0  0  0  0  0  0  0  0  0  0  0
  -30.5208  -17.7904   20.7472 C   0  0  0  0  0  0  0  0  0  0  0  0
  -26.2984  -16.3135   24.9216 C   0  0  0  0  0  0  0  0  0  0  0  0
  -26.7113  -15.1884   22.7681 C   0  0  0  0  0  0  0  0  0  0  0  0
  -31.1014  -19.0428   20.1092 C   0  0  0  0  0  0  0  0  0  0  0  0
  -28.8210  -19.4335   20.9035 C   0  0  0  0  0  0  0  0  0  0  0  0
  -29.7792  -23.4512   20.6955 C   0  0  0  0  0  0  0  0  0  0  0  0
  -27.7239  -33.3942   23.3893 C   0  0  1  0  0  0  0  0  0  0  0  0
  -24.9854  -31.3369   21.7457 C   0  0  1  0  0  0  0  0  0  0  0  0
  -27.0493  -13.8675   23.4803 C   0  0  2  0  0  0  0  0  0  0  0  0
  -29.4728  -18.3260   21.7077 C   0  0  1  0  0  0  0  0  0  0  0  0
  -19.1561  -27.4768   25.0807 C   0  0  0  0  0  0  0  0  0  0  0  0
  -25.2471  -29.8630   26.1183 C   0  0  0  0  0  0  0  0  0  0  0  0
  -23.3447  -28.4295   26.8890 C   0  0  0  0  0  0  0  0  0  0  0  0
  -23.0148  -30.8846   26.5952 C   0  0  0  0  0  0  0  0  0  0  0  0
  -25.4714  -22.9670   18.1309 C   0  0  0  0  0  0  0  0  0  0  0  0
  -19.7006  -27.9902   21.3502 C   0  0  0  0  0  0  0  0  0  0  0  0
  -29.6522  -20.7419   18.9148 C   0  0  0  0  0  0  0  0  0  0  0  0
  -26.8747  -24.8615   20.0628 C   0  0  0  0  0  0  0  0  0  1  0  0
  -23.2439  -29.4117   24.5532 C   0  0  1  0  0  0  0  0  0  0  0  0
  -19.7457  -28.1357   23.8433 C   0  0  2  0  0  0  0  0  0  0  0  0
  -23.7248  -29.6427   26.0136 C   0  0  0  0  0  0  0  0  0  0  0  0
  -25.5468  -12.0700   22.7095 N   0  0  0  0  0  0  0  0  0  0  0  0
  -27.4734  -21.6511   18.3491 N   0  0  0  0  0  0  0  0  0  0  0  0
  -26.7873  -22.7558   18.6880 N   0  0  0  0  0  0  0  0  0  0  0  0
  -26.7509  -12.6590   22.6123 N   0  0  0  0  0  0  0  0  0  0  0  0
  -24.4338  -30.2442   22.5494 N   0  0  0  0  0  0  0  0  0  0  0  0
  -27.0174  -16.3292   23.6454 N   0  0  0  0  0  0  0  0  0  0  0  0
  -28.8297  -12.5330   21.4839 N   0  0  0  0  0  0  0  0  0  0  0  0
  -26.4879   -9.0866   19.7419 N   0  0  0  0  0  0  0  0  0  0  0  0
  -26.4905  -32.9032   22.8130 N   0  0  0  0  0  0  0  0  0  0  0  0
  -21.8028  -29.2271   24.4207 N   0  0  0  0  0  0  0  0  0  0  0  0
  -28.5420  -17.3225   22.1345 N   0  0  0  0  0  0  0  0  0  0  0  0
  -30.0009  -20.0844   20.2113 N   0  3  2  0  0  0  0  0  0  0  0  0
  -19.2200  -27.4310   22.6400 N   0  3  0  0  0  0  0  0  0  0  0  0
  -28.5021  -10.1819   19.6946 O   0  0  0  0  0  0  0  0  0  0  0  0
  -27.2242  -30.7696   22.2368 O   0  0  0  0  0  0  0  0  0  0  0  0
  -23.1722  -31.6849   23.8794 O   0  0  0  0  0  0  0  0  0  0  0  0
  -21.9047  -27.1340   23.4279 O   0  0  0  0  0  0  0  0  0  0  0  0
  -28.0950  -18.3197   24.1501 O   0  0  0  0  0  0  0  0  0  0  0  0
  -21.2787   -7.6343   21.0797 O   0  0  0  0  0  0  0  0  0  0  0  0
  -26.9360  -25.8413   19.0271 O   0  0  0  0  0  0  0  0  0  1  0  0
  -22.2980   -2.2207   20.8391 F   0  0  0  0  0  0  0  0  0  0  0  0
  -20.1389   -5.8941   22.9005 F   0  0  0  0  0  0  0  0  0  0  0  0
  1  2  1  0  0  0  0
  1  5  2  0  0  0  0
  2  6  2  0  0  0  0
  3  8  2  0  0  0  0
  3 15  1  0  0  0  0
  4  9  1  0  0  0  0
  4 15  2  0  0  0  0
  5 17  1  0  0  0  0
  6 19  1  0  0  0  0
  7 10  2  0  0  0  0
  7 18  1  0  0  0  0
  8 22  1  0  0  0  0
  9 22  2  0  0  0  0
 10 23  1  0  0  0  0
 11 12  2  0  0  0  0
 11 24  1  0  0  0  0
 12 25  1  0  0  0  0
 13 20  1  0  0  0  0
 13 23  2  0  0  0  0
 14 25  2  0  0  0  0
 14 26  1  0  0  0  0
 15 27  1  0  0  0  0
 16 27  1  0  0  0  0
 16 30  2  0  0  0  0
 16 31  1  0  0  0  0
 17 19  2  0  0  0  0
 17 36  1  0  0  0  0
 18 20  2  0  0  0  0
 18 37  1  0  0  0  0
 19 51  1  0  0  0  0
 20 38  1  0  0  0  0
 21 28  1  0  0  0  0
 21 29  2  0  0  0  0
 21 50  1  0  0  0  0
 22 84  1  0  0  0  0
 23 85  1  0  0  0  0
 24 26  2  0  0  0  0
 24 84  1  0  0  0  0
 25 86  1  0  0  0  0
 26 87  1  0  0  0  0
 27 66  2  0  0  0  0
 28 61  1  0  0  0  0
 28 67  2  0  0  0  0
 29 62  1  0  0  0  0
 29 68  1  0  0  0  0
 30 69  1  0  0  0  0
 30 72  1  0  0  0  0
 31 73  1  0  0  0  0
 31 79  2  0  0  0  0
 32 52  1  0  0  0  0
 32 74  1  0  0  0  0
 32 80  2  0  0  0  0
 33 63  1  0  0  0  0
 33 70  1  0  0  0  0
 33 81  2  0  0  0  0
 34 64  1  0  0  0  0
 34 75  1  0  0  0  0
 34 82  2  0  0  0  0
 35 71  1  0  0  0  0
 35 76  1  0  0  0  0
 35 83  2  0  0  0  0
 36 39  1  0  0  0  0
 37 52  1  0  0  0  0
 38 70  1  0  0  0  0
 39 43  1  0  0  0  0
 40 44  1  0  0  0  0
 40 46  1  0  0  0  0
 41 42  1  0  0  0  0
 41 50  1  0  0  0  0
 42 50  1  0  0  0  0
 43 51  1  0  0  0  0
 44 53  1  0  0  0  0
 45 48  1  0  0  0  0
 45 54  1  0  0  0  0
 46 71  1  0  0  0  0
 47 53  1  0  0  0  0
 47 71  1  0  0  0  0
 48 77  1  0  0  0  0
 49 54  1  0  0  0  0
 49 77  1  0  0  0  0
 51 74  1  0  0  0  0
 52 70  1  0  0  0  0
 53 69  1  0  0  0  0
 54 76  1  0  0  0  0
 55 64  1  0  0  0  0
 56 65  1  0  0  0  0
 57 65  1  0  0  0  0
 58 65  1  0  0  0  0
 59 68  1  0  0  0  0
 60 78  1  0  0  0  0
 61 77  1  0  0  0  0
 62 85  1  0  0  0  0
 63 65  1  0  0  0  0
 63 75  1  0  0  0  0
 64 78  1  0  0  0  0
 66 69  1  0  0  0  0
 67 68  1  0  0  0  0
M  CHG  2  77   1  78   1
M  ISO  4  35 100  62 101  76 100  85 101
M  END
> <Batch ID>
0194

> <Smiles>
CNC(C)C(=O)NC(C(=O)N1Cc2cc([101O:1][101CH2:1]c3c(C4CC4)c(CN4CCC([100NH:0][100C:0](=O)N5CCCC(n6nc(-c7ccc(Oc8ccc(F)cc8F)cc7)c(C(N)=O)c6N)C5)C4)nn3C)ccc2CC1C(=O)NC1CCCc2ccccc21)C(C)(C)C

> <Shape>
0.278

> <Color>
0.069

> <Negative vol penalty>
0.000

$$$$

  -OEChem-04052323343D

 86 95  0     1  0  0  0  0  0999 V2000
  -17.2347  -30.7735   23.8221 C   0  0  0  0  0  0  0  0  0  0  0  0
  -18.5835  -31.1129   23.7911 C   0  0  0  0  0  0  0  0  0  0  0  0
  -26.3716  -13.3043   21.1965 C   0  0  0  0  0  0  0  0  0  0  0  0
  -24.8809  -12.7560   19.3760 C   0  0  0  0  0  0  0  0  0  0  0  0
  -16.8355  -29.4777   23.4971 C   0  0  0  0  0  0  0  0  0  0  0  0
  -19.5340  -30.1564   23.4361 C   0  0  0  0  0  0  0  0  0  0  0  0
  -25.8559  -29.5286   20.1263 C   0  0  0  0  0  0  0  0  0  0  0  0
  -26.3258  -11.9803   21.6328 C   0  0  0  0  0  0  0  0  0  0  0  0
  -24.8352  -11.4319   19.8123 C   0  0  0  0  0  0  0  0  0  0  0  0
  -27.1303  -29.0007   20.3293 C   0  0  0  0  0  0  0  0  0  0  0  0
  -24.0392   -7.9872   20.6554 C   0  0  0  0  0  0  0  0  0  0  0  0
  -22.7928   -7.3631   20.7032 C   0  0  0  0  0  0  0  0  0  0  0  0
  -26.3171  -26.8155   19.7107 C   0  0  0  0  0  0  0  0  0  0  0  0
  -22.0181   -9.0304   22.2707 C   0  0  0  0  0  0  0  0  0  0  0  0
  -25.6491  -13.6922   20.0681 C   0  0  0  0  0  0  0  0  0  0  0  0
  -26.6053  -15.6230   18.7024 C   0  0  0  0  0  0  0  0  0  0  0  0
  -17.7807  -28.5075   23.1285 C   0  0  0  0  0  0  0  0  0  0  0  0
  -24.7983  -28.7004   19.7237 C   0  0  0  0  0  0  0  0  0  0  0  0
  -19.1472  -28.8461   23.1071 C   0  0  0  0  0  0  0  0  0  0  0  0
  -25.0309  -27.3358   19.5007 C   0  0  0  0  0  0  0  0  0  0  0  0
  -25.5577  -11.0441   20.9407 C   0  0  0  0  0  0  0  0  0  0  0  0
  -27.3604  -27.6435   20.1243 C   0  0  0  0  0  0  0  0  0  0  0  0
  -24.2752   -9.1329   21.4152 C   0  0  0  0  0  0  0  0  0  0  0  0
  -21.7822   -7.8846   21.5109 C   0  0  0  0  0  0  0  0  0  0  0  0
  -23.2646   -9.6545   22.2229 C   0  0  0  0  0  0  0  0  0  0  0  0
  -25.6955  -15.0599   19.6172 C   0  0  0  0  0  0  0  0  0  0  0  0
  -30.3420  -24.5823   23.1212 C   0  0  0  0  0  0  0  0  0  0  0  0
  -29.6570  -23.4124   23.3273 C   0  0  0  0  0  0  0  0  0  0  0  0
  -26.2297  -16.9411   18.6118 C   0  0  0  0  0  0  0  0  0  0  0  0
  -32.1670  -23.6422   24.0621 C   0  0  0  0  0  0  0  0  0  0  0  0
  -27.6926  -15.0095   17.9974 C   0  0  0  0  0  0  0  0  0  0  0  0
  -22.0051  -27.8565   20.9845 C   0  0  0  0  0  0  0  0  0  0  0  0
  -21.5905  -26.4032   18.1142 C   0  0  0  0  0  0  0  0  0  0  0  0
  -23.0088  -25.0285   15.3311 C   0  0  0  0  0  0  0  0  0  0  0  0
  -24.1085  -21.0478   22.2439 C   0  0  0  0  0  0  0  0  0  0  0  0
  -17.3056  -27.1073   22.8313 C   0  0  0  0  0  0  0  0  0  0  0  0
  -23.4357  -29.2902   19.4831 C   0  0  0  0  0  0  0  0  0  0  0  0
  -23.9340  -26.4079   19.0487 C   0  0  0  0  0  0  0  0  0  0  0  0
  -18.3411  -26.2545   22.1028 C   0  0  0  0  0  0  0  0  0  0  0  0
  -22.1029  -19.4764   19.6016 C   0  0  0  0  0  0  0  0  0  0  0  0
  -19.7085  -26.3939   22.7644 C   0  0  0  0  0  0  0  0  0  0  0  0
  -22.8921  -18.2045   19.2885 C   0  0  0  0  0  0  0  0  0  0  0  0
  -27.7769  -21.0945   22.0042 C   0  0  0  0  0  0  0  0  0  0  0  0
  -22.2691  -19.9086   21.0567 C   0  0  0  0  0  0  0  0  0  0  0  0
  -26.5301  -20.2207   22.0939 C   0  0  0  0  0  0  0  0  0  0  0  0
  -24.4528  -18.7738   21.1857 C   0  0  0  0  0  0  0  0  0  0  0  0
  -26.0491  -22.3939   22.9943 C   0  0  0  0  0  0  0  0  0  0  0  0
  -20.2059  -27.8432   22.7030 C   0  0  1  0  0  0  0  0  0  0  0  0
  -22.3146  -28.2593   19.5703 C   0  0  1  0  0  0  0  0  0  0  0  0
  -24.3655  -18.3462   19.7141 C   0  0  1  0  0  0  0  0  0  0  0  0
  -27.5389  -22.1108   23.1157 C   0  0  2  0  0  0  0  0  0  0  0  0
  -33.5903  -23.7429   24.4904 C   0  0  0  0  0  0  0  0  0  0  0  0
  -22.4147  -23.8880   13.1762 C   0  0  0  0  0  0  0  0  0  0  0  0
  -20.9867  -23.8330   19.6437 C   0  0  0  0  0  0  0  0  0  0  0  0
  -21.3423  -22.5648   17.5145 C   0  0  0  0  0  0  0  0  0  0  0  0
  -19.5057  -24.2456   17.6712 C   0  0  0  0  0  0  0  0  0  0  0  0
  -24.2733  -27.1634   13.7181 C   0  0  0  0  0  0  0  0  0  0  0  0
  -30.3982  -26.7496   21.8862 C   0  0  0  0  0  0  0  0  0  0  0  0
  -29.4225  -27.7583   21.3036 C   0  0  0  0  0  0  0  0  0  1  0  0
  -21.9037  -25.0375   17.5522 C   0  0  1  0  0  0  0  0  0  0  0  0
  -22.7151  -25.2160   13.8536 C   0  0  2  0  0  0  0  0  0  0  0  0
  -20.9550  -23.9371   18.1058 C   0  0  0  0  0  0  0  0  0  0  0  0
  -24.8087  -15.9476   20.0752 N   0  0  0  0  0  0  0  0  0  0  0  0
  -31.6248  -24.7259   23.4870 N   0  0  0  0  0  0  0  0  0  0  0  0
  -30.2543  -22.3572   23.9101 N   0  0  0  0  0  0  0  0  0  0  0  0
  -31.5442  -22.4692   24.2901 N   0  0  0  0  0  0  0  0  0  0  0  0
  -25.1596  -17.0819   19.4456 N   0  0  0  0  0  0  0  0  0  0  0  0
  -22.6176  -27.0309   18.8331 N   0  0  0  0  0  0  0  0  0  0  0  0
  -23.6838  -20.0011   21.4183 N   0  0  0  0  0  0  0  0  0  0  0  0
  -25.4711  -21.1367   22.5256 N   0  0  0  0  0  0  0  0  0  0  0  0
  -26.7137  -17.9817   17.9010 N   0  0  0  0  0  0  0  0  0  0  0  0
  -27.9399  -13.6459   18.2067 N   0  0  0  0  0  0  0  0  0  0  0  0
  -28.3295  -23.2999   22.9368 N   0  0  0  0  0  0  0  0  0  0  0  0
  -29.6898  -25.6758   22.5071 N   0  0  0  0  0  0  0  0  0  0  0  0
  -20.7143  -28.1475   21.3826 N   0  0  0  0  0  0  0  0  0  0  0  0
  -21.8741  -25.1770   16.1003 N   0  0  0  0  0  0  0  0  0  0  0  0
  -23.8824  -25.8397   13.1686 N   0  3  0  0  0  0  0  0  0  0  0  0
  -28.4335  -15.6553   17.2179 O   0  0  0  0  0  0  0  0  0  0  0  0
  -22.8728  -27.3201   21.6635 O   0  0  0  0  0  0  0  0  0  0  0  0
  -20.4780  -26.8980   17.9163 O   0  0  0  0  0  0  0  0  0  0  0  0
  -24.1317  -24.7719   15.7597 O   0  0  0  0  0  0  0  0  0  0  0  0
  -23.3124  -21.8938   22.6723 O   0  0  0  0  0  0  0  0  0  0  0  0
  -25.5130   -9.7519   21.3660 O   0  0  0  0  0  0  0  0  0  0  0  0
  -28.6118  -27.1220   20.3238 O   0  0  0  0  0  0  0  0  0  1  0  0
  -20.5847   -7.2860   21.5555 F   0  0  0  0  0  0  0  0  0  0  0  0
  -23.4849  -10.7556   22.9542 F   0  0  0  0  0  0  0  0  0  0  0  0
  1  2  1  0  0  0  0
  1  5  2  0  0  0  0
  2  6  2  0  0  0  0
  3  8  2  0  0  0  0
  3 15  1  0  0  0  0
  4  9  1  0  0  0  0
  4 15  2  0  0  0  0
  5 17  1  0  0  0  0
  6 19  1  0  0  0  0
  7 10  2  0  0  0  0
  7 18  1  0  0  0  0
  8 21  1  0  0  0  0
  9 21  2  0  0  0  0
 10 22  1  0  0  0  0
 11 12  2  0  0  0  0
 11 23  1  0  0  0  0
 12 24  1  0  0  0  0
 13 20  1  0  0  0  0
 13 22  2  0  0  0  0
 14 24  2  0  0  0  0
 14 25  1  0  0  0  0
 15 26  1  0  0  0  0
 16 26  1  0  0  0  0
 16 29  2  0  0  0  0
 16 31  1  0  0  0  0
 17 19  2  0  0  0  0
 17 36  1  0  0  0  0
 18 20  2  0  0  0  0
 18 37  1  0  0  0  0
 19 48  1  0  0  0  0
 20 38  1  0  0  0  0
 21 83  1  0  0  0  0
 22 84  1  0  0  0  0
 23 25  2  0  0  0  0
 23 83  1  0  0  0  0
 24 85  1  0  0  0  0
 25 86  1  0  0  0  0
 26 63  2  0  0  0  0
 27 28  2  0  0  0  0
 27 64  1  0  0  0  0
 27 74  1  0  0  0  0
 28 65  1  0  0  0  0
 28 73  1  0  0  0  0
 29 67  1  0  0  0  0
 29 71  1  0  0  0  0
 30 52  1  0  0  0  0
 30 64  2  0  0  0  0
 30 66  1  0  0  0  0
 31 72  1  0  0  0  0
 31 78  2  0  0  0  0
 32 49  1  0  0  0  0
 32 75  1  0  0  0  0
 32 79  2  0  0  0  0
 33 60  1  0  0  0  0
 33 68  1  0  0  0  0
 33 80  2  0  0  0  0
 34 61  1  0  0  0  0
 34 76  1  0  0  0  0
 34 81  2  0  0  0  0
 35 69  1  0  0  0  0
 35 70  1  0  0  0  0
 35 82  2  0  0  0  0
 36 39  1  0  0  0  0
 37 49  1  0  0  0  0
 38 68  1  0  0  0  0
 39 41  1  0  0  0  0
 40 42  1  0  0  0  0
 40 44  1  0  0  0  0
 41 48  1  0  0  0  0
 42 50  1  0  0  0  0
 43 45  1  0  0  0  0
 43 51  1  0  0  0  0
 44 69  1  0  0  0  0
 45 70  1  0  0  0  0
 46 50  1  0  0  0  0
 46 69  1  0  0  0  0
 47 51  1  0  0  0  0
 47 70  1  0  0  0  0
 48 75  1  0  0  0  0
 49 68  1  0  0  0  0
 50 67  1  0  0  0  0
 51 73  1  0  0  0  0
 53 61  1  0  0  0  0
 54 62  1  0  0  0  0
 55 62  1  0  0  0  0
 56 62  1  0  0  0  0
 57 77  1  0  0  0  0
 58 59  1  0  0  0  0
 58 74  1  0  0  0  0
 59 84  1  0  0  0  0
 60 62  1  0  0  0  0
 60 76  1  0  0  0  0
 61 77  1  0  0  0  0
 63 67  1  0  0  0  0
 65 66  2  0  0  0  0
M  CHG  1  77   1
M  ISO  4  35 100  59 101  70 100  84 101
M  END
> <Batch ID>
0194

> <Smiles>
CNC(C)C(=O)NC(C(=O)N1Cc2cc([101O:1][101CH2:1]CNc3nc(C)nnc3NC3CC[100N:0]([100C:0](=O)N4CCCC(n5nc(-c6ccc(Oc7ccc(F)cc7F)cc6)c(C(N)=O)c5N)C4)C3)ccc2CC1C(=O)NC1CCCc2ccccc21)C(C)(C)C

> <Shape>
0.203

> <Color>
0.089

> <Negative vol penalty>
0.000

$$$$

  -OEChem-04052323343D

 81 90  0     1  0  0  0  0  0999 V2000
  -22.3747  -26.5996   21.8402 C   0  0  0  0  0  0  0  0  0  0  0  0
  -23.5010  -25.9972   22.3913 C   0  0  0  0  0  0  0  0  0  0  0  0
  -23.2023   -9.8497   19.9536 C   0  0  0  0  0  0  0  0  0  0  0  0
  -23.9119   -9.9318   22.2616 C   0  0  0  0  0  0  0  0  0  0  0  0
  -21.1129  -26.3316   22.3693 C   0  0  0  0  0  0  0  0  0  0  0  0
  -23.3664  -25.1271   23.4726 C   0  0  0  0  0  0  0  0  0  0  0  0
  -26.1327  -20.9193   22.9366 C   0  0  0  0  0  0  0  0  0  0  0  0
  -22.5113   -8.6651   20.2082 C   0  0  0  0  0  0  0  0  0  0  0  0
  -23.2208   -8.7472   22.5162 C   0  0  0  0  0  0  0  0  0  0  0  0
  -27.4990  -21.0183   23.1957 C   0  0  0  0  0  0  0  0  0  0  0  0
  -20.0240   -7.7993   23.0662 C   0  0  0  0  0  0  0  0  0  0  0  0
  -19.2452   -7.7407   24.2219 C   0  0  0  0  0  0  0  0  0  0  0  0
  -27.1471  -20.0649   25.3835 C   0  0  0  0  0  0  0  0  0  0  0  0
  -20.5651   -5.8797   25.0169 C   0  0  0  0  0  0  0  0  0  0  0  0
  -23.9027  -10.4830   20.9804 C   0  0  0  0  0  0  0  0  0  0  0  0
  -24.1215  -13.0198   20.8238 C   0  0  0  0  0  0  0  0  0  0  0  0
  -20.9617  -25.4503   23.4514 C   0  0  0  0  0  0  0  0  0  0  0  0
  -25.2603  -20.4016   23.9048 C   0  0  0  0  0  0  0  0  0  0  0  0
  -22.1015  -24.8480   24.0175 C   0  0  0  0  0  0  0  0  0  0  0  0
  -25.7705  -19.9580   25.1332 C   0  0  0  0  0  0  0  0  0  0  0  0
  -22.5205   -8.1139   21.4894 C   0  0  0  0  0  0  0  0  0  0  0  0
  -28.0060  -20.5937   24.4204 C   0  0  0  0  0  0  0  0  0  0  0  0
  -21.0733   -6.8981   22.8858 C   0  0  0  0  0  0  0  0  0  0  0  0
  -19.5158   -6.7809   25.1972 C   0  0  0  0  0  0  0  0  0  0  0  0
  -21.3439   -5.9383   23.8612 C   0  0  0  0  0  0  0  0  0  0  0  0
  -24.6172  -11.7064   20.7179 C   0  0  0  0  0  0  0  0  0  0  0  0
  -31.2712  -16.5716   25.0337 C   0  0  0  0  0  0  0  0  0  0  0  0
  -31.3108  -17.4806   24.0256 C   0  0  0  0  0  0  0  0  0  0  0  0
  -25.1827  -13.8168   20.4701 C   0  0  0  0  0  0  0  0  0  0  0  0
  -22.8185  -13.4784   21.2077 C   0  0  0  0  0  0  0  0  0  0  0  0
  -22.7779  -21.5445   25.5281 C   0  0  0  0  0  0  0  0  0  0  0  0
  -22.5495  -18.4825   26.5744 C   0  0  0  0  0  0  0  0  0  0  0  0
  -24.0960  -15.4962   27.1547 C   0  0  0  0  0  0  0  0  0  0  0  0
  -30.9459  -14.0626   20.9595 C   0  0  0  0  0  0  0  0  0  0  0  0
  -19.5823  -25.2282   24.0195 C   0  0  0  0  0  0  0  0  0  0  0  0
  -23.7927  -20.2767   23.5997 C   0  0  0  0  0  0  0  0  0  0  0  0
  -24.8789  -19.3759   26.1985 C   0  0  0  0  0  0  0  0  0  0  0  0
  -31.1019  -15.1969   24.5504 C   0  0  0  0  0  0  0  0  0  0  0  0
  -31.1823  -16.9332   22.6738 C   0  0  0  0  0  0  0  0  0  0  0  0
  -19.4869  -24.0038   24.9262 C   0  0  0  0  0  0  0  0  0  0  0  0
  -29.3577  -13.1276   17.9132 C   0  0  0  0  0  0  0  0  0  0  0  0
  -20.6517  -23.9765   25.9107 C   0  0  0  0  0  0  0  0  0  0  0  0
  -27.9273  -12.7879   18.3358 C   0  0  0  0  0  0  0  0  0  0  0  0
  -30.3745  -12.7018   18.9700 C   0  0  0  0  0  0  0  0  0  0  0  0
  -28.6784  -12.8748   20.7497 C   0  0  0  0  0  0  0  0  0  0  0  0
  -21.9936  -23.8793   25.1751 C   0  0  1  0  0  0  0  0  0  0  0  0
  -22.9255  -20.2103   24.8530 C   0  0  1  0  0  0  0  0  0  0  0  0
  -27.6126  -13.3357   19.7408 C   0  0  2  0  0  0  0  0  0  0  0  0
  -31.3601  -15.3950   23.0007 C   0  0  2  0  0  0  0  0  0  0  0  0
  -23.6593  -13.1929   28.0500 C   0  0  0  0  0  0  0  0  0  0  0  0
  -22.5873  -19.5839   29.4196 C   0  0  0  0  0  0  0  0  0  0  0  0
  -23.1056  -17.2734   30.2327 C   0  0  0  0  0  0  0  0  0  0  0  0
  -20.9596  -17.7230   29.0429 C   0  0  0  0  0  0  0  0  0  0  0  0
  -24.7925  -14.2336   24.5702 C   0  0  0  0  0  0  0  0  0  0  0  0
  -31.5737  -20.0484   24.0225 C   0  0  0  0  0  0  0  0  0  0  0  0
  -30.2235  -20.5860   23.5610 C   0  0  0  0  0  0  0  0  0  1  0  0
  -23.1223  -17.7033   27.7335 C   0  0  1  0  0  0  0  0  0  0  0  0
  -23.6986  -14.0723   26.8098 C   0  0  2  0  0  0  0  0  0  0  0  0
  -22.4605  -18.0836   29.0881 C   0  0  0  0  0  0  0  0  0  0  0  0
  -25.8938  -11.6670   20.3273 N   0  0  0  0  0  0  0  0  0  0  0  0
  -31.3960  -17.1769   26.2302 N   0  0  0  0  0  0  0  0  0  0  0  0
  -31.5181  -18.4908   25.9797 N   0  0  0  0  0  0  0  0  0  0  0  0
  -31.4654  -18.6719   24.6323 N   0  0  0  0  0  0  0  0  0  0  0  0
  -26.2094  -12.9655   20.1846 N   0  0  0  0  0  0  0  0  0  0  0  0
  -23.4504  -19.2805   25.8550 N   0  0  0  0  0  0  0  0  0  0  0  0
  -30.0193  -13.2557   20.2788 N   0  0  0  0  0  0  0  0  0  0  0  0
  -25.3285  -15.1558   20.3784 N   0  0  0  0  0  0  0  0  0  0  0  0
  -21.8458  -12.5255   21.5398 N   0  0  0  0  0  0  0  0  0  0  0  0
  -22.2259  -22.5237   24.7245 N   0  0  0  0  0  0  0  0  0  0  0  0
  -22.9940  -16.2935   27.3808 N   0  0  0  0  0  0  0  0  0  0  0  0
  -30.5271  -14.5520   22.1907 N   0  0  0  0  0  0  0  0  0  0  0  0
  -24.6701  -13.4823   25.8459 N   0  3  0  0  0  0  0  0  0  0  0  0
  -22.5204  -14.6964   21.2389 O   0  0  0  0  0  0  0  0  0  0  0  0
  -23.1369  -21.6755   26.6925 O   0  0  0  0  0  0  0  0  0  0  0  0
  -21.3484  -18.3813   26.3123 O   0  0  0  0  0  0  0  0  0  0  0  0
  -25.2670  -15.8635   27.2208 O   0  0  0  0  0  0  0  0  0  0  0  0
  -32.0616  -14.3315   20.5014 O   0  0  0  0  0  0  0  0  0  0  0  0
  -21.8461   -6.9581   21.7382 O   0  0  0  0  0  0  0  0  0  0  0  0
  -29.3391  -20.6898   24.6761 O   0  0  0  0  0  0  0  0  0  1  0  0
  -18.7688   -6.7257   26.3077 F   0  0  0  0  0  0  0  0  0  0  0  0
  -22.3513   -5.0706   23.6940 F   0  0  0  0  0  0  0  0  0  0  0  0
  1  2  1  0  0  0  0
  1  5  2  0  0  0  0
  2  6  2  0  0  0  0
  3  8  2  0  0  0  0
  3 15  1  0  0  0  0
  4  9  1  0  0  0  0
  4 15  2  0  0  0  0
  5 17  1  0  0  0  0
  6 19  1  0  0  0  0
  7 10  2  0  0  0  0
  7 18  1  0  0  0  0
  8 21  1  0  0  0  0
  9 21  2  0  0  0  0
 10 22  1  0  0  0  0
 11 12  2  0  0  0  0
 11 23  1  0  0  0  0
 12 24  1  0  0  0  0
 13 20  1  0  0  0  0
 13 22  2  0  0  0  0
 14 24  2  0  0  0  0
 14 25  1  0  0  0  0
 15 26  1  0  0  0  0
 16 26  1  0  0  0  0
 16 29  2  0  0  0  0
 16 30  1  0  0  0  0
 17 19  2  0  0  0  0
 17 35  1  0  0  0  0
 18 20  2  0  0  0  0
 18 36  1  0  0  0  0
 19 46  1  0  0  0  0
 20 37  1  0  0  0  0
 21 78  1  0  0  0  0
 22 79  1  0  0  0  0
 23 25  2  0  0  0  0
 23 78  1  0  0  0  0
 24 80  1  0  0  0  0
 25 81  1  0  0  0  0
 26 60  2  0  0  0  0
 27 28  2  0  0  0  0
 27 38  1  0  0  0  0
 27 61  1  0  0  0  0
 28 39  1  0  0  0  0
 28 63  1  0  0  0  0
 29 64  1  0  0  0  0
 29 67  1  0  0  0  0
 30 68  1  0  0  0  0
 30 73  2  0  0  0  0
 31 47  1  0  0  0  0
 31 69  1  0  0  0  0
 31 74  2  0  0  0  0
 32 57  1  0  0  0  0
 32 65  1  0  0  0  0
 32 75  2  0  0  0  0
 33 58  1  0  0  0  0
 33 70  1  0  0  0  0
 33 76  2  0  0  0  0
 34 66  1  0  0  0  0
 34 71  1  0  0  0  0
 34 77  2  0  0  0  0
 35 40  1  0  0  0  0
 36 47  1  0  0  0  0
 37 65  1  0  0  0  0
 38 49  1  0  0  0  0
 39 49  1  0  0  0  0
 40 42  1  0  0  0  0
 41 43  1  0  0  0  0
 41 44  1  0  0  0  0
 42 46  1  0  0  0  0
 43 48  1  0  0  0  0
 44 66  1  0  0  0  0
 45 48  1  0  0  0  0
 45 66  1  0  0  0  0
 46 69  1  0  0  0  0
 47 65  1  0  0  0  0
 48 64  1  0  0  0  0
 49 71  1  0  0  0  0
 50 58  1  0  0  0  0
 51 59  1  0  0  0  0
 52 59  1  0  0  0  0
 53 59  1  0  0  0  0
 54 72  1  0  0  0  0
 55 56  1  0  0  0  0
 55 63  1  0  0  0  0
 56 79  1  0  0  0  0
 57 59  1  0  0  0  0
 57 70  1  0  0  0  0
 58 72  1  0  0  0  0
 60 64  1  0  0  0  0
 61 62  2  0  0  0  0
 62 63  1  0  0  0  0
M  CHG  1  72   1
M  ISO  4  34 100  56 101  71 100  79 101
M  END
> <Batch ID>
0194

> <Smiles>
CNC(C)C(=O)NC(C(=O)N1Cc2cc([101O:1][101CH2:1]Cn3nnc4c3CC([100NH:0][100C:0](=O)N3CCCC(n5nc(-c6ccc(Oc7ccc(F)cc7F)cc6)c(C(N)=O)c5N)C3)C4)ccc2CC1C(=O)NC1CCCc2ccccc21)C(C)(C)C

> <Shape>
0.177

> <Color>
0.179

> <Negative vol penalty>
0.000

$$$$

  -OEChem-04052323343D

 85 94  0     1  0  0  0  0  0999 V2000
  -19.5362  -26.1276   25.3276 C   0  0  0  0  0  0  0  0  0  0  0  0
  -20.5052  -25.8397   24.3718 C   0  0  0  0  0  0  0  0  0  0  0  0
  -24.6415   -9.2201   22.0576 C   0  0  0  0  0  0  0  0  0  0  0  0
  -23.7310   -9.4436   19.8310 C   0  0  0  0  0  0  0  0  0  0  0  0
  -18.7622  -27.2811   25.2085 C   0  0  0  0  0  0  0  0  0  0  0  0
  -20.7001  -26.7047   23.2956 C   0  0  0  0  0  0  0  0  0  0  0  0
  -25.6003  -27.6051   22.3892 C   0  0  0  0  0  0  0  0  0  0  0  0
  -23.4612   -8.6076   22.4788 C   0  0  0  0  0  0  0  0  0  0  0  0
  -22.5507   -8.8310   20.2521 C   0  0  0  0  0  0  0  0  0  0  0  0
  -26.3152  -26.6163   21.7146 C   0  0  0  0  0  0  0  0  0  0  0  0
  -22.0294   -5.5515   22.2715 C   0  0  0  0  0  0  0  0  0  0  0  0
  -22.1391   -4.4044   23.0574 C   0  0  0  0  0  0  0  0  0  0  0  0
  -26.0873  -27.8612   19.6609 C   0  0  0  0  0  0  0  0  0  0  0  0
  -20.9354   -5.5090   24.8374 C   0  0  0  0  0  0  0  0  0  0  0  0
  -24.7764   -9.6382   20.7337 C   0  0  0  0  0  0  0  0  0  0  0  0
  -27.1374   -9.6425   19.7678 C   0  0  0  0  0  0  0  0  0  0  0  0
  -18.9543  -28.1657   24.1355 C   0  0  0  0  0  0  0  0  0  0  0  0
  -25.1134  -28.7259   21.7014 C   0  0  0  0  0  0  0  0  0  0  0  0
  -19.9270  -27.8705   23.1613 C   0  0  0  0  0  0  0  0  0  0  0  0
  -25.3688  -28.8641   20.3296 C   0  0  0  0  0  0  0  0  0  0  0  0
  -22.4158   -8.4130   21.5761 C   0  0  0  0  0  0  0  0  0  0  0  0
  -26.5563  -26.7429   20.3497 C   0  0  0  0  0  0  0  0  0  0  0  0
  -21.3728   -6.6774   22.7685 C   0  0  0  0  0  0  0  0  0  0  0  0
  -21.5920   -4.3831   24.3404 C   0  0  0  0  0  0  0  0  0  0  0  0
  -20.8258   -6.6561   24.0514 C   0  0  0  0  0  0  0  0  0  0  0  0
  -25.9951  -10.2715   20.2982 C   0  0  0  0  0  0  0  0  0  0  0  0
  -28.0097  -10.6725   19.5136 C   0  0  0  0  0  0  0  0  0  0  0  0
  -30.2233  -23.3476   18.2209 C   0  0  0  0  0  0  0  0  0  0  0  0
  -28.4829  -23.7365   19.5834 C   0  0  0  0  0  0  0  0  0  0  0  0
  -28.7630  -21.7044   18.6731 C   0  0  0  0  0  0  0  0  0  0  0  0
  -27.3876   -8.2515   19.5264 C   0  0  0  0  0  0  0  0  0  0  0  0
  -22.2262  -29.9233   21.1235 C   0  0  0  0  0  0  0  0  0  0  0  0
  -23.9254  -32.3726   19.8444 C   0  0  0  0  0  0  0  0  0  0  0  0
  -26.8404  -33.4514   18.4353 C   0  0  0  0  0  0  0  0  0  0  0  0
  -27.3428  -16.2775   18.2619 C   0  0  0  0  0  0  0  0  0  0  0  0
  -18.0611  -29.3758   24.0235 C   0  0  0  0  0  0  0  0  0  0  0  0
  -24.3670  -29.7967   22.4489 C   0  0  0  0  0  0  0  0  0  0  0  0
  -24.8851  -30.0580   19.5492 C   0  0  0  0  0  0  0  0  0  0  0  0
  -18.5861  -30.4328   23.0553 C   0  0  0  0  0  0  0  0  0  0  0  0
  -29.1698  -15.0618   21.0047 C   0  0  0  0  0  0  0  0  0  0  0  0
  -19.0371  -29.7844   21.7503 C   0  0  0  0  0  0  0  0  0  0  0  0
  -28.6706  -13.6196   21.0870 C   0  0  0  0  0  0  0  0  0  0  0  0
  -28.0396  -16.0421   20.6866 C   0  0  0  0  0  0  0  0  0  0  0  0
  -29.1111  -19.4786   17.6470 C   0  0  0  0  0  0  0  0  0  0  0  0
  -27.5930  -19.7597   19.6123 C   0  0  0  0  0  0  0  0  0  0  0  0
  -28.2636  -18.2963   17.1847 C   0  0  0  0  0  0  0  0  0  0  0  0
  -26.7661  -18.5819   19.1089 C   0  0  0  0  0  0  0  0  0  0  0  0
  -26.7632  -14.2482   19.5592 C   0  0  0  0  0  0  0  0  0  0  0  0
  -20.1850  -28.7970   21.9928 C   0  0  1  0  0  0  0  0  0  0  0  0
  -23.4749  -30.6439   21.5468 C   0  0  1  0  0  0  0  0  0  0  0  0
  -27.8870  -13.2332   19.8200 C   0  0  2  0  0  0  0  0  0  0  0  0
  -31.1282  -24.6833   16.3017 C   0  0  0  0  0  0  0  0  0  0  0  0
  -27.9172  -35.4964   17.4576 C   0  0  0  0  0  0  0  0  0  0  0  0
  -22.2842  -32.0159   17.2971 C   0  0  0  0  0  0  0  0  0  0  0  0
  -23.9966  -33.3827   16.0855 C   0  0  0  0  0  0  0  0  0  0  0  0
  -22.6887  -34.3951   17.9529 C   0  0  0  0  0  0  0  0  0  0  0  0
  -28.9800  -33.4443   20.4801 C   0  0  0  0  0  0  0  0  0  0  0  0
  -31.4507  -23.8286   17.5250 C   0  0  0  0  0  0  0  0  0  0  0  0
  -27.7081  -24.6648   20.4552 C   0  0  0  0  0  0  0  0  0  1  0  0
  -24.4799  -32.6895   18.4765 C   0  0  1  0  0  0  0  0  0  0  0  0
  -27.7048  -34.6676   18.7149 C   0  0  2  0  0  0  0  0  0  0  0  0
  -23.3699  -33.0972   17.4671 C   0  0  0  0  0  0  0  0  0  0  0  0
  -26.1268  -11.5983   20.3770 N   0  0  0  0  0  0  0  0  0  0  0  0
  -29.5769  -24.2394   18.9892 N   0  0  0  0  0  0  0  0  0  0  0  0
  -29.8765  -22.0666   18.0159 N   0  0  0  0  0  0  0  0  0  0  0  0
  -28.0158  -22.4826   19.4724 N   0  0  0  0  0  0  0  0  0  0  0  0
  -27.3622  -11.8115   19.8927 N   0  0  0  0  0  0  0  0  0  0  0  0
  -28.3378  -20.3800   18.5080 N   0  0  0  0  0  0  0  0  0  0  0  0
  -24.1546  -31.0750   20.3236 N   0  0  0  0  0  0  0  0  0  0  0  0
  -27.2961  -15.6107   19.4952 N   0  0  0  0  0  0  0  0  0  0  0  0
  -27.5671  -17.6627   18.2978 N   0  0  0  0  0  0  0  0  0  0  0  0
  -29.2598  -10.7061   19.0050 N   0  0  0  0  0  0  0  0  0  0  0  0
  -26.3836   -7.3269   19.8449 N   0  0  0  0  0  0  0  0  0  0  0  0
  -21.4326  -29.5072   22.1755 N   0  0  0  0  0  0  0  0  0  0  0  0
  -25.5071  -33.7057   18.6778 N   0  0  0  0  0  0  0  0  0  0  0  0
  -29.0379  -34.2479   19.2319 N   0  3  0  0  0  0  0  0  0  0  0  0
  -28.4757   -7.8391   19.0578 O   0  0  0  0  0  0  0  0  0  0  0  0
  -21.9987  -29.7584   19.9307 O   0  0  0  0  0  0  0  0  0  0  0  0
  -23.3178  -33.2464   20.4680 O   0  0  0  0  0  0  0  0  0  0  0  0
  -27.3015  -32.3837   18.0377 O   0  0  0  0  0  0  0  0  0  0  0  0
  -27.1963  -15.6735   17.1920 O   0  0  0  0  0  0  0  0  0  0  0  0
  -21.2641   -7.8152   21.9866 O   0  0  0  0  0  0  0  0  0  0  0  0
  -27.2580  -25.7724   19.6841 O   0  0  0  0  0  0  0  0  0  1  0  0
  -21.6961   -3.2810   25.0944 F   0  0  0  0  0  0  0  0  0  0  0  0
  -20.1928   -7.7342   24.5338 F   0  0  0  0  0  0  0  0  0  0  0  0
  1  2  1  0  0  0  0
  1  5  2  0  0  0  0
  2  6  2  0  0  0  0
  3  8  2  0  0  0  0
  3 15  1  0  0  0  0
  4  9  1  0  0  0  0
  4 15  2  0  0  0  0
  5 17  1  0  0  0  0
  6 19  1  0  0  0  0
  7 10  2  0  0  0  0
  7 18  1  0  0  0  0
  8 21  1  0  0  0  0
  9 21  2  0  0  0  0
 10 22  1  0  0  0  0
 11 12  2  0  0  0  0
 11 23  1  0  0  0  0
 12 24  1  0  0  0  0
 13 20  1  0  0  0  0
 13 22  2  0  0  0  0
 14 24  2  0  0  0  0
 14 25  1  0  0  0  0
 15 26  1  0  0  0  0
 16 26  1  0  0  0  0
 16 27  2  0  0  0  0
 16 31  1  0  0  0  0
 17 19  2  0  0  0  0
 17 36  1  0  0  0  0
 18 20  2  0  0  0  0
 18 37  1  0  0  0  0
 19 49  1  0  0  0  0
 20 38  1  0  0  0  0
 21 82  1  0  0  0  0
 22 83  1  0  0  0  0
 23 25  2  0  0  0  0
 23 82  1  0  0  0  0
 24 84  1  0  0  0  0
 25 85  1  0  0  0  0
 26 63  2  0  0  0  0
 27 67  1  0  0  0  0
 27 72  1  0  0  0  0
 28 58  1  0  0  0  0
 28 64  2  0  0  0  0
 28 65  1  0  0  0  0
 29 59  1  0  0  0  0
 29 64  1  0  0  0  0
 29 66  2  0  0  0  0
 30 65  2  0  0  0  0
 30 66  1  0  0  0  0
 30 68  1  0  0  0  0
 31 73  1  0  0  0  0
 31 77  2  0  0  0  0
 32 50  1  0  0  0  0
 32 74  1  0  0  0  0
 32 78  2  0  0  0  0
 33 60  1  0  0  0  0
 33 69  1  0  0  0  0
 33 79  2  0  0  0  0
 34 61  1  0  0  0  0
 34 75  1  0  0  0  0
 34 80  2  0  0  0  0
 35 70  1  0  0  0  0
 35 71  1  0  0  0  0
 35 81  2  0  0  0  0
 36 39  1  0  0  0  0
 37 50  1  0  0  0  0
 38 69  1  0  0  0  0
 39 41  1  0  0  0  0
 40 42  1  0  0  0  0
 40 43  1  0  0  0  0
 41 49  1  0  0  0  0
 42 51  1  0  0  0  0
 43 70  1  0  0  0  0
 44 46  1  0  0  0  0
 44 68  1  0  0  0  0
 45 47  1  0  0  0  0
 45 68  1  0  0  0  0
 46 71  1  0  0  0  0
 47 71  1  0  0  0  0
 48 51  1  0  0  0  0
 48 70  1  0  0  0  0
 49 74  1  0  0  0  0
 50 69  1  0  0  0  0
 51 67  1  0  0  0  0
 52 58  1  0  0  0  0
 53 61  1  0  0  0  0
 54 62  1  0  0  0  0
 55 62  1  0  0  0  0
 56 62  1  0  0  0  0
 57 76  1  0  0  0  0
 59 83  1  0  0  0  0
 60 62  1  0  0  0  0
 60 75  1  0  0  0  0
 61 76  1  0  0  0  0
 63 67  1  0  0  0  0
M  CHG  1  76   1
M  ISO  4  35 100  59 101  71 100  83 101
M  END
> <Batch ID>
0194

> <Smiles>
CCc1nc(N2CC[100N:0]([100C:0](=O)N3CCCC(n4nc(-c5ccc(Oc6ccc(F)cc6F)cc5)c(C(N)=O)c4N)C3)CC2)nc([101CH2:1][101O:1]c2ccc3c(c2)CN(C(=O)C(NC(=O)C(C)NC)C(C)(C)C)C(C(=O)NC2CCCc4ccccc42)C3)n1

> <Shape>
0.275

> <Color>
0.114

> <Negative vol penalty>
0.000

$$$$

  -OEChem-04052323343D

 86 96  0     1  0  0  0  0  0999 V2000
  -29.4401  -24.0600   13.9572 C   0  0  0  0  0  0  0  0  0  0  0  0
  -28.1378  -24.2340   14.4145 C   0  0  0  0  0  0  0  0  0  0  0  0
  -24.2826  -14.9481   20.6514 C   0  0  0  0  0  0  0  0  0  0  0  0
  -23.4109  -12.9482   21.6896 C   0  0  0  0  0  0  0  0  0  0  0  0
  -30.4985  -24.0330   14.8643 C   0  0  0  0  0  0  0  0  0  0  0  0
  -27.8931  -24.3800   15.7795 C   0  0  0  0  0  0  0  0  0  0  0  0
  -23.5791  -27.8515   18.3956 C   0  0  0  0  0  0  0  0  0  0  0  0
  -25.3352  -14.2091   20.1117 C   0  0  0  0  0  0  0  0  0  0  0  0
  -24.4636  -12.2092   21.1498 C   0  0  0  0  0  0  0  0  0  0  0  0
  -22.3151  -27.5533   18.9027 C   0  0  0  0  0  0  0  0  0  0  0  0
  -28.2817  -12.9338   21.1682 C   0  0  0  0  0  0  0  0  0  0  0  0
  -29.5643  -13.4748   21.2560 C   0  0  0  0  0  0  0  0  0  0  0  0
  -23.2534  -27.3699   21.1174 C   0  0  0  0  0  0  0  0  0  0  0  0
  -29.7364  -13.4577   18.8462 C   0  0  0  0  0  0  0  0  0  0  0  0
  -17.1812  -26.9996   22.9100 C   0  0  0  0  0  0  0  0  0  0  0  0
  -23.3205  -14.3177   21.4405 C   0  0  0  0  0  0  0  0  0  0  0  0
  -20.9765  -15.3240   21.4129 C   0  0  0  0  0  0  0  0  0  0  0  0
  -30.2676  -24.1884   16.2402 C   0  0  0  0  0  0  0  0  0  0  0  0
  -24.6935  -27.9005   19.2454 C   0  0  0  0  0  0  0  0  0  0  0  0
  -28.9493  -24.3537   16.7060 C   0  0  0  0  0  0  0  0  0  0  0  0
  -24.5301  -27.6714   20.6191 C   0  0  0  0  0  0  0  0  0  0  0  0
  -18.4494  -27.4233   22.5687 C   0  0  0  0  0  0  0  0  0  0  0  0
  -25.4257  -12.8396   20.3608 C   0  0  0  0  0  0  0  0  0  0  0  0
  -22.1526  -27.3096   20.2633 C   0  0  0  0  0  0  0  0  0  0  0  0
  -27.7264  -12.6546   19.9195 C   0  0  0  0  0  0  0  0  0  0  0  0
  -30.2917  -13.7368   20.0950 C   0  0  0  0  0  0  0  0  0  0  0  0
  -28.4538  -12.9165   18.7584 C   0  0  0  0  0  0  0  0  0  0  0  0
  -22.2332  -15.0806   21.9989 C   0  0  0  0  0  0  0  0  0  0  0  0
  -19.4149  -26.4386   22.5202 C   0  0  0  0  0  0  0  0  0  0  0  0
  -20.3103  -16.0925   22.3360 C   0  0  0  0  0  0  0  0  0  0  0  0
  -17.8965  -24.8507   23.1032 C   0  0  0  0  0  0  0  0  0  0  0  0
  -20.4577  -14.8937   20.1474 C   0  0  0  0  0  0  0  0  0  0  0  0
  -27.4224  -26.2848   19.4614 C   0  0  0  0  0  0  0  0  0  0  0  0
  -28.0925  -28.4861   21.7478 C   0  0  0  0  0  0  0  0  0  0  0  0
  -26.9264  -30.7289   24.0407 C   0  0  0  0  0  0  0  0  0  0  0  0
  -20.5080  -20.5248   25.8278 C   0  0  0  0  0  0  0  0  0  0  0  0
  -31.4388  -24.1049   17.1868 C   0  0  0  0  0  0  0  0  0  0  0  0
  -26.0457  -28.2498   18.6870 C   0  0  0  0  0  0  0  0  0  0  0  0
  -25.6909  -27.7319   21.5767 C   0  0  0  0  0  0  0  0  0  0  0  0
  -31.1332  -24.6419   18.5827 C   0  0  0  0  0  0  0  0  0  0  0  0
  -21.4427  -17.2236   27.1323 C   0  0  0  0  0  0  0  0  0  0  0  0
  -17.6133  -29.7402   21.7896 C   0  0  0  0  0  0  0  0  0  0  0  0
  -18.7023  -29.3336   20.8467 C   0  0  0  0  0  0  0  0  0  0  0  0
  -29.7998  -24.0968   19.0843 C   0  0  0  0  0  0  0  0  0  0  0  0
  -21.6741  -16.4092   25.8587 C   0  0  0  0  0  0  0  0  0  0  0  0
  -17.9378  -21.0875   23.2600 C   0  0  0  0  0  0  0  0  0  0  0  0
  -21.7576  -18.7039   26.9294 C   0  0  0  0  0  0  0  0  0  0  0  0
  -19.0600  -20.1740   23.7419 C   0  0  0  0  0  0  0  0  0  0  0  0
  -21.3016  -18.5106   24.5153 C   0  0  0  0  0  0  0  0  0  0  0  0
  -19.3921  -22.3820   24.6250 C   0  0  0  0  0  0  0  0  0  0  0  0
  -18.7320  -28.8527   22.2765 C   0  0  0  0  0  0  0  0  0  0  0  0
  -28.6460  -24.5403   18.1769 C   0  0  1  0  0  0  0  0  0  0  0  0
  -27.1971  -27.7668   19.5636 C   0  0  1  0  0  0  0  0  0  0  0  0
  -20.9300  -17.0285   24.6608 C   0  0  1  0  0  0  0  0  0  0  0  0
  -18.5879  -22.4647   23.3363 C   0  0  2  0  0  0  0  0  0  0  0  0
  -27.7133  -32.3502   25.7869 C   0  0  0  0  0  0  0  0  0  0  0  0
  -28.6869  -26.1626   23.6339 C   0  0  0  0  0  0  0  0  0  0  0  0
  -28.5304  -27.7680   25.5487 C   0  0  0  0  0  0  0  0  0  0  0  0
  -30.2851  -28.0787   23.8031 C   0  0  0  0  0  0  0  0  0  0  0  0
  -25.6960  -33.0223   22.6318 C   0  0  0  0  0  0  0  0  0  0  0  0
  -20.8245  -26.7790   22.1634 C   0  0  0  0  0  0  0  0  0  1  0  0
  -27.8724  -28.5804   23.2383 C   0  0  1  0  0  0  0  0  0  0  0  0
  -27.3152  -32.1674   24.3306 C   0  0  2  0  0  0  0  0  0  0  0  0
  -28.8219  -27.6443   24.0379 C   0  0  0  0  0  0  0  0  0  0  0  0
  -16.8682  -25.7163   23.1846 N   0  0  0  0  0  0  0  0  0  0  0  0
  -22.3603  -15.6487   23.2010 N   0  0  0  0  0  0  0  0  0  0  0  0
  -19.1727  -25.1376   22.7827 N   0  0  0  0  0  0  0  0  0  0  0  0
  -21.1749  -16.2567   23.3779 N   0  0  0  0  0  0  0  0  0  0  0  0
  -26.9941  -28.0711   20.9815 N   0  0  0  0  0  0  0  0  0  0  0  0
  -21.0494  -19.2361   25.7650 N   0  0  0  0  0  0  0  0  0  0  0  0
  -19.7942  -20.9806   24.7203 N   0  0  0  0  0  0  0  0  0  0  0  0
  -19.0752  -16.6372   22.3498 N   0  0  0  0  0  0  0  0  0  0  0  0
  -21.2751  -14.1098   19.3219 N   0  0  0  0  0  0  0  0  0  0  0  0
  -17.6106  -23.5202   23.3781 N   0  0  0  0  0  0  0  0  0  0  0  0
  -28.2883  -25.9158   18.4498 N   0  0  0  0  0  0  0  0  0  0  0  0
  -27.9980  -29.9930   23.5809 N   0  0  0  0  0  0  0  0  0  0  0  0
  -26.1753  -33.0813   24.0367 N   0  3  0  0  0  0  0  0  0  0  0  0
  -19.3094  -15.2092   19.7531 O   0  0  0  0  0  0  0  0  0  0  0  0
  -26.8538  -25.5319   20.2435 O   0  0  0  0  0  0  0  0  0  0  0  0
  -29.1961  -28.7771   21.2798 O   0  0  0  0  0  0  0  0  0  0  0  0
  -25.7870  -30.2999   24.2090 O   0  0  0  0  0  0  0  0  0  0  0  0
  -20.6167  -21.2201   26.8466 O   0  0  0  0  0  0  0  0  0  0  0  0
  -26.4526  -12.1181   19.8340 O   0  0  0  0  0  0  0  0  0  0  0  0
  -20.9112  -27.0157   20.7643 O   0  0  0  0  0  0  0  0  0  1  0  0
  -31.5228  -14.2578   20.1793 F   0  0  0  0  0  0  0  0  0  0  0  0
  -27.9252  -12.6515   17.5559 F   0  0  0  0  0  0  0  0  0  0  0  0
  1  2  1  0  0  0  0
  1  5  2  0  0  0  0
  2  6  2  0  0  0  0
  3  8  2  0  0  0  0
  3 16  1  0  0  0  0
  4  9  1  0  0  0  0
  4 16  2  0  0  0  0
  5 18  1  0  0  0  0
  6 20  1  0  0  0  0
  7 10  2  0  0  0  0
  7 19  1  0  0  0  0
  8 23  1  0  0  0  0
  9 23  2  0  0  0  0
 10 24  1  0  0  0  0
 11 12  2  0  0  0  0
 11 25  1  0  0  0  0
 12 26  1  0  0  0  0
 13 21  1  0  0  0  0
 13 24  2  0  0  0  0
 14 26  2  0  0  0  0
 14 27  1  0  0  0  0
 15 22  1  0  0  0  0
 15 65  2  0  0  0  0
 16 28  1  0  0  0  0
 17 28  1  0  0  0  0
 17 30  2  0  0  0  0
 17 32  1  0  0  0  0
 18 20  2  0  0  0  0
 18 37  1  0  0  0  0
 19 21  2  0  0  0  0
 19 38  1  0  0  0  0
 20 52  1  0  0  0  0
 21 39  1  0  0  0  0
 22 29  2  0  0  0  0
 22 51  1  0  0  0  0
 23 83  1  0  0  0  0
 24 84  1  0  0  0  0
 25 27  2  0  0  0  0
 25 83  1  0  0  0  0
 26 85  1  0  0  0  0
 27 86  1  0  0  0  0
 28 66  2  0  0  0  0
 29 61  1  0  0  0  0
 29 67  1  0  0  0  0
 30 68  1  0  0  0  0
 30 72  1  0  0  0  0
 31 65  1  0  0  0  0
 31 67  2  0  0  0  0
 31 74  1  0  0  0  0
 32 73  1  0  0  0  0
 32 78  2  0  0  0  0
 33 53  1  0  0  0  0
 33 75  1  0  0  0  0
 33 79  2  0  0  0  0
 34 62  1  0  0  0  0
 34 69  1  0  0  0  0
 34 80  2  0  0  0  0
 35 63  1  0  0  0  0
 35 76  1  0  0  0  0
 35 81  2  0  0  0  0
 36 70  1  0  0  0  0
 36 71  1  0  0  0  0
 36 82  2  0  0  0  0
 37 40  1  0  0  0  0
 38 53  1  0  0  0  0
 39 69  1  0  0  0  0
 40 44  1  0  0  0  0
 41 45  1  0  0  0  0
 41 47  1  0  0  0  0
 42 43  1  0  0  0  0
 42 51  1  0  0  0  0
 43 51  1  0  0  0  0
 44 52  1  0  0  0  0
 45 54  1  0  0  0  0
 46 48  1  0  0  0  0
 46 55  1  0  0  0  0
 47 70  1  0  0  0  0
 48 71  1  0  0  0  0
 49 54  1  0  0  0  0
 49 70  1  0  0  0  0
 50 55  1  0  0  0  0
 50 71  1  0  0  0  0
 52 75  1  0  0  0  0
 53 69  1  0  0  0  0
 54 68  1  0  0  0  0
 55 74  1  0  0  0  0
 56 63  1  0  0  0  0
 57 64  1  0  0  0  0
 58 64  1  0  0  0  0
 59 64  1  0  0  0  0
 60 77  1  0  0  0  0
 61 84  1  0  0  0  0
 62 64  1  0  0  0  0
 62 76  1  0  0  0  0
 63 77  1  0  0  0  0
 66 68  1  0  0  0  0
M  CHG  1  77   1
M  ISO  4  36 100  61 101  71 100  84 101
M  END
> <Batch ID>
0194

> <Smiles>
CNC(C)C(=O)NC(C(=O)N1Cc2cc([101O:1][101CH2:1]c3nc(NC4CC[100N:0]([100C:0](=O)N5CCCC(n6nc(-c7ccc(Oc8ccc(F)cc8F)cc7)c(C(N)=O)c6N)C5)C4)ncc3C3CC3)ccc2CC1C(=O)NC1CCCc2ccccc21)C(C)(C)C

> <Shape>
0.247

> <Color>
0.046

> <Negative vol penalty>
0.000

$$$$

  -OEChem-04052323343D

 84 93  0     1  0  0  0  0  0999 V2000
  -30.3719  -33.1977   24.7563 C   0  0  0  0  0  0  0  0  0  0  0  0
  -30.0764  -31.9957   24.1212 C   0  0  0  0  0  0  0  0  0  0  0  0
  -24.8551   -8.5403   22.4220 C   0  0  0  0  0  0  0  0  0  0  0  0
  -25.3384   -7.4673   20.3120 C   0  0  0  0  0  0  0  0  0  0  0  0
  -29.3930  -33.8471   25.5072 C   0  0  0  0  0  0  0  0  0  0  0  0
  -28.8020  -31.4419   24.2375 C   0  0  0  0  0  0  0  0  0  0  0  0
  -26.9997  -29.7684   19.8108 C   0  0  0  0  0  0  0  0  0  0  0  0
  -23.5894   -7.9544   22.4301 C   0  0  0  0  0  0  0  0  0  0  0  0
  -24.0727   -6.8813   20.3201 C   0  0  0  0  0  0  0  0  0  0  0  0
  -27.4816  -28.5443   19.3489 C   0  0  0  0  0  0  0  0  0  0  0  0
  -22.2469   -4.9346   23.1454 C   0  0  0  0  0  0  0  0  0  0  0  0
  -21.8075   -4.3572   24.3366 C   0  0  0  0  0  0  0  0  0  0  0  0
  -25.4813  -27.4608   20.1515 C   0  0  0  0  0  0  0  0  0  0  0  0
  -19.9262   -5.8725   24.3771 C   0  0  0  0  0  0  0  0  0  0  0  0
  -25.7297   -8.2968   21.3629 C   0  0  0  0  0  0  0  0  0  0  0  0
  -28.2235   -8.3717   21.8950 C   0  0  0  0  0  0  0  0  0  0  0  0
  -28.1030  -33.3059   25.6248 C   0  0  0  0  0  0  0  0  0  0  0  0
  -25.7578  -29.8462   20.4573 C   0  0  0  0  0  0  0  0  0  0  0  0
  -27.8053  -32.0840   24.9917 C   0  0  0  0  0  0  0  0  0  0  0  0
  -24.9848  -28.6874   20.6183 C   0  0  0  0  0  0  0  0  0  0  0  0
  -23.1981   -7.1248   21.3792 C   0  0  0  0  0  0  0  0  0  0  0  0
  -26.7237  -27.3899   19.5218 C   0  0  0  0  0  0  0  0  0  0  0  0
  -21.5260   -5.9810   22.5700 C   0  0  0  0  0  0  0  0  0  0  0  0
  -20.6471   -4.8261   24.9525 C   0  0  0  0  0  0  0  0  0  0  0  0
  -20.3656   -6.4499   23.1859 C   0  0  0  0  0  0  0  0  0  0  0  0
  -27.0371   -8.9023   21.3537 C   0  0  0  0  0  0  0  0  0  0  0  0
  -29.1778   -9.3230   21.6289 C   0  0  0  0  0  0  0  0  0  0  0  0
  -28.4432   -7.1300   22.5774 C   0  0  0  0  0  0  0  0  0  0  0  0
  -24.7902  -30.7047   23.3608 C   0  0  0  0  0  0  0  0  0  0  0  0
  -21.8408  -30.3119   22.0691 C   0  0  0  0  0  0  0  0  0  0  0  0
  -19.8955  -28.8386   19.6833 C   0  0  0  0  0  0  0  0  0  0  0  0
  -29.0281  -15.0528   20.8828 C   0  0  0  0  0  0  0  0  0  0  0  0
  -27.0918  -34.0202   26.4861 C   0  0  0  0  0  0  0  0  0  0  0  0
  -25.2401  -31.1784   20.9259 C   0  0  0  0  0  0  0  0  0  0  0  0
  -23.6360  -28.7207   21.2877 C   0  0  0  0  0  0  0  0  0  0  0  0
  -25.6563  -33.5573   26.2512 C   0  0  0  0  0  0  0  0  0  0  0  0
  -30.2659  -12.7768   18.5097 C   0  0  0  0  0  0  0  0  0  0  0  0
  -25.5848  -32.0338   26.2216 C   0  0  0  0  0  0  0  0  0  0  0  0
  -29.6892  -11.4584   19.0246 C   0  0  0  0  0  0  0  0  0  0  0  0
  -26.8235  -24.3141   17.6119 C   0  0  0  0  0  0  0  0  0  0  0  0
  -29.2622  -13.9255   18.6246 C   0  0  0  0  0  0  0  0  0  0  0  0
  -28.7338  -16.7948   19.0653 C   0  0  0  0  0  0  0  0  0  0  0  0
  -29.9366  -17.3404   21.1494 C   0  0  0  0  0  0  0  0  0  0  0  0
  -28.1237  -12.7794   20.4979 C   0  0  0  0  0  0  0  0  0  0  0  0
  -27.6520  -23.3463   18.4326 C   0  0  0  0  0  0  0  0  0  0  0  0
  -27.7612  -17.9429   19.3148 C   0  0  0  0  0  0  0  0  0  0  0  0
  -28.9708  -18.4769   21.4429 C   0  0  0  0  0  0  0  0  0  0  0  0
  -25.8829  -24.3081   19.8273 C   0  0  0  0  0  0  0  0  0  0  0  0
  -26.4271  -31.4642   25.0739 C   0  0  1  0  0  0  0  0  0  0  0  0
  -24.1925  -31.0582   22.0284 C   0  0  1  0  0  0  0  0  0  0  0  0
  -29.1299  -11.6192   20.4494 C   0  0  1  0  0  0  0  0  0  0  0  0
  -26.2225  -25.2286   18.6654 C   0  0  1  0  0  0  0  0  0  1  0  0
  -17.5153  -28.6795   18.9044 C   0  0  0  0  0  0  0  0  0  0  0  0
  -21.2050  -28.4486   24.4001 C   0  0  0  0  0  0  0  0  0  0  0  0
  -19.2411  -27.6030   23.0978 C   0  0  0  0  0  0  0  0  0  0  0  0
  -19.3494  -30.0026   23.7708 C   0  0  0  0  0  0  0  0  0  0  0  0
  -20.5649  -29.9737   17.0333 C   0  0  0  0  0  0  0  0  0  0  0  0
  -28.3660  -21.4529   20.6413 C   0  0  0  0  0  0  0  0  0  0  0  0
  -27.5723  -22.7342   20.8735 C   0  0  0  0  0  0  0  0  0  0  0  0
  -27.5418  -20.2040   20.3464 C   0  0  0  0  0  0  0  0  0  0  0  0
  -20.8751  -29.1587   21.9399 C   0  0  1  0  0  0  0  0  0  0  0  0
  -18.8416  -29.4074   18.7504 C   0  0  2  0  0  0  0  0  0  0  0  0
  -20.1939  -28.8019   23.2912 C   0  0  0  0  0  0  0  0  0  0  0  0
  -27.2187  -10.0979   20.7867 N   0  0  0  0  0  0  0  0  0  0  0  0
  -28.5302  -10.3266   20.9703 N   0  0  0  0  0  0  0  0  0  0  0  0
  -23.1761  -30.0460   21.7343 N   0  0  0  0  0  0  0  0  0  0  0  0
  -28.7259  -14.0138   19.9899 N   0  0  0  0  0  0  0  0  0  0  0  0
  -29.3078  -16.3097   20.3262 N   0  0  0  0  0  0  0  0  0  0  0  0
  -30.4992   -9.3907   21.8963 N   0  0  0  0  0  0  0  0  0  0  0  0
  -27.3532   -6.2695   22.7662 N   0  0  0  0  0  0  0  0  0  0  0  0
  -25.7299  -31.6107   23.8142 N   0  0  0  0  0  0  0  0  0  0  0  0
  -19.9428  -29.5239   20.8788 N   0  0  0  0  0  0  0  0  0  0  0  0
  -26.8005  -23.0980   19.6626 N   0  3  2  0  0  0  0  0  0  0  0  0
  -28.4368  -19.0149   20.1358 N   0  3  0  0  0  0  0  0  0  0  0  0
  -19.2838  -29.2837   17.3326 N   0  3  0  0  0  0  0  0  0  0  0  0
  -29.5693   -6.8010   23.0213 O   0  0  0  0  0  0  0  0  0  0  0  0
  -24.4248  -29.6861   23.9358 O   0  0  0  0  0  0  0  0  0  0  0  0
  -21.4242  -31.4101   22.4461 O   0  0  0  0  0  0  0  0  0  0  0  0
  -20.6032  -27.8797   19.3830 O   0  0  0  0  0  0  0  0  0  0  0  0
  -29.0464  -14.8683   22.1063 O   0  0  0  0  0  0  0  0  0  0  0  0
  -21.9632   -6.5527   21.3869 O   0  0  0  0  0  0  0  0  0  0  0  0
  -27.1951  -26.1859   19.0696 O   0  0  0  0  0  0  0  0  0  1  0  0
  -20.2244   -4.2705   26.0956 F   0  0  0  0  0  0  0  0  0  0  0  0
  -19.6682   -7.4541   22.6373 F   0  0  0  0  0  0  0  0  0  0  0  0
  1  2  1  0  0  0  0
  1  5  2  0  0  0  0
  2  6  2  0  0  0  0
  3  8  2  0  0  0  0
  3 15  1  0  0  0  0
  4  9  1  0  0  0  0
  4 15  2  0  0  0  0
  5 17  1  0  0  0  0
  6 19  1  0  0  0  0
  7 10  2  0  0  0  0
  7 18  1  0  0  0  0
  8 21  1  0  0  0  0
  9 21  2  0  0  0  0
 10 22  1  0  0  0  0
 11 12  2  0  0  0  0
 11 23  1  0  0  0  0
 12 24  1  0  0  0  0
 13 20  1  0  0  0  0
 13 22  2  0  0  0  0
 14 24  2  0  0  0  0
 14 25  1  0  0  0  0
 15 26  1  0  0  0  0
 16 26  1  0  0  0  0
 16 27  2  0  0  0  0
 16 28  1  0  0  0  0
 17 19  2  0  0  0  0
 17 33  1  0  0  0  0
 18 20  2  0  0  0  0
 18 34  1  0  0  0  0
 19 49  1  0  0  0  0
 20 35  1  0  0  0  0
 21 81  1  0  0  0  0
 22 82  1  0  0  0  0
 23 25  2  0  0  0  0
 23 81  1  0  0  0  0
 24 83  1  0  0  0  0
 25 84  1  0  0  0  0
 26 64  2  0  0  0  0
 27 65  1  0  0  0  0
 27 69  1  0  0  0  0
 28 70  1  0  0  0  0
 28 76  2  0  0  0  0
 29 50  1  0  0  0  0
 29 71  1  0  0  0  0
 29 77  2  0  0  0  0
 30 61  1  0  0  0  0
 30 66  1  0  0  0  0
 30 78  2  0  0  0  0
 31 62  1  0  0  0  0
 31 72  1  0  0  0  0
 31 79  2  0  0  0  0
 32 67  1  0  0  0  0
 32 68  1  0  0  0  0
 32 80  2  0  0  0  0
 33 36  1  0  0  0  0
 34 50  1  0  0  0  0
 35 66  1  0  0  0  0
 36 38  1  0  0  0  0
 37 39  1  0  0  0  0
 37 41  1  0  0  0  0
 38 49  1  0  0  0  0
 39 51  1  0  0  0  0
 40 45  1  0  0  0  0
 40 52  1  0  0  0  0
 41 67  1  0  0  0  0
 42 46  1  0  0  0  0
 42 68  1  0  0  0  0
 43 47  1  0  0  0  0
 43 68  1  0  0  0  0
 44 51  1  0  0  0  0
 44 67  1  0  0  0  0
 45 73  1  0  0  0  0
 46 74  1  0  0  0  0
 47 74  1  0  0  0  0
 48 52  1  0  0  0  0
 48 73  1  0  0  0  0
 49 71  1  0  0  0  0
 50 66  1  0  0  0  0
 51 65  1  0  0  0  0
 52 82  1  0  0  0  0
 53 62  1  0  0  0  0
 54 63  1  0  0  0  0
 55 63  1  0  0  0  0
 56 63  1  0  0  0  0
 57 75  1  0  0  0  0
 58 59  1  0  0  0  0
 58 60  1  0  0  0  0
 59 73  1  0  0  0  0
 60 74  1  0  0  0  0
 61 63  1  0  0  0  0
 61 72  1  0  0  0  0
 62 75  1  0  0  0  0
 64 65  1  0  0  0  0
M  CHG  3  73   1  74   1  75   1
M  ISO  4  32 100  52 101  68 100  82 101
M  END
> <Batch ID>
0194

> <Smiles>
CNC(C)C(=O)NC(C(=O)N1Cc2cc([101O:1][101CH:1]3CCN(CCCN4CC[100N:0]([100C:0](=O)N5CCCC(n6nc(-c7ccc(Oc8ccc(F)cc8F)cc7)c(C(N)=O)c6N)C5)CC4)C3)ccc2CC1C(=O)NC1CCCc2ccccc21)C(C)(C)C

> <Shape>
0.306

> <Color>
0.082

> <Negative vol penalty>
0.000

$$$$

  -OEChem-04052323343D

 83 93  0     1  0  0  0  0  0999 V2000
  -27.4031  -37.7458   21.8639 C   0  0  0  0  0  0  0  0  0  0  0  0
  -27.9609  -36.6803   21.1646 C   0  0  0  0  0  0  0  0  0  0  0  0
  -23.7087  -10.7093   22.2010 C   0  0  0  0  0  0  0  0  0  0  0  0
  -24.2244   -9.3222   20.2913 C   0  0  0  0  0  0  0  0  0  0  0  0
  -26.6263  -37.5047   22.9963 C   0  0  0  0  0  0  0  0  0  0  0  0
  -27.7431  -35.3730   21.5981 C   0  0  0  0  0  0  0  0  0  0  0  0
  -26.9526  -28.7141   19.0779 C   0  0  0  0  0  0  0  0  0  0  0  0
  -22.4410  -10.1325   22.2777 C   0  0  0  0  0  0  0  0  0  0  0  0
  -22.9567   -8.7453   20.3680 C   0  0  0  0  0  0  0  0  0  0  0  0
  -27.4643  -27.4289   19.2517 C   0  0  0  0  0  0  0  0  0  0  0  0
  -19.9869   -6.6498   20.2829 C   0  0  0  0  0  0  0  0  0  0  0  0
  -19.8959   -5.2634   20.1599 C   0  0  0  0  0  0  0  0  0  0  0  0
  -26.0399  -27.1284   21.1753 C   0  0  0  0  0  0  0  0  0  0  0  0
  -21.3100   -4.9985   22.1009 C   0  0  0  0  0  0  0  0  0  0  0  0
  -29.7260  -23.0932   20.8740 C   0  0  0  0  0  0  0  0  0  0  0  0
  -24.6004  -10.3042   21.2078 C   0  0  0  0  0  0  0  0  0  0  0  0
  -27.0849  -10.4590   21.7652 C   0  0  0  0  0  0  0  0  0  0  0  0
  -26.3910  -36.1933   23.4383 C   0  0  0  0  0  0  0  0  0  0  0  0
  -25.9870  -29.2210   19.9595 C   0  0  0  0  0  0  0  0  0  0  0  0
  -26.9636  -35.1141   22.7384 C   0  0  0  0  0  0  0  0  0  0  0  0
  -25.5157  -28.4194   21.0090 C   0  0  0  0  0  0  0  0  0  0  0  0
  -22.0650   -9.1505   21.3612 C   0  0  0  0  0  0  0  0  0  0  0  0
  -27.0101  -26.6369   20.3022 C   0  0  0  0  0  0  0  0  0  0  0  0
  -20.7395   -7.2107   21.3148 C   0  0  0  0  0  0  0  0  0  0  0  0
  -20.5574   -4.4378   21.0689 C   0  0  0  0  0  0  0  0  0  0  0  0
  -21.4010   -6.3850   22.2238 C   0  0  0  0  0  0  0  0  0  0  0  0
  -25.9098  -10.9001   21.1277 C   0  0  0  0  0  0  0  0  0  0  0  0
  -28.8884  -23.5538   19.8150 C   0  0  0  0  0  0  0  0  0  0  0  0
  -29.7651  -21.7460   20.6687 C   0  0  0  0  0  0  0  0  0  0  0  0
  -28.0468  -11.3570   21.3716 C   0  0  0  0  0  0  0  0  0  0  0  0
  -27.2888   -9.3378   22.6352 C   0  0  0  0  0  0  0  0  0  0  0  0
  -25.8623  -31.6688   21.9835 C   0  0  0  0  0  0  0  0  0  0  0  0
  -22.7681  -30.7471   22.2978 C   0  0  0  0  0  0  0  0  0  0  0  0
  -20.4469  -28.2580   22.0475 C   0  0  0  0  0  0  0  0  0  0  0  0
  -27.5746  -17.0030   19.6320 C   0  0  0  0  0  0  0  0  0  0  0  0
  -25.5838  -35.9847   24.6952 C   0  0  0  0  0  0  0  0  0  0  0  0
  -25.4256  -30.5995   19.7426 C   0  0  0  0  0  0  0  0  0  0  0  0
  -24.4655  -28.9093   21.9710 C   0  0  0  0  0  0  0  0  0  0  0  0
  -25.0912  -34.5506   24.8718 C   0  0  0  0  0  0  0  0  0  0  0  0
  -29.2166  -14.2848   17.8004 C   0  0  0  0  0  0  0  0  0  0  0  0
  -26.2213  -33.5614   24.6048 C   0  0  0  0  0  0  0  0  0  0  0  0
  -28.6047  -13.0637   18.4785 C   0  0  0  0  0  0  0  0  0  0  0  0
  -26.6285  -19.7949   18.0227 C   0  0  0  0  0  0  0  0  0  0  0  0
  -28.2359  -15.4550   17.7149 C   0  0  0  0  0  0  0  0  0  0  0  0
  -26.9871  -18.4000   17.5011 C   0  0  0  0  0  0  0  0  0  0  0  0
  -29.8390  -19.4709   20.3077 C   0  0  0  0  0  0  0  0  0  0  0  0
  -27.0248  -14.5966   19.7024 C   0  0  0  0  0  0  0  0  0  0  0  0
  -26.7297  -33.6806   23.1630 C   0  0  1  0  0  0  0  0  0  0  0  0
  -24.8204  -31.2038   21.0058 C   0  0  1  0  0  0  0  0  0  0  0  0
  -28.0270  -13.4432   19.8501 C   0  0  1  0  0  0  0  0  0  0  0  0
  -28.9367  -20.0975   19.2033 C   0  0  1  0  0  0  0  0  0  0  0  0
  -27.5325  -19.5273   19.2358 C   0  0  2  0  0  0  0  0  0  0  0  0
  -18.0068  -27.7964   22.4083 C   0  0  0  0  0  0  0  0  0  0  0  0
  -23.2361  -30.6422   25.3111 C   0  0  0  0  0  0  0  0  0  0  0  0
  -21.1349  -29.2970   25.5203 C   0  0  0  0  0  0  0  0  0  0  0  0
  -21.0397  -31.6254   24.6301 C   0  0  0  0  0  0  0  0  0  0  0  0
  -20.0333  -27.5855   19.1951 C   0  0  0  0  0  0  0  0  0  0  0  0
  -28.4968  -24.9464   19.5354 C   0  0  0  0  0  0  0  0  0  1  0  0
  -22.0239  -29.7897   23.1969 C   0  0  1  0  0  0  0  0  0  0  0  0
  -19.0700  -28.2251   21.4091 C   0  0  2  0  0  0  0  0  0  0  0  0
  -21.8799  -30.3298   24.6478 C   0  0  0  0  0  0  0  0  0  0  0  0
  -26.1050  -11.9934   20.3857 N   0  0  0  0  0  0  0  0  0  0  0  0
  -28.4443  -22.5661   19.0154 N   0  0  0  0  0  0  0  0  0  0  0  0
  -28.9915  -21.5003   19.5907 N   0  0  0  0  0  0  0  0  0  0  0  0
  -27.4139  -12.2469   20.5544 N   0  0  0  0  0  0  0  0  0  0  0  0
  -30.2814  -20.6043   21.1314 N   0  0  0  0  0  0  0  0  0  0  0  0
  -23.9521  -30.2663   21.7209 N   0  0  0  0  0  0  0  0  0  0  0  0
  -27.6185  -15.7487   19.0138 N   0  0  0  0  0  0  0  0  0  0  0  0
  -27.5131  -18.1204   18.8293 N   0  0  0  0  0  0  0  0  0  0  0  0
  -29.3637  -11.4643   21.6483 N   0  0  0  0  0  0  0  0  0  0  0  0
  -26.1929   -8.5175   22.9360 N   0  0  0  0  0  0  0  0  0  0  0  0
  -25.8188  -33.0240   22.2500 N   0  0  0  0  0  0  0  0  0  0  0  0
  -20.7543  -29.5108   22.5344 N   0  0  0  0  0  0  0  0  0  0  0  0
  -19.0521  -27.2703   20.2650 N   0  3  0  0  0  0  0  0  0  0  0  0
  -28.4061   -9.0807   23.1443 O   0  0  0  0  0  0  0  0  0  0  0  0
  -26.6467  -30.8579   22.4618 O   0  0  0  0  0  0  0  0  0  0  0  0
  -22.3119  -31.8775   22.1084 O   0  0  0  0  0  0  0  0  0  0  0  0
  -21.1752  -27.2700   22.1113 O   0  0  0  0  0  0  0  0  0  0  0  0
  -27.5593  -17.1245   20.8641 O   0  0  0  0  0  0  0  0  0  0  0  0
  -20.8282   -8.5873   21.4359 O   0  0  0  0  0  0  0  0  0  0  0  0
  -27.5108  -25.3762   20.4753 O   0  0  0  0  0  0  0  0  0  1  0  0
  -20.4687   -3.1064   20.9517 F   0  0  0  0  0  0  0  0  0  0  0  0
  -22.1246   -6.9180   23.2179 F   0  0  0  0  0  0  0  0  0  0  0  0
  1  2  1  0  0  0  0
  1  5  2  0  0  0  0
  2  6  2  0  0  0  0
  3  8  2  0  0  0  0
  3 16  1  0  0  0  0
  4  9  1  0  0  0  0
  4 16  2  0  0  0  0
  5 18  1  0  0  0  0
  6 20  1  0  0  0  0
  7 10  2  0  0  0  0
  7 19  1  0  0  0  0
  8 22  1  0  0  0  0
  9 22  2  0  0  0  0
 10 23  1  0  0  0  0
 11 12  2  0  0  0  0
 11 24  1  0  0  0  0
 12 25  1  0  0  0  0
 13 21  1  0  0  0  0
 13 23  2  0  0  0  0
 14 25  2  0  0  0  0
 14 26  1  0  0  0  0
 15 28  1  0  0  0  0
 15 29  2  0  0  0  0
 16 27  1  0  0  0  0
 17 27  1  0  0  0  0
 17 30  2  0  0  0  0
 17 31  1  0  0  0  0
 18 20  2  0  0  0  0
 18 36  1  0  0  0  0
 19 21  2  0  0  0  0
 19 37  1  0  0  0  0
 20 48  1  0  0  0  0
 21 38  1  0  0  0  0
 22 80  1  0  0  0  0
 23 81  1  0  0  0  0
 24 26  2  0  0  0  0
 24 80  1  0  0  0  0
 25 82  1  0  0  0  0
 26 83  1  0  0  0  0
 27 62  2  0  0  0  0
 28 58  1  0  0  0  0
 28 63  2  0  0  0  0
 29 64  1  0  0  0  0
 29 66  1  0  0  0  0
 30 65  1  0  0  0  0
 30 70  1  0  0  0  0
 31 71  1  0  0  0  0
 31 75  2  0  0  0  0
 32 49  1  0  0  0  0
 32 72  1  0  0  0  0
 32 76  2  0  0  0  0
 33 59  1  0  0  0  0
 33 67  1  0  0  0  0
 33 77  2  0  0  0  0
 34 60  1  0  0  0  0
 34 73  1  0  0  0  0
 34 78  2  0  0  0  0
 35 68  1  0  0  0  0
 35 69  1  0  0  0  0
 35 79  2  0  0  0  0
 36 39  1  0  0  0  0
 37 49  1  0  0  0  0
 38 67  1  0  0  0  0
 39 41  1  0  0  0  0
 40 42  1  0  0  0  0
 40 44  1  0  0  0  0
 41 48  1  0  0  0  0
 42 50  1  0  0  0  0
 43 45  1  0  0  0  0
 43 52  1  0  0  0  0
 44 68  1  0  0  0  0
 45 69  1  0  0  0  0
 46 51  1  0  0  0  0
 46 66  1  0  0  0  0
 47 50  1  0  0  0  0
 47 68  1  0  0  0  0
 48 72  1  0  0  0  0
 49 67  1  0  0  0  0
 50 65  1  0  0  0  0
 51 52  1  0  0  0  0
 51 64  1  0  0  0  0
 52 69  1  0  0  0  0
 53 60  1  0  0  0  0
 54 61  1  0  0  0  0
 55 61  1  0  0  0  0
 56 61  1  0  0  0  0
 57 74  1  0  0  0  0
 58 81  1  0  0  0  0
 59 61  1  0  0  0  0
 59 73  1  0  0  0  0
 60 74  1  0  0  0  0
 62 65  1  0  0  0  0
 63 64  1  0  0  0  0
M  CHG  1  74   1
M  ISO  4  35 100  58 101  69 100  81 101
M  END
> <Batch ID>
0194

> <Smiles>
CNC(C)C(=O)NC(C(=O)N1Cc2cc([101O:1][101CH2:1]c3cc4n(n3)C(C3CC[100N:0]3[100C:0](=O)N3CCCC(n5nc(-c6ccc(Oc7ccc(F)cc7F)cc6)c(C(N)=O)c5N)C3)CN4)ccc2CC1C(=O)NC1CCCc2ccccc21)C(C)(C)C

> <Shape>
0.326

> <Color>
0.086

> <Negative vol penalty>
0.000

$$$$

  -OEChem-04052323343D

 84 93  0     1  0  0  0  0  0999 V2000
  -30.6281  -25.4972   18.3208 C   0  0  0  0  0  0  0  0  0  0  0  0
  -29.2774  -25.3524   18.6208 C   0  0  0  0  0  0  0  0  0  0  0  0
  -26.2290  -12.3761   21.0890 C   0  0  0  0  0  0  0  0  0  0  0  0
  -26.0739  -12.8352   18.7221 C   0  0  0  0  0  0  0  0  0  0  0  0
  -31.4400  -26.2895   19.1314 C   0  0  0  0  0  0  0  0  0  0  0  0
  -28.7379  -25.9991   19.7322 C   0  0  0  0  0  0  0  0  0  0  0  0
  -23.1081  -28.3536   20.2484 C   0  0  0  0  0  0  0  0  0  0  0  0
  -25.7386  -11.0885   20.8713 C   0  0  0  0  0  0  0  0  0  0  0  0
  -25.5836  -11.5476   18.5044 C   0  0  0  0  0  0  0  0  0  0  0  0
  -21.9366  -27.8657   20.8257 C   0  0  0  0  0  0  0  0  0  0  0  0
  -24.1877   -7.8013   20.9835 C   0  0  0  0  0  0  0  0  0  0  0  0
  -23.2009   -7.3269   21.8477 C   0  0  0  0  0  0  0  0  0  0  0  0
  -22.4338  -29.0822   22.8486 C   0  0  0  0  0  0  0  0  0  0  0  0
  -21.7530   -9.1469   21.1935 C   0  0  0  0  0  0  0  0  0  0  0  0
  -26.3966  -13.2494   20.0143 C   0  0  0  0  0  0  0  0  0  0  0  0
  -28.2493  -14.9898   20.2297 C   0  0  0  0  0  0  0  0  0  0  0  0
  -30.9082  -26.9541   20.2477 C   0  0  0  0  0  0  0  0  0  0  0  0
  -23.9582  -29.2023   20.9720 C   0  0  0  0  0  0  0  0  0  0  0  0
  -29.5437  -26.8001   20.5592 C   0  0  0  0  0  0  0  0  0  0  0  0
  -23.6142  -29.5817   22.2773 C   0  0  0  0  0  0  0  0  0  0  0  0
  -25.4159  -10.6743   19.5791 C   0  0  0  0  0  0  0  0  0  0  0  0
  -21.6008  -28.2276   22.1270 C   0  0  0  0  0  0  0  0  0  0  0  0
  -23.9572   -8.9486   20.2244 C   0  0  0  0  0  0  0  0  0  0  0  0
  -21.9835   -7.9997   21.9526 C   0  0  0  0  0  0  0  0  0  0  0  0
  -22.7398   -9.6214   20.3293 C   0  0  0  0  0  0  0  0  0  0  0  0
  -26.9026  -14.5798   20.2386 C   0  0  0  0  0  0  0  0  0  0  0  0
  -28.1999  -16.3368   20.4934 C   0  0  0  0  0  0  0  0  0  0  0  0
  -29.4386  -14.2217   20.0032 C   0  0  0  0  0  0  0  0  0  0  0  0
  -21.6332  -23.2903   24.2233 C   0  0  0  0  0  0  0  0  0  0  0  0
  -26.9669  -29.0327   21.9832 C   0  0  0  0  0  0  0  0  0  0  0  0
  -26.4266  -32.1015   22.8849 C   0  0  0  0  0  0  0  0  0  0  0  0
  -24.1724  -34.5111   23.7560 C   0  0  0  0  0  0  0  0  0  0  0  0
  -23.8577  -19.4771   23.2919 C   0  0  0  0  0  0  0  0  0  0  0  0
  -31.8351  -27.7617   21.1214 C   0  0  0  0  0  0  0  0  0  0  0  0
  -25.2047  -29.7415   20.3255 C   0  0  0  0  0  0  0  0  0  0  0  0
  -24.4826  -30.5063   23.0892 C   0  0  0  0  0  0  0  0  0  0  0  0
  -31.1062  -28.7144   22.0654 C   0  0  0  0  0  0  0  0  0  0  0  0
  -25.3736  -20.1591   19.9746 C   0  0  0  0  0  0  0  0  0  0  0  0
  -29.9518  -27.9987   22.7597 C   0  0  0  0  0  0  0  0  0  0  0  0
  -16.9671  -26.0011   24.8708 C   0  0  0  0  0  0  0  0  0  0  0  0
  -17.1772  -27.4715   25.1022 C   0  0  0  0  0  0  0  0  0  0  0  0
  -26.0203  -18.8099   19.6575 C   0  0  0  0  0  0  0  0  0  0  0  0
  -24.1224  -23.0343   24.1850 C   0  0  0  0  0  0  0  0  0  0  0  0
  -24.1252  -19.9779   20.8281 C   0  0  0  0  0  0  0  0  0  0  0  0
  -24.2462  -21.9980   23.0745 C   0  0  0  0  0  0  0  0  0  0  0  0
  -22.7684  -21.1434   24.7673 C   0  0  0  0  0  0  0  0  0  0  0  0
  -24.9984  -17.8836   21.7915 C   0  0  0  0  0  0  0  0  0  0  0  0
  -28.9163  -27.5056   21.7418 C   0  0  1  0  0  0  0  0  0  0  0  0
  -22.8205  -22.6604   24.8873 C   0  0  2  0  0  0  0  0  0  0  0  0
  -26.2567  -30.1879   21.3361 C   0  0  1  0  0  0  0  0  0  0  0  0
  -18.0845  -26.7206   24.1675 C   0  0  0  0  0  0  0  0  0  0  0  0
  -26.2759  -17.9995   20.9413 C   0  0  1  0  0  0  0  0  0  0  0  0
  -24.0338  -36.9109   24.4767 C   0  0  0  0  0  0  0  0  0  0  0  0
  -27.3653  -31.3139   25.6793 C   0  0  0  0  0  0  0  0  0  0  0  0
  -26.3261  -33.4203   26.5462 C   0  0  0  0  0  0  0  0  0  0  0  0
  -28.1885  -33.5400   24.8910 C   0  0  0  0  0  0  0  0  0  0  0  0
  -22.5621  -35.2509   21.3856 C   0  0  0  0  0  0  0  0  0  0  0  0
  -21.1935  -24.6240   24.7745 C   0  0  0  0  0  0  0  0  0  0  0  0
  -20.4589  -27.5756   24.1086 C   0  0  0  0  0  0  0  0  0  1  0  0
  -25.9024  -32.7731   24.1311 C   0  0  1  0  0  0  0  0  0  0  0  0
  -24.0081  -35.9493   23.2988 C   0  0  2  0  0  0  0  0  0  0  0  0
  -19.5123  -26.4575   24.5493 C   0  0  2  0  0  0  0  0  0  0  0  0
  -26.9300  -32.7428   25.2976 C   0  0  0  0  0  0  0  0  0  0  0  0
  -26.0592  -15.5849   20.4883 N   0  0  0  0  0  0  0  0  0  0  0  0
  -26.8781  -16.6399   20.6388 N   0  0  0  0  0  0  0  0  0  0  0  0
  -25.6941  -31.0020   22.4154 N   0  0  0  0  0  0  0  0  0  0  0  0
  -24.4180  -19.2052   22.0385 N   0  0  0  0  0  0  0  0  0  0  0  0
  -23.5769  -20.8086   23.5978 N   0  0  0  0  0  0  0  0  0  0  0  0
  -29.1586  -17.2797   20.6128 N   0  0  0  0  0  0  0  0  0  0  0  0
  -29.3093  -12.8499   19.7464 N   0  0  0  0  0  0  0  0  0  0  0  0
  -28.0850  -28.6026   21.2947 N   0  0  0  0  0  0  0  0  0  0  0  0
  -25.4928  -34.1147   23.7303 N   0  0  0  0  0  0  0  0  0  0  0  0
  -22.7132  -36.1199   22.5810 N   0  3  0  0  0  0  0  0  0  0  0  0
  -20.0365  -25.1673   24.0230 N   0  3  0  0  0  0  0  0  0  0  0  0
  -30.5832  -14.7333   20.0442 O   0  0  0  0  0  0  0  0  0  0  0  0
  -21.0636  -22.7375   23.2835 O   0  0  0  0  0  0  0  0  0  0  0  0
  -26.5333  -28.5671   23.0306 O   0  0  0  0  0  0  0  0  0  0  0  0
  -27.4444  -32.5407   22.3438 O   0  0  0  0  0  0  0  0  0  0  0  0
  -23.2247  -33.8107   24.1049 O   0  0  0  0  0  0  0  0  0  0  0  0
  -23.6635  -18.5769   24.1195 O   0  0  0  0  0  0  0  0  0  0  0  0
  -24.9375   -9.4179   19.3663 O   0  0  0  0  0  0  0  0  0  0  0  0
  -20.4503  -27.7489   22.6970 O   0  0  0  0  0  0  0  0  0  1  0  0
  -21.0354   -7.5431   22.7814 F   0  0  0  0  0  0  0  0  0  0  0  0
  -22.5121  -10.7234   19.6017 F   0  0  0  0  0  0  0  0  0  0  0  0
  1  2  1  0  0  0  0
  1  5  2  0  0  0  0
  2  6  2  0  0  0  0
  3  8  2  0  0  0  0
  3 15  1  0  0  0  0
  4  9  1  0  0  0  0
  4 15  2  0  0  0  0
  5 17  1  0  0  0  0
  6 19  1  0  0  0  0
  7 10  2  0  0  0  0
  7 18  1  0  0  0  0
  8 21  1  0  0  0  0
  9 21  2  0  0  0  0
 10 22  1  0  0  0  0
 11 12  2  0  0  0  0
 11 23  1  0  0  0  0
 12 24  1  0  0  0  0
 13 20  1  0  0  0  0
 13 22  2  0  0  0  0
 14 24  2  0  0  0  0
 14 25  1  0  0  0  0
 15 26  1  0  0  0  0
 16 26  1  0  0  0  0
 16 27  2  0  0  0  0
 16 28  1  0  0  0  0
 17 19  2  0  0  0  0
 17 34  1  0  0  0  0
 18 20  2  0  0  0  0
 18 35  1  0  0  0  0
 19 48  1  0  0  0  0
 20 36  1  0  0  0  0
 21 81  1  0  0  0  0
 22 82  1  0  0  0  0
 23 25  2  0  0  0  0
 23 81  1  0  0  0  0
 24 83  1  0  0  0  0
 25 84  1  0  0  0  0
 26 64  2  0  0  0  0
 27 65  1  0  0  0  0
 27 69  1  0  0  0  0
 28 70  1  0  0  0  0
 28 75  2  0  0  0  0
 29 49  1  0  0  0  0
 29 58  1  0  0  0  0
 29 76  2  0  0  0  0
 30 50  1  0  0  0  0
 30 71  1  0  0  0  0
 30 77  2  0  0  0  0
 31 60  1  0  0  0  0
 31 66  1  0  0  0  0
 31 78  2  0  0  0  0
 32 61  1  0  0  0  0
 32 72  1  0  0  0  0
 32 79  2  0  0  0  0
 33 67  1  0  0  0  0
 33 68  1  0  0  0  0
 33 80  2  0  0  0  0
 34 37  1  0  0  0  0
 35 50  1  0  0  0  0
 36 66  1  0  0  0  0
 37 39  1  0  0  0  0
 38 42  1  0  0  0  0
 38 44  1  0  0  0  0
 39 48  1  0  0  0  0
 40 41  1  0  0  0  0
 40 51  1  0  0  0  0
 41 51  1  0  0  0  0
 42 52  1  0  0  0  0
 43 45  1  0  0  0  0
 43 49  1  0  0  0  0
 44 67  1  0  0  0  0
 45 68  1  0  0  0  0
 46 49  1  0  0  0  0
 46 68  1  0  0  0  0
 47 52  1  0  0  0  0
 47 67  1  0  0  0  0
 48 71  1  0  0  0  0
 50 66  1  0  0  0  0
 51 62  1  0  0  0  0
 52 65  1  0  0  0  0
 53 61  1  0  0  0  0
 54 63  1  0  0  0  0
 55 63  1  0  0  0  0
 56 63  1  0  0  0  0
 57 73  1  0  0  0  0
 58 74  1  0  0  0  0
 59 62  1  0  0  0  0
 59 82  1  0  0  0  0
 60 63  1  0  0  0  0
 60 72  1  0  0  0  0
 61 73  1  0  0  0  0
 62 74  1  0  0  0  0
 64 65  1  0  0  0  0
M  CHG  2  73   1  74   1
M  ISO  4  33 100  59 101  68 100  82 101
M  END
> <Batch ID>
0194

> <Smiles>
CNC(C)C(=O)NC(C(=O)N1Cc2cc([101O:1][101CH2:1]C(NCC(=O)C3CC[100N:0]([100C:0](=O)N4CCCC(n5nc(-c6ccc(Oc7ccc(F)cc7F)cc6)c(C(N)=O)c5N)C4)C3)C3CC3)ccc2CC1C(=O)NC1CCCc2ccccc21)C(C)(C)C

> <Shape>
0.299

> <Color>
0.059

> <Negative vol penalty>
0.000

$$$$

  -OEChem-04052323343D

 90 99  0     1  0  0  0  0  0999 V2000
  -31.9094  -17.3094   22.2298 C   0  0  0  0  0  0  0  0  0  0  0  0
  -32.0209  -16.1133   22.2320 C   0  0  0  0  0  0  0  0  0  0  0  0
  -26.6520  -37.4703   25.3134 C   0  0  0  0  0  0  0  0  0  0  0  0
  -26.9670  -36.1345   25.5412 C   0  0  0  0  0  0  0  0  0  0  0  0
  -23.6894   -9.7870   21.3433 C   0  0  0  0  0  0  0  0  0  0  0  0
  -24.5909  -10.5823   23.4391 C   0  0  0  0  0  0  0  0  0  0  0  0
  -25.4242  -37.8089   24.7464 C   0  0  0  0  0  0  0  0  0  0  0  0
  -26.0537  -35.1365   25.2031 C   0  0  0  0  0  0  0  0  0  0  0  0
  -28.2328  -31.2348   22.8213 C   0  0  0  0  0  0  0  0  0  0  0  0
  -23.1839   -8.6586   21.9889 C   0  0  0  0  0  0  0  0  0  0  0  0
  -24.0853   -9.4539   24.0847 C   0  0  0  0  0  0  0  0  0  0  0  0
  -28.9316  -30.3191   23.6068 C   0  0  0  0  0  0  0  0  0  0  0  0
  -20.5334   -7.8830   23.9398 C   0  0  0  0  0  0  0  0  0  0  0  0
  -19.2260   -7.4978   23.6434 C   0  0  0  0  0  0  0  0  0  0  0  0
  -27.0386  -28.8254   23.5386 C   0  0  0  0  0  0  0  0  0  0  0  0
  -20.0342   -5.3614   22.8560 C   0  0  0  0  0  0  0  0  0  0  0  0
  -32.8849  -19.5494   22.2131 C   0  0  0  0  0  0  0  0  0  0  0  0
  -31.7753  -18.7291   22.2266 C   0  0  0  0  0  0  0  0  0  0  0  0
  -24.3929  -10.7488   22.0684 C   0  0  0  0  0  0  0  0  0  0  0  0
  -24.2661  -13.1488   21.2132 C   0  0  0  0  0  0  0  0  0  0  0  0
  -24.4993  -36.8140   24.3922 C   0  0  0  0  0  0  0  0  0  0  0  0
  -26.9255  -30.9569   22.3969 C   0  0  0  0  0  0  0  0  0  0  0  0
  -24.8117  -35.4622   24.6320 C   0  0  0  0  0  0  0  0  0  0  0  0
  -26.3264  -29.7381   22.7456 C   0  0  0  0  0  0  0  0  0  0  0  0
  -23.3819   -8.4920   23.3596 C   0  0  0  0  0  0  0  0  0  0  0  0
  -28.3334  -29.1155   23.9680 C   0  0  0  0  0  0  0  0  0  0  0  0
  -21.5912   -7.0075   23.6943 C   0  0  0  0  0  0  0  0  0  0  0  0
  -18.9764   -6.2370   23.1014 C   0  0  0  0  0  0  0  0  0  0  0  0
  -21.3416   -5.7467   23.1524 C   0  0  0  0  0  0  0  0  0  0  0  0
  -24.9159  -11.9144   21.4019 C   0  0  0  0  0  0  0  0  0  0  0  0
  -30.5557  -19.3748   22.2358 C   0  0  0  0  0  0  0  0  0  0  0  0
  -25.1782  -13.9161   20.5307 C   0  0  0  0  0  0  0  0  0  0  0  0
  -31.5745  -21.4067   22.2184 C   0  0  0  0  0  0  0  0  0  0  0  0
  -22.9553  -13.5648   21.6187 C   0  0  0  0  0  0  0  0  0  0  0  0
  -24.0836  -32.3043   22.8571 C   0  0  0  0  0  0  0  0  0  0  0  0
  -23.1168  -30.0877   20.6951 C   0  0  0  0  0  0  0  0  0  0  0  0
  -23.6642  -27.0708   19.1966 C   0  0  0  0  0  0  0  0  0  0  0  0
  -31.1518  -13.7736   20.1482 C   0  0  0  0  0  0  0  0  0  0  0  0
  -23.1654  -37.2314   23.8255 C   0  0  0  0  0  0  0  0  0  0  0  0
  -26.1951  -31.9435   21.5277 C   0  0  0  0  0  0  0  0  0  0  0  0
  -24.9326  -29.3830   22.2988 C   0  0  0  0  0  0  0  0  0  0  0  0
  -22.4068  -36.0917   23.1504 C   0  0  0  0  0  0  0  0  0  0  0  0
  -28.8285  -13.5480   17.4597 C   0  0  0  0  0  0  0  0  0  0  0  0
  -22.4240  -34.8449   24.0290 C   0  0  0  0  0  0  0  0  0  0  0  0
  -27.5036  -13.2151   18.1482 C   0  0  0  0  0  0  0  0  0  0  0  0
  -30.3627  -24.9111   21.6749 C   0  0  0  0  0  0  0  0  0  0  0  0
  -29.5938  -23.4950   23.6201 C   0  0  0  0  0  0  0  0  0  0  0  0
  -30.0088  -12.8651   18.1471 C   0  0  0  0  0  0  0  0  0  0  0  0
  -28.7862  -12.7831   20.2853 C   0  0  0  0  0  0  0  0  0  0  0  0
  -31.0732  -25.8459   22.6471 C   0  0  0  0  0  0  0  0  0  0  0  0
  -30.3195  -24.4337   24.5764 C   0  0  0  0  0  0  0  0  0  0  0  0
  -23.8575  -34.3495   24.2559 C   0  0  1  0  0  0  0  0  0  0  0  0
  -24.6793  -31.7796   21.5814 C   0  0  1  0  0  0  0  0  0  0  0  0
  -27.5727  -13.4937   19.6617 C   0  0  2  0  0  0  0  0  0  0  0  0
  -30.2095  -23.4888   22.2195 C   0  0  0  0  0  0  0  0  0  0  0  0
  -29.2789  -18.5984   22.2526 C   0  0  0  0  0  0  0  0  0  0  0  0
  -22.6818  -25.5091   17.4955 C   0  0  0  0  0  0  0  0  0  0  0  0
  -20.9991  -29.2238   22.7148 C   0  0  0  0  0  0  0  0  0  0  0  0
  -20.7035  -27.1150   21.3980 C   0  0  0  0  0  0  0  0  0  0  0  0
  -20.2034  -29.3208   20.3458 C   0  0  0  0  0  0  0  0  0  0  0  0
  -26.0637  -27.2523   17.4737 C   0  0  0  0  0  0  0  0  0  0  0  0
  -32.1591  -14.6579   22.2369 C   0  0  0  0  0  0  0  0  0  0  0  0
  -30.9549  -26.8168   24.9399 C   0  0  0  0  0  0  0  0  0  0  0  0
  -30.4340  -28.2007   24.6059 C   0  0  0  0  0  0  0  0  0  1  0  0
  -22.6083  -28.6684   20.7736 C   0  0  1  0  0  0  0  0  0  0  0  0
  -23.6529  -26.6543   17.7368 C   0  0  2  0  0  0  0  0  0  0  0  0
  -21.1541  -28.5893   21.3182 C   0  0  0  0  0  0  0  0  0  0  0  0
  -32.8209  -20.8970   22.2086 N   0  0  0  0  0  0  0  0  0  0  0  0
  -26.1457  -11.8941   20.8812 N   0  0  0  0  0  0  0  0  0  0  0  0
  -30.4180  -20.7169   22.2321 N   0  0  0  0  0  0  0  0  0  0  0  0
  -26.2759  -13.1253   20.3585 N   0  0  0  0  0  0  0  0  0  0  0  0
  -24.2571  -30.3831   21.4556 N   0  0  0  0  0  0  0  0  0  0  0  0
  -30.0176  -13.1709   19.5797 N   0  0  0  0  0  0  0  0  0  0  0  0
  -25.1402  -15.1834   20.0669 N   0  0  0  0  0  0  0  0  0  0  0  0
  -22.1488  -12.6514   22.3113 N   0  0  0  0  0  0  0  0  0  0  0  0
  -31.4713  -22.7844   22.2124 N   0  0  0  0  0  0  0  0  0  0  0  0
  -24.3386  -33.6426   23.0884 N   0  0  0  0  0  0  0  0  0  0  0  0
  -22.7791  -28.0994   19.4411 N   0  0  0  0  0  0  0  0  0  0  0  0
  -31.0748  -14.0353   21.5107 N   0  0  0  0  0  0  0  0  0  0  0  0
  -30.3660  -25.8196   23.9801 N   0  3  0  0  0  0  0  0  0  0  0  0
  -25.0124  -26.2150   17.3129 N   0  3  0  0  0  0  0  0  0  0  0  0
  -22.5060  -14.7070   21.3596 O   0  0  0  0  0  0  0  0  0  0  0  0
  -23.4390  -31.5512   23.5775 O   0  0  0  0  0  0  0  0  0  0  0  0
  -22.5285  -30.9022   19.9796 O   0  0  0  0  0  0  0  0  0  0  0  0
  -24.3834  -26.5345   20.0367 O   0  0  0  0  0  0  0  0  0  0  0  0
  -32.1565  -14.0624   19.4893 O   0  0  0  0  0  0  0  0  0  0  0  0
  -22.8885   -7.3912   23.9900 O   0  0  0  0  0  0  0  0  0  0  0  0
  -29.0130  -28.2202   24.7352 O   0  0  0  0  0  0  0  0  0  1  0  0
  -17.7207   -5.8665   22.8182 F   0  0  0  0  0  0  0  0  0  0  0  0
  -22.3536   -4.9008   22.9155 F   0  0  0  0  0  0  0  0  0  0  0  0
  1  2  3  0  0  0  0
  1 18  1  0  0  0  0
  2 62  1  0  0  0  0
  3  4  1  0  0  0  0
  3  7  2  0  0  0  0
  4  8  2  0  0  0  0
  5 10  2  0  0  0  0
  5 19  1  0  0  0  0
  6 11  1  0  0  0  0
  6 19  2  0  0  0  0
  7 21  1  0  0  0  0
  8 23  1  0  0  0  0
  9 12  2  0  0  0  0
  9 22  1  0  0  0  0
 10 25  1  0  0  0  0
 11 25  2  0  0  0  0
 12 26  1  0  0  0  0
 13 14  2  0  0  0  0
 13 27  1  0  0  0  0
 14 28  1  0  0  0  0
 15 24  1  0  0  0  0
 15 26  2  0  0  0  0
 16 28  2  0  0  0  0
 16 29  1  0  0  0  0
 17 18  1  0  0  0  0
 17 68  2  0  0  0  0
 18 31  2  0  0  0  0
 19 30  1  0  0  0  0
 20 30  1  0  0  0  0
 20 32  2  0  0  0  0
 20 34  1  0  0  0  0
 21 23  2  0  0  0  0
 21 39  1  0  0  0  0
 22 24  2  0  0  0  0
 22 40  1  0  0  0  0
 23 52  1  0  0  0  0
 24 41  1  0  0  0  0
 25 87  1  0  0  0  0
 26 88  1  0  0  0  0
 27 29  2  0  0  0  0
 27 87  1  0  0  0  0
 28 89  1  0  0  0  0
 29 90  1  0  0  0  0
 30 69  2  0  0  0  0
 31 56  1  0  0  0  0
 31 70  1  0  0  0  0
 32 71  1  0  0  0  0
 32 74  1  0  0  0  0
 33 68  1  0  0  0  0
 33 70  2  0  0  0  0
 33 76  1  0  0  0  0
 34 75  1  0  0  0  0
 34 82  2  0  0  0  0
 35 53  1  0  0  0  0
 35 77  1  0  0  0  0
 35 83  2  0  0  0  0
 36 65  1  0  0  0  0
 36 72  1  0  0  0  0
 36 84  2  0  0  0  0
 37 66  1  0  0  0  0
 37 78  1  0  0  0  0
 37 85  2  0  0  0  0
 38 73  1  0  0  0  0
 38 79  1  0  0  0  0
 38 86  2  0  0  0  0
 39 42  1  0  0  0  0
 40 53  1  0  0  0  0
 41 72  1  0  0  0  0
 42 44  1  0  0  0  0
 43 45  1  0  0  0  0
 43 48  1  0  0  0  0
 44 52  1  0  0  0  0
 45 54  1  0  0  0  0
 46 50  1  0  0  0  0
 46 55  1  0  0  0  0
 47 51  1  0  0  0  0
 47 55  1  0  0  0  0
 48 73  1  0  0  0  0
 49 54  1  0  0  0  0
 49 73  1  0  0  0  0
 50 80  1  0  0  0  0
 51 80  1  0  0  0  0
 52 77  1  0  0  0  0
 53 72  1  0  0  0  0
 54 71  1  0  0  0  0
 55 76  1  0  0  0  0
 57 66  1  0  0  0  0
 58 67  1  0  0  0  0
 59 67  1  0  0  0  0
 60 67  1  0  0  0  0
 61 81  1  0  0  0  0
 62 79  1  0  0  0  0
 63 64  1  0  0  0  0
 63 80  1  0  0  0  0
 64 88  1  0  0  0  0
 65 67  1  0  0  0  0
 65 78  1  0  0  0  0
 66 81  1  0  0  0  0
 69 71  1  0  0  0  0
M  CHG  2  80   1  81   1
M  ISO  4  38 100  64 101  79 100  88 101
M  END
> <Batch ID>
0194

> <Smiles>
CNC(C)C(=O)NC(C(=O)N1Cc2cc([101O:1][101CH2:1]CN3CCC(Nc4ncc(C#CC[100NH:0][100C:0](=O)N5CCCC(n6nc(-c7ccc(Oc8ccc(F)cc8F)cc7)c(C(N)=O)c6N)C5)c(C)n4)CC3)ccc2CC1C(=O)NC1CCCc2ccccc21)C(C)(C)C

> <Shape>
0.308

> <Color>
0.126

> <Negative vol penalty>
0.000

$$$$

  -OEChem-04052323343D

 79 87  0     1  0  0  0  0  0999 V2000
  -17.9825  -32.0519   20.3084 C   0  0  0  0  0  0  0  0  0  0  0  0
  -19.3050  -31.9470   19.8898 C   0  0  0  0  0  0  0  0  0  0  0  0
  -24.4021  -15.0010   21.3654 C   0  0  0  0  0  0  0  0  0  0  0  0
  -26.1832  -13.3830   21.5821 C   0  0  0  0  0  0  0  0  0  0  0  0
  -17.6182  -31.6126   21.5805 C   0  0  0  0  0  0  0  0  0  0  0  0
  -20.2644  -31.4037   20.7436 C   0  0  0  0  0  0  0  0  0  0  0  0
  -25.1007  -27.9989   19.1552 C   0  0  0  0  0  0  0  0  0  0  0  0
  -23.6035  -14.0391   20.7468 C   0  0  0  0  0  0  0  0  0  0  0  0
  -25.3846  -12.4211   20.9636 C   0  0  0  0  0  0  0  0  0  0  0  0
  -26.4460  -28.3116   18.9646 C   0  0  0  0  0  0  0  0  0  0  0  0
  -23.6844   -9.4387   19.7665 C   0  0  0  0  0  0  0  0  0  0  0  0
  -23.6439   -8.1655   20.3347 C   0  0  0  0  0  0  0  0  0  0  0  0
  -26.9228  -27.6096   21.2227 C   0  0  0  0  0  0  0  0  0  0  0  0
  -22.7856   -9.1086   22.3868 C   0  0  0  0  0  0  0  0  0  0  0  0
  -25.6920  -14.6730   21.7830 C   0  0  0  0  0  0  0  0  0  0  0  0
  -26.6021  -15.9437   23.7990 C   0  0  0  0  0  0  0  0  0  0  0  0
  -18.5717  -31.0547   22.4467 C   0  0  0  0  0  0  0  0  0  0  0  0
  -24.6538  -27.4987   20.3866 C   0  0  0  0  0  0  0  0  0  0  0  0
  -19.9127  -30.9577   22.0290 C   0  0  0  0  0  0  0  0  0  0  0  0
  -25.5718  -27.2889   21.4256 C   0  0  0  0  0  0  0  0  0  0  0  0
  -24.0947  -12.7492   20.5460 C   0  0  0  0  0  0  0  0  0  0  0  0
  -27.3568  -28.1196   19.9994 C   0  0  0  0  0  0  0  0  0  0  0  0
  -23.2756  -10.5469   20.5085 C   0  0  0  0  0  0  0  0  0  0  0  0
  -23.1944   -8.0004   21.6449 C   0  0  0  0  0  0  0  0  0  0  0  0
  -22.8261  -10.3819   21.8186 C   0  0  0  0  0  0  0  0  0  0  0  0
  -26.5176  -15.6664   22.4214 C   0  0  0  0  0  0  0  0  0  0  0  0
  -27.5184  -16.9630   23.8885 C   0  0  0  0  0  0  0  0  0  0  0  0
  -25.9141  -15.3343   24.8995 C   0  0  0  0  0  0  0  0  0  0  0  0
  -22.6109  -28.5002   22.6064 C   0  0  0  0  0  0  0  0  0  0  0  0
  -23.2160  -25.5956   23.9177 C   0  0  0  0  0  0  0  0  0  0  0  0
  -25.3393  -22.9418   24.2266 C   0  0  0  0  0  0  0  0  0  0  0  0
  -29.0869  -21.0992   19.9440 C   0  0  0  0  0  0  0  0  0  0  0  0
  -18.1395  -30.6372   23.8300 C   0  0  0  0  0  0  0  0  0  0  0  0
  -23.2040  -27.1412   20.5675 C   0  0  0  0  0  0  0  0  0  0  0  0
  -25.1463  -26.7353   22.7601 C   0  0  0  0  0  0  0  0  0  0  0  0
  -19.1445  -29.7291   24.5340 C   0  0  0  0  0  0  0  0  0  0  0  0
  -31.3321  -18.7895   21.6945 C   0  0  0  0  0  0  0  0  0  0  0  0
  -20.5579  -30.2846   24.3904 C   0  0  0  0  0  0  0  0  0  0  0  0
  -30.3493  -17.7176   22.1534 C   0  0  0  0  0  0  0  0  0  0  0  0
  -30.0954  -22.6279   17.1288 C   0  0  0  0  0  0  0  0  0  0  0  0
  -30.9433  -19.3958   20.3456 C   0  0  0  0  0  0  0  0  0  0  0  0
  -30.6333  -21.3915   17.8557 C   0  0  0  0  0  0  0  0  0  0  0  0
  -28.5651  -18.8301   20.7669 C   0  0  0  0  0  0  0  0  0  0  0  0
  -20.9775  -30.3512   22.9170 C   0  0  1  0  0  0  0  0  0  0  0  0
  -22.7713  -27.1218   22.0303 C   0  0  1  0  0  0  0  0  0  0  0  0
  -28.9150  -18.2668   22.1513 C   0  0  1  0  0  0  0  0  0  0  0  0
  -29.5632  -23.1369   18.4771 C   0  0  2  0  0  0  0  0  0  0  0  0
  -26.1418  -20.6719   24.9345 C   0  0  0  0  0  0  0  0  0  0  0  0
  -23.9125  -27.0495   26.5083 C   0  0  0  0  0  0  0  0  0  0  0  0
  -25.0254  -24.9528   27.3041 C   0  0  0  0  0  0  0  0  0  0  0  0
  -22.5797  -24.9554   26.8132 C   0  0  0  0  0  0  0  0  0  0  0  0
  -24.1703  -21.6539   21.8320 C   0  0  0  0  0  0  0  0  0  0  0  0
  -30.3995  -24.1599   19.2201 C   0  0  0  0  0  0  0  0  0  0  0  0
  -30.6639  -27.9223   18.5734 C   0  0  0  0  0  0  0  0  0  0  0  0
  -30.9224  -26.6015   19.2826 C   0  0  0  0  0  0  0  0  0  0  0  0
  -29.1891  -28.2971   18.4938 C   0  0  0  0  0  0  0  0  0  1  0  0
  -24.2282  -25.0555   24.8989 C   0  0  1  0  0  0  0  0  0  0  0  0
  -25.1001  -21.4451   24.1408 C   0  0  2  0  0  0  0  0  0  0  0  0
  -23.9444  -25.5156   26.3567 C   0  0  0  0  0  0  0  0  0  0  0  0
  -27.3163  -16.4466   21.6884 N   0  0  0  0  0  0  0  0  0  0  0  0
  -27.9113  -17.2243   22.6088 N   0  0  0  0  0  0  0  0  0  0  0  0
  -23.7170  -26.4071   22.8900 N   0  0  0  0  0  0  0  0  0  0  0  0
  -29.5420  -19.8320   20.3242 N   0  0  0  0  0  0  0  0  0  0  0  0
  -29.7969  -21.7818   18.9813 N   0  0  0  0  0  0  0  0  0  0  0  0
  -28.0181  -17.6524   24.9361 N   0  0  0  0  0  0  0  0  0  0  0  0
  -25.0067  -14.3006   24.6302 N   0  0  0  0  0  0  0  0  0  0  0  0
  -21.3490  -29.0373   22.4375 N   0  0  0  0  0  0  0  0  0  0  0  0
  -24.2374  -23.6076   24.7203 N   0  0  0  0  0  0  0  0  0  0  0  0
  -25.1581  -20.9917   22.7224 N   0  3  0  0  0  0  0  0  0  0  0  0
  -30.1957  -25.4915   18.6055 N   0  3  0  0  0  0  0  0  0  0  0  0
  -26.0862  -15.7069   26.0848 O   0  0  0  0  0  0  0  0  0  0  0  0
  -23.5613  -29.0362   23.1643 O   0  0  0  0  0  0  0  0  0  0  0  0
  -22.0255  -25.3024   24.0539 O   0  0  0  0  0  0  0  0  0  0  0  0
  -26.3990  -23.4672   23.8926 O   0  0  0  0  0  0  0  0  0  0  0  0
  -28.0603  -21.5966   20.4251 O   0  0  0  0  0  0  0  0  0  0  0  0
  -23.3156  -11.8102   19.9426 O   0  0  0  0  0  0  0  0  0  0  0  0
  -28.6795  -28.4267   19.8150 O   0  0  0  0  0  0  0  0  0  1  0  0
  -23.1541   -6.7775   22.1899 F   0  0  0  0  0  0  0  0  0  0  0  0
  -22.4309  -11.4426   22.5359 F   0  0  0  0  0  0  0  0  0  0  0  0
  1  2  1  0  0  0  0
  1  5  2  0  0  0  0
  2  6  2  0  0  0  0
  3  8  2  0  0  0  0
  3 15  1  0  0  0  0
  4  9  1  0  0  0  0
  4 15  2  0  0  0  0
  5 17  1  0  0  0  0
  6 19  1  0  0  0  0
  7 10  2  0  0  0  0
  7 18  1  0  0  0  0
  8 21  1  0  0  0  0
  9 21  2  0  0  0  0
 10 22  1  0  0  0  0
 11 12  2  0  0  0  0
 11 23  1  0  0  0  0
 12 24  1  0  0  0  0
 13 20  1  0  0  0  0
 13 22  2  0  0  0  0
 14 24  2  0  0  0  0
 14 25  1  0  0  0  0
 15 26  1  0  0  0  0
 16 26  1  0  0  0  0
 16 27  2  0  0  0  0
 16 28  1  0  0  0  0
 17 19  2  0  0  0  0
 17 33  1  0  0  0  0
 18 20  2  0  0  0  0
 18 34  1  0  0  0  0
 19 44  1  0  0  0  0
 20 35  1  0  0  0  0
 21 76  1  0  0  0  0
 22 77  1  0  0  0  0
 23 25  2  0  0  0  0
 23 76  1  0  0  0  0
 24 78  1  0  0  0  0
 25 79  1  0  0  0  0
 26 60  2  0  0  0  0
 27 61  1  0  0  0  0
 27 65  1  0  0  0  0
 28 66  1  0  0  0  0
 28 71  2  0  0  0  0
 29 45  1  0  0  0  0
 29 67  1  0  0  0  0
 29 72  2  0  0  0  0
 30 57  1  0  0  0  0
 30 62  1  0  0  0  0
 30 73  2  0  0  0  0
 31 58  1  0  0  0  0
 31 68  1  0  0  0  0
 31 74  2  0  0  0  0
 32 63  1  0  0  0  0
 32 64  1  0  0  0  0
 32 75  2  0  0  0  0
 33 36  1  0  0  0  0
 34 45  1  0  0  0  0
 35 62  1  0  0  0  0
 36 38  1  0  0  0  0
 37 39  1  0  0  0  0
 37 41  1  0  0  0  0
 38 44  1  0  0  0  0
 39 46  1  0  0  0  0
 40 42  1  0  0  0  0
 40 47  1  0  0  0  0
 41 63  1  0  0  0  0
 42 64  1  0  0  0  0
 43 46  1  0  0  0  0
 43 63  1  0  0  0  0
 44 67  1  0  0  0  0
 45 62  1  0  0  0  0
 46 61  1  0  0  0  0
 47 53  1  0  0  0  0
 47 64  1  0  0  0  0
 48 58  1  0  0  0  0
 49 59  1  0  0  0  0
 50 59  1  0  0  0  0
 51 59  1  0  0  0  0
 52 69  1  0  0  0  0
 53 70  1  0  0  0  0
 54 55  1  0  0  0  0
 54 56  1  0  0  0  0
 55 70  1  0  0  0  0
 56 77  1  0  0  0  0
 57 59  1  0  0  0  0
 57 68  1  0  0  0  0
 58 69  1  0  0  0  0
 60 61  1  0  0  0  0
M  CHG  2  69   1  70   1
M  ISO  4  32 100  56 101  64 100  77 101
M  END
> <Batch ID>
0194

> <Smiles>
CNC(C)C(=O)NC(C(=O)N1Cc2cc([101O:1][101CH2:1]CCNCC3CC[100N:0]3[100C:0](=O)N3CCCC(n4nc(-c5ccc(Oc6ccc(F)cc6F)cc5)c(C(N)=O)c4N)C3)ccc2CC1C(=O)NC1CCCc2ccccc21)C(C)(C)C

> <Shape>
0.215

> <Color>
0.077

> <Negative vol penalty>
0.000

$$$$

  -OEChem-04052323343D

 84 93  0     1  0  0  0  0  0999 V2000
  -35.3717  -32.4975   21.2073 C   0  0  0  0  0  0  0  0  0  0  0  0
  -34.5060  -31.4095   21.1621 C   0  0  0  0  0  0  0  0  0  0  0  0
  -24.5142   -9.2040   22.1907 C   0  0  0  0  0  0  0  0  0  0  0  0
  -23.9244   -9.2026   19.8478 C   0  0  0  0  0  0  0  0  0  0  0  0
  -35.1965  -33.4866   22.1741 C   0  0  0  0  0  0  0  0  0  0  0  0
  -33.4651  -31.3094   22.0846 C   0  0  0  0  0  0  0  0  0  0  0  0
  -29.0839  -29.9626   19.9314 C   0  0  0  0  0  0  0  0  0  0  0  0
  -23.3548   -8.4857   22.4830 C   0  0  0  0  0  0  0  0  0  0  0  0
  -22.7650   -8.4843   20.1401 C   0  0  0  0  0  0  0  0  0  0  0  0
  -28.9195  -28.6158   19.6107 C   0  0  0  0  0  0  0  0  0  0  0  0
  -20.7326   -6.3401   23.8004 C   0  0  0  0  0  0  0  0  0  0  0  0
  -20.8426   -5.2591   24.6750 C   0  0  0  0  0  0  0  0  0  0  0  0
  -27.6061  -28.3061   21.6103 C   0  0  0  0  0  0  0  0  0  0  0  0
  -26.6900  -22.7319   18.5903 C   0  0  0  0  0  0  0  0  0  0  0  0
  -22.4047   -4.1986   23.1676 C   0  0  0  0  0  0  0  0  0  0  0  0
  -24.7990   -9.5625   20.8730 C   0  0  0  0  0  0  0  0  0  0  0  0
  -27.2634   -9.7814   20.2516 C   0  0  0  0  0  0  0  0  0  0  0  0
  -34.1471  -33.4035   23.1028 C   0  0  0  0  0  0  0  0  0  0  0  0
  -28.5188  -30.4897   21.1016 C   0  0  0  0  0  0  0  0  0  0  0  0
  -33.2765  -32.2976   23.0656 C   0  0  0  0  0  0  0  0  0  0  0  0
  -27.7626  -29.6605   21.9423 C   0  0  0  0  0  0  0  0  0  0  0  0
  -26.9432  -24.0862   18.7194 C   0  0  0  0  0  0  0  0  0  0  0  0
  -22.4802   -8.1258   21.4577 C   0  0  0  0  0  0  0  0  0  0  0  0
  -28.1830  -27.7867   20.4517 C   0  0  0  0  0  0  0  0  0  0  0  0
  -21.4586   -6.3504   22.6094 C   0  0  0  0  0  0  0  0  0  0  0  0
  -21.6787   -4.1884   24.3586 C   0  0  0  0  0  0  0  0  0  0  0  0
  -22.2947   -5.2797   22.2930 C   0  0  0  0  0  0  0  0  0  0  0  0
  -25.9962  -10.3050   20.5705 C   0  0  0  0  0  0  0  0  0  0  0  0
  -28.2597  -24.4918   18.8075 C   0  0  0  0  0  0  0  0  0  0  0  0
  -27.7701  -21.8729   18.5577 C   0  0  0  0  0  0  0  0  0  0  0  0
  -28.0518  -10.8881   20.0516 C   0  0  0  0  0  0  0  0  0  0  0  0
  -27.6898   -8.4166   20.1455 C   0  0  0  0  0  0  0  0  0  0  0  0
  -29.6713  -31.8438   23.7363 C   0  0  0  0  0  0  0  0  0  0  0  0
  -26.5316  -32.3259   24.3936 C   0  0  0  0  0  0  0  0  0  0  0  0
  -23.2902  -31.3768   23.9043 C   0  0  0  0  0  0  0  0  0  0  0  0
  -26.9981  -16.3061   18.3302 C   0  0  0  0  0  0  0  0  0  0  0  0
  -34.0262  -34.4731   24.1593 C   0  0  0  0  0  0  0  0  0  0  0  0
  -28.6828  -31.9507   21.4196 C   0  0  0  0  0  0  0  0  0  0  0  0
  -27.1184  -30.1821   23.1999 C   0  0  0  0  0  0  0  0  0  0  0  0
  -32.6722  -34.4829   24.8640 C   0  0  0  0  0  0  0  0  0  0  0  0
  -28.5163  -15.4544   21.3814 C   0  0  0  0  0  0  0  0  0  0  0  0
  -32.2689  -33.0675   25.2651 C   0  0  0  0  0  0  0  0  0  0  0  0
  -28.1631  -13.9716   21.4929 C   0  0  0  0  0  0  0  0  0  0  0  0
  -27.3498  -16.2821   20.8394 C   0  0  0  0  0  0  0  0  0  0  0  0
  -28.4954  -19.6485   17.7488 C   0  0  0  0  0  0  0  0  0  0  0  0
  -26.6827  -19.8620   19.4561 C   0  0  0  0  0  0  0  0  0  0  0  0
  -27.8531  -18.3548   17.2554 C   0  0  0  0  0  0  0  0  0  0  0  0
  -26.0662  -18.5729   18.9246 C   0  0  0  0  0  0  0  0  0  0  0  0
  -26.4474  -14.2973   19.6714 C   0  0  0  0  0  0  0  0  0  0  0  0
  -32.1205  -32.1662   24.0334 C   0  0  1  0  0  0  0  0  0  0  0  0
  -28.4955  -32.2645   22.9007 C   0  0  1  0  0  0  0  0  0  0  0  0
  -27.6197  -13.4313   20.1582 C   0  0  2  0  0  0  0  0  0  0  0  0
  -25.8130  -25.0557   18.7597 C   0  0  0  0  0  0  0  0  0  0  0  0
  -20.9466  -31.9357   24.6062 C   0  0  0  0  0  0  0  0  0  0  0  0
  -27.0131  -30.9609   27.0797 C   0  0  0  0  0  0  0  0  0  0  0  0
  -24.5342  -30.6960   27.3106 C   0  0  0  0  0  0  0  0  0  0  0  0
  -25.5366  -32.9768   27.1837 C   0  0  0  0  0  0  0  0  0  0  0  0
  -22.4883  -32.0190   21.1288 C   0  0  0  0  0  0  0  0  0  0  0  0
  -28.6087  -25.9352   18.9485 C   0  0  0  0  0  0  0  0  0  1  0  0
  -25.4553  -31.5412   25.1041 C   0  0  1  0  0  0  0  0  0  0  0  0
  -22.0432  -32.1801   23.5813 C   0  0  2  0  0  0  0  0  0  0  0  0
  -25.6484  -31.5331   26.6469 C   0  0  0  0  0  0  0  0  0  0  0  0
  -25.9762  -11.6405   20.5742 N   0  0  0  0  0  0  0  0  0  0  0  0
  -29.2971  -23.6289   18.7729 N   0  0  0  0  0  0  0  0  0  0  0  0
  -29.0483  -22.2979   18.6457 N   0  0  0  0  0  0  0  0  0  0  0  0
  -27.2406  -11.9654   20.2553 N   0  0  0  0  0  0  0  0  0  0  0  0
  -27.5139  -20.5020   18.4272 N   0  0  0  0  0  0  0  0  0  0  0  0
  -27.3128  -31.6161   23.4707 N   0  0  0  0  0  0  0  0  0  0  0  0
  -26.8394  -15.7058   19.5882 N   0  0  0  0  0  0  0  0  0  0  0  0
  -27.0694  -17.7077   18.3006 N   0  0  0  0  0  0  0  0  0  0  0  0
  -29.3530  -11.0352   19.7232 N   0  0  0  0  0  0  0  0  0  0  0  0
  -26.7514   -7.4030   20.3831 N   0  0  0  0  0  0  0  0  0  0  0  0
  -30.8656  -32.4298   23.3625 N   0  0  0  0  0  0  0  0  0  0  0  0
  -24.1828  -32.1029   24.6642 N   0  0  0  0  0  0  0  0  0  0  0  0
  -21.5210  -31.8073   22.2362 N   0  3  0  0  0  0  0  0  0  0  0  0
  -28.8721   -8.1051   19.8649 O   0  0  0  0  0  0  0  0  0  0  0  0
  -29.5069  -31.0477   24.6533 O   0  0  0  0  0  0  0  0  0  0  0  0
  -26.6692  -33.5261   24.6428 O   0  0  0  0  0  0  0  0  0  0  0  0
  -23.4542  -30.2197   23.5240 O   0  0  0  0  0  0  0  0  0  0  0  0
  -27.0749  -15.6325   17.2952 O   0  0  0  0  0  0  0  0  0  0  0  0
  -21.3489   -7.4247   21.7425 O   0  0  0  0  0  0  0  0  0  0  0  0
  -28.0189  -26.4494   20.1361 O   0  0  0  0  0  0  0  0  0  1  0  0
  -21.7855   -3.1510   25.1993 F   0  0  0  0  0  0  0  0  0  0  0  0
  -22.9955   -5.2844   21.1508 F   0  0  0  0  0  0  0  0  0  0  0  0
  1  2  1  0  0  0  0
  1  5  2  0  0  0  0
  2  6  2  0  0  0  0
  3  8  2  0  0  0  0
  3 16  1  0  0  0  0
  4  9  1  0  0  0  0
  4 16  2  0  0  0  0
  5 18  1  0  0  0  0
  6 20  1  0  0  0  0
  7 10  2  0  0  0  0
  7 19  1  0  0  0  0
  8 23  1  0  0  0  0
  9 23  2  0  0  0  0
 10 24  1  0  0  0  0
 11 12  2  0  0  0  0
 11 25  1  0  0  0  0
 12 26  1  0  0  0  0
 13 21  1  0  0  0  0
 13 24  2  0  0  0  0
 14 22  1  0  0  0  0
 14 30  2  0  0  0  0
 15 26  2  0  0  0  0
 15 27  1  0  0  0  0
 16 28  1  0  0  0  0
 17 28  1  0  0  0  0
 17 31  2  0  0  0  0
 17 32  1  0  0  0  0
 18 20  2  0  0  0  0
 18 37  1  0  0  0  0
 19 21  2  0  0  0  0
 19 38  1  0  0  0  0
 20 50  1  0  0  0  0
 21 39  1  0  0  0  0
 22 29  2  0  0  0  0
 22 53  1  0  0  0  0
 23 81  1  0  0  0  0
 24 82  1  0  0  0  0
 25 27  2  0  0  0  0
 25 81  1  0  0  0  0
 26 83  1  0  0  0  0
 27 84  1  0  0  0  0
 28 63  2  0  0  0  0
 29 59  1  0  0  0  0
 29 64  1  0  0  0  0
 30 65  1  0  0  0  0
 30 67  1  0  0  0  0
 31 66  1  0  0  0  0
 31 71  1  0  0  0  0
 32 72  1  0  0  0  0
 32 76  2  0  0  0  0
 33 51  1  0  0  0  0
 33 73  1  0  0  0  0
 33 77  2  0  0  0  0
 34 60  1  0  0  0  0
 34 68  1  0  0  0  0
 34 78  2  0  0  0  0
 35 61  1  0  0  0  0
 35 74  1  0  0  0  0
 35 79  2  0  0  0  0
 36 69  1  0  0  0  0
 36 70  1  0  0  0  0
 36 80  2  0  0  0  0
 37 40  1  0  0  0  0
 38 51  1  0  0  0  0
 39 68  1  0  0  0  0
 40 42  1  0  0  0  0
 41 43  1  0  0  0  0
 41 44  1  0  0  0  0
 42 50  1  0  0  0  0
 43 52  1  0  0  0  0
 44 69  1  0  0  0  0
 45 47  1  0  0  0  0
 45 67  1  0  0  0  0
 46 48  1  0  0  0  0
 46 67  1  0  0  0  0
 47 70  1  0  0  0  0
 48 70  1  0  0  0  0
 49 52  1  0  0  0  0
 49 69  1  0  0  0  0
 50 73  1  0  0  0  0
 51 68  1  0  0  0  0
 52 66  1  0  0  0  0
 54 61  1  0  0  0  0
 55 62  1  0  0  0  0
 56 62  1  0  0  0  0
 57 62  1  0  0  0  0
 58 75  1  0  0  0  0
 59 82  1  0  0  0  0
 60 62  1  0  0  0  0
 60 74  1  0  0  0  0
 61 75  1  0  0  0  0
 63 66  1  0  0  0  0
 64 65  2  0  0  0  0
M  CHG  1  75   1
M  ISO  4  36 100  59 101  70 100  82 101
M  END
> <Batch ID>
0194

> <Smiles>
CNC(C)C(=O)NC(C(=O)N1Cc2cc([101O:1][101CH2:1]c3nnc(N4CC[100N:0]([100C:0](=O)N5CCCC(n6nc(-c7ccc(Oc8ccc(F)cc8F)cc7)c(C(N)=O)c6N)C5)CC4)cc3C)ccc2CC1C(=O)NC1CCCc2ccccc21)C(C)(C)C

> <Shape>
0.238

> <Color>
0.108

> <Negative vol penalty>
0.000

$$$$

  -OEChem-04052323343D

 89 98  0     1  0  0  0  0  0999 V2000
  -23.4405   -7.8377   21.0661 C   0  0  0  0  0  0  0  0  0  0  0  0
  -24.3710   -8.8719   21.0550 C   0  0  0  0  0  0  0  0  0  0  0  0
  -24.7491  -29.2949   21.9198 C   0  0  0  0  0  0  0  0  0  0  0  0
  -23.6878  -30.0440   19.8827 C   0  0  0  0  0  0  0  0  0  0  0  0
  -22.0816   -8.1228   20.9397 C   0  0  0  0  0  0  0  0  0  0  0  0
  -23.9431  -10.1918   20.9164 C   0  0  0  0  0  0  0  0  0  0  0  0
  -26.2479  -13.3314   24.1530 C   0  0  0  0  0  0  0  0  0  0  0  0
  -25.4194  -30.5141   22.0189 C   0  0  0  0  0  0  0  0  0  0  0  0
  -24.3581  -31.2632   19.9819 C   0  0  0  0  0  0  0  0  0  0  0  0
  -27.5474  -13.7274   23.8397 C   0  0  0  0  0  0  0  0  0  0  0  0
  -27.1333  -33.5653   23.0026 C   0  0  0  0  0  0  0  0  0  0  0  0
  -27.1671  -34.1872   24.2507 C   0  0  0  0  0  0  0  0  0  0  0  0
  -26.6987  -15.8199   22.9908 C   0  0  0  0  0  0  0  0  0  0  0  0
  -24.7533  -34.2911   24.2642 C   0  0  0  0  0  0  0  0  0  0  0  0
  -23.8833  -29.0598   20.8517 C   0  0  0  0  0  0  0  0  0  0  0  0
  -21.9307  -27.4766   21.2857 C   0  0  0  0  0  0  0  0  0  0  0  0
  -21.6361   -9.4476   20.8091 C   0  0  0  0  0  0  0  0  0  0  0  0
  -25.1611  -14.1736   23.8771 C   0  0  0  0  0  0  0  0  0  0  0  0
  -22.5770  -10.4948   20.7868 C   0  0  0  0  0  0  0  0  0  0  0  0
  -25.3866  -15.4333   23.3040 C   0  0  0  0  0  0  0  0  0  0  0  0
  -25.2239  -31.4983   21.0500 C   0  0  0  0  0  0  0  0  0  0  0  0
  -27.7727  -14.9706   23.2559 C   0  0  0  0  0  0  0  0  0  0  0  0
  -25.9096  -33.3064   22.3853 C   0  0  0  0  0  0  0  0  0  0  0  0
  -25.9771  -34.5501   24.8815 C   0  0  0  0  0  0  0  0  0  0  0  0
  -24.7196  -33.6692   23.0161 C   0  0  0  0  0  0  0  0  0  0  0  0
  -29.1795  -16.1742   18.0578 C   0  0  0  0  0  0  0  0  0  0  0  0
  -23.1910  -27.8004   20.7484 C   0  0  0  0  0  0  0  0  0  0  0  0
  -29.6242  -17.0507   19.0265 C   0  0  0  0  0  0  0  0  0  0  0  0
  -29.3690  -14.8351   18.3319 C   0  0  0  0  0  0  0  0  0  0  0  0
  -21.7236  -26.1711   20.9125 C   0  0  0  0  0  0  0  0  0  0  0  0
  -30.3376  -15.3291   20.3282 C   0  0  0  0  0  0  0  0  0  0  0  0
  -21.0280  -28.2837   22.0533 C   0  0  0  0  0  0  0  0  0  0  0  0
  -22.5788  -13.9727   22.0346 C   0  0  0  0  0  0  0  0  0  0  0  0
  -21.8087  -16.7735   23.4784 C   0  0  0  0  0  0  0  0  0  0  0  0
  -22.8647  -19.5743   25.1176 C   0  0  0  0  0  0  0  0  0  0  0  0
  -25.2342  -21.7334   19.7328 C   0  0  0  0  0  0  0  0  0  0  0  0
  -20.1607   -9.7028   20.6280 C   0  0  0  0  0  0  0  0  0  0  0  0
  -23.7680  -13.7427   24.2457 C   0  0  0  0  0  0  0  0  0  0  0  0
  -24.2561  -16.3829   23.0063 C   0  0  0  0  0  0  0  0  0  0  0  0
  -19.7610  -11.1574   20.8616 C   0  0  0  0  0  0  0  0  0  0  0  0
  -22.8473  -23.0204   17.4990 C   0  0  0  0  0  0  0  0  0  0  0  0
  -20.7185  -12.0973   20.1360 C   0  0  0  0  0  0  0  0  0  0  0  0
  -22.5369  -24.3752   18.1346 C   0  0  0  0  0  0  0  0  0  0  0  0
  -24.3388  -22.6861   17.5613 C   0  0  0  0  0  0  0  0  0  0  0  0
  -26.4751  -20.6647   17.7982 C   0  0  0  0  0  0  0  0  0  0  0  0
  -25.8665  -19.3403   19.7892 C   0  0  0  0  0  0  0  0  0  0  0  0
  -24.6052  -24.1226   19.5574 C   0  0  0  0  0  0  0  0  0  0  0  0
  -27.9435  -20.3011   17.9936 C   0  0  0  0  0  0  0  0  0  0  0  0
  -27.3232  -18.9784   20.0290 C   0  0  0  0  0  0  0  0  0  0  0  0
  -22.1500  -11.9413   20.6632 C   0  0  1  0  0  0  0  0  0  0  0  0
  -22.6878  -14.4679   23.4490 C   0  0  1  0  0  0  0  0  0  0  0  0
  -23.1060  -24.4590   19.5620 C   0  0  1  0  0  0  0  0  0  0  0  0
  -22.0072  -21.7000   26.1392 C   0  0  0  0  0  0  0  0  0  0  0  0
  -21.4633  -17.9701   20.6929 C   0  0  0  0  0  0  0  0  0  0  0  0
  -21.5524  -20.2448   21.7350 C   0  0  0  0  0  0  0  0  0  0  0  0
  -19.7231  -18.6641   22.3495 C   0  0  0  0  0  0  0  0  0  0  0  0
  -27.0098  -12.4835   16.4420 C   0  0  0  0  0  0  0  0  0  0  0  0
  -23.8614  -18.8231   27.8011 C   0  0  0  0  0  0  0  0  0  0  0  0
  -29.4799  -18.5342   18.8551 C   0  0  0  0  0  0  0  0  0  0  0  0
  -28.9335  -13.7804   17.3673 C   0  0  0  0  0  0  0  0  0  0  0  0
  -30.9807  -14.8598   21.5889 C   0  0  0  0  0  0  0  0  0  0  0  0
  -29.9722  -14.3328   22.6146 C   0  0  0  0  0  0  0  0  0  1  0  0
  -22.0684  -18.2322   23.1891 C   0  0  1  0  0  0  0  0  0  0  0  0
  -22.3715  -20.2445   26.3873 C   0  0  2  0  0  0  0  0  0  0  0  0
  -21.2231  -18.7593   21.9953 C   0  0  0  0  0  0  0  0  0  0  0  0
  -23.7456  -26.7826   20.0847 N   0  0  0  0  0  0  0  0  0  0  0  0
  -30.2099  -16.6612   20.1778 N   0  0  0  0  0  0  0  0  0  0  0  0
  -29.9468  -14.3755   19.4612 N   0  0  0  0  0  0  0  0  0  0  0  0
  -22.8295  -25.8064   20.2024 N   0  0  0  0  0  0  0  0  0  0  0  0
  -22.9115  -15.9134   23.3792 N   0  0  0  0  0  0  0  0  0  0  0  0
  -24.8454  -22.8193   18.9343 N   0  0  0  0  0  0  0  0  0  0  0  0
  -25.7465  -20.6074   19.0712 N   0  0  0  0  0  0  0  0  0  0  0  0
  -20.7053  -25.3109   21.1259 N   0  0  0  0  0  0  0  0  0  0  0  0
  -21.3968  -29.6035   22.3473 N   0  0  0  0  0  0  0  0  0  0  0  0
  -22.2989  -12.6235   21.9309 N   0  0  0  0  0  0  0  0  0  0  0  0
  -21.8412  -18.9436   24.4424 N   0  0  0  0  0  0  0  0  0  0  0  0
  -28.0503  -18.9734   18.7045 N   0  3  0  0  0  0  0  0  0  0  0  0
  -27.4609  -13.5682   17.3530 N   0  3  0  0  0  0  0  0  0  0  0  0
  -23.4245  -20.1966   27.4409 N   0  3  0  0  0  0  0  0  0  0  0  0
  -19.9341  -27.8423   22.4802 O   0  0  0  0  0  0  0  0  0  0  0  0
  -22.7355  -14.7569   21.1061 O   0  0  0  0  0  0  0  0  0  0  0  0
  -20.6707  -16.4117   23.7881 O   0  0  0  0  0  0  0  0  0  0  0  0
  -24.0396  -19.6101   24.7587 O   0  0  0  0  0  0  0  0  0  0  0  0
  -25.1304  -21.7680   20.9655 O   0  0  0  0  0  0  0  0  0  0  0  0
  -25.8777  -32.6881   21.1465 O   0  0  0  0  0  0  0  0  0  0  0  0
  -29.0490  -15.3621   22.9463 O   0  0  0  0  0  0  0  0  0  1  0  0
  -26.0096  -35.1459   26.0807 F   0  0  0  0  0  0  0  0  0  0  0  0
  -23.5409  -33.4220   22.4285 F   0  0  0  0  0  0  0  0  0  0  0  0
  -28.4381  -16.7153   16.6040 Cl  0  0  0  0  0  0  0  0  0  0  0  0
  1  2  1  0  0  0  0
  1  5  2  0  0  0  0
  2  6  2  0  0  0  0
  3  8  2  0  0  0  0
  3 15  1  0  0  0  0
  4  9  1  0  0  0  0
  4 15  2  0  0  0  0
  5 17  1  0  0  0  0
  6 19  1  0  0  0  0
  7 10  2  0  0  0  0
  7 18  1  0  0  0  0
  8 21  1  0  0  0  0
  9 21  2  0  0  0  0
 10 22  1  0  0  0  0
 11 12  2  0  0  0  0
 11 23  1  0  0  0  0
 12 24  1  0  0  0  0
 13 20  1  0  0  0  0
 13 22  2  0  0  0  0
 14 24  2  0  0  0  0
 14 25  1  0  0  0  0
 15 27  1  0  0  0  0
 16 27  1  0  0  0  0
 16 30  2  0  0  0  0
 16 32  1  0  0  0  0
 17 19  2  0  0  0  0
 17 37  1  0  0  0  0
 18 20  2  0  0  0  0
 18 38  1  0  0  0  0
 19 50  1  0  0  0  0
 20 39  1  0  0  0  0
 21 85  1  0  0  0  0
 22 86  1  0  0  0  0
 23 25  2  0  0  0  0
 23 85  1  0  0  0  0
 24 87  1  0  0  0  0
 25 88  1  0  0  0  0
 26 28  1  0  0  0  0
 26 29  2  0  0  0  0
 26 89  1  0  0  0  0
 27 66  2  0  0  0  0
 28 59  1  0  0  0  0
 28 67  2  0  0  0  0
 29 60  1  0  0  0  0
 29 68  1  0  0  0  0
 30 69  1  0  0  0  0
 30 73  1  0  0  0  0
 31 61  1  0  0  0  0
 31 67  1  0  0  0  0
 31 68  2  0  0  0  0
 32 74  1  0  0  0  0
 32 80  2  0  0  0  0
 33 51  1  0  0  0  0
 33 75  1  0  0  0  0
 33 81  2  0  0  0  0
 34 63  1  0  0  0  0
 34 70  1  0  0  0  0
 34 82  2  0  0  0  0
 35 64  1  0  0  0  0
 35 76  1  0  0  0  0
 35 83  2  0  0  0  0
 36 71  1  0  0  0  0
 36 72  1  0  0  0  0
 36 84  2  0  0  0  0
 37 40  1  0  0  0  0
 38 51  1  0  0  0  0
 39 70  1  0  0  0  0
 40 42  1  0  0  0  0
 41 43  1  0  0  0  0
 41 44  1  0  0  0  0
 42 50  1  0  0  0  0
 43 52  1  0  0  0  0
 44 71  1  0  0  0  0
 45 48  1  0  0  0  0
 45 72  1  0  0  0  0
 46 49  1  0  0  0  0
 46 72  1  0  0  0  0
 47 52  1  0  0  0  0
 47 71  1  0  0  0  0
 48 77  1  0  0  0  0
 49 77  1  0  0  0  0
 50 75  1  0  0  0  0
 51 70  1  0  0  0  0
 52 69  1  0  0  0  0
 53 64  1  0  0  0  0
 54 65  1  0  0  0  0
 55 65  1  0  0  0  0
 56 65  1  0  0  0  0
 57 78  1  0  0  0  0
 58 79  1  0  0  0  0
 59 77  1  0  0  0  0
 60 78  1  0  0  0  0
 61 62  1  0  0  0  0
 62 86  1  0  0  0  0
 63 65  1  0  0  0  0
 63 76  1  0  0  0  0
 64 79  1  0  0  0  0
 66 69  1  0  0  0  0
M  CHG  3  77   1  78   1  79   1
M  ISO  4  36 100  62 101  72 100  86 101
M  END
> <Batch ID>
0194

> <Smiles>
CNCc1nc(C[101CH2:1][101O:1]c2ccc3c(c2)CN(C(=O)C(NC(=O)C(C)NC)C(C)(C)C)C(C(=O)NC2CCCc4ccccc42)C3)nc(CN2CC[100N:0]([100C:0](=O)N3CCCC(n4nc(-c5ccc(Oc6ccc(F)cc6F)cc5)c(C(N)=O)c4N)C3)CC2)c1Cl

> <Shape>
0.198

> <Color>
0.086

> <Negative vol penalty>
0.000

$$$$

  -OEChem-04052323343D

 88 98  0     1  0  0  0  0  0999 V2000
  -27.9600  -25.8251   21.1799 C   0  0  0  0  0  0  0  0  0  0  0  0
  -28.3627  -24.6396   21.7863 C   0  0  0  0  0  0  0  0  0  0  0  0
  -23.2827   -9.7964   19.9109 C   0  0  0  0  0  0  0  0  0  0  0  0
  -23.7201   -9.9395   22.2827 C   0  0  0  0  0  0  0  0  0  0  0  0
  -28.8537  -26.5365   20.3805 C   0  0  0  0  0  0  0  0  0  0  0  0
  -29.6593  -24.1643   21.5929 C   0  0  0  0  0  0  0  0  0  0  0  0
  -31.8089  -22.5778   25.8948 C   0  0  0  0  0  0  0  0  0  0  0  0
  -22.5501   -8.6274   20.1165 C   0  0  0  0  0  0  0  0  0  0  0  0
  -22.9875   -8.7705   22.4883 C   0  0  0  0  0  0  0  0  0  0  0  0
  -31.4284  -21.3244   26.3723 C   0  0  0  0  0  0  0  0  0  0  0  0
  -20.2619   -5.8033   20.0609 C   0  0  0  0  0  0  0  0  0  0  0  0
  -19.0378   -5.6809   19.4034 C   0  0  0  0  0  0  0  0  0  0  0  0
  -33.4408  -20.3679   25.4477 C   0  0  0  0  0  0  0  0  0  0  0  0
  -18.2329   -7.6587   20.5337 C   0  0  0  0  0  0  0  0  0  0  0  0
  -23.8677  -10.4525   20.9940 C   0  0  0  0  0  0  0  0  0  0  0  0
  -24.1391  -12.9810   20.7923 C   0  0  0  0  0  0  0  0  0  0  0  0
  -30.1649  -26.0747   20.1850 C   0  0  0  0  0  0  0  0  0  0  0  0
  -33.0050  -22.7339   25.1796 C   0  0  0  0  0  0  0  0  0  0  0  0
  -30.5710  -24.8695   20.7891 C   0  0  0  0  0  0  0  0  0  0  0  0
  -33.8355  -21.6248   24.9645 C   0  0  0  0  0  0  0  0  0  0  0  0
  -22.4025   -8.1145   21.4052 C   0  0  0  0  0  0  0  0  0  0  0  0
  -32.2429  -20.2187   26.1462 C   0  0  0  0  0  0  0  0  0  0  0  0
  -20.4714   -6.8533   20.9549 C   0  0  0  0  0  0  0  0  0  0  0  0
  -18.0234   -6.6086   19.6397 C   0  0  0  0  0  0  0  0  0  0  0  0
  -19.4570   -7.7810   21.1913 C   0  0  0  0  0  0  0  0  0  0  0  0
  -24.6251  -11.6598   20.7822 C   0  0  0  0  0  0  0  0  0  0  0  0
  -25.2454  -13.7557   20.5424 C   0  0  0  0  0  0  0  0  0  0  0  0
  -32.2683  -15.5633   23.8447 C   0  0  0  0  0  0  0  0  0  0  0  0
  -31.8669  -16.0361   25.2169 C   0  0  0  0  0  0  0  0  0  0  0  0
  -30.3702  -16.5541   23.0408 C   0  0  0  0  0  0  0  0  0  0  0  0
  -22.8068  -13.4647   21.0084 C   0  0  0  0  0  0  0  0  0  0  0  0
  -33.7516  -23.6653   22.2336 C   0  0  0  0  0  0  0  0  0  0  0  0
  -36.7884  -23.4440   23.3522 C   0  0  0  0  0  0  0  0  0  0  0  0
  -38.9517  -22.0773   25.6104 C   0  0  0  0  0  0  0  0  0  0  0  0
  -31.0176  -12.6264   21.5455 C   0  0  0  0  0  0  0  0  0  0  0  0
  -31.0806  -26.8535   19.2741 C   0  0  0  0  0  0  0  0  0  0  0  0
  -33.4143  -24.0976   24.6944 C   0  0  0  0  0  0  0  0  0  0  0  0
  -35.1394  -21.7430   24.2199 C   0  0  0  0  0  0  0  0  0  0  0  0
  -32.5523  -26.4766   19.4229 C   0  0  0  0  0  0  0  0  0  0  0  0
  -29.4751  -13.6666   18.3491 C   0  0  0  0  0  0  0  0  0  0  0  0
  -32.7165  -24.9601   19.4347 C   0  0  0  0  0  0  0  0  0  0  0  0
  -29.1920  -18.2601   21.5293 C   0  0  0  0  0  0  0  0  0  0  0  0
  -30.1784  -17.5235   20.6740 C   0  0  0  0  0  0  0  0  0  0  0  0
  -28.0111  -13.3250   18.6074 C   0  0  0  0  0  0  0  0  0  0  0  0
  -35.3203  -13.8074   22.5469 C   0  0  0  0  0  0  0  0  0  0  0  0
  -34.8282  -12.6721   21.6236 C   0  0  0  0  0  0  0  0  0  0  0  0
  -30.4249  -12.6966   19.0509 C   0  0  0  0  0  0  0  0  0  0  0  0
  -28.7018  -12.2296   20.7735 C   0  0  0  0  0  0  0  0  0  0  0  0
  -31.9768  -24.3343   20.6233 C   0  0  1  0  0  0  0  0  0  0  0  0
  -29.5403  -16.8400   21.8405 C   0  0  0  0  0  0  0  0  0  0  0  0
  -34.4023  -24.0468   23.5331 C   0  0  1  0  0  0  0  0  0  0  0  0
  -27.7368  -13.2272   20.1154 C   0  0  2  0  0  0  0  0  0  0  0  0
  -33.8842  -14.3719   22.4892 C   0  0  1  0  0  0  0  0  0  0  0  0
  -33.4082  -12.9299   22.1837 C   0  0  1  0  0  0  0  0  0  0  0  0
  -41.3778  -22.0577   26.2514 C   0  0  0  0  0  0  0  0  0  0  0  0
  -37.4001  -21.6354   20.9722 C   0  0  0  0  0  0  0  0  0  0  0  0
  -39.4824  -20.9025   22.1532 C   0  0  0  0  0  0  0  0  0  0  0  0
  -39.1923  -23.2949   21.5091 C   0  0  0  0  0  0  0  0  0  0  0  0
  -38.3683  -23.1553   28.3042 C   0  0  0  0  0  0  0  0  0  0  0  0
  -30.2277  -17.2421   26.5583 C   0  0  0  0  0  0  0  0  0  0  0  0
  -30.4743  -18.7324   26.7110 C   0  0  0  0  0  0  0  0  0  1  0  0
  -37.8272  -22.3504   23.4160 C   0  0  1  0  0  0  0  0  0  0  0  0
  -40.0213  -22.7034   26.4870 C   0  0  2  0  0  0  0  0  0  0  0  0
  -38.4501  -22.0429   22.0250 C   0  0  0  0  0  0  0  0  0  0  0  0
  -25.9379  -11.5951   20.5445 N   0  0  0  0  0  0  0  0  0  0  0  0
  -31.5124  -15.8386   22.8288 N   0  0  0  0  0  0  0  0  0  0  0  0
  -29.9372  -17.0044   24.1707 N   0  0  0  0  0  0  0  0  0  0  0  0
  -26.2861  -12.8854   20.4029 N   0  0  0  0  0  0  0  0  0  0  0  0
  -30.6818  -16.7527   25.2837 N   0  0  0  0  0  0  0  0  0  0  0  0
  -35.4928  -23.0962   23.7599 N   0  0  0  0  0  0  0  0  0  0  0  0
  -30.1026  -12.5562   20.4798 N   0  0  0  0  0  0  0  0  0  0  0  0
  -25.4196  -15.0897   20.4305 N   0  0  0  0  0  0  0  0  0  0  0  0
  -21.7888  -12.5326   21.2516 N   0  0  0  0  0  0  0  0  0  0  0  0
  -33.4364  -14.8529   23.7481 N   0  0  0  0  0  0  0  0  0  0  0  0
  -32.7350  -24.5156   21.8426 N   0  0  0  0  0  0  0  0  0  0  0  0
  -38.7951  -22.7652   24.4257 N   0  0  0  0  0  0  0  0  0  0  0  0
  -32.3461  -12.8418   21.1923 N   0  0  0  0  0  0  0  0  0  0  0  0
  -39.6692  -22.5454   27.9264 N   0  3  0  0  0  0  0  0  0  0  0  0
  -32.6039  -15.7579   26.1540 O   0  0  0  0  0  0  0  0  0  0  0  0
  -22.5243  -14.6863   20.9701 O   0  0  0  0  0  0  0  0  0  0  0  0
  -34.1439  -22.6739   21.6297 O   0  0  0  0  0  0  0  0  0  0  0  0
  -37.1162  -24.5673   22.9621 O   0  0  0  0  0  0  0  0  0  0  0  0
  -38.3210  -21.0758   25.9417 O   0  0  0  0  0  0  0  0  0  0  0  0
  -30.6828  -12.4999   22.7283 O   0  0  0  0  0  0  0  0  0  0  0  0
  -21.6875   -6.9739   21.6063 O   0  0  0  0  0  0  0  0  0  0  0  0
  -31.8735  -18.9940   26.6106 O   0  0  0  0  0  0  0  0  0  1  0  0
  -16.8485   -6.4919   19.0071 F   0  0  0  0  0  0  0  0  0  0  0  0
  -19.6529   -8.7926   22.0481 F   0  0  0  0  0  0  0  0  0  0  0  0
  1  2  1  0  0  0  0
  1  5  2  0  0  0  0
  2  6  2  0  0  0  0
  3  8  2  0  0  0  0
  3 15  1  0  0  0  0
  4  9  1  0  0  0  0
  4 15  2  0  0  0  0
  5 17  1  0  0  0  0
  6 19  1  0  0  0  0
  7 10  2  0  0  0  0
  7 18  1  0  0  0  0
  8 21  1  0  0  0  0
  9 21  2  0  0  0  0
 10 22  1  0  0  0  0
 11 12  2  0  0  0  0
 11 23  1  0  0  0  0
 12 24  1  0  0  0  0
 13 20  1  0  0  0  0
 13 22  2  0  0  0  0
 14 24  2  0  0  0  0
 14 25  1  0  0  0  0
 15 26  1  0  0  0  0
 16 26  1  0  0  0  0
 16 27  2  0  0  0  0
 16 31  1  0  0  0  0
 17 19  2  0  0  0  0
 17 36  1  0  0  0  0
 18 20  2  0  0  0  0
 18 37  1  0  0  0  0
 19 49  1  0  0  0  0
 20 38  1  0  0  0  0
 21 85  1  0  0  0  0
 22 86  1  0  0  0  0
 23 25  2  0  0  0  0
 23 85  1  0  0  0  0
 24 87  1  0  0  0  0
 25 88  1  0  0  0  0
 26 65  2  0  0  0  0
 27 68  1  0  0  0  0
 27 72  1  0  0  0  0
 28 29  1  0  0  0  0
 28 66  2  0  0  0  0
 28 74  1  0  0  0  0
 29 69  1  0  0  0  0
 29 79  2  0  0  0  0
 30 50  1  0  0  0  0
 30 66  1  0  0  0  0
 30 67  2  0  0  0  0
 31 73  1  0  0  0  0
 31 80  2  0  0  0  0
 32 51  1  0  0  0  0
 32 75  1  0  0  0  0
 32 81  2  0  0  0  0
 33 62  1  0  0  0  0
 33 70  1  0  0  0  0
 33 82  2  0  0  0  0
 34 63  1  0  0  0  0
 34 76  1  0  0  0  0
 34 83  2  0  0  0  0
 35 71  1  0  0  0  0
 35 77  1  0  0  0  0
 35 84  2  0  0  0  0
 36 39  1  0  0  0  0
 37 51  1  0  0  0  0
 38 70  1  0  0  0  0
 39 41  1  0  0  0  0
 40 44  1  0  0  0  0
 40 47  1  0  0  0  0
 41 49  1  0  0  0  0
 42 43  1  0  0  0  0
 42 50  1  0  0  0  0
 43 50  1  0  0  0  0
 44 52  1  0  0  0  0
 45 46  1  0  0  0  0
 45 53  1  0  0  0  0
 46 54  1  0  0  0  0
 47 71  1  0  0  0  0
 48 52  1  0  0  0  0
 48 71  1  0  0  0  0
 49 75  1  0  0  0  0
 51 70  1  0  0  0  0
 52 68  1  0  0  0  0
 53 54  1  0  0  0  0
 53 74  1  0  0  0  0
 54 77  1  0  0  0  0
 55 63  1  0  0  0  0
 56 64  1  0  0  0  0
 57 64  1  0  0  0  0
 58 64  1  0  0  0  0
 59 78  1  0  0  0  0
 60 61  1  0  0  0  0
 60 69  1  0  0  0  0
 61 86  1  0  0  0  0
 62 64  1  0  0  0  0
 62 76  1  0  0  0  0
 63 78  1  0  0  0  0
 65 68  1  0  0  0  0
 67 69  1  0  0  0  0
M  CHG  1  78   1
M  ISO  4  35 100  61 101  77 100  86 101
M  END
> <Batch ID>
0194

> <Smiles>
CNC(C)C(=O)NC(C(=O)N1Cc2cc([101O:1][101CH2:1]Cn3nc(C4CC4)nc(NC4CCC4[100NH:0][100C:0](=O)N4CCCC(n5nc(-c6ccc(Oc7ccc(F)cc7F)cc6)c(C(N)=O)c5N)C4)c3=O)ccc2CC1C(=O)NC1CCCc2ccccc21)C(C)(C)C

> <Shape>
0.175

> <Color>
0.163

> <Negative vol penalty>
0.000

$$$$

  -OEChem-04052323343D

 84 93  0     1  0  0  0  0  0999 V2000
  -28.6833  -30.6937   13.1194 C   0  0  0  0  0  0  0  0  0  0  0  0
  -28.6211  -29.3132   13.2795 C   0  0  0  0  0  0  0  0  0  0  0  0
  -23.0936   -9.8648   19.9388 C   0  0  0  0  0  0  0  0  0  0  0  0
  -23.6953   -9.9570   22.2768 C   0  0  0  0  0  0  0  0  0  0  0  0
  -29.7652  -31.4061   13.6350 C   0  0  0  0  0  0  0  0  0  0  0  0
  -29.6416  -28.6441   13.9544 C   0  0  0  0  0  0  0  0  0  0  0  0
  -29.0673  -23.7120   17.5393 C   0  0  0  0  0  0  0  0  0  0  0  0
  -22.3365   -8.7182   20.1788 C   0  0  0  0  0  0  0  0  0  0  0  0
  -22.9381   -8.8104   22.5169 C   0  0  0  0  0  0  0  0  0  0  0  0
  -29.2703  -22.3529   17.3043 C   0  0  0  0  0  0  0  0  0  0  0  0
  -23.2723   -5.4719   22.1005 C   0  0  0  0  0  0  0  0  0  0  0  0
  -23.8392   -4.4755   22.8951 C   0  0  0  0  0  0  0  0  0  0  0  0
  -31.4954  -22.5333   18.2184 C   0  0  0  0  0  0  0  0  0  0  0  0
  -22.0251   -4.7028   24.4744 C   0  0  0  0  0  0  0  0  0  0  0  0
  -23.7731  -10.4842   20.9878 C   0  0  0  0  0  0  0  0  0  0  0  0
  -24.1178  -13.0049   20.8006 C   0  0  0  0  0  0  0  0  0  0  0  0
  -30.7946  -30.7466   14.3249 C   0  0  0  0  0  0  0  0  0  0  0  0
  -30.0825  -24.4957   18.1065 C   0  0  0  0  0  0  0  0  0  0  0  0
  -30.7390  -29.3481   14.4785 C   0  0  0  0  0  0  0  0  0  0  0  0
  -31.3019  -23.9016   18.4619 C   0  0  0  0  0  0  0  0  0  0  0  0
  -22.2587   -8.1910   21.4678 C   0  0  0  0  0  0  0  0  0  0  0  0
  -30.4855  -21.7639   17.6412 C   0  0  0  0  0  0  0  0  0  0  0  0
  -22.0818   -6.0838   22.4929 C   0  0  0  0  0  0  0  0  0  0  0  0
  -23.2156   -4.0910   24.0820 C   0  0  0  0  0  0  0  0  0  0  0  0
  -21.4582   -5.6993   23.6798 C   0  0  0  0  0  0  0  0  0  0  0  0
  -24.5558  -11.6684   20.7403 C   0  0  0  0  0  0  0  0  0  0  0  0
  -25.2308  -13.7455   20.4858 C   0  0  0  0  0  0  0  0  0  0  0  0
  -22.8208  -13.5300   21.1132 C   0  0  0  0  0  0  0  0  0  0  0  0
  -31.7691  -27.0153   17.1524 C   0  0  0  0  0  0  0  0  0  0  0  0
  -32.9070  -26.9135   20.1884 C   0  0  0  0  0  0  0  0  0  0  0  0
  -33.5085  -25.0699   22.9966 C   0  0  0  0  0  0  0  0  0  0  0  0
  -30.0142  -12.3496   17.2767 C   0  0  0  0  0  0  0  0  0  0  0  0
  -31.9674  -31.5533   14.8233 C   0  0  0  0  0  0  0  0  0  0  0  0
  -29.8382  -25.9548   18.3783 C   0  0  0  0  0  0  0  0  0  0  0  0
  -32.4165  -24.6947   19.0920 C   0  0  0  0  0  0  0  0  0  0  0  0
  -32.8210  -30.8158   15.8518 C   0  0  0  0  0  0  0  0  0  0  0  0
  -29.9889  -13.6540   20.7027 C   0  0  0  0  0  0  0  0  0  0  0  0
  -33.1105  -29.3932   15.3837 C   0  0  0  0  0  0  0  0  0  0  0  0
  -28.5532  -13.3532   21.1197 C   0  0  0  0  0  0  0  0  0  0  0  0
  -32.7313  -10.7729   16.0890 C   0  0  0  0  0  0  0  0  0  0  0  0
  -31.2974  -16.7139   14.5993 C   0  0  0  0  0  0  0  0  0  0  0  0
  -32.9422  -16.2424   16.4633 C   0  0  0  0  0  0  0  0  0  0  0  0
  -30.5547  -12.5928   19.7581 C   0  0  0  0  0  0  0  0  0  0  0  0
  -32.2935  -11.0916   17.5218 C   0  0  0  0  0  0  0  0  0  0  0  0
  -28.2615  -12.0423   18.9889 C   0  0  0  0  0  0  0  0  0  0  0  0
  -30.2541  -17.1166   15.6352 C   0  0  0  0  0  0  0  0  0  0  0  0
  -31.8860  -16.6490   17.4845 C   0  0  0  0  0  0  0  0  0  0  0  0
  -31.8140  -28.5896   15.2262 C   0  0  1  0  0  0  0  0  0  0  0  0
  -31.1256  -26.7660   18.4871 C   0  0  1  0  0  0  0  0  0  0  0  0
  -27.6676  -13.1397   19.8832 C   0  0  1  0  0  0  0  0  0  0  0  0
  -32.3470  -15.7481   15.1461 C   0  0  0  0  0  0  0  0  0  0  0  0
  -31.9233  -11.9911   15.6161 C   0  0  2  0  0  0  0  0  0  0  0  0
  -34.4829  -25.2528   25.3020 C   0  0  0  0  0  0  0  0  0  0  0  0
  -35.7174  -26.8779   19.0007 C   0  0  0  0  0  0  0  0  0  0  0  0
  -36.5728  -26.1132   21.2259 C   0  0  0  0  0  0  0  0  0  0  0  0
  -35.4554  -28.3337   21.0173 C   0  0  0  0  0  0  0  0  0  0  0  0
  -30.9345  -24.3502   24.2676 C   0  0  0  0  0  0  0  0  0  0  0  0
  -32.6800  -13.2812   15.3685 C   0  0  0  0  0  0  0  0  0  0  0  0
  -29.9614  -18.1866   17.8679 C   0  0  0  0  0  0  0  0  0  0  0  0
  -29.5431  -19.5874   17.4665 C   0  0  0  0  0  0  0  0  0  1  0  0
  -34.0640  -26.2276   20.8740 C   0  0  1  0  0  0  0  0  0  0  0  0
  -33.2185  -25.3422   24.4616 C   0  0  2  0  0  0  0  0  0  0  0  0
  -35.4323  -26.8733   20.5158 C   0  0  0  0  0  0  0  0  0  0  0  0
  -25.8464  -11.5630   20.4128 N   0  0  0  0  0  0  0  0  0  0  0  0
  -26.2289  -12.8427   20.2644 N   0  0  0  0  0  0  0  0  0  0  0  0
  -32.1316  -26.1191   19.3319 N   0  0  0  0  0  0  0  0  0  0  0  0
  -29.6552  -12.3287   18.6288 N   0  0  0  0  0  0  0  0  0  0  0  0
  -31.2974  -11.9796   16.9402 N   0  0  0  0  0  0  0  0  0  0  0  0
  -25.4434  -15.0744   20.3794 N   0  0  0  0  0  0  0  0  0  0  0  0
  -21.7898  -12.6292   21.4133 N   0  0  0  0  0  0  0  0  0  0  0  0
  -31.3252  -28.1604   16.5189 N   0  0  0  0  0  0  0  0  0  0  0  0
  -33.7553  -26.2339   22.2999 N   0  0  0  0  0  0  0  0  0  0  0  0
  -30.9473  -17.6559   16.8636 N   0  3  0  0  0  0  0  0  0  0  0  0
  -31.7226  -14.4106   15.3588 N   0  3  0  0  0  0  0  0  0  0  0  0
  -32.2341  -24.3544   24.9872 N   0  3  0  0  0  0  0  0  0  0  0  0
  -22.5790  -14.7609   21.1100 O   0  0  0  0  0  0  0  0  0  0  0  0
  -32.6075  -26.2280   16.7293 O   0  0  0  0  0  0  0  0  0  0  0  0
  -32.6947  -28.1082   20.4102 O   0  0  0  0  0  0  0  0  0  0  0  0
  -33.5190  -23.9375   22.5190 O   0  0  0  0  0  0  0  0  0  0  0  0
  -29.2068  -12.6591   16.3906 O   0  0  0  0  0  0  0  0  0  0  0  0
  -21.5198   -7.0723   21.7025 O   0  0  0  0  0  0  0  0  0  0  0  0
  -30.6879  -20.4281   17.4106 O   0  0  0  0  0  0  0  0  0  1  0  0
  -23.7593   -3.1330   24.8442 F   0  0  0  0  0  0  0  0  0  0  0  0
  -20.3137   -6.2827   24.0614 F   0  0  0  0  0  0  0  0  0  0  0  0
  1  2  1  0  0  0  0
  1  5  2  0  0  0  0
  2  6  2  0  0  0  0
  3  8  2  0  0  0  0
  3 15  1  0  0  0  0
  4  9  1  0  0  0  0
  4 15  2  0  0  0  0
  5 17  1  0  0  0  0
  6 19  1  0  0  0  0
  7 10  2  0  0  0  0
  7 18  1  0  0  0  0
  8 21  1  0  0  0  0
  9 21  2  0  0  0  0
 10 22  1  0  0  0  0
 11 12  2  0  0  0  0
 11 23  1  0  0  0  0
 12 24  1  0  0  0  0
 13 20  1  0  0  0  0
 13 22  2  0  0  0  0
 14 24  2  0  0  0  0
 14 25  1  0  0  0  0
 15 26  1  0  0  0  0
 16 26  1  0  0  0  0
 16 27  2  0  0  0  0
 16 28  1  0  0  0  0
 17 19  2  0  0  0  0
 17 33  1  0  0  0  0
 18 20  2  0  0  0  0
 18 34  1  0  0  0  0
 19 48  1  0  0  0  0
 20 35  1  0  0  0  0
 21 81  1  0  0  0  0
 22 82  1  0  0  0  0
 23 25  2  0  0  0  0
 23 81  1  0  0  0  0
 24 83  1  0  0  0  0
 25 84  1  0  0  0  0
 26 64  2  0  0  0  0
 27 65  1  0  0  0  0
 27 69  1  0  0  0  0
 28 70  1  0  0  0  0
 28 76  2  0  0  0  0
 29 49  1  0  0  0  0
 29 71  1  0  0  0  0
 29 77  2  0  0  0  0
 30 61  1  0  0  0  0
 30 66  1  0  0  0  0
 30 78  2  0  0  0  0
 31 62  1  0  0  0  0
 31 72  1  0  0  0  0
 31 79  2  0  0  0  0
 32 67  1  0  0  0  0
 32 68  1  0  0  0  0
 32 80  2  0  0  0  0
 33 36  1  0  0  0  0
 34 49  1  0  0  0  0
 35 66  1  0  0  0  0
 36 38  1  0  0  0  0
 37 39  1  0  0  0  0
 37 43  1  0  0  0  0
 38 48  1  0  0  0  0
 39 50  1  0  0  0  0
 40 44  1  0  0  0  0
 40 52  1  0  0  0  0
 41 46  1  0  0  0  0
 41 51  1  0  0  0  0
 42 47  1  0  0  0  0
 42 51  1  0  0  0  0
 43 67  1  0  0  0  0
 44 68  1  0  0  0  0
 45 50  1  0  0  0  0
 45 67  1  0  0  0  0
 46 73  1  0  0  0  0
 47 73  1  0  0  0  0
 48 71  1  0  0  0  0
 49 66  1  0  0  0  0
 50 65  1  0  0  0  0
 51 74  1  0  0  0  0
 52 58  1  0  0  0  0
 52 68  1  0  0  0  0
 53 62  1  0  0  0  0
 54 63  1  0  0  0  0
 55 63  1  0  0  0  0
 56 63  1  0  0  0  0
 57 75  1  0  0  0  0
 58 74  1  0  0  0  0
 59 60  1  0  0  0  0
 59 73  1  0  0  0  0
 60 82  1  0  0  0  0
 61 63  1  0  0  0  0
 61 72  1  0  0  0  0
 62 75  1  0  0  0  0
 64 65  1  0  0  0  0
M  CHG  3  73   1  74   1  75   1
M  ISO  4  32 100  60 101  68 100  82 101
M  END
> <Batch ID>
0194

> <Smiles>
CNC(C)C(=O)NC(C(=O)N1Cc2cc([101O:1][101CH2:1]CN3CCC(NCC4CC[100N:0]4[100C:0](=O)N4CCCC(n5nc(-c6ccc(Oc7ccc(F)cc7F)cc6)c(C(N)=O)c5N)C4)CC3)ccc2CC1C(=O)NC1CCCc2ccccc21)C(C)(C)C

> <Shape>
0.205

> <Color>
0.169

> <Negative vol penalty>
0.000

$$$$

  -OEChem-04052323343D

 89 98  0     1  0  0  0  0  0999 V2000
  -26.8932  -37.9858   23.1830 C   0  0  0  0  0  0  0  0  0  0  0  0
  -27.2917  -36.6562   23.0888 C   0  0  0  0  0  0  0  0  0  0  0  0
  -23.1409  -10.4247   21.8612 C   0  0  0  0  0  0  0  0  0  0  0  0
  -24.7616   -8.6504   21.6109 C   0  0  0  0  0  0  0  0  0  0  0  0
  -25.6089  -38.2977   23.6270 C   0  0  0  0  0  0  0  0  0  0  0  0
  -26.4063  -35.6377   23.4397 C   0  0  0  0  0  0  0  0  0  0  0  0
  -26.3864  -31.8410   20.0886 C   0  0  0  0  0  0  0  0  0  0  0  0
  -22.1083   -9.5118   21.6470 C   0  0  0  0  0  0  0  0  0  0  0  0
  -23.7289   -7.7374   21.3967 C   0  0  0  0  0  0  0  0  0  0  0  0
  -27.4429  -30.9334   20.1484 C   0  0  0  0  0  0  0  0  0  0  0  0
  -21.5034   -4.8738   21.1420 C   0  0  0  0  0  0  0  0  0  0  0  0
  -21.5697   -3.6505   21.8087 C   0  0  0  0  0  0  0  0  0  0  0  0
  -26.0376  -29.3862   21.3528 C   0  0  0  0  0  0  0  0  0  0  0  0
  -21.5520   -4.8059   23.9305 C   0  0  0  0  0  0  0  0  0  0  0  0
  -24.4676   -9.9940   21.8431 C   0  0  0  0  0  0  0  0  0  0  0  0
  -26.1141  -11.2916   23.2967 C   0  0  0  0  0  0  0  0  0  0  0  0
  -24.7040  -37.2821   23.9742 C   0  0  0  0  0  0  0  0  0  0  0  0
  -25.1487  -31.5321   20.6709 C   0  0  0  0  0  0  0  0  0  0  0  0
  -25.1091  -35.9363   23.8900 C   0  0  0  0  0  0  0  0  0  0  0  0
  -24.9662  -30.2907   21.2967 C   0  0  0  0  0  0  0  0  0  0  0  0
  -22.4023   -8.1681   21.4148 C   0  0  0  0  0  0  0  0  0  0  0  0
  -27.2695  -29.7069   20.7832 C   0  0  0  0  0  0  0  0  0  0  0  0
  -21.4615   -6.0633   21.8694 C   0  0  0  0  0  0  0  0  0  0  0  0
  -21.5939   -3.6165   23.2030 C   0  0  0  0  0  0  0  0  0  0  0  0
  -21.4857   -6.0293   23.2636 C   0  0  0  0  0  0  0  0  0  0  0  0
  -25.5347  -10.9367   22.0637 C   0  0  0  0  0  0  0  0  0  0  0  0
  -27.0765  -12.2156   22.9705 C   0  0  0  0  0  0  0  0  0  0  0  0
  -29.3741  -22.7411   18.9524 C   0  0  0  0  0  0  0  0  0  0  0  0
  -28.6562  -23.9812   19.1193 C   0  0  0  0  0  0  0  0  0  0  0  0
  -31.3411  -23.9335   18.8575 C   0  0  0  0  0  0  0  0  0  0  0  0
  -25.8095  -10.8276   24.6186 C   0  0  0  0  0  0  0  0  0  0  0  0
  -23.3905  -32.7881   23.0022 C   0  0  0  0  0  0  0  0  0  0  0  0
  -21.2232  -30.5800   22.0279 C   0  0  0  0  0  0  0  0  0  0  0  0
  -20.6187  -27.6054   20.4679 C   0  0  0  0  0  0  0  0  0  0  0  0
  -28.8436  -16.5537   20.3504 C   0  0  0  0  0  0  0  0  0  0  0  0
  -23.3423  -37.6697   24.4939 C   0  0  0  0  0  0  0  0  0  0  0  0
  -24.0109  -32.5111   20.5743 C   0  0  0  0  0  0  0  0  0  0  0  0
  -23.6510  -29.9024   21.9198 C   0  0  0  0  0  0  0  0  0  0  0  0
  -22.3386  -36.5195   24.4894 C   0  0  0  0  0  0  0  0  0  0  0  0
  -28.9627  -13.5800   18.4872 C   0  0  0  0  0  0  0  0  0  0  0  0
  -22.9681  -35.2594   25.0749 C   0  0  0  0  0  0  0  0  0  0  0  0
  -28.1212  -12.6444   19.3549 C   0  0  0  0  0  0  0  0  0  0  0  0
  -28.2157  -19.3222   18.2696 C   0  0  0  0  0  0  0  0  0  0  0  0
  -29.8681  -19.8542   20.1010 C   0  0  0  0  0  0  0  0  0  0  0  0
  -28.3664  -14.9870   18.4163 C   0  0  0  0  0  0  0  0  0  0  0  0
  -28.7752  -17.8981   18.2022 C   0  0  0  0  0  0  0  0  0  0  0  0
  -30.4118  -18.4335   19.9782 C   0  0  0  0  0  0  0  0  0  0  0  0
  -27.2668  -14.6610   20.6079 C   0  0  0  0  0  0  0  0  0  0  0  0
  -24.1690  -34.8026   24.2378 C   0  0  1  0  0  0  0  0  0  0  0  0
  -22.9499  -32.3021   21.6504 C   0  0  1  0  0  0  0  0  0  0  0  0
  -27.8723  -13.2555   20.7453 C   0  0  1  0  0  0  0  0  0  0  0  0
  -29.2661  -20.3158   18.7713 C   0  0  0  0  0  0  0  0  0  0  0  0
  -32.8310  -23.8045   18.7051 C   0  0  0  0  0  0  0  0  0  0  0  0
  -18.7508  -26.0439   19.8597 C   0  0  0  0  0  0  0  0  0  0  0  0
  -21.0855  -29.6215   24.9214 C   0  0  0  0  0  0  0  0  0  0  0  0
  -19.9857  -27.5270   24.1021 C   0  0  0  0  0  0  0  0  0  0  0  0
  -18.8769  -29.7342   23.7536 C   0  0  0  0  0  0  0  0  0  0  0  0
  -26.5586  -25.1722   19.4149 C   0  0  0  0  0  0  0  0  0  0  0  0
  -21.1717  -27.8853   17.5740 C   0  0  0  0  0  0  0  0  0  0  0  0
  -29.8319  -27.4484   19.5999 C   0  0  0  0  0  0  0  0  0  0  0  0
  -28.7754  -26.3981   19.2984 C   0  0  0  0  0  0  0  0  0  0  0  0
  -29.2416  -28.8420   19.7737 C   0  0  0  0  0  0  0  0  0  1  0  0
  -20.9223  -29.1454   22.3891 C   0  0  1  0  0  0  0  0  0  0  0  0
  -19.6099  -27.2129   19.4036 C   0  0  2  0  0  0  0  0  0  0  0  0
  -20.2431  -29.0148   23.7816 C   0  0  0  0  0  0  0  0  0  0  0  0
  -26.0832  -11.5826   21.0313 N   0  0  0  0  0  0  0  0  0  0  0  0
  -30.6668  -22.7433   18.8284 N   0  0  0  0  0  0  0  0  0  0  0  0
  -30.8222  -25.1093   19.0002 N   0  0  0  0  0  0  0  0  0  0  0  0
  -27.0172  -12.3528   21.6148 N   0  0  0  0  0  0  0  0  0  0  0  0
  -29.4221  -25.0811   19.1324 N   0  0  0  0  0  0  0  0  0  0  0  0
  -22.5708  -30.8961   21.8049 N   0  0  0  0  0  0  0  0  0  0  0  0
  -28.1093  -15.5116   19.7647 N   0  0  0  0  0  0  0  0  0  0  0  0
  -29.3837  -17.5166   19.4848 N   0  0  0  0  0  0  0  0  0  0  0  0
  -27.9592  -12.9160   23.7139 N   0  0  0  0  0  0  0  0  0  0  0  0
  -24.7917   -9.8768   24.7750 N   0  0  0  0  0  0  0  0  0  0  0  0
  -28.6619  -21.6201   18.9324 N   0  0  0  0  0  0  0  0  0  0  0  0
  -23.7215  -34.1292   23.0374 N   0  0  0  0  0  0  0  0  0  0  0  0
  -20.1348  -28.6036   21.2870 N   0  0  0  0  0  0  0  0  0  0  0  0
  -27.3331  -23.9495   19.2440 N   0  3  0  0  0  0  0  0  0  0  0  0
  -20.3088  -26.8205   18.1472 N   0  3  0  0  0  0  0  0  0  0  0  0
  -26.4107  -11.2558   25.6329 O   0  0  0  0  0  0  0  0  0  0  0  0
  -23.4262  -32.0047   23.9438 O   0  0  0  0  0  0  0  0  0  0  0  0
  -20.2958  -31.3887   21.9397 O   0  0  0  0  0  0  0  0  0  0  0  0
  -21.7239  -27.0767   20.5655 O   0  0  0  0  0  0  0  0  0  0  0  0
  -29.0072  -16.6203   21.5751 O   0  0  0  0  0  0  0  0  0  0  0  0
  -21.3949   -7.2770   21.2060 O   0  0  0  0  0  0  0  0  0  0  0  0
  -28.3068  -28.8130   20.8441 O   0  0  0  0  0  0  0  0  0  1  0  0
  -21.6560   -2.4416   23.8432 F   0  0  0  0  0  0  0  0  0  0  0  0
  -21.4445   -7.1687   23.9679 F   0  0  0  0  0  0  0  0  0  0  0  0
  1  2  1  0  0  0  0
  1  5  2  0  0  0  0
  2  6  2  0  0  0  0
  3  8  2  0  0  0  0
  3 15  1  0  0  0  0
  4  9  1  0  0  0  0
  4 15  2  0  0  0  0
  5 17  1  0  0  0  0
  6 19  1  0  0  0  0
  7 10  2  0  0  0  0
  7 18  1  0  0  0  0
  8 21  1  0  0  0  0
  9 21  2  0  0  0  0
 10 22  1  0  0  0  0
 11 12  2  0  0  0  0
 11 23  1  0  0  0  0
 12 24  1  0  0  0  0
 13 20  1  0  0  0  0
 13 22  2  0  0  0  0
 14 24  2  0  0  0  0
 14 25  1  0  0  0  0
 15 26  1  0  0  0  0
 16 26  1  0  0  0  0
 16 27  2  0  0  0  0
 16 31  1  0  0  0  0
 17 19  2  0  0  0  0
 17 36  1  0  0  0  0
 18 20  2  0  0  0  0
 18 37  1  0  0  0  0
 19 49  1  0  0  0  0
 20 38  1  0  0  0  0
 21 86  1  0  0  0  0
 22 87  1  0  0  0  0
 23 25  2  0  0  0  0
 23 86  1  0  0  0  0
 24 88  1  0  0  0  0
 25 89  1  0  0  0  0
 26 66  2  0  0  0  0
 27 69  1  0  0  0  0
 27 74  1  0  0  0  0
 28 29  1  0  0  0  0
 28 67  2  0  0  0  0
 28 76  1  0  0  0  0
 29 70  1  0  0  0  0
 29 79  2  0  0  0  0
 30 53  1  0  0  0  0
 30 67  1  0  0  0  0
 30 68  2  0  0  0  0
 31 75  1  0  0  0  0
 31 81  2  0  0  0  0
 32 50  1  0  0  0  0
 32 77  1  0  0  0  0
 32 82  2  0  0  0  0
 33 63  1  0  0  0  0
 33 71  1  0  0  0  0
 33 83  2  0  0  0  0
 34 64  1  0  0  0  0
 34 78  1  0  0  0  0
 34 84  2  0  0  0  0
 35 72  1  0  0  0  0
 35 73  1  0  0  0  0
 35 85  2  0  0  0  0
 36 39  1  0  0  0  0
 37 50  1  0  0  0  0
 38 71  1  0  0  0  0
 39 41  1  0  0  0  0
 40 42  1  0  0  0  0
 40 45  1  0  0  0  0
 41 49  1  0  0  0  0
 42 51  1  0  0  0  0
 43 46  1  0  0  0  0
 43 52  1  0  0  0  0
 44 47  1  0  0  0  0
 44 52  1  0  0  0  0
 45 72  1  0  0  0  0
 46 73  1  0  0  0  0
 47 73  1  0  0  0  0
 48 51  1  0  0  0  0
 48 72  1  0  0  0  0
 49 77  1  0  0  0  0
 50 71  1  0  0  0  0
 51 69  1  0  0  0  0
 52 76  1  0  0  0  0
 54 64  1  0  0  0  0
 55 65  1  0  0  0  0
 56 65  1  0  0  0  0
 57 65  1  0  0  0  0
 58 79  1  0  0  0  0
 59 80  1  0  0  0  0
 60 61  1  0  0  0  0
 60 62  1  0  0  0  0
 61 70  1  0  0  0  0
 62 87  1  0  0  0  0
 63 65  1  0  0  0  0
 63 78  1  0  0  0  0
 64 80  1  0  0  0  0
 66 69  1  0  0  0  0
 68 70  1  0  0  0  0
M  CHG  2  79   1  80   1
M  ISO  4  35 100  62 101  73 100  87 101
M  END
> <Batch ID>
0194

> <Smiles>
CN=c1c(NC2CC[100N:0]([100C:0](=O)N3CCCC(n4nc(-c5ccc(Oc6ccc(F)cc6F)cc5)c(C(N)=O)c4N)C3)CC2)nc(C)nn1CC[101CH2:1][101O:1]c1ccc2c(c1)CN(C(=O)C(NC(=O)C(C)NC)C(C)(C)C)C(C(=O)NC1CCCc3ccccc31)C2

> <Shape>
0.363

> <Color>
0.088

> <Negative vol penalty>
0.000

$$$$

  -OEChem-04052323343D

 89 98  0     1  0  0  0  0  0999 V2000
  -16.6919  -34.7568   24.5251 C   0  0  0  0  0  0  0  0  0  0  0  0
  -16.6975  -34.0042   23.3550 C   0  0  0  0  0  0  0  0  0  0  0  0
  -25.1971   -8.1657   21.3948 C   0  0  0  0  0  0  0  0  0  0  0  0
  -24.3595   -7.9408   19.1398 C   0  0  0  0  0  0  0  0  0  0  0  0
  -17.8583  -35.3915   24.9499 C   0  0  0  0  0  0  0  0  0  0  0  0
  -17.8694  -33.8869   22.6085 C   0  0  0  0  0  0  0  0  0  0  0  0
  -21.7214  -27.4879   20.3188 C   0  0  0  0  0  0  0  0  0  0  0  0
  -23.9553   -7.7745   21.8951 C   0  0  0  0  0  0  0  0  0  0  0  0
  -23.1177   -7.5495   19.6401 C   0  0  0  0  0  0  0  0  0  0  0  0
  -22.5753  -26.4348   19.9904 C   0  0  0  0  0  0  0  0  0  0  0  0
  -22.2441   -4.8920   22.3382 C   0  0  0  0  0  0  0  0  0  0  0  0
  -22.2275   -3.9556   23.3718 C   0  0  0  0  0  0  0  0  0  0  0  0
  -24.4637  -27.9453   20.0120 C   0  0  0  0  0  0  0  0  0  0  0  0
  -21.0968   -5.5469   24.7953 C   0  0  0  0  0  0  0  0  0  0  0  0
  -25.3992   -8.2489   20.0171 C   0  0  0  0  0  0  0  0  0  0  0  0
  -27.7700   -7.8205   19.1783 C   0  0  0  0  0  0  0  0  0  0  0  0
  -19.0476  -35.2740   24.2134 C   0  0  0  0  0  0  0  0  0  0  0  0
  -22.2381  -28.7723   20.5103 C   0  0  0  0  0  0  0  0  0  0  0  0
  -19.0525  -34.5217   23.0232 C   0  0  0  0  0  0  0  0  0  0  0  0
  -23.6149  -29.0016   20.3532 C   0  0  0  0  0  0  0  0  0  0  0  0
  -22.9156   -7.4663   21.0178 C   0  0  0  0  0  0  0  0  0  0  0  0
  -23.9431  -26.6630   19.8372 C   0  0  0  0  0  0  0  0  0  0  0  0
  -21.6871   -6.1559   22.5331 C   0  0  0  0  0  0  0  0  0  0  0  0
  -21.6538   -4.2830   24.6004 C   0  0  0  0  0  0  0  0  0  0  0  0
  -21.1134   -6.4833   23.7616 C   0  0  0  0  0  0  0  0  0  0  0  0
  -26.6817   -8.6536   19.4997 C   0  0  0  0  0  0  0  0  0  0  0  0
  -28.7415   -8.6821   18.7306 C   0  0  0  0  0  0  0  0  0  0  0  0
  -29.0356  -21.2140   22.5926 C   0  0  0  0  0  0  0  0  0  0  0  0
  -28.6048  -22.4536   22.3308 C   0  0  0  0  0  0  0  0  0  0  0  0
  -29.4376  -20.3658   21.4436 C   0  0  0  0  0  0  0  0  0  0  0  0
  -28.9337  -22.0854   19.9414 C   0  0  0  0  0  0  0  0  0  0  0  0
  -27.8919   -6.3953   19.2757 C   0  0  0  0  0  0  0  0  0  0  0  0
  -21.5466  -32.3601   21.3619 C   0  0  0  0  0  0  0  0  0  0  0  0
  -24.1557  -31.5942   22.7818 C   0  0  0  0  0  0  0  0  0  0  0  0
  -26.7611  -30.2326   24.5125 C   0  0  0  0  0  0  0  0  0  0  0  0
  -29.9743  -14.2293   19.7792 C   0  0  0  0  0  0  0  0  0  0  0  0
  -20.2714  -36.0171   24.6873 C   0  0  0  0  0  0  0  0  0  0  0  0
  -21.3471  -29.9485   20.8045 C   0  0  0  0  0  0  0  0  0  0  0  0
  -24.1214  -30.4064   20.5350 C   0  0  0  0  0  0  0  0  0  0  0  0
  -21.5661  -35.5350   24.0380 C   0  0  0  0  0  0  0  0  0  0  0  0
  -29.3037  -12.9191   16.5913 C   0  0  0  0  0  0  0  0  0  0  0  0
  -21.3860  -35.3919   22.5300 C   0  0  0  0  0  0  0  0  0  0  0  0
  -28.6543  -11.5811   16.9437 C   0  0  0  0  0  0  0  0  0  0  0  0
  -29.0480  -17.6195   19.9706 C   0  0  0  0  0  0  0  0  0  0  0  0
  -31.1837  -17.1367   21.2247 C   0  0  0  0  0  0  0  0  0  0  0  0
  -28.8408  -14.0431   17.5201 C   0  0  0  0  0  0  0  0  0  0  0  0
  -29.4358  -16.5587   18.9362 C   0  0  0  0  0  0  0  0  0  0  0  0
  -31.5414  -16.1094   20.1543 C   0  0  0  0  0  0  0  0  0  0  0  0
  -28.3660  -12.4046   19.3113 C   0  0  0  0  0  0  0  0  0  0  0  0
  -20.3103  -34.3504   22.1993 C   0  0  1  0  0  0  0  0  0  0  0  0
  -22.0001  -30.9809   21.7408 C   0  0  1  0  0  0  0  0  0  0  0  0
  -28.8563  -11.2440   18.4318 C   0  0  1  0  0  0  0  0  0  0  0  0
  -30.2815  -18.2276   20.6421 C   0  0  0  0  0  0  0  0  0  0  0  0
  -29.3679  -24.1551   23.9520 C   0  0  0  0  0  0  0  0  0  0  0  0
  -28.5456  -30.8246   26.1745 C   0  0  0  0  0  0  0  0  0  0  0  0
  -25.7388  -32.9897   20.5794 C   0  0  0  0  0  0  0  0  0  0  0  0
  -27.7974  -32.7027   21.9752 C   0  0  0  0  0  0  0  0  0  0  0  0
  -25.8968  -34.0759   22.8265 C   0  0  0  0  0  0  0  0  0  0  0  0
  -25.7187  -28.2983   26.4952 C   0  0  0  0  0  0  0  0  0  0  0  0
  -28.1842  -23.3581   23.4557 C   0  0  0  0  0  0  0  0  0  0  0  0
  -26.6303  -24.2930   20.2526 C   0  0  0  0  0  0  0  0  0  0  0  0
  -28.0692  -24.2699   20.7504 C   0  0  0  0  0  0  0  0  0  0  0  0
  -26.1150  -25.7035   19.9939 C   0  0  0  0  0  0  0  0  0  1  0  0
  -25.6622  -31.5605   22.7283 C   0  0  1  0  0  0  0  0  0  0  0  0
  -27.1343  -30.2914   25.9828 C   0  0  2  0  0  0  0  0  0  0  0  0
  -26.2581  -32.8096   22.0198 C   0  0  0  0  0  0  0  0  0  0  0  0
  -26.9372   -9.9453   19.2754 N   0  0  0  0  0  0  0  0  0  0  0  0
  -29.3771  -20.8062   20.2172 N   0  0  0  0  0  0  0  0  0  0  0  0
  -28.1973   -9.9303   18.8084 N   0  0  0  0  0  0  0  0  0  0  0  0
  -28.5437  -22.9125   21.0184 N   0  0  0  0  0  0  0  0  0  0  0  0
  -23.4715  -31.0281   21.6993 N   0  0  0  0  0  0  0  0  0  0  0  0
  -29.0155  -13.6599   18.9280 N   0  0  0  0  0  0  0  0  0  0  0  0
  -30.3384  -15.5605   19.5276 N   0  0  0  0  0  0  0  0  0  0  0  0
  -29.9996   -8.4862   18.2821 N   0  0  0  0  0  0  0  0  0  0  0  0
  -26.7980   -5.6624   19.7559 N   0  0  0  0  0  0  0  0  0  0  0  0
  -29.8660  -19.1330   21.6907 N   0  0  0  0  0  0  0  0  0  0  0  0
  -20.8384  -33.0118   22.3535 N   0  0  0  0  0  0  0  0  0  0  0  0
  -26.1156  -31.3802   24.1032 N   0  0  0  0  0  0  0  0  0  0  0  0
  -27.0585  -28.9330   26.5912 N   0  3  0  0  0  0  0  0  0  0  0  0
  -28.8867  -22.4776   18.7737 O   0  0  0  0  0  0  0  0  0  0  0  0
  -28.9456   -5.7912   18.9620 O   0  0  0  0  0  0  0  0  0  0  0  0
  -21.8199  -32.8024   20.2522 O   0  0  0  0  0  0  0  0  0  0  0  0
  -23.5982  -32.1130   23.7531 O   0  0  0  0  0  0  0  0  0  0  0  0
  -27.0198  -29.2668   23.7977 O   0  0  0  0  0  0  0  0  0  0  0  0
  -30.4758  -13.5862   20.7099 O   0  0  0  0  0  0  0  0  0  0  0  0
  -21.7037   -7.0842   21.5057 O   0  0  0  0  0  0  0  0  0  0  0  0
  -24.7777  -25.6222   19.5187 O   0  0  0  0  0  0  0  0  0  1  0  0
  -21.6365   -3.3831   25.5924 F   0  0  0  0  0  0  0  0  0  0  0  0
  -20.5757   -7.6956   23.9545 F   0  0  0  0  0  0  0  0  0  0  0  0
  1  2  1  0  0  0  0
  1  5  2  0  0  0  0
  2  6  2  0  0  0  0
  3  8  2  0  0  0  0
  3 15  1  0  0  0  0
  4  9  1  0  0  0  0
  4 15  2  0  0  0  0
  5 17  1  0  0  0  0
  6 19  1  0  0  0  0
  7 10  2  0  0  0  0
  7 18  1  0  0  0  0
  8 21  1  0  0  0  0
  9 21  2  0  0  0  0
 10 22  1  0  0  0  0
 11 12  2  0  0  0  0
 11 23  1  0  0  0  0
 12 24  1  0  0  0  0
 13 20  1  0  0  0  0
 13 22  2  0  0  0  0
 14 24  2  0  0  0  0
 14 25  1  0  0  0  0
 15 26  1  0  0  0  0
 16 26  1  0  0  0  0
 16 27  2  0  0  0  0
 16 32  1  0  0  0  0
 17 19  2  0  0  0  0
 17 37  1  0  0  0  0
 18 20  2  0  0  0  0
 18 38  1  0  0  0  0
 19 50  1  0  0  0  0
 20 39  1  0  0  0  0
 21 86  1  0  0  0  0
 22 87  1  0  0  0  0
 23 25  2  0  0  0  0
 23 86  1  0  0  0  0
 24 88  1  0  0  0  0
 25 89  1  0  0  0  0
 26 67  2  0  0  0  0
 27 69  1  0  0  0  0
 27 74  1  0  0  0  0
 28 29  2  0  0  0  0
 28 30  1  0  0  0  0
 29 60  1  0  0  0  0
 29 70  1  0  0  0  0
 30 68  2  0  0  0  0
 30 76  1  0  0  0  0
 31 68  1  0  0  0  0
 31 70  1  0  0  0  0
 31 80  2  0  0  0  0
 32 75  1  0  0  0  0
 32 81  2  0  0  0  0
 33 51  1  0  0  0  0
 33 77  1  0  0  0  0
 33 82  2  0  0  0  0
 34 64  1  0  0  0  0
 34 71  1  0  0  0  0
 34 83  2  0  0  0  0
 35 65  1  0  0  0  0
 35 78  1  0  0  0  0
 35 84  2  0  0  0  0
 36 72  1  0  0  0  0
 36 73  1  0  0  0  0
 36 85  2  0  0  0  0
 37 40  1  0  0  0  0
 38 51  1  0  0  0  0
 39 71  1  0  0  0  0
 40 42  1  0  0  0  0
 41 43  1  0  0  0  0
 41 46  1  0  0  0  0
 42 50  1  0  0  0  0
 43 52  1  0  0  0  0
 44 47  1  0  0  0  0
 44 53  1  0  0  0  0
 45 48  1  0  0  0  0
 45 53  1  0  0  0  0
 46 72  1  0  0  0  0
 47 73  1  0  0  0  0
 48 73  1  0  0  0  0
 49 52  1  0  0  0  0
 49 72  1  0  0  0  0
 50 77  1  0  0  0  0
 51 71  1  0  0  0  0
 52 69  1  0  0  0  0
 53 76  1  0  0  0  0
 54 60  1  0  0  0  0
 55 65  1  0  0  0  0
 56 66  1  0  0  0  0
 57 66  1  0  0  0  0
 58 66  1  0  0  0  0
 59 79  1  0  0  0  0
 61 62  1  0  0  0  0
 61 63  1  0  0  0  0
 62 70  1  0  0  0  0
 63 87  1  0  0  0  0
 64 66  1  0  0  0  0
 64 78  1  0  0  0  0
 65 79  1  0  0  0  0
 67 69  1  0  0  0  0
M  CHG  1  79   1
M  ISO  4  36 100  63 101  73 100  87 101
M  END
> <Batch ID>
0194

> <Smiles>
CCc1cc(NC2CC[100N:0]([100C:0](=O)N3CCCC(n4nc(-c5ccc(Oc6ccc(F)cc6F)cc5)c(C(N)=O)c4N)C3)CC2)nc(=O)n1CC[101CH2:1][101O:1]c1ccc2c(c1)CN(C(=O)C(NC(=O)C(C)NC)C(C)(C)C)C(C(=O)NC1CCCc3ccccc31)C2

> <Shape>
0.267

> <Color>
0.086

> <Negative vol penalty>
0.000

$$$$

  -OEChem-04052323343D

 83 91  0     1  0  0  0  0  0999 V2000
  -24.1722  -23.8719   20.6751 C   0  0  0  0  0  0  0  0  0  0  0  0
  -25.2173  -22.9856   20.9154 C   0  0  0  0  0  0  0  0  0  0  0  0
  -23.2145  -29.8331   19.9273 C   0  0  0  0  0  0  0  0  0  0  0  0
  -23.6112  -28.4264   21.8511 C   0  0  0  0  0  0  0  0  0  0  0  0
  -22.8616  -23.4989   20.9703 C   0  0  0  0  0  0  0  0  0  0  0  0
  -24.9524  -21.7261   21.4520 C   0  0  0  0  0  0  0  0  0  0  0  0
  -27.4897  -18.0349   19.0895 C   0  0  0  0  0  0  0  0  0  0  0  0
  -21.9264  -30.1022   20.3897 C   0  0  0  0  0  0  0  0  0  0  0  0
  -22.3231  -28.6956   22.3136 C   0  0  0  0  0  0  0  0  0  0  0  0
  -28.8373  -17.8811   19.4122 C   0  0  0  0  0  0  0  0  0  0  0  0
  -19.1719  -27.6663   21.6492 C   0  0  0  0  0  0  0  0  0  0  0  0
  -18.4134  -26.5928   22.1159 C   0  0  0  0  0  0  0  0  0  0  0  0
  -28.2713  -16.0494   20.8764 C   0  0  0  0  0  0  0  0  0  0  0  0
  -18.2537  -27.6481   24.2834 C   0  0  0  0  0  0  0  0  0  0  0  0
  -24.0570  -28.9951   20.6580 C   0  0  0  0  0  0  0  0  0  0  0  0
  -26.5619  -29.4381   20.4664 C   0  0  0  0  0  0  0  0  0  0  0  0
  -22.5796  -22.2307   21.5019 C   0  0  0  0  0  0  0  0  0  0  0  0
  -26.5200  -17.2028   19.6671 C   0  0  0  0  0  0  0  0  0  0  0  0
  -23.6370  -21.3364   21.7559 C   0  0  0  0  0  0  0  0  0  0  0  0
  -26.9124  -16.1931   20.5573 C   0  0  0  0  0  0  0  0  0  0  0  0
  -21.4806  -29.5335   21.5828 C   0  0  0  0  0  0  0  0  0  0  0  0
  -29.2280  -16.8901   20.3080 C   0  0  0  0  0  0  0  0  0  0  0  0
  -19.4713  -28.7307   22.4996 C   0  0  0  0  0  0  0  0  0  0  0  0
  -17.9543  -26.5837   23.4330 C   0  0  0  0  0  0  0  0  0  0  0  0
  -19.0122  -28.7216   23.8167 C   0  0  0  0  0  0  0  0  0  0  0  0
  -25.3875  -28.7163   20.1806 C   0  0  0  0  0  0  0  0  0  0  0  0
  -27.5486  -28.7746   19.7789 C   0  0  0  0  0  0  0  0  0  0  0  0
  -34.2253  -21.0994   22.0790 C   0  0  0  0  0  0  0  0  0  0  0  0
  -33.4158  -20.3443   22.8357 C   0  0  0  0  0  0  0  0  0  0  0  0
  -26.7446  -30.6040   21.2807 C   0  0  0  0  0  0  0  0  0  0  0  0
  -24.0010  -17.6651   21.5497 C   0  0  0  0  0  0  0  0  0  0  0  0
  -23.5123  -14.5029   21.0169 C   0  0  0  0  0  0  0  0  0  0  0  0
  -24.8289  -11.4699   20.1717 C   0  0  0  0  0  0  0  0  0  0  0  0
  -30.0322  -24.0345   18.1951 C   0  0  0  0  0  0  0  0  0  0  0  0
  -21.1519  -21.8902   21.8490 C   0  0  0  0  0  0  0  0  0  0  0  0
  -25.0734  -17.3642   19.2880 C   0  0  0  0  0  0  0  0  0  0  0  0
  -25.9127  -15.2606   21.1893 C   0  0  0  0  0  0  0  0  0  0  0  0
  -20.9172  -20.3975   22.0660 C   0  0  0  0  0  0  0  0  0  0  0  0
  -27.2453  -25.1395   16.2745 C   0  0  0  0  0  0  0  0  0  0  0  0
  -22.0042  -19.8107   22.9609 C   0  0  0  0  0  0  0  0  0  0  0  0
  -26.6073  -26.2231   17.1456 C   0  0  0  0  0  0  0  0  0  0  0  0
  -33.0411  -25.2975   19.9962 C   0  0  0  0  0  0  0  0  0  0  0  0
  -27.8025  -23.9939   17.1166 C   0  0  0  0  0  0  0  0  0  0  0  0
  -28.0973  -25.4890   19.0535 C   0  0  0  0  0  0  0  0  0  0  0  0
  -34.2895  -24.5714   20.4724 C   0  0  0  0  0  0  0  0  0  0  0  0
  -32.3792  -23.0491   20.3421 C   0  0  0  0  0  0  0  0  0  0  0  0
  -23.3873  -19.9521   22.3140 C   0  0  1  0  0  0  0  0  0  0  0  0
  -24.1156  -16.7950   20.3301 C   0  0  1  0  0  0  0  0  0  0  0  0
  -27.5708  -26.6921   18.2524 C   0  0  2  0  0  0  0  0  0  0  0  0
  -32.1996  -24.1986   19.3703 C   0  0  1  0  0  0  0  0  0  0  0  0
  -24.1898   -9.0637   19.8570 C   0  0  0  0  0  0  0  0  0  0  0  0
  -23.4116  -14.1363   24.0444 C   0  0  0  0  0  0  0  0  0  0  0  0
  -23.7287  -11.6786   23.6873 C   0  0  0  0  0  0  0  0  0  0  0  0
  -21.7054  -12.8186   22.7766 C   0  0  0  0  0  0  0  0  0  0  0  0
  -25.6320  -11.5085   17.3235 C   0  0  0  0  0  0  0  0  0  0  0  0
  -34.1780  -22.5925   22.0490 C   0  0  0  0  0  0  0  0  0  0  0  0
  -33.4570  -18.8509   22.8584 C   0  0  0  0  0  0  0  0  0  0  0  0
  -32.2029  -16.7480   22.3648 C   0  0  0  0  0  0  0  0  0  0  0  0
  -30.8429  -16.2400   21.9283 C   0  0  0  0  0  0  0  0  0  1  0  0
  -23.9517  -13.2250   21.6898 C   0  0  1  0  0  0  0  0  0  0  0  0
  -24.3717  -10.4140   19.1815 C   0  0  2  0  0  0  0  0  0  0  0  0
  -23.2182  -12.9833   23.0393 C   0  0  0  0  0  0  0  0  0  0  0  0
  -25.6062  -27.6742   19.3742 N   0  0  0  0  0  0  0  0  0  0  0  0
  -26.9293  -27.7364   19.1473 N   0  0  0  0  0  0  0  0  0  0  0  0
  -24.5095  -15.4624   20.7918 N   0  0  0  0  0  0  0  0  0  0  0  0
  -28.7099  -24.5059   18.1463 N   0  0  0  0  0  0  0  0  0  0  0  0
  -28.8768  -28.9839   19.6589 N   0  0  0  0  0  0  0  0  0  0  0  0
  -25.6245  -31.1577   21.9156 N   0  0  0  0  0  0  0  0  0  0  0  0
  -23.5688  -18.9507   21.2851 N   0  0  0  0  0  0  0  0  0  0  0  0
  -23.7638  -12.1616   20.7088 N   0  0  0  0  0  0  0  0  0  0  0  0
  -30.8273  -24.5761   19.1977 N   0  0  0  0  0  0  0  0  0  0  0  0
  -33.8499  -23.1349   20.6951 N   0  3  2  0  0  0  0  0  0  0  0  0
  -25.3726  -10.2614   18.0879 N   0  3  0  0  0  0  0  0  0  0  0  0
  -32.1797  -18.2317   22.4124 N   0  3  0  0  0  0  0  0  0  0  0  0
  -27.8651  -31.1485   21.4273 O   0  0  0  0  0  0  0  0  0  0  0  0
  -24.2823  -17.2039   22.6496 O   0  0  0  0  0  0  0  0  0  0  0  0
  -22.3293  -14.6417   20.6962 O   0  0  0  0  0  0  0  0  0  0  0  0
  -26.0122  -11.6595   20.4444 O   0  0  0  0  0  0  0  0  0  0  0  0
  -30.4731  -23.1971   17.4005 O   0  0  0  0  0  0  0  0  0  0  0  0
  -20.2238  -29.7961   22.0344 O   0  0  0  0  0  0  0  0  0  0  0  0
  -30.5426  -16.7383   20.6253 O   0  0  0  0  0  0  0  0  0  1  0  0
  -17.2246  -25.5534   23.8807 F   0  0  0  0  0  0  0  0  0  0  0  0
  -19.2957  -29.7418   24.6380 F   0  0  0  0  0  0  0  0  0  0  0  0
  1  2  1  0  0  0  0
  1  5  2  0  0  0  0
  2  6  2  0  0  0  0
  3  8  2  0  0  0  0
  3 15  1  0  0  0  0
  4  9  1  0  0  0  0
  4 15  2  0  0  0  0
  5 17  1  0  0  0  0
  6 19  1  0  0  0  0
  7 10  2  0  0  0  0
  7 18  1  0  0  0  0
  8 21  1  0  0  0  0
  9 21  2  0  0  0  0
 10 22  1  0  0  0  0
 11 12  2  0  0  0  0
 11 23  1  0  0  0  0
 12 24  1  0  0  0  0
 13 20  1  0  0  0  0
 13 22  2  0  0  0  0
 14 24  2  0  0  0  0
 14 25  1  0  0  0  0
 15 26  1  0  0  0  0
 16 26  1  0  0  0  0
 16 27  2  0  0  0  0
 16 30  1  0  0  0  0
 17 19  2  0  0  0  0
 17 35  1  0  0  0  0
 18 20  2  0  0  0  0
 18 36  1  0  0  0  0
 19 47  1  0  0  0  0
 20 37  1  0  0  0  0
 21 80  1  0  0  0  0
 22 81  1  0  0  0  0
 23 25  2  0  0  0  0
 23 80  1  0  0  0  0
 24 82  1  0  0  0  0
 25 83  1  0  0  0  0
 26 63  2  0  0  0  0
 27 64  1  0  0  0  0
 27 67  1  0  0  0  0
 28 29  2  0  0  0  0
 28 56  1  0  0  0  0
 29 57  1  0  0  0  0
 30 68  1  0  0  0  0
 30 75  2  0  0  0  0
 31 48  1  0  0  0  0
 31 69  1  0  0  0  0
 31 76  2  0  0  0  0
 32 60  1  0  0  0  0
 32 65  1  0  0  0  0
 32 77  2  0  0  0  0
 33 61  1  0  0  0  0
 33 70  1  0  0  0  0
 33 78  2  0  0  0  0
 34 66  1  0  0  0  0
 34 71  1  0  0  0  0
 34 79  2  0  0  0  0
 35 38  1  0  0  0  0
 36 48  1  0  0  0  0
 37 65  1  0  0  0  0
 38 40  1  0  0  0  0
 39 41  1  0  0  0  0
 39 43  1  0  0  0  0
 40 47  1  0  0  0  0
 41 49  1  0  0  0  0
 42 45  1  0  0  0  0
 42 50  1  0  0  0  0
 43 66  1  0  0  0  0
 44 49  1  0  0  0  0
 44 66  1  0  0  0  0
 45 72  1  0  0  0  0
 46 50  1  0  0  0  0
 46 72  1  0  0  0  0
 47 69  1  0  0  0  0
 48 65  1  0  0  0  0
 49 64  1  0  0  0  0
 50 71  1  0  0  0  0
 51 61  1  0  0  0  0
 52 62  1  0  0  0  0
 53 62  1  0  0  0  0
 54 62  1  0  0  0  0
 55 73  1  0  0  0  0
 56 72  1  0  0  0  0
 57 74  1  0  0  0  0
 58 59  1  0  0  0  0
 58 74  1  0  0  0  0
 59 81  1  0  0  0  0
 60 62  1  0  0  0  0
 60 70  1  0  0  0  0
 61 73  1  0  0  0  0
 63 64  1  0  0  0  0
M  CHG  3  72   1  73   1  74   1
M  ISO  4  34 100  59 101  71 100  81 101
M  END
> <Batch ID>
0194

> <Smiles>
CNC(C)C(=O)NC(C(=O)N1Cc2cc([101O:1][101CH2:1]CNCC=CCN3CCC([100NH:0][100C:0](=O)N4CCCC(n5nc(-c6ccc(Oc7ccc(F)cc7F)cc6)c(C(N)=O)c5N)C4)C3)ccc2CC1C(=O)NC1CCCc2ccccc21)C(C)(C)C

> <Shape>
0.235

> <Color>
0.066

> <Negative vol penalty>
0.000

$$$$

  -OEChem-04052323343D

 82 91  0     1  0  0  0  0  0999 V2000
  -24.8559  -32.1937   24.5114 C   0  0  0  0  0  0  0  0  0  0  0  0
  -25.1193  -30.8523   24.2534 C   0  0  0  0  0  0  0  0  0  0  0  0
  -23.0326   -9.8537   19.9304 C   0  0  0  0  0  0  0  0  0  0  0  0
  -23.9392   -9.7284   22.1663 C   0  0  0  0  0  0  0  0  0  0  0  0
  -23.5552  -32.6824   24.3954 C   0  0  0  0  0  0  0  0  0  0  0  0
  -24.0820  -29.9984   23.8802 C   0  0  0  0  0  0  0  0  0  0  0  0
  -25.3360  -26.9991   19.9974 C   0  0  0  0  0  0  0  0  0  0  0  0
  -22.3304   -8.6685   20.1487 C   0  0  0  0  0  0  0  0  0  0  0  0
  -23.2369   -8.5432   22.3847 C   0  0  0  0  0  0  0  0  0  0  0  0
  -26.1355  -25.8925   20.2800 C   0  0  0  0  0  0  0  0  0  0  0  0
  -19.4993   -7.7051   21.7266 C   0  0  0  0  0  0  0  0  0  0  0  0
  -18.1649   -7.6585   21.3230 C   0  0  0  0  0  0  0  0  0  0  0  0
  -24.1794  -24.4811   20.2580 C   0  0  0  0  0  0  0  0  0  0  0  0
  -18.6776   -5.8213   19.8401 C   0  0  0  0  0  0  0  0  0  0  0  0
  -28.3396  -21.8699   22.3319 C   0  0  0  0  0  0  0  0  0  0  0  0
  -23.8371  -10.3836   20.9392 C   0  0  0  0  0  0  0  0  0  0  0  0
  -24.1185  -12.9189   20.9682 C   0  0  0  0  0  0  0  0  0  0  0  0
  -22.5030  -31.8362   24.0113 C   0  0  0  0  0  0  0  0  0  0  0  0
  -23.9484  -26.8565   19.8535 C   0  0  0  0  0  0  0  0  0  0  0  0
  -22.7658  -30.4759   23.7603 C   0  0  0  0  0  0  0  0  0  0  0  0
  -23.3648  -25.5870   19.9710 C   0  0  0  0  0  0  0  0  0  0  0  0
  -22.4324   -8.0132   21.3758 C   0  0  0  0  0  0  0  0  0  0  0  0
  -25.5569  -24.6337   20.4132 C   0  0  0  0  0  0  0  0  0  0  0  0
  -20.4229   -6.8098   21.1869 C   0  0  0  0  0  0  0  0  0  0  0  0
  -17.7541   -6.7167   20.3798 C   0  0  0  0  0  0  0  0  0  0  0  0
  -20.0120   -5.8679   20.2437 C   0  0  0  0  0  0  0  0  0  0  0  0
  -24.5633  -11.6076   20.7141 C   0  0  0  0  0  0  0  0  0  0  0  0
  -28.4197  -22.4710   21.1020 C   0  0  0  0  0  0  0  0  0  0  0  0
  -25.1693  -13.7176   20.5878 C   0  0  0  0  0  0  0  0  0  0  0  0
  -29.6229  -20.1819   21.5551 C   0  0  0  0  0  0  0  0  0  0  0  0
  -22.8675  -13.3743   21.5004 C   0  0  0  0  0  0  0  0  0  0  0  0
  -21.4058  -27.9934   21.3853 C   0  0  0  0  0  0  0  0  0  0  0  0
  -19.7895  -26.5240   18.9873 C   0  0  0  0  0  0  0  0  0  0  0  0
  -19.7407  -24.0977   16.5878 C   0  0  0  0  0  0  0  0  0  0  0  0
  -30.6230  -14.8689   20.4808 C   0  0  0  0  0  0  0  0  0  0  0  0
  -21.1056  -32.3995   23.9452 C   0  0  0  0  0  0  0  0  0  0  0  0
  -23.1032  -28.0558   19.5222 C   0  0  0  0  0  0  0  0  0  0  0  0
  -21.8825  -25.3773   19.8056 C   0  0  0  0  0  0  0  0  0  0  0  0
  -20.1266  -31.5120   23.1809 C   0  0  0  0  0  0  0  0  0  0  0  0
  -29.3933  -12.6075   18.0343 C   0  0  0  0  0  0  0  0  0  0  0  0
  -20.2651  -30.0591   23.6244 C   0  0  0  0  0  0  0  0  0  0  0  0
  -27.9920  -12.2516   18.5338 C   0  0  0  0  0  0  0  0  0  0  0  0
  -30.3792  -12.7718   19.1890 C   0  0  0  0  0  0  0  0  0  0  0  0
  -28.5558  -13.3626   20.7357 C   0  0  0  0  0  0  0  0  0  0  0  0
  -29.8719  -17.9369   22.6637 C   0  0  0  0  0  0  0  0  0  0  0  0
  -30.7741  -18.0866   20.7707 C   0  0  0  0  0  0  0  0  0  0  0  0
  -21.6714  -29.5238   23.3290 C   0  0  1  0  0  0  0  0  0  0  0  0
  -21.6372  -27.8778   19.9052 C   0  0  1  0  0  0  0  0  0  0  0  0
  -27.5121  -13.2421   19.6120 C   0  0  2  0  0  0  0  0  0  0  0  0
  -30.7416  -16.9808   21.8352 C   0  0  0  0  0  0  0  0  0  0  0  0
  -18.2675  -23.1148   14.8099 C   0  0  0  0  0  0  0  0  0  0  0  0
  -18.1642  -25.0862   21.1323 C   0  0  0  0  0  0  0  0  0  0  0  0
  -17.4089  -23.4686   19.3771 C   0  0  0  0  0  0  0  0  0  0  0  0
  -16.8302  -25.8866   19.1742 C   0  0  0  0  0  0  0  0  0  0  0  0
  -21.6610  -24.7966   14.4470 C   0  0  0  0  0  0  0  0  0  0  0  0
  -27.7367  -23.7791   20.8305 C   0  0  0  0  0  0  0  0  0  1  0  0
  -19.2139  -25.1448   18.7742 C   0  0  1  0  0  0  0  0  0  0  0  0
  -19.3480  -24.1384   15.1220 C   0  0  2  0  0  0  0  0  0  0  0  0
  -17.9320  -24.9005   19.6195 C   0  0  0  0  0  0  0  0  0  0  0  0
  -28.9449  -20.7007   22.5897 N   0  0  0  0  0  0  0  0  0  0  0  0
  -25.8001  -11.5710   20.2112 N   0  0  0  0  0  0  0  0  0  0  0  0
  -29.1154  -21.9023   20.1007 N   0  0  0  0  0  0  0  0  0  0  0  0
  -29.7358  -20.7258   20.3273 N   0  0  0  0  0  0  0  0  0  0  0  0
  -26.1414  -12.8692   20.1460 N   0  0  0  0  0  0  0  0  0  0  0  0
  -30.2794  -18.9520   21.7707 N   0  0  0  0  0  0  0  0  0  0  0  0
  -21.0976  -26.5818   19.4886 N   0  0  0  0  0  0  0  0  0  0  0  0
  -29.8646  -13.7288   20.1718 N   0  0  0  0  0  0  0  0  0  0  0  0
  -25.3471  -15.0558   20.5915 N   0  0  0  0  0  0  0  0  0  0  0  0
  -21.8985  -12.4201   21.8390 N   0  0  0  0  0  0  0  0  0  0  0  0
  -21.8048  -29.2015   21.9245 N   0  0  0  0  0  0  0  0  0  0  0  0
  -19.0171  -25.0023   17.3357 N   0  0  0  0  0  0  0  0  0  0  0  0
  -30.0662  -15.7357   21.4155 N   0  0  0  0  0  0  0  0  0  0  0  0
  -20.5300  -23.8515   14.2609 N   0  3  0  0  0  0  0  0  0  0  0  0
  -22.6103  -14.5922   21.6554 O   0  0  0  0  0  0  0  0  0  0  0  0
  -20.9012  -27.0564   21.9930 O   0  0  0  0  0  0  0  0  0  0  0  0
  -19.1063  -27.5135   18.7121 O   0  0  0  0  0  0  0  0  0  0  0  0
  -20.6006  -23.3368   17.0261 O   0  0  0  0  0  0  0  0  0  0  0  0
  -31.7171  -15.1085   19.9584 O   0  0  0  0  0  0  0  0  0  0  0  0
  -21.7471   -6.8568   21.5892 O   0  0  0  0  0  0  0  0  0  0  0  0
  -26.3350  -23.5520   20.6897 O   0  0  0  0  0  0  0  0  0  1  0  0
  -16.4723   -6.6710   19.9934 F   0  0  0  0  0  0  0  0  0  0  0  0
  -20.8944   -5.0045   19.7226 F   0  0  0  0  0  0  0  0  0  0  0  0
  1  2  1  0  0  0  0
  1  5  2  0  0  0  0
  2  6  2  0  0  0  0
  3  8  2  0  0  0  0
  3 16  1  0  0  0  0
  4  9  1  0  0  0  0
  4 16  2  0  0  0  0
  5 18  1  0  0  0  0
  6 20  1  0  0  0  0
  7 10  2  0  0  0  0
  7 19  1  0  0  0  0
  8 22  1  0  0  0  0
  9 22  2  0  0  0  0
 10 23  1  0  0  0  0
 11 12  2  0  0  0  0
 11 24  1  0  0  0  0
 12 25  1  0  0  0  0
 13 21  1  0  0  0  0
 13 23  2  0  0  0  0
 14 25  2  0  0  0  0
 14 26  1  0  0  0  0
 15 28  1  0  0  0  0
 15 60  2  0  0  0  0
 16 27  1  0  0  0  0
 17 27  1  0  0  0  0
 17 29  2  0  0  0  0
 17 31  1  0  0  0  0
 18 20  2  0  0  0  0
 18 36  1  0  0  0  0
 19 21  2  0  0  0  0
 19 37  1  0  0  0  0
 20 47  1  0  0  0  0
 21 38  1  0  0  0  0
 22 79  1  0  0  0  0
 23 80  1  0  0  0  0
 24 26  2  0  0  0  0
 24 79  1  0  0  0  0
 25 81  1  0  0  0  0
 26 82  1  0  0  0  0
 27 61  2  0  0  0  0
 28 56  1  0  0  0  0
 28 62  2  0  0  0  0
 29 64  1  0  0  0  0
 29 68  1  0  0  0  0
 30 60  1  0  0  0  0
 30 63  2  0  0  0  0
 30 65  1  0  0  0  0
 31 69  1  0  0  0  0
 31 74  2  0  0  0  0
 32 48  1  0  0  0  0
 32 70  1  0  0  0  0
 32 75  2  0  0  0  0
 33 57  1  0  0  0  0
 33 66  1  0  0  0  0
 33 76  2  0  0  0  0
 34 58  1  0  0  0  0
 34 71  1  0  0  0  0
 34 77  2  0  0  0  0
 35 67  1  0  0  0  0
 35 72  1  0  0  0  0
 35 78  2  0  0  0  0
 36 39  1  0  0  0  0
 37 48  1  0  0  0  0
 38 66  1  0  0  0  0
 39 41  1  0  0  0  0
 40 42  1  0  0  0  0
 40 43  1  0  0  0  0
 41 47  1  0  0  0  0
 42 49  1  0  0  0  0
 43 67  1  0  0  0  0
 44 49  1  0  0  0  0
 44 67  1  0  0  0  0
 45 50  1  0  0  0  0
 45 65  1  0  0  0  0
 46 50  1  0  0  0  0
 46 65  1  0  0  0  0
 47 70  1  0  0  0  0
 48 66  1  0  0  0  0
 49 64  1  0  0  0  0
 50 72  1  0  0  0  0
 51 58  1  0  0  0  0
 52 59  1  0  0  0  0
 53 59  1  0  0  0  0
 54 59  1  0  0  0  0
 55 73  1  0  0  0  0
 56 80  1  0  0  0  0
 57 59  1  0  0  0  0
 57 71  1  0  0  0  0
 58 73  1  0  0  0  0
 61 64  1  0  0  0  0
 62 63  1  0  0  0  0
M  CHG  1  73   1
M  ISO  4  35 100  56 101  72 100  80 101
M  END
> <Batch ID>
0194

> <Smiles>
CNC(C)C(=O)NC(C(=O)N1Cc2cc([101O:1][101CH2:1]c3cnc(N4CC([100NH:0][100C:0](=O)N5CCCC(n6nc(-c7ccc(Oc8ccc(F)cc8F)cc7)c(C(N)=O)c6N)C5)C4)nn3)ccc2CC1C(=O)NC1CCCc2ccccc21)C(C)(C)C

> <Shape>
0.272

> <Color>
0.209

> <Negative vol penalty>
0.000

$$$$

  -OEChem-04052323343D

 85 94  0     1  0  0  0  0  0999 V2000
  -25.1902  -37.7283   23.7736 C   0  0  0  0  0  0  0  0  0  0  0  0
  -25.9959  -36.9438   22.9545 C   0  0  0  0  0  0  0  0  0  0  0  0
  -25.0812  -10.1554   23.1601 C   0  0  0  0  0  0  0  0  0  0  0  0
  -24.0552   -9.1611   21.2118 C   0  0  0  0  0  0  0  0  0  0  0  0
  -24.4069  -37.1291   24.7591 C   0  0  0  0  0  0  0  0  0  0  0  0
  -26.0196  -35.5596   23.1214 C   0  0  0  0  0  0  0  0  0  0  0  0
  -26.7566  -29.4970   19.3773 C   0  0  0  0  0  0  0  0  0  0  0  0
  -24.1177   -9.5577   23.9725 C   0  0  0  0  0  0  0  0  0  0  0  0
  -23.0917   -8.5634   22.0243 C   0  0  0  0  0  0  0  0  0  0  0  0
  -27.5054  -28.3210   19.3682 C   0  0  0  0  0  0  0  0  0  0  0  0
  -22.8737   -5.8768   24.0628 C   0  0  0  0  0  0  0  0  0  0  0  0
  -22.5681   -4.5369   23.8246 C   0  0  0  0  0  0  0  0  0  0  0  0
  -26.0503  -27.3886   21.0512 C   0  0  0  0  0  0  0  0  0  0  0  0
  -30.4361  -24.4162   20.4957 C   0  0  0  0  0  0  0  0  0  0  0  0
  -20.2705   -5.1394   23.3830 C   0  0  0  0  0  0  0  0  0  0  0  0
  -25.0499   -9.9571   21.7797 C   0  0  0  0  0  0  0  0  0  0  0  0
  -27.2885  -10.0368   20.5591 C   0  0  0  0  0  0  0  0  0  0  0  0
  -24.4137  -35.7359   24.9318 C   0  0  0  0  0  0  0  0  0  0  0  0
  -25.6537  -29.6319   20.2327 C   0  0  0  0  0  0  0  0  0  0  0  0
  -25.2367  -34.9413   24.1110 C   0  0  0  0  0  0  0  0  0  0  0  0
  -25.2876  -28.5663   21.0674 C   0  0  0  0  0  0  0  0  0  0  0  0
  -31.0211  -23.1628   20.5389 C   0  0  0  0  0  0  0  0  0  0  0  0
  -23.1230   -8.7617   23.4047 C   0  0  0  0  0  0  0  0  0  0  0  0
  -27.1540  -27.2676   20.2073 C   0  0  0  0  0  0  0  0  0  0  0  0
  -21.8777   -6.8481   23.9611 C   0  0  0  0  0  0  0  0  0  0  0  0
  -21.2665   -4.1682   23.4847 C   0  0  0  0  0  0  0  0  0  0  0  0
  -20.5761   -6.4794   23.6212 C   0  0  0  0  0  0  0  0  0  0  0  0
  -26.0445  -10.5748   20.9399 C   0  0  0  0  0  0  0  0  0  0  0  0
  -29.6488  -24.7244   19.4046 C   0  0  0  0  0  0  0  0  0  0  0  0
  -30.7798  -22.3006   19.4882 C   0  0  0  0  0  0  0  0  0  0  0  0
  -27.8533  -11.0057   19.7661 C   0  0  0  0  0  0  0  0  0  0  0  0
  -27.8805   -8.7742   20.8922 C   0  0  0  0  0  0  0  0  0  0  0  0
  -24.9062  -31.5676   22.6406 C   0  0  0  0  0  0  0  0  0  0  0  0
  -22.0487  -30.0421   22.4674 C   0  0  0  0  0  0  0  0  0  0  0  0
  -20.3000  -27.2625   21.5384 C   0  0  0  0  0  0  0  0  0  0  0  0
  -29.1654  -16.0860   18.6306 C   0  0  0  0  0  0  0  0  0  0  0  0
  -23.5861  -35.1380   26.0418 C   0  0  0  0  0  0  0  0  0  0  0  0
  -24.8402  -30.8969   20.2113 C   0  0  0  0  0  0  0  0  0  0  0  0
  -24.1002  -28.6533   21.9898 C   0  0  0  0  0  0  0  0  0  0  0  0
  -23.3835  -33.6310   25.9065 C   0  0  0  0  0  0  0  0  0  0  0  0
  -25.8781  -15.2009   17.7624 C   0  0  0  0  0  0  0  0  0  0  0  0
  -24.7051  -32.9417   25.5823 C   0  0  0  0  0  0  0  0  0  0  0  0
  -25.7228  -13.8640   18.4866 C   0  0  0  0  0  0  0  0  0  0  0  0
  -26.6347  -16.2267   18.6082 C   0  0  0  0  0  0  0  0  0  0  0  0
  -28.4813  -18.5234   18.7545 C   0  0  0  0  0  0  0  0  0  0  0  0
  -30.4461  -17.8328   17.4314 C   0  0  0  0  0  0  0  0  0  0  0  0
  -27.7892  -14.4103   19.8275 C   0  0  0  0  0  0  0  0  0  0  0  0
  -29.3513  -19.4783   19.5656 C   0  0  0  0  0  0  0  0  0  0  0  0
  -31.3477  -18.7549   18.2359 C   0  0  0  0  0  0  0  0  0  0  0  0
  -25.2707  -33.4343   24.2449 C   0  0  1  0  0  0  0  0  0  0  0  0
  -24.0451  -31.1178   21.4944 C   0  0  1  0  0  0  0  0  0  0  0  0
  -27.0841  -13.3411   18.9787 C   0  0  1  0  0  0  0  0  0  0  0  0
  -31.8795  -22.7797   21.6943 C   0  0  0  0  0  0  0  0  0  0  0  0
  -17.9857  -26.2926   21.5601 C   0  0  0  0  0  0  0  0  0  0  0  0
  -22.3330  -29.4366   25.4444 C   0  0  0  0  0  0  0  0  0  0  0  0
  -20.5383  -27.7090   25.1932 C   0  0  0  0  0  0  0  0  0  0  0  0
  -20.0317  -30.1075   24.7314 C   0  0  0  0  0  0  0  0  0  0  0  0
  -20.2158  -27.0983   18.5846 C   0  0  0  0  0  0  0  0  0  0  0  0
  -31.3807  -20.9261   19.4654 C   0  0  0  0  0  0  0  0  0  0  0  0
  -28.9963  -26.0609   19.3095 C   0  0  0  0  0  0  0  0  0  1  0  0
  -21.4571  -28.8052   23.0991 C   0  0  1  0  0  0  0  0  0  0  0  0
  -19.0023  -27.0997   20.7678 C   0  0  2  0  0  0  0  0  0  0  0  0
  -21.1136  -29.0133   24.6012 C   0  0  0  0  0  0  0  0  0  0  0  0
  -25.8312  -11.7911   20.4309 N   0  0  0  0  0  0  0  0  0  0  0  0
  -29.4299  -23.8608   18.3905 N   0  0  0  0  0  0  0  0  0  0  0  0
  -30.0045  -22.6289   18.4331 N   0  0  0  0  0  0  0  0  0  0  0  0
  -26.9487  -12.0255   19.7222 N   0  0  0  0  0  0  0  0  0  0  0  0
  -23.3401  -29.9131   21.9370 N   0  0  0  0  0  0  0  0  0  0  0  0
  -27.9067  -15.6691   19.0885 N   0  0  0  0  0  0  0  0  0  0  0  0
  -29.2807  -17.4192   18.2100 N   0  0  0  0  0  0  0  0  0  0  0  0
  -29.0305  -11.0763   19.1092 N   0  0  0  0  0  0  0  0  0  0  0  0
  -27.1638   -7.8974   21.7180 N   0  0  0  0  0  0  0  0  0  0  0  0
  -24.5723  -32.8118   23.1407 N   0  0  0  0  0  0  0  0  0  0  0  0
  -20.3157  -28.4303   22.2715 N   0  0  0  0  0  0  0  0  0  0  0  0
  -30.5311  -19.9239   18.7354 N   0  3  0  0  0  0  0  0  0  0  0  0
  -19.2517  -26.4018   19.4749 N   0  3  0  0  0  0  0  0  0  0  0  0
  -29.0185   -8.4404   20.4835 O   0  0  0  0  0  0  0  0  0  0  0  0
  -25.8059  -30.8392   23.0426 O   0  0  0  0  0  0  0  0  0  0  0  0
  -21.3865  -31.0824   22.4390 O   0  0  0  0  0  0  0  0  0  0  0  0
  -21.2075  -26.4346   21.4973 O   0  0  0  0  0  0  0  0  0  0  0  0
  -30.1306  -15.3120   18.5999 O   0  0  0  0  0  0  0  0  0  0  0  0
  -22.1828   -8.1781   24.1972 O   0  0  0  0  0  0  0  0  0  0  0  0
  -27.8885  -26.1111   20.2008 O   0  0  0  0  0  0  0  0  0  1  0  0
  -20.9736   -2.8816   23.2545 F   0  0  0  0  0  0  0  0  0  0  0  0
  -19.6152   -7.4081   23.5209 F   0  0  0  0  0  0  0  0  0  0  0  0
  1  2  1  0  0  0  0
  1  5  2  0  0  0  0
  2  6  2  0  0  0  0
  3  8  2  0  0  0  0
  3 16  1  0  0  0  0
  4  9  1  0  0  0  0
  4 16  2  0  0  0  0
  5 18  1  0  0  0  0
  6 20  1  0  0  0  0
  7 10  2  0  0  0  0
  7 19  1  0  0  0  0
  8 23  1  0  0  0  0
  9 23  2  0  0  0  0
 10 24  1  0  0  0  0
 11 12  2  0  0  0  0
 11 25  1  0  0  0  0
 12 26  1  0  0  0  0
 13 21  1  0  0  0  0
 13 24  2  0  0  0  0
 14 22  2  0  0  0  0
 14 29  1  0  0  0  0
 15 26  2  0  0  0  0
 15 27  1  0  0  0  0
 16 28  1  0  0  0  0
 17 28  1  0  0  0  0
 17 31  2  0  0  0  0
 17 32  1  0  0  0  0
 18 20  2  0  0  0  0
 18 37  1  0  0  0  0
 19 21  2  0  0  0  0
 19 38  1  0  0  0  0
 20 50  1  0  0  0  0
 21 39  1  0  0  0  0
 22 30  1  0  0  0  0
 22 53  1  0  0  0  0
 23 82  1  0  0  0  0
 24 83  1  0  0  0  0
 25 27  2  0  0  0  0
 25 82  1  0  0  0  0
 26 84  1  0  0  0  0
 27 85  1  0  0  0  0
 28 64  2  0  0  0  0
 29 60  1  0  0  0  0
 29 65  2  0  0  0  0
 30 59  1  0  0  0  0
 30 66  2  0  0  0  0
 31 67  1  0  0  0  0
 31 71  1  0  0  0  0
 32 72  1  0  0  0  0
 32 77  2  0  0  0  0
 33 51  1  0  0  0  0
 33 73  1  0  0  0  0
 33 78  2  0  0  0  0
 34 61  1  0  0  0  0
 34 68  1  0  0  0  0
 34 79  2  0  0  0  0
 35 62  1  0  0  0  0
 35 74  1  0  0  0  0
 35 80  2  0  0  0  0
 36 69  1  0  0  0  0
 36 70  1  0  0  0  0
 36 81  2  0  0  0  0
 37 40  1  0  0  0  0
 38 51  1  0  0  0  0
 39 68  1  0  0  0  0
 40 42  1  0  0  0  0
 41 43  1  0  0  0  0
 41 44  1  0  0  0  0
 42 50  1  0  0  0  0
 43 52  1  0  0  0  0
 44 69  1  0  0  0  0
 45 48  1  0  0  0  0
 45 70  1  0  0  0  0
 46 49  1  0  0  0  0
 46 70  1  0  0  0  0
 47 52  1  0  0  0  0
 47 69  1  0  0  0  0
 48 75  1  0  0  0  0
 49 75  1  0  0  0  0
 50 73  1  0  0  0  0
 51 68  1  0  0  0  0
 52 67  1  0  0  0  0
 54 62  1  0  0  0  0
 55 63  1  0  0  0  0
 56 63  1  0  0  0  0
 57 63  1  0  0  0  0
 58 76  1  0  0  0  0
 59 75  1  0  0  0  0
 60 83  1  0  0  0  0
 61 63  1  0  0  0  0
 61 74  1  0  0  0  0
 62 76  1  0  0  0  0
 64 67  1  0  0  0  0
 65 66  1  0  0  0  0
M  CHG  2  75   1  76   1
M  ISO  4  36 100  60 101  70 100  83 101
M  END
> <Batch ID>
0194

> <Smiles>
CNC(C)C(=O)NC(C(=O)N1Cc2cc([101O:1][101CH2:1]c3cc(C)c(CN4CC[100N:0]([100C:0](=O)N5CCCC(n6nc(-c7ccc(Oc8ccc(F)cc8F)cc7)c(C(N)=O)c6N)C5)CC4)nn3)ccc2CC1C(=O)NC1CCCc2ccccc21)C(C)(C)C

> <Shape>
0.336

> <Color>
0.091

> <Negative vol penalty>
0.000

$$$$

  -OEChem-04052323343D

 80 89  0     1  0  0  0  0  0999 V2000
  -23.6194  -30.3089   21.3666 C   0  0  0  0  0  0  0  0  0  0  0  0
  -24.3767  -29.1677   21.1226 C   0  0  0  0  0  0  0  0  0  0  0  0
  -23.3660   -9.5975   20.9967 C   0  0  0  0  0  0  0  0  0  0  0  0
  -24.0071  -10.3887   23.1876 C   0  0  0  0  0  0  0  0  0  0  0  0
  -24.2407  -31.5552   21.4336 C   0  0  0  0  0  0  0  0  0  0  0  0
  -25.7557  -29.2723   20.9445 C   0  0  0  0  0  0  0  0  0  0  0  0
  -28.3191  -25.7334   23.5039 C   0  0  0  0  0  0  0  0  0  0  0  0
  -22.7121   -8.5122   21.5800 C   0  0  0  0  0  0  0  0  0  0  0  0
  -23.3531   -9.3035   23.7709 C   0  0  0  0  0  0  0  0  0  0  0  0
  -28.3530  -24.4514   22.9571 C   0  0  0  0  0  0  0  0  0  0  0  0
  -19.7741   -7.9229   23.1466 C   0  0  0  0  0  0  0  0  0  0  0  0
  -18.5019   -7.6021   22.6734 C   0  0  0  0  0  0  0  0  0  0  0  0
  -30.5582  -24.8891   22.0827 C   0  0  0  0  0  0  0  0  0  0  0  0
  -19.2912   -5.4087   22.0384 C   0  0  0  0  0  0  0  0  0  0  0  0
  -27.8538  -19.9825   20.2480 C   0  0  0  0  0  0  0  0  0  0  0  0
  -24.0135  -10.5357   21.8005 C   0  0  0  0  0  0  0  0  0  0  0  0
  -24.1434  -12.9199   20.9024 C   0  0  0  0  0  0  0  0  0  0  0  0
  -25.6294  -31.6740   21.2658 C   0  0  0  0  0  0  0  0  0  0  0  0
  -29.4019  -26.6082   23.3346 C   0  0  0  0  0  0  0  0  0  0  0  0
  -26.3960  -30.5215   21.0081 C   0  0  0  0  0  0  0  0  0  0  0  0
  -30.5366  -26.1808   22.6306 C   0  0  0  0  0  0  0  0  0  0  0  0
  -28.6053  -20.6141   21.2803 C   0  0  0  0  0  0  0  0  0  0  0  0
  -22.7056   -8.3652   22.9670 C   0  0  0  0  0  0  0  0  0  0  0  0
  -29.4714  -24.0300   22.2439 C   0  0  0  0  0  0  0  0  0  0  0  0
  -20.8050   -6.9867   23.0656 C   0  0  0  0  0  0  0  0  0  0  0  0
  -18.2604   -6.3449   22.1193 C   0  0  0  0  0  0  0  0  0  0  0  0
  -20.5635   -5.7296   22.5115 C   0  0  0  0  0  0  0  0  0  0  0  0
  -24.6897  -11.6567   21.1985 C   0  0  0  0  0  0  0  0  0  0  0  0
  -29.6002  -19.7157   21.5415 C   0  0  0  0  0  0  0  0  0  0  0  0
  -25.1841  -13.6220   20.3452 C   0  0  0  0  0  0  0  0  0  0  0  0
  -22.8141  -13.4144   21.1123 C   0  0  0  0  0  0  0  0  0  0  0  0
  -29.8021  -29.4399   21.9471 C   0  0  0  0  0  0  0  0  0  0  0  0
  -32.7619  -29.2277   23.2573 C   0  0  0  0  0  0  0  0  0  0  0  0
  -35.2575  -27.2412   24.4708 C   0  0  0  0  0  0  0  0  0  0  0  0
  -30.5442  -15.1758   20.3179 C   0  0  0  0  0  0  0  0  0  0  0  0
  -26.2498  -33.0483   21.2999 C   0  0  0  0  0  0  0  0  0  0  0  0
  -29.3607  -27.9785   23.9535 C   0  0  0  0  0  0  0  0  0  0  0  0
  -31.7335  -27.0745   22.4378 C   0  0  0  0  0  0  0  0  0  0  0  0
  -30.7971  -19.4888   22.3704 C   0  0  0  0  0  0  0  0  0  0  0  0
  -27.7664  -33.0277   21.4725 C   0  0  0  0  0  0  0  0  0  0  0  0
  -31.0426  -17.9657   22.1631 C   0  0  0  0  0  0  0  0  0  0  0  0
  -29.7355  -12.0704   18.7755 C   0  0  0  0  0  0  0  0  0  0  0  0
  -28.3973  -32.0085   20.5291 C   0  0  0  0  0  0  0  0  0  0  0  0
  -28.3087  -11.7874   19.2489 C   0  0  0  0  0  0  0  0  0  0  0  0
  -30.5693  -12.7404   19.8654 C   0  0  0  0  0  0  0  0  0  0  0  0
  -28.5451  -13.6773   20.9136 C   0  0  0  0  0  0  0  0  0  0  0  0
  -27.8977  -30.5912   20.8342 C   0  0  1  0  0  0  0  0  0  0  0  0
  -30.3082  -28.9668   23.2804 C   0  0  1  0  0  0  0  0  0  0  0  0
  -27.6494  -13.0527   19.8301 C   0  0  2  0  0  0  0  0  0  0  0  0
  -30.3638  -17.5996   20.8198 C   0  0  2  0  0  0  0  0  0  0  0  0
  -37.5715  -27.3532   25.4355 C   0  0  0  0  0  0  0  0  0  0  0  0
  -33.8953  -29.7453   20.4721 C   0  0  0  0  0  0  0  0  0  0  0  0
  -36.1093  -28.9147   21.2947 C   0  0  0  0  0  0  0  0  0  0  0  0
  -35.0809  -30.9430   22.3200 C   0  0  0  0  0  0  0  0  0  0  0  0
  -34.3816  -26.0102   27.0157 C   0  0  0  0  0  0  0  0  0  0  0  0
  -28.3633  -21.9515   21.9162 C   0  0  0  0  0  0  0  0  0  1  0  0
  -34.0912  -28.6688   22.8107 C   0  0  1  0  0  0  0  0  0  0  0  0
  -36.0823  -27.3238   25.7426 C   0  0  2  0  0  0  0  0  0  0  0  0
  -34.7710  -29.5516   21.7262 C   0  0  0  0  0  0  0  0  0  0  0  0
  -28.3423  -18.7818   19.8907 N   0  0  0  0  0  0  0  0  0  0  0  0
  -25.9774  -11.5590   20.8575 N   0  0  0  0  0  0  0  0  0  0  0  0
  -29.3804  -18.6663   20.7125 N   0  0  0  0  0  0  0  0  0  0  0  0
  -26.2489  -12.7697   20.3413 N   0  0  0  0  0  0  0  0  0  0  0  0
  -31.6428  -28.4074   23.0565 N   0  0  0  0  0  0  0  0  0  0  0  0
  -29.8891  -13.9345   20.3729 N   0  0  0  0  0  0  0  0  0  0  0  0
  -25.2831  -14.8790   19.8631 N   0  0  0  0  0  0  0  0  0  0  0  0
  -21.8682  -12.5610   21.6965 N   0  0  0  0  0  0  0  0  0  0  0  0
  -28.5680  -30.0593   22.0013 N   0  0  0  0  0  0  0  0  0  0  0  0
  -34.8865  -28.4906   24.0207 N   0  0  0  0  0  0  0  0  0  0  0  0
  -29.8264  -16.2572   20.8140 N   0  0  0  0  0  0  0  0  0  0  0  0
  -35.8058  -26.1487   26.6165 N   0  3  0  0  0  0  0  0  0  0  0  0
  -22.4708  -14.5732   20.7763 O   0  0  0  0  0  0  0  0  0  0  0  0
  -30.4816  -29.2578   20.9437 O   0  0  0  0  0  0  0  0  0  0  0  0
  -32.7191  -30.3479   23.7722 O   0  0  0  0  0  0  0  0  0  0  0  0
  -34.9741  -26.1752   23.9287 O   0  0  0  0  0  0  0  0  0  0  0  0
  -31.6821  -15.3112   19.8557 O   0  0  0  0  0  0  0  0  0  0  0  0
  -22.0674   -7.3065   23.5365 O   0  0  0  0  0  0  0  0  0  0  0  0
  -29.5069  -22.7794   21.7086 O   0  0  0  0  0  0  0  0  0  1  0  0
  -17.0382   -6.0364   21.6663 F   0  0  0  0  0  0  0  0  0  0  0  0
  -21.5496   -4.8256   22.4321 F   0  0  0  0  0  0  0  0  0  0  0  0
  1  2  1  0  0  0  0
  1  5  2  0  0  0  0
  2  6  2  0  0  0  0
  3  8  2  0  0  0  0
  3 16  1  0  0  0  0
  4  9  1  0  0  0  0
  4 16  2  0  0  0  0
  5 18  1  0  0  0  0
  6 20  1  0  0  0  0
  7 10  2  0  0  0  0
  7 19  1  0  0  0  0
  8 23  1  0  0  0  0
  9 23  2  0  0  0  0
 10 24  1  0  0  0  0
 11 12  2  0  0  0  0
 11 25  1  0  0  0  0
 12 26  1  0  0  0  0
 13 21  1  0  0  0  0
 13 24  2  0  0  0  0
 14 26  2  0  0  0  0
 14 27  1  0  0  0  0
 15 22  1  0  0  0  0
 15 60  2  0  0  0  0
 16 28  1  0  0  0  0
 17 28  1  0  0  0  0
 17 30  2  0  0  0  0
 17 31  1  0  0  0  0
 18 20  2  0  0  0  0
 18 36  1  0  0  0  0
 19 21  2  0  0  0  0
 19 37  1  0  0  0  0
 20 47  1  0  0  0  0
 21 38  1  0  0  0  0
 22 29  2  0  0  0  0
 22 56  1  0  0  0  0
 23 77  1  0  0  0  0
 24 78  1  0  0  0  0
 25 27  2  0  0  0  0
 25 77  1  0  0  0  0
 26 79  1  0  0  0  0
 27 80  1  0  0  0  0
 28 61  2  0  0  0  0
 29 39  1  0  0  0  0
 29 62  1  0  0  0  0
 30 63  1  0  0  0  0
 30 66  1  0  0  0  0
 31 67  1  0  0  0  0
 31 72  2  0  0  0  0
 32 48  1  0  0  0  0
 32 68  1  0  0  0  0
 32 73  2  0  0  0  0
 33 57  1  0  0  0  0
 33 64  1  0  0  0  0
 33 74  2  0  0  0  0
 34 58  1  0  0  0  0
 34 69  1  0  0  0  0
 34 75  2  0  0  0  0
 35 65  1  0  0  0  0
 35 70  1  0  0  0  0
 35 76  2  0  0  0  0
 36 40  1  0  0  0  0
 37 48  1  0  0  0  0
 38 64  1  0  0  0  0
 39 41  1  0  0  0  0
 40 43  1  0  0  0  0
 41 50  1  0  0  0  0
 42 44  1  0  0  0  0
 42 45  1  0  0  0  0
 43 47  1  0  0  0  0
 44 49  1  0  0  0  0
 45 65  1  0  0  0  0
 46 49  1  0  0  0  0
 46 65  1  0  0  0  0
 47 68  1  0  0  0  0
 48 64  1  0  0  0  0
 49 63  1  0  0  0  0
 50 62  1  0  0  0  0
 50 70  1  0  0  0  0
 51 58  1  0  0  0  0
 52 59  1  0  0  0  0
 53 59  1  0  0  0  0
 54 59  1  0  0  0  0
 55 71  1  0  0  0  0
 56 78  1  0  0  0  0
 57 59  1  0  0  0  0
 57 69  1  0  0  0  0
 58 71  1  0  0  0  0
 60 62  1  0  0  0  0
 61 63  1  0  0  0  0
M  CHG  1  71   1
M  ISO  4  35 100  56 101  70 100  78 101
M  END
> <Batch ID>
0194

> <Smiles>
CNC(C)C(=O)NC(C(=O)N1Cc2cc([101O:1][101CH2:1]c3cnn4c3CCC4[100NH:0][100C:0](=O)N3CCCC(n4nc(-c5ccc(Oc6ccc(F)cc6F)cc5)c(C(N)=O)c4N)C3)ccc2CC1C(=O)NC1CCCc2ccccc21)C(C)(C)C

> <Shape>
0.246

> <Color>
0.159

> <Negative vol penalty>
0.000

$$$$

  -OEChem-04052323343D

 85 94  0     1  0  0  0  0  0999 V2000
  -27.7514  -10.2960   22.4635 C   0  0  0  0  0  0  0  0  0  0  0  0
  -28.3741  -11.5111   22.1963 C   0  0  0  0  0  0  0  0  0  0  0  0
  -19.9571  -28.4987   23.7838 C   0  0  0  0  0  0  0  0  0  0  0  0
  -20.5625  -26.7937   22.1827 C   0  0  0  0  0  0  0  0  0  0  0  0
  -26.4463  -10.0720   22.0273 C   0  0  0  0  0  0  0  0  0  0  0  0
  -27.6922  -12.5025   21.4916 C   0  0  0  0  0  0  0  0  0  0  0  0
  -28.1361  -18.5574   22.2957 C   0  0  0  0  0  0  0  0  0  0  0  0
  -18.6229  -28.3940   23.3908 C   0  0  0  0  0  0  0  0  0  0  0  0
  -19.2283  -26.6889   21.7897 C   0  0  0  0  0  0  0  0  0  0  0  0
  -28.8582  -19.5425   21.6234 C   0  0  0  0  0  0  0  0  0  0  0  0
  -15.9273  -25.7157   20.6173 C   0  0  0  0  0  0  0  0  0  0  0  0
  -15.3952  -24.4360   20.4605 C   0  0  0  0  0  0  0  0  0  0  0  0
  -26.9147  -20.0458   20.2860 C   0  0  0  0  0  0  0  0  0  0  0  0
  -15.8670  -23.9554   22.7808 C   0  0  0  0  0  0  0  0  0  0  0  0
  -20.9270  -27.6986   23.1797 C   0  0  0  0  0  0  0  0  0  0  0  0
  -22.9519  -27.0801   24.6027 C   0  0  0  0  0  0  0  0  0  0  0  0
  -25.7446  -11.0648   21.3253 C   0  0  0  0  0  0  0  0  0  0  0  0
  -26.7989  -18.3013   21.9602 C   0  0  0  0  0  0  0  0  0  0  0  0
  -26.3768  -12.2910   21.0444 C   0  0  0  0  0  0  0  0  0  0  0  0
  -26.1771  -19.0587   20.9573 C   0  0  0  0  0  0  0  0  0  0  0  0
  -18.2585  -27.4891   22.3938 C   0  0  0  0  0  0  0  0  0  0  0  0
  -28.2484  -20.2849   20.6164 C   0  0  0  0  0  0  0  0  0  0  0  0
  -16.4293  -26.1154   21.8559 C   0  0  0  0  0  0  0  0  0  0  0  0
  -15.3650  -23.5558   21.5422 C   0  0  0  0  0  0  0  0  0  0  0  0
  -16.3991  -25.2352   22.9376 C   0  0  0  0  0  0  0  0  0  0  0  0
  -22.3055  -27.8066   23.5848 C   0  0  0  0  0  0  0  0  0  0  0  0
  -24.2432  -27.5479   24.5915 C   0  0  0  0  0  0  0  0  0  0  0  0
  -31.8717  -24.3728   19.6872 C   0  0  0  0  0  0  0  0  0  0  0  0
  -30.3342  -23.3135   18.4419 C   0  0  0  0  0  0  0  0  0  0  0  0
  -30.1932  -25.5319   18.7511 C   0  0  0  0  0  0  0  0  0  0  0  0
  -22.4316  -26.0723   25.4799 C   0  0  0  0  0  0  0  0  0  0  0  0
  -25.2115  -15.7908   20.8281 C   0  0  0  0  0  0  0  0  0  0  0  0
  -22.6283  -17.6847   21.3404 C   0  0  0  0  0  0  0  0  0  0  0  0
  -21.3706  -20.8386   21.6836 C   0  0  0  0  0  0  0  0  0  0  0  0
  -27.6182  -30.1017   20.3561 C   0  0  0  0  0  0  0  0  0  0  0  0
  -24.3523  -10.7590   20.8329 C   0  0  0  0  0  0  0  0  0  0  0  0
  -26.0258  -17.2535   22.7132 C   0  0  0  0  0  0  0  0  0  0  0  0
  -24.7378  -18.8366   20.5732 C   0  0  0  0  0  0  0  0  0  0  0  0
  -23.5664  -12.0003   20.4185 C   0  0  0  0  0  0  0  0  0  0  0  0
  -26.8019  -31.4535   23.5472 C   0  0  0  0  0  0  0  0  0  0  0  0
  -24.4247  -12.9079   19.5430 C   0  0  0  0  0  0  0  0  0  0  0  0
  -25.6153  -30.6065   24.0106 C   0  0  0  0  0  0  0  0  0  0  0  0
  -26.7630  -31.7034   22.0412 C   0  0  0  0  0  0  0  0  0  0  0  0
  -25.4647  -29.6404   21.6776 C   0  0  0  0  0  0  0  0  0  0  0  0
  -28.1481  -26.9287   18.3068 C   0  0  0  0  0  0  0  0  0  0  0  0
  -29.7226  -27.9524   19.2516 C   0  0  0  0  0  0  0  0  0  0  0  0
  -25.6613  -13.4003   20.3044 C   0  0  1  0  0  0  0  0  0  0  0  0
  -24.8225  -16.7263   21.9377 C   0  0  1  0  0  0  0  0  0  0  0  0
  -25.4905  -29.3146   23.1808 C   0  0  2  0  0  0  0  0  0  0  0  0
  -28.3552  -28.3950   18.7120 C   0  0  0  0  0  0  0  0  0  0  0  0
  -32.8379  -23.8001   21.9288 C   0  0  0  0  0  0  0  0  0  0  0  0
  -19.2164  -22.0705   22.0563 C   0  0  0  0  0  0  0  0  0  0  0  0
  -21.8439  -17.1874   18.4339 C   0  0  0  0  0  0  0  0  0  0  0  0
  -20.2848  -19.1398   18.5935 C   0  0  0  0  0  0  0  0  0  0  0  0
  -19.9367  -17.1455   20.0510 C   0  0  0  0  0  0  0  0  0  0  0  0
  -22.3463  -22.0132   24.2189 C   0  0  0  0  0  0  0  0  0  0  0  0
  -33.1049  -24.3346   20.5237 C   0  0  0  0  0  0  0  0  0  0  0  0
  -29.7919  -22.0408   17.8382 C   0  0  0  0  0  0  0  0  0  0  0  0
  -28.5868  -21.5040   18.6027 C   0  0  0  0  0  0  0  0  0  1  0  0
  -21.8709  -18.7036   20.5236 C   0  0  1  0  0  0  0  0  0  0  0  0
  -20.4351  -21.4433   22.7150 C   0  0  2  0  0  0  0  0  0  0  0  0
  -21.0118  -18.0472   19.4062 C   0  0  0  0  0  0  0  0  0  0  0  0
  -23.1190  -28.6705   22.9717 N   0  0  0  0  0  0  0  0  0  0  0  0
  -31.4480  -23.2023   19.1834 N   0  0  0  0  0  0  0  0  0  0  0  0
  -31.2974  -25.5742   19.5140 N   0  0  0  0  0  0  0  0  0  0  0  0
  -29.6536  -24.4416   18.1828 N   0  0  0  0  0  0  0  0  0  0  0  0
  -24.2899  -28.4898   23.6062 N   0  0  0  0  0  0  0  0  0  0  0  0
  -29.5325  -26.7584   18.5234 N   0  0  0  0  0  0  0  0  0  0  0  0
  -24.0259  -17.7966   21.3342 N   0  0  0  0  0  0  0  0  0  0  0  0
  -26.6457  -30.4382   21.3122 N   0  0  0  0  0  0  0  0  0  0  0  0
  -25.3319  -27.2414   25.3285 N   0  0  0  0  0  0  0  0  0  0  0  0
  -21.0832  -25.7105   25.3564 N   0  0  0  0  0  0  0  0  0  0  0  0
  -25.3029  -14.4671   21.2143 N   0  0  0  0  0  0  0  0  0  0  0  0
  -21.1051  -19.5017   21.4749 N   0  0  0  0  0  0  0  0  0  0  0  0
  -27.4353  -28.8822   19.7157 N   0  0  0  0  0  0  0  0  0  0  0  0
  -21.1399  -22.4966   23.4991 N   0  3  0  0  0  0  0  0  0  0  0  0
  -23.1372  -25.5210   26.3583 O   0  0  0  0  0  0  0  0  0  0  0  0
  -25.4125  -16.2366   19.7045 O   0  0  0  0  0  0  0  0  0  0  0  0
  -22.0027  -16.8257   21.9668 O   0  0  0  0  0  0  0  0  0  0  0  0
  -22.2466  -21.4882   21.1169 O   0  0  0  0  0  0  0  0  0  0  0  0
  -28.5811  -30.8314   20.0966 O   0  0  0  0  0  0  0  0  0  0  0  0
  -16.9566  -27.3865   22.0102 O   0  0  0  0  0  0  0  0  0  0  0  0
  -28.9511  -21.2465   19.9581 O   0  0  0  0  0  0  0  0  0  1  0  0
  -14.8525  -22.3274   21.3918 F   0  0  0  0  0  0  0  0  0  0  0  0
  -16.8789  -25.6139   24.1302 F   0  0  0  0  0  0  0  0  0  0  0  0
  1  2  1  0  0  0  0
  1  5  2  0  0  0  0
  2  6  2  0  0  0  0
  3  8  2  0  0  0  0
  3 15  1  0  0  0  0
  4  9  1  0  0  0  0
  4 15  2  0  0  0  0
  5 17  1  0  0  0  0
  6 19  1  0  0  0  0
  7 10  2  0  0  0  0
  7 18  1  0  0  0  0
  8 21  1  0  0  0  0
  9 21  2  0  0  0  0
 10 22  1  0  0  0  0
 11 12  2  0  0  0  0
 11 23  1  0  0  0  0
 12 24  1  0  0  0  0
 13 20  1  0  0  0  0
 13 22  2  0  0  0  0
 14 24  2  0  0  0  0
 14 25  1  0  0  0  0
 15 26  1  0  0  0  0
 16 26  1  0  0  0  0
 16 27  2  0  0  0  0
 16 31  1  0  0  0  0
 17 19  2  0  0  0  0
 17 36  1  0  0  0  0
 18 20  2  0  0  0  0
 18 37  1  0  0  0  0
 19 47  1  0  0  0  0
 20 38  1  0  0  0  0
 21 82  1  0  0  0  0
 22 83  1  0  0  0  0
 23 25  2  0  0  0  0
 23 82  1  0  0  0  0
 24 84  1  0  0  0  0
 25 85  1  0  0  0  0
 26 63  2  0  0  0  0
 27 67  1  0  0  0  0
 27 71  1  0  0  0  0
 28 57  1  0  0  0  0
 28 64  1  0  0  0  0
 28 65  2  0  0  0  0
 29 58  1  0  0  0  0
 29 64  2  0  0  0  0
 29 66  1  0  0  0  0
 30 65  1  0  0  0  0
 30 66  2  0  0  0  0
 30 68  1  0  0  0  0
 31 72  1  0  0  0  0
 31 77  2  0  0  0  0
 32 48  1  0  0  0  0
 32 73  1  0  0  0  0
 32 78  2  0  0  0  0
 33 60  1  0  0  0  0
 33 69  1  0  0  0  0
 33 79  2  0  0  0  0
 34 61  1  0  0  0  0
 34 74  1  0  0  0  0
 34 80  2  0  0  0  0
 35 70  1  0  0  0  0
 35 75  1  0  0  0  0
 35 81  2  0  0  0  0
 36 39  1  0  0  0  0
 37 48  1  0  0  0  0
 38 69  1  0  0  0  0
 39 41  1  0  0  0  0
 40 42  1  0  0  0  0
 40 43  1  0  0  0  0
 41 47  1  0  0  0  0
 42 49  1  0  0  0  0
 43 70  1  0  0  0  0
 44 49  1  0  0  0  0
 44 70  1  0  0  0  0
 45 50  1  0  0  0  0
 45 68  1  0  0  0  0
 46 50  1  0  0  0  0
 46 68  1  0  0  0  0
 47 73  1  0  0  0  0
 48 69  1  0  0  0  0
 49 67  1  0  0  0  0
 50 75  1  0  0  0  0
 51 57  1  0  0  0  0
 52 61  1  0  0  0  0
 53 62  1  0  0  0  0
 54 62  1  0  0  0  0
 55 62  1  0  0  0  0
 56 76  1  0  0  0  0
 58 59  1  0  0  0  0
 59 83  1  0  0  0  0
 60 62  1  0  0  0  0
 60 74  1  0  0  0  0
 61 76  1  0  0  0  0
 63 67  1  0  0  0  0
M  CHG  1  76   1
M  ISO  4  35 100  59 101  75 100  83 101
M  END
> <Batch ID>
0194

> <Smiles>
CCc1nc(C[101CH2:1][101O:1]c2ccc3c(c2)CN(C(=O)C(NC(=O)C(C)NC)C(C)(C)C)C(C(=O)NC2CCCc4ccccc42)C3)nc(N2CC([100NH:0][100C:0](=O)N3CCCC(n4nc(-c5ccc(Oc6ccc(F)cc6F)cc5)c(C(N)=O)c4N)C3)C2)n1

> <Shape>
0.217

> <Color>
0.076

> <Negative vol penalty>
0.000

$$$$

  -OEChem-04052323343D

 90100  0     1  0  0  0  0  0999 V2000
  -33.3005  -27.0360   16.5428 C   0  0  0  0  0  0  0  0  0  0  0  0
  -32.4955  -26.2722   17.3820 C   0  0  0  0  0  0  0  0  0  0  0  0
  -24.9315  -14.5657   21.0208 C   0  0  0  0  0  0  0  0  0  0  0  0
  -23.8941  -12.4928   21.7019 C   0  0  0  0  0  0  0  0  0  0  0  0
  -33.5116  -28.3859   16.8202 C   0  0  0  0  0  0  0  0  0  0  0  0
  -31.9021  -26.8578   18.4997 C   0  0  0  0  0  0  0  0  0  0  0  0
  -27.0382  -25.5500   19.0260 C   0  0  0  0  0  0  0  0  0  0  0  0
  -25.8373  -13.8540   20.2342 C   0  0  0  0  0  0  0  0  0  0  0  0
  -24.7999  -11.7811   20.9153 C   0  0  0  0  0  0  0  0  0  0  0  0
  -26.7718  -24.2878   19.5548 C   0  0  0  0  0  0  0  0  0  0  0  0
  -28.6694  -12.0677   20.6955 C   0  0  0  0  0  0  0  0  0  0  0  0
  -30.0134  -12.4347   20.7631 C   0  0  0  0  0  0  0  0  0  0  0  0
  -26.3531  -25.2860   21.7106 C   0  0  0  0  0  0  0  0  0  0  0  0
  -29.9975  -12.9281   18.3980 C   0  0  0  0  0  0  0  0  0  0  0  0
  -24.7497  -19.1986   22.2696 C   0  0  0  0  0  0  0  0  0  0  0  0
  -26.8265  -19.6755   21.7272 C   0  0  0  0  0  0  0  0  0  0  0  0
  -23.9600  -13.8851   21.7547 C   0  0  0  0  0  0  0  0  0  0  0  0
  -21.7680  -15.1198   22.1767 C   0  0  0  0  0  0  0  0  0  0  0  0
  -32.9126  -28.9907   17.9366 C   0  0  0  0  0  0  0  0  0  0  0  0
  -26.9745  -26.6905   19.8395 C   0  0  0  0  0  0  0  0  0  0  0  0
  -32.1065  -28.2168   18.7931 C   0  0  0  0  0  0  0  0  0  0  0  0
  -26.6166  -26.5618   21.1891 C   0  0  0  0  0  0  0  0  0  0  0  0
  -26.0731  -18.7322   22.3822 C   0  0  0  0  0  0  0  0  0  0  0  0
  -25.7714  -12.4617   20.1815 C   0  0  0  0  0  0  0  0  0  0  0  0
  -26.4321  -24.1553   20.8980 C   0  0  0  0  0  0  0  0  0  0  0  0
  -27.9894  -12.1308   19.4792 C   0  0  0  0  0  0  0  0  0  0  0  0
  -30.6774  -12.8649   19.6144 C   0  0  0  0  0  0  0  0  0  0  0  0
  -28.6535  -12.5611   18.3305 C   0  0  0  0  0  0  0  0  0  0  0  0
  -23.0244  -14.6198   22.5678 C   0  0  0  0  0  0  0  0  0  0  0  0
  -21.2774  -15.7344   23.3028 C   0  0  0  0  0  0  0  0  0  0  0  0
  -21.1036  -15.0362   20.9089 C   0  0  0  0  0  0  0  0  0  0  0  0
  -29.0593  -28.9034   20.7669 C   0  0  0  0  0  0  0  0  0  0  0  0
  -26.4272  -30.2783   22.0723 C   0  0  0  0  0  0  0  0  0  0  0  0
  -23.2623  -29.8977   23.2911 C   0  0  0  0  0  0  0  0  0  0  0  0
  -25.5710  -14.9343   26.3227 C   0  0  0  0  0  0  0  0  0  0  0  0
  -33.2083  -30.4418   18.2220 C   0  0  0  0  0  0  0  0  0  0  0  0
  -27.2385  -28.0478   19.2475 C   0  0  0  0  0  0  0  0  0  0  0  0
  -26.5146  -27.7570   22.0999 C   0  0  0  0  0  0  0  0  0  0  0  0
  -32.2404  -31.0763   19.2174 C   0  0  0  0  0  0  0  0  0  0  0  0
  -22.3397  -14.0066   27.2365 C   0  0  0  0  0  0  0  0  0  0  0  0
  -32.0388  -30.1628   20.4223 C   0  0  0  0  0  0  0  0  0  0  0  0
  -21.4511  -15.1012   26.6494 C   0  0  0  0  0  0  0  0  0  0  0  0
  -30.1147  -17.3645   22.7609 C   0  0  0  0  0  0  0  0  0  0  0  0
  -23.6254  -14.5869   27.8085 C   0  0  0  0  0  0  0  0  0  0  0  0
  -26.6007  -17.2429   26.4777 C   0  0  0  0  0  0  0  0  0  0  0  0
  -23.5673  -16.4987   26.2420 C   0  0  0  0  0  0  0  0  0  0  0  0
  -27.6601  -15.4595   25.1350 C   0  0  0  0  0  0  0  0  0  0  0  0
  -31.1674  -16.6779   21.9071 C   0  0  0  0  0  0  0  0  0  0  0  0
  -26.8403  -18.3229   25.4245 C   0  0  0  0  0  0  0  0  0  0  0  0
  -30.4150  -15.2254   23.7252 C   0  0  0  0  0  0  0  0  0  0  0  0
  -31.4253  -28.8219   20.0014 C   0  0  1  0  0  0  0  0  0  0  0  0
  -27.6463  -29.0850   20.2893 C   0  0  1  0  0  0  0  0  0  0  0  0
  -29.3195  -16.2118   23.3561 C   0  0  1  0  0  0  0  0  0  0  0  0
  -22.1866  -16.0671   25.7021 C   0  0  1  0  0  0  0  0  0  0  0  0
  -28.4626  -16.6227   24.5463 C   0  0  1  0  0  0  0  0  0  0  0  0
  -32.8744  -13.6321   23.5109 C   0  0  0  0  0  0  0  0  0  0  0  0
  -21.3790  -31.1966   24.3224 C   0  0  0  0  0  0  0  0  0  0  0  0
  -27.9371  -30.3587   24.7225 C   0  0  0  0  0  0  0  0  0  0  0  0
  -25.7510  -30.7566   25.8761 C   0  0  0  0  0  0  0  0  0  0  0  0
  -26.6043  -32.4140   24.2185 C   0  0  0  0  0  0  0  0  0  0  0  0
  -21.4284  -29.2283   21.0667 C   0  0  0  0  0  0  0  0  0  0  0  0
  -26.5553  -17.4867   23.0657 C   0  0  0  0  0  0  0  0  0  0  0  0
  -32.7938  -15.0220   22.9183 C   0  0  0  0  0  0  0  0  0  0  0  0
  -26.2647  -21.8047   20.5315 C   0  0  0  0  0  0  0  0  0  1  0  0
  -25.7234  -30.1882   23.4048 C   0  0  1  0  0  0  0  0  0  0  0  0
  -21.9823  -30.6707   23.0292 C   0  0  2  0  0  0  0  0  0  0  0  0
  -26.5077  -30.9064   24.5390 C   0  0  0  0  0  0  0  0  0  0  0  0
  -24.6639  -20.3489   21.5963 N   0  0  0  0  0  0  0  0  0  0  0  0
  -23.3141  -14.8931   23.8427 N   0  0  0  0  0  0  0  0  0  0  0  0
  -25.9430  -20.6133   21.2799 N   0  0  0  0  0  0  0  0  0  0  0  0
  -22.2328  -15.5718   24.2625 N   0  0  0  0  0  0  0  0  0  0  0  0
  -26.7883  -29.0620   21.4757 N   0  0  0  0  0  0  0  0  0  0  0  0
  -24.3374  -15.3863   26.8133 N   0  0  0  0  0  0  0  0  0  0  0  0
  -26.4944  -15.9017   25.9018 N   0  0  0  0  0  0  0  0  0  0  0  0
  -20.1263  -16.3928   23.5558 N   0  0  0  0  0  0  0  0  0  0  0  0
  -21.7492  -14.3690   19.8590 N   0  0  0  0  0  0  0  0  0  0  0  0
  -30.0056  -28.9685   19.7621 N   0  0  0  0  0  0  0  0  0  0  0  0
  -24.3759  -30.7046   23.1905 N   0  0  0  0  0  0  0  0  0  0  0  0
  -31.3744  -15.3218   22.5574 N   0  3  2  0  0  0  0  0  0  0  0  0
  -27.5276  -17.7656   24.1867 N   0  3  1  0  0  0  0  0  0  0  0  0
  -20.9762  -29.7963   22.3628 N   0  3  0  0  0  0  0  0  0  0  0  0
  -19.9782  -15.5526   20.7082 O   0  0  0  0  0  0  0  0  0  0  0  0
  -29.2751  -28.7195   21.9591 O   0  0  0  0  0  0  0  0  0  0  0  0
  -26.6420  -31.3868   21.5756 O   0  0  0  0  0  0  0  0  0  0  0  0
  -23.2729  -28.6989   23.5617 O   0  0  0  0  0  0  0  0  0  0  0  0
  -25.8319  -13.7265   26.2446 O   0  0  0  0  0  0  0  0  0  0  0  0
  -26.6549  -11.7668   19.4139 O   0  0  0  0  0  0  0  0  0  0  0  0
  -26.1706  -22.9164   21.4202 O   0  0  0  0  0  0  0  0  0  1  0  0
  -31.9677  -13.2188   19.6797 F   0  0  0  0  0  0  0  0  0  0  0  0
  -28.0053  -12.6249   17.1594 F   0  0  0  0  0  0  0  0  0  0  0  0
  1  2  1  0  0  0  0
  1  5  2  0  0  0  0
  2  6  2  0  0  0  0
  3  8  2  0  0  0  0
  3 17  1  0  0  0  0
  4  9  1  0  0  0  0
  4 17  2  0  0  0  0
  5 19  1  0  0  0  0
  6 21  1  0  0  0  0
  7 10  2  0  0  0  0
  7 20  1  0  0  0  0
  8 24  1  0  0  0  0
  9 24  2  0  0  0  0
 10 25  1  0  0  0  0
 11 12  2  0  0  0  0
 11 26  1  0  0  0  0
 12 27  1  0  0  0  0
 13 22  1  0  0  0  0
 13 25  2  0  0  0  0
 14 27  2  0  0  0  0
 14 28  1  0  0  0  0
 15 23  1  0  0  0  0
 15 68  2  0  0  0  0
 16 23  2  0  0  0  0
 16 70  1  0  0  0  0
 17 29  1  0  0  0  0
 18 29  1  0  0  0  0
 18 30  2  0  0  0  0
 18 31  1  0  0  0  0
 19 21  2  0  0  0  0
 19 36  1  0  0  0  0
 20 22  2  0  0  0  0
 20 37  1  0  0  0  0
 21 51  1  0  0  0  0
 22 38  1  0  0  0  0
 23 62  1  0  0  0  0
 24 87  1  0  0  0  0
 25 88  1  0  0  0  0
 26 28  2  0  0  0  0
 26 87  1  0  0  0  0
 27 89  1  0  0  0  0
 28 90  1  0  0  0  0
 29 69  2  0  0  0  0
 30 71  1  0  0  0  0
 30 75  1  0  0  0  0
 31 76  1  0  0  0  0
 31 82  2  0  0  0  0
 32 52  1  0  0  0  0
 32 77  1  0  0  0  0
 32 83  2  0  0  0  0
 33 65  1  0  0  0  0
 33 72  1  0  0  0  0
 33 84  2  0  0  0  0
 34 66  1  0  0  0  0
 34 78  1  0  0  0  0
 34 85  2  0  0  0  0
 35 73  1  0  0  0  0
 35 74  1  0  0  0  0
 35 86  2  0  0  0  0
 36 39  1  0  0  0  0
 37 52  1  0  0  0  0
 38 72  1  0  0  0  0
 39 41  1  0  0  0  0
 40 42  1  0  0  0  0
 40 44  1  0  0  0  0
 41 51  1  0  0  0  0
 42 54  1  0  0  0  0
 43 48  1  0  0  0  0
 43 53  1  0  0  0  0
 44 73  1  0  0  0  0
 45 49  1  0  0  0  0
 45 74  1  0  0  0  0
 46 54  1  0  0  0  0
 46 73  1  0  0  0  0
 47 55  1  0  0  0  0
 47 74  1  0  0  0  0
 48 79  1  0  0  0  0
 49 80  1  0  0  0  0
 50 53  1  0  0  0  0
 50 79  1  0  0  0  0
 51 77  1  0  0  0  0
 52 72  1  0  0  0  0
 53 55  1  0  0  0  0
 54 71  1  0  0  0  0
 55 80  1  0  0  0  0
 56 63  1  0  0  0  0
 57 66  1  0  0  0  0
 58 67  1  0  0  0  0
 59 67  1  0  0  0  0
 60 67  1  0  0  0  0
 61 81  1  0  0  0  0
 62 80  1  0  0  0  0
 63 79  1  0  0  0  0
 64 70  1  0  0  0  0
 64 88  1  0  0  0  0
 65 67  1  0  0  0  0
 65 78  1  0  0  0  0
 66 81  1  0  0  0  0
 68 70  1  0  0  0  0
 69 71  1  0  0  0  0
M  CHG  3  79   1  80   1  81   1
M  ISO  4  35 100  64 101  74 100  88 101
M  END
> <Batch ID>
0194

> <Smiles>
CCN1CCC(C2C[100N:0]([100C:0](=O)N3CCCC(n4nc(-c5ccc(Oc6ccc(F)cc6F)cc5)c(C(N)=O)c4N)C3)CCN2Cc2cnn([101CH2:1][101O:1]c3ccc4c(c3)CN(C(=O)C(NC(=O)C(C)NC)C(C)(C)C)C(C(=O)NC3CCCc5ccccc53)C4)c2)C1

> <Shape>
0.214

> <Color>
0.073

> <Negative vol penalty>
0.000

$$$$

  -OEChem-04052323343D

 82 91  0     1  0  0  0  0  0999 V2000
  -29.5456  -36.5483   21.4177 C   0  0  0  0  0  0  0  0  0  0  0  0
  -29.7175  -35.1914   21.1632 C   0  0  0  0  0  0  0  0  0  0  0  0
  -24.7645   -8.5039   21.5044 C   0  0  0  0  0  0  0  0  0  0  0  0
  -23.1026   -9.8898   20.4300 C   0  0  0  0  0  0  0  0  0  0  0  0
  -28.5311  -36.9727   22.2747 C   0  0  0  0  0  0  0  0  0  0  0  0
  -28.8754  -34.2580   21.7665 C   0  0  0  0  0  0  0  0  0  0  0  0
  -26.8884  -28.9915   19.3536 C   0  0  0  0  0  0  0  0  0  0  0  0
  -23.8012   -8.0449   22.4026 C   0  0  0  0  0  0  0  0  0  0  0  0
  -22.1392   -9.4308   21.3281 C   0  0  0  0  0  0  0  0  0  0  0  0
  -27.3167  -27.6727   19.4987 C   0  0  0  0  0  0  0  0  0  0  0  0
  -21.2724   -5.8004   22.4115 C   0  0  0  0  0  0  0  0  0  0  0  0
  -21.2293   -4.4307   22.6720 C   0  0  0  0  0  0  0  0  0  0  0  0
  -27.5071  -22.7300   19.7872 C   0  0  0  0  0  0  0  0  0  0  0  0
  -27.8269  -21.4078   20.0408 C   0  0  0  0  0  0  0  0  0  0  0  0
  -25.6363  -27.3198   21.1931 C   0  0  0  0  0  0  0  0  0  0  0  0
  -21.6538   -4.8622   25.0109 C   0  0  0  0  0  0  0  0  0  0  0  0
  -24.4153   -9.4264   20.5181 C   0  0  0  0  0  0  0  0  0  0  0  0
  -25.7473   -9.3399   18.3442 C   0  0  0  0  0  0  0  0  0  0  0  0
  -27.6700  -36.0446   22.8813 C   0  0  0  0  0  0  0  0  0  0  0  0
  -25.8362  -29.4884   20.1363 C   0  0  0  0  0  0  0  0  0  0  0  0
  -27.8492  -34.6702   22.6335 C   0  0  0  0  0  0  0  0  0  0  0  0
  -25.1949  -28.6445   21.0542 C   0  0  0  0  0  0  0  0  0  0  0  0
  -22.4885   -8.5083   22.3145 C   0  0  0  0  0  0  0  0  0  0  0  0
  -26.6926  -26.8374   20.4206 C   0  0  0  0  0  0  0  0  0  0  0  0
  -21.5063   -6.7009   23.4507 C   0  0  0  0  0  0  0  0  0  0  0  0
  -21.4199   -3.9617   23.9717 C   0  0  0  0  0  0  0  0  0  0  0  0
  -21.6970   -6.2319   24.7504 C   0  0  0  0  0  0  0  0  0  0  0  0
  -25.4102   -9.9014   19.5903 C   0  0  0  0  0  0  0  0  0  0  0  0
  -28.4832  -23.6829   19.9989 C   0  0  0  0  0  0  0  0  0  0  0  0
  -29.1017  -21.1259   20.4892 C   0  0  0  0  0  0  0  0  0  0  0  0
  -26.7402  -10.1548   17.8577 C   0  0  0  0  0  0  0  0  0  0  0  0
  -25.2109   -8.1850   17.6852 C   0  0  0  0  0  0  0  0  0  0  0  0
  -25.5470  -31.7995   22.2993 C   0  0  0  0  0  0  0  0  0  0  0  0
  -22.4019  -31.0214   22.1395 C   0  0  0  0  0  0  0  0  0  0  0  0
  -20.0304  -28.6787   21.4082 C   0  0  0  0  0  0  0  0  0  0  0  0
  -27.9301  -15.8572   18.9404 C   0  0  0  0  0  0  0  0  0  0  0  0
  -26.6177  -36.5477   23.8374 C   0  0  0  0  0  0  0  0  0  0  0  0
  -25.3685  -30.9056   19.9488 C   0  0  0  0  0  0  0  0  0  0  0  0
  -24.0474  -29.1234   21.9041 C   0  0  0  0  0  0  0  0  0  0  0  0
  -25.5309  -35.5202   24.1427 C   0  0  0  0  0  0  0  0  0  0  0  0
  -30.2565  -13.0439   19.2673 C   0  0  0  0  0  0  0  0  0  0  0  0
  -26.1522  -34.1619   24.4522 C   0  0  0  0  0  0  0  0  0  0  0  0
  -29.2868  -11.8685   19.3312 C   0  0  0  0  0  0  0  0  0  0  0  0
  -29.6922  -14.3002   19.9319 C   0  0  0  0  0  0  0  0  0  0  0  0
  -27.3838  -13.5113   19.4847 C   0  0  0  0  0  0  0  0  0  0  0  0
  -28.2332  -18.3878   19.1127 C   0  0  0  0  0  0  0  0  0  0  0  0
  -29.2234  -17.3350   20.6741 C   0  0  0  0  0  0  0  0  0  0  0  0
  -26.9403  -33.6288   23.2496 C   0  0  1  0  0  0  0  0  0  0  0  0
  -24.6262  -31.4554   21.1629 C   0  0  1  0  0  0  0  0  0  0  0  0
  -27.9183  -12.2682   18.7597 C   0  0  2  0  0  0  0  0  0  0  0  0
  -28.5273  -18.6997   20.5842 C   0  0  0  0  0  0  0  0  0  0  0  0
  -17.5465  -28.3220   21.4133 C   0  0  0  0  0  0  0  0  0  0  0  0
  -22.4577  -30.6924   25.1724 C   0  0  0  0  0  0  0  0  0  0  0  0
  -20.2918  -29.4476   25.0074 C   0  0  0  0  0  0  0  0  0  0  0  0
  -20.4163  -31.8317   24.2841 C   0  0  0  0  0  0  0  0  0  0  0  0
  -19.9737  -28.2197   18.4851 C   0  0  0  0  0  0  0  0  0  0  0  0
  -28.1909  -25.1209   19.7392 C   0  0  0  0  0  0  0  0  0  1  0  0
  -21.5037  -30.0465   22.8619 C   0  0  1  0  0  0  0  0  0  0  0  0
  -18.7512  -28.7602   20.5951 C   0  0  2  0  0  0  0  0  0  0  0  0
  -21.1903  -30.4958   24.3170 C   0  0  0  0  0  0  0  0  0  0  0  0
  -26.1305  -10.9888   19.8777 N   0  0  0  0  0  0  0  0  0  0  0  0
  -29.7227  -23.3783   20.4384 N   0  0  0  0  0  0  0  0  0  0  0  0
  -30.0370  -22.0787   20.6873 N   0  0  0  0  0  0  0  0  0  0  0  0
  -26.9302  -11.1172   18.8053 N   0  0  0  0  0  0  0  0  0  0  0  0
  -23.6307  -30.5189   21.6885 N   0  0  0  0  0  0  0  0  0  0  0  0
  -28.3450  -14.6197   19.4443 N   0  0  0  0  0  0  0  0  0  0  0  0
  -28.5153  -16.9940   19.4478 N   0  0  0  0  0  0  0  0  0  0  0  0
  -27.4605  -10.1349   16.7162 N   0  0  0  0  0  0  0  0  0  0  0  0
  -24.1952   -7.4620   18.3254 N   0  0  0  0  0  0  0  0  0  0  0  0
  -29.4231  -19.7893   20.7486 N   0  0  0  0  0  0  0  0  0  0  0  0
  -26.0393  -33.0899   22.2536 N   0  0  0  0  0  0  0  0  0  0  0  0
  -20.3234  -29.8787   22.0209 N   0  0  0  0  0  0  0  0  0  0  0  0
  -18.8455  -27.8856   19.3921 N   0  3  0  0  0  0  0  0  0  0  0  0
  -25.6317   -7.7960   16.5694 O   0  0  0  0  0  0  0  0  0  0  0  0
  -25.7915  -30.9572   23.1551 O   0  0  0  0  0  0  0  0  0  0  0  0
  -22.0240  -32.1841   21.9750 O   0  0  0  0  0  0  0  0  0  0  0  0
  -20.7007  -27.6521   21.4946 O   0  0  0  0  0  0  0  0  0  0  0  0
  -27.0404  -15.9490   18.0843 O   0  0  0  0  0  0  0  0  0  0  0  0
  -21.5481   -8.0605   23.1906 O   0  0  0  0  0  0  0  0  0  0  0  0
  -27.1119  -25.5412   20.5656 O   0  0  0  0  0  0  0  0  0  1  0  0
  -21.3769   -2.6465   24.2219 F   0  0  0  0  0  0  0  0  0  0  0  0
  -21.9209   -7.0923   25.7531 F   0  0  0  0  0  0  0  0  0  0  0  0
  1  2  1  0  0  0  0
  1  5  2  0  0  0  0
  2  6  2  0  0  0  0
  3  8  2  0  0  0  0
  3 17  1  0  0  0  0
  4  9  1  0  0  0  0
  4 17  2  0  0  0  0
  5 19  1  0  0  0  0
  6 21  1  0  0  0  0
  7 10  2  0  0  0  0
  7 20  1  0  0  0  0
  8 23  1  0  0  0  0
  9 23  2  0  0  0  0
 10 24  1  0  0  0  0
 11 12  2  0  0  0  0
 11 25  1  0  0  0  0
 12 26  1  0  0  0  0
 13 14  2  0  0  0  0
 13 29  1  0  0  0  0
 14 30  1  0  0  0  0
 15 22  1  0  0  0  0
 15 24  2  0  0  0  0
 16 26  2  0  0  0  0
 16 27  1  0  0  0  0
 17 28  1  0  0  0  0
 18 28  1  0  0  0  0
 18 31  2  0  0  0  0
 18 32  1  0  0  0  0
 19 21  2  0  0  0  0
 19 37  1  0  0  0  0
 20 22  2  0  0  0  0
 20 38  1  0  0  0  0
 21 48  1  0  0  0  0
 22 39  1  0  0  0  0
 23 79  1  0  0  0  0
 24 80  1  0  0  0  0
 25 27  2  0  0  0  0
 25 79  1  0  0  0  0
 26 81  1  0  0  0  0
 27 82  1  0  0  0  0
 28 61  2  0  0  0  0
 29 57  1  0  0  0  0
 29 62  2  0  0  0  0
 30 63  2  0  0  0  0
 30 70  1  0  0  0  0
 31 64  1  0  0  0  0
 31 68  1  0  0  0  0
 32 69  1  0  0  0  0
 32 74  2  0  0  0  0
 33 49  1  0  0  0  0
 33 71  1  0  0  0  0
 33 75  2  0  0  0  0
 34 58  1  0  0  0  0
 34 65  1  0  0  0  0
 34 76  2  0  0  0  0
 35 59  1  0  0  0  0
 35 72  1  0  0  0  0
 35 77  2  0  0  0  0
 36 66  1  0  0  0  0
 36 67  1  0  0  0  0
 36 78  2  0  0  0  0
 37 40  1  0  0  0  0
 38 49  1  0  0  0  0
 39 65  1  0  0  0  0
 40 42  1  0  0  0  0
 41 43  1  0  0  0  0
 41 44  1  0  0  0  0
 42 48  1  0  0  0  0
 43 50  1  0  0  0  0
 44 66  1  0  0  0  0
 45 50  1  0  0  0  0
 45 66  1  0  0  0  0
 46 51  1  0  0  0  0
 46 67  1  0  0  0  0
 47 51  1  0  0  0  0
 47 67  1  0  0  0  0
 48 71  1  0  0  0  0
 49 65  1  0  0  0  0
 50 64  1  0  0  0  0
 51 70  1  0  0  0  0
 52 59  1  0  0  0  0
 53 60  1  0  0  0  0
 54 60  1  0  0  0  0
 55 60  1  0  0  0  0
 56 73  1  0  0  0  0
 57 80  1  0  0  0  0
 58 60  1  0  0  0  0
 58 72  1  0  0  0  0
 59 73  1  0  0  0  0
 61 64  1  0  0  0  0
 62 63  1  0  0  0  0
M  CHG  1  73   1
M  ISO  4  36 100  57 101  67 100  80 101
M  END
> <Batch ID>
0194

> <Smiles>
CNC(C)C(=O)NC(C(=O)N1Cc2cc([101O:1][101CH2:1]c3ccc(NC4C[100N:0]([100C:0](=O)N5CCCC(n6nc(-c7ccc(Oc8ccc(F)cc8F)cc7)c(C(N)=O)c6N)C5)C4)nn3)ccc2CC1C(=O)NC1CCCc2ccccc21)C(C)(C)C

> <Shape>
0.326

> <Color>
0.097

> <Negative vol penalty>
0.000

$$$$

  -OEChem-04052323343D

 84 93  0     1  0  0  0  0  0999 V2000
  -30.6820  -24.8251   20.0592 C   0  0  0  0  0  0  0  0  0  0  0  0
  -29.4649  -24.9874   19.4052 C   0  0  0  0  0  0  0  0  0  0  0  0
  -25.8609  -13.2767   21.6079 C   0  0  0  0  0  0  0  0  0  0  0  0
  -25.0925  -13.4984   19.3281 C   0  0  0  0  0  0  0  0  0  0  0  0
  -30.8171  -25.2260   21.3877 C   0  0  0  0  0  0  0  0  0  0  0  0
  -28.3817  -25.5496   20.0798 C   0  0  0  0  0  0  0  0  0  0  0  0
  -22.6217  -29.6557   18.9489 C   0  0  0  0  0  0  0  0  0  0  0  0
  -25.4207  -11.9534   21.6277 C   0  0  0  0  0  0  0  0  0  0  0  0
  -24.6523  -12.1749   19.3478 C   0  0  0  0  0  0  0  0  0  0  0  0
  -21.2450  -29.6639   19.1686 C   0  0  0  0  0  0  0  0  0  0  0  0
  -22.4890  -10.3091   21.9827 C   0  0  0  0  0  0  0  0  0  0  0  0
  -21.7806   -9.8792   23.1047 C   0  0  0  0  0  0  0  0  0  0  0  0
  -19.1043  -27.9147   22.7666 C   0  0  0  0  0  0  0  0  0  0  0  0
  -21.6176  -30.3925   21.4379 C   0  0  0  0  0  0  0  0  0  0  0  0
  -19.8386  -26.5977   20.8928 C   0  0  0  0  0  0  0  0  0  0  0  0
  -23.4631   -8.1963   23.5221 C   0  0  0  0  0  0  0  0  0  0  0  0
  -19.5993  -26.9181   23.5921 C   0  0  0  0  0  0  0  0  0  0  0  0
  -25.6968  -14.0493   20.4581 C   0  0  0  0  0  0  0  0  0  0  0  0
  -27.4221  -15.8844   20.0541 C   0  0  0  0  0  0  0  0  0  0  0  0
  -29.7379  -25.8023   22.0760 C   0  0  0  0  0  0  0  0  0  0  0  0
  -23.5087  -30.0058   19.9771 C   0  0  0  0  0  0  0  0  0  0  0  0
  -28.5021  -25.9574   21.4192 C   0  0  0  0  0  0  0  0  0  0  0  0
  -23.0050  -30.3903   21.2279 C   0  0  0  0  0  0  0  0  0  0  0  0
  -19.2302  -27.7438   21.3924 C   0  0  0  0  0  0  0  0  0  0  0  0
  -24.8164  -11.4024   20.4976 C   0  0  0  0  0  0  0  0  0  0  0  0
  -20.7428  -30.0296   20.4141 C   0  0  0  0  0  0  0  0  0  0  0  0
  -23.6844   -9.6825   21.6303 C   0  0  0  0  0  0  0  0  0  0  0  0
  -22.2677   -8.8228   23.8745 C   0  0  0  0  0  0  0  0  0  0  0  0
  -24.1715   -8.6262   22.4000 C   0  0  0  0  0  0  0  0  0  0  0  0
  -26.1508  -15.4166   20.4373 C   0  0  0  0  0  0  0  0  0  0  0  0
  -20.3010  -25.6601   21.8022 C   0  0  0  0  0  0  0  0  0  0  0  0
  -27.3480  -17.2470   20.2106 C   0  0  0  0  0  0  0  0  0  0  0  0
  -28.5674  -15.1528   19.5974 C   0  0  0  0  0  0  0  0  0  0  0  0
  -25.8264  -28.5023   21.5491 C   0  0  0  0  0  0  0  0  0  0  0  0
  -26.3033  -31.4303   22.8613 C   0  0  0  0  0  0  0  0  0  0  0  0
  -25.0205  -34.4891   23.6643 C   0  0  0  0  0  0  0  0  0  0  0  0
  -23.0244  -21.0798   20.0022 C   0  0  0  0  0  0  0  0  0  0  0  0
  -29.9182  -26.1768   23.5258 C   0  0  0  0  0  0  0  0  0  0  0  0
  -24.9899  -30.0176   19.7160 C   0  0  0  0  0  0  0  0  0  0  0  0
  -23.9141  -30.7944   22.3588 C   0  0  0  0  0  0  0  0  0  0  0  0
  -28.8301  -27.1081   24.0542 C   0  0  0  0  0  0  0  0  0  0  0  0
  -25.1302  -20.6145   22.7750 C   0  0  0  0  0  0  0  0  0  0  0  0
  -27.4507  -26.6085   23.6365 C   0  0  0  0  0  0  0  0  0  0  0  0
  -25.7620  -19.2607   22.4528 C   0  0  0  0  0  0  0  0  0  0  0  0
  -23.6425  -20.6512   22.4218 C   0  0  0  0  0  0  0  0  0  0  0  0
  -22.1087  -24.6454   20.4493 C   0  0  0  0  0  0  0  0  0  0  0  0
  -20.7766  -23.2631   22.0496 C   0  0  0  0  0  0  0  0  0  0  0  0
  -22.3201  -23.4063   19.5835 C   0  0  0  0  0  0  0  0  0  0  0  0
  -21.0006  -22.0528   21.1499 C   0  0  0  0  0  0  0  0  0  0  0  0
  -23.9786  -18.9039   20.7036 C   0  0  0  0  0  0  0  0  0  0  0  0
  -27.3112  -26.5860   22.1096 C   0  0  1  0  0  0  0  0  0  0  0  0
  -25.8220  -29.8966   20.9890 C   0  0  1  0  0  0  0  0  0  0  0  0
  -25.4869  -18.8559   20.9937 C   0  0  2  0  0  0  0  0  0  0  0  0
  -17.2155  -29.0451   20.6236 C   0  0  0  0  0  0  0  0  0  0  0  0
  -25.6396  -36.6576   24.7650 C   0  0  0  0  0  0  0  0  0  0  0  0
  -26.0801  -30.1016   25.5990 C   0  0  0  0  0  0  0  0  0  0  0  0
  -25.7519  -32.3738   26.5976 C   0  0  0  0  0  0  0  0  0  0  0  0
  -27.8820  -31.8266   25.4204 C   0  0  0  0  0  0  0  0  0  0  0  0
  -24.5199  -36.0246   21.1843 C   0  0  0  0  0  0  0  0  0  0  0  0
  -18.7159  -28.7864   20.4591 C   0  0  1  0  0  0  0  0  0  1  0  0
  -25.7701  -32.1594   24.0708 C   0  0  1  0  0  0  0  0  0  0  0  0
  -25.5569  -35.8934   23.4528 C   0  0  2  0  0  0  0  0  0  0  0  0
  -26.3537  -31.6059   25.4014 C   0  0  0  0  0  0  0  0  0  0  0  0
  -20.1965  -25.7912   23.1437 N   0  0  0  0  0  0  0  0  0  0  0  0
  -25.3294  -16.4019   20.8094 N   0  0  0  0  0  0  0  0  0  0  0  0
  -26.0862  -17.5024   20.6609 N   0  0  0  0  0  0  0  0  0  0  0  0
  -20.9099  -24.5101   21.2839 N   0  0  0  0  0  0  0  0  0  0  0  0
  -25.3548  -30.7839   22.0561 N   0  0  0  0  0  0  0  0  0  0  0  0
  -23.4258  -20.2190   21.0346 N   0  0  0  0  0  0  0  0  0  0  0  0
  -22.2306  -22.1790   20.3654 N   0  0  0  0  0  0  0  0  0  0  0  0
  -28.2399  -18.2395   20.0058 N   0  0  0  0  0  0  0  0  0  0  0  0
  -28.4721  -13.7583   19.4948 N   0  0  0  0  0  0  0  0  0  0  0  0
  -27.0793  -27.9219   21.6035 N   0  0  0  0  0  0  0  0  0  0  0  0
  -26.0376  -33.5756   23.8444 N   0  0  0  0  0  0  0  0  0  0  0  0
  -24.6726  -36.6510   22.5227 N   0  3  0  0  0  0  0  0  0  0  0  0
  -29.6488  -15.7174   19.3052 O   0  0  0  0  0  0  0  0  0  0  0  0
  -24.7715  -27.9915   21.9068 O   0  0  0  0  0  0  0  0  0  0  0  0
  -27.5159  -31.4400   22.6352 O   0  0  0  0  0  0  0  0  0  0  0  0
  -23.8193  -34.2291   23.6728 O   0  0  0  0  0  0  0  0  0  0  0  0
  -23.3565  -20.8821   18.8268 O   0  0  0  0  0  0  0  0  0  0  0  0
  -24.3869  -10.1110   20.5165 O   0  0  0  0  0  0  0  0  0  0  0  0
  -19.3957  -30.0379   20.6321 O   0  0  0  0  0  0  0  0  0  1  0  0
  -21.5881   -8.4111   24.9528 F   0  0  0  0  0  0  0  0  0  0  0  0
  -25.3199   -8.0211   22.0671 F   0  0  0  0  0  0  0  0  0  0  0  0
  1  2  1  0  0  0  0
  1  5  2  0  0  0  0
  2  6  2  0  0  0  0
  3  8  2  0  0  0  0
  3 18  1  0  0  0  0
  4  9  1  0  0  0  0
  4 18  2  0  0  0  0
  5 20  1  0  0  0  0
  6 22  1  0  0  0  0
  7 10  2  0  0  0  0
  7 21  1  0  0  0  0
  8 25  1  0  0  0  0
  9 25  2  0  0  0  0
 10 26  1  0  0  0  0
 11 12  2  0  0  0  0
 11 27  1  0  0  0  0
 12 28  1  0  0  0  0
 13 17  2  0  0  0  0
 13 24  1  0  0  0  0
 14 23  1  0  0  0  0
 14 26  2  0  0  0  0
 15 24  2  0  0  0  0
 15 31  1  0  0  0  0
 16 28  2  0  0  0  0
 16 29  1  0  0  0  0
 17 64  1  0  0  0  0
 18 30  1  0  0  0  0
 19 30  1  0  0  0  0
 19 32  2  0  0  0  0
 19 33  1  0  0  0  0
 20 22  2  0  0  0  0
 20 38  1  0  0  0  0
 21 23  2  0  0  0  0
 21 39  1  0  0  0  0
 22 51  1  0  0  0  0
 23 40  1  0  0  0  0
 24 60  1  0  0  0  0
 25 81  1  0  0  0  0
 26 82  1  0  0  0  0
 27 29  2  0  0  0  0
 27 81  1  0  0  0  0
 28 83  1  0  0  0  0
 29 84  1  0  0  0  0
 30 65  2  0  0  0  0
 31 64  2  0  0  0  0
 31 67  1  0  0  0  0
 32 66  1  0  0  0  0
 32 71  1  0  0  0  0
 33 72  1  0  0  0  0
 33 76  2  0  0  0  0
 34 52  1  0  0  0  0
 34 73  1  0  0  0  0
 34 77  2  0  0  0  0
 35 61  1  0  0  0  0
 35 68  1  0  0  0  0
 35 78  2  0  0  0  0
 36 62  1  0  0  0  0
 36 74  1  0  0  0  0
 36 79  2  0  0  0  0
 37 69  1  0  0  0  0
 37 70  1  0  0  0  0
 37 80  2  0  0  0  0
 38 41  1  0  0  0  0
 39 52  1  0  0  0  0
 40 68  1  0  0  0  0
 41 43  1  0  0  0  0
 42 44  1  0  0  0  0
 42 45  1  0  0  0  0
 43 51  1  0  0  0  0
 44 53  1  0  0  0  0
 45 69  1  0  0  0  0
 46 48  1  0  0  0  0
 46 67  1  0  0  0  0
 47 49  1  0  0  0  0
 47 67  1  0  0  0  0
 48 70  1  0  0  0  0
 49 70  1  0  0  0  0
 50 53  1  0  0  0  0
 50 69  1  0  0  0  0
 51 73  1  0  0  0  0
 52 68  1  0  0  0  0
 53 66  1  0  0  0  0
 54 60  1  0  0  0  0
 55 62  1  0  0  0  0
 56 63  1  0  0  0  0
 57 63  1  0  0  0  0
 58 63  1  0  0  0  0
 59 75  1  0  0  0  0
 60 82  1  0  0  0  0
 61 63  1  0  0  0  0
 61 74  1  0  0  0  0
 62 75  1  0  0  0  0
 65 66  1  0  0  0  0
M  CHG  1  75   1
M  ISO  4  37 100  60 101  70 100  82 101
M  END
> <Batch ID>
0194

> <Smiles>
CNC(C)C(=O)NC(C(=O)N1Cc2cc([101O:1][101CH:1](C)c3ccnc(N4CC[100N:0]([100C:0](=O)N5CCCC(n6nc(-c7ccc(Oc8ccc(F)cc8F)cc7)c(C(N)=O)c6N)C5)CC4)c3)ccc2CC1C(=O)NC1CCCc2ccccc21)C(C)(C)C

> <Shape>
0.283

> <Color>
0.079

> <Negative vol penalty>
0.000

$$$$

  -OEChem-04052323343D

 82 90  0     1  0  0  0  0  0999 V2000
  -27.7738  -37.3453   26.9894 C   0  0  0  0  0  0  0  0  0  0  0  0
  -28.4734  -36.1990   26.6260 C   0  0  0  0  0  0  0  0  0  0  0  0
  -23.4624   -9.7089   19.9118 C   0  0  0  0  0  0  0  0  0  0  0  0
  -23.8504   -9.9534   22.2839 C   0  0  0  0  0  0  0  0  0  0  0  0
  -26.3812  -37.3609   26.9231 C   0  0  0  0  0  0  0  0  0  0  0  0
  -27.7807  -35.0673   26.1973 C   0  0  0  0  0  0  0  0  0  0  0  0
  -29.5793  -31.0397   21.9488 C   0  0  0  0  0  0  0  0  0  0  0  0
  -22.8235   -8.4906   20.1418 C   0  0  0  0  0  0  0  0  0  0  0  0
  -23.2114   -8.7351   22.5139 C   0  0  0  0  0  0  0  0  0  0  0  0
  -30.1854  -29.7875   22.0404 C   0  0  0  0  0  0  0  0  0  0  0  0
  -20.0395   -7.5836   22.6975 C   0  0  0  0  0  0  0  0  0  0  0  0
  -19.1189   -7.5237   23.7436 C   0  0  0  0  0  0  0  0  0  0  0  0
  -28.0226  -28.7342   21.8622 C   0  0  0  0  0  0  0  0  0  0  0  0
  -20.4409   -5.8046   24.8086 C   0  0  0  0  0  0  0  0  0  0  0  0
  -23.9760  -10.4404   20.9828 C   0  0  0  0  0  0  0  0  0  0  0  0
  -24.0455  -12.9759   20.7110 C   0  0  0  0  0  0  0  0  0  0  0  0
  -25.6715  -36.2321   26.4842 C   0  0  0  0  0  0  0  0  0  0  0  0
  -28.1868  -31.1490   21.8240 C   0  0  0  0  0  0  0  0  0  0  0  0
  -26.3772  -35.0674   26.1264 C   0  0  0  0  0  0  0  0  0  0  0  0
  -27.4014  -29.9889   21.7666 C   0  0  0  0  0  0  0  0  0  0  0  0
  -22.6979   -8.0037   21.4429 C   0  0  0  0  0  0  0  0  0  0  0  0
  -29.4068  -28.6346   22.0000 C   0  0  0  0  0  0  0  0  0  0  0  0
  -21.1608   -6.7538   22.7068 C   0  0  0  0  0  0  0  0  0  0  0  0
  -19.3196   -6.6343   24.7992 C   0  0  0  0  0  0  0  0  0  0  0  0
  -21.3615   -5.8644   23.7624 C   0  0  0  0  0  0  0  0  0  0  0  0
  -24.6366  -11.6987   20.7457 C   0  0  0  0  0  0  0  0  0  0  0  0
  -25.0894  -13.8304   20.4530 C   0  0  0  0  0  0  0  0  0  0  0  0
  -22.6754  -13.3559   20.8955 C   0  0  0  0  0  0  0  0  0  0  0  0
  -25.8718  -32.4392   23.5789 C   0  0  0  0  0  0  0  0  0  0  0  0
  -24.0278  -31.6352   21.0342 C   0  0  0  0  0  0  0  0  0  0  0  0
  -23.5714  -29.6429   18.3012 C   0  0  0  0  0  0  0  0  0  0  0  0
  -30.3750  -15.3576   21.7259 C   0  0  0  0  0  0  0  0  0  0  0  0
  -24.1642  -36.2808   26.4744 C   0  0  0  0  0  0  0  0  0  0  0  0
  -27.5508  -32.5064   21.6995 C   0  0  0  0  0  0  0  0  0  0  0  0
  -25.9044  -30.0514   21.6132 C   0  0  0  0  0  0  0  0  0  0  0  0
  -23.5240  -35.1649   25.6526 C   0  0  0  0  0  0  0  0  0  0  0  0
  -29.8550  -12.9030   19.0429 C   0  0  0  0  0  0  0  0  0  0  0  0
  -24.1694  -33.8224   25.9811 C   0  0  0  0  0  0  0  0  0  0  0  0
  -28.4167  -12.4413   19.2802 C   0  0  0  0  0  0  0  0  0  0  0  0
  -28.8969  -18.5317   20.7618 C   0  0  0  0  0  0  0  0  0  0  0  0
  -30.5429  -13.3182   20.3412 C   0  0  0  0  0  0  0  0  0  0  0  0
  -28.6644  -17.0286   20.8577 C   0  0  0  0  0  0  0  0  0  0  0  0
  -28.3652  -13.8586   21.3663 C   0  0  0  0  0  0  0  0  0  0  0  0
  -25.6627  -33.8281   25.6327 C   0  0  1  0  0  0  0  0  0  0  0  0
  -26.0767  -32.5138   22.0923 C   0  0  1  0  0  0  0  0  0  0  0  0
  -27.6209  -13.4936   20.0743 C   0  0  2  0  0  0  0  0  0  0  0  0
  -29.3036  -18.8678   22.1877 C   0  0  1  0  0  0  0  0  0  0  0  0
  -30.2033  -17.6979   22.5913 C   0  0  1  0  0  0  0  0  0  0  0  0
  -30.1773  -17.4457   24.0942 C   0  0  0  0  0  0  0  0  0  0  0  0
  -21.9508  -29.1954   16.4382 C   0  0  0  0  0  0  0  0  0  0  0  0
  -22.1930  -30.1727   22.9847 C   0  0  0  0  0  0  0  0  0  0  0  0
  -21.1754  -28.9860   21.0291 C   0  0  0  0  0  0  0  0  0  0  0  0
  -21.0044  -31.4683   21.2062 C   0  0  0  0  0  0  0  0  0  0  0  0
  -25.5749  -30.3363   16.2363 C   0  0  0  0  0  0  0  0  0  0  0  0
  -30.0072  -22.6129   22.2444 C   0  0  0  0  0  0  0  0  0  0  0  0
  -29.9847  -25.0103   22.1330 C   0  0  0  0  0  0  0  0  0  0  0  0
  -29.1552  -21.3607   22.1575 C   0  0  0  0  0  0  0  0  0  0  0  0
  -29.1399  -26.2718   22.0418 C   0  0  0  0  0  0  0  0  0  1  0  0
  -23.2313  -30.4171   20.6335 C   0  0  1  0  0  0  0  0  0  0  0  0
  -23.1868  -29.9695   16.8695 C   0  0  2  0  0  0  0  0  0  0  0  0
  -21.9290  -30.2595   21.4682 C   0  0  0  0  0  0  0  0  0  0  0  0
  -25.9538  -11.7340   20.5271 N   0  0  0  0  0  0  0  0  0  0  0  0
  -26.1990  -13.0437   20.3525 N   0  0  0  0  0  0  0  0  0  0  0  0
  -25.3288  -31.4019   21.5019 N   0  0  0  0  0  0  0  0  0  0  0  0
  -29.7364  -14.2934   21.0754 N   0  0  0  0  0  0  0  0  0  0  0  0
  -29.6754  -16.5647   21.8149 N   0  0  0  0  0  0  0  0  0  0  0  0
  -25.1572  -15.1705   20.3045 N   0  0  0  0  0  0  0  0  0  0  0  0
  -21.7323  -12.3515   21.1525 N   0  0  0  0  0  0  0  0  0  0  0  0
  -25.8495  -33.6702   24.2063 N   0  0  0  0  0  0  0  0  0  0  0  0
  -23.0096  -30.5290   19.1959 N   0  0  0  0  0  0  0  0  0  0  0  0
  -29.1610  -23.8192   22.1057 N   0  0  0  0  0  0  0  0  0  0  0  0
  -30.0257  -20.1520   22.2451 N   0  3  0  0  0  0  0  0  0  0  0  0
  -24.3026  -29.6279   15.9426 N   0  3  0  0  0  0  0  0  0  0  0  0
  -22.2960  -14.5490   20.8179 O   0  0  0  0  0  0  0  0  0  0  0  0
  -25.7420  -31.3458   24.1168 O   0  0  0  0  0  0  0  0  0  0  0  0
  -23.5171  -32.7531   20.9292 O   0  0  0  0  0  0  0  0  0  0  0  0
  -24.2947  -28.6941   18.5967 O   0  0  0  0  0  0  0  0  0  0  0  0
  -31.5230  -15.2448   22.1742 O   0  0  0  0  0  0  0  0  0  0  0  0
  -22.0742   -6.8150   21.6678 O   0  0  0  0  0  0  0  0  0  0  0  0
  -30.0001  -27.4024   22.0905 O   0  0  0  0  0  0  0  0  0  1  0  0
  -18.4363   -6.5780   25.8046 F   0  0  0  0  0  0  0  0  0  0  0  0
  -22.4374   -5.0657   23.7774 F   0  0  0  0  0  0  0  0  0  0  0  0
  1  2  1  0  0  0  0
  1  5  2  0  0  0  0
  2  6  2  0  0  0  0
  3  8  2  0  0  0  0
  3 15  1  0  0  0  0
  4  9  1  0  0  0  0
  4 15  2  0  0  0  0
  5 17  1  0  0  0  0
  6 19  1  0  0  0  0
  7 10  2  0  0  0  0
  7 18  1  0  0  0  0
  8 21  1  0  0  0  0
  9 21  2  0  0  0  0
 10 22  1  0  0  0  0
 11 12  2  0  0  0  0
 11 23  1  0  0  0  0
 12 24  1  0  0  0  0
 13 20  1  0  0  0  0
 13 22  2  0  0  0  0
 14 24  2  0  0  0  0
 14 25  1  0  0  0  0
 15 26  1  0  0  0  0
 16 26  1  0  0  0  0
 16 27  2  0  0  0  0
 16 28  1  0  0  0  0
 17 19  2  0  0  0  0
 17 33  1  0  0  0  0
 18 20  2  0  0  0  0
 18 34  1  0  0  0  0
 19 44  1  0  0  0  0
 20 35  1  0  0  0  0
 21 79  1  0  0  0  0
 22 80  1  0  0  0  0
 23 25  2  0  0  0  0
 23 79  1  0  0  0  0
 24 81  1  0  0  0  0
 25 82  1  0  0  0  0
 26 62  2  0  0  0  0
 27 63  1  0  0  0  0
 27 67  1  0  0  0  0
 28 68  1  0  0  0  0
 28 74  2  0  0  0  0
 29 45  1  0  0  0  0
 29 69  1  0  0  0  0
 29 75  2  0  0  0  0
 30 59  1  0  0  0  0
 30 64  1  0  0  0  0
 30 76  2  0  0  0  0
 31 60  1  0  0  0  0
 31 70  1  0  0  0  0
 31 77  2  0  0  0  0
 32 65  1  0  0  0  0
 32 66  1  0  0  0  0
 32 78  2  0  0  0  0
 33 36  1  0  0  0  0
 34 45  1  0  0  0  0
 35 64  1  0  0  0  0
 36 38  1  0  0  0  0
 37 39  1  0  0  0  0
 37 41  1  0  0  0  0
 38 44  1  0  0  0  0
 39 46  1  0  0  0  0
 40 42  1  0  0  0  0
 40 47  1  0  0  0  0
 41 65  1  0  0  0  0
 42 66  1  0  0  0  0
 43 46  1  0  0  0  0
 43 65  1  0  0  0  0
 44 69  1  0  0  0  0
 45 64  1  0  0  0  0
 46 63  1  0  0  0  0
 47 48  1  0  0  0  0
 47 72  1  0  0  0  0
 48 49  1  0  0  0  0
 48 66  1  0  0  0  0
 50 60  1  0  0  0  0
 51 61  1  0  0  0  0
 52 61  1  0  0  0  0
 53 61  1  0  0  0  0
 54 73  1  0  0  0  0
 55 57  1  0  0  0  0
 55 71  1  0  0  0  0
 56 58  1  0  0  0  0
 56 71  1  0  0  0  0
 57 72  1  0  0  0  0
 58 80  1  0  0  0  0
 59 61  1  0  0  0  0
 59 70  1  0  0  0  0
 60 73  1  0  0  0  0
 62 63  1  0  0  0  0
M  CHG  2  72   1  73   1
M  ISO  4  32 100  58 101  66 100  80 101
M  END
> <Batch ID>
0194

> <Smiles>
CNC(C)C(=O)NC(C(=O)N1Cc2cc([101O:1][101CH2:1]CNCCNC3CC[100N:0]([100C:0](=O)N4CCCC(n5nc(-c6ccc(Oc7ccc(F)cc7F)cc6)c(C(N)=O)c5N)C4)C3C)ccc2CC1C(=O)NC1CCCc2ccccc21)C(C)(C)C

> <Shape>
0.325

> <Color>
0.171

> <Negative vol penalty>
0.000

$$$$

  -OEChem-04052323343D

 89 98  0     1  0  0  0  0  0999 V2000
  -30.7214  -25.5932   15.1022 C   0  0  0  0  0  0  0  0  0  0  0  0
  -29.5074  -25.2708   15.7004 C   0  0  0  0  0  0  0  0  0  0  0  0
  -26.2196  -12.4916   19.4020 C   0  0  0  0  0  0  0  0  0  0  0  0
  -25.9638  -13.1149   21.7221 C   0  0  0  0  0  0  0  0  0  0  0  0
  -31.6747  -26.3225   15.8116 C   0  0  0  0  0  0  0  0  0  0  0  0
  -29.2465  -25.6767   17.0087 C   0  0  0  0  0  0  0  0  0  0  0  0
  -24.5936  -27.5994   17.5550 C   0  0  0  0  0  0  0  0  0  0  0  0
  -24.9684  -11.8757   19.4295 C   0  0  0  0  0  0  0  0  0  0  0  0
  -24.7126  -12.4991   21.7496 C   0  0  0  0  0  0  0  0  0  0  0  0
  -23.5358  -26.6945   17.6324 C   0  0  0  0  0  0  0  0  0  0  0  0
  -21.5649  -13.2116   20.7471 C   0  0  0  0  0  0  0  0  0  0  0  0
  -20.5172  -13.9031   21.3552 C   0  0  0  0  0  0  0  0  0  0  0  0
  -23.5152  -26.9332   20.0328 C   0  0  0  0  0  0  0  0  0  0  0  0
  -20.2455  -12.0987   22.9387 C   0  0  0  0  0  0  0  0  0  0  0  0
  -26.7173  -13.1111   20.5483 C   0  0  0  0  0  0  0  0  0  0  0  0
  -29.2490  -13.1422   20.2361 C   0  0  0  0  0  0  0  0  0  0  0  0
  -31.4215  -26.7458   17.1259 C   0  0  0  0  0  0  0  0  0  0  0  0
  -25.1282  -28.1706   18.7187 C   0  0  0  0  0  0  0  0  0  0  0  0
  -30.1979  -26.4112   17.7367 C   0  0  0  0  0  0  0  0  0  0  0  0
  -24.5781  -27.8470   19.9672 C   0  0  0  0  0  0  0  0  0  0  0  0
  -24.2148  -11.8795   20.6033 C   0  0  0  0  0  0  0  0  0  0  0  0
  -22.9983  -26.3591   18.8717 C   0  0  0  0  0  0  0  0  0  0  0  0
  -21.9529  -11.9637   21.2348 C   0  0  0  0  0  0  0  0  0  0  0  0
  -19.8575  -13.3467   22.4510 C   0  0  0  0  0  0  0  0  0  0  0  0
  -21.2932  -11.4073   22.3306 C   0  0  0  0  0  0  0  0  0  0  0  0
  -28.0100  -13.7470   20.5207 C   0  0  0  0  0  0  0  0  0  0  0  0
  -30.1613  -14.1638   20.3382 C   0  0  0  0  0  0  0  0  0  0  0  0
  -24.0984  -21.6406   15.2323 C   0  0  0  0  0  0  0  0  0  0  0  0
  -24.8357  -20.8714   16.0448 C   0  0  0  0  0  0  0  0  0  0  0  0
  -22.7706  -22.1086   15.6893 C   0  0  0  0  0  0  0  0  0  0  0  0
  -23.2804  -20.8792   17.7130 C   0  0  0  0  0  0  0  0  0  0  0  0
  -29.5484  -11.7788   19.9087 C   0  0  0  0  0  0  0  0  0  0  0  0
  -27.9725  -28.1255   20.1370 C   0  0  0  0  0  0  0  0  0  0  0  0
  -26.5877  -30.2937   22.1128 C   0  0  0  0  0  0  0  0  0  0  0  0
  -23.3885  -30.7208   23.7253 C   0  0  0  0  0  0  0  0  0  0  0  0
  -29.7111  -20.1058   19.7541 C   0  0  0  0  0  0  0  0  0  0  0  0
  -32.5015  -27.4913   17.8692 C   0  0  0  0  0  0  0  0  0  0  0  0
  -26.2517  -29.1655   18.6160 C   0  0  0  0  0  0  0  0  0  0  0  0
  -25.1028  -28.4480   21.2447 C   0  0  0  0  0  0  0  0  0  0  0  0
  -31.9977  -28.2058   19.1205 C   0  0  0  0  0  0  0  0  0  0  0  0
  -30.8943  -18.3176   22.5965 C   0  0  0  0  0  0  0  0  0  0  0  0
  -31.1074  -27.2791   19.9424 C   0  0  0  0  0  0  0  0  0  0  0  0
  -30.4010  -16.8889   22.3611 C   0  0  0  0  0  0  0  0  0  0  0  0
  -29.8825  -19.3517   22.1075 C   0  0  0  0  0  0  0  0  0  0  0  0
  -28.9615  -17.7561   20.4706 C   0  0  0  0  0  0  0  0  0  0  0  0
  -30.8311  -20.5784   16.6620 C   0  0  0  0  0  0  0  0  0  0  0  0
  -29.0882  -21.2908   15.1015 C   0  0  0  0  0  0  0  0  0  0  0  0
  -29.8680  -26.8548   19.1454 C   0  0  1  0  0  0  0  0  0  0  0  0
  -27.0560  -29.2936   19.9060 C   0  0  1  0  0  0  0  0  0  0  0  0
  -29.9724  -16.6778   20.8966 C   0  0  2  0  0  0  0  0  0  0  0  0
  -29.4894  -20.7038   17.3652 C   0  0  1  0  0  0  0  0  0  0  0  0
  -28.4958  -20.4637   16.2325 C   0  0  1  0  0  0  0  0  0  0  0  0
  -22.8393  -20.4488   19.0918 C   0  0  0  0  0  0  0  0  0  0  0  0
  -22.2061  -32.8020   24.4787 C   0  0  0  0  0  0  0  0  0  0  0  0
  -27.8980  -29.7147   24.8069 C   0  0  0  0  0  0  0  0  0  0  0  0
  -25.7880  -30.4770   25.9183 C   0  0  0  0  0  0  0  0  0  0  0  0
  -27.1031  -32.0682   24.5178 C   0  0  0  0  0  0  0  0  0  0  0  0
  -20.9733  -30.0590   22.1480 C   0  0  0  0  0  0  0  0  0  0  0  0
  -26.1869  -20.3752   15.6196 C   0  0  0  0  0  0  0  0  0  0  0  0
  -21.2682  -23.2161   18.5433 C   0  0  0  0  0  0  0  0  0  0  0  0
  -21.1310  -22.0809   17.5377 C   0  0  0  0  0  0  0  0  0  0  0  0
  -21.8959  -24.4679   17.9423 C   0  0  0  0  0  0  0  0  0  1  0  0
  -25.7954  -30.2182   23.3956 C   0  0  1  0  0  0  0  0  0  0  0  0
  -22.3295  -31.7536   23.3841 C   0  0  2  0  0  0  0  0  0  0  0  0
  -26.6456  -30.5984   24.6406 C   0  0  0  0  0  0  0  0  0  0  0  0
  -28.1215  -15.0517   20.7840 N   0  0  0  0  0  0  0  0  0  0  0  0
  -24.4422  -20.4761   17.2983 N   0  0  0  0  0  0  0  0  0  0  0  0
  -29.4414  -15.2751   20.6653 N   0  0  0  0  0  0  0  0  0  0  0  0
  -22.3957  -21.6887   16.9799 N   0  0  0  0  0  0  0  0  0  0  0  0
  -26.2062  -29.4107   21.0927 N   0  0  0  0  0  0  0  0  0  0  0  0
  -29.5191  -19.0962   20.7116 N   0  0  0  0  0  0  0  0  0  0  0  0
  -31.5010  -14.2110   20.1793 N   0  0  0  0  0  0  0  0  0  0  0  0
  -29.8386  -10.8893   20.9522 N   0  0  0  0  0  0  0  0  0  0  0  0
  -28.8907  -27.9221   19.1246 N   0  0  0  0  0  0  0  0  0  0  0  0
  -24.6176  -31.0560   23.1978 N   0  0  0  0  0  0  0  0  0  0  0  0
  -29.3465  -19.7789   18.4538 N   0  0  0  0  0  0  0  0  0  0  0  0
  -27.1427  -20.8809   16.5607 N   0  0  0  0  0  0  0  0  0  0  0  0
  -30.5743  -21.1527   15.2942 N   0  3  0  0  0  0  0  0  0  0  0  0
  -21.0029  -31.0972   23.2102 N   0  3  0  0  0  0  0  0  0  0  0  0
  -22.0943  -22.8133   14.9439 O   0  0  0  0  0  0  0  0  0  0  0  0
  -29.5744  -11.3655   18.7246 O   0  0  0  0  0  0  0  0  0  0  0  0
  -27.8562  -27.4592   21.1589 O   0  0  0  0  0  0  0  0  0  0  0  0
  -27.5066  -31.1111   22.0168 O   0  0  0  0  0  0  0  0  0  0  0  0
  -23.1501  -29.7188   24.3959 O   0  0  0  0  0  0  0  0  0  0  0  0
  -30.1783  -21.2145   20.0362 O   0  0  0  0  0  0  0  0  0  0  0  0
  -22.9938  -11.2788   20.6304 O   0  0  0  0  0  0  0  0  0  0  0  0
  -21.9662  -25.4756   18.9501 O   0  0  0  0  0  0  0  0  0  1  0  0
  -18.8524  -14.0115   23.0358 F   0  0  0  0  0  0  0  0  0  0  0  0
  -21.6622  -10.2092   22.8043 F   0  0  0  0  0  0  0  0  0  0  0  0
  1  2  1  0  0  0  0
  1  5  2  0  0  0  0
  2  6  2  0  0  0  0
  3  8  2  0  0  0  0
  3 15  1  0  0  0  0
  4  9  1  0  0  0  0
  4 15  2  0  0  0  0
  5 17  1  0  0  0  0
  6 19  1  0  0  0  0
  7 10  2  0  0  0  0
  7 18  1  0  0  0  0
  8 21  1  0  0  0  0
  9 21  2  0  0  0  0
 10 22  1  0  0  0  0
 11 12  2  0  0  0  0
 11 23  1  0  0  0  0
 12 24  1  0  0  0  0
 13 20  1  0  0  0  0
 13 22  2  0  0  0  0
 14 24  2  0  0  0  0
 14 25  1  0  0  0  0
 15 26  1  0  0  0  0
 16 26  1  0  0  0  0
 16 27  2  0  0  0  0
 16 32  1  0  0  0  0
 17 19  2  0  0  0  0
 17 37  1  0  0  0  0
 18 20  2  0  0  0  0
 18 38  1  0  0  0  0
 19 48  1  0  0  0  0
 20 39  1  0  0  0  0
 21 86  1  0  0  0  0
 22 87  1  0  0  0  0
 23 25  2  0  0  0  0
 23 86  1  0  0  0  0
 24 88  1  0  0  0  0
 25 89  1  0  0  0  0
 26 66  2  0  0  0  0
 27 68  1  0  0  0  0
 27 72  1  0  0  0  0
 28 29  2  0  0  0  0
 28 30  1  0  0  0  0
 29 59  1  0  0  0  0
 29 67  1  0  0  0  0
 30 69  1  0  0  0  0
 30 80  2  0  0  0  0
 31 53  1  0  0  0  0
 31 67  2  0  0  0  0
 31 69  1  0  0  0  0
 32 73  1  0  0  0  0
 32 81  2  0  0  0  0
 33 49  1  0  0  0  0
 33 74  1  0  0  0  0
 33 82  2  0  0  0  0
 34 63  1  0  0  0  0
 34 70  1  0  0  0  0
 34 83  2  0  0  0  0
 35 64  1  0  0  0  0
 35 75  1  0  0  0  0
 35 84  2  0  0  0  0
 36 71  1  0  0  0  0
 36 76  1  0  0  0  0
 36 85  2  0  0  0  0
 37 40  1  0  0  0  0
 38 49  1  0  0  0  0
 39 70  1  0  0  0  0
 40 42  1  0  0  0  0
 41 43  1  0  0  0  0
 41 44  1  0  0  0  0
 42 48  1  0  0  0  0
 43 50  1  0  0  0  0
 44 71  1  0  0  0  0
 45 50  1  0  0  0  0
 45 71  1  0  0  0  0
 46 51  1  0  0  0  0
 46 78  1  0  0  0  0
 47 52  1  0  0  0  0
 47 78  1  0  0  0  0
 48 74  1  0  0  0  0
 49 70  1  0  0  0  0
 50 68  1  0  0  0  0
 51 52  1  0  0  0  0
 51 76  1  0  0  0  0
 52 77  1  0  0  0  0
 54 64  1  0  0  0  0
 55 65  1  0  0  0  0
 56 65  1  0  0  0  0
 57 65  1  0  0  0  0
 58 79  1  0  0  0  0
 59 77  1  0  0  0  0
 60 61  1  0  0  0  0
 60 62  1  0  0  0  0
 61 69  1  0  0  0  0
 62 87  1  0  0  0  0
 63 65  1  0  0  0  0
 63 75  1  0  0  0  0
 64 79  1  0  0  0  0
 66 68  1  0  0  0  0
M  CHG  2  78   1  79   1
M  ISO  4  36 100  62 101  76 100  87 101
M  END
> <Batch ID>
0194

> <Smiles>
CNC(C)C(=O)NC(C(=O)N1Cc2cc([101O:1][101CH2:1]CCn3c(C)nc(CNC4CNCC4[100NH:0][100C:0](=O)N4CCCC(n5nc(-c6ccc(Oc7ccc(F)cc7F)cc6)c(C(N)=O)c5N)C4)cc3=O)ccc2CC1C(=O)NC1CCCc2ccccc21)C(C)(C)C

> <Shape>
0.265

> <Color>
0.059

> <Negative vol penalty>
0.000

$$$$

  -OEChem-04052323343D

 84 93  0     1  0  0  0  0  0999 V2000
  -17.6895  -28.7611   24.2055 C   0  0  0  0  0  0  0  0  0  0  0  0
  -18.8436  -28.0584   23.8745 C   0  0  0  0  0  0  0  0  0  0  0  0
  -24.6344   -8.9200   21.8939 C   0  0  0  0  0  0  0  0  0  0  0  0
  -23.4602   -9.3965   19.8369 C   0  0  0  0  0  0  0  0  0  0  0  0
  -17.3009  -29.8607   23.4413 C   0  0  0  0  0  0  0  0  0  0  0  0
  -19.6093  -28.4542   22.7784 C   0  0  0  0  0  0  0  0  0  0  0  0
  -25.7029  -28.1568   22.2444 C   0  0  0  0  0  0  0  0  0  0  0  0
  -23.5955   -8.0788   22.2921 C   0  0  0  0  0  0  0  0  0  0  0  0
  -22.4213   -8.5552   20.2351 C   0  0  0  0  0  0  0  0  0  0  0  0
  -26.5465  -27.2345   21.6267 C   0  0  0  0  0  0  0  0  0  0  0  0
  -22.5476   -4.9318   21.6351 C   0  0  0  0  0  0  0  0  0  0  0  0
  -22.8885   -3.6928   22.1775 C   0  0  0  0  0  0  0  0  0  0  0  0
  -26.6245  -28.6312   19.6614 C   0  0  0  0  0  0  0  0  0  0  0  0
  -21.7610   -4.2817   24.2316 C   0  0  0  0  0  0  0  0  0  0  0  0
  -30.3307  -25.0634   19.2698 C   0  0  0  0  0  0  0  0  0  0  0  0
  -24.5668   -9.5789   20.6663 C   0  0  0  0  0  0  0  0  0  0  0  0
  -26.7856  -10.0946   19.5181 C   0  0  0  0  0  0  0  0  0  0  0  0
  -18.0675  -30.2760   22.3411 C   0  0  0  0  0  0  0  0  0  0  0  0
  -25.3044  -29.3199   21.5700 C   0  0  0  0  0  0  0  0  0  0  0  0
  -19.2299  -29.5595   21.9980 C   0  0  0  0  0  0  0  0  0  0  0  0
  -25.7779  -29.5679   20.2737 C   0  0  0  0  0  0  0  0  0  0  0  0
  -22.4890   -7.8963   21.4627 C   0  0  0  0  0  0  0  0  0  0  0  0
  -27.0051  -27.4702   20.3339 C   0  0  0  0  0  0  0  0  0  0  0  0
  -21.8135   -5.8459   22.3910 C   0  0  0  0  0  0  0  0  0  0  0  0
  -22.4952   -3.3677   23.4757 C   0  0  0  0  0  0  0  0  0  0  0  0
  -21.4202   -5.5208   23.6892 C   0  0  0  0  0  0  0  0  0  0  0  0
  -25.6394  -10.4485   20.2547 C   0  0  0  0  0  0  0  0  0  0  0  0
  -29.1158  -24.5631   19.6835 C   0  0  0  0  0  0  0  0  0  0  0  0
  -30.8082  -23.0683   18.2593 C   0  0  0  0  0  0  0  0  0  0  0  0
  -29.5936  -22.5677   18.6737 C   0  0  0  0  0  0  0  0  0  0  0  0
  -27.4868  -11.2685   19.3888 C   0  0  0  0  0  0  0  0  0  0  0  0
  -27.1812   -8.8187   18.9973 C   0  0  0  0  0  0  0  0  0  0  0  0
  -22.5190  -30.5137   20.6107 C   0  0  0  0  0  0  0  0  0  0  0  0
  -24.3359  -33.0807   19.8161 C   0  0  0  0  0  0  0  0  0  0  0  0
  -27.4114  -34.3105   18.9942 C   0  0  0  0  0  0  0  0  0  0  0  0
  -25.5864  -16.9331   19.5414 C   0  0  0  0  0  0  0  0  0  0  0  0
  -17.5818  -31.4418   21.5166 C   0  0  0  0  0  0  0  0  0  0  0  0
  -24.4155  -30.3179   22.2602 C   0  0  0  0  0  0  0  0  0  0  0  0
  -25.3957  -30.8112   19.5142 C   0  0  0  0  0  0  0  0  0  0  0  0
  -18.6511  -32.0239   20.5957 C   0  0  0  0  0  0  0  0  0  0  0  0
  -28.2391  -15.4467   21.5909 C   0  0  0  0  0  0  0  0  0  0  0  0
  -19.3803  -30.9090   19.8527 C   0  0  0  0  0  0  0  0  0  0  0  0
  -27.9552  -13.9535   21.4202 C   0  0  0  0  0  0  0  0  0  0  0  0
  -26.9449  -16.2513   21.5911 C   0  0  0  0  0  0  0  0  0  0  0  0
  -25.8079  -14.5637   20.2056 C   0  0  0  0  0  0  0  0  0  0  0  0
  -27.6123  -18.5907   19.4768 C   0  0  0  0  0  0  0  0  0  0  0  0
  -25.7890  -19.3182   18.6535 C   0  0  0  0  0  0  0  0  0  0  0  0
  -20.1003  -29.9731   20.8311 C   0  0  1  0  0  0  0  0  0  0  0  0
  -23.6604  -31.2185   21.2876 C   0  0  1  0  0  0  0  0  0  0  0  0
  -27.0762  -13.6907   20.1835 C   0  0  2  0  0  0  0  0  0  0  0  0
  -27.2690  -19.5481   18.3274 C   0  0  0  0  0  0  0  0  0  0  0  0
  -31.7595  -22.2410   17.4641 C   0  0  0  0  0  0  0  0  0  0  0  0
  -28.5764  -36.4416   18.3627 C   0  0  0  0  0  0  0  0  0  0  0  0
  -23.1464  -32.8972   17.0123 C   0  0  0  0  0  0  0  0  0  0  0  0
  -24.9956  -34.3802   16.2063 C   0  0  0  0  0  0  0  0  0  0  0  0
  -23.3706  -35.2245   17.9001 C   0  0  0  0  0  0  0  0  0  0  0  0
  -29.1850  -34.1781   21.3598 C   0  0  0  0  0  0  0  0  0  0  0  0
  -29.1716  -21.1662   18.3438 C   0  0  0  0  0  0  0  0  0  0  0  0
  -28.1814  -25.4082   20.4764 C   0  0  0  0  0  0  0  0  0  1  0  0
  -25.0986  -33.5113   18.5865 C   0  0  1  0  0  0  0  0  0  0  0  0
  -28.1835  -35.5147   19.5026 C   0  0  2  0  0  0  0  0  0  0  0  0
  -24.1586  -33.9788   17.4396 C   0  0  0  0  0  0  0  0  0  0  0  0
  -31.1987  -24.3250   18.5502 N   0  0  0  0  0  0  0  0  0  0  0  0
  -25.6102  -11.7458   20.5713 N   0  0  0  0  0  0  0  0  0  0  0  0
  -28.7255  -23.3062   19.3930 N   0  0  0  0  0  0  0  0  0  0  0  0
  -26.7468  -12.2173   20.0311 N   0  0  0  0  0  0  0  0  0  0  0  0
  -24.5196  -31.7536   20.2295 N   0  0  0  0  0  0  0  0  0  0  0  0
  -26.1579  -15.9767   20.3849 N   0  0  0  0  0  0  0  0  0  0  0  0
  -26.2306  -18.1392   19.3950 N   0  0  0  0  0  0  0  0  0  0  0  0
  -28.6579  -11.5714   18.7896 N   0  0  0  0  0  0  0  0  0  0  0  0
  -26.3441   -7.7170   19.2209 N   0  0  0  0  0  0  0  0  0  0  0  0
  -21.3254  -30.5816   21.3037 N   0  0  0  0  0  0  0  0  0  0  0  0
  -26.0498  -34.5246   19.0301 N   0  0  0  0  0  0  0  0  0  0  0  0
  -27.7117  -20.9277   18.5606 N   0  3  0  0  0  0  0  0  0  0  0  0
  -29.4248  -35.0768   20.2014 N   0  3  0  0  0  0  0  0  0  0  0  0
  -28.2536   -8.6569   18.3669 O   0  0  0  0  0  0  0  0  0  0  0  0
  -22.7069  -29.9512   19.5383 O   0  0  0  0  0  0  0  0  0  0  0  0
  -23.6097  -33.8941   20.3929 O   0  0  0  0  0  0  0  0  0  0  0  0
  -27.9614  -33.2842   18.6009 O   0  0  0  0  0  0  0  0  0  0  0  0
  -24.5459  -16.7070   18.9094 O   0  0  0  0  0  0  0  0  0  0  0  0
  -21.4752   -7.0753   21.8508 O   0  0  0  0  0  0  0  0  0  0  0  0
  -27.8334  -26.5654   19.7244 O   0  0  0  0  0  0  0  0  0  1  0  0
  -22.8212   -2.1772   23.9958 F   0  0  0  0  0  0  0  0  0  0  0  0
  -20.7137   -6.3944   24.4197 F   0  0  0  0  0  0  0  0  0  0  0  0
  1  2  1  0  0  0  0
  1  5  2  0  0  0  0
  2  6  2  0  0  0  0
  3  8  2  0  0  0  0
  3 16  1  0  0  0  0
  4  9  1  0  0  0  0
  4 16  2  0  0  0  0
  5 18  1  0  0  0  0
  6 20  1  0  0  0  0
  7 10  2  0  0  0  0
  7 19  1  0  0  0  0
  8 22  1  0  0  0  0
  9 22  2  0  0  0  0
 10 23  1  0  0  0  0
 11 12  2  0  0  0  0
 11 24  1  0  0  0  0
 12 25  1  0  0  0  0
 13 21  1  0  0  0  0
 13 23  2  0  0  0  0
 14 25  2  0  0  0  0
 14 26  1  0  0  0  0
 15 28  1  0  0  0  0
 15 63  2  0  0  0  0
 16 27  1  0  0  0  0
 17 27  1  0  0  0  0
 17 31  2  0  0  0  0
 17 32  1  0  0  0  0
 18 20  2  0  0  0  0
 18 37  1  0  0  0  0
 19 21  2  0  0  0  0
 19 38  1  0  0  0  0
 20 48  1  0  0  0  0
 21 39  1  0  0  0  0
 22 81  1  0  0  0  0
 23 82  1  0  0  0  0
 24 26  2  0  0  0  0
 24 81  1  0  0  0  0
 25 83  1  0  0  0  0
 26 84  1  0  0  0  0
 27 64  2  0  0  0  0
 28 59  1  0  0  0  0
 28 65  2  0  0  0  0
 29 30  2  0  0  0  0
 29 52  1  0  0  0  0
 29 63  1  0  0  0  0
 30 58  1  0  0  0  0
 30 65  1  0  0  0  0
 31 66  1  0  0  0  0
 31 70  1  0  0  0  0
 32 71  1  0  0  0  0
 32 76  2  0  0  0  0
 33 49  1  0  0  0  0
 33 72  1  0  0  0  0
 33 77  2  0  0  0  0
 34 60  1  0  0  0  0
 34 67  1  0  0  0  0
 34 78  2  0  0  0  0
 35 61  1  0  0  0  0
 35 73  1  0  0  0  0
 35 79  2  0  0  0  0
 36 68  1  0  0  0  0
 36 69  1  0  0  0  0
 36 80  2  0  0  0  0
 37 40  1  0  0  0  0
 38 49  1  0  0  0  0
 39 67  1  0  0  0  0
 40 42  1  0  0  0  0
 41 43  1  0  0  0  0
 41 44  1  0  0  0  0
 42 48  1  0  0  0  0
 43 50  1  0  0  0  0
 44 68  1  0  0  0  0
 45 50  1  0  0  0  0
 45 68  1  0  0  0  0
 46 51  1  0  0  0  0
 46 69  1  0  0  0  0
 47 51  1  0  0  0  0
 47 69  1  0  0  0  0
 48 72  1  0  0  0  0
 49 67  1  0  0  0  0
 50 66  1  0  0  0  0
 51 74  1  0  0  0  0
 53 61  1  0  0  0  0
 54 62  1  0  0  0  0
 55 62  1  0  0  0  0
 56 62  1  0  0  0  0
 57 75  1  0  0  0  0
 58 74  1  0  0  0  0
 59 82  1  0  0  0  0
 60 62  1  0  0  0  0
 60 73  1  0  0  0  0
 61 75  1  0  0  0  0
 64 66  1  0  0  0  0
M  CHG  2  74   1  75   1
M  ISO  4  36 100  59 101  69 100  82 101
M  END
> <Batch ID>
0194

> <Smiles>
CNC(C)C(=O)NC(C(=O)N1Cc2cc([101O:1][101CH2:1]c3cnc(C)c(CNC4C[100N:0]([100C:0](=O)N5CCCC(n6nc(-c7ccc(Oc8ccc(F)cc8F)cc7)c(C(N)=O)c6N)C5)C4)n3)ccc2CC1C(=O)NC1CCCc2ccccc21)C(C)(C)C

> <Shape>
0.266

> <Color>
0.119

> <Negative vol penalty>
0.000

$$$$

  -OEChem-04052323343D

 84 93  0     1  0  0  0  0  0999 V2000
  -22.3550  -36.4889   16.6670 C   0  0  0  0  0  0  0  0  0  0  0  0
  -22.6315  -35.1668   16.3340 C   0  0  0  0  0  0  0  0  0  0  0  0
  -24.7796   -9.3254   21.1247 C   0  0  0  0  0  0  0  0  0  0  0  0
  -22.8580  -10.1231   19.8965 C   0  0  0  0  0  0  0  0  0  0  0  0
  -23.0066  -37.0858   17.7455 C   0  0  0  0  0  0  0  0  0  0  0  0
  -23.5606  -34.4410   17.0786 C   0  0  0  0  0  0  0  0  0  0  0  0
  -24.9162  -27.7853   19.3546 C   0  0  0  0  0  0  0  0  0  0  0  0
  -23.9822   -8.3665   21.7494 C   0  0  0  0  0  0  0  0  0  0  0  0
  -22.0607   -9.1641   20.5212 C   0  0  0  0  0  0  0  0  0  0  0  0
  -25.9383  -26.8372   19.3631 C   0  0  0  0  0  0  0  0  0  0  0  0
  -22.6540   -5.3516   20.9880 C   0  0  0  0  0  0  0  0  0  0  0  0
  -23.1532   -4.0523   21.0781 C   0  0  0  0  0  0  0  0  0  0  0  0
  -26.9442  -27.9472   21.2539 C   0  0  0  0  0  0  0  0  0  0  0  0
  -23.0258   -4.1703   23.4878 C   0  0  0  0  0  0  0  0  0  0  0  0
  -24.2175  -10.2038   20.1983 C   0  0  0  0  0  0  0  0  0  0  0  0
  -25.7527  -11.0542   18.3470 C   0  0  0  0  0  0  0  0  0  0  0  0
  -23.9370  -36.3640   18.5097 C   0  0  0  0  0  0  0  0  0  0  0  0
  -24.9063  -28.8296   20.2905 C   0  0  0  0  0  0  0  0  0  0  0  0
  -24.2262  -35.0292   18.1675 C   0  0  0  0  0  0  0  0  0  0  0  0
  -25.9194  -28.9059   21.2568 C   0  0  0  0  0  0  0  0  0  0  0  0
  -22.6228   -8.2858   21.4476 C   0  0  0  0  0  0  0  0  0  0  0  0
  -26.9540  -26.9197   20.3110 C   0  0  0  0  0  0  0  0  0  0  0  0
  -22.3407   -6.0604   22.1479 C   0  0  0  0  0  0  0  0  0  0  0  0
  -23.3391   -3.4616   22.3279 C   0  0  0  0  0  0  0  0  0  0  0  0
  -22.5266   -5.4697   23.3978 C   0  0  0  0  0  0  0  0  0  0  0  0
  -25.0405  -11.1950   19.5531 C   0  0  0  0  0  0  0  0  0  0  0  0
  -30.2579  -22.6462   20.3545 C   0  0  0  0  0  0  0  0  0  0  0  0
  -30.8883  -23.2191   19.2412 C   0  0  0  0  0  0  0  0  0  0  0  0
  -26.3696  -12.2684   18.1688 C   0  0  0  0  0  0  0  0  0  0  0  0
  -30.2403  -20.3980   21.3346 C   0  0  0  0  0  0  0  0  0  0  0  0
  -30.7962  -21.6078   21.1787 C   0  0  0  0  0  0  0  0  0  0  0  0
  -25.8481   -9.9268   17.4664 C   0  0  0  0  0  0  0  0  0  0  0  0
  -25.0526  -32.0001   20.1154 C   0  0  0  0  0  0  0  0  0  0  0  0
  -24.5150  -31.8119   23.3088 C   0  0  0  0  0  0  0  0  0  0  0  0
  -24.7088  -29.9711   26.1759 C   0  0  0  0  0  0  0  0  0  0  0  0
  -29.4670  -16.2662   20.6390 C   0  0  0  0  0  0  0  0  0  0  0  0
  -24.6510  -37.0664   19.6373 C   0  0  0  0  0  0  0  0  0  0  0  0
  -23.7822  -29.8290   20.2848 C   0  0  0  0  0  0  0  0  0  0  0  0
  -25.9437  -29.9958   22.2960 C   0  0  0  0  0  0  0  0  0  0  0  0
  -30.8437  -19.3347   22.2140 C   0  0  0  0  0  0  0  0  0  0  0  0
  -28.9802  -19.9850   20.6202 C   0  0  0  0  0  0  0  0  0  0  0  0
  -25.3451  -36.1128   20.6065 C   0  0  0  0  0  0  0  0  0  0  0  0
  -25.7463  -16.6744   20.5503 C   0  0  0  0  0  0  0  0  0  0  0  0
  -26.1348  -35.0555   19.8415 C   0  0  0  0  0  0  0  0  0  0  0  0
  -25.3042  -15.2427   20.2528 C   0  0  0  0  0  0  0  0  0  0  0  0
  -31.0064  -18.0207   21.4498 C   0  0  0  0  0  0  0  0  0  0  0  0
  -29.1931  -18.6620   19.8869 C   0  0  0  0  0  0  0  0  0  0  0  0
  -27.0724  -16.6987   21.3009 C   0  0  0  0  0  0  0  0  0  0  0  0
  -27.7388  -14.5347   20.3020 C   0  0  0  0  0  0  0  0  0  0  0  0
  -25.2094  -34.2015   18.9665 C   0  0  1  0  0  0  0  0  0  0  0  0
  -24.1504  -31.1462   20.9607 C   0  0  1  0  0  0  0  0  0  0  0  0
  -26.4139  -14.4653   19.5250 C   0  0  1  0  0  0  0  0  0  0  0  0
  -32.2027  -22.9260   18.6482 C   0  0  0  0  0  0  0  0  0  0  0  0
  -24.2273  -30.0991   28.6354 C   0  0  0  0  0  0  0  0  0  0  0  0
  -26.9964  -33.5434   23.7019 C   0  0  0  0  0  0  0  0  0  0  0  0
  -27.0114  -32.8533   26.1085 C   0  0  0  0  0  0  0  0  0  0  0  0
  -25.0721  -34.1251   25.1896 C   0  0  0  0  0  0  0  0  0  0  0  0
  -22.7830  -27.7283   26.0336 C   0  0  0  0  0  0  0  0  0  0  0  0
  -27.9046  -24.9637   19.3319 C   0  0  0  0  0  0  0  0  0  1  0  0
  -25.3883  -31.7035   24.5354 C   0  0  1  0  0  0  0  0  0  0  0  0
  -23.6914  -29.6997   27.2694 C   0  0  2  0  0  0  0  0  0  0  0  0
  -26.1179  -33.0368   24.8632 C   0  0  0  0  0  0  0  0  0  0  0  0
  -25.1903  -12.4032   20.1024 N   0  0  0  0  0  0  0  0  0  0  0  0
  -29.0638  -23.2154   20.5418 N   0  0  0  0  0  0  0  0  0  0  0  0
  -30.1011  -24.1577   18.7081 N   0  0  0  0  0  0  0  0  0  0  0  0
  -26.0039  -13.0327   19.2376 N   0  0  0  0  0  0  0  0  0  0  0  0
  -29.0415  -24.0985   19.5305 N   0  0  0  0  0  0  0  0  0  0  0  0
  -24.8260  -30.9528   22.2454 N   0  0  0  0  0  0  0  0  0  0  0  0
  -29.7682  -17.6322   20.7679 N   0  0  0  0  0  0  0  0  0  0  0  0
  -28.1058  -15.9194   20.6063 N   0  0  0  0  0  0  0  0  0  0  0  0
  -27.1838  -12.7461   17.2038 N   0  0  0  0  0  0  0  0  0  0  0  0
  -25.1506   -8.7577   17.7997 N   0  0  0  0  0  0  0  0  0  0  0  0
  -24.5106  -33.2243   19.7735 N   0  0  0  0  0  0  0  0  0  0  0  0
  -24.5279  -31.2140   25.6071 N   0  0  0  0  0  0  0  0  0  0  0  0
  -23.3443  -28.2508   27.3060 N   0  3  0  0  0  0  0  0  0  0  0  0
  -26.5448   -9.9497   16.4235 O   0  0  0  0  0  0  0  0  0  0  0  0
  -26.1591  -31.5799   19.7980 O   0  0  0  0  0  0  0  0  0  0  0  0
  -23.5864  -32.6239   23.2974 O   0  0  0  0  0  0  0  0  0  0  0  0
  -25.5794  -29.1629   25.8606 O   0  0  0  0  0  0  0  0  0  0  0  0
  -30.3568  -15.4103   20.5583 O   0  0  0  0  0  0  0  0  0  0  0  0
  -21.8445   -7.3500   22.0568 O   0  0  0  0  0  0  0  0  0  0  0  0
  -27.9597  -25.9899   20.3211 O   0  0  0  0  0  0  0  0  0  1  0  0
  -23.8170   -2.2133   22.4142 F   0  0  0  0  0  0  0  0  0  0  0  0
  -22.2263   -6.1452   24.5156 F   0  0  0  0  0  0  0  0  0  0  0  0
  1  2  1  0  0  0  0
  1  5  2  0  0  0  0
  2  6  2  0  0  0  0
  3  8  2  0  0  0  0
  3 15  1  0  0  0  0
  4  9  1  0  0  0  0
  4 15  2  0  0  0  0
  5 17  1  0  0  0  0
  6 19  1  0  0  0  0
  7 10  2  0  0  0  0
  7 18  1  0  0  0  0
  8 21  1  0  0  0  0
  9 21  2  0  0  0  0
 10 22  1  0  0  0  0
 11 12  2  0  0  0  0
 11 23  1  0  0  0  0
 12 24  1  0  0  0  0
 13 20  1  0  0  0  0
 13 22  2  0  0  0  0
 14 24  2  0  0  0  0
 14 25  1  0  0  0  0
 15 26  1  0  0  0  0
 16 26  1  0  0  0  0
 16 29  2  0  0  0  0
 16 32  1  0  0  0  0
 17 19  2  0  0  0  0
 17 37  1  0  0  0  0
 18 20  2  0  0  0  0
 18 38  1  0  0  0  0
 19 50  1  0  0  0  0
 20 39  1  0  0  0  0
 21 81  1  0  0  0  0
 22 82  1  0  0  0  0
 23 25  2  0  0  0  0
 23 81  1  0  0  0  0
 24 83  1  0  0  0  0
 25 84  1  0  0  0  0
 26 63  2  0  0  0  0
 27 28  1  0  0  0  0
 27 31  1  0  0  0  0
 27 64  2  0  0  0  0
 28 53  1  0  0  0  0
 28 65  2  0  0  0  0
 29 66  1  0  0  0  0
 29 71  1  0  0  0  0
 30 31  2  0  0  0  0
 30 40  1  0  0  0  0
 30 41  1  0  0  0  0
 32 72  1  0  0  0  0
 32 76  2  0  0  0  0
 33 51  1  0  0  0  0
 33 73  1  0  0  0  0
 33 77  2  0  0  0  0
 34 60  1  0  0  0  0
 34 68  1  0  0  0  0
 34 78  2  0  0  0  0
 35 61  1  0  0  0  0
 35 74  1  0  0  0  0
 35 79  2  0  0  0  0
 36 69  1  0  0  0  0
 36 70  1  0  0  0  0
 36 80  2  0  0  0  0
 37 42  1  0  0  0  0
 38 51  1  0  0  0  0
 39 68  1  0  0  0  0
 40 46  1  0  0  0  0
 41 47  1  0  0  0  0
 42 44  1  0  0  0  0
 43 45  1  0  0  0  0
 43 48  1  0  0  0  0
 44 50  1  0  0  0  0
 45 52  1  0  0  0  0
 46 69  1  0  0  0  0
 47 69  1  0  0  0  0
 48 70  1  0  0  0  0
 49 52  1  0  0  0  0
 49 70  1  0  0  0  0
 50 73  1  0  0  0  0
 51 68  1  0  0  0  0
 52 66  1  0  0  0  0
 54 61  1  0  0  0  0
 55 62  1  0  0  0  0
 56 62  1  0  0  0  0
 57 62  1  0  0  0  0
 58 75  1  0  0  0  0
 59 67  1  0  0  0  0
 59 82  1  0  0  0  0
 60 62  1  0  0  0  0
 60 74  1  0  0  0  0
 61 75  1  0  0  0  0
 63 66  1  0  0  0  0
 64 67  1  0  0  0  0
 65 67  1  0  0  0  0
M  CHG  1  75   1
M  ISO  4  36 100  59 101  69 100  82 101
M  END
> <Batch ID>
0194

> <Smiles>
CNC(C)C(=O)NC(C(=O)N1Cc2cc([101O:1][101CH2:1]n3nc(C)c(C=C4CC[100N:0]([100C:0](=O)N5CCCC(n6nc(-c7ccc(Oc8ccc(F)cc8F)cc7)c(C(N)=O)c6N)C5)CC4)n3)ccc2CC1C(=O)NC1CCCc2ccccc21)C(C)(C)C

> <Shape>
0.300

> <Color>
0.093

> <Negative vol penalty>
0.000

$$$$

  -OEChem-04052323343D

 86 95  0     1  0  0  0  0  0999 V2000
  -27.6101  -37.8768   21.2821 C   0  0  0  0  0  0  0  0  0  0  0  0
  -27.8381  -36.8245   20.4011 C   0  0  0  0  0  0  0  0  0  0  0  0
  -22.6855  -11.3674   19.2156 C   0  0  0  0  0  0  0  0  0  0  0  0
  -23.2577   -9.9480   21.0851 C   0  0  0  0  0  0  0  0  0  0  0  0
  -27.3849  -37.6170   22.6332 C   0  0  0  0  0  0  0  0  0  0  0  0
  -27.8420  -35.5116   20.8711 C   0  0  0  0  0  0  0  0  0  0  0  0
  -26.1641  -28.8499   18.8408 C   0  0  0  0  0  0  0  0  0  0  0  0
  -21.6671  -10.4844   18.8568 C   0  0  0  0  0  0  0  0  0  0  0  0
  -22.2392   -9.0650   20.7264 C   0  0  0  0  0  0  0  0  0  0  0  0
  -26.7203  -27.5735   18.7688 C   0  0  0  0  0  0  0  0  0  0  0  0
  -18.8793   -8.8812   21.0392 C   0  0  0  0  0  0  0  0  0  0  0  0
  -18.0535   -8.3997   22.0549 C   0  0  0  0  0  0  0  0  0  0  0  0
  -26.2409  -27.2393   21.1093 C   0  0  0  0  0  0  0  0  0  0  0  0
  -18.7291   -6.1396   21.5330 C   0  0  0  0  0  0  0  0  0  0  0  0
  -23.4809  -11.0992   20.3297 C   0  0  0  0  0  0  0  0  0  0  0  0
  -24.4355  -13.1144   21.5686 C   0  0  0  0  0  0  0  0  0  0  0  0
  -27.3765  -36.2997   23.1183 C   0  0  0  0  0  0  0  0  0  0  0  0
  -25.6511  -29.3356   20.0521 C   0  0  0  0  0  0  0  0  0  0  0  0
  -27.6178  -35.2340   22.2303 C   0  0  0  0  0  0  0  0  0  0  0  0
  -25.6764  -28.5212   21.1933 C   0  0  0  0  0  0  0  0  0  0  0  0
  -27.9797  -23.4443   20.7936 C   0  0  0  0  0  0  0  0  0  0  0  0
  -21.4439   -9.3332   19.6122 C   0  0  0  0  0  0  0  0  0  0  0  0
  -26.7615  -26.7691   19.9039 C   0  0  0  0  0  0  0  0  0  0  0  0
  -19.6300   -7.9919   20.2702 C   0  0  0  0  0  0  0  0  0  0  0  0
  -17.9784   -7.0290   22.3018 C   0  0  0  0  0  0  0  0  0  0  0  0
  -19.5549   -6.6211   20.5171 C   0  0  0  0  0  0  0  0  0  0  0  0
  -24.5334  -12.0106   20.7004 C   0  0  0  0  0  0  0  0  0  0  0  0
  -29.2573  -23.1831   21.2454 C   0  0  0  0  0  0  0  0  0  0  0  0
  -27.3682  -22.4166   20.1052 C   0  0  0  0  0  0  0  0  0  0  0  0
  -25.7005  -13.6490   21.5884 C   0  0  0  0  0  0  0  0  0  0  0  0
  -29.1960  -21.0898   20.3615 C   0  0  0  0  0  0  0  0  0  0  0  0
  -23.3024  -13.6120   22.2926 C   0  0  0  0  0  0  0  0  0  0  0  0
  -26.3523  -31.7724   21.9689 C   0  0  0  0  0  0  0  0  0  0  0  0
  -23.6908  -30.7932   23.5436 C   0  0  0  0  0  0  0  0  0  0  0  0
  -21.5163  -28.2633   24.2634 C   0  0  0  0  0  0  0  0  0  0  0  0
  -30.1824  -15.3092   18.5828 C   0  0  0  0  0  0  0  0  0  0  0  0
  -27.1754  -36.0713   24.5955 C   0  0  0  0  0  0  0  0  0  0  0  0
  -25.0301  -30.7045   20.1068 C   0  0  0  0  0  0  0  0  0  0  0  0
  -25.1206  -28.9879   22.5131 C   0  0  0  0  0  0  0  0  0  0  0  0
  -26.8240  -34.6278   24.9464 C   0  0  0  0  0  0  0  0  0  0  0  0
  -30.0786  -11.8511   19.8090 C   0  0  0  0  0  0  0  0  0  0  0  0
  -27.7517  -33.6604   24.2182 C   0  0  0  0  0  0  0  0  0  0  0  0
  -28.6054  -11.6656   20.1751 C   0  0  0  0  0  0  0  0  0  0  0  0
  -28.3070  -17.9486   20.3243 C   0  0  0  0  0  0  0  0  0  0  0  0
  -30.2624  -12.8440   18.6635 C   0  0  0  0  0  0  0  0  0  0  0  0
  -28.2165  -16.6300   19.5635 C   0  0  0  0  0  0  0  0  0  0  0  0
  -28.1426  -13.9611   19.2393 C   0  0  0  0  0  0  0  0  0  0  0  0
  -30.2531  -17.7556   18.9719 C   0  0  0  0  0  0  0  0  0  0  0  0
  -27.6052  -33.7947   22.6976 C   0  0  1  0  0  0  0  0  0  0  0  0
  -25.0030  -31.2925   21.5142 C   0  0  1  0  0  0  0  0  0  0  0  0
  -27.9223  -13.0216   20.4330 C   0  0  1  0  0  0  0  0  0  0  0  0
  -29.2211  -18.7762   19.4275 C   0  0  2  0  0  0  0  0  0  0  0  0
  -30.0193  -24.2200   22.0032 C   0  0  0  0  0  0  0  0  0  0  0  0
  -19.4610  -27.7559   25.6108 C   0  0  0  0  0  0  0  0  0  0  0  0
  -25.3833  -30.6845   26.0800 C   0  0  0  0  0  0  0  0  0  0  0  0
  -23.5848  -29.3005   27.1373 C   0  0  0  0  0  0  0  0  0  0  0  0
  -23.0898  -31.6303   26.3960 C   0  0  0  0  0  0  0  0  0  0  0  0
  -25.3366  -21.6266   18.8911 C   0  0  0  0  0  0  0  0  0  0  0  0
  -19.9523  -27.5952   21.8413 C   0  0  0  0  0  0  0  0  0  0  0  0
  -27.3136  -24.7531   21.0383 C   0  0  0  0  0  0  0  0  0  1  0  0
  -23.4075  -29.8188   24.6612 C   0  0  1  0  0  0  0  0  0  0  0  0
  -19.9993  -28.2081   24.2622 C   0  0  2  0  0  0  0  0  0  0  0  0
  -23.8787  -30.3502   26.0444 C   0  0  0  0  0  0  0  0  0  0  0  0
  -25.7634  -11.8523   20.2044 N   0  0  0  0  0  0  0  0  0  0  0  0
  -29.8980  -22.0126   21.0464 N   0  0  0  0  0  0  0  0  0  0  0  0
  -27.9492  -21.2218   19.8700 N   0  0  0  0  0  0  0  0  0  0  0  0
  -26.4500  -12.8637   20.7627 N   0  0  0  0  0  0  0  0  0  0  0  0
  -24.5296  -30.3364   22.5172 N   0  0  0  0  0  0  0  0  0  0  0  0
  -29.5725  -14.1032   18.9449 N   0  0  0  0  0  0  0  0  0  0  0  0
  -29.5222  -16.4920   18.9130 N   0  0  0  0  0  0  0  0  0  0  0  0
  -26.2338  -14.7095   22.2313 N   0  0  0  0  0  0  0  0  0  0  0  0
  -22.0779  -12.9434   22.1588 N   0  0  0  0  0  0  0  0  0  0  0  0
  -26.0549  -22.6238   19.6157 N   0  0  0  0  0  0  0  0  0  0  0  0
  -29.8248  -19.8723   20.1382 N   0  0  0  0  0  0  0  0  0  0  0  0
  -26.4048  -33.1254   22.2444 N   0  0  0  0  0  0  0  0  0  0  0  0
  -21.9814  -29.5195   24.5903 N   0  0  0  0  0  0  0  0  0  0  0  0
  -19.5164  -27.2577   23.2208 N   0  3  0  0  0  0  0  0  0  0  0  0
  -23.3697  -14.6294   23.0233 O   0  0  0  0  0  0  0  0  0  0  0  0
  -27.2770  -30.9738   22.0642 O   0  0  0  0  0  0  0  0  0  0  0  0
  -23.1806  -31.9159   23.5762 O   0  0  0  0  0  0  0  0  0  0  0  0
  -22.2186  -27.2885   24.0041 O   0  0  0  0  0  0  0  0  0  0  0  0
  -31.2906  -15.3304   18.0309 O   0  0  0  0  0  0  0  0  0  0  0  0
  -20.4500   -8.4715   19.2626 O   0  0  0  0  0  0  0  0  0  0  0  0
  -27.3080  -25.5149   19.8361 O   0  0  0  0  0  0  0  0  0  1  0  0
  -17.1865   -6.5669   23.2783 F   0  0  0  0  0  0  0  0  0  0  0  0
  -20.2747   -5.7620   19.7825 F   0  0  0  0  0  0  0  0  0  0  0  0
  1  2  1  0  0  0  0
  1  5  2  0  0  0  0
  2  6  2  0  0  0  0
  3  8  2  0  0  0  0
  3 15  1  0  0  0  0
  4  9  1  0  0  0  0
  4 15  2  0  0  0  0
  5 17  1  0  0  0  0
  6 19  1  0  0  0  0
  7 10  2  0  0  0  0
  7 18  1  0  0  0  0
  8 22  1  0  0  0  0
  9 22  2  0  0  0  0
 10 23  1  0  0  0  0
 11 12  2  0  0  0  0
 11 24  1  0  0  0  0
 12 25  1  0  0  0  0
 13 20  1  0  0  0  0
 13 23  2  0  0  0  0
 14 25  2  0  0  0  0
 14 26  1  0  0  0  0
 15 27  1  0  0  0  0
 16 27  1  0  0  0  0
 16 30  2  0  0  0  0
 16 32  1  0  0  0  0
 17 19  2  0  0  0  0
 17 37  1  0  0  0  0
 18 20  2  0  0  0  0
 18 38  1  0  0  0  0
 19 49  1  0  0  0  0
 20 39  1  0  0  0  0
 21 28  1  0  0  0  0
 21 29  2  0  0  0  0
 21 60  1  0  0  0  0
 22 83  1  0  0  0  0
 23 84  1  0  0  0  0
 24 26  2  0  0  0  0
 24 83  1  0  0  0  0
 25 85  1  0  0  0  0
 26 86  1  0  0  0  0
 27 64  2  0  0  0  0
 28 53  1  0  0  0  0
 28 65  2  0  0  0  0
 29 66  1  0  0  0  0
 29 73  1  0  0  0  0
 30 67  1  0  0  0  0
 30 71  1  0  0  0  0
 31 65  1  0  0  0  0
 31 66  2  0  0  0  0
 31 74  1  0  0  0  0
 32 72  1  0  0  0  0
 32 78  2  0  0  0  0
 33 50  1  0  0  0  0
 33 75  1  0  0  0  0
 33 79  2  0  0  0  0
 34 61  1  0  0  0  0
 34 68  1  0  0  0  0
 34 80  2  0  0  0  0
 35 62  1  0  0  0  0
 35 76  1  0  0  0  0
 35 81  2  0  0  0  0
 36 69  1  0  0  0  0
 36 70  1  0  0  0  0
 36 82  2  0  0  0  0
 37 40  1  0  0  0  0
 38 50  1  0  0  0  0
 39 68  1  0  0  0  0
 40 42  1  0  0  0  0
 41 43  1  0  0  0  0
 41 45  1  0  0  0  0
 42 49  1  0  0  0  0
 43 51  1  0  0  0  0
 44 46  1  0  0  0  0
 44 52  1  0  0  0  0
 45 69  1  0  0  0  0
 46 70  1  0  0  0  0
 47 51  1  0  0  0  0
 47 69  1  0  0  0  0
 48 52  1  0  0  0  0
 48 70  1  0  0  0  0
 49 75  1  0  0  0  0
 50 68  1  0  0  0  0
 51 67  1  0  0  0  0
 52 74  1  0  0  0  0
 54 62  1  0  0  0  0
 55 63  1  0  0  0  0
 56 63  1  0  0  0  0
 57 63  1  0  0  0  0
 58 73  1  0  0  0  0
 59 77  1  0  0  0  0
 60 84  1  0  0  0  0
 61 63  1  0  0  0  0
 61 76  1  0  0  0  0
 62 77  1  0  0  0  0
 64 67  1  0  0  0  0
M  CHG  1  77   1
M  ISO  4  36 100  60 101  70 100  84 101
M  END
> <Batch ID>
0194

> <Smiles>
CNc1nc(NC2CC[100N:0]([100C:0](=O)N3CCCC(n4nc(-c5ccc(Oc6ccc(F)cc6F)cc5)c(C(N)=O)c4N)C3)C2)nc(C)c1[101CH2:1][101O:1]c1ccc2c(c1)CN(C(=O)C(NC(=O)C(C)NC)C(C)(C)C)C(C(=O)NC1CCCc3ccccc31)C2

> <Shape>
0.304

> <Color>
0.123

> <Negative vol penalty>
0.000

$$$$

  -OEChem-04052323343D

 86 96  0     1  0  0  0  0  0999 V2000
  -23.0136   -7.4956   21.6638 C   0  0  0  0  0  0  0  0  0  0  0  0
  -23.6559   -8.3722   20.7951 C   0  0  0  0  0  0  0  0  0  0  0  0
  -22.2383  -28.5218   21.0041 C   0  0  0  0  0  0  0  0  0  0  0  0
  -23.0890  -27.1999   22.8388 C   0  0  0  0  0  0  0  0  0  0  0  0
  -21.9145   -7.9296   22.4037 C   0  0  0  0  0  0  0  0  0  0  0  0
  -23.1986   -9.6831   20.6651 C   0  0  0  0  0  0  0  0  0  0  0  0
  -26.9658  -13.0672   20.7001 C   0  0  0  0  0  0  0  0  0  0  0  0
  -20.9490  -28.4156   21.5254 C   0  0  0  0  0  0  0  0  0  0  0  0
  -21.7996  -27.0939   23.3602 C   0  0  0  0  0  0  0  0  0  0  0  0
  -27.7003  -13.2145   19.5243 C   0  0  0  0  0  0  0  0  0  0  0  0
  -19.1331  -29.8501   23.9907 C   0  0  0  0  0  0  0  0  0  0  0  0
  -18.3553  -31.0070   24.0368 C   0  0  0  0  0  0  0  0  0  0  0  0
  -26.4261  -15.1899   18.9828 C   0  0  0  0  0  0  0  0  0  0  0  0
  -16.7084  -29.9564   22.6151 C   0  0  0  0  0  0  0  0  0  0  0  0
  -31.8436  -19.6194   19.4046 C   0  0  0  0  0  0  0  0  0  0  0  0
  -23.3084  -27.9139   21.6608 C   0  0  0  0  0  0  0  0  0  0  0  0
  -25.5914  -29.0223   21.4020 C   0  0  0  0  0  0  0  0  0  0  0  0
  -21.4495   -9.2492   22.2899 C   0  0  0  0  0  0  0  0  0  0  0  0
  -25.9468  -13.9755   21.0213 C   0  0  0  0  0  0  0  0  0  0  0  0
  -22.0914  -10.1348   21.4032 C   0  0  0  0  0  0  0  0  0  0  0  0
  -25.6818  -15.0534   20.1645 C   0  0  0  0  0  0  0  0  0  0  0  0
  -31.3749  -20.0243   18.1380 C   0  0  0  0  0  0  0  0  0  0  0  0
  -20.7296  -27.7017   22.7035 C   0  0  0  0  0  0  0  0  0  0  0  0
  -27.4286  -14.2743   18.6640 C   0  0  0  0  0  0  0  0  0  0  0  0
  -18.6986  -28.7463   23.2568 C   0  0  0  0  0  0  0  0  0  0  0  0
  -17.1429  -31.0602   23.3491 C   0  0  0  0  0  0  0  0  0  0  0  0
  -17.4862  -28.7995   22.5690 C   0  0  0  0  0  0  0  0  0  0  0  0
  -24.6405  -28.0226   21.1224 C   0  0  0  0  0  0  0  0  0  0  0  0
  -31.0317  -18.8517   17.5058 C   0  0  0  0  0  0  0  0  0  0  0  0
  -26.6853  -28.6766   20.6468 C   0  0  0  0  0  0  0  0  0  0  0  0
  -25.4945  -30.1616   22.2671 C   0  0  0  0  0  0  0  0  0  0  0  0
  -22.8065  -13.7594   21.4631 C   0  0  0  0  0  0  0  0  0  0  0  0
  -23.1079  -16.8697   22.3335 C   0  0  0  0  0  0  0  0  0  0  0  0
  -24.8897  -19.7737   22.1368 C   0  0  0  0  0  0  0  0  0  0  0  0
  -30.2353  -24.8131   18.7576 C   0  0  0  0  0  0  0  0  0  0  0  0
  -20.2285   -9.6589   23.0748 C   0  0  0  0  0  0  0  0  0  0  0  0
  -25.1816  -13.8180   22.3066 C   0  0  0  0  0  0  0  0  0  0  0  0
  -24.6120  -16.0675   20.4735 C   0  0  0  0  0  0  0  0  0  0  0  0
  -30.4623  -18.5479   16.1668 C   0  0  0  0  0  0  0  0  0  0  0  0
  -20.0378  -11.1711   23.1592 C   0  0  0  0  0  0  0  0  0  0  0  0
  -27.2240  -25.2738   16.9680 C   0  0  0  0  0  0  0  0  0  0  0  0
  -20.2225  -11.8099   21.7864 C   0  0  0  0  0  0  0  0  0  0  0  0
  -26.3424  -26.0816   17.9164 C   0  0  0  0  0  0  0  0  0  0  0  0
  -32.5720  -22.2548   17.5537 C   0  0  0  0  0  0  0  0  0  0  0  0
  -28.0560  -24.2565   17.7374 C   0  0  0  0  0  0  0  0  0  0  0  0
  -32.0707  -23.6814   17.3737 C   0  0  0  0  0  0  0  0  0  0  0  0
  -30.3627  -22.3637   18.4171 C   0  0  0  0  0  0  0  0  0  0  0  0
  -28.0715  -25.7055   19.7499 C   0  0  0  0  0  0  0  0  0  0  0  0
  -30.7071  -17.0938   15.7650 C   0  0  0  0  0  0  0  0  0  0  0  0
  -31.1464  -16.4448   18.1496 C   0  0  0  0  0  0  0  0  0  0  0  0
  -31.2725  -21.4348   17.6009 C   0  0  2  0  0  0  0  0  0  0  0  0
  -21.6403  -11.5715   21.2532 C   0  0  1  0  0  0  0  0  0  0  0  0
  -23.8211  -14.5079   22.2803 C   0  0  1  0  0  0  0  0  0  0  0  0
  -27.1903  -26.7381   19.0170 C   0  0  2  0  0  0  0  0  0  0  0  0
  -24.8670  -22.1560   22.9249 C   0  0  0  0  0  0  0  0  0  0  0  0
  -20.9343  -17.5212   20.2937 C   0  0  0  0  0  0  0  0  0  0  0  0
  -21.6191  -19.9252   20.4356 C   0  0  0  0  0  0  0  0  0  0  0  0
  -20.7390  -18.7594   22.4577 C   0  0  0  0  0  0  0  0  0  0  0  0
  -27.4596  -19.4466   23.5677 C   0  0  0  0  0  0  0  0  0  0  0  0
  -30.3166  -14.7392   16.5271 C   0  0  0  0  0  0  0  0  0  0  0  0
  -29.4898  -13.9499   17.5229 C   0  0  0  0  0  0  0  0  0  1  0  0
  -23.0521  -18.1929   21.6089 C   0  0  1  0  0  0  0  0  0  0  0  0
  -25.3559  -20.7439   23.2072 C   0  0  2  0  0  0  0  0  0  0  0  0
  -21.6050  -18.5796   21.1919 C   0  0  0  0  0  0  0  0  0  0  0  0
  -31.8046  -18.2940   19.5727 N   0  0  0  0  0  0  0  0  0  0  0  0
  -25.0907  -27.1103   20.2570 N   0  0  0  0  0  0  0  0  0  0  0  0
  -31.3001  -17.8586   18.4064 N   0  0  0  0  0  0  0  0  0  0  0  0
  -26.3366  -27.5354   19.9863 N   0  0  0  0  0  0  0  0  0  0  0  0
  -23.8869  -15.8669   21.7390 N   0  0  0  0  0  0  0  0  0  0  0  0
  -28.8387  -24.8874   18.8017 N   0  0  0  0  0  0  0  0  0  0  0  0
  -30.8101  -23.7189   18.1122 N   0  0  0  0  0  0  0  0  0  0  0  0
  -27.9018  -29.2404   20.4900 N   0  0  0  0  0  0  0  0  0  0  0  0
  -24.2991  -30.3679   22.9690 N   0  0  0  0  0  0  0  0  0  0  0  0
  -22.5789  -12.4668   21.8951 N   0  0  0  0  0  0  0  0  0  0  0  0
  -23.7021  -19.1642   22.4821 N   0  0  0  0  0  0  0  0  0  0  0  0
  -30.3076  -16.1897   16.9148 N   0  3  2  0  0  0  0  0  0  0  0  0
  -26.8445  -20.7664   23.2731 N   0  3  0  0  0  0  0  0  0  0  0  0
  -26.4342  -30.9817   22.4007 O   0  0  0  0  0  0  0  0  0  0  0  0
  -22.2687  -14.3141   20.5118 O   0  0  0  0  0  0  0  0  0  0  0  0
  -22.4891  -16.7332   23.3919 O   0  0  0  0  0  0  0  0  0  0  0  0
  -25.5146  -19.5789   21.0965 O   0  0  0  0  0  0  0  0  0  0  0  0
  -30.9422  -25.7089   19.2390 O   0  0  0  0  0  0  0  0  0  0  0  0
  -19.4716  -27.5982   23.2126 O   0  0  0  0  0  0  0  0  0  0  0  0
  -28.1488  -14.4210   17.5071 O   0  0  0  0  0  0  0  0  0  1  0  0
  -16.3953  -32.1707   23.3947 F   0  0  0  0  0  0  0  0  0  0  0  0
  -17.0630  -27.7419   21.8632 F   0  0  0  0  0  0  0  0  0  0  0  0
  1  2  1  0  0  0  0
  1  5  2  0  0  0  0
  2  6  2  0  0  0  0
  3  8  2  0  0  0  0
  3 16  1  0  0  0  0
  4  9  1  0  0  0  0
  4 16  2  0  0  0  0
  5 18  1  0  0  0  0
  6 20  1  0  0  0  0
  7 10  2  0  0  0  0
  7 19  1  0  0  0  0
  8 23  1  0  0  0  0
  9 23  2  0  0  0  0
 10 24  1  0  0  0  0
 11 12  2  0  0  0  0
 11 25  1  0  0  0  0
 12 26  1  0  0  0  0
 13 21  1  0  0  0  0
 13 24  2  0  0  0  0
 14 26  2  0  0  0  0
 14 27  1  0  0  0  0
 15 22  1  0  0  0  0
 15 65  2  0  0  0  0
 16 28  1  0  0  0  0
 17 28  1  0  0  0  0
 17 30  2  0  0  0  0
 17 31  1  0  0  0  0
 18 20  2  0  0  0  0
 18 36  1  0  0  0  0
 19 21  2  0  0  0  0
 19 37  1  0  0  0  0
 20 52  1  0  0  0  0
 21 38  1  0  0  0  0
 22 29  2  0  0  0  0
 22 51  1  0  0  0  0
 23 83  1  0  0  0  0
 24 84  1  0  0  0  0
 25 27  2  0  0  0  0
 25 83  1  0  0  0  0
 26 85  1  0  0  0  0
 27 86  1  0  0  0  0
 28 66  2  0  0  0  0
 29 39  1  0  0  0  0
 29 67  1  0  0  0  0
 30 68  1  0  0  0  0
 30 72  1  0  0  0  0
 31 73  1  0  0  0  0
 31 78  2  0  0  0  0
 32 53  1  0  0  0  0
 32 74  1  0  0  0  0
 32 79  2  0  0  0  0
 33 62  1  0  0  0  0
 33 69  1  0  0  0  0
 33 80  2  0  0  0  0
 34 63  1  0  0  0  0
 34 75  1  0  0  0  0
 34 81  2  0  0  0  0
 35 70  1  0  0  0  0
 35 71  1  0  0  0  0
 35 82  2  0  0  0  0
 36 40  1  0  0  0  0
 37 53  1  0  0  0  0
 38 69  1  0  0  0  0
 39 49  1  0  0  0  0
 40 42  1  0  0  0  0
 41 43  1  0  0  0  0
 41 45  1  0  0  0  0
 42 52  1  0  0  0  0
 43 54  1  0  0  0  0
 44 46  1  0  0  0  0
 44 51  1  0  0  0  0
 45 70  1  0  0  0  0
 46 71  1  0  0  0  0
 47 51  1  0  0  0  0
 47 71  1  0  0  0  0
 48 54  1  0  0  0  0
 48 70  1  0  0  0  0
 49 76  1  0  0  0  0
 50 67  1  0  0  0  0
 50 76  1  0  0  0  0
 52 74  1  0  0  0  0
 53 69  1  0  0  0  0
 54 68  1  0  0  0  0
 55 63  1  0  0  0  0
 56 64  1  0  0  0  0
 57 64  1  0  0  0  0
 58 64  1  0  0  0  0
 59 77  1  0  0  0  0
 60 61  1  0  0  0  0
 60 76  1  0  0  0  0
 61 84  1  0  0  0  0
 62 64  1  0  0  0  0
 62 75  1  0  0  0  0
 63 77  1  0  0  0  0
 65 67  1  0  0  0  0
 66 68  1  0  0  0  0
M  CHG  2  76   1  77   1
M  ISO  4  35 100  61 101  71 100  84 101
M  END
> <Batch ID>
0194

> <Smiles>
CNC(C)C(=O)NC(C(=O)N1Cc2cc([101O:1][101CH2:1]CN3CCc4c(C5CC[100N:0]([100C:0](=O)N6CCCC(n7nc(-c8ccc(Oc9ccc(F)cc9F)cc8)c(C(N)=O)c7N)C6)C5)cnn4C3)ccc2CC1C(=O)NC1CCCc2ccccc21)C(C)(C)C

> <Shape>
0.252

> <Color>
0.079

> <Negative vol penalty>
0.000

$$$$

  -OEChem-04052323343D

 86 95  0     1  0  0  0  0  0999 V2000
  -27.4758  -37.8438   22.9517 C   0  0  0  0  0  0  0  0  0  0  0  0
  -27.8927  -36.9077   22.0107 C   0  0  0  0  0  0  0  0  0  0  0  0
  -23.2846  -10.4467   21.9680 C   0  0  0  0  0  0  0  0  0  0  0  0
  -24.1247   -8.8342   20.3771 C   0  0  0  0  0  0  0  0  0  0  0  0
  -26.9124  -37.4185   24.1541 C   0  0  0  0  0  0  0  0  0  0  0  0
  -27.7475  -35.5457   22.2721 C   0  0  0  0  0  0  0  0  0  0  0  0
  -26.4762  -29.3279   18.9496 C   0  0  0  0  0  0  0  0  0  0  0  0
  -21.9844   -9.9978   21.7365 C   0  0  0  0  0  0  0  0  0  0  0  0
  -22.8245   -8.3852   20.1456 C   0  0  0  0  0  0  0  0  0  0  0  0
  -27.0023  -28.0422   18.8323 C   0  0  0  0  0  0  0  0  0  0  0  0
  -20.5762   -6.3760   21.6716 C   0  0  0  0  0  0  0  0  0  0  0  0
  -20.3657   -4.9978   21.6312 C   0  0  0  0  0  0  0  0  0  0  0  0
  -25.9428  -27.4254   20.9098 C   0  0  0  0  0  0  0  0  0  0  0  0
  -19.5541   -5.1881   19.3636 C   0  0  0  0  0  0  0  0  0  0  0  0
  -24.3547   -9.8650   21.2883 C   0  0  0  0  0  0  0  0  0  0  0  0
  -26.6043   -9.8490   22.4911 C   0  0  0  0  0  0  0  0  0  0  0  0
  -26.7514  -36.0508   24.4262 C   0  0  0  0  0  0  0  0  0  0  0  0
  -25.6870  -29.6758   20.0554 C   0  0  0  0  0  0  0  0  0  0  0  0
  -27.1827  -35.1018   23.4798 C   0  0  0  0  0  0  0  0  0  0  0  0
  -25.4057  -28.7155   21.0376 C   0  0  0  0  0  0  0  0  0  0  0  0
  -21.7544   -8.9670   20.8253 C   0  0  0  0  0  0  0  0  0  0  0  0
  -26.7381  -27.0915   19.8139 C   0  0  0  0  0  0  0  0  0  0  0  0
  -20.2756   -7.1604   20.5580 C   0  0  0  0  0  0  0  0  0  0  0  0
  -19.8547   -4.4038   20.4772 C   0  0  0  0  0  0  0  0  0  0  0  0
  -19.7645   -6.5664   19.4040 C   0  0  0  0  0  0  0  0  0  0  0  0
  -25.6980  -10.3287   21.5266 C   0  0  0  0  0  0  0  0  0  0  0  0
  -27.7321  -10.6122   22.3120 C   0  0  0  0  0  0  0  0  0  0  0  0
  -28.3883  -22.1176   18.5422 C   0  0  0  0  0  0  0  0  0  0  0  0
  -29.7040  -23.6828   18.9617 C   0  0  0  0  0  0  0  0  0  0  0  0
  -26.4413   -8.8068   23.4621 C   0  0  0  0  0  0  0  0  0  0  0  0
  -25.9419  -31.7874   22.4176 C   0  0  0  0  0  0  0  0  0  0  0  0
  -22.9478  -30.7644   23.1326 C   0  0  0  0  0  0  0  0  0  0  0  0
  -20.6031  -28.2935   22.9231 C   0  0  0  0  0  0  0  0  0  0  0  0
  -28.6861  -15.9528   20.3225 C   0  0  0  0  0  0  0  0  0  0  0  0
  -26.1805  -35.6384   25.7599 C   0  0  0  0  0  0  0  0  0  0  0  0
  -25.1048  -31.0592   20.1538 C   0  0  0  0  0  0  0  0  0  0  0  0
  -24.5475  -29.0327   22.2340 C   0  0  0  0  0  0  0  0  0  0  0  0
  -25.7182  -34.1841   25.8010 C   0  0  0  0  0  0  0  0  0  0  0  0
  -30.1214  -13.0496   18.9659 C   0  0  0  0  0  0  0  0  0  0  0  0
  -26.7758  -33.2702   25.1903 C   0  0  0  0  0  0  0  0  0  0  0  0
  -29.2315  -11.9619   19.5668 C   0  0  0  0  0  0  0  0  0  0  0  0
  -28.3239  -18.4476   17.8663 C   0  0  0  0  0  0  0  0  0  0  0  0
  -29.0110  -19.3953   20.1018 C   0  0  0  0  0  0  0  0  0  0  0  0
  -29.3149  -14.2744   18.5306 C   0  0  0  0  0  0  0  0  0  0  0  0
  -29.1530  -17.1943   18.1622 C   0  0  0  0  0  0  0  0  0  0  0  0
  -29.8461  -18.1403   20.3402 C   0  0  0  0  0  0  0  0  0  0  0  0
  -27.5643  -13.7480   20.1970 C   0  0  0  0  0  0  0  0  0  0  0  0
  -27.0191  -33.6160   23.7163 C   0  0  1  0  0  0  0  0  0  0  0  0
  -24.7391  -31.4534   21.5814 C   0  0  1  0  0  0  0  0  0  0  0  0
  -28.3537  -12.5283   20.6971 C   0  0  1  0  0  0  0  0  0  0  0  0
  -28.8731  -19.6719   18.6024 C   0  0  0  0  0  0  0  0  0  0  0  0
  -18.2639  -27.7320   23.6372 C   0  0  0  0  0  0  0  0  0  0  0  0
  -23.9462  -30.2163   25.9633 C   0  0  0  0  0  0  0  0  0  0  0  0
  -21.9076  -28.8113   26.3354 C   0  0  0  0  0  0  0  0  0  0  0  0
  -21.6699  -31.2447   25.8408 C   0  0  0  0  0  0  0  0  0  0  0  0
  -31.9851  -24.5499   18.5088 C   0  0  0  0  0  0  0  0  0  0  0  0
  -30.6380  -25.4780   20.3989 C   0  0  0  0  0  0  0  0  0  0  0  0
  -19.6821  -28.0503   20.1211 C   0  0  0  0  0  0  0  0  0  0  0  0
  -28.0543  -25.5538   18.5527 C   0  0  0  0  0  0  0  0  0  1  0  0
  -22.3701  -29.6671   23.9935 C   0  0  1  0  0  0  0  0  0  0  0  0
  -19.1341  -28.3286   22.5420 C   0  0  2  0  0  0  0  0  0  0  0  0
  -22.4912  -29.9791   25.5118 C   0  0  0  0  0  0  0  0  0  0  0  0
  -26.2061  -11.3199   20.7895 N   0  0  0  0  0  0  0  0  0  0  0  0
  -29.6774  -22.3712   18.9145 N   0  0  0  0  0  0  0  0  0  0  0  0
  -27.6157  -23.1898   18.3561 N   0  0  0  0  0  0  0  0  0  0  0  0
  -27.4439  -11.4694   21.2910 N   0  0  0  0  0  0  0  0  0  0  0  0
  -28.4811  -24.1776   18.6308 N   0  0  0  0  0  0  0  0  0  0  0  0
  -24.0065  -30.4009   22.2883 N   0  0  0  0  0  0  0  0  0  0  0  0
  -28.4638  -14.7540   19.6284 N   0  0  0  0  0  0  0  0  0  0  0  0
  -29.2977  -16.9960   19.6115 N   0  0  0  0  0  0  0  0  0  0  0  0
  -28.9324  -10.6269   22.9297 N   0  0  0  0  0  0  0  0  0  0  0  0
  -25.2186   -8.1235   23.5101 N   0  0  0  0  0  0  0  0  0  0  0  0
  -27.9935  -20.8002   18.3902 N   0  0  0  0  0  0  0  0  0  0  0  0
  -25.9555  -33.0857   22.8905 N   0  0  0  0  0  0  0  0  0  0  0  0
  -21.0008  -29.4648   23.5324 N   0  0  0  0  0  0  0  0  0  0  0  0
  -30.7190  -24.5188   19.2746 N   0  0  0  0  0  0  0  0  0  0  0  0
  -18.9058  -27.5569   21.2877 N   0  3  0  0  0  0  0  0  0  0  0  0
  -27.3473   -8.5018   24.2744 O   0  0  0  0  0  0  0  0  0  0  0  0
  -26.7939  -30.9301   22.6201 O   0  0  0  0  0  0  0  0  0  0  0  0
  -22.4725  -31.9006   23.2014 O   0  0  0  0  0  0  0  0  0  0  0  0
  -21.3247  -27.3227   22.7056 O   0  0  0  0  0  0  0  0  0  0  0  0
  -28.3572  -16.0836   21.5082 O   0  0  0  0  0  0  0  0  0  0  0  0
  -20.4858   -8.5285   20.5993 O   0  0  0  0  0  0  0  0  0  0  0  0
  -27.2543  -25.8279   19.7014 O   0  0  0  0  0  0  0  0  0  1  0  0
  -19.6540   -3.0800   20.4381 F   0  0  0  0  0  0  0  0  0  0  0  0
  -19.4750   -7.3146   18.3306 F   0  0  0  0  0  0  0  0  0  0  0  0
  1  2  1  0  0  0  0
  1  5  2  0  0  0  0
  2  6  2  0  0  0  0
  3  8  2  0  0  0  0
  3 15  1  0  0  0  0
  4  9  1  0  0  0  0
  4 15  2  0  0  0  0
  5 17  1  0  0  0  0
  6 19  1  0  0  0  0
  7 10  2  0  0  0  0
  7 18  1  0  0  0  0
  8 21  1  0  0  0  0
  9 21  2  0  0  0  0
 10 22  1  0  0  0  0
 11 12  2  0  0  0  0
 11 23  1  0  0  0  0
 12 24  1  0  0  0  0
 13 20  1  0  0  0  0
 13 22  2  0  0  0  0
 14 24  2  0  0  0  0
 14 25  1  0  0  0  0
 15 26  1  0  0  0  0
 16 26  1  0  0  0  0
 16 27  2  0  0  0  0
 16 30  1  0  0  0  0
 17 19  2  0  0  0  0
 17 35  1  0  0  0  0
 18 20  2  0  0  0  0
 18 36  1  0  0  0  0
 19 48  1  0  0  0  0
 20 37  1  0  0  0  0
 21 83  1  0  0  0  0
 22 84  1  0  0  0  0
 23 25  2  0  0  0  0
 23 83  1  0  0  0  0
 24 85  1  0  0  0  0
 25 86  1  0  0  0  0
 26 63  2  0  0  0  0
 27 66  1  0  0  0  0
 27 71  1  0  0  0  0
 28 64  1  0  0  0  0
 28 65  2  0  0  0  0
 28 73  1  0  0  0  0
 29 64  2  0  0  0  0
 29 67  1  0  0  0  0
 29 76  1  0  0  0  0
 30 72  1  0  0  0  0
 30 78  2  0  0  0  0
 31 49  1  0  0  0  0
 31 74  1  0  0  0  0
 31 79  2  0  0  0  0
 32 60  1  0  0  0  0
 32 68  1  0  0  0  0
 32 80  2  0  0  0  0
 33 61  1  0  0  0  0
 33 75  1  0  0  0  0
 33 81  2  0  0  0  0
 34 69  1  0  0  0  0
 34 70  1  0  0  0  0
 34 82  2  0  0  0  0
 35 38  1  0  0  0  0
 36 49  1  0  0  0  0
 37 68  1  0  0  0  0
 38 40  1  0  0  0  0
 39 41  1  0  0  0  0
 39 44  1  0  0  0  0
 40 48  1  0  0  0  0
 41 50  1  0  0  0  0
 42 45  1  0  0  0  0
 42 51  1  0  0  0  0
 43 46  1  0  0  0  0
 43 51  1  0  0  0  0
 44 69  1  0  0  0  0
 45 70  1  0  0  0  0
 46 70  1  0  0  0  0
 47 50  1  0  0  0  0
 47 69  1  0  0  0  0
 48 74  1  0  0  0  0
 49 68  1  0  0  0  0
 50 66  1  0  0  0  0
 51 73  1  0  0  0  0
 52 61  1  0  0  0  0
 53 62  1  0  0  0  0
 54 62  1  0  0  0  0
 55 62  1  0  0  0  0
 56 76  1  0  0  0  0
 57 76  1  0  0  0  0
 58 77  1  0  0  0  0
 59 67  1  0  0  0  0
 59 84  1  0  0  0  0
 60 62  1  0  0  0  0
 60 75  1  0  0  0  0
 61 77  1  0  0  0  0
 63 66  1  0  0  0  0
 65 67  1  0  0  0  0
M  CHG  1  77   1
M  ISO  4  34 100  59 101  70 100  84 101
M  END
> <Batch ID>
0194

> <Smiles>
CNC(C)C(=O)NC(C(=O)N1Cc2cc([101O:1][101CH2:1]n3nc(NC4CC[100N:0]([100C:0](=O)N5CCCC(n6nc(-c7ccc(Oc8ccc(F)cc8F)cc7)c(C(N)=O)c6N)C5)CC4)nc3N(C)C)ccc2CC1C(=O)NC1CCCc2ccccc21)C(C)(C)C

> <Shape>
0.330

> <Color>
0.104

> <Negative vol penalty>
0.000

$$$$
