
  -OEChem-04052323373D

 83 92  0     1  0  0  0  0  0999 V2000
  -32.2291  -13.2400   21.7106 C   0  0  0  0  0  0  0  0  0  0  0  0
  -31.5333  -14.3709   22.1259 C   0  0  0  0  0  0  0  0  0  0  0  0
  -27.3661  -23.9138   19.2861 C   0  0  0  0  0  0  0  0  0  0  0  0
  -26.8528  -23.9565   21.6466 C   0  0  0  0  0  0  0  0  0  0  0  0
  -31.6597  -12.3771   20.7751 C   0  0  0  0  0  0  0  0  0  0  0  0
  -30.2681  -14.6401   21.6051 C   0  0  0  0  0  0  0  0  0  0  0  0
  -25.5525  -17.2216   24.5385 C   0  0  0  0  0  0  0  0  0  0  0  0
  -27.2385  -22.5249   19.2835 C   0  0  0  0  0  0  0  0  0  0  0  0
  -26.7251  -22.5675   21.6439 C   0  0  0  0  0  0  0  0  0  0  0  0
  -25.0635  -18.5270   24.5618 C   0  0  0  0  0  0  0  0  0  0  0  0
  -27.4007  -18.9339   18.7336 C   0  0  0  0  0  0  0  0  0  0  0  0
  -28.3750  -18.1928   18.0650 C   0  0  0  0  0  0  0  0  0  0  0  0
  -23.4534  -17.9478   22.8615 C   0  0  0  0  0  0  0  0  0  0  0  0
  -30.0710  -19.1075   19.5224 C   0  0  0  0  0  0  0  0  0  0  0  0
  -27.1733  -24.6297   20.4677 C   0  0  0  0  0  0  0  0  0  0  0  0
  -28.4484  -26.8136   20.1326 C   0  0  0  0  0  0  0  0  0  0  0  0
  -30.3828  -12.6307   20.2499 C   0  0  0  0  0  0  0  0  0  0  0  0
  -25.0020  -16.2708   23.6672 C   0  0  0  0  0  0  0  0  0  0  0  0
  -29.6816  -13.7804   20.6608 C   0  0  0  0  0  0  0  0  0  0  0  0
  -23.9355  -16.6304   22.8308 C   0  0  0  0  0  0  0  0  0  0  0  0
  -26.9179  -21.8517   20.4623 C   0  0  0  0  0  0  0  0  0  0  0  0
  -24.0157  -18.8911   23.7212 C   0  0  0  0  0  0  0  0  0  0  0  0
  -27.7616  -19.7619   19.7967 C   0  0  0  0  0  0  0  0  0  0  0  0
  -29.7102  -18.2796   18.4593 C   0  0  0  0  0  0  0  0  0  0  0  0
  -29.0967  -19.8486   20.1911 C   0  0  0  0  0  0  0  0  0  0  0  0
  -27.3057  -26.0645   20.4712 C   0  0  0  0  0  0  0  0  0  0  0  0
  -28.0625  -28.1216   20.2963 C   0  0  0  0  0  0  0  0  0  0  0  0
  -29.7430  -26.3671   19.7078 C   0  0  0  0  0  0  0  0  0  0  0  0
  -26.1129  -14.5409   21.2430 C   0  0  0  0  0  0  0  0  0  0  0  0
  -23.1744  -13.1740   21.3808 C   0  0  0  0  0  0  0  0  0  0  0  0
  -19.8966  -13.4372   22.2938 C   0  0  0  0  0  0  0  0  0  0  0  0
  -23.8254  -30.7066   23.6366 C   0  0  0  0  0  0  0  0  0  0  0  0
  -29.8283  -11.6943   19.2057 C   0  0  0  0  0  0  0  0  0  0  0  0
  -25.5230  -14.8598   23.6733 C   0  0  0  0  0  0  0  0  0  0  0  0
  -23.2962  -15.6417   21.8915 C   0  0  0  0  0  0  0  0  0  0  0  0
  -28.3263  -11.8510   18.9829 C   0  0  0  0  0  0  0  0  0  0  0  0
  -24.2352  -30.9589   20.1372 C   0  0  0  0  0  0  0  0  0  0  0  0
  -27.9566  -13.3254   18.8544 C   0  0  0  0  0  0  0  0  0  0  0  0
  -25.1456  -29.7874   19.7791 C   0  0  0  0  0  0  0  0  0  0  0  0
  -23.6435  -29.4431   27.1106 C   0  0  0  0  0  0  0  0  0  0  0  0
  -23.2576  -30.5673   21.2371 C   0  0  0  0  0  0  0  0  0  0  0  0
  -23.6819  -30.5835   26.1053 C   0  0  0  0  0  0  0  0  0  0  0  0
  -23.7109  -28.4920   24.9286 C   0  0  0  0  0  0  0  0  0  0  0  0
  -24.8646  -28.9183   22.1580 C   0  0  0  0  0  0  0  0  0  0  0  0
  -23.4858  -23.7408   26.2349 C   0  0  0  0  0  0  0  0  0  0  0  0
  -21.4105  -23.6161   26.3525 C   0  0  0  0  0  0  0  0  0  0  0  0
  -28.2966  -14.0933   20.1375 C   0  0  1  0  0  0  0  0  0  0  0  0
  -25.2288  -14.1086   22.3784 C   0  0  1  0  0  0  0  0  0  0  0  0
  -23.0511  -28.2945   26.2932 C   0  0  1  0  0  0  0  0  0  0  0  0
  -25.8618  -29.2562   21.0305 C   0  0  1  0  0  0  0  0  0  0  0  0
  -22.4283  -24.6160   26.9384 C   0  0  0  0  0  0  0  0  0  0  0  0
  -17.7298  -12.1724   22.2426 C   0  0  0  0  0  0  0  0  0  0  0  0
  -22.8794  -13.8043   18.4100 C   0  0  0  0  0  0  0  0  0  0  0  0
  -20.4184  -13.4069   18.6413 C   0  0  0  0  0  0  0  0  0  0  0  0
  -22.0268  -11.5533   19.0885 C   0  0  0  0  0  0  0  0  0  0  0  0
  -19.6971  -13.4300   25.2466 C   0  0  0  0  0  0  0  0  0  0  0  0
  -23.3170  -26.9282   26.8994 C   0  0  0  0  0  0  0  0  0  0  0  0
  -22.4860  -21.8801   25.0513 C   0  0  0  0  0  0  0  0  0  0  0  0
  -23.6229  -20.8726   24.9763 C   0  0  0  0  0  0  0  0  0  1  0  0
  -21.8342  -13.4538   20.7447 C   0  0  1  0  0  0  0  0  0  0  0  0
  -18.9813  -12.4885   23.0466 C   0  0  2  0  0  0  0  0  0  0  0  0
  -21.8028  -13.0740   19.2373 C   0  0  0  0  0  0  0  0  0  0  0  0
  -26.2713  -26.8326   20.8237 N   0  0  0  0  0  0  0  0  0  0  0  0
  -26.7627  -28.0780   20.7074 N   0  0  0  0  0  0  0  0  0  0  0  0
  -23.8450  -14.2761   21.9298 N   0  0  0  0  0  0  0  0  0  0  0  0
  -23.9475  -30.0365   22.4143 N   0  0  0  0  0  0  0  0  0  0  0  0
  -23.8535  -29.9448   24.8041 N   0  0  0  0  0  0  0  0  0  0  0  0
  -22.5125  -22.6204   26.3078 N   0  0  0  0  0  0  0  0  0  0  0  0
  -28.7115  -29.2931   20.1273 N   0  0  0  0  0  0  0  0  0  0  0  0
  -30.7186  -26.1219   20.6838 N   0  0  0  0  0  0  0  0  0  0  0  0
  -27.3008  -13.8402   21.1567 N   0  0  0  0  0  0  0  0  0  0  0  0
  -20.8431  -12.7569   21.5573 N   0  0  0  0  0  0  0  0  0  0  0  0
  -22.3158  -25.9680   26.3838 N   0  3  0  0  0  0  0  0  0  0  0  0
  -18.5661  -13.0906   24.3451 N   0  3  0  0  0  0  0  0  0  0  0  0
  -30.0313  -26.2066   18.4976 O   0  0  0  0  0  0  0  0  0  0  0  0
  -25.7440  -15.4422   20.4993 O   0  0  0  0  0  0  0  0  0  0  0  0
  -23.6069  -12.0189   21.3966 O   0  0  0  0  0  0  0  0  0  0  0  0
  -19.7809  -14.6595   22.3502 O   0  0  0  0  0  0  0  0  0  0  0  0
  -23.6553  -31.9324   23.6835 O   0  0  0  0  0  0  0  0  0  0  0  0
  -26.7930  -20.4963   20.4600 O   0  0  0  0  0  0  0  0  0  0  0  0
  -23.5335  -20.1739   23.7416 O   0  0  0  0  0  0  0  0  0  1  0  0
  -30.6455  -17.5667   17.8181 F   0  0  0  0  0  0  0  0  0  0  0  0
  -29.4492  -20.6414   21.2124 F   0  0  0  0  0  0  0  0  0  0  0  0
  1  2  1  0  0  0  0
  1  5  2  0  0  0  0
  2  6  2  0  0  0  0
  3  8  2  0  0  0  0
  3 15  1  0  0  0  0
  4  9  1  0  0  0  0
  4 15  2  0  0  0  0
  5 17  1  0  0  0  0
  6 19  1  0  0  0  0
  7 10  2  0  0  0  0
  7 18  1  0  0  0  0
  8 21  1  0  0  0  0
  9 21  2  0  0  0  0
 10 22  1  0  0  0  0
 11 12  2  0  0  0  0
 11 23  1  0  0  0  0
 12 24  1  0  0  0  0
 13 20  1  0  0  0  0
 13 22  2  0  0  0  0
 14 24  2  0  0  0  0
 14 25  1  0  0  0  0
 15 26  1  0  0  0  0
 16 26  1  0  0  0  0
 16 27  2  0  0  0  0
 16 28  1  0  0  0  0
 17 19  2  0  0  0  0
 17 33  1  0  0  0  0
 18 20  2  0  0  0  0
 18 34  1  0  0  0  0
 19 47  1  0  0  0  0
 20 35  1  0  0  0  0
 21 80  1  0  0  0  0
 22 81  1  0  0  0  0
 23 25  2  0  0  0  0
 23 80  1  0  0  0  0
 24 82  1  0  0  0  0
 25 83  1  0  0  0  0
 26 63  2  0  0  0  0
 27 64  1  0  0  0  0
 27 69  1  0  0  0  0
 28 70  1  0  0  0  0
 28 75  2  0  0  0  0
 29 48  1  0  0  0  0
 29 71  1  0  0  0  0
 29 76  2  0  0  0  0
 30 60  1  0  0  0  0
 30 65  1  0  0  0  0
 30 77  2  0  0  0  0
 31 61  1  0  0  0  0
 31 72  1  0  0  0  0
 31 78  2  0  0  0  0
 32 66  1  0  0  0  0
 32 67  1  0  0  0  0
 32 79  2  0  0  0  0
 33 36  1  0  0  0  0
 34 48  1  0  0  0  0
 35 65  1  0  0  0  0
 36 38  1  0  0  0  0
 37 39  1  0  0  0  0
 37 41  1  0  0  0  0
 38 47  1  0  0  0  0
 39 50  1  0  0  0  0
 40 42  1  0  0  0  0
 40 49  1  0  0  0  0
 41 66  1  0  0  0  0
 42 67  1  0  0  0  0
 43 49  1  0  0  0  0
 43 67  1  0  0  0  0
 44 50  1  0  0  0  0
 44 66  1  0  0  0  0
 45 51  1  0  0  0  0
 45 68  1  0  0  0  0
 46 51  1  0  0  0  0
 46 68  1  0  0  0  0
 47 71  1  0  0  0  0
 48 65  1  0  0  0  0
 49 57  1  0  0  0  0
 50 64  1  0  0  0  0
 51 73  1  0  0  0  0
 52 61  1  0  0  0  0
 53 62  1  0  0  0  0
 54 62  1  0  0  0  0
 55 62  1  0  0  0  0
 56 74  1  0  0  0  0
 57 73  1  0  0  0  0
 58 59  1  0  0  0  0
 58 68  1  0  0  0  0
 59 81  1  0  0  0  0
 60 62  1  0  0  0  0
 60 72  1  0  0  0  0
 61 74  1  0  0  0  0
 63 64  1  0  0  0  0
M  CHG  2  73   1  74   1
M  ISO  4  32 100  59 101  67 100  81 101
M  END
> <Batch ID>
0195

> <Smiles>
CNC(C)C(=O)NC(C(=O)N1Cc2cc([101O:1][101CH2:1]CN3CC(NCC4CC[100N:0]([100C:0](=O)N5CCCC(n6nc(-c7ccc(Oc8ccc(F)cc8F)cc7)c(C(N)=O)c6N)C5)C4)C3)ccc2CC1C(=O)NC1CCCc2ccccc21)C(C)(C)C

> <Shape>
0.228

> <Color>
0.076

> <Negative vol penalty>
0.000

$$$$

  -OEChem-04052323373D

 88 98  0     1  0  0  0  0  0999 V2000
  -27.1217  -37.4408   21.6185 C   0  0  0  0  0  0  0  0  0  0  0  0
  -27.4933  -36.2063   22.1416 C   0  0  0  0  0  0  0  0  0  0  0  0
  -22.6474  -10.6447   21.5152 C   0  0  0  0  0  0  0  0  0  0  0  0
  -24.4379   -9.0759   21.1024 C   0  0  0  0  0  0  0  0  0  0  0  0
  -25.7718  -37.7518   21.4605 C   0  0  0  0  0  0  0  0  0  0  0  0
  -26.5151  -35.2826   22.5079 C   0  0  0  0  0  0  0  0  0  0  0  0
  -27.5806  -30.5928   20.9219 C   0  0  0  0  0  0  0  0  0  0  0  0
  -21.7498   -9.5854   21.6479 C   0  0  0  0  0  0  0  0  0  0  0  0
  -23.5402   -8.0166   21.2352 C   0  0  0  0  0  0  0  0  0  0  0  0
  -28.5243  -29.8724   21.6529 C   0  0  0  0  0  0  0  0  0  0  0  0
  -21.7901   -4.8844   21.8226 C   0  0  0  0  0  0  0  0  0  0  0  0
  -22.1869   -3.7896   22.5904 C   0  0  0  0  0  0  0  0  0  0  0  0
  -26.7450  -28.6911   22.7744 C   0  0  0  0  0  0  0  0  0  0  0  0
  -22.4340   -5.2288   24.5151 C   0  0  0  0  0  0  0  0  0  0  0  0
  -29.4025  -22.8242   21.4804 C   0  0  0  0  0  0  0  0  0  0  0  0
  -23.9915  -10.3900   21.2424 C   0  0  0  0  0  0  0  0  0  0  0  0
  -25.6815  -12.0855   22.1237 C   0  0  0  0  0  0  0  0  0  0  0  0
  -24.7767  -36.8276   21.8160 C   0  0  0  0  0  0  0  0  0  0  0  0
  -26.2095  -30.3750   21.1199 C   0  0  0  0  0  0  0  0  0  0  0  0
  -25.1506  -35.5820   22.3557 C   0  0  0  0  0  0  0  0  0  0  0  0
  -25.7860  -29.4081   22.0428 C   0  0  0  0  0  0  0  0  0  0  0  0
  -22.1962   -8.2713   21.5080 C   0  0  0  0  0  0  0  0  0  0  0  0
  -28.1065  -28.9235   22.5814 C   0  0  0  0  0  0  0  0  0  0  0  0
  -21.7154   -6.1515   22.4010 C   0  0  0  0  0  0  0  0  0  0  0  0
  -22.5088   -3.9617   23.9366 C   0  0  0  0  0  0  0  0  0  0  0  0
  -22.0373   -6.3237   23.7473 C   0  0  0  0  0  0  0  0  0  0  0  0
  -24.9191  -11.4839   21.1046 C   0  0  0  0  0  0  0  0  0  0  0  0
  -29.8100  -23.0811   22.7710 C   0  0  0  0  0  0  0  0  0  0  0  0
  -28.8446  -21.5313   21.5311 C   0  0  0  0  0  0  0  0  0  0  0  0
  -26.3961  -13.0682   21.4833 C   0  0  0  0  0  0  0  0  0  0  0  0
  -25.7387  -11.7830   23.5240 C   0  0  0  0  0  0  0  0  0  0  0  0
  -23.7750  -32.1612   22.1131 C   0  0  0  0  0  0  0  0  0  0  0  0
  -22.0345  -29.5442   21.3106 C   0  0  0  0  0  0  0  0  0  0  0  0
  -21.9425  -26.1715   20.7978 C   0  0  0  0  0  0  0  0  0  0  0  0
  -26.2980  -17.3679   17.8254 C   0  0  0  0  0  0  0  0  0  0  0  0
  -23.3297  -37.2272   21.6710 C   0  0  0  0  0  0  0  0  0  0  0  0
  -25.2046  -31.1413   20.3042 C   0  0  0  0  0  0  0  0  0  0  0  0
  -24.3260  -29.1222   22.2781 C   0  0  0  0  0  0  0  0  0  0  0  0
  -22.3628  -36.0476   21.7341 C   0  0  0  0  0  0  0  0  0  0  0  0
  -30.6698  -22.8056   25.4796 C   0  0  0  0  0  0  0  0  0  0  0  0
  -27.0485  -14.0060   16.5578 C   0  0  0  0  0  0  0  0  0  0  0  0
  -22.7126  -35.1326   22.9033 C   0  0  0  0  0  0  0  0  0  0  0  0
  -30.3587  -24.2058   24.9421 C   0  0  0  0  0  0  0  0  0  0  0  0
  -26.5770  -13.1013   17.6971 C   0  0  0  0  0  0  0  0  0  0  0  0
  -28.7939  -18.5222   20.2656 C   0  0  0  0  0  0  0  0  0  0  0  0
  -29.6981  -21.7753   24.9035 C   0  0  0  0  0  0  0  0  0  0  0  0
  -26.2392  -15.2986   16.4819 C   0  0  0  0  0  0  0  0  0  0  0  0
  -27.9796  -17.3360   19.7598 C   0  0  0  0  0  0  0  0  0  0  0  0
  -25.6974  -15.1467   18.8811 C   0  0  0  0  0  0  0  0  0  0  0  0
  -26.8764  -19.3800   19.1514 C   0  0  0  0  0  0  0  0  0  0  0  0
  -24.1193  -34.5439   22.7416 C   0  0  1  0  0  0  0  0  0  0  0  0
  -30.4954  -24.2398   23.4120 C   0  0  2  0  0  0  0  0  0  0  0  0
  -23.8272  -31.2028   20.9571 C   0  0  1  0  0  0  0  0  0  0  0  0
  -26.5322  -13.8675   19.0323 C   0  0  1  0  0  0  0  0  0  0  0  0
  -27.7348  -19.6125   20.3857 C   0  0  2  0  0  0  0  0  0  0  0  0
  -20.3696  -24.3139   20.1872 C   0  0  0  0  0  0  0  0  0  0  0  0
  -20.8602  -29.6164   24.1260 C   0  0  0  0  0  0  0  0  0  0  0  0
  -20.0665  -27.2673   23.7799 C   0  0  0  0  0  0  0  0  0  0  0  0
  -19.2093  -29.0994   22.3200 C   0  0  0  0  0  0  0  0  0  0  0  0
  -23.4879  -25.5071   18.3628 C   0  0  0  0  0  0  0  0  0  0  0  0
  -30.8918  -26.6988   23.2264 C   0  0  0  0  0  0  0  0  0  0  0  0
  -30.2849  -27.9737   22.6747 C   0  0  0  0  0  0  0  0  0  1  0  0
  -21.5886  -28.2947   22.0310 C   0  0  1  0  0  0  0  0  0  0  0  0
  -21.3643  -25.3400   19.6670 C   0  0  2  0  0  0  0  0  0  0  0  0
  -20.4587  -28.5760   23.0614 C   0  0  0  0  0  0  0  0  0  0  0  0
  -25.1295  -12.0382   19.9077 N   0  0  0  0  0  0  0  0  0  0  0  0
  -28.8927  -20.9946   22.7535 N   0  0  0  0  0  0  0  0  0  0  0  0
  -29.4945  -21.9519   23.4800 N   0  0  0  0  0  0  0  0  0  0  0  0
  -26.0322  -12.9985   20.1707 N   0  0  0  0  0  0  0  0  0  0  0  0
  -23.3818  -29.9019   21.4607 N   0  0  0  0  0  0  0  0  0  0  0  0
  -26.2042  -15.9726   17.7800 N   0  0  0  0  0  0  0  0  0  0  0  0
  -26.9344  -17.9374   18.9275 N   0  0  0  0  0  0  0  0  0  0  0  0
  -27.2938  -13.9767   21.9206 N   0  0  0  0  0  0  0  0  0  0  0  0
  -24.9392  -10.7423   24.0160 N   0  0  0  0  0  0  0  0  0  0  0  0
  -28.3157  -20.9291   20.3976 N   0  0  0  0  0  0  0  0  0  0  0  0
  -24.1068  -33.4611   21.7816 N   0  0  0  0  0  0  0  0  0  0  0  0
  -21.2267  -27.3334   20.9951 N   0  0  0  0  0  0  0  0  0  0  0  0
  -29.9845  -25.5594   22.9382 N   0  3  0  0  0  0  0  0  0  0  0  0
  -22.4510  -24.6179   18.9469 N   0  3  0  0  0  0  0  0  0  0  0  0
  -26.4646  -12.4276   24.3184 O   0  0  0  0  0  0  0  0  0  0  0  0
  -23.4560  -31.7521   23.2233 O   0  0  0  0  0  0  0  0  0  0  0  0
  -21.2191  -30.1756   20.6338 O   0  0  0  0  0  0  0  0  0  0  0  0
  -22.9282  -25.8232   21.4441 O   0  0  0  0  0  0  0  0  0  0  0  0
  -25.8740  -18.0724   16.8997 O   0  0  0  0  0  0  0  0  0  0  0  0
  -21.3206   -7.2374   21.6377 O   0  0  0  0  0  0  0  0  0  0  0  0
  -29.0322  -28.2144   23.3018 O   0  0  0  0  0  0  0  0  0  1  0  0
  -22.8883   -2.9100   24.6742 F   0  0  0  0  0  0  0  0  0  0  0  0
  -21.9662   -7.5384   24.3088 F   0  0  0  0  0  0  0  0  0  0  0  0
  1  2  1  0  0  0  0
  1  5  2  0  0  0  0
  2  6  2  0  0  0  0
  3  8  2  0  0  0  0
  3 16  1  0  0  0  0
  4  9  1  0  0  0  0
  4 16  2  0  0  0  0
  5 18  1  0  0  0  0
  6 20  1  0  0  0  0
  7 10  2  0  0  0  0
  7 19  1  0  0  0  0
  8 22  1  0  0  0  0
  9 22  2  0  0  0  0
 10 23  1  0  0  0  0
 11 12  2  0  0  0  0
 11 24  1  0  0  0  0
 12 25  1  0  0  0  0
 13 21  1  0  0  0  0
 13 23  2  0  0  0  0
 14 25  2  0  0  0  0
 14 26  1  0  0  0  0
 15 28  2  0  0  0  0
 15 29  1  0  0  0  0
 16 27  1  0  0  0  0
 17 27  1  0  0  0  0
 17 30  2  0  0  0  0
 17 31  1  0  0  0  0
 18 20  2  0  0  0  0
 18 36  1  0  0  0  0
 19 21  2  0  0  0  0
 19 37  1  0  0  0  0
 20 51  1  0  0  0  0
 21 38  1  0  0  0  0
 22 85  1  0  0  0  0
 23 86  1  0  0  0  0
 24 26  2  0  0  0  0
 24 85  1  0  0  0  0
 25 87  1  0  0  0  0
 26 88  1  0  0  0  0
 27 66  2  0  0  0  0
 28 52  1  0  0  0  0
 28 68  1  0  0  0  0
 29 67  2  0  0  0  0
 29 75  1  0  0  0  0
 30 69  1  0  0  0  0
 30 73  1  0  0  0  0
 31 74  1  0  0  0  0
 31 80  2  0  0  0  0
 32 53  1  0  0  0  0
 32 76  1  0  0  0  0
 32 81  2  0  0  0  0
 33 63  1  0  0  0  0
 33 70  1  0  0  0  0
 33 82  2  0  0  0  0
 34 64  1  0  0  0  0
 34 77  1  0  0  0  0
 34 83  2  0  0  0  0
 35 71  1  0  0  0  0
 35 72  1  0  0  0  0
 35 84  2  0  0  0  0
 36 39  1  0  0  0  0
 37 53  1  0  0  0  0
 38 70  1  0  0  0  0
 39 42  1  0  0  0  0
 40 43  1  0  0  0  0
 40 46  1  0  0  0  0
 41 44  1  0  0  0  0
 41 47  1  0  0  0  0
 42 51  1  0  0  0  0
 43 52  1  0  0  0  0
 44 54  1  0  0  0  0
 45 48  1  0  0  0  0
 45 55  1  0  0  0  0
 46 68  1  0  0  0  0
 47 71  1  0  0  0  0
 48 72  1  0  0  0  0
 49 54  1  0  0  0  0
 49 71  1  0  0  0  0
 50 55  1  0  0  0  0
 50 72  1  0  0  0  0
 51 76  1  0  0  0  0
 52 78  1  0  0  0  0
 53 70  1  0  0  0  0
 54 69  1  0  0  0  0
 55 75  1  0  0  0  0
 56 64  1  0  0  0  0
 57 65  1  0  0  0  0
 58 65  1  0  0  0  0
 59 65  1  0  0  0  0
 60 79  1  0  0  0  0
 61 62  1  0  0  0  0
 61 78  1  0  0  0  0
 62 86  1  0  0  0  0
 63 65  1  0  0  0  0
 63 77  1  0  0  0  0
 64 79  1  0  0  0  0
 66 69  1  0  0  0  0
 67 68  1  0  0  0  0
M  CHG  2  78   1  79   1
M  ISO  4  35 100  62 101  72 100  86 101
M  END
> <Batch ID>
0195

> <Smiles>
CNC(C)C(=O)NC(C(=O)N1Cc2cc([101O:1][101CH2:1]CNC3CCCn4nc(NC5CC[100N:0]([100C:0](=O)N6CCCC(n7nc(-c8ccc(Oc9ccc(F)cc9F)cc8)c(C(N)=O)c7N)C6)C5)cc43)ccc2CC1C(=O)NC1CCCc2ccccc21)C(C)(C)C

> <Shape>
0.266

> <Color>
0.090

> <Negative vol penalty>
0.000

$$$$

  -OEChem-04052323373D

 86 95  0     1  0  0  0  0  0999 V2000
  -18.8927  -24.5424   19.4319 C   0  0  0  0  0  0  0  0  0  0  0  0
  -19.2963  -23.2225   19.2576 C   0  0  0  0  0  0  0  0  0  0  0  0
  -26.4362  -27.6798   18.7965 C   0  0  0  0  0  0  0  0  0  0  0  0
  -26.4681  -27.2024   21.1647 C   0  0  0  0  0  0  0  0  0  0  0  0
  -19.7157  -25.4375   20.1141 C   0  0  0  0  0  0  0  0  0  0  0  0
  -20.5238  -22.7973   19.7645 C   0  0  0  0  0  0  0  0  0  0  0  0
  -21.8439  -17.2767   22.0637 C   0  0  0  0  0  0  0  0  0  0  0  0
  -25.3622  -28.5493   18.9863 C   0  0  0  0  0  0  0  0  0  0  0  0
  -25.3940  -28.0719   21.3544 C   0  0  0  0  0  0  0  0  0  0  0  0
  -22.4629  -16.1551   21.5136 C   0  0  0  0  0  0  0  0  0  0  0  0
  -24.9016  -31.4077   21.5789 C   0  0  0  0  0  0  0  0  0  0  0  0
  -24.9732  -32.2998   22.6487 C   0  0  0  0  0  0  0  0  0  0  0  0
  -24.5650  -16.8544   22.4682 C   0  0  0  0  0  0  0  0  0  0  0  0
  -29.0487  -15.4342   20.3309 C   0  0  0  0  0  0  0  0  0  0  0  0
  -22.9665  -31.3355   23.5871 C   0  0  0  0  0  0  0  0  0  0  0  0
  -31.4210  -14.1817   19.6537 C   0  0  0  0  0  0  0  0  0  0  0  0
  -26.9891  -27.0063   19.8857 C   0  0  0  0  0  0  0  0  0  0  0  0
  -29.4688  -26.4260   19.7363 C   0  0  0  0  0  0  0  0  0  0  0  0
  -20.9495  -25.0206   20.6380 C   0  0  0  0  0  0  0  0  0  0  0  0
  -22.5843  -18.2029   22.8123 C   0  0  0  0  0  0  0  0  0  0  0  0
  -21.3647  -23.6880   20.4531 C   0  0  0  0  0  0  0  0  0  0  0  0
  -23.9525  -17.9856   23.0289 C   0  0  0  0  0  0  0  0  0  0  0  0
  -29.0363  -14.1631   19.7920 C   0  0  0  0  0  0  0  0  0  0  0  0
  -30.2300  -13.5264   19.4472 C   0  0  0  0  0  0  0  0  0  0  0  0
  -24.8411  -28.7454   20.2652 C   0  0  0  0  0  0  0  0  0  0  0  0
  -23.8242  -15.9453   21.7134 C   0  0  0  0  0  0  0  0  0  0  0  0
  -23.8624  -30.4795   21.5131 C   0  0  0  0  0  0  0  0  0  0  0  0
  -24.0057  -32.2637   23.6529 C   0  0  0  0  0  0  0  0  0  0  0  0
  -22.8949  -30.4434   22.5172 C   0  0  0  0  0  0  0  0  0  0  0  0
  -28.0983  -26.1075   19.6903 C   0  0  0  0  0  0  0  0  0  0  0  0
  -30.2971  -16.0114   20.5147 C   0  0  0  0  0  0  0  0  0  0  0  0
  -30.1065  -25.2350   19.4884 C   0  0  0  0  0  0  0  0  0  0  0  0
  -30.1082  -27.6857   19.9812 C   0  0  0  0  0  0  0  0  0  0  0  0
  -23.2843  -21.2882   22.5046 C   0  0  0  0  0  0  0  0  0  0  0  0
  -24.6019  -20.8820   25.4409 C   0  0  0  0  0  0  0  0  0  0  0  0
  -25.9670  -18.7558   27.7349 C   0  0  0  0  0  0  0  0  0  0  0  0
  -29.5787  -19.6943   20.6860 C   0  0  0  0  0  0  0  0  0  0  0  0
  -21.8261  -26.0362   21.3269 C   0  0  0  0  0  0  0  0  0  0  0  0
  -21.8963  -19.3937   23.4214 C   0  0  0  0  0  0  0  0  0  0  0  0
  -29.9783  -12.1869   18.8377 C   0  0  0  0  0  0  0  0  0  0  0  0
  -24.7880  -18.9393   23.8419 C   0  0  0  0  0  0  0  0  0  0  0  0
  -22.9434  -25.4120   22.1590 C   0  0  0  0  0  0  0  0  0  0  0  0
  -28.5399  -11.9186   19.3129 C   0  0  0  0  0  0  0  0  0  0  0  0
  -28.8017  -20.9547   17.3837 C   0  0  0  0  0  0  0  0  0  0  0  0
  -23.6484  -24.3145   21.3684 C   0  0  0  0  0  0  0  0  0  0  0  0
  -28.6749  -22.4552   17.6529 C   0  0  0  0  0  0  0  0  0  0  0  0
  -28.2380  -20.1358   18.5412 C   0  0  0  0  0  0  0  0  0  0  0  0
  -28.7114  -21.9508   20.1397 C   0  0  0  0  0  0  0  0  0  0  0  0
  -22.6779  -23.1826   21.0099 C   0  0  1  0  0  0  0  0  0  0  0  0
  -27.8688  -13.2992   19.4319 C   0  0  1  0  0  0  0  0  0  0  0  0
  -22.8523  -20.5406   23.7344 C   0  0  1  0  0  0  0  0  0  0  0  0
  -29.2843  -22.8334   19.0160 C   0  0  2  0  0  0  0  0  0  0  0  0
  -26.9864  -18.7223   30.0277 C   0  0  0  0  0  0  0  0  0  0  0  0
  -27.1795  -22.0590   24.3093 C   0  0  0  0  0  0  0  0  0  0  0  0
  -28.3908  -21.1373   26.2972 C   0  0  0  0  0  0  0  0  0  0  0  0
  -26.5976  -22.8426   26.6119 C   0  0  0  0  0  0  0  0  0  0  0  0
  -23.8646  -16.9481   28.7698 C   0  0  0  0  0  0  0  0  0  0  0  0
  -30.3814  -17.3830   21.0992 C   0  0  0  0  0  0  0  0  0  0  0  0
  -25.6105  -12.4199   20.0069 C   0  0  0  0  0  0  0  0  0  0  0  0
  -23.6328  -13.6799   21.0153 C   0  0  0  0  0  0  0  0  0  1  0  0
  -25.9642  -20.4846   25.9557 C   0  0  1  0  0  0  0  0  0  0  0  0
  -25.7069  -18.5737   29.2194 C   0  0  2  0  0  0  0  0  0  0  0  0
  -24.5255  -12.4370   21.0838 C   0  0  1  0  0  0  0  0  0  0  0  0
  -27.0180  -21.6137   25.7765 C   0  0  0  0  0  0  0  0  0  0  0  0
  -31.4799  -15.4210   20.1927 N   0  0  0  0  0  0  0  0  0  0  0  0
  -27.8774  -24.8156   19.4333 N   0  0  0  0  0  0  0  0  0  0  0  0
  -29.1177  -24.3117   19.3155 N   0  0  0  0  0  0  0  0  0  0  0  0
  -24.0708  -20.0921   24.4114 N   0  0  0  0  0  0  0  0  0  0  0  0
  -28.8728  -20.5317   19.8063 N   0  0  0  0  0  0  0  0  0  0  0  0
  -31.4110  -24.8981   19.4037 N   0  0  0  0  0  0  0  0  0  0  0  0
  -29.3036  -28.8086   20.2177 N   0  0  0  0  0  0  0  0  0  0  0  0
  -23.6909  -11.2426   20.9069 N   0  0  0  0  0  0  0  0  0  0  0  0
  -22.4476  -22.3317   22.1577 N   0  0  0  0  0  0  0  0  0  0  0  0
  -25.7707  -20.0618   27.3385 N   0  0  0  0  0  0  0  0  0  0  0  0
  -29.6801  -18.3633   20.3003 N   0  0  0  0  0  0  0  0  0  0  0  0
  -26.7753  -13.2377   20.4271 N   0  3  0  0  0  0  0  0  0  0  0  0
  -25.1384  -17.2217   29.4836 N   0  3  0  0  0  0  0  0  0  0  0  0
  -31.3559  -27.8150   19.9738 O   0  0  0  0  0  0  0  0  0  0  0  0
  -24.3022  -20.9446   21.9151 O   0  0  0  0  0  0  0  0  0  0  0  0
  -24.0269  -21.8531   25.9388 O   0  0  0  0  0  0  0  0  0  0  0  0
  -26.3135  -17.8327   27.0012 O   0  0  0  0  0  0  0  0  0  0  0  0
  -30.0862  -20.1038   21.7358 O   0  0  0  0  0  0  0  0  0  0  0  0
  -23.7932  -29.5939   20.4507 O   0  0  0  0  0  0  0  0  0  0  0  0
  -24.4310  -14.8516   21.1770 O   0  0  0  0  0  0  0  0  0  1  0  0
  -24.0754  -33.1195   24.6810 F   0  0  0  0  0  0  0  0  0  0  0  0
  -21.8949  -29.5531   22.4601 F   0  0  0  0  0  0  0  0  0  0  0  0
  1  2  1  0  0  0  0
  1  5  2  0  0  0  0
  2  6  2  0  0  0  0
  3  8  2  0  0  0  0
  3 17  1  0  0  0  0
  4  9  1  0  0  0  0
  4 17  2  0  0  0  0
  5 19  1  0  0  0  0
  6 21  1  0  0  0  0
  7 10  2  0  0  0  0
  7 20  1  0  0  0  0
  8 25  1  0  0  0  0
  9 25  2  0  0  0  0
 10 26  1  0  0  0  0
 11 12  2  0  0  0  0
 11 27  1  0  0  0  0
 12 28  1  0  0  0  0
 13 22  1  0  0  0  0
 13 26  2  0  0  0  0
 14 23  1  0  0  0  0
 14 31  2  0  0  0  0
 15 28  2  0  0  0  0
 15 29  1  0  0  0  0
 16 24  1  0  0  0  0
 16 65  2  0  0  0  0
 17 30  1  0  0  0  0
 18 30  1  0  0  0  0
 18 32  2  0  0  0  0
 18 33  1  0  0  0  0
 19 21  2  0  0  0  0
 19 38  1  0  0  0  0
 20 22  2  0  0  0  0
 20 39  1  0  0  0  0
 21 49  1  0  0  0  0
 22 41  1  0  0  0  0
 23 24  2  0  0  0  0
 23 50  1  0  0  0  0
 24 40  1  0  0  0  0
 25 83  1  0  0  0  0
 26 84  1  0  0  0  0
 27 29  2  0  0  0  0
 27 83  1  0  0  0  0
 28 85  1  0  0  0  0
 29 86  1  0  0  0  0
 30 66  2  0  0  0  0
 31 58  1  0  0  0  0
 31 65  1  0  0  0  0
 32 67  1  0  0  0  0
 32 70  1  0  0  0  0
 33 71  1  0  0  0  0
 33 78  2  0  0  0  0
 34 51  1  0  0  0  0
 34 73  1  0  0  0  0
 34 79  2  0  0  0  0
 35 61  1  0  0  0  0
 35 68  1  0  0  0  0
 35 80  2  0  0  0  0
 36 62  1  0  0  0  0
 36 74  1  0  0  0  0
 36 81  2  0  0  0  0
 37 69  1  0  0  0  0
 37 75  1  0  0  0  0
 37 82  2  0  0  0  0
 38 42  1  0  0  0  0
 39 51  1  0  0  0  0
 40 43  1  0  0  0  0
 41 68  1  0  0  0  0
 42 45  1  0  0  0  0
 43 50  1  0  0  0  0
 44 46  1  0  0  0  0
 44 47  1  0  0  0  0
 45 49  1  0  0  0  0
 46 52  1  0  0  0  0
 47 69  1  0  0  0  0
 48 52  1  0  0  0  0
 48 69  1  0  0  0  0
 49 73  1  0  0  0  0
 50 76  1  0  0  0  0
 51 68  1  0  0  0  0
 52 67  1  0  0  0  0
 53 62  1  0  0  0  0
 54 64  1  0  0  0  0
 55 64  1  0  0  0  0
 56 64  1  0  0  0  0
 57 77  1  0  0  0  0
 58 75  1  0  0  0  0
 59 63  1  0  0  0  0
 59 76  1  0  0  0  0
 60 63  1  0  0  0  0
 60 84  1  0  0  0  0
 61 64  1  0  0  0  0
 61 74  1  0  0  0  0
 62 77  1  0  0  0  0
 63 72  1  0  0  0  0
 66 67  1  0  0  0  0
M  CHG  2  76   1  77   1
M  ISO  4  37 100  60 101  75 100  84 101
M  END
> <Batch ID>
0195

> <Smiles>
CNC(C)C(=O)NC(C(=O)N1Cc2cc([101O:1][101CH2:1]C(N)CNC3CCc4cnc(C[100NH:0][100C:0](=O)N5CCCC(n6nc(-c7ccc(Oc8ccc(F)cc8F)cc7)c(C(N)=O)c6N)C5)cc43)ccc2CC1C(=O)NC1CCCc2ccccc21)C(C)(C)C

> <Shape>
0.251

> <Color>
0.054

> <Negative vol penalty>
0.000

$$$$

  -OEChem-04052323373D

 84 93  0     1  0  0  0  0  0999 V2000
  -26.9424  -34.7088   25.3315 C   0  0  0  0  0  0  0  0  0  0  0  0
  -27.3332  -33.4864   24.7945 C   0  0  0  0  0  0  0  0  0  0  0  0
  -24.2742   -9.3207   18.5199 C   0  0  0  0  0  0  0  0  0  0  0  0
  -25.0653   -8.2351   20.5280 C   0  0  0  0  0  0  0  0  0  0  0  0
  -25.6160  -34.9099   25.7113 C   0  0  0  0  0  0  0  0  0  0  0  0
  -26.3980  -32.4640   24.6379 C   0  0  0  0  0  0  0  0  0  0  0  0
  -26.7568  -30.1760   20.1343 C   0  0  0  0  0  0  0  0  0  0  0  0
  -24.1900   -8.0824   17.8835 C   0  0  0  0  0  0  0  0  0  0  0  0
  -24.9811   -6.9967   19.8916 C   0  0  0  0  0  0  0  0  0  0  0  0
  -27.7860  -29.2499   19.9709 C   0  0  0  0  0  0  0  0  0  0  0  0
  -22.0720   -5.4471   17.8322 C   0  0  0  0  0  0  0  0  0  0  0  0
  -20.9225   -5.1766   17.0900 C   0  0  0  0  0  0  0  0  0  0  0  0
  -26.2204  -27.4531   20.3446 C   0  0  0  0  0  0  0  0  0  0  0  0
  -22.2701   -4.8992   15.1040 C   0  0  0  0  0  0  0  0  0  0  0  0
  -24.7120   -9.3971   19.8421 C   0  0  0  0  0  0  0  0  0  0  0  0
  -23.7934  -11.3199   21.2446 C   0  0  0  0  0  0  0  0  0  0  0  0
  -24.6620  -33.8927   25.5503 C   0  0  0  0  0  0  0  0  0  0  0  0
  -25.4515  -29.7474   20.4155 C   0  0  0  0  0  0  0  0  0  0  0  0
  -25.0579  -32.6512   25.0171 C   0  0  0  0  0  0  0  0  0  0  0  0
  -25.1759  -28.3758   20.5087 C   0  0  0  0  0  0  0  0  0  0  0  0
  -24.5434   -6.9204   18.5694 C   0  0  0  0  0  0  0  0  0  0  0  0
  -27.5185  -27.8883   20.0789 C   0  0  0  0  0  0  0  0  0  0  0  0
  -23.3206   -5.4438   17.2104 C   0  0  0  0  0  0  0  0  0  0  0  0
  -21.0215   -4.9027   15.7259 C   0  0  0  0  0  0  0  0  0  0  0  0
  -23.4197   -5.1698   15.8463 C   0  0  0  0  0  0  0  0  0  0  0  0
  -24.7998  -10.6761   20.4998 C   0  0  0  0  0  0  0  0  0  0  0  0
  -24.3699  -12.4971   21.6550 C   0  0  0  0  0  0  0  0  0  0  0  0
  -22.4571  -10.8920   21.5392 C   0  0  0  0  0  0  0  0  0  0  0  0
  -23.4274  -30.1575   22.8318 C   0  0  0  0  0  0  0  0  0  0  0  0
  -21.3742  -28.5942   20.8663 C   0  0  0  0  0  0  0  0  0  0  0  0
  -20.9360  -26.4439   18.2527 C   0  0  0  0  0  0  0  0  0  0  0  0
  -27.2675  -16.9408   20.8319 C   0  0  0  0  0  0  0  0  0  0  0  0
  -23.2502  -34.1407   26.0192 C   0  0  0  0  0  0  0  0  0  0  0  0
  -24.3473  -30.7580   20.5626 C   0  0  0  0  0  0  0  0  0  0  0  0
  -23.7877  -27.8631   20.7891 C   0  0  0  0  0  0  0  0  0  0  0  0
  -22.2412  -33.1339   25.4729 C   0  0  0  0  0  0  0  0  0  0  0  0
  -29.1702  -14.0604   21.4851 C   0  0  0  0  0  0  0  0  0  0  0  0
  -22.7759  -31.7122   25.6139 C   0  0  0  0  0  0  0  0  0  0  0  0
  -28.1160  -12.9626   21.3456 C   0  0  0  0  0  0  0  0  0  0  0  0
  -29.7928  -21.6584   17.4807 C   0  0  0  0  0  0  0  0  0  0  0  0
  -29.0108  -15.1472   20.4205 C   0  0  0  0  0  0  0  0  0  0  0  0
  -30.0639  -23.1591   17.3667 C   0  0  0  0  0  0  0  0  0  0  0  0
  -29.2460  -17.9825   19.6381 C   0  0  0  0  0  0  0  0  0  0  0  0
  -28.0453  -19.2209   21.4024 C   0  0  0  0  0  0  0  0  0  0  0  0
  -26.5988  -14.6356   20.2206 C   0  0  0  0  0  0  0  0  0  0  0  0
  -28.6710  -22.8757   19.2222 C   0  0  0  0  0  0  0  0  0  0  0  0
  -28.9805  -19.1139   18.6501 C   0  0  0  0  0  0  0  0  0  0  0  0
  -27.7406  -20.3558   20.4382 C   0  0  0  0  0  0  0  0  0  0  0  0
  -24.0675  -31.5262   24.8086 C   0  0  1  0  0  0  0  0  0  0  0  0
  -23.1558  -30.2300   21.3557 C   0  0  1  0  0  0  0  0  0  0  0  0
  -26.6979  -13.5597   21.3131 C   0  0  1  0  0  0  0  0  0  0  0  0
  -28.6468  -21.5562   18.4770 C   0  0  2  0  0  0  0  0  0  0  0  0
  -19.1413  -25.3283   16.8993 C   0  0  0  0  0  0  0  0  0  0  0  0
  -29.7029  -26.0187   17.4068 C   0  0  0  0  0  0  0  0  0  0  0  0
  -20.8589  -26.6476   23.1587 C   0  0  0  0  0  0  0  0  0  0  0  0
  -19.8463  -25.0701   21.4991 C   0  0  0  0  0  0  0  0  0  0  0  0
  -18.8178  -27.3114   21.8751 C   0  0  0  0  0  0  0  0  0  0  0  0
  -21.8551  -27.7367   15.7541 C   0  0  0  0  0  0  0  0  0  0  0  0
  -28.1660  -25.7046   19.3947 C   0  0  0  0  0  0  0  0  0  1  0  0
  -21.0124  -27.1477   20.6304 C   0  0  1  0  0  0  0  0  0  0  0  0
  -20.0657  -26.5306   17.0120 C   0  0  2  0  0  0  0  0  0  0  0  0
  -29.3323  -25.1267   18.5919 C   0  0  1  0  0  0  0  0  0  0  0  0
  -20.1605  -26.5536   21.7874 C   0  0  0  0  0  0  0  0  0  0  0  0
  -25.9298  -11.3856   20.4388 N   0  0  0  0  0  0  0  0  0  0  0  0
  -25.6370  -12.4874   21.1504 N   0  0  0  0  0  0  0  0  0  0  0  0
  -22.7430  -28.8907   20.9312 N   0  0  0  0  0  0  0  0  0  0  0  0
  -27.6327  -15.6572   20.3993 N   0  0  0  0  0  0  0  0  0  0  0  0
  -28.2251  -17.9563   20.6926 N   0  0  0  0  0  0  0  0  0  0  0  0
  -28.9808  -23.7946   18.1243 N   0  0  1  0  0  0  0  0  0  0  0  0
  -23.9114  -13.5292   22.3945 N   0  0  0  0  0  0  0  0  0  0  0  0
  -22.0260   -9.6555   21.0396 N   0  0  0  0  0  0  0  0  0  0  0  0
  -23.7676  -31.3696   23.4014 N   0  0  0  0  0  0  0  0  0  0  0  0
  -20.3644  -27.0968   19.3243 N   0  0  0  0  0  0  0  0  0  0  0  0
  -28.8326  -20.4184   19.3958 N   0  3  0  0  0  0  0  0  0  0  0  0
  -20.9133  -26.5882   15.7876 N   0  3  0  0  0  0  0  0  0  0  0  0
  -21.6632  -11.5930   22.2113 O   0  0  0  0  0  0  0  0  0  0  0  0
  -23.3337  -29.0818   23.4112 O   0  0  0  0  0  0  0  0  0  0  0  0
  -20.4756  -29.4314   20.9814 O   0  0  0  0  0  0  0  0  0  0  0  0
  -22.0133  -25.8526   18.2707 O   0  0  0  0  0  0  0  0  0  0  0  0
  -26.1503  -17.1665   21.3139 O   0  0  0  0  0  0  0  0  0  0  0  0
  -24.4610   -5.7118   17.9488 O   0  0  0  0  0  0  0  0  0  0  0  0
  -28.5283  -26.9760   19.9193 O   0  0  0  0  0  0  0  0  0  1  0  0
  -19.9177   -4.6414   15.0135 F   0  0  0  0  0  0  0  0  0  0  0  0
  -24.6166   -5.1639   15.2436 F   0  0  0  0  0  0  0  0  0  0  0  0
  1  2  1  0  0  0  0
  1  5  2  0  0  0  0
  2  6  2  0  0  0  0
  3  8  2  0  0  0  0
  3 15  1  0  0  0  0
  4  9  1  0  0  0  0
  4 15  2  0  0  0  0
  5 17  1  0  0  0  0
  6 19  1  0  0  0  0
  7 10  2  0  0  0  0
  7 18  1  0  0  0  0
  8 21  1  0  0  0  0
  9 21  2  0  0  0  0
 10 22  1  0  0  0  0
 11 12  2  0  0  0  0
 11 23  1  0  0  0  0
 12 24  1  0  0  0  0
 13 20  1  0  0  0  0
 13 22  2  0  0  0  0
 14 24  2  0  0  0  0
 14 25  1  0  0  0  0
 15 26  1  0  0  0  0
 16 26  1  0  0  0  0
 16 27  2  0  0  0  0
 16 28  1  0  0  0  0
 17 19  2  0  0  0  0
 17 33  1  0  0  0  0
 18 20  2  0  0  0  0
 18 34  1  0  0  0  0
 19 49  1  0  0  0  0
 20 35  1  0  0  0  0
 21 81  1  0  0  0  0
 22 82  1  0  0  0  0
 23 25  2  0  0  0  0
 23 81  1  0  0  0  0
 24 83  1  0  0  0  0
 25 84  1  0  0  0  0
 26 64  2  0  0  0  0
 27 65  1  0  0  0  0
 27 70  1  0  0  0  0
 28 71  1  0  0  0  0
 28 76  2  0  0  0  0
 29 50  1  0  0  0  0
 29 72  1  0  0  0  0
 29 77  2  0  0  0  0
 30 60  1  0  0  0  0
 30 66  1  0  0  0  0
 30 78  2  0  0  0  0
 31 61  1  0  0  0  0
 31 73  1  0  0  0  0
 31 79  2  0  0  0  0
 32 67  1  0  0  0  0
 32 68  1  0  0  0  0
 32 80  2  0  0  0  0
 33 36  1  0  0  0  0
 34 50  1  0  0  0  0
 35 66  1  0  0  0  0
 36 38  1  0  0  0  0
 37 39  1  0  0  0  0
 37 41  1  0  0  0  0
 38 49  1  0  0  0  0
 39 51  1  0  0  0  0
 40 42  1  0  0  0  0
 40 52  1  0  0  0  0
 41 67  1  0  0  0  0
 42 69  1  0  0  0  0
 43 47  1  0  0  0  0
 43 68  1  0  0  0  0
 44 48  1  0  0  0  0
 44 68  1  0  0  0  0
 45 51  1  0  0  0  0
 45 67  1  0  0  0  0
 46 52  1  0  0  0  0
 46 69  1  0  0  0  0
 47 74  1  0  0  0  0
 48 74  1  0  0  0  0
 49 72  1  0  0  0  0
 50 66  1  0  0  0  0
 51 65  1  0  0  0  0
 52 74  1  0  0  0  0
 53 61  1  0  0  0  0
 54 62  1  0  0  0  0
 55 63  1  0  0  0  0
 56 63  1  0  0  0  0
 57 63  1  0  0  0  0
 58 75  1  0  0  0  0
 59 62  1  0  0  0  0
 59 82  1  0  0  0  0
 60 63  1  0  0  0  0
 60 73  1  0  0  0  0
 61 75  1  0  0  0  0
 62 69  1  0  0  0  0
 64 65  1  0  0  0  0
M  CHG  2  74   1  75   1
M  ISO  4  32 100  59 101  68 100  82 101
M  END
> <Batch ID>
0195

> <Smiles>
CNC(C)C(=O)NC(C(=O)N1Cc2cc([101O:1][101CH2:1]C(C)N3CCC(N4CC[100N:0]([100C:0](=O)N5CCCC(n6nc(-c7ccc(Oc8ccc(F)cc8F)cc7)c(C(N)=O)c6N)C5)CC4)C3)ccc2CC1C(=O)NC1CCCc2ccccc21)C(C)(C)C

> <Shape>
0.286

> <Color>
0.076

> <Negative vol penalty>
0.000

$$$$

  -OEChem-04052323373D

 87 97  0     1  0  0  0  0  0999 V2000
  -22.2177   -9.0103   21.8529 C   0  0  0  0  0  0  0  0  0  0  0  0
  -23.5559   -9.3239   21.6375 C   0  0  0  0  0  0  0  0  0  0  0  0
  -18.9839  -27.8414   21.3902 C   0  0  0  0  0  0  0  0  0  0  0  0
  -20.7991  -27.0476   22.7729 C   0  0  0  0  0  0  0  0  0  0  0  0
  -21.2347   -9.9777   21.6486 C   0  0  0  0  0  0  0  0  0  0  0  0
  -23.9117  -10.6048   21.2168 C   0  0  0  0  0  0  0  0  0  0  0  0
  -29.1721  -15.4269   21.8433 C   0  0  0  0  0  0  0  0  0  0  0  0
  -18.0951  -27.6522   22.4484 C   0  0  0  0  0  0  0  0  0  0  0  0
  -19.9103  -26.8584   23.8312 C   0  0  0  0  0  0  0  0  0  0  0  0
  -30.0053  -16.2202   21.0559 C   0  0  0  0  0  0  0  0  0  0  0  0
  -17.6021  -24.5724   24.7677 C   0  0  0  0  0  0  0  0  0  0  0  0
  -17.6942  -23.3805   25.4863 C   0  0  0  0  0  0  0  0  0  0  0  0
  -28.2285  -17.8334   20.8117 C   0  0  0  0  0  0  0  0  0  0  0  0
  -18.1499  -24.6312   27.5025 C   0  0  0  0  0  0  0  0  0  0  0  0
  -30.6728  -26.3005   20.4434 C   0  0  0  0  0  0  0  0  0  0  0  0
  -20.3359  -27.5390   21.5525 C   0  0  0  0  0  0  0  0  0  0  0  0
  -21.2080  -27.1244   19.1913 C   0  0  0  0  0  0  0  0  0  0  0  0
  -21.5794  -11.2739   21.2345 C   0  0  0  0  0  0  0  0  0  0  0  0
  -27.8550  -15.8262   22.1123 C   0  0  0  0  0  0  0  0  0  0  0  0
  -22.9322  -11.5900   21.0055 C   0  0  0  0  0  0  0  0  0  0  0  0
  -27.3814  -17.0446   21.6050 C   0  0  0  0  0  0  0  0  0  0  0  0
  -29.5613  -27.0976   20.4216 C   0  0  0  0  0  0  0  0  0  0  0  0
  -18.5582  -27.1608   23.6689 C   0  0  0  0  0  0  0  0  0  0  0  0
  -29.5326  -17.4223   20.5376 C   0  0  0  0  0  0  0  0  0  0  0  0
  -17.7839  -25.7938   25.4165 C   0  0  0  0  0  0  0  0  0  0  0  0
  -17.9681  -23.4099   26.8537 C   0  0  0  0  0  0  0  0  0  0  0  0
  -18.0578  -25.8232   26.7839 C   0  0  0  0  0  0  0  0  0  0  0  0
  -21.2544  -27.7337   20.4595 C   0  0  0  0  0  0  0  0  0  0  0  0
  -28.5175  -26.6934   19.6097 C   0  0  0  0  0  0  0  0  0  0  0  0
  -22.2934  -27.6373   18.5240 C   0  0  0  0  0  0  0  0  0  0  0  0
  -29.6644  -24.8797   18.9526 C   0  0  0  0  0  0  0  0  0  0  0  0
  -20.2678  -26.1793   18.6636 C   0  0  0  0  0  0  0  0  0  0  0  0
  -24.9768  -14.6294   21.4903 C   0  0  0  0  0  0  0  0  0  0  0  0
  -23.9795  -17.0912   23.3524 C   0  0  0  0  0  0  0  0  0  0  0  0
  -24.6055  -20.1899   24.6380 C   0  0  0  0  0  0  0  0  0  0  0  0
  -27.4213  -30.0209   20.7352 C   0  0  0  0  0  0  0  0  0  0  0  0
  -20.4776  -12.2722   20.9812 C   0  0  0  0  0  0  0  0  0  0  0  0
  -26.9775  -14.9720   22.9855 C   0  0  0  0  0  0  0  0  0  0  0  0
  -25.9820  -17.5282   21.8812 C   0  0  0  0  0  0  0  0  0  0  0  0
  -29.2412  -28.3647   21.1211 C   0  0  0  0  0  0  0  0  0  0  0  0
  -27.3733  -27.6572   19.7234 C   0  0  0  0  0  0  0  0  0  0  0  0
  -20.9703  -13.7146   20.8963 C   0  0  0  0  0  0  0  0  0  0  0  0
  -25.0887  -31.5227   18.3350 C   0  0  0  0  0  0  0  0  0  0  0  0
  -22.2034  -13.8058   20.0030 C   0  0  0  0  0  0  0  0  0  0  0  0
  -23.8221  -30.6870   18.5323 C   0  0  0  0  0  0  0  0  0  0  0  0
  -25.9134  -31.6244   19.6165 C   0  0  0  0  0  0  0  0  0  0  0  0
  -29.9375  -22.3400   18.9488 C   0  0  0  0  0  0  0  0  0  0  0  0
  -24.9664  -29.5058   20.4424 C   0  0  0  0  0  0  0  0  0  0  0  0
  -31.3308  -22.0903   17.0769 C   0  0  0  0  0  0  0  0  0  0  0  0
  -23.3600  -12.9756   20.5728 C   0  0  1  0  0  0  0  0  0  0  0  0
  -29.7434  -23.6170   18.1270 C   0  0  2  0  0  0  0  0  0  0  0  0
  -25.4891  -15.2281   22.7696 C   0  0  1  0  0  0  0  0  0  0  0  0
  -24.1485  -29.3171   19.1578 C   0  0  1  0  0  0  0  0  0  0  0  0
  -30.9266  -23.5633   17.1523 C   0  0  2  0  0  0  0  0  0  0  0  0
  -23.5873  -21.9599   26.0966 C   0  0  0  0  0  0  0  0  0  0  0  0
  -22.1258  -17.9032   21.0689 C   0  0  0  0  0  0  0  0  0  0  0  0
  -21.8651  -20.1376   22.1679 C   0  0  0  0  0  0  0  0  0  0  0  0
  -21.1101  -18.0735   23.3479 C   0  0  0  0  0  0  0  0  0  0  0  0
  -26.8162  -20.0107   26.5974 C   0  0  0  0  0  0  0  0  0  0  0  0
  -30.8580  -20.1446   18.4592 C   0  0  0  0  0  0  0  0  0  0  0  0
  -29.7963  -19.4168   19.2694 C   0  0  0  0  0  0  0  0  0  1  0  0
  -23.5854  -18.5273   23.1051 C   0  0  1  0  0  0  0  0  0  0  0  0
  -24.4901  -20.7371   26.0493 C   0  0  2  0  0  0  0  0  0  0  0  0
  -22.1974  -18.6507   22.4154 C   0  0  0  0  0  0  0  0  0  0  0  0
  -30.7533  -25.1699   19.7082 N   0  0  0  0  0  0  0  0  0  0  0  0
  -22.2876  -28.5697   20.5925 N   0  0  0  0  0  0  0  0  0  0  0  0
  -28.5191  -25.5872   18.8546 N   0  0  0  0  0  0  0  0  0  0  0  0
  -22.9005  -28.4892   19.3992 N   0  0  0  0  0  0  0  0  0  0  0  0
  -25.1603  -16.6546   22.7351 N   0  0  0  0  0  0  0  0  0  0  0  0
  -27.9023  -28.7153   20.6119 N   0  0  0  0  0  0  0  0  0  0  0  0
  -26.1704  -30.2978   20.1749 N   0  0  0  0  0  0  0  0  0  0  0  0
  -30.3460  -21.3908   17.9107 N   0  0  1  0  0  0  0  0  0  0  0  0
  -22.7783  -27.4382   17.2800 N   0  0  0  0  0  0  0  0  0  0  0  0
  -20.5253  -24.8126   18.8372 N   0  0  0  0  0  0  0  0  0  0  0  0
  -23.9925  -13.6762   21.6698 N   0  0  0  0  0  0  0  0  0  0  0  0
  -23.6738  -19.2028   24.3952 N   0  0  0  0  0  0  0  0  0  0  0  0
  -30.5136  -24.0622   15.8191 N   0  3  0  0  0  0  0  0  0  0  0  0
  -25.8332  -21.1242   26.5661 N   0  3  0  0  0  0  0  0  0  0  0  0
  -19.2385  -26.5360   18.0417 O   0  0  0  0  0  0  0  0  0  0  0  0
  -25.4391  -15.0054   20.4195 O   0  0  0  0  0  0  0  0  0  0  0  0
  -23.2697  -16.3848   24.0727 O   0  0  0  0  0  0  0  0  0  0  0  0
  -25.4363  -20.5999   23.8304 O   0  0  0  0  0  0  0  0  0  0  0  0
  -28.0984  -30.9086   21.2693 O   0  0  0  0  0  0  0  0  0  0  0  0
  -17.6913  -26.9763   24.7018 O   0  0  0  0  0  0  0  0  0  0  0  0
  -30.3494  -18.2039   19.7627 O   0  0  0  0  0  0  0  0  0  1  0  0
  -18.0551  -22.2652   27.5439 F   0  0  0  0  0  0  0  0  0  0  0  0
  -18.2322  -26.9935   27.4129 F   0  0  0  0  0  0  0  0  0  0  0  0
  1  2  1  0  0  0  0
  1  5  2  0  0  0  0
  2  6  2  0  0  0  0
  3  8  2  0  0  0  0
  3 16  1  0  0  0  0
  4  9  1  0  0  0  0
  4 16  2  0  0  0  0
  5 18  1  0  0  0  0
  6 20  1  0  0  0  0
  7 10  2  0  0  0  0
  7 19  1  0  0  0  0
  8 23  1  0  0  0  0
  9 23  2  0  0  0  0
 10 24  1  0  0  0  0
 11 12  2  0  0  0  0
 11 25  1  0  0  0  0
 12 26  1  0  0  0  0
 13 21  1  0  0  0  0
 13 24  2  0  0  0  0
 14 26  2  0  0  0  0
 14 27  1  0  0  0  0
 15 22  1  0  0  0  0
 15 65  2  0  0  0  0
 16 28  1  0  0  0  0
 17 28  1  0  0  0  0
 17 30  2  0  0  0  0
 17 32  1  0  0  0  0
 18 20  2  0  0  0  0
 18 37  1  0  0  0  0
 19 21  2  0  0  0  0
 19 38  1  0  0  0  0
 20 50  1  0  0  0  0
 21 39  1  0  0  0  0
 22 29  2  0  0  0  0
 22 40  1  0  0  0  0
 23 84  1  0  0  0  0
 24 85  1  0  0  0  0
 25 27  2  0  0  0  0
 25 84  1  0  0  0  0
 26 86  1  0  0  0  0
 27 87  1  0  0  0  0
 28 66  2  0  0  0  0
 29 41  1  0  0  0  0
 29 67  1  0  0  0  0
 30 68  1  0  0  0  0
 30 73  1  0  0  0  0
 31 51  1  0  0  0  0
 31 65  1  0  0  0  0
 31 67  2  0  0  0  0
 32 74  1  0  0  0  0
 32 79  2  0  0  0  0
 33 52  1  0  0  0  0
 33 75  1  0  0  0  0
 33 80  2  0  0  0  0
 34 62  1  0  0  0  0
 34 69  1  0  0  0  0
 34 81  2  0  0  0  0
 35 63  1  0  0  0  0
 35 76  1  0  0  0  0
 35 82  2  0  0  0  0
 36 70  1  0  0  0  0
 36 71  1  0  0  0  0
 36 83  2  0  0  0  0
 37 42  1  0  0  0  0
 38 52  1  0  0  0  0
 39 69  1  0  0  0  0
 40 70  1  0  0  0  0
 41 70  1  0  0  0  0
 42 44  1  0  0  0  0
 43 45  1  0  0  0  0
 43 46  1  0  0  0  0
 44 50  1  0  0  0  0
 45 53  1  0  0  0  0
 46 71  1  0  0  0  0
 47 51  1  0  0  0  0
 47 72  1  0  0  0  0
 48 53  1  0  0  0  0
 48 71  1  0  0  0  0
 49 54  1  0  0  0  0
 49 72  1  0  0  0  0
 50 75  1  0  0  0  0
 51 54  1  0  0  0  0
 52 69  1  0  0  0  0
 53 68  1  0  0  0  0
 54 77  1  0  0  0  0
 55 63  1  0  0  0  0
 56 64  1  0  0  0  0
 57 64  1  0  0  0  0
 58 64  1  0  0  0  0
 59 78  1  0  0  0  0
 60 61  1  0  0  0  0
 60 72  1  0  0  0  0
 61 85  1  0  0  0  0
 62 64  1  0  0  0  0
 62 76  1  0  0  0  0
 63 78  1  0  0  0  0
 66 68  1  0  0  0  0
M  CHG  2  77   1  78   1
M  ISO  4  36 100  61 101  70 100  85 101
M  END
> <Batch ID>
0195

> <Smiles>
CNC(C)C(=O)NC(C(=O)N1Cc2cc([101O:1][101CH2:1]CN3CC(N)C(c4ncc5c(n4)C[100N:0]([100C:0](=O)N4CCCC(n6nc(-c7ccc(Oc8ccc(F)cc8F)cc7)c(C(N)=O)c6N)C4)C5)C3)ccc2CC1C(=O)NC1CCCc2ccccc21)C(C)(C)C

> <Shape>
0.227

> <Color>
0.069

> <Negative vol penalty>
0.000

$$$$

  -OEChem-04052323373D

 92102  0     1  0  0  0  0  0999 V2000
  -16.6477  -30.1968   23.0933 C   0  0  0  0  0  0  0  0  0  0  0  0
  -17.7469  -30.9877   23.4121 C   0  0  0  0  0  0  0  0  0  0  0  0
  -24.1954  -13.2364   19.7782 C   0  0  0  0  0  0  0  0  0  0  0  0
  -25.5845  -13.3753   21.7500 C   0  0  0  0  0  0  0  0  0  0  0  0
  -16.8186  -28.8357   22.8440 C   0  0  0  0  0  0  0  0  0  0  0  0
  -19.0175  -30.4177   23.4830 C   0  0  0  0  0  0  0  0  0  0  0  0
  -24.3247  -33.0487   21.9281 C   0  0  0  0  0  0  0  0  0  0  0  0
  -25.0922  -12.3318   19.2101 C   0  0  0  0  0  0  0  0  0  0  0  0
  -26.4814  -12.4707   21.1819 C   0  0  0  0  0  0  0  0  0  0  0  0
  -25.3174  -33.6745   22.6809 C   0  0  0  0  0  0  0  0  0  0  0  0
  -29.3209  -10.4745   20.1034 C   0  0  0  0  0  0  0  0  0  0  0  0
  -30.6817  -10.7661   20.1957 C   0  0  0  0  0  0  0  0  0  0  0  0
  -26.5660  -31.6113   22.7384 C   0  0  0  0  0  0  0  0  0  0  0  0
  -30.3240  -12.8217   18.9776 C   0  0  0  0  0  0  0  0  0  0  0  0
  -27.0557  -25.8541   26.8904 C   0  0  0  0  0  0  0  0  0  0  0  0
  -25.0722  -26.9359   28.3414 C   0  0  0  0  0  0  0  0  0  0  0  0
  -24.4415  -13.7582   21.0482 C   0  0  0  0  0  0  0  0  0  0  0  0
  -22.1548  -14.4754   21.9224 C   0  0  0  0  0  0  0  0  0  0  0  0
  -18.0933  -28.2506   22.9023 C   0  0  0  0  0  0  0  0  0  0  0  0
  -24.4402  -31.6943   21.5835 C   0  0  0  0  0  0  0  0  0  0  0  0
  -19.2054  -29.0472   23.2356 C   0  0  0  0  0  0  0  0  0  0  0  0
  -25.5746  -30.9714   21.9790 C   0  0  0  0  0  0  0  0  0  0  0  0
  -26.2353  -11.9489   19.9118 C   0  0  0  0  0  0  0  0  0  0  0  0
  -26.4369  -32.9551   23.0886 C   0  0  0  0  0  0  0  0  0  0  0  0
  -28.4615  -11.3565   19.4480 C   0  0  0  0  0  0  0  0  0  0  0  0
  -31.1833  -11.9397   19.6329 C   0  0  0  0  0  0  0  0  0  0  0  0
  -28.9631  -12.5301   18.8852 C   0  0  0  0  0  0  0  0  0  0  0  0
  -23.5157  -14.6932   21.6355 C   0  0  0  0  0  0  0  0  0  0  0  0
  -25.8726  -25.1859   27.1316 C   0  0  0  0  0  0  0  0  0  0  0  0
  -27.1528  -27.1147   27.4435 C   0  0  0  0  0  0  0  0  0  0  0  0
  -21.7248  -15.6607   22.4671 C   0  0  0  0  0  0  0  0  0  0  0  0
  -21.3512  -13.3063   21.7152 C   0  0  0  0  0  0  0  0  0  0  0  0
  -22.7507  -29.0722   22.1947 C   0  0  0  0  0  0  0  0  0  0  0  0
  -24.8372  -27.7138   20.1154 C   0  0  0  0  0  0  0  0  0  0  0  0
  -27.9030  -27.7959   18.6184 C   0  0  0  0  0  0  0  0  0  0  0  0
  -25.2686  -19.9169   25.0858 C   0  0  0  0  0  0  0  0  0  0  0  0
  -18.2218  -26.7658   22.6714 C   0  0  0  0  0  0  0  0  0  0  0  0
  -23.3734  -31.0410   20.7483 C   0  0  0  0  0  0  0  0  0  0  0  0
  -25.7561  -29.5205   21.6177 C   0  0  0  0  0  0  0  0  0  0  0  0
  -19.6541  -26.3133   22.3994 C   0  0  0  0  0  0  0  0  0  0  0  0
  -23.1154  -20.2917   22.0593 C   0  0  0  0  0  0  0  0  0  0  0  0
  -20.6126  -26.9410   23.4065 C   0  0  0  0  0  0  0  0  0  0  0  0
  -22.4662  -18.9191   21.8799 C   0  0  0  0  0  0  0  0  0  0  0  0
  -30.0578  -29.5164   27.7547 C   0  0  0  0  0  0  0  0  0  0  0  0
  -30.1286  -30.9997   27.3686 C   0  0  0  0  0  0  0  0  0  0  0  0
  -27.9208  -30.2106   26.8599 C   0  0  0  0  0  0  0  0  0  0  0  0
  -23.3899  -20.6163   23.5239 C   0  0  0  0  0  0  0  0  0  0  0  0
  -26.9051  -23.0539   26.3886 C   0  0  0  0  0  0  0  0  0  0  0  0
  -24.4168  -23.3850   26.2294 C   0  0  0  0  0  0  0  0  0  0  0  0
  -26.5123  -21.5807   26.3941 C   0  0  0  0  0  0  0  0  0  0  0  0
  -24.5248  -22.3444   25.1143 C   0  0  0  0  0  0  0  0  0  0  0  0
  -24.2445  -18.2675   23.5737 C   0  0  0  0  0  0  0  0  0  0  0  0
  -20.6031  -28.4705   23.2979 C   0  0  1  0  0  0  0  0  0  0  0  0
  -23.3487  -29.5224   20.8919 C   0  0  1  0  0  0  0  0  0  0  0  0
  -22.8768  -17.9153   22.9733 C   0  0  2  0  0  0  0  0  0  0  0  0
  -28.5712  -29.1463   27.7368 C   0  0  1  0  0  0  0  0  0  0  0  0
  -28.6779  -31.4545   27.2924 C   0  0  2  0  0  0  0  0  0  0  0  0
  -29.3363  -26.5299   16.9936 C   0  0  0  0  0  0  0  0  0  0  0  0
  -27.8536  -35.3438   25.3949 C   0  0  0  0  0  0  0  0  0  0  0  0
  -25.4269  -25.6289   22.2638 C   0  0  0  0  0  0  0  0  0  0  0  0
  -27.4868  -24.9985   20.9881 C   0  0  0  0  0  0  0  0  0  0  0  0
  -25.2392  -24.7125   19.9444 C   0  0  0  0  0  0  0  0  0  0  0  0
  -28.0244  -30.0934   16.7569 C   0  0  0  0  0  0  0  0  0  0  0  0
  -27.1021  -33.0165   26.1454 C   0  0  0  0  0  0  0  0  0  0  0  0
  -26.1825  -27.0398   20.2379 C   0  0  1  0  0  0  0  0  0  0  0  0
  -28.3191  -27.6471   17.1661 C   0  0  2  0  0  0  0  0  0  0  0  0
  -27.0160  -34.1098   25.0854 C   0  0  2  0  0  0  0  0  0  1  0  0
  -26.0798  -25.6217   20.8672 C   0  0  0  0  0  0  0  0  0  0  0  0
  -24.8561  -25.6987   27.8554 N   0  0  0  0  0  0  0  0  0  0  0  0
  -26.1767  -27.6886   28.1771 N   0  0  0  0  0  0  0  0  0  0  0  0
  -23.9233  -15.9203   21.9700 N   0  0  0  0  0  0  0  0  0  0  0  0
  -22.8119  -16.4844   22.4728 N   0  0  0  0  0  0  0  0  0  0  0  0
  -25.7347  -23.9091   26.5899 N   0  0  0  0  0  0  0  0  0  0  0  0
  -24.6826  -28.9246   20.8052 N   0  0  0  0  0  0  0  0  0  0  0  0
  -24.2577  -19.6131   24.1594 N   0  0  0  0  0  0  0  0  0  0  0  0
  -25.4631  -21.2645   25.4297 N   0  0  0  0  0  0  0  0  0  0  0  0
  -20.5267  -16.0683   22.9370 N   0  0  0  0  0  0  0  0  0  0  0  0
  -21.2786  -12.3549   22.7418 N   0  0  0  0  0  0  0  0  0  0  0  0
  -28.3518  -27.8348   27.2194 N   0  0  0  0  0  0  0  0  0  0  0  0
  -21.3801  -28.9009   22.1552 N   0  0  0  0  0  0  0  0  0  0  0  0
  -26.7722  -27.0602   18.9036 N   0  0  0  0  0  0  0  0  0  0  0  0
  -28.5090  -32.5501   26.3220 N   0  3  0  0  0  0  0  0  0  0  0  0
  -28.9243  -28.9147   16.6683 N   0  3  0  0  0  0  0  0  0  0  0  0
  -20.7295  -13.1031   20.6448 O   0  0  0  0  0  0  0  0  0  0  0  0
  -23.4790  -28.8922   23.1636 O   0  0  0  0  0  0  0  0  0  0  0  0
  -23.9583  -27.1889   19.4272 O   0  0  0  0  0  0  0  0  0  0  0  0
  -28.5215  -28.4919   19.4206 O   0  0  0  0  0  0  0  0  0  0  0  0
  -25.9661  -19.0232   25.5856 O   0  0  0  0  0  0  0  0  0  0  0  0
  -27.1106  -11.0660   19.3578 O   0  0  0  0  0  0  0  0  0  0  0  0
  -27.4126  -33.5669   23.8283 O   0  0  0  0  0  0  0  0  0  1  0  0
  -32.4900  -12.2203   19.7231 F   0  0  0  0  0  0  0  0  0  0  0  0
  -28.1423  -13.3818   18.2554 F   0  0  0  0  0  0  0  0  0  0  0  0
  1  2  1  0  0  0  0
  1  5  2  0  0  0  0
  2  6  2  0  0  0  0
  3  8  2  0  0  0  0
  3 17  1  0  0  0  0
  4  9  1  0  0  0  0
  4 17  2  0  0  0  0
  5 19  1  0  0  0  0
  6 21  1  0  0  0  0
  7 10  2  0  0  0  0
  7 20  1  0  0  0  0
  8 23  1  0  0  0  0
  9 23  2  0  0  0  0
 10 24  1  0  0  0  0
 11 12  2  0  0  0  0
 11 25  1  0  0  0  0
 12 26  1  0  0  0  0
 13 22  1  0  0  0  0
 13 24  2  0  0  0  0
 14 26  2  0  0  0  0
 14 27  1  0  0  0  0
 15 29  2  0  0  0  0
 15 30  1  0  0  0  0
 16 69  2  0  0  0  0
 16 70  1  0  0  0  0
 17 28  1  0  0  0  0
 18 28  1  0  0  0  0
 18 31  2  0  0  0  0
 18 32  1  0  0  0  0
 19 21  2  0  0  0  0
 19 37  1  0  0  0  0
 20 22  2  0  0  0  0
 20 38  1  0  0  0  0
 21 53  1  0  0  0  0
 22 39  1  0  0  0  0
 23 89  1  0  0  0  0
 24 90  1  0  0  0  0
 25 27  2  0  0  0  0
 25 89  1  0  0  0  0
 26 91  1  0  0  0  0
 27 92  1  0  0  0  0
 28 71  2  0  0  0  0
 29 69  1  0  0  0  0
 29 73  1  0  0  0  0
 30 70  2  0  0  0  0
 30 79  1  0  0  0  0
 31 72  1  0  0  0  0
 31 77  1  0  0  0  0
 32 78  1  0  0  0  0
 32 84  2  0  0  0  0
 33 54  1  0  0  0  0
 33 80  1  0  0  0  0
 33 85  2  0  0  0  0
 34 65  1  0  0  0  0
 34 74  1  0  0  0  0
 34 86  2  0  0  0  0
 35 66  1  0  0  0  0
 35 81  1  0  0  0  0
 35 87  2  0  0  0  0
 36 75  1  0  0  0  0
 36 76  1  0  0  0  0
 36 88  2  0  0  0  0
 37 40  1  0  0  0  0
 38 54  1  0  0  0  0
 39 74  1  0  0  0  0
 40 42  1  0  0  0  0
 41 43  1  0  0  0  0
 41 47  1  0  0  0  0
 42 53  1  0  0  0  0
 43 55  1  0  0  0  0
 44 45  1  0  0  0  0
 44 56  1  0  0  0  0
 45 57  1  0  0  0  0
 46 56  1  0  0  0  0
 46 57  1  0  0  0  0
 47 75  1  0  0  0  0
 48 50  1  0  0  0  0
 48 73  1  0  0  0  0
 49 51  1  0  0  0  0
 49 73  1  0  0  0  0
 50 76  1  0  0  0  0
 51 76  1  0  0  0  0
 52 55  1  0  0  0  0
 52 75  1  0  0  0  0
 53 80  1  0  0  0  0
 54 74  1  0  0  0  0
 55 72  1  0  0  0  0
 56 79  1  0  0  0  0
 57 82  1  0  0  0  0
 58 66  1  0  0  0  0
 59 67  1  0  0  0  0
 60 68  1  0  0  0  0
 61 68  1  0  0  0  0
 62 68  1  0  0  0  0
 63 83  1  0  0  0  0
 64 67  1  0  0  0  0
 64 82  1  0  0  0  0
 65 68  1  0  0  0  0
 65 81  1  0  0  0  0
 66 83  1  0  0  0  0
 67 90  1  0  0  0  0
 71 72  1  0  0  0  0
M  CHG  2  82   1  83   1
M  ISO  4  36 100  67 101  76 100  90 101
M  END
> <Batch ID>
0195

> <Smiles>
CNC(C)C(=O)NC(C(=O)N1Cc2cc([101O:1][101CH:1](C)CNC3CCC(Nc4cc(N5CC[100N:0]([100C:0](=O)N6CCCC(n7nc(-c8ccc(Oc9ccc(F)cc9F)cc8)c(C(N)=O)c7N)C6)CC5)ncn4)C3)ccc2CC1C(=O)NC1CCCc2ccccc21)C(C)(C)C

> <Shape>
0.259

> <Color>
0.106

> <Negative vol penalty>
0.000

$$$$

  -OEChem-04052323373D

 90 99  0     1  0  0  0  0  0999 V2000
  -15.1877  -18.9132   23.6507 C   0  0  0  0  0  0  0  0  0  0  0  0
  -16.0165  -19.9377   24.0936 C   0  0  0  0  0  0  0  0  0  0  0  0
  -26.2665  -27.8443   18.8498 C   0  0  0  0  0  0  0  0  0  0  0  0
  -26.3656  -27.4213   21.2264 C   0  0  0  0  0  0  0  0  0  0  0  0
  -15.5051  -17.5888   23.9447 C   0  0  0  0  0  0  0  0  0  0  0  0
  -17.1692  -19.6376   24.8204 C   0  0  0  0  0  0  0  0  0  0  0  0
  -24.3350  -17.0321   23.7634 C   0  0  0  0  0  0  0  0  0  0  0  0
  -25.1965  -28.7165   19.0497 C   0  0  0  0  0  0  0  0  0  0  0  0
  -25.2956  -28.2935   21.4263 C   0  0  0  0  0  0  0  0  0  0  0  0
  -24.8020  -16.1152   22.8226 C   0  0  0  0  0  0  0  0  0  0  0  0
  -21.9311  -28.2250   21.0998 C   0  0  0  0  0  0  0  0  0  0  0  0
  -20.9098  -27.8125   21.9556 C   0  0  0  0  0  0  0  0  0  0  0  0
  -23.4547  -17.1779   21.1271 C   0  0  0  0  0  0  0  0  0  0  0  0
  -21.3340  -29.7171   23.3802 C   0  0  0  0  0  0  0  0  0  0  0  0
  -30.2727  -13.5671   20.3685 C   0  0  0  0  0  0  0  0  0  0  0  0
  -26.8510  -27.1966   19.9382 C   0  0  0  0  0  0  0  0  0  0  0  0
  -29.3266  -26.6163   19.7326 C   0  0  0  0  0  0  0  0  0  0  0  0
  -16.6557  -17.2739   24.6862 C   0  0  0  0  0  0  0  0  0  0  0  0
  -23.4145  -18.0236   23.3949 C   0  0  0  0  0  0  0  0  0  0  0  0
  -17.5193  -18.3057   25.1068 C   0  0  0  0  0  0  0  0  0  0  0  0
  -22.9796  -18.1077   22.0645 C   0  0  0  0  0  0  0  0  0  0  0  0
  -24.7110  -28.9411   20.3379 C   0  0  0  0  0  0  0  0  0  0  0  0
  -24.3596  -16.1862   21.5049 C   0  0  0  0  0  0  0  0  0  0  0  0
  -22.6539  -29.3836   21.3843 C   0  0  0  0  0  0  0  0  0  0  0  0
  -20.6112  -28.5585   23.0957 C   0  0  0  0  0  0  0  0  0  0  0  0
  -22.3554  -30.1297   22.5244 C   0  0  0  0  0  0  0  0  0  0  0  0
  -27.9560  -26.2951   19.7324 C   0  0  0  0  0  0  0  0  0  0  0  0
  -28.5109  -12.7077   18.5561 C   0  0  0  0  0  0  0  0  0  0  0  0
  -29.3665  -11.8316   19.1868 C   0  0  0  0  0  0  0  0  0  0  0  0
  -29.4176  -14.4434   19.7373 C   0  0  0  0  0  0  0  0  0  0  0  0
  -29.9595  -25.4209   19.4943 C   0  0  0  0  0  0  0  0  0  0  0  0
  -29.9702  -27.8822   19.9306 C   0  0  0  0  0  0  0  0  0  0  0  0
  -20.4400  -18.7512   24.2474 C   0  0  0  0  0  0  0  0  0  0  0  0
  -20.9416  -21.3319   22.3470 C   0  0  0  0  0  0  0  0  0  0  0  0
  -22.6595  -22.7265   19.7489 C   0  0  0  0  0  0  0  0  0  0  0  0
  -29.6923  -19.9809   20.6846 C   0  0  0  0  0  0  0  0  0  0  0  0
  -16.9556  -15.8230   24.9693 C   0  0  0  0  0  0  0  0  0  0  0  0
  -22.9409  -19.0217   24.4157 C   0  0  0  0  0  0  0  0  0  0  0  0
  -22.0074  -19.1660   21.6134 C   0  0  0  0  0  0  0  0  0  0  0  0
  -17.9459  -15.6329   26.1136 C   0  0  0  0  0  0  0  0  0  0  0  0
  -28.6281  -21.0931   17.5271 C   0  0  0  0  0  0  0  0  0  0  0  0
  -19.1608  -16.5241   25.9030 C   0  0  0  0  0  0  0  0  0  0  0  0
  -28.4763  -22.5945   17.7692 C   0  0  0  0  0  0  0  0  0  0  0  0
  -28.1266  -20.2678   18.7132 C   0  0  0  0  0  0  0  0  0  0  0  0
  -30.7515  -16.5255   19.8540 C   0  0  0  0  0  0  0  0  0  0  0  0
  -28.2573  -16.5926   19.9977 C   0  0  0  0  0  0  0  0  0  0  0  0
  -30.8166  -17.7857   20.7127 C   0  0  0  0  0  0  0  0  0  0  0  0
  -28.3669  -17.8428   20.8634 C   0  0  0  0  0  0  0  0  0  0  0  0
  -28.5794  -22.1514   20.2512 C   0  0  0  0  0  0  0  0  0  0  0  0
  -18.7621  -18.0051   25.9251 C   0  0  1  0  0  0  0  0  0  0  0  0
  -21.6110  -19.6706   24.0446 C   0  0  1  0  0  0  0  0  0  0  0  0
  -29.1290  -23.0082   19.1001 C   0  0  2  0  0  0  0  0  0  0  0  0
  -30.3206   -9.9976   17.7713 C   0  0  0  0  0  0  0  0  0  0  0  0
  -23.4219  -24.5017   18.1474 C   0  0  0  0  0  0  0  0  0  0  0  0
  -18.3863  -20.5769   20.8602 C   0  0  0  0  0  0  0  0  0  0  0  0
  -19.1018  -22.0950   19.0023 C   0  0  0  0  0  0  0  0  0  0  0  0
  -18.6668  -23.0272   21.2748 C   0  0  0  0  0  0  0  0  0  0  0  0
  -24.8161  -23.6095   21.5732 C   0  0  0  0  0  0  0  0  0  0  0  0
  -27.5237  -12.2368   17.5436 C   0  0  0  0  0  0  0  0  0  0  0  0
  -26.0830  -12.1729   18.0541 C   0  0  0  0  0  0  0  0  0  0  0  0
  -24.2404  -13.5608   19.0117 C   0  0  0  0  0  0  0  0  0  0  0  0
  -23.9338  -14.9581   19.5133 C   0  0  0  0  0  0  0  0  0  1  0  0
  -29.3452  -10.3721   18.8858 C   0  0  1  0  0  0  0  0  0  0  0  0
  -20.7409  -21.6359   20.8820 C   0  0  1  0  0  0  0  0  0  0  0  0
  -23.3504  -24.0704   19.6040 C   0  0  2  0  0  0  0  0  0  0  0  0
  -19.2408  -21.8125   20.5134 C   0  0  0  0  0  0  0  0  0  0  0  0
  -30.2625  -12.2455   20.1045 N   0  0  0  0  0  0  0  0  0  0  0  0
  -27.7306  -24.9973   19.5113 N   0  0  0  0  0  0  0  0  0  0  0  0
  -28.5213  -14.0294   18.8197 N   0  0  0  0  0  0  0  0  0  0  0  0
  -28.9681  -24.4925   19.3703 N   0  0  0  0  0  0  0  0  0  0  0  0
  -29.4938  -15.8020   20.0697 N   0  0  0  0  0  0  0  0  0  0  0  0
  -21.5686  -20.1149   22.6500 N   0  0  0  0  0  0  0  0  0  0  0  0
  -28.7457  -20.7250   19.9645 N   0  0  0  0  0  0  0  0  0  0  0  0
  -29.6017  -18.5830   20.5951 N   0  0  0  0  0  0  0  0  0  0  0  0
  -31.2617  -25.0838   19.3807 N   0  0  0  0  0  0  0  0  0  0  0  0
  -29.1703  -29.0091   20.1638 N   0  0  0  0  0  0  0  0  0  0  0  0
  -19.8954  -18.8053   25.5162 N   0  0  0  0  0  0  0  0  0  0  0  0
  -21.5692  -22.8008   20.5897 N   0  0  0  0  0  0  0  0  0  0  0  0
  -24.7384  -24.0000   20.1420 N   0  3  0  0  0  0  0  0  0  0  0  0
  -25.6524  -13.5054   18.5446 N   0  3  0  0  0  0  0  0  0  0  0  0
  -31.2169  -28.0129   19.8853 O   0  0  0  0  0  0  0  0  0  0  0  0
  -20.0579  -18.0462   23.3208 O   0  0  0  0  0  0  0  0  0  0  0  0
  -20.5626  -22.1474   23.1913 O   0  0  0  0  0  0  0  0  0  0  0  0
  -23.0460  -21.7131   19.1708 O   0  0  0  0  0  0  0  0  0  0  0  0
  -30.5681  -20.5302   21.3644 O   0  0  0  0  0  0  0  0  0  0  0  0
  -23.6671  -29.7924   20.5333 O   0  0  0  0  0  0  0  0  0  0  0  0
  -24.8166  -15.2857   20.5782 O   0  0  0  0  0  0  0  0  0  1  0  0
  -19.6294  -28.1630   23.9166 F   0  0  0  0  0  0  0  0  0  0  0  0
  -23.0455  -31.2443   22.8023 F   0  0  0  0  0  0  0  0  0  0  0  0
  -29.6618   -9.5908   19.9695 F   0  0  0  0  0  0  0  0  0  0  0  0
  1  2  1  0  0  0  0
  1  5  2  0  0  0  0
  2  6  2  0  0  0  0
  3  8  2  0  0  0  0
  3 16  1  0  0  0  0
  4  9  1  0  0  0  0
  4 16  2  0  0  0  0
  5 18  1  0  0  0  0
  6 20  1  0  0  0  0
  7 10  2  0  0  0  0
  7 19  1  0  0  0  0
  8 22  1  0  0  0  0
  9 22  2  0  0  0  0
 10 23  1  0  0  0  0
 11 12  2  0  0  0  0
 11 24  1  0  0  0  0
 12 25  1  0  0  0  0
 13 21  1  0  0  0  0
 13 23  2  0  0  0  0
 14 25  2  0  0  0  0
 14 26  1  0  0  0  0
 15 30  1  0  0  0  0
 15 67  2  0  0  0  0
 16 27  1  0  0  0  0
 17 27  1  0  0  0  0
 17 31  2  0  0  0  0
 17 32  1  0  0  0  0
 18 20  2  0  0  0  0
 18 37  1  0  0  0  0
 19 21  2  0  0  0  0
 19 38  1  0  0  0  0
 20 50  1  0  0  0  0
 21 39  1  0  0  0  0
 22 86  1  0  0  0  0
 23 87  1  0  0  0  0
 24 26  2  0  0  0  0
 24 86  1  0  0  0  0
 25 88  1  0  0  0  0
 26 89  1  0  0  0  0
 27 68  2  0  0  0  0
 28 29  2  0  0  0  0
 28 59  1  0  0  0  0
 28 69  1  0  0  0  0
 29 63  1  0  0  0  0
 29 67  1  0  0  0  0
 30 69  2  0  0  0  0
 30 71  1  0  0  0  0
 31 70  1  0  0  0  0
 31 75  1  0  0  0  0
 32 76  1  0  0  0  0
 32 81  2  0  0  0  0
 33 51  1  0  0  0  0
 33 77  1  0  0  0  0
 33 82  2  0  0  0  0
 34 64  1  0  0  0  0
 34 72  1  0  0  0  0
 34 83  2  0  0  0  0
 35 65  1  0  0  0  0
 35 78  1  0  0  0  0
 35 84  2  0  0  0  0
 36 73  1  0  0  0  0
 36 74  1  0  0  0  0
 36 85  2  0  0  0  0
 37 40  1  0  0  0  0
 38 51  1  0  0  0  0
 39 72  1  0  0  0  0
 40 42  1  0  0  0  0
 41 43  1  0  0  0  0
 41 44  1  0  0  0  0
 42 50  1  0  0  0  0
 43 52  1  0  0  0  0
 44 73  1  0  0  0  0
 45 47  1  0  0  0  0
 45 71  1  0  0  0  0
 46 48  1  0  0  0  0
 46 71  1  0  0  0  0
 47 74  1  0  0  0  0
 48 74  1  0  0  0  0
 49 52  1  0  0  0  0
 49 73  1  0  0  0  0
 50 77  1  0  0  0  0
 51 72  1  0  0  0  0
 52 70  1  0  0  0  0
 53 63  1  0  0  0  0
 54 65  1  0  0  0  0
 55 66  1  0  0  0  0
 56 66  1  0  0  0  0
 57 66  1  0  0  0  0
 58 79  1  0  0  0  0
 59 60  1  0  0  0  0
 60 80  1  0  0  0  0
 61 62  1  0  0  0  0
 61 80  1  0  0  0  0
 62 87  1  0  0  0  0
 63 90  1  0  0  0  0
 64 66  1  0  0  0  0
 64 78  1  0  0  0  0
 65 79  1  0  0  0  0
 68 70  1  0  0  0  0
M  CHG  2  79   1  80   1
M  ISO  4  36 100  62 101  74 100  87 101
M  END
> <Batch ID>
0195

> <Smiles>
CNC(C)C(=O)NC(C(=O)N1Cc2cc([101O:1][101CH2:1]CNCCc3nc(N4CC[100N:0]([100C:0](=O)N5CCCC(n6nc(-c7ccc(Oc8ccc(F)cc8F)cc7)c(C(N)=O)c6N)C5)CC4)cnc3C(C)F)ccc2CC1C(=O)NC1CCCc2ccccc21)C(C)(C)C

> <Shape>
0.226

> <Color>
0.057

> <Negative vol penalty>
0.000

$$$$

  -OEChem-04052323373D

 84 93  0     1  0  0  0  0  0999 V2000
  -24.2069  -37.2950   16.9593 C   0  0  0  0  0  0  0  0  0  0  0  0
  -24.4167  -35.9690   16.5946 C   0  0  0  0  0  0  0  0  0  0  0  0
  -23.1506  -10.7254   21.7501 C   0  0  0  0  0  0  0  0  0  0  0  0
  -24.5591   -8.8721   21.1035 C   0  0  0  0  0  0  0  0  0  0  0  0
  -24.5828  -37.7358   18.2275 C   0  0  0  0  0  0  0  0  0  0  0  0
  -25.0035  -35.0832   17.4975 C   0  0  0  0  0  0  0  0  0  0  0  0
  -23.7691  -29.1185   18.1335 C   0  0  0  0  0  0  0  0  0  0  0  0
  -22.0177   -9.9455   21.5178 C   0  0  0  0  0  0  0  0  0  0  0  0
  -23.4263   -8.0921   20.8712 C   0  0  0  0  0  0  0  0  0  0  0  0
  -24.4052  -27.9730   17.6572 C   0  0  0  0  0  0  0  0  0  0  0  0
  -21.1939   -6.3373   22.7035 C   0  0  0  0  0  0  0  0  0  0  0  0
  -21.1970   -5.0308   23.1921 C   0  0  0  0  0  0  0  0  0  0  0  0
  -25.5862  -27.7657   19.7504 C   0  0  0  0  0  0  0  0  0  0  0  0
  -20.9176   -4.1896   20.9446 C   0  0  0  0  0  0  0  0  0  0  0  0
  -24.4213  -10.1887   21.5429 C   0  0  0  0  0  0  0  0  0  0  0  0
  -26.3073  -11.1167   22.9884 C   0  0  0  0  0  0  0  0  0  0  0  0
  -25.1658  -36.8526   19.1499 C   0  0  0  0  0  0  0  0  0  0  0  0
  -24.0453  -29.6032   19.4200 C   0  0  0  0  0  0  0  0  0  0  0  0
  -25.3888  -35.5128   18.7788 C   0  0  0  0  0  0  0  0  0  0  0  0
  -24.9503  -28.9161   20.2416 C   0  0  0  0  0  0  0  0  0  0  0  0
  -22.1555   -8.6289   21.0784 C   0  0  0  0  0  0  0  0  0  0  0  0
  -25.3161  -27.2980   18.4645 C   0  0  0  0  0  0  0  0  0  0  0  0
  -21.0525   -6.5699   21.3354 C   0  0  0  0  0  0  0  0  0  0  0  0
  -21.0589   -3.9570   22.3127 C   0  0  0  0  0  0  0  0  0  0  0  0
  -20.9144   -5.4961   20.4560 C   0  0  0  0  0  0  0  0  0  0  0  0
  -25.5919  -10.9940   21.7822 C   0  0  0  0  0  0  0  0  0  0  0  0
  -27.3254  -11.9912   22.6964 C   0  0  0  0  0  0  0  0  0  0  0  0
  -26.0727  -10.4956   24.2592 C   0  0  0  0  0  0  0  0  0  0  0  0
  -25.2712  -32.2933   20.5881 C   0  0  0  0  0  0  0  0  0  0  0  0
  -24.4685  -30.9637   23.4359 C   0  0  0  0  0  0  0  0  0  0  0  0
  -23.8148  -28.1362   25.2316 C   0  0  0  0  0  0  0  0  0  0  0  0
  -29.2817  -16.4939   20.5242 C   0  0  0  0  0  0  0  0  0  0  0  0
  -25.5988  -37.3865   20.4923 C   0  0  0  0  0  0  0  0  0  0  0  0
  -23.3307  -30.8250   19.9289 C   0  0  0  0  0  0  0  0  0  0  0  0
  -25.2665  -29.3839   21.6379 C   0  0  0  0  0  0  0  0  0  0  0  0
  -25.8718  -36.2942   21.5231 C   0  0  0  0  0  0  0  0  0  0  0  0
  -28.9462  -13.8166   18.2740 C   0  0  0  0  0  0  0  0  0  0  0  0
  -26.7240  -35.1857   20.9133 C   0  0  0  0  0  0  0  0  0  0  0  0
  -28.0931  -12.8429   19.0865 C   0  0  0  0  0  0  0  0  0  0  0  0
  -28.6252  -21.9475   20.7306 C   0  0  0  0  0  0  0  0  0  0  0  0
  -28.4900  -15.2657   18.4530 C   0  0  0  0  0  0  0  0  0  0  0  0
  -27.7699  -23.1317   20.2832 C   0  0  0  0  0  0  0  0  0  0  0  0
  -29.1626  -18.1351   18.5962 C   0  0  0  0  0  0  0  0  0  0  0  0
  -30.9860  -18.2692   20.2531 C   0  0  0  0  0  0  0  0  0  0  0  0
  -27.5549  -14.7250   20.6784 C   0  0  0  0  0  0  0  0  0  0  0  0
  -28.7696  -19.5777   18.8979 C   0  0  0  0  0  0  0  0  0  0  0  0
  -30.6065  -19.7003   20.5972 C   0  0  0  0  0  0  0  0  0  0  0  0
  -25.9999  -34.5157   19.7392 C   0  0  1  0  0  0  0  0  0  0  0  0
  -24.0733  -31.5218   21.0649 C   0  0  1  0  0  0  0  0  0  0  0  0
  -28.0268  -13.2673   20.5643 C   0  0  1  0  0  0  0  0  0  0  0  0
  -29.6569  -21.7932   19.6252 C   0  0  2  0  0  0  0  0  0  0  0  0
  -29.0052  -22.4397   18.4082 C   0  0  2  0  0  0  0  0  0  0  0  0
  -30.0181  -22.7959   17.3259 C   0  0  0  0  0  0  0  0  0  0  0  0
  -23.2260  -27.3643   27.5457 C   0  0  0  0  0  0  0  0  0  0  0  0
  -27.3542  -31.4156   24.3183 C   0  0  0  0  0  0  0  0  0  0  0  0
  -26.9572  -29.8108   26.1986 C   0  0  0  0  0  0  0  0  0  0  0  0
  -25.6376  -31.9235   26.0647 C   0  0  0  0  0  0  0  0  0  0  0  0
  -21.2583  -26.9607   24.3144 C   0  0  0  0  0  0  0  0  0  0  0  0
  -27.4273  -24.3054   18.1925 C   0  0  0  0  0  0  0  0  0  0  0  0
  -26.8601  -25.5376   18.8804 C   0  0  0  0  0  0  0  0  0  1  0  0
  -25.1605  -30.0583   24.4260 C   0  0  1  0  0  0  0  0  0  0  0  0
  -22.6883  -27.7880   26.1877 C   0  0  2  0  0  0  0  0  0  0  0  0
  -26.2731  -30.7941   25.2249 C   0  0  0  0  0  0  0  0  0  0  0  0
  -26.1113  -11.7317   20.7973 N   0  0  0  0  0  0  0  0  0  0  0  0
  -27.1639  -12.3264   21.3842 N   0  0  0  0  0  0  0  0  0  0  0  0
  -24.5468  -30.5870   22.0877 N   0  0  0  0  0  0  0  0  0  0  0  0
  -28.4025  -15.6118   19.8785 N   0  0  0  0  0  0  0  0  0  0  0  0
  -29.8358  -17.5227   19.7480 N   0  0  0  0  0  0  0  0  0  0  0  0
  -28.3907  -23.6176   19.0425 N   0  0  1  0  0  0  0  0  0  0  0  0
  -28.3339  -12.4985   23.4366 N   0  0  0  0  0  0  0  0  0  0  0  0
  -24.9825   -9.6239   24.3857 N   0  0  0  0  0  0  0  0  0  0  0  0
  -24.9926  -33.5970   20.2246 N   0  0  0  0  0  0  0  0  0  0  0  0
  -24.1088  -29.4831   25.2575 N   0  0  0  0  0  0  0  0  0  0  0  0
  -29.9760  -20.3442   19.3845 N   0  3  0  0  0  0  0  0  0  0  0  0
  -21.8685  -26.6717   25.6377 N   0  3  0  0  0  0  0  0  0  0  0  0
  -26.7983  -10.7201   25.2575 O   0  0  0  0  0  0  0  0  0  0  0  0
  -26.3675  -31.7467   20.5540 O   0  0  0  0  0  0  0  0  0  0  0  0
  -23.8741  -31.9644   23.8445 O   0  0  0  0  0  0  0  0  0  0  0  0
  -24.3802  -27.2966   24.5345 O   0  0  0  0  0  0  0  0  0  0  0  0
  -29.5554  -16.3699   21.7247 O   0  0  0  0  0  0  0  0  0  0  0  0
  -21.0503   -7.8675   20.8518 O   0  0  0  0  0  0  0  0  0  0  0  0
  -25.9434  -26.1720   17.9985 O   0  0  0  0  0  0  0  0  0  1  0  0
  -21.0635   -2.7024   22.7819 F   0  0  0  0  0  0  0  0  0  0  0  0
  -20.7794   -5.7132   19.1405 F   0  0  0  0  0  0  0  0  0  0  0  0
  1  2  1  0  0  0  0
  1  5  2  0  0  0  0
  2  6  2  0  0  0  0
  3  8  2  0  0  0  0
  3 15  1  0  0  0  0
  4  9  1  0  0  0  0
  4 15  2  0  0  0  0
  5 17  1  0  0  0  0
  6 19  1  0  0  0  0
  7 10  2  0  0  0  0
  7 18  1  0  0  0  0
  8 21  1  0  0  0  0
  9 21  2  0  0  0  0
 10 22  1  0  0  0  0
 11 12  2  0  0  0  0
 11 23  1  0  0  0  0
 12 24  1  0  0  0  0
 13 20  1  0  0  0  0
 13 22  2  0  0  0  0
 14 24  2  0  0  0  0
 14 25  1  0  0  0  0
 15 26  1  0  0  0  0
 16 26  1  0  0  0  0
 16 27  2  0  0  0  0
 16 28  1  0  0  0  0
 17 19  2  0  0  0  0
 17 33  1  0  0  0  0
 18 20  2  0  0  0  0
 18 34  1  0  0  0  0
 19 48  1  0  0  0  0
 20 35  1  0  0  0  0
 21 81  1  0  0  0  0
 22 82  1  0  0  0  0
 23 25  2  0  0  0  0
 23 81  1  0  0  0  0
 24 83  1  0  0  0  0
 25 84  1  0  0  0  0
 26 64  2  0  0  0  0
 27 65  1  0  0  0  0
 27 70  1  0  0  0  0
 28 71  1  0  0  0  0
 28 76  2  0  0  0  0
 29 49  1  0  0  0  0
 29 72  1  0  0  0  0
 29 77  2  0  0  0  0
 30 61  1  0  0  0  0
 30 66  1  0  0  0  0
 30 78  2  0  0  0  0
 31 62  1  0  0  0  0
 31 73  1  0  0  0  0
 31 79  2  0  0  0  0
 32 67  1  0  0  0  0
 32 68  1  0  0  0  0
 32 80  2  0  0  0  0
 33 36  1  0  0  0  0
 34 49  1  0  0  0  0
 35 66  1  0  0  0  0
 36 38  1  0  0  0  0
 37 39  1  0  0  0  0
 37 41  1  0  0  0  0
 38 48  1  0  0  0  0
 39 50  1  0  0  0  0
 40 42  1  0  0  0  0
 40 51  1  0  0  0  0
 41 67  1  0  0  0  0
 42 69  1  0  0  0  0
 43 46  1  0  0  0  0
 43 68  1  0  0  0  0
 44 47  1  0  0  0  0
 44 68  1  0  0  0  0
 45 50  1  0  0  0  0
 45 67  1  0  0  0  0
 46 74  1  0  0  0  0
 47 74  1  0  0  0  0
 48 72  1  0  0  0  0
 49 66  1  0  0  0  0
 50 65  1  0  0  0  0
 51 52  1  0  0  0  0
 51 74  1  0  0  0  0
 52 53  1  0  0  0  0
 52 69  1  0  0  0  0
 54 62  1  0  0  0  0
 55 63  1  0  0  0  0
 56 63  1  0  0  0  0
 57 63  1  0  0  0  0
 58 75  1  0  0  0  0
 59 60  1  0  0  0  0
 59 69  1  0  0  0  0
 60 82  1  0  0  0  0
 61 63  1  0  0  0  0
 61 73  1  0  0  0  0
 62 75  1  0  0  0  0
 64 65  1  0  0  0  0
M  CHG  2  74   1  75   1
M  ISO  4  32 100  60 101  68 100  82 101
M  END
> <Batch ID>
0195

> <Smiles>
CNC(C)C(=O)NC(C(=O)N1Cc2cc([101O:1][101CH2:1]CN3CCC(N4CC[100N:0]([100C:0](=O)N5CCCC(n6nc(-c7ccc(Oc8ccc(F)cc8F)cc7)c(C(N)=O)c6N)C5)CC4)C3C)ccc2CC1C(=O)NC1CCCc2ccccc21)C(C)(C)C

> <Shape>
0.278

> <Color>
0.090

> <Negative vol penalty>
0.000

$$$$

  -OEChem-04052323373D

 87 96  0     1  0  0  0  0  0999 V2000
  -24.0563  -21.7709   16.8220 C   0  0  0  0  0  0  0  0  0  0  0  0
  -23.6080  -22.7715   17.6783 C   0  0  0  0  0  0  0  0  0  0  0  0
  -26.7684  -18.4719   21.3182 C   0  0  0  0  0  0  0  0  0  0  0  0
  -28.3006  -17.1074   20.0425 C   0  0  0  0  0  0  0  0  0  0  0  0
  -23.3573  -20.5680   16.7309 C   0  0  0  0  0  0  0  0  0  0  0  0
  -22.4597  -22.5701   18.4433 C   0  0  0  0  0  0  0  0  0  0  0  0
  -23.0364  -24.0711   23.2453 C   0  0  0  0  0  0  0  0  0  0  0  0
  -24.7452  -31.1581   21.1012 C   0  0  0  0  0  0  0  0  0  0  0  0
  -25.7762  -17.5042   21.1617 C   0  0  0  0  0  0  0  0  0  0  0  0
  -27.3084  -16.1396   19.8860 C   0  0  0  0  0  0  0  0  0  0  0  0
  -22.9564  -25.4398   23.4986 C   0  0  0  0  0  0  0  0  0  0  0  0
  -25.2895  -13.1466   19.4569 C   0  0  0  0  0  0  0  0  0  0  0  0
  -25.6460  -11.8130   19.6568 C   0  0  0  0  0  0  0  0  0  0  0  0
  -26.0194  -30.6124   21.2104 C   0  0  0  0  0  0  0  0  0  0  0  0
  -20.6801  -25.1619   24.2474 C   0  0  0  0  0  0  0  0  0  0  0  0
  -26.2903  -12.3257   21.9282 C   0  0  0  0  0  0  0  0  0  0  0  0
  -23.9161  -28.9881   20.5913 C   0  0  0  0  0  0  0  0  0  0  0  0
  -28.0306  -18.2736   20.7586 C   0  0  0  0  0  0  0  0  0  0  0  0
  -30.0008  -19.3620   21.9591 C   0  0  0  0  0  0  0  0  0  0  0  0
  -22.2053  -20.3481   17.5023 C   0  0  0  0  0  0  0  0  0  0  0  0
  -21.9335  -23.2379   23.4813 C   0  0  0  0  0  0  0  0  0  0  0  0
  -21.7438  -21.3636   18.3615 C   0  0  0  0  0  0  0  0  0  0  0  0
  -20.7496  -23.7827   23.9987 C   0  0  0  0  0  0  0  0  0  0  0  0
  -23.6681  -30.3373   20.7861 C   0  0  0  0  0  0  0  0  0  0  0  0
  -26.0462  -16.3380   20.4456 C   0  0  0  0  0  0  0  0  0  0  0  0
  -21.7772  -25.9859   23.9969 C   0  0  0  0  0  0  0  0  0  0  0  0
  -25.4334  -14.0698   20.4926 C   0  0  0  0  0  0  0  0  0  0  0  0
  -26.1464  -11.4025   20.8924 C   0  0  0  0  0  0  0  0  0  0  0  0
  -25.9338  -13.6594   21.7283 C   0  0  0  0  0  0  0  0  0  0  0  0
  -29.0558  -19.2732   20.9194 C   0  0  0  0  0  0  0  0  0  0  0  0
  -26.1621  -29.2508   20.9969 C   0  0  0  0  0  0  0  0  0  0  0  0
  -30.7422  -20.4775   21.6548 C   0  0  0  0  0  0  0  0  0  0  0  0
  -30.1915  -18.5122   23.0980 C   0  0  0  0  0  0  0  0  0  0  0  0
  -20.0996  -21.3775   21.6704 C   0  0  0  0  0  0  0  0  0  0  0  0
  -18.8198  -20.5228   24.5260 C   0  0  0  0  0  0  0  0  0  0  0  0
  -18.2265  -21.3219   27.7904 C   0  0  0  0  0  0  0  0  0  0  0  0
  -29.2691  -25.2899   18.2374 C   0  0  0  0  0  0  0  0  0  0  0  0
  -21.4563  -19.0497   17.3347 C   0  0  0  0  0  0  0  0  0  0  0  0
  -22.0447  -21.7594   23.2282 C   0  0  0  0  0  0  0  0  0  0  0  0
  -19.5437  -22.9280   24.2883 C   0  0  0  0  0  0  0  0  0  0  0  0
  -20.4607  -18.7715   18.4579 C   0  0  0  0  0  0  0  0  0  0  0  0
  -32.2069  -23.1102   17.9356 C   0  0  0  0  0  0  0  0  0  0  0  0
  -19.6287  -20.0152   18.7541 C   0  0  0  0  0  0  0  0  0  0  0  0
  -31.7884  -21.8669   18.7216 C   0  0  0  0  0  0  0  0  0  0  0  0
  -29.1092  -26.9616   21.5080 C   0  0  0  0  0  0  0  0  0  0  0  0
  -31.0104  -23.8139   17.2994 C   0  0  0  0  0  0  0  0  0  0  0  0
  -29.4437  -25.6716   20.7662 C   0  0  0  0  0  0  0  0  0  0  0  0
  -29.5044  -22.8935   19.0192 C   0  0  0  0  0  0  0  0  0  0  0  0
  -27.9196  -26.9785   19.4493 C   0  0  0  0  0  0  0  0  0  0  0  0
  -20.5164  -21.1732   19.2260 C   0  0  1  0  0  0  0  0  0  0  0  0
  -20.6920  -21.0854   23.0200 C   0  0  1  0  0  0  0  0  0  0  0  0
  -30.6728  -22.1973   19.7306 C   0  0  1  0  0  0  0  0  0  0  0  0
  -27.7511  -27.3287   20.9201 C   0  0  2  0  0  0  0  0  0  0  0  0
  -17.1239  -20.4405   29.8651 C   0  0  0  0  0  0  0  0  0  0  0  0
  -16.0860  -21.2325   23.3716 C   0  0  0  0  0  0  0  0  0  0  0  0
  -15.1825  -21.2518   25.7064 C   0  0  0  0  0  0  0  0  0  0  0  0
  -16.1258  -19.1484   24.7533 C   0  0  0  0  0  0  0  0  0  0  0  0
  -20.7820  -21.3099   29.2832 C   0  0  0  0  0  0  0  0  0  0  0  0
  -22.2933  -30.8912   20.6614 C   0  0  0  0  0  0  0  0  0  0  0  0
  -21.4923  -30.8900   21.9662 C   0  0  0  0  0  0  0  0  0  0  0  0
  -20.5761  -29.3942   23.7444 C   0  0  0  0  0  0  0  0  0  0  0  0
  -20.4145  -27.9317   24.1094 C   0  0  0  0  0  0  0  0  0  1  0  0
  -17.6886  -21.0325   25.3860 C   0  0  1  0  0  0  0  0  0  0  0  0
  -18.4182  -20.5310   29.0719 C   0  0  2  0  0  0  0  0  0  0  0  0
  -16.2926  -20.6830   24.7972 C   0  0  0  0  0  0  0  0  0  0  0  0
  -25.1397  -28.4217   20.6890 N   0  0  0  0  0  0  0  0  0  0  0  0
  -29.1829  -20.2541   20.0219 N   0  0  0  0  0  0  0  0  0  0  0  0
  -30.2165  -20.9700   20.4967 N   0  0  0  0  0  0  0  0  0  0  0  0
  -19.6998  -21.4892   24.0183 N   0  0  0  0  0  0  0  0  0  0  0  0
  -29.9692  -24.0798   18.2924 N   0  0  0  0  0  0  0  0  0  0  0  0
  -28.8385  -25.8427   19.4428 N   0  0  0  0  0  0  0  0  0  0  0  0
  -31.7860  -21.0753   22.2676 N   0  0  0  0  0  0  0  0  0  0  0  0
  -29.3417  -17.4093   23.2584 N   0  0  0  0  0  0  0  0  0  0  0  0
  -27.4403  -28.7209   21.1102 N   0  0  0  0  0  0  0  0  0  0  0  0
  -20.8956  -20.9878   20.6103 N   0  0  0  0  0  0  0  0  0  0  0  0
  -17.9224  -20.5016   26.7246 N   0  0  0  0  0  0  0  0  0  0  0  0
  -19.4511  -21.1774   29.9299 N   0  3  0  0  0  0  0  0  0  0  0  0
  -21.2976  -29.4999   22.4469 N   0  3  0  0  0  0  0  0  0  0  0  0
  -31.0784  -18.7339   23.9569 O   0  0  0  0  0  0  0  0  0  0  0  0
  -19.0009  -21.9152   21.5964 O   0  0  0  0  0  0  0  0  0  0  0  0
  -18.9232  -19.3113   24.3183 O   0  0  0  0  0  0  0  0  0  0  0  0
  -18.3322  -22.5454   27.7406 O   0  0  0  0  0  0  0  0  0  0  0  0
  -29.0780  -25.8753   17.1633 O   0  0  0  0  0  0  0  0  0  0  0  0
  -25.0783  -15.3933   20.2929 O   0  0  0  0  0  0  0  0  0  0  0  0
  -21.6955  -27.3311   24.2462 O   0  0  0  0  0  0  0  0  0  1  0  0
  -26.4873  -10.1215   21.0847 F   0  0  0  0  0  0  0  0  0  0  0  0
  -26.0732  -14.5414   22.7274 F   0  0  0  0  0  0  0  0  0  0  0  0
  1  2  1  0  0  0  0
  1  5  2  0  0  0  0
  2  6  2  0  0  0  0
  3  9  2  0  0  0  0
  3 18  1  0  0  0  0
  4 10  1  0  0  0  0
  4 18  2  0  0  0  0
  5 20  1  0  0  0  0
  6 22  1  0  0  0  0
  7 11  2  0  0  0  0
  7 21  1  0  0  0  0
  8 14  2  0  0  0  0
  8 24  1  0  0  0  0
  9 25  1  0  0  0  0
 10 25  2  0  0  0  0
 11 26  1  0  0  0  0
 12 13  2  0  0  0  0
 12 27  1  0  0  0  0
 13 28  1  0  0  0  0
 14 31  1  0  0  0  0
 15 23  1  0  0  0  0
 15 26  2  0  0  0  0
 16 28  2  0  0  0  0
 16 29  1  0  0  0  0
 17 24  2  0  0  0  0
 17 66  1  0  0  0  0
 18 30  1  0  0  0  0
 19 30  1  0  0  0  0
 19 32  2  0  0  0  0
 19 33  1  0  0  0  0
 20 22  2  0  0  0  0
 20 38  1  0  0  0  0
 21 23  2  0  0  0  0
 21 39  1  0  0  0  0
 22 50  1  0  0  0  0
 23 40  1  0  0  0  0
 24 59  1  0  0  0  0
 25 84  1  0  0  0  0
 26 85  1  0  0  0  0
 27 29  2  0  0  0  0
 27 84  1  0  0  0  0
 28 86  1  0  0  0  0
 29 87  1  0  0  0  0
 30 67  2  0  0  0  0
 31 66  2  0  0  0  0
 31 74  1  0  0  0  0
 32 68  1  0  0  0  0
 32 72  1  0  0  0  0
 33 73  1  0  0  0  0
 33 79  2  0  0  0  0
 34 51  1  0  0  0  0
 34 75  1  0  0  0  0
 34 80  2  0  0  0  0
 35 63  1  0  0  0  0
 35 69  1  0  0  0  0
 35 81  2  0  0  0  0
 36 64  1  0  0  0  0
 36 76  1  0  0  0  0
 36 82  2  0  0  0  0
 37 70  1  0  0  0  0
 37 71  1  0  0  0  0
 37 83  2  0  0  0  0
 38 41  1  0  0  0  0
 39 51  1  0  0  0  0
 40 69  1  0  0  0  0
 41 43  1  0  0  0  0
 42 44  1  0  0  0  0
 42 46  1  0  0  0  0
 43 50  1  0  0  0  0
 44 52  1  0  0  0  0
 45 47  1  0  0  0  0
 45 53  1  0  0  0  0
 46 70  1  0  0  0  0
 47 71  1  0  0  0  0
 48 52  1  0  0  0  0
 48 70  1  0  0  0  0
 49 53  1  0  0  0  0
 49 71  1  0  0  0  0
 50 75  1  0  0  0  0
 51 69  1  0  0  0  0
 52 68  1  0  0  0  0
 53 74  1  0  0  0  0
 54 64  1  0  0  0  0
 55 65  1  0  0  0  0
 56 65  1  0  0  0  0
 57 65  1  0  0  0  0
 58 77  1  0  0  0  0
 59 60  1  0  0  0  0
 60 78  1  0  0  0  0
 61 62  1  0  0  0  0
 61 78  1  0  0  0  0
 62 85  1  0  0  0  0
 63 65  1  0  0  0  0
 63 76  1  0  0  0  0
 64 77  1  0  0  0  0
 67 68  1  0  0  0  0
M  CHG  2  77   1  78   1
M  ISO  4  37 100  62 101  71 100  85 101
M  END
> <Batch ID>
0195

> <Smiles>
CNC(C)C(=O)NC(C(=O)N1Cc2cc([101O:1][101CH2:1]CNCCc3ccc(NC4CC[100N:0]([100C:0](=O)N5CCCC(n6nc(-c7ccc(Oc8ccc(F)cc8F)cc7)c(C(N)=O)c6N)C5)C4)nc3)ccc2CC1C(=O)NC1CCCc2ccccc21)C(C)(C)C

> <Shape>
0.190

> <Color>
0.081

> <Negative vol penalty>
0.000

$$$$

  -OEChem-04052323373D

 83 92  0     1  0  0  0  0  0999 V2000
  -28.5613  -33.5293   10.6445 C   0  0  0  0  0  0  0  0  0  0  0  0
  -29.5074  -32.9939   11.5126 C   0  0  0  0  0  0  0  0  0  0  0  0
  -23.0713   -9.8383   20.1181 C   0  0  0  0  0  0  0  0  0  0  0  0
  -23.7999  -10.0345   22.4132 C   0  0  0  0  0  0  0  0  0  0  0  0
  -27.2090  -33.2423   10.8260 C   0  0  0  0  0  0  0  0  0  0  0  0
  -29.1016  -32.1721   12.5635 C   0  0  0  0  0  0  0  0  0  0  0  0
  -31.2832  -26.5310   16.4021 C   0  0  0  0  0  0  0  0  0  0  0  0
  -22.3135   -8.7167   20.4545 C   0  0  0  0  0  0  0  0  0  0  0  0
  -23.0421   -8.9129   22.7497 C   0  0  0  0  0  0  0  0  0  0  0  0
  -31.4644  -26.1344   17.7264 C   0  0  0  0  0  0  0  0  0  0  0  0
  -19.7988   -8.1953   23.3715 C   0  0  0  0  0  0  0  0  0  0  0  0
  -19.0256   -8.2613   24.5306 C   0  0  0  0  0  0  0  0  0  0  0  0
  -29.1086  -25.6434   17.8953 C   0  0  0  0  0  0  0  0  0  0  0  0
  -20.2390   -6.3837   25.4469 C   0  0  0  0  0  0  0  0  0  0  0  0
  -23.8146  -10.4973   21.0974 C   0  0  0  0  0  0  0  0  0  0  0  0
  -24.1813  -13.0002   20.7679 C   0  0  0  0  0  0  0  0  0  0  0  0
  -26.7874  -32.4087   11.8738 C   0  0  0  0  0  0  0  0  0  0  0  0
  -30.0094  -26.4970   15.8169 C   0  0  0  0  0  0  0  0  0  0  0  0
  -27.7423  -31.8748   12.7600 C   0  0  0  0  0  0  0  0  0  0  0  0
  -28.9144  -26.0376   16.5626 C   0  0  0  0  0  0  0  0  0  0  0  0
  -22.2988   -8.2540   21.7703 C   0  0  0  0  0  0  0  0  0  0  0  0
  -30.3765  -25.6933   18.4741 C   0  0  0  0  0  0  0  0  0  0  0  0
  -20.7920   -7.2234   23.2501 C   0  0  0  0  0  0  0  0  0  0  0  0
  -19.2458   -7.3556   25.5683 C   0  0  0  0  0  0  0  0  0  0  0  0
  -21.0121   -6.3177   24.2878 C   0  0  0  0  0  0  0  0  0  0  0  0
  -24.5980  -11.6556   20.7504 C   0  0  0  0  0  0  0  0  0  0  0  0
  -25.2851  -13.7072   20.3579 C   0  0  0  0  0  0  0  0  0  0  0  0
  -22.9100  -13.5600   21.1232 C   0  0  0  0  0  0  0  0  0  0  0  0
  -28.0512  -28.6729   14.5781 C   0  0  0  0  0  0  0  0  0  0  0  0
  -26.2920  -26.0674   13.7787 C   0  0  0  0  0  0  0  0  0  0  0  0
  -25.4995  -22.8060   14.3964 C   0  0  0  0  0  0  0  0  0  0  0  0
  -30.7681  -14.7033   20.5191 C   0  0  0  0  0  0  0  0  0  0  0  0
  -25.3104  -32.1653   12.0584 C   0  0  0  0  0  0  0  0  0  0  0  0
  -29.8353  -26.9028   14.3790 C   0  0  0  0  0  0  0  0  0  0  0  0
  -27.5298  -25.9629   15.9747 C   0  0  0  0  0  0  0  0  0  0  0  0
  -24.9974  -30.9829   12.9718 C   0  0  0  0  0  0  0  0  0  0  0  0
  -29.6502  -12.1242   18.3488 C   0  0  0  0  0  0  0  0  0  0  0  0
  -25.8504  -31.0437   14.2350 C   0  0  0  0  0  0  0  0  0  0  0  0
  -28.2033  -11.8808   18.7816 C   0  0  0  0  0  0  0  0  0  0  0  0
  -29.1260  -20.9431   21.6393 C   0  0  0  0  0  0  0  0  0  0  0  0
  -30.3541  -20.7020   19.4402 C   0  0  0  0  0  0  0  0  0  0  0  0
  -30.5503  -12.4399   19.5415 C   0  0  0  0  0  0  0  0  0  0  0  0
  -28.6361  -13.3013   20.8299 C   0  0  0  0  0  0  0  0  0  0  0  0
  -30.1570  -21.9710   22.0910 C   0  0  0  0  0  0  0  0  0  0  0  0
  -31.3753  -21.7319   19.9092 C   0  0  0  0  0  0  0  0  0  0  0  0
  -29.9560  -18.0933   22.1361 C   0  0  0  0  0  0  0  0  0  0  0  0
  -30.9970  -17.9323   20.3344 C   0  0  0  0  0  0  0  0  0  0  0  0
  -27.3437  -30.9590   13.8969 C   0  0  1  0  0  0  0  0  0  0  0  0
  -28.4051  -27.3141   14.0432 C   0  0  1  0  0  0  0  0  0  0  0  0
  -27.6775  -13.0348   19.6566 C   0  0  2  0  0  0  0  0  0  0  0  0
  -30.8567  -16.9936   21.5461 C   0  0  0  0  0  0  0  0  0  0  0  0
  -29.6643  -19.9712   20.5908 C   0  0  0  0  0  0  0  0  0  0  0  0
  -23.9986  -20.9587   13.6011 C   0  0  0  0  0  0  0  0  0  0  0  0
  -23.9252  -27.3916   15.1770 C   0  0  0  0  0  0  0  0  0  0  0  0
  -22.7770  -25.1668   15.1889 C   0  0  0  0  0  0  0  0  0  0  0  0
  -23.3611  -26.2553   13.0217 C   0  0  0  0  0  0  0  0  0  0  0  0
  -27.8003  -21.0858   13.6851 C   0  0  0  0  0  0  0  0  0  0  0  0
  -31.6502  -23.7956   21.2807 C   0  0  0  0  0  0  0  0  0  0  0  0
  -31.8173  -24.7480   20.1131 C   0  0  0  0  0  0  0  0  0  1  0  0
  -25.2003  -25.2681   14.4482 C   0  0  1  0  0  0  0  0  0  0  0  0
  -25.3673  -21.6090   13.4722 C   0  0  2  0  0  0  0  0  0  0  0  0
  -23.8415  -26.0236   14.4709 C   0  0  0  0  0  0  0  0  0  0  0  0
  -25.8675  -11.5143   20.3599 N   0  0  0  0  0  0  0  0  0  0  0  0
  -26.2580  -12.7793   20.1283 N   0  0  0  0  0  0  0  0  0  0  0  0
  -27.4096  -26.3765   14.5668 N   0  0  0  0  0  0  0  0  0  0  0  0
  -29.9961  -13.5471   20.3247 N   0  0  0  0  0  0  0  0  0  0  0  0
  -25.5088  -15.0259   20.1749 N   0  0  0  0  0  0  0  0  0  0  0  0
  -21.8853  -12.6910   21.5220 N   0  0  0  0  0  0  0  0  0  0  0  0
  -27.7184  -29.5926   13.6020 N   0  0  0  0  0  0  0  0  0  0  0  0
  -25.1571  -23.9814   13.7621 N   0  0  0  0  0  0  0  0  0  0  0  0
  -30.1723  -15.7149   21.2651 N   0  0  0  0  0  0  0  0  0  0  0  0
  -30.6344  -19.0394   21.2347 N   0  3  0  0  0  0  0  0  0  0  0  0
  -30.7206  -22.6818   20.8837 N   0  3  0  0  0  0  0  0  0  0  0  0
  -26.4046  -20.5887   13.7944 N   0  3  0  0  0  0  0  0  0  0  0  0
  -22.6844  -14.7929   21.0722 O   0  0  0  0  0  0  0  0  0  0  0  0
  -28.0766  -28.8717   15.7870 O   0  0  0  0  0  0  0  0  0  0  0  0
  -26.1612  -26.3990   12.5978 O   0  0  0  0  0  0  0  0  0  0  0  0
  -25.8660  -22.7076   15.5654 O   0  0  0  0  0  0  0  0  0  0  0  0
  -31.9065  -14.8353   20.0565 O   0  0  0  0  0  0  0  0  0  0  0  0
  -21.5593   -7.1596   22.0990 O   0  0  0  0  0  0  0  0  0  0  0  0
  -30.5504  -25.3063   19.7671 O   0  0  0  0  0  0  0  0  0  1  0  0
  -18.5043   -7.4201   26.6819 F   0  0  0  0  0  0  0  0  0  0  0  0
  -21.9656   -5.3826   24.1774 F   0  0  0  0  0  0  0  0  0  0  0  0
  1  2  1  0  0  0  0
  1  5  2  0  0  0  0
  2  6  2  0  0  0  0
  3  8  2  0  0  0  0
  3 15  1  0  0  0  0
  4  9  1  0  0  0  0
  4 15  2  0  0  0  0
  5 17  1  0  0  0  0
  6 19  1  0  0  0  0
  7 10  2  0  0  0  0
  7 18  1  0  0  0  0
  8 21  1  0  0  0  0
  9 21  2  0  0  0  0
 10 22  1  0  0  0  0
 11 12  2  0  0  0  0
 11 23  1  0  0  0  0
 12 24  1  0  0  0  0
 13 20  1  0  0  0  0
 13 22  2  0  0  0  0
 14 24  2  0  0  0  0
 14 25  1  0  0  0  0
 15 26  1  0  0  0  0
 16 26  1  0  0  0  0
 16 27  2  0  0  0  0
 16 28  1  0  0  0  0
 17 19  2  0  0  0  0
 17 33  1  0  0  0  0
 18 20  2  0  0  0  0
 18 34  1  0  0  0  0
 19 48  1  0  0  0  0
 20 35  1  0  0  0  0
 21 80  1  0  0  0  0
 22 81  1  0  0  0  0
 23 25  2  0  0  0  0
 23 80  1  0  0  0  0
 24 82  1  0  0  0  0
 25 83  1  0  0  0  0
 26 63  2  0  0  0  0
 27 64  1  0  0  0  0
 27 67  1  0  0  0  0
 28 68  1  0  0  0  0
 28 75  2  0  0  0  0
 29 49  1  0  0  0  0
 29 69  1  0  0  0  0
 29 76  2  0  0  0  0
 30 60  1  0  0  0  0
 30 65  1  0  0  0  0
 30 77  2  0  0  0  0
 31 61  1  0  0  0  0
 31 70  1  0  0  0  0
 31 78  2  0  0  0  0
 32 66  1  0  0  0  0
 32 71  1  0  0  0  0
 32 79  2  0  0  0  0
 33 36  1  0  0  0  0
 34 49  1  0  0  0  0
 35 65  1  0  0  0  0
 36 38  1  0  0  0  0
 37 39  1  0  0  0  0
 37 42  1  0  0  0  0
 38 48  1  0  0  0  0
 39 50  1  0  0  0  0
 40 44  1  0  0  0  0
 40 52  1  0  0  0  0
 41 45  1  0  0  0  0
 41 52  1  0  0  0  0
 42 66  1  0  0  0  0
 43 50  1  0  0  0  0
 43 66  1  0  0  0  0
 44 73  1  0  0  0  0
 45 73  1  0  0  0  0
 46 51  1  0  0  0  0
 46 72  1  0  0  0  0
 47 51  1  0  0  0  0
 47 72  1  0  0  0  0
 48 69  1  0  0  0  0
 49 65  1  0  0  0  0
 50 64  1  0  0  0  0
 51 71  1  0  0  0  0
 52 72  1  0  0  0  0
 53 61  1  0  0  0  0
 54 62  1  0  0  0  0
 55 62  1  0  0  0  0
 56 62  1  0  0  0  0
 57 74  1  0  0  0  0
 58 59  1  0  0  0  0
 58 73  1  0  0  0  0
 59 81  1  0  0  0  0
 60 62  1  0  0  0  0
 60 70  1  0  0  0  0
 61 74  1  0  0  0  0
 63 64  1  0  0  0  0
M  CHG  3  72   1  73   1  74   1
M  ISO  4  32 100  59 101  71 100  81 101
M  END
> <Batch ID>
0195

> <Smiles>
CNC(C)C(=O)NC(C(=O)N1Cc2cc([101O:1][101CH2:1]CN3CCC(N4CC([100NH:0][100C:0](=O)N5CCCC(n6nc(-c7ccc(Oc8ccc(F)cc8F)cc7)c(C(N)=O)c6N)C5)C4)CC3)ccc2CC1C(=O)NC1CCCc2ccccc21)C(C)(C)C

> <Shape>
0.218

> <Color>
0.192

> <Negative vol penalty>
0.000

$$$$

  -OEChem-04052323373D

 87 97  0     1  0  0  0  0  0999 V2000
  -18.9030  -32.6908   23.0240 C   0  0  0  0  0  0  0  0  0  0  0  0
  -20.1398  -32.0880   23.2298 C   0  0  0  0  0  0  0  0  0  0  0  0
  -26.1222  -12.3675   21.9820 C   0  0  0  0  0  0  0  0  0  0  0  0
  -25.2862  -11.5465   19.8691 C   0  0  0  0  0  0  0  0  0  0  0  0
  -17.7454  -31.9140   23.0004 C   0  0  0  0  0  0  0  0  0  0  0  0
  -20.2195  -30.7080   23.4134 C   0  0  0  0  0  0  0  0  0  0  0  0
  -23.9705  -28.6060   20.7382 C   0  0  0  0  0  0  0  0  0  0  0  0
  -24.9636  -11.9176   22.6152 C   0  0  0  0  0  0  0  0  0  0  0  0
  -24.1277  -11.0966   20.5023 C   0  0  0  0  0  0  0  0  0  0  0  0
  -25.2640  -28.7403   21.2409 C   0  0  0  0  0  0  0  0  0  0  0  0
  -20.7918  -10.0527   21.4985 C   0  0  0  0  0  0  0  0  0  0  0  0
  -19.5703  -10.3166   20.8791 C   0  0  0  0  0  0  0  0  0  0  0  0
  -25.1433  -26.5022   22.1328 C   0  0  0  0  0  0  0  0  0  0  0  0
  -29.1129  -25.8041   20.8222 C   0  0  0  0  0  0  0  0  0  0  0  0
  -20.0110  -12.6879   21.0202 C   0  0  0  0  0  0  0  0  0  0  0  0
  -26.2835  -12.1820   20.6089 C   0  0  0  0  0  0  0  0  0  0  0  0
  -28.6756  -11.9303   19.7593 C   0  0  0  0  0  0  0  0  0  0  0  0
  -17.8121  -30.5226   23.1741 C   0  0  0  0  0  0  0  0  0  0  0  0
  -23.2485  -27.4207   20.9388 C   0  0  0  0  0  0  0  0  0  0  0  0
  -19.0616  -29.9120   23.3935 C   0  0  0  0  0  0  0  0  0  0  0  0
  -23.8418  -26.3544   21.6294 C   0  0  0  0  0  0  0  0  0  0  0  0
  -29.7841  -26.9859   21.0373 C   0  0  0  0  0  0  0  0  0  0  0  0
  -23.9664  -11.2821   21.8753 C   0  0  0  0  0  0  0  0  0  0  0  0
  -25.8495  -27.6895   21.9408 C   0  0  0  0  0  0  0  0  0  0  0  0
  -21.6230  -11.1064   21.8788 C   0  0  0  0  0  0  0  0  0  0  0  0
  -19.1799  -11.6342   20.6399 C   0  0  0  0  0  0  0  0  0  0  0  0
  -21.2326  -12.4240   21.6396 C   0  0  0  0  0  0  0  0  0  0  0  0
  -27.4798  -12.6470   19.9541 C   0  0  0  0  0  0  0  0  0  0  0  0
  -31.0151  -27.2010   20.4346 C   0  0  0  0  0  0  0  0  0  0  0  0
  -29.7303  -24.8968   19.9843 C   0  0  0  0  0  0  0  0  0  0  0  0
  -29.4966  -12.8069   19.0929 C   0  0  0  0  0  0  0  0  0  0  0  0
  -29.0140  -10.5918   20.1460 C   0  0  0  0  0  0  0  0  0  0  0  0
  -20.5402  -26.6678   22.4228 C   0  0  0  0  0  0  0  0  0  0  0  0
  -21.0872  -23.7523   21.1103 C   0  0  0  0  0  0  0  0  0  0  0  0
  -23.3363  -21.5257   19.8332 C   0  0  0  0  0  0  0  0  0  0  0  0
  -29.8940  -18.5682   18.8958 C   0  0  0  0  0  0  0  0  0  0  0  0
  -16.5287  -29.7305   23.1879 C   0  0  0  0  0  0  0  0  0  0  0  0
  -21.8642  -27.2817   20.3670 C   0  0  0  0  0  0  0  0  0  0  0  0
  -23.1166  -25.0537   21.8543 C   0  0  0  0  0  0  0  0  0  0  0  0
  -16.7383  -28.2281   23.0169 C   0  0  0  0  0  0  0  0  0  0  0  0
  -29.3693  -16.5233   16.0900 C   0  0  0  0  0  0  0  0  0  0  0  0
  -17.8615  -27.7390   23.9258 C   0  0  0  0  0  0  0  0  0  0  0  0
  -28.9370  -15.2125   16.7465 C   0  0  0  0  0  0  0  0  0  0  0  0
  -28.4683  -21.7511   18.4217 C   0  0  0  0  0  0  0  0  0  0  0  0
  -30.6760  -21.8608   19.6389 C   0  0  0  0  0  0  0  0  0  0  0  0
  -28.7592  -17.7414   16.7859 C   0  0  0  0  0  0  0  0  0  0  0  0
  -28.9927  -20.5607   17.6134 C   0  0  0  0  0  0  0  0  0  0  0  0
  -31.1649  -20.6907   18.7899 C   0  0  0  0  0  0  0  0  0  0  0  0
  -30.4931  -29.1925   21.4705 C   0  0  0  0  0  0  0  0  0  0  0  0
  -28.5722  -16.4734   18.9015 C   0  0  0  0  0  0  0  0  0  0  0  0
  -29.4277  -28.1536   21.9078 C   0  0  1  0  0  0  0  0  0  0  0  0
  -19.1916  -28.4149   23.5718 C   0  0  1  0  0  0  0  0  0  0  0  0
  -21.0293  -26.2190   21.0748 C   0  0  1  0  0  0  0  0  0  0  0  0
  -29.2160  -15.2345   18.2600 C   0  0  1  0  0  0  0  0  0  0  0  0
  -29.6079  -22.6601   18.8879 C   0  0  0  0  0  0  0  0  0  0  0  0
  -23.4905  -19.2110   18.8763 C   0  0  0  0  0  0  0  0  0  0  0  0
  -20.8140  -22.5779   23.9132 C   0  0  0  0  0  0  0  0  0  0  0  0
  -21.8943  -20.4844   23.0659 C   0  0  0  0  0  0  0  0  0  0  0  0
  -19.7172  -21.2376   22.1091 C   0  0  0  0  0  0  0  0  0  0  0  0
  -24.3579  -22.5378   17.2465 C   0  0  0  0  0  0  0  0  0  0  0  0
  -28.0074  -28.6650   21.7229 C   0  0  0  0  0  0  0  0  0  1  0  0
  -21.8273  -22.5085   21.5396 C   0  0  1  0  0  0  0  0  0  0  0  0
  -23.3177  -20.6898   18.5662 C   0  0  2  0  0  0  0  0  0  0  0  0
  -21.0764  -21.7272   22.6546 C   0  0  0  0  0  0  0  0  0  0  0  0
  -27.5322  -13.8837   19.4523 N   0  0  0  0  0  0  0  0  0  0  0  0
  -31.5895  -26.2924   19.6281 N   0  0  0  0  0  0  0  0  0  0  0  0
  -30.9320  -25.1198   19.3966 N   0  0  0  0  0  0  0  0  0  0  0  0
  -28.7710  -13.9510   18.9356 N   0  0  0  0  0  0  0  0  0  0  0  0
  -31.5381  -28.4516   20.7859 N   0  0  0  0  0  0  0  0  0  0  0  0
  -21.7630  -24.9688   21.2814 N   0  0  0  0  0  0  0  0  0  0  0  0
  -29.0166  -17.6977   18.2320 N   0  0  0  0  0  0  0  0  0  0  0  0
  -30.0473  -19.8529   18.3535 N   0  0  0  0  0  0  0  0  0  0  0  0
  -30.7613  -12.7030   18.6321 N   0  0  0  0  0  0  0  0  0  0  0  0
  -28.0531   -9.8289   20.8234 N   0  0  0  0  0  0  0  0  0  0  0  0
  -29.0800  -23.6994   19.7440 N   0  0  0  0  0  0  0  0  0  0  0  0
  -19.7657  -27.8117   22.3881 N   0  0  0  0  0  0  0  0  0  0  0  0
  -22.0654  -21.7357   20.3252 N   0  0  0  0  0  0  0  0  0  0  0  0
  -24.4173  -21.1100   17.6523 N   0  3  0  0  0  0  0  0  0  0  0  0
  -30.1411  -10.0929   19.9126 O   0  0  0  0  0  0  0  0  0  0  0  0
  -20.8420  -26.0232   23.4204 O   0  0  0  0  0  0  0  0  0  0  0  0
  -19.9541  -23.6477   20.6340 O   0  0  0  0  0  0  0  0  0  0  0  0
  -24.3746  -21.9470   20.3382 O   0  0  0  0  0  0  0  0  0  0  0  0
  -30.5047  -18.2184   19.9135 O   0  0  0  0  0  0  0  0  0  0  0  0
  -22.8359  -10.8427   22.4929 O   0  0  0  0  0  0  0  0  0  0  0  0
  -27.1223  -27.8193   22.4373 O   0  0  0  0  0  0  0  0  0  1  0  0
  -18.0074  -11.8875   20.0437 F   0  0  0  0  0  0  0  0  0  0  0  0
  -22.0274  -13.4404   22.0016 F   0  0  0  0  0  0  0  0  0  0  0  0
  1  2  1  0  0  0  0
  1  5  2  0  0  0  0
  2  6  2  0  0  0  0
  3  8  2  0  0  0  0
  3 16  1  0  0  0  0
  4  9  1  0  0  0  0
  4 16  2  0  0  0  0
  5 18  1  0  0  0  0
  6 20  1  0  0  0  0
  7 10  2  0  0  0  0
  7 19  1  0  0  0  0
  8 23  1  0  0  0  0
  9 23  2  0  0  0  0
 10 24  1  0  0  0  0
 11 12  2  0  0  0  0
 11 25  1  0  0  0  0
 12 26  1  0  0  0  0
 13 21  1  0  0  0  0
 13 24  2  0  0  0  0
 14 22  1  0  0  0  0
 14 30  2  0  0  0  0
 15 26  2  0  0  0  0
 15 27  1  0  0  0  0
 16 28  1  0  0  0  0
 17 28  1  0  0  0  0
 17 31  2  0  0  0  0
 17 32  1  0  0  0  0
 18 20  2  0  0  0  0
 18 37  1  0  0  0  0
 19 21  2  0  0  0  0
 19 38  1  0  0  0  0
 20 52  1  0  0  0  0
 21 39  1  0  0  0  0
 22 29  2  0  0  0  0
 22 51  1  0  0  0  0
 23 84  1  0  0  0  0
 24 85  1  0  0  0  0
 25 27  2  0  0  0  0
 25 84  1  0  0  0  0
 26 86  1  0  0  0  0
 27 87  1  0  0  0  0
 28 65  2  0  0  0  0
 29 66  1  0  0  0  0
 29 69  1  0  0  0  0
 30 67  1  0  0  0  0
 30 75  1  0  0  0  0
 31 68  1  0  0  0  0
 31 73  1  0  0  0  0
 32 74  1  0  0  0  0
 32 79  2  0  0  0  0
 33 53  1  0  0  0  0
 33 76  1  0  0  0  0
 33 80  2  0  0  0  0
 34 62  1  0  0  0  0
 34 70  1  0  0  0  0
 34 81  2  0  0  0  0
 35 63  1  0  0  0  0
 35 77  1  0  0  0  0
 35 82  2  0  0  0  0
 36 71  1  0  0  0  0
 36 72  1  0  0  0  0
 36 83  2  0  0  0  0
 37 40  1  0  0  0  0
 38 53  1  0  0  0  0
 39 70  1  0  0  0  0
 40 42  1  0  0  0  0
 41 43  1  0  0  0  0
 41 46  1  0  0  0  0
 42 52  1  0  0  0  0
 43 54  1  0  0  0  0
 44 47  1  0  0  0  0
 44 55  1  0  0  0  0
 45 48  1  0  0  0  0
 45 55  1  0  0  0  0
 46 71  1  0  0  0  0
 47 72  1  0  0  0  0
 48 72  1  0  0  0  0
 49 51  1  0  0  0  0
 49 69  1  0  0  0  0
 50 54  1  0  0  0  0
 50 71  1  0  0  0  0
 51 61  1  0  0  0  0
 52 76  1  0  0  0  0
 53 70  1  0  0  0  0
 54 68  1  0  0  0  0
 55 75  1  0  0  0  0
 56 63  1  0  0  0  0
 57 64  1  0  0  0  0
 58 64  1  0  0  0  0
 59 64  1  0  0  0  0
 60 78  1  0  0  0  0
 61 85  1  0  0  0  0
 62 64  1  0  0  0  0
 62 77  1  0  0  0  0
 63 78  1  0  0  0  0
 65 68  1  0  0  0  0
 66 67  2  0  0  0  0
M  CHG  1  78   1
M  ISO  4  36 100  61 101  72 100  85 101
M  END
> <Batch ID>
0195

> <Smiles>
CNC(C)C(=O)NC(C(=O)N1Cc2cc([101O:1][101CH2:1]C3CNc4nnc(NC5CC[100N:0]([100C:0](=O)N6CCCC(n7nc(-c8ccc(Oc9ccc(F)cc9F)cc8)c(C(N)=O)c7N)C6)CC5)cc43)ccc2CC1C(=O)NC1CCCc2ccccc21)C(C)(C)C

> <Shape>
0.244

> <Color>
0.066

> <Negative vol penalty>
0.000

$$$$

  -OEChem-04052323373D

 84 93  0     1  0  0  0  0  0999 V2000
  -17.5683  -25.9217   20.9039 C   0  0  0  0  0  0  0  0  0  0  0  0
  -18.8589  -25.9192   20.3845 C   0  0  0  0  0  0  0  0  0  0  0  0
  -25.4628  -16.4966   20.2677 C   0  0  0  0  0  0  0  0  0  0  0  0
  -26.0540  -14.5028   21.4975 C   0  0  0  0  0  0  0  0  0  0  0  0
  -17.2459  -26.7694   21.9628 C   0  0  0  0  0  0  0  0  0  0  0  0
  -19.8276  -26.7653   20.9231 C   0  0  0  0  0  0  0  0  0  0  0  0
  -24.2629  -24.4300   21.6441 C   0  0  0  0  0  0  0  0  0  0  0  0
  -24.1357  -16.0704   20.2146 C   0  0  0  0  0  0  0  0  0  0  0  0
  -24.7269  -14.0766   21.4444 C   0  0  0  0  0  0  0  0  0  0  0  0
  -25.0684  -24.2331   20.5233 C   0  0  0  0  0  0  0  0  0  0  0  0
  -21.8306  -14.7486   23.0507 C   0  0  0  0  0  0  0  0  0  0  0  0
  -21.2657  -14.2458   24.2227 C   0  0  0  0  0  0  0  0  0  0  0  0
  -26.3957  -26.1480   21.1483 C   0  0  0  0  0  0  0  0  0  0  0  0
  -20.8618  -12.1334   23.1218 C   0  0  0  0  0  0  0  0  0  0  0  0
  -31.1529  -21.6475   16.3990 C   0  0  0  0  0  0  0  0  0  0  0  0
  -26.4220  -15.7128   20.9091 C   0  0  0  0  0  0  0  0  0  0  0  0
  -28.3926  -16.9449   21.9608 C   0  0  0  0  0  0  0  0  0  0  0  0
  -18.2137  -27.6194   22.5210 C   0  0  0  0  0  0  0  0  0  0  0  0
  -24.5115  -25.4957   22.5210 C   0  0  0  0  0  0  0  0  0  0  0  0
  -19.5175  -27.6261   21.9896 C   0  0  0  0  0  0  0  0  0  0  0  0
  -25.5935  -26.3547   22.2809 C   0  0  0  0  0  0  0  0  0  0  0  0
  -23.7678  -14.8604   20.8030 C   0  0  0  0  0  0  0  0  0  0  0  0
  -26.1332  -25.0938   20.2737 C   0  0  0  0  0  0  0  0  0  0  0  0
  -21.9110  -13.9439   21.9142 C   0  0  0  0  0  0  0  0  0  0  0  0
  -20.7813  -12.9382   24.2583 C   0  0  0  0  0  0  0  0  0  0  0  0
  -21.4267  -12.6363   21.9497 C   0  0  0  0  0  0  0  0  0  0  0  0
  -27.7931  -16.1523   20.9637 C   0  0  0  0  0  0  0  0  0  0  0  0
  -31.0702  -20.3098   16.7173 C   0  0  0  0  0  0  0  0  0  0  0  0
  -29.6075  -20.8019   18.4050 C   0  0  0  0  0  0  0  0  0  0  0  0
  -29.6909  -22.1397   18.0872 C   0  0  0  0  0  0  0  0  0  0  0  0
  -29.6975  -17.0798   21.5538 C   0  0  0  0  0  0  0  0  0  0  0  0
  -27.8212  -17.5087   23.1488 C   0  0  0  0  0  0  0  0  0  0  0  0
  -22.8835  -28.0628   23.4499 C   0  0  0  0  0  0  0  0  0  0  0  0
  -25.3808  -28.4286   25.4875 C   0  0  0  0  0  0  0  0  0  0  0  0
  -28.6573  -27.7912   26.1984 C   0  0  0  0  0  0  0  0  0  0  0  0
  -32.3127  -16.8766   16.2262 C   0  0  0  0  0  0  0  0  0  0  0  0
  -17.8056  -28.5521   23.6337 C   0  0  0  0  0  0  0  0  0  0  0  0
  -23.6497  -25.6785   23.7400 C   0  0  0  0  0  0  0  0  0  0  0  0
  -25.9150  -27.5017   23.2025 C   0  0  0  0  0  0  0  0  0  0  0  0
  -18.9881  -29.1475   24.3938 C   0  0  0  0  0  0  0  0  0  0  0  0
  -33.1069  -14.8489   19.0415 C   0  0  0  0  0  0  0  0  0  0  0  0
  -20.0471  -29.6554   23.4205 C   0  0  0  0  0  0  0  0  0  0  0  0
  -31.8816  -15.0079   19.9445 C   0  0  0  0  0  0  0  0  0  0  0  0
  -32.7178  -14.8169   17.5655 C   0  0  0  0  0  0  0  0  0  0  0  0
  -31.2678  -18.5872   14.7640 C   0  0  0  0  0  0  0  0  0  0  0  0
  -30.6709  -16.1279   18.0254 C   0  0  0  0  0  0  0  0  0  0  0  0
  -20.6024  -28.5116   22.5632 C   0  0  1  0  0  0  0  0  0  0  0  0
  -31.8601  -19.3000   15.9271 C   0  0  2  0  0  0  0  0  0  0  0  0
  -23.6814  -27.1027   24.2861 C   0  0  1  0  0  0  0  0  0  0  0  0
  -31.0305  -16.2186   19.5180 C   0  0  1  0  0  0  0  0  0  0  0  0
  -29.3748  -20.5809   20.8917 C   0  0  0  0  0  0  0  0  0  0  0  0
  -30.4262  -28.2540   27.9172 C   0  0  0  0  0  0  0  0  0  0  0  0
  -25.6852  -31.2657   24.4067 C   0  0  0  0  0  0  0  0  0  0  0  0
  -27.9724  -31.3328   25.4229 C   0  0  0  0  0  0  0  0  0  0  0  0
  -25.9685  -31.0566   26.8827 C   0  0  0  0  0  0  0  0  0  0  0  0
  -28.9881  -24.9128   26.8019 C   0  0  0  0  0  0  0  0  0  0  0  0
  -28.7459  -20.3258   19.5239 C   0  0  0  0  0  0  0  0  0  0  0  0
  -28.2838  -25.3136   19.2825 C   0  0  0  0  0  0  0  0  0  1  0  0
  -29.1340  -24.4321   18.3882 C   0  0  0  0  0  0  0  0  0  0  0  0
  -26.7164  -29.1297   25.4267 C   0  0  1  0  0  0  0  0  0  0  0  0
  -29.3358  -27.2962   27.4630 C   0  0  2  0  0  0  0  0  0  0  0  0
  -26.5786  -30.6758   25.5161 C   0  0  0  0  0  0  0  0  0  0  0  0
  -30.4648  -22.5865   17.0783 N   0  0  0  0  0  0  0  0  0  0  0  0
  -28.6469  -15.8080   19.9960 N   0  0  0  0  0  0  0  0  0  0  0  0
  -30.2959  -19.8630   17.7260 N   0  0  0  0  0  0  0  0  0  0  0  0
  -29.7962  -16.3871   20.3831 N   0  0  0  0  0  0  0  0  0  0  0  0
  -25.0394  -27.6428   24.3776 N   0  0  0  0  0  0  0  0  0  0  0  0
  -31.8926  -15.9749   17.2230 N   0  0  0  0  0  0  0  0  0  0  0  0
  -31.4244  -17.9308   16.0214 N   0  0  0  0  0  0  0  0  0  0  0  0
  -30.7585  -17.7222   22.0867 N   0  0  0  0  0  0  0  0  0  0  0  0
  -26.4657  -17.2721   23.4154 N   0  0  0  0  0  0  0  0  0  0  0  0
  -21.5497  -27.7244   23.3231 N   0  0  0  0  0  0  0  0  0  0  0  0
  -27.5350  -28.5408   26.4809 N   0  0  0  0  0  0  0  0  0  0  0  0
  -29.9515  -25.9590   27.2310 N   0  3  0  0  0  0  0  0  0  0  0  0
  -28.4886  -18.2155   23.9416 O   0  0  0  0  0  0  0  0  0  0  0  0
  -23.4366  -29.0392   22.9575 O   0  0  0  0  0  0  0  0  0  0  0  0
  -24.6700  -28.5671   26.4861 O   0  0  0  0  0  0  0  0  0  0  0  0
  -29.0826  -27.5412   25.0728 O   0  0  0  0  0  0  0  0  0  0  0  0
  -33.3680  -16.7516   15.5993 O   0  0  0  0  0  0  0  0  0  0  0  0
  -22.4729  -14.4443   20.7516 O   0  0  0  0  0  0  0  0  0  0  0  0
  -26.9206  -24.9043   19.1801 O   0  0  0  0  0  0  0  0  0  1  0  0
  -28.9820  -23.0766   18.7919 O   0  0  0  0  0  0  0  0  0  0  0  0
  -20.2402  -12.4549   25.3843 F   0  0  0  0  0  0  0  0  0  0  0  0
  -21.5023  -11.8581   20.8614 F   0  0  0  0  0  0  0  0  0  0  0  0
  1  2  1  0  0  0  0
  1  5  2  0  0  0  0
  2  6  2  0  0  0  0
  3  8  2  0  0  0  0
  3 16  1  0  0  0  0
  4  9  1  0  0  0  0
  4 16  2  0  0  0  0
  5 18  1  0  0  0  0
  6 20  1  0  0  0  0
  7 10  2  0  0  0  0
  7 19  1  0  0  0  0
  8 22  1  0  0  0  0
  9 22  2  0  0  0  0
 10 23  1  0  0  0  0
 11 12  2  0  0  0  0
 11 24  1  0  0  0  0
 12 25  1  0  0  0  0
 13 21  1  0  0  0  0
 13 23  2  0  0  0  0
 14 25  2  0  0  0  0
 14 26  1  0  0  0  0
 15 28  1  0  0  0  0
 15 63  2  0  0  0  0
 16 27  1  0  0  0  0
 17 27  1  0  0  0  0
 17 31  2  0  0  0  0
 17 32  1  0  0  0  0
 18 20  2  0  0  0  0
 18 37  1  0  0  0  0
 19 21  2  0  0  0  0
 19 38  1  0  0  0  0
 20 47  1  0  0  0  0
 21 39  1  0  0  0  0
 22 80  1  0  0  0  0
 23 81  1  0  0  0  0
 24 26  2  0  0  0  0
 24 80  1  0  0  0  0
 25 83  1  0  0  0  0
 26 84  1  0  0  0  0
 27 64  2  0  0  0  0
 28 48  1  0  0  0  0
 28 65  2  0  0  0  0
 29 30  2  0  0  0  0
 29 57  1  0  0  0  0
 29 65  1  0  0  0  0
 30 63  1  0  0  0  0
 30 82  1  0  0  0  0
 31 66  1  0  0  0  0
 31 70  1  0  0  0  0
 32 71  1  0  0  0  0
 32 75  2  0  0  0  0
 33 49  1  0  0  0  0
 33 72  1  0  0  0  0
 33 76  2  0  0  0  0
 34 60  1  0  0  0  0
 34 67  1  0  0  0  0
 34 77  2  0  0  0  0
 35 61  1  0  0  0  0
 35 73  1  0  0  0  0
 35 78  2  0  0  0  0
 36 68  1  0  0  0  0
 36 69  1  0  0  0  0
 36 79  2  0  0  0  0
 37 40  1  0  0  0  0
 38 49  1  0  0  0  0
 39 67  1  0  0  0  0
 40 42  1  0  0  0  0
 41 43  1  0  0  0  0
 41 44  1  0  0  0  0
 42 47  1  0  0  0  0
 43 50  1  0  0  0  0
 44 68  1  0  0  0  0
 45 48  1  0  0  0  0
 45 69  1  0  0  0  0
 46 50  1  0  0  0  0
 46 68  1  0  0  0  0
 47 72  1  0  0  0  0
 48 69  1  0  0  0  0
 49 67  1  0  0  0  0
 50 66  1  0  0  0  0
 51 57  1  0  0  0  0
 52 61  1  0  0  0  0
 53 62  1  0  0  0  0
 54 62  1  0  0  0  0
 55 62  1  0  0  0  0
 56 74  1  0  0  0  0
 58 59  1  0  0  0  0
 58 81  1  0  0  0  0
 59 82  1  0  0  0  0
 60 62  1  0  0  0  0
 60 73  1  0  0  0  0
 61 74  1  0  0  0  0
 64 66  1  0  0  0  0
M  CHG  1  74   1
M  ISO  4  36 100  58 101  69 100  81 101
M  END
> <Batch ID>
0195

> <Smiles>
CCc1nc(C2C[100N:0]2[100C:0](=O)N2CCCC(n3nc(-c4ccc(Oc5ccc(F)cc5F)cc4)c(C(N)=O)c3N)C2)cnc1OC[101CH2:1][101O:1]c1ccc2c(c1)CN(C(=O)C(NC(=O)C(C)NC)C(C)(C)C)C(C(=O)NC1CCCc3ccccc31)C2

> <Shape>
0.210

> <Color>
0.079

> <Negative vol penalty>
0.000

$$$$

  -OEChem-04052323373D

 85 94  0     1  0  0  0  0  0999 V2000
  -22.6019  -35.5240   15.6568 C   0  0  0  0  0  0  0  0  0  0  0  0
  -23.1631  -34.2513   15.6290 C   0  0  0  0  0  0  0  0  0  0  0  0
  -22.9327  -10.0953   19.8426 C   0  0  0  0  0  0  0  0  0  0  0  0
  -23.9173   -9.5886   21.9899 C   0  0  0  0  0  0  0  0  0  0  0  0
  -22.8672  -36.3784   16.7261 C   0  0  0  0  0  0  0  0  0  0  0  0
  -23.9908  -33.8326   16.6702 C   0  0  0  0  0  0  0  0  0  0  0  0
  -24.4698  -28.1652   18.9411 C   0  0  0  0  0  0  0  0  0  0  0  0
  -22.1550   -8.9404   19.9267 C   0  0  0  0  0  0  0  0  0  0  0  0
  -23.1396   -8.4337   22.0740 C   0  0  0  0  0  0  0  0  0  0  0  0
  -25.3884  -27.1402   18.7188 C   0  0  0  0  0  0  0  0  0  0  0  0
  -23.1896   -5.2990   20.8083 C   0  0  0  0  0  0  0  0  0  0  0  0
  -23.8163   -4.1247   21.2251 C   0  0  0  0  0  0  0  0  0  0  0  0
  -27.5770  -19.3964   21.5383 C   0  0  0  0  0  0  0  0  0  0  0  0
  -26.6235  -27.8316   20.6721 C   0  0  0  0  0  0  0  0  0  0  0  0
  -22.3062   -3.9864   23.1060 C   0  0  0  0  0  0  0  0  0  0  0  0
  -29.7027  -20.0329   20.6314 C   0  0  0  0  0  0  0  0  0  0  0  0
  -23.8139  -10.4194   20.8742 C   0  0  0  0  0  0  0  0  0  0  0  0
  -24.2808  -12.8995   21.2463 C   0  0  0  0  0  0  0  0  0  0  0  0
  -23.6908  -35.9665   17.7857 C   0  0  0  0  0  0  0  0  0  0  0  0
  -24.6276  -29.0394   20.0262 C   0  0  0  0  0  0  0  0  0  0  0  0
  -24.2684  -34.6828   17.7541 C   0  0  0  0  0  0  0  0  0  0  0  0
  -27.0676  -20.5623   20.9993 C   0  0  0  0  0  0  0  0  0  0  0  0
  -25.7042  -28.8653   20.9075 C   0  0  0  0  0  0  0  0  0  0  0  0
  -28.9294  -19.1201   21.3479 C   0  0  0  0  0  0  0  0  0  0  0  0
  -22.2585   -8.1096   21.0423 C   0  0  0  0  0  0  0  0  0  0  0  0
  -26.4670  -26.9751   19.5827 C   0  0  0  0  0  0  0  0  0  0  0  0
  -22.1213   -5.8171   21.5404 C   0  0  0  0  0  0  0  0  0  0  0  0
  -23.3746   -3.4684   22.3739 C   0  0  0  0  0  0  0  0  0  0  0  0
  -21.6796   -5.1608   22.6892 C   0  0  0  0  0  0  0  0  0  0  0  0
  -24.6178  -11.6120   20.7877 C   0  0  0  0  0  0  0  0  0  0  0  0
  -27.9217  -21.4040   20.3049 C   0  0  0  0  0  0  0  0  0  0  0  0
  -25.3708  -13.6730   20.9299 C   0  0  0  0  0  0  0  0  0  0  0  0
  -27.1773  -22.5626   19.8263 C   0  0  0  0  0  0  0  0  0  0  0  0
  -27.6918  -23.6300   19.2058 C   0  0  0  0  0  0  0  0  0  0  0  0
  -23.0890  -13.3557   21.8999 C   0  0  0  0  0  0  0  0  0  0  0  0
  -25.0844  -32.1696   20.3369 C   0  0  0  0  0  0  0  0  0  0  0  0
  -24.7403  -31.5121   23.4947 C   0  0  0  0  0  0  0  0  0  0  0  0
  -24.9324  -29.2181   26.0141 C   0  0  0  0  0  0  0  0  0  0  0  0
  -30.8937  -14.4481   20.7253 C   0  0  0  0  0  0  0  0  0  0  0  0
  -23.9867  -36.9424   18.8969 C   0  0  0  0  0  0  0  0  0  0  0  0
  -23.6132  -30.1235   20.2675 C   0  0  0  0  0  0  0  0  0  0  0  0
  -25.6794  -21.1013   21.0873 C   0  0  0  0  0  0  0  0  0  0  0  0
  -25.9072  -29.7643   22.0987 C   0  0  0  0  0  0  0  0  0  0  0  0
  -25.7250  -22.3427   20.1744 C   0  0  0  0  0  0  0  0  0  0  0  0
  -24.5727  -36.2858   20.1442 C   0  0  0  0  0  0  0  0  0  0  0  0
  -29.3933  -12.6654   18.0332 C   0  0  0  0  0  0  0  0  0  0  0  0
  -25.6857  -35.3147   19.7635 C   0  0  0  0  0  0  0  0  0  0  0  0
  -27.9924  -12.3335   18.5501 C   0  0  0  0  0  0  0  0  0  0  0  0
  -30.4367  -12.5952   19.1460 C   0  0  0  0  0  0  0  0  0  0  0  0
  -28.7264  -13.0760   20.8541 C   0  0  0  0  0  0  0  0  0  0  0  0
  -25.1515  -34.1833   18.8769 C   0  0  1  0  0  0  0  0  0  0  0  0
  -24.1571  -31.2741   21.1087 C   0  0  1  0  0  0  0  0  0  0  0  0
  -27.6312  -13.1884   19.7797 C   0  0  2  0  0  0  0  0  0  0  0  0
  -24.6283  -28.9859   28.4942 C   0  0  0  0  0  0  0  0  0  0  0  0
  -27.4055  -32.9255   23.9514 C   0  0  0  0  0  0  0  0  0  0  0  0
  -27.5074  -31.8534   26.2115 C   0  0  0  0  0  0  0  0  0  0  0  0
  -25.6519  -33.4276   25.6622 C   0  0  0  0  0  0  0  0  0  0  0  0
  -22.7830  -27.2114   25.6796 C   0  0  0  0  0  0  0  0  0  0  0  0
  -26.8808  -24.7917   18.7355 C   0  0  0  0  0  0  0  0  0  1  0  0
  -30.8868  -17.6144   21.7046 C   0  0  0  0  0  0  0  0  0  0  0  0
  -31.2015  -16.2825   22.3684 C   0  0  0  0  0  0  0  0  0  0  0  0
  -25.6763  -31.1267   24.6146 C   0  0  1  0  0  0  0  0  0  0  0  0
  -23.9664  -28.8647   27.1305 C   0  0  2  0  0  0  0  0  0  0  0  0
  -26.5578  -32.3174   25.0865 C   0  0  0  0  0  0  0  0  0  0  0  0
  -29.2310  -21.1849   20.0976 N   0  0  0  0  0  0  0  0  0  0  0  0
  -25.8273  -11.5660   20.2228 N   0  0  0  0  0  0  0  0  0  0  0  0
  -26.2597  -12.8344   20.3243 N   0  0  0  0  0  0  0  0  0  0  0  0
  -24.8920  -30.8135   22.2885 N   0  0  0  0  0  0  0  0  0  0  0  0
  -30.0351  -13.4288   20.2817 N   0  0  0  0  0  0  0  0  0  0  0  0
  -25.6460  -14.9818   21.1133 N   0  0  0  0  0  0  0  0  0  0  0  0
  -22.0672  -12.4292   22.1490 N   0  0  0  0  0  0  0  0  0  0  0  0
  -29.5035  -17.9474   21.8704 N   0  0  0  0  0  0  0  0  0  0  0  0
  -24.4481  -33.2036   19.6769 N   0  0  0  0  0  0  0  0  0  0  0  0
  -24.8424  -30.5485   25.6628 N   0  0  0  0  0  0  0  0  0  0  0  0
  -30.4340  -15.1954   21.8028 N   0  0  0  0  0  0  0  0  0  0  0  0
  -23.4766  -27.4666   26.9684 N   0  3  0  0  0  0  0  0  0  0  0  0
  -22.9279  -14.5529   22.2379 O   0  0  0  0  0  0  0  0  0  0  0  0
  -26.2882  -31.9404   20.3411 O   0  0  0  0  0  0  0  0  0  0  0  0
  -23.9005  -32.3954   23.6853 O   0  0  0  0  0  0  0  0  0  0  0  0
  -25.6937  -28.3971   25.5072 O   0  0  0  0  0  0  0  0  0  0  0  0
  -31.9866  -14.6789   20.1967 O   0  0  0  0  0  0  0  0  0  0  0  0
  -21.4996   -6.9827   21.1248 O   0  0  0  0  0  0  0  0  0  0  0  0
  -27.3654  -25.9758   19.3676 O   0  0  0  0  0  0  0  0  0  1  0  0
  -23.9755   -2.3398   22.7732 F   0  0  0  0  0  0  0  0  0  0  0  0
  -20.6530   -5.6532   23.3959 F   0  0  0  0  0  0  0  0  0  0  0  0
  1  2  1  0  0  0  0
  1  5  2  0  0  0  0
  2  6  2  0  0  0  0
  3  8  2  0  0  0  0
  3 17  1  0  0  0  0
  4  9  1  0  0  0  0
  4 17  2  0  0  0  0
  5 19  1  0  0  0  0
  6 21  1  0  0  0  0
  7 10  2  0  0  0  0
  7 20  1  0  0  0  0
  8 25  1  0  0  0  0
  9 25  2  0  0  0  0
 10 26  1  0  0  0  0
 11 12  2  0  0  0  0
 11 27  1  0  0  0  0
 12 28  1  0  0  0  0
 13 22  1  0  0  0  0
 13 24  2  0  0  0  0
 14 23  1  0  0  0  0
 14 26  2  0  0  0  0
 15 28  2  0  0  0  0
 15 29  1  0  0  0  0
 16 24  1  0  0  0  0
 16 65  2  0  0  0  0
 17 30  1  0  0  0  0
 18 30  1  0  0  0  0
 18 32  2  0  0  0  0
 18 35  1  0  0  0  0
 19 21  2  0  0  0  0
 19 40  1  0  0  0  0
 20 23  2  0  0  0  0
 20 41  1  0  0  0  0
 21 51  1  0  0  0  0
 22 31  2  0  0  0  0
 22 42  1  0  0  0  0
 23 43  1  0  0  0  0
 24 72  1  0  0  0  0
 25 82  1  0  0  0  0
 26 83  1  0  0  0  0
 27 29  2  0  0  0  0
 27 82  1  0  0  0  0
 28 84  1  0  0  0  0
 29 85  1  0  0  0  0
 30 66  2  0  0  0  0
 31 33  1  0  0  0  0
 31 65  1  0  0  0  0
 32 67  1  0  0  0  0
 32 70  1  0  0  0  0
 33 34  2  0  0  0  0
 33 44  1  0  0  0  0
 34 59  1  0  0  0  0
 35 71  1  0  0  0  0
 35 77  2  0  0  0  0
 36 52  1  0  0  0  0
 36 73  1  0  0  0  0
 36 78  2  0  0  0  0
 37 62  1  0  0  0  0
 37 68  1  0  0  0  0
 37 79  2  0  0  0  0
 38 63  1  0  0  0  0
 38 74  1  0  0  0  0
 38 80  2  0  0  0  0
 39 69  1  0  0  0  0
 39 75  1  0  0  0  0
 39 81  2  0  0  0  0
 40 45  1  0  0  0  0
 41 52  1  0  0  0  0
 42 44  1  0  0  0  0
 43 68  1  0  0  0  0
 45 47  1  0  0  0  0
 46 48  1  0  0  0  0
 46 49  1  0  0  0  0
 47 51  1  0  0  0  0
 48 53  1  0  0  0  0
 49 69  1  0  0  0  0
 50 53  1  0  0  0  0
 50 69  1  0  0  0  0
 51 73  1  0  0  0  0
 52 68  1  0  0  0  0
 53 67  1  0  0  0  0
 54 63  1  0  0  0  0
 55 64  1  0  0  0  0
 56 64  1  0  0  0  0
 57 64  1  0  0  0  0
 58 76  1  0  0  0  0
 59 83  1  0  0  0  0
 60 61  1  0  0  0  0
 60 72  1  0  0  0  0
 61 75  1  0  0  0  0
 62 64  1  0  0  0  0
 62 74  1  0  0  0  0
 63 76  1  0  0  0  0
 66 67  1  0  0  0  0
M  CHG  1  76   1
M  ISO  4  39 100  59 101  75 100  83 101
M  END
> <Batch ID>
0195

> <Smiles>
CNC(C)C(=O)NC(C(=O)N1Cc2cc([101O:1][101CH2:1]C=C3CCc4cc(NCC[100NH:0][100C:0](=O)N5CCCC(n6nc(-c7ccc(Oc8ccc(F)cc8F)cc7)c(C(N)=O)c6N)C5)cnc43)ccc2CC1C(=O)NC1CCCc2ccccc21)C(C)(C)C

> <Shape>
0.353

> <Color>
0.237

> <Negative vol penalty>
0.000

$$$$

  -OEChem-04052323373D

 84 93  0     1  0  0  0  0  0999 V2000
  -18.8092  -29.9881   13.7701 C   0  0  0  0  0  0  0  0  0  0  0  0
  -19.1656  -28.7793   14.3595 C   0  0  0  0  0  0  0  0  0  0  0  0
  -23.0601   -9.8893   19.9675 C   0  0  0  0  0  0  0  0  0  0  0  0
  -23.9323   -9.8759   22.2205 C   0  0  0  0  0  0  0  0  0  0  0  0
  -19.3862  -31.1765   14.2159 C   0  0  0  0  0  0  0  0  0  0  0  0
  -20.0999  -28.7582   15.3943 C   0  0  0  0  0  0  0  0  0  0  0  0
  -20.1595  -24.9933   20.2242 C   0  0  0  0  0  0  0  0  0  0  0  0
  -22.3434   -8.7236   20.2380 C   0  0  0  0  0  0  0  0  0  0  0  0
  -23.2155   -8.7102   22.4911 C   0  0  0  0  0  0  0  0  0  0  0  0
  -20.8637  -23.8198   20.4901 C   0  0  0  0  0  0  0  0  0  0  0  0
  -20.0309   -7.8639   23.2409 C   0  0  0  0  0  0  0  0  0  0  0  0
  -19.3332   -7.7990   24.4470 C   0  0  0  0  0  0  0  0  0  0  0  0
  -22.5215  -25.0942   21.6928 C   0  0  0  0  0  0  0  0  0  0  0  0
  -20.6327   -5.8680   25.0948 C   0  0  0  0  0  0  0  0  0  0  0  0
  -27.1297  -18.6290   21.1595 C   0  0  0  0  0  0  0  0  0  0  0  0
  -26.4939  -18.2276   23.3710 C   0  0  0  0  0  0  0  0  0  0  0  0
  -23.8546  -10.4654   20.9588 C   0  0  0  0  0  0  0  0  0  0  0  0
  -24.1598  -12.9960   20.8566 C   0  0  0  0  0  0  0  0  0  0  0  0
  -20.3209  -31.1710   15.2633 C   0  0  0  0  0  0  0  0  0  0  0  0
  -20.6375  -26.2295   20.6821 C   0  0  0  0  0  0  0  0  0  0  0  0
  -20.6909  -29.9475   15.8537 C   0  0  0  0  0  0  0  0  0  0  0  0
  -21.8202  -26.2817   21.4336 C   0  0  0  0  0  0  0  0  0  0  0  0
  -27.4132  -18.0174   22.3636 C   0  0  0  0  0  0  0  0  0  0  0  0
  -22.4210   -8.1341   21.4998 C   0  0  0  0  0  0  0  0  0  0  0  0
  -22.0464  -23.8705   21.2221 C   0  0  0  0  0  0  0  0  0  0  0  0
  -21.0294   -6.9307   22.9617 C   0  0  0  0  0  0  0  0  0  0  0  0
  -19.6341   -6.8012   25.3740 C   0  0  0  0  0  0  0  0  0  0  0  0
  -21.3303   -5.9328   23.8887 C   0  0  0  0  0  0  0  0  0  0  0  0
  -24.5957  -11.6691   20.6798 C   0  0  0  0  0  0  0  0  0  0  0  0
  -25.2236  -13.7639   20.4503 C   0  0  0  0  0  0  0  0  0  0  0  0
  -25.2159  -19.5183   22.0043 C   0  0  0  0  0  0  0  0  0  0  0  0
  -22.9055  -13.4902   21.3446 C   0  0  0  0  0  0  0  0  0  0  0  0
  -21.5919  -28.9216   19.2871 C   0  0  0  0  0  0  0  0  0  0  0  0
  -21.7385  -29.9954   22.3445 C   0  0  0  0  0  0  0  0  0  0  0  0
  -22.0530  -29.2590   25.6620 C   0  0  0  0  0  0  0  0  0  0  0  0
  -30.7586  -14.6731   20.7169 C   0  0  0  0  0  0  0  0  0  0  0  0
  -20.9528  -32.4757   15.6792 C   0  0  0  0  0  0  0  0  0  0  0  0
  -19.8522  -27.4831   20.4097 C   0  0  0  0  0  0  0  0  0  0  0  0
  -22.3653  -27.5812   21.9651 C   0  0  0  0  0  0  0  0  0  0  0  0
  -21.6553  -32.4081   17.0328 C   0  0  0  0  0  0  0  0  0  0  0  0
  -29.4892  -12.5102   18.0325 C   0  0  0  0  0  0  0  0  0  0  0  0
  -22.5275  -31.1597   17.1198 C   0  0  0  0  0  0  0  0  0  0  0  0
  -28.0804  -12.1695   18.5253 C   0  0  0  0  0  0  0  0  0  0  0  0
  -30.0050  -17.8489   22.3155 C   0  0  0  0  0  0  0  0  0  0  0  0
  -30.4582  -12.7560   19.1875 C   0  0  0  0  0  0  0  0  0  0  0  0
  -30.9622  -16.6769   22.1686 C   0  0  0  0  0  0  0  0  0  0  0  0
  -28.7406  -15.9430   21.6438 C   0  0  0  0  0  0  0  0  0  0  0  0
  -28.5951  -13.3844   20.6712 C   0  0  0  0  0  0  0  0  0  0  0  0
  -28.6509  -17.1706   22.5658 C   0  0  2  0  0  0  0  0  0  0  0  0
  -21.6823  -29.8863   16.9954 C   0  0  1  0  0  0  0  0  0  0  0  0
  -20.7013  -28.7483   20.4848 C   0  0  1  0  0  0  0  0  0  0  0  0
  -27.5749  -13.2161   19.5375 C   0  0  2  0  0  0  0  0  0  0  0  0
  -22.1763  -30.3494   27.9188 C   0  0  0  0  0  0  0  0  0  0  0  0
  -24.6185  -30.8308   21.7808 C   0  0  0  0  0  0  0  0  0  0  0  0
  -24.9748  -31.0165   24.2520 C   0  0  0  0  0  0  0  0  0  0  0  0
  -23.2981  -32.4776   23.1221 C   0  0  0  0  0  0  0  0  0  0  0  0
  -19.6110  -27.8712   26.5945 C   0  0  0  0  0  0  0  0  0  0  0  0
  -22.6373  -21.6756   20.5227 C   0  0  0  0  0  0  0  0  0  1  0  0
  -23.9176  -20.8630   20.5339 C   0  0  0  0  0  0  0  0  0  0  0  0
  -22.7973  -30.0175   23.4203 C   0  0  1  0  0  0  0  0  0  0  0  0
  -21.2661  -29.7207   26.8753 C   0  0  2  0  0  0  0  0  0  0  0  0
  -23.9132  -31.0612   23.1323 C   0  0  0  0  0  0  0  0  0  0  0  0
  -26.0361  -19.3892   20.9440 N   0  0  0  0  0  0  0  0  0  0  0  0
  -25.3802  -18.9752   23.2256 N   0  0  0  0  0  0  0  0  0  0  0  0
  -25.8394  -11.5948   20.1984 N   0  0  0  0  0  0  0  0  0  0  0  0
  -26.1941  -12.8846   20.0693 N   0  0  0  0  0  0  0  0  0  0  0  0
  -21.5647  -28.7802   21.6671 N   0  0  0  0  0  0  0  0  0  0  0  0
  -29.9090  -13.7339   20.1245 N   0  0  0  0  0  0  0  0  0  0  0  0
  -30.1675  -15.6210   21.5561 N   0  0  0  0  0  0  0  0  0  0  0  0
  -25.4142  -15.0988   20.3852 N   0  0  0  0  0  0  0  0  0  0  0  0
  -21.9224  -12.5640   21.7188 N   0  0  0  0  0  0  0  0  0  0  0  0
  -21.0025  -29.6072   18.2422 N   0  0  0  0  0  0  0  0  0  0  0  0
  -22.0940  -30.2273   24.6811 N   0  0  0  0  0  0  0  0  0  0  0  0
  -20.5577  -28.5691   27.5021 N   0  3  0  0  0  0  0  0  0  0  0  0
  -22.6576  -14.7169   21.4303 O   0  0  0  0  0  0  0  0  0  0  0  0
  -22.7301  -28.4681   19.3100 O   0  0  0  0  0  0  0  0  0  0  0  0
  -21.0846  -31.0167   22.1186 O   0  0  0  0  0  0  0  0  0  0  0  0
  -22.5818  -28.1517   25.5929 O   0  0  0  0  0  0  0  0  0  0  0  0
  -31.9695  -14.6938   20.4639 O   0  0  0  0  0  0  0  0  0  0  0  0
  -21.7216   -6.9968   21.7641 O   0  0  0  0  0  0  0  0  0  0  0  0
  -22.7407  -22.7188   21.4842 O   0  0  0  0  0  0  0  0  0  1  0  0
  -24.0910  -20.2883   21.8211 O   0  0  0  0  0  0  0  0  0  0  0  0
  -18.9652   -6.7400   26.5328 F   0  0  0  0  0  0  0  0  0  0  0  0
  -22.2893   -5.0342   23.6266 F   0  0  0  0  0  0  0  0  0  0  0  0
  1  2  1  0  0  0  0
  1  5  2  0  0  0  0
  2  6  2  0  0  0  0
  3  8  2  0  0  0  0
  3 17  1  0  0  0  0
  4  9  1  0  0  0  0
  4 17  2  0  0  0  0
  5 19  1  0  0  0  0
  6 21  1  0  0  0  0
  7 10  2  0  0  0  0
  7 20  1  0  0  0  0
  8 24  1  0  0  0  0
  9 24  2  0  0  0  0
 10 25  1  0  0  0  0
 11 12  2  0  0  0  0
 11 26  1  0  0  0  0
 12 27  1  0  0  0  0
 13 22  1  0  0  0  0
 13 25  2  0  0  0  0
 14 27  2  0  0  0  0
 14 28  1  0  0  0  0
 15 23  1  0  0  0  0
 15 63  2  0  0  0  0
 16 23  2  0  0  0  0
 16 64  1  0  0  0  0
 17 29  1  0  0  0  0
 18 29  1  0  0  0  0
 18 30  2  0  0  0  0
 18 32  1  0  0  0  0
 19 21  2  0  0  0  0
 19 37  1  0  0  0  0
 20 22  2  0  0  0  0
 20 38  1  0  0  0  0
 21 50  1  0  0  0  0
 22 39  1  0  0  0  0
 23 49  1  0  0  0  0
 24 80  1  0  0  0  0
 25 81  1  0  0  0  0
 26 28  2  0  0  0  0
 26 80  1  0  0  0  0
 27 83  1  0  0  0  0
 28 84  1  0  0  0  0
 29 65  2  0  0  0  0
 30 66  1  0  0  0  0
 30 70  1  0  0  0  0
 31 63  1  0  0  0  0
 31 64  2  0  0  0  0
 31 82  1  0  0  0  0
 32 71  1  0  0  0  0
 32 75  2  0  0  0  0
 33 51  1  0  0  0  0
 33 72  1  0  0  0  0
 33 76  2  0  0  0  0
 34 60  1  0  0  0  0
 34 67  1  0  0  0  0
 34 77  2  0  0  0  0
 35 61  1  0  0  0  0
 35 73  1  0  0  0  0
 35 78  2  0  0  0  0
 36 68  1  0  0  0  0
 36 69  1  0  0  0  0
 36 79  2  0  0  0  0
 37 40  1  0  0  0  0
 38 51  1  0  0  0  0
 39 67  1  0  0  0  0
 40 42  1  0  0  0  0
 41 43  1  0  0  0  0
 41 45  1  0  0  0  0
 42 50  1  0  0  0  0
 43 52  1  0  0  0  0
 44 46  1  0  0  0  0
 44 49  1  0  0  0  0
 45 68  1  0  0  0  0
 46 69  1  0  0  0  0
 47 49  1  0  0  0  0
 47 69  1  0  0  0  0
 48 52  1  0  0  0  0
 48 68  1  0  0  0  0
 50 72  1  0  0  0  0
 51 67  1  0  0  0  0
 52 66  1  0  0  0  0
 53 61  1  0  0  0  0
 54 62  1  0  0  0  0
 55 62  1  0  0  0  0
 56 62  1  0  0  0  0
 57 74  1  0  0  0  0
 58 59  1  0  0  0  0
 58 81  1  0  0  0  0
 59 82  1  0  0  0  0
 60 62  1  0  0  0  0
 60 73  1  0  0  0  0
 61 74  1  0  0  0  0
 65 66  1  0  0  0  0
M  CHG  1  74   1
M  ISO  4  36 100  58 101  69 100  81 101
M  END
> <Batch ID>
0195

> <Smiles>
CNC(C)C(=O)NC(C(=O)N1Cc2cc([101O:1][101CH2:1]COc3ncc(C4CC[100N:0]([100C:0](=O)N5CCCC(n6nc(-c7ccc(Oc8ccc(F)cc8F)cc7)c(C(N)=O)c6N)C5)C4)cn3)ccc2CC1C(=O)NC1CCCc2ccccc21)C(C)(C)C

> <Shape>
0.251

> <Color>
0.182

> <Negative vol penalty>
0.000

$$$$

  -OEChem-04052323373D

 84 93  0     1  0  0  0  0  0999 V2000
  -27.2270  -37.7896   21.8024 C   0  0  0  0  0  0  0  0  0  0  0  0
  -27.8047  -36.6929   21.1708 C   0  0  0  0  0  0  0  0  0  0  0  0
  -24.1579   -9.8787   22.0814 C   0  0  0  0  0  0  0  0  0  0  0  0
  -24.4570   -8.8193   19.9308 C   0  0  0  0  0  0  0  0  0  0  0  0
  -26.3868  -37.5985   22.8986 C   0  0  0  0  0  0  0  0  0  0  0  0
  -27.5435  -35.4045   21.6358 C   0  0  0  0  0  0  0  0  0  0  0  0
  -26.7851  -28.6741   19.3027 C   0  0  0  0  0  0  0  0  0  0  0  0
  -23.0447   -9.0737   22.3231 C   0  0  0  0  0  0  0  0  0  0  0  0
  -23.3439   -8.0142   20.1725 C   0  0  0  0  0  0  0  0  0  0  0  0
  -27.2664  -27.3887   19.5472 C   0  0  0  0  0  0  0  0  0  0  0  0
  -22.4347   -5.8949   23.3009 C   0  0  0  0  0  0  0  0  0  0  0  0
  -22.3253   -5.3004   24.5579 C   0  0  0  0  0  0  0  0  0  0  0  0
  -25.7363  -27.1747   21.3998 C   0  0  0  0  0  0  0  0  0  0  0  0
  -20.2309   -6.4493   24.9192 C   0  0  0  0  0  0  0  0  0  0  0  0
  -24.8640   -9.7515   20.8852 C   0  0  0  0  0  0  0  0  0  0  0  0
  -27.3540  -10.3012   20.9598 C   0  0  0  0  0  0  0  0  0  0  0  0
  -26.1075  -36.3065   23.3712 C   0  0  0  0  0  0  0  0  0  0  0  0
  -25.7816  -29.2245   20.1130 C   0  0  0  0  0  0  0  0  0  0  0  0
  -26.6999  -35.1960   22.7402 C   0  0  0  0  0  0  0  0  0  0  0  0
  -25.2421  -28.4663   21.1618 C   0  0  0  0  0  0  0  0  0  0  0  0
  -22.6377   -8.1414   21.3687 C   0  0  0  0  0  0  0  0  0  0  0  0
  -26.7441  -26.6399   20.5976 C   0  0  0  0  0  0  0  0  0  0  0  0
  -21.4421   -6.7667   22.8530 C   0  0  0  0  0  0  0  0  0  0  0  0
  -21.2235   -5.5775   25.3671 C   0  0  0  0  0  0  0  0  0  0  0  0
  -20.3403   -7.0439   23.6621 C   0  0  0  0  0  0  0  0  0  0  0  0
  -26.0136  -10.5832   20.6346 C   0  0  0  0  0  0  0  0  0  0  0  0
  -28.0528  -11.3972   20.5161 C   0  0  0  0  0  0  0  0  0  0  0  0
  -27.9170   -9.1513   21.6050 C   0  0  0  0  0  0  0  0  0  0  0  0
  -25.5868  -31.7423   22.0434 C   0  0  0  0  0  0  0  0  0  0  0  0
  -22.4661  -30.8749   22.2204 C   0  0  0  0  0  0  0  0  0  0  0  0
  -20.1229  -28.4110   21.9287 C   0  0  0  0  0  0  0  0  0  0  0  0
  -28.8012  -16.6843   19.9616 C   0  0  0  0  0  0  0  0  0  0  0  0
  -25.2308  -36.1527   24.5887 C   0  0  0  0  0  0  0  0  0  0  0  0
  -25.2544  -30.6023   19.8195 C   0  0  0  0  0  0  0  0  0  0  0  0
  -24.1495  -29.0036   22.0484 C   0  0  0  0  0  0  0  0  0  0  0  0
  -24.7070  -34.7326   24.7867 C   0  0  0  0  0  0  0  0  0  0  0  0
  -26.6275  -15.2639   17.5950 C   0  0  0  0  0  0  0  0  0  0  0  0
  -25.8341  -33.7192   24.6150 C   0  0  0  0  0  0  0  0  0  0  0  0
  -26.3763  -13.8846   18.2034 C   0  0  0  0  0  0  0  0  0  0  0  0
  -30.6828  -22.4915   21.3107 C   0  0  0  0  0  0  0  0  0  0  0  0
  -28.1850  -22.7454   21.4445 C   0  0  0  0  0  0  0  0  0  0  0  0
  -26.6512  -16.3639   18.6578 C   0  0  0  0  0  0  0  0  0  0  0  0
  -27.7145  -18.9468   19.6086 C   0  0  0  0  0  0  0  0  0  0  0  0
  -30.1663  -18.6958   19.4929 C   0  0  0  0  0  0  0  0  0  0  0  0
  -27.3435  -14.7253   20.3769 C   0  0  0  0  0  0  0  0  0  0  0  0
  -30.8497  -23.6696   22.2577 C   0  0  0  0  0  0  0  0  0  0  0  0
  -27.8644  -19.9995   20.7023 C   0  0  0  0  0  0  0  0  0  0  0  0
  -30.3523  -19.7224   20.5983 C   0  0  0  0  0  0  0  0  0  0  0  0
  -26.4210  -33.7814   23.1997 C   0  0  1  0  0  0  0  0  0  0  0  0
  -24.5917  -31.2582   21.0270 C   0  0  1  0  0  0  0  0  0  0  0  0
  -27.3727  -13.5924   19.3394 C   0  0  1  0  0  0  0  0  0  0  0  0
  -29.3601  -21.7831   21.5616 C   0  0  1  0  0  0  0  0  0  0  0  0
  -28.3398  -23.9446   22.3915 C   0  0  2  0  0  0  0  0  0  0  0  0
  -17.6600  -27.9960   22.1721 C   0  0  0  0  0  0  0  0  0  0  0  0
  -22.7698  -30.8678   25.2565 C   0  0  0  0  0  0  0  0  0  0  0  0
  -20.6396  -29.5598   25.3967 C   0  0  0  0  0  0  0  0  0  0  0  0
  -20.6289  -31.8571   24.4245 C   0  0  0  0  0  0  0  0  0  0  0  0
  -29.9193  -25.8578   22.9483 C   0  0  0  0  0  0  0  0  0  0  0  0
  -19.8527  -27.6462   19.0825 C   0  0  0  0  0  0  0  0  0  0  0  0
  -27.1848  -24.9219   22.1820 C   0  0  0  0  0  0  0  0  0  1  0  0
  -21.6597  -29.9596   23.1096 C   0  0  1  0  0  0  0  0  0  0  0  0
  -18.7819  -28.3752   21.2181 C   0  0  2  0  0  0  0  0  0  0  0  0
  -21.4464  -30.5514   24.5315 C   0  0  0  0  0  0  0  0  0  0  0  0
  -25.8673  -11.7658   20.0312 N   0  0  0  0  0  0  0  0  0  0  0  0
  -27.1247  -12.2366   19.9736 N   0  0  0  0  0  0  0  0  0  0  0  0
  -23.6717  -30.3581   21.7251 N   0  0  0  0  0  0  0  0  0  0  0  0
  -27.5845  -16.0220   19.7403 N   0  0  0  0  0  0  0  0  0  0  0  0
  -28.8661  -18.0367   19.5948 N   0  0  0  0  0  0  0  0  0  0  0  0
  -29.3645  -11.7153   20.5411 N   0  0  0  0  0  0  0  0  0  0  0  0
  -27.0566   -8.1164   21.9960 N   0  0  0  0  0  0  0  0  0  0  0  0
  -25.5503  -33.1063   22.2613 N   0  0  0  0  0  0  0  0  0  0  0  0
  -20.4234  -29.6756   22.3891 N   0  0  0  0  0  0  0  0  0  0  0  0
  -29.1969  -20.6954   20.5615 N   0  3  0  0  0  0  0  0  0  0  0  0
  -29.6793  -24.6243   22.1112 N   0  3  1  0  0  0  0  0  0  0  0  0
  -18.8105  -27.3817   20.1077 N   0  3  0  0  0  0  0  0  0  0  0  0
  -29.1446   -9.0520   21.8431 O   0  0  0  0  0  0  0  0  0  0  0  0
  -26.3315  -30.9375   22.5907 O   0  0  0  0  0  0  0  0  0  0  0  0
  -22.0386  -32.0043   21.9685 O   0  0  0  0  0  0  0  0  0  0  0  0
  -20.8311  -27.4159   22.0653 O   0  0  0  0  0  0  0  0  0  0  0  0
  -29.7730  -16.1012   20.4588 O   0  0  0  0  0  0  0  0  0  0  0  0
  -21.5517   -7.3555   21.6044 O   0  0  0  0  0  0  0  0  0  0  0  0
  -27.2169  -25.3737   20.8411 O   0  0  0  0  0  0  0  0  0  1  0  0
  -21.1178   -5.0053   26.5736 F   0  0  0  0  0  0  0  0  0  0  0  0
  -19.3830   -7.8796   23.2368 F   0  0  0  0  0  0  0  0  0  0  0  0
  1  2  1  0  0  0  0
  1  5  2  0  0  0  0
  2  6  2  0  0  0  0
  3  8  2  0  0  0  0
  3 15  1  0  0  0  0
  4  9  1  0  0  0  0
  4 15  2  0  0  0  0
  5 17  1  0  0  0  0
  6 19  1  0  0  0  0
  7 10  2  0  0  0  0
  7 18  1  0  0  0  0
  8 21  1  0  0  0  0
  9 21  2  0  0  0  0
 10 22  1  0  0  0  0
 11 12  2  0  0  0  0
 11 23  1  0  0  0  0
 12 24  1  0  0  0  0
 13 20  1  0  0  0  0
 13 22  2  0  0  0  0
 14 24  2  0  0  0  0
 14 25  1  0  0  0  0
 15 26  1  0  0  0  0
 16 26  1  0  0  0  0
 16 27  2  0  0  0  0
 16 28  1  0  0  0  0
 17 19  2  0  0  0  0
 17 33  1  0  0  0  0
 18 20  2  0  0  0  0
 18 34  1  0  0  0  0
 19 49  1  0  0  0  0
 20 35  1  0  0  0  0
 21 81  1  0  0  0  0
 22 82  1  0  0  0  0
 23 25  2  0  0  0  0
 23 81  1  0  0  0  0
 24 83  1  0  0  0  0
 25 84  1  0  0  0  0
 26 64  2  0  0  0  0
 27 65  1  0  0  0  0
 27 69  1  0  0  0  0
 28 70  1  0  0  0  0
 28 76  2  0  0  0  0
 29 50  1  0  0  0  0
 29 71  1  0  0  0  0
 29 77  2  0  0  0  0
 30 61  1  0  0  0  0
 30 66  1  0  0  0  0
 30 78  2  0  0  0  0
 31 62  1  0  0  0  0
 31 72  1  0  0  0  0
 31 79  2  0  0  0  0
 32 67  1  0  0  0  0
 32 68  1  0  0  0  0
 32 80  2  0  0  0  0
 33 36  1  0  0  0  0
 34 50  1  0  0  0  0
 35 66  1  0  0  0  0
 36 38  1  0  0  0  0
 37 39  1  0  0  0  0
 37 42  1  0  0  0  0
 38 49  1  0  0  0  0
 39 51  1  0  0  0  0
 40 46  1  0  0  0  0
 40 52  1  0  0  0  0
 41 52  1  0  0  0  0
 41 53  1  0  0  0  0
 42 67  1  0  0  0  0
 43 47  1  0  0  0  0
 43 68  1  0  0  0  0
 44 48  1  0  0  0  0
 44 68  1  0  0  0  0
 45 51  1  0  0  0  0
 45 67  1  0  0  0  0
 46 74  1  0  0  0  0
 47 73  1  0  0  0  0
 48 73  1  0  0  0  0
 49 71  1  0  0  0  0
 50 66  1  0  0  0  0
 51 65  1  0  0  0  0
 52 73  1  0  0  0  0
 53 60  1  0  0  0  0
 53 74  1  0  0  0  0
 54 62  1  0  0  0  0
 55 63  1  0  0  0  0
 56 63  1  0  0  0  0
 57 63  1  0  0  0  0
 58 74  1  0  0  0  0
 59 75  1  0  0  0  0
 60 82  1  0  0  0  0
 61 63  1  0  0  0  0
 61 72  1  0  0  0  0
 62 75  1  0  0  0  0
 64 65  1  0  0  0  0
M  CHG  3  73   1  74   1  75   1
M  ISO  4  32 100  60 101  68 100  82 101
M  END
> <Batch ID>
0195

> <Smiles>
CNC(C)C(=O)NC(C(=O)N1Cc2cc([101O:1][101CH2:1]C3CC(N4CC[100N:0]([100C:0](=O)N5CCCC(n6nc(-c7ccc(Oc8ccc(F)cc8F)cc7)c(C(N)=O)c6N)C5)CC4)CCN3C)ccc2CC1C(=O)NC1CCCc2ccccc21)C(C)(C)C

> <Shape>
0.322

> <Color>
0.087

> <Negative vol penalty>
0.000

$$$$

  -OEChem-04052323373D

 88 97  0     1  0  0  0  0  0999 V2000
  -22.7833   -8.1112   22.2739 C   0  0  0  0  0  0  0  0  0  0  0  0
  -23.6063   -8.9173   21.4939 C   0  0  0  0  0  0  0  0  0  0  0  0
  -22.4074  -28.1392   19.5461 C   0  0  0  0  0  0  0  0  0  0  0  0
  -22.6882  -27.5881   21.8816 C   0  0  0  0  0  0  0  0  0  0  0  0
  -21.5531   -8.5950   22.7170 C   0  0  0  0  0  0  0  0  0  0  0  0
  -23.1989  -10.2073   21.1557 C   0  0  0  0  0  0  0  0  0  0  0  0
  -26.8956  -13.6223   21.7191 C   0  0  0  0  0  0  0  0  0  0  0  0
  -21.0220  -28.1051   19.7046 C   0  0  0  0  0  0  0  0  0  0  0  0
  -21.3028  -27.5540   22.0401 C   0  0  0  0  0  0  0  0  0  0  0  0
  -27.8696  -13.6765   20.7230 C   0  0  0  0  0  0  0  0  0  0  0  0
  -18.7838  -29.7768   22.4065 C   0  0  0  0  0  0  0  0  0  0  0  0
  -18.2451  -30.4131   23.5247 C   0  0  0  0  0  0  0  0  0  0  0  0
  -32.1770  -17.9085   19.0162 C   0  0  0  0  0  0  0  0  0  0  0  0
  -26.7599  -15.5846   19.7500 C   0  0  0  0  0  0  0  0  0  0  0  0
  -17.3025  -28.3151   24.2643 C   0  0  0  0  0  0  0  0  0  0  0  0
  -34.6287  -18.6328   18.0622 C   0  0  0  0  0  0  0  0  0  0  0  0
  -23.2405  -27.8807   20.6346 C   0  0  0  0  0  0  0  0  0  0  0  0
  -33.0211  -16.9343   18.4948 C   0  0  0  0  0  0  0  0  0  0  0  0
  -25.5190  -29.0279   20.6322 C   0  0  0  0  0  0  0  0  0  0  0  0
  -21.1347   -9.8950   22.3921 C   0  0  0  0  0  0  0  0  0  0  0  0
  -25.8386  -14.5437   21.7318 C   0  0  0  0  0  0  0  0  0  0  0  0
  -21.9613  -10.7084   21.5938 C   0  0  0  0  0  0  0  0  0  0  0  0
  -25.7752  -15.5416   20.7488 C   0  0  0  0  0  0  0  0  0  0  0  0
  -20.4697  -27.8125   20.9516 C   0  0  0  0  0  0  0  0  0  0  0  0
  -27.8003  -14.6559   19.7366 C   0  0  0  0  0  0  0  0  0  0  0  0
  -18.5818  -28.4097   22.2170 C   0  0  0  0  0  0  0  0  0  0  0  0
  -17.5045  -29.6822   24.4537 C   0  0  0  0  0  0  0  0  0  0  0  0
  -17.8411  -27.6788   23.1460 C   0  0  0  0  0  0  0  0  0  0  0  0
  -34.2720  -17.2951   18.0066 C   0  0  0  0  0  0  0  0  0  0  0  0
  -24.6717  -27.9153   20.4713 C   0  0  0  0  0  0  0  0  0  0  0  0
  -32.6276  -19.2187   19.0268 C   0  0  0  0  0  0  0  0  0  0  0  0
  -26.7765  -28.5430   20.3674 C   0  0  0  0  0  0  0  0  0  0  0  0
  -32.5554  -15.5533   18.4787 C   0  0  0  0  0  0  0  0  0  0  0  0
  -25.1981  -30.3790   20.9891 C   0  0  0  0  0  0  0  0  0  0  0  0
  -22.6757  -14.3324   21.4969 C   0  0  0  0  0  0  0  0  0  0  0  0
  -22.8058  -17.5087   22.1422 C   0  0  0  0  0  0  0  0  0  0  0  0
  -24.6112  -20.4042   22.0896 C   0  0  0  0  0  0  0  0  0  0  0  0
  -29.2483  -23.3370   20.8314 C   0  0  0  0  0  0  0  0  0  0  0  0
  -19.7756  -10.3571   22.8547 C   0  0  0  0  0  0  0  0  0  0  0  0
  -24.8107  -14.4884   22.8286 C   0  0  0  0  0  0  0  0  0  0  0  0
  -24.6720  -16.5668   20.7296 C   0  0  0  0  0  0  0  0  0  0  0  0
  -19.5833  -11.8688   22.7656 C   0  0  0  0  0  0  0  0  0  0  0  0
  -29.0465  -25.1776   17.8463 C   0  0  0  0  0  0  0  0  0  0  0  0
  -20.0675  -12.3900   21.4163 C   0  0  0  0  0  0  0  0  0  0  0  0
  -27.9733  -26.2078   18.1966 C   0  0  0  0  0  0  0  0  0  0  0  0
  -28.7111  -23.7907   18.3971 C   0  0  0  0  0  0  0  0  0  0  0  0
  -32.3332  -21.3778   20.2013 C   0  0  0  0  0  0  0  0  0  0  0  0
  -30.4466  -20.3441   18.9292 C   0  0  0  0  0  0  0  0  0  0  0  0
  -31.3198  -22.0331   21.1358 C   0  0  0  0  0  0  0  0  0  0  0  0
  -29.4683  -21.0066   19.8928 C   0  0  0  0  0  0  0  0  0  0  0  0
  -27.3546  -24.8041   20.2002 C   0  0  0  0  0  0  0  0  0  0  0  0
  -21.5655  -12.1221   21.2267 C   0  0  1  0  0  0  0  0  0  0  0  0
  -23.4943  -15.1588   22.4480 C   0  0  1  0  0  0  0  0  0  0  0  0
  -27.6929  -26.2206   19.7099 C   0  0  2  0  0  0  0  0  0  0  0  0
  -24.4369  -22.8448   22.6468 C   0  0  0  0  0  0  0  0  0  0  0  0
  -21.1336  -17.9602   19.6303 C   0  0  0  0  0  0  0  0  0  0  0  0
  -21.7906  -20.3748   19.7113 C   0  0  0  0  0  0  0  0  0  0  0  0
  -20.4820  -19.3765   21.5858 C   0  0  0  0  0  0  0  0  0  0  0  0
  -26.8054  -20.2282   24.0679 C   0  0  0  0  0  0  0  0  0  0  0  0
  -30.7757  -13.9803   17.6849 C   0  0  0  0  0  0  0  0  0  0  0  0
  -29.7879  -13.7345   18.8113 C   0  0  0  0  0  0  0  0  0  1  0  0
  -22.9197  -18.7645   21.3122 C   0  0  1  0  0  0  0  0  0  0  0  0
  -24.8412  -21.4673   23.1486 C   0  0  2  0  0  0  0  0  0  0  0  0
  -21.6013  -19.0986   20.5589 C   0  0  0  0  0  0  0  0  0  0  0  0
  -33.8360  -19.6074   18.5615 N   0  0  0  0  0  0  0  0  0  0  0  0
  -25.3349  -26.8071   20.1306 N   0  0  0  0  0  0  0  0  0  0  0  0
  -26.6123  -27.2210   20.0751 N   0  0  0  0  0  0  0  0  0  0  0  0
  -31.7666  -20.1887   19.5557 N   0  0  0  0  0  0  0  0  0  0  0  0
  -23.6873  -16.4672   21.8196 N   0  0  0  0  0  0  0  0  0  0  0  0
  -28.4118  -23.8594   19.8337 N   0  0  0  0  0  0  0  0  0  0  0  0
  -30.0288  -22.2227   20.4855 N   0  0  0  0  0  0  0  0  0  0  0  0
  -27.9956  -29.1228   20.3584 N   0  0  0  0  0  0  0  0  0  0  0  0
  -23.8563  -30.7065   21.2270 N   0  0  0  0  0  0  0  0  0  0  0  0
  -31.3764  -15.2918   17.7738 N   0  0  0  0  0  0  0  0  0  0  0  0
  -22.3491  -13.0790   21.9783 N   0  0  0  0  0  0  0  0  0  0  0  0
  -23.3720  -19.8137   22.2193 N   0  0  0  0  0  0  0  0  0  0  0  0
  -26.2799  -21.5113   23.5346 N   0  3  0  0  0  0  0  0  0  0  0  0
  -33.1831  -14.6716   19.0882 O   0  0  0  0  0  0  0  0  0  0  0  0
  -26.0734  -31.2731   21.0780 O   0  0  0  0  0  0  0  0  0  0  0  0
  -22.3624  -14.7980   20.4075 O   0  0  0  0  0  0  0  0  0  0  0  0
  -21.9704  -17.4564   23.0483 O   0  0  0  0  0  0  0  0  0  0  0  0
  -25.4459  -20.1281   21.2308 O   0  0  0  0  0  0  0  0  0  0  0  0
  -29.2988  -23.8361   21.9624 O   0  0  0  0  0  0  0  0  0  0  0  0
  -19.1179  -27.7793   21.1067 O   0  0  0  0  0  0  0  0  0  0  0  0
  -28.7560  -14.7110   18.7560 O   0  0  0  0  0  0  0  0  0  1  0  0
  -16.9886  -30.2930   25.5284 F   0  0  0  0  0  0  0  0  0  0  0  0
  -17.6447  -26.3650   22.9700 F   0  0  0  0  0  0  0  0  0  0  0  0
  -35.3709  -16.1473   17.3470 Cl  0  0  0  0  0  0  0  0  0  0  0  0
  1  2  1  0  0  0  0
  1  5  2  0  0  0  0
  2  6  2  0  0  0  0
  3  8  2  0  0  0  0
  3 17  1  0  0  0  0
  4  9  1  0  0  0  0
  4 17  2  0  0  0  0
  5 20  1  0  0  0  0
  6 22  1  0  0  0  0
  7 10  2  0  0  0  0
  7 21  1  0  0  0  0
  8 24  1  0  0  0  0
  9 24  2  0  0  0  0
 10 25  1  0  0  0  0
 11 12  2  0  0  0  0
 11 26  1  0  0  0  0
 12 27  1  0  0  0  0
 13 18  1  0  0  0  0
 13 31  2  0  0  0  0
 14 23  1  0  0  0  0
 14 25  2  0  0  0  0
 15 27  2  0  0  0  0
 15 28  1  0  0  0  0
 16 29  1  0  0  0  0
 16 65  2  0  0  0  0
 17 30  1  0  0  0  0
 18 29  2  0  0  0  0
 18 33  1  0  0  0  0
 19 30  1  0  0  0  0
 19 32  2  0  0  0  0
 19 34  1  0  0  0  0
 20 22  2  0  0  0  0
 20 39  1  0  0  0  0
 21 23  2  0  0  0  0
 21 40  1  0  0  0  0
 22 52  1  0  0  0  0
 23 41  1  0  0  0  0
 24 84  1  0  0  0  0
 25 85  1  0  0  0  0
 26 28  2  0  0  0  0
 26 84  1  0  0  0  0
 27 86  1  0  0  0  0
 28 87  1  0  0  0  0
 29 88  1  0  0  0  0
 30 66  2  0  0  0  0
 31 65  1  0  0  0  0
 31 68  1  0  0  0  0
 32 67  1  0  0  0  0
 32 72  1  0  0  0  0
 33 74  1  0  0  0  0
 33 78  2  0  0  0  0
 34 73  1  0  0  0  0
 34 79  2  0  0  0  0
 35 53  1  0  0  0  0
 35 75  1  0  0  0  0
 35 80  2  0  0  0  0
 36 62  1  0  0  0  0
 36 69  1  0  0  0  0
 36 81  2  0  0  0  0
 37 63  1  0  0  0  0
 37 76  1  0  0  0  0
 37 82  2  0  0  0  0
 38 70  1  0  0  0  0
 38 71  1  0  0  0  0
 38 83  2  0  0  0  0
 39 42  1  0  0  0  0
 40 53  1  0  0  0  0
 41 69  1  0  0  0  0
 42 44  1  0  0  0  0
 43 45  1  0  0  0  0
 43 46  1  0  0  0  0
 44 52  1  0  0  0  0
 45 54  1  0  0  0  0
 46 70  1  0  0  0  0
 47 49  1  0  0  0  0
 47 68  1  0  0  0  0
 48 50  1  0  0  0  0
 48 68  1  0  0  0  0
 49 71  1  0  0  0  0
 50 71  1  0  0  0  0
 51 54  1  0  0  0  0
 51 70  1  0  0  0  0
 52 75  1  0  0  0  0
 53 69  1  0  0  0  0
 54 67  1  0  0  0  0
 55 63  1  0  0  0  0
 56 64  1  0  0  0  0
 57 64  1  0  0  0  0
 58 64  1  0  0  0  0
 59 77  1  0  0  0  0
 60 61  1  0  0  0  0
 60 74  1  0  0  0  0
 61 85  1  0  0  0  0
 62 64  1  0  0  0  0
 62 76  1  0  0  0  0
 63 77  1  0  0  0  0
 66 67  1  0  0  0  0
M  CHG  1  77   1
M  ISO  4  38 100  61 101  71 100  85 101
M  END
> <Batch ID>
0195

> <Smiles>
CNC(C)C(=O)NC(C(=O)N1Cc2cc([101O:1][101CH2:1]CNC(=O)c3cc(N4CC[100N:0]([100C:0](=O)N5CCCC(n6nc(-c7ccc(Oc8ccc(F)cc8F)cc7)c(C(N)=O)c6N)C5)CC4)ncc3Cl)ccc2CC1C(=O)NC1CCCc2ccccc21)C(C)(C)C

> <Shape>
0.233

> <Color>
0.070

> <Negative vol penalty>
0.000

$$$$

  -OEChem-04052323373D

 85 95  0     1  0  0  0  0  0999 V2000
  -17.7985  -32.9332   18.8751 C   0  0  0  0  0  0  0  0  0  0  0  0
  -18.0374  -31.5629   18.8962 C   0  0  0  0  0  0  0  0  0  0  0  0
  -23.9186  -10.1587   22.6733 C   0  0  0  0  0  0  0  0  0  0  0  0
  -24.5764  -11.9725   24.1274 C   0  0  0  0  0  0  0  0  0  0  0  0
  -18.8646  -33.8270   18.9659 C   0  0  0  0  0  0  0  0  0  0  0  0
  -19.3428  -31.0855   19.0070 C   0  0  0  0  0  0  0  0  0  0  0  0
  -23.0786  -25.6376   21.7785 C   0  0  0  0  0  0  0  0  0  0  0  0
  -23.4792   -9.4313   23.7794 C   0  0  0  0  0  0  0  0  0  0  0  0
  -24.1370  -11.2451   25.2335 C   0  0  0  0  0  0  0  0  0  0  0  0
  -24.0181  -24.6768   21.4073 C   0  0  0  0  0  0  0  0  0  0  0  0
  -20.7781   -9.3777   25.8125 C   0  0  0  0  0  0  0  0  0  0  0  0
  -19.5411   -8.7399   25.7192 C   0  0  0  0  0  0  0  0  0  0  0  0
  -27.5624  -21.9744   19.1169 C   0  0  0  0  0  0  0  0  0  0  0  0
  -28.6183  -21.1198   18.8531 C   0  0  0  0  0  0  0  0  0  0  0  0
  -25.7746  -26.3142   21.6373 C   0  0  0  0  0  0  0  0  0  0  0  0
  -20.6128   -6.6070   26.0927 C   0  0  0  0  0  0  0  0  0  0  0  0
  -24.4672  -11.4293   22.8473 C   0  0  0  0  0  0  0  0  0  0  0  0
  -24.1697  -13.0795   20.9248 C   0  0  0  0  0  0  0  0  0  0  0  0
  -20.1830  -33.3604   19.0877 C   0  0  0  0  0  0  0  0  0  0  0  0
  -23.4794  -26.9490   22.0718 C   0  0  0  0  0  0  0  0  0  0  0  0
  -20.4278  -31.9739   19.0982 C   0  0  0  0  0  0  0  0  0  0  0  0
  -24.8385  -27.2891   22.0145 C   0  0  0  0  0  0  0  0  0  0  0  0
  -23.5884   -9.9745   25.0595 C   0  0  0  0  0  0  0  0  0  0  0  0
  -25.3660  -25.0157   21.3338 C   0  0  0  0  0  0  0  0  0  0  0  0
  -21.9324   -8.6302   26.0459 C   0  0  0  0  0  0  0  0  0  0  0  0
  -19.4585   -7.3546   25.8594 C   0  0  0  0  0  0  0  0  0  0  0  0
  -21.8498   -7.2449   26.1860 C   0  0  0  0  0  0  0  0  0  0  0  0
  -24.9217  -12.1810   21.7051 C   0  0  0  0  0  0  0  0  0  0  0  0
  -26.9398  -21.8724   20.3447 C   0  0  0  0  0  0  0  0  0  0  0  0
  -28.9820  -20.2200   19.8348 C   0  0  0  0  0  0  0  0  0  0  0  0
  -25.0508  -13.5261   19.9705 C   0  0  0  0  0  0  0  0  0  0  0  0
  -22.7974  -13.4752   21.0513 C   0  0  0  0  0  0  0  0  0  0  0  0
  -22.8732  -29.8110   20.8288 C   0  0  0  0  0  0  0  0  0  0  0  0
  -24.5800  -30.8510   23.3836 C   0  0  0  0  0  0  0  0  0  0  0  0
  -26.9286  -30.1788   25.7667 C   0  0  0  0  0  0  0  0  0  0  0  0
  -30.0053  -15.3364   18.4030 C   0  0  0  0  0  0  0  0  0  0  0  0
  -21.3071  -34.3648   19.1353 C   0  0  0  0  0  0  0  0  0  0  0  0
  -22.4567  -27.9669   22.4966 C   0  0  0  0  0  0  0  0  0  0  0  0
  -25.3228  -28.6778   22.3392 C   0  0  0  0  0  0  0  0  0  0  0  0
  -22.6277  -33.7781   19.6274 C   0  0  0  0  0  0  0  0  0  0  0  0
  -29.6546  -11.8938   18.7006 C   0  0  0  0  0  0  0  0  0  0  0  0
  -22.9155  -32.4522   18.9303 C   0  0  0  0  0  0  0  0  0  0  0  0
  -28.3358  -11.7210   19.4521 C   0  0  0  0  0  0  0  0  0  0  0  0
  -31.9979  -18.1795   19.9821 C   0  0  0  0  0  0  0  0  0  0  0  0
  -31.9544  -18.5881   18.5026 C   0  0  0  0  0  0  0  0  0  0  0  0
  -30.4528  -13.0618   19.2665 C   0  0  0  0  0  0  0  0  0  0  0  0
  -28.3823  -14.2085   19.9917 C   0  0  0  0  0  0  0  0  0  0  0  0
  -29.7305  -17.0680   20.2568 C   0  0  0  0  0  0  0  0  0  0  0  0
  -29.6617  -17.7319   17.8327 C   0  0  0  0  0  0  0  0  0  0  0  0
  -21.8277  -31.4174   19.2422 C   0  0  1  0  0  0  0  0  0  0  0  0
  -22.9166  -29.4044   22.2746 C   0  0  1  0  0  0  0  0  0  0  0  0
  -27.5343  -13.0337   19.4623 C   0  0  2  0  0  0  0  0  0  0  0  0
  -30.5531  -18.3539   20.4856 C   0  0  2  0  0  0  0  0  0  0  0  0
  -30.4863  -18.9685   18.2391 C   0  0  1  0  0  0  0  0  0  0  0  0
  -28.1418  -31.2383   27.6910 C   0  0  0  0  0  0  0  0  0  0  0  0
  -26.3379  -32.3928   21.4233 C   0  0  0  0  0  0  0  0  0  0  0  0
  -28.0382  -32.6333   23.2452 C   0  0  0  0  0  0  0  0  0  0  0  0
  -25.7708  -33.6371   23.5173 C   0  0  0  0  0  0  0  0  0  0  0  0
  -25.8402  -28.2086   27.6884 C   0  0  0  0  0  0  0  0  0  0  0  0
  -25.7988  -22.7706   20.6795 C   0  0  0  0  0  0  0  0  0  1  0  0
  -26.0395  -31.1269   23.6537 C   0  0  1  0  0  0  0  0  0  0  0  0
  -26.9373  -30.4125   27.2666 C   0  0  2  0  0  0  0  0  0  0  0  0
  -26.5376  -32.4218   22.9518 C   0  0  0  0  0  0  0  0  0  0  0  0
  -26.1834  -12.0625   21.2831 N   0  0  0  0  0  0  0  0  0  0  0  0
  -27.3169  -20.9822   21.2867 N   0  0  0  0  0  0  0  0  0  0  0  0
  -28.3550  -20.1425   21.0276 N   0  0  0  0  0  0  0  0  0  0  0  0
  -26.2310  -12.8923   20.2271 N   0  0  0  0  0  0  0  0  0  0  0  0
  -30.0315  -19.3672   19.5701 N   0  0  0  0  0  0  0  0  0  0  0  0
  -24.2838  -29.6393   22.7434 N   0  0  0  0  0  0  0  0  0  0  0  0
  -29.6629  -14.2932   19.2748 N   0  0  0  0  0  0  0  0  0  0  0  0
  -29.7440  -16.6486   18.8343 N   0  0  0  0  0  0  0  0  0  0  0  0
  -24.9235  -14.3951   18.9453 N   0  0  0  0  0  0  0  0  0  0  0  0
  -22.0348  -12.9199   22.0878 N   0  0  0  0  0  0  0  0  0  0  0  0
  -22.0198  -30.8656   20.5662 N   0  0  0  0  0  0  0  0  0  0  0  0
  -26.1912  -31.1375   25.1046 N   0  0  0  0  0  0  0  0  0  0  0  0
  -26.9794  -29.1121   27.9933 N   0  3  0  0  0  0  0  0  0  0  0  0
  -22.2589  -14.2844   20.2584 O   0  0  0  0  0  0  0  0  0  0  0  0
  -23.5640  -29.2131   20.0121 O   0  0  0  0  0  0  0  0  0  0  0  0
  -23.7335  -31.6767   23.7345 O   0  0  0  0  0  0  0  0  0  0  0  0
  -27.5202  -29.2417   25.2351 O   0  0  0  0  0  0  0  0  0  0  0  0
  -30.5355  -15.1065   17.3086 O   0  0  0  0  0  0  0  0  0  0  0  0
  -23.1596   -9.2650   26.1390 O   0  0  0  0  0  0  0  0  0  0  0  0
  -26.2913  -24.0736   20.9686 O   0  0  0  0  0  0  0  0  0  1  0  0
  -18.2704   -6.7423   25.7713 F   0  0  0  0  0  0  0  0  0  0  0  0
  -22.9551   -6.5216   26.4114 F   0  0  0  0  0  0  0  0  0  0  0  0
  1  2  1  0  0  0  0
  1  5  2  0  0  0  0
  2  6  2  0  0  0  0
  3  8  2  0  0  0  0
  3 17  1  0  0  0  0
  4  9  1  0  0  0  0
  4 17  2  0  0  0  0
  5 19  1  0  0  0  0
  6 21  1  0  0  0  0
  7 10  2  0  0  0  0
  7 20  1  0  0  0  0
  8 23  1  0  0  0  0
  9 23  2  0  0  0  0
 10 24  1  0  0  0  0
 11 12  2  0  0  0  0
 11 25  1  0  0  0  0
 12 26  1  0  0  0  0
 13 14  2  0  0  0  0
 13 29  1  0  0  0  0
 14 30  1  0  0  0  0
 15 22  1  0  0  0  0
 15 24  2  0  0  0  0
 16 26  2  0  0  0  0
 16 27  1  0  0  0  0
 17 28  1  0  0  0  0
 18 28  1  0  0  0  0
 18 31  2  0  0  0  0
 18 32  1  0  0  0  0
 19 21  2  0  0  0  0
 19 37  1  0  0  0  0
 20 22  2  0  0  0  0
 20 38  1  0  0  0  0
 21 50  1  0  0  0  0
 22 39  1  0  0  0  0
 23 82  1  0  0  0  0
 24 83  1  0  0  0  0
 25 27  2  0  0  0  0
 25 82  1  0  0  0  0
 26 84  1  0  0  0  0
 27 85  1  0  0  0  0
 28 64  2  0  0  0  0
 29 60  1  0  0  0  0
 29 65  2  0  0  0  0
 30 66  2  0  0  0  0
 30 68  1  0  0  0  0
 31 67  1  0  0  0  0
 31 72  1  0  0  0  0
 32 73  1  0  0  0  0
 32 77  2  0  0  0  0
 33 51  1  0  0  0  0
 33 74  1  0  0  0  0
 33 78  2  0  0  0  0
 34 61  1  0  0  0  0
 34 69  1  0  0  0  0
 34 79  2  0  0  0  0
 35 62  1  0  0  0  0
 35 75  1  0  0  0  0
 35 80  2  0  0  0  0
 36 70  1  0  0  0  0
 36 71  1  0  0  0  0
 36 81  2  0  0  0  0
 37 40  1  0  0  0  0
 38 51  1  0  0  0  0
 39 69  1  0  0  0  0
 40 42  1  0  0  0  0
 41 43  1  0  0  0  0
 41 46  1  0  0  0  0
 42 50  1  0  0  0  0
 43 52  1  0  0  0  0
 44 45  1  0  0  0  0
 44 53  1  0  0  0  0
 45 54  1  0  0  0  0
 46 70  1  0  0  0  0
 47 52  1  0  0  0  0
 47 70  1  0  0  0  0
 48 53  1  0  0  0  0
 48 71  1  0  0  0  0
 49 54  1  0  0  0  0
 49 71  1  0  0  0  0
 50 74  1  0  0  0  0
 51 69  1  0  0  0  0
 52 67  1  0  0  0  0
 53 68  1  0  0  0  0
 54 68  1  0  0  0  0
 55 62  1  0  0  0  0
 56 63  1  0  0  0  0
 57 63  1  0  0  0  0
 58 63  1  0  0  0  0
 59 76  1  0  0  0  0
 60 83  1  0  0  0  0
 61 63  1  0  0  0  0
 61 75  1  0  0  0  0
 62 76  1  0  0  0  0
 64 67  1  0  0  0  0
 65 66  1  0  0  0  0
M  CHG  1  76   1
M  ISO  4  36 100  60 101  71 100  83 101
M  END
> <Batch ID>
0195

> <Smiles>
CNC(C)C(=O)NC(C(=O)N1Cc2cc([101O:1][101CH2:1]c3ccc(N4C5CCC4C[100N:0]([100C:0](=O)N4CCCC(n6nc(-c7ccc(Oc8ccc(F)cc8F)cc7)c(C(N)=O)c6N)C4)C5)nn3)ccc2CC1C(=O)NC1CCCc2ccccc21)C(C)(C)C

> <Shape>
0.234

> <Color>
0.090

> <Negative vol penalty>
0.000

$$$$

  -OEChem-04052323373D

 83 93  0     1  0  0  0  0  0999 V2000
  -29.6603  -36.6367   24.2130 C   0  0  0  0  0  0  0  0  0  0  0  0
  -29.9374  -35.6560   23.2660 C   0  0  0  0  0  0  0  0  0  0  0  0
  -24.2674   -9.5928   18.9697 C   0  0  0  0  0  0  0  0  0  0  0  0
  -25.1391   -8.9773   21.1373 C   0  0  0  0  0  0  0  0  0  0  0  0
  -28.7839  -36.3631   25.2623 C   0  0  0  0  0  0  0  0  0  0  0  0
  -29.3390  -34.4007   23.3683 C   0  0  0  0  0  0  0  0  0  0  0  0
  -26.8659  -29.0467   19.3020 C   0  0  0  0  0  0  0  0  0  0  0  0
  -24.0266   -8.2487   18.6849 C   0  0  0  0  0  0  0  0  0  0  0  0
  -24.8982   -7.6332   20.8525 C   0  0  0  0  0  0  0  0  0  0  0  0
  -26.9877  -27.6664   19.1479 C   0  0  0  0  0  0  0  0  0  0  0  0
  -22.2529   -5.5304   20.8224 C   0  0  0  0  0  0  0  0  0  0  0  0
  -21.6548   -4.7560   21.8164 C   0  0  0  0  0  0  0  0  0  0  0  0
  -25.4289  -27.3328   20.9584 C   0  0  0  0  0  0  0  0  0  0  0  0
  -23.5789   -3.2949   21.8360 C   0  0  0  0  0  0  0  0  0  0  0  0
  -26.6348  -21.3837   18.6428 C   0  0  0  0  0  0  0  0  0  0  0  0
  -24.8237   -9.9571   20.1959 C   0  0  0  0  0  0  0  0  0  0  0  0
  -24.1920  -12.2559   21.1036 C   0  0  0  0  0  0  0  0  0  0  0  0
  -28.1670  -35.1069   25.3721 C   0  0  0  0  0  0  0  0  0  0  0  0
  -26.0317  -29.5812   20.2943 C   0  0  0  0  0  0  0  0  0  0  0  0
  -28.4545  -34.1096   24.4208 C   0  0  0  0  0  0  0  0  0  0  0  0
  -25.2963  -28.7202   21.1214 C   0  0  0  0  0  0  0  0  0  0  0  0
  -26.1256  -22.6566   18.5593 C   0  0  0  0  0  0  0  0  0  0  0  0
  -24.3420   -7.2690   19.6263 C   0  0  0  0  0  0  0  0  0  0  0  0
  -26.2713  -26.8092   19.9780 C   0  0  0  0  0  0  0  0  0  0  0  0
  -23.5140   -5.1870   20.3351 C   0  0  0  0  0  0  0  0  0  0  0  0
  -22.3177   -3.6382   22.3232 C   0  0  0  0  0  0  0  0  0  0  0  0
  -24.1770   -4.0693   20.8419 C   0  0  0  0  0  0  0  0  0  0  0  0
  -25.0732  -11.3453   20.4905 C   0  0  0  0  0  0  0  0  0  0  0  0
  -27.2348  -23.4946   18.7813 C   0  0  0  0  0  0  0  0  0  0  0  0
  -24.8967  -13.4337   21.1556 C   0  0  0  0  0  0  0  0  0  0  0  0
  -22.8559  -12.0551   21.5834 C   0  0  0  0  0  0  0  0  0  0  0  0
  -26.4801  -31.4051   22.8587 C   0  0  0  0  0  0  0  0  0  0  0  0
  -23.2389  -31.3549   22.9800 C   0  0  0  0  0  0  0  0  0  0  0  0
  -20.3333  -29.7646   22.1585 C   0  0  0  0  0  0  0  0  0  0  0  0
  -28.0201  -17.1672   18.5754 C   0  0  0  0  0  0  0  0  0  0  0  0
  -27.2634  -34.8425   26.5503 C   0  0  0  0  0  0  0  0  0  0  0  0
  -25.8907  -31.0726   20.4301 C   0  0  0  0  0  0  0  0  0  0  0  0
  -24.3715  -29.2438   22.1886 C   0  0  0  0  0  0  0  0  0  0  0  0
  -26.3809  -33.6091   26.3764 C   0  0  0  0  0  0  0  0  0  0  0  0
  -29.7667  -14.4123   20.2994 C   0  0  0  0  0  0  0  0  0  0  0  0
  -23.9950  -22.5392   17.0365 C   0  0  0  0  0  0  0  0  0  0  0  0
  -24.3780  -23.9835   17.1242 C   0  0  0  0  0  0  0  0  0  0  0  0
  -27.2031  -32.4330   25.8592 C   0  0  0  0  0  0  0  0  0  0  0  0
  -28.6241  -13.4216   20.5017 C   0  0  0  0  0  0  0  0  0  0  0  0
  -30.1431  -20.3163   18.2402 C   0  0  0  0  0  0  0  0  0  0  0  0
  -29.6165  -15.2037   19.0009 C   0  0  0  0  0  0  0  0  0  0  0  0
  -27.1572  -14.9029   19.0773 C   0  0  0  0  0  0  0  0  0  0  0  0
  -24.6870  -23.0552   18.2889 C   0  0  0  0  0  0  0  0  0  0  0  0
  -27.8059  -32.7438   24.4838 C   0  0  1  0  0  0  0  0  0  0  0  0
  -25.4073  -31.5037   21.8113 C   0  0  1  0  0  0  0  0  0  0  0  0
  -27.2657  -14.1324   20.4020 C   0  0  1  0  0  0  0  0  0  0  0  0
  -28.8816  -20.4165   19.0629 C   0  0  2  0  0  0  0  0  0  0  0  0
  -29.0182  -19.3562   17.9887 C   0  0  2  0  0  0  0  0  0  0  0  0
  -17.8449  -29.9442   22.4288 C   0  0  0  0  0  0  0  0  0  0  0  0
  -23.4865  -30.4037   25.8686 C   0  0  0  0  0  0  0  0  0  0  0  0
  -21.0849  -29.7029   25.7703 C   0  0  0  0  0  0  0  0  0  0  0  0
  -21.6944  -32.1043   25.4802 C   0  0  0  0  0  0  0  0  0  0  0  0
  -19.9117  -29.9401   19.2344 C   0  0  0  0  0  0  0  0  0  0  0  0
  -27.2639  -24.9946   18.8042 C   0  0  0  0  0  0  0  0  0  1  0  0
  -22.2070  -30.4629   23.6268 C   0  0  1  0  0  0  0  0  0  0  0  0
  -19.0407  -30.2786   21.5507 C   0  0  2  0  0  0  0  0  0  0  0  0
  -22.1370  -30.6583   25.1677 C   0  0  0  0  0  0  0  0  0  0  0  0
  -26.2480  -11.8972   20.1753 N   0  0  0  0  0  0  0  0  0  0  0  0
  -28.3634  -22.8116   18.9903 N   0  0  0  0  0  0  0  0  0  0  0  0
  -27.9661  -21.5309   18.9001 N   0  0  0  0  0  0  0  0  0  0  0  0
  -26.1098  -13.1674   20.5920 N   0  0  0  0  0  0  0  0  0  0  0  0
  -24.2725  -30.7095   22.2864 N   0  0  0  0  0  0  0  0  0  0  0  0
  -28.2863  -15.8237   18.8958 N   0  0  0  0  0  0  0  0  0  0  0  0
  -24.5908  -14.6608   21.6278 N   0  0  0  0  0  0  0  0  0  0  0  0
  -22.2828  -10.7829   21.4518 N   0  0  0  0  0  0  0  0  0  0  0  0
  -26.8015  -32.6118   23.4503 N   0  0  0  0  0  0  0  0  0  0  0  0
  -20.9500  -30.7237   22.9338 N   0  0  0  0  0  0  0  0  0  0  0  0
  -29.1333  -17.9643   18.3336 N   0  0  0  0  0  0  0  0  0  0  0  0
  -18.8221  -29.6709   20.2077 N   0  3  0  0  0  0  0  0  0  0  0  0
  -22.1839  -12.9808   22.0983 O   0  0  0  0  0  0  0  0  0  0  0  0
  -26.9783  -30.3146   23.1125 O   0  0  0  0  0  0  0  0  0  0  0  0
  -23.1280  -32.5793   23.0802 O   0  0  0  0  0  0  0  0  0  0  0  0
  -20.7519  -28.6249   21.9678 O   0  0  0  0  0  0  0  0  0  0  0  0
  -26.8740  -17.6244   18.5038 O   0  0  0  0  0  0  0  0  0  0  0  0
  -24.1069   -5.9574   19.3488 O   0  0  0  0  0  0  0  0  0  0  0  0
  -26.3889  -25.4615   19.8301 O   0  0  0  0  0  0  0  0  0  1  0  0
  -21.7439   -2.8955   23.2789 F   0  0  0  0  0  0  0  0  0  0  0  0
  -25.3892   -3.7352   20.3785 F   0  0  0  0  0  0  0  0  0  0  0  0
  1  2  1  0  0  0  0
  1  5  2  0  0  0  0
  2  6  2  0  0  0  0
  3  8  2  0  0  0  0
  3 16  1  0  0  0  0
  4  9  1  0  0  0  0
  4 16  2  0  0  0  0
  5 18  1  0  0  0  0
  6 20  1  0  0  0  0
  7 10  2  0  0  0  0
  7 19  1  0  0  0  0
  8 23  1  0  0  0  0
  9 23  2  0  0  0  0
 10 24  1  0  0  0  0
 11 12  2  0  0  0  0
 11 25  1  0  0  0  0
 12 26  1  0  0  0  0
 13 21  1  0  0  0  0
 13 24  2  0  0  0  0
 14 26  2  0  0  0  0
 14 27  1  0  0  0  0
 15 22  2  0  0  0  0
 15 65  1  0  0  0  0
 16 28  1  0  0  0  0
 17 28  1  0  0  0  0
 17 30  2  0  0  0  0
 17 31  1  0  0  0  0
 18 20  2  0  0  0  0
 18 36  1  0  0  0  0
 19 21  2  0  0  0  0
 19 37  1  0  0  0  0
 20 49  1  0  0  0  0
 21 38  1  0  0  0  0
 22 29  1  0  0  0  0
 22 48  1  0  0  0  0
 23 80  1  0  0  0  0
 24 81  1  0  0  0  0
 25 27  2  0  0  0  0
 25 80  1  0  0  0  0
 26 82  1  0  0  0  0
 27 83  1  0  0  0  0
 28 63  2  0  0  0  0
 29 59  1  0  0  0  0
 29 64  2  0  0  0  0
 30 66  1  0  0  0  0
 30 69  1  0  0  0  0
 31 70  1  0  0  0  0
 31 75  2  0  0  0  0
 32 50  1  0  0  0  0
 32 71  1  0  0  0  0
 32 76  2  0  0  0  0
 33 60  1  0  0  0  0
 33 67  1  0  0  0  0
 33 77  2  0  0  0  0
 34 61  1  0  0  0  0
 34 72  1  0  0  0  0
 34 78  2  0  0  0  0
 35 68  1  0  0  0  0
 35 73  1  0  0  0  0
 35 79  2  0  0  0  0
 36 39  1  0  0  0  0
 37 50  1  0  0  0  0
 38 67  1  0  0  0  0
 39 43  1  0  0  0  0
 40 44  1  0  0  0  0
 40 46  1  0  0  0  0
 41 42  1  0  0  0  0
 41 48  1  0  0  0  0
 42 48  1  0  0  0  0
 43 49  1  0  0  0  0
 44 51  1  0  0  0  0
 45 52  1  0  0  0  0
 45 53  1  0  0  0  0
 46 68  1  0  0  0  0
 47 51  1  0  0  0  0
 47 68  1  0  0  0  0
 49 71  1  0  0  0  0
 50 67  1  0  0  0  0
 51 66  1  0  0  0  0
 52 53  1  0  0  0  0
 52 65  1  0  0  0  0
 53 73  1  0  0  0  0
 54 61  1  0  0  0  0
 55 62  1  0  0  0  0
 56 62  1  0  0  0  0
 57 62  1  0  0  0  0
 58 74  1  0  0  0  0
 59 81  1  0  0  0  0
 60 62  1  0  0  0  0
 60 72  1  0  0  0  0
 61 74  1  0  0  0  0
 63 66  1  0  0  0  0
 64 65  1  0  0  0  0
M  CHG  1  74   1
M  ISO  4  35 100  59 101  73 100  81 101
M  END
> <Batch ID>
0195

> <Smiles>
CNC(C)C(=O)NC(C(=O)N1Cc2cc([101O:1][101CH2:1]c3nn(C4CC4[100NH:0][100C:0](=O)N4CCCC(n5nc(-c6ccc(Oc7ccc(F)cc7F)cc6)c(C(N)=O)c5N)C4)cc3C3CC3)ccc2CC1C(=O)NC1CCCc2ccccc21)C(C)(C)C

> <Shape>
0.259

> <Color>
0.095

> <Negative vol penalty>
0.000

$$$$

  -OEChem-04052323373D

 89 99  0     1  0  0  0  0  0999 V2000
  -23.6947  -26.4942   13.6967 C   0  0  0  0  0  0  0  0  0  0  0  0
  -22.9254  -26.7572   14.8256 C   0  0  0  0  0  0  0  0  0  0  0  0
  -27.6094  -14.3644   21.0821 C   0  0  0  0  0  0  0  0  0  0  0  0
  -27.7017  -13.6985   18.7615 C   0  0  0  0  0  0  0  0  0  0  0  0
  -25.0659  -26.2768   13.8241 C   0  0  0  0  0  0  0  0  0  0  0  0
  -23.5268  -26.8018   16.0829 C   0  0  0  0  0  0  0  0  0  0  0  0
  -22.0010  -30.4400   20.7670 C   0  0  0  0  0  0  0  0  0  0  0  0
  -26.7483  -13.3011   21.3530 C   0  0  0  0  0  0  0  0  0  0  0  0
  -26.8406  -12.6351   19.0324 C   0  0  0  0  0  0  0  0  0  0  0  0
  -21.2269  -30.2268   21.9068 C   0  0  0  0  0  0  0  0  0  0  0  0
  -24.2395  -10.9734   22.5824 C   0  0  0  0  0  0  0  0  0  0  0  0
  -23.1197  -11.2292   23.3738 C   0  0  0  0  0  0  0  0  0  0  0  0
  -23.2267  -29.7470   23.1677 C   0  0  0  0  0  0  0  0  0  0  0  0
  -24.2020  -24.2440   22.4480 C   0  0  0  0  0  0  0  0  0  0  0  0
  -22.3448  -12.8464   21.7548 C   0  0  0  0  0  0  0  0  0  0  0  0
  -23.8004  -21.6749   21.6213 C   0  0  0  0  0  0  0  0  0  0  0  0
  -28.0861  -14.5632   19.7863 C   0  0  0  0  0  0  0  0  0  0  0  0
  -30.3818  -15.6532   19.5639 C   0  0  0  0  0  0  0  0  0  0  0  0
  -25.6861  -26.3283   15.0825 C   0  0  0  0  0  0  0  0  0  0  0  0
  -23.3951  -30.2974   20.8164 C   0  0  0  0  0  0  0  0  0  0  0  0
  -24.9075  -26.5835   16.2274 C   0  0  0  0  0  0  0  0  0  0  0  0
  -24.0164  -29.9615   22.0278 C   0  0  0  0  0  0  0  0  0  0  0  0
  -25.2891  -23.5115   21.9665 C   0  0  0  0  0  0  0  0  0  0  0  0
  -25.0871  -22.1964   21.5228 C   0  0  0  0  0  0  0  0  0  0  0  0
  -26.3639  -12.4365   20.3282 C   0  0  0  0  0  0  0  0  0  0  0  0
  -21.8395  -29.8775   23.1067 C   0  0  0  0  0  0  0  0  0  0  0  0
  -24.4120  -11.6542   21.3772 C   0  0  0  0  0  0  0  0  0  0  0  0
  -22.1724  -12.1656   22.9600 C   0  0  0  0  0  0  0  0  0  0  0  0
  -23.4646  -12.5907   20.9634 C   0  0  0  0  0  0  0  0  0  0  0  0
  -28.9752  -15.6617   19.5057 C   0  0  0  0  0  0  0  0  0  0  0  0
  -22.9623  -23.6268   22.4928 C   0  0  0  0  0  0  0  0  0  0  0  0
  -30.7477  -16.9292   19.2114 C   0  0  0  0  0  0  0  0  0  0  0  0
  -31.2774  -14.5871   19.9059 C   0  0  0  0  0  0  0  0  0  0  0  0
  -25.5079  -28.3996   19.3888 C   0  0  0  0  0  0  0  0  0  0  0  0
  -27.6555  -30.3029   20.9013 C   0  0  0  0  0  0  0  0  0  0  0  0
  -28.3261  -32.4333   23.4817 C   0  0  0  0  0  0  0  0  0  0  0  0
  -28.0903  -22.1888   19.4959 C   0  0  0  0  0  0  0  0  0  0  0  0
  -27.1635  -26.0399   15.1759 C   0  0  0  0  0  0  0  0  0  0  0  0
  -24.2182  -30.5570   19.5845 C   0  0  0  0  0  0  0  0  0  0  0  0
  -26.6501  -24.1535   21.8791 C   0  0  0  0  0  0  0  0  0  0  0  0
  -25.5113  -29.8157   22.1385 C   0  0  0  0  0  0  0  0  0  0  0  0
  -26.2158  -21.3487   20.9935 C   0  0  0  0  0  0  0  0  0  0  0  0
  -27.7865  -26.4752   16.4998 C   0  0  0  0  0  0  0  0  0  0  0  0
  -29.3032  -20.6676   16.6152 C   0  0  0  0  0  0  0  0  0  0  0  0
  -26.9196  -26.0248   17.6714 C   0  0  0  0  0  0  0  0  0  0  0  0
  -29.4910  -19.2065   17.0212 C   0  0  0  0  0  0  0  0  0  0  0  0
  -22.0176  -24.8016   24.4714 C   0  0  0  0  0  0  0  0  0  0  0  0
  -21.5239  -25.6240   22.1333 C   0  0  0  0  0  0  0  0  0  0  0  0
  -27.7610  -23.1132   21.7673 C   0  0  0  0  0  0  0  0  0  0  0  0
  -28.0222  -21.2379   17.2118 C   0  0  0  0  0  0  0  0  0  0  0  0
  -28.1433  -19.6769   19.1282 C   0  0  0  0  0  0  0  0  0  0  0  0
  -20.8697  -25.6508   25.0021 C   0  0  0  0  0  0  0  0  0  0  0  0
  -20.3795  -26.4667   22.6818 C   0  0  0  0  0  0  0  0  0  0  0  0
  -25.5276  -26.6646   17.6055 C   0  0  1  0  0  0  0  0  0  0  0  0
  -21.7860  -24.3868   23.0086 C   0  0  0  0  0  0  0  0  0  0  0  0
  -25.5853  -29.8813   19.6260 C   0  0  1  0  0  0  0  0  0  0  0  0
  -29.4276  -19.0478   18.5502 C   0  0  1  0  0  0  0  0  0  0  0  0
  -30.1809  -33.7997   24.4769 C   0  0  0  0  0  0  0  0  0  0  0  0
  -18.7508  -30.1885   24.5435 C   0  0  0  0  0  0  0  0  0  0  0  0
  -28.8983  -27.7681   22.0589 C   0  0  0  0  0  0  0  0  0  0  0  0
  -30.0836  -29.1992   23.7369 C   0  0  0  0  0  0  0  0  0  0  0  0
  -30.5491  -29.4882   21.3033 C   0  0  0  0  0  0  0  0  0  0  0  0
  -26.8370  -34.9593   23.0806 C   0  0  0  0  0  0  0  0  0  0  0  0
  -19.6425  -27.7936   24.6594 C   0  0  0  0  0  0  0  0  0  0  0  0
  -28.3416  -30.2823   22.2459 C   0  0  1  0  0  0  0  0  0  0  0  0
  -29.0019  -33.7922   23.5163 C   0  0  2  0  0  0  0  0  0  0  0  0
  -19.7601  -29.1741   24.0216 C   0  0  2  0  0  0  0  0  0  1  0  0
  -29.4398  -29.1852   22.3340 C   0  0  0  0  0  0  0  0  0  0  0  0
  -22.7336  -22.3571   22.0946 N   0  0  0  0  0  0  0  0  0  0  0  0
  -28.4813  -16.8491   19.1448 N   0  0  0  0  0  0  0  0  0  0  0  0
  -29.5835  -17.5985   18.9731 N   0  0  0  0  0  0  0  0  0  0  0  0
  -26.2723  -30.0736   20.9049 N   0  0  0  0  0  0  0  0  0  0  0  0
  -27.4353  -22.1305   20.7355 N   0  0  0  0  0  0  0  0  0  0  0  0
  -27.9899  -21.0641   18.6642 N   0  0  0  0  0  0  0  0  0  0  0  0
  -31.9486  -17.5328   19.0851 N   0  0  0  0  0  0  0  0  0  0  0  0
  -30.7338  -13.3400   20.2429 N   0  0  0  0  0  0  0  0  0  0  0  0
  -25.5809  -28.0385   18.0569 N   0  0  0  0  0  0  0  0  0  0  0  0
  -28.8309  -31.6374   22.4752 N   0  0  0  0  0  0  0  0  0  0  0  0
  -20.6805  -26.8541   24.1098 N   0  3  0  0  0  0  0  0  0  0  0  0
  -28.0355  -34.8404   23.9503 N   0  3  0  0  0  0  0  0  0  0  0  0
  -32.5222  -14.7405   19.9283 O   0  0  0  0  0  0  0  0  0  0  0  0
  -25.3921  -27.6401   20.3435 O   0  0  0  0  0  0  0  0  0  0  0  0
  -28.3210  -30.5217   19.8860 O   0  0  0  0  0  0  0  0  0  0  0  0
  -27.4417  -32.1089   24.2710 O   0  0  0  0  0  0  0  0  0  0  0  0
  -28.7221  -23.1944   19.1477 O   0  0  0  0  0  0  0  0  0  0  0  0
  -25.5238  -11.3986   20.5922 O   0  0  0  0  0  0  0  0  0  0  0  0
  -21.0819  -29.6669   24.2270 O   0  0  0  0  0  0  0  0  0  1  0  0
  -21.0964  -12.4100   23.7194 F   0  0  0  0  0  0  0  0  0  0  0  0
  -23.6243  -13.2470   19.8060 F   0  0  0  0  0  0  0  0  0  0  0  0
  1  2  1  0  0  0  0
  1  5  2  0  0  0  0
  2  6  2  0  0  0  0
  3  8  2  0  0  0  0
  3 17  1  0  0  0  0
  4  9  1  0  0  0  0
  4 17  2  0  0  0  0
  5 19  1  0  0  0  0
  6 21  1  0  0  0  0
  7 10  2  0  0  0  0
  7 20  1  0  0  0  0
  8 25  1  0  0  0  0
  9 25  2  0  0  0  0
 10 26  1  0  0  0  0
 11 12  2  0  0  0  0
 11 27  1  0  0  0  0
 12 28  1  0  0  0  0
 13 22  1  0  0  0  0
 13 26  2  0  0  0  0
 14 23  2  0  0  0  0
 14 31  1  0  0  0  0
 15 28  2  0  0  0  0
 15 29  1  0  0  0  0
 16 24  2  0  0  0  0
 16 69  1  0  0  0  0
 17 30  1  0  0  0  0
 18 30  1  0  0  0  0
 18 32  2  0  0  0  0
 18 33  1  0  0  0  0
 19 21  2  0  0  0  0
 19 38  1  0  0  0  0
 20 22  2  0  0  0  0
 20 39  1  0  0  0  0
 21 54  1  0  0  0  0
 22 41  1  0  0  0  0
 23 24  1  0  0  0  0
 23 40  1  0  0  0  0
 24 42  1  0  0  0  0
 25 86  1  0  0  0  0
 26 87  1  0  0  0  0
 27 29  2  0  0  0  0
 27 86  1  0  0  0  0
 28 88  1  0  0  0  0
 29 89  1  0  0  0  0
 30 70  2  0  0  0  0
 31 55  1  0  0  0  0
 31 69  2  0  0  0  0
 32 71  1  0  0  0  0
 32 75  1  0  0  0  0
 33 76  1  0  0  0  0
 33 81  2  0  0  0  0
 34 56  1  0  0  0  0
 34 77  1  0  0  0  0
 34 82  2  0  0  0  0
 35 65  1  0  0  0  0
 35 72  1  0  0  0  0
 35 83  2  0  0  0  0
 36 66  1  0  0  0  0
 36 78  1  0  0  0  0
 36 84  2  0  0  0  0
 37 73  1  0  0  0  0
 37 74  1  0  0  0  0
 37 85  2  0  0  0  0
 38 43  1  0  0  0  0
 39 56  1  0  0  0  0
 40 49  1  0  0  0  0
 41 72  1  0  0  0  0
 42 73  1  0  0  0  0
 43 45  1  0  0  0  0
 44 46  1  0  0  0  0
 44 50  1  0  0  0  0
 45 54  1  0  0  0  0
 46 57  1  0  0  0  0
 47 52  1  0  0  0  0
 47 55  1  0  0  0  0
 48 53  1  0  0  0  0
 48 55  1  0  0  0  0
 49 73  1  0  0  0  0
 50 74  1  0  0  0  0
 51 57  1  0  0  0  0
 51 74  1  0  0  0  0
 52 79  1  0  0  0  0
 53 79  1  0  0  0  0
 54 77  1  0  0  0  0
 56 72  1  0  0  0  0
 57 71  1  0  0  0  0
 58 66  1  0  0  0  0
 59 67  1  0  0  0  0
 60 68  1  0  0  0  0
 61 68  1  0  0  0  0
 62 68  1  0  0  0  0
 63 80  1  0  0  0  0
 64 67  1  0  0  0  0
 64 79  1  0  0  0  0
 65 68  1  0  0  0  0
 65 78  1  0  0  0  0
 66 80  1  0  0  0  0
 67 87  1  0  0  0  0
 70 71  1  0  0  0  0
M  CHG  2  79   1  80   1
M  ISO  4  37 100  67 101  73 100  87 101
M  END
> <Batch ID>
0195

> <Smiles>
CNC(C)C(=O)NC(C(=O)N1Cc2cc([101O:1][101CH:1](C)CN3CCC(c4cc5c(cn4)C[100N:0]([100C:0](=O)N4CCCC(n6nc(-c7ccc(Oc8ccc(F)cc8F)cc7)c(C(N)=O)c6N)C4)CC5)CC3)ccc2CC1C(=O)NC1CCCc2ccccc21)C(C)(C)C

> <Shape>
0.255

> <Color>
0.059

> <Negative vol penalty>
0.000

$$$$

  -OEChem-04052323373D

 89 99  0     1  0  0  0  0  0999 V2000
  -20.5101  -36.9213   19.4986 C   0  0  0  0  0  0  0  0  0  0  0  0
  -21.8545  -36.6144   19.6830 C   0  0  0  0  0  0  0  0  0  0  0  0
  -23.2794  -10.0218   22.1474 C   0  0  0  0  0  0  0  0  0  0  0  0
  -23.6645   -9.6417   19.7927 C   0  0  0  0  0  0  0  0  0  0  0  0
  -19.5411  -36.3075   20.2912 C   0  0  0  0  0  0  0  0  0  0  0  0
  -22.2307  -35.6944   20.6609 C   0  0  0  0  0  0  0  0  0  0  0  0
  -25.9075  -29.7447   18.9365 C   0  0  0  0  0  0  0  0  0  0  0  0
  -22.5054   -8.8630   22.2078 C   0  0  0  0  0  0  0  0  0  0  0  0
  -22.8905   -8.4829   19.8532 C   0  0  0  0  0  0  0  0  0  0  0  0
  -26.7936  -28.6901   18.7158 C   0  0  0  0  0  0  0  0  0  0  0  0
  -19.3647   -7.9204   21.3881 C   0  0  0  0  0  0  0  0  0  0  0  0
  -18.1524   -7.9868   22.0748 C   0  0  0  0  0  0  0  0  0  0  0  0
  -26.6433  -28.0620   21.0462 C   0  0  0  0  0  0  0  0  0  0  0  0
  -18.9160   -6.2660   23.5890 C   0  0  0  0  0  0  0  0  0  0  0  0
  -23.8590  -10.4112   20.9398 C   0  0  0  0  0  0  0  0  0  0  0  0
  -24.2467  -12.9218   21.1723 C   0  0  0  0  0  0  0  0  0  0  0  0
  -19.9049  -35.3723   21.2729 C   0  0  0  0  0  0  0  0  0  0  0  0
  -25.3734  -29.9529   20.2111 C   0  0  0  0  0  0  0  0  0  0  0  0
  -21.2658  -35.0685   21.4683 C   0  0  0  0  0  0  0  0  0  0  0  0
  -25.7456  -29.1092   21.2706 C   0  0  0  0  0  0  0  0  0  0  0  0
  -22.3110   -8.0935   21.0608 C   0  0  0  0  0  0  0  0  0  0  0  0
  -27.1607  -27.8510   19.7681 C   0  0  0  0  0  0  0  0  0  0  0  0
  -20.3526   -7.0268   21.8018 C   0  0  0  0  0  0  0  0  0  0  0  0
  -17.9281   -7.1596   23.1753 C   0  0  0  0  0  0  0  0  0  0  0  0
  -20.1282   -6.1996   22.9023 C   0  0  0  0  0  0  0  0  0  0  0  0
  -24.6581  -11.6085   20.8765 C   0  0  0  0  0  0  0  0  0  0  0  0
  -25.3662  -13.6885   20.9597 C   0  0  0  0  0  0  0  0  0  0  0  0
  -22.9668  -13.4056   21.6011 C   0  0  0  0  0  0  0  0  0  0  0  0
  -23.1053  -31.9992   22.3893 C   0  0  0  0  0  0  0  0  0  0  0  0
  -22.7178  -29.0676   23.2052 C   0  0  0  0  0  0  0  0  0  0  0  0
  -21.5102  -26.0721   24.3034 C   0  0  0  0  0  0  0  0  0  0  0  0
  -29.5972  -15.0647   17.7590 C   0  0  0  0  0  0  0  0  0  0  0  0
  -18.8256  -34.7701   22.1372 C   0  0  0  0  0  0  0  0  0  0  0  0
  -24.4634  -31.1137   20.5083 C   0  0  0  0  0  0  0  0  0  0  0  0
  -25.1728  -29.3921   22.6325 C   0  0  0  0  0  0  0  0  0  0  0  0
  -19.2778  -33.5265   22.8983 C   0  0  0  0  0  0  0  0  0  0  0  0
  -30.1714  -12.3871   20.1963 C   0  0  0  0  0  0  0  0  0  0  0  0
  -20.6342  -33.7655   23.5538 C   0  0  0  0  0  0  0  0  0  0  0  0
  -28.7393  -12.0164   20.5666 C   0  0  0  0  0  0  0  0  0  0  0  0
  -32.3223  -19.4002   19.6876 C   0  0  0  0  0  0  0  0  0  0  0  0
  -31.5656  -15.3355   15.0513 C   0  0  0  0  0  0  0  0  0  0  0  0
  -29.0921  -22.2509   19.1889 C   0  0  0  0  0  0  0  0  0  0  0  0
  -30.4067  -23.2511   17.2723 C   0  0  0  0  0  0  0  0  0  0  0  0
  -30.3020  -12.8149   18.7340 C   0  0  0  0  0  0  0  0  0  0  0  0
  -32.7687  -18.0757   19.0669 C   0  0  0  0  0  0  0  0  0  0  0  0
  -31.3275  -14.1689   16.0150 C   0  0  0  0  0  0  0  0  0  0  0  0
  -27.9246  -13.5229   18.7198 C   0  0  0  0  0  0  0  0  0  0  0  0
  -31.4260  -19.1358   17.4740 C   0  0  0  0  0  0  0  0  0  0  0  0
  -29.5513  -23.3937   20.0871 C   0  0  0  0  0  0  0  0  0  0  0  0
  -30.8553  -24.3861   18.1855 C   0  0  0  0  0  0  0  0  0  0  0  0
  -21.7114  -34.0572   22.5021 C   0  0  1  0  0  0  0  0  0  0  0  0
  -23.3860  -30.7830   21.5567 C   0  0  1  0  0  0  0  0  0  0  0  0
  -27.7775  -13.1575   20.2035 C   0  0  1  0  0  0  0  0  0  0  0  0
  -31.2126  -19.8926   18.7697 C   0  0  2  0  0  0  0  0  0  0  0  0
  -30.0487  -21.9742   18.0305 C   0  0  0  0  0  0  0  0  0  0  0  0
  -31.1949  -16.2971   16.1907 C   0  0  2  0  0  0  0  0  0  0  0  0
  -20.4058  -25.0009   26.2858 C   0  0  0  0  0  0  0  0  0  0  0  0
  -25.3851  -29.0647   24.6848 C   0  0  0  0  0  0  0  0  0  0  0  0
  -24.4979  -27.2267   26.1349 C   0  0  0  0  0  0  0  0  0  0  0  0
  -23.3871  -29.4602   26.1360 C   0  0  0  0  0  0  0  0  0  0  0  0
  -19.1196  -25.3375   22.7210 C   0  0  0  0  0  0  0  0  0  0  0  0
  -32.3300  -16.9394   16.9635 C   0  0  0  0  0  0  0  0  0  0  0  0
  -30.1404  -25.8161   20.0985 C   0  0  0  0  0  0  0  0  0  0  0  0
  -28.8580  -26.4248   20.6304 C   0  0  0  0  0  0  0  0  0  1  0  0
  -23.1254  -27.9468   24.1277 C   0  0  1  0  0  0  0  0  0  0  0  0
  -20.1897  -25.6940   24.9495 C   0  0  2  0  0  0  0  0  0  0  0  0
  -24.0997  -28.4216   25.2426 C   0  0  0  0  0  0  0  0  0  0  0  0
  -25.9391  -11.5410   20.5042 N   0  0  0  0  0  0  0  0  0  0  0  0
  -26.3422  -12.8216   20.5645 N   0  0  0  0  0  0  0  0  0  0  0  0
  -23.7445  -29.7258   22.5173 N   0  0  0  0  0  0  0  0  0  0  0  0
  -29.3150  -13.8393   18.3725 N   0  0  0  0  0  0  0  0  0  0  0  0
  -30.6635  -15.1246   16.8895 N   0  0  0  0  0  0  0  0  0  0  0  0
  -31.8013  -17.8190   17.9948 N   0  0  1  0  0  0  0  0  0  0  0  0
  -25.6012  -15.0130   21.0740 N   0  0  0  0  0  0  0  0  0  0  0  0
  -21.9260  -12.4823   21.7701 N   0  0  0  0  0  0  0  0  0  0  0  0
  -22.1369  -32.8314   21.8610 N   0  0  0  0  0  0  0  0  0  0  0  0
  -21.8874  -27.3583   24.6269 N   0  0  0  0  0  0  0  0  0  0  0  0
  -29.8072  -24.6220   19.2468 N   0  3  0  0  0  0  0  0  0  0  0  0
  -31.2951  -21.3493   18.5592 N   0  3  0  0  0  0  0  0  0  0  0  0
  -19.4231  -24.7745   24.0618 N   0  3  0  0  0  0  0  0  0  0  0  0
  -22.7481  -14.6227   21.8117 O   0  0  0  0  0  0  0  0  0  0  0  0
  -23.7204  -32.1705   23.4353 O   0  0  0  0  0  0  0  0  0  0  0  0
  -21.5228  -29.3575   23.0996 O   0  0  0  0  0  0  0  0  0  0  0  0
  -22.1456  -25.3021   23.5865 O   0  0  0  0  0  0  0  0  0  0  0  0
  -28.9015  -16.0698   17.9556 O   0  0  0  0  0  0  0  0  0  0  0  0
  -21.5559   -6.9626   21.1195 O   0  0  0  0  0  0  0  0  0  0  0  0
  -28.0289  -26.8131   19.5431 O   0  0  0  0  0  0  0  0  0  1  0  0
  -16.7645   -7.2246   23.8356 F   0  0  0  0  0  0  0  0  0  0  0  0
  -21.0740   -5.3399   23.3051 F   0  0  0  0  0  0  0  0  0  0  0  0
  1  2  1  0  0  0  0
  1  5  2  0  0  0  0
  2  6  2  0  0  0  0
  3  8  2  0  0  0  0
  3 15  1  0  0  0  0
  4  9  1  0  0  0  0
  4 15  2  0  0  0  0
  5 17  1  0  0  0  0
  6 19  1  0  0  0  0
  7 10  2  0  0  0  0
  7 18  1  0  0  0  0
  8 21  1  0  0  0  0
  9 21  2  0  0  0  0
 10 22  1  0  0  0  0
 11 12  2  0  0  0  0
 11 23  1  0  0  0  0
 12 24  1  0  0  0  0
 13 20  1  0  0  0  0
 13 22  2  0  0  0  0
 14 24  2  0  0  0  0
 14 25  1  0  0  0  0
 15 26  1  0  0  0  0
 16 26  1  0  0  0  0
 16 27  2  0  0  0  0
 16 28  1  0  0  0  0
 17 19  2  0  0  0  0
 17 33  1  0  0  0  0
 18 20  2  0  0  0  0
 18 34  1  0  0  0  0
 19 51  1  0  0  0  0
 20 35  1  0  0  0  0
 21 86  1  0  0  0  0
 22 87  1  0  0  0  0
 23 25  2  0  0  0  0
 23 86  1  0  0  0  0
 24 88  1  0  0  0  0
 25 89  1  0  0  0  0
 26 68  2  0  0  0  0
 27 69  1  0  0  0  0
 27 74  1  0  0  0  0
 28 75  1  0  0  0  0
 28 81  2  0  0  0  0
 29 52  1  0  0  0  0
 29 76  1  0  0  0  0
 29 82  2  0  0  0  0
 30 65  1  0  0  0  0
 30 70  1  0  0  0  0
 30 83  2  0  0  0  0
 31 66  1  0  0  0  0
 31 77  1  0  0  0  0
 31 84  2  0  0  0  0
 32 71  1  0  0  0  0
 32 72  1  0  0  0  0
 32 85  2  0  0  0  0
 33 36  1  0  0  0  0
 34 52  1  0  0  0  0
 35 70  1  0  0  0  0
 36 38  1  0  0  0  0
 37 39  1  0  0  0  0
 37 44  1  0  0  0  0
 38 51  1  0  0  0  0
 39 53  1  0  0  0  0
 40 45  1  0  0  0  0
 40 54  1  0  0  0  0
 41 46  1  0  0  0  0
 41 56  1  0  0  0  0
 42 49  1  0  0  0  0
 42 55  1  0  0  0  0
 43 50  1  0  0  0  0
 43 55  1  0  0  0  0
 44 71  1  0  0  0  0
 45 73  1  0  0  0  0
 46 72  1  0  0  0  0
 47 53  1  0  0  0  0
 47 71  1  0  0  0  0
 48 54  1  0  0  0  0
 48 73  1  0  0  0  0
 49 78  1  0  0  0  0
 50 78  1  0  0  0  0
 51 76  1  0  0  0  0
 52 70  1  0  0  0  0
 53 69  1  0  0  0  0
 54 79  1  0  0  0  0
 55 79  1  0  0  0  0
 56 62  1  0  0  0  0
 56 72  1  0  0  0  0
 57 66  1  0  0  0  0
 58 67  1  0  0  0  0
 59 67  1  0  0  0  0
 60 67  1  0  0  0  0
 61 80  1  0  0  0  0
 62 73  1  0  0  0  0
 63 64  1  0  0  0  0
 63 78  1  0  0  0  0
 64 87  1  0  0  0  0
 65 67  1  0  0  0  0
 65 77  1  0  0  0  0
 66 80  1  0  0  0  0
 68 69  1  0  0  0  0
M  CHG  3  78   1  79   1  80   1
M  ISO  4  32 100  64 101  72 100  87 101
M  END
> <Batch ID>
0195

> <Smiles>
CNC(C)C(=O)NC(C(=O)N1Cc2cc([101O:1][101CH2:1]CN3CCC(NC4CCN(CC5CC[100N:0]5[100C:0](=O)N5CCCC(n6nc(-c7ccc(Oc8ccc(F)cc8F)cc7)c(C(N)=O)c6N)C5)C4)CC3)ccc2CC1C(=O)NC1CCCc2ccccc21)C(C)(C)C

> <Shape>
0.262

> <Color>
0.200

> <Negative vol penalty>
0.000

$$$$

  -OEChem-04052323373D

 87 97  0     1  0  0  0  0  0999 V2000
  -22.4987  -40.0501   20.9226 C   0  0  0  0  0  0  0  0  0  0  0  0
  -23.3554  -39.4007   20.0396 C   0  0  0  0  0  0  0  0  0  0  0  0
  -24.8524   -8.4159   21.4927 C   0  0  0  0  0  0  0  0  0  0  0  0
  -23.2073  -10.1853   21.5080 C   0  0  0  0  0  0  0  0  0  0  0  0
  -22.5253  -39.7309   22.2796 C   0  0  0  0  0  0  0  0  0  0  0  0
  -24.2401  -38.4326   20.5133 C   0  0  0  0  0  0  0  0  0  0  0  0
  -25.1297  -30.9807   18.3440 C   0  0  0  0  0  0  0  0  0  0  0  0
  -23.8309   -7.4663   21.4735 C   0  0  0  0  0  0  0  0  0  0  0  0
  -22.1858   -9.2356   21.4888 C   0  0  0  0  0  0  0  0  0  0  0  0
  -25.2735  -29.6058   18.1565 C   0  0  0  0  0  0  0  0  0  0  0  0
  -21.6526   -4.5711   21.7837 C   0  0  0  0  0  0  0  0  0  0  0  0
  -21.7663   -3.4767   22.6410 C   0  0  0  0  0  0  0  0  0  0  0  0
  -26.0866  -29.3711   20.4218 C   0  0  0  0  0  0  0  0  0  0  0  0
  -21.8030   -4.9688   24.5409 C   0  0  0  0  0  0  0  0  0  0  0  0
  -24.5406   -9.7754   21.5100 C   0  0  0  0  0  0  0  0  0  0  0  0
  -26.5939  -10.9114   22.5106 C   0  0  0  0  0  0  0  0  0  0  0  0
  -23.4040  -38.7515   22.7686 C   0  0  0  0  0  0  0  0  0  0  0  0
  -25.4497  -31.5545   19.5777 C   0  0  0  0  0  0  0  0  0  0  0  0
  -24.2794  -38.1009   21.8783 C   0  0  0  0  0  0  0  0  0  0  0  0
  -25.9328  -30.7458   20.6196 C   0  0  0  0  0  0  0  0  0  0  0  0
  -22.4976   -7.8761   21.4715 C   0  0  0  0  0  0  0  0  0  0  0  0
  -25.7510  -28.8031   19.1928 C   0  0  0  0  0  0  0  0  0  0  0  0
  -21.6142   -5.8644   22.3050 C   0  0  0  0  0  0  0  0  0  0  0  0
  -21.8415   -3.6755   24.0196 C   0  0  0  0  0  0  0  0  0  0  0  0
  -21.6894   -6.0632   23.6835 C   0  0  0  0  0  0  0  0  0  0  0  0
  -25.5954  -10.7569   21.5303 C   0  0  0  0  0  0  0  0  0  0  0  0
  -27.3442  -11.9748   22.0717 C   0  0  0  0  0  0  0  0  0  0  0  0
  -26.8227  -10.1609   23.7106 C   0  0  0  0  0  0  0  0  0  0  0  0
  -25.6366  -34.6713   21.6576 C   0  0  0  0  0  0  0  0  0  0  0  0
  -24.5809  -32.4437   23.4834 C   0  0  0  0  0  0  0  0  0  0  0  0
  -23.0503  -29.8233   25.0415 C   0  0  0  0  0  0  0  0  0  0  0  0
  -27.9062  -16.9117   20.0390 C   0  0  0  0  0  0  0  0  0  0  0  0
  -23.4296  -38.4742   24.2509 C   0  0  0  0  0  0  0  0  0  0  0  0
  -25.3687  -33.0396   19.8049 C   0  0  0  0  0  0  0  0  0  0  0  0
  -26.2972  -31.4115   21.9184 C   0  0  0  0  0  0  0  0  0  0  0  0
  -24.1344  -37.1698   24.6144 C   0  0  0  0  0  0  0  0  0  0  0  0
  -27.3608  -14.4020   17.6416 C   0  0  0  0  0  0  0  0  0  0  0  0
  -25.4589  -37.0523   23.8670 C   0  0  0  0  0  0  0  0  0  0  0  0
  -26.9281  -13.2303   18.5224 C   0  0  0  0  0  0  0  0  0  0  0  0
  -27.5827  -25.5137   22.5258 C   0  0  0  0  0  0  0  0  0  0  0  0
  -28.6295  -24.4461   22.6145 C   0  0  0  0  0  0  0  0  0  0  0  0
  -26.7595  -15.7270   18.1138 C   0  0  0  0  0  0  0  0  0  0  0  0
  -27.0029  -18.6504   18.4309 C   0  0  0  0  0  0  0  0  0  0  0  0
  -29.1764  -18.9801   19.5514 C   0  0  0  0  0  0  0  0  0  0  0  0
  -26.5807  -14.8547   20.4216 C   0  0  0  0  0  0  0  0  0  0  0  0
  -26.4970  -19.9707   19.0030 C   0  0  0  0  0  0  0  0  0  0  0  0
  -28.6970  -20.2883   20.1590 C   0  0  0  0  0  0  0  0  0  0  0  0
  -26.8710  -22.1019   21.2211 C   0  0  0  0  0  0  0  0  0  0  0  0
  -25.2360  -37.0274   22.3500 C   0  0  1  0  0  0  0  0  0  0  0  0
  -24.9435  -33.4086   21.2375 C   0  0  1  0  0  0  0  0  0  0  0  0
  -27.2165  -13.5189   20.0064 C   0  0  1  0  0  0  0  0  0  0  0  0
  -27.2116  -22.2324   19.7356 C   0  0  1  0  0  0  0  0  0  0  0  0
  -28.3117  -23.2941   19.5028 C   0  0  1  0  0  0  0  0  0  0  0  0
  -27.5659  -24.3671   21.5439 C   0  0  0  0  0  0  0  0  0  0  0  0
  -28.7051  -23.4398   18.0278 C   0  0  0  0  0  0  0  0  0  0  0  0
  -22.0313  -29.1593   27.2365 C   0  0  0  0  0  0  0  0  0  0  0  0
  -27.3695  -32.1317   24.6793 C   0  0  0  0  0  0  0  0  0  0  0  0
  -26.3786  -30.6260   26.4169 C   0  0  0  0  0  0  0  0  0  0  0  0
  -25.6453  -33.0056   26.2661 C   0  0  0  0  0  0  0  0  0  0  0  0
  -20.4034  -29.3548   23.8032 C   0  0  0  0  0  0  0  0  0  0  0  0
  -26.8841  -25.3152   19.4080 C   0  0  0  0  0  0  0  0  0  0  0  0
  -26.9138  -26.7998   19.7371 C   0  0  0  0  0  0  0  0  0  1  0  0
  -24.9110  -31.3672   24.4861 C   0  0  1  0  0  0  0  0  0  0  0  0
  -21.7720  -29.7428   25.8563 C   0  0  2  0  0  0  0  0  0  0  0  0
  -26.0730  -31.7767   25.4344 C   0  0  0  0  0  0  0  0  0  0  0  0
  -25.6991  -11.6506   20.5432 N   0  0  0  0  0  0  0  0  0  0  0  0
  -26.7716  -12.3771   20.9010 N   0  0  0  0  0  0  0  0  0  0  0  0
  -25.2808  -32.4151   22.2711 N   0  0  0  0  0  0  0  0  0  0  0  0
  -27.0249  -15.9392   19.5435 N   0  0  0  0  0  0  0  0  0  0  0  0
  -28.0573  -18.0808   19.2787 N   0  0  0  0  0  0  0  0  0  0  0  0
  -27.9349  -24.5881   20.1227 N   0  0  2  0  0  0  0  0  0  0  0  0
  -28.4313  -12.5958   22.5768 N   0  0  0  0  0  0  0  0  0  0  0  0
  -25.9571   -9.1002   24.0105 N   0  0  0  0  0  0  0  0  0  0  0  0
  -24.7791  -35.7207   21.9277 N   0  0  0  0  0  0  0  0  0  0  0  0
  -23.6628  -31.0517   25.1722 N   0  0  0  0  0  0  0  0  0  0  0  0
  -27.6610  -20.9012   19.2457 N   0  3  0  0  0  0  0  0  0  0  0  0
  -20.7696  -28.8844   25.1639 N   0  3  0  0  0  0  0  0  0  0  0  0
  -27.7570  -10.4334   24.5020 O   0  0  0  0  0  0  0  0  0  0  0  0
  -26.8596  -34.6929   21.7330 O   0  0  0  0  0  0  0  0  0  0  0  0
  -23.7301  -33.2917   23.7670 O   0  0  0  0  0  0  0  0  0  0  0  0
  -23.4660  -28.8885   24.3603 O   0  0  0  0  0  0  0  0  0  0  0  0
  -28.5217  -16.7454   21.0996 O   0  0  0  0  0  0  0  0  0  0  0  0
  -26.5268  -23.3787   21.7649 O   0  0  0  0  0  0  0  0  0  0  0  0
  -21.5006   -6.9498   21.4526 O   0  0  0  0  0  0  0  0  0  0  0  0
  -25.8856  -27.4513   19.0030 O   0  0  0  0  0  0  0  0  0  1  0  0
  -21.9490   -2.6244   24.8429 F   0  0  0  0  0  0  0  0  0  0  0  0
  -21.6518   -7.3032   24.1902 F   0  0  0  0  0  0  0  0  0  0  0  0
  1  2  1  0  0  0  0
  1  5  2  0  0  0  0
  2  6  2  0  0  0  0
  3  8  2  0  0  0  0
  3 15  1  0  0  0  0
  4  9  1  0  0  0  0
  4 15  2  0  0  0  0
  5 17  1  0  0  0  0
  6 19  1  0  0  0  0
  7 10  2  0  0  0  0
  7 18  1  0  0  0  0
  8 21  1  0  0  0  0
  9 21  2  0  0  0  0
 10 22  1  0  0  0  0
 11 12  2  0  0  0  0
 11 23  1  0  0  0  0
 12 24  1  0  0  0  0
 13 20  1  0  0  0  0
 13 22  2  0  0  0  0
 14 24  2  0  0  0  0
 14 25  1  0  0  0  0
 15 26  1  0  0  0  0
 16 26  1  0  0  0  0
 16 27  2  0  0  0  0
 16 28  1  0  0  0  0
 17 19  2  0  0  0  0
 17 33  1  0  0  0  0
 18 20  2  0  0  0  0
 18 34  1  0  0  0  0
 19 49  1  0  0  0  0
 20 35  1  0  0  0  0
 21 84  1  0  0  0  0
 22 85  1  0  0  0  0
 23 25  2  0  0  0  0
 23 84  1  0  0  0  0
 24 86  1  0  0  0  0
 25 87  1  0  0  0  0
 26 66  2  0  0  0  0
 27 67  1  0  0  0  0
 27 72  1  0  0  0  0
 28 73  1  0  0  0  0
 28 78  2  0  0  0  0
 29 50  1  0  0  0  0
 29 74  1  0  0  0  0
 29 79  2  0  0  0  0
 30 63  1  0  0  0  0
 30 68  1  0  0  0  0
 30 80  2  0  0  0  0
 31 64  1  0  0  0  0
 31 75  1  0  0  0  0
 31 81  2  0  0  0  0
 32 69  1  0  0  0  0
 32 70  1  0  0  0  0
 32 82  2  0  0  0  0
 33 36  1  0  0  0  0
 34 50  1  0  0  0  0
 35 68  1  0  0  0  0
 36 38  1  0  0  0  0
 37 39  1  0  0  0  0
 37 42  1  0  0  0  0
 38 49  1  0  0  0  0
 39 51  1  0  0  0  0
 40 41  1  0  0  0  0
 40 54  1  0  0  0  0
 41 54  1  0  0  0  0
 42 69  1  0  0  0  0
 43 46  1  0  0  0  0
 43 70  1  0  0  0  0
 44 47  1  0  0  0  0
 44 70  1  0  0  0  0
 45 51  1  0  0  0  0
 45 69  1  0  0  0  0
 46 76  1  0  0  0  0
 47 76  1  0  0  0  0
 48 52  1  0  0  0  0
 48 83  1  0  0  0  0
 49 74  1  0  0  0  0
 50 68  1  0  0  0  0
 51 67  1  0  0  0  0
 52 53  1  0  0  0  0
 52 76  1  0  0  0  0
 53 55  1  0  0  0  0
 53 71  1  0  0  0  0
 54 71  1  0  0  0  0
 54 83  1  0  0  0  0
 56 64  1  0  0  0  0
 57 65  1  0  0  0  0
 58 65  1  0  0  0  0
 59 65  1  0  0  0  0
 60 77  1  0  0  0  0
 61 62  1  0  0  0  0
 61 71  1  0  0  0  0
 62 85  1  0  0  0  0
 63 65  1  0  0  0  0
 63 75  1  0  0  0  0
 64 77  1  0  0  0  0
 66 67  1  0  0  0  0
M  CHG  2  76   1  77   1
M  ISO  4  32 100  62 101  70 100  85 101
M  END
> <Batch ID>
0195

> <Smiles>
CNC(C)C(=O)NC(C(=O)N1Cc2cc([101O:1][101CH2:1]CN3C(C)C(N4CC[100N:0]([100C:0](=O)N5CCCC(n6nc(-c7ccc(Oc8ccc(F)cc8F)cc7)c(C(N)=O)c6N)C5)CC4)COC34CC4)ccc2CC1C(=O)NC1CCCc2ccccc21)C(C)(C)C

> <Shape>
0.300

> <Color>
0.098

> <Negative vol penalty>
0.000

$$$$

  -OEChem-04052323373D

 88 98  0     1  0  0  0  0  0999 V2000
  -18.0436  -29.5964   22.4472 C   0  0  0  0  0  0  0  0  0  0  0  0
  -19.3990  -29.7534   22.1758 C   0  0  0  0  0  0  0  0  0  0  0  0
  -26.6568  -12.3495   21.0343 C   0  0  0  0  0  0  0  0  0  0  0  0
  -25.3733  -13.8119   19.6021 C   0  0  0  0  0  0  0  0  0  0  0  0
  -17.5640  -28.3721   22.9109 C   0  0  0  0  0  0  0  0  0  0  0  0
  -20.2758  -28.6865   22.3692 C   0  0  0  0  0  0  0  0  0  0  0  0
  -25.2372  -27.3485   19.0375 C   0  0  0  0  0  0  0  0  0  0  0  0
  -25.4853  -11.6965   21.4174 C   0  0  0  0  0  0  0  0  0  0  0  0
  -24.2018  -13.1588   19.9852 C   0  0  0  0  0  0  0  0  0  0  0  0
  -26.5943  -27.6013   19.2328 C   0  0  0  0  0  0  0  0  0  0  0  0
  -23.4047   -9.3581   20.1384 C   0  0  0  0  0  0  0  0  0  0  0  0
  -23.4208   -7.9637   20.1709 C   0  0  0  0  0  0  0  0  0  0  0  0
  -26.8616  -25.3997   20.1820 C   0  0  0  0  0  0  0  0  0  0  0  0
  -22.8890   -8.0125   22.5272 C   0  0  0  0  0  0  0  0  0  0  0  0
  -34.3254  -26.4689   19.6502 C   0  0  0  0  0  0  0  0  0  0  0  0
  -26.6008  -13.4072   20.1267 C   0  0  0  0  0  0  0  0  0  0  0  0
  -28.6496  -13.7587   18.6480 C   0  0  0  0  0  0  0  0  0  0  0  0
  -18.4338  -27.2868   23.1008 C   0  0  0  0  0  0  0  0  0  0  0  0
  -24.6790  -26.1214   19.4237 C   0  0  0  0  0  0  0  0  0  0  0  0
  -19.8076  -27.4470   22.8372 C   0  0  0  0  0  0  0  0  0  0  0  0
  -25.4977  -25.1329   19.9882 C   0  0  0  0  0  0  0  0  0  0  0  0
  -33.1989  -25.6742   19.5877 C   0  0  0  0  0  0  0  0  0  0  0  0
  -24.2578  -12.1011   20.8928 C   0  0  0  0  0  0  0  0  0  0  0  0
  -27.4062  -26.6279   19.8077 C   0  0  0  0  0  0  0  0  0  0  0  0
  -23.1309  -10.0797   21.3003 C   0  0  0  0  0  0  0  0  0  0  0  0
  -23.1629   -7.2909   21.3653 C   0  0  0  0  0  0  0  0  0  0  0  0
  -22.8730   -9.4069   22.4947 C   0  0  0  0  0  0  0  0  0  0  0  0
  -27.8106  -14.0826   19.7310 C   0  0  0  0  0  0  0  0  0  0  0  0
  -32.8804  -24.9979   20.7477 C   0  0  0  0  0  0  0  0  0  0  0  0
  -29.6545  -14.6936   18.7007 C   0  0  0  0  0  0  0  0  0  0  0  0
  -34.6744  -25.8908   21.8207 C   0  0  0  0  0  0  0  0  0  0  0  0
  -28.5313  -12.7069   17.6809 C   0  0  0  0  0  0  0  0  0  0  0  0
  -22.4410  -25.2286   21.4968 C   0  0  0  0  0  0  0  0  0  0  0  0
  -22.9227  -22.3104   20.1647 C   0  0  0  0  0  0  0  0  0  0  0  0
  -25.0083  -20.2090   18.4674 C   0  0  0  0  0  0  0  0  0  0  0  0
  -29.8168  -20.1734   20.8717 C   0  0  0  0  0  0  0  0  0  0  0  0
  -17.8764  -25.9970   23.6488 C   0  0  0  0  0  0  0  0  0  0  0  0
  -23.2187  -25.8543   19.1817 C   0  0  0  0  0  0  0  0  0  0  0  0
  -24.9513  -23.7916   20.4015 C   0  0  0  0  0  0  0  0  0  0  0  0
  -18.8124  -24.8044   23.4703 C   0  0  0  0  0  0  0  0  0  0  0  0
  -32.0319  -17.4654   21.7938 C   0  0  0  0  0  0  0  0  0  0  0  0
  -20.2330  -25.1740   23.8851 C   0  0  0  0  0  0  0  0  0  0  0  0
  -34.8205  -26.4380   24.3412 C   0  0  0  0  0  0  0  0  0  0  0  0
  -35.7464  -27.3815   23.6392 C   0  0  0  0  0  0  0  0  0  0  0  0
  -31.2678  -16.2538   21.2573 C   0  0  0  0  0  0  0  0  0  0  0  0
  -31.0800  -18.5100   22.3698 C   0  0  0  0  0  0  0  0  0  0  0  0
  -29.2606  -17.7607   20.8878 C   0  0  0  0  0  0  0  0  0  0  0  0
  -31.5197  -23.0564   19.9049 C   0  0  0  0  0  0  0  0  0  0  0  0
  -31.0975  -23.6323   21.8823 C   0  0  0  0  0  0  0  0  0  0  0  0
  -20.7862  -26.3058   23.0107 C   0  0  1  0  0  0  0  0  0  0  0  0
  -35.4927  -26.0138   23.0622 C   0  0  0  0  0  0  0  0  0  0  0  0
  -22.6535  -24.7620   20.0844 C   0  0  1  0  0  0  0  0  0  0  0  0
  -30.1656  -16.6797   20.2695 C   0  0  2  0  0  0  0  0  0  0  0  0
  -30.4786  -22.5951   20.9346 C   0  0  0  0  0  0  0  0  0  0  0  0
  -25.1376  -17.8746   17.5556 C   0  0  0  0  0  0  0  0  0  0  0  0
  -23.3785  -21.2370   22.9843 C   0  0  0  0  0  0  0  0  0  0  0  0
  -24.4134  -19.1976   21.9655 C   0  0  0  0  0  0  0  0  0  0  0  0
  -22.0231  -19.7432   21.5058 C   0  0  0  0  0  0  0  0  0  0  0  0
  -25.3410  -21.1864   15.6937 C   0  0  0  0  0  0  0  0  0  0  0  0
  -32.3982  -25.5753   18.3228 C   0  0  0  0  0  0  0  0  0  0  0  0
  -30.8417  -27.4138   18.9830 C   0  0  0  0  0  0  0  0  0  0  0  0
  -29.3684  -27.7576   19.0801 C   0  0  0  0  0  0  0  0  0  1  0  0
  -23.8404  -21.1452   20.4457 C   0  0  1  0  0  0  0  0  0  0  0  0
  -24.7779  -19.3217   17.2573 C   0  0  2  0  0  0  0  0  0  0  0  0
  -23.4241  -20.3567   21.7194 C   0  0  0  0  0  0  0  0  0  0  0  0
  -35.0893  -26.6009   20.7544 N   0  0  0  0  0  0  0  0  0  0  0  0
  -28.2447  -15.1404   20.4213 N   0  0  0  0  0  0  0  0  0  0  0  0
  -33.5986  -25.0833   21.8866 N   0  0  0  0  0  0  0  0  0  0  0  0
  -29.3676  -15.4894   19.7705 N   0  0  0  0  0  0  0  0  0  0  0  0
  -31.7328  -24.1669   20.7447 N   0  0  0  0  0  0  0  0  0  0  0  0
  -23.5161  -23.5806   20.1502 N   0  0  0  0  0  0  0  0  0  0  0  0
  -30.0673  -18.8860   21.3729 N   0  0  0  0  0  0  0  0  0  0  0  0
  -30.7467  -14.9043   17.9358 N   0  0  0  0  0  0  0  0  0  0  0  0
  -27.4376  -11.8353   17.7722 N   0  0  0  0  0  0  0  0  0  0  0  0
  -21.2000  -25.7929   21.7223 N   0  0  0  0  0  0  0  0  0  0  0  0
  -23.8658  -20.3426   19.2277 N   0  0  0  0  0  0  0  0  0  0  0  0
  -30.6210  -21.1913   21.3731 N   0  0  0  0  0  0  0  0  0  0  0  0
  -25.6077  -19.7853   16.1096 N   0  3  0  0  0  0  0  0  0  0  0  0
  -30.9885  -26.0216   18.4888 N   0  3  0  0  0  0  0  0  0  0  0  0
  -29.3793  -12.5349   16.7727 O   0  0  0  0  0  0  0  0  0  0  0  0
  -23.3362  -25.0857   22.3214 O   0  0  0  0  0  0  0  0  0  0  0  0
  -21.7248  -22.1006   19.9583 O   0  0  0  0  0  0  0  0  0  0  0  0
  -26.0943  -20.7283   18.7154 O   0  0  0  0  0  0  0  0  0  0  0  0
  -28.9421  -20.4066   20.0301 O   0  0  0  0  0  0  0  0  0  0  0  0
  -23.1145  -11.4640   21.2662 O   0  0  0  0  0  0  0  0  0  0  0  0
  -28.7310  -26.8723   20.0001 O   0  0  0  0  0  0  0  0  0  1  0  0
  -23.1768   -5.9519   21.3960 F   0  0  0  0  0  0  0  0  0  0  0  0
  -22.6081  -10.0947   23.6139 F   0  0  0  0  0  0  0  0  0  0  0  0
  1  2  1  0  0  0  0
  1  5  2  0  0  0  0
  2  6  2  0  0  0  0
  3  8  2  0  0  0  0
  3 16  1  0  0  0  0
  4  9  1  0  0  0  0
  4 16  2  0  0  0  0
  5 18  1  0  0  0  0
  6 20  1  0  0  0  0
  7 10  2  0  0  0  0
  7 19  1  0  0  0  0
  8 23  1  0  0  0  0
  9 23  2  0  0  0  0
 10 24  1  0  0  0  0
 11 12  2  0  0  0  0
 11 25  1  0  0  0  0
 12 26  1  0  0  0  0
 13 21  1  0  0  0  0
 13 24  2  0  0  0  0
 14 26  2  0  0  0  0
 14 27  1  0  0  0  0
 15 22  1  0  0  0  0
 15 66  2  0  0  0  0
 16 28  1  0  0  0  0
 17 28  1  0  0  0  0
 17 30  2  0  0  0  0
 17 32  1  0  0  0  0
 18 20  2  0  0  0  0
 18 37  1  0  0  0  0
 19 21  2  0  0  0  0
 19 38  1  0  0  0  0
 20 50  1  0  0  0  0
 21 39  1  0  0  0  0
 22 29  2  0  0  0  0
 22 60  1  0  0  0  0
 23 85  1  0  0  0  0
 24 86  1  0  0  0  0
 25 27  2  0  0  0  0
 25 85  1  0  0  0  0
 26 87  1  0  0  0  0
 27 88  1  0  0  0  0
 28 67  2  0  0  0  0
 29 68  1  0  0  0  0
 29 70  1  0  0  0  0
 30 69  1  0  0  0  0
 30 73  1  0  0  0  0
 31 51  1  0  0  0  0
 31 66  1  0  0  0  0
 31 68  2  0  0  0  0
 32 74  1  0  0  0  0
 32 80  2  0  0  0  0
 33 52  1  0  0  0  0
 33 75  1  0  0  0  0
 33 81  2  0  0  0  0
 34 63  1  0  0  0  0
 34 71  1  0  0  0  0
 34 82  2  0  0  0  0
 35 64  1  0  0  0  0
 35 76  1  0  0  0  0
 35 83  2  0  0  0  0
 36 72  1  0  0  0  0
 36 77  1  0  0  0  0
 36 84  2  0  0  0  0
 37 40  1  0  0  0  0
 38 52  1  0  0  0  0
 39 71  1  0  0  0  0
 40 42  1  0  0  0  0
 41 45  1  0  0  0  0
 41 46  1  0  0  0  0
 42 50  1  0  0  0  0
 43 44  1  0  0  0  0
 43 51  1  0  0  0  0
 44 51  1  0  0  0  0
 45 53  1  0  0  0  0
 46 72  1  0  0  0  0
 47 53  1  0  0  0  0
 47 72  1  0  0  0  0
 48 54  1  0  0  0  0
 48 70  1  0  0  0  0
 49 54  1  0  0  0  0
 49 70  1  0  0  0  0
 50 75  1  0  0  0  0
 52 71  1  0  0  0  0
 53 69  1  0  0  0  0
 54 77  1  0  0  0  0
 55 64  1  0  0  0  0
 56 65  1  0  0  0  0
 57 65  1  0  0  0  0
 58 65  1  0  0  0  0
 59 78  1  0  0  0  0
 60 79  1  0  0  0  0
 61 62  1  0  0  0  0
 61 79  1  0  0  0  0
 62 86  1  0  0  0  0
 63 65  1  0  0  0  0
 63 76  1  0  0  0  0
 64 78  1  0  0  0  0
 67 69  1  0  0  0  0
M  CHG  2  78   1  79   1
M  ISO  4  36 100  62 101  77 100  86 101
M  END
> <Batch ID>
0195

> <Smiles>
CNC(C)C(=O)NC(C(=O)N1Cc2cc([101O:1][101CH2:1]CNCc3cnc(C4CC4)nc3N3CC([100NH:0][100C:0](=O)N4CCCC(n5nc(-c6ccc(Oc7ccc(F)cc7F)cc6)c(C(N)=O)c5N)C4)C3)ccc2CC1C(=O)NC1CCCc2ccccc21)C(C)(C)C

> <Shape>
0.236

> <Color>
0.072

> <Negative vol penalty>
0.000

$$$$

  -OEChem-04052323373D

 81 90  0     1  0  0  0  0  0999 V2000
  -17.4101  -30.8902   24.5417 C   0  0  0  0  0  0  0  0  0  0  0  0
  -18.2979  -30.0105   25.1528 C   0  0  0  0  0  0  0  0  0  0  0  0
  -23.2234   -9.7468   21.2655 C   0  0  0  0  0  0  0  0  0  0  0  0
  -23.9396  -10.5898   23.4133 C   0  0  0  0  0  0  0  0  0  0  0  0
  -17.3444  -30.9583   23.1507 C   0  0  0  0  0  0  0  0  0  0  0  0
  -19.1197  -29.1974   24.3730 C   0  0  0  0  0  0  0  0  0  0  0  0
  -25.6236  -26.1948   24.3748 C   0  0  0  0  0  0  0  0  0  0  0  0
  -22.5468   -8.7050   21.8999 C   0  0  0  0  0  0  0  0  0  0  0  0
  -23.2630   -9.5481   24.0478 C   0  0  0  0  0  0  0  0  0  0  0  0
  -26.2372  -24.9543   24.2066 C   0  0  0  0  0  0  0  0  0  0  0  0
  -23.3150   -5.7322   23.3129 C   0  0  0  0  0  0  0  0  0  0  0  0
  -23.4615   -4.4492   22.7857 C   0  0  0  0  0  0  0  0  0  0  0  0
  -26.0934  -25.2145   21.8127 C   0  0  0  0  0  0  0  0  0  0  0  0
  -21.0781   -4.3322   22.4078 C   0  0  0  0  0  0  0  0  0  0  0  0
  -27.5946  -20.0219   23.9200 C   0  0  0  0  0  0  0  0  0  0  0  0
  -29.2536  -21.2220   22.7959 C   0  0  0  0  0  0  0  0  0  0  0  0
  -23.9198  -10.6891   22.0221 C   0  0  0  0  0  0  0  0  0  0  0  0
  -24.1092  -13.0355   21.0390 C   0  0  0  0  0  0  0  0  0  0  0  0
  -18.1727  -30.1526   22.3535 C   0  0  0  0  0  0  0  0  0  0  0  0
  -25.2297  -26.9509   23.2614 C   0  0  0  0  0  0  0  0  0  0  0  0
  -19.0640  -29.2538   22.9700 C   0  0  0  0  0  0  0  0  0  0  0  0
  -25.4773  -26.4655   21.9694 C   0  0  0  0  0  0  0  0  0  0  0  0
  -28.0978  -21.2522   23.5491 C   0  0  0  0  0  0  0  0  0  0  0  0
  -22.5665   -8.6057   23.2911 C   0  0  0  0  0  0  0  0  0  0  0  0
  -26.4696  -24.4626   22.9254 C   0  0  0  0  0  0  0  0  0  0  0  0
  -22.0500   -6.3152   23.3877 C   0  0  0  0  0  0  0  0  0  0  0  0
  -22.3431   -3.7492   22.3332 C   0  0  0  0  0  0  0  0  0  0  0  0
  -20.9316   -5.6152   22.9351 C   0  0  0  0  0  0  0  0  0  0  0  0
  -24.6194  -11.7652   21.3673 C   0  0  0  0  0  0  0  0  0  0  0  0
  -25.1600  -13.6822   20.4357 C   0  0  0  0  0  0  0  0  0  0  0  0
  -29.2899  -18.9498   22.8505 C   0  0  0  0  0  0  0  0  0  0  0  0
  -22.8022  -13.5821   21.2598 C   0  0  0  0  0  0  0  0  0  0  0  0
  -22.4540  -28.0321   22.1524 C   0  0  0  0  0  0  0  0  0  0  0  0
  -24.3484  -29.5393   19.9932 C   0  0  0  0  0  0  0  0  0  0  0  0
  -27.3285  -29.6522   18.3341 C   0  0  0  0  0  0  0  0  0  0  0  0
  -30.6523  -14.9834   20.4478 C   0  0  0  0  0  0  0  0  0  0  0  0
  -18.0322  -30.2274   20.8537 C   0  0  0  0  0  0  0  0  0  0  0  0
  -24.5931  -28.2992   23.4596 C   0  0  0  0  0  0  0  0  0  0  0  0
  -25.0920  -27.2474   20.7412 C   0  0  0  0  0  0  0  0  0  0  0  0
  -19.2031  -29.6014   20.1004 C   0  0  0  0  0  0  0  0  0  0  0  0
  -29.6023  -11.9662   18.7965 C   0  0  0  0  0  0  0  0  0  0  0  0
  -19.5536  -28.2407   20.6941 C   0  0  0  0  0  0  0  0  0  0  0  0
  -28.1954  -11.7149   19.3287 C   0  0  0  0  0  0  0  0  0  0  0  0
  -30.4858  -12.5909   19.8681 C   0  0  0  0  0  0  0  0  0  0  0  0
  -29.1163  -16.3765   22.0479 C   0  0  0  0  0  0  0  0  0  0  0  0
  -30.6214  -17.4687   21.0305 C   0  0  0  0  0  0  0  0  0  0  0  0
  -28.5195  -13.6647   20.9333 C   0  0  0  0  0  0  0  0  0  0  0  0
  -19.9894  -28.3734   22.1583 C   0  0  1  0  0  0  0  0  0  0  0  0
  -29.9937  -17.5906   22.4381 C   0  0  0  0  0  0  0  0  0  0  0  0
  -23.7682  -28.7527   22.2591 C   0  0  1  0  0  0  0  0  0  0  0  0
  -27.5933  -13.0118   19.8882 C   0  0  2  0  0  0  0  0  0  0  0  0
  -28.5709  -30.9790   16.6040 C   0  0  0  0  0  0  0  0  0  0  0  0
  -22.6462  -28.2708   17.8016 C   0  0  0  0  0  0  0  0  0  0  0  0
  -24.4573  -28.8321   16.1667 C   0  0  0  0  0  0  0  0  0  0  0  0
  -23.2720  -30.6564   17.3871 C   0  0  0  0  0  0  0  0  0  0  0  0
  -29.4871  -30.3349   20.2401 C   0  0  0  0  0  0  0  0  0  0  0  0
  -27.4313  -22.5385   23.9397 C   0  0  0  0  0  0  0  0  0  1  0  0
  -24.9099  -29.1903   18.6361 C   0  0  1  0  0  0  0  0  0  0  0  0
  -28.3024  -30.7905   18.0889 C   0  0  2  0  0  0  0  0  0  0  0  0
  -23.8270  -29.2215   17.5208 C   0  0  0  0  0  0  0  0  0  0  0  0
  -28.1671  -18.8465   23.5869 N   0  0  0  0  0  0  0  0  0  0  0  0
  -29.8787  -20.0846   22.4273 N   0  0  0  0  0  0  0  0  0  0  0  0
  -25.8952  -11.6119   21.0026 N   0  0  0  0  0  0  0  0  0  0  0  0
  -26.1954  -12.7944   20.4388 N   0  0  0  0  0  0  0  0  0  0  0  0
  -24.4667  -28.5574   20.9870 N   0  0  0  0  0  0  0  0  0  0  0  0
  -29.8933  -13.8078   20.4315 N   0  0  0  0  0  0  0  0  0  0  0  0
  -30.0968  -16.1088   21.0095 N   0  0  0  0  0  0  0  0  0  0  0  0
  -25.2901  -14.9179   19.9081 N   0  0  0  0  0  0  0  0  0  0  0  0
  -21.8416  -12.7819   21.8934 N   0  0  0  0  0  0  0  0  0  0  0  0
  -21.3503  -28.8591   22.2387 N   0  0  0  0  0  0  0  0  0  0  0  0
  -26.0269  -30.1010   18.4100 N   0  0  0  0  0  0  0  0  0  0  0  0
  -29.5996  -30.5182   18.7702 N   0  3  0  0  0  0  0  0  0  0  0  0
  -22.4903  -14.7398   20.8911 O   0  0  0  0  0  0  0  0  0  0  0  0
  -22.4422  -26.8161   22.0014 O   0  0  0  0  0  0  0  0  0  0  0  0
  -23.8305  -30.6453   20.1672 O   0  0  0  0  0  0  0  0  0  0  0  0
  -27.6862  -28.4814   18.4433 O   0  0  0  0  0  0  0  0  0  0  0  0
  -31.8063  -15.0221   20.0007 O   0  0  0  0  0  0  0  0  0  0  0  0
  -21.9062   -7.5894   23.9106 O   0  0  0  0  0  0  0  0  0  0  0  0
  -27.0678  -23.2518   22.7584 O   0  0  0  0  0  0  0  0  0  1  0  0
  -22.4842   -2.5177   21.8255 F   0  0  0  0  0  0  0  0  0  0  0  0
  -19.7139   -6.1706   23.0032 F   0  0  0  0  0  0  0  0  0  0  0  0
  1  2  1  0  0  0  0
  1  5  2  0  0  0  0
  2  6  2  0  0  0  0
  3  8  2  0  0  0  0
  3 17  1  0  0  0  0
  4  9  1  0  0  0  0
  4 17  2  0  0  0  0
  5 19  1  0  0  0  0
  6 21  1  0  0  0  0
  7 10  2  0  0  0  0
  7 20  1  0  0  0  0
  8 24  1  0  0  0  0
  9 24  2  0  0  0  0
 10 25  1  0  0  0  0
 11 12  2  0  0  0  0
 11 26  1  0  0  0  0
 12 27  1  0  0  0  0
 13 22  1  0  0  0  0
 13 25  2  0  0  0  0
 14 27  2  0  0  0  0
 14 28  1  0  0  0  0
 15 23  1  0  0  0  0
 15 61  2  0  0  0  0
 16 23  2  0  0  0  0
 16 62  1  0  0  0  0
 17 29  1  0  0  0  0
 18 29  1  0  0  0  0
 18 30  2  0  0  0  0
 18 32  1  0  0  0  0
 19 21  2  0  0  0  0
 19 37  1  0  0  0  0
 20 22  2  0  0  0  0
 20 38  1  0  0  0  0
 21 48  1  0  0  0  0
 22 39  1  0  0  0  0
 23 57  1  0  0  0  0
 24 78  1  0  0  0  0
 25 79  1  0  0  0  0
 26 28  2  0  0  0  0
 26 78  1  0  0  0  0
 27 80  1  0  0  0  0
 28 81  1  0  0  0  0
 29 63  2  0  0  0  0
 30 64  1  0  0  0  0
 30 68  1  0  0  0  0
 31 49  1  0  0  0  0
 31 61  1  0  0  0  0
 31 62  2  0  0  0  0
 32 69  1  0  0  0  0
 32 73  2  0  0  0  0
 33 50  1  0  0  0  0
 33 70  1  0  0  0  0
 33 74  2  0  0  0  0
 34 58  1  0  0  0  0
 34 65  1  0  0  0  0
 34 75  2  0  0  0  0
 35 59  1  0  0  0  0
 35 71  1  0  0  0  0
 35 76  2  0  0  0  0
 36 66  1  0  0  0  0
 36 67  1  0  0  0  0
 36 77  2  0  0  0  0
 37 40  1  0  0  0  0
 38 50  1  0  0  0  0
 39 65  1  0  0  0  0
 40 42  1  0  0  0  0
 41 43  1  0  0  0  0
 41 44  1  0  0  0  0
 42 48  1  0  0  0  0
 43 51  1  0  0  0  0
 44 66  1  0  0  0  0
 45 49  1  0  0  0  0
 45 67  1  0  0  0  0
 46 49  1  0  0  0  0
 46 67  1  0  0  0  0
 47 51  1  0  0  0  0
 47 66  1  0  0  0  0
 48 70  1  0  0  0  0
 50 65  1  0  0  0  0
 51 64  1  0  0  0  0
 52 59  1  0  0  0  0
 53 60  1  0  0  0  0
 54 60  1  0  0  0  0
 55 60  1  0  0  0  0
 56 72  1  0  0  0  0
 57 79  1  0  0  0  0
 58 60  1  0  0  0  0
 58 71  1  0  0  0  0
 59 72  1  0  0  0  0
 63 64  1  0  0  0  0
M  CHG  1  72   1
M  ISO  4  36 100  57 101  67 100  79 101
M  END
> <Batch ID>
0195

> <Smiles>
CNC(C)C(=O)NC(C(=O)N1Cc2cc([101O:1][101CH2:1]c3cnc(C4C[100N:0]([100C:0](=O)N5CCCC(n6nc(-c7ccc(Oc8ccc(F)cc8F)cc7)c(C(N)=O)c6N)C5)C4)nc3)ccc2CC1C(=O)NC1CCCc2ccccc21)C(C)(C)C

> <Shape>
0.261

> <Color>
0.183

> <Negative vol penalty>
0.000

$$$$

  -OEChem-04052323373D

 87 97  0     1  0  0  0  0  0999 V2000
  -17.0971  -30.8377   24.0330 C   0  0  0  0  0  0  0  0  0  0  0  0
  -18.4579  -30.6824   24.2767 C   0  0  0  0  0  0  0  0  0  0  0  0
  -27.3609  -12.4230   23.0227 C   0  0  0  0  0  0  0  0  0  0  0  0
  -26.4156  -12.6816   20.8144 C   0  0  0  0  0  0  0  0  0  0  0  0
  -16.4192  -29.9041   23.2503 C   0  0  0  0  0  0  0  0  0  0  0  0
  -19.1415  -29.5926   23.7387 C   0  0  0  0  0  0  0  0  0  0  0  0
  -24.9361  -29.4939   21.7592 C   0  0  0  0  0  0  0  0  0  0  0  0
  -26.2348  -11.7023   23.4204 C   0  0  0  0  0  0  0  0  0  0  0  0
  -25.2895  -11.9608   21.2120 C   0  0  0  0  0  0  0  0  0  0  0  0
  -26.1229  -29.0662   22.3528 C   0  0  0  0  0  0  0  0  0  0  0  0
  -24.4447   -8.7227   21.6821 C   0  0  0  0  0  0  0  0  0  0  0  0
  -23.9675   -7.7391   20.8158 C   0  0  0  0  0  0  0  0  0  0  0  0
  -25.9004  -26.9337   21.2472 C   0  0  0  0  0  0  0  0  0  0  0  0
  -21.8501   -8.8937   20.6715 C   0  0  0  0  0  0  0  0  0  0  0  0
  -31.1076  -27.9094   20.6547 C   0  0  0  0  0  0  0  0  0  0  0  0
  -27.4513  -12.9127   21.7197 C   0  0  0  0  0  0  0  0  0  0  0  0
  -29.7962  -13.1443   20.7422 C   0  0  0  0  0  0  0  0  0  0  0  0
  -17.0968  -28.8075   22.6944 C   0  0  0  0  0  0  0  0  0  0  0  0
  -24.2156  -28.6394   20.9123 C   0  0  0  0  0  0  0  0  0  0  0  0
  -18.4717  -28.6426   22.9489 C   0  0  0  0  0  0  0  0  0  0  0  0
  -24.7060  -27.3539   20.6421 C   0  0  0  0  0  0  0  0  0  0  0  0
  -25.1992  -11.4712   22.5151 C   0  0  0  0  0  0  0  0  0  0  0  0
  -26.6037  -27.7849   22.0991 C   0  0  0  0  0  0  0  0  0  0  0  0
  -23.6247   -9.7917   22.0432 C   0  0  0  0  0  0  0  0  0  0  0  0
  -22.6702   -7.8247   20.3105 C   0  0  0  0  0  0  0  0  0  0  0  0
  -22.3274   -9.8773   21.5378 C   0  0  0  0  0  0  0  0  0  0  0  0
  -28.6140  -13.6577   21.3085 C   0  0  0  0  0  0  0  0  0  0  0  0
  -31.3879  -27.2766   19.4608 C   0  0  0  0  0  0  0  0  0  0  0  0
  -30.4862  -27.1322   21.6108 C   0  0  0  0  0  0  0  0  0  0  0  0
  -30.5848  -14.2492   20.5331 C   0  0  0  0  0  0  0  0  0  0  0  0
  -30.4848  -25.3338   20.2205 C   0  0  0  0  0  0  0  0  0  0  0  0
  -30.1497  -11.7897   20.4327 C   0  0  0  0  0  0  0  0  0  0  0  0
  -21.3120  -27.3474   20.9720 C   0  0  0  0  0  0  0  0  0  0  0  0
  -22.1340  -26.3184   18.0075 C   0  0  0  0  0  0  0  0  0  0  0  0
  -24.6128  -25.5297   15.7984 C   0  0  0  0  0  0  0  0  0  0  0  0
  -29.4798  -19.8396   19.5563 C   0  0  0  0  0  0  0  0  0  0  0  0
  -16.3116  -27.7988   21.8940 C   0  0  0  0  0  0  0  0  0  0  0  0
  -22.9511  -29.1252   20.2587 C   0  0  0  0  0  0  0  0  0  0  0  0
  -23.9807  -26.4051   19.7244 C   0  0  0  0  0  0  0  0  0  0  0  0
  -17.1874  -26.8753   21.0510 C   0  0  0  0  0  0  0  0  0  0  0  0
  -31.4195  -18.6387   22.2274 C   0  0  0  0  0  0  0  0  0  0  0  0
  -18.3535  -26.3436   21.8783 C   0  0  0  0  0  0  0  0  0  0  0  0
  -31.4325  -29.3304   17.8944 C   0  0  0  0  0  0  0  0  0  0  0  0
  -31.4082  -28.1178   17.0174 C   0  0  0  0  0  0  0  0  0  0  0  0
  -31.0328  -17.1601   22.2429 C   0  0  0  0  0  0  0  0  0  0  0  0
  -30.2148  -19.5433   21.9630 C   0  0  0  0  0  0  0  0  0  0  0  0
  -30.9925  -23.1927   19.0866 C   0  0  0  0  0  0  0  0  0  0  0  0
  -29.4754  -23.2625   21.0714 C   0  0  0  0  0  0  0  0  0  0  0  0
  -30.2337  -21.9721   18.5725 C   0  0  0  0  0  0  0  0  0  0  0  0
  -28.7364  -22.0500   20.5164 C   0  0  0  0  0  0  0  0  0  0  0  0
  -29.0690  -17.7124   20.7576 C   0  0  0  0  0  0  0  0  0  0  0  0
  -19.2533  -27.4871   22.3622 C   0  0  1  0  0  0  0  0  0  0  0  0
  -32.0584  -28.0473   18.3741 C   0  0  0  0  0  0  0  0  0  0  0  0
  -22.0311  -27.9901   19.8198 C   0  0  1  0  0  0  0  0  0  0  0  0
  -30.2694  -16.7754   20.9631 C   0  0  2  0  0  0  0  0  0  0  0  0
  -24.9750  -24.6815   13.4646 C   0  0  0  0  0  0  0  0  0  0  0  0
  -21.4159  -23.4980   18.9238 C   0  0  0  0  0  0  0  0  0  0  0  0
  -22.6676  -22.6116   16.9450 C   0  0  0  0  0  0  0  0  0  0  0  0
  -20.6680  -24.0639   16.6054 C   0  0  0  0  0  0  0  0  0  0  0  0
  -26.0352  -27.9984   14.9976 C   0  0  0  0  0  0  0  0  0  0  0  0
  -30.1417  -27.7295   22.9337 C   0  0  0  0  0  0  0  0  0  0  0  0
  -28.7453  -28.3581   22.9600 C   0  0  0  0  0  0  0  0  0  1  0  0
  -22.8169  -25.0917   17.4529 C   0  0  1  0  0  0  0  0  0  0  0  0
  -24.8261  -25.9125   14.3450 C   0  0  2  0  0  0  0  0  0  0  0  0
  -21.9050  -23.8332   17.5006 C   0  0  0  0  0  0  0  0  0  0  0  0
  -28.6446  -14.9855   21.4503 N   0  0  0  0  0  0  0  0  0  0  0  0
  -31.0893  -25.9852   19.2087 N   0  0  0  0  0  0  0  0  0  0  0  0
  -30.1589  -25.8363   21.4267 N   0  0  0  0  0  0  0  0  0  0  0  0
  -29.8556  -15.3157   20.9702 N   0  0  0  0  0  0  0  0  0  0  0  0
  -30.1605  -23.9901   19.9942 N   0  0  0  0  0  0  0  0  0  0  0  0
  -22.7455  -26.9243   19.1143 N   0  0  0  0  0  0  0  0  0  0  0  0
  -29.4956  -19.1133   20.7564 N   0  0  0  0  0  0  0  0  0  0  0  0
  -29.5979  -21.2347   19.6576 N   0  0  0  0  0  0  0  0  0  0  0  0
  -31.8239  -14.4028   20.0198 N   0  0  0  0  0  0  0  0  0  0  0  0
  -29.2223  -10.7766   20.7119 N   0  0  0  0  0  0  0  0  0  0  0  0
  -20.1079  -27.9468   21.2886 N   0  0  0  0  0  0  0  0  0  0  0  0
  -23.2729  -25.4486   16.1138 N   0  0  0  0  0  0  0  0  0  0  0  0
  -26.0552  -26.7432   14.2031 N   0  3  0  0  0  0  0  0  0  0  0  0
  -31.2618  -11.4849   19.9388 O   0  0  0  0  0  0  0  0  0  0  0  0
  -21.8119  -26.3784   21.5314 O   0  0  0  0  0  0  0  0  0  0  0  0
  -21.1001  -26.7284   17.4740 O   0  0  0  0  0  0  0  0  0  0  0  0
  -25.5418  -25.3197   16.5751 O   0  0  0  0  0  0  0  0  0  0  0  0
  -29.3701  -19.2777   18.4595 O   0  0  0  0  0  0  0  0  0  0  0  0
  -24.1003  -10.7678   22.9027 O   0  0  0  0  0  0  0  0  0  0  0  0
  -27.7697  -27.3618   22.6818 O   0  0  0  0  0  0  0  0  0  1  0  0
  -22.2125   -6.8809   19.4774 F   0  0  0  0  0  0  0  0  0  0  0  0
  -21.5353  -10.9026   21.8801 F   0  0  0  0  0  0  0  0  0  0  0  0
  1  2  1  0  0  0  0
  1  5  2  0  0  0  0
  2  6  2  0  0  0  0
  3  8  2  0  0  0  0
  3 16  1  0  0  0  0
  4  9  1  0  0  0  0
  4 16  2  0  0  0  0
  5 18  1  0  0  0  0
  6 20  1  0  0  0  0
  7 10  2  0  0  0  0
  7 19  1  0  0  0  0
  8 22  1  0  0  0  0
  9 22  2  0  0  0  0
 10 23  1  0  0  0  0
 11 12  2  0  0  0  0
 11 24  1  0  0  0  0
 12 25  1  0  0  0  0
 13 21  1  0  0  0  0
 13 23  2  0  0  0  0
 14 25  2  0  0  0  0
 14 26  1  0  0  0  0
 15 28  2  0  0  0  0
 15 29  1  0  0  0  0
 16 27  1  0  0  0  0
 17 27  1  0  0  0  0
 17 30  2  0  0  0  0
 17 32  1  0  0  0  0
 18 20  2  0  0  0  0
 18 37  1  0  0  0  0
 19 21  2  0  0  0  0
 19 38  1  0  0  0  0
 20 52  1  0  0  0  0
 21 39  1  0  0  0  0
 22 84  1  0  0  0  0
 23 85  1  0  0  0  0
 24 26  2  0  0  0  0
 24 84  1  0  0  0  0
 25 86  1  0  0  0  0
 26 87  1  0  0  0  0
 27 66  2  0  0  0  0
 28 53  1  0  0  0  0
 28 67  1  0  0  0  0
 29 61  1  0  0  0  0
 29 68  2  0  0  0  0
 30 69  1  0  0  0  0
 30 74  1  0  0  0  0
 31 67  2  0  0  0  0
 31 68  1  0  0  0  0
 31 70  1  0  0  0  0
 32 75  1  0  0  0  0
 32 79  2  0  0  0  0
 33 54  1  0  0  0  0
 33 76  1  0  0  0  0
 33 80  2  0  0  0  0
 34 63  1  0  0  0  0
 34 71  1  0  0  0  0
 34 81  2  0  0  0  0
 35 64  1  0  0  0  0
 35 77  1  0  0  0  0
 35 82  2  0  0  0  0
 36 72  1  0  0  0  0
 36 73  1  0  0  0  0
 36 83  2  0  0  0  0
 37 40  1  0  0  0  0
 38 54  1  0  0  0  0
 39 71  1  0  0  0  0
 40 42  1  0  0  0  0
 41 45  1  0  0  0  0
 41 46  1  0  0  0  0
 42 52  1  0  0  0  0
 43 44  1  0  0  0  0
 43 53  1  0  0  0  0
 44 53  1  0  0  0  0
 45 55  1  0  0  0  0
 46 72  1  0  0  0  0
 47 49  1  0  0  0  0
 47 70  1  0  0  0  0
 48 50  1  0  0  0  0
 48 70  1  0  0  0  0
 49 73  1  0  0  0  0
 50 73  1  0  0  0  0
 51 55  1  0  0  0  0
 51 72  1  0  0  0  0
 52 76  1  0  0  0  0
 54 71  1  0  0  0  0
 55 69  1  0  0  0  0
 56 64  1  0  0  0  0
 57 65  1  0  0  0  0
 58 65  1  0  0  0  0
 59 65  1  0  0  0  0
 60 78  1  0  0  0  0
 61 62  1  0  0  0  0
 62 85  1  0  0  0  0
 63 65  1  0  0  0  0
 63 77  1  0  0  0  0
 64 78  1  0  0  0  0
 66 69  1  0  0  0  0
M  CHG  1  78   1
M  ISO  4  36 100  62 101  73 100  85 101
M  END
> <Batch ID>
0195

> <Smiles>
CNC(C)C(=O)NC(C(=O)N1Cc2cc([101O:1][101CH2:1]Cc3cc(C4CC4)nc(N4CC[100N:0]([100C:0](=O)N5CCCC(n6nc(-c7ccc(Oc8ccc(F)cc8F)cc7)c(C(N)=O)c6N)C5)CC4)n3)ccc2CC1C(=O)NC1CCCc2ccccc21)C(C)(C)C

> <Shape>
0.299

> <Color>
0.066

> <Negative vol penalty>
0.000

$$$$

  -OEChem-04052323373D

 85 95  0     1  0  0  0  0  0999 V2000
  -24.8686  -35.9534   16.9774 C   0  0  0  0  0  0  0  0  0  0  0  0
  -24.7805  -34.6186   16.5953 C   0  0  0  0  0  0  0  0  0  0  0  0
  -22.7430  -11.4469   19.0114 C   0  0  0  0  0  0  0  0  0  0  0  0
  -23.1584   -9.9316   20.8467 C   0  0  0  0  0  0  0  0  0  0  0  0
  -25.5177  -36.2966   18.1626 C   0  0  0  0  0  0  0  0  0  0  0  0
  -25.3425  -33.6263   17.3978 C   0  0  0  0  0  0  0  0  0  0  0  0
  -24.3349  -26.8183   19.3860 C   0  0  0  0  0  0  0  0  0  0  0  0
  -21.7055  -10.6265   18.5688 C   0  0  0  0  0  0  0  0  0  0  0  0
  -22.1207   -9.1111   20.4041 C   0  0  0  0  0  0  0  0  0  0  0  0
  -25.0172  -25.6045   19.4561 C   0  0  0  0  0  0  0  0  0  0  0  0
  -18.7446   -9.0711   20.5483 C   0  0  0  0  0  0  0  0  0  0  0  0
  -17.8490   -8.5896   21.5030 C   0  0  0  0  0  0  0  0  0  0  0  0
  -26.0451  -26.3084   21.5218 C   0  0  0  0  0  0  0  0  0  0  0  0
  -18.4487   -6.3224   20.9223 C   0  0  0  0  0  0  0  0  0  0  0  0
  -26.4578  -20.8434   20.2339 C   0  0  0  0  0  0  0  0  0  0  0  0
  -23.4695  -11.0994   20.1504 C   0  0  0  0  0  0  0  0  0  0  0  0
  -24.4501  -13.0191   21.5146 C   0  0  0  0  0  0  0  0  0  0  0  0
  -26.0795  -35.3072   18.9849 C   0  0  0  0  0  0  0  0  0  0  0  0
  -24.5113  -27.7923   20.3793 C   0  0  0  0  0  0  0  0  0  0  0  0
  -26.0008  -33.9567   18.5945 C   0  0  0  0  0  0  0  0  0  0  0  0
  -25.3620  -27.5327   21.4633 C   0  0  0  0  0  0  0  0  0  0  0  0
  -21.3943   -9.4586   19.2651 C   0  0  0  0  0  0  0  0  0  0  0  0
  -25.8747  -25.3505   20.5225 C   0  0  0  0  0  0  0  0  0  0  0  0
  -19.4923   -8.1783   19.7805 C   0  0  0  0  0  0  0  0  0  0  0  0
  -17.7010   -7.2153   21.6900 C   0  0  0  0  0  0  0  0  0  0  0  0
  -19.3444   -6.8040   19.9675 C   0  0  0  0  0  0  0  0  0  0  0  0
  -24.5418  -11.9462   20.6078 C   0  0  0  0  0  0  0  0  0  0  0  0
  -27.0828  -21.9833   19.7978 C   0  0  0  0  0  0  0  0  0  0  0  0
  -25.7350  -13.4934   21.6165 C   0  0  0  0  0  0  0  0  0  0  0  0
  -28.4561  -19.7916   20.2489 C   0  0  0  0  0  0  0  0  0  0  0  0
  -23.3056  -13.5403   22.2033 C   0  0  0  0  0  0  0  0  0  0  0  0
  -25.6179  -30.7717   20.4280 C   0  0  0  0  0  0  0  0  0  0  0  0
  -24.6256  -30.6756   23.5148 C   0  0  0  0  0  0  0  0  0  0  0  0
  -23.8757  -28.7913   26.2597 C   0  0  0  0  0  0  0  0  0  0  0  0
  -30.3538  -15.0612   18.7196 C   0  0  0  0  0  0  0  0  0  0  0  0
  -26.8124  -35.7308   20.2331 C   0  0  0  0  0  0  0  0  0  0  0  0
  -23.7475  -29.0859   20.3031 C   0  0  0  0  0  0  0  0  0  0  0  0
  -25.5704  -28.5372   22.5661 C   0  0  0  0  0  0  0  0  0  0  0  0
  -27.0543  -34.5874   21.2151 C   0  0  0  0  0  0  0  0  0  0  0  0
  -30.1186  -11.5839   19.9907 C   0  0  0  0  0  0  0  0  0  0  0  0
  -27.5881  -33.3597   20.4839 C   0  0  0  0  0  0  0  0  0  0  0  0
  -28.6218  -11.4384   20.2630 C   0  0  0  0  0  0  0  0  0  0  0  0
  -30.7681  -16.6026   21.8141 C   0  0  0  0  0  0  0  0  0  0  0  0
  -31.3357  -17.9834   21.4523 C   0  0  0  0  0  0  0  0  0  0  0  0
  -30.3989  -12.6030   18.8902 C   0  0  0  0  0  0  0  0  0  0  0  0
  -28.2949  -13.7892   19.4046 C   0  0  0  0  0  0  0  0  0  0  0  0
  -28.5682  -17.4041   20.9489 C   0  0  0  0  0  0  0  0  0  0  0  0
  -30.7906  -17.4705   19.0677 C   0  0  0  0  0  0  0  0  0  0  0  0
  -26.5762  -32.8495   19.4508 C   0  0  1  0  0  0  0  0  0  0  0  0
  -24.3974  -30.2114   21.1020 C   0  0  1  0  0  0  0  0  0  0  0  0
  -27.9813  -12.8088   20.5439 C   0  0  1  0  0  0  0  0  0  0  0  0
  -29.6030  -16.2632   20.8644 C   0  0  1  0  0  0  0  0  0  0  0  0
  -30.6447  -18.5210   20.1801 C   0  0  1  0  0  0  0  0  0  0  0  0
  -23.1291  -28.9977   28.6466 C   0  0  0  0  0  0  0  0  0  0  0  0
  -27.4341  -31.5606   24.3142 C   0  0  0  0  0  0  0  0  0  0  0  0
  -26.9199  -30.8382   26.6556 C   0  0  0  0  0  0  0  0  0  0  0  0
  -25.5893  -32.6619   25.5943 C   0  0  0  0  0  0  0  0  0  0  0  0
  -21.4064  -27.2442   25.7426 C   0  0  0  0  0  0  0  0  0  0  0  0
  -26.3163  -23.2308   19.5388 C   0  0  0  0  0  0  0  0  0  1  0  0
  -25.2542  -30.2760   24.8279 C   0  0  1  0  0  0  0  0  0  0  0  0
  -22.6867  -28.8145   27.2031 C   0  0  2  0  0  0  0  0  0  0  0  0
  -26.2972  -31.3158   25.3264 C   0  0  0  0  0  0  0  0  0  0  0  0
  -27.1359  -19.7105   20.4719 N   0  0  0  0  0  0  0  0  0  0  0  0
  -25.7867  -11.7503   20.1650 N   0  0  0  0  0  0  0  0  0  0  0  0
  -28.4120  -22.0048   19.5911 N   0  0  0  0  0  0  0  0  0  0  0  0
  -29.1233  -20.8815   19.8211 N   0  0  0  0  0  0  0  0  0  0  0  0
  -26.4889  -12.7066   20.7962 N   0  0  0  0  0  0  0  0  0  0  0  0
  -29.2061  -18.6474   20.4795 N   0  0  3  0  0  0  0  0  0  0  0  0
  -24.8061  -29.7895   22.4433 N   0  0  0  0  0  0  0  0  0  0  0  0
  -29.7401  -13.8806   19.1611 N   0  0  0  0  0  0  0  0  0  0  0  0
  -30.1464  -16.2165   19.4835 N   0  0  0  0  0  0  0  0  0  0  0  0
  -26.2823  -14.5025   22.3268 N   0  0  0  0  0  0  0  0  0  0  0  0
  -22.0608  -12.9347   21.9840 N   0  0  0  0  0  0  0  0  0  0  0  0
  -25.5164  -32.1110   20.1032 N   0  0  0  0  0  0  0  0  0  0  0  0
  -24.1515  -30.0444   25.7546 N   0  0  0  0  0  0  0  0  0  0  0  0
  -21.9220  -27.5392   27.1042 N   0  3  0  0  0  0  0  0  0  0  0  0
  -23.3817  -14.5245   22.9773 O   0  0  0  0  0  0  0  0  0  0  0  0
  -26.5810  -30.0433   20.2195 O   0  0  0  0  0  0  0  0  0  0  0  0
  -23.9916  -31.7313   23.4444 O   0  0  0  0  0  0  0  0  0  0  0  0
  -24.4999  -27.7650   25.9998 O   0  0  0  0  0  0  0  0  0  0  0  0
  -31.0651  -15.0766   17.7068 O   0  0  0  0  0  0  0  0  0  0  0  0
  -20.3817   -8.6579   18.8336 O   0  0  0  0  0  0  0  0  0  0  0  0
  -26.5466  -24.1593   20.5935 O   0  0  0  0  0  0  0  0  0  1  0  0
  -16.8420   -6.7531   22.6080 F   0  0  0  0  0  0  0  0  0  0  0  0
  -20.0609   -5.9414   19.2337 F   0  0  0  0  0  0  0  0  0  0  0  0
  1  2  1  0  0  0  0
  1  5  2  0  0  0  0
  2  6  2  0  0  0  0
  3  8  2  0  0  0  0
  3 16  1  0  0  0  0
  4  9  1  0  0  0  0
  4 16  2  0  0  0  0
  5 18  1  0  0  0  0
  6 20  1  0  0  0  0
  7 10  2  0  0  0  0
  7 19  1  0  0  0  0
  8 22  1  0  0  0  0
  9 22  2  0  0  0  0
 10 23  1  0  0  0  0
 11 12  2  0  0  0  0
 11 24  1  0  0  0  0
 12 25  1  0  0  0  0
 13 21  1  0  0  0  0
 13 23  2  0  0  0  0
 14 25  2  0  0  0  0
 14 26  1  0  0  0  0
 15 28  1  0  0  0  0
 15 63  2  0  0  0  0
 16 27  1  0  0  0  0
 17 27  1  0  0  0  0
 17 29  2  0  0  0  0
 17 31  1  0  0  0  0
 18 20  2  0  0  0  0
 18 36  1  0  0  0  0
 19 21  2  0  0  0  0
 19 37  1  0  0  0  0
 20 49  1  0  0  0  0
 21 38  1  0  0  0  0
 22 82  1  0  0  0  0
 23 83  1  0  0  0  0
 24 26  2  0  0  0  0
 24 82  1  0  0  0  0
 25 84  1  0  0  0  0
 26 85  1  0  0  0  0
 27 64  2  0  0  0  0
 28 59  1  0  0  0  0
 28 65  2  0  0  0  0
 29 67  1  0  0  0  0
 29 72  1  0  0  0  0
 30 63  1  0  0  0  0
 30 66  2  0  0  0  0
 30 68  1  0  0  0  0
 31 73  1  0  0  0  0
 31 77  2  0  0  0  0
 32 50  1  0  0  0  0
 32 74  1  0  0  0  0
 32 78  2  0  0  0  0
 33 60  1  0  0  0  0
 33 69  1  0  0  0  0
 33 79  2  0  0  0  0
 34 61  1  0  0  0  0
 34 75  1  0  0  0  0
 34 80  2  0  0  0  0
 35 70  1  0  0  0  0
 35 71  1  0  0  0  0
 35 81  2  0  0  0  0
 36 39  1  0  0  0  0
 37 50  1  0  0  0  0
 38 69  1  0  0  0  0
 39 41  1  0  0  0  0
 40 42  1  0  0  0  0
 40 45  1  0  0  0  0
 41 49  1  0  0  0  0
 42 51  1  0  0  0  0
 43 44  1  0  0  0  0
 43 52  1  0  0  0  0
 44 53  1  0  0  0  0
 45 70  1  0  0  0  0
 46 51  1  0  0  0  0
 46 70  1  0  0  0  0
 47 52  1  0  0  0  0
 47 68  1  0  0  0  0
 48 53  1  0  0  0  0
 48 71  1  0  0  0  0
 49 74  1  0  0  0  0
 50 69  1  0  0  0  0
 51 67  1  0  0  0  0
 52 71  1  0  0  0  0
 53 68  1  0  0  0  0
 54 61  1  0  0  0  0
 55 62  1  0  0  0  0
 56 62  1  0  0  0  0
 57 62  1  0  0  0  0
 58 76  1  0  0  0  0
 59 83  1  0  0  0  0
 60 62  1  0  0  0  0
 60 75  1  0  0  0  0
 61 76  1  0  0  0  0
 64 67  1  0  0  0  0
 65 66  1  0  0  0  0
M  CHG  1  76   1
M  ISO  4  35 100  59 101  71 100  83 101
M  END
> <Batch ID>
0195

> <Smiles>
CNC(C)C(=O)NC(C(=O)N1Cc2cc([101O:1][101CH2:1]c3cnc(N4CC5CCC4C[100N:0]5[100C:0](=O)N4CCCC(n5nc(-c6ccc(Oc7ccc(F)cc7F)cc6)c(C(N)=O)c5N)C4)nn3)ccc2CC1C(=O)NC1CCCc2ccccc21)C(C)(C)C

> <Shape>
0.258

> <Color>
0.115

> <Negative vol penalty>
0.000

$$$$

  -OEChem-04052323373D

 86 95  0     1  0  0  0  0  0999 V2000
  -29.7713  -24.0289   17.6704 C   0  0  0  0  0  0  0  0  0  0  0  0
  -28.5164  -24.5718   17.9220 C   0  0  0  0  0  0  0  0  0  0  0  0
  -27.5835  -14.8014   19.7771 C   0  0  0  0  0  0  0  0  0  0  0  0
  -25.2053  -15.0736   19.4502 C   0  0  0  0  0  0  0  0  0  0  0  0
  -30.8463  -24.3571   18.4937 C   0  0  0  0  0  0  0  0  0  0  0  0
  -28.3386  -25.4524   18.9896 C   0  0  0  0  0  0  0  0  0  0  0  0
  -23.9526  -27.6484   19.3688 C   0  0  0  0  0  0  0  0  0  0  0  0
  -27.3813  -13.4698   20.1400 C   0  0  0  0  0  0  0  0  0  0  0  0
  -25.0030  -13.7420   19.8130 C   0  0  0  0  0  0  0  0  0  0  0  0
  -22.8011  -26.9690   19.7641 C   0  0  0  0  0  0  0  0  0  0  0  0
  -26.8029  -10.5242   18.5837 C   0  0  0  0  0  0  0  0  0  0  0  0
  -27.6545   -9.5660   18.0339 C   0  0  0  0  0  0  0  0  0  0  0  0
  -19.5539  -20.9711   23.5281 C   0  0  0  0  0  0  0  0  0  0  0  0
  -22.9690  -27.9700   21.9525 C   0  0  0  0  0  0  0  0  0  0  0  0
  -28.3797   -8.9383   20.2514 C   0  0  0  0  0  0  0  0  0  0  0  0
  -18.4676  -20.4819   24.2396 C   0  0  0  0  0  0  0  0  0  0  0  0
  -17.6968  -22.6594   24.6609 C   0  0  0  0  0  0  0  0  0  0  0  0
  -26.4955  -15.6033   19.4323 C   0  0  0  0  0  0  0  0  0  0  0  0
  -26.9389  -17.4817   17.7642 C   0  0  0  0  0  0  0  0  0  0  0  0
  -30.6780  -25.2325   19.5792 C   0  0  0  0  0  0  0  0  0  0  0  0
  -24.6282  -28.4867   20.2673 C   0  0  0  0  0  0  0  0  0  0  0  0
  -29.4165  -25.8148   19.8176 C   0  0  0  0  0  0  0  0  0  0  0  0
  -24.1273  -28.6610   21.5653 C   0  0  0  0  0  0  0  0  0  0  0  0
  -18.7631  -23.2052   23.9604 C   0  0  0  0  0  0  0  0  0  0  0  0
  -19.6991  -22.3481   23.3895 C   0  0  0  0  0  0  0  0  0  0  0  0
  -26.0910  -12.9401   20.1579 C   0  0  0  0  0  0  0  0  0  0  0  0
  -22.3108  -27.1274   21.0570 C   0  0  0  0  0  0  0  0  0  0  0  0
  -26.7398  -10.6895   19.9673 C   0  0  0  0  0  0  0  0  0  0  0  0
  -28.4429   -8.7730   18.8677 C   0  0  0  0  0  0  0  0  0  0  0  0
  -27.5282   -9.8965   20.8011 C   0  0  0  0  0  0  0  0  0  0  0  0
  -26.7038  -16.9790   19.0579 C   0  0  0  0  0  0  0  0  0  0  0  0
  -27.0690  -18.8375   17.9411 C   0  0  0  0  0  0  0  0  0  0  0  0
  -27.0315  -16.7854   16.5143 C   0  0  0  0  0  0  0  0  0  0  0  0
  -27.5343  -28.5172   21.5546 C   0  0  0  0  0  0  0  0  0  0  0  0
  -26.5546  -31.3734   22.7399 C   0  0  0  0  0  0  0  0  0  0  0  0
  -23.9612  -33.3987   23.6449 C   0  0  0  0  0  0  0  0  0  0  0  0
  -25.0513  -22.6271   22.1041 C   0  0  0  0  0  0  0  0  0  0  0  0
  -31.8774  -25.5597   20.4334 C   0  0  0  0  0  0  0  0  0  0  0  0
  -25.8538  -29.2334   19.8171 C   0  0  0  0  0  0  0  0  0  0  0  0
  -24.8041  -29.5652   22.5617 C   0  0  0  0  0  0  0  0  0  0  0  0
  -31.4991  -26.1429   21.7910 C   0  0  0  0  0  0  0  0  0  0  0  0
  -28.4380  -22.0758   21.1884 C   0  0  0  0  0  0  0  0  0  0  0  0
  -30.4958  -27.2721   21.6103 C   0  0  0  0  0  0  0  0  0  0  0  0
  -28.4001  -20.7550   20.4175 C   0  0  0  0  0  0  0  0  0  0  0  0
  -27.4516  -22.0770   22.3542 C   0  0  0  0  0  0  0  0  0  0  0  0
  -26.0257  -20.4176   21.2232 C   0  0  0  0  0  0  0  0  0  0  0  0
  -22.0631  -23.1893   23.2036 C   0  0  0  0  0  0  0  0  0  0  0  0
  -21.2794  -22.3733   21.4318 C   0  0  0  0  0  0  0  0  0  0  0  0
  -29.1926  -26.7509   20.9914 C   0  0  1  0  0  0  0  0  0  0  0  0
  -26.7516  -29.6609   20.9741 C   0  0  1  0  0  0  0  0  0  0  0  0
  -26.9623  -20.3880   20.0031 C   0  0  2  0  0  0  0  0  0  0  0  0
  -22.6024  -23.0744   21.7708 C   0  0  0  0  0  0  0  0  0  0  0  0
  -23.4745  -35.6607   24.6162 C   0  0  0  0  0  0  0  0  0  0  0  0
  -18.3448  -27.0211   20.9300 C   0  0  0  0  0  0  0  0  0  0  0  0
  -27.3296  -30.3490   25.5076 C   0  0  0  0  0  0  0  0  0  0  0  0
  -25.9742  -32.2065   26.4981 C   0  0  0  0  0  0  0  0  0  0  0  0
  -27.9482  -32.7316   25.0662 C   0  0  0  0  0  0  0  0  0  0  0  0
  -22.4903  -34.2507   21.2222 C   0  0  0  0  0  0  0  0  0  0  0  0
  -18.8790  -24.6961   23.8397 C   0  0  0  0  0  0  0  0  0  0  0  0
  -20.3730  -27.0922   22.4353 C   0  0  0  0  0  0  0  0  0  1  0  0
  -25.8459  -31.8238   23.9944 C   0  0  1  0  0  0  0  0  0  0  0  0
  -23.6678  -34.8565   23.3401 C   0  0  2  0  0  0  0  0  0  0  0  0
  -18.9208  -26.6526   22.2876 C   0  0  2  0  0  0  0  0  0  0  0  0
  -26.7626  -31.7591   25.2486 C   0  0  0  0  0  0  0  0  0  0  0  0
  -26.6851  -17.9374   19.9880 N   0  0  0  0  0  0  0  0  0  0  0  0
  -26.9103  -19.0560   19.2779 N   0  0  0  0  0  0  0  0  0  0  0  0
  -17.5811  -21.3296   24.7790 N   0  3  0  0  0  0  0  0  0  0  0  0
  -20.8002  -22.8577   22.6677 N   0  0  0  0  0  0  0  0  0  0  0  0
  -26.0028  -30.2687   22.0759 N   0  0  0  0  0  0  0  0  0  0  0  0
  -26.1068  -21.7267   21.8901 N   0  0  0  0  0  0  0  0  0  0  0  0
  -27.3025  -19.8523   17.0819 N   0  0  0  0  0  0  0  0  0  0  0  0
  -26.8732  -15.3928   16.5120 N   0  0  0  0  0  0  0  0  0  0  0  0
  -28.3521  -27.8755   20.6441 N   0  0  0  0  0  0  0  0  0  0  0  0
  -25.3165  -33.1530   23.7092 N   0  0  0  0  0  0  0  0  0  0  0  0
  -23.8062  -22.2299   21.6280 N   0  0  0  0  0  0  0  0  0  0  0  0
  -22.4305  -34.9750   22.5179 N   0  3  0  0  0  0  0  0  0  0  0  0
  -18.8582  -25.1693   22.4323 N   0  3  0  0  0  0  0  0  0  0  0  0
  -27.2645  -17.3785   15.4339 O   0  0  0  0  0  0  0  0  0  0  0  0
  -27.4069  -28.2385   22.7411 O   0  0  0  0  0  0  0  0  0  0  0  0
  -27.5567  -31.9837   22.3591 O   0  0  0  0  0  0  0  0  0  0  0  0
  -23.0766  -32.5622   23.8132 O   0  0  0  0  0  0  0  0  0  0  0  0
  -25.2020  -23.7145   22.6718 O   0  0  0  0  0  0  0  0  0  0  0  0
  -25.8933  -11.6408   20.5117 O   0  0  0  0  0  0  0  0  0  0  0  0
  -21.1875  -26.4649   21.4456 O   0  0  0  0  0  0  0  0  0  1  0  0
  -29.2594   -7.8518   18.3397 F   0  0  0  0  0  0  0  0  0  0  0  0
  -27.4710  -10.0499   22.1312 F   0  0  0  0  0  0  0  0  0  0  0  0
  1  2  1  0  0  0  0
  1  5  2  0  0  0  0
  2  6  2  0  0  0  0
  3  8  2  0  0  0  0
  3 18  1  0  0  0  0
  4  9  1  0  0  0  0
  4 18  2  0  0  0  0
  5 20  1  0  0  0  0
  6 22  1  0  0  0  0
  7 10  2  0  0  0  0
  7 21  1  0  0  0  0
  8 26  1  0  0  0  0
  9 26  2  0  0  0  0
 10 27  1  0  0  0  0
 11 12  2  0  0  0  0
 11 28  1  0  0  0  0
 12 29  1  0  0  0  0
 13 16  2  0  0  0  0
 13 25  1  0  0  0  0
 14 23  1  0  0  0  0
 14 27  2  0  0  0  0
 15 29  2  0  0  0  0
 15 30  1  0  0  0  0
 16 67  1  0  0  0  0
 17 24  1  0  0  0  0
 17 67  2  0  0  0  0
 18 31  1  0  0  0  0
 19 31  1  0  0  0  0
 19 32  2  0  0  0  0
 19 33  1  0  0  0  0
 20 22  2  0  0  0  0
 20 38  1  0  0  0  0
 21 23  2  0  0  0  0
 21 39  1  0  0  0  0
 22 49  1  0  0  0  0
 23 40  1  0  0  0  0
 24 25  2  0  0  0  0
 24 59  1  0  0  0  0
 25 68  1  0  0  0  0
 26 83  1  0  0  0  0
 27 84  1  0  0  0  0
 28 30  2  0  0  0  0
 28 83  1  0  0  0  0
 29 85  1  0  0  0  0
 30 86  1  0  0  0  0
 31 65  2  0  0  0  0
 32 66  1  0  0  0  0
 32 71  1  0  0  0  0
 33 72  1  0  0  0  0
 33 78  2  0  0  0  0
 34 50  1  0  0  0  0
 34 73  1  0  0  0  0
 34 79  2  0  0  0  0
 35 61  1  0  0  0  0
 35 69  1  0  0  0  0
 35 80  2  0  0  0  0
 36 62  1  0  0  0  0
 36 74  1  0  0  0  0
 36 81  2  0  0  0  0
 37 70  1  0  0  0  0
 37 75  1  0  0  0  0
 37 82  2  0  0  0  0
 38 41  1  0  0  0  0
 39 50  1  0  0  0  0
 40 69  1  0  0  0  0
 41 43  1  0  0  0  0
 42 44  1  0  0  0  0
 42 45  1  0  0  0  0
 43 49  1  0  0  0  0
 44 51  1  0  0  0  0
 45 70  1  0  0  0  0
 46 51  1  0  0  0  0
 46 70  1  0  0  0  0
 47 52  1  0  0  0  0
 47 68  1  0  0  0  0
 48 52  1  0  0  0  0
 48 68  1  0  0  0  0
 49 73  1  0  0  0  0
 50 69  1  0  0  0  0
 51 66  1  0  0  0  0
 52 75  1  0  0  0  0
 53 62  1  0  0  0  0
 54 63  1  0  0  0  0
 55 64  1  0  0  0  0
 56 64  1  0  0  0  0
 57 64  1  0  0  0  0
 58 76  1  0  0  0  0
 59 77  1  0  0  0  0
 60 63  1  0  0  0  0
 60 84  1  0  0  0  0
 61 64  1  0  0  0  0
 61 74  1  0  0  0  0
 62 76  1  0  0  0  0
 63 77  1  0  0  0  0
 65 66  1  0  0  0  0
M  CHG  3  67   1  76   1  77   1
M  ISO  4  37 100  60 101  75 100  84 101
M  END
> <Batch ID>
0195

> <Smiles>
CNC(C)C(=O)NC(C(=O)N1Cc2cc([101O:1][101CH2:1]C(C)NCc3cnccc3N3CC([100NH:0][100C:0](=O)N4CCCC(n5nc(-c6ccc(Oc7ccc(F)cc7F)cc6)c(C(N)=O)c5N)C4)C3)ccc2CC1C(=O)NC1CCCc2ccccc21)C(C)(C)C

> <Shape>
0.251

> <Color>
0.059

> <Negative vol penalty>
0.000

$$$$

  -OEChem-04052323372D

  0  0  0     0  0  0  0  0  0999 V2000
M  END
$$$$

  -OEChem-04052323373D

 85 94  0     1  0  0  0  0  0999 V2000
  -16.4516  -28.0397   23.4007 C   0  0  0  0  0  0  0  0  0  0  0  0
  -17.5309  -27.1621   23.3835 C   0  0  0  0  0  0  0  0  0  0  0  0
  -22.5351  -10.3556   22.1103 C   0  0  0  0  0  0  0  0  0  0  0  0
  -22.9683   -9.9679   19.7653 C   0  0  0  0  0  0  0  0  0  0  0  0
  -16.5805  -29.3123   22.8459 C   0  0  0  0  0  0  0  0  0  0  0  0
  -18.7395  -27.5562   22.8106 C   0  0  0  0  0  0  0  0  0  0  0  0
  -24.3682  -25.9895   24.6462 C   0  0  0  0  0  0  0  0  0  0  0  0
  -22.1593   -9.0209   22.2616 C   0  0  0  0  0  0  0  0  0  0  0  0
  -22.5925   -8.6331   19.9166 C   0  0  0  0  0  0  0  0  0  0  0  0
  -25.2648  -25.0201   24.1988 C   0  0  0  0  0  0  0  0  0  0  0  0
  -21.4309   -5.6276   23.3435 C   0  0  0  0  0  0  0  0  0  0  0  0
  -21.9246   -4.9363   24.4498 C   0  0  0  0  0  0  0  0  0  0  0  0
  -26.3676  -26.6776   22.8365 C   0  0  0  0  0  0  0  0  0  0  0  0
  -24.1833   -5.3305   23.6881 C   0  0  0  0  0  0  0  0  0  0  0  0
  -22.9395  -10.8291   20.8621 C   0  0  0  0  0  0  0  0  0  0  0  0
  -24.6178  -12.7503   20.8537 C   0  0  0  0  0  0  0  0  0  0  0  0
  -17.7943  -29.7257   22.2745 C   0  0  0  0  0  0  0  0  0  0  0  0
  -24.4579  -27.3100   24.1829 C   0  0  0  0  0  0  0  0  0  0  0  0
  -18.8844  -28.8351   22.2464 C   0  0  0  0  0  0  0  0  0  0  0  0
  -25.4724  -27.6624   23.2815 C   0  0  0  0  0  0  0  0  0  0  0  0
  -22.1881   -8.1596   21.1648 C   0  0  0  0  0  0  0  0  0  0  0  0
  -26.2629  -25.3635   23.2916 C   0  0  0  0  0  0  0  0  0  0  0  0
  -22.3134   -6.1703   22.4094 C   0  0  0  0  0  0  0  0  0  0  0  0
  -23.3008   -4.7877   24.6221 C   0  0  0  0  0  0  0  0  0  0  0  0
  -23.6896   -6.0218   22.5818 C   0  0  0  0  0  0  0  0  0  0  0  0
  -23.3272  -12.2079   20.7051 C   0  0  0  0  0  0  0  0  0  0  0  0
  -24.4579  -14.0910   20.6016 C   0  0  0  0  0  0  0  0  0  0  0  0
  -25.8509  -12.1003   21.1894 C   0  0  0  0  0  0  0  0  0  0  0  0
  -22.5446  -29.2462   22.5415 C   0  0  0  0  0  0  0  0  0  0  0  0
  -24.8497  -31.4349   23.1882 C   0  0  0  0  0  0  0  0  0  0  0  0
  -28.1121  -32.0620   23.9694 C   0  0  0  0  0  0  0  0  0  0  0  0
  -21.7153  -18.7556   21.4727 C   0  0  0  0  0  0  0  0  0  0  0  0
  -17.8713  -31.0940   21.6449 C   0  0  0  0  0  0  0  0  0  0  0  0
  -23.4996  -28.3498   24.6957 C   0  0  0  0  0  0  0  0  0  0  0  0
  -25.6241  -29.0706   22.7692 C   0  0  0  0  0  0  0  0  0  0  0  0
  -19.3000  -31.5687   21.3923 C   0  0  0  0  0  0  0  0  0  0  0  0
  -20.5672  -16.6580   18.6939 C   0  0  0  0  0  0  0  0  0  0  0  0
  -20.1231  -30.4616   20.7412 C   0  0  0  0  0  0  0  0  0  0  0  0
  -21.2494  -15.3348   19.0249 C   0  0  0  0  0  0  0  0  0  0  0  0
  -23.7991  -22.4258   18.5169 C   0  0  0  0  0  0  0  0  0  0  0  0
  -19.6398  -20.9982   22.8665 C   0  0  0  0  0  0  0  0  0  0  0  0
  -20.1568  -17.4304   19.9482 C   0  0  0  0  0  0  0  0  0  0  0  0
  -22.3366  -22.3568   18.9584 C   0  0  0  0  0  0  0  0  0  0  0  0
  -19.3634  -19.7798   21.9802 C   0  0  0  0  0  0  0  0  0  0  0  0
  -21.9549  -16.3091   21.2377 C   0  0  0  0  0  0  0  0  0  0  0  0
  -23.6237  -22.2433   20.9063 C   0  0  0  0  0  0  0  0  0  0  0  0
  -20.2193  -29.2349   21.6562 C   0  0  1  0  0  0  0  0  0  0  0  0
  -23.3648  -29.5497   23.7633 C   0  0  1  0  0  0  0  0  0  0  0  0
  -22.4282  -15.5624   19.9827 C   0  0  1  0  0  0  0  0  0  0  0  0
  -24.5871  -22.0271   19.7564 C   0  0  2  0  0  0  0  0  0  0  0  0
  -21.0289  -21.1016   22.2184 C   0  0  2  0  0  0  0  0  0  0  0  0
  -29.7072  -33.9516   24.3969 C   0  0  0  0  0  0  0  0  0  0  0  0
  -24.9731  -32.0051   20.1933 C   0  0  0  0  0  0  0  0  0  0  0  0
  -27.1679  -33.1486   20.5721 C   0  0  0  0  0  0  0  0  0  0  0  0
  -25.0994  -34.0355   21.6479 C   0  0  0  0  0  0  0  0  0  0  0  0
  -28.6570  -31.1320   26.7257 C   0  0  0  0  0  0  0  0  0  0  0  0
  -21.2057  -22.1041   21.0951 C   0  0  0  0  0  0  0  0  0  0  0  0
  -26.8270  -22.2822   20.8321 C   0  0  0  0  0  0  0  0  0  0  0  0
  -27.6681  -24.5868   21.5372 C   0  0  0  0  0  0  0  0  0  1  0  0
  -26.1178  -31.8858   22.5045 C   0  0  1  0  0  0  0  0  0  0  0  0
  -28.7418  -32.9565   25.0220 C   0  0  2  0  0  0  0  0  0  0  0  0
  -28.0281  -23.2215   20.9431 C   0  0  1  0  0  0  0  0  0  0  0  0
  -25.8358  -32.7417   21.2374 C   0  0  0  0  0  0  0  0  0  0  0  0
  -22.4147  -13.1289   20.3838 N   0  0  0  0  0  0  0  0  0  0  0  0
  -23.1329  -14.2635   20.3284 N   0  0  0  0  0  0  0  0  0  0  0  0
  -24.6590  -30.0500   23.2953 N   0  0  0  0  0  0  0  0  0  0  0  0
  -21.2670  -17.5606   20.8995 N   0  0  0  0  0  0  0  0  0  0  0  0
  -20.7921  -19.7513   21.7026 N   0  0  0  0  0  0  0  0  0  0  0  0
  -22.3774  -21.7677   20.3009 N   0  0  1  0  0  0  0  0  0  0  0  0
  -25.3229  -15.1273   20.5893 N   0  0  0  0  0  0  0  0  0  0  0  0
  -25.8370  -10.7173   21.4162 N   0  0  0  0  0  0  0  0  0  0  0  0
  -29.0295  -22.5790   21.8025 N   0  0  0  0  0  0  0  0  0  0  0  0
  -21.1896  -29.4620   22.7057 N   0  0  0  0  0  0  0  0  0  0  0  0
  -26.9099  -32.5680   23.5221 N   0  0  0  0  0  0  0  0  0  0  0  0
  -25.7997  -22.8511   19.9112 N   0  3  0  0  0  0  0  0  0  0  0  0
  -29.4900  -32.1376   26.0173 N   0  3  0  0  0  0  0  0  0  0  0  0
  -26.9300  -12.7300   21.3014 O   0  0  0  0  0  0  0  0  0  0  0  0
  -23.1001  -28.8472   21.5247 O   0  0  0  0  0  0  0  0  0  0  0  0
  -24.0609  -32.2803   23.6181 O   0  0  0  0  0  0  0  0  0  0  0  0
  -28.6361  -31.0207   23.5801 O   0  0  0  0  0  0  0  0  0  0  0  0
  -22.8980  -18.9206   21.7993 O   0  0  0  0  0  0  0  0  0  0  0  0
  -21.8217   -6.8571   21.3121 O   0  0  0  0  0  0  0  0  0  0  0  0
  -27.1445  -24.4132   22.8500 O   0  0  0  0  0  0  0  0  0  1  0  0
  -23.7748   -4.1252   25.6854 F   0  0  0  0  0  0  0  0  0  0  0  0
  -24.5423   -6.5419   21.6884 F   0  0  0  0  0  0  0  0  0  0  0  0
  1  2  1  0  0  0  0
  1  5  2  0  0  0  0
  2  6  2  0  0  0  0
  3  8  2  0  0  0  0
  3 15  1  0  0  0  0
  4  9  1  0  0  0  0
  4 15  2  0  0  0  0
  5 17  1  0  0  0  0
  6 19  1  0  0  0  0
  7 10  2  0  0  0  0
  7 18  1  0  0  0  0
  8 21  1  0  0  0  0
  9 21  2  0  0  0  0
 10 22  1  0  0  0  0
 11 12  2  0  0  0  0
 11 23  1  0  0  0  0
 12 24  1  0  0  0  0
 13 20  1  0  0  0  0
 13 22  2  0  0  0  0
 14 24  2  0  0  0  0
 14 25  1  0  0  0  0
 15 26  1  0  0  0  0
 16 26  1  0  0  0  0
 16 27  2  0  0  0  0
 16 28  1  0  0  0  0
 17 19  2  0  0  0  0
 17 33  1  0  0  0  0
 18 20  2  0  0  0  0
 18 34  1  0  0  0  0
 19 47  1  0  0  0  0
 20 35  1  0  0  0  0
 21 82  1  0  0  0  0
 22 83  1  0  0  0  0
 23 25  2  0  0  0  0
 23 82  1  0  0  0  0
 24 84  1  0  0  0  0
 25 85  1  0  0  0  0
 26 64  2  0  0  0  0
 27 65  1  0  0  0  0
 27 70  1  0  0  0  0
 28 71  1  0  0  0  0
 28 77  2  0  0  0  0
 29 48  1  0  0  0  0
 29 73  1  0  0  0  0
 29 78  2  0  0  0  0
 30 60  1  0  0  0  0
 30 66  1  0  0  0  0
 30 79  2  0  0  0  0
 31 61  1  0  0  0  0
 31 74  1  0  0  0  0
 31 80  2  0  0  0  0
 32 67  1  0  0  0  0
 32 68  1  0  0  0  0
 32 81  2  0  0  0  0
 33 36  1  0  0  0  0
 34 48  1  0  0  0  0
 35 66  1  0  0  0  0
 36 38  1  0  0  0  0
 37 39  1  0  0  0  0
 37 42  1  0  0  0  0
 38 47  1  0  0  0  0
 39 49  1  0  0  0  0
 40 43  1  0  0  0  0
 40 50  1  0  0  0  0
 41 44  1  0  0  0  0
 41 51  1  0  0  0  0
 42 67  1  0  0  0  0
 43 69  1  0  0  0  0
 44 68  1  0  0  0  0
 45 49  1  0  0  0  0
 45 67  1  0  0  0  0
 46 50  1  0  0  0  0
 46 69  1  0  0  0  0
 47 73  1  0  0  0  0
 48 66  1  0  0  0  0
 49 65  1  0  0  0  0
 50 75  1  0  0  0  0
 51 57  1  0  0  0  0
 51 68  1  0  0  0  0
 52 61  1  0  0  0  0
 53 63  1  0  0  0  0
 54 63  1  0  0  0  0
 55 63  1  0  0  0  0
 56 76  1  0  0  0  0
 57 69  1  0  0  0  0
 58 62  1  0  0  0  0
 58 75  1  0  0  0  0
 59 62  1  0  0  0  0
 59 83  1  0  0  0  0
 60 63  1  0  0  0  0
 60 74  1  0  0  0  0
 61 76  1  0  0  0  0
 62 72  1  0  0  0  0
 64 65  1  0  0  0  0
M  CHG  2  75   1  76   1
M  ISO  4  32 100  59 101  68 100  83 101
M  END
> <Batch ID>
0195

> <Smiles>
CNC(C)C(=O)NC(C(=O)N1Cc2cc([101O:1][101CH2:1]C(N)CNC3CCN(CC4CC[100N:0]4[100C:0](=O)N4CCCC(n5nc(-c6ccc(Oc7ccc(F)cc7F)cc6)c(C(N)=O)c5N)C4)C3)ccc2CC1C(=O)NC1CCCc2ccccc21)C(C)(C)C

> <Shape>
0.216

> <Color>
0.110

> <Negative vol penalty>
0.000

$$$$

  -OEChem-04052323373D

 92103  0     1  0  0  0  0  0999 V2000
  -31.6144  -30.3896   25.0163 C   0  0  0  0  0  0  0  0  0  0  0  0
  -31.3514  -29.3953   24.0795 C   0  0  0  0  0  0  0  0  0  0  0  0
  -23.1146   -9.8260   20.0030 C   0  0  0  0  0  0  0  0  0  0  0  0
  -23.7445   -9.9778   22.3305 C   0  0  0  0  0  0  0  0  0  0  0  0
  -30.5907  -30.8608   25.8372 C   0  0  0  0  0  0  0  0  0  0  0  0
  -30.0646  -28.8707   23.9638 C   0  0  0  0  0  0  0  0  0  0  0  0
  -28.5769  -28.4186   19.1444 C   0  0  0  0  0  0  0  0  0  0  0  0
  -30.6549  -22.1037   18.2827 C   0  0  0  0  0  0  0  0  0  0  0  0
  -22.3367   -8.7035   20.2867 C   0  0  0  0  0  0  0  0  0  0  0  0
  -22.9665   -8.8554   22.6142 C   0  0  0  0  0  0  0  0  0  0  0  0
  -29.0758  -27.3348   18.4230 C   0  0  0  0  0  0  0  0  0  0  0  0
  -19.2973   -8.0508   21.6169 C   0  0  0  0  0  0  0  0  0  0  0  0
  -18.0191   -7.9908   21.0617 C   0  0  0  0  0  0  0  0  0  0  0  0
  -29.9701  -23.0671   17.5502 C   0  0  0  0  0  0  0  0  0  0  0  0
  -27.0067  -26.1487   18.7858 C   0  0  0  0  0  0  0  0  0  0  0  0
  -18.6162   -5.9543   19.9071 C   0  0  0  0  0  0  0  0  0  0  0  0
  -23.8186  -10.4631   21.0249 C   0  0  0  0  0  0  0  0  0  0  0  0
  -24.2132  -12.9690   20.7555 C   0  0  0  0  0  0  0  0  0  0  0  0
  -29.2885  -30.3485   25.7249 C   0  0  0  0  0  0  0  0  0  0  0  0
  -27.2912  -28.3712   19.7021 C   0  0  0  0  0  0  0  0  0  0  0  0
  -29.0228  -29.3345   24.7849 C   0  0  0  0  0  0  0  0  0  0  0  0
  -26.4929  -27.2342   19.5116 C   0  0  0  0  0  0  0  0  0  0  0  0
  -30.8081  -22.2610   19.6557 C   0  0  0  0  0  0  0  0  0  0  0  0
  -22.2626   -8.2182   21.5923 C   0  0  0  0  0  0  0  0  0  0  0  0
  -28.2918  -26.1985   18.2461 C   0  0  0  0  0  0  0  0  0  0  0  0
  -20.2350   -7.0626   21.3170 C   0  0  0  0  0  0  0  0  0  0  0  0
  -17.6785   -6.9426   20.2069 C   0  0  0  0  0  0  0  0  0  0  0  0
  -19.8945   -6.0143   20.4622 C   0  0  0  0  0  0  0  0  0  0  0  0
  -24.6228  -11.6223   20.7323 C   0  0  0  0  0  0  0  0  0  0  0  0
  -30.2621  -23.3905   20.2440 C   0  0  0  0  0  0  0  0  0  0  0  0
  -29.4617  -24.1605   18.2327 C   0  0  0  0  0  0  0  0  0  1  0  0
  -25.3377  -13.6759   20.4059 C   0  0  0  0  0  0  0  0  0  0  0  0
  -22.9310  -13.5306   21.0654 C   0  0  0  0  0  0  0  0  0  0  0  0
  -26.1203  -28.5045   22.6542 C   0  0  0  0  0  0  0  0  0  0  0  0
  -23.2710  -28.5420   21.1044 C   0  0  0  0  0  0  0  0  0  0  0  0
  -21.4905  -27.7764   18.2954 C   0  0  0  0  0  0  0  0  0  0  0  0
  -30.8037  -14.6050   20.8269 C   0  0  0  0  0  0  0  0  0  0  0  0
  -28.2252  -30.8558   26.6665 C   0  0  0  0  0  0  0  0  0  0  0  0
  -26.7576  -29.5591   20.4548 C   0  0  0  0  0  0  0  0  0  0  0  0
  -25.0983  -27.1413   20.0728 C   0  0  0  0  0  0  0  0  0  0  0  0
  -26.8053  -30.5123   26.2237 C   0  0  0  0  0  0  0  0  0  0  0  0
  -29.7633  -12.1382   18.5405 C   0  0  0  0  0  0  0  0  0  0  0  0
  -26.7159  -29.0480   25.8057 C   0  0  0  0  0  0  0  0  0  0  0  0
  -29.4008  -22.9637   22.6419 C   0  0  0  0  0  0  0  0  0  0  0  0
  -29.3847  -24.4459   22.4337 C   0  0  0  0  0  0  0  0  0  0  0  0
  -28.3084  -11.8685   18.9166 C   0  0  0  0  0  0  0  0  0  0  0  0
  -29.6868  -13.6978   27.4852 C   0  0  0  0  0  0  0  0  0  0  0  0
  -29.3484  -13.0920   26.1525 C   0  0  0  0  0  0  0  0  0  0  0  0
  -31.1498  -16.7936   23.8061 C   0  0  0  0  0  0  0  0  0  0  0  0
  -30.6103  -12.3709   19.7847 C   0  0  0  0  0  0  0  0  0  0  0  0
  -28.6551  -13.2601   21.0218 C   0  0  0  0  0  0  0  0  0  0  0  0
  -30.2864  -14.6298   23.3234 C   0  0  0  0  0  0  0  0  0  0  0  0
  -27.6343  -28.7579   24.6124 C   0  0  1  0  0  0  0  0  0  0  0  0
  -30.4024  -23.6004   21.7170 C   0  0  0  0  0  0  0  0  0  0  0  0
  -25.6289  -29.1996   21.4161 C   0  0  1  0  0  0  0  0  0  0  0  0
  -27.7547  -13.0006   19.7965 C   0  0  2  0  0  0  0  0  0  0  0  0
  -30.5811  -13.9370   26.3024 C   0  0  0  0  0  0  0  0  0  0  0  0
  -31.1467  -15.3675   24.3345 C   0  0  2  0  0  0  0  0  0  0  0  0
  -31.2589  -16.5793   22.2902 C   0  0  2  0  0  0  0  0  0  0  0  0
  -19.1734  -27.8933   17.3389 C   0  0  0  0  0  0  0  0  0  0  0  0
  -22.4377  -26.1749   22.8400 C   0  0  0  0  0  0  0  0  0  0  0  0
  -20.5658  -25.7456   21.2338 C   0  0  0  0  0  0  0  0  0  0  0  0
  -20.6552  -27.8951   22.4965 C   0  0  0  0  0  0  0  0  0  0  0  0
  -22.3715  -29.5179   16.0705 C   0  0  0  0  0  0  0  0  0  0  0  0
  -31.5465  -21.2230   20.4484 C   0  0  0  0  0  0  0  0  0  0  0  0
  -30.5768  -17.6942   21.5082 C   0  0  0  0  0  0  0  0  0  0  0  0
  -31.4801  -18.9098   21.3881 C   0  0  0  0  0  0  0  0  0  0  0  0
  -22.3025  -27.4893   20.6219 C   0  0  1  0  0  0  0  0  0  0  0  0
  -20.5171  -28.5941   17.4657 C   0  0  2  0  0  0  0  0  0  0  0  0
  -21.5173  -26.8269   21.7890 C   0  0  0  0  0  0  0  0  0  0  0  0
  -25.9072  -11.4797   20.3945 N   0  0  0  0  0  0  0  0  0  0  0  0
  -29.5905  -24.3476   19.5654 N   0  0  0  0  0  0  0  0  0  0  0  0
  -26.3143  -12.7459   20.2022 N   0  0  0  0  0  0  0  0  0  0  0  0
  -24.6239  -28.3263   20.8065 N   0  0  0  0  0  0  0  0  0  0  0  0
  -30.0577  -13.4373   20.6215 N   0  0  0  0  0  0  0  0  0  0  0  0
  -30.6483  -15.2624   22.0500 N   0  0  0  0  0  0  0  0  0  0  0  0
  -25.5765  -14.9961   20.2559 N   0  0  0  0  0  0  0  0  0  0  0  0
  -21.8851  -12.6614   21.4044 N   0  0  0  0  0  0  0  0  0  0  0  0
  -27.0354  -29.2377   23.3854 N   0  0  0  0  0  0  0  0  0  0  0  0
  -21.4572  -28.1382   19.6255 N   0  0  0  0  0  0  0  0  0  0  0  0
  -30.5692  -15.2973   25.6869 N   0  3  0  0  0  0  0  0  0  0  0  0
  -21.0625  -28.8159   16.0967 N   0  3  0  0  0  0  0  0  0  0  0  0
  -30.7556  -19.9799   20.6614 N   0  3  0  0  0  0  0  0  0  0  0  0
  -22.7147  -14.7656   21.0264 O   0  0  0  0  0  0  0  0  0  0  0  0
  -25.6994  -27.3864   22.9268 O   0  0  0  0  0  0  0  0  0  0  0  0
  -22.8420  -29.5232   21.7167 O   0  0  0  0  0  0  0  0  0  0  0  0
  -22.2059  -26.9015   17.8125 O   0  0  0  0  0  0  0  0  0  0  0  0
  -31.5933  -15.0245   19.9709 O   0  0  0  0  0  0  0  0  0  0  0  0
  -21.5034   -7.1231   21.8696 O   0  0  0  0  0  0  0  0  0  0  0  0
  -28.7835  -25.1237   17.5328 O   0  0  0  0  0  0  0  0  0  1  0  0
  -16.4506   -6.8843   19.6751 F   0  0  0  0  0  0  0  0  0  0  0  0
  -20.7906   -5.0614   20.1714 F   0  0  0  0  0  0  0  0  0  0  0  0
  1  2  1  0  0  0  0
  1  5  2  0  0  0  0
  2  6  2  0  0  0  0
  3  9  2  0  0  0  0
  3 17  1  0  0  0  0
  4 10  1  0  0  0  0
  4 17  2  0  0  0  0
  5 19  1  0  0  0  0
  6 21  1  0  0  0  0
  7 11  2  0  0  0  0
  7 20  1  0  0  0  0
  8 14  2  0  0  0  0
  8 23  1  0  0  0  0
  9 24  1  0  0  0  0
 10 24  2  0  0  0  0
 11 25  1  0  0  0  0
 12 13  2  0  0  0  0
 12 26  1  0  0  0  0
 13 27  1  0  0  0  0
 14 31  1  0  0  0  0
 15 22  1  0  0  0  0
 15 25  2  0  0  0  0
 16 27  2  0  0  0  0
 16 28  1  0  0  0  0
 17 29  1  0  0  0  0
 18 29  1  0  0  0  0
 18 32  2  0  0  0  0
 18 33  1  0  0  0  0
 19 21  2  0  0  0  0
 19 38  1  0  0  0  0
 20 22  2  0  0  0  0
 20 39  1  0  0  0  0
 21 53  1  0  0  0  0
 22 40  1  0  0  0  0
 23 30  2  0  0  0  0
 23 65  1  0  0  0  0
 24 89  1  0  0  0  0
 25 90  1  0  0  0  0
 26 28  2  0  0  0  0
 26 89  1  0  0  0  0
 27 91  1  0  0  0  0
 28 92  1  0  0  0  0
 29 71  2  0  0  0  0
 30 54  1  0  0  0  0
 30 72  1  0  0  0  0
 31 72  2  0  0  0  0
 31 90  1  0  0  0  0
 32 73  1  0  0  0  0
 32 77  1  0  0  0  0
 33 78  1  0  0  0  0
 33 84  2  0  0  0  0
 34 55  1  0  0  0  0
 34 79  1  0  0  0  0
 34 85  2  0  0  0  0
 35 68  1  0  0  0  0
 35 74  1  0  0  0  0
 35 86  2  0  0  0  0
 36 69  1  0  0  0  0
 36 80  1  0  0  0  0
 36 87  2  0  0  0  0
 37 75  1  0  0  0  0
 37 76  1  0  0  0  0
 37 88  2  0  0  0  0
 38 41  1  0  0  0  0
 39 55  1  0  0  0  0
 40 74  1  0  0  0  0
 41 43  1  0  0  0  0
 42 46  1  0  0  0  0
 42 50  1  0  0  0  0
 43 53  1  0  0  0  0
 44 45  1  0  0  0  0
 44 54  1  0  0  0  0
 45 54  1  0  0  0  0
 46 56  1  0  0  0  0
 47 48  1  0  0  0  0
 47 57  1  0  0  0  0
 48 57  1  0  0  0  0
 49 58  1  0  0  0  0
 49 59  1  0  0  0  0
 50 75  1  0  0  0  0
 51 56  1  0  0  0  0
 51 75  1  0  0  0  0
 52 58  1  0  0  0  0
 52 76  1  0  0  0  0
 53 79  1  0  0  0  0
 55 74  1  0  0  0  0
 56 73  1  0  0  0  0
 57 81  1  0  0  0  0
 58 81  1  0  0  0  0
 59 66  1  0  0  0  0
 59 76  1  0  0  0  0
 60 69  1  0  0  0  0
 61 70  1  0  0  0  0
 62 70  1  0  0  0  0
 63 70  1  0  0  0  0
 64 82  1  0  0  0  0
 65 83  1  0  0  0  0
 66 67  1  0  0  0  0
 67 83  1  0  0  0  0
 68 70  1  0  0  0  0
 68 80  1  0  0  0  0
 69 82  1  0  0  0  0
 71 73  1  0  0  0  0
M  CHG  3  81   1  82   1  83   1
M  ISO  4  31 101  37 100  76 100  90 101
M  END
> <Batch ID>
0195

> <Smiles>
CNC(C)C(=O)NC(C(=O)N1Cc2cc([101O:1][101c:1]3ccc(CNCCC4CC(NC5CC5)C[100N:0]4[100C:0](=O)N4CCCC(n5nc(-c6ccc(Oc7ccc(F)cc7F)cc6)c(C(N)=O)c5N)C4)c(C4CC4)n3)ccc2CC1C(=O)NC1CCCc2ccccc21)C(C)(C)C

> <Shape>
0.302

> <Color>
0.199

> <Negative vol penalty>
0.000

$$$$

  -OEChem-04052323373D

 86 95  0     1  0  0  0  0  0999 V2000
  -18.7728  -24.7106   23.6573 C   0  0  0  0  0  0  0  0  0  0  0  0
  -20.1361  -24.5393   23.4396 C   0  0  0  0  0  0  0  0  0  0  0  0
  -24.6084   -8.6676   21.8862 C   0  0  0  0  0  0  0  0  0  0  0  0
  -23.3118   -9.1646   19.9091 C   0  0  0  0  0  0  0  0  0  0  0  0
  -18.1637  -25.9230   23.3366 C   0  0  0  0  0  0  0  0  0  0  0  0
  -20.8910  -25.5801   22.9000 C   0  0  0  0  0  0  0  0  0  0  0  0
  -26.7138  -26.9629   24.1998 C   0  0  0  0  0  0  0  0  0  0  0  0
  -23.4751   -8.1271   22.4936 C   0  0  0  0  0  0  0  0  0  0  0  0
  -22.1785   -8.6240   20.5165 C   0  0  0  0  0  0  0  0  0  0  0  0
  -27.9135  -26.6762   23.5499 C   0  0  0  0  0  0  0  0  0  0  0  0
  -21.0064   -6.2890   24.4280 C   0  0  0  0  0  0  0  0  0  0  0  0
  -21.1471   -5.0742   25.0988 C   0  0  0  0  0  0  0  0  0  0  0  0
  -27.8343  -28.8301   22.4666 C   0  0  0  0  0  0  0  0  0  0  0  0
  -21.8622   -4.0227   23.0445 C   0  0  0  0  0  0  0  0  0  0  0  0
  -30.3958  -22.5357   19.8523 C   0  0  0  0  0  0  0  0  0  0  0  0
  -29.2214  -21.8740   17.5479 C   0  0  0  0  0  0  0  0  0  0  0  0
  -24.5268   -9.1864   20.5939 C   0  0  0  0  0  0  0  0  0  0  0  0
  -26.6433   -9.0669   19.1749 C   0  0  0  0  0  0  0  0  0  0  0  0
  -18.9134  -26.9826   22.8018 C   0  0  0  0  0  0  0  0  0  0  0  0
  -26.0586  -28.1829   23.9792 C   0  0  0  0  0  0  0  0  0  0  0  0
  -20.2912  -26.8075   22.5706 C   0  0  0  0  0  0  0  0  0  0  0  0
  -26.6277  -29.1309   23.1168 C   0  0  0  0  0  0  0  0  0  0  0  0
  -22.2601   -8.1053   21.8088 C   0  0  0  0  0  0  0  0  0  0  0  0
  -28.4724  -27.6087   22.6809 C   0  0  0  0  0  0  0  0  0  0  0  0
  -21.2935   -6.3707   23.0654 C   0  0  0  0  0  0  0  0  0  0  0  0
  -21.5750   -3.9411   24.4071 C   0  0  0  0  0  0  0  0  0  0  0  0
  -21.7214   -5.2376   22.3737 C   0  0  0  0  0  0  0  0  0  0  0  0
  -25.6971   -9.7454   19.9661 C   0  0  0  0  0  0  0  0  0  0  0  0
  -30.3486  -23.4216   18.7985 C   0  0  0  0  0  0  0  0  0  0  0  0
  -29.2692  -20.9878   18.6014 C   0  0  0  0  0  0  0  0  0  0  0  0
  -27.5519  -10.0343   18.8211 C   0  0  0  0  0  0  0  0  0  0  0  0
  -26.6962   -7.6858   18.7936 C   0  0  0  0  0  0  0  0  0  0  0  0
  -23.2349  -29.0299   22.7906 C   0  0  0  0  0  0  0  0  0  0  0  0
  -24.1649  -31.9921   23.7303 C   0  0  0  0  0  0  0  0  0  0  0  0
  -26.7220  -34.1232   24.4827 C   0  0  0  0  0  0  0  0  0  0  0  0
  -27.2406  -15.7643   18.1151 C   0  0  0  0  0  0  0  0  0  0  0  0
  -18.2020  -28.2585   22.4268 C   0  0  0  0  0  0  0  0  0  0  0  0
  -24.7790  -28.4879   24.7084 C   0  0  0  0  0  0  0  0  0  0  0  0
  -25.9745  -30.4637   22.8614 C   0  0  0  0  0  0  0  0  0  0  0  0
  -19.1441  -29.4395   22.2079 C   0  0  0  0  0  0  0  0  0  0  0  0
  -29.4283  -14.1567   20.3442 C   0  0  0  0  0  0  0  0  0  0  0  0
  -20.3253  -29.0256   21.3359 C   0  0  0  0  0  0  0  0  0  0  0  0
  -28.8076  -12.7625   20.4267 C   0  0  0  0  0  0  0  0  0  0  0  0
  -28.3659  -15.2570   20.3279 C   0  0  0  0  0  0  0  0  0  0  0  0
  -29.1788  -18.8383   17.3767 C   0  0  0  0  0  0  0  0  0  0  0  0
  -28.1080  -19.0792   19.6220 C   0  0  0  0  0  0  0  0  0  0  0  0
  -28.1397  -17.7804   17.0149 C   0  0  0  0  0  0  0  0  0  0  0  0
  -27.0814  -18.0275   19.2162 C   0  0  0  0  0  0  0  0  0  0  0  0
  -26.7160  -13.6883   19.3609 C   0  0  0  0  0  0  0  0  0  0  0  0
  -21.1485  -27.9214   22.0101 C   0  0  1  0  0  0  0  0  0  0  0  0
  -23.9343  -29.5516   24.0139 C   0  0  1  0  0  0  0  0  0  0  0  0
  -27.7574  -12.5591   19.3201 C   0  0  2  0  0  0  0  0  0  0  0  0
  -27.1721  -36.4912   25.1809 C   0  0  0  0  0  0  0  0  0  0  0  0
  -23.5975  -32.9363   20.8849 C   0  0  0  0  0  0  0  0  0  0  0  0
  -24.9317  -34.9969   21.3770 C   0  0  0  0  0  0  0  0  0  0  0  0
  -22.8567  -34.5169   22.6758 C   0  0  0  0  0  0  0  0  0  0  0  0
  -28.0110  -33.2578   27.0023 C   0  0  0  0  0  0  0  0  0  0  0  0
  -30.9546  -24.7759   18.9223 C   0  0  0  0  0  0  0  0  0  0  0  0
  -30.7659  -27.0524   19.9326 C   0  0  0  0  0  0  0  0  0  0  0  0
  -29.8430  -27.9225   20.7628 C   0  0  0  0  0  0  0  0  0  1  0  0
  -24.9274  -33.1266   23.0897 C   0  0  1  0  0  0  0  0  0  0  0  0
  -26.9368  -35.0650   25.6537 C   0  0  2  0  0  0  0  0  0  0  0  0
  -24.0899  -33.8684   22.0099 C   0  0  0  0  0  0  0  0  0  0  0  0
  -29.7603  -23.1068   17.6275 N   0  0  0  0  0  0  0  0  0  0  0  0
  -29.8573  -21.3028   19.7725 N   0  0  0  0  0  0  0  0  0  0  0  0
  -25.9786  -11.0434   20.1072 N   0  0  0  0  0  0  0  0  0  0  0  0
  -27.1120  -11.1883   19.3998 N   0  0  0  0  0  0  0  0  0  0  0  0
  -28.6849  -19.7256   18.4353 N   0  0  0  0  0  0  0  0  0  0  0  0
  -24.7214  -30.7125   23.5932 N   0  0  0  0  0  0  0  0  0  0  0  0
  -27.3650  -14.9988   19.2841 N   0  0  0  0  0  0  0  0  0  0  0  0
  -27.6102  -17.1158   18.1996 N   0  0  0  0  0  0  0  0  0  0  0  0
  -28.6763  -10.0018   18.0747 N   0  0  0  0  0  0  0  0  0  0  0  0
  -25.6825   -6.8291   19.2439 N   0  0  0  0  0  0  0  0  0  0  0  0
  -21.9926  -28.4803   23.0443 N   0  0  0  0  0  0  0  0  0  0  0  0
  -25.3841  -33.9794   24.1817 N   0  0  0  0  0  0  0  0  0  0  0  0
  -28.1175  -34.6347   26.4548 N   0  3  0  0  0  0  0  0  0  0  0  0
  -30.1471  -25.7138   19.7519 N   0  3  0  0  0  0  0  0  0  0  0  0
  -27.6240   -7.2217   18.0884 O   0  0  0  0  0  0  0  0  0  0  0  0
  -23.7811  -29.1207   21.6974 O   0  0  0  0  0  0  0  0  0  0  0  0
  -23.1179  -32.2332   24.3363 O   0  0  0  0  0  0  0  0  0  0  0  0
  -27.6486  -33.5732   23.8916 O   0  0  0  0  0  0  0  0  0  0  0  0
  -26.8277  -15.2715   17.0580 O   0  0  0  0  0  0  0  0  0  0  0  0
  -21.1540   -7.5777   22.4011 O   0  0  0  0  0  0  0  0  0  0  0  0
  -29.6514  -27.3291   22.0402 O   0  0  0  0  0  0  0  0  0  1  0  0
  -21.7116   -2.7749   25.0517 F   0  0  0  0  0  0  0  0  0  0  0  0
  -21.9999   -5.3102   21.0649 F   0  0  0  0  0  0  0  0  0  0  0  0
  1  2  1  0  0  0  0
  1  5  2  0  0  0  0
  2  6  2  0  0  0  0
  3  8  2  0  0  0  0
  3 17  1  0  0  0  0
  4  9  1  0  0  0  0
  4 17  2  0  0  0  0
  5 19  1  0  0  0  0
  6 21  1  0  0  0  0
  7 10  2  0  0  0  0
  7 20  1  0  0  0  0
  8 23  1  0  0  0  0
  9 23  2  0  0  0  0
 10 24  1  0  0  0  0
 11 12  2  0  0  0  0
 11 25  1  0  0  0  0
 12 26  1  0  0  0  0
 13 22  1  0  0  0  0
 13 24  2  0  0  0  0
 14 26  2  0  0  0  0
 14 27  1  0  0  0  0
 15 29  1  0  0  0  0
 15 65  2  0  0  0  0
 16 30  2  0  0  0  0
 16 64  1  0  0  0  0
 17 28  1  0  0  0  0
 18 28  1  0  0  0  0
 18 31  2  0  0  0  0
 18 32  1  0  0  0  0
 19 21  2  0  0  0  0
 19 37  1  0  0  0  0
 20 22  2  0  0  0  0
 20 38  1  0  0  0  0
 21 50  1  0  0  0  0
 22 39  1  0  0  0  0
 23 83  1  0  0  0  0
 24 84  1  0  0  0  0
 25 27  2  0  0  0  0
 25 83  1  0  0  0  0
 26 85  1  0  0  0  0
 27 86  1  0  0  0  0
 28 66  2  0  0  0  0
 29 58  1  0  0  0  0
 29 64  2  0  0  0  0
 30 65  1  0  0  0  0
 30 68  1  0  0  0  0
 31 67  1  0  0  0  0
 31 72  1  0  0  0  0
 32 73  1  0  0  0  0
 32 78  2  0  0  0  0
 33 51  1  0  0  0  0
 33 74  1  0  0  0  0
 33 79  2  0  0  0  0
 34 61  1  0  0  0  0
 34 69  1  0  0  0  0
 34 80  2  0  0  0  0
 35 62  1  0  0  0  0
 35 75  1  0  0  0  0
 35 81  2  0  0  0  0
 36 70  1  0  0  0  0
 36 71  1  0  0  0  0
 36 82  2  0  0  0  0
 37 40  1  0  0  0  0
 38 51  1  0  0  0  0
 39 69  1  0  0  0  0
 40 42  1  0  0  0  0
 41 43  1  0  0  0  0
 41 44  1  0  0  0  0
 42 50  1  0  0  0  0
 43 52  1  0  0  0  0
 44 70  1  0  0  0  0
 45 47  1  0  0  0  0
 45 68  1  0  0  0  0
 46 48  1  0  0  0  0
 46 68  1  0  0  0  0
 47 71  1  0  0  0  0
 48 71  1  0  0  0  0
 49 52  1  0  0  0  0
 49 70  1  0  0  0  0
 50 74  1  0  0  0  0
 51 69  1  0  0  0  0
 52 67  1  0  0  0  0
 53 62  1  0  0  0  0
 54 63  1  0  0  0  0
 55 63  1  0  0  0  0
 56 63  1  0  0  0  0
 57 76  1  0  0  0  0
 58 77  1  0  0  0  0
 59 60  1  0  0  0  0
 59 77  1  0  0  0  0
 60 84  1  0  0  0  0
 61 63  1  0  0  0  0
 61 75  1  0  0  0  0
 62 76  1  0  0  0  0
 66 67  1  0  0  0  0
M  CHG  2  76   1  77   1
M  ISO  4  36 100  60 101  71 100  84 101
M  END
> <Batch ID>
0195

> <Smiles>
CNC(C)C(=O)NC(C(=O)N1Cc2cc([101O:1][101CH2:1]CNCc3cnc(N4CC[100N:0]([100C:0](=O)N5CCCC(n6nc(-c7ccc(Oc8ccc(F)cc8F)cc7)c(C(N)=O)c6N)C5)CC4)cn3)ccc2CC1C(=O)NC1CCCc2ccccc21)C(C)(C)C

> <Shape>
0.330

> <Color>
0.104

> <Negative vol penalty>
0.000

$$$$

  -OEChem-04052323373D

 91101  0     1  0  0  0  0  0999 V2000
  -26.6614  -11.9878   16.9272 C   0  0  0  0  0  0  0  0  0  0  0  0
  -26.1132  -13.2608   16.8080 C   0  0  0  0  0  0  0  0  0  0  0  0
  -29.6651  -23.9154   20.0075 C   0  0  0  0  0  0  0  0  0  0  0  0
  -31.3687  -24.8329   18.5609 C   0  0  0  0  0  0  0  0  0  0  0  0
  -26.5620  -11.2974   18.1344 C   0  0  0  0  0  0  0  0  0  0  0  0
  -25.4641  -13.8438   17.8958 C   0  0  0  0  0  0  0  0  0  0  0  0
  -25.3964  -19.7821   19.3918 C   0  0  0  0  0  0  0  0  0  0  0  0
  -29.9317  -22.6391   19.5121 C   0  0  0  0  0  0  0  0  0  0  0  0
  -31.6354  -23.5566   18.0655 C   0  0  0  0  0  0  0  0  0  0  0  0
  -24.4625  -20.7939   19.1730 C   0  0  0  0  0  0  0  0  0  0  0  0
  -32.2548  -20.2250   19.9686 C   0  0  0  0  0  0  0  0  0  0  0  0
  -32.3613  -19.1818   20.8883 C   0  0  0  0  0  0  0  0  0  0  0  0
  -23.5467  -20.4162   21.3725 C   0  0  0  0  0  0  0  0  0  0  0  0
  -30.5213  -18.0449   19.8119 C   0  0  0  0  0  0  0  0  0  0  0  0
  -18.1031  -27.0933   22.3259 C   0  0  0  0  0  0  0  0  0  0  0  0
  -30.3835  -25.0124   19.5319 C   0  0  0  0  0  0  0  0  0  0  0  0
  -30.7116  -26.9569   21.1501 C   0  0  0  0  0  0  0  0  0  0  0  0
  -25.9199  -11.8762   19.2405 C   0  0  0  0  0  0  0  0  0  0  0  0
  -25.4054  -19.0711   20.6005 C   0  0  0  0  0  0  0  0  0  0  0  0
  -25.3548  -13.1600   19.1186 C   0  0  0  0  0  0  0  0  0  0  0  0
  -24.4834  -19.3975   21.6052 C   0  0  0  0  0  0  0  0  0  0  0  0
  -30.9169  -22.4596   18.5411 C   0  0  0  0  0  0  0  0  0  0  0  0
  -23.5356  -21.1091   20.1622 C   0  0  0  0  0  0  0  0  0  0  0  0
  -31.2815  -20.1782   18.9705 C   0  0  0  0  0  0  0  0  0  0  0  0
  -31.4946  -18.0917   20.8100 C   0  0  0  0  0  0  0  0  0  0  0  0
  -30.4148  -19.0881   18.8921 C   0  0  0  0  0  0  0  0  0  0  0  0
  -30.1081  -26.3311   20.0429 C   0  0  0  0  0  0  0  0  0  0  0  0
  -18.0752  -28.3337   22.9300 C   0  0  0  0  0  0  0  0  0  0  0  0
  -19.3238  -26.7075   21.8108 C   0  0  0  0  0  0  0  0  0  0  0  0
  -30.1081  -28.1888   21.2193 C   0  0  0  0  0  0  0  0  0  0  0  0
  -20.2819  -28.6541   22.4889 C   0  0  0  0  0  0  0  0  0  0  0  0
  -31.7269  -26.4684   22.0368 C   0  0  0  0  0  0  0  0  0  0  0  0
  -16.8437  -28.8425   23.5082 C   0  0  0  0  0  0  0  0  0  0  0  0
  -24.9784  -16.0289   21.4166 C   0  0  0  0  0  0  0  0  0  0  0  0
  -25.8235  -17.1049   24.3577 C   0  0  0  0  0  0  0  0  0  0  0  0
  -26.0512  -19.7292   26.5275 C   0  0  0  0  0  0  0  0  0  0  0  0
  -24.7035  -29.9769   19.0746 C   0  0  0  0  0  0  0  0  0  0  0  0
  -25.7958  -11.0722   20.5105 C   0  0  0  0  0  0  0  0  0  0  0  0
  -26.4364  -18.0006   20.8313 C   0  0  0  0  0  0  0  0  0  0  0  0
  -24.4643  -18.6779   22.9282 C   0  0  0  0  0  0  0  0  0  0  0  0
  -25.4200  -11.9119   21.7287 C   0  0  0  0  0  0  0  0  0  0  0  0
  -27.9930  -31.4909   18.4750 C   0  0  0  0  0  0  0  0  0  0  0  0
  -24.2686  -12.8543   21.3928 C   0  0  0  0  0  0  0  0  0  0  0  0
  -28.9578  -30.3699   18.8638 C   0  0  0  0  0  0  0  0  0  0  0  0
  -23.8150  -29.9508   22.6420 C   0  0  0  0  0  0  0  0  0  0  0  0
  -18.4952  -25.0475   20.0113 C   0  0  0  0  0  0  0  0  0  0  0  0
  -26.6697  -30.9469   17.9417 C   0  0  0  0  0  0  0  0  0  0  0  0
  -24.9324  -29.7721   21.6194 C   0  0  0  0  0  0  0  0  0  0  0  0
  -26.9701  -28.8580   19.2141 C   0  0  0  0  0  0  0  0  0  0  0  0
  -22.8120  -29.3842   20.5619 C   0  0  0  0  0  0  0  0  0  0  0  0
  -24.6648  -13.8361   20.2835 C   0  0  1  0  0  0  0  0  0  0  0  0
  -19.4385  -25.3799   21.1404 C   0  0  1  0  0  0  0  0  0  0  0  0
  -26.0234  -16.9939   21.9006 C   0  0  1  0  0  0  0  0  0  0  0  0
  -28.2863  -29.3657   19.8192 C   0  0  1  0  0  0  0  0  0  0  0  0
  -22.6981  -29.0972   22.0515 C   0  0  2  0  0  0  0  0  0  0  0  0
  -19.9384  -25.3215   19.7178 C   0  0  1  0  0  0  0  0  0  0  0  0
  -16.8856  -30.1999   24.1498 C   0  0  0  0  0  0  0  0  0  0  0  0
  -26.7461  -20.2919   28.8723 C   0  0  0  0  0  0  0  0  0  0  0  0
  -23.2529  -15.8491   25.4184 C   0  0  0  0  0  0  0  0  0  0  0  0
  -23.5189  -17.2253   27.4928 C   0  0  0  0  0  0  0  0  0  0  0  0
  -25.2513  -15.5351   26.8888 C   0  0  0  0  0  0  0  0  0  0  0  0
  -28.1367  -21.6048   25.5831 C   0  0  0  0  0  0  0  0  0  0  0  0
  -22.2575  -24.4274   19.4706 C   0  0  0  0  0  0  0  0  0  0  0  0
  -23.0084  -23.1662   19.0916 C   0  0  0  0  0  0  0  0  0  1  0  0
  -25.0798  -17.6692   25.5441 C   0  0  1  0  0  0  0  0  0  0  0  0
  -27.1847  -20.2038   27.4188 C   0  0  2  0  0  0  0  0  0  0  0  0
  -24.2746  -16.5821   26.3105 C   0  0  0  0  0  0  0  0  0  0  0  0
  -29.1915  -27.1018   19.4513 N   0  0  0  0  0  0  0  0  0  0  0  0
  -19.1498  -29.1434   23.0296 N   0  0  0  0  0  0  0  0  0  0  0  0
  -20.4380  -27.4658   21.8748 N   0  0  0  0  0  0  0  0  0  0  0  0
  -29.2144  -28.2245   20.1897 N   0  0  0  0  0  0  0  0  0  0  0  0
  -25.4883  -17.6348   23.1036 N   0  0  0  0  0  0  0  0  0  0  0  0
  -26.0878  -29.9784   18.8712 N   0  0  0  0  0  0  0  0  0  0  0  0
  -24.2364  -29.6206   20.3390 N   0  0  0  0  0  0  0  0  0  0  0  0
  -30.2600  -29.2341   22.0600 N   0  0  0  0  0  0  0  0  0  0  0  0
  -32.2377  -25.1809   21.8229 N   0  0  0  0  0  0  0  0  0  0  0  0
  -21.4076  -29.4623   22.5734 N   0  0  0  0  0  0  0  0  0  0  0  0
  -25.4938  -14.8950   20.8180 N   0  0  0  0  0  0  0  0  0  0  0  0
  -26.0738  -18.3610   26.3576 N   0  0  0  0  0  0  0  0  0  0  0  0
  -20.7881  -24.1819   19.3498 N   0  3  0  0  0  0  0  0  0  0  0  0
  -27.6539  -21.5508   26.9870 N   0  3  0  0  0  0  0  0  0  0  0  0
  -32.1565  -27.1471   23.0003 O   0  0  0  0  0  0  0  0  0  0  0  0
  -15.7651  -28.2432   23.5176 O   0  0  0  0  0  0  0  0  0  0  0  0
  -23.7923  -16.2927   21.5758 O   0  0  0  0  0  0  0  0  0  0  0  0
  -26.6757  -16.2315   24.5379 O   0  0  0  0  0  0  0  0  0  0  0  0
  -25.2260  -20.4951   26.0347 O   0  0  0  0  0  0  0  0  0  0  0  0
  -23.9207  -30.3240   18.1802 O   0  0  0  0  0  0  0  0  0  0  0  0
  -31.1775  -21.2143   18.0576 O   0  0  0  0  0  0  0  0  0  0  0  0
  -22.6161  -22.1029   19.9495 O   0  0  0  0  0  0  0  0  0  1  0  0
  -31.5980  -17.0893   21.6923 F   0  0  0  0  0  0  0  0  0  0  0  0
  -29.4785  -19.0370   17.9347 F   0  0  0  0  0  0  0  0  0  0  0  0
  1  2  1  0  0  0  0
  1  5  2  0  0  0  0
  2  6  2  0  0  0  0
  3  8  2  0  0  0  0
  3 16  1  0  0  0  0
  4  9  1  0  0  0  0
  4 16  2  0  0  0  0
  5 18  1  0  0  0  0
  6 20  1  0  0  0  0
  7 10  2  0  0  0  0
  7 19  1  0  0  0  0
  8 22  1  0  0  0  0
  9 22  2  0  0  0  0
 10 23  1  0  0  0  0
 11 12  2  0  0  0  0
 11 24  1  0  0  0  0
 12 25  1  0  0  0  0
 13 21  1  0  0  0  0
 13 23  2  0  0  0  0
 14 25  2  0  0  0  0
 14 26  1  0  0  0  0
 15 28  2  0  0  0  0
 15 29  1  0  0  0  0
 16 27  1  0  0  0  0
 17 27  1  0  0  0  0
 17 30  2  0  0  0  0
 17 32  1  0  0  0  0
 18 20  2  0  0  0  0
 18 38  1  0  0  0  0
 19 21  2  0  0  0  0
 19 39  1  0  0  0  0
 20 51  1  0  0  0  0
 21 40  1  0  0  0  0
 22 88  1  0  0  0  0
 23 89  1  0  0  0  0
 24 26  2  0  0  0  0
 24 88  1  0  0  0  0
 25 90  1  0  0  0  0
 26 91  1  0  0  0  0
 27 68  2  0  0  0  0
 28 33  1  0  0  0  0
 28 69  1  0  0  0  0
 29 52  1  0  0  0  0
 29 70  2  0  0  0  0
 30 71  1  0  0  0  0
 30 75  1  0  0  0  0
 31 69  2  0  0  0  0
 31 70  1  0  0  0  0
 31 77  1  0  0  0  0
 32 76  1  0  0  0  0
 32 82  2  0  0  0  0
 33 57  1  0  0  0  0
 33 83  2  0  0  0  0
 34 53  1  0  0  0  0
 34 78  1  0  0  0  0
 34 84  2  0  0  0  0
 35 65  1  0  0  0  0
 35 72  1  0  0  0  0
 35 85  2  0  0  0  0
 36 66  1  0  0  0  0
 36 79  1  0  0  0  0
 36 86  2  0  0  0  0
 37 73  1  0  0  0  0
 37 74  1  0  0  0  0
 37 87  2  0  0  0  0
 38 41  1  0  0  0  0
 39 53  1  0  0  0  0
 40 72  1  0  0  0  0
 41 43  1  0  0  0  0
 42 44  1  0  0  0  0
 42 47  1  0  0  0  0
 43 51  1  0  0  0  0
 44 54  1  0  0  0  0
 45 48  1  0  0  0  0
 45 55  1  0  0  0  0
 46 52  1  0  0  0  0
 46 56  1  0  0  0  0
 47 73  1  0  0  0  0
 48 74  1  0  0  0  0
 49 54  1  0  0  0  0
 49 73  1  0  0  0  0
 50 55  1  0  0  0  0
 50 74  1  0  0  0  0
 51 78  1  0  0  0  0
 52 56  1  0  0  0  0
 53 72  1  0  0  0  0
 54 71  1  0  0  0  0
 55 77  1  0  0  0  0
 56 80  1  0  0  0  0
 58 66  1  0  0  0  0
 59 67  1  0  0  0  0
 60 67  1  0  0  0  0
 61 67  1  0  0  0  0
 62 81  1  0  0  0  0
 63 64  1  0  0  0  0
 63 80  1  0  0  0  0
 64 89  1  0  0  0  0
 65 67  1  0  0  0  0
 65 79  1  0  0  0  0
 66 81  1  0  0  0  0
 68 71  1  0  0  0  0
M  CHG  2  80   1  81   1
M  ISO  4  37 100  64 101  74 100  89 101
M  END
> <Batch ID>
0195

> <Smiles>
CNC(C)C(=O)NC(C(=O)N1Cc2cc([101O:1][101CH2:1]CNC3CC3c3cc(C(C)=O)nc(NC4CC[100N:0]([100C:0](=O)N5CCCC(n6nc(-c7ccc(Oc8ccc(F)cc8F)cc7)c(C(N)=O)c6N)C5)C4)n3)ccc2CC1C(=O)NC1CCCc2ccccc21)C(C)(C)C

> <Shape>
0.222

> <Color>
0.073

> <Negative vol penalty>
0.000

$$$$

  -OEChem-04052323373D

 88 98  0     1  0  0  0  0  0999 V2000
  -27.7105  -33.1456   27.3568 C   0  0  0  0  0  0  0  0  0  0  0  0
  -27.9186  -32.0528   26.5214 C   0  0  0  0  0  0  0  0  0  0  0  0
  -21.8769  -12.5379   24.4777 C   0  0  0  0  0  0  0  0  0  0  0  0
  -21.1773  -14.8467   24.3484 C   0  0  0  0  0  0  0  0  0  0  0  0
  -26.4131  -33.5828   27.6207 C   0  0  0  0  0  0  0  0  0  0  0  0
  -26.8293  -31.3959   25.9503 C   0  0  0  0  0  0  0  0  0  0  0  0
  -27.5285  -30.3835   21.0379 C   0  0  0  0  0  0  0  0  0  0  0  0
  -20.7199  -12.2273   25.1921 C   0  0  0  0  0  0  0  0  0  0  0  0
  -20.0202  -14.5361   25.0627 C   0  0  0  0  0  0  0  0  0  0  0  0
  -28.3412  -29.2958   20.7214 C   0  0  0  0  0  0  0  0  0  0  0  0
  -16.7080  -14.2813   26.5401 C   0  0  0  0  0  0  0  0  0  0  0  0
  -15.4999  -14.8036   26.0782 C   0  0  0  0  0  0  0  0  0  0  0  0
  -26.3777  -27.9474   20.3400 C   0  0  0  0  0  0  0  0  0  0  0  0
  -15.8027  -13.6473   23.9786 C   0  0  0  0  0  0  0  0  0  0  0  0
  -22.1057  -13.8477   24.0559 C   0  0  0  0  0  0  0  0  0  0  0  0
  -23.4708  -14.1427   21.9212 C   0  0  0  0  0  0  0  0  0  0  0  0
  -25.3078  -32.9369   27.0448 C   0  0  0  0  0  0  0  0  0  0  0  0
  -26.1320  -30.2580   21.0184 C   0  0  0  0  0  0  0  0  0  0  0  0
  -25.5158  -31.8240   26.2078 C   0  0  0  0  0  0  0  0  0  0  0  0
  -25.5495  -29.0357   20.6542 C   0  0  0  0  0  0  0  0  0  0  0  0
  -28.6640  -23.4125   19.6926 C   0  0  0  0  0  0  0  0  0  0  0  0
  -19.7915  -13.2263   25.4846 C   0  0  0  0  0  0  0  0  0  0  0  0
  -27.7659  -28.0767   20.3751 C   0  0  0  0  0  0  0  0  0  0  0  0
  -17.4634  -13.4420   25.7211 C   0  0  0  0  0  0  0  0  0  0  0  0
  -15.0472  -14.4866   24.7975 C   0  0  0  0  0  0  0  0  0  0  0  0
  -17.0108  -13.1250   24.4404 C   0  0  0  0  0  0  0  0  0  0  0  0
  -23.3010  -14.1693   23.3184 C   0  0  0  0  0  0  0  0  0  0  0  0
  -28.9346  -24.7428   19.4445 C   0  0  0  0  0  0  0  0  0  0  0  0
  -29.6851  -22.5312   19.4014 C   0  0  0  0  0  0  0  0  0  0  0  0
  -24.7747  -14.5278   21.7264 C   0  0  0  0  0  0  0  0  0  0  0  0
  -31.0236  -24.2325   18.7078 C   0  0  0  0  0  0  0  0  0  0  0  0
  -22.5337  -13.8005   20.8915 C   0  0  0  0  0  0  0  0  0  0  0  0
  -23.8248  -30.5304   23.1879 C   0  0  0  0  0  0  0  0  0  0  0  0
  -21.8916  -30.1523   20.6106 C   0  0  0  0  0  0  0  0  0  0  0  0
  -21.4985  -28.9744   17.4318 C   0  0  0  0  0  0  0  0  0  0  0  0
  -29.0787  -17.8911   22.8707 C   0  0  0  0  0  0  0  0  0  0  0  0
  -23.9220  -33.4164   27.3973 C   0  0  0  0  0  0  0  0  0  0  0  0
  -25.2690  -31.4482   21.3365 C   0  0  0  0  0  0  0  0  0  0  0  0
  -24.0553  -28.8546   20.5985 C   0  0  0  0  0  0  0  0  0  0  0  0
  -22.8397  -32.8975   26.4541 C   0  0  0  0  0  0  0  0  0  0  0  0
  -28.5653  -15.1039   25.0258 C   0  0  0  0  0  0  0  0  0  0  0  0
  -26.5614  -21.9257   19.4870 C   0  0  0  0  0  0  0  0  0  0  0  0
  -26.0870  -23.3450   19.5116 C   0  0  0  0  0  0  0  0  0  0  0  0
  -23.0125  -31.4009   26.2152 C   0  0  0  0  0  0  0  0  0  0  0  0
  -27.1623  -14.6144   24.6629 C   0  0  0  0  0  0  0  0  0  0  0  0
  -28.6665  -16.6262   24.9603 C   0  0  0  0  0  0  0  0  0  0  0  0
  -26.8312  -16.7317   23.3189 C   0  0  0  0  0  0  0  0  0  0  0  0
  -29.1616  -20.6143   20.9391 C   0  0  0  0  0  0  0  0  0  0  0  0
  -29.5435  -20.1586   18.5878 C   0  0  0  0  0  0  0  0  0  0  0  0
  -27.3509  -22.9657   20.2385 C   0  0  0  0  0  0  0  0  0  0  0  0
  -24.3610  -31.1005   25.5497 C   0  0  1  0  0  0  0  0  0  0  0  0
  -23.8621  -31.0638   21.7837 C   0  0  1  0  0  0  0  0  0  0  0  0
  -26.6951  -15.1995   23.3165 C   0  0  2  0  0  0  0  0  0  0  0  0
  -29.3452  -19.1084   20.7245 C   0  0  2  0  0  0  0  0  0  0  0  0
  -28.9317  -18.9373   19.2702 C   0  0  2  0  0  0  0  0  0  0  0  0
  -32.3337  -24.6881   18.1606 C   0  0  0  0  0  0  0  0  0  0  0  0
  -19.7943  -28.7789   15.6002 C   0  0  0  0  0  0  0  0  0  0  0  0
  -20.5347  -27.8737   22.1196 C   0  0  0  0  0  0  0  0  0  0  0  0
  -19.5358  -27.1244   19.9496 C   0  0  0  0  0  0  0  0  0  0  0  0
  -18.9719  -29.3735   20.8696 C   0  0  0  0  0  0  0  0  0  0  0  0
  -23.1375  -30.5950   15.5755 C   0  0  0  0  0  0  0  0  0  0  0  0
  -27.9005  -25.7943   19.7206 C   0  0  0  0  0  0  0  0  0  1  0  0
  -21.2730  -28.9713   19.9024 C   0  0  1  0  0  0  0  0  0  0  0  0
  -20.9211  -29.6172   16.1837 C   0  0  2  0  0  0  0  0  0  0  0  0
  -20.1071  -28.3383   20.7131 C   0  0  0  0  0  0  0  0  0  0  0  0
  -24.4085  -14.5417   23.9655 N   0  0  0  0  0  0  0  0  0  0  0  0
  -30.1079  -25.1896   18.9506 N   0  0  0  0  0  0  0  0  0  0  0  0
  -30.8821  -22.9080   18.9059 N   0  0  0  0  0  0  0  0  0  0  0  0
  -25.2868  -14.7525   22.9704 N   0  0  0  0  0  0  0  0  0  0  0  0
  -29.4757  -21.1877   19.6277 N   0  0  3  0  0  0  0  0  0  0  0  0
  -23.2541  -30.0461   20.9241 N   0  0  0  0  0  0  0  0  0  0  0  0
  -28.2102  -17.1169   23.6577 N   0  0  0  0  0  0  0  0  0  0  0  0
  -25.5218  -14.6926   20.6142 N   0  0  0  0  0  0  0  0  0  0  0  0
  -21.2358  -13.4274   21.2663 N   0  0  0  0  0  0  0  0  0  0  0  0
  -24.3078  -31.4108   24.1372 N   0  0  0  0  0  0  0  0  0  0  0  0
  -20.8906  -29.4450   18.5765 N   0  0  0  0  0  0  0  0  0  0  0  0
  -28.5696  -18.3103   21.6476 N   0  0  0  0  0  0  0  0  0  0  0  0
  -29.4591  -17.6854   18.6991 N   0  3  0  0  0  0  0  0  0  0  0  0
  -21.9780  -29.7722   15.1446 N   0  3  0  0  0  0  0  0  0  0  0  0
  -22.8430  -13.8091   19.6758 O   0  0  0  0  0  0  0  0  0  0  0  0
  -23.3887  -29.4040   23.3950 O   0  0  0  0  0  0  0  0  0  0  0  0
  -21.1935  -31.1357   20.8697 O   0  0  0  0  0  0  0  0  0  0  0  0
  -22.3961  -28.1357   17.3948 O   0  0  0  0  0  0  0  0  0  0  0  0
  -30.2249  -18.1824   23.2290 O   0  0  0  0  0  0  0  0  0  0  0  0
  -18.6622  -12.9235   26.1814 O   0  0  0  0  0  0  0  0  0  0  0  0
  -28.5569  -27.0133   20.0663 O   0  0  0  0  0  0  0  0  0  1  0  0
  -13.8864  -14.9871   24.3547 F   0  0  0  0  0  0  0  0  0  0  0  0
  -17.7316  -12.3183   23.6496 F   0  0  0  0  0  0  0  0  0  0  0  0
  1  2  1  0  0  0  0
  1  5  2  0  0  0  0
  2  6  2  0  0  0  0
  3  8  2  0  0  0  0
  3 15  1  0  0  0  0
  4  9  1  0  0  0  0
  4 15  2  0  0  0  0
  5 17  1  0  0  0  0
  6 19  1  0  0  0  0
  7 10  2  0  0  0  0
  7 18  1  0  0  0  0
  8 22  1  0  0  0  0
  9 22  2  0  0  0  0
 10 23  1  0  0  0  0
 11 12  2  0  0  0  0
 11 24  1  0  0  0  0
 12 25  1  0  0  0  0
 13 20  1  0  0  0  0
 13 23  2  0  0  0  0
 14 25  2  0  0  0  0
 14 26  1  0  0  0  0
 15 27  1  0  0  0  0
 16 27  1  0  0  0  0
 16 30  2  0  0  0  0
 16 32  1  0  0  0  0
 17 19  2  0  0  0  0
 17 37  1  0  0  0  0
 18 20  2  0  0  0  0
 18 38  1  0  0  0  0
 19 51  1  0  0  0  0
 20 39  1  0  0  0  0
 21 28  2  0  0  0  0
 21 29  1  0  0  0  0
 21 50  1  0  0  0  0
 22 85  1  0  0  0  0
 23 86  1  0  0  0  0
 24 26  2  0  0  0  0
 24 85  1  0  0  0  0
 25 87  1  0  0  0  0
 26 88  1  0  0  0  0
 27 66  2  0  0  0  0
 28 62  1  0  0  0  0
 28 67  1  0  0  0  0
 29 68  2  0  0  0  0
 29 70  1  0  0  0  0
 30 69  1  0  0  0  0
 30 73  1  0  0  0  0
 31 56  1  0  0  0  0
 31 67  2  0  0  0  0
 31 68  1  0  0  0  0
 32 74  1  0  0  0  0
 32 80  2  0  0  0  0
 33 52  1  0  0  0  0
 33 75  1  0  0  0  0
 33 81  2  0  0  0  0
 34 63  1  0  0  0  0
 34 71  1  0  0  0  0
 34 82  2  0  0  0  0
 35 64  1  0  0  0  0
 35 76  1  0  0  0  0
 35 83  2  0  0  0  0
 36 72  1  0  0  0  0
 36 77  1  0  0  0  0
 36 84  2  0  0  0  0
 37 40  1  0  0  0  0
 38 52  1  0  0  0  0
 39 71  1  0  0  0  0
 40 44  1  0  0  0  0
 41 45  1  0  0  0  0
 41 46  1  0  0  0  0
 42 43  1  0  0  0  0
 42 50  1  0  0  0  0
 43 50  1  0  0  0  0
 44 51  1  0  0  0  0
 45 53  1  0  0  0  0
 46 72  1  0  0  0  0
 47 53  1  0  0  0  0
 47 72  1  0  0  0  0
 48 54  1  0  0  0  0
 48 70  1  0  0  0  0
 49 55  1  0  0  0  0
 49 70  1  0  0  0  0
 51 75  1  0  0  0  0
 52 71  1  0  0  0  0
 53 69  1  0  0  0  0
 54 55  1  0  0  0  0
 54 77  1  0  0  0  0
 55 78  1  0  0  0  0
 57 64  1  0  0  0  0
 58 65  1  0  0  0  0
 59 65  1  0  0  0  0
 60 65  1  0  0  0  0
 61 79  1  0  0  0  0
 62 86  1  0  0  0  0
 63 65  1  0  0  0  0
 63 76  1  0  0  0  0
 64 79  1  0  0  0  0
 66 69  1  0  0  0  0
M  CHG  2  78   1  79   1
M  ISO  4  36 100  62 101  77 100  86 101
M  END
> <Batch ID>
0195

> <Smiles>
CNC(C)C(=O)NC(C(=O)N1Cc2cc([101O:1][101CH2:1]c3nc(C)nc(N4CC(N)C([100NH:0][100C:0](=O)N5CCCC(n6nc(-c7ccc(Oc8ccc(F)cc8F)cc7)c(C(N)=O)c6N)C5)C4)c3C3CC3)ccc2CC1C(=O)NC1CCCc2ccccc21)C(C)(C)C

> <Shape>
0.237

> <Color>
0.095

> <Negative vol penalty>
0.000

$$$$

  -OEChem-04052323373D

 81 90  0     1  0  0  0  0  0999 V2000
  -16.6188  -29.2321   23.8034 C   0  0  0  0  0  0  0  0  0  0  0  0
  -17.4331  -28.1198   23.9911 C   0  0  0  0  0  0  0  0  0  0  0  0
  -23.5305   -9.7207   19.9788 C   0  0  0  0  0  0  0  0  0  0  0  0
  -23.6254  -10.1271   22.3585 C   0  0  0  0  0  0  0  0  0  0  0  0
  -17.1608  -30.4145   23.3013 C   0  0  0  0  0  0  0  0  0  0  0  0
  -18.7896  -28.1889   23.6756 C   0  0  0  0  0  0  0  0  0  0  0  0
  -23.3920  -25.3781   26.5778 C   0  0  0  0  0  0  0  0  0  0  0  0
  -22.8512   -8.5247   20.2101 C   0  0  0  0  0  0  0  0  0  0  0  0
  -22.9461   -8.9310   22.5898 C   0  0  0  0  0  0  0  0  0  0  0  0
  -24.0949  -24.2050   26.3064 C   0  0  0  0  0  0  0  0  0  0  0  0
  -19.7602   -7.8118   22.4556 C   0  0  0  0  0  0  0  0  0  0  0  0
  -18.7165   -7.8295   23.3808 C   0  0  0  0  0  0  0  0  0  0  0  0
  -25.8142  -25.4955   25.2119 C   0  0  0  0  0  0  0  0  0  0  0  0
  -19.8727   -6.1814   24.7165 C   0  0  0  0  0  0  0  0  0  0  0  0
  -27.8700  -19.1937   26.0785 C   0  0  0  0  0  0  0  0  0  0  0  0
  -26.4103  -20.3139   24.1441 C   0  0  0  0  0  0  0  0  0  0  0  0
  -23.9177  -10.5219   21.0530 C   0  0  0  0  0  0  0  0  0  0  0  0
  -24.0555  -13.0321   20.6197 C   0  0  0  0  0  0  0  0  0  0  0  0
  -18.5266  -30.5011   22.9886 C   0  0  0  0  0  0  0  0  0  0  0  0
  -23.8904  -26.6198   26.1581 C   0  0  0  0  0  0  0  0  0  0  0  0
  -19.3500  -29.3732   23.1676 C   0  0  0  0  0  0  0  0  0  0  0  0
  -25.1170  -26.6831   25.4815 C   0  0  0  0  0  0  0  0  0  0  0  0
  -22.5589   -8.1298   21.5156 C   0  0  0  0  0  0  0  0  0  0  0  0
  -25.3047  -24.2633   25.6208 C   0  0  0  0  0  0  0  0  0  0  0  0
  -20.8601   -6.9788   22.6608 C   0  0  0  0  0  0  0  0  0  0  0  0
  -18.7728   -7.0144   24.5113 C   0  0  0  0  0  0  0  0  0  0  0  0
  -20.9163   -6.1637   23.7913 C   0  0  0  0  0  0  0  0  0  0  0  0
  -24.6200  -11.7573   20.8147 C   0  0  0  0  0  0  0  0  0  0  0  0
  -27.9493  -18.7457   24.7782 C   0  0  0  0  0  0  0  0  0  0  0  0
  -26.3304  -20.7614   25.4444 C   0  0  0  0  0  0  0  0  0  0  0  0
  -25.1350  -13.8612   20.4359 C   0  0  0  0  0  0  0  0  0  0  0  0
  -22.6785  -13.4312   20.6061 C   0  0  0  0  0  0  0  0  0  0  0  0
  -22.8683  -28.8987   24.1919 C   0  0  0  0  0  0  0  0  0  0  0  0
  -25.4645  -30.4882   25.3124 C   0  0  0  0  0  0  0  0  0  0  0  0
  -28.5623  -30.3373   26.7364 C   0  0  0  0  0  0  0  0  0  0  0  0
  -30.2845  -15.4876   22.0777 C   0  0  0  0  0  0  0  0  0  0  0  0
  -19.0574  -31.7861   22.4039 C   0  0  0  0  0  0  0  0  0  0  0  0
  -23.1334  -27.8784   26.4821 C   0  0  0  0  0  0  0  0  0  0  0  0
  -25.7053  -27.9930   25.0272 C   0  0  0  0  0  0  0  0  0  0  0  0
  -20.5796  -31.8919   22.4473 C   0  0  0  0  0  0  0  0  0  0  0  0
  -30.0052  -12.8341   19.6666 C   0  0  0  0  0  0  0  0  0  0  0  0
  -21.2190  -30.5956   21.9599 C   0  0  0  0  0  0  0  0  0  0  0  0
  -28.5523  -12.3821   19.7696 C   0  0  0  0  0  0  0  0  0  0  0  0
  -30.5369  -13.2702   21.0253 C   0  0  0  0  0  0  0  0  0  0  0  0
  -28.2677  -16.3997   23.4779 C   0  0  0  0  0  0  0  0  0  0  0  0
  -29.8301  -17.7818   23.1011 C   0  0  0  0  0  0  0  0  0  0  0  0
  -28.2658  -13.9580   21.7485 C   0  0  0  0  0  0  0  0  0  0  0  0
  -20.8312  -29.4166   22.8605 C   0  0  1  0  0  0  0  0  0  0  0  0
  -28.8830  -17.5564   24.3022 C   0  0  0  0  0  0  0  0  0  0  0  0
  -23.4814  -29.0401   25.5564 C   0  0  1  0  0  0  0  0  0  0  0  0
  -27.6899  -13.4858   20.3987 C   0  0  2  0  0  0  0  0  0  0  0  0
  -30.4542  -31.8001   27.4968 C   0  0  0  0  0  0  0  0  0  0  0  0
  -26.3091  -30.9006   22.4096 C   0  0  0  0  0  0  0  0  0  0  0  0
  -28.5981  -31.4933   23.2327 C   0  0  0  0  0  0  0  0  0  0  0  0
  -26.6388  -32.8928   23.8850 C   0  0  0  0  0  0  0  0  0  0  0  0
  -28.3114  -29.4057   29.5343 C   0  0  0  0  0  0  0  0  0  0  0  0
  -25.4162  -21.8949   25.8056 C   0  0  0  0  0  0  0  0  0  1  0  0
  -26.9131  -30.5940   24.9010 C   0  0  1  0  0  0  0  0  0  0  0  0
  -29.1718  -31.0915   27.9044 C   0  0  2  0  0  0  0  0  0  0  0  0
  -27.1030  -31.4452   23.6138 C   0  0  0  0  0  0  0  0  0  0  0  0
  -27.2212  -19.2980   23.7876 N   0  0  0  0  0  0  0  0  0  0  0  0
  -27.0589  -20.2093   26.4349 N   0  0  0  0  0  0  0  0  0  0  0  0
  -25.9545  -11.7704   20.7597 N   0  0  0  0  0  0  0  0  0  0  0  0
  -26.2375  -13.0635   20.5280 N   0  0  0  0  0  0  0  0  0  0  0  0
  -24.9244  -29.1953   25.3622 N   0  0  0  0  0  0  0  0  0  0  0  0
  -29.6923  -14.2958   21.6452 N   0  0  0  0  0  0  0  0  0  0  0  0
  -29.4867  -16.4267   22.6876 N   0  0  0  0  0  0  0  0  0  0  0  0
  -25.2392  -15.1873   20.2060 N   0  0  0  0  0  0  0  0  0  0  0  0
  -21.6970  -12.4520   20.8117 N   0  0  0  0  0  0  0  0  0  0  0  0
  -21.6020  -29.4412   24.0851 N   0  0  0  0  0  0  0  0  0  0  0  0
  -27.6319  -31.1017   26.0646 N   0  0  0  0  0  0  0  0  0  0  0  0
  -29.4870  -30.1535   29.0188 N   0  3  0  0  0  0  0  0  0  0  0  0
  -22.3281  -14.6180   20.4008 O   0  0  0  0  0  0  0  0  0  0  0  0
  -23.4982  -28.3401   23.3015 O   0  0  0  0  0  0  0  0  0  0  0  0
  -24.8373  -31.5144   25.5867 O   0  0  0  0  0  0  0  0  0  0  0  0
  -28.8823  -29.1866   26.4467 O   0  0  0  0  0  0  0  0  0  0  0  0
  -31.4982  -15.6974   21.9509 O   0  0  0  0  0  0  0  0  0  0  0  0
  -21.8958   -6.9629   21.7417 O   0  0  0  0  0  0  0  0  0  0  0  0
  -25.9925  -23.1198   25.3540 O   0  0  0  0  0  0  0  0  0  1  0  0
  -17.7712   -7.0327   25.4005 F   0  0  0  0  0  0  0  0  0  0  0  0
  -21.9709   -5.3622   23.9944 F   0  0  0  0  0  0  0  0  0  0  0  0
  1  2  1  0  0  0  0
  1  5  2  0  0  0  0
  2  6  2  0  0  0  0
  3  8  2  0  0  0  0
  3 17  1  0  0  0  0
  4  9  1  0  0  0  0
  4 17  2  0  0  0  0
  5 19  1  0  0  0  0
  6 21  1  0  0  0  0
  7 10  2  0  0  0  0
  7 20  1  0  0  0  0
  8 23  1  0  0  0  0
  9 23  2  0  0  0  0
 10 24  1  0  0  0  0
 11 12  2  0  0  0  0
 11 25  1  0  0  0  0
 12 26  1  0  0  0  0
 13 22  1  0  0  0  0
 13 24  2  0  0  0  0
 14 26  2  0  0  0  0
 14 27  1  0  0  0  0
 15 29  2  0  0  0  0
 15 62  1  0  0  0  0
 16 30  1  0  0  0  0
 16 61  2  0  0  0  0
 17 28  1  0  0  0  0
 18 28  1  0  0  0  0
 18 31  2  0  0  0  0
 18 32  1  0  0  0  0
 19 21  2  0  0  0  0
 19 37  1  0  0  0  0
 20 22  2  0  0  0  0
 20 38  1  0  0  0  0
 21 48  1  0  0  0  0
 22 39  1  0  0  0  0
 23 78  1  0  0  0  0
 24 79  1  0  0  0  0
 25 27  2  0  0  0  0
 25 78  1  0  0  0  0
 26 80  1  0  0  0  0
 27 81  1  0  0  0  0
 28 63  2  0  0  0  0
 29 49  1  0  0  0  0
 29 61  1  0  0  0  0
 30 57  1  0  0  0  0
 30 62  2  0  0  0  0
 31 64  1  0  0  0  0
 31 68  1  0  0  0  0
 32 69  1  0  0  0  0
 32 73  2  0  0  0  0
 33 50  1  0  0  0  0
 33 70  1  0  0  0  0
 33 74  2  0  0  0  0
 34 58  1  0  0  0  0
 34 65  1  0  0  0  0
 34 75  2  0  0  0  0
 35 59  1  0  0  0  0
 35 71  1  0  0  0  0
 35 76  2  0  0  0  0
 36 66  1  0  0  0  0
 36 67  1  0  0  0  0
 36 77  2  0  0  0  0
 37 40  1  0  0  0  0
 38 50  1  0  0  0  0
 39 65  1  0  0  0  0
 40 42  1  0  0  0  0
 41 43  1  0  0  0  0
 41 44  1  0  0  0  0
 42 48  1  0  0  0  0
 43 51  1  0  0  0  0
 44 66  1  0  0  0  0
 45 49  1  0  0  0  0
 45 67  1  0  0  0  0
 46 49  1  0  0  0  0
 46 67  1  0  0  0  0
 47 51  1  0  0  0  0
 47 66  1  0  0  0  0
 48 70  1  0  0  0  0
 50 65  1  0  0  0  0
 51 64  1  0  0  0  0
 52 59  1  0  0  0  0
 53 60  1  0  0  0  0
 54 60  1  0  0  0  0
 55 60  1  0  0  0  0
 56 72  1  0  0  0  0
 57 79  1  0  0  0  0
 58 60  1  0  0  0  0
 58 71  1  0  0  0  0
 59 72  1  0  0  0  0
 63 64  1  0  0  0  0
M  CHG  1  72   1
M  ISO  4  36 100  57 101  67 100  79 101
M  END
> <Batch ID>
0195

> <Smiles>
CNC(C)C(=O)NC(C(=O)N1Cc2cc([101O:1][101CH2:1]c3cnc(C4C[100N:0]([100C:0](=O)N5CCCC(n6nc(-c7ccc(Oc8ccc(F)cc8F)cc7)c(C(N)=O)c6N)C5)C4)cn3)ccc2CC1C(=O)NC1CCCc2ccccc21)C(C)(C)C

> <Shape>
0.259

> <Color>
0.187

> <Negative vol penalty>
0.000

$$$$

  -OEChem-04052323373D

 87 96  0     1  0  0  0  0  0999 V2000
  -33.4268  -35.1382   18.8559 C   0  0  0  0  0  0  0  0  0  0  0  0
  -33.7960  -34.1211   19.7303 C   0  0  0  0  0  0  0  0  0  0  0  0
  -23.0846   -9.7884   19.9817 C   0  0  0  0  0  0  0  0  0  0  0  0
  -23.8302   -9.8661   22.2784 C   0  0  0  0  0  0  0  0  0  0  0  0
  -32.1524  -35.1413   18.2904 C   0  0  0  0  0  0  0  0  0  0  0  0
  -32.8905  -33.1070   20.0406 C   0  0  0  0  0  0  0  0  0  0  0  0
  -34.1860  -27.2217   21.1320 C   0  0  0  0  0  0  0  0  0  0  0  0
  -22.3540   -8.6327   20.2579 C   0  0  0  0  0  0  0  0  0  0  0  0
  -23.0996   -8.7104   22.5547 C   0  0  0  0  0  0  0  0  0  0  0  0
  -34.3422  -26.4993   22.3141 C   0  0  0  0  0  0  0  0  0  0  0  0
  -19.4073   -7.8369   21.7127 C   0  0  0  0  0  0  0  0  0  0  0  0
  -18.1042   -7.7609   21.2213 C   0  0  0  0  0  0  0  0  0  0  0  0
  -32.0447  -25.7784   22.1701 C   0  0  0  0  0  0  0  0  0  0  0  0
  -18.6968   -5.7908   19.9545 C   0  0  0  0  0  0  0  0  0  0  0  0
  -32.9030  -18.5984   24.4316 C   0  0  0  0  0  0  0  0  0  0  0  0
  -23.8228  -10.4050   20.9919 C   0  0  0  0  0  0  0  0  0  0  0  0
  -24.1331  -12.9303   20.8067 C   0  0  0  0  0  0  0  0  0  0  0  0
  -31.2342  -34.1216   18.5865 C   0  0  0  0  0  0  0  0  0  0  0  0
  -32.9527  -27.2368   20.4647 C   0  0  0  0  0  0  0  0  0  0  0  0
  -31.6022  -33.0973   19.4796 C   0  0  0  0  0  0  0  0  0  0  0  0
  -31.8761  -26.4997   20.9783 C   0  0  0  0  0  0  0  0  0  0  0  0
  -22.3615   -8.0938   21.5444 C   0  0  0  0  0  0  0  0  0  0  0  0
  -33.2707  -25.7798   22.8349 C   0  0  0  0  0  0  0  0  0  0  0  0
  -20.3553   -6.8899   21.3250 C   0  0  0  0  0  0  0  0  0  0  0  0
  -17.7489   -6.7379   20.3422 C   0  0  0  0  0  0  0  0  0  0  0  0
  -20.0000   -5.8668   20.4460 C   0  0  0  0  0  0  0  0  0  0  0  0
  -24.5782  -11.5985   20.7070 C   0  0  0  0  0  0  0  0  0  0  0  0
  -31.9264  -18.1608   23.5695 C   0  0  0  0  0  0  0  0  0  0  0  0
  -32.8099  -20.0039   24.3812 C   0  0  0  0  0  0  0  0  0  0  0  0
  -25.2178  -13.6839   20.4299 C   0  0  0  0  0  0  0  0  0  0  0  0
  -22.8536  -13.4406   21.2043 C   0  0  0  0  0  0  0  0  0  0  0  0
  -30.8424  -29.4881   19.7018 C   0  0  0  0  0  0  0  0  0  0  0  0
  -29.4042  -27.0532   18.1127 C   0  0  0  0  0  0  0  0  0  0  0  0
  -28.9250  -23.6901   17.7854 C   0  0  0  0  0  0  0  0  0  0  0  0
  -30.6868  -14.7784   20.6230 C   0  0  0  0  0  0  0  0  0  0  0  0
  -29.8518  -34.1932   17.9877 C   0  0  0  0  0  0  0  0  0  0  0  0
  -32.8081  -27.9994   19.1764 C   0  0  0  0  0  0  0  0  0  0  0  0
  -30.5372  -26.4668   20.2894 C   0  0  0  0  0  0  0  0  0  0  0  0
  -31.4731  -16.8190   23.1251 C   0  0  0  0  0  0  0  0  0  0  0  0
  -29.0808  -32.8786   18.0762 C   0  0  0  0  0  0  0  0  0  0  0  0
  -29.5945  -12.3169   18.2940 C   0  0  0  0  0  0  0  0  0  0  0  0
  -29.1968  -32.2851   19.4766 C   0  0  0  0  0  0  0  0  0  0  0  0
  -28.1583  -12.0162   18.7262 C   0  0  0  0  0  0  0  0  0  0  0  0
  -30.5013  -12.5813   19.4939 C   0  0  0  0  0  0  0  0  0  0  0  0
  -28.5819  -13.3243   20.8495 C   0  0  0  0  0  0  0  0  0  0  0  0
  -30.6565  -31.9664   19.8216 C   0  0  1  0  0  0  0  0  0  0  0  0
  -31.3611  -28.3605   18.8550 C   0  0  1  0  0  0  0  0  0  0  0  0
  -27.6173  -13.1059   19.6712 C   0  0  2  0  0  0  0  0  0  0  0  0
  -30.7176  -16.9618   21.8025 C   0  0  1  0  0  0  0  0  0  0  0  0
  -30.2604  -19.2936   22.0896 C   0  0  1  0  0  0  0  0  0  0  0  0
  -26.8650  -21.1133   21.7148 C   0  0  0  0  0  0  0  0  0  0  0  0
  -27.6646  -22.0037   16.4199 C   0  0  0  0  0  0  0  0  0  0  0  0
  -26.8473  -27.7396   19.6296 C   0  0  0  0  0  0  0  0  0  0  0  0
  -25.9368  -25.5034   18.9671 C   0  0  0  0  0  0  0  0  0  0  0  0
  -26.5103  -27.1836   17.2147 C   0  0  0  0  0  0  0  0  0  0  0  0
  -31.4239  -22.4326   16.8194 C   0  0  0  0  0  0  0  0  0  0  0  0
  -33.6512  -20.9997   25.1239 C   0  0  0  0  0  0  0  0  0  0  0  0
  -29.1081  -20.2267   22.4354 C   0  0  0  0  0  0  0  0  0  0  0  0
  -28.0283  -20.2024   21.3566 C   0  0  0  0  0  0  0  0  0  0  0  0
  -34.5953  -23.3121   25.1276 C   0  0  0  0  0  0  0  0  0  0  0  0
  -34.7197  -24.5554   24.2692 C   0  0  0  0  0  0  0  0  0  1  0  0
  -28.3698  -26.0110   18.4634 C   0  0  1  0  0  0  0  0  0  0  0  0
  -28.9631  -22.7808   16.5704 C   0  0  2  0  0  0  0  0  0  0  0  0
  -26.9406  -26.6114   18.5830 C   0  0  0  0  0  0  0  0  0  0  0  0
  -25.8467  -11.5079   20.2988 N   0  0  0  0  0  0  0  0  0  0  0  0
  -31.8517  -20.4325   23.5536 N   0  0  0  0  0  0  0  0  0  0  0  0
  -31.3110  -19.2884   23.0969 N   0  0  0  0  0  0  0  0  0  0  0  0
  -26.2080  -12.7924   20.1386 N   0  0  0  0  0  0  0  0  0  0  0  0
  -30.4438  -27.2335   19.0360 N   0  0  0  0  0  0  0  0  0  0  0  0
  -29.9322  -13.6258   20.3490 N   0  0  0  0  0  0  0  0  0  0  0  0
  -25.4116  -15.0156   20.3227 N   0  0  0  0  0  0  0  0  0  0  0  0
  -21.8513  -12.5277   21.5598 N   0  0  0  0  0  0  0  0  0  0  0  0
  -31.0740  -30.7428   19.1712 N   0  0  0  0  0  0  0  0  0  0  0  0
  -28.4940  -24.9590   17.4603 N   0  0  0  0  0  0  0  0  0  0  0  0
  -30.0707  -15.7215   21.4365 N   0  0  0  0  0  0  0  0  0  0  0  0
  -30.0836  -21.8054   16.6884 N   0  3  0  0  0  0  0  0  0  0  0  0
  -33.8170  -22.2842   24.3915 N   0  3  0  0  0  0  0  0  0  0  0  0
  -22.6013  -14.6691   21.2275 O   0  0  0  0  0  0  0  0  0  0  0  0
  -30.2729  -29.2382   20.7577 O   0  0  0  0  0  0  0  0  0  0  0  0
  -29.2977  -27.6790   17.0550 O   0  0  0  0  0  0  0  0  0  0  0  0
  -29.2420  -23.3117   18.9109 O   0  0  0  0  0  0  0  0  0  0  0  0
  -31.8232  -14.9565   20.1715 O   0  0  0  0  0  0  0  0  0  0  0  0
  -29.7113  -17.9692   21.9482 O   0  0  0  0  0  0  0  0  0  0  0  0
  -21.6485   -6.9663   21.8144 O   0  0  0  0  0  0  0  0  0  0  0  0
  -33.4203  -25.0743   23.9889 O   0  0  0  0  0  0  0  0  0  1  0  0
  -16.4970   -6.6641   19.8716 F   0  0  0  0  0  0  0  0  0  0  0  0
  -20.9060   -4.9535   20.0709 F   0  0  0  0  0  0  0  0  0  0  0  0
  1  2  1  0  0  0  0
  1  5  2  0  0  0  0
  2  6  2  0  0  0  0
  3  8  2  0  0  0  0
  3 16  1  0  0  0  0
  4  9  1  0  0  0  0
  4 16  2  0  0  0  0
  5 18  1  0  0  0  0
  6 20  1  0  0  0  0
  7 10  2  0  0  0  0
  7 19  1  0  0  0  0
  8 22  1  0  0  0  0
  9 22  2  0  0  0  0
 10 23  1  0  0  0  0
 11 12  2  0  0  0  0
 11 24  1  0  0  0  0
 12 25  1  0  0  0  0
 13 21  1  0  0  0  0
 13 23  2  0  0  0  0
 14 25  2  0  0  0  0
 14 26  1  0  0  0  0
 15 28  2  0  0  0  0
 15 29  1  0  0  0  0
 16 27  1  0  0  0  0
 17 27  1  0  0  0  0
 17 30  2  0  0  0  0
 17 31  1  0  0  0  0
 18 20  2  0  0  0  0
 18 36  1  0  0  0  0
 19 21  2  0  0  0  0
 19 37  1  0  0  0  0
 20 46  1  0  0  0  0
 21 38  1  0  0  0  0
 22 84  1  0  0  0  0
 23 85  1  0  0  0  0
 24 26  2  0  0  0  0
 24 84  1  0  0  0  0
 25 86  1  0  0  0  0
 26 87  1  0  0  0  0
 27 65  2  0  0  0  0
 28 39  1  0  0  0  0
 28 67  1  0  0  0  0
 29 57  1  0  0  0  0
 29 66  2  0  0  0  0
 30 68  1  0  0  0  0
 30 71  1  0  0  0  0
 31 72  1  0  0  0  0
 31 78  2  0  0  0  0
 32 47  1  0  0  0  0
 32 73  1  0  0  0  0
 32 79  2  0  0  0  0
 33 62  1  0  0  0  0
 33 69  1  0  0  0  0
 33 80  2  0  0  0  0
 34 63  1  0  0  0  0
 34 74  1  0  0  0  0
 34 81  2  0  0  0  0
 35 70  1  0  0  0  0
 35 75  1  0  0  0  0
 35 82  2  0  0  0  0
 36 40  1  0  0  0  0
 37 47  1  0  0  0  0
 38 69  1  0  0  0  0
 39 49  1  0  0  0  0
 40 42  1  0  0  0  0
 41 43  1  0  0  0  0
 41 44  1  0  0  0  0
 42 46  1  0  0  0  0
 43 48  1  0  0  0  0
 44 70  1  0  0  0  0
 45 48  1  0  0  0  0
 45 70  1  0  0  0  0
 46 73  1  0  0  0  0
 47 69  1  0  0  0  0
 48 68  1  0  0  0  0
 49 75  1  0  0  0  0
 49 83  1  0  0  0  0
 50 58  1  0  0  0  0
 50 67  1  0  0  0  0
 50 83  1  0  0  0  0
 51 59  1  0  0  0  0
 52 63  1  0  0  0  0
 53 64  1  0  0  0  0
 54 64  1  0  0  0  0
 55 64  1  0  0  0  0
 56 76  1  0  0  0  0
 57 77  1  0  0  0  0
 58 59  1  0  0  0  0
 60 61  1  0  0  0  0
 60 77  1  0  0  0  0
 61 85  1  0  0  0  0
 62 64  1  0  0  0  0
 62 74  1  0  0  0  0
 63 76  1  0  0  0  0
 65 68  1  0  0  0  0
 66 67  1  0  0  0  0
M  CHG  2  76   1  77   1
M  ISO  4  35 100  61 101  75 100  85 101
M  END
> <Batch ID>
0195

> <Smiles>
CCCC1OC([100NH:0][100C:0](=O)N2CCCC(n3nc(-c4ccc(Oc5ccc(F)cc5F)cc4)c(C(N)=O)c3N)C2)Cc2cc(CNC[101CH2:1][101O:1]c3ccc4c(c3)CN(C(=O)C(NC(=O)C(C)NC)C(C)(C)C)C(C(=O)NC3CCCc5ccccc53)C4)nn21

> <Shape>
0.226

> <Color>
0.195

> <Negative vol penalty>
0.000

$$$$

  -OEChem-04052323373D

 84 93  0     1  0  0  0  0  0999 V2000
  -33.6400  -20.0346   26.8429 C   0  0  0  0  0  0  0  0  0  0  0  0
  -32.4471  -19.7063   26.2067 C   0  0  0  0  0  0  0  0  0  0  0  0
  -23.2911   -9.7939   19.9079 C   0  0  0  0  0  0  0  0  0  0  0  0
  -23.7082   -9.9421   22.2830 C   0  0  0  0  0  0  0  0  0  0  0  0
  -33.7012  -21.1533   27.6727 C   0  0  0  0  0  0  0  0  0  0  0  0
  -31.3144  -20.4960   26.4010 C   0  0  0  0  0  0  0  0  0  0  0  0
  -28.8613  -21.4706   22.0792 C   0  0  0  0  0  0  0  0  0  0  0  0
  -22.5566   -8.6254   20.1098 C   0  0  0  0  0  0  0  0  0  0  0  0
  -22.9736   -8.7736   22.4849 C   0  0  0  0  0  0  0  0  0  0  0  0
  -28.0567  -20.4566   21.5612 C   0  0  0  0  0  0  0  0  0  0  0  0
  -20.2685   -5.8014   20.0406 C   0  0  0  0  0  0  0  0  0  0  0  0
  -19.0501   -5.6778   19.3729 C   0  0  0  0  0  0  0  0  0  0  0  0
  -26.1080  -21.5417   22.4802 C   0  0  0  0  0  0  0  0  0  0  0  0
  -18.2358   -7.6581   20.4920 C   0  0  0  0  0  0  0  0  0  0  0  0
  -23.8669  -10.4522   20.9945 C   0  0  0  0  0  0  0  0  0  0  0  0
  -24.1403  -12.9803   20.7896 C   0  0  0  0  0  0  0  0  0  0  0  0
  -32.5712  -21.9627   27.8696 C   0  0  0  0  0  0  0  0  0  0  0  0
  -28.2955  -22.5237   22.8122 C   0  0  0  0  0  0  0  0  0  0  0  0
  -31.3602  -21.6259   27.2353 C   0  0  0  0  0  0  0  0  0  0  0  0
  -26.9073  -22.5691   23.0043 C   0  0  0  0  0  0  0  0  0  0  0  0
  -22.3978   -8.1153   21.3983 C   0  0  0  0  0  0  0  0  0  0  0  0
  -26.6802  -20.4905   21.7641 C   0  0  0  0  0  0  0  0  0  0  0  0
  -20.4706   -6.8534   20.9341 C   0  0  0  0  0  0  0  0  0  0  0  0
  -18.0338   -6.6061   19.5986 C   0  0  0  0  0  0  0  0  0  0  0  0
  -19.4542   -7.7817   21.1598 C   0  0  0  0  0  0  0  0  0  0  0  0
  -24.6262  -11.6590   20.7866 C   0  0  0  0  0  0  0  0  0  0  0  0
  -25.2488  -13.7543   20.5475 C   0  0  0  0  0  0  0  0  0  0  0  0
  -22.8063  -13.4646   20.9932 C   0  0  0  0  0  0  0  0  0  0  0  0
  -28.5838  -23.5912   25.7924 C   0  0  0  0  0  0  0  0  0  0  0  0
  -26.6910  -25.9894   24.7023 C   0  0  0  0  0  0  0  0  0  0  0  0
  -24.3750  -27.0474   22.4300 C   0  0  0  0  0  0  0  0  0  0  0  0
  -29.9221  -14.8596   17.9217 C   0  0  0  0  0  0  0  0  0  0  0  0
  -32.6734  -23.1348   28.8131 C   0  0  0  0  0  0  0  0  0  0  0  0
  -29.1741  -23.6238   23.3416 C   0  0  0  0  0  0  0  0  0  0  0  0
  -26.2484  -23.6885   23.7668 C   0  0  0  0  0  0  0  0  0  0  0  0
  -31.5277  -24.1335   28.6700 C   0  0  0  0  0  0  0  0  0  0  0  0
  -30.1600  -12.5729   20.5038 C   0  0  0  0  0  0  0  0  0  0  0  0
  -30.1884  -23.4053   28.6159 C   0  0  0  0  0  0  0  0  0  0  0  0
  -28.7042  -12.2303   20.8196 C   0  0  0  0  0  0  0  0  0  0  0  0
  -25.6884  -19.7219   15.9028 C   0  0  0  0  0  0  0  0  0  0  0  0
  -25.0163  -18.6293   15.1235 C   0  0  0  0  0  0  0  0  0  0  0  0
  -30.3823  -12.6779   18.9993 C   0  0  0  0  0  0  0  0  0  0  0  0
  -29.1838  -17.1690   17.4593 C   0  0  0  0  0  0  0  0  0  0  0  0
  -28.0516  -15.3261   16.2913 C   0  0  0  0  0  0  0  0  0  0  0  0
  -27.8528  -17.9175   17.5188 C   0  0  0  0  0  0  0  0  0  0  0  0
  -26.7354  -16.0943   16.3804 C   0  0  0  0  0  0  0  0  0  0  0  0
  -28.0263  -13.3350   18.6314 C   0  0  0  0  0  0  0  0  0  0  0  0
  -30.1166  -22.4720   27.4013 C   0  0  1  0  0  0  0  0  0  0  0  0
  -28.5491  -24.3767   24.5120 C   0  0  1  0  0  0  0  0  0  0  0  0
  -27.7435  -13.2245   20.1432 C   0  0  1  0  0  0  0  0  0  0  0  0
  -25.6980  -18.3059   16.4345 C   0  0  0  0  0  0  0  0  0  0  0  0
  -22.9876  -29.0464   21.8162 C   0  0  0  0  0  0  0  0  0  0  0  0
  -22.6119  -19.2895   19.3916 C   0  0  0  0  0  0  0  0  0  0  0  0
  -24.8149  -25.4006   27.0354 C   0  0  0  0  0  0  0  0  0  0  0  0
  -23.0469  -26.7250   25.8572 C   0  0  0  0  0  0  0  0  0  0  0  0
  -25.1665  -27.8320   26.5674 C   0  0  0  0  0  0  0  0  0  0  0  0
  -25.6402  -27.2516   19.7623 C   0  0  0  0  0  0  0  0  0  0  0  0
  -24.8229  -18.0005   17.6198 C   0  0  0  0  0  0  0  0  0  0  0  0
  -24.5568  -19.8538   20.9029 C   0  0  0  0  0  0  0  0  0  1  0  0
  -25.2018  -26.2220   24.6185 C   0  0  1  0  0  0  0  0  0  0  0  0
  -24.2953  -28.3055   21.5842 C   0  0  2  0  0  0  0  0  0  0  0  0
  -24.0369  -18.9459   19.7940 C   0  0  2  0  0  0  0  0  0  0  0  0
  -24.5698  -26.5226   26.0069 C   0  0  0  0  0  0  0  0  0  0  0  0
  -25.9410  -11.5936   20.5603 N   0  0  0  0  0  0  0  0  0  0  0  0
  -26.2906  -12.8835   20.4188 N   0  0  0  0  0  0  0  0  0  0  0  0
  -27.1507  -24.7373   24.2700 N   0  0  0  0  0  0  0  0  0  0  0  0
  -29.4481  -13.6263   18.3932 N   0  0  0  0  0  0  0  0  0  0  0  0
  -28.9754  -15.7277   17.3572 N   0  0  0  0  0  0  0  0  0  0  0  0
  -26.9732  -17.5448   16.4021 N   0  0  0  0  0  0  0  0  0  0  0  0
  -25.4242  -15.0880   20.4342 N   0  0  0  0  0  0  0  0  0  0  0  0
  -21.7861  -12.5331   21.2297 N   0  0  0  0  0  0  0  0  0  0  0  0
  -29.8548  -23.2298   26.1965 N   0  0  0  0  0  0  0  0  0  0  0  0
  -25.0087  -27.2797   23.6324 N   0  0  0  0  0  0  0  0  0  0  0  0
  -24.3912  -27.9635   20.1368 N   0  3  0  0  0  0  0  0  0  0  0  0
  -24.9092  -19.1119   18.5999 N   0  3  0  0  0  0  0  0  0  0  0  0
  -22.5244  -14.6861   20.9499 O   0  0  0  0  0  0  0  0  0  0  0  0
  -27.5351  -23.3333   26.3716 O   0  0  0  0  0  0  0  0  0  0  0  0
  -27.4204  -26.8882   25.1287 O   0  0  0  0  0  0  0  0  0  0  0  0
  -23.9174  -25.9676   22.0625 O   0  0  0  0  0  0  0  0  0  0  0  0
  -31.1166  -15.1712   18.0041 O   0  0  0  0  0  0  0  0  0  0  0  0
  -21.6810   -6.9752   21.5957 O   0  0  0  0  0  0  0  0  0  0  0  0
  -25.8873  -19.4951   21.2567 O   0  0  0  0  0  0  0  0  0  1  0  0
  -16.8644   -6.4881   18.9561 F   0  0  0  0  0  0  0  0  0  0  0  0
  -19.6429   -8.7951   22.0161 F   0  0  0  0  0  0  0  0  0  0  0  0
  1  2  1  0  0  0  0
  1  5  2  0  0  0  0
  2  6  2  0  0  0  0
  3  8  2  0  0  0  0
  3 15  1  0  0  0  0
  4  9  1  0  0  0  0
  4 15  2  0  0  0  0
  5 17  1  0  0  0  0
  6 19  1  0  0  0  0
  7 10  2  0  0  0  0
  7 18  1  0  0  0  0
  8 21  1  0  0  0  0
  9 21  2  0  0  0  0
 10 22  1  0  0  0  0
 11 12  2  0  0  0  0
 11 23  1  0  0  0  0
 12 24  1  0  0  0  0
 13 20  1  0  0  0  0
 13 22  2  0  0  0  0
 14 24  2  0  0  0  0
 14 25  1  0  0  0  0
 15 26  1  0  0  0  0
 16 26  1  0  0  0  0
 16 27  2  0  0  0  0
 16 28  1  0  0  0  0
 17 19  2  0  0  0  0
 17 33  1  0  0  0  0
 18 20  2  0  0  0  0
 18 34  1  0  0  0  0
 19 48  1  0  0  0  0
 20 35  1  0  0  0  0
 21 81  1  0  0  0  0
 22 82  1  0  0  0  0
 23 25  2  0  0  0  0
 23 81  1  0  0  0  0
 24 83  1  0  0  0  0
 25 84  1  0  0  0  0
 26 64  2  0  0  0  0
 27 65  1  0  0  0  0
 27 70  1  0  0  0  0
 28 71  1  0  0  0  0
 28 76  2  0  0  0  0
 29 49  1  0  0  0  0
 29 72  1  0  0  0  0
 29 77  2  0  0  0  0
 30 60  1  0  0  0  0
 30 66  1  0  0  0  0
 30 78  2  0  0  0  0
 31 61  1  0  0  0  0
 31 73  1  0  0  0  0
 31 79  2  0  0  0  0
 32 67  1  0  0  0  0
 32 68  1  0  0  0  0
 32 80  2  0  0  0  0
 33 36  1  0  0  0  0
 34 49  1  0  0  0  0
 35 66  1  0  0  0  0
 36 38  1  0  0  0  0
 37 39  1  0  0  0  0
 37 42  1  0  0  0  0
 38 48  1  0  0  0  0
 39 50  1  0  0  0  0
 40 41  1  0  0  0  0
 40 51  1  0  0  0  0
 41 51  1  0  0  0  0
 42 67  1  0  0  0  0
 43 45  1  0  0  0  0
 43 68  1  0  0  0  0
 44 46  1  0  0  0  0
 44 68  1  0  0  0  0
 45 69  1  0  0  0  0
 46 69  1  0  0  0  0
 47 50  1  0  0  0  0
 47 67  1  0  0  0  0
 48 72  1  0  0  0  0
 49 66  1  0  0  0  0
 50 65  1  0  0  0  0
 51 58  1  0  0  0  0
 51 69  1  0  0  0  0
 52 61  1  0  0  0  0
 53 62  1  0  0  0  0
 54 63  1  0  0  0  0
 55 63  1  0  0  0  0
 56 63  1  0  0  0  0
 57 74  1  0  0  0  0
 58 75  1  0  0  0  0
 59 62  1  0  0  0  0
 59 82  1  0  0  0  0
 60 63  1  0  0  0  0
 60 73  1  0  0  0  0
 61 74  1  0  0  0  0
 62 75  1  0  0  0  0
 64 65  1  0  0  0  0
M  CHG  2  74   1  75   1
M  ISO  4  32 100  59 101  68 100  82 101
M  END
> <Batch ID>
0195

> <Smiles>
CNC(C)C(=O)NC(C(=O)N1Cc2cc([101O:1][101CH2:1]C(C)NCC3(N4CC[100N:0]([100C:0](=O)N5CCCC(n6nc(-c7ccc(Oc8ccc(F)cc8F)cc7)c(C(N)=O)c6N)C5)CC4)CC3)ccc2CC1C(=O)NC1CCCc2ccccc21)C(C)(C)C

> <Shape>
0.151

> <Color>
0.173

> <Negative vol penalty>
0.000

$$$$

  -OEChem-04052323373D

 85 94  0     1  0  0  0  0  0999 V2000
  -23.2190  -18.9956   21.9769 C   0  0  0  0  0  0  0  0  0  0  0  0
  -23.9988  -19.9907   21.3962 C   0  0  0  0  0  0  0  0  0  0  0  0
  -23.0184  -10.2962   21.8088 C   0  0  0  0  0  0  0  0  0  0  0  0
  -24.7567   -8.6729   21.3843 C   0  0  0  0  0  0  0  0  0  0  0  0
  -21.8645  -19.2236   22.2162 C   0  0  0  0  0  0  0  0  0  0  0  0
  -23.4242  -21.2141   21.0534 C   0  0  0  0  0  0  0  0  0  0  0  0
  -26.2853  -25.1585   22.4319 C   0  0  0  0  0  0  0  0  0  0  0  0
  -22.0553   -9.2929   21.7015 C   0  0  0  0  0  0  0  0  0  0  0  0
  -23.7937   -7.6696   21.2770 C   0  0  0  0  0  0  0  0  0  0  0  0
  -27.3853  -25.4585   21.6295 C   0  0  0  0  0  0  0  0  0  0  0  0
  -21.8202   -4.6162   21.2489 C   0  0  0  0  0  0  0  0  0  0  0  0
  -22.0658   -3.4081   21.9013 C   0  0  0  0  0  0  0  0  0  0  0  0
  -26.1229  -27.2184   20.5673 C   0  0  0  0  0  0  0  0  0  0  0  0
  -22.1668   -4.5711   24.0166 C   0  0  0  0  0  0  0  0  0  0  0  0
  -24.3691   -9.9862   21.6501 C   0  0  0  0  0  0  0  0  0  0  0  0
  -26.0356  -11.4357   22.9266 C   0  0  0  0  0  0  0  0  0  0  0  0
  -21.2752  -20.4539   21.8850 C   0  0  0  0  0  0  0  0  0  0  0  0
  -25.0903  -25.8803   22.3002 C   0  0  0  0  0  0  0  0  0  0  0  0
  -22.0602  -21.4583   21.2872 C   0  0  0  0  0  0  0  0  0  0  0  0
  -25.0100  -26.9273   21.3710 C   0  0  0  0  0  0  0  0  0  0  0  0
  -22.4429   -7.9796   21.4356 C   0  0  0  0  0  0  0  0  0  0  0  0
  -27.3033  -26.4867   20.6950 C   0  0  0  0  0  0  0  0  0  0  0  0
  -21.7481   -5.8018   21.9803 C   0  0  0  0  0  0  0  0  0  0  0  0
  -22.2390   -3.3855   23.2852 C   0  0  0  0  0  0  0  0  0  0  0  0
  -21.9213   -5.7792   23.3641 C   0  0  0  0  0  0  0  0  0  0  0  0
  -25.3644  -11.0222   21.7602 C   0  0  0  0  0  0  0  0  0  0  0  0
  -26.8716  -12.4402   22.5038 C   0  0  0  0  0  0  0  0  0  0  0  0
  -25.9144  -10.9547   24.2718 C   0  0  0  0  0  0  0  0  0  0  0  0
  -22.1041  -25.1472   21.4945 C   0  0  0  0  0  0  0  0  0  0  0  0
  -21.5401  -28.2370   22.3053 C   0  0  0  0  0  0  0  0  0  0  0  0
  -22.7672  -31.3950   22.7157 C   0  0  0  0  0  0  0  0  0  0  0  0
  -27.3529  -17.1474   19.5201 C   0  0  0  0  0  0  0  0  0  0  0  0
  -19.7966  -20.6370   22.1192 C   0  0  0  0  0  0  0  0  0  0  0  0
  -23.9215  -25.5619   23.1919 C   0  0  0  0  0  0  0  0  0  0  0  0
  -23.7566  -27.7457   21.2047 C   0  0  0  0  0  0  0  0  0  0  0  0
  -19.3481  -22.0953   22.0704 C   0  0  0  0  0  0  0  0  0  0  0  0
  -28.1428  -13.9341   17.8449 C   0  0  0  0  0  0  0  0  0  0  0  0
  -19.9469  -22.7976   20.8559 C   0  0  0  0  0  0  0  0  0  0  0  0
  -27.5011  -12.9302   18.8038 C   0  0  0  0  0  0  0  0  0  0  0  0
  -30.3420  -18.6943   18.0423 C   0  0  0  0  0  0  0  0  0  0  0  0
  -29.9923  -22.5837   16.4593 C   0  0  0  0  0  0  0  0  0  0  0  0
  -31.8423  -22.6376   18.1846 C   0  0  0  0  0  0  0  0  0  0  0  0
  -27.3794  -15.2521   17.8450 C   0  0  0  0  0  0  0  0  0  0  0  0
  -29.4244  -17.4756   18.0453 C   0  0  0  0  0  0  0  0  0  0  0  0
  -26.5985  -14.8843   20.1541 C   0  0  0  0  0  0  0  0  0  0  0  0
  -28.2185  -19.3805   18.8797 C   0  0  0  0  0  0  0  0  0  0  0  0
  -29.3854  -23.8339   17.0855 C   0  0  0  0  0  0  0  0  0  0  0  0
  -31.2210  -23.8875   18.7971 C   0  0  0  0  0  0  0  0  0  0  0  0
  -21.4788  -22.8075   20.9240 C   0  0  1  0  0  0  0  0  0  0  0  0
  -22.5868  -26.0239   22.6152 C   0  0  1  0  0  0  0  0  0  0  0  0
  -27.3329  -13.5330   20.2104 C   0  0  1  0  0  0  0  0  0  0  0  0
  -29.3398  -19.8363   17.9641 C   0  0  1  0  0  0  0  0  0  0  0  0
  -30.8324  -21.7668   17.4393 C   0  0  0  0  0  0  0  0  0  0  0  0
  -22.0579  -33.7170   23.3500 C   0  0  0  0  0  0  0  0  0  0  0  0
  -31.1222  -26.9230   18.3901 C   0  0  0  0  0  0  0  0  0  0  0  0
  -20.2568  -28.5923   19.5599 C   0  0  0  0  0  0  0  0  0  0  0  0
  -20.4372  -31.0697   19.8734 C   0  0  0  0  0  0  0  0  0  0  0  0
  -19.0395  -29.7153   21.4338 C   0  0  0  0  0  0  0  0  0  0  0  0
  -24.5948  -31.4424   25.0430 C   0  0  0  0  0  0  0  0  0  0  0  0
  -29.2571  -25.7075   19.5853 C   0  0  0  0  0  0  0  0  0  1  0  0
  -21.5589  -29.5556   21.5705 C   0  0  1  0  0  0  0  0  0  0  0  0
  -22.6183  -32.3941   23.8487 C   0  0  2  0  0  0  0  0  0  0  0  0
  -29.9517  -25.9630   18.2525 C   0  0  2  0  0  0  0  0  0  0  0  0
  -20.3462  -29.7167   20.6109 C   0  0  0  0  0  0  0  0  0  0  0  0
  -25.7413  -11.7081   20.6778 N   0  0  0  0  0  0  0  0  0  0  0  0
  -26.6583  -12.5627   21.1623 N   0  0  0  0  0  0  0  0  0  0  0  0
  -22.6389  -27.3918   22.0953 N   0  0  0  0  0  0  0  0  0  0  0  0
  -27.2481  -15.7885   19.2026 N   0  0  0  0  0  0  0  0  0  0  0  0
  -28.2213  -17.9239   18.7542 N   0  0  0  0  0  0  0  0  0  0  0  0
  -27.7608  -13.2217   23.1525 N   0  0  0  0  0  0  0  0  0  0  0  0
  -25.0082   -9.9175   24.5314 N   0  0  0  0  0  0  0  0  0  0  0  0
  -21.9371  -23.8221   21.8487 N   0  0  0  0  0  0  0  0  0  0  0  0
  -21.6533  -30.5916   22.5934 N   0  0  0  0  0  0  0  0  0  0  0  0
  -30.4774  -24.6544   17.7296 N   0  3  0  0  0  0  0  0  0  0  0  0
  -29.9323  -21.1025   18.4252 N   0  3  0  0  0  0  0  0  0  0  0  0
  -23.9396  -32.6543   24.4870 N   0  3  0  0  0  0  0  0  0  0  0  0
  -26.5777  -11.4418   25.2186 O   0  0  0  0  0  0  0  0  0  0  0  0
  -21.8971  -25.6371   20.3905 O   0  0  0  0  0  0  0  0  0  0  0  0
  -20.5891  -27.9699   23.0441 O   0  0  0  0  0  0  0  0  0  0  0  0
  -23.7699  -31.3357   22.0073 O   0  0  0  0  0  0  0  0  0  0  0  0
  -26.7357  -17.6354   20.4761 O   0  0  0  0  0  0  0  0  0  0  0  0
  -21.5034   -7.0003   21.3311 O   0  0  0  0  0  0  0  0  0  0  0  0
  -28.3825  -26.7831   19.9048 O   0  0  0  0  0  0  0  0  0  1  0  0
  -22.4733   -2.2250   23.9118 F   0  0  0  0  0  0  0  0  0  0  0  0
  -21.8519   -6.9148   24.0723 F   0  0  0  0  0  0  0  0  0  0  0  0
  1  2  1  0  0  0  0
  1  5  2  0  0  0  0
  2  6  2  0  0  0  0
  3  8  2  0  0  0  0
  3 15  1  0  0  0  0
  4  9  1  0  0  0  0
  4 15  2  0  0  0  0
  5 17  1  0  0  0  0
  6 19  1  0  0  0  0
  7 10  2  0  0  0  0
  7 18  1  0  0  0  0
  8 21  1  0  0  0  0
  9 21  2  0  0  0  0
 10 22  1  0  0  0  0
 11 12  2  0  0  0  0
 11 23  1  0  0  0  0
 12 24  1  0  0  0  0
 13 20  1  0  0  0  0
 13 22  2  0  0  0  0
 14 24  2  0  0  0  0
 14 25  1  0  0  0  0
 15 26  1  0  0  0  0
 16 26  1  0  0  0  0
 16 27  2  0  0  0  0
 16 28  1  0  0  0  0
 17 19  2  0  0  0  0
 17 33  1  0  0  0  0
 18 20  2  0  0  0  0
 18 34  1  0  0  0  0
 19 49  1  0  0  0  0
 20 35  1  0  0  0  0
 21 82  1  0  0  0  0
 22 83  1  0  0  0  0
 23 25  2  0  0  0  0
 23 82  1  0  0  0  0
 24 84  1  0  0  0  0
 25 85  1  0  0  0  0
 26 65  2  0  0  0  0
 27 66  1  0  0  0  0
 27 70  1  0  0  0  0
 28 71  1  0  0  0  0
 28 77  2  0  0  0  0
 29 50  1  0  0  0  0
 29 72  1  0  0  0  0
 29 78  2  0  0  0  0
 30 61  1  0  0  0  0
 30 67  1  0  0  0  0
 30 79  2  0  0  0  0
 31 62  1  0  0  0  0
 31 73  1  0  0  0  0
 31 80  2  0  0  0  0
 32 68  1  0  0  0  0
 32 69  1  0  0  0  0
 32 81  2  0  0  0  0
 33 36  1  0  0  0  0
 34 50  1  0  0  0  0
 35 67  1  0  0  0  0
 36 38  1  0  0  0  0
 37 39  1  0  0  0  0
 37 43  1  0  0  0  0
 38 49  1  0  0  0  0
 39 51  1  0  0  0  0
 40 44  1  0  0  0  0
 40 52  1  0  0  0  0
 41 47  1  0  0  0  0
 41 53  1  0  0  0  0
 42 48  1  0  0  0  0
 42 53  1  0  0  0  0
 43 68  1  0  0  0  0
 44 69  1  0  0  0  0
 45 51  1  0  0  0  0
 45 68  1  0  0  0  0
 46 52  1  0  0  0  0
 46 69  1  0  0  0  0
 47 74  1  0  0  0  0
 48 74  1  0  0  0  0
 49 72  1  0  0  0  0
 50 67  1  0  0  0  0
 51 66  1  0  0  0  0
 52 75  1  0  0  0  0
 53 75  1  0  0  0  0
 54 62  1  0  0  0  0
 55 63  1  0  0  0  0
 56 64  1  0  0  0  0
 57 64  1  0  0  0  0
 58 64  1  0  0  0  0
 59 76  1  0  0  0  0
 60 63  1  0  0  0  0
 60 83  1  0  0  0  0
 61 64  1  0  0  0  0
 61 73  1  0  0  0  0
 62 76  1  0  0  0  0
 63 74  1  0  0  0  0
 65 66  1  0  0  0  0
M  CHG  3  74   1  75   1  76   1
M  ISO  4  32 100  60 101  69 100  83 101
M  END
> <Batch ID>
0195

> <Smiles>
CNC(C)C(=O)NC(C(=O)N1Cc2cc([101O:1][101CH2:1]C(C)N3CCC(NC4CC[100N:0]([100C:0](=O)N5CCCC(n6nc(-c7ccc(Oc8ccc(F)cc8F)cc7)c(C(N)=O)c6N)C5)C4)CC3)ccc2CC1C(=O)NC1CCCc2ccccc21)C(C)(C)C

> <Shape>
0.247

> <Color>
0.078

> <Negative vol penalty>
0.000

$$$$

  -OEChem-04052323373D

 88 98  0     1  0  0  0  0  0999 V2000
  -28.3972  -22.1902   18.8163 C   0  0  0  0  0  0  0  0  0  0  0  0
  -27.2185  -22.5258   19.4747 C   0  0  0  0  0  0  0  0  0  0  0  0
  -29.1390  -11.8278   19.5183 C   0  0  0  0  0  0  0  0  0  0  0  0
  -28.4361  -13.4842   21.1306 C   0  0  0  0  0  0  0  0  0  0  0  0
  -29.5811  -22.8590   19.1245 C   0  0  0  0  0  0  0  0  0  0  0  0
  -27.2233  -23.5297   20.4424 C   0  0  0  0  0  0  0  0  0  0  0  0
  -23.3156  -26.7140   19.9577 C   0  0  0  0  0  0  0  0  0  0  0  0
  -30.3206  -12.5376   19.3043 C   0  0  0  0  0  0  0  0  0  0  0  0
  -29.6176  -14.1940   20.9166 C   0  0  0  0  0  0  0  0  0  0  0  0
  -22.0770  -26.2780   20.4264 C   0  0  0  0  0  0  0  0  0  0  0  0
  -30.8611  -16.3221   18.6023 C   0  0  0  0  0  0  0  0  0  0  0  0
  -30.7673  -17.7051   18.4475 C   0  0  0  0  0  0  0  0  0  0  0  0
  -16.5913  -19.0096   24.1189 C   0  0  0  0  0  0  0  0  0  0  0  0
  -22.3954  -27.5617   22.4438 C   0  0  0  0  0  0  0  0  0  0  0  0
  -32.1915  -18.0174   20.3739 C   0  0  0  0  0  0  0  0  0  0  0  0
  -17.2508  -20.1859   24.3796 C   0  0  0  0  0  0  0  0  0  0  0  0
  -28.1968  -12.3012   20.4315 C   0  0  0  0  0  0  0  0  0  0  0  0
  -26.8504  -10.2456   21.1168 C   0  0  0  0  0  0  0  0  0  0  0  0
  -29.5985  -23.8782   20.0897 C   0  0  0  0  0  0  0  0  0  0  0  0
  -24.1095  -27.5699   20.7346 C   0  0  0  0  0  0  0  0  0  0  0  0
  -28.4088  -24.2118   20.7648 C   0  0  0  0  0  0  0  0  0  0  0  0
  -23.6425  -28.0092   21.9816 C   0  0  0  0  0  0  0  0  0  0  0  0
  -30.5599  -13.7206   20.0034 C   0  0  0  0  0  0  0  0  0  0  0  0
  -21.6180  -26.6996   21.6708 C   0  0  0  0  0  0  0  0  0  0  0  0
  -31.6200  -15.7867   19.6430 C   0  0  0  0  0  0  0  0  0  0  0  0
  -31.4325  -18.5528   19.3332 C   0  0  0  0  0  0  0  0  0  0  0  0
  -32.2853  -16.6343   20.5288 C   0  0  0  0  0  0  0  0  0  0  0  0
  -26.9758  -11.5687   20.6526 C   0  0  0  0  0  0  0  0  0  0  0  0
  -17.2244  -18.4983   22.9702 C   0  0  0  0  0  0  0  0  0  0  0  0
  -25.4958  -10.0218   21.1540 C   0  0  0  0  0  0  0  0  0  0  0  0
  -27.8674   -9.3032   21.4818 C   0  0  0  0  0  0  0  0  0  0  0  0
  -26.9906  -27.3676   22.0619 C   0  0  0  0  0  0  0  0  0  0  0  0
  -26.4467  -30.4821   22.7875 C   0  0  0  0  0  0  0  0  0  0  0  0
  -24.1833  -32.9786   23.3270 C   0  0  0  0  0  0  0  0  0  0  0  0
  -20.9202  -13.6887   21.7750 C   0  0  0  0  0  0  0  0  0  0  0  0
  -30.9120  -24.5404   20.4227 C   0  0  0  0  0  0  0  0  0  0  0  0
  -25.4313  -28.0524   20.2031 C   0  0  0  0  0  0  0  0  0  0  0  0
  -24.4475  -28.9441   22.8454 C   0  0  0  0  0  0  0  0  0  0  0  0
  -30.7563  -25.8490   21.1931 C   0  0  0  0  0  0  0  0  0  0  0  0
  -21.4182  -11.3701   19.0426 C   0  0  0  0  0  0  0  0  0  0  0  0
  -29.7588  -25.6809   22.3348 C   0  0  0  0  0  0  0  0  0  0  0  0
  -22.9020  -11.0331   19.1988 C   0  0  0  0  0  0  0  0  0  0  0  0
  -20.1117  -21.7153   24.4486 C   0  0  0  0  0  0  0  0  0  0  0  0
  -21.1472  -12.8380   19.3601 C   0  0  0  0  0  0  0  0  0  0  0  0
  -23.0963  -12.9378   20.8631 C   0  0  0  0  0  0  0  0  0  0  0  0
  -20.7113  -23.0777   24.1500 C   0  0  0  0  0  0  0  0  0  0  0  0
  -18.5428  -22.8048   23.0606 C   0  0  0  0  0  0  0  0  0  0  0  0
  -17.2648  -14.8311   22.0870 C   0  0  0  0  0  0  0  0  0  0  0  0
  -18.8491  -15.9050   22.9191 C   0  0  0  0  0  0  0  0  0  0  0  0
  -28.3686  -25.3121   21.8029 C   0  0  1  0  0  0  0  0  0  0  0  0
  -26.3847  -28.5130   21.3014 C   0  0  1  0  0  0  0  0  0  0  0  0
  -23.4311  -11.4622   20.5799 C   0  0  2  0  0  0  0  0  0  0  0  0
  -19.1942  -21.4359   23.2561 C   0  0  2  0  0  0  0  0  0  0  0  0
  -18.6582  -14.4137   22.5899 C   0  0  0  0  0  0  0  0  0  0  0  0
  -24.0385  -35.4078   23.9397 C   0  0  0  0  0  0  0  0  0  0  0  0
  -27.0668  -29.7839   25.6923 C   0  0  0  0  0  0  0  0  0  0  0  0
  -26.0032  -31.9477   26.3666 C   0  0  0  0  0  0  0  0  0  0  0  0
  -28.0303  -31.9561   24.9129 C   0  0  0  0  0  0  0  0  0  0  0  0
  -22.8500  -33.6623   20.7748 C   0  0  0  0  0  0  0  0  0  0  0  0
  -16.9121  -17.2491   22.2553 C   0  0  0  0  0  0  0  0  0  0  0  0
  -19.2187  -25.0972   23.8563 C   0  0  0  0  0  0  0  0  0  0  0  0
  -20.2589  -26.1552   23.5449 C   0  0  0  0  0  0  0  0  0  1  0  0
  -25.8149  -31.2153   23.9460 C   0  0  1  0  0  0  0  0  0  0  0  0
  -24.1082  -34.4010   22.8020 C   0  0  2  0  0  0  0  0  0  0  0  0
  -26.7142  -31.2066   25.2142 C   0  0  0  0  0  0  0  0  0  0  0  0
  -25.7950  -12.1449   20.4120 N   0  0  0  0  0  0  0  0  0  0  0  0
  -18.2102  -19.2854   22.5312 N   0  0  0  0  0  0  0  0  0  0  0  0
  -18.2015  -20.3032   23.4087 N   0  0  0  0  0  0  0  0  0  0  0  0
  -24.9148  -11.1792   20.7262 N   0  0  0  0  0  0  0  0  0  0  0  0
  -25.7361  -29.3829   22.2847 N   0  0  0  0  0  0  0  0  0  0  0  0
  -21.6584  -13.1766   20.6961 N   0  0  0  0  0  0  0  0  0  0  0  0
  -24.7568   -8.9497   21.5105 N   0  0  0  0  0  0  0  0  0  0  0  0
  -29.2090   -9.6968   21.3842 N   0  0  0  0  0  0  0  0  0  0  0  0
  -27.7027  -26.4833   21.2743 N   0  0  0  0  0  0  0  0  0  0  0  0
  -25.4874  -32.5495   23.4549 N   0  0  0  0  0  0  0  0  0  0  0  0
  -19.5627  -13.8871   21.5470 N   0  0  0  0  0  0  0  0  0  0  0  0
  -17.3830  -16.0125   22.9544 N   0  3  0  0  0  0  0  0  0  0  0  0
  -19.6717  -23.7826   23.3058 N   0  3  1  0  0  0  0  0  0  0  0  0
  -22.9005  -34.5743   21.9464 N   0  3  0  0  0  0  0  0  0  0  0  0
  -27.5950   -8.1409   21.8669 O   0  0  0  0  0  0  0  0  0  0  0  0
  -26.8256  -27.2925   23.2739 O   0  0  0  0  0  0  0  0  0  0  0  0
  -27.5273  -30.8746   22.3404 O   0  0  0  0  0  0  0  0  0  0  0  0
  -23.1849  -32.3159   23.6001 O   0  0  0  0  0  0  0  0  0  0  0  0
  -21.4281  -13.9483   22.8715 O   0  0  0  0  0  0  0  0  0  0  0  0
  -31.7128  -14.4134   19.7949 O   0  0  0  0  0  0  0  0  0  0  0  0
  -20.4098  -26.2750   22.1310 O   0  0  0  0  0  0  0  0  0  1  0  0
  -31.3436  -19.8809   19.1835 F   0  0  0  0  0  0  0  0  0  0  0  0
  -33.0169  -16.1258   21.5298 F   0  0  0  0  0  0  0  0  0  0  0  0
  1  2  1  0  0  0  0
  1  5  2  0  0  0  0
  2  6  2  0  0  0  0
  3  8  2  0  0  0  0
  3 17  1  0  0  0  0
  4  9  1  0  0  0  0
  4 17  2  0  0  0  0
  5 19  1  0  0  0  0
  6 21  1  0  0  0  0
  7 10  2  0  0  0  0
  7 20  1  0  0  0  0
  8 23  1  0  0  0  0
  9 23  2  0  0  0  0
 10 24  1  0  0  0  0
 11 12  2  0  0  0  0
 11 25  1  0  0  0  0
 12 26  1  0  0  0  0
 13 16  2  0  0  0  0
 13 29  1  0  0  0  0
 14 22  1  0  0  0  0
 14 24  2  0  0  0  0
 15 26  2  0  0  0  0
 15 27  1  0  0  0  0
 16 68  1  0  0  0  0
 17 28  1  0  0  0  0
 18 28  1  0  0  0  0
 18 30  2  0  0  0  0
 18 31  1  0  0  0  0
 19 21  2  0  0  0  0
 19 36  1  0  0  0  0
 20 22  2  0  0  0  0
 20 37  1  0  0  0  0
 21 50  1  0  0  0  0
 22 38  1  0  0  0  0
 23 85  1  0  0  0  0
 24 86  1  0  0  0  0
 25 27  2  0  0  0  0
 25 85  1  0  0  0  0
 26 87  1  0  0  0  0
 27 88  1  0  0  0  0
 28 66  2  0  0  0  0
 29 60  1  0  0  0  0
 29 67  2  0  0  0  0
 30 69  1  0  0  0  0
 30 72  1  0  0  0  0
 31 73  1  0  0  0  0
 31 80  2  0  0  0  0
 32 51  1  0  0  0  0
 32 74  1  0  0  0  0
 32 81  2  0  0  0  0
 33 63  1  0  0  0  0
 33 70  1  0  0  0  0
 33 82  2  0  0  0  0
 34 64  1  0  0  0  0
 34 75  1  0  0  0  0
 34 83  2  0  0  0  0
 35 71  1  0  0  0  0
 35 76  1  0  0  0  0
 35 84  2  0  0  0  0
 36 39  1  0  0  0  0
 37 51  1  0  0  0  0
 38 70  1  0  0  0  0
 39 41  1  0  0  0  0
 40 42  1  0  0  0  0
 40 44  1  0  0  0  0
 41 50  1  0  0  0  0
 42 52  1  0  0  0  0
 43 46  1  0  0  0  0
 43 53  1  0  0  0  0
 44 71  1  0  0  0  0
 45 52  1  0  0  0  0
 45 71  1  0  0  0  0
 46 78  1  0  0  0  0
 47 53  1  0  0  0  0
 47 78  1  0  0  0  0
 48 54  1  0  0  0  0
 48 77  1  0  0  0  0
 49 54  1  0  0  0  0
 49 77  1  0  0  0  0
 50 74  1  0  0  0  0
 51 70  1  0  0  0  0
 52 69  1  0  0  0  0
 53 68  1  0  0  0  0
 54 76  1  0  0  0  0
 55 64  1  0  0  0  0
 56 65  1  0  0  0  0
 57 65  1  0  0  0  0
 58 65  1  0  0  0  0
 59 79  1  0  0  0  0
 60 77  1  0  0  0  0
 61 62  1  0  0  0  0
 61 78  1  0  0  0  0
 62 86  1  0  0  0  0
 63 65  1  0  0  0  0
 63 75  1  0  0  0  0
 64 79  1  0  0  0  0
 66 69  1  0  0  0  0
 67 68  1  0  0  0  0
M  CHG  3  77   1  78   1  79   1
M  ISO  4  35 100  62 101  76 100  86 101
M  END
> <Batch ID>
0195

> <Smiles>
CNC(C)C(=O)NC(C(=O)N1Cc2cc([101O:1][101CH2:1]CN3CCC(n4ccc(CN5CC([100NH:0][100C:0](=O)N6CCCC(n7nc(-c8ccc(Oc9ccc(F)cc9F)cc8)c(C(N)=O)c7N)C6)C5)n4)C3)ccc2CC1C(=O)NC1CCCc2ccccc21)C(C)(C)C

> <Shape>
0.248

> <Color>
0.072

> <Negative vol penalty>
0.000

$$$$

  -OEChem-04052323373D

 85 95  0     1  0  0  0  0  0999 V2000
  -29.1784  -33.0024   27.1545 C   0  0  0  0  0  0  0  0  0  0  0  0
  -29.3279  -32.1468   26.0678 C   0  0  0  0  0  0  0  0  0  0  0  0
  -26.4342  -12.5308   21.5589 C   0  0  0  0  0  0  0  0  0  0  0  0
  -26.1371  -13.3292   19.2981 C   0  0  0  0  0  0  0  0  0  0  0  0
  -27.9474  -33.0958   27.8025 C   0  0  0  0  0  0  0  0  0  0  0  0
  -28.2468  -31.3832   25.6291 C   0  0  0  0  0  0  0  0  0  0  0  0
  -26.9446  -29.8227   19.8520 C   0  0  0  0  0  0  0  0  0  0  0  0
  -25.1752  -11.9321   21.5130 C   0  0  0  0  0  0  0  0  0  0  0  0
  -24.8780  -12.7305   19.2522 C   0  0  0  0  0  0  0  0  0  0  0  0
  -27.1773  -28.6595   19.1194 C   0  0  0  0  0  0  0  0  0  0  0  0
  -23.7966   -9.1264   20.2245 C   0  0  0  0  0  0  0  0  0  0  0  0
  -23.6796   -7.8247   20.7118 C   0  0  0  0  0  0  0  0  0  0  0  0
  -24.9484  -27.8953   19.6362 C   0  0  0  0  0  0  0  0  0  0  0  0
  -22.0731   -8.5823   22.3497 C   0  0  0  0  0  0  0  0  0  0  0  0
  -27.8342  -22.8439   15.5315 C   0  0  0  0  0  0  0  0  0  0  0  0
  -26.9151  -13.2294   20.4515 C   0  0  0  0  0  0  0  0  0  0  0  0
  -29.4458  -13.2706   20.1326 C   0  0  0  0  0  0  0  0  0  0  0  0
  -26.8480  -32.3402   27.3656 C   0  0  0  0  0  0  0  0  0  0  0  0
  -25.7138  -30.0262   20.4924 C   0  0  0  0  0  0  0  0  0  0  0  0
  -27.0003  -31.4655   26.2728 C   0  0  0  0  0  0  0  0  0  0  0  0
  -24.7017  -29.0630   20.3742 C   0  0  0  0  0  0  0  0  0  0  0  0
  -24.3971  -12.0320   20.3596 C   0  0  0  0  0  0  0  0  0  0  0  0
  -26.1802  -27.6943   19.0138 C   0  0  0  0  0  0  0  0  0  0  0  0
  -23.0519  -10.1561   20.7998 C   0  0  0  0  0  0  0  0  0  0  0  0
  -22.8178   -7.5526   21.7744 C   0  0  0  0  0  0  0  0  0  0  0  0
  -22.1902   -9.8840   21.8623 C   0  0  0  0  0  0  0  0  0  0  0  0
  -28.2153  -13.8485   20.4986 C   0  0  0  0  0  0  0  0  0  0  0  0
  -27.7071  -24.0704   14.9119 C   0  0  0  0  0  0  0  0  0  0  0  0
  -27.9088  -22.8759   16.9091 C   0  0  0  0  0  0  0  0  0  0  0  0
  -30.3708  -14.2602   20.3596 C   0  0  0  0  0  0  0  0  0  0  0  0
  -27.7380  -25.1426   16.9161 C   0  0  0  0  0  0  0  0  0  0  0  0
  -29.7273  -11.9569   19.6321 C   0  0  0  0  0  0  0  0  0  0  0  0
  -24.7901  -30.3973   23.5111 C   0  0  0  0  0  0  0  0  0  0  0  0
  -21.9036  -30.9740   22.1482 C   0  0  0  0  0  0  0  0  0  0  0  0
  -19.8258  -30.5507   19.4742 C   0  0  0  0  0  0  0  0  0  0  0  0
  -29.9520  -20.2250   20.5714 C   0  0  0  0  0  0  0  0  0  0  0  0
  -25.5501  -32.4394   28.1274 C   0  0  0  0  0  0  0  0  0  0  0  0
  -25.4691  -31.2984   21.2566 C   0  0  0  0  0  0  0  0  0  0  0  0
  -23.3558  -29.2429   21.0259 C   0  0  0  0  0  0  0  0  0  0  0  0
  -24.3527  -31.8761   27.3664 C   0  0  0  0  0  0  0  0  0  0  0  0
  -31.1946  -18.0802   23.0891 C   0  0  0  0  0  0  0  0  0  0  0  0
  -24.6956  -30.5189   26.7605 C   0  0  0  0  0  0  0  0  0  0  0  0
  -26.4447  -24.8134   12.7839 C   0  0  0  0  0  0  0  0  0  0  0  0
  -26.5544  -23.3219   12.7234 C   0  0  0  0  0  0  0  0  0  0  0  0
  -30.6638  -16.7018   22.7050 C   0  0  0  0  0  0  0  0  0  0  0  0
  -26.9631  -21.2722   18.7211 C   0  0  0  0  0  0  0  0  0  0  0  0
  -30.1631  -19.1598   22.7898 C   0  0  0  0  0  0  0  0  0  0  0  0
  -27.5976  -20.1727   19.5621 C   0  0  0  0  0  0  0  0  0  0  0  0
  -29.3208  -21.4825   18.5338 C   0  0  0  0  0  0  0  0  0  0  0  0
  -29.2144  -17.8188   20.9318 C   0  0  0  0  0  0  0  0  0  0  0  0
  -25.8443  -30.6394   25.7519 C   0  0  1  0  0  0  0  0  0  0  0  0
  -27.6203  -24.1230   13.4238 C   0  0  0  0  0  0  0  0  0  0  0  0
  -28.0498  -21.5810   17.6784 C   0  0  2  0  0  0  0  0  0  0  0  0
  -24.3593  -31.1676   22.2951 C   0  0  1  0  0  0  0  0  0  0  0  0
  -30.2149  -16.6845   21.2356 C   0  0  2  0  0  0  0  0  0  0  0  0
  -17.5154  -31.1061   18.6674 C   0  0  0  0  0  0  0  0  0  0  0  0
  -20.7503  -28.8202   23.9760 C   0  0  0  0  0  0  0  0  0  0  0  0
  -18.7277  -28.7506   22.5019 C   0  0  0  0  0  0  0  0  0  0  0  0
  -19.3113  -30.8493   23.7176 C   0  0  0  0  0  0  0  0  0  0  0  0
  -20.8734  -32.0789   17.1663 C   0  0  0  0  0  0  0  0  0  0  0  0
  -27.6847  -26.4190   17.6849 C   0  0  0  0  0  0  0  0  0  1  0  0
  -20.7214  -30.1247   21.7481 C   0  0  1  0  0  0  0  0  0  0  0  0
  -18.9738  -31.5361   18.6946 C   0  0  2  0  0  0  0  0  0  0  0  0
  -19.9036  -29.6316   22.9751 C   0  0  0  0  0  0  0  0  0  0  0  0
  -28.3437  -15.1074   20.9258 N   0  0  0  0  0  0  0  0  0  0  0  0
  -27.6556  -25.2439   15.5758 N   0  0  0  0  0  0  0  0  0  0  0  0
  -27.8638  -24.0115   17.6361 N   0  0  0  0  0  0  0  0  0  0  0  0
  -29.6658  -15.3288   20.8298 N   0  0  0  0  0  0  0  0  0  0  0  0
  -23.1672  -30.5007   21.7674 N   0  0  0  0  0  0  0  0  0  0  0  0
  -29.7207  -19.1174   21.3947 N   0  0  0  0  0  0  0  0  0  0  0  0
  -29.0225  -20.4974   19.5684 N   0  0  0  0  0  0  0  0  0  0  0  0
  -31.7105  -14.3117   20.2010 N   0  0  0  0  0  0  0  0  0  0  0  0
  -28.6601  -11.0652   19.4583 N   0  0  0  0  0  0  0  0  0  0  0  0
  -25.3617  -31.1775   24.4981 N   0  0  0  0  0  0  0  0  0  0  0  0
  -19.9514  -30.9190   20.7970 N   0  0  0  0  0  0  0  0  0  0  0  0
  -19.4589  -31.6419   17.2895 N   0  3  0  0  0  0  0  0  0  0  0  0
  -30.8929  -11.5793   19.3630 O   0  0  0  0  0  0  0  0  0  0  0  0
  -24.6155  -29.1850   23.5516 O   0  0  0  0  0  0  0  0  0  0  0  0
  -21.7124  -32.0225   22.7692 O   0  0  0  0  0  0  0  0  0  0  0  0
  -20.3265  -29.5521   18.9618 O   0  0  0  0  0  0  0  0  0  0  0  0
  -30.9278  -20.9663   20.7503 O   0  0  0  0  0  0  0  0  0  0  0  0
  -23.1686  -11.4477   20.3144 O   0  0  0  0  0  0  0  0  0  0  0  0
  -26.4065  -26.5500   18.2950 O   0  0  0  0  0  0  0  0  0  1  0  0
  -22.7044   -6.3023   22.2412 F   0  0  0  0  0  0  0  0  0  0  0  0
  -21.4713  -10.8688   22.4183 F   0  0  0  0  0  0  0  0  0  0  0  0
  1  2  1  0  0  0  0
  1  5  2  0  0  0  0
  2  6  2  0  0  0  0
  3  8  2  0  0  0  0
  3 16  1  0  0  0  0
  4  9  1  0  0  0  0
  4 16  2  0  0  0  0
  5 18  1  0  0  0  0
  6 20  1  0  0  0  0
  7 10  2  0  0  0  0
  7 19  1  0  0  0  0
  8 22  1  0  0  0  0
  9 22  2  0  0  0  0
 10 23  1  0  0  0  0
 11 12  2  0  0  0  0
 11 24  1  0  0  0  0
 12 25  1  0  0  0  0
 13 21  1  0  0  0  0
 13 23  2  0  0  0  0
 14 25  2  0  0  0  0
 14 26  1  0  0  0  0
 15 28  1  0  0  0  0
 15 29  2  0  0  0  0
 16 27  1  0  0  0  0
 17 27  1  0  0  0  0
 17 30  2  0  0  0  0
 17 32  1  0  0  0  0
 18 20  2  0  0  0  0
 18 37  1  0  0  0  0
 19 21  2  0  0  0  0
 19 38  1  0  0  0  0
 20 51  1  0  0  0  0
 21 39  1  0  0  0  0
 22 82  1  0  0  0  0
 23 83  1  0  0  0  0
 24 26  2  0  0  0  0
 24 82  1  0  0  0  0
 25 84  1  0  0  0  0
 26 85  1  0  0  0  0
 27 65  2  0  0  0  0
 28 52  1  0  0  0  0
 28 66  2  0  0  0  0
 29 53  1  0  0  0  0
 29 67  1  0  0  0  0
 30 68  1  0  0  0  0
 30 72  1  0  0  0  0
 31 61  1  0  0  0  0
 31 66  1  0  0  0  0
 31 67  2  0  0  0  0
 32 73  1  0  0  0  0
 32 77  2  0  0  0  0
 33 54  1  0  0  0  0
 33 74  1  0  0  0  0
 33 78  2  0  0  0  0
 34 62  1  0  0  0  0
 34 69  1  0  0  0  0
 34 79  2  0  0  0  0
 35 63  1  0  0  0  0
 35 75  1  0  0  0  0
 35 80  2  0  0  0  0
 36 70  1  0  0  0  0
 36 71  1  0  0  0  0
 36 81  2  0  0  0  0
 37 40  1  0  0  0  0
 38 54  1  0  0  0  0
 39 69  1  0  0  0  0
 40 42  1  0  0  0  0
 41 45  1  0  0  0  0
 41 47  1  0  0  0  0
 42 51  1  0  0  0  0
 43 44  1  0  0  0  0
 43 52  1  0  0  0  0
 44 52  1  0  0  0  0
 45 55  1  0  0  0  0
 46 48  1  0  0  0  0
 46 53  1  0  0  0  0
 47 70  1  0  0  0  0
 48 71  1  0  0  0  0
 49 53  1  0  0  0  0
 49 71  1  0  0  0  0
 50 55  1  0  0  0  0
 50 70  1  0  0  0  0
 51 74  1  0  0  0  0
 54 69  1  0  0  0  0
 55 68  1  0  0  0  0
 56 63  1  0  0  0  0
 57 64  1  0  0  0  0
 58 64  1  0  0  0  0
 59 64  1  0  0  0  0
 60 76  1  0  0  0  0
 61 83  1  0  0  0  0
 62 64  1  0  0  0  0
 62 75  1  0  0  0  0
 63 76  1  0  0  0  0
 65 68  1  0  0  0  0
M  CHG  1  76   1
M  ISO  4  36 100  61 101  71 100  83 101
M  END
> <Batch ID>
0195

> <Smiles>
CNC(C)C(=O)NC(C(=O)N1Cc2cc([101O:1][101CH2:1]c3nc(C4CC4)cc(C4CC[100N:0]([100C:0](=O)N5CCCC(n6nc(-c7ccc(Oc8ccc(F)cc8F)cc7)c(C(N)=O)c6N)C5)C4)n3)ccc2CC1C(=O)NC1CCCc2ccccc21)C(C)(C)C

> <Shape>
0.315

> <Color>
0.082

> <Negative vol penalty>
0.000

$$$$

  -OEChem-04052323373D

 83 92  0     1  0  0  0  0  0999 V2000
  -26.7176  -37.8548   21.9444 C   0  0  0  0  0  0  0  0  0  0  0  0
  -27.3316  -36.7020   21.4653 C   0  0  0  0  0  0  0  0  0  0  0  0
  -23.2889  -10.0175   21.9816 C   0  0  0  0  0  0  0  0  0  0  0  0
  -24.1461   -8.5466   20.2674 C   0  0  0  0  0  0  0  0  0  0  0  0
  -25.8024  -37.7715   22.9929 C   0  0  0  0  0  0  0  0  0  0  0  0
  -27.0316  -35.4653   22.0353 C   0  0  0  0  0  0  0  0  0  0  0  0
  -26.7331  -30.0638   19.1647 C   0  0  0  0  0  0  0  0  0  0  0  0
  -21.9936   -9.5746   21.7140 C   0  0  0  0  0  0  0  0  0  0  0  0
  -22.8507   -8.1036   19.9998 C   0  0  0  0  0  0  0  0  0  0  0  0
  -27.6423  -29.0136   19.0452 C   0  0  0  0  0  0  0  0  0  0  0  0
  -20.6243   -5.9548   21.3585 C   0  0  0  0  0  0  0  0  0  0  0  0
  -20.4286   -4.5820   21.2079 C   0  0  0  0  0  0  0  0  0  0  0  0
  -26.5736  -27.8864   20.8909 C   0  0  0  0  0  0  0  0  0  0  0  0
  -19.6146   -4.9446   18.9622 C   0  0  0  0  0  0  0  0  0  0  0  0
  -24.3652   -9.5035   21.2583 C   0  0  0  0  0  0  0  0  0  0  0  0
  -26.6150   -9.4154   22.4575 C   0  0  0  0  0  0  0  0  0  0  0  0
  -25.4838  -36.5319   23.5696 C   0  0  0  0  0  0  0  0  0  0  0  0
  -25.7425  -30.0382   20.1569 C   0  0  0  0  0  0  0  0  0  0  0  0
  -26.1123  -35.3655   23.0935 C   0  0  0  0  0  0  0  0  0  0  0  0
  -25.6515  -28.9363   21.0193 C   0  0  0  0  0  0  0  0  0  0  0  0
  -21.7745   -8.6177   20.7231 C   0  0  0  0  0  0  0  0  0  0  0  0
  -27.5644  -27.9260   19.9102 C   0  0  0  0  0  0  0  0  0  0  0  0
  -20.3151   -6.8225   20.3110 C   0  0  0  0  0  0  0  0  0  0  0  0
  -19.9238   -4.0769   20.0097 C   0  0  0  0  0  0  0  0  0  0  0  0
  -19.8103   -6.3174   19.1129 C   0  0  0  0  0  0  0  0  0  0  0  0
  -25.7034   -9.9610   21.5338 C   0  0  0  0  0  0  0  0  0  0  0  0
  -27.7346  -10.2025   22.3407 C   0  0  0  0  0  0  0  0  0  0  0  0
  -26.4634   -8.2971   23.3418 C   0  0  0  0  0  0  0  0  0  0  0  0
  -25.0311  -31.8585   22.6638 C   0  0  0  0  0  0  0  0  0  0  0  0
  -22.4366  -29.9197   22.8429 C   0  0  0  0  0  0  0  0  0  0  0  0
  -28.7417  -24.5329   19.3950 C   0  0  0  0  0  0  0  0  0  0  0  0
  -21.0192  -26.9018   22.1149 C   0  0  0  0  0  0  0  0  0  0  0  0
  -28.6285  -15.6968   20.7816 C   0  0  0  0  0  0  0  0  0  0  0  0
  -24.5239  -36.4975   24.7324 C   0  0  0  0  0  0  0  0  0  0  0  0
  -24.7527  -31.1665   20.2556 C   0  0  0  0  0  0  0  0  0  0  0  0
  -24.5939  -28.8511   22.0883 C   0  0  0  0  0  0  0  0  0  0  0  0
  -23.9798  -35.1031   25.0321 C   0  0  0  0  0  0  0  0  0  0  0  0
  -30.0964  -12.9247   19.2013 C   0  0  0  0  0  0  0  0  0  0  0  0
  -25.1104  -34.0792   25.0396 C   0  0  0  0  0  0  0  0  0  0  0  0
  -29.2187  -11.7832   19.7136 C   0  0  0  0  0  0  0  0  0  0  0  0
  -28.3461  -21.5458   17.8603 C   0  0  0  0  0  0  0  0  0  0  0  0
  -29.2765  -14.1712   18.8641 C   0  0  0  0  0  0  0  0  0  0  0  0
  -29.0779  -17.1105   18.7263 C   0  0  0  0  0  0  0  0  0  0  0  0
  -29.7622  -17.8904   20.9666 C   0  0  0  0  0  0  0  0  0  0  0  0
  -27.5327  -13.4955   20.4831 C   0  0  0  0  0  0  0  0  0  0  0  0
  -28.2525  -18.3777   18.5262 C   0  0  0  0  0  0  0  0  0  0  0  0
  -28.9315  -19.1540   20.8124 C   0  0  0  0  0  0  0  0  0  0  0  0
  -25.7944  -34.0026   23.6692 C   0  0  1  0  0  0  0  0  0  0  0  0
  -24.1062  -31.2755   21.6331 C   0  0  1  0  0  0  0  0  0  0  0  0
  -28.3352  -12.2483   20.8848 C   0  0  1  0  0  0  0  0  0  0  0  0
  -28.8759  -22.0732   19.1679 C   0  0  2  0  0  0  0  0  0  0  0  0
  -28.0868  -20.7908   19.1312 C   0  0  2  0  0  0  0  0  0  0  0  0
  -18.8990  -25.5954   22.4237 C   0  0  0  0  0  0  0  0  0  0  0  0
  -23.1912  -29.3871   25.7510 C   0  0  0  0  0  0  0  0  0  0  0  0
  -21.6587  -27.4076   25.7133 C   0  0  0  0  0  0  0  0  0  0  0  0
  -20.7426  -29.6991   25.3490 C   0  0  0  0  0  0  0  0  0  0  0  0
  -20.5791  -26.7036   19.1949 C   0  0  0  0  0  0  0  0  0  0  0  0
  -28.0124  -25.6054   20.1748 C   0  0  0  0  0  0  0  0  0  1  0  0
  -22.1239  -28.6129   23.5312 C   0  0  1  0  0  0  0  0  0  0  0  0
  -19.6719  -26.5399   21.5163 C   0  0  2  0  0  0  0  0  0  0  0  0
  -21.9504  -28.7789   25.0673 C   0  0  0  0  0  0  0  0  0  0  0  0
  -26.2007  -11.0134   20.8787 N   0  0  0  0  0  0  0  0  0  0  0  0
  -27.4369  -11.1355   21.3915 N   0  0  0  0  0  0  0  0  0  0  0  0
  -23.6532  -29.9820   22.1488 N   0  0  0  0  0  0  0  0  0  0  0  0
  -28.4208  -14.5531   19.9961 N   0  0  0  0  0  0  0  0  0  0  0  0
  -29.2254  -16.8002   20.1540 N   0  0  0  0  0  0  0  0  0  0  0  0
  -28.9347  -10.1806   22.9585 N   0  0  0  0  0  0  0  0  0  0  0  0
  -25.2480   -7.5992   23.3341 N   0  0  0  0  0  0  0  0  0  0  0  0
  -24.9871  -33.2373   22.7435 N   0  0  0  0  0  0  0  0  0  0  0  0
  -28.3386  -23.2475   19.7572 N   0  0  0  0  0  0  0  0  0  0  0  0
  -20.9543  -28.0643   22.8535 N   0  0  0  0  0  0  0  0  0  0  0  0
  -28.8399  -19.4984   19.3462 N   0  3  0  0  0  0  0  0  0  0  0  0
  -19.8538  -25.8772   20.1939 N   0  3  0  0  0  0  0  0  0  0  0  0
  -27.3727   -7.9379   24.1278 O   0  0  0  0  0  0  0  0  0  0  0  0
  -25.7316  -31.1125   23.3379 O   0  0  0  0  0  0  0  0  0  0  0  0
  -21.6278  -30.8485   22.9125 O   0  0  0  0  0  0  0  0  0  0  0  0
  -29.5893  -24.7866   18.5432 O   0  0  0  0  0  0  0  0  0  0  0  0
  -22.0275  -26.2193   21.9473 O   0  0  0  0  0  0  0  0  0  0  0  0
  -28.2993  -15.7303   21.9739 O   0  0  0  0  0  0  0  0  0  0  0  0
  -20.5107   -8.1851   20.4619 O   0  0  0  0  0  0  0  0  0  0  0  0
  -28.4602  -26.8892   19.7950 O   0  0  0  0  0  0  0  0  0  1  0  0
  -19.7373   -2.7584   19.8646 F   0  0  0  0  0  0  0  0  0  0  0  0
  -19.5125   -7.1459   18.1026 F   0  0  0  0  0  0  0  0  0  0  0  0
  1  2  1  0  0  0  0
  1  5  2  0  0  0  0
  2  6  2  0  0  0  0
  3  8  2  0  0  0  0
  3 15  1  0  0  0  0
  4  9  1  0  0  0  0
  4 15  2  0  0  0  0
  5 17  1  0  0  0  0
  6 19  1  0  0  0  0
  7 10  2  0  0  0  0
  7 18  1  0  0  0  0
  8 21  1  0  0  0  0
  9 21  2  0  0  0  0
 10 22  1  0  0  0  0
 11 12  2  0  0  0  0
 11 23  1  0  0  0  0
 12 24  1  0  0  0  0
 13 20  1  0  0  0  0
 13 22  2  0  0  0  0
 14 24  2  0  0  0  0
 14 25  1  0  0  0  0
 15 26  1  0  0  0  0
 16 26  1  0  0  0  0
 16 27  2  0  0  0  0
 16 28  1  0  0  0  0
 17 19  2  0  0  0  0
 17 34  1  0  0  0  0
 18 20  2  0  0  0  0
 18 35  1  0  0  0  0
 19 48  1  0  0  0  0
 20 36  1  0  0  0  0
 21 80  1  0  0  0  0
 22 81  1  0  0  0  0
 23 25  2  0  0  0  0
 23 80  1  0  0  0  0
 24 82  1  0  0  0  0
 25 83  1  0  0  0  0
 26 62  2  0  0  0  0
 27 63  1  0  0  0  0
 27 67  1  0  0  0  0
 28 68  1  0  0  0  0
 28 74  2  0  0  0  0
 29 49  1  0  0  0  0
 29 69  1  0  0  0  0
 29 75  2  0  0  0  0
 30 59  1  0  0  0  0
 30 64  1  0  0  0  0
 30 76  2  0  0  0  0
 31 58  1  0  0  0  0
 31 70  1  0  0  0  0
 31 77  2  0  0  0  0
 32 60  1  0  0  0  0
 32 71  1  0  0  0  0
 32 78  2  0  0  0  0
 33 65  1  0  0  0  0
 33 66  1  0  0  0  0
 33 79  2  0  0  0  0
 34 37  1  0  0  0  0
 35 49  1  0  0  0  0
 36 64  1  0  0  0  0
 37 39  1  0  0  0  0
 38 40  1  0  0  0  0
 38 42  1  0  0  0  0
 39 48  1  0  0  0  0
 40 50  1  0  0  0  0
 41 51  1  0  0  0  0
 41 52  1  0  0  0  0
 42 65  1  0  0  0  0
 43 46  1  0  0  0  0
 43 66  1  0  0  0  0
 44 47  1  0  0  0  0
 44 66  1  0  0  0  0
 45 50  1  0  0  0  0
 45 65  1  0  0  0  0
 46 72  1  0  0  0  0
 47 72  1  0  0  0  0
 48 69  1  0  0  0  0
 49 64  1  0  0  0  0
 50 63  1  0  0  0  0
 51 52  1  0  0  0  0
 51 70  1  0  0  0  0
 52 72  1  0  0  0  0
 53 60  1  0  0  0  0
 54 61  1  0  0  0  0
 55 61  1  0  0  0  0
 56 61  1  0  0  0  0
 57 73  1  0  0  0  0
 58 81  1  0  0  0  0
 59 61  1  0  0  0  0
 59 71  1  0  0  0  0
 60 73  1  0  0  0  0
 62 63  1  0  0  0  0
M  CHG  2  72   1  73   1
M  ISO  4  33 100  58 101  66 100  81 101
M  END
> <Batch ID>
0195

> <Smiles>
CNC(C)C(=O)NC(C(=O)N1Cc2cc([101O:1][101CH2:1]C(=O)NC3CC3N3CC[100N:0]([100C:0](=O)N4CCCC(n5nc(-c6ccc(Oc7ccc(F)cc7F)cc6)c(C(N)=O)c5N)C4)CC3)ccc2CC1C(=O)NC1CCCc2ccccc21)C(C)(C)C

> <Shape>
0.323

> <Color>
0.092

> <Negative vol penalty>
0.000

$$$$

  -OEChem-04052323373D

 84 94  0     1  0  0  0  0  0999 V2000
  -28.8053  -18.0532   20.1178 C   0  0  0  0  0  0  0  0  0  0  0  0
  -27.6646  -18.8392   19.9897 C   0  0  0  0  0  0  0  0  0  0  0  0
  -24.9282  -13.9555   23.0879 C   0  0  0  0  0  0  0  0  0  0  0  0
  -25.4489  -15.0104   20.9777 C   0  0  0  0  0  0  0  0  0  0  0  0
  -29.9121  -18.5406   20.8115 C   0  0  0  0  0  0  0  0  0  0  0  0
  -27.6297  -20.1129   20.5563 C   0  0  0  0  0  0  0  0  0  0  0  0
  -24.8654  -26.6319   19.4714 C   0  0  0  0  0  0  0  0  0  0  0  0
  -25.0501  -12.7009   22.4909 C   0  0  0  0  0  0  0  0  0  0  0  0
  -25.5709  -13.7557   20.3806 C   0  0  0  0  0  0  0  0  0  0  0  0
  -24.1208  -27.6093   20.1301 C   0  0  0  0  0  0  0  0  0  0  0  0
  -23.1844  -10.6914   20.5147 C   0  0  0  0  0  0  0  0  0  0  0  0
  -22.2024   -9.7419   20.7971 C   0  0  0  0  0  0  0  0  0  0  0  0
  -18.1800  -26.9822   22.8622 C   0  0  0  0  0  0  0  0  0  0  0  0
  -26.1210  -28.3779   21.2381 C   0  0  0  0  0  0  0  0  0  0  0  0
  -20.3458  -27.2360   21.8384 C   0  0  0  0  0  0  0  0  0  0  0  0
  -23.8861   -8.2752   21.7198 C   0  0  0  0  0  0  0  0  0  0  0  0
  -18.2879  -28.2804   23.3403 C   0  0  0  0  0  0  0  0  0  0  0  0
  -25.1275  -15.1103   22.3313 C   0  0  0  0  0  0  0  0  0  0  0  0
  -26.0178  -17.1540   23.5716 C   0  0  0  0  0  0  0  0  0  0  0  0
  -29.8943  -19.8246   21.3785 C   0  0  0  0  0  0  0  0  0  0  0  0
  -26.2439  -26.5129   19.6997 C   0  0  0  0  0  0  0  0  0  0  0  0
  -28.7369  -20.6174   21.2594 C   0  0  0  0  0  0  0  0  0  0  0  0
  -26.8813  -27.3998   20.5791 C   0  0  0  0  0  0  0  0  0  0  0  0
  -19.2224  -26.4586   22.1036 C   0  0  0  0  0  0  0  0  0  0  0  0
  -25.3715  -12.6009   21.1372 C   0  0  0  0  0  0  0  0  0  0  0  0
  -24.7480  -28.4807   21.0158 C   0  0  0  0  0  0  0  0  0  0  0  0
  -24.5172  -10.4328   20.8347 C   0  0  0  0  0  0  0  0  0  0  0  0
  -22.5532   -8.5338   21.3997 C   0  0  0  0  0  0  0  0  0  0  0  0
  -24.8680   -9.2247   21.4373 C   0  0  0  0  0  0  0  0  0  0  0  0
  -25.0011  -16.4067   22.9474 C   0  0  0  0  0  0  0  0  0  0  0  0
  -20.3989  -28.5278   22.3423 C   0  0  0  0  0  0  0  0  0  0  0  0
  -25.3918  -18.3027   23.9903 C   0  0  0  0  0  0  0  0  0  0  0  0
  -27.4041  -16.8382   23.7563 C   0  0  0  0  0  0  0  0  0  0  0  0
  -28.1361  -24.2423   20.8691 C   0  0  0  0  0  0  0  0  0  0  0  0
  -30.4902  -26.2868   19.9743 C   0  0  0  0  0  0  0  0  0  0  0  0
  -31.4334  -29.4909   19.2736 C   0  0  0  0  0  0  0  0  0  0  0  0
  -20.6148  -21.1272   21.9980 C   0  0  0  0  0  0  0  0  0  0  0  0
  -31.0976  -20.2899   22.1597 C   0  0  0  0  0  0  0  0  0  0  0  0
  -27.0377  -25.4705   18.9610 C   0  0  0  0  0  0  0  0  0  0  0  0
  -28.3623  -27.3269   20.8436 C   0  0  0  0  0  0  0  0  0  0  0  0
  -31.1169  -21.7958   22.4090 C   0  0  0  0  0  0  0  0  0  0  0  0
  -21.1165  -19.9438   25.3800 C   0  0  0  0  0  0  0  0  0  0  0  0
  -29.7519  -22.2743   22.8935 C   0  0  0  0  0  0  0  0  0  0  0  0
  -22.2783  -18.9673   25.1892 C   0  0  0  0  0  0  0  0  0  0  0  0
  -22.2400  -30.0629   23.3064 C   0  0  0  0  0  0  0  0  0  0  0  0
  -20.1480  -19.8893   24.2018 C   0  0  0  0  0  0  0  0  0  0  0  0
  -21.9402  -19.1507   22.6817 C   0  0  0  0  0  0  0  0  0  0  0  0
  -20.2279  -24.2738   21.3644 C   0  0  0  0  0  0  0  0  0  0  0  0
  -18.2393  -24.1435   22.0338 C   0  0  0  0  0  0  0  0  0  0  0  0
  -28.6698  -22.0139   21.8387 C   0  0  1  0  0  0  0  0  0  0  0  0
  -21.5469  -29.4383   22.1181 C   0  0  1  0  0  0  0  0  0  0  0  0
  -28.3448  -25.1088   19.6594 C   0  0  1  0  0  0  0  0  0  0  0  0
  -22.9674  -19.1762   23.8280 C   0  0  2  0  0  0  0  0  0  0  0  0
  -19.2097  -23.1260   21.4174 C   0  0  0  0  0  0  0  0  0  0  0  0
  -22.9350  -28.9920   22.5224 C   0  0  1  0  0  0  0  0  0  1  0  0
  -33.4316  -30.8554   18.6083 C   0  0  0  0  0  0  0  0  0  0  0  0
  -31.5628  -26.1015   22.8248 C   0  0  0  0  0  0  0  0  0  0  0  0
  -32.9259  -28.1519   22.3709 C   0  0  0  0  0  0  0  0  0  0  0  0
  -33.3199  -26.0758   21.0453 C   0  0  0  0  0  0  0  0  0  0  0  0
  -30.1438  -30.3650   16.7573 C   0  0  0  0  0  0  0  0  0  0  0  0
  -31.2234  -27.4284   20.6362 C   0  0  1  0  0  0  0  0  0  0  0  0
  -32.2200  -30.0791   18.1162 C   0  0  2  0  0  0  0  0  0  0  0  0
  -32.2298  -26.9398   21.7160 C   0  0  0  0  0  0  0  0  0  0  0  0
  -23.8190  -17.0282   22.9658 N   0  0  0  0  0  0  0  0  0  0  0  0
  -24.0889  -18.1782   23.6067 N   0  0  0  0  0  0  0  0  0  0  0  0
  -19.3809  -29.0071   23.0701 N   0  3  0  0  0  0  0  0  0  0  0  0
  -19.1404  -25.1424   21.6039 N   0  0  0  0  0  0  0  0  0  0  0  0
  -29.0940  -26.2866   20.1020 N   0  0  0  0  0  0  0  0  0  0  0  0
  -20.8645  -20.1148   22.9382 N   0  0  0  0  0  0  0  0  0  0  0  0
  -25.8343  -19.3968   24.6456 N   0  0  0  0  0  0  0  0  0  0  0  0
  -27.8823  -15.6161   23.2643 N   0  0  0  0  0  0  0  0  0  0  0  0
  -28.7424  -23.0034   20.7851 N   0  0  0  0  0  0  0  0  0  0  0  0
  -31.8316  -28.2020   19.5591 N   0  0  0  0  0  0  0  0  0  0  0  0
  -19.5832  -22.0072   22.3073 N   0  0  0  0  0  0  0  0  0  0  0  0
  -31.3609  -31.0025   17.3223 N   0  3  0  0  0  0  0  0  0  0  0  0
  -28.1917  -17.6095   24.3549 O   0  0  0  0  0  0  0  0  0  0  0  0
  -27.4753  -24.6669   21.8097 O   0  0  0  0  0  0  0  0  0  0  0  0
  -31.1321  -25.4308   19.3605 O   0  0  0  0  0  0  0  0  0  0  0  0
  -30.5562  -30.1139   19.8677 O   0  0  0  0  0  0  0  0  0  0  0  0
  -21.2663  -21.2486   20.9547 O   0  0  0  0  0  0  0  0  0  0  0  0
  -25.4908  -11.3768   20.5543 O   0  0  0  0  0  0  0  0  0  0  0  0
  -24.0235  -29.4352   21.6606 O   0  0  0  0  0  0  0  0  0  1  0  0
  -21.6099   -7.6227   21.6723 F   0  0  0  0  0  0  0  0  0  0  0  0
  -26.1466   -8.9711   21.7481 F   0  0  0  0  0  0  0  0  0  0  0  0
  1  2  1  0  0  0  0
  1  5  2  0  0  0  0
  2  6  2  0  0  0  0
  3  8  2  0  0  0  0
  3 18  1  0  0  0  0
  4  9  1  0  0  0  0
  4 18  2  0  0  0  0
  5 20  1  0  0  0  0
  6 22  1  0  0  0  0
  7 10  2  0  0  0  0
  7 21  1  0  0  0  0
  8 25  1  0  0  0  0
  9 25  2  0  0  0  0
 10 26  1  0  0  0  0
 11 12  2  0  0  0  0
 11 27  1  0  0  0  0
 12 28  1  0  0  0  0
 13 17  2  0  0  0  0
 13 24  1  0  0  0  0
 14 23  1  0  0  0  0
 14 26  2  0  0  0  0
 15 24  2  0  0  0  0
 15 31  1  0  0  0  0
 16 28  2  0  0  0  0
 16 29  1  0  0  0  0
 17 66  1  0  0  0  0
 18 30  1  0  0  0  0
 19 30  1  0  0  0  0
 19 32  2  0  0  0  0
 19 33  1  0  0  0  0
 20 22  2  0  0  0  0
 20 38  1  0  0  0  0
 21 23  2  0  0  0  0
 21 39  1  0  0  0  0
 22 50  1  0  0  0  0
 23 40  1  0  0  0  0
 24 67  1  0  0  0  0
 25 81  1  0  0  0  0
 26 82  1  0  0  0  0
 27 29  2  0  0  0  0
 27 81  1  0  0  0  0
 28 83  1  0  0  0  0
 29 84  1  0  0  0  0
 30 64  2  0  0  0  0
 31 51  1  0  0  0  0
 31 66  2  0  0  0  0
 32 65  1  0  0  0  0
 32 70  1  0  0  0  0
 33 71  1  0  0  0  0
 33 76  2  0  0  0  0
 34 52  1  0  0  0  0
 34 72  1  0  0  0  0
 34 77  2  0  0  0  0
 35 61  1  0  0  0  0
 35 68  1  0  0  0  0
 35 78  2  0  0  0  0
 36 62  1  0  0  0  0
 36 73  1  0  0  0  0
 36 79  2  0  0  0  0
 37 69  1  0  0  0  0
 37 74  1  0  0  0  0
 37 80  2  0  0  0  0
 38 41  1  0  0  0  0
 39 52  1  0  0  0  0
 40 68  1  0  0  0  0
 41 43  1  0  0  0  0
 42 44  1  0  0  0  0
 42 46  1  0  0  0  0
 43 50  1  0  0  0  0
 44 53  1  0  0  0  0
 45 51  1  0  0  0  0
 45 55  1  0  0  0  0
 46 69  1  0  0  0  0
 47 53  1  0  0  0  0
 47 69  1  0  0  0  0
 48 54  1  0  0  0  0
 48 67  1  0  0  0  0
 49 54  1  0  0  0  0
 49 67  1  0  0  0  0
 50 72  1  0  0  0  0
 51 55  1  0  0  0  0
 52 68  1  0  0  0  0
 53 65  1  0  0  0  0
 54 74  1  0  0  0  0
 55 82  1  0  0  0  0
 56 62  1  0  0  0  0
 57 63  1  0  0  0  0
 58 63  1  0  0  0  0
 59 63  1  0  0  0  0
 60 75  1  0  0  0  0
 61 63  1  0  0  0  0
 61 73  1  0  0  0  0
 62 75  1  0  0  0  0
 64 65  1  0  0  0  0
M  CHG  2  66   1  75   1
M  ISO  4  37 100  55 101  74 100  82 101
M  END
> <Batch ID>
0195

> <Smiles>
CNC(C)C(=O)NC(C(=O)N1Cc2cc([101O:1][101CH:1]3CC3c3cc(N4CC([100NH:0][100C:0](=O)N5CCCC(n6nc(-c7ccc(Oc8ccc(F)cc8F)cc7)c(C(N)=O)c6N)C5)C4)ccn3)ccc2CC1C(=O)NC1CCCc2ccccc21)C(C)(C)C

> <Shape>
0.241

> <Color>
0.076

> <Negative vol penalty>
0.000

$$$$

  -OEChem-04052323373D

 88 98  0     1  0  0  0  0  0999 V2000
  -27.4990  -33.6190   20.2911 C   0  0  0  0  0  0  0  0  0  0  0  0
  -27.3190  -32.2610   20.0537 C   0  0  0  0  0  0  0  0  0  0  0  0
  -24.1315  -14.0145   20.8912 C   0  0  0  0  0  0  0  0  0  0  0  0
  -26.5342  -13.8644   21.0941 C   0  0  0  0  0  0  0  0  0  0  0  0
  -26.7401  -34.2583   21.2692 C   0  0  0  0  0  0  0  0  0  0  0  0
  -26.3717  -31.5445   20.7860 C   0  0  0  0  0  0  0  0  0  0  0  0
  -25.0318  -25.6004   20.7841 C   0  0  0  0  0  0  0  0  0  0  0  0
  -24.0818  -12.6792   20.4910 C   0  0  0  0  0  0  0  0  0  0  0  0
  -26.4846  -12.5290   20.6939 C   0  0  0  0  0  0  0  0  0  0  0  0
  -25.4207  -24.4576   21.4817 C   0  0  0  0  0  0  0  0  0  0  0  0
  -23.2865   -9.2074   19.7639 C   0  0  0  0  0  0  0  0  0  0  0  0
  -22.3082   -8.3947   20.3367 C   0  0  0  0  0  0  0  0  0  0  0  0
  -23.5118  -24.7030   22.9360 C   0  0  0  0  0  0  0  0  0  0  0  0
  -23.2369   -8.8198   22.5262 C   0  0  0  0  0  0  0  0  0  0  0  0
  -28.1878  -27.0039   20.7028 C   0  0  0  0  0  0  0  0  0  0  0  0
  -25.3577  -14.6071   21.1927 C   0  0  0  0  0  0  0  0  0  0  0  0
  -25.3300  -16.4841   22.9201 C   0  0  0  0  0  0  0  0  0  0  0  0
  -25.7921  -33.5458   22.0219 C   0  0  0  0  0  0  0  0  0  0  0  0
  -23.8841  -26.3105   21.1647 C   0  0  0  0  0  0  0  0  0  0  0  0
  -25.5791  -32.1769   21.7608 C   0  0  0  0  0  0  0  0  0  0  0  0
  -23.1091  -25.8531   22.2400 C   0  0  0  0  0  0  0  0  0  0  0  0
  -28.2022  -26.7156   22.0523 C   0  0  0  0  0  0  0  0  0  0  0  0
  -25.2583  -11.9365   20.3924 C   0  0  0  0  0  0  0  0  0  0  0  0
  -24.6623  -24.0104   22.5596 C   0  0  0  0  0  0  0  0  0  0  0  0
  -24.2401   -9.8263   20.5722 C   0  0  0  0  0  0  0  0  0  0  0  0
  -22.2834   -8.2009   21.7178 C   0  0  0  0  0  0  0  0  0  0  0  0
  -24.2152   -9.6325   21.9534 C   0  0  0  0  0  0  0  0  0  0  0  0
  -25.4097  -15.9866   21.6056 C   0  0  0  0  0  0  0  0  0  0  0  0
  -28.5895  -25.4335   22.3847 C   0  0  0  0  0  0  0  0  0  0  0  0
  -25.4280  -17.8467   22.7780 C   0  0  0  0  0  0  0  0  0  0  0  0
  -28.8837  -24.9005   20.1947 C   0  0  0  0  0  0  0  0  0  0  0  0
  -25.1809  -15.7776   24.1588 C   0  0  0  0  0  0  0  0  0  0  0  0
  -23.3137  -29.2568   22.2123 C   0  0  0  0  0  0  0  0  0  0  0  0
  -20.2156  -28.3359   21.9376 C   0  0  0  0  0  0  0  0  0  0  0  0
  -17.9477  -25.7872   21.8477 C   0  0  0  0  0  0  0  0  0  0  0  0
  -28.2080  -21.6973   19.6386 C   0  0  0  0  0  0  0  0  0  0  0  0
  -24.9925  -34.2892   23.0627 C   0  0  0  0  0  0  0  0  0  0  0  0
  -23.4633  -27.5261   20.3853 C   0  0  0  0  0  0  0  0  0  0  0  0
  -21.8572  -26.5680   22.6759 C   0  0  0  0  0  0  0  0  0  0  0  0
  -24.3383  -33.3634   24.0830 C   0  0  0  0  0  0  0  0  0  0  0  0
  -24.6994  -21.0248   19.0602 C   0  0  0  0  0  0  0  0  0  0  0  0
  -23.6008  -32.2409   23.3685 C   0  0  0  0  0  0  0  0  0  0  0  0
  -24.5198  -19.6943   19.7935 C   0  0  0  0  0  0  0  0  0  0  0  0
  -26.8952  -21.7853   24.4693 C   0  0  0  0  0  0  0  0  0  0  0  0
  -26.0582  -21.0965   18.3698 C   0  0  0  0  0  0  0  0  0  0  0  0
  -28.5074  -28.9378   23.1734 C   0  0  0  0  0  0  0  0  0  0  0  0
  -27.0438  -19.5407   20.0075 C   0  0  0  0  0  0  0  0  0  0  0  0
  -27.8851  -29.4369   24.4679 C   0  0  0  0  0  0  0  0  0  0  0  0
  -26.6804  -27.5922   23.8377 C   0  0  0  0  0  0  0  0  0  0  0  0
  -24.5762  -31.3706   22.5660 C   0  0  1  0  0  0  0  0  0  0  0  0
  -22.5611  -28.4638   21.1817 C   0  0  1  0  0  0  0  0  0  0  0  0
  -27.2011  -23.2568   24.4204 C   0  0  2  0  0  0  0  0  0  0  0  0
  -25.6983  -19.4155   20.7451 C   0  0  2  0  0  0  0  0  0  0  0  0
  -26.4370  -22.6092   23.2966 C   0  0  2  0  0  0  0  0  0  1  0  0
  -15.4848  -25.3479   21.6515 C   0  0  0  0  0  0  0  0  0  0  0  0
  -19.8339  -29.1927   24.8411 C   0  0  0  0  0  0  0  0  0  0  0  0
  -17.7004  -27.8830   24.8743 C   0  0  0  0  0  0  0  0  0  0  0  0
  -17.9528  -29.8133   23.3145 C   0  0  0  0  0  0  0  0  0  0  0  0
  -18.3042  -24.2447   19.3472 C   0  0  0  0  0  0  0  0  0  0  0  0
  -29.2624  -23.8926   19.1632 C   0  0  0  0  0  0  0  0  0  0  0  0
  -28.5983  -23.7248   24.2030 C   0  0  0  0  0  0  0  0  0  0  0  0
  -19.2129  -27.6712   22.8498 C   0  0  1  0  0  0  0  0  0  0  0  0
  -16.7987  -25.4943   20.8999 C   0  0  2  0  0  0  0  0  0  0  0  0
  -18.6996  -28.6274   23.9631 C   0  0  0  0  0  0  0  0  0  0  0  0
  -28.5238  -26.1171   19.7432 N   0  0  0  0  0  0  0  0  0  0  0  0
  -25.5476  -16.9544   20.6954 N   0  0  0  0  0  0  0  0  0  0  0  0
  -28.9380  -24.4969   21.4783 N   0  0  0  0  0  0  0  0  0  0  0  0
  -25.5552  -18.0737   21.4392 N   0  0  0  0  0  0  0  0  0  0  0  0
  -27.8489  -27.6628   22.9828 N   0  0  3  0  0  0  0  0  0  0  0  0
  -21.4907  -27.7551   21.8861 N   0  0  0  0  0  0  0  0  0  0  0  0
  -27.1374  -20.8404   19.3341 N   0  0  0  0  0  0  0  0  0  0  0  0
  -25.4169  -18.8608   23.6690 N   0  0  0  0  0  0  0  0  0  0  0  0
  -25.0956  -14.3791   24.1243 N   0  0  0  0  0  0  0  0  0  0  0  0
  -28.6241  -25.0812   23.7282 N   0  0  0  0  0  0  0  0  0  0  0  0
  -23.8214  -30.4527   21.7416 N   0  0  0  0  0  0  0  0  0  0  0  0
  -18.1631  -27.1421   21.9858 N   0  0  0  0  0  0  0  0  0  0  0  0
  -28.2271  -22.9054   18.9524 N   0  0  0  0  0  0  0  0  0  0  0  0
  -17.0545  -24.2318   20.1503 N   0  3  0  0  0  0  0  0  0  0  0  0
  -25.1083  -16.3701   25.2621 O   0  0  0  0  0  0  0  0  0  0  0  0
  -23.4243  -28.8170   23.3508 O   0  0  0  0  0  0  0  0  0  0  0  0
  -19.8776  -29.3293   21.2892 O   0  0  0  0  0  0  0  0  0  0  0  0
  -18.5876  -24.9026   22.4122 O   0  0  0  0  0  0  0  0  0  0  0  0
  -29.0802  -21.4095   20.4654 O   0  0  0  0  0  0  0  0  0  0  0  0
  -26.5739  -28.8555   24.5137 O   0  0  0  0  0  0  0  0  0  0  0  0
  -25.2102  -10.6334   20.0022 O   0  0  0  0  0  0  0  0  0  0  0  0
  -25.0400  -22.8956   23.2426 O   0  0  0  0  0  0  0  0  0  1  0  0
  -21.3429   -7.4217   22.2678 F   0  0  0  0  0  0  0  0  0  0  0  0
  -25.1280  -10.2254   22.7352 F   0  0  0  0  0  0  0  0  0  0  0  0
  1  2  1  0  0  0  0
  1  5  2  0  0  0  0
  2  6  2  0  0  0  0
  3  8  2  0  0  0  0
  3 16  1  0  0  0  0
  4  9  1  0  0  0  0
  4 16  2  0  0  0  0
  5 18  1  0  0  0  0
  6 20  1  0  0  0  0
  7 10  2  0  0  0  0
  7 19  1  0  0  0  0
  8 23  1  0  0  0  0
  9 23  2  0  0  0  0
 10 24  1  0  0  0  0
 11 12  2  0  0  0  0
 11 25  1  0  0  0  0
 12 26  1  0  0  0  0
 13 21  1  0  0  0  0
 13 24  2  0  0  0  0
 14 26  2  0  0  0  0
 14 27  1  0  0  0  0
 15 22  1  0  0  0  0
 15 65  2  0  0  0  0
 16 28  1  0  0  0  0
 17 28  1  0  0  0  0
 17 30  2  0  0  0  0
 17 32  1  0  0  0  0
 18 20  2  0  0  0  0
 18 37  1  0  0  0  0
 19 21  2  0  0  0  0
 19 38  1  0  0  0  0
 20 50  1  0  0  0  0
 21 39  1  0  0  0  0
 22 29  2  0  0  0  0
 22 69  1  0  0  0  0
 23 85  1  0  0  0  0
 24 86  1  0  0  0  0
 25 27  2  0  0  0  0
 25 85  1  0  0  0  0
 26 87  1  0  0  0  0
 27 88  1  0  0  0  0
 28 66  2  0  0  0  0
 29 67  1  0  0  0  0
 29 74  1  0  0  0  0
 30 68  1  0  0  0  0
 30 72  1  0  0  0  0
 31 60  1  0  0  0  0
 31 65  1  0  0  0  0
 31 67  2  0  0  0  0
 32 73  1  0  0  0  0
 32 79  2  0  0  0  0
 33 51  1  0  0  0  0
 33 75  1  0  0  0  0
 33 80  2  0  0  0  0
 34 62  1  0  0  0  0
 34 70  1  0  0  0  0
 34 81  2  0  0  0  0
 35 63  1  0  0  0  0
 35 76  1  0  0  0  0
 35 82  2  0  0  0  0
 36 71  1  0  0  0  0
 36 77  1  0  0  0  0
 36 83  2  0  0  0  0
 37 40  1  0  0  0  0
 38 51  1  0  0  0  0
 39 70  1  0  0  0  0
 40 42  1  0  0  0  0
 41 43  1  0  0  0  0
 41 45  1  0  0  0  0
 42 50  1  0  0  0  0
 43 53  1  0  0  0  0
 44 52  1  0  0  0  0
 44 54  1  0  0  0  0
 45 71  1  0  0  0  0
 46 48  1  0  0  0  0
 46 69  1  0  0  0  0
 47 53  1  0  0  0  0
 47 71  1  0  0  0  0
 48 84  1  0  0  0  0
 49 69  1  0  0  0  0
 49 84  1  0  0  0  0
 50 75  1  0  0  0  0
 51 70  1  0  0  0  0
 52 54  1  0  0  0  0
 52 61  1  0  0  0  0
 53 68  1  0  0  0  0
 54 86  1  0  0  0  0
 55 63  1  0  0  0  0
 56 64  1  0  0  0  0
 57 64  1  0  0  0  0
 58 64  1  0  0  0  0
 59 78  1  0  0  0  0
 60 77  1  0  0  0  0
 61 74  1  0  0  0  0
 62 64  1  0  0  0  0
 62 76  1  0  0  0  0
 63 78  1  0  0  0  0
 66 68  1  0  0  0  0
M  CHG  1  78   1
M  ISO  4  36 100  54 101  77 100  86 101
M  END
> <Batch ID>
0195

> <Smiles>
CNC(C)C(=O)NC(C(=O)N1Cc2cc([101O:1][101CH:1]3CC3CNc3nc(C[100NH:0][100C:0](=O)N4CCCC(n5nc(-c6ccc(Oc7ccc(F)cc7F)cc6)c(C(N)=O)c5N)C4)ncc3N3CCOC3)ccc2CC1C(=O)NC1CCCc2ccccc21)C(C)(C)C

> <Shape>
0.246

> <Color>
0.067

> <Negative vol penalty>
0.000

$$$$

  -OEChem-04052323373D

 84 93  0     1  0  0  0  0  0999 V2000
  -22.3474  -37.8795   18.9395 C   0  0  0  0  0  0  0  0  0  0  0  0
  -22.8307  -36.7929   18.2176 C   0  0  0  0  0  0  0  0  0  0  0  0
  -23.6215   -9.7349   22.2171 C   0  0  0  0  0  0  0  0  0  0  0  0
  -24.5966   -8.2268   20.6010 C   0  0  0  0  0  0  0  0  0  0  0  0
  -22.7539  -38.0748   20.2588 C   0  0  0  0  0  0  0  0  0  0  0  0
  -23.7216  -35.9014   18.8143 C   0  0  0  0  0  0  0  0  0  0  0  0
  -25.5343  -28.9710   18.8007 C   0  0  0  0  0  0  0  0  0  0  0  0
  -22.4811   -8.9340   22.2764 C   0  0  0  0  0  0  0  0  0  0  0  0
  -23.4561   -7.4258   20.6604 C   0  0  0  0  0  0  0  0  0  0  0  0
  -26.6527  -28.1506   18.6603 C   0  0  0  0  0  0  0  0  0  0  0  0
  -20.9512   -4.7907   20.6564 C   0  0  0  0  0  0  0  0  0  0  0  0
  -21.1311   -3.4105   20.7468 C   0  0  0  0  0  0  0  0  0  0  0  0
  -27.2236  -28.5437   20.9709 C   0  0  0  0  0  0  0  0  0  0  0  0
  -22.3404   -3.7037   22.8177 C   0  0  0  0  0  0  0  0  0  0  0  0
  -24.6792   -9.3813   21.3793 C   0  0  0  0  0  0  0  0  0  0  0  0
  -27.0135  -10.1026   22.1133 C   0  0  0  0  0  0  0  0  0  0  0  0
  -23.6427  -37.1799   20.8751 C   0  0  0  0  0  0  0  0  0  0  0  0
  -25.2577  -29.5938   20.0263 C   0  0  0  0  0  0  0  0  0  0  0  0
  -24.1414  -36.0857   20.1426 C   0  0  0  0  0  0  0  0  0  0  0  0
  -26.0996  -29.3695   21.1249 C   0  0  0  0  0  0  0  0  0  0  0  0
  -22.3984   -7.7794   21.4981 C   0  0  0  0  0  0  0  0  0  0  0  0
  -27.4992  -27.9391   19.7447 C   0  0  0  0  0  0  0  0  0  0  0  0
  -21.4659   -5.6275   21.6467 C   0  0  0  0  0  0  0  0  0  0  0  0
  -21.8257   -2.8670   21.8274 C   0  0  0  0  0  0  0  0  0  0  0  0
  -22.1605   -5.0840   22.7273 C   0  0  0  0  0  0  0  0  0  0  0  0
  -25.8573  -10.2085   21.3171 C   0  0  0  0  0  0  0  0  0  0  0  0
  -27.8323  -11.1104   21.6656 C   0  0  0  0  0  0  0  0  0  0  0  0
  -27.3200   -9.1759   23.1636 C   0  0  0  0  0  0  0  0  0  0  0  0
  -25.0370  -32.6078   21.0116 C   0  0  0  0  0  0  0  0  0  0  0  0
  -24.0603  -31.2227   23.7774 C   0  0  0  0  0  0  0  0  0  0  0  0
  -24.0530  -28.4694   25.7939 C   0  0  0  0  0  0  0  0  0  0  0  0
  -28.7844  -16.1614   20.1160 C   0  0  0  0  0  0  0  0  0  0  0  0
  -24.0902  -37.4587   22.2881 C   0  0  0  0  0  0  0  0  0  0  0  0
  -24.0324  -30.4545   20.1687 C   0  0  0  0  0  0  0  0  0  0  0  0
  -25.8356  -29.9985   22.4677 C   0  0  0  0  0  0  0  0  0  0  0  0
  -24.7453  -36.2589   22.9675 C   0  0  0  0  0  0  0  0  0  0  0  0
  -27.4900  -14.0833   17.5961 C   0  0  0  0  0  0  0  0  0  0  0  0
  -25.7635  -35.6084   22.0364 C   0  0  0  0  0  0  0  0  0  0  0  0
  -27.0367  -12.8697   18.4070 C   0  0  0  0  0  0  0  0  0  0  0  0
  -30.1931  -22.2400   20.5467 C   0  0  0  0  0  0  0  0  0  0  0  0
  -27.7738  -22.3372   19.8152 C   0  0  0  0  0  0  0  0  0  0  0  0
  -27.1771  -15.3995   18.3101 C   0  0  0  0  0  0  0  0  0  0  0  0
  -27.9007  -18.1995   18.8955 C   0  0  0  0  0  0  0  0  0  0  0  0
  -30.2518  -18.0970   19.6371 C   0  0  0  0  0  0  0  0  0  0  0  0
  -27.2478  -14.2579   20.5034 C   0  0  0  0  0  0  0  0  0  0  0  0
  -30.0587  -23.6324   21.1495 C   0  0  0  0  0  0  0  0  0  0  0  0
  -27.6541  -23.7288   20.4230 C   0  0  0  0  0  0  0  0  0  0  0  0
  -27.6964  -19.4857   19.6896 C   0  0  0  0  0  0  0  0  0  0  0  0
  -30.0773  -19.3631   20.4599 C   0  0  0  0  0  0  0  0  0  0  0  0
  -25.0899  -35.0829   20.7631 C   0  0  1  0  0  0  0  0  0  0  0  0
  -24.1317  -31.4492   21.3212 C   0  0  1  0  0  0  0  0  0  0  0  0
  -27.6019  -12.9191   19.8377 C   0  0  1  0  0  0  0  0  0  0  0  0
  -28.8488  -21.5186   20.5238 C   0  0  0  0  0  0  0  0  0  0  0  0
  -23.2011  -27.6516   28.0081 C   0  0  0  0  0  0  0  0  0  0  0  0
  -26.2242  -32.8342   25.2024 C   0  0  0  0  0  0  0  0  0  0  0  0
  -25.9679  -31.3073   27.1698 C   0  0  0  0  0  0  0  0  0  0  0  0
  -24.0442  -32.7081   26.4215 C   0  0  0  0  0  0  0  0  0  0  0  0
  -22.4602  -26.3248   24.5200 C   0  0  0  0  0  0  0  0  0  0  0  0
  -29.4205  -24.9395   19.0860 C   0  0  0  0  0  0  0  0  0  0  0  0
  -28.5061  -26.0736   18.6667 C   0  0  0  0  0  0  0  0  0  1  0  0
  -24.7493  -30.7226   25.0241 C   0  0  1  0  0  0  0  0  0  0  0  0
  -22.9263  -27.7525   26.5158 C   0  0  2  0  0  0  0  0  0  0  0  0
  -25.2527  -31.8826   25.9288 C   0  0  0  0  0  0  0  0  0  0  0  0
  -25.9311  -11.2051   20.4309 N   0  0  0  0  0  0  0  0  0  0  0  0
  -27.1434  -11.7346   20.6676 N   0  0  0  0  0  0  0  0  0  0  0  0
  -24.6286  -30.8369   22.5550 N   0  0  0  0  0  0  0  0  0  0  0  0
  -27.6997  -15.3839   19.6835 N   0  0  0  0  0  0  0  0  0  0  0  0
  -28.9822  -17.3923   19.4731 N   0  0  0  0  0  0  0  0  0  0  0  0
  -29.0670  -11.5146   22.0322 N   0  0  0  0  0  0  0  0  0  0  0  0
  -26.3666   -8.2041   23.4964 N   0  0  0  0  0  0  0  0  0  0  0  0
  -24.4050  -33.8365   21.0311 N   0  0  0  0  0  0  0  0  0  0  0  0
  -23.8067  -29.8211   25.6777 N   0  0  0  0  0  0  0  0  0  0  0  0
  -29.0096  -20.2193   19.8196 N   0  3  0  0  0  0  0  0  0  0  0  0
  -28.9923  -24.4291   20.4355 N   0  3  0  0  0  0  0  0  0  0  0  0
  -22.7586  -26.3742   25.9745 N   0  3  0  0  0  0  0  0  0  0  0  0
  -28.4004   -9.2192   23.7995 O   0  0  0  0  0  0  0  0  0  0  0  0
  -26.2215  -32.4023   20.7740 O   0  0  0  0  0  0  0  0  0  0  0  0
  -23.0509  -31.9236   23.8841 O   0  0  0  0  0  0  0  0  0  0  0  0
  -25.0534  -27.8889   25.3782 O   0  0  0  0  0  0  0  0  0  0  0  0
  -29.5324  -15.7782   21.0244 O   0  0  0  0  0  0  0  0  0  0  0  0
  -21.2858   -6.9975   21.5560 O   0  0  0  0  0  0  0  0  0  0  0  0
  -28.5997  -27.1335   19.6093 O   0  0  0  0  0  0  0  0  0  1  0  0
  -21.9971   -1.5414   21.9148 F   0  0  0  0  0  0  0  0  0  0  0  0
  -22.6563   -5.8827   23.6824 F   0  0  0  0  0  0  0  0  0  0  0  0
  1  2  1  0  0  0  0
  1  5  2  0  0  0  0
  2  6  2  0  0  0  0
  3  8  2  0  0  0  0
  3 15  1  0  0  0  0
  4  9  1  0  0  0  0
  4 15  2  0  0  0  0
  5 17  1  0  0  0  0
  6 19  1  0  0  0  0
  7 10  2  0  0  0  0
  7 18  1  0  0  0  0
  8 21  1  0  0  0  0
  9 21  2  0  0  0  0
 10 22  1  0  0  0  0
 11 12  2  0  0  0  0
 11 23  1  0  0  0  0
 12 24  1  0  0  0  0
 13 20  1  0  0  0  0
 13 22  2  0  0  0  0
 14 24  2  0  0  0  0
 14 25  1  0  0  0  0
 15 26  1  0  0  0  0
 16 26  1  0  0  0  0
 16 27  2  0  0  0  0
 16 28  1  0  0  0  0
 17 19  2  0  0  0  0
 17 33  1  0  0  0  0
 18 20  2  0  0  0  0
 18 34  1  0  0  0  0
 19 50  1  0  0  0  0
 20 35  1  0  0  0  0
 21 81  1  0  0  0  0
 22 82  1  0  0  0  0
 23 25  2  0  0  0  0
 23 81  1  0  0  0  0
 24 83  1  0  0  0  0
 25 84  1  0  0  0  0
 26 64  2  0  0  0  0
 27 65  1  0  0  0  0
 27 69  1  0  0  0  0
 28 70  1  0  0  0  0
 28 76  2  0  0  0  0
 29 51  1  0  0  0  0
 29 71  1  0  0  0  0
 29 77  2  0  0  0  0
 30 61  1  0  0  0  0
 30 66  1  0  0  0  0
 30 78  2  0  0  0  0
 31 62  1  0  0  0  0
 31 72  1  0  0  0  0
 31 79  2  0  0  0  0
 32 67  1  0  0  0  0
 32 68  1  0  0  0  0
 32 80  2  0  0  0  0
 33 36  1  0  0  0  0
 34 51  1  0  0  0  0
 35 66  1  0  0  0  0
 36 38  1  0  0  0  0
 37 39  1  0  0  0  0
 37 42  1  0  0  0  0
 38 50  1  0  0  0  0
 39 52  1  0  0  0  0
 40 46  1  0  0  0  0
 40 53  1  0  0  0  0
 41 47  1  0  0  0  0
 41 53  1  0  0  0  0
 42 67  1  0  0  0  0
 43 48  1  0  0  0  0
 43 68  1  0  0  0  0
 44 49  1  0  0  0  0
 44 68  1  0  0  0  0
 45 52  1  0  0  0  0
 45 67  1  0  0  0  0
 46 74  1  0  0  0  0
 47 74  1  0  0  0  0
 48 73  1  0  0  0  0
 49 73  1  0  0  0  0
 50 71  1  0  0  0  0
 51 66  1  0  0  0  0
 52 65  1  0  0  0  0
 53 73  1  0  0  0  0
 54 62  1  0  0  0  0
 55 63  1  0  0  0  0
 56 63  1  0  0  0  0
 57 63  1  0  0  0  0
 58 75  1  0  0  0  0
 59 60  1  0  0  0  0
 59 74  1  0  0  0  0
 60 82  1  0  0  0  0
 61 63  1  0  0  0  0
 61 72  1  0  0  0  0
 62 75  1  0  0  0  0
 64 65  1  0  0  0  0
M  CHG  3  73   1  74   1  75   1
M  ISO  4  32 100  60 101  68 100  82 101
M  END
> <Batch ID>
0195

> <Smiles>
CNC(C)C(=O)NC(C(=O)N1Cc2cc([101O:1][101CH2:1]CN3CCC(N4CC[100N:0]([100C:0](=O)N5CCCC(n6nc(-c7ccc(Oc8ccc(F)cc8F)cc7)c(C(N)=O)c6N)C5)CC4)CC3)ccc2CC1C(=O)NC1CCCc2ccccc21)C(C)(C)C

> <Shape>
0.292

> <Color>
0.099

> <Negative vol penalty>
0.000

$$$$

  -OEChem-04052323373D

 93102  0     1  0  0  0  0  0999 V2000
  -17.3912  -32.7651   23.7650 C   0  0  0  0  0  0  0  0  0  0  0  0
  -18.7811  -32.7294   23.7161 C   0  0  0  0  0  0  0  0  0  0  0  0
  -23.2096  -13.1326   19.0160 C   0  0  0  0  0  0  0  0  0  0  0  0
  -25.0531  -12.4878   20.4384 C   0  0  0  0  0  0  0  0  0  0  0  0
  -16.6612  -31.5802   23.6810 C   0  0  0  0  0  0  0  0  0  0  0  0
  -19.4418  -31.5085   23.5844 C   0  0  0  0  0  0  0  0  0  0  0  0
  -24.6449  -30.4491   20.5329 C   0  0  0  0  0  0  0  0  0  0  0  0
  -23.2120  -11.8633   18.4375 C   0  0  0  0  0  0  0  0  0  0  0  0
  -25.0554  -11.2185   19.8599 C   0  0  0  0  0  0  0  0  0  0  0  0
  -25.9706  -30.3369   20.9498 C   0  0  0  0  0  0  0  0  0  0  0  0
  -25.3117   -7.6927   19.0107 C   0  0  0  0  0  0  0  0  0  0  0  0
  -25.4158   -6.5919   19.8609 C   0  0  0  0  0  0  0  0  0  0  0  0
  -25.7382  -27.9370   21.0232 C   0  0  0  0  0  0  0  0  0  0  0  0
  -23.3757   -7.2567   20.9714 C   0  0  0  0  0  0  0  0  0  0  0  0
  -31.9239  -25.4420   16.9773 C   0  0  0  0  0  0  0  0  0  0  0  0
  -24.1302  -13.4448   20.0164 C   0  0  0  0  0  0  0  0  0  0  0  0
  -23.4023  -15.1738   21.7451 C   0  0  0  0  0  0  0  0  0  0  0  0
  -17.3130  -30.3451   23.5385 C   0  0  0  0  0  0  0  0  0  0  0  0
  -23.8513  -29.3048   20.3683 C   0  0  0  0  0  0  0  0  0  0  0  0
  -18.7199  -30.3059   23.4998 C   0  0  0  0  0  0  0  0  0  0  0  0
  -24.4035  -28.0372   20.6017 C   0  0  0  0  0  0  0  0  0  0  0  0
  -31.9816  -26.5837   17.7502 C   0  0  0  0  0  0  0  0  0  0  0  0
  -24.1348  -10.9063   18.8595 C   0  0  0  0  0  0  0  0  0  0  0  0
  -26.5166  -29.0810   21.1978 C   0  0  0  0  0  0  0  0  0  0  0  0
  -24.2396   -8.5756   19.1408 C   0  0  0  0  0  0  0  0  0  0  0  0
  -24.4478   -6.3739   20.8413 C   0  0  0  0  0  0  0  0  0  0  0  0
  -23.2716   -8.3576   20.1212 C   0  0  0  0  0  0  0  0  0  0  0  0
  -24.1287  -14.7559   20.6139 C   0  0  0  0  0  0  0  0  0  0  0  0
  -31.4707  -26.4670   19.0268 C   0  0  0  0  0  0  0  0  0  0  0  0
  -23.7433  -16.4948   21.9035 C   0  0  0  0  0  0  0  0  0  0  0  0
  -30.9431  -24.2848   18.6703 C   0  0  0  0  0  0  0  0  0  0  0  0
  -22.5000  -14.4339   22.5783 C   0  0  0  0  0  0  0  0  0  0  0  0
  -21.1823  -28.2144   21.7066 C   0  0  0  0  0  0  0  0  0  0  0  0
  -21.4434  -25.9159   19.4326 C   0  0  0  0  0  0  0  0  0  0  0  0
  -23.4512  -24.1675   17.2976 C   0  0  0  0  0  0  0  0  0  0  0  0
  -28.4099  -19.6244   20.5411 C   0  0  0  0  0  0  0  0  0  0  0  0
  -16.4830  -29.0864   23.4993 C   0  0  0  0  0  0  0  0  0  0  0  0
  -22.4310  -29.4411   19.8923 C   0  0  0  0  0  0  0  0  0  0  0  0
  -23.5997  -26.7764   20.4202 C   0  0  0  0  0  0  0  0  0  0  0  0
  -17.2465  -27.8691   22.9841 C   0  0  0  0  0  0  0  0  0  0  0  0
  -25.1545  -20.3290   19.4252 C   0  0  0  0  0  0  0  0  0  0  0  0
  -18.6138  -27.7739   23.6537 C   0  0  0  0  0  0  0  0  0  0  0  0
  -24.4417  -19.0084   19.7144 C   0  0  0  0  0  0  0  0  0  0  0  0
  -26.5645  -20.1105   18.8742 C   0  0  0  0  0  0  0  0  0  0  0  0
  -29.8760  -23.0305   20.5186 C   0  0  0  0  0  0  0  0  0  0  0  0
  -29.7951  -22.1711   18.1731 C   0  0  0  0  0  0  0  0  0  0  0  0
  -29.8138  -21.5930   21.0280 C   0  0  0  0  0  0  0  0  0  0  0  0
  -29.7472  -20.7500   18.7233 C   0  0  0  0  0  0  0  0  0  0  0  0
  -26.6973  -17.9158   20.0072 C   0  0  0  0  0  0  0  0  0  0  0  0
  -19.4721  -29.0034   23.3325 C   0  0  1  0  0  0  0  0  0  0  0  0
  -21.5621  -28.2402   20.2531 C   0  0  1  0  0  0  0  0  0  0  0  0
  -25.2995  -18.1039   20.6170 C   0  0  2  0  0  0  0  0  0  0  0  0
  -23.3843  -22.3267   15.5934 C   0  0  0  0  0  0  0  0  0  0  0  0
  -27.8102  -28.7626   17.1447 C   0  0  0  0  0  0  0  0  0  0  0  0
  -27.7452  -31.0936   16.2364 C   0  0  0  0  0  0  0  0  0  0  0  0
  -21.2420  -23.8533   21.6720 C   0  0  0  0  0  0  0  0  0  0  0  0
  -22.1194  -22.1364   20.0751 C   0  0  0  0  0  0  0  0  0  0  0  0
  -19.9527  -23.2805   19.6071 C   0  0  0  0  0  0  0  0  0  0  0  0
  -24.3982  -25.9666   15.1468 C   0  0  0  0  0  0  0  0  0  0  0  0
  -32.5618  -27.8433   17.2189 C   0  0  0  0  0  0  0  0  0  0  0  0
  -31.4831  -27.6370   19.9544 C   0  0  0  0  0  0  0  0  0  0  0  0
  -29.5920  -29.5578   15.5001 C   0  0  0  0  0  0  0  0  0  0  0  0
  -30.6049  -28.4555   15.7925 C   0  0  0  0  0  0  0  0  0  0  0  0
  -30.1238  -29.3968   21.0919 C   0  0  0  0  0  0  0  0  0  0  0  0
  -28.7220  -29.9701   21.1596 C   0  0  0  0  0  0  0  0  0  1  0  0
  -22.1143  -24.5661   19.3489 C   0  0  1  0  0  0  0  0  0  0  0  0
  -23.3020  -23.8274   15.8257 C   0  0  2  0  0  0  0  0  0  0  0  0
  -28.6581  -29.9411   16.6650 C   0  0  0  0  0  0  0  0  0  0  0  0
  -21.3719  -23.4828   20.1812 C   0  0  0  0  0  0  0  0  0  0  0  0
  -31.4094  -24.2711   17.4071 N   0  0  0  0  0  0  0  0  0  0  0  0
  -24.8747  -15.7325   20.0906 N   0  0  0  0  0  0  0  0  0  0  0  0
  -30.9417  -25.3286   19.5213 N   0  0  0  0  0  0  0  0  0  0  0  0
  -24.6188  -16.7770   20.8965 N   0  0  0  0  0  0  0  0  0  0  0  0
  -30.4021  -23.0853   19.1503 N   0  0  0  0  0  0  0  0  0  0  0  0
  -22.2138  -26.9623   19.9593 N   0  0  0  0  0  0  0  0  0  0  0  0
  -27.3306  -19.2102   19.7464 N   0  0  0  0  0  0  0  0  0  0  0  0
  -29.1677  -20.7068   20.0674 N   0  0  0  0  0  0  0  0  0  0  0  0
  -23.3765  -17.4309   22.8043 N   0  0  0  0  0  0  0  0  0  0  0  0
  -22.2624  -13.0865   22.2742 N   0  0  0  0  0  0  0  0  0  0  0  0
  -20.0197  -28.9026   21.9967 N   0  0  0  0  0  0  0  0  0  0  0  0
  -22.2282  -24.2543   17.9283 N   0  0  0  0  0  0  0  0  0  0  0  0
  -24.3766  -24.4857   15.0303 N   0  3  0  0  0  0  0  0  0  0  0  0
  -31.5391  -28.8713   16.8695 N   0  3  0  0  0  0  0  0  0  0  0  0
  -30.1451  -28.2652   20.1284 N   0  3  0  0  0  0  0  0  0  0  0  0
  -21.9090  -14.9566   23.5535 O   0  0  0  0  0  0  0  0  0  0  0  0
  -21.8908  -27.6133   22.5056 O   0  0  0  0  0  0  0  0  0  0  0  0
  -20.2810  -26.0390   19.0384 O   0  0  0  0  0  0  0  0  0  0  0  0
  -24.5437  -24.3355   17.8349 O   0  0  0  0  0  0  0  0  0  0  0  0
  -28.6800  -19.0646   21.6109 O   0  0  0  0  0  0  0  0  0  0  0  0
  -24.1373   -9.6676   18.2954 O   0  0  0  0  0  0  0  0  0  0  0  0
  -27.8193  -28.9679   21.6083 O   0  0  0  0  0  0  0  0  0  1  0  0
  -24.5470   -5.3158   21.6567 F   0  0  0  0  0  0  0  0  0  0  0  0
  -22.2388   -9.2016   20.2502 F   0  0  0  0  0  0  0  0  0  0  0  0
  1  2  1  0  0  0  0
  1  5  2  0  0  0  0
  2  6  2  0  0  0  0
  3  8  2  0  0  0  0
  3 16  1  0  0  0  0
  4  9  1  0  0  0  0
  4 16  2  0  0  0  0
  5 18  1  0  0  0  0
  6 20  1  0  0  0  0
  7 10  2  0  0  0  0
  7 19  1  0  0  0  0
  8 23  1  0  0  0  0
  9 23  2  0  0  0  0
 10 24  1  0  0  0  0
 11 12  2  0  0  0  0
 11 25  1  0  0  0  0
 12 26  1  0  0  0  0
 13 21  1  0  0  0  0
 13 24  2  0  0  0  0
 14 26  2  0  0  0  0
 14 27  1  0  0  0  0
 15 22  1  0  0  0  0
 15 70  2  0  0  0  0
 16 28  1  0  0  0  0
 17 28  1  0  0  0  0
 17 30  2  0  0  0  0
 17 32  1  0  0  0  0
 18 20  2  0  0  0  0
 18 37  1  0  0  0  0
 19 21  2  0  0  0  0
 19 38  1  0  0  0  0
 20 50  1  0  0  0  0
 21 39  1  0  0  0  0
 22 29  2  0  0  0  0
 22 60  1  0  0  0  0
 23 90  1  0  0  0  0
 24 91  1  0  0  0  0
 25 27  2  0  0  0  0
 25 90  1  0  0  0  0
 26 92  1  0  0  0  0
 27 93  1  0  0  0  0
 28 71  2  0  0  0  0
 29 61  1  0  0  0  0
 29 72  1  0  0  0  0
 30 73  1  0  0  0  0
 30 78  1  0  0  0  0
 31 70  1  0  0  0  0
 31 72  2  0  0  0  0
 31 74  1  0  0  0  0
 32 79  1  0  0  0  0
 32 85  2  0  0  0  0
 33 51  1  0  0  0  0
 33 80  1  0  0  0  0
 33 86  2  0  0  0  0
 34 66  1  0  0  0  0
 34 75  1  0  0  0  0
 34 87  2  0  0  0  0
 35 67  1  0  0  0  0
 35 81  1  0  0  0  0
 35 88  2  0  0  0  0
 36 76  1  0  0  0  0
 36 77  1  0  0  0  0
 36 89  2  0  0  0  0
 37 40  1  0  0  0  0
 38 51  1  0  0  0  0
 39 75  1  0  0  0  0
 40 42  1  0  0  0  0
 41 43  1  0  0  0  0
 41 44  1  0  0  0  0
 42 50  1  0  0  0  0
 43 52  1  0  0  0  0
 44 76  1  0  0  0  0
 45 47  1  0  0  0  0
 45 74  1  0  0  0  0
 46 48  1  0  0  0  0
 46 74  1  0  0  0  0
 47 77  1  0  0  0  0
 48 77  1  0  0  0  0
 49 52  1  0  0  0  0
 49 76  1  0  0  0  0
 50 80  1  0  0  0  0
 51 75  1  0  0  0  0
 52 73  1  0  0  0  0
 53 67  1  0  0  0  0
 54 68  1  0  0  0  0
 55 68  1  0  0  0  0
 56 69  1  0  0  0  0
 57 69  1  0  0  0  0
 58 69  1  0  0  0  0
 59 82  1  0  0  0  0
 60 83  1  0  0  0  0
 61 84  1  0  0  0  0
 62 63  1  0  0  0  0
 62 68  1  0  0  0  0
 63 83  1  0  0  0  0
 64 65  1  0  0  0  0
 64 84  1  0  0  0  0
 65 91  1  0  0  0  0
 66 69  1  0  0  0  0
 66 81  1  0  0  0  0
 67 82  1  0  0  0  0
 71 73  1  0  0  0  0
M  CHG  3  82   1  83   1  84   1
M  ISO  4  36 100  65 101  77 100  91 101
M  END
> <Batch ID>
0195

> <Smiles>
CNC(C)C(=O)NC(C(=O)N1Cc2cc([101O:1][101CH2:1]CNCc3nc(N4CC[100N:0]([100C:0](=O)N5CCCC(n6nc(-c7ccc(Oc8ccc(F)cc8F)cc7)c(C(N)=O)c6N)C5)CC4)ncc3CNCCC(C)C)ccc2CC1C(=O)NC1CCCc2ccccc21)C(C)(C)C

> <Shape>
0.236

> <Color>
0.067

> <Negative vol penalty>
0.000

$$$$

  -OEChem-04052323373D

 85 95  0     1  0  0  0  0  0999 V2000
  -20.0181  -24.1302   23.1068 C   0  0  0  0  0  0  0  0  0  0  0  0
  -21.1438  -24.5391   22.3991 C   0  0  0  0  0  0  0  0  0  0  0  0
  -26.0369   -8.6333   22.7288 C   0  0  0  0  0  0  0  0  0  0  0  0
  -23.9950   -9.0676   21.5126 C   0  0  0  0  0  0  0  0  0  0  0  0
  -19.0114  -25.0479   23.4039 C   0  0  0  0  0  0  0  0  0  0  0  0
  -21.2630  -25.8659   21.9871 C   0  0  0  0  0  0  0  0  0  0  0  0
  -25.8773  -27.7629   22.8558 C   0  0  0  0  0  0  0  0  0  0  0  0
  -25.3190   -7.8974   23.6714 C   0  0  0  0  0  0  0  0  0  0  0  0
  -23.2771   -8.3316   22.4552 C   0  0  0  0  0  0  0  0  0  0  0  0
  -26.8908  -27.4038   21.9683 C   0  0  0  0  0  0  0  0  0  0  0  0
  -22.6957   -5.0768   23.1544 C   0  0  0  0  0  0  0  0  0  0  0  0
  -21.7509   -4.1665   22.6807 C   0  0  0  0  0  0  0  0  0  0  0  0
  -26.6393  -29.5183   20.8349 C   0  0  0  0  0  0  0  0  0  0  0  0
  -20.0130   -5.3522   23.8686 C   0  0  0  0  0  0  0  0  0  0  0  0
  -28.6573  -22.1340   18.5506 C   0  0  0  0  0  0  0  0  0  0  0  0
  -27.0618  -22.6160   20.1873 C   0  0  0  0  0  0  0  0  0  0  0  0
  -25.3749   -9.2185   21.6494 C   0  0  0  0  0  0  0  0  0  0  0  0
  -26.7153   -9.4969   19.4969 C   0  0  0  0  0  0  0  0  0  0  0  0
  -19.1228  -26.3888   23.0037 C   0  0  0  0  0  0  0  0  0  0  0  0
  -25.2286  -29.0000   22.7326 C   0  0  0  0  0  0  0  0  0  0  0  0
  -20.2562  -26.8022   22.2779 C   0  0  0  0  0  0  0  0  0  0  0  0
  -25.6196  -29.8918   21.7237 C   0  0  0  0  0  0  0  0  0  0  0  0
  -27.6149  -21.6828   19.3344 C   0  0  0  0  0  0  0  0  0  0  0  0
  -23.9390   -7.7465   23.5346 C   0  0  0  0  0  0  0  0  0  0  0  0
  -27.2699  -28.2803   20.9559 C   0  0  0  0  0  0  0  0  0  0  0  0
  -22.2991   -6.1248   23.9852 C   0  0  0  0  0  0  0  0  0  0  0  0
  -20.4096   -4.3042   23.0378 C   0  0  0  0  0  0  0  0  0  0  0  0
  -20.9578   -6.2624   24.3423 C   0  0  0  0  0  0  0  0  0  0  0  0
  -26.1160   -9.9794   20.6757 C   0  0  0  0  0  0  0  0  0  0  0  0
  -27.2905  -10.6056   18.9255 C   0  0  0  0  0  0  0  0  0  0  0  0
  -28.5083  -24.2118   19.4604 C   0  0  0  0  0  0  0  0  0  0  0  0
  -26.7490   -8.1656   18.9657 C   0  0  0  0  0  0  0  0  0  0  0  0
  -22.2386  -29.9184   22.1669 C   0  0  0  0  0  0  0  0  0  0  0  0
  -23.4497  -32.8721   22.7425 C   0  0  0  0  0  0  0  0  0  0  0  0
  -26.1771  -34.9224   22.8101 C   0  0  0  0  0  0  0  0  0  0  0  0
  -26.1216  -16.2655   19.0882 C   0  0  0  0  0  0  0  0  0  0  0  0
  -17.9869  -27.3336   23.3068 C   0  0  0  0  0  0  0  0  0  0  0  0
  -24.1556  -29.3835   23.7144 C   0  0  0  0  0  0  0  0  0  0  0  0
  -24.9685  -31.2402   21.5611 C   0  0  0  0  0  0  0  0  0  0  0  0
  -18.3634  -28.8057   23.1599 C   0  0  0  0  0  0  0  0  0  0  0  0
  -29.1891  -14.8458   20.0440 C   0  0  0  0  0  0  0  0  0  0  0  0
  -19.1232  -29.0349   21.8572 C   0  0  0  0  0  0  0  0  0  0  0  0
  -28.8066  -13.3746   20.2029 C   0  0  0  0  0  0  0  0  0  0  0  0
  -29.0654  -26.4346   18.2669 C   0  0  0  0  0  0  0  0  0  0  0  0
  -28.1070  -15.7810   20.5860 C   0  0  0  0  0  0  0  0  0  0  0  0
  -27.2502  -19.6274   18.0038 C   0  0  0  0  0  0  0  0  0  0  0  0
  -27.1847  -19.5647   20.5014 C   0  0  0  0  0  0  0  0  0  0  0  0
  -26.2706  -18.4575   17.9670 C   0  0  0  0  0  0  0  0  0  0  0  0
  -26.1976  -18.4056   20.4203 C   0  0  0  0  0  0  0  0  0  0  0  0
  -26.3778  -14.0587   20.1842 C   0  0  0  0  0  0  0  0  0  0  0  0
  -20.4334  -28.2384   21.8353 C   0  0  1  0  0  0  0  0  0  0  0  0
  -29.0047  -25.6172   19.5304 C   0  0  1  0  0  0  0  0  0  0  0  0
  -23.2110  -30.4550   23.1789 C   0  0  1  0  0  0  0  0  0  0  0  0
  -27.4203  -13.0956   19.5953 C   0  0  2  0  0  0  0  0  0  0  0  0
  -28.0315  -26.7471   19.3050 C   0  0  1  0  0  0  0  0  0  1  0  0
  -26.8476  -37.2937   23.2841 C   0  0  0  0  0  0  0  0  0  0  0  0
  -22.2887  -33.7348   20.0559 C   0  0  0  0  0  0  0  0  0  0  0  0
  -23.7643  -35.7554   20.1459 C   0  0  0  0  0  0  0  0  0  0  0  0
  -22.0194  -35.4085   21.8946 C   0  0  0  0  0  0  0  0  0  0  0  0
  -27.9704  -34.0969   25.0150 C   0  0  0  0  0  0  0  0  0  0  0  0
  -24.0848  -33.9503   21.8981 C   0  0  1  0  0  0  0  0  0  0  0  0
  -26.6791  -35.8965   23.8606 C   0  0  2  0  0  0  0  0  0  0  0  0
  -23.0504  -34.6861   21.0002 C   0  0  0  0  0  0  0  0  0  0  0  0
  -29.1312  -23.3966   18.5881 N   0  0  0  0  0  0  0  0  0  0  0  0
  -27.4854  -23.8939   20.2766 N   0  0  0  0  0  0  0  0  0  0  0  0
  -26.2940  -11.2923   20.8446 N   0  0  0  0  0  0  0  0  0  0  0  0
  -27.0118  -11.6443   19.7644 N   0  0  0  0  0  0  0  0  0  0  0  0
  -27.1488  -20.3635   19.2686 N   0  0  0  0  0  0  0  0  0  0  0  0
  -23.9202  -31.5666   22.5420 N   0  0  0  0  0  0  0  0  0  0  0  0
  -26.7969  -15.4509   20.0093 N   0  0  0  0  0  0  0  0  0  0  0  0
  -26.3504  -17.6477   19.1767 N   0  0  0  0  0  0  0  0  0  0  0  0
  -28.0024  -10.7836   17.7924 N   0  0  0  0  0  0  0  0  0  0  0  0
  -26.1073   -7.1448   19.6801 N   0  0  0  0  0  0  0  0  0  0  0  0
  -21.4386  -28.8968   22.6420 N   0  0  0  0  0  0  0  0  0  0  0  0
  -24.8019  -34.8228   22.8217 N   0  0  0  0  0  0  0  0  0  0  0  0
  -27.9952  -35.4475   24.3966 N   0  3  0  0  0  0  0  0  0  0  0  0
  -27.3450   -7.8864   17.8978 O   0  0  0  0  0  0  0  0  0  0  0  0
  -22.2148  -30.3969   21.0390 O   0  0  0  0  0  0  0  0  0  0  0  0
  -22.5737  -33.1779   23.5553 O   0  0  0  0  0  0  0  0  0  0  0  0
  -26.9294  -34.3137   22.0525 O   0  0  0  0  0  0  0  0  0  0  0  0
  -25.3622  -15.7889   18.2355 O   0  0  0  0  0  0  0  0  0  0  0  0
  -23.2382   -7.0281   24.4540 O   0  0  0  0  0  0  0  0  0  0  0  0
  -28.2605  -27.9313   20.0860 O   0  0  0  0  0  0  0  0  0  1  0  0
  -19.5022   -3.4309   22.5816 F   0  0  0  0  0  0  0  0  0  0  0  0
  -20.5706   -7.2679   25.1392 F   0  0  0  0  0  0  0  0  0  0  0  0
  1  2  1  0  0  0  0
  1  5  2  0  0  0  0
  2  6  2  0  0  0  0
  3  8  2  0  0  0  0
  3 17  1  0  0  0  0
  4  9  1  0  0  0  0
  4 17  2  0  0  0  0
  5 19  1  0  0  0  0
  6 21  1  0  0  0  0
  7 10  2  0  0  0  0
  7 20  1  0  0  0  0
  8 24  1  0  0  0  0
  9 24  2  0  0  0  0
 10 25  1  0  0  0  0
 11 12  2  0  0  0  0
 11 26  1  0  0  0  0
 12 27  1  0  0  0  0
 13 22  1  0  0  0  0
 13 25  2  0  0  0  0
 14 27  2  0  0  0  0
 14 28  1  0  0  0  0
 15 23  1  0  0  0  0
 15 64  2  0  0  0  0
 16 23  2  0  0  0  0
 16 65  1  0  0  0  0
 17 29  1  0  0  0  0
 18 29  1  0  0  0  0
 18 30  2  0  0  0  0
 18 32  1  0  0  0  0
 19 21  2  0  0  0  0
 19 37  1  0  0  0  0
 20 22  2  0  0  0  0
 20 38  1  0  0  0  0
 21 51  1  0  0  0  0
 22 39  1  0  0  0  0
 23 68  1  0  0  0  0
 24 82  1  0  0  0  0
 25 83  1  0  0  0  0
 26 28  2  0  0  0  0
 26 82  1  0  0  0  0
 27 84  1  0  0  0  0
 28 85  1  0  0  0  0
 29 66  2  0  0  0  0
 30 67  1  0  0  0  0
 30 72  1  0  0  0  0
 31 52  1  0  0  0  0
 31 64  1  0  0  0  0
 31 65  2  0  0  0  0
 32 73  1  0  0  0  0
 32 77  2  0  0  0  0
 33 53  1  0  0  0  0
 33 74  1  0  0  0  0
 33 78  2  0  0  0  0
 34 61  1  0  0  0  0
 34 69  1  0  0  0  0
 34 79  2  0  0  0  0
 35 62  1  0  0  0  0
 35 75  1  0  0  0  0
 35 80  2  0  0  0  0
 36 70  1  0  0  0  0
 36 71  1  0  0  0  0
 36 81  2  0  0  0  0
 37 40  1  0  0  0  0
 38 53  1  0  0  0  0
 39 69  1  0  0  0  0
 40 42  1  0  0  0  0
 41 43  1  0  0  0  0
 41 45  1  0  0  0  0
 42 51  1  0  0  0  0
 43 54  1  0  0  0  0
 44 52  1  0  0  0  0
 44 55  1  0  0  0  0
 45 70  1  0  0  0  0
 46 48  1  0  0  0  0
 46 68  1  0  0  0  0
 47 49  1  0  0  0  0
 47 68  1  0  0  0  0
 48 71  1  0  0  0  0
 49 71  1  0  0  0  0
 50 54  1  0  0  0  0
 50 70  1  0  0  0  0
 51 74  1  0  0  0  0
 52 55  1  0  0  0  0
 53 69  1  0  0  0  0
 54 67  1  0  0  0  0
 55 83  1  0  0  0  0
 56 62  1  0  0  0  0
 57 63  1  0  0  0  0
 58 63  1  0  0  0  0
 59 63  1  0  0  0  0
 60 76  1  0  0  0  0
 61 63  1  0  0  0  0
 61 75  1  0  0  0  0
 62 76  1  0  0  0  0
 66 67  1  0  0  0  0
M  CHG  1  76   1
M  ISO  4  36 100  55 101  71 100  83 101
M  END
> <Batch ID>
0195

> <Smiles>
CNC(C)C(=O)NC(C(=O)N1Cc2cc([101O:1][101CH:1]3CC3c3ncc(N4CC[100N:0]([100C:0](=O)N5CCCC(n6nc(-c7ccc(Oc8ccc(F)cc8F)cc7)c(C(N)=O)c6N)C5)CC4)cn3)ccc2CC1C(=O)NC1CCCc2ccccc21)C(C)(C)C

> <Shape>
0.288

> <Color>
0.102

> <Negative vol penalty>
0.000

$$$$

  -OEChem-04052323373D

 84 93  0     1  0  0  0  0  0999 V2000
  -23.9045  -32.0482   21.5491 C   0  0  0  0  0  0  0  0  0  0  0  0
  -24.7527  -31.3554   22.4070 C   0  0  0  0  0  0  0  0  0  0  0  0
  -23.0577   -9.7823   20.2769 C   0  0  0  0  0  0  0  0  0  0  0  0
  -23.7651  -10.1060   22.5642 C   0  0  0  0  0  0  0  0  0  0  0  0
  -23.7180  -31.5992   20.2424 C   0  0  0  0  0  0  0  0  0  0  0  0
  -25.4141  -30.2125   21.9589 C   0  0  0  0  0  0  0  0  0  0  0  0
  -31.0252  -28.3443   23.5498 C   0  0  0  0  0  0  0  0  0  0  0  0
  -22.2892   -8.6865   20.6696 C   0  0  0  0  0  0  0  0  0  0  0  0
  -22.9966   -9.0101   22.9569 C   0  0  0  0  0  0  0  0  0  0  0  0
  -31.4731  -27.4025   24.4751 C   0  0  0  0  0  0  0  0  0  0  0  0
  -19.2959   -8.1438   22.1454 C   0  0  0  0  0  0  0  0  0  0  0  0
  -17.9998   -8.0462   21.6392 C   0  0  0  0  0  0  0  0  0  0  0  0
  -31.6205  -25.7557   22.7185 C   0  0  0  0  0  0  0  0  0  0  0  0
  -18.5571   -5.9273   20.6209 C   0  0  0  0  0  0  0  0  0  0  0  0
  -23.7957  -10.4921   21.2242 C   0  0  0  0  0  0  0  0  0  0  0  0
  -24.1821  -12.9696   20.7551 C   0  0  0  0  0  0  0  0  0  0  0  0
  -24.3849  -30.4558   19.7751 C   0  0  0  0  0  0  0  0  0  0  0  0
  -30.8610  -27.9952   22.2016 C   0  0  0  0  0  0  0  0  0  0  0  0
  -25.2353  -29.7470   20.6451 C   0  0  0  0  0  0  0  0  0  0  0  0
  -31.1729  -26.6956   21.7776 C   0  0  0  0  0  0  0  0  0  0  0  0
  -22.2587   -8.3004   22.0096 C   0  0  0  0  0  0  0  0  0  0  0  0
  -31.7680  -26.1071   24.0601 C   0  0  0  0  0  0  0  0  0  0  0  0
  -20.2226   -7.1332   21.8893 C   0  0  0  0  0  0  0  0  0  0  0  0
  -17.6304   -6.9379   20.8770 C   0  0  0  0  0  0  0  0  0  0  0  0
  -19.8532   -6.0250   21.1270 C   0  0  0  0  0  0  0  0  0  0  0  0
  -24.5901  -11.6238   20.8191 C   0  0  0  0  0  0  0  0  0  0  0  0
  -25.2945  -13.6452   20.3163 C   0  0  0  0  0  0  0  0  0  0  0  0
  -22.9111  -13.5566   21.0647 C   0  0  0  0  0  0  0  0  0  0  0  0
  -28.3970  -27.8881   20.1964 C   0  0  0  0  0  0  0  0  0  0  0  0
  -30.7011  -27.2077   18.0168 C   0  0  0  0  0  0  0  0  0  0  0  0
  -33.8258  -25.9875   17.3892 C   0  0  0  0  0  0  0  0  0  0  0  0
  -30.7821  -14.6160   20.4756 C   0  0  0  0  0  0  0  0  0  0  0  0
  -24.1150  -29.9818   18.3690 C   0  0  0  0  0  0  0  0  0  0  0  0
  -30.4025  -29.0302   21.2110 C   0  0  0  0  0  0  0  0  0  0  0  0
  -31.0328  -26.2760   20.3379 C   0  0  0  0  0  0  0  0  0  0  0  0
  -25.1433  -28.9763   17.8572 C   0  0  0  0  0  0  0  0  0  0  0  0
  -29.6685  -11.9229   18.4460 C   0  0  0  0  0  0  0  0  0  0  0  0
  -25.4099  -27.9034   18.9083 C   0  0  0  0  0  0  0  0  0  0  0  0
  -28.2159  -11.7136   18.8773 C   0  0  0  0  0  0  0  0  0  0  0  0
  -31.4006  -19.0827   25.0883 C   0  0  0  0  0  0  0  0  0  0  0  0
  -29.5359  -20.2260   23.8164 C   0  0  0  0  0  0  0  0  0  0  0  0
  -30.5589  -12.3014   19.6275 C   0  0  0  0  0  0  0  0  0  0  0  0
  -28.6380  -13.2470   20.8448 C   0  0  0  0  0  0  0  0  0  0  0  0
  -32.2788  -20.3120   24.8860 C   0  0  0  0  0  0  0  0  0  0  0  0
  -30.4288  -21.4464   23.6243 C   0  0  0  0  0  0  0  0  0  0  0  0
  -31.4637  -17.1537   22.7793 C   0  0  0  0  0  0  0  0  0  0  0  0
  -29.9515  -18.1378   21.7303 C   0  0  0  0  0  0  0  0  0  0  0  0
  -25.9897  -28.5172   20.1884 C   0  0  1  0  0  0  0  0  0  0  0  0
  -29.7806  -28.4230   19.9573 C   0  0  1  0  0  0  0  0  0  0  0  0
  -27.6891  -12.9192   19.6791 C   0  0  2  0  0  0  0  0  0  0  0  0
  -30.8757  -16.9611   21.3700 C   0  0  0  0  0  0  0  0  0  0  0  0
  -30.3213  -18.9313   24.0179 C   0  0  0  0  0  0  0  0  0  0  0  0
  -35.4175  -25.5229   15.5056 C   0  0  0  0  0  0  0  0  0  0  0  0
  -30.8961  -23.9413   26.5583 C   0  0  0  0  0  0  0  0  0  0  0  0
  -29.0786  -24.7376   17.2582 C   0  0  0  0  0  0  0  0  0  0  0  0
  -31.1128  -23.8408   16.1067 C   0  0  0  0  0  0  0  0  0  0  0  0
  -30.0730  -25.9679   15.3212 C   0  0  0  0  0  0  0  0  0  0  0  0
  -35.8457  -27.8545   18.4816 C   0  0  0  0  0  0  0  0  0  0  0  0
  -32.2281  -22.7975   24.6978 C   0  0  0  0  0  0  0  0  0  0  0  0
  -31.3480  -25.9438   17.5042 C   0  0  1  0  0  0  0  0  0  0  0  0
  -34.9701  -26.5309   16.5528 C   0  0  2  0  0  0  0  0  0  0  0  0
  -31.4105  -24.0117   25.1265 C   0  0  2  0  0  0  0  0  0  1  0  0
  -30.4040  -25.1296   16.5751 C   0  0  0  0  0  0  0  0  0  0  0  0
  -25.8624  -11.4527   20.4503 N   0  0  0  0  0  0  0  0  0  0  0  0
  -26.2634  -12.6998   20.1503 N   0  0  0  0  0  0  0  0  0  0  0  0
  -30.5750  -27.3221   19.4086 N   0  0  0  0  0  0  0  0  0  0  0  0
  -30.0044  -13.4551   20.3402 N   0  0  0  0  0  0  0  0  0  0  0  0
  -25.5286  -14.9498   20.0601 N   0  0  0  0  0  0  0  0  0  0  0  0
  -21.8768  -12.7182   21.5024 N   0  0  0  0  0  0  0  0  0  0  0  0
  -27.3938  -28.8205   20.0124 N   0  0  0  0  0  0  0  0  0  0  0  0
  -32.5994  -26.3519   16.8750 N   0  0  0  0  0  0  0  0  0  0  0  0
  -30.1856  -15.6724   21.1561 N   0  0  0  0  0  0  0  0  0  0  0  0
  -30.9579  -18.5355   22.7288 N   0  3  0  0  0  0  0  0  0  0  0  0
  -31.4068  -21.5395   24.7712 N   0  3  0  0  0  0  0  0  0  0  0  0
  -36.1371  -26.8563   17.4207 N   0  3  0  0  0  0  0  0  0  0  0  0
  -22.6941  -14.7858   20.9406 O   0  0  0  0  0  0  0  0  0  0  0  0
  -28.2503  -26.7159   20.5221 O   0  0  0  0  0  0  0  0  0  0  0  0
  -30.3280  -28.0653   17.2124 O   0  0  0  0  0  0  0  0  0  0  0  0
  -34.0022  -25.3046   18.3958 O   0  0  0  0  0  0  0  0  0  0  0  0
  -31.9258  -14.7143   20.0178 O   0  0  0  0  0  0  0  0  0  0  0  0
  -21.5088   -7.2313   22.3931 O   0  0  0  0  0  0  0  0  0  0  0  0
  -32.2047  -25.1857   24.9613 O   0  0  0  0  0  0  0  0  0  1  0  0
  -16.3853   -6.8436   20.3923 F   0  0  0  0  0  0  0  0  0  0  0  0
  -20.7388   -5.0504   20.8786 F   0  0  0  0  0  0  0  0  0  0  0  0
  1  2  1  0  0  0  0
  1  5  2  0  0  0  0
  2  6  2  0  0  0  0
  3  8  2  0  0  0  0
  3 15  1  0  0  0  0
  4  9  1  0  0  0  0
  4 15  2  0  0  0  0
  5 17  1  0  0  0  0
  6 19  1  0  0  0  0
  7 10  2  0  0  0  0
  7 18  1  0  0  0  0
  8 21  1  0  0  0  0
  9 21  2  0  0  0  0
 10 22  1  0  0  0  0
 11 12  2  0  0  0  0
 11 23  1  0  0  0  0
 12 24  1  0  0  0  0
 13 20  1  0  0  0  0
 13 22  2  0  0  0  0
 14 24  2  0  0  0  0
 14 25  1  0  0  0  0
 15 26  1  0  0  0  0
 16 26  1  0  0  0  0
 16 27  2  0  0  0  0
 16 28  1  0  0  0  0
 17 19  2  0  0  0  0
 17 33  1  0  0  0  0
 18 20  2  0  0  0  0
 18 34  1  0  0  0  0
 19 48  1  0  0  0  0
 20 35  1  0  0  0  0
 21 81  1  0  0  0  0
 22 82  1  0  0  0  0
 23 25  2  0  0  0  0
 23 81  1  0  0  0  0
 24 83  1  0  0  0  0
 25 84  1  0  0  0  0
 26 64  2  0  0  0  0
 27 65  1  0  0  0  0
 27 68  1  0  0  0  0
 28 69  1  0  0  0  0
 28 76  2  0  0  0  0
 29 49  1  0  0  0  0
 29 70  1  0  0  0  0
 29 77  2  0  0  0  0
 30 60  1  0  0  0  0
 30 66  1  0  0  0  0
 30 78  2  0  0  0  0
 31 61  1  0  0  0  0
 31 71  1  0  0  0  0
 31 79  2  0  0  0  0
 32 67  1  0  0  0  0
 32 72  1  0  0  0  0
 32 80  2  0  0  0  0
 33 36  1  0  0  0  0
 34 49  1  0  0  0  0
 35 66  1  0  0  0  0
 36 38  1  0  0  0  0
 37 39  1  0  0  0  0
 37 42  1  0  0  0  0
 38 48  1  0  0  0  0
 39 50  1  0  0  0  0
 40 44  1  0  0  0  0
 40 52  1  0  0  0  0
 41 45  1  0  0  0  0
 41 52  1  0  0  0  0
 42 67  1  0  0  0  0
 43 50  1  0  0  0  0
 43 67  1  0  0  0  0
 44 74  1  0  0  0  0
 45 74  1  0  0  0  0
 46 51  1  0  0  0  0
 46 73  1  0  0  0  0
 47 51  1  0  0  0  0
 47 73  1  0  0  0  0
 48 70  1  0  0  0  0
 49 66  1  0  0  0  0
 50 65  1  0  0  0  0
 51 72  1  0  0  0  0
 52 73  1  0  0  0  0
 53 61  1  0  0  0  0
 54 62  1  0  0  0  0
 55 63  1  0  0  0  0
 56 63  1  0  0  0  0
 57 63  1  0  0  0  0
 58 75  1  0  0  0  0
 59 62  1  0  0  0  0
 59 74  1  0  0  0  0
 60 63  1  0  0  0  0
 60 71  1  0  0  0  0
 61 75  1  0  0  0  0
 62 82  1  0  0  0  0
 64 65  1  0  0  0  0
M  CHG  3  73   1  74   1  75   1
M  ISO  4  32 100  62 101  72 100  82 101
M  END
> <Batch ID>
0195

> <Smiles>
CNC(C)C(=O)NC(C(=O)N1Cc2cc([101O:1][101CH:1](C)CN3CCC(N4CC([100NH:0][100C:0](=O)N5CCCC(n6nc(-c7ccc(Oc8ccc(F)cc8F)cc7)c(C(N)=O)c6N)C5)C4)CC3)ccc2CC1C(=O)NC1CCCc2ccccc21)C(C)(C)C

> <Shape>
0.264

> <Color>
0.193

> <Negative vol penalty>
0.000

$$$$

  -OEChem-04052323373D

 91101  0     1  0  0  0  0  0999 V2000
  -16.6683  -32.0330   24.5870 C   0  0  0  0  0  0  0  0  0  0  0  0
  -17.4741  -31.5273   23.5720 C   0  0  0  0  0  0  0  0  0  0  0  0
  -22.7376  -10.0678   20.2763 C   0  0  0  0  0  0  0  0  0  0  0  0
  -24.4904   -9.1428   21.6580 C   0  0  0  0  0  0  0  0  0  0  0  0
  -17.2358  -32.7766   25.6209 C   0  0  0  0  0  0  0  0  0  0  0  0
  -18.8479  -31.7657   23.5897 C   0  0  0  0  0  0  0  0  0  0  0  0
  -21.5533  -27.6188   22.5276 C   0  0  0  0  0  0  0  0  0  0  0  0
  -21.7816   -9.4020   21.0433 C   0  0  0  0  0  0  0  0  0  0  0  0
  -23.5344   -8.4770   22.4251 C   0  0  0  0  0  0  0  0  0  0  0  0
  -21.6431  -27.2429   21.1881 C   0  0  0  0  0  0  0  0  0  0  0  0
  -21.6424   -5.6862   22.1751 C   0  0  0  0  0  0  0  0  0  0  0  0
  -21.8856   -4.3512   22.4979 C   0  0  0  0  0  0  0  0  0  0  0  0
  -23.8299  -28.2530   21.0576 C   0  0  0  0  0  0  0  0  0  0  0  0
  -21.8227   -4.9081   24.8480 C   0  0  0  0  0  0  0  0  0  0  0  0
  -24.0921   -9.9381   20.5836 C   0  0  0  0  0  0  0  0  0  0  0  0
  -25.3168  -10.4765   18.4115 C   0  0  0  0  0  0  0  0  0  0  0  0
  -18.6186  -33.0161   25.6565 C   0  0  0  0  0  0  0  0  0  0  0  0
  -22.5983  -28.3253   23.1403 C   0  0  0  0  0  0  0  0  0  0  0  0
  -19.4342  -32.5143   24.6244 C   0  0  0  0  0  0  0  0  0  0  0  0
  -23.7520  -28.6344   22.4058 C   0  0  0  0  0  0  0  0  0  0  0  0
  -22.1800   -8.6067   22.1177 C   0  0  0  0  0  0  0  0  0  0  0  0
  -22.7803  -27.5626   20.4520 C   0  0  0  0  0  0  0  0  0  0  0  0
  -21.4895   -6.6322   23.1887 C   0  0  0  0  0  0  0  0  0  0  0  0
  -21.9757   -3.9621   23.8343 C   0  0  0  0  0  0  0  0  0  0  0  0
  -21.5796   -6.2431   24.5252 C   0  0  0  0  0  0  0  0  0  0  0  0
  -25.0801  -10.6252   19.7913 C   0  0  0  0  0  0  0  0  0  0  0  0
  -26.3492  -11.3423   18.1449 C   0  0  0  0  0  0  0  0  0  0  0  0
  -28.9757  -18.6297   21.2252 C   0  0  0  0  0  0  0  0  0  0  0  0
  -28.3298  -19.5101   20.4104 C   0  0  0  0  0  0  0  0  0  0  0  0
  -24.6619   -9.6314   17.4562 C   0  0  0  0  0  0  0  0  0  0  0  0
  -22.8809  -31.1896   24.4892 C   0  0  0  0  0  0  0  0  0  0  0  0
  -25.8439  -30.1090   25.2479 C   0  0  0  0  0  0  0  0  0  0  0  0
  -29.1136  -29.5167   26.0255 C   0  0  0  0  0  0  0  0  0  0  0  0
  -27.9749  -16.2936   21.0959 C   0  0  0  0  0  0  0  0  0  0  0  0
  -19.1798  -33.8654   26.7693 C   0  0  0  0  0  0  0  0  0  0  0  0
  -22.4973  -28.7000   24.5935 C   0  0  0  0  0  0  0  0  0  0  0  0
  -24.9102  -29.3738   23.0223 C   0  0  0  0  0  0  0  0  0  0  0  0
  -30.0707  -18.8302   22.2481 C   0  0  0  0  0  0  0  0  0  0  0  0
  -27.2519  -19.0302   19.4633 C   0  0  0  0  0  0  0  0  0  0  0  0
  -20.6955  -33.7557   26.9142 C   0  0  0  0  0  0  0  0  0  0  0  0
  -30.1368  -13.4073   20.1417 C   0  0  0  0  0  0  0  0  0  0  0  0
  -21.3715  -33.8683   25.5514 C   0  0  0  0  0  0  0  0  0  0  0  0
  -29.0841  -12.3302   19.9158 C   0  0  0  0  0  0  0  0  0  0  0  0
  -25.7984  -23.4284   16.9669 C   0  0  0  0  0  0  0  0  0  0  0  0
  -29.9759  -17.2965   22.4903 C   0  0  0  0  0  0  0  0  0  0  0  0
  -29.7161  -14.4260   21.2014 C   0  0  0  0  0  0  0  0  0  0  0  0
  -27.3276  -13.9467   20.7095 C   0  0  0  0  0  0  0  0  0  0  0  0
  -25.2141  -24.8155   16.7592 C   0  0  0  0  0  0  0  0  0  0  0  0
  -24.3814  -23.8026   18.8237 C   0  0  0  0  0  0  0  0  0  0  0  0
  -28.3963  -21.7123   19.2290 C   0  0  0  0  0  0  0  0  0  0  0  0
  -20.9320  -32.7307   24.6219 C   0  0  1  0  0  0  0  0  0  0  0  0
  -23.4034  -29.8668   24.9740 C   0  0  1  0  0  0  0  0  0  0  0  0
  -25.7463  -23.2330   18.4750 C   0  0  1  0  0  0  0  0  0  0  0  0
  -27.7303  -12.9749   19.5927 C   0  0  2  0  0  0  0  0  0  0  0  0
  -27.2210  -19.7657   18.1246 C   0  0  2  0  0  0  0  0  0  0  0  0
  -28.3808  -19.3917   17.2024 C   0  0  0  0  0  0  0  0  0  0  0  0
  -29.6118  -22.9696   21.1810 C   0  0  0  0  0  0  0  0  0  0  0  0
  -31.2584  -30.7057   26.5581 C   0  0  0  0  0  0  0  0  0  0  0  0
  -26.1885  -30.8043   22.2970 C   0  0  0  0  0  0  0  0  0  0  0  0
  -28.6389  -31.0913   22.7226 C   0  0  0  0  0  0  0  0  0  0  0  0
  -26.9925  -32.5622   23.8838 C   0  0  0  0  0  0  0  0  0  0  0  0
  -29.2745  -28.2701   28.7048 C   0  0  0  0  0  0  0  0  0  0  0  0
  -25.9107  -21.7841   18.8986 C   0  0  0  0  0  0  0  0  0  0  0  0
  -29.4663  -21.5073   21.4319 C   0  0  0  0  0  0  0  0  0  0  0  0
  -22.8804  -25.3839   17.5596 C   0  0  0  0  0  0  0  0  0  0  0  0
  -22.1840  -26.0111   18.7511 C   0  0  0  0  0  0  0  0  0  1  0  0
  -27.1969  -30.1400   24.5791 C   0  0  1  0  0  0  0  0  0  0  0  0
  -30.0022  -30.0648   27.1275 C   0  0  2  0  0  0  0  0  0  0  0  0
  -27.2412  -31.1249   23.3768 C   0  0  0  0  0  0  0  0  0  0  0  0
  -25.8966  -11.5153   20.3615 N   0  0  0  0  0  0  0  0  0  0  0  0
  -26.6564  -11.9336   19.3349 N   0  0  0  0  0  0  0  0  0  0  0  0
  -28.9096  -17.2147   21.5081 N   0  0  0  0  0  0  0  0  0  0  0  0
  -28.6272  -20.8770   20.4108 N   0  0  3  0  0  0  0  0  0  0  0  0
  -24.7612  -29.7241   24.4445 N   0  0  0  0  0  0  0  0  0  0  0  0
  -28.3650  -14.9519   20.9797 N   0  0  0  0  0  0  0  0  0  0  0  0
  -27.0151  -11.6477   17.0111 N   0  0  0  0  0  0  0  0  0  0  0  0
  -25.1689   -8.3416   17.2469 N   0  0  0  0  0  0  0  0  0  0  0  0
  -21.6215  -31.5047   24.9625 N   0  0  0  0  0  0  0  0  0  0  0  0
  -28.1649  -30.4357   25.6298 N   0  0  0  0  0  0  0  0  0  0  0  0
  -24.2819  -25.0275   17.9386 N   0  3  2  0  0  0  0  0  0  0  0  0
  -27.2278  -21.2613   18.3803 N   0  3  1  0  0  0  0  0  0  0  0  0
  -30.4110  -28.9722   28.0549 N   0  3  0  0  0  0  0  0  0  0  0  0
  -23.6669  -10.0146   16.7955 O   0  0  0  0  0  0  0  0  0  0  0  0
  -23.5701  -31.8743   23.7423 O   0  0  0  0  0  0  0  0  0  0  0  0
  -25.7521  -30.4081   26.4411 O   0  0  0  0  0  0  0  0  0  0  0  0
  -29.2501  -28.3876   25.5595 O   0  0  0  0  0  0  0  0  0  0  0  0
  -26.8036  -16.6385   20.8870 O   0  0  0  0  0  0  0  0  0  0  0  0
  -21.2473   -7.9570   22.8666 O   0  0  0  0  0  0  0  0  0  0  0  0
  -22.8709  -27.1949   19.1348 O   0  0  0  0  0  0  0  0  0  1  0  0
  -22.2077   -2.6798   24.1442 F   0  0  0  0  0  0  0  0  0  0  0  0
  -21.4324   -7.1471   25.5033 F   0  0  0  0  0  0  0  0  0  0  0  0
  1  2  1  0  0  0  0
  1  5  2  0  0  0  0
  2  6  2  0  0  0  0
  3  8  2  0  0  0  0
  3 15  1  0  0  0  0
  4  9  1  0  0  0  0
  4 15  2  0  0  0  0
  5 17  1  0  0  0  0
  6 19  1  0  0  0  0
  7 10  2  0  0  0  0
  7 18  1  0  0  0  0
  8 21  1  0  0  0  0
  9 21  2  0  0  0  0
 10 22  1  0  0  0  0
 11 12  2  0  0  0  0
 11 23  1  0  0  0  0
 12 24  1  0  0  0  0
 13 20  1  0  0  0  0
 13 22  2  0  0  0  0
 14 24  2  0  0  0  0
 14 25  1  0  0  0  0
 15 26  1  0  0  0  0
 16 26  1  0  0  0  0
 16 27  2  0  0  0  0
 16 30  1  0  0  0  0
 17 19  2  0  0  0  0
 17 35  1  0  0  0  0
 18 20  2  0  0  0  0
 18 36  1  0  0  0  0
 19 51  1  0  0  0  0
 20 37  1  0  0  0  0
 21 88  1  0  0  0  0
 22 89  1  0  0  0  0
 23 25  2  0  0  0  0
 23 88  1  0  0  0  0
 24 90  1  0  0  0  0
 25 91  1  0  0  0  0
 26 70  2  0  0  0  0
 27 71  1  0  0  0  0
 27 76  1  0  0  0  0
 28 29  2  0  0  0  0
 28 38  1  0  0  0  0
 28 72  1  0  0  0  0
 29 39  1  0  0  0  0
 29 73  1  0  0  0  0
 30 77  1  0  0  0  0
 30 83  2  0  0  0  0
 31 52  1  0  0  0  0
 31 78  1  0  0  0  0
 31 84  2  0  0  0  0
 32 67  1  0  0  0  0
 32 74  1  0  0  0  0
 32 85  2  0  0  0  0
 33 68  1  0  0  0  0
 33 79  1  0  0  0  0
 33 86  2  0  0  0  0
 34 72  1  0  0  0  0
 34 75  1  0  0  0  0
 34 87  2  0  0  0  0
 35 40  1  0  0  0  0
 36 52  1  0  0  0  0
 37 74  1  0  0  0  0
 38 45  1  0  0  0  0
 39 55  1  0  0  0  0
 40 42  1  0  0  0  0
 41 43  1  0  0  0  0
 41 46  1  0  0  0  0
 42 51  1  0  0  0  0
 43 54  1  0  0  0  0
 44 48  1  0  0  0  0
 44 53  1  0  0  0  0
 45 72  1  0  0  0  0
 46 75  1  0  0  0  0
 47 54  1  0  0  0  0
 47 75  1  0  0  0  0
 48 80  1  0  0  0  0
 49 53  1  0  0  0  0
 49 80  1  0  0  0  0
 50 73  1  0  0  0  0
 50 81  1  0  0  0  0
 51 78  1  0  0  0  0
 52 74  1  0  0  0  0
 53 63  1  0  0  0  0
 54 71  1  0  0  0  0
 55 56  1  0  0  0  0
 55 81  1  0  0  0  0
 57 64  1  0  0  0  0
 58 68  1  0  0  0  0
 59 69  1  0  0  0  0
 60 69  1  0  0  0  0
 61 69  1  0  0  0  0
 62 82  1  0  0  0  0
 63 81  1  0  0  0  0
 64 73  1  0  0  0  0
 65 66  1  0  0  0  0
 65 80  1  0  0  0  0
 66 89  1  0  0  0  0
 67 69  1  0  0  0  0
 67 79  1  0  0  0  0
 68 82  1  0  0  0  0
 70 71  1  0  0  0  0
M  CHG  3  80   1  81   1  82   1
M  ISO  4  34 100  66 101  72 100  89 101
M  END
> <Batch ID>
0195

> <Smiles>
CCN1CN(CC2CCN(C[101CH2:1][101O:1]c3ccc4c(c3)CN(C(=O)C(NC(=O)C(C)NC)C(C)(C)C)C(C(=O)NC3CCCc5ccccc53)C4)C2)C(C)CC1=C1CC[100N:0]1[100C:0](=O)N1CCCC(n2nc(-c3ccc(Oc4ccc(F)cc4F)cc3)c(C(N)=O)c2N)C1

> <Shape>
0.281

> <Color>
0.073

> <Negative vol penalty>
0.000

$$$$

  -OEChem-04052323373D

 84 93  0     1  0  0  0  0  0999 V2000
  -27.8766  -34.5252   26.5546 C   0  0  0  0  0  0  0  0  0  0  0  0
  -28.3622  -33.5437   25.6965 C   0  0  0  0  0  0  0  0  0  0  0  0
  -23.3660   -9.7877   19.8467 C   0  0  0  0  0  0  0  0  0  0  0  0
  -23.9656   -9.8618   22.1859 C   0  0  0  0  0  0  0  0  0  0  0  0
  -26.5886  -34.4173   27.0774 C   0  0  0  0  0  0  0  0  0  0  0  0
  -27.5604  -32.4531   25.3616 C   0  0  0  0  0  0  0  0  0  0  0  0
  -27.4030  -29.5102   19.9932 C   0  0  0  0  0  0  0  0  0  0  0  0
  -22.7428   -8.5557   20.0454 C   0  0  0  0  0  0  0  0  0  0  0  0
  -23.3424   -8.6298   22.3847 C   0  0  0  0  0  0  0  0  0  0  0  0
  -27.9987  -28.3289   19.5532 C   0  0  0  0  0  0  0  0  0  0  0  0
  -20.1927   -7.4668   22.7686 C   0  0  0  0  0  0  0  0  0  0  0  0
  -19.3688   -7.3318   23.8860 C   0  0  0  0  0  0  0  0  0  0  0  0
  -25.9733  -27.1234   20.0669 C   0  0  0  0  0  0  0  0  0  0  0  0
  -20.7702   -5.5414   24.7029 C   0  0  0  0  0  0  0  0  0  0  0  0
  -23.9775  -10.4407   20.9169 C   0  0  0  0  0  0  0  0  0  0  0  0
  -24.0378  -12.9892   20.8217 C   0  0  0  0  0  0  0  0  0  0  0  0
  -25.7671  -33.3298   26.7411 C   0  0  0  0  0  0  0  0  0  0  0  0
  -26.0895  -29.5050   20.4843 C   0  0  0  0  0  0  0  0  0  0  0  0
  -26.2607  -32.3299   25.8815 C   0  0  0  0  0  0  0  0  0  0  0  0
  -25.3624  -28.3064   20.5100 C   0  0  0  0  0  0  0  0  0  0  0  0
  -22.7310   -7.9768   21.3144 C   0  0  0  0  0  0  0  0  0  0  0  0
  -27.2849  -27.1348   19.5927 C   0  0  0  0  0  0  0  0  0  0  0  0
  -21.3053   -6.6390   22.6183 C   0  0  0  0  0  0  0  0  0  0  0  0
  -19.6576   -6.3691   24.8532 C   0  0  0  0  0  0  0  0  0  0  0  0
  -21.5941   -5.6763   23.5855 C   0  0  0  0  0  0  0  0  0  0  0  0
  -24.6219  -11.7130   20.7121 C   0  0  0  0  0  0  0  0  0  0  0  0
  -25.0596  -13.8604   20.5330 C   0  0  0  0  0  0  0  0  0  0  0  0
  -22.6919  -13.3544   21.1546 C   0  0  0  0  0  0  0  0  0  0  0  0
  -24.7350  -30.2024   23.2740 C   0  0  0  0  0  0  0  0  0  0  0  0
  -21.9875  -29.7254   21.6169 C   0  0  0  0  0  0  0  0  0  0  0  0
  -20.4229  -28.2593   18.9619 C   0  0  0  0  0  0  0  0  0  0  0  0
  -30.3603  -15.5016   21.0718 C   0  0  0  0  0  0  0  0  0  0  0  0
  -24.3991  -33.2321   27.3686 C   0  0  0  0  0  0  0  0  0  0  0  0
  -25.4521  -30.7924   20.9301 C   0  0  0  0  0  0  0  0  0  0  0  0
  -23.9424  -28.2508   21.0092 C   0  0  0  0  0  0  0  0  0  0  0  0
  -23.4772  -32.2375   26.6678 C   0  0  0  0  0  0  0  0  0  0  0  0
  -29.6715  -13.0134   18.6333 C   0  0  0  0  0  0  0  0  0  0  0  0
  -24.2100  -30.9264   26.4017 C   0  0  0  0  0  0  0  0  0  0  0  0
  -28.2500  -12.5564   18.9656 C   0  0  0  0  0  0  0  0  0  0  0  0
  -30.4728  -13.3270   19.8949 C   0  0  0  0  0  0  0  0  0  0  0  0
  -28.4118  -13.8266   21.1476 C   0  0  0  0  0  0  0  0  0  0  0  0
  -29.2050  -21.5312   20.5346 C   0  0  0  0  0  0  0  0  0  0  0  0
  -27.7694  -22.8113   21.8698 C   0  0  0  0  0  0  0  0  0  0  0  0
  -29.0571  -18.6052   22.9255 C   0  0  0  0  0  0  0  0  0  0  0  0
  -30.1859  -18.7376   21.1750 C   0  0  0  0  0  0  0  0  0  0  0  0
  -25.4122  -31.1446   25.4751 C   0  0  1  0  0  0  0  0  0  0  0  0
  -24.2861  -30.5804   21.8908 C   0  0  1  0  0  0  0  0  0  0  0  0
  -27.5455  -13.5528   19.9062 C   0  0  2  0  0  0  0  0  0  0  0  0
  -30.1142  -17.6824   22.2932 C   0  0  0  0  0  0  0  0  0  0  0  0
  -28.5959  -20.5661   21.5322 C   0  0  2  0  0  0  0  0  0  0  0  0
  -27.9480  -21.4654   22.5783 C   0  0  2  0  0  0  0  0  0  0  0  0
  -18.1657  -28.0214   17.8913 C   0  0  0  0  0  0  0  0  0  0  0  0
  -29.0135  -23.4032   18.3518 C   0  0  0  0  0  0  0  0  0  0  0  0
  -21.1692  -27.7440   23.7882 C   0  0  0  0  0  0  0  0  0  0  0  0
  -19.4229  -26.8608   22.2265 C   0  0  0  0  0  0  0  0  0  0  0  0
  -19.3272  -29.2343   22.9880 C   0  0  0  0  0  0  0  0  0  0  0  0
  -21.3501  -29.5280   16.4540 C   0  0  0  0  0  0  0  0  0  0  0  0
  -27.4335  -24.7689   19.7839 C   0  0  0  0  0  0  0  0  0  1  0  0
  -21.1043  -28.5348   21.3313 C   0  0  1  0  0  0  0  0  0  0  0  0
  -19.4624  -28.8153   17.9261 C   0  0  2  0  0  0  0  0  0  0  0  0
  -28.5748  -23.7510   19.7745 C   0  0  1  0  0  0  0  0  0  0  0  0
  -20.2833  -28.0938   22.5758 C   0  0  0  0  0  0  0  0  0  0  0  0
  -25.9145  -11.7644   20.3797 N   0  0  0  0  0  0  0  0  0  0  0  0
  -26.1510  -13.0834   20.2777 N   0  0  0  0  0  0  0  0  0  0  0  0
  -23.3653  -29.5348   21.4401 N   0  0  0  0  0  0  0  0  0  0  0  0
  -29.7499  -14.2821   20.7387 N   0  0  0  0  0  0  0  0  0  0  0  0
  -28.1520  -22.5481   20.4755 N   0  0  1  0  0  0  0  0  0  0  0  0
  -25.1219  -15.2077   20.4751 N   0  0  0  0  0  0  0  0  0  0  0  0
  -21.7695  -12.3338   21.4226 N   0  0  0  0  0  0  0  0  0  0  0  0
  -24.9740  -31.2821   24.1026 N   0  0  0  0  0  0  0  0  0  0  0  0
  -20.2902  -28.8983   20.1765 N   0  0  0  0  0  0  0  0  0  0  0  0
  -29.6099  -16.3605   21.8682 N   0  0  0  0  0  0  0  0  0  0  0  0
  -29.6380  -19.7135   22.1397 N   0  3  0  0  0  0  0  0  0  0  0  0
  -20.0788  -28.7683   16.5701 N   0  3  0  0  0  0  0  0  0  0  0  0
  -22.3142  -14.5499   21.1967 O   0  0  0  0  0  0  0  0  0  0  0  0
  -24.8542  -29.0188   23.5682 O   0  0  0  0  0  0  0  0  0  0  0  0
  -21.4733  -30.7874   21.9765 O   0  0  0  0  0  0  0  0  0  0  0  0
  -21.2094  -27.3467   18.7189 O   0  0  0  0  0  0  0  0  0  0  0  0
  -31.4914  -15.8135   20.6838 O   0  0  0  0  0  0  0  0  0  0  0  0
  -26.6865  -20.9426   22.9658 O   0  0  0  0  0  0  0  0  0  0  0  0
  -22.1227   -6.7748   21.5088 O   0  0  0  0  0  0  0  0  0  0  0  0
  -27.8641  -25.9803   19.1645 O   0  0  0  0  0  0  0  0  0  1  0  0
  -18.8672   -6.2407   25.9269 F   0  0  0  0  0  0  0  0  0  0  0  0
  -22.6622   -4.8790   23.4472 F   0  0  0  0  0  0  0  0  0  0  0  0
  1  2  1  0  0  0  0
  1  5  2  0  0  0  0
  2  6  2  0  0  0  0
  3  8  2  0  0  0  0
  3 15  1  0  0  0  0
  4  9  1  0  0  0  0
  4 15  2  0  0  0  0
  5 17  1  0  0  0  0
  6 19  1  0  0  0  0
  7 10  2  0  0  0  0
  7 18  1  0  0  0  0
  8 21  1  0  0  0  0
  9 21  2  0  0  0  0
 10 22  1  0  0  0  0
 11 12  2  0  0  0  0
 11 23  1  0  0  0  0
 12 24  1  0  0  0  0
 13 20  1  0  0  0  0
 13 22  2  0  0  0  0
 14 24  2  0  0  0  0
 14 25  1  0  0  0  0
 15 26  1  0  0  0  0
 16 26  1  0  0  0  0
 16 27  2  0  0  0  0
 16 28  1  0  0  0  0
 17 19  2  0  0  0  0
 17 33  1  0  0  0  0
 18 20  2  0  0  0  0
 18 34  1  0  0  0  0
 19 46  1  0  0  0  0
 20 35  1  0  0  0  0
 21 81  1  0  0  0  0
 22 82  1  0  0  0  0
 23 25  2  0  0  0  0
 23 81  1  0  0  0  0
 24 83  1  0  0  0  0
 25 84  1  0  0  0  0
 26 63  2  0  0  0  0
 27 64  1  0  0  0  0
 27 68  1  0  0  0  0
 28 69  1  0  0  0  0
 28 75  2  0  0  0  0
 29 47  1  0  0  0  0
 29 70  1  0  0  0  0
 29 76  2  0  0  0  0
 30 59  1  0  0  0  0
 30 65  1  0  0  0  0
 30 77  2  0  0  0  0
 31 60  1  0  0  0  0
 31 71  1  0  0  0  0
 31 78  2  0  0  0  0
 32 66  1  0  0  0  0
 32 72  1  0  0  0  0
 32 79  2  0  0  0  0
 33 36  1  0  0  0  0
 34 47  1  0  0  0  0
 35 65  1  0  0  0  0
 36 38  1  0  0  0  0
 37 39  1  0  0  0  0
 37 40  1  0  0  0  0
 38 46  1  0  0  0  0
 39 48  1  0  0  0  0
 40 66  1  0  0  0  0
 41 48  1  0  0  0  0
 41 66  1  0  0  0  0
 42 50  1  0  0  0  0
 42 67  1  0  0  0  0
 43 51  1  0  0  0  0
 43 67  1  0  0  0  0
 44 49  1  0  0  0  0
 44 73  1  0  0  0  0
 45 49  1  0  0  0  0
 45 73  1  0  0  0  0
 46 70  1  0  0  0  0
 47 65  1  0  0  0  0
 48 64  1  0  0  0  0
 49 72  1  0  0  0  0
 50 51  1  0  0  0  0
 50 73  1  0  0  0  0
 51 80  1  0  0  0  0
 52 60  1  0  0  0  0
 53 61  1  0  0  0  0
 54 62  1  0  0  0  0
 55 62  1  0  0  0  0
 56 62  1  0  0  0  0
 57 74  1  0  0  0  0
 58 61  1  0  0  0  0
 58 82  1  0  0  0  0
 59 62  1  0  0  0  0
 59 71  1  0  0  0  0
 60 74  1  0  0  0  0
 61 67  1  0  0  0  0
 63 64  1  0  0  0  0
M  CHG  2  73   1  74   1
M  ISO  4  32 100  58 101  72 100  82 101
M  END
> <Batch ID>
0195

> <Smiles>
CNC(C)C(=O)NC(C(=O)N1Cc2cc([101O:1][101CH2:1]C(C)N3CC(O)C(N4CC([100NH:0][100C:0](=O)N5CCCC(n6nc(-c7ccc(Oc8ccc(F)cc8F)cc7)c(C(N)=O)c6N)C5)C4)C3)ccc2CC1C(=O)NC1CCCc2ccccc21)C(C)(C)C

> <Shape>
0.400

> <Color>
0.183

> <Negative vol penalty>
0.000

$$$$

  -OEChem-04052323373D

 92102  0     1  0  0  0  0  0999 V2000
  -27.8981  -37.9793   23.5681 C   0  0  0  0  0  0  0  0  0  0  0  0
  -28.3512  -36.9340   24.3664 C   0  0  0  0  0  0  0  0  0  0  0  0
  -22.6235   -7.8126   18.7617 C   0  0  0  0  0  0  0  0  0  0  0  0
  -20.4710   -8.7523   19.3280 C   0  0  0  0  0  0  0  0  0  0  0  0
  -26.5637  -38.0200   23.1660 C   0  0  0  0  0  0  0  0  0  0  0  0
  -27.4699  -35.9292   24.7640 C   0  0  0  0  0  0  0  0  0  0  0  0
  -28.7179  -29.0315   23.1039 C   0  0  0  0  0  0  0  0  0  0  0  0
  -22.0365   -7.0966   17.7185 C   0  0  0  0  0  0  0  0  0  0  0  0
  -19.8840   -8.0364   18.2847 C   0  0  0  0  0  0  0  0  0  0  0  0
  -28.9949  -27.6676   23.0074 C   0  0  0  0  0  0  0  0  0  0  0  0
  -18.8514   -4.8690   17.7085 C   0  0  0  0  0  0  0  0  0  0  0  0
  -17.6524   -4.2065   17.9713 C   0  0  0  0  0  0  0  0  0  0  0  0
  -26.8797  -27.1526   24.0602 C   0  0  0  0  0  0  0  0  0  0  0  0
  -16.5553   -5.5139   16.2613 C   0  0  0  0  0  0  0  0  0  0  0  0
  -21.8408   -8.6404   19.5666 C   0  0  0  0  0  0  0  0  0  0  0  0
  -23.1376   -8.8543   21.7529 C   0  0  0  0  0  0  0  0  0  0  0  0
  -25.6678  -37.0100   23.5508 C   0  0  0  0  0  0  0  0  0  0  0  0
  -27.5124  -29.4612   23.6657 C   0  0  0  0  0  0  0  0  0  0  0  0
  -26.1220  -35.9571   24.3678 C   0  0  0  0  0  0  0  0  0  0  0  0
  -26.5912  -28.5171   24.1482 C   0  0  0  0  0  0  0  0  0  0  0  0
  -20.6668   -7.2085   17.4799 C   0  0  0  0  0  0  0  0  0  0  0  0
  -28.0782  -26.7306   23.4845 C   0  0  0  0  0  0  0  0  0  0  0  0
  -18.9024   -5.8540   16.7221 C   0  0  0  0  0  0  0  0  0  0  0  0
  -16.5043   -4.5289   17.2477 C   0  0  0  0  0  0  0  0  0  0  0  0
  -17.7543   -6.1764   15.9985 C   0  0  0  0  0  0  0  0  0  0  0  0
  -22.4465   -9.3798   20.6448 C   0  0  0  0  0  0  0  0  0  0  0  0
  -23.5130   -9.9584   22.4785 C   0  0  0  0  0  0  0  0  0  0  0  0
  -29.4743  -22.2383   18.2298 C   0  0  0  0  0  0  0  0  0  0  0  0
  -29.1029  -20.5832   19.6992 C   0  0  0  0  0  0  0  0  0  0  0  0
  -28.6216  -22.7041   20.2529 C   0  0  0  0  0  0  0  0  0  0  0  0
  -23.4155   -7.4901   22.0956 C   0  0  0  0  0  0  0  0  0  0  0  0
  -25.3192  -32.3579   24.6009 C   0  0  0  0  0  0  0  0  0  0  0  0
  -23.4830  -30.1826   23.4576 C   0  0  0  0  0  0  0  0  0  0  0  0
  -21.8661  -27.7088   21.7537 C   0  0  0  0  0  0  0  0  0  0  0  0
  -24.4754  -15.6788   20.9945 C   0  0  0  0  0  0  0  0  0  0  0  0
  -24.2237  -37.1219   23.1307 C   0  0  0  0  0  0  0  0  0  0  0  0
  -27.1991  -30.9217   23.8461 C   0  0  0  0  0  0  0  0  0  0  0  0
  -25.3226  -29.0262   24.7763 C   0  0  0  0  0  0  0  0  0  0  0  0
  -23.4419  -35.8199   23.2848 C   0  0  0  0  0  0  0  0  0  0  0  0
  -22.1732  -14.4542   23.4186 C   0  0  0  0  0  0  0  0  0  0  0  0
  -23.7181  -35.1892   24.6460 C   0  0  0  0  0  0  0  0  0  0  0  0
  -22.0445  -12.9674   23.0826 C   0  0  0  0  0  0  0  0  0  0  0  0
  -29.3324  -17.5322   21.8035 C   0  0  0  0  0  0  0  0  0  0  0  0
  -29.6253  -16.8835   19.3940 C   0  0  0  0  0  0  0  0  0  0  0  0
  -22.3216  -15.3064   22.1602 C   0  0  0  0  0  0  0  0  0  0  0  0
  -28.6682  -18.8334   21.3635 C   0  0  0  0  0  0  0  0  0  0  0  0
  -29.0196  -18.2205   18.9652 C   0  0  0  0  0  0  0  0  0  0  0  0
  -23.2827  -13.4054   20.9207 C   0  0  0  0  0  0  0  0  0  0  0  0
  -29.6555  -15.0596   21.1960 C   0  0  0  0  0  0  0  0  0  0  0  0
  -25.2023  -34.8354   24.7991 C   0  0  1  0  0  0  0  0  0  0  0  0
  -25.7042  -31.2442   23.6720 C   0  0  1  0  0  0  0  0  0  0  0  0
  -23.1868  -12.5000   22.1606 C   0  0  2  0  0  0  0  0  0  0  0  0
  -27.6999  -15.7234   20.8514 C   0  0  1  0  0  0  0  0  0  0  0  0
  -29.0920  -16.4391   20.7607 C   0  0  0  0  0  0  0  0  0  0  0  0
  -19.5885  -27.0440   20.9366 C   0  0  0  0  0  0  0  0  0  0  0  0
  -22.7035  -29.3794   26.2951 C   0  0  0  0  0  0  0  0  0  0  0  0
  -20.9261  -27.9132   25.3158 C   0  0  0  0  0  0  0  0  0  0  0  0
  -20.8495  -30.3791   24.9469 C   0  0  0  0  0  0  0  0  0  0  0  0
  -22.7478  -27.7244   18.9286 C   0  0  0  0  0  0  0  0  0  0  0  0
  -29.9424  -22.6944   16.8899 C   0  0  0  0  0  0  0  0  0  0  0  0
  -26.6339  -15.8929   19.7885 C   0  0  0  0  0  0  0  0  0  0  0  0
  -27.6727  -23.2724   22.4895 C   0  0  0  0  0  0  0  0  0  0  0  0
  -27.2406  -24.5171   23.2463 C   0  0  0  0  0  0  0  0  0  1  0  0
  -22.5933  -28.9995   23.7437 C   0  0  1  0  0  0  0  0  0  0  0  0
  -20.8871  -27.7577   20.5946 C   0  0  2  0  0  0  0  0  0  0  0  0
  -21.7953  -29.1644   25.0679 C   0  0  0  0  0  0  0  0  0  0  0  0
  -22.3848  -10.7140   20.6608 N   0  0  0  0  0  0  0  0  0  0  0  0
  -29.5417  -20.9198   18.4757 N   0  0  0  0  0  0  0  0  0  0  0  0
  -29.0270  -23.1876   19.0676 N   0  0  0  0  0  0  0  0  0  0  0  0
  -28.6302  -21.4180   20.6386 N   0  0  0  0  0  0  0  0  0  0  0  0
  -23.0419  -11.0361   21.7880 N   0  0  0  0  0  0  0  0  0  0  0  0
  -29.1439  -19.2229   20.0292 N   0  0  0  0  0  0  0  0  0  0  0  0
  -24.7806  -30.1397   23.9819 N   0  0  0  0  0  0  0  0  0  0  0  0
  -23.4227  -14.8116   21.3303 N   0  0  0  0  0  0  0  0  0  0  0  0
  -24.1968  -10.1028   23.6335 N   0  0  0  0  0  0  0  0  0  0  0  0
  -22.4890   -6.7981   22.8873 N   0  0  0  0  0  0  0  0  0  0  0  0
  -28.1465  -23.6260   21.1710 N   0  0  0  0  0  0  0  0  0  0  0  0
  -25.5097  -33.6211   24.0742 N   0  0  0  0  0  0  0  0  0  0  0  0
  -21.7579  -28.8215   22.5609 N   0  0  0  0  0  0  0  0  0  0  0  0
  -25.4816  -15.1280   20.2103 N   0  0  0  0  0  0  0  0  0  0  0  0
  -28.4128  -14.4336   20.7153 N   0  3  0  0  0  0  0  0  0  0  0  0
  -31.4250  -22.6924   16.7490 N   0  3  0  0  0  0  0  0  0  0  0  0
  -21.4774  -27.1080   19.3903 N   0  3  0  0  0  0  0  0  0  0  0  0
  -24.4627   -6.9074   21.7249 O   0  0  0  0  0  0  0  0  0  0  0  0
  -24.8799  -32.0920   25.7136 O   0  0  0  0  0  0  0  0  0  0  0  0
  -23.0403  -31.1233   22.7924 O   0  0  0  0  0  0  0  0  0  0  0  0
  -22.6461  -26.7751   21.9279 O   0  0  0  0  0  0  0  0  0  0  0  0
  -24.5183  -16.8551   21.3704 O   0  0  0  0  0  0  0  0  0  0  0  0
  -20.0937   -6.5102   16.4618 O   0  0  0  0  0  0  0  0  0  0  0  0
  -28.3529  -25.4005   23.3830 O   0  0  0  0  0  0  0  0  0  1  0  0
  -15.3534   -3.8916   17.4991 F   0  0  0  0  0  0  0  0  0  0  0  0
  -17.7973   -7.1209   15.0489 F   0  0  0  0  0  0  0  0  0  0  0  0
  1  2  1  0  0  0  0
  1  5  2  0  0  0  0
  2  6  2  0  0  0  0
  3  8  2  0  0  0  0
  3 15  1  0  0  0  0
  4  9  1  0  0  0  0
  4 15  2  0  0  0  0
  5 17  1  0  0  0  0
  6 19  1  0  0  0  0
  7 10  2  0  0  0  0
  7 18  1  0  0  0  0
  8 21  1  0  0  0  0
  9 21  2  0  0  0  0
 10 22  1  0  0  0  0
 11 12  2  0  0  0  0
 11 23  1  0  0  0  0
 12 24  1  0  0  0  0
 13 20  1  0  0  0  0
 13 22  2  0  0  0  0
 14 24  2  0  0  0  0
 14 25  1  0  0  0  0
 15 26  1  0  0  0  0
 16 26  1  0  0  0  0
 16 27  2  0  0  0  0
 16 31  1  0  0  0  0
 17 19  2  0  0  0  0
 17 36  1  0  0  0  0
 18 20  2  0  0  0  0
 18 37  1  0  0  0  0
 19 50  1  0  0  0  0
 20 38  1  0  0  0  0
 21 89  1  0  0  0  0
 22 90  1  0  0  0  0
 23 25  2  0  0  0  0
 23 89  1  0  0  0  0
 24 91  1  0  0  0  0
 25 92  1  0  0  0  0
 26 67  2  0  0  0  0
 27 71  1  0  0  0  0
 27 75  1  0  0  0  0
 28 60  1  0  0  0  0
 28 68  1  0  0  0  0
 28 69  2  0  0  0  0
 29 68  2  0  0  0  0
 29 70  1  0  0  0  0
 29 72  1  0  0  0  0
 30 69  1  0  0  0  0
 30 70  2  0  0  0  0
 30 77  1  0  0  0  0
 31 76  1  0  0  0  0
 31 84  2  0  0  0  0
 32 51  1  0  0  0  0
 32 78  1  0  0  0  0
 32 85  2  0  0  0  0
 33 64  1  0  0  0  0
 33 73  1  0  0  0  0
 33 86  2  0  0  0  0
 34 65  1  0  0  0  0
 34 79  1  0  0  0  0
 34 87  2  0  0  0  0
 35 74  1  0  0  0  0
 35 80  1  0  0  0  0
 35 88  2  0  0  0  0
 36 39  1  0  0  0  0
 37 51  1  0  0  0  0
 38 73  1  0  0  0  0
 39 41  1  0  0  0  0
 40 42  1  0  0  0  0
 40 45  1  0  0  0  0
 41 50  1  0  0  0  0
 42 52  1  0  0  0  0
 43 46  1  0  0  0  0
 43 54  1  0  0  0  0
 44 47  1  0  0  0  0
 44 54  1  0  0  0  0
 45 74  1  0  0  0  0
 46 72  1  0  0  0  0
 47 72  1  0  0  0  0
 48 52  1  0  0  0  0
 48 74  1  0  0  0  0
 49 54  1  0  0  0  0
 49 81  1  0  0  0  0
 50 78  1  0  0  0  0
 51 73  1  0  0  0  0
 52 71  1  0  0  0  0
 53 54  1  0  0  0  0
 53 61  1  0  0  0  0
 53 81  1  0  0  0  0
 55 65  1  0  0  0  0
 56 66  1  0  0  0  0
 57 66  1  0  0  0  0
 58 66  1  0  0  0  0
 59 83  1  0  0  0  0
 60 82  1  0  0  0  0
 61 80  1  0  0  0  0
 62 63  1  0  0  0  0
 62 77  1  0  0  0  0
 63 90  1  0  0  0  0
 64 66  1  0  0  0  0
 64 79  1  0  0  0  0
 65 83  1  0  0  0  0
 67 71  1  0  0  0  0
M  CHG  3  81   1  82   1  83   1
M  ISO  4  35 100  63 101  80 100  90 101
M  END
> <Batch ID>
0195

> <Smiles>
CNC(C)C(=O)NC(C(=O)N1Cc2cc([101O:1][101CH2:1]CNc3nc(CN)nc(N4CCC5(CC4)CNC5C[100NH:0][100C:0](=O)N4CCCC(n5nc(-c6ccc(Oc7ccc(F)cc7F)cc6)c(C(N)=O)c5N)C4)n3)ccc2CC1C(=O)NC1CCCc2ccccc21)C(C)(C)C

> <Shape>
0.307

> <Color>
0.072

> <Negative vol penalty>
0.000

$$$$

  -OEChem-04052323373D

 89 98  0     1  0  0  0  0  0999 V2000
  -23.5990  -35.5999   26.4714 C   0  0  0  0  0  0  0  0  0  0  0  0
  -23.1730  -34.6087   25.5931 C   0  0  0  0  0  0  0  0  0  0  0  0
  -23.3044   -9.8331   21.4867 C   0  0  0  0  0  0  0  0  0  0  0  0
  -23.9689  -10.8637   23.5684 C   0  0  0  0  0  0  0  0  0  0  0  0
  -24.8801  -36.1359   26.3475 C   0  0  0  0  0  0  0  0  0  0  0  0
  -24.0275  -34.1537   24.5896 C   0  0  0  0  0  0  0  0  0  0  0  0
  -24.0349  -29.1058   24.1851 C   0  0  0  0  0  0  0  0  0  0  0  0
  -26.2540  -21.6951   22.1034 C   0  0  0  0  0  0  0  0  0  0  0  0
  -22.6551   -8.8218   22.1946 C   0  0  0  0  0  0  0  0  0  0  0  0
  -23.3195   -9.8523   24.2763 C   0  0  0  0  0  0  0  0  0  0  0  0
  -22.9572  -28.5184   23.5238 C   0  0  0  0  0  0  0  0  0  0  0  0
  -23.5039   -5.9948   23.8414 C   0  0  0  0  0  0  0  0  0  0  0  0
  -23.6981   -4.6803   23.4171 C   0  0  0  0  0  0  0  0  0  0  0  0
  -27.1748  -20.7133   21.7545 C   0  0  0  0  0  0  0  0  0  0  0  0
  -24.3012  -28.3104   21.5313 C   0  0  0  0  0  0  0  0  0  0  0  0
  -21.3241   -4.4550   23.0290 C   0  0  0  0  0  0  0  0  0  0  0  0
  -24.5728  -20.0149   22.1875 C   0  0  0  0  0  0  0  0  0  0  0  0
  -23.9614  -10.8541   22.1736 C   0  0  0  0  0  0  0  0  0  0  0  0
  -24.0851  -13.1220   21.0123 C   0  0  0  0  0  0  0  0  0  0  0  0
  -25.7542  -35.6804   25.3480 C   0  0  0  0  0  0  0  0  0  0  0  0
  -25.2525  -29.3101   23.5201 C   0  0  0  0  0  0  0  0  0  0  0  0
  -25.3211  -34.6851   24.4513 C   0  0  0  0  0  0  0  0  0  0  0  0
  -25.3936  -28.8982   22.1873 C   0  0  0  0  0  0  0  0  0  0  0  0
  -24.9262  -21.3475   22.3258 C   0  0  0  0  0  0  0  0  0  0  0  0
  -22.6626   -8.8314   23.5894 C   0  0  0  0  0  0  0  0  0  0  0  0
  -23.0893  -28.1233   22.1958 C   0  0  0  0  0  0  0  0  0  0  0  0
  -22.2199   -6.5394   23.8597 C   0  0  0  0  0  0  0  0  0  0  0  0
  -22.6082   -3.9104   23.0109 C   0  0  0  0  0  0  0  0  0  0  0  0
  -21.1300   -5.7695   23.4534 C   0  0  0  0  0  0  0  0  0  0  0  0
  -24.6328  -11.8987   21.4429 C   0  0  0  0  0  0  0  0  0  0  0  0
  -26.7207  -19.4091   21.6420 C   0  0  0  0  0  0  0  0  0  0  0  0
  -25.1210  -13.7547   20.3695 C   0  0  0  0  0  0  0  0  0  0  0  0
  -22.7587  -13.6402   21.1786 C   0  0  0  0  0  0  0  0  0  0  0  0
  -26.9875  -31.8598   22.7502 C   0  0  0  0  0  0  0  0  0  0  0  0
  -29.1254  -29.6252   21.7712 C   0  0  0  0  0  0  0  0  0  0  0  0
  -29.6967  -26.4370   20.6963 C   0  0  0  0  0  0  0  0  0  0  0  0
  -30.2332  -15.3495   19.9630 C   0  0  0  0  0  0  0  0  0  0  0  0
  -27.1128  -36.3235   25.2235 C   0  0  0  0  0  0  0  0  0  0  0  0
  -26.4137  -29.9207   24.2557 C   0  0  0  0  0  0  0  0  0  0  0  0
  -26.6859  -29.0768   21.4346 C   0  0  0  0  0  0  0  0  0  0  0  0
  -28.0903  -35.5214   24.3683 C   0  0  0  0  0  0  0  0  0  0  0  0
  -29.6493  -12.0445   18.9260 C   0  0  0  0  0  0  0  0  0  0  0  0
  -27.4202  -35.0674   23.0753 C   0  0  0  0  0  0  0  0  0  0  0  0
  -28.2367  -11.8044   19.4577 C   0  0  0  0  0  0  0  0  0  0  0  0
  -30.5086  -12.8312   19.9171 C   0  0  0  0  0  0  0  0  0  0  0  0
  -27.4818  -17.0570   21.7702 C   0  0  0  0  0  0  0  0  0  0  0  0
  -28.3748  -18.5984   20.0172 C   0  0  0  0  0  0  0  0  0  0  0  0
  -28.7989  -16.2864   21.7375 C   0  0  0  0  0  0  0  0  0  0  0  0
  -29.6792  -17.8091   20.0248 C   0  0  0  0  0  0  0  0  0  0  0  0
  -28.4850  -13.8629   20.8959 C   0  0  0  0  0  0  0  0  0  0  0  0
  -26.2278  -34.1479   23.3653 C   0  0  1  0  0  0  0  0  0  0  0  0
  -27.4463  -30.5497   23.3254 C   0  0  1  0  0  0  0  0  0  0  0  0
  -27.5799  -13.1252   19.8970 C   0  0  2  0  0  0  0  0  0  0  0  0
  -31.5419  -24.9149   19.9375 C   0  0  0  0  0  0  0  0  0  0  0  0
  -29.1789  -31.0413   19.0690 C   0  0  0  0  0  0  0  0  0  0  0  0
  -30.2490  -28.9970   18.0973 C   0  0  0  0  0  0  0  0  0  0  0  0
  -31.4143  -30.2793   19.8920 C   0  0  0  0  0  0  0  0  0  0  0  0
  -29.2128  -24.5493   22.9238 C   0  0  0  0  0  0  0  0  0  0  0  0
  -23.9176  -22.3747   22.6996 C   0  0  0  0  0  0  0  0  0  0  0  0
  -23.2085  -23.0250   21.5086 C   0  0  0  0  0  0  0  0  0  0  0  0
  -21.4783  -24.7199   20.8984 C   0  0  0  0  0  0  0  0  0  0  0  0
  -21.1213  -26.7959   22.3402 C   0  0  0  0  0  0  0  0  0  1  0  0
  -29.3862  -28.8887   20.4795 C   0  0  1  0  0  0  0  0  0  0  0  0
  -30.7192  -25.3986   21.1215 C   0  0  2  0  0  0  0  0  0  0  0  0
  -20.4680  -25.7065   21.4841 C   0  0  1  0  0  0  0  0  0  0  0  0
  -30.0320  -29.7998   19.3978 C   0  0  0  0  0  0  0  0  0  0  0  0
  -25.4389  -19.0333   21.8501 N   0  0  0  0  0  0  0  0  0  0  0  0
  -25.9168  -11.7603   21.1022 N   0  0  0  0  0  0  0  0  0  0  0  0
  -26.1846  -12.9048   20.4506 N   0  0  0  0  0  0  0  0  0  0  0  0
  -27.6605  -18.4317   21.2904 N   0  0  0  0  0  0  0  0  0  0  0  0
  -27.7903  -29.6843   22.1953 N   0  0  0  0  0  0  0  0  0  0  0  0
  -29.8243  -14.0610   20.3379 N   0  0  0  0  0  0  0  0  0  0  0  0
  -29.4735  -16.4237   20.4523 N   0  0  0  0  0  0  0  0  0  0  0  0
  -25.2167  -14.9494   19.7483 N   0  0  0  0  0  0  0  0  0  0  0  0
  -21.8177  -12.8601   21.8643 N   0  0  0  0  0  0  0  0  0  0  0  0
  -19.7549  -26.3421   20.3698 N   0  0  0  0  0  0  0  0  0  0  0  0
  -26.6860  -32.8166   23.7005 N   0  0  0  0  0  0  0  0  0  0  0  0
  -30.1850  -27.7195   20.8304 N   0  0  0  0  0  0  0  0  0  0  0  0
  -30.0391  -24.2221   21.7333 N   0  3  0  0  0  0  0  0  0  0  0  0
  -22.1869  -23.9901   21.9847 N   0  3  0  0  0  0  0  0  0  0  0  0
  -22.4134  -14.7548   20.7181 O   0  0  0  0  0  0  0  0  0  0  0  0
  -26.9139  -31.9931   21.5343 O   0  0  0  0  0  0  0  0  0  0  0  0
  -30.0723  -30.1234   22.3851 O   0  0  0  0  0  0  0  0  0  0  0  0
  -28.5781  -26.1399   20.2828 O   0  0  0  0  0  0  0  0  0  0  0  0
  -31.2189  -15.5318   19.2377 O   0  0  0  0  0  0  0  0  0  0  0  0
  -22.0289   -7.8448   24.2805 O   0  0  0  0  0  0  0  0  0  0  0  0
  -22.0322  -27.5467   21.5436 O   0  0  0  0  0  0  0  0  0  1  0  0
  -22.7949   -2.6487   22.6019 F   0  0  0  0  0  0  0  0  0  0  0  0
  -19.8941   -6.2876   23.4676 F   0  0  0  0  0  0  0  0  0  0  0  0
  1  2  1  0  0  0  0
  1  5  2  0  0  0  0
  2  6  2  0  0  0  0
  3  9  2  0  0  0  0
  3 18  1  0  0  0  0
  4 10  1  0  0  0  0
  4 18  2  0  0  0  0
  5 20  1  0  0  0  0
  6 22  1  0  0  0  0
  7 11  2  0  0  0  0
  7 21  1  0  0  0  0
  8 14  2  0  0  0  0
  8 24  1  0  0  0  0
  9 25  1  0  0  0  0
 10 25  2  0  0  0  0
 11 26  1  0  0  0  0
 12 13  2  0  0  0  0
 12 27  1  0  0  0  0
 13 28  1  0  0  0  0
 14 31  1  0  0  0  0
 15 23  1  0  0  0  0
 15 26  2  0  0  0  0
 16 28  2  0  0  0  0
 16 29  1  0  0  0  0
 17 24  2  0  0  0  0
 17 67  1  0  0  0  0
 18 30  1  0  0  0  0
 19 30  1  0  0  0  0
 19 32  2  0  0  0  0
 19 33  1  0  0  0  0
 20 22  2  0  0  0  0
 20 38  1  0  0  0  0
 21 23  2  0  0  0  0
 21 39  1  0  0  0  0
 22 51  1  0  0  0  0
 23 40  1  0  0  0  0
 24 59  1  0  0  0  0
 25 86  1  0  0  0  0
 26 87  1  0  0  0  0
 27 29  2  0  0  0  0
 27 86  1  0  0  0  0
 28 88  1  0  0  0  0
 29 89  1  0  0  0  0
 30 68  2  0  0  0  0
 31 67  2  0  0  0  0
 31 70  1  0  0  0  0
 32 69  1  0  0  0  0
 32 74  1  0  0  0  0
 33 75  1  0  0  0  0
 33 81  2  0  0  0  0
 34 52  1  0  0  0  0
 34 77  1  0  0  0  0
 34 82  2  0  0  0  0
 35 63  1  0  0  0  0
 35 71  1  0  0  0  0
 35 83  2  0  0  0  0
 36 64  1  0  0  0  0
 36 78  1  0  0  0  0
 36 84  2  0  0  0  0
 37 72  1  0  0  0  0
 37 73  1  0  0  0  0
 37 85  2  0  0  0  0
 38 41  1  0  0  0  0
 39 52  1  0  0  0  0
 40 71  1  0  0  0  0
 41 43  1  0  0  0  0
 42 44  1  0  0  0  0
 42 45  1  0  0  0  0
 43 51  1  0  0  0  0
 44 53  1  0  0  0  0
 45 72  1  0  0  0  0
 46 48  1  0  0  0  0
 46 70  1  0  0  0  0
 47 49  1  0  0  0  0
 47 70  1  0  0  0  0
 48 73  1  0  0  0  0
 49 73  1  0  0  0  0
 50 53  1  0  0  0  0
 50 72  1  0  0  0  0
 51 77  1  0  0  0  0
 52 71  1  0  0  0  0
 53 69  1  0  0  0  0
 54 64  1  0  0  0  0
 55 66  1  0  0  0  0
 56 66  1  0  0  0  0
 57 66  1  0  0  0  0
 58 79  1  0  0  0  0
 59 60  1  0  0  0  0
 60 80  1  0  0  0  0
 61 65  1  0  0  0  0
 61 80  1  0  0  0  0
 62 65  1  0  0  0  0
 62 87  1  0  0  0  0
 63 66  1  0  0  0  0
 63 78  1  0  0  0  0
 64 79  1  0  0  0  0
 65 76  1  0  0  0  0
 68 69  1  0  0  0  0
M  CHG  2  79   1  80   1
M  ISO  4  37 100  62 101  73 100  87 101
M  END
> <Batch ID>
0195

> <Smiles>
CNC(C)C(=O)NC(C(=O)N1Cc2cc([101O:1][101CH2:1]C(N)CNCCc3ccc(N4CC[100N:0]([100C:0](=O)N5CCCC(n6nc(-c7ccc(Oc8ccc(F)cc8F)cc7)c(C(N)=O)c6N)C5)CC4)nc3)ccc2CC1C(=O)NC1CCCc2ccccc21)C(C)(C)C

> <Shape>
0.317

> <Color>
0.137

> <Negative vol penalty>
0.000

$$$$

  -OEChem-04052323373D

 85 94  0     1  0  0  0  0  0999 V2000
  -18.1293  -33.3668   22.7254 C   0  0  0  0  0  0  0  0  0  0  0  0
  -19.2626  -33.2960   21.9217 C   0  0  0  0  0  0  0  0  0  0  0  0
  -25.5125  -13.1971   19.5682 C   0  0  0  0  0  0  0  0  0  0  0  0
  -23.6639  -14.6656   20.0811 C   0  0  0  0  0  0  0  0  0  0  0  0
  -18.0163  -32.5415   23.8434 C   0  0  0  0  0  0  0  0  0  0  0  0
  -20.2842  -32.4005   22.2363 C   0  0  0  0  0  0  0  0  0  0  0  0
  -25.2469  -28.2759   19.1257 C   0  0  0  0  0  0  0  0  0  0  0  0
  -25.0148  -12.2558   20.4693 C   0  0  0  0  0  0  0  0  0  0  0  0
  -23.1661  -13.7243   20.9821 C   0  0  0  0  0  0  0  0  0  0  0  0
  -26.6164  -28.0184   19.1717 C   0  0  0  0  0  0  0  0  0  0  0  0
  -24.0357   -9.3139   22.3670 C   0  0  0  0  0  0  0  0  0  0  0  0
  -24.0060   -7.9798   21.9608 C   0  0  0  0  0  0  0  0  0  0  0  0
  -26.2767  -26.5858   21.0826 C   0  0  0  0  0  0  0  0  0  0  0  0
  -22.5535   -8.5717   20.1231 C   0  0  0  0  0  0  0  0  0  0  0  0
  -33.2547  -26.4147   19.7176 C   0  0  0  0  0  0  0  0  0  0  0  0
  -24.8371  -14.4020   19.3742 C   0  0  0  0  0  0  0  0  0  0  0  0
  -25.0533  -15.4796   17.0721 C   0  0  0  0  0  0  0  0  0  0  0  0
  -19.0326  -31.6286   24.1664 C   0  0  0  0  0  0  0  0  0  0  0  0
  -24.3820  -27.6980   20.0662 C   0  0  0  0  0  0  0  0  0  0  0  0
  -20.1853  -31.5632   23.3604 C   0  0  0  0  0  0  0  0  0  0  0  0
  -24.8963  -26.8356   21.0448 C   0  0  0  0  0  0  0  0  0  0  0  0
  -23.8416  -12.5194   21.1762 C   0  0  0  0  0  0  0  0  0  0  0  0
  -27.1318  -27.1755   20.1520 C   0  0  0  0  0  0  0  0  0  0  0  0
  -23.3243  -10.2769   21.6513 C   0  0  0  0  0  0  0  0  0  0  0  0
  -23.2649   -7.6087   20.8389 C   0  0  0  0  0  0  0  0  0  0  0  0
  -22.5832   -9.9058   20.5293 C   0  0  0  0  0  0  0  0  0  0  0  0
  -25.3511  -15.3750   18.4440 C   0  0  0  0  0  0  0  0  0  0  0  0
  -32.8727  -27.7355   19.8003 C   0  0  0  0  0  0  0  0  0  0  0  0
  -30.7043  -27.1339   19.3930 C   0  0  0  0  0  0  0  0  0  0  0  0
  -31.0865  -25.8132   19.3096 C   0  0  0  0  0  0  0  0  0  0  0  0
  -25.7888  -16.5570   16.6422 C   0  0  0  0  0  0  0  0  0  0  0  0
  -24.1890  -14.6749   16.2589 C   0  0  0  0  0  0  0  0  0  0  0  0
  -22.4316  -28.8242   22.3092 C   0  0  0  0  0  0  0  0  0  0  0  0
  -21.5843  -25.7054   22.5881 C   0  0  0  0  0  0  0  0  0  0  0  0
  -22.4192  -22.4259   22.1475 C   0  0  0  0  0  0  0  0  0  0  0  0
  -27.4916  -21.6319   18.2000 C   0  0  0  0  0  0  0  0  0  0  0  0
  -18.8868  -30.7905   25.4117 C   0  0  0  0  0  0  0  0  0  0  0  0
  -22.9039  -27.9647   19.9866 C   0  0  0  0  0  0  0  0  0  0  0  0
  -24.0076  -26.1741   22.0652 C   0  0  0  0  0  0  0  0  0  0  0  0
  -19.8462  -29.6043   25.4634 C   0  0  0  0  0  0  0  0  0  0  0  0
  -29.7683  -18.9589   18.3053 C   0  0  0  0  0  0  0  0  0  0  0  0
  -21.2580  -30.0428   25.0877 C   0  0  0  0  0  0  0  0  0  0  0  0
  -28.8292  -17.7564   18.2175 C   0  0  0  0  0  0  0  0  0  0  0  0
  -29.2062  -20.0605   19.2054 C   0  0  0  0  0  0  0  0  0  0  0  0
  -29.8173  -24.4699   17.6625 C   0  0  0  0  0  0  0  0  0  0  0  0
  -29.9113  -23.7935   20.0666 C   0  0  0  0  0  0  0  0  0  0  0  0
  -28.4446  -23.8121   17.5501 C   0  0  0  0  0  0  0  0  0  0  0  0
  -28.5330  -23.1596   19.9151 C   0  0  0  0  0  0  0  0  0  0  0  0
  -26.8993  -19.2911   18.7538 C   0  0  0  0  0  0  0  0  0  0  0  0
  -21.3037  -30.5872   23.6548 C   0  0  1  0  0  0  0  0  0  0  0  0
  -22.1823  -27.7300   21.3101 C   0  0  1  0  0  0  0  0  0  0  0  0
  -27.4106  -18.1920   17.8095 C   0  0  2  0  0  0  0  0  0  0  0  0
  -21.5377  -20.1036   22.5045 C   0  0  0  0  0  0  0  0  0  0  0  0
  -22.1838  -25.9390   25.5707 C   0  0  0  0  0  0  0  0  0  0  0  0
  -22.2134  -23.4383   25.6896 C   0  0  0  0  0  0  0  0  0  0  0  0
  -20.1261  -24.6288   25.0197 C   0  0  0  0  0  0  0  0  0  0  0  0
  -22.5168  -21.8189   19.2525 C   0  0  0  0  0  0  0  0  0  0  0  0
  -33.8800  -28.7973   20.0745 C   0  0  0  0  0  0  0  0  0  0  0  0
  -29.2844  -27.5543   19.2146 C   0  0  0  0  0  0  0  0  0  1  0  0
  -22.0711  -24.5345   23.4072 C   0  0  1  0  0  0  0  0  0  0  0  0
  -21.6571  -21.2664   21.5317 C   0  0  2  0  0  0  0  0  0  0  0  0
  -21.6659  -24.6490   24.9039 C   0  0  0  0  0  0  0  0  0  0  0  0
  -32.3684  -25.4297   19.4706 N   0  0  0  0  0  0  0  0  0  0  0  0
  -26.2090  -16.3112   18.8582 N   0  0  0  0  0  0  0  0  0  0  0  0
  -31.5906  -28.1189   19.6396 N   0  0  0  0  0  0  0  0  0  0  0  0
  -26.4567  -17.0142   17.7400 N   0  0  0  0  0  0  0  0  0  0  0  0
  -30.1174  -24.8353   19.0511 N   0  0  0  0  0  0  0  0  0  0  0  0
  -22.5703  -26.4712   21.9498 N   0  0  0  0  0  0  0  0  0  0  0  0
  -27.8381  -20.4138   18.8034 N   0  0  0  0  0  0  0  0  0  0  0  0
  -28.2722  -22.7498   18.5336 N   0  0  0  0  0  0  0  0  0  0  0  0
  -25.9230  -17.1483   15.4361 N   0  0  0  0  0  0  0  0  0  0  0  0
  -23.5088  -13.6073   16.8604 N   0  0  0  0  0  0  0  0  0  0  0  0
  -21.2911  -29.4994   22.7003 N   0  0  0  0  0  0  0  0  0  0  0  0
  -21.5712  -23.3357   22.7428 N   0  0  0  0  0  0  0  0  0  0  0  0
  -34.0694  -29.0750   21.5261 N   0  3  0  0  0  0  0  0  0  0  0  0
  -22.3517  -20.7833   20.3048 N   0  3  0  0  0  0  0  0  0  0  0  0
  -24.0375  -14.8859   15.0317 O   0  0  0  0  0  0  0  0  0  0  0  0
  -23.5738  -29.0390   22.6976 O   0  0  0  0  0  0  0  0  0  0  0  0
  -20.3735  -25.9281   22.5114 O   0  0  0  0  0  0  0  0  0  0  0  0
  -23.6445  -22.5136   22.1079 O   0  0  0  0  0  0  0  0  0  0  0  0
  -26.5446  -21.7173   17.4083 O   0  0  0  0  0  0  0  0  0  0  0  0
  -23.3555  -11.6010   22.0553 O   0  0  0  0  0  0  0  0  0  0  0  0
  -28.4774  -26.9211   20.1998 O   0  0  0  0  0  0  0  0  0  1  0  0
  -23.2376   -6.3278   20.4481 F   0  0  0  0  0  0  0  0  0  0  0  0
  -21.8987  -10.8266   19.8370 F   0  0  0  0  0  0  0  0  0  0  0  0
  1  2  1  0  0  0  0
  1  5  2  0  0  0  0
  2  6  2  0  0  0  0
  3  8  2  0  0  0  0
  3 16  1  0  0  0  0
  4  9  1  0  0  0  0
  4 16  2  0  0  0  0
  5 18  1  0  0  0  0
  6 20  1  0  0  0  0
  7 10  2  0  0  0  0
  7 19  1  0  0  0  0
  8 22  1  0  0  0  0
  9 22  2  0  0  0  0
 10 23  1  0  0  0  0
 11 12  2  0  0  0  0
 11 24  1  0  0  0  0
 12 25  1  0  0  0  0
 13 21  1  0  0  0  0
 13 23  2  0  0  0  0
 14 25  2  0  0  0  0
 14 26  1  0  0  0  0
 15 28  1  0  0  0  0
 15 63  2  0  0  0  0
 16 27  1  0  0  0  0
 17 27  1  0  0  0  0
 17 31  2  0  0  0  0
 17 32  1  0  0  0  0
 18 20  2  0  0  0  0
 18 37  1  0  0  0  0
 19 21  2  0  0  0  0
 19 38  1  0  0  0  0
 20 50  1  0  0  0  0
 21 39  1  0  0  0  0
 22 82  1  0  0  0  0
 23 83  1  0  0  0  0
 24 26  2  0  0  0  0
 24 82  1  0  0  0  0
 25 84  1  0  0  0  0
 26 85  1  0  0  0  0
 27 64  2  0  0  0  0
 28 58  1  0  0  0  0
 28 65  2  0  0  0  0
 29 30  2  0  0  0  0
 29 59  1  0  0  0  0
 29 65  1  0  0  0  0
 30 63  1  0  0  0  0
 30 67  1  0  0  0  0
 31 66  1  0  0  0  0
 31 71  1  0  0  0  0
 32 72  1  0  0  0  0
 32 77  2  0  0  0  0
 33 51  1  0  0  0  0
 33 73  1  0  0  0  0
 33 78  2  0  0  0  0
 34 60  1  0  0  0  0
 34 68  1  0  0  0  0
 34 79  2  0  0  0  0
 35 61  1  0  0  0  0
 35 74  1  0  0  0  0
 35 80  2  0  0  0  0
 36 69  1  0  0  0  0
 36 70  1  0  0  0  0
 36 81  2  0  0  0  0
 37 40  1  0  0  0  0
 38 51  1  0  0  0  0
 39 68  1  0  0  0  0
 40 42  1  0  0  0  0
 41 43  1  0  0  0  0
 41 44  1  0  0  0  0
 42 50  1  0  0  0  0
 43 52  1  0  0  0  0
 44 69  1  0  0  0  0
 45 47  1  0  0  0  0
 45 67  1  0  0  0  0
 46 48  1  0  0  0  0
 46 67  1  0  0  0  0
 47 70  1  0  0  0  0
 48 70  1  0  0  0  0
 49 52  1  0  0  0  0
 49 69  1  0  0  0  0
 50 73  1  0  0  0  0
 51 68  1  0  0  0  0
 52 66  1  0  0  0  0
 53 61  1  0  0  0  0
 54 62  1  0  0  0  0
 55 62  1  0  0  0  0
 56 62  1  0  0  0  0
 57 76  1  0  0  0  0
 58 75  1  0  0  0  0
 59 83  1  0  0  0  0
 60 62  1  0  0  0  0
 60 74  1  0  0  0  0
 61 76  1  0  0  0  0
 64 66  1  0  0  0  0
M  CHG  2  75   1  76   1
M  ISO  4  36 100  59 101  70 100  83 101
M  END
> <Batch ID>
0195

> <Smiles>
CNC(C)C(=O)NC(C(=O)N1Cc2cc([101O:1][101CH2:1]c3nc(CN)cnc3N3CC[100N:0]([100C:0](=O)N4CCCC(n5nc(-c6ccc(Oc7ccc(F)cc7F)cc6)c(C(N)=O)c5N)C4)CC3)ccc2CC1C(=O)NC1CCCc2ccccc21)C(C)(C)C

> <Shape>
0.222

> <Color>
0.076

> <Negative vol penalty>
0.000

$$$$

  -OEChem-04052323373D

 94105  0     1  0  0  0  0  0999 V2000
  -24.0050  -39.8169   25.8418 C   0  0  0  0  0  0  0  0  0  0  0  0
  -23.4673  -38.9512   24.8962 C   0  0  0  0  0  0  0  0  0  0  0  0
  -21.1703   -7.3390   23.2058 C   0  0  0  0  0  0  0  0  0  0  0  0
  -23.4884   -7.2459   23.8802 C   0  0  0  0  0  0  0  0  0  0  0  0
  -25.3087  -39.6260   26.2944 C   0  0  0  0  0  0  0  0  0  0  0  0
  -24.2289  -37.8873   24.4116 C   0  0  0  0  0  0  0  0  0  0  0  0
  -25.9602  -31.4624   20.0588 C   0  0  0  0  0  0  0  0  0  0  0  0
  -20.8171   -6.5679   24.3131 C   0  0  0  0  0  0  0  0  0  0  0  0
  -23.1352   -6.4748   24.9876 C   0  0  0  0  0  0  0  0  0  0  0  0
  -27.0220  -30.6985   19.5764 C   0  0  0  0  0  0  0  0  0  0  0  0
  -20.8923   -3.3084   25.2043 C   0  0  0  0  0  0  0  0  0  0  0  0
  -19.9990   -2.2564   25.0023 C   0  0  0  0  0  0  0  0  0  0  0  0
  -27.8333  -30.4137   21.8303 C   0  0  0  0  0  0  0  0  0  0  0  0
  -18.4563   -3.2665   26.5633 C   0  0  0  0  0  0  0  0  0  0  0  0
  -27.8468  -19.7414   20.0964 C   0  0  0  0  0  0  0  0  0  0  0  0
  -22.5060   -7.6779   22.9892 C   0  0  0  0  0  0  0  0  0  0  0  0
  -22.6692   -8.1561   20.4888 C   0  0  0  0  0  0  0  0  0  0  0  0
  -26.0904  -38.5663   25.8054 C   0  0  0  0  0  0  0  0  0  0  0  0
  -25.8329  -31.7173   21.4319 C   0  0  0  0  0  0  0  0  0  0  0  0
  -25.5385  -37.6636   24.8738 C   0  0  0  0  0  0  0  0  0  0  0  0
  -26.7676  -31.1790   22.3278 C   0  0  0  0  0  0  0  0  0  0  0  0
  -26.7883  -19.6507   20.9772 C   0  0  0  0  0  0  0  0  0  0  0  0
  -21.7995   -6.1359   25.2041 C   0  0  0  0  0  0  0  0  0  0  0  0
  -27.9604  -30.1764   20.4618 C   0  0  0  0  0  0  0  0  0  0  0  0
  -20.5676   -4.3395   26.0860 C   0  0  0  0  0  0  0  0  0  0  0  0
  -18.7810   -2.2354   25.6817 C   0  0  0  0  0  0  0  0  0  0  0  0
  -19.3496   -4.3185   26.7654 C   0  0  0  0  0  0  0  0  0  0  0  0
  -22.8715   -8.4739   21.8452 C   0  0  0  0  0  0  0  0  0  0  0  0
  -26.5744  -20.7599   21.7698 C   0  0  0  0  0  0  0  0  0  0  0  0
  -23.1878   -9.2278   19.8040 C   0  0  0  0  0  0  0  0  0  0  0  0
  -28.3308  -21.8426   20.8160 C   0  0  0  0  0  0  0  0  0  0  0  0
  -22.0664   -6.9959   19.9004 C   0  0  0  0  0  0  0  0  0  0  0  0
  -25.8437  -34.3327   23.2383 C   0  0  0  0  0  0  0  0  0  0  0  0
  -25.0821  -32.2369   25.5941 C   0  0  0  0  0  0  0  0  0  0  0  0
  -26.0977  -28.9247   26.6016 C   0  0  0  0  0  0  0  0  0  0  0  0
  -23.8959  -14.8274   21.0576 C   0  0  0  0  0  0  0  0  0  0  0  0
  -27.4929  -38.4014   26.3355 C   0  0  0  0  0  0  0  0  0  0  0  0
  -24.6669  -32.5209   21.9389 C   0  0  0  0  0  0  0  0  0  0  0  0
  -26.6645  -31.4066   23.8131 C   0  0  0  0  0  0  0  0  0  0  0  0
  -28.3660  -37.5241   25.4442 C   0  0  0  0  0  0  0  0  0  0  0  0
  -26.5013  -12.6538   20.1485 C   0  0  0  0  0  0  0  0  0  0  0  0
  -27.6354  -36.2320   25.1108 C   0  0  0  0  0  0  0  0  0  0  0  0
  -24.0788  -21.1690   22.2974 C   0  0  0  0  0  0  0  0  0  0  0  0
  -24.8642  -22.0844   23.1837 C   0  0  0  0  0  0  0  0  0  0  0  0
  -25.8429  -11.2893   20.3503 C   0  0  0  0  0  0  0  0  0  0  0  0
  -27.7669  -25.0092   21.0299 C   0  0  0  0  0  0  0  0  0  0  0  0
  -30.2113  -24.9942   21.6663 C   0  0  0  0  0  0  0  0  0  0  0  0
  -26.1258  -13.6405   21.2553 C   0  0  0  0  0  0  0  0  0  0  0  0
  -25.2668  -18.0550   19.8515 C   0  0  0  0  0  0  0  0  0  0  0  0
  -26.3894  -17.4545   22.0022 C   0  0  0  0  0  0  0  0  0  0  0  0
  -24.1038  -17.1395   20.2242 C   0  0  0  0  0  0  0  0  0  0  0  0
  -25.2020  -16.5606   22.3421 C   0  0  0  0  0  0  0  0  0  0  0  0
  -24.0086  -12.4265   21.6577 C   0  0  0  0  0  0  0  0  0  0  0  0
  -28.1121  -25.7700   19.7547 C   0  0  0  0  0  0  0  0  0  0  0  0
  -30.5394  -25.7447   20.3811 C   0  0  0  0  0  0  0  0  0  0  0  0
  -26.3587  -36.5175   24.3098 C   0  0  1  0  0  0  0  0  0  0  0  0
  -25.4531  -20.7669   22.7587 C   0  0  0  0  0  0  0  0  0  0  0  0
  -24.9226  -33.1476   23.3062 C   0  0  1  0  0  0  0  0  0  0  0  0
  -24.3210  -11.4314   20.5292 C   0  0  2  0  0  0  0  0  0  0  0  0
  -28.9309  -24.1645   21.5538 C   0  0  0  0  0  0  0  0  0  0  0  0
  -24.8501  -27.1477   27.8599 C   0  0  0  0  0  0  0  0  0  0  0  0
  -26.4417  -33.4299   28.0514 C   0  0  0  0  0  0  0  0  0  0  0  0
  -26.7095  -31.1065   28.9450 C   0  0  0  0  0  0  0  0  0  0  0  0
  -24.4276  -32.0331   28.5485 C   0  0  0  0  0  0  0  0  0  0  0  0
  -26.5456  -26.9310   24.4607 C   0  0  0  0  0  0  0  0  0  0  0  0
  -29.6730  -27.4571   18.7900 C   0  0  0  0  0  0  0  0  0  0  0  0
  -28.7731  -28.6769   18.8044 C   0  0  0  0  0  0  0  0  0  1  0  0
  -25.8670  -31.3945   26.5705 C   0  0  1  0  0  0  0  0  0  0  0  0
  -25.2803  -27.6503   26.4906 C   0  0  2  0  0  0  0  0  0  0  0  0
  -25.8721  -31.9980   28.0034 C   0  0  0  0  0  0  0  0  0  0  0  0
  -28.6416  -20.8263   19.9890 N   0  0  0  0  0  0  0  0  0  0  0  0
  -23.4719   -9.6550   22.0140 N   0  0  0  0  0  0  0  0  0  0  0  0
  -27.3292  -21.8769   21.7155 N   0  0  0  0  0  0  0  0  0  0  0  0
  -23.6515  -10.0887   20.7548 N   0  0  0  0  0  0  0  0  0  0  0  0
  -25.9959  -18.4976   21.0450 N   0  0  0  0  0  0  0  0  0  0  0  0
  -25.5103  -32.2041   24.2594 N   0  0  0  0  0  0  0  0  0  0  0  0
  -24.6673  -13.7119   21.4162 N   0  0  0  0  0  0  0  0  0  0  0  0
  -24.5196  -16.0823   21.1379 N   0  0  0  0  0  0  0  0  0  0  0  0
  -23.2880   -9.5083   18.4873 N   0  0  0  0  0  0  0  0  0  0  0  0
  -22.8853   -5.9011   19.5921 N   0  0  0  0  0  0  0  0  0  0  0  0
  -29.1430  -22.9948   20.7322 N   0  0  0  0  0  0  0  0  0  0  0  0
  -25.5907  -35.2974   24.1948 N   0  0  0  0  0  0  0  0  0  0  0  0
  -25.3079  -30.0494   26.4907 N   0  0  0  0  0  0  0  0  0  0  0  0
  -29.3571  -26.5930   19.9798 N   0  3  0  0  0  0  0  0  0  0  0  0
  -26.0768  -26.5803   25.8261 N   0  3  0  0  0  0  0  0  0  0  0  0
  -20.8406   -6.9382   19.6403 O   0  0  0  0  0  0  0  0  0  0  0  0
  -26.7200  -34.3686   22.3825 O   0  0  0  0  0  0  0  0  0  0  0  0
  -24.1201  -32.8940   25.9994 O   0  0  0  0  0  0  0  0  0  0  0  0
  -27.3147  -28.9226   26.7737 O   0  0  0  0  0  0  0  0  0  0  0  0
  -22.7218  -14.7113   20.6848 O   0  0  0  0  0  0  0  0  0  0  0  0
  -21.4552   -5.3836   26.2849 O   0  0  0  0  0  0  0  0  0  0  0  0
  -29.0055  -29.4256   19.9902 O   0  0  0  0  0  0  0  0  0  1  0  0
  -17.9226   -1.2259   25.4864 F   0  0  0  0  0  0  0  0  0  0  0  0
  -19.0317   -5.3069   27.6127 F   0  0  0  0  0  0  0  0  0  0  0  0
  1  2  1  0  0  0  0
  1  5  2  0  0  0  0
  2  6  2  0  0  0  0
  3  8  2  0  0  0  0
  3 16  1  0  0  0  0
  4  9  1  0  0  0  0
  4 16  2  0  0  0  0
  5 18  1  0  0  0  0
  6 20  1  0  0  0  0
  7 10  2  0  0  0  0
  7 19  1  0  0  0  0
  8 23  1  0  0  0  0
  9 23  2  0  0  0  0
 10 24  1  0  0  0  0
 11 12  2  0  0  0  0
 11 25  1  0  0  0  0
 12 26  1  0  0  0  0
 13 21  1  0  0  0  0
 13 24  2  0  0  0  0
 14 26  2  0  0  0  0
 14 27  1  0  0  0  0
 15 22  1  0  0  0  0
 15 71  2  0  0  0  0
 16 28  1  0  0  0  0
 17 28  1  0  0  0  0
 17 30  2  0  0  0  0
 17 32  1  0  0  0  0
 18 20  2  0  0  0  0
 18 37  1  0  0  0  0
 19 21  2  0  0  0  0
 19 38  1  0  0  0  0
 20 56  1  0  0  0  0
 21 39  1  0  0  0  0
 22 29  2  0  0  0  0
 22 75  1  0  0  0  0
 23 91  1  0  0  0  0
 24 92  1  0  0  0  0
 25 27  2  0  0  0  0
 25 91  1  0  0  0  0
 26 93  1  0  0  0  0
 27 94  1  0  0  0  0
 28 72  2  0  0  0  0
 29 57  1  0  0  0  0
 29 73  1  0  0  0  0
 30 74  1  0  0  0  0
 30 79  1  0  0  0  0
 31 71  1  0  0  0  0
 31 73  2  0  0  0  0
 31 81  1  0  0  0  0
 32 80  1  0  0  0  0
 32 86  2  0  0  0  0
 33 58  1  0  0  0  0
 33 82  1  0  0  0  0
 33 87  2  0  0  0  0
 34 68  1  0  0  0  0
 34 76  1  0  0  0  0
 34 88  2  0  0  0  0
 35 69  1  0  0  0  0
 35 83  1  0  0  0  0
 35 89  2  0  0  0  0
 36 77  1  0  0  0  0
 36 78  1  0  0  0  0
 36 90  2  0  0  0  0
 37 40  1  0  0  0  0
 38 58  1  0  0  0  0
 39 76  1  0  0  0  0
 40 42  1  0  0  0  0
 41 45  1  0  0  0  0
 41 48  1  0  0  0  0
 42 56  1  0  0  0  0
 43 44  1  0  0  0  0
 43 57  1  0  0  0  0
 44 57  1  0  0  0  0
 45 59  1  0  0  0  0
 46 54  1  0  0  0  0
 46 60  1  0  0  0  0
 47 55  1  0  0  0  0
 47 60  1  0  0  0  0
 48 77  1  0  0  0  0
 49 51  1  0  0  0  0
 49 75  1  0  0  0  0
 50 52  1  0  0  0  0
 50 75  1  0  0  0  0
 51 78  1  0  0  0  0
 52 78  1  0  0  0  0
 53 59  1  0  0  0  0
 53 77  1  0  0  0  0
 54 84  1  0  0  0  0
 55 84  1  0  0  0  0
 56 82  1  0  0  0  0
 58 76  1  0  0  0  0
 59 74  1  0  0  0  0
 60 81  1  0  0  0  0
 61 69  1  0  0  0  0
 62 70  1  0  0  0  0
 63 70  1  0  0  0  0
 64 70  1  0  0  0  0
 65 85  1  0  0  0  0
 66 67  1  0  0  0  0
 66 84  1  0  0  0  0
 67 92  1  0  0  0  0
 68 70  1  0  0  0  0
 68 83  1  0  0  0  0
 69 85  1  0  0  0  0
 72 74  1  0  0  0  0
M  CHG  2  84   1  85   1
M  ISO  4  36 100  67 101  78 100  92 101
M  END
> <Batch ID>
0195

> <Smiles>
CNC(C)C(=O)NC(C(=O)N1Cc2cc([101O:1][101CH2:1]CN3CCC(Nc4ncc(N5CC[100N:0]([100C:0](=O)N6CCCC(n7nc(-c8ccc(Oc9ccc(F)cc9F)cc8)c(C(N)=O)c7N)C6)CC5)c(C5CC5)n4)CC3)ccc2CC1C(=O)NC1CCCc2ccccc21)C(C)(C)C

> <Shape>
0.276

> <Color>
0.075

> <Negative vol penalty>
0.000

$$$$

  -OEChem-04052323373D

 85 94  0     1  0  0  0  0  0999 V2000
  -29.0129  -25.7862   16.7456 C   0  0  0  0  0  0  0  0  0  0  0  0
  -29.4085  -24.4579   16.8667 C   0  0  0  0  0  0  0  0  0  0  0  0
  -24.1594  -26.3094   24.4013 C   0  0  0  0  0  0  0  0  0  0  0  0
  -21.7490  -26.4410   24.4993 C   0  0  0  0  0  0  0  0  0  0  0  0
  -29.0939  -26.6394   17.8453 C   0  0  0  0  0  0  0  0  0  0  0  0
  -29.8863  -23.9824   18.0874 C   0  0  0  0  0  0  0  0  0  0  0  0
  -27.9257  -19.4788   19.3198 C   0  0  0  0  0  0  0  0  0  0  0  0
  -24.2111  -27.6165   23.9171 C   0  0  0  0  0  0  0  0  0  0  0  0
  -21.8007  -27.7482   24.0152 C   0  0  0  0  0  0  0  0  0  0  0  0
  -28.4565  -18.3576   18.6834 C   0  0  0  0  0  0  0  0  0  0  0  0
  -23.7302  -29.2017   20.9710 C   0  0  0  0  0  0  0  0  0  0  0  0
  -24.5753  -29.4593   19.8916 C   0  0  0  0  0  0  0  0  0  0  0  0
  -29.7978  -17.8932   20.6339 C   0  0  0  0  0  0  0  0  0  0  0  0
  -25.8027  -31.0509   21.2324 C   0  0  0  0  0  0  0  0  0  0  0  0
  -22.9283  -25.7216   24.6924 C   0  0  0  0  0  0  0  0  0  0  0  0
  -22.9064  -23.9610   26.5383 C   0  0  0  0  0  0  0  0  0  0  0  0
  -29.5639  -26.1717   19.0827 C   0  0  0  0  0  0  0  0  0  0  0  0
  -28.3357  -19.8224   20.6160 C   0  0  0  0  0  0  0  0  0  0  0  0
  -29.9749  -24.8305   19.2043 C   0  0  0  0  0  0  0  0  0  0  0  0
  -29.2688  -19.0177   21.2855 C   0  0  0  0  0  0  0  0  0  0  0  0
  -23.0318  -28.3359   23.7241 C   0  0  0  0  0  0  0  0  0  0  0  0
  -29.3949  -17.5662   19.3394 C   0  0  0  0  0  0  0  0  0  0  0  0
  -23.9213  -29.8688   22.1810 C   0  0  0  0  0  0  0  0  0  0  0  0
  -25.6116  -30.3838   20.0223 C   0  0  0  0  0  0  0  0  0  0  0  0
  -24.9575  -30.7934   22.3117 C   0  0  0  0  0  0  0  0  0  0  0  0
  -22.8742  -24.3712   25.1920 C   0  0  0  0  0  0  0  0  0  0  0  0
  -22.8284  -22.5909   26.4816 C   0  0  0  0  0  0  0  0  0  0  0  0
  -22.9984  -24.7480   27.7332 C   0  0  0  0  0  0  0  0  0  0  0  0
  -29.7994  -22.3267   21.9159 C   0  0  0  0  0  0  0  0  0  0  0  0
  -27.3610  -14.4461   20.4114 C   0  0  0  0  0  0  0  0  0  0  0  0
  -29.1705  -20.7629   24.6874 C   0  0  0  0  0  0  0  0  0  0  0  0
  -28.5201  -17.8059   26.2623 C   0  0  0  0  0  0  0  0  0  0  0  0
  -24.4199  -18.8083   22.2054 C   0  0  0  0  0  0  0  0  0  0  0  0
  -29.6778  -27.1435   20.2304 C   0  0  0  0  0  0  0  0  0  0  0  0
  -27.7337  -21.0198   21.2988 C   0  0  0  0  0  0  0  0  0  0  0  0
  -29.7270  -19.3319   22.6854 C   0  0  0  0  0  0  0  0  0  0  0  0
  -29.8428  -26.4658   21.5882 C   0  0  0  0  0  0  0  0  0  0  0  0
  -21.1306  -19.0319   23.8085 C   0  0  0  0  0  0  0  0  0  0  0  0
  -29.2577  -11.7244   20.3247 C   0  0  0  0  0  0  0  0  0  0  0  0
  -30.8939  -25.3631   21.5103 C   0  0  0  0  0  0  0  0  0  0  0  0
  -27.8113  -12.0188   19.9668 C   0  0  0  0  0  0  0  0  0  0  0  0
  -21.1971  -20.4276   24.4193 C   0  0  0  0  0  0  0  0  0  0  0  0
  -24.7498  -17.2845   19.2307 C   0  0  0  0  0  0  0  0  0  0  0  0
  -21.8873  -18.9406   22.4828 C   0  0  0  0  0  0  0  0  0  0  0  0
  -23.5166  -17.8376   19.9516 C   0  0  0  0  0  0  0  0  0  0  0  0
  -23.3576  -20.8117   23.1830 C   0  0  0  0  0  0  0  0  0  0  0  0
  -30.0257  -12.4070   19.2153 C   0  0  0  0  0  0  0  0  0  0  0  0
  -30.4753  -24.2711   20.5184 C   0  0  1  0  0  0  0  0  0  0  0  0
  -28.6064  -21.5676   22.4239 C   0  0  1  0  0  0  0  0  0  0  0  0
  -27.8238  -13.4394   19.4095 C   0  0  2  0  0  0  0  0  0  0  0  0
  -22.6561  -20.8901   24.5463 C   0  0  1  0  0  0  0  0  0  0  0  0
  -25.4082  -17.0796   20.6036 C   0  0  2  0  0  0  0  0  0  0  0  0
  -28.0888  -16.8390   28.5375 C   0  0  0  0  0  0  0  0  0  0  0  0
  -32.1408  -20.9945   25.3462 C   0  0  0  0  0  0  0  0  0  0  0  0
  -31.8187  -19.2332   27.0962 C   0  0  0  0  0  0  0  0  0  0  0  0
  -30.6083  -21.4068   27.2790 C   0  0  0  0  0  0  0  0  0  0  0  0
  -25.8353  -16.8434   25.4719 C   0  0  0  0  0  0  0  0  0  0  0  0
  -25.3586  -15.6887   21.2045 C   0  0  0  0  0  0  0  0  0  0  0  0
  -29.4668  -14.3374   17.6985 C   0  0  0  0  0  0  0  0  0  0  0  0
  -29.0836  -15.8021   17.7751 C   0  0  0  0  0  0  0  0  0  1  0  0
  -29.8942  -19.7344   25.5226 C   0  0  1  0  0  0  0  0  0  0  0  0
  -27.4615  -17.4176   27.2787 C   0  0  2  0  0  0  0  0  0  0  0  0
  -31.1085  -20.3371   26.2839 C   0  0  0  0  0  0  0  0  0  0  0  0
  -22.7831  -23.3448   24.3422 N   0  0  0  0  0  0  0  0  0  0  0  0
  -22.7574  -22.2760   25.1565 N   0  0  0  0  0  0  0  0  0  0  0  0
  -29.1139  -20.5166   23.3083 N   0  0  0  0  0  0  0  0  0  0  0  0
  -23.2508  -19.4725   22.5922 N   0  0  0  0  0  0  0  0  0  0  0  0
  -24.3492  -17.9366   21.1416 N   0  0  0  0  0  0  0  0  0  0  0  0
  -22.8144  -21.6368   27.4366 N   0  0  0  0  0  0  0  0  0  0  0  0
  -23.0703  -26.1424   27.6109 N   0  0  0  0  0  0  0  0  0  0  0  0
  -29.4801  -23.4040   21.1116 N   0  0  0  0  0  0  0  0  0  0  0  0
  -26.0061  -14.7546   20.3400 N   0  0  0  0  0  0  0  0  0  0  0  0
  -28.8873  -19.1291   26.3875 N   0  0  0  0  0  0  0  0  0  0  0  0
  -29.2765  -13.7066   19.0408 N   0  3  2  0  0  0  0  0  0  0  0  0
  -26.5390  -16.3988   26.7024 N   0  3  0  0  0  0  0  0  0  0  0  0
  -23.0328  -24.2292   28.8747 O   0  0  0  0  0  0  0  0  0  0  0  0
  -30.9262  -21.9629   22.2316 O   0  0  0  0  0  0  0  0  0  0  0  0
  -28.1642  -14.9215   21.2055 O   0  0  0  0  0  0  0  0  0  0  0  0
  -28.6677  -21.7448   25.2393 O   0  0  0  0  0  0  0  0  0  0  0  0
  -28.9782  -17.0137   25.4419 O   0  0  0  0  0  0  0  0  0  0  0  0
  -25.5031  -19.0084   22.7707 O   0  0  0  0  0  0  0  0  0  0  0  0
  -23.0819  -29.6114   23.2519 O   0  0  0  0  0  0  0  0  0  0  0  0
  -29.9188  -16.4638   18.7159 O   0  0  0  0  0  0  0  0  0  1  0  0
  -26.4240  -30.6299   18.9862 F   0  0  0  0  0  0  0  0  0  0  0  0
  -25.1467  -31.4364   23.4721 F   0  0  0  0  0  0  0  0  0  0  0  0
  1  2  1  0  0  0  0
  1  5  2  0  0  0  0
  2  6  2  0  0  0  0
  3  8  2  0  0  0  0
  3 15  1  0  0  0  0
  4  9  1  0  0  0  0
  4 15  2  0  0  0  0
  5 17  1  0  0  0  0
  6 19  1  0  0  0  0
  7 10  2  0  0  0  0
  7 18  1  0  0  0  0
  8 21  1  0  0  0  0
  9 21  2  0  0  0  0
 10 22  1  0  0  0  0
 11 12  2  0  0  0  0
 11 23  1  0  0  0  0
 12 24  1  0  0  0  0
 13 20  1  0  0  0  0
 13 22  2  0  0  0  0
 14 24  2  0  0  0  0
 14 25  1  0  0  0  0
 15 26  1  0  0  0  0
 16 26  1  0  0  0  0
 16 27  2  0  0  0  0
 16 28  1  0  0  0  0
 17 19  2  0  0  0  0
 17 34  1  0  0  0  0
 18 20  2  0  0  0  0
 18 35  1  0  0  0  0
 19 48  1  0  0  0  0
 20 36  1  0  0  0  0
 21 82  1  0  0  0  0
 22 83  1  0  0  0  0
 23 25  2  0  0  0  0
 23 82  1  0  0  0  0
 24 84  1  0  0  0  0
 25 85  1  0  0  0  0
 26 64  2  0  0  0  0
 27 65  1  0  0  0  0
 27 69  1  0  0  0  0
 28 70  1  0  0  0  0
 28 76  2  0  0  0  0
 29 49  1  0  0  0  0
 29 71  1  0  0  0  0
 29 77  2  0  0  0  0
 30 50  1  0  0  0  0
 30 72  1  0  0  0  0
 30 78  2  0  0  0  0
 31 61  1  0  0  0  0
 31 66  1  0  0  0  0
 31 79  2  0  0  0  0
 32 62  1  0  0  0  0
 32 73  1  0  0  0  0
 32 80  2  0  0  0  0
 33 67  1  0  0  0  0
 33 68  1  0  0  0  0
 33 81  2  0  0  0  0
 34 37  1  0  0  0  0
 35 49  1  0  0  0  0
 36 66  1  0  0  0  0
 37 40  1  0  0  0  0
 38 42  1  0  0  0  0
 38 44  1  0  0  0  0
 39 41  1  0  0  0  0
 39 47  1  0  0  0  0
 40 48  1  0  0  0  0
 41 50  1  0  0  0  0
 42 51  1  0  0  0  0
 43 45  1  0  0  0  0
 43 52  1  0  0  0  0
 44 67  1  0  0  0  0
 45 68  1  0  0  0  0
 46 51  1  0  0  0  0
 46 67  1  0  0  0  0
 47 74  1  0  0  0  0
 48 71  1  0  0  0  0
 49 66  1  0  0  0  0
 50 74  1  0  0  0  0
 51 65  1  0  0  0  0
 52 58  1  0  0  0  0
 52 68  1  0  0  0  0
 53 62  1  0  0  0  0
 54 63  1  0  0  0  0
 55 63  1  0  0  0  0
 56 63  1  0  0  0  0
 57 75  1  0  0  0  0
 58 72  1  0  0  0  0
 59 60  1  0  0  0  0
 59 74  1  0  0  0  0
 60 83  1  0  0  0  0
 61 63  1  0  0  0  0
 61 73  1  0  0  0  0
 62 75  1  0  0  0  0
 64 65  1  0  0  0  0
M  CHG  2  74   1  75   1
M  ISO  4  33 100  60 101  68 100  83 101
M  END
> <Batch ID>
0195

> <Smiles>
CNC(C)C(=O)NC(C(=O)N1Cc2cc([101O:1][101CH2:1]CN3CCCC3C(=O)NCC3CC[100N:0]3[100C:0](=O)N3CCCC(n4nc(-c5ccc(Oc6ccc(F)cc6F)cc5)c(C(N)=O)c4N)C3)ccc2CC1C(=O)NC1CCCc2ccccc21)C(C)(C)C

> <Shape>
0.203

> <Color>
0.055

> <Negative vol penalty>
0.000

$$$$

  -OEChem-04052323373D

 88 98  0     1  0  0  0  0  0999 V2000
  -23.1666   -4.8990   23.6827 C   0  0  0  0  0  0  0  0  0  0  0  0
  -23.6698   -5.3537   22.4680 C   0  0  0  0  0  0  0  0  0  0  0  0
  -21.8061  -30.0962   21.1288 C   0  0  0  0  0  0  0  0  0  0  0  0
  -22.8998  -28.0902   21.9141 C   0  0  0  0  0  0  0  0  0  0  0  0
  -22.2389   -5.6686   24.3835 C   0  0  0  0  0  0  0  0  0  0  0  0
  -23.2446   -6.5776   21.9527 C   0  0  0  0  0  0  0  0  0  0  0  0
  -27.9497  -11.8529   20.5655 C   0  0  0  0  0  0  0  0  0  0  0  0
  -20.5641  -29.5359   21.4270 C   0  0  0  0  0  0  0  0  0  0  0  0
  -21.6577  -27.5299   22.2124 C   0  0  0  0  0  0  0  0  0  0  0  0
  -28.8112  -12.8351   20.0764 C   0  0  0  0  0  0  0  0  0  0  0  0
  -18.6542  -29.0293   24.1708 C   0  0  0  0  0  0  0  0  0  0  0  0
  -17.7234  -29.8306   24.8319 C   0  0  0  0  0  0  0  0  0  0  0  0
  -26.9163  -14.2043   19.4579 C   0  0  0  0  0  0  0  0  0  0  0  0
  -16.1908  -29.5771   22.9815 C   0  0  0  0  0  0  0  0  0  0  0  0
  -22.9740  -29.3733   21.3723 C   0  0  0  0  0  0  0  0  0  0  0  0
  -24.7148  -30.3827   19.8043 C   0  0  0  0  0  0  0  0  0  0  0  0
  -21.8093   -6.9071   23.8812 C   0  0  0  0  0  0  0  0  0  0  0  0
  -26.5669  -12.0497   20.5166 C   0  0  0  0  0  0  0  0  0  0  0  0
  -22.3092   -7.3638   22.6467 C   0  0  0  0  0  0  0  0  0  0  0  0
  -26.0487  -13.2295   19.9577 C   0  0  0  0  0  0  0  0  0  0  0  0
  -20.4899  -28.2527   21.9689 C   0  0  0  0  0  0  0  0  0  0  0  0
  -28.2958  -14.0078   19.5237 C   0  0  0  0  0  0  0  0  0  0  0  0
  -18.3533  -28.5018   22.9150 C   0  0  0  0  0  0  0  0  0  0  0  0
  -16.4917  -30.1045   24.2373 C   0  0  0  0  0  0  0  0  0  0  0  0
  -17.1216  -28.7757   22.3204 C   0  0  0  0  0  0  0  0  0  0  0  0
  -24.2573  -29.9514   21.0639 C   0  0  0  0  0  0  0  0  0  0  0  0
  -25.9849  -30.8487   20.0414 C   0  0  0  0  0  0  0  0  0  0  0  0
  -24.0510  -30.3639   18.5336 C   0  0  0  0  0  0  0  0  0  0  0  0
  -23.1549  -10.6963   21.2933 C   0  0  0  0  0  0  0  0  0  0  0  0
  -23.0974  -13.6912   21.9548 C   0  0  0  0  0  0  0  0  0  0  0  0
  -22.4628  -16.7783   23.2603 C   0  0  0  0  0  0  0  0  0  0  0  0
  -30.9757  -30.2774   22.4614 C   0  0  0  0  0  0  0  0  0  0  0  0
  -20.7693   -7.6815   24.6515 C   0  0  0  0  0  0  0  0  0  0  0  0
  -25.6000  -10.9922   20.9756 C   0  0  0  0  0  0  0  0  0  0  0  0
  -24.5536  -13.3829   19.8945 C   0  0  0  0  0  0  0  0  0  0  0  0
  -20.6527   -9.1409   24.2192 C   0  0  0  0  0  0  0  0  0  0  0  0
  -28.4103  -31.7950   24.3571 C   0  0  0  0  0  0  0  0  0  0  0  0
  -20.6050   -9.2450   22.6982 C   0  0  0  0  0  0  0  0  0  0  0  0
  -27.1312  -31.4634   23.5934 C   0  0  0  0  0  0  0  0  0  0  0  0
  -32.8668  -28.0900   20.1512 C   0  0  0  0  0  0  0  0  0  0  0  0
  -28.7862  -20.4114   20.7586 C   0  0  0  0  0  0  0  0  0  0  0  0
  -29.3830  -30.6240   24.3168 C   0  0  0  0  0  0  0  0  0  0  0  0
  -32.7577  -29.3269   21.0292 C   0  0  0  0  0  0  0  0  0  0  0  0
  -28.6158  -18.9140   20.4988 C   0  0  0  0  0  0  0  0  0  0  0  0
  -30.7242  -28.0625   21.1897 C   0  0  0  0  0  0  0  0  0  0  0  0
  -28.4868  -29.8799   22.1277 C   0  0  0  0  0  0  0  0  0  0  0  0
  -30.0471  -24.0317   19.6647 C   0  0  0  0  0  0  0  0  0  0  0  0
  -31.2207  -24.1143   21.3828 C   0  0  0  0  0  0  0  0  0  0  0  0
  -30.6418  -19.5326   19.5105 C   0  0  0  0  0  0  0  0  0  0  0  0
  -21.8910   -8.6977   22.0671 C   0  0  1  0  0  0  0  0  0  0  0  0
  -24.3276  -11.5750   21.6163 C   0  0  1  0  0  0  0  0  0  0  0  0
  -31.8699  -27.1288   20.7996 C   0  0  1  0  0  0  0  0  0  0  0  0
  -27.4562  -31.0276   22.1562 C   0  0  1  0  0  0  0  0  0  0  0  0
  -29.9254  -20.8272   19.8390 C   0  0  2  0  0  0  0  0  0  0  0  0
  -30.2155  -23.0689   20.8579 C   0  0  0  0  0  0  0  0  0  0  0  0
  -20.5802  -18.3706   23.7271 C   0  0  0  0  0  0  0  0  0  0  0  0
  -22.9704  -14.4040   18.9917 C   0  0  0  0  0  0  0  0  0  0  0  0
  -21.8507  -16.5508   19.6289 C   0  0  0  0  0  0  0  0  0  0  0  0
  -20.7558  -14.3716   20.1531 C   0  0  0  0  0  0  0  0  0  0  0  0
  -23.0007  -16.7433   26.1703 C   0  0  0  0  0  0  0  0  0  0  0  0
  -31.4410  -25.9998   19.8796 C   0  0  0  0  0  0  0  0  0  0  0  0
  -29.8976  -17.2292   19.3046 C   0  0  0  0  0  0  0  0  0  0  0  0
  -28.6952  -16.3169   19.1161 C   0  0  0  0  0  0  0  0  0  1  0  0
  -22.7888  -15.0869   21.4750 C   0  0  1  0  0  0  0  0  0  0  0  0
  -21.4450  -17.2499   24.2831 C   0  0  2  0  0  0  0  0  0  0  0  0
  -22.1169  -15.0966   20.0729 C   0  0  0  0  0  0  0  0  0  0  0  0
  -25.1631  -30.1275   22.0295 N   0  0  0  0  0  0  0  0  0  0  0  0
  -26.2026  -30.6746   21.3765 N   0  0  0  0  0  0  0  0  0  0  0  0
  -23.9475  -12.9202   21.1527 N   0  0  0  0  0  0  0  0  0  0  0  0
  -29.6650  -30.1981   22.9448 N   0  0  0  0  0  0  0  0  0  0  0  0
  -31.3873  -29.3233   21.5318 N   0  0  0  0  0  0  0  0  0  0  0  0
  -30.4983  -25.1236   20.5658 N   0  0  0  0  0  0  0  0  0  0  0  0
  -29.4994  -18.6273   19.3639 N   0  0  1  0  0  0  0  0  0  0  0  0
  -26.9255  -31.3862   19.2360 N   0  0  0  0  0  0  0  0  0  0  0  0
  -22.7482  -29.8512   18.4679 N   0  0  0  0  0  0  0  0  0  0  0  0
  -22.9636   -9.6616   22.1889 N   0  0  0  0  0  0  0  0  0  0  0  0
  -21.9909  -15.7122   22.5242 N   0  0  0  0  0  0  0  0  0  0  0  0
  -30.8283  -21.7863   20.5008 N   0  3  0  0  0  0  0  0  0  0  0  0
  -22.1336  -17.7504   25.5064 N   0  3  0  0  0  0  0  0  0  0  0  0
  -24.6030  -30.7739   17.4845 O   0  0  0  0  0  0  0  0  0  0  0  0
  -22.4721  -10.9392   20.3051 O   0  0  0  0  0  0  0  0  0  0  0  0
  -22.5952  -13.2909   23.0087 O   0  0  0  0  0  0  0  0  0  0  0  0
  -23.5647  -17.3056   23.1251 O   0  0  0  0  0  0  0  0  0  0  0  0
  -31.7621  -31.1403   22.8748 O   0  0  0  0  0  0  0  0  0  0  0  0
  -19.2781  -27.7058   22.2603 O   0  0  0  0  0  0  0  0  0  0  0  0
  -29.1486  -14.9714   19.0488 O   0  0  0  0  0  0  0  0  0  1  0  0
  -15.5974  -30.8728   24.8730 F   0  0  0  0  0  0  0  0  0  0  0  0
  -16.8264  -28.2709   21.1147 F   0  0  0  0  0  0  0  0  0  0  0  0
  1  2  1  0  0  0  0
  1  5  2  0  0  0  0
  2  6  2  0  0  0  0
  3  8  2  0  0  0  0
  3 15  1  0  0  0  0
  4  9  1  0  0  0  0
  4 15  2  0  0  0  0
  5 17  1  0  0  0  0
  6 19  1  0  0  0  0
  7 10  2  0  0  0  0
  7 18  1  0  0  0  0
  8 21  1  0  0  0  0
  9 21  2  0  0  0  0
 10 22  1  0  0  0  0
 11 12  2  0  0  0  0
 11 23  1  0  0  0  0
 12 24  1  0  0  0  0
 13 20  1  0  0  0  0
 13 22  2  0  0  0  0
 14 24  2  0  0  0  0
 14 25  1  0  0  0  0
 15 26  1  0  0  0  0
 16 26  1  0  0  0  0
 16 27  2  0  0  0  0
 16 28  1  0  0  0  0
 17 19  2  0  0  0  0
 17 33  1  0  0  0  0
 18 20  2  0  0  0  0
 18 34  1  0  0  0  0
 19 50  1  0  0  0  0
 20 35  1  0  0  0  0
 21 85  1  0  0  0  0
 22 86  1  0  0  0  0
 23 25  2  0  0  0  0
 23 85  1  0  0  0  0
 24 87  1  0  0  0  0
 25 88  1  0  0  0  0
 26 67  2  0  0  0  0
 27 68  1  0  0  0  0
 27 74  1  0  0  0  0
 28 75  1  0  0  0  0
 28 80  2  0  0  0  0
 29 51  1  0  0  0  0
 29 76  1  0  0  0  0
 29 81  2  0  0  0  0
 30 64  1  0  0  0  0
 30 69  1  0  0  0  0
 30 82  2  0  0  0  0
 31 65  1  0  0  0  0
 31 77  1  0  0  0  0
 31 83  2  0  0  0  0
 32 70  1  0  0  0  0
 32 71  1  0  0  0  0
 32 84  2  0  0  0  0
 33 36  1  0  0  0  0
 34 51  1  0  0  0  0
 35 69  1  0  0  0  0
 36 38  1  0  0  0  0
 37 39  1  0  0  0  0
 37 42  1  0  0  0  0
 38 50  1  0  0  0  0
 39 53  1  0  0  0  0
 40 43  1  0  0  0  0
 40 52  1  0  0  0  0
 41 44  1  0  0  0  0
 41 54  1  0  0  0  0
 42 70  1  0  0  0  0
 43 71  1  0  0  0  0
 44 73  1  0  0  0  0
 45 52  1  0  0  0  0
 45 71  1  0  0  0  0
 46 53  1  0  0  0  0
 46 70  1  0  0  0  0
 47 55  1  0  0  0  0
 47 72  1  0  0  0  0
 48 55  1  0  0  0  0
 48 72  1  0  0  0  0
 49 54  1  0  0  0  0
 49 73  1  0  0  0  0
 50 76  1  0  0  0  0
 51 69  1  0  0  0  0
 52 61  1  0  0  0  0
 53 68  1  0  0  0  0
 54 78  1  0  0  0  0
 55 78  1  0  0  0  0
 56 65  1  0  0  0  0
 57 66  1  0  0  0  0
 58 66  1  0  0  0  0
 59 66  1  0  0  0  0
 60 79  1  0  0  0  0
 61 72  1  0  0  0  0
 62 63  1  0  0  0  0
 62 73  1  0  0  0  0
 63 86  1  0  0  0  0
 64 66  1  0  0  0  0
 64 77  1  0  0  0  0
 65 79  1  0  0  0  0
 67 68  1  0  0  0  0
M  CHG  2  78   1  79   1
M  ISO  4  32 100  63 101  71 100  86 101
M  END
> <Batch ID>
0195

> <Smiles>
CNC(C)C(=O)NC(C(=O)N1Cc2cc([101O:1][101CH2:1]CN3CCC(NC4CN(CC5CC[100N:0]([100C:0](=O)N6CCCC(n7nc(-c8ccc(Oc9ccc(F)cc9F)cc8)c(C(N)=O)c7N)C6)C5)C4)C3)ccc2CC1C(=O)NC1CCCc2ccccc21)C(C)(C)C

> <Shape>
0.315

> <Color>
0.046

> <Negative vol penalty>
0.000

$$$$

  -OEChem-04052323373D

 91101  0     1  0  0  0  0  0999 V2000
  -19.3827  -24.3644   23.3116 C   0  0  0  0  0  0  0  0  0  0  0  0
  -20.7645  -24.5161   23.2567 C   0  0  0  0  0  0  0  0  0  0  0  0
  -23.1827  -13.6369   21.6634 C   0  0  0  0  0  0  0  0  0  0  0  0
  -23.9425  -14.0839   19.4140 C   0  0  0  0  0  0  0  0  0  0  0  0
  -18.5513  -25.4211   22.9426 C   0  0  0  0  0  0  0  0  0  0  0  0
  -21.3157  -25.7244   22.8316 C   0  0  0  0  0  0  0  0  0  0  0  0
  -25.1402  -27.2573   25.7758 C   0  0  0  0  0  0  0  0  0  0  0  0
  -30.4701  -20.6695   19.5603 C   0  0  0  0  0  0  0  0  0  0  0  0
  -22.7907  -12.3555   21.2764 C   0  0  0  0  0  0  0  0  0  0  0  0
  -23.5506  -12.8024   19.0270 C   0  0  0  0  0  0  0  0  0  0  0  0
  -26.3749  -26.6369   25.5901 C   0  0  0  0  0  0  0  0  0  0  0  0
  -24.2647   -9.3676   20.6994 C   0  0  0  0  0  0  0  0  0  0  0  0
  -24.6016   -8.3056   21.5385 C   0  0  0  0  0  0  0  0  0  0  0  0
  -29.3552  -20.3942   18.7764 C   0  0  0  0  0  0  0  0  0  0  0  0
  -27.1173  -28.5206   24.2787 C   0  0  0  0  0  0  0  0  0  0  0  0
  -22.2599   -7.7750   21.8071 C   0  0  0  0  0  0  0  0  0  0  0  0
  -23.7586  -14.5012   20.7322 C   0  0  0  0  0  0  0  0  0  0  0  0
  -25.1065  -16.1642   22.1197 C   0  0  0  0  0  0  0  0  0  0  0  0
  -19.0926  -26.6461   22.5220 C   0  0  0  0  0  0  0  0  0  0  0  0
  -24.8806  -28.5112   25.2043 C   0  0  0  0  0  0  0  0  0  0  0  0
  -20.4908  -26.7980   22.4554 C   0  0  0  0  0  0  0  0  0  0  0  0
  -25.8794  -29.1559   24.4608 C   0  0  0  0  0  0  0  0  0  0  0  0
  -30.7718  -21.9856   19.8922 C   0  0  0  0  0  0  0  0  0  0  0  0
  -22.9747  -11.9382   19.9582 C   0  0  0  0  0  0  0  0  0  0  0  0
  -27.3627  -27.2673   24.8391 C   0  0  0  0  0  0  0  0  0  0  0  0
  -22.9254   -9.6334   20.4141 C   0  0  0  0  0  0  0  0  0  0  0  0
  -23.5992   -7.5092   22.0923 C   0  0  0  0  0  0  0  0  0  0  0  0
  -21.9230   -8.8371   20.9680 C   0  0  0  0  0  0  0  0  0  0  0  0
  -24.1631  -15.8253   21.1313 C   0  0  0  0  0  0  0  0  0  0  0  0
  -28.5804  -21.4620   18.3530 C   0  0  0  0  0  0  0  0  0  0  0  0
  -29.9337  -22.9822   19.4186 C   0  0  0  0  0  0  0  0  0  0  0  0
  -25.1300  -17.5375   22.1153 C   0  0  0  0  0  0  0  0  0  0  0  0
  -25.8915  -15.3138   22.9660 C   0  0  0  0  0  0  0  0  0  0  0  0
  -22.8000  -29.6162   23.0703 C   0  0  0  0  0  0  0  0  0  0  0  0
  -24.0836  -32.4827   23.8815 C   0  0  0  0  0  0  0  0  0  0  0  0
  -26.7379  -34.2145   25.1473 C   0  0  0  0  0  0  0  0  0  0  0  0
  -23.6147  -21.3999   17.7011 C   0  0  0  0  0  0  0  0  0  0  0  0
  -18.1539  -27.7438   22.0880 C   0  0  0  0  0  0  0  0  0  0  0  0
  -23.5529  -29.1790   25.4363 C   0  0  0  0  0  0  0  0  0  0  0  0
  -25.6579  -30.5116   23.8431 C   0  0  0  0  0  0  0  0  0  0  0  0
  -18.8176  -29.1161   22.0064 C   0  0  0  0  0  0  0  0  0  0  0  0
  -22.3772  -21.3430   21.1596 C   0  0  0  0  0  0  0  0  0  0  0  0
  -20.1531  -29.0206   21.2756 C   0  0  0  0  0  0  0  0  0  0  0  0
  -22.7391  -19.9264   21.6134 C   0  0  0  0  0  0  0  0  0  0  0  0
  -26.9330  -22.3137   16.5339 C   0  0  0  0  0  0  0  0  0  0  0  0
  -22.1062  -21.4137   19.6579 C   0  0  0  0  0  0  0  0  0  0  0  0
  -25.5010  -21.9442   16.1814 C   0  0  0  0  0  0  0  0  0  0  0  0
  -30.2547  -26.2722   23.0927 C   0  0  0  0  0  0  0  0  0  0  0  0
  -28.0805  -25.2511   22.8138 C   0  0  0  0  0  0  0  0  0  0  0  0
  -26.0641  -20.9638   18.2960 C   0  0  0  0  0  0  0  0  0  0  0  0
  -23.5151  -19.4310   19.2686 C   0  0  0  0  0  0  0  0  0  0  0  0
  -30.6188  -25.9901   21.6386 C   0  0  0  0  0  0  0  0  0  0  0  0
  -28.3655  -24.9473   21.3469 C   0  0  0  0  0  0  0  0  0  0  0  0
  -21.1266  -28.1015   22.0233 C   0  0  1  0  0  0  0  0  0  0  0  0
  -27.3586  -21.1990   17.4998 C   0  0  2  0  0  0  0  0  0  0  0  0
  -23.2178  -30.2260   24.3785 C   0  0  1  0  0  0  0  0  0  0  0  0
  -23.8781  -19.3398   20.7566 C   0  0  2  0  0  0  0  0  0  0  0  0
  -33.2840  -21.8613   20.0557 C   0  0  0  0  0  0  0  0  0  0  0  0
  -31.8740  -21.6605   22.1357 C   0  0  0  0  0  0  0  0  0  0  0  0
  -27.5069  -36.5495   25.6512 C   0  0  0  0  0  0  0  0  0  0  0  0
  -24.5994  -32.9513   20.9109 C   0  0  0  0  0  0  0  0  0  0  0  0
  -26.1770  -34.7887   21.5460 C   0  0  0  0  0  0  0  0  0  0  0  0
  -23.7632  -34.9543   22.1532 C   0  0  0  0  0  0  0  0  0  0  0  0
  -27.0046  -33.6276   28.0358 C   0  0  0  0  0  0  0  0  0  0  0  0
  -30.2069  -24.4136   19.7461 C   0  0  0  0  0  0  0  0  0  0  0  0
  -31.9655  -22.2869   20.7306 C   0  0  0  0  0  0  0  0  0  0  0  0
  -25.2415  -33.3145   23.3852 C   0  0  1  0  0  0  0  0  0  0  0  0
  -26.8189  -35.3080   26.1972 C   0  0  2  0  0  0  0  0  0  0  0  0
  -24.9491  -33.9758   22.0087 C   0  0  0  0  0  0  0  0  0  0  0  0
  -23.6261  -16.8969   20.5420 N   0  0  0  0  0  0  0  0  0  0  0  0
  -28.8418  -22.7535   18.6550 N   0  0  0  0  0  0  0  0  0  0  0  0
  -24.2339  -17.9227   21.1620 N   0  0  0  0  0  0  0  0  0  0  0  0
  -24.3411  -31.1208   24.0931 N   0  0  0  0  0  0  0  0  0  0  0  0
  -23.2073  -20.8168   18.9048 N   0  0  0  0  0  0  0  0  0  0  0  0
  -24.9724  -21.3130   17.3830 N   0  0  0  0  0  0  0  0  0  0  0  0
  -28.8093  -26.4523   23.2334 N   0  0  0  0  0  0  0  0  0  1  0  0
  -25.8295  -18.4411   22.8341 N   0  0  0  0  0  0  0  0  0  0  0  0
  -27.1515  -14.8996   22.5130 N   0  0  0  0  0  0  0  0  0  0  0  0
  -21.6970  -28.7889   23.1620 N   0  0  0  0  0  0  0  0  0  0  0  0
  -25.5491  -34.2627   24.4504 N   0  0  0  0  0  0  0  0  0  0  0  0
  -29.8554  -24.7773   21.1607 N   0  3  0  0  0  0  0  0  0  0  0  0
  -27.5832  -34.8308   27.3842 N   0  3  0  0  0  0  0  0  0  0  0  0
  -25.4806  -14.9191   24.0835 O   0  0  0  0  0  0  0  0  0  0  0  0
  -23.4307  -29.8782   22.0528 O   0  0  0  0  0  0  0  0  0  0  0  0
  -22.9927  -33.0229   24.0812 O   0  0  0  0  0  0  0  0  0  0  0  0
  -27.6406  -33.4014   24.9614 O   0  0  0  0  0  0  0  0  0  0  0  0
  -22.8158  -22.0111   16.9805 O   0  0  0  0  0  0  0  0  0  0  0  0
  -22.5926  -10.6877   19.5802 O   0  0  0  0  0  0  0  0  0  0  0  0
  -28.5805  -26.6577   24.6539 O   0  0  0  0  0  0  0  0  0  1  0  0
  -23.9230   -6.4884   22.8969 F   0  0  0  0  0  0  0  0  0  0  0  0
  -20.6347   -9.0868   20.6966 F   0  0  0  0  0  0  0  0  0  0  0  0
  1  2  1  0  0  0  0
  1  5  2  0  0  0  0
  2  6  2  0  0  0  0
  3  9  2  0  0  0  0
  3 17  1  0  0  0  0
  4 10  1  0  0  0  0
  4 17  2  0  0  0  0
  5 19  1  0  0  0  0
  6 21  1  0  0  0  0
  7 11  2  0  0  0  0
  7 20  1  0  0  0  0
  8 14  2  0  0  0  0
  8 23  1  0  0  0  0
  9 24  1  0  0  0  0
 10 24  2  0  0  0  0
 11 25  1  0  0  0  0
 12 13  2  0  0  0  0
 12 26  1  0  0  0  0
 13 27  1  0  0  0  0
 14 30  1  0  0  0  0
 15 22  1  0  0  0  0
 15 25  2  0  0  0  0
 16 27  2  0  0  0  0
 16 28  1  0  0  0  0
 17 29  1  0  0  0  0
 18 29  1  0  0  0  0
 18 32  2  0  0  0  0
 18 33  1  0  0  0  0
 19 21  2  0  0  0  0
 19 38  1  0  0  0  0
 20 22  2  0  0  0  0
 20 39  1  0  0  0  0
 21 54  1  0  0  0  0
 22 40  1  0  0  0  0
 23 31  2  0  0  0  0
 23 66  1  0  0  0  0
 24 88  1  0  0  0  0
 25 89  1  0  0  0  0
 26 28  2  0  0  0  0
 26 88  1  0  0  0  0
 27 90  1  0  0  0  0
 28 91  1  0  0  0  0
 29 70  2  0  0  0  0
 30 55  1  0  0  0  0
 30 71  2  0  0  0  0
 31 65  1  0  0  0  0
 31 71  1  0  0  0  0
 32 72  1  0  0  0  0
 32 77  1  0  0  0  0
 33 78  1  0  0  0  0
 33 83  2  0  0  0  0
 34 56  1  0  0  0  0
 34 79  1  0  0  0  0
 34 84  2  0  0  0  0
 35 67  1  0  0  0  0
 35 73  1  0  0  0  0
 35 85  2  0  0  0  0
 36 68  1  0  0  0  0
 36 80  1  0  0  0  0
 36 86  2  0  0  0  0
 37 74  1  0  0  0  0
 37 75  1  0  0  0  0
 37 87  2  0  0  0  0
 38 41  1  0  0  0  0
 39 56  1  0  0  0  0
 40 73  1  0  0  0  0
 41 43  1  0  0  0  0
 42 44  1  0  0  0  0
 42 46  1  0  0  0  0
 43 54  1  0  0  0  0
 44 57  1  0  0  0  0
 45 47  1  0  0  0  0
 45 55  1  0  0  0  0
 46 74  1  0  0  0  0
 47 75  1  0  0  0  0
 48 52  1  0  0  0  0
 48 76  1  0  0  0  0
 49 53  1  0  0  0  0
 49 76  1  0  0  0  0
 50 55  1  0  0  0  0
 50 75  1  0  0  0  0
 51 57  1  0  0  0  0
 51 74  1  0  0  0  0
 52 81  1  0  0  0  0
 53 81  1  0  0  0  0
 54 79  1  0  0  0  0
 56 73  1  0  0  0  0
 57 72  1  0  0  0  0
 58 66  1  0  0  0  0
 59 66  1  0  0  0  0
 60 68  1  0  0  0  0
 61 69  1  0  0  0  0
 62 69  1  0  0  0  0
 63 69  1  0  0  0  0
 64 82  1  0  0  0  0
 65 81  1  0  0  0  0
 67 69  1  0  0  0  0
 67 80  1  0  0  0  0
 68 82  1  0  0  0  0
 70 72  1  0  0  0  0
 76 89  1  0  0  0  0
M  CHG  2  81   1  82   1
M  ISO  4  37 100  75 100  76 101  89 101
M  END
> <Batch ID>
0195

> <Smiles>
CNC(C)C(=O)NC(C(=O)N1Cc2cc([101O:1][101N:1]3CCN(Cc4nc(C5CC[100N:0]([100C:0](=O)N6CCCC(n7nc(-c8ccc(Oc9ccc(F)cc9F)cc8)c(C(N)=O)c7N)C6)C5)ccc4C(C)C)CC3)ccc2CC1C(=O)NC1CCCc2ccccc21)C(C)(C)C

> <Shape>
0.223

> <Color>
0.070

> <Negative vol penalty>
0.000

$$$$

  -OEChem-04052323373D

 86 95  0     1  0  0  0  0  0999 V2000
  -16.6950  -29.0774   23.9711 C   0  0  0  0  0  0  0  0  0  0  0  0
  -17.2859  -28.3037   22.9773 C   0  0  0  0  0  0  0  0  0  0  0  0
  -26.5500  -11.9342   20.4616 C   0  0  0  0  0  0  0  0  0  0  0  0
  -24.6780  -13.4571   20.3459 C   0  0  0  0  0  0  0  0  0  0  0  0
  -17.2804  -30.2832   24.3546 C   0  0  0  0  0  0  0  0  0  0  0  0
  -18.4621  -28.7361   22.3656 C   0  0  0  0  0  0  0  0  0  0  0  0
  -21.8823  -25.0313   21.8945 C   0  0  0  0  0  0  0  0  0  0  0  0
  -25.7100  -10.9397   20.9625 C   0  0  0  0  0  0  0  0  0  0  0  0
  -23.8379  -12.4626   20.8468 C   0  0  0  0  0  0  0  0  0  0  0  0
  -21.6903  -24.1151   20.8613 C   0  0  0  0  0  0  0  0  0  0  0  0
  -23.4318   -8.7575   19.7457 C   0  0  0  0  0  0  0  0  0  0  0  0
  -23.5487   -7.4771   19.2049 C   0  0  0  0  0  0  0  0  0  0  0  0
  -23.3221  -25.2876   19.5265 C   0  0  0  0  0  0  0  0  0  0  0  0
  -24.1045   -6.6055   21.3885 C   0  0  0  0  0  0  0  0  0  0  0  0
  -30.4292  -20.7120   18.9559 C   0  0  0  0  0  0  0  0  0  0  0  0
  -30.0054  -20.5071   17.6614 C   0  0  0  0  0  0  0  0  0  0  0  0
  -26.0340  -13.1930   20.1533 C   0  0  0  0  0  0  0  0  0  0  0  0
  -27.1978  -14.4830   18.2854 C   0  0  0  0  0  0  0  0  0  0  0  0
  -18.4695  -30.7259   23.7542 C   0  0  0  0  0  0  0  0  0  0  0  0
  -22.7891  -26.0906   21.7471 C   0  0  0  0  0  0  0  0  0  0  0  0
  -19.0632  -29.9497   22.7406 C   0  0  0  0  0  0  0  0  0  0  0  0
  -23.5256  -26.2144   20.5603 C   0  0  0  0  0  0  0  0  0  0  0  0
  -24.3540  -11.2038   21.1551 C   0  0  0  0  0  0  0  0  0  0  0  0
  -22.4081  -24.2449   19.6760 C   0  0  0  0  0  0  0  0  0  0  0  0
  -23.6512   -8.9619   21.1080 C   0  0  0  0  0  0  0  0  0  0  0  0
  -23.8851   -6.4011   20.0263 C   0  0  0  0  0  0  0  0  0  0  0  0
  -23.9876   -7.8859   21.9294 C   0  0  0  0  0  0  0  0  0  0  0  0
  -26.9013  -14.2209   19.6364 C   0  0  0  0  0  0  0  0  0  0  0  0
  -28.2667  -20.5707   19.6863 C   0  0  0  0  0  0  0  0  0  0  0  0
  -27.8427  -20.3665   18.3916 C   0  0  0  0  0  0  0  0  0  0  0  0
  -28.0621  -15.5497   18.3242 C   0  0  0  0  0  0  0  0  0  0  0  0
  -26.7333  -13.8213   17.1013 C   0  0  0  0  0  0  0  0  0  0  0  0
  -22.5545  -29.2606   21.7460 C   0  0  0  0  0  0  0  0  0  0  0  0
  -25.7920  -29.1109   21.6102 C   0  0  0  0  0  0  0  0  0  0  0  0
  -28.5771  -27.3262   20.7706 C   0  0  0  0  0  0  0  0  0  0  0  0
  -28.8619  -19.6432   22.8636 C   0  0  0  0  0  0  0  0  0  0  0  0
  -19.0395  -32.0593   24.1689 C   0  0  0  0  0  0  0  0  0  0  0  0
  -23.0044  -27.0549   22.8812 C   0  0  0  0  0  0  0  0  0  0  0  0
  -24.5261  -27.3222   20.3598 C   0  0  0  0  0  0  0  0  0  0  0  0
  -20.4885  -32.2640   23.7342 C   0  0  0  0  0  0  0  0  0  0  0  0
  -31.3718  -17.6002   21.0591 C   0  0  0  0  0  0  0  0  0  0  0  0
  -20.6703  -31.8591   22.2748 C   0  0  0  0  0  0  0  0  0  0  0  0
  -30.5284  -16.4794   20.4590 C   0  0  0  0  0  0  0  0  0  0  0  0
  -26.9063  -22.0344   21.4399 C   0  0  0  0  0  0  0  0  0  0  0  0
  -30.7433  -18.1569   22.3316 C   0  0  0  0  0  0  0  0  0  0  0  0
  -27.2694  -21.6250   22.8625 C   0  0  0  0  0  0  0  0  0  0  0  0
  -28.4907  -17.5183   21.5374 C   0  0  0  0  0  0  0  0  0  0  0  0
  -20.3526  -30.3729   22.0709 C   0  0  1  0  0  0  0  0  0  0  0  0
  -27.3196  -20.6257   20.9573 C   0  0  2  0  0  0  0  0  0  0  0  0
  -23.5762  -28.3942   22.4264 C   0  0  1  0  0  0  0  0  0  0  0  0
  -29.0839  -16.9521   20.2367 C   0  0  2  0  0  0  0  0  0  0  0  0
  -31.0166  -26.7681   20.5847 C   0  0  0  0  0  0  0  0  0  0  0  0
  -25.6482  -30.9240   19.1603 C   0  0  0  0  0  0  0  0  0  0  0  0
  -28.0073  -30.2760   18.6287 C   0  0  0  0  0  0  0  0  0  0  0  0
  -27.4936  -31.4719   20.7567 C   0  0  0  0  0  0  0  0  0  0  0  0
  -28.5937  -25.9980   23.4153 C   0  0  0  0  0  0  0  0  0  0  0  0
  -25.9075  -20.3997   16.8171 C   0  0  0  0  0  0  0  0  0  0  0  0
  -24.4059  -20.1928   16.8790 C   0  0  0  0  0  0  0  0  0  0  0  0
  -22.3311  -21.0524   17.9722 C   0  0  0  0  0  0  0  0  0  0  0  0
  -21.8516  -22.0241   19.0324 C   0  0  0  0  0  0  0  0  0  1  0  0
  -26.8138  -29.0503   20.5006 C   0  0  1  0  0  0  0  0  0  0  0  0
  -29.8592  -27.0426   21.5323 C   0  0  2  0  0  0  0  0  0  0  0  0
  -26.9705  -30.4107   19.7643 C   0  0  0  0  0  0  0  0  0  0  0  0
  -29.5675  -20.7474   19.9916 N   0  0  0  0  0  0  0  0  0  0  0  0
  -28.7045  -20.3308   17.3560 N   0  0  0  0  0  0  0  0  0  0  0  0
  -27.5267  -15.0539   20.4725 N   0  0  0  0  0  0  0  0  0  0  0  0
  -28.2247  -15.8498   19.6447 N   0  0  0  0  0  0  0  0  0  0  0  0
  -24.6964  -28.2435   21.4954 N   0  0  0  0  0  0  0  0  0  0  0  0
  -29.3477  -18.5547   22.1287 N   0  0  0  0  0  0  0  0  0  0  0  0
  -27.8910  -20.4350   22.2949 N   0  0  0  0  0  0  0  0  0  0  0  0
  -28.6913  -16.2508   17.3573 N   0  0  0  0  0  0  0  0  0  0  0  0
  -25.8487  -12.7434   17.2415 N   0  0  0  0  0  0  0  0  0  0  0  0
  -26.5086  -20.1951   18.1539 N   0  0  0  0  0  0  0  0  0  0  0  0
  -21.4540  -29.5532   22.5288 N   0  0  0  0  0  0  0  0  0  0  0  0
  -28.0446  -28.5531   21.1059 N   0  0  0  0  0  0  0  0  0  0  0  0
  -29.6846  -25.8561   22.4169 N   0  3  0  0  0  0  0  0  0  0  0  0
  -23.8105  -21.1272   17.8721 N   0  3  0  0  0  0  0  0  0  0  0  0
  -27.1050  -14.1651   15.9536 O   0  0  0  0  0  0  0  0  0  0  0  0
  -22.7508  -29.6371   20.5965 O   0  0  0  0  0  0  0  0  0  0  0  0
  -25.9633  -29.8938   22.5480 O   0  0  0  0  0  0  0  0  0  0  0  0
  -28.0980  -26.5397   19.9567 O   0  0  0  0  0  0  0  0  0  0  0  0
  -29.3035  -19.9174   23.9878 O   0  0  0  0  0  0  0  0  0  0  0  0
  -23.5340  -10.2335   21.6436 O   0  0  0  0  0  0  0  0  0  0  0  0
  -22.2222  -23.3524   18.6656 O   0  0  0  0  0  0  0  0  0  1  0  0
  -23.9959   -5.1713   19.5070 F   0  0  0  0  0  0  0  0  0  0  0  0
  -24.1985   -8.0759   23.2391 F   0  0  0  0  0  0  0  0  0  0  0  0
  1  2  1  0  0  0  0
  1  5  2  0  0  0  0
  2  6  2  0  0  0  0
  3  8  2  0  0  0  0
  3 17  1  0  0  0  0
  4  9  1  0  0  0  0
  4 17  2  0  0  0  0
  5 19  1  0  0  0  0
  6 21  1  0  0  0  0
  7 10  2  0  0  0  0
  7 20  1  0  0  0  0
  8 23  1  0  0  0  0
  9 23  2  0  0  0  0
 10 24  1  0  0  0  0
 11 12  2  0  0  0  0
 11 25  1  0  0  0  0
 12 26  1  0  0  0  0
 13 22  1  0  0  0  0
 13 24  2  0  0  0  0
 14 26  2  0  0  0  0
 14 27  1  0  0  0  0
 15 16  1  0  0  0  0
 15 64  2  0  0  0  0
 16 65  2  0  0  0  0
 17 28  1  0  0  0  0
 18 28  1  0  0  0  0
 18 31  2  0  0  0  0
 18 32  1  0  0  0  0
 19 21  2  0  0  0  0
 19 37  1  0  0  0  0
 20 22  2  0  0  0  0
 20 38  1  0  0  0  0
 21 48  1  0  0  0  0
 22 39  1  0  0  0  0
 23 83  1  0  0  0  0
 24 84  1  0  0  0  0
 25 27  2  0  0  0  0
 25 83  1  0  0  0  0
 26 85  1  0  0  0  0
 27 86  1  0  0  0  0
 28 66  2  0  0  0  0
 29 30  2  0  0  0  0
 29 49  1  0  0  0  0
 29 64  1  0  0  0  0
 30 65  1  0  0  0  0
 30 73  1  0  0  0  0
 31 67  1  0  0  0  0
 31 71  1  0  0  0  0
 32 72  1  0  0  0  0
 32 78  2  0  0  0  0
 33 50  1  0  0  0  0
 33 74  1  0  0  0  0
 33 79  2  0  0  0  0
 34 61  1  0  0  0  0
 34 68  1  0  0  0  0
 34 80  2  0  0  0  0
 35 62  1  0  0  0  0
 35 75  1  0  0  0  0
 35 81  2  0  0  0  0
 36 69  1  0  0  0  0
 36 70  1  0  0  0  0
 36 82  2  0  0  0  0
 37 40  1  0  0  0  0
 38 50  1  0  0  0  0
 39 68  1  0  0  0  0
 40 42  1  0  0  0  0
 41 43  1  0  0  0  0
 41 45  1  0  0  0  0
 42 48  1  0  0  0  0
 43 51  1  0  0  0  0
 44 46  1  0  0  0  0
 44 49  1  0  0  0  0
 45 69  1  0  0  0  0
 46 70  1  0  0  0  0
 47 51  1  0  0  0  0
 47 69  1  0  0  0  0
 48 74  1  0  0  0  0
 49 70  1  0  0  0  0
 50 68  1  0  0  0  0
 51 67  1  0  0  0  0
 52 62  1  0  0  0  0
 53 63  1  0  0  0  0
 54 63  1  0  0  0  0
 55 63  1  0  0  0  0
 56 76  1  0  0  0  0
 57 58  1  0  0  0  0
 57 73  1  0  0  0  0
 58 77  1  0  0  0  0
 59 60  1  0  0  0  0
 59 77  1  0  0  0  0
 60 84  1  0  0  0  0
 61 63  1  0  0  0  0
 61 75  1  0  0  0  0
 62 76  1  0  0  0  0
 66 67  1  0  0  0  0
M  CHG  2  76   1  77   1
M  ISO  4  36 100  60 101  70 100  84 101
M  END
> <Batch ID>
0195

> <Smiles>
CNC(C)C(=O)NC(C(=O)N1Cc2cc([101O:1][101CH2:1]CNCCNc3nccnc3C3CC[100N:0]3[100C:0](=O)N3CCCC(n4nc(-c5ccc(Oc6ccc(F)cc6F)cc5)c(C(N)=O)c4N)C3)ccc2CC1C(=O)NC1CCCc2ccccc21)C(C)(C)C

> <Shape>
0.253

> <Color>
0.083

> <Negative vol penalty>
0.000

$$$$

  -OEChem-04052323373D

 87 97  0     1  0  0  0  0  0999 V2000
  -18.6494  -24.1793   22.3851 C   0  0  0  0  0  0  0  0  0  0  0  0
  -19.9700  -24.2716   21.9575 C   0  0  0  0  0  0  0  0  0  0  0  0
  -21.3173  -11.3068   22.4974 C   0  0  0  0  0  0  0  0  0  0  0  0
  -23.5192  -10.3861   22.8729 C   0  0  0  0  0  0  0  0  0  0  0  0
  -17.8905  -25.3365   22.5553 C   0  0  0  0  0  0  0  0  0  0  0  0
  -20.5321  -25.5211   21.6986 C   0  0  0  0  0  0  0  0  0  0  0  0
  -25.1837  -25.9992   23.6427 C   0  0  0  0  0  0  0  0  0  0  0  0
  -20.8439  -10.0382   22.1627 C   0  0  0  0  0  0  0  0  0  0  0  0
  -23.0458   -9.1174   22.5382 C   0  0  0  0  0  0  0  0  0  0  0  0
  -26.2295  -25.3928   22.9481 C   0  0  0  0  0  0  0  0  0  0  0  0
  -21.2729   -6.6514   24.0201 C   0  0  0  0  0  0  0  0  0  0  0  0
  -21.6457   -5.5854   24.8388 C   0  0  0  0  0  0  0  0  0  0  0  0
  -26.8154  -27.5241   21.9819 C   0  0  0  0  0  0  0  0  0  0  0  0
  -22.7062   -4.5087   22.9539 C   0  0  0  0  0  0  0  0  0  0  0  0
  -30.7607  -25.1389   18.0885 C   0  0  0  0  0  0  0  0  0  0  0  0
  -22.6550  -11.4808   22.8524 C   0  0  0  0  0  0  0  0  0  0  0  0
  -23.1724  -13.3786   24.4768 C   0  0  0  0  0  0  0  0  0  0  0  0
  -18.4466  -26.6014   22.3076 C   0  0  0  0  0  0  0  0  0  0  0  0
  -24.9387  -27.3728   23.5034 C   0  0  0  0  0  0  0  0  0  0  0  0
  -19.7796  -26.6963   21.8643 C   0  0  0  0  0  0  0  0  0  0  0  0
  -25.7675  -28.1459   22.6778 C   0  0  0  0  0  0  0  0  0  0  0  0
  -21.7081   -8.9435   22.1831 C   0  0  0  0  0  0  0  0  0  0  0  0
  -27.0438  -26.1547   22.1153 C   0  0  0  0  0  0  0  0  0  0  0  0
  -21.6166   -6.6460   22.6682 C   0  0  0  0  0  0  0  0  0  0  0  0
  -22.3624   -4.5141   24.3057 C   0  0  0  0  0  0  0  0  0  0  0  0
  -22.3333   -5.5746   22.1351 C   0  0  0  0  0  0  0  0  0  0  0  0
  -23.1448  -12.7912   23.1977 C   0  0  0  0  0  0  0  0  0  0  0  0
  -30.5198  -23.9390   17.4563 C   0  0  0  0  0  0  0  0  0  0  0  0
  -30.2712  -24.1756   20.1039 C   0  0  0  0  0  0  0  0  0  0  0  0
  -30.0296  -22.9757   19.4717 C   0  0  0  0  0  0  0  0  0  0  0  0
  -23.7266  -14.6187   24.2732 C   0  0  0  0  0  0  0  0  0  0  0  0
  -22.7363  -12.8504   25.7363 C   0  0  0  0  0  0  0  0  0  0  0  0
  -22.5090  -29.1209   22.4338 C   0  0  0  0  0  0  0  0  0  0  0  0
  -24.3216  -31.5891   23.5037 C   0  0  0  0  0  0  0  0  0  0  0  0
  -27.4206  -32.7751   24.3013 C   0  0  0  0  0  0  0  0  0  0  0  0
  -27.3697  -16.5525   19.9475 C   0  0  0  0  0  0  0  0  0  0  0  0
  -17.5726  -27.8211   22.4601 C   0  0  0  0  0  0  0  0  0  0  0  0
  -23.8232  -28.0167   24.2802 C   0  0  0  0  0  0  0  0  0  0  0  0
  -25.5591  -29.6280   22.5096 C   0  0  0  0  0  0  0  0  0  0  0  0
  -18.3576  -29.1287   22.5246 C   0  0  0  0  0  0  0  0  0  0  0  0
  -24.1651  -18.0279   20.9479 C   0  0  0  0  0  0  0  0  0  0  0  0
  -19.4161  -29.1706   21.4269 C   0  0  0  0  0  0  0  0  0  0  0  0
  -29.8920  -24.7816   15.0963 C   0  0  0  0  0  0  0  0  0  0  0  0
  -29.5057  -23.3368   15.1569 C   0  0  0  0  0  0  0  0  0  0  0  0
  -23.5381  -16.8826   21.7445 C   0  0  0  0  0  0  0  0  0  0  0  0
  -25.0029  -17.4938   19.7924 C   0  0  0  0  0  0  0  0  0  0  0  0
  -25.4551  -15.3928   20.9933 C   0  0  0  0  0  0  0  0  0  0  0  0
  -27.7541  -19.1349   20.1474 C   0  0  0  0  0  0  0  0  0  0  0  0
  -29.3397  -18.0245   19.2618 C   0  0  0  0  0  0  0  0  0  0  0  0
  -20.4325  -28.0351   21.5971 C   0  0  1  0  0  0  0  0  0  0  0  0
  -30.6669  -23.8362   15.9785 C   0  0  0  0  0  0  0  0  0  0  0  0
  -23.3457  -29.3283   23.6644 C   0  0  1  0  0  0  0  0  0  0  0  0
  -24.6032  -15.8625   22.1871 C   0  0  2  0  0  0  0  0  0  0  0  0
  -29.2818  -19.2823   20.1358 C   0  0  0  0  0  0  0  0  0  0  0  0
  -28.5904  -34.8422   25.1112 C   0  0  0  0  0  0  0  0  0  0  0  0
  -24.0532  -32.8259   20.7273 C   0  0  0  0  0  0  0  0  0  0  0  0
  -25.9660  -34.3391   21.2927 C   0  0  0  0  0  0  0  0  0  0  0  0
  -23.8551  -34.4518   22.6171 C   0  0  0  0  0  0  0  0  0  0  0  0
  -28.3967  -31.4083   26.7381 C   0  0  0  0  0  0  0  0  0  0  0  0
  -30.1349  -24.3168   21.5814 C   0  0  0  0  0  0  0  0  0  0  0  0
  -29.6180  -21.7551   20.2409 C   0  0  0  0  0  0  0  0  0  0  0  0
  -28.6773  -24.4279   22.0402 C   0  0  0  0  0  0  0  0  0  1  0  0
  -25.3940  -32.4664   22.9042 C   0  0  1  0  0  0  0  0  0  0  0  0
  -27.9271  -33.5344   25.5143 C   0  0  2  0  0  0  0  0  0  0  0  0
  -24.8201  -33.4925   21.8868 C   0  0  0  0  0  0  0  0  0  0  0  0
  -30.6407  -25.2788   19.4236 N   0  0  0  0  0  0  0  0  0  0  0  0
  -23.6417  -13.5923   22.2515 N   0  0  0  0  0  0  0  0  0  0  0  0
  -30.1499  -22.8358   18.1366 N   0  0  0  0  0  0  0  0  0  0  0  0
  -23.9867  -14.6958   22.9365 N   0  0  0  0  0  0  0  0  0  0  0  0
  -24.4515  -30.2102   23.2852 N   0  0  0  0  0  0  0  0  0  0  0  0
  -26.0105  -16.5430   20.2725 N   0  0  0  0  0  0  0  0  0  0  0  0
  -27.9721  -17.7648   19.7057 N   0  0  0  0  0  0  0  0  0  0  0  0
  -24.0119  -15.6398   25.1088 N   0  0  0  0  0  0  0  0  0  0  0  0
  -22.1906  -11.5598   25.7667 N   0  0  0  0  0  0  0  0  0  0  0  0
  -21.3779  -28.3557   22.6449 N   0  0  0  0  0  0  0  0  0  0  0  0
  -26.1020  -33.0708   24.0275 N   0  0  0  0  0  0  0  0  0  0  0  0
  -29.7493  -20.4928   19.4505 N   0  3  0  0  0  0  0  0  0  0  0  0
  -28.9218  -32.7135   26.2611 N   0  3  0  0  0  0  0  0  0  0  0  0
  -22.8126  -13.5099   26.8006 O   0  0  0  0  0  0  0  0  0  0  0  0
  -22.8625  -29.6195   21.3716 O   0  0  0  0  0  0  0  0  0  0  0  0
  -23.4064  -32.1075   24.1482 O   0  0  0  0  0  0  0  0  0  0  0  0
  -28.1255  -32.0001   23.6585 O   0  0  0  0  0  0  0  0  0  0  0  0
  -28.0376  -15.5107   19.9055 O   0  0  0  0  0  0  0  0  0  0  0  0
  -21.2464   -7.7054   21.8569 O   0  0  0  0  0  0  0  0  0  0  0  0
  -28.0720  -25.5611   21.4309 O   0  0  0  0  0  0  0  0  0  1  0  0
  -22.7217   -3.4912   25.0924 F   0  0  0  0  0  0  0  0  0  0  0  0
  -22.6675   -5.5644   20.8374 F   0  0  0  0  0  0  0  0  0  0  0  0
  1  2  1  0  0  0  0
  1  5  2  0  0  0  0
  2  6  2  0  0  0  0
  3  8  2  0  0  0  0
  3 16  1  0  0  0  0
  4  9  1  0  0  0  0
  4 16  2  0  0  0  0
  5 18  1  0  0  0  0
  6 20  1  0  0  0  0
  7 10  2  0  0  0  0
  7 19  1  0  0  0  0
  8 22  1  0  0  0  0
  9 22  2  0  0  0  0
 10 23  1  0  0  0  0
 11 12  2  0  0  0  0
 11 24  1  0  0  0  0
 12 25  1  0  0  0  0
 13 21  1  0  0  0  0
 13 23  2  0  0  0  0
 14 25  2  0  0  0  0
 14 26  1  0  0  0  0
 15 28  1  0  0  0  0
 15 66  2  0  0  0  0
 16 27  1  0  0  0  0
 17 27  1  0  0  0  0
 17 31  2  0  0  0  0
 17 32  1  0  0  0  0
 18 20  2  0  0  0  0
 18 37  1  0  0  0  0
 19 21  2  0  0  0  0
 19 38  1  0  0  0  0
 20 50  1  0  0  0  0
 21 39  1  0  0  0  0
 22 84  1  0  0  0  0
 23 85  1  0  0  0  0
 24 26  2  0  0  0  0
 24 84  1  0  0  0  0
 25 86  1  0  0  0  0
 26 87  1  0  0  0  0
 27 67  2  0  0  0  0
 28 51  1  0  0  0  0
 28 68  2  0  0  0  0
 29 30  2  0  0  0  0
 29 60  1  0  0  0  0
 29 66  1  0  0  0  0
 30 61  1  0  0  0  0
 30 68  1  0  0  0  0
 31 69  1  0  0  0  0
 31 73  1  0  0  0  0
 32 74  1  0  0  0  0
 32 79  2  0  0  0  0
 33 52  1  0  0  0  0
 33 75  1  0  0  0  0
 33 80  2  0  0  0  0
 34 63  1  0  0  0  0
 34 70  1  0  0  0  0
 34 81  2  0  0  0  0
 35 64  1  0  0  0  0
 35 76  1  0  0  0  0
 35 82  2  0  0  0  0
 36 71  1  0  0  0  0
 36 72  1  0  0  0  0
 36 83  2  0  0  0  0
 37 40  1  0  0  0  0
 38 52  1  0  0  0  0
 39 70  1  0  0  0  0
 40 42  1  0  0  0  0
 41 45  1  0  0  0  0
 41 46  1  0  0  0  0
 42 50  1  0  0  0  0
 43 44  1  0  0  0  0
 43 51  1  0  0  0  0
 44 51  1  0  0  0  0
 45 53  1  0  0  0  0
 46 71  1  0  0  0  0
 47 53  1  0  0  0  0
 47 71  1  0  0  0  0
 48 54  1  0  0  0  0
 48 72  1  0  0  0  0
 49 54  1  0  0  0  0
 49 72  1  0  0  0  0
 50 75  1  0  0  0  0
 52 70  1  0  0  0  0
 53 69  1  0  0  0  0
 54 77  1  0  0  0  0
 55 64  1  0  0  0  0
 56 65  1  0  0  0  0
 57 65  1  0  0  0  0
 58 65  1  0  0  0  0
 59 78  1  0  0  0  0
 60 62  1  0  0  0  0
 61 77  1  0  0  0  0
 62 85  1  0  0  0  0
 63 65  1  0  0  0  0
 63 76  1  0  0  0  0
 64 78  1  0  0  0  0
 67 69  1  0  0  0  0
M  CHG  2  77   1  78   1
M  ISO  4  36 100  62 101  72 100  85 101
M  END
> <Batch ID>
0195

> <Smiles>
CNC(C)C(=O)NC(C(=O)N1Cc2cc([101O:1][101CH2:1]Cc3ncc(C4CC4)nc3CNC3C[100N:0]([100C:0](=O)N4CCCC(n5nc(-c6ccc(Oc7ccc(F)cc7F)cc6)c(C(N)=O)c5N)C4)C3)ccc2CC1C(=O)NC1CCCc2ccccc21)C(C)(C)C

> <Shape>
0.286

> <Color>
0.085

> <Negative vol penalty>
0.000

$$$$

  -OEChem-04052323373D

 84 94  0     1  0  0  0  0  0999 V2000
  -24.8601  -23.5624   16.5364 C   0  0  0  0  0  0  0  0  0  0  0  0
  -25.0907  -22.2416   16.1653 C   0  0  0  0  0  0  0  0  0  0  0  0
  -26.3767  -27.8506   18.8923 C   0  0  0  0  0  0  0  0  0  0  0  0
  -26.6355  -27.5750   21.2786 C   0  0  0  0  0  0  0  0  0  0  0  0
  -24.8620  -23.9169   17.8849 C   0  0  0  0  0  0  0  0  0  0  0  0
  -25.3244  -21.2747   17.1424 C   0  0  0  0  0  0  0  0  0  0  0  0
  -24.2196  -14.3282   18.4995 C   0  0  0  0  0  0  0  0  0  0  0  0
  -25.1632  -28.5062   19.0996 C   0  0  0  0  0  0  0  0  0  0  0  0
  -25.4219  -28.2306   21.4859 C   0  0  0  0  0  0  0  0  0  0  0  0
  -24.9147  -13.1814   18.8809 C   0  0  0  0  0  0  0  0  0  0  0  0
  -22.1279  -27.4907   21.3049 C   0  0  0  0  0  0  0  0  0  0  0  0
  -21.2366  -26.9303   22.2198 C   0  0  0  0  0  0  0  0  0  0  0  0
  -24.8159  -13.8947   21.1833 C   0  0  0  0  0  0  0  0  0  0  0  0
  -21.3243  -28.9502   23.5424 C   0  0  0  0  0  0  0  0  0  0  0  0
  -30.8070  -12.7929   20.9449 C   0  0  0  0  0  0  0  0  0  0  0  0
  -27.1129  -27.3850   19.9818 C   0  0  0  0  0  0  0  0  0  0  0  0
  -29.6462  -27.2892   19.6969 C   0  0  0  0  0  0  0  0  0  0  0  0
  -25.0863  -22.9520   18.8795 C   0  0  0  0  0  0  0  0  0  0  0  0
  -23.8263  -15.2737   19.4574 C   0  0  0  0  0  0  0  0  0  0  0  0
  -25.3307  -21.6168   18.5054 C   0  0  0  0  0  0  0  0  0  0  0  0
  -24.1136  -15.0513   20.8117 C   0  0  0  0  0  0  0  0  0  0  0  0
  -24.6857  -28.6962   20.3964 C   0  0  0  0  0  0  0  0  0  0  0  0
  -25.2155  -12.9659   20.2227 C   0  0  0  0  0  0  0  0  0  0  0  0
  -22.6175  -28.7809   21.5087 C   0  0  0  0  0  0  0  0  0  0  0  0
  -20.8347  -27.6601   23.3386 C   0  0  0  0  0  0  0  0  0  0  0  0
  -22.2156  -29.5106   22.6275 C   0  0  0  0  0  0  0  0  0  0  0  0
  -28.3663  -26.7072   19.7683 C   0  0  0  0  0  0  0  0  0  0  0  0
  -29.4895  -13.1171   20.7842 C   0  0  0  0  0  0  0  0  0  0  0  0
  -30.4938  -26.2297   19.4835 C   0  0  0  0  0  0  0  0  0  0  0  0
  -30.5696  -14.9421   21.4193 C   0  0  0  0  0  0  0  0  0  0  0  0
  -30.0341  -28.6646   19.8133 C   0  0  0  0  0  0  0  0  0  0  0  0
  -24.4821  -18.3390   19.9847 C   0  0  0  0  0  0  0  0  0  0  0  0
  -22.2123  -18.0270   22.2810 C   0  0  0  0  0  0  0  0  0  0  0  0
  -20.4935  -15.9724   24.3955 C   0  0  0  0  0  0  0  0  0  0  0  0
  -30.0542  -20.5079   20.8382 C   0  0  0  0  0  0  0  0  0  0  0  0
  -25.1258  -23.3917   20.3216 C   0  0  0  0  0  0  0  0  0  0  0  0
  -23.0537  -16.4925   19.0328 C   0  0  0  0  0  0  0  0  0  0  0  0
  -23.6959  -16.0258   21.8814 C   0  0  0  0  0  0  0  0  0  0  0  0
  -25.0100  -22.2373   21.3137 C   0  0  0  0  0  0  0  0  0  0  0  0
  -30.6109  -21.8626   17.5298 C   0  0  0  0  0  0  0  0  0  0  0  0
  -25.9388  -21.0950   20.9144 C   0  0  0  0  0  0  0  0  0  0  0  0
  -30.2161  -23.3264   17.7323 C   0  0  0  0  0  0  0  0  0  0  0  0
  -28.1247  -10.9087   21.1456 C   0  0  0  0  0  0  0  0  0  0  0  0
  -29.7041  -20.9290   18.3268 C   0  0  0  0  0  0  0  0  0  0  0  0
  -29.2471  -22.6891   19.9885 C   0  0  0  0  0  0  0  0  0  0  0  0
  -31.7265  -17.0760   21.0718 C   0  0  0  0  0  0  0  0  0  0  0  0
  -29.8241  -17.2156   21.9555 C   0  0  0  0  0  0  0  0  0  0  0  0
  -25.5636  -20.5346   19.5372 C   0  0  1  0  0  0  0  0  0  0  0  0
  -28.3531  -12.1742   20.3526 C   0  0  1  0  0  0  0  0  0  0  0  0
  -23.1525  -17.6407   20.0324 C   0  0  1  0  0  0  0  0  0  0  0  0
  -30.1421  -23.6845   19.2282 C   0  0  2  0  0  0  0  0  0  0  0  0
  -30.8869  -18.2573   21.5783 C   0  0  0  0  0  0  0  0  0  0  0  0
  -27.1465  -12.0381   21.2553 C   0  0  1  0  0  0  0  0  0  1  0  0
  -18.7282  -16.0123   26.1787 C   0  0  0  0  0  0  0  0  0  0  0  0
  -24.2462  -19.1373   24.2661 C   0  0  0  0  0  0  0  0  0  0  0  0
  -22.8014  -18.2767   26.1210 C   0  0  0  0  0  0  0  0  0  0  0  0
  -21.9205  -20.0095   24.5576 C   0  0  0  0  0  0  0  0  0  0  0  0
  -32.8699  -14.0471   21.6193 C   0  0  0  0  0  0  0  0  0  0  0  0
  -18.6988  -14.2237   22.8207 C   0  0  0  0  0  0  0  0  0  0  0  0
  -22.2133  -17.6354   23.7390 C   0  0  1  0  0  0  0  0  0  0  0  0
  -19.0103  -15.8468   24.6935 C   0  0  2  0  0  0  0  0  0  0  0  0
  -22.8050  -18.7471   24.6508 C   0  0  0  0  0  0  0  0  0  0  0  0
  -28.3937  -25.3809   19.6126 N   0  0  0  0  0  0  0  0  0  0  0  0
  -31.4519  -13.9409   21.3376 N   0  0  0  0  0  0  0  0  0  0  0  0
  -29.7010  -25.1208   19.4412 N   0  0  0  0  0  0  0  0  0  0  0  0
  -29.3713  -14.4527   21.0846 N   0  3  0  0  0  0  0  0  0  0  0  0
  -30.8291  -16.2286   21.7748 N   0  0  0  0  0  0  0  0  0  0  0  0
  -22.9482  -17.2053   21.4154 N   0  0  0  0  0  0  0  0  0  0  0  0
  -29.6932  -21.3127   19.7458 N   0  0  0  0  0  0  0  0  0  0  0  0
  -31.8324  -26.1479   19.3296 N   0  0  0  0  0  0  0  0  0  0  0  0
  -29.0361  -29.6241   20.0316 N   0  0  0  0  0  0  0  0  0  0  0  0
  -24.4040  -19.6749   19.6402 N   0  0  0  0  0  0  0  0  0  0  0  0
  -20.8399  -17.2650   24.0631 N   0  0  0  0  0  0  0  0  0  0  0  0
  -30.4701  -19.2160   20.5342 N   0  0  0  0  0  0  0  0  0  0  0  0
  -18.5073  -14.5107   24.2657 N   0  3  0  0  0  0  0  0  0  0  0  0
  -31.2285  -29.0336   19.7099 O   0  0  0  0  0  0  0  0  0  0  0  0
  -25.5031  -17.7124   20.2428 O   0  0  0  0  0  0  0  0  0  0  0  0
  -21.5760  -19.0210   21.9222 O   0  0  0  0  0  0  0  0  0  0  0  0
  -21.2680  -15.0200   24.4555 O   0  0  0  0  0  0  0  0  0  0  0  0
  -30.0169  -20.9082   22.0069 O   0  0  0  0  0  0  0  0  0  0  0  0
  -23.5017  -29.3361   20.5991 O   0  0  0  0  0  0  0  0  0  0  0  0
  -25.8945  -11.8478   20.5976 O   0  0  0  0  0  0  0  0  0  1  0  0
  -19.9776  -27.1224   24.2163 F   0  0  0  0  0  0  0  0  0  0  0  0
  -22.6816  -30.7509   22.8281 F   0  0  0  0  0  0  0  0  0  0  0  0
  1  2  1  0  0  0  0
  1  5  2  0  0  0  0
  2  6  2  0  0  0  0
  3  8  2  0  0  0  0
  3 16  1  0  0  0  0
  4  9  1  0  0  0  0
  4 16  2  0  0  0  0
  5 18  1  0  0  0  0
  6 20  1  0  0  0  0
  7 10  2  0  0  0  0
  7 19  1  0  0  0  0
  8 22  1  0  0  0  0
  9 22  2  0  0  0  0
 10 23  1  0  0  0  0
 11 12  2  0  0  0  0
 11 24  1  0  0  0  0
 12 25  1  0  0  0  0
 13 21  1  0  0  0  0
 13 23  2  0  0  0  0
 14 25  2  0  0  0  0
 14 26  1  0  0  0  0
 15 28  2  0  0  0  0
 15 64  1  0  0  0  0
 16 27  1  0  0  0  0
 17 27  1  0  0  0  0
 17 29  2  0  0  0  0
 17 31  1  0  0  0  0
 18 20  2  0  0  0  0
 18 36  1  0  0  0  0
 19 21  2  0  0  0  0
 19 37  1  0  0  0  0
 20 48  1  0  0  0  0
 21 38  1  0  0  0  0
 22 81  1  0  0  0  0
 23 82  1  0  0  0  0
 24 26  2  0  0  0  0
 24 81  1  0  0  0  0
 25 83  1  0  0  0  0
 26 84  1  0  0  0  0
 27 63  2  0  0  0  0
 28 49  1  0  0  0  0
 28 66  1  0  0  0  0
 29 65  1  0  0  0  0
 29 70  1  0  0  0  0
 30 64  1  0  0  0  0
 30 66  2  0  0  0  0
 30 67  1  0  0  0  0
 31 71  1  0  0  0  0
 31 76  2  0  0  0  0
 32 50  1  0  0  0  0
 32 72  1  0  0  0  0
 32 77  2  0  0  0  0
 33 60  1  0  0  0  0
 33 68  1  0  0  0  0
 33 78  2  0  0  0  0
 34 61  1  0  0  0  0
 34 73  1  0  0  0  0
 34 79  2  0  0  0  0
 35 69  1  0  0  0  0
 35 74  1  0  0  0  0
 35 80  2  0  0  0  0
 36 39  1  0  0  0  0
 37 50  1  0  0  0  0
 38 68  1  0  0  0  0
 39 41  1  0  0  0  0
 40 42  1  0  0  0  0
 40 44  1  0  0  0  0
 41 48  1  0  0  0  0
 42 51  1  0  0  0  0
 43 49  1  0  0  0  0
 43 53  1  0  0  0  0
 44 69  1  0  0  0  0
 45 51  1  0  0  0  0
 45 69  1  0  0  0  0
 46 52  1  0  0  0  0
 46 67  1  0  0  0  0
 47 52  1  0  0  0  0
 47 67  1  0  0  0  0
 48 72  1  0  0  0  0
 49 53  1  0  0  0  0
 50 68  1  0  0  0  0
 51 65  1  0  0  0  0
 52 74  1  0  0  0  0
 53 82  1  0  0  0  0
 54 61  1  0  0  0  0
 55 62  1  0  0  0  0
 56 62  1  0  0  0  0
 57 62  1  0  0  0  0
 58 64  1  0  0  0  0
 59 75  1  0  0  0  0
 60 62  1  0  0  0  0
 60 73  1  0  0  0  0
 61 75  1  0  0  0  0
 63 65  1  0  0  0  0
M  CHG  2  66   1  75   1
M  ISO  4  35 100  53 101  74 100  82 101
M  END
> <Batch ID>
0195

> <Smiles>
CNC(C)C(=O)NC(C(=O)N1Cc2cc([101O:1][101CH:1]3CC3c3cn(C)c(N4CC([100NH:0][100C:0](=O)N5CCCC(n6nc(-c7ccc(Oc8ccc(F)cc8F)cc7)c(C(N)=O)c6N)C5)C4)n3)ccc2CC1C(=O)NC1CCCc2ccccc21)C(C)(C)C

> <Shape>
0.235

> <Color>
0.041

> <Negative vol penalty>
0.000

$$$$

  -OEChem-04052323373D

 90100  0     1  0  0  0  0  0999 V2000
  -20.8243  -24.2334   19.0554 C   0  0  0  0  0  0  0  0  0  0  0  0
  -22.1761  -24.5619   19.0675 C   0  0  0  0  0  0  0  0  0  0  0  0
  -24.2706  -14.5023   23.5235 C   0  0  0  0  0  0  0  0  0  0  0  0
  -23.7927  -15.4723   21.3630 C   0  0  0  0  0  0  0  0  0  0  0  0
  -19.8635  -25.2349   19.1885 C   0  0  0  0  0  0  0  0  0  0  0  0
  -22.5679  -25.8924   19.2116 C   0  0  0  0  0  0  0  0  0  0  0  0
  -26.3640  -26.4529   22.5162 C   0  0  0  0  0  0  0  0  0  0  0  0
  -23.6557  -15.5880   24.1470 C   0  0  0  0  0  0  0  0  0  0  0  0
  -23.1777  -16.5580   21.9865 C   0  0  0  0  0  0  0  0  0  0  0  0
  -27.6462  -26.1308   22.0736 C   0  0  0  0  0  0  0  0  0  0  0  0
  -24.1302  -19.3995   23.5516 C   0  0  0  0  0  0  0  0  0  0  0  0
  -24.4377  -20.6762   23.0815 C   0  0  0  0  0  0  0  0  0  0  0  0
  -28.1041  -28.4720   21.7152 C   0  0  0  0  0  0  0  0  0  0  0  0
  -22.1100  -21.0396   22.5460 C   0  0  0  0  0  0  0  0  0  0  0  0
  -30.8160  -21.7809   18.4773 C   0  0  0  0  0  0  0  0  0  0  0  0
  -28.4426  -22.3412   19.6012 C   0  0  0  0  0  0  0  0  0  0  0  0
  -24.3391  -14.4445   22.1315 C   0  0  0  0  0  0  0  0  0  0  0  0
  -24.3675  -12.1201   21.0806 C   0  0  0  0  0  0  0  0  0  0  0  0
  -20.2439  -26.5773   19.3440 C   0  0  0  0  0  0  0  0  0  0  0  0
  -25.9377  -27.7883   22.5513 C   0  0  0  0  0  0  0  0  0  0  0  0
  -21.6112  -26.9130   19.3455 C   0  0  0  0  0  0  0  0  0  0  0  0
  -26.8168  -28.8086   22.1611 C   0  0  0  0  0  0  0  0  0  0  0  0
  -23.1092  -16.6158   23.3785 C   0  0  0  0  0  0  0  0  0  0  0  0
  -28.5155  -27.1402   21.6702 C   0  0  0  0  0  0  0  0  0  0  0  0
  -22.8126  -18.9427   23.5188 C   0  0  0  0  0  0  0  0  0  0  0  0
  -23.4276  -21.4963   22.5788 C   0  0  0  0  0  0  0  0  0  0  0  0
  -21.8025  -19.7628   23.0160 C   0  0  0  0  0  0  0  0  0  0  0  0
  -24.9747  -13.3235   21.4868 C   0  0  0  0  0  0  0  0  0  0  0  0
  -30.1178  -22.9346   18.1840 C   0  0  0  0  0  0  0  0  0  0  0  0
  -30.2148  -20.9341   19.3860 C   0  0  0  0  0  0  0  0  0  0  0  0
  -25.3899  -11.3899   20.5257 C   0  0  0  0  0  0  0  0  0  0  0  0
  -23.0015  -11.7000   21.1947 C   0  0  0  0  0  0  0  0  0  0  0  0
  -23.6317  -29.4452   21.1227 C   0  0  0  0  0  0  0  0  0  0  0  0
  -24.6403  -31.8098   23.1010 C   0  0  0  0  0  0  0  0  0  0  0  0
  -27.1582  -33.1322   24.9873 C   0  0  0  0  0  0  0  0  0  0  0  0
  -29.8603  -14.6516   21.7032 C   0  0  0  0  0  0  0  0  0  0  0  0
  -19.1683  -27.6304   19.4369 C   0  0  0  0  0  0  0  0  0  0  0  0
  -24.5606  -28.1213   23.0567 C   0  0  0  0  0  0  0  0  0  0  0  0
  -26.4147  -30.2595   22.1991 C   0  0  0  0  0  0  0  0  0  0  0  0
  -19.6733  -28.9722   19.9612 C   0  0  0  0  0  0  0  0  0  0  0  0
  -28.3682  -13.6359   18.4233 C   0  0  0  0  0  0  0  0  0  0  0  0
  -20.9677  -29.3674   19.2575 C   0  0  0  0  0  0  0  0  0  0  0  0
  -28.1077  -12.1513   18.6687 C   0  0  0  0  0  0  0  0  0  0  0  0
  -29.9017  -24.2150   15.9577 C   0  0  0  0  0  0  0  0  0  0  0  0
  -31.1349  -23.3729   15.8570 C   0  0  0  0  0  0  0  0  0  0  0  0
  -31.5281  -17.9215   21.1628 C   0  0  0  0  0  0  0  0  0  0  0  0
  -29.3140  -17.9265   19.9604 C   0  0  0  0  0  0  0  0  0  0  0  0
  -29.5397  -14.1271   19.2618 C   0  0  0  0  0  0  0  0  0  0  0  0
  -31.0154  -16.8015   22.0654 C   0  0  0  0  0  0  0  0  0  0  0  0
  -28.8393  -16.8108   20.8867 C   0  0  0  0  0  0  0  0  0  0  0  0
  -29.0673  -12.4222   20.9992 C   0  0  0  0  0  0  0  0  0  0  0  0
  -22.0762  -28.3419   19.5246 C   0  0  1  0  0  0  0  0  0  0  0  0
  -24.0543  -29.4736   22.5643 C   0  0  1  0  0  0  0  0  0  0  0  0
  -27.9151  -11.8290   20.1635 C   0  0  1  0  0  0  0  0  0  0  0  0
  -30.3784  -18.7868   20.6438 C   0  0  0  0  0  0  0  0  0  0  0  0
  -30.6996  -23.9036   17.2101 C   0  0  0  0  0  0  0  0  0  0  0  0
  -27.6963  -35.0925   26.4587 C   0  0  0  0  0  0  0  0  0  0  0  0
  -24.9328  -33.5793   20.6326 C   0  0  0  0  0  0  0  0  0  0  0  0
  -26.3350  -35.1375   22.0016 C   0  0  0  0  0  0  0  0  0  0  0  0
  -23.9558  -34.7264   22.6285 C   0  0  0  0  0  0  0  0  0  0  0  0
  -27.6504  -31.3885   27.3274 C   0  0  0  0  0  0  0  0  0  0  0  0
  -31.5066  -25.0127   17.8240 C   0  0  0  0  0  0  0  0  0  0  0  0
  -31.3489  -26.9246   19.4234 C   0  0  0  0  0  0  0  0  0  0  0  0
  -30.3563  -27.6959   20.2708 C   0  0  0  0  0  0  0  0  0  1  0  0
  -25.6710  -32.9094   23.0143 C   0  0  1  0  0  0  0  0  0  0  0  0
  -27.1793  -33.6631   26.4093 C   0  0  2  0  0  0  0  0  0  0  0  0
  -25.2309  -34.0608   22.0666 C   0  0  0  0  0  0  0  0  0  0  0  0
  -28.9242  -23.2476   18.7295 N   0  0  0  0  0  0  0  0  0  0  0  0
  -29.0244  -21.1839   19.9697 N   0  0  0  0  0  0  0  0  0  0  0  0
  -26.2816  -13.3596   21.2134 N   0  0  0  0  0  0  0  0  0  0  0  0
  -26.5040  -12.1698   20.6295 N   0  0  0  0  0  0  0  0  0  0  0  0
  -25.0558  -30.5338   22.6949 N   0  0  0  0  0  0  0  0  0  0  0  0
  -29.3522  -13.8252   20.6852 N   0  0  0  0  0  0  0  0  0  0  0  0
  -29.9631  -16.0227   21.4120 N   0  0  0  0  0  0  0  0  0  0  0  0
  -25.4357  -10.1632   19.9640 N   0  0  0  0  0  0  0  0  0  0  0  0
  -22.0815  -12.5731   21.7910 N   0  0  0  0  0  0  0  0  0  0  0  0
  -30.8841  -19.7667   19.7079 N   0  0  0  0  0  0  0  0  0  0  0  0
  -22.6322  -28.5317   20.8472 N   0  0  0  0  0  0  0  0  0  0  0  0
  -25.9336  -33.3318   24.3857 N   0  0  0  0  0  0  0  0  0  0  0  0
  -28.0570  -32.8160   27.2655 N   0  3  0  0  0  0  0  0  0  0  0  0
  -30.6396  -25.8261   18.7138 N   0  3  0  0  0  0  0  0  0  0  0  0
  -22.6116  -10.5768   20.7949 O   0  0  0  0  0  0  0  0  0  0  0  0
  -24.1715  -30.1975   20.3199 O   0  0  0  0  0  0  0  0  0  0  0  0
  -23.5103  -32.0719   23.5206 O   0  0  0  0  0  0  0  0  0  0  0  0
  -28.1319  -32.5975   24.4614 O   0  0  0  0  0  0  0  0  0  0  0  0
  -30.1963  -14.1944   22.8028 O   0  0  0  0  0  0  0  0  0  0  0  0
  -22.5088  -17.6753   23.9866 O   0  0  0  0  0  0  0  0  0  0  0  0
  -29.7763  -26.8263   21.2341 O   0  0  0  0  0  0  0  0  0  1  0  0
  -23.7228  -22.7229   22.1288 F   0  0  0  0  0  0  0  0  0  0  0  0
  -20.5347  -19.3300   22.9831 F   0  0  0  0  0  0  0  0  0  0  0  0
  1  2  1  0  0  0  0
  1  5  2  0  0  0  0
  2  6  2  0  0  0  0
  3  8  2  0  0  0  0
  3 17  1  0  0  0  0
  4  9  1  0  0  0  0
  4 17  2  0  0  0  0
  5 19  1  0  0  0  0
  6 21  1  0  0  0  0
  7 10  2  0  0  0  0
  7 20  1  0  0  0  0
  8 23  1  0  0  0  0
  9 23  2  0  0  0  0
 10 24  1  0  0  0  0
 11 12  2  0  0  0  0
 11 25  1  0  0  0  0
 12 26  1  0  0  0  0
 13 22  1  0  0  0  0
 13 24  2  0  0  0  0
 14 26  2  0  0  0  0
 14 27  1  0  0  0  0
 15 29  1  0  0  0  0
 15 30  2  0  0  0  0
 16 68  1  0  0  0  0
 16 69  2  0  0  0  0
 17 28  1  0  0  0  0
 18 28  1  0  0  0  0
 18 31  2  0  0  0  0
 18 32  1  0  0  0  0
 19 21  2  0  0  0  0
 19 37  1  0  0  0  0
 20 22  2  0  0  0  0
 20 38  1  0  0  0  0
 21 52  1  0  0  0  0
 22 39  1  0  0  0  0
 23 87  1  0  0  0  0
 24 88  1  0  0  0  0
 25 27  2  0  0  0  0
 25 87  1  0  0  0  0
 26 89  1  0  0  0  0
 27 90  1  0  0  0  0
 28 70  2  0  0  0  0
 29 56  1  0  0  0  0
 29 68  2  0  0  0  0
 30 69  1  0  0  0  0
 30 77  1  0  0  0  0
 31 71  1  0  0  0  0
 31 75  1  0  0  0  0
 32 76  1  0  0  0  0
 32 82  2  0  0  0  0
 33 53  1  0  0  0  0
 33 78  1  0  0  0  0
 33 83  2  0  0  0  0
 34 65  1  0  0  0  0
 34 72  1  0  0  0  0
 34 84  2  0  0  0  0
 35 66  1  0  0  0  0
 35 79  1  0  0  0  0
 35 85  2  0  0  0  0
 36 73  1  0  0  0  0
 36 74  1  0  0  0  0
 36 86  2  0  0  0  0
 37 40  1  0  0  0  0
 38 53  1  0  0  0  0
 39 72  1  0  0  0  0
 40 42  1  0  0  0  0
 41 43  1  0  0  0  0
 41 48  1  0  0  0  0
 42 52  1  0  0  0  0
 43 54  1  0  0  0  0
 44 45  1  0  0  0  0
 44 56  1  0  0  0  0
 45 56  1  0  0  0  0
 46 49  1  0  0  0  0
 46 55  1  0  0  0  0
 47 50  1  0  0  0  0
 47 55  1  0  0  0  0
 48 73  1  0  0  0  0
 49 74  1  0  0  0  0
 50 74  1  0  0  0  0
 51 54  1  0  0  0  0
 51 73  1  0  0  0  0
 52 78  1  0  0  0  0
 53 72  1  0  0  0  0
 54 71  1  0  0  0  0
 55 77  1  0  0  0  0
 56 62  1  0  0  0  0
 57 66  1  0  0  0  0
 58 67  1  0  0  0  0
 59 67  1  0  0  0  0
 60 67  1  0  0  0  0
 61 80  1  0  0  0  0
 62 81  1  0  0  0  0
 63 64  1  0  0  0  0
 63 81  1  0  0  0  0
 64 88  1  0  0  0  0
 65 67  1  0  0  0  0
 65 79  1  0  0  0  0
 66 80  1  0  0  0  0
 70 71  1  0  0  0  0
M  CHG  2  80   1  81   1
M  ISO  4  36 100  64 101  74 100  88 101
M  END
> <Batch ID>
0195

> <Smiles>
CNC(C)C(=O)NC(C(=O)N1Cc2cc([101O:1][101CH2:1]CNCC3(c4cc(NC5CC[100N:0]([100C:0](=O)N6CCCC(n7nc(-c8ccc(Oc9ccc(F)cc9F)cc8)c(C(N)=O)c7N)C6)CC5)ncn4)CC3)ccc2CC1C(=O)NC1CCCc2ccccc21)C(C)(C)C

> <Shape>
0.303

> <Color>
0.108

> <Negative vol penalty>
0.000

$$$$

  -OEChem-04052323373D

 85 94  0     1  0  0  0  0  0999 V2000
  -17.2377  -30.0004   19.8887 C   0  0  0  0  0  0  0  0  0  0  0  0
  -18.5472  -29.9810   19.4194 C   0  0  0  0  0  0  0  0  0  0  0  0
  -24.2108  -13.6415   21.3557 C   0  0  0  0  0  0  0  0  0  0  0  0
  -26.2755  -13.4646   20.1136 C   0  0  0  0  0  0  0  0  0  0  0  0
  -16.9895  -29.9697   21.2603 C   0  0  0  0  0  0  0  0  0  0  0  0
  -19.6094  -29.9321   20.3215 C   0  0  0  0  0  0  0  0  0  0  0  0
  -24.9583  -27.0491   19.5581 C   0  0  0  0  0  0  0  0  0  0  0  0
  -23.8106  -12.3977   20.8676 C   0  0  0  0  0  0  0  0  0  0  0  0
  -25.8753  -12.2207   19.6256 C   0  0  0  0  0  0  0  0  0  0  0  0
  -26.2175  -27.4978   19.1618 C   0  0  0  0  0  0  0  0  0  0  0  0
  -24.4492   -9.1423   21.5215 C   0  0  0  0  0  0  0  0  0  0  0  0
  -23.8968   -8.2375   22.4280 C   0  0  0  0  0  0  0  0  0  0  0  0
  -31.2970  -27.2441   20.9219 C   0  0  0  0  0  0  0  0  0  0  0  0
  -26.8660  -27.7033   21.4762 C   0  0  0  0  0  0  0  0  0  0  0  0
  -21.8512   -8.1990   21.1430 C   0  0  0  0  0  0  0  0  0  0  0  0
  -31.7722  -26.0844   21.4837 C   0  0  0  0  0  0  0  0  0  0  0  0
  -25.4433  -14.1751   20.9786 C   0  0  0  0  0  0  0  0  0  0  0  0
  -26.5868  -15.7177   22.6580 C   0  0  0  0  0  0  0  0  0  0  0  0
  -18.0489  -29.9107   22.1795 C   0  0  0  0  0  0  0  0  0  0  0  0
  -24.6393  -26.9344   20.9188 C   0  0  0  0  0  0  0  0  0  0  0  0
  -19.3751  -29.9020   21.7068 C   0  0  0  0  0  0  0  0  0  0  0  0
  -25.6029  -27.2505   21.8871 C   0  0  0  0  0  0  0  0  0  0  0  0
  -24.6428  -11.6873   20.0026 C   0  0  0  0  0  0  0  0  0  0  0  0
  -27.1706  -27.8277   20.1209 C   0  0  0  0  0  0  0  0  0  0  0  0
  -23.7026   -9.5756   20.4258 C   0  0  0  0  0  0  0  0  0  0  0  0
  -22.5979   -7.7658   22.2387 C   0  0  0  0  0  0  0  0  0  0  0  0
  -22.4036   -9.1039   20.2365 C   0  0  0  0  0  0  0  0  0  0  0  0
  -25.8570  -15.4602   21.4820 C   0  0  0  0  0  0  0  0  0  0  0  0
  -31.0053  -26.8959   19.5894 C   0  0  0  0  0  0  0  0  0  0  0  0
  -26.7217  -17.0843   22.6860 C   0  0  0  0  0  0  0  0  0  0  0  0
  -27.0971  -14.8034   23.6375 C   0  0  0  0  0  0  0  0  0  0  0  0
  -22.4952  -28.2799   22.8412 C   0  0  0  0  0  0  0  0  0  0  0  0
  -23.6583  -26.1462   24.9899 C   0  0  0  0  0  0  0  0  0  0  0  0
  -26.2443  -24.1543   25.9859 C   0  0  0  0  0  0  0  0  0  0  0  0
  -27.8166  -21.9242   20.1449 C   0  0  0  0  0  0  0  0  0  0  0  0
  -17.7324  -29.9270   23.6540 C   0  0  0  0  0  0  0  0  0  0  0  0
  -23.2856  -26.4235   21.3296 C   0  0  0  0  0  0  0  0  0  0  0  0
  -25.3172  -27.1255   23.3606 C   0  0  0  0  0  0  0  0  0  0  0  0
  -18.9039  -29.4972   24.5332 C   0  0  0  0  0  0  0  0  0  0  0  0
  -24.5038  -20.6703   19.8902 C   0  0  0  0  0  0  0  0  0  0  0  0
  -20.1858  -30.1979   24.0944 C   0  0  0  0  0  0  0  0  0  0  0  0
  -24.6195  -19.2245   20.3760 C   0  0  0  0  0  0  0  0  0  0  0  0
  -25.7341  -21.0977   19.0928 C   0  0  0  0  0  0  0  0  0  0  0  0
  -27.1371  -19.4480   20.2660 C   0  0  0  0  0  0  0  0  0  0  0  0
  -31.7981  -21.4755   19.9950 C   0  0  0  0  0  0  0  0  0  0  0  0
  -33.2442  -23.4162   19.6072 C   0  0  0  0  0  0  0  0  0  0  0  0
  -20.5533  -29.8242   22.6533 C   0  0  1  0  0  0  0  0  0  0  0  0
  -22.8963  -26.8351   22.7461 C   0  0  1  0  0  0  0  0  0  0  0  0
  -31.0352  -22.7787   20.2175 C   0  0  2  0  0  0  0  0  0  0  0  0
  -25.9457  -18.9879   21.1237 C   0  0  2  0  0  0  0  0  0  0  0  0
  -32.1432  -23.7679   20.6037 C   0  0  2  0  0  0  0  0  0  0  0  0
  -26.9142  -22.5569   27.8016 C   0  0  0  0  0  0  0  0  0  0  0  0
  -24.1291  -28.4952   26.8795 C   0  0  0  0  0  0  0  0  0  0  0  0
  -25.6297  -27.0163   28.2320 C   0  0  0  0  0  0  0  0  0  0  0  0
  -23.2159  -26.4413   27.9758 C   0  0  0  0  0  0  0  0  0  0  0  0
  -33.5547  -21.3663   18.1750 C   0  0  0  0  0  0  0  0  0  0  0  0
  -26.5597  -21.9236   24.0667 C   0  0  0  0  0  0  0  0  0  0  0  0
  -30.4516  -27.7893   18.5061 C   0  0  0  0  0  0  0  0  0  0  0  0
  -29.9453  -22.6393   21.2699 C   0  0  0  0  0  0  0  0  0  0  0  0
  -28.9273  -27.7789   18.4687 C   0  0  0  0  0  0  0  0  0  1  0  0
  -24.7746  -26.1529   26.0062 C   0  0  1  0  0  0  0  0  0  0  0  0
  -26.2857  -22.7016   26.4243 C   0  0  2  0  0  0  0  0  0  0  0  0
  -24.4424  -27.0308   27.2457 C   0  0  0  0  0  0  0  0  0  0  0  0
  -25.5497  -16.5738   20.8116 N   0  0  0  0  0  0  0  0  0  0  0  0
  -31.2731  -25.6152   19.3208 N   0  0  0  0  0  0  0  0  0  0  0  0
  -31.7380  -25.1486   20.4922 N   0  0  0  0  0  0  0  0  0  0  0  0
  -26.0889  -17.5443   21.5688 N   0  0  0  0  0  0  0  0  0  0  0  0
  -23.9771  -26.6275   23.7122 N   0  0  0  0  0  0  0  0  0  0  0  0
  -26.9563  -20.8514   19.8624 N   0  0  0  0  0  0  0  0  0  0  0  0
  -27.3186  -17.9253   23.5571 N   0  0  0  0  0  0  0  0  0  0  0  0
  -26.8689  -13.4327   23.4548 N   0  0  0  0  0  0  0  0  0  0  0  0
  -21.1520  -28.5073   22.6097 N   0  0  0  0  0  0  0  0  0  0  0  0
  -25.0489  -24.7549   26.3203 N   0  0  0  0  0  0  0  0  0  0  0  0
  -28.9517  -21.6151   20.8871 N   0  0  0  0  0  0  0  0  0  0  0  0
  -33.1741  -21.9048   19.5176 N   0  3  2  0  0  0  0  0  0  0  0  0
  -27.0797  -21.8913   25.4579 N   0  3  0  0  0  0  0  0  0  0  0  0
  -27.7223  -15.1917   24.6532 O   0  0  0  0  0  0  0  0  0  0  0  0
  -23.3413  -29.1257   23.1065 O   0  0  0  0  0  0  0  0  0  0  0  0
  -22.5465  -25.7228   25.3156 O   0  0  0  0  0  0  0  0  0  0  0  0
  -27.1802  -24.7027   25.4081 O   0  0  0  0  0  0  0  0  0  0  0  0
  -27.5914  -23.0807   19.7719 O   0  0  0  0  0  0  0  0  0  0  0  0
  -24.2527  -10.4734   19.5263 O   0  0  0  0  0  0  0  0  0  0  0  0
  -28.4002  -28.2664   19.7368 O   0  0  0  0  0  0  0  0  0  1  0  0
  -22.0681   -6.8956   23.1084 F   0  0  0  0  0  0  0  0  0  0  0  0
  -21.6819   -9.5156   19.1851 F   0  0  0  0  0  0  0  0  0  0  0  0
  1  2  1  0  0  0  0
  1  5  2  0  0  0  0
  2  6  2  0  0  0  0
  3  8  2  0  0  0  0
  3 17  1  0  0  0  0
  4  9  1  0  0  0  0
  4 17  2  0  0  0  0
  5 19  1  0  0  0  0
  6 21  1  0  0  0  0
  7 10  2  0  0  0  0
  7 20  1  0  0  0  0
  8 23  1  0  0  0  0
  9 23  2  0  0  0  0
 10 24  1  0  0  0  0
 11 12  2  0  0  0  0
 11 25  1  0  0  0  0
 12 26  1  0  0  0  0
 13 16  2  0  0  0  0
 13 29  1  0  0  0  0
 14 22  1  0  0  0  0
 14 24  2  0  0  0  0
 15 26  2  0  0  0  0
 15 27  1  0  0  0  0
 16 66  1  0  0  0  0
 17 28  1  0  0  0  0
 18 28  1  0  0  0  0
 18 30  2  0  0  0  0
 18 31  1  0  0  0  0
 19 21  2  0  0  0  0
 19 36  1  0  0  0  0
 20 22  2  0  0  0  0
 20 37  1  0  0  0  0
 21 47  1  0  0  0  0
 22 38  1  0  0  0  0
 23 82  1  0  0  0  0
 24 83  1  0  0  0  0
 25 27  2  0  0  0  0
 25 82  1  0  0  0  0
 26 84  1  0  0  0  0
 27 85  1  0  0  0  0
 28 64  2  0  0  0  0
 29 58  1  0  0  0  0
 29 65  2  0  0  0  0
 30 67  1  0  0  0  0
 30 70  1  0  0  0  0
 31 71  1  0  0  0  0
 31 77  2  0  0  0  0
 32 48  1  0  0  0  0
 32 72  1  0  0  0  0
 32 78  2  0  0  0  0
 33 61  1  0  0  0  0
 33 68  1  0  0  0  0
 33 79  2  0  0  0  0
 34 62  1  0  0  0  0
 34 73  1  0  0  0  0
 34 80  2  0  0  0  0
 35 69  1  0  0  0  0
 35 74  1  0  0  0  0
 35 81  2  0  0  0  0
 36 39  1  0  0  0  0
 37 48  1  0  0  0  0
 38 68  1  0  0  0  0
 39 41  1  0  0  0  0
 40 42  1  0  0  0  0
 40 43  1  0  0  0  0
 41 47  1  0  0  0  0
 42 50  1  0  0  0  0
 43 69  1  0  0  0  0
 44 50  1  0  0  0  0
 44 69  1  0  0  0  0
 45 49  1  0  0  0  0
 45 75  1  0  0  0  0
 46 51  1  0  0  0  0
 46 75  1  0  0  0  0
 47 72  1  0  0  0  0
 48 68  1  0  0  0  0
 49 51  1  0  0  0  0
 49 59  1  0  0  0  0
 50 67  1  0  0  0  0
 51 66  1  0  0  0  0
 52 62  1  0  0  0  0
 53 63  1  0  0  0  0
 54 63  1  0  0  0  0
 55 63  1  0  0  0  0
 56 75  1  0  0  0  0
 57 76  1  0  0  0  0
 58 60  1  0  0  0  0
 59 74  1  0  0  0  0
 60 83  1  0  0  0  0
 61 63  1  0  0  0  0
 61 73  1  0  0  0  0
 62 76  1  0  0  0  0
 64 67  1  0  0  0  0
 65 66  1  0  0  0  0
M  CHG  2  75   1  76   1
M  ISO  4  35 100  60 101  74 100  83 101
M  END
> <Batch ID>
0195

> <Smiles>
CNC(C)C(=O)NC(C(=O)N1Cc2cc([101O:1][101CH2:1]Cc3ccn(C4CN(C)CC4C[100NH:0][100C:0](=O)N4CCCC(n5nc(-c6ccc(Oc7ccc(F)cc7F)cc6)c(C(N)=O)c5N)C4)n3)ccc2CC1C(=O)NC1CCCc2ccccc21)C(C)(C)C

> <Shape>
0.206

> <Color>
0.082

> <Negative vol penalty>
0.000

$$$$

  -OEChem-04052323373D

 93103  0     1  0  0  0  0  0999 V2000
  -23.9565  -24.9889   12.4940 C   0  0  0  0  0  0  0  0  0  0  0  0
  -24.1043  -24.8587   13.8711 C   0  0  0  0  0  0  0  0  0  0  0  0
  -22.6553  -10.1618   20.1618 C   0  0  0  0  0  0  0  0  0  0  0  0
  -24.3191   -9.3868   21.7328 C   0  0  0  0  0  0  0  0  0  0  0  0
  -25.0380  -24.7364   11.6510 C   0  0  0  0  0  0  0  0  0  0  0  0
  -25.3334  -24.4749   14.4061 C   0  0  0  0  0  0  0  0  0  0  0  0
  -26.6638  -27.2670   18.4161 C   0  0  0  0  0  0  0  0  0  0  0  0
  -21.9288   -8.9863   20.3513 C   0  0  0  0  0  0  0  0  0  0  0  0
  -23.5925   -8.2113   21.9224 C   0  0  0  0  0  0  0  0  0  0  0  0
  -26.0497  -26.9686   19.6317 C   0  0  0  0  0  0  0  0  0  0  0  0
  -20.8582   -7.2255   23.6464 C   0  0  0  0  0  0  0  0  0  0  0  0
  -20.6816   -6.7786   24.9558 C   0  0  0  0  0  0  0  0  0  0  0  0
  -30.1349  -20.1109   19.4533 C   0  0  0  0  0  0  0  0  0  0  0  0
  -28.0063  -25.7311   20.3095 C   0  0  0  0  0  0  0  0  0  0  0  0
  -21.8155   -4.7174   24.4051 C   0  0  0  0  0  0  0  0  0  0  0  0
  -31.3224  -19.3945   19.4992 C   0  0  0  0  0  0  0  0  0  0  0  0
  -23.8505  -10.3621   20.8526 C   0  0  0  0  0  0  0  0  0  0  0  0
  -24.1687  -12.8927   20.9026 C   0  0  0  0  0  0  0  0  0  0  0  0
  -26.2837  -24.3587   12.1766 C   0  0  0  0  0  0  0  0  0  0  0  0
  -27.9517  -26.7897   18.1332 C   0  0  0  0  0  0  0  0  0  0  0  0
  -26.4323  -24.2158   13.5694 C   0  0  0  0  0  0  0  0  0  0  0  0
  -29.1479  -19.6979   20.3218 C   0  0  0  0  0  0  0  0  0  0  0  0
  -28.6356  -26.0269   19.0906 C   0  0  0  0  0  0  0  0  0  0  0  0
  -29.3512  -18.6201   21.1763 C   0  0  0  0  0  0  0  0  0  0  0  0
  -22.3974   -8.0111   21.2315 C   0  0  0  0  0  0  0  0  0  0  0  0
  -26.7198  -26.1982   20.5774 C   0  0  0  0  0  0  0  0  0  0  0  0
  -21.5133   -6.4185   22.7163 C   0  0  0  0  0  0  0  0  0  0  0  0
  -21.1603   -5.5245   25.3352 C   0  0  0  0  0  0  0  0  0  0  0  0
  -21.9920   -5.1644   23.0956 C   0  0  0  0  0  0  0  0  0  0  0  0
  -24.6018  -11.5759   20.6568 C   0  0  0  0  0  0  0  0  0  0  0  0
  -30.5557  -17.9617   21.1490 C   0  0  0  0  0  0  0  0  0  0  0  0
  -25.2429  -13.6770   20.5602 C   0  0  0  0  0  0  0  0  0  0  0  0
  -22.9081  -13.3646   21.3964 C   0  0  0  0  0  0  0  0  0  0  0  0
  -29.1958  -24.8583   15.9365 C   0  0  0  0  0  0  0  0  0  0  0  0
  -32.0007  -25.7620   17.2922 C   0  0  0  0  0  0  0  0  0  0  0  0
  -33.2557  -26.3115   20.6299 C   0  0  0  0  0  0  0  0  0  0  0  0
  -30.7218  -14.7350   20.6511 C   0  0  0  0  0  0  0  0  0  0  0  0
  -27.4107  -24.0504   11.2228 C   0  0  0  0  0  0  0  0  0  0  0  0
  -28.6108  -27.1427   16.8281 C   0  0  0  0  0  0  0  0  0  0  0  0
  -27.7597  -20.2191   20.5102 C   0  0  0  0  0  0  0  0  0  0  0  0
  -30.0276  -25.5075   18.8439 C   0  0  0  0  0  0  0  0  0  0  0  0
  -28.1173  -18.3677   21.9730 C   0  0  0  0  0  0  0  0  0  0  0  0
  -28.7820  -24.0119   11.8924 C   0  0  0  0  0  0  0  0  0  0  0  0
  -29.5280  -12.5150   18.1365 C   0  0  0  0  0  0  0  0  0  0  0  0
  -28.7246  -23.1962   13.1801 C   0  0  0  0  0  0  0  0  0  0  0  0
  -28.1073  -12.1768   18.5916 C   0  0  0  0  0  0  0  0  0  0  0  0
  -24.8277  -21.4569   20.9683 C   0  0  0  0  0  0  0  0  0  0  0  0
  -25.8106  -21.3087   23.2828 C   0  0  0  0  0  0  0  0  0  0  0  0
  -30.4808  -12.6590   19.3211 C   0  0  0  0  0  0  0  0  0  0  0  0
  -28.6182  -13.2705   20.8145 C   0  0  0  0  0  0  0  0  0  0  0  0
  -24.0971  -22.7318   21.3672 C   0  0  0  0  0  0  0  0  0  0  0  0
  -25.0747  -22.5842   23.6699 C   0  0  0  0  0  0  0  0  0  0  0  0
  -27.7565  -23.8256   14.1892 C   0  0  1  0  0  0  0  0  0  0  0  0
  -29.7222  -26.1730   16.4384 C   0  0  1  0  0  0  0  0  0  0  0  0
  -25.0776  -20.5440   22.1744 C   0  0  0  0  0  0  0  0  0  0  0  0
  -27.6087  -13.1704   19.6581 C   0  0  2  0  0  0  0  0  0  0  0  0
  -35.1012  -27.7985   21.4548 C   0  0  0  0  0  0  0  0  0  0  0  0
  -33.7385  -23.2688   17.0208 C   0  0  0  0  0  0  0  0  0  0  0  0
  -34.9180  -23.9470   19.1225 C   0  0  0  0  0  0  0  0  0  0  0  0
  -35.0089  -25.4210   17.1121 C   0  0  0  0  0  0  0  0  0  0  0  0
  -23.4713  -17.7662   19.1772 C   0  0  0  0  0  0  0  0  0  0  0  0
  -31.4597  -27.6704   22.5500 C   0  0  0  0  0  0  0  0  0  0  0  0
  -30.8099  -16.7927   22.0357 C   0  0  0  0  0  0  0  0  0  0  0  0
  -24.2658  -24.7719   22.7898 C   0  0  0  0  0  0  0  0  0  0  0  0
  -25.4160  -18.7192   20.4217 C   0  0  0  0  0  0  0  0  0  0  0  0
  -24.6990  -25.8044   21.7679 C   0  0  0  0  0  0  0  0  0  1  0  0
  -32.8554  -25.2471   18.4251 C   0  0  1  0  0  0  0  0  0  0  0  0
  -33.6001  -27.6476   21.2628 C   0  0  2  0  0  0  0  0  0  0  0  0
  -25.8647  -19.3026   21.7604 C   0  0  1  0  0  0  0  0  0  0  0  0
  -34.1020  -24.4673   17.9199 C   0  0  0  0  0  0  0  0  0  0  0  0
  -31.5590  -18.3347   20.3214 N   0  0  0  0  0  0  0  0  0  0  0  0
  -25.8535  -11.5228   20.1938 N   0  0  0  0  0  0  0  0  0  0  0  0
  -26.2161  -12.8159   20.1459 N   0  0  0  0  0  0  0  0  0  0  0  0
  -30.6271  -25.8742   17.5502 N   0  0  0  0  0  0  0  0  0  0  0  0
  -29.9505  -13.6164   20.2949 N   0  0  0  0  0  0  0  0  0  0  0  0
  -27.2922  -19.5798   21.7623 N   0  0  2  0  0  0  0  0  0  0  0  0
  -25.4405  -15.0123   20.5759 N   0  0  0  0  0  0  0  0  0  0  0  0
  -22.7443  -13.5084   22.7809 N   0  0  0  0  0  0  0  0  0  0  0  0
  -28.3700  -24.9669   14.8339 N   0  0  0  0  0  0  0  0  0  0  0  0
  -33.1706  -26.4036   19.2568 N   0  0  0  0  0  0  0  0  0  0  0  0
  -30.1423  -15.5955   21.5754 N   0  0  0  0  0  0  0  0  0  0  0  0
  -24.8797  -23.4432   22.4441 N   0  3  0  0  0  0  0  0  0  0  0  0
  -23.9936  -18.3000   20.4647 N   0  3  0  0  0  0  0  0  0  0  0  0
  -32.9409  -27.7759   22.5932 N   0  3  0  0  0  0  0  0  0  0  0  0
  -21.9496  -13.6347   20.6335 O   0  0  0  0  0  0  0  0  0  0  0  0
  -29.5164  -23.8219   16.5064 O   0  0  0  0  0  0  0  0  0  0  0  0
  -32.5332  -26.0606   16.2203 O   0  0  0  0  0  0  0  0  0  0  0  0
  -33.0834  -25.2876   21.2876 O   0  0  0  0  0  0  0  0  0  0  0  0
  -31.8414  -14.9537   20.1762 O   0  0  0  0  0  0  0  0  0  0  0  0
  -21.6885   -6.8640   21.4169 O   0  0  0  0  0  0  0  0  0  0  0  0
  -26.1225  -25.9049   21.7644 O   0  0  0  0  0  0  0  0  0  1  0  0
  -20.9920   -5.0961   26.5931 F   0  0  0  0  0  0  0  0  0  0  0  0
  -22.6232   -4.3851   22.2068 F   0  0  0  0  0  0  0  0  0  0  0  0
  1  2  1  0  0  0  0
  1  5  2  0  0  0  0
  2  6  2  0  0  0  0
  3  8  2  0  0  0  0
  3 17  1  0  0  0  0
  4  9  1  0  0  0  0
  4 17  2  0  0  0  0
  5 19  1  0  0  0  0
  6 21  1  0  0  0  0
  7 10  2  0  0  0  0
  7 20  1  0  0  0  0
  8 25  1  0  0  0  0
  9 25  2  0  0  0  0
 10 26  1  0  0  0  0
 11 12  2  0  0  0  0
 11 27  1  0  0  0  0
 12 28  1  0  0  0  0
 13 16  2  0  0  0  0
 13 22  1  0  0  0  0
 14 23  1  0  0  0  0
 14 26  2  0  0  0  0
 15 28  2  0  0  0  0
 15 29  1  0  0  0  0
 16 71  1  0  0  0  0
 17 30  1  0  0  0  0
 18 30  1  0  0  0  0
 18 32  2  0  0  0  0
 18 33  1  0  0  0  0
 19 21  2  0  0  0  0
 19 38  1  0  0  0  0
 20 23  2  0  0  0  0
 20 39  1  0  0  0  0
 21 53  1  0  0  0  0
 22 24  2  0  0  0  0
 22 40  1  0  0  0  0
 23 41  1  0  0  0  0
 24 31  1  0  0  0  0
 24 42  1  0  0  0  0
 25 90  1  0  0  0  0
 26 91  1  0  0  0  0
 27 29  2  0  0  0  0
 27 90  1  0  0  0  0
 28 92  1  0  0  0  0
 29 93  1  0  0  0  0
 30 72  2  0  0  0  0
 31 63  1  0  0  0  0
 31 71  2  0  0  0  0
 32 73  1  0  0  0  0
 32 77  1  0  0  0  0
 33 78  1  0  0  0  0
 33 85  2  0  0  0  0
 34 54  1  0  0  0  0
 34 79  1  0  0  0  0
 34 86  2  0  0  0  0
 35 67  1  0  0  0  0
 35 74  1  0  0  0  0
 35 87  2  0  0  0  0
 36 68  1  0  0  0  0
 36 80  1  0  0  0  0
 36 88  2  0  0  0  0
 37 75  1  0  0  0  0
 37 81  1  0  0  0  0
 37 89  2  0  0  0  0
 38 43  1  0  0  0  0
 39 54  1  0  0  0  0
 40 76  1  0  0  0  0
 41 74  1  0  0  0  0
 42 76  1  0  0  0  0
 43 45  1  0  0  0  0
 44 46  1  0  0  0  0
 44 49  1  0  0  0  0
 45 53  1  0  0  0  0
 46 56  1  0  0  0  0
 47 51  1  0  0  0  0
 47 55  1  0  0  0  0
 48 52  1  0  0  0  0
 48 55  1  0  0  0  0
 49 75  1  0  0  0  0
 50 56  1  0  0  0  0
 50 75  1  0  0  0  0
 51 82  1  0  0  0  0
 52 82  1  0  0  0  0
 53 79  1  0  0  0  0
 54 74  1  0  0  0  0
 55 69  1  0  0  0  0
 56 73  1  0  0  0  0
 57 68  1  0  0  0  0
 58 70  1  0  0  0  0
 59 70  1  0  0  0  0
 60 70  1  0  0  0  0
 61 83  1  0  0  0  0
 62 84  1  0  0  0  0
 63 81  1  0  0  0  0
 64 66  1  0  0  0  0
 64 82  1  0  0  0  0
 65 69  1  0  0  0  0
 65 83  1  0  0  0  0
 66 91  1  0  0  0  0
 67 70  1  0  0  0  0
 67 80  1  0  0  0  0
 68 84  1  0  0  0  0
 69 76  1  0  0  0  0
 72 73  1  0  0  0  0
M  CHG  3  82   1  83   1  84   1
M  ISO  4  37 100  66 101  81 100  91 101
M  END
> <Batch ID>
0195

> <Smiles>
CNCC(C1CCN(C[101CH2:1][101O:1]c2ccc3c(c2)CN(C(=O)C(NC(=O)C(C)NC)C(C)(C)C)C(C(=O)NC2CCCc4ccccc42)C3)CC1)N1Cc2ccnc(C[100NH:0][100C:0](=O)N3CCCC(n4nc(-c5ccc(Oc6ccc(F)cc6F)cc5)c(C(N)=O)c4N)C3)c2C1

> <Shape>
0.260

> <Color>
0.162

> <Negative vol penalty>
0.000

$$$$

  -OEChem-04052323373D

 95106  0     1  0  0  0  0  0999 V2000
  -28.0262  -33.7289   26.4127 C   0  0  0  0  0  0  0  0  0  0  0  0
  -28.0792  -32.4701   25.8228 C   0  0  0  0  0  0  0  0  0  0  0  0
  -23.9999   -8.8669   20.5854 C   0  0  0  0  0  0  0  0  0  0  0  0
  -24.2593  -10.5010   22.3460 C   0  0  0  0  0  0  0  0  0  0  0  0
  -26.8037  -34.3875   26.5387 C   0  0  0  0  0  0  0  0  0  0  0  0
  -26.9096  -31.8686   25.3596 C   0  0  0  0  0  0  0  0  0  0  0  0
  -27.4793  -29.7842   20.7797 C   0  0  0  0  0  0  0  0  0  0  0  0
  -23.0077   -8.2255   21.3268 C   0  0  0  0  0  0  0  0  0  0  0  0
  -23.2670   -9.8596   23.0874 C   0  0  0  0  0  0  0  0  0  0  0  0
  -28.1290  -28.5523   20.7172 C   0  0  0  0  0  0  0  0  0  0  0  0
  -22.8409   -6.0927   23.9437 C   0  0  0  0  0  0  0  0  0  0  0  0
  -22.8941   -4.7015   24.0292 C   0  0  0  0  0  0  0  0  0  0  0  0
  -25.9942  -27.4416   20.5497 C   0  0  0  0  0  0  0  0  0  0  0  0
  -29.8615  -23.9356   21.5660 C   0  0  0  0  0  0  0  0  0  0  0  0
  -20.7133   -4.5550   22.9998 C   0  0  0  0  0  0  0  0  0  0  0  0
  -24.6257  -10.0046   21.0950 C   0  0  0  0  0  0  0  0  0  0  0  0
  -26.8709  -10.1196   19.8893 C   0  0  0  0  0  0  0  0  0  0  0  0
  -25.6199  -33.7979   26.0681 C   0  0  0  0  0  0  0  0  0  0  0  0
  -26.0793  -29.8534   20.7386 C   0  0  0  0  0  0  0  0  0  0  0  0
  -25.6700  -32.5193   25.4807 C   0  0  0  0  0  0  0  0  0  0  0  0
  -25.3292  -28.6758   20.6093 C   0  0  0  0  0  0  0  0  0  0  0  0
  -30.9224  -22.2529   20.2142 C   0  0  0  0  0  0  0  0  0  0  0  0
  -22.6412   -8.7218   22.5778 C   0  0  0  0  0  0  0  0  0  0  0  0
  -27.3864  -27.3805   20.6051 C   0  0  0  0  0  0  0  0  0  0  0  0
  -21.7239   -6.7151   23.3864 C   0  0  0  0  0  0  0  0  0  0  0  0
  -30.3538  -22.6433   21.4215 C   0  0  0  0  0  0  0  0  0  0  0  0
  -21.8303   -3.9326   23.5572 C   0  0  0  0  0  0  0  0  0  0  0  0
  -20.6601   -5.9462   22.9144 C   0  0  0  0  0  0  0  0  0  0  0  0
  -25.6511  -10.6673   20.3298 C   0  0  0  0  0  0  0  0  0  0  0  0
  -30.9744  -23.1850   19.1904 C   0  0  0  0  0  0  0  0  0  0  0  0
  -29.9612  -24.7925   20.4817 C   0  0  0  0  0  0  0  0  0  0  0  0
  -27.4827  -11.1453   19.2109 C   0  0  0  0  0  0  0  0  0  0  0  0
  -27.4032   -8.8016   20.0764 C   0  0  0  0  0  0  0  0  0  0  0  0
  -23.8250  -30.8833   22.7289 C   0  0  0  0  0  0  0  0  0  0  0  0
  -21.8696  -30.2588   20.2172 C   0  0  0  0  0  0  0  0  0  0  0  0
  -21.3264  -28.5214   17.3304 C   0  0  0  0  0  0  0  0  0  0  0  0
  -29.0301  -16.2561   18.6582 C   0  0  0  0  0  0  0  0  0  0  0  0
  -24.3156  -34.5279   26.2692 C   0  0  0  0  0  0  0  0  0  0  0  0
  -25.3945  -31.1920   20.7803 C   0  0  0  0  0  0  0  0  0  0  0  0
  -23.8248  -28.6974   20.5408 C   0  0  0  0  0  0  0  0  0  0  0  0
  -23.1744  -33.9829   25.4142 C   0  0  0  0  0  0  0  0  0  0  0  0
  -25.7096  -15.6267   17.6981 C   0  0  0  0  0  0  0  0  0  0  0  0
  -23.1319  -32.4600   25.4886 C   0  0  0  0  0  0  0  0  0  0  0  0
  -29.8403  -23.5489   12.6619 C   0  0  0  0  0  0  0  0  0  0  0  0
  -29.7722  -22.1190   12.2031 C   0  0  0  0  0  0  0  0  0  0  0  0
  -25.4903  -14.2248   18.2659 C   0  0  0  0  0  0  0  0  0  0  0  0
  -32.7575  -23.6675   17.3650 C   0  0  0  0  0  0  0  0  0  0  0  0
  -26.5085  -16.5143   18.6542 C   0  0  0  0  0  0  0  0  0  0  0  0
  -28.4573  -18.6925   19.0586 C   0  0  0  0  0  0  0  0  0  0  0  0
  -30.3943  -18.0672   17.6639 C   0  0  0  0  0  0  0  0  0  0  0  0
  -27.5736  -14.5203   19.6584 C   0  0  0  0  0  0  0  0  0  0  0  0
  -32.8908  -23.2537   15.9149 C   0  0  0  0  0  0  0  0  0  0  0  0
  -29.3664  -19.5084   19.9721 C   0  0  0  0  0  0  0  0  0  0  0  0
  -31.3335  -18.8498   18.5671 C   0  0  0  0  0  0  0  0  0  0  0  0
  -30.5975  -22.9137   16.6832 C   0  0  0  0  0  0  0  0  0  0  0  0
  -24.4264  -31.8446   24.9436 C   0  0  1  0  0  0  0  0  0  0  0  0
  -31.5834  -22.8181   17.8542 C   0  0  2  0  0  0  0  0  0  0  0  0
  -23.9449  -31.1073   21.2480 C   0  0  1  0  0  0  0  0  0  0  0  0
  -29.9384  -22.4324   13.6642 C   0  0  0  0  0  0  0  0  0  0  0  0
  -26.8242  -13.5877   18.6943 C   0  0  1  0  0  0  0  0  0  0  0  0
  -19.6203  -28.1946   15.5194 C   0  0  0  0  0  0  0  0  0  0  0  0
  -20.1929  -28.5495   22.1085 C   0  0  0  0  0  0  0  0  0  0  0  0
  -19.1069  -27.5185   20.1021 C   0  0  0  0  0  0  0  0  0  0  0  0
  -18.8672  -29.9645   20.5290 C   0  0  0  0  0  0  0  0  0  0  0  0
  -23.1895  -29.4828   15.2416 C   0  0  0  0  0  0  0  0  0  0  0  0
  -29.6715  -22.2638   23.6679 C   0  0  0  0  0  0  0  0  0  0  0  0
  -31.4601  -20.8638   20.0351 C   0  0  0  0  0  0  0  0  0  0  0  0
  -29.4433  -26.1868   20.6010 C   0  0  0  0  0  0  0  0  0  1  0  0
  -31.2510  -22.1455   14.3600 C   0  0  0  0  0  0  0  0  0  0  0  0
  -21.0912  -29.0559   19.7416 C   0  0  1  0  0  0  0  0  0  0  0  0
  -20.8529  -28.9690   15.9593 C   0  0  2  0  0  0  0  0  0  0  0  0
  -19.8428  -28.7712   20.6235 C   0  0  0  0  0  0  0  0  0  0  0  0
  -25.4957  -11.9420   19.9624 N   0  0  0  0  0  0  0  0  0  0  0  0
  -30.5068  -24.4492   19.2934 N   0  0  0  0  0  0  0  0  0  0  0  0
  -26.6258  -12.2038   19.2839 N   0  0  0  0  0  0  0  0  0  0  0  0
  -23.2013  -30.0301   20.5916 N   0  0  0  0  0  0  0  0  0  0  0  0
  -27.7516  -15.8481   19.0670 N   0  0  0  0  0  0  0  0  0  0  0  0
  -29.2079  -17.6218   18.3916 N   0  0  0  0  0  0  0  0  0  0  0  0
  -28.6648  -11.2360   18.5653 N   0  0  0  0  0  0  0  0  0  0  0  0
  -28.1931   -8.5544   21.2075 N   0  0  0  0  0  0  0  0  0  0  0  0
  -24.4248  -31.8633   23.4965 N   0  0  0  0  0  0  0  0  0  0  0  0
  -20.7870  -29.2966   18.3352 N   0  0  0  0  0  0  0  0  0  0  0  0
  -30.5688  -19.9908   19.1967 N   0  3  0  0  0  0  0  0  0  0  0  0
  -31.4574  -23.1445   15.4533 N   0  3  2  0  0  0  0  0  0  0  0  0
  -21.9261  -28.7591   14.9468 N   0  3  0  0  0  0  0  0  0  0  0  0
  -27.1985   -7.8749   19.2562 O   0  0  0  0  0  0  0  0  0  0  0  0
  -23.2309  -29.8953   23.1444 O   0  0  0  0  0  0  0  0  0  0  0  0
  -21.3186  -31.3619   20.2484 O   0  0  0  0  0  0  0  0  0  0  0  0
  -22.0946  -27.5762   17.4941 O   0  0  0  0  0  0  0  0  0  0  0  0
  -29.9590  -15.4472   18.5390 O   0  0  0  0  0  0  0  0  0  0  0  0
  -21.6729   -8.0963   23.3015 O   0  0  0  0  0  0  0  0  0  0  0  0
  -30.2702  -21.7763   22.4685 O   0  0  0  0  0  0  0  0  0  0  0  0
  -28.0225  -26.1683   20.5441 O   0  0  0  0  0  0  0  0  0  1  0  0
  -21.8822   -2.5966   23.6379 F   0  0  0  0  0  0  0  0  0  0  0  0
  -19.5848   -6.5383   22.3769 F   0  0  0  0  0  0  0  0  0  0  0  0
  1  2  1  0  0  0  0
  1  5  2  0  0  0  0
  2  6  2  0  0  0  0
  3  8  2  0  0  0  0
  3 16  1  0  0  0  0
  4  9  1  0  0  0  0
  4 16  2  0  0  0  0
  5 18  1  0  0  0  0
  6 20  1  0  0  0  0
  7 10  2  0  0  0  0
  7 19  1  0  0  0  0
  8 23  1  0  0  0  0
  9 23  2  0  0  0  0
 10 24  1  0  0  0  0
 11 12  2  0  0  0  0
 11 25  1  0  0  0  0
 12 27  1  0  0  0  0
 13 21  1  0  0  0  0
 13 24  2  0  0  0  0
 14 26  2  0  0  0  0
 14 31  1  0  0  0  0
 15 27  2  0  0  0  0
 15 28  1  0  0  0  0
 16 29  1  0  0  0  0
 17 29  1  0  0  0  0
 17 32  2  0  0  0  0
 17 33  1  0  0  0  0
 18 20  2  0  0  0  0
 18 38  1  0  0  0  0
 19 21  2  0  0  0  0
 19 39  1  0  0  0  0
 20 56  1  0  0  0  0
 21 40  1  0  0  0  0
 22 26  1  0  0  0  0
 22 30  2  0  0  0  0
 22 67  1  0  0  0  0
 23 91  1  0  0  0  0
 24 93  1  0  0  0  0
 25 28  2  0  0  0  0
 25 91  1  0  0  0  0
 26 92  1  0  0  0  0
 27 94  1  0  0  0  0
 28 95  1  0  0  0  0
 29 73  2  0  0  0  0
 30 57  1  0  0  0  0
 30 74  1  0  0  0  0
 31 68  1  0  0  0  0
 31 74  2  0  0  0  0
 32 75  1  0  0  0  0
 32 79  1  0  0  0  0
 33 80  1  0  0  0  0
 33 86  2  0  0  0  0
 34 58  1  0  0  0  0
 34 81  1  0  0  0  0
 34 87  2  0  0  0  0
 35 70  1  0  0  0  0
 35 76  1  0  0  0  0
 35 88  2  0  0  0  0
 36 71  1  0  0  0  0
 36 82  1  0  0  0  0
 36 89  2  0  0  0  0
 37 77  1  0  0  0  0
 37 78  1  0  0  0  0
 37 90  2  0  0  0  0
 38 41  1  0  0  0  0
 39 58  1  0  0  0  0
 40 76  1  0  0  0  0
 41 43  1  0  0  0  0
 42 46  1  0  0  0  0
 42 48  1  0  0  0  0
 43 56  1  0  0  0  0
 44 45  1  0  0  0  0
 44 59  1  0  0  0  0
 45 59  1  0  0  0  0
 46 60  1  0  0  0  0
 47 52  1  0  0  0  0
 47 57  1  0  0  0  0
 48 77  1  0  0  0  0
 49 53  1  0  0  0  0
 49 78  1  0  0  0  0
 50 54  1  0  0  0  0
 50 78  1  0  0  0  0
 51 60  1  0  0  0  0
 51 77  1  0  0  0  0
 52 84  1  0  0  0  0
 53 83  1  0  0  0  0
 54 83  1  0  0  0  0
 55 57  1  0  0  0  0
 55 84  1  0  0  0  0
 56 81  1  0  0  0  0
 58 76  1  0  0  0  0
 59 69  1  0  0  0  0
 60 75  1  0  0  0  0
 61 71  1  0  0  0  0
 62 72  1  0  0  0  0
 63 72  1  0  0  0  0
 64 72  1  0  0  0  0
 65 85  1  0  0  0  0
 66 92  1  0  0  0  0
 67 83  1  0  0  0  0
 68 93  1  0  0  0  0
 69 84  1  0  0  0  0
 70 72  1  0  0  0  0
 70 82  1  0  0  0  0
 71 85  1  0  0  0  0
 73 75  1  0  0  0  0
M  CHG  3  83   1  84   1  85   1
M  ISO  4  37 100  68 101  78 100  93 101
M  END
> <Batch ID>
0195

> <Smiles>
CNC(C)C(=O)NC(C(=O)N1Cc2cc([101O:1][101CH2:1]c3cc(OC)c(CN4CC[100N:0]([100C:0](=O)N5CCCC(n6nc(-c7ccc(Oc8ccc(F)cc8F)cc7)c(C(N)=O)c6N)C5)CC4)c(C4CCN(CC5CC5)C4)n3)ccc2CC1C(=O)NC1CCCc2ccccc21)C(C)(C)C

> <Shape>
0.290

> <Color>
0.080

> <Negative vol penalty>
0.000

$$$$

  -OEChem-04052323373D

 88 97  0     1  0  0  0  0  0999 V2000
  -25.6778  -35.9693   18.4710 C   0  0  0  0  0  0  0  0  0  0  0  0
  -26.4188  -34.7967   18.3644 C   0  0  0  0  0  0  0  0  0  0  0  0
  -23.0649   -9.8458   19.9424 C   0  0  0  0  0  0  0  0  0  0  0  0
  -23.8240   -9.8591   22.2360 C   0  0  0  0  0  0  0  0  0  0  0  0
  -25.1833  -36.5869   17.3230 C   0  0  0  0  0  0  0  0  0  0  0  0
  -26.6647  -34.2403   17.1096 C   0  0  0  0  0  0  0  0  0  0  0  0
  -31.4763  -32.7645   16.5480 C   0  0  0  0  0  0  0  0  0  0  0  0
  -22.3258   -8.6898   20.1937 C   0  0  0  0  0  0  0  0  0  0  0  0
  -23.0848   -8.7032   22.4874 C   0  0  0  0  0  0  0  0  0  0  0  0
  -31.8471  -31.5611   17.1462 C   0  0  0  0  0  0  0  0  0  0  0  0
  -19.8598   -7.8927   23.0899 C   0  0  0  0  0  0  0  0  0  0  0  0
  -19.1027   -7.8513   24.2606 C   0  0  0  0  0  0  0  0  0  0  0  0
  -31.6445  -30.4468   15.0163 C   0  0  0  0  0  0  0  0  0  0  0  0
  -29.3055  -18.6847   20.8559 C   0  0  0  0  0  0  0  0  0  0  0  0
  -20.3519   -5.9201   25.0002 C   0  0  0  0  0  0  0  0  0  0  0  0
  -23.8141  -10.4304   20.9635 C   0  0  0  0  0  0  0  0  0  0  0  0
  -24.1453  -12.9568   20.8400 C   0  0  0  0  0  0  0  0  0  0  0  0
  -25.4314  -36.0431   16.0528 C   0  0  0  0  0  0  0  0  0  0  0  0
  -31.1757  -32.8161   15.1792 C   0  0  0  0  0  0  0  0  0  0  0  0
  -26.1719  -34.8505   15.9436 C   0  0  0  0  0  0  0  0  0  0  0  0
  -31.2726  -31.6526   14.4026 C   0  0  0  0  0  0  0  0  0  0  0  0
  -29.1380  -19.6700   19.9045 C   0  0  0  0  0  0  0  0  0  0  0  0
  -30.1732  -20.0001   19.0289 C   0  0  0  0  0  0  0  0  0  0  0  0
  -22.3357   -8.1186   21.4662 C   0  0  0  0  0  0  0  0  0  0  0  0
  -31.9285  -30.4014   16.3810 C   0  0  0  0  0  0  0  0  0  0  0  0
  -20.8630   -6.9478   22.8743 C   0  0  0  0  0  0  0  0  0  0  0  0
  -19.3487   -6.8650   25.2157 C   0  0  0  0  0  0  0  0  0  0  0  0
  -21.1091   -5.9615   23.8294 C   0  0  0  0  0  0  0  0  0  0  0  0
  -24.5782  -11.6241   20.7043 C   0  0  0  0  0  0  0  0  0  0  0  0
  -30.5397  -18.0509   20.8706 C   0  0  0  0  0  0  0  0  0  0  0  0
  -31.3666  -19.3233   19.1238 C   0  0  0  0  0  0  0  0  0  0  0  0
  -25.2345  -13.7103   20.4761 C   0  0  0  0  0  0  0  0  0  0  0  0
  -22.8726  -13.4678   21.2578 C   0  0  0  0  0  0  0  0  0  0  0  0
  -28.5940  -33.5485   13.4756 C   0  0  0  0  0  0  0  0  0  0  0  0
  -30.6300  -33.2172   10.9722 C   0  0  0  0  0  0  0  0  0  0  0  0
  -33.5032  -31.8526    9.7354 C   0  0  0  0  0  0  0  0  0  0  0  0
  -30.7066  -14.7628   20.6473 C   0  0  0  0  0  0  0  0  0  0  0  0
  -24.8361  -36.7207   14.8441 C   0  0  0  0  0  0  0  0  0  0  0  0
  -30.8031  -34.1274   14.5436 C   0  0  0  0  0  0  0  0  0  0  0  0
  -27.9458  -20.5445   19.6737 C   0  0  0  0  0  0  0  0  0  0  0  0
  -30.9799  -31.6587   12.9252 C   0  0  0  0  0  0  0  0  0  0  0  0
  -25.4590  -36.2708   13.5250 C   0  0  0  0  0  0  0  0  0  0  0  0
  -28.2494  -21.0951   18.2691 C   0  0  0  0  0  0  0  0  0  0  0  0
  -29.5893  -12.3594   18.2836 C   0  0  0  0  0  0  0  0  0  0  0  0
  -25.5711  -34.7502   13.4789 C   0  0  0  0  0  0  0  0  0  0  0  0
  -28.1518  -12.0614   18.7136 C   0  0  0  0  0  0  0  0  0  0  0  0
  -30.5025  -12.5864   19.4865 C   0  0  0  0  0  0  0  0  0  0  0  0
  -28.5966  -13.3113   20.8678 C   0  0  0  0  0  0  0  0  0  0  0  0
  -26.4807  -34.2299   14.5984 C   0  0  1  0  0  0  0  0  0  0  0  0
  -29.7821  -21.1175   18.1207 C   0  0  1  0  0  0  0  0  0  0  0  0
  -30.0203  -33.9608   13.2448 C   0  0  1  0  0  0  0  0  0  0  0  0
  -27.6245  -13.1311   19.6892 C   0  0  2  0  0  0  0  0  0  0  0  0
  -32.5034  -19.6126   18.2063 C   0  0  0  0  0  0  0  0  0  0  0  0
  -34.8854  -31.7315    7.6445 C   0  0  0  0  0  0  0  0  0  0  0  0
  -28.6290  -31.2549    9.7659 C   0  0  0  0  0  0  0  0  0  0  0  0
  -30.4359  -30.4701    8.2208 C   0  0  0  0  0  0  0  0  0  0  0  0
  -29.6566  -32.8379    8.1250 C   0  0  0  0  0  0  0  0  0  0  0  0
  -35.8338  -33.1013   11.0651 C   0  0  0  0  0  0  0  0  0  0  0  0
  -30.7819  -16.9603   21.8614 C   0  0  0  0  0  0  0  0  0  0  0  0
  -30.9290  -24.7531   18.0376 C   0  0  0  0  0  0  0  0  0  0  0  0
  -31.6382  -26.9792   17.4882 C   0  0  0  0  0  0  0  0  0  0  0  0
  -30.4047  -23.4458   17.4742 C   0  0  0  0  0  0  0  0  0  0  0  0
  -31.7572  -28.0294   16.3944 C   0  0  0  0  0  0  0  0  0  1  0  0
  -31.0571  -32.0723   10.0857 C   0  0  1  0  0  0  0  0  0  0  0  0
  -34.6548  -32.4633    8.9575 C   0  0  2  0  0  0  0  0  0  0  0  0
  -29.9483  -31.6580    9.0775 C   0  0  0  0  0  0  0  0  0  0  0  0
  -25.8436  -11.5330   20.2866 N   0  0  0  0  0  0  0  0  0  0  0  0
  -31.5712  -18.3419   20.0321 N   0  0  0  0  0  0  0  0  0  0  0  0
  -26.2152  -12.8180   20.1566 N   0  0  0  0  0  0  0  0  0  0  0  0
  -30.6137  -32.9641   12.3511 N   0  0  0  0  0  0  0  0  0  0  0  0
  -29.9460  -13.6167   20.3670 N   0  0  0  0  0  0  0  0  0  0  0  0
  -25.4393  -15.0426   20.4013 N   0  0  0  0  0  0  0  0  0  0  0  0
  -21.8643  -12.5549   21.5960 N   0  0  0  0  0  0  0  0  0  0  0  0
  -27.8718  -34.4324   14.2545 N   0  0  0  0  0  0  0  0  0  0  0  0
  -32.3091  -32.4850    9.4607 N   0  0  0  0  0  0  0  0  0  0  0  0
  -30.1092  -15.7005   21.4833 N   0  0  0  0  0  0  0  0  0  0  0  0
  -31.0826  -25.7357   16.9731 N   0  0  0  0  0  0  0  0  0  0  0  0
  -30.3031  -22.4379   18.5583 N   0  3  0  0  0  0  0  0  0  0  0  0
  -35.9108  -32.4009    9.7572 N   0  3  0  0  0  0  0  0  0  0  0  0
  -22.6311  -14.6975   21.3133 O   0  0  0  0  0  0  0  0  0  0  0  0
  -28.1790  -32.5063   12.9823 O   0  0  0  0  0  0  0  0  0  0  0  0
  -30.3292  -34.2986   10.4605 O   0  0  0  0  0  0  0  0  0  0  0  0
  -33.6477  -30.9066   10.5066 O   0  0  0  0  0  0  0  0  0  0  0  0
  -31.8365  -14.9483   20.1824 O   0  0  0  0  0  0  0  0  0  0  0  0
  -21.6144   -6.9908   21.7118 O   0  0  0  0  0  0  0  0  0  0  0  0
  -32.2896  -29.2253   16.9626 O   0  0  0  0  0  0  0  0  0  1  0  0
  -18.6225   -6.8263   26.3406 F   0  0  0  0  0  0  0  0  0  0  0  0
  -22.0723   -5.0518   23.6284 F   0  0  0  0  0  0  0  0  0  0  0  0
  1  2  1  0  0  0  0
  1  5  2  0  0  0  0
  2  6  2  0  0  0  0
  3  8  2  0  0  0  0
  3 16  1  0  0  0  0
  4  9  1  0  0  0  0
  4 16  2  0  0  0  0
  5 18  1  0  0  0  0
  6 20  1  0  0  0  0
  7 10  2  0  0  0  0
  7 19  1  0  0  0  0
  8 24  1  0  0  0  0
  9 24  2  0  0  0  0
 10 25  1  0  0  0  0
 11 12  2  0  0  0  0
 11 26  1  0  0  0  0
 12 27  1  0  0  0  0
 13 21  1  0  0  0  0
 13 25  2  0  0  0  0
 14 22  1  0  0  0  0
 14 30  2  0  0  0  0
 15 27  2  0  0  0  0
 15 28  1  0  0  0  0
 16 29  1  0  0  0  0
 17 29  1  0  0  0  0
 17 32  2  0  0  0  0
 17 33  1  0  0  0  0
 18 20  2  0  0  0  0
 18 38  1  0  0  0  0
 19 21  2  0  0  0  0
 19 39  1  0  0  0  0
 20 49  1  0  0  0  0
 21 41  1  0  0  0  0
 22 23  2  0  0  0  0
 22 40  1  0  0  0  0
 23 31  1  0  0  0  0
 23 50  1  0  0  0  0
 24 85  1  0  0  0  0
 25 86  1  0  0  0  0
 26 28  2  0  0  0  0
 26 85  1  0  0  0  0
 27 87  1  0  0  0  0
 28 88  1  0  0  0  0
 29 67  2  0  0  0  0
 30 59  1  0  0  0  0
 30 68  1  0  0  0  0
 31 53  1  0  0  0  0
 31 68  2  0  0  0  0
 32 69  1  0  0  0  0
 32 72  1  0  0  0  0
 33 73  1  0  0  0  0
 33 80  2  0  0  0  0
 34 51  1  0  0  0  0
 34 74  1  0  0  0  0
 34 81  2  0  0  0  0
 35 64  1  0  0  0  0
 35 70  1  0  0  0  0
 35 82  2  0  0  0  0
 36 65  1  0  0  0  0
 36 75  1  0  0  0  0
 36 83  2  0  0  0  0
 37 71  1  0  0  0  0
 37 76  1  0  0  0  0
 37 84  2  0  0  0  0
 38 42  1  0  0  0  0
 39 51  1  0  0  0  0
 40 43  1  0  0  0  0
 41 70  1  0  0  0  0
 42 45  1  0  0  0  0
 43 50  1  0  0  0  0
 44 46  1  0  0  0  0
 44 47  1  0  0  0  0
 45 49  1  0  0  0  0
 46 52  1  0  0  0  0
 47 71  1  0  0  0  0
 48 52  1  0  0  0  0
 48 71  1  0  0  0  0
 49 74  1  0  0  0  0
 50 78  1  0  0  0  0
 51 70  1  0  0  0  0
 52 69  1  0  0  0  0
 54 65  1  0  0  0  0
 55 66  1  0  0  0  0
 56 66  1  0  0  0  0
 57 66  1  0  0  0  0
 58 79  1  0  0  0  0
 59 76  1  0  0  0  0
 60 62  1  0  0  0  0
 60 77  1  0  0  0  0
 61 63  1  0  0  0  0
 61 77  1  0  0  0  0
 62 78  1  0  0  0  0
 63 86  1  0  0  0  0
 64 66  1  0  0  0  0
 64 75  1  0  0  0  0
 65 79  1  0  0  0  0
 67 69  1  0  0  0  0
M  CHG  2  78   1  79   1
M  ISO  4  37 100  63 101  76 100  86 101
M  END
> <Batch ID>
0195

> <Smiles>
CNC(C)C(=O)NC(C(=O)N1Cc2cc([101O:1][101CH2:1]CNCCNC3CCc4cc(C[100NH:0][100C:0](=O)N5CCCC(n6nc(-c7ccc(Oc8ccc(F)cc8F)cc7)c(C(N)=O)c6N)C5)nc(C)c43)ccc2CC1C(=O)NC1CCCc2ccccc21)C(C)(C)C

> <Shape>
0.216

> <Color>
0.180

> <Negative vol penalty>
0.000

$$$$

  -OEChem-04052323373D

 83 92  0     1  0  0  0  0  0999 V2000
  -26.0778  -32.4058   23.7613 C   0  0  0  0  0  0  0  0  0  0  0  0
  -26.2923  -31.0318   23.7216 C   0  0  0  0  0  0  0  0  0  0  0  0
  -23.0477   -9.8990   19.9330 C   0  0  0  0  0  0  0  0  0  0  0  0
  -23.8383   -9.8570   22.2156 C   0  0  0  0  0  0  0  0  0  0  0  0
  -25.1756  -32.9952   22.8767 C   0  0  0  0  0  0  0  0  0  0  0  0
  -25.6039  -30.2462   22.7978 C   0  0  0  0  0  0  0  0  0  0  0  0
  -28.6047  -26.8837   20.4884 C   0  0  0  0  0  0  0  0  0  0  0  0
  -22.2955   -8.7491   20.1723 C   0  0  0  0  0  0  0  0  0  0  0  0
  -23.0861   -8.7070   22.4550 C   0  0  0  0  0  0  0  0  0  0  0  0
  -28.9420  -25.7351   21.2030 C   0  0  0  0  0  0  0  0  0  0  0  0
  -19.8583   -7.9308   23.0869 C   0  0  0  0  0  0  0  0  0  0  0  0
  -19.1167   -7.8773   24.2671 C   0  0  0  0  0  0  0  0  0  0  0  0
  -27.2543  -24.4993   20.0014 C   0  0  0  0  0  0  0  0  0  0  0  0
  -20.3480   -5.9145   24.9518 C   0  0  0  0  0  0  0  0  0  0  0  0
  -30.0325  -20.5992   24.7811 C   0  0  0  0  0  0  0  0  0  0  0  0
  -23.8192  -10.4530   20.9546 C   0  0  0  0  0  0  0  0  0  0  0  0
  -24.1853  -12.9763   20.8753 C   0  0  0  0  0  0  0  0  0  0  0  0
  -24.4829  -32.2178   21.9352 C   0  0  0  0  0  0  0  0  0  0  0  0
  -27.5805  -26.8513   19.5311 C   0  0  0  0  0  0  0  0  0  0  0  0
  -24.6905  -30.8256   21.9006 C   0  0  0  0  0  0  0  0  0  0  0  0
  -26.9076  -25.6482   19.2742 C   0  0  0  0  0  0  0  0  0  0  0  0
  -22.3146   -8.1531   21.4333 C   0  0  0  0  0  0  0  0  0  0  0  0
  -28.2648  -24.5433   20.9616 C   0  0  0  0  0  0  0  0  0  0  0  0
  -20.8447   -6.9761   22.8391 C   0  0  0  0  0  0  0  0  0  0  0  0
  -19.3616   -6.8692   25.1995 C   0  0  0  0  0  0  0  0  0  0  0  0
  -21.0895   -5.9680   23.7715 C   0  0  0  0  0  0  0  0  0  0  0  0
  -24.5969  -11.6406   20.7079 C   0  0  0  0  0  0  0  0  0  0  0  0
  -30.3359  -20.0546   23.5652 C   0  0  0  0  0  0  0  0  0  0  0  0
  -25.2801  -13.7213   20.5107 C   0  0  0  0  0  0  0  0  0  0  0  0
  -29.8679  -22.1962   23.2569 C   0  0  0  0  0  0  0  0  0  0  0  0
  -22.9259  -13.4972   21.3206 C   0  0  0  0  0  0  0  0  0  0  0  0
  -24.7751  -28.3081   19.1974 C   0  0  0  0  0  0  0  0  0  0  0  0
  -24.7839  -26.8178   16.3161 C   0  0  0  0  0  0  0  0  0  0  0  0
  -25.9245  -24.2416   14.3903 C   0  0  0  0  0  0  0  0  0  0  0  0
  -30.7760  -14.6818   20.6427 C   0  0  0  0  0  0  0  0  0  0  0  0
  -23.4825  -32.8933   21.0310 C   0  0  0  0  0  0  0  0  0  0  0  0
  -27.2468  -28.0925   18.7498 C   0  0  0  0  0  0  0  0  0  0  0  0
  -25.8142  -25.5558   18.2426 C   0  0  0  0  0  0  0  0  0  0  0  0
  -23.0725  -32.0417   19.8323 C   0  0  0  0  0  0  0  0  0  0  0  0
  -29.5821  -12.3523   18.2292 C   0  0  0  0  0  0  0  0  0  0  0  0
  -22.7525  -30.6171   20.2740 C   0  0  0  0  0  0  0  0  0  0  0  0
  -28.1477  -12.0652   18.6763 C   0  0  0  0  0  0  0  0  0  0  0  0
  -31.6834  -16.6407   23.1996 C   0  0  0  0  0  0  0  0  0  0  0  0
  -30.5175  -12.5422   19.4213 C   0  0  0  0  0  0  0  0  0  0  0  0
  -31.8813  -18.0814   23.6704 C   0  0  0  0  0  0  0  0  0  0  0  0
  -28.6421  -13.2671   20.8465 C   0  0  0  0  0  0  0  0  0  0  0  0
  -29.9249  -17.9556   22.2511 C   0  0  0  0  0  0  0  0  0  0  0  0
  -23.9813  -29.9433   20.8964 C   0  0  1  0  0  0  0  0  0  0  0  0
  -25.8387  -28.0688   18.1633 C   0  0  1  0  0  0  0  0  0  0  0  0
  -27.6505  -13.1236   19.6793 C   0  0  2  0  0  0  0  0  0  0  0  0
  -30.8805  -16.8089   21.9169 C   0  0  2  0  0  0  0  0  0  0  0  0
  -25.7260  -23.2661   12.0867 C   0  0  0  0  0  0  0  0  0  0  0  0
  -22.0459  -25.6802   17.0365 C   0  0  0  0  0  0  0  0  0  0  0  0
  -22.3297  -24.0139   15.1896 C   0  0  0  0  0  0  0  0  0  0  0  0
  -22.2645  -26.4523   14.6678 C   0  0  0  0  0  0  0  0  0  0  0  0
  -30.4581  -20.9408   21.2124 C   0  0  0  0  0  0  0  0  0  0  0  0
  -28.8107  -24.6197   13.8555 C   0  0  0  0  0  0  0  0  0  0  0  0
  -29.6383  -23.5358   22.6213 C   0  0  0  0  0  0  0  0  0  1  0  0
  -24.3049  -25.4817   15.8021 C   0  0  1  0  0  0  0  0  0  0  0  0
  -26.5043  -24.2124   12.9876 C   0  0  2  0  0  0  0  0  0  0  0  0
  -22.7555  -25.4089   15.6949 C   0  0  0  0  0  0  0  0  0  0  0  0
  -25.8550  -11.5396   20.2708 N   0  0  0  0  0  0  0  0  0  0  0  0
  -30.2256  -21.0650   22.6405 N   0  0  0  0  0  0  0  0  0  0  0  0
  -26.2433  -12.8215   20.1603 N   0  0  0  0  0  0  0  0  0  0  0  0
  -29.7473  -21.9251   24.5605 N   0  3  0  0  0  0  0  0  0  0  0  0
  -30.6954  -18.7807   23.1799 N   0  0  3  0  0  0  0  0  0  0  0  0
  -25.5201  -26.7980   17.5092 N   0  0  0  0  0  0  0  0  0  0  0  0
  -29.9894  -13.5600   20.3330 N   0  0  0  0  0  0  0  0  0  0  0  0
  -25.5031  -15.0517   20.4587 N   0  0  0  0  0  0  0  0  0  0  0  0
  -21.9093  -12.5922   21.6552 N   0  0  0  0  0  0  0  0  0  0  0  0
  -24.8988  -29.5124   19.8635 N   0  0  0  0  0  0  0  0  0  0  0  0
  -25.0024  -25.2556   14.5409 N   0  0  0  0  0  0  0  0  0  0  0  0
  -30.1978  -15.6012   21.5093 N   0  0  0  0  0  0  0  0  0  0  0  0
  -27.9253  -23.7647   13.0237 N   0  3  0  0  0  0  0  0  0  0  0  0
  -22.7030  -14.7289   21.4032 O   0  0  0  0  0  0  0  0  0  0  0  0
  -23.9057  -27.4632   19.3765 O   0  0  0  0  0  0  0  0  0  0  0  0
  -24.5210  -27.8406   15.6787 O   0  0  0  0  0  0  0  0  0  0  0  0
  -26.2538  -23.4422   15.2639 O   0  0  0  0  0  0  0  0  0  0  0  0
  -31.9075  -14.8541   20.1769 O   0  0  0  0  0  0  0  0  0  0  0  0
  -21.5805   -7.0310   21.6673 O   0  0  0  0  0  0  0  0  0  0  0  0
  -28.5916  -23.4208   21.6581 O   0  0  0  0  0  0  0  0  0  1  0  0
  -18.6505   -6.8188   26.3335 F   0  0  0  0  0  0  0  0  0  0  0  0
  -22.0366   -5.0488   23.5395 F   0  0  0  0  0  0  0  0  0  0  0  0
  1  2  1  0  0  0  0
  1  5  2  0  0  0  0
  2  6  2  0  0  0  0
  3  8  2  0  0  0  0
  3 16  1  0  0  0  0
  4  9  1  0  0  0  0
  4 16  2  0  0  0  0
  5 18  1  0  0  0  0
  6 20  1  0  0  0  0
  7 10  2  0  0  0  0
  7 19  1  0  0  0  0
  8 22  1  0  0  0  0
  9 22  2  0  0  0  0
 10 23  1  0  0  0  0
 11 12  2  0  0  0  0
 11 24  1  0  0  0  0
 12 25  1  0  0  0  0
 13 21  1  0  0  0  0
 13 23  2  0  0  0  0
 14 25  2  0  0  0  0
 14 26  1  0  0  0  0
 15 28  2  0  0  0  0
 15 65  1  0  0  0  0
 16 27  1  0  0  0  0
 17 27  1  0  0  0  0
 17 29  2  0  0  0  0
 17 31  1  0  0  0  0
 18 20  2  0  0  0  0
 18 36  1  0  0  0  0
 19 21  2  0  0  0  0
 19 37  1  0  0  0  0
 20 48  1  0  0  0  0
 21 38  1  0  0  0  0
 22 80  1  0  0  0  0
 23 81  1  0  0  0  0
 24 26  2  0  0  0  0
 24 80  1  0  0  0  0
 25 82  1  0  0  0  0
 26 83  1  0  0  0  0
 27 62  2  0  0  0  0
 28 63  1  0  0  0  0
 28 66  1  0  0  0  0
 29 64  1  0  0  0  0
 29 69  1  0  0  0  0
 30 58  1  0  0  0  0
 30 63  1  0  0  0  0
 30 65  2  0  0  0  0
 31 70  1  0  0  0  0
 31 75  2  0  0  0  0
 32 49  1  0  0  0  0
 32 71  1  0  0  0  0
 32 76  2  0  0  0  0
 33 59  1  0  0  0  0
 33 67  1  0  0  0  0
 33 77  2  0  0  0  0
 34 60  1  0  0  0  0
 34 72  1  0  0  0  0
 34 78  2  0  0  0  0
 35 68  1  0  0  0  0
 35 73  1  0  0  0  0
 35 79  2  0  0  0  0
 36 39  1  0  0  0  0
 37 49  1  0  0  0  0
 38 67  1  0  0  0  0
 39 41  1  0  0  0  0
 40 42  1  0  0  0  0
 40 44  1  0  0  0  0
 41 48  1  0  0  0  0
 42 50  1  0  0  0  0
 43 45  1  0  0  0  0
 43 51  1  0  0  0  0
 44 68  1  0  0  0  0
 45 66  1  0  0  0  0
 46 50  1  0  0  0  0
 46 68  1  0  0  0  0
 47 51  1  0  0  0  0
 47 66  1  0  0  0  0
 48 71  1  0  0  0  0
 49 67  1  0  0  0  0
 50 64  1  0  0  0  0
 51 73  1  0  0  0  0
 52 60  1  0  0  0  0
 53 61  1  0  0  0  0
 54 61  1  0  0  0  0
 55 61  1  0  0  0  0
 56 63  1  0  0  0  0
 57 74  1  0  0  0  0
 58 81  1  0  0  0  0
 59 61  1  0  0  0  0
 59 72  1  0  0  0  0
 60 74  1  0  0  0  0
 62 64  1  0  0  0  0
M  CHG  2  65   1  74   1
M  ISO  4  35 100  58 101  73 100  81 101
M  END
> <Batch ID>
0195

> <Smiles>
CNC(C)C(=O)NC(C(=O)N1Cc2cc([101O:1][101CH2:1]c3ncc(N4CCC([100NH:0][100C:0](=O)N5CCCC(n6nc(-c7ccc(Oc8ccc(F)cc8F)cc7)c(C(N)=O)c6N)C5)C4)n3C)ccc2CC1C(=O)NC1CCCc2ccccc21)C(C)(C)C

> <Shape>
0.291

> <Color>
0.189

> <Negative vol penalty>
0.000

$$$$

  -OEChem-04052323373D

 85 94  0     1  0  0  0  0  0999 V2000
  -16.9976  -29.8847   23.3257 C   0  0  0  0  0  0  0  0  0  0  0  0
  -18.2490  -30.4542   23.1134 C   0  0  0  0  0  0  0  0  0  0  0  0
  -26.4857  -13.0939   20.3957 C   0  0  0  0  0  0  0  0  0  0  0  0
  -24.8664  -14.7030   19.6046 C   0  0  0  0  0  0  0  0  0  0  0  0
  -16.8737  -28.5011   23.4449 C   0  0  0  0  0  0  0  0  0  0  0  0
  -19.3775  -29.6404   23.0212 C   0  0  0  0  0  0  0  0  0  0  0  0
  -25.7219  -29.2465   19.7181 C   0  0  0  0  0  0  0  0  0  0  0  0
  -31.5165  -25.7601   16.6780 C   0  0  0  0  0  0  0  0  0  0  0  0
  -25.5816  -12.0614   20.1462 C   0  0  0  0  0  0  0  0  0  0  0  0
  -23.9623  -13.6705   19.3550 C   0  0  0  0  0  0  0  0  0  0  0  0
  -27.0753  -29.0710   20.0028 C   0  0  0  0  0  0  0  0  0  0  0  0
  -22.8580  -10.7224   21.6338 C   0  0  0  0  0  0  0  0  0  0  0  0
  -22.7074   -9.7426   22.6150 C   0  0  0  0  0  0  0  0  0  0  0  0
  -31.0239  -24.5600   17.1783 C   0  0  0  0  0  0  0  0  0  0  0  0
  -26.7302  -26.6878   20.1450 C   0  0  0  0  0  0  0  0  0  0  0  0
  -23.4168   -8.0548   21.0386 C   0  0  0  0  0  0  0  0  0  0  0  0
  -26.1280  -14.4147   20.1250 C   0  0  0  0  0  0  0  0  0  0  0  0
  -28.3397  -15.6483   19.8178 C   0  0  0  0  0  0  0  0  0  0  0  0
  -18.0000  -27.6692   23.3445 C   0  0  0  0  0  0  0  0  0  0  0  0
  -24.8588  -28.1431   19.6554 C   0  0  0  0  0  0  0  0  0  0  0  0
  -19.2688  -28.2444   23.1405 C   0  0  0  0  0  0  0  0  0  0  0  0
  -25.3667  -26.8517   19.8568 C   0  0  0  0  0  0  0  0  0  0  0  0
  -31.5772  -26.8780   17.5027 C   0  0  0  0  0  0  0  0  0  0  0  0
  -24.3200  -12.3497   19.6258 C   0  0  0  0  0  0  0  0  0  0  0  0
  -27.5791  -27.7918   20.2192 C   0  0  0  0  0  0  0  0  0  0  0  0
  -23.2879  -10.3684   20.3548 C   0  0  0  0  0  0  0  0  0  0  0  0
  -22.9868   -8.4088   22.3175 C   0  0  0  0  0  0  0  0  0  0  0  0
  -23.5674   -9.0346   20.0573 C   0  0  0  0  0  0  0  0  0  0  0  0
  -27.0612  -15.4818   20.3831 C   0  0  0  0  0  0  0  0  0  0  0  0
  -30.6079  -24.5302   18.4996 C   0  0  0  0  0  0  0  0  0  0  0  0
  -31.1363  -26.7444   18.8094 C   0  0  0  0  0  0  0  0  0  0  0  0
  -28.8171  -16.8054   20.3832 C   0  0  0  0  0  0  0  0  0  0  0  0
  -29.0336  -14.8303   18.8665 C   0  0  0  0  0  0  0  0  0  0  0  0
  -22.2861  -27.2127   21.2738 C   0  0  0  0  0  0  0  0  0  0  0  0
  -22.2004  -24.8722   19.0295 C   0  0  0  0  0  0  0  0  0  0  0  0
  -23.8923  -22.9914   16.7389 C   0  0  0  0  0  0  0  0  0  0  0  0
  -28.0383  -22.0931   21.9742 C   0  0  0  0  0  0  0  0  0  0  0  0
  -17.8230  -26.1826   23.5271 C   0  0  0  0  0  0  0  0  0  0  0  0
  -23.4066  -28.3469   19.3208 C   0  0  0  0  0  0  0  0  0  0  0  0
  -24.4859  -25.6324   19.7806 C   0  0  0  0  0  0  0  0  0  0  0  0
  -19.0167  -25.3631   23.0435 C   0  0  0  0  0  0  0  0  0  0  0  0
  -27.1017  -19.5533   24.2446 C   0  0  0  0  0  0  0  0  0  0  0  0
  -20.3213  -25.9705   23.5494 C   0  0  0  0  0  0  0  0  0  0  0  0
  -27.0767  -18.2831   23.3988 C   0  0  0  0  0  0  0  0  0  0  0  0
  -28.7947  -22.6709   18.4318 C   0  0  0  0  0  0  0  0  0  0  0  0
  -26.5861  -20.7440   23.4476 C   0  0  0  0  0  0  0  0  0  0  0  0
  -28.3096  -21.6611   19.4634 C   0  0  0  0  0  0  0  0  0  0  0  0
  -29.6416  -23.3308   20.5497 C   0  0  0  0  0  0  0  0  0  0  0  0
  -27.3628  -19.7307   21.3216 C   0  0  0  0  0  0  0  0  0  0  0  0
  -20.5132  -27.3931   23.0102 C   0  0  1  0  0  0  0  0  0  0  0  0
  -30.0681  -23.2407   19.0776 C   0  0  2  0  0  0  0  0  0  0  0  0
  -22.5186  -27.1983   19.7894 C   0  0  1  0  0  0  0  0  0  0  0  0
  -27.8563  -18.4878   22.0907 C   0  0  2  0  0  0  0  0  0  0  0  0
  -23.5613  -21.1329   15.0855 C   0  0  0  0  0  0  0  0  0  0  0  0
  -22.1209  -22.8545   21.3170 C   0  0  0  0  0  0  0  0  0  0  0  0
  -22.7453  -21.0718   19.6737 C   0  0  0  0  0  0  0  0  0  0  0  0
  -20.6032  -22.3210   19.4022 C   0  0  0  0  0  0  0  0  0  0  0  0
  -24.7081  -24.7081   14.4704 C   0  0  0  0  0  0  0  0  0  0  0  0
  -32.1028  -28.1668   16.9720 C   0  0  0  0  0  0  0  0  0  0  0  0
  -31.1810  -27.9106   19.7415 C   0  0  0  0  0  0  0  0  0  0  0  0
  -29.8115  -28.5642   19.9439 C   0  0  0  0  0  0  0  0  0  1  0  0
  -22.7902  -23.4881   18.9053 C   0  0  1  0  0  0  0  0  0  0  0  0
  -23.5788  -22.6389   15.2960 C   0  0  2  0  0  0  0  0  0  0  0  0
  -22.0814  -22.4568   19.8280 C   0  0  0  0  0  0  0  0  0  0  0  0
  -26.7464  -16.4551   21.2419 N   0  0  0  0  0  0  0  0  0  0  0  0
  -30.6516  -25.5952   19.3310 N   0  0  0  0  0  0  0  0  0  0  0  0
  -27.8340  -17.2443   21.2205 N   0  0  0  0  0  0  0  0  0  0  0  0
  -23.0719  -25.8840   19.4567 N   0  0  0  0  0  0  0  0  0  0  0  0
  -27.3162  -20.9142   22.1901 N   0  0  0  0  0  0  0  0  0  0  0  0
  -28.6853  -22.2465   20.7486 N   0  0  0  0  0  0  0  0  0  0  0  0
  -29.9777  -17.4800   20.2410 N   0  0  0  0  0  0  0  0  0  0  0  0
  -28.8646  -15.1025   17.5021 N   0  0  0  0  0  0  0  0  0  0  0  0
  -20.9598  -27.3561   21.6341 N   0  0  0  0  0  0  0  0  0  0  0  0
  -22.7448  -23.1509   17.4866 N   0  0  0  0  0  0  0  0  0  0  0  0
  -33.5736  -28.3250   17.1487 N   0  3  0  0  0  0  0  0  0  0  0  0
  -24.6000  -23.2289   14.3850 N   0  3  0  0  0  0  0  0  0  0  0  0
  -29.7686  -13.8756   19.2156 O   0  0  0  0  0  0  0  0  0  0  0  0
  -23.2392  -27.1006   22.0357 O   0  0  0  0  0  0  0  0  0  0  0  0
  -21.0121  -25.0504   18.7508 O   0  0  0  0  0  0  0  0  0  0  0  0
  -25.0404  -23.1094   17.1614 O   0  0  0  0  0  0  0  0  0  0  0  0
  -28.0704  -22.9922   22.8253 O   0  0  0  0  0  0  0  0  0  0  0  0
  -23.4377  -11.3424   19.3820 O   0  0  0  0  0  0  0  0  0  0  0  0
  -28.9090  -27.6165   20.4999 O   0  0  0  0  0  0  0  0  0  1  0  0
  -22.8437   -7.4682   23.2603 F   0  0  0  0  0  0  0  0  0  0  0  0
  -23.9819   -8.6886   18.8308 F   0  0  0  0  0  0  0  0  0  0  0  0
  1  2  1  0  0  0  0
  1  5  2  0  0  0  0
  2  6  2  0  0  0  0
  3  9  2  0  0  0  0
  3 17  1  0  0  0  0
  4 10  1  0  0  0  0
  4 17  2  0  0  0  0
  5 19  1  0  0  0  0
  6 21  1  0  0  0  0
  7 11  2  0  0  0  0
  7 20  1  0  0  0  0
  8 14  2  0  0  0  0
  8 23  1  0  0  0  0
  9 24  1  0  0  0  0
 10 24  2  0  0  0  0
 11 25  1  0  0  0  0
 12 13  2  0  0  0  0
 12 26  1  0  0  0  0
 13 27  1  0  0  0  0
 14 30  1  0  0  0  0
 15 22  1  0  0  0  0
 15 25  2  0  0  0  0
 16 27  2  0  0  0  0
 16 28  1  0  0  0  0
 17 29  1  0  0  0  0
 18 29  1  0  0  0  0
 18 32  2  0  0  0  0
 18 33  1  0  0  0  0
 19 21  2  0  0  0  0
 19 38  1  0  0  0  0
 20 22  2  0  0  0  0
 20 39  1  0  0  0  0
 21 50  1  0  0  0  0
 22 40  1  0  0  0  0
 23 31  2  0  0  0  0
 23 59  1  0  0  0  0
 24 82  1  0  0  0  0
 25 83  1  0  0  0  0
 26 28  2  0  0  0  0
 26 82  1  0  0  0  0
 27 84  1  0  0  0  0
 28 85  1  0  0  0  0
 29 65  2  0  0  0  0
 30 51  1  0  0  0  0
 30 66  2  0  0  0  0
 31 60  1  0  0  0  0
 31 66  1  0  0  0  0
 32 67  1  0  0  0  0
 32 71  1  0  0  0  0
 33 72  1  0  0  0  0
 33 77  2  0  0  0  0
 34 52  1  0  0  0  0
 34 73  1  0  0  0  0
 34 78  2  0  0  0  0
 35 62  1  0  0  0  0
 35 68  1  0  0  0  0
 35 79  2  0  0  0  0
 36 63  1  0  0  0  0
 36 74  1  0  0  0  0
 36 80  2  0  0  0  0
 37 69  1  0  0  0  0
 37 70  1  0  0  0  0
 37 81  2  0  0  0  0
 38 41  1  0  0  0  0
 39 52  1  0  0  0  0
 40 68  1  0  0  0  0
 41 43  1  0  0  0  0
 42 44  1  0  0  0  0
 42 46  1  0  0  0  0
 43 50  1  0  0  0  0
 44 53  1  0  0  0  0
 45 47  1  0  0  0  0
 45 51  1  0  0  0  0
 46 69  1  0  0  0  0
 47 70  1  0  0  0  0
 48 51  1  0  0  0  0
 48 70  1  0  0  0  0
 49 53  1  0  0  0  0
 49 69  1  0  0  0  0
 50 73  1  0  0  0  0
 52 68  1  0  0  0  0
 53 67  1  0  0  0  0
 54 63  1  0  0  0  0
 55 64  1  0  0  0  0
 56 64  1  0  0  0  0
 57 64  1  0  0  0  0
 58 76  1  0  0  0  0
 59 75  1  0  0  0  0
 60 61  1  0  0  0  0
 61 83  1  0  0  0  0
 62 64  1  0  0  0  0
 62 74  1  0  0  0  0
 63 76  1  0  0  0  0
 65 67  1  0  0  0  0
M  CHG  2  75   1  76   1
M  ISO  4  37 100  61 101  70 100  83 101
M  END
> <Batch ID>
0195

> <Smiles>
CNC(C)C(=O)NC(C(=O)N1Cc2cc([101O:1][101CH2:1]Cc3nc(C4CC[100N:0]([100C:0](=O)N5CCCC(n6nc(-c7ccc(Oc8ccc(F)cc8F)cc7)c(C(N)=O)c6N)C5)C4)ccc3CN)ccc2CC1C(=O)NC1CCCc2ccccc21)C(C)(C)C

> <Shape>
0.272

> <Color>
0.101

> <Negative vol penalty>
0.000

$$$$

  -OEChem-04052323373D

 87 97  0     1  0  0  0  0  0999 V2000
  -29.7718  -36.0178   26.8656 C   0  0  0  0  0  0  0  0  0  0  0  0
  -30.1629  -35.0462   25.9500 C   0  0  0  0  0  0  0  0  0  0  0  0
  -23.1491  -10.4186   22.3722 C   0  0  0  0  0  0  0  0  0  0  0  0
  -24.0666   -9.3377   20.4159 C   0  0  0  0  0  0  0  0  0  0  0  0
  -28.6508  -35.8074   27.6674 C   0  0  0  0  0  0  0  0  0  0  0  0
  -29.4339  -33.8630   25.8365 C   0  0  0  0  0  0  0  0  0  0  0  0
  -28.4277  -30.6339   20.7309 C   0  0  0  0  0  0  0  0  0  0  0  0
  -22.4941   -9.2367   22.7180 C   0  0  0  0  0  0  0  0  0  0  0  0
  -23.4116   -8.1558   20.7618 C   0  0  0  0  0  0  0  0  0  0  0  0
  -29.0399  -29.4976   20.2038 C   0  0  0  0  0  0  0  0  0  0  0  0
  -19.7079   -7.5678   21.7818 C   0  0  0  0  0  0  0  0  0  0  0  0
  -18.3755   -7.6600   22.1840 C   0  0  0  0  0  0  0  0  0  0  0  0
  -27.3247  -28.1211   21.1951 C   0  0  0  0  0  0  0  0  0  0  0  0
  -18.9552   -6.7003   24.3242 C   0  0  0  0  0  0  0  0  0  0  0  0
  -23.9354  -10.4691   21.2211 C   0  0  0  0  0  0  0  0  0  0  0  0
  -24.0232  -12.9390   20.5890 C   0  0  0  0  0  0  0  0  0  0  0  0
  -27.9020  -34.6252   27.5569 C   0  0  0  0  0  0  0  0  0  0  0  0
  -27.2636  -30.5212   21.5046 C   0  0  0  0  0  0  0  0  0  0  0  0
  -28.3026  -33.6359   26.6386 C   0  0  0  0  0  0  0  0  0  0  0  0
  -26.6983  -29.2577   21.7288 C   0  0  0  0  0  0  0  0  0  0  0  0
  -22.6253   -8.1053   21.9129 C   0  0  0  0  0  0  0  0  0  0  0  0
  -28.4900  -28.2407   20.4383 C   0  0  0  0  0  0  0  0  0  0  0  0
  -20.6640   -7.0418   22.6507 C   0  0  0  0  0  0  0  0  0  0  0  0
  -17.9991   -7.2263   23.4552 C   0  0  0  0  0  0  0  0  0  0  0  0
  -20.2876   -6.6081   23.9219 C   0  0  0  0  0  0  0  0  0  0  0  0
  -24.6118  -11.6899   20.8630 C   0  0  0  0  0  0  0  0  0  0  0  0
  -25.0841  -13.7633   20.3037 C   0  0  0  0  0  0  0  0  0  0  0  0
  -22.6410  -13.3201   20.5921 C   0  0  0  0  0  0  0  0  0  0  0  0
  -26.4873  -31.2262   24.5052 C   0  0  0  0  0  0  0  0  0  0  0  0
  -23.5132  -30.3825   23.5229 C   0  0  0  0  0  0  0  0  0  0  0  0
  -21.5760  -28.6232   21.3323 C   0  0  0  0  0  0  0  0  0  0  0  0
  -30.8095  -13.4028   21.9594 C   0  0  0  0  0  0  0  0  0  0  0  0
  -26.7253  -34.4223   28.4784 C   0  0  0  0  0  0  0  0  0  0  0  0
  -26.6004  -31.7589   22.0436 C   0  0  0  0  0  0  0  0  0  0  0  0
  -25.4384  -29.0845   22.5357 C   0  0  0  0  0  0  0  0  0  0  0  0
  -25.7886  -33.3025   28.0327 C   0  0  0  0  0  0  0  0  0  0  0  0
  -29.5287  -13.6765   18.5380 C   0  0  0  0  0  0  0  0  0  0  0  0
  -26.5864  -32.0606   27.6479 C   0  0  0  0  0  0  0  0  0  0  0  0
  -28.0608  -13.2920   18.7310 C   0  0  0  0  0  0  0  0  0  0  0  0
  -29.3179  -21.5364   21.0985 C   0  0  0  0  0  0  0  0  0  0  0  0
  -33.4613  -19.1531   21.7265 C   0  0  0  0  0  0  0  0  0  0  0  0
  -30.4273  -12.8934   19.4876 C   0  0  0  0  0  0  0  0  0  0  0  0
  -28.9194  -22.9737   20.7606 C   0  0  0  0  0  0  0  0  0  0  0  0
  -32.9567  -20.5956   21.6707 C   0  0  0  0  0  0  0  0  0  0  0  0
  -28.6085  -12.6489   21.1279 C   0  0  0  0  0  0  0  0  0  0  0  0
  -31.2498  -22.9401   20.9680 C   0  0  0  0  0  0  0  0  0  0  0  0
  -32.8619  -14.7253   22.6954 C   0  0  0  0  0  0  0  0  0  0  0  0
  -32.2563  -15.1818   20.7003 C   0  0  0  0  0  0  0  0  0  0  0  0
  -31.0599  -19.2317   21.7480 C   0  0  0  0  0  0  0  0  0  0  0  0
  -27.5230  -32.3500   26.4687 C   0  0  1  0  0  0  0  0  0  0  0  0
  -25.7056  -31.4812   23.2476 C   0  0  1  0  0  0  0  0  0  0  0  0
  -27.6408  -13.4151   20.2073 C   0  0  2  0  0  0  0  0  0  0  0  0
  -30.7623  -21.6372   21.5840 C   0  0  2  0  0  0  0  0  0  0  0  0
  -32.2251  -18.3094   21.4499 C   0  0  2  0  0  0  0  0  0  0  0  0
  -32.9765  -15.9669   21.8045 C   0  0  0  0  0  0  0  0  0  0  0  0
  -19.1795  -28.0987   20.8039 C   0  0  0  0  0  0  0  0  0  0  0  0
  -23.4193  -28.4480   25.8806 C   0  0  0  0  0  0  0  0  0  0  0  0
  -21.4817  -27.3081   24.7783 C   0  0  0  0  0  0  0  0  0  0  0  0
  -21.2918  -29.6971   25.4707 C   0  0  0  0  0  0  0  0  0  0  0  0
  -21.7809  -29.8427   18.6435 C   0  0  0  0  0  0  0  0  0  0  0  0
  -30.1569  -25.0369   20.4102 C   0  0  0  0  0  0  0  0  0  0  0  0
  -28.9412  -25.9162   20.6598 C   0  0  0  0  0  0  0  0  0  1  0  0
  -22.7273  -29.0943   23.4786 C   0  0  1  0  0  0  0  0  0  0  0  0
  -20.3552  -29.0215   20.5227 C   0  0  2  0  0  0  0  0  0  0  0  0
  -22.2548  -28.6396   24.8884 C   0  0  0  0  0  0  0  0  0  0  0  0
  -25.9433  -11.7138   20.7609 N   0  0  0  0  0  0  0  0  0  0  0  0
  -26.2002  -12.9880   20.4194 N   0  0  0  0  0  0  0  0  0  0  0  0
  -24.8307  -30.3243   23.0468 N   0  0  0  0  0  0  0  0  0  0  0  0
  -29.9929  -13.0637   20.8775 N   0  0  0  0  0  0  0  0  0  0  0  0
  -31.8960  -14.2139   21.7260 N   0  0  0  0  0  0  0  0  0  0  0  0
  -31.5715  -20.4905   21.2005 N   0  0  1  0  0  0  0  0  0  0  0  0
  -30.0721  -23.7898   21.1544 N   0  0  1  0  0  0  0  0  0  0  0  0
  -25.1619  -15.0685   19.9677 N   0  0  0  0  0  0  0  0  0  0  0  0
  -21.6809  -12.3490   20.9073 N   0  0  0  0  0  0  0  0  0  0  0  0
  -26.7810  -32.3678   25.2264 N   0  0  0  0  0  0  0  0  0  0  0  0
  -21.6435  -29.3099   22.5260 N   0  0  0  0  0  0  0  0  0  0  0  0
  -32.1906  -17.1090   22.3049 N   0  3  0  0  0  0  0  0  0  0  0  0
  -20.6592  -28.9646   19.0649 N   0  3  0  0  0  0  0  0  0  0  0  0
  -22.2673  -14.4832   20.3072 O   0  0  0  0  0  0  0  0  0  0  0  0
  -26.7997  -30.0786   24.8003 O   0  0  0  0  0  0  0  0  0  0  0  0
  -22.9756  -31.4043   23.9570 O   0  0  0  0  0  0  0  0  0  0  0  0
  -22.3865  -27.7839   20.9460 O   0  0  0  0  0  0  0  0  0  0  0  0
  -30.5593  -13.0206   23.1103 O   0  0  0  0  0  0  0  0  0  0  0  0
  -21.9865   -6.9517   22.2502 O   0  0  0  0  0  0  0  0  0  0  0  0
  -29.0902  -27.1220   19.9218 O   0  0  0  0  0  0  0  0  0  1  0  0
  -16.7199   -7.3163   23.8419 F   0  0  0  0  0  0  0  0  0  0  0  0
  -21.2018   -6.1030   24.7615 F   0  0  0  0  0  0  0  0  0  0  0  0
  1  2  1  0  0  0  0
  1  5  2  0  0  0  0
  2  6  2  0  0  0  0
  3  8  2  0  0  0  0
  3 15  1  0  0  0  0
  4  9  1  0  0  0  0
  4 15  2  0  0  0  0
  5 17  1  0  0  0  0
  6 19  1  0  0  0  0
  7 10  2  0  0  0  0
  7 18  1  0  0  0  0
  8 21  1  0  0  0  0
  9 21  2  0  0  0  0
 10 22  1  0  0  0  0
 11 12  2  0  0  0  0
 11 23  1  0  0  0  0
 12 24  1  0  0  0  0
 13 20  1  0  0  0  0
 13 22  2  0  0  0  0
 14 24  2  0  0  0  0
 14 25  1  0  0  0  0
 15 26  1  0  0  0  0
 16 26  1  0  0  0  0
 16 27  2  0  0  0  0
 16 28  1  0  0  0  0
 17 19  2  0  0  0  0
 17 33  1  0  0  0  0
 18 20  2  0  0  0  0
 18 34  1  0  0  0  0
 19 50  1  0  0  0  0
 20 35  1  0  0  0  0
 21 84  1  0  0  0  0
 22 85  1  0  0  0  0
 23 25  2  0  0  0  0
 23 84  1  0  0  0  0
 24 86  1  0  0  0  0
 25 87  1  0  0  0  0
 26 66  2  0  0  0  0
 27 67  1  0  0  0  0
 27 73  1  0  0  0  0
 28 74  1  0  0  0  0
 28 79  2  0  0  0  0
 29 51  1  0  0  0  0
 29 75  1  0  0  0  0
 29 80  2  0  0  0  0
 30 63  1  0  0  0  0
 30 68  1  0  0  0  0
 30 81  2  0  0  0  0
 31 64  1  0  0  0  0
 31 76  1  0  0  0  0
 31 82  2  0  0  0  0
 32 69  1  0  0  0  0
 32 70  1  0  0  0  0
 32 83  2  0  0  0  0
 33 36  1  0  0  0  0
 34 51  1  0  0  0  0
 35 68  1  0  0  0  0
 36 38  1  0  0  0  0
 37 39  1  0  0  0  0
 37 42  1  0  0  0  0
 38 50  1  0  0  0  0
 39 52  1  0  0  0  0
 40 43  1  0  0  0  0
 40 53  1  0  0  0  0
 41 44  1  0  0  0  0
 41 54  1  0  0  0  0
 42 69  1  0  0  0  0
 43 72  1  0  0  0  0
 44 71  1  0  0  0  0
 45 52  1  0  0  0  0
 45 69  1  0  0  0  0
 46 53  1  0  0  0  0
 46 72  1  0  0  0  0
 47 55  1  0  0  0  0
 47 70  1  0  0  0  0
 48 55  1  0  0  0  0
 48 70  1  0  0  0  0
 49 54  1  0  0  0  0
 49 71  1  0  0  0  0
 50 75  1  0  0  0  0
 51 68  1  0  0  0  0
 52 67  1  0  0  0  0
 53 71  1  0  0  0  0
 54 77  1  0  0  0  0
 55 77  1  0  0  0  0
 56 64  1  0  0  0  0
 57 65  1  0  0  0  0
 58 65  1  0  0  0  0
 59 65  1  0  0  0  0
 60 78  1  0  0  0  0
 61 62  1  0  0  0  0
 61 72  1  0  0  0  0
 62 85  1  0  0  0  0
 63 65  1  0  0  0  0
 63 76  1  0  0  0  0
 64 78  1  0  0  0  0
 66 67  1  0  0  0  0
M  CHG  2  77   1  78   1
M  ISO  4  32 100  62 101  70 100  85 101
M  END
> <Batch ID>
0195

> <Smiles>
CNC(C)C(=O)NC(C(=O)N1Cc2cc([101O:1][101CH2:1]CN3CCC(N4CCC(NC5C[100N:0]([100C:0](=O)N6CCCC(n7nc(-c8ccc(Oc9ccc(F)cc9F)cc8)c(C(N)=O)c7N)C6)C5)C4)C3)ccc2CC1C(=O)NC1CCCc2ccccc21)C(C)(C)C

> <Shape>
0.305

> <Color>
0.171

> <Negative vol penalty>
0.000

$$$$

  -OEChem-04052323373D

 95107  0     1  0  0  0  0  0999 V2000
  -17.4659  -26.7763   22.5441 C   0  0  0  0  0  0  0  0  0  0  0  0
  -17.9119  -27.5451   21.4738 C   0  0  0  0  0  0  0  0  0  0  0  0
  -24.7459   -7.2242   19.9361 C   0  0  0  0  0  0  0  0  0  0  0  0
  -23.7100   -6.6164   22.0324 C   0  0  0  0  0  0  0  0  0  0  0  0
  -18.0145  -26.9639   23.8121 C   0  0  0  0  0  0  0  0  0  0  0  0
  -18.9061  -28.5027   21.6712 C   0  0  0  0  0  0  0  0  0  0  0  0
  -25.8188  -29.3389   18.1296 C   0  0  0  0  0  0  0  0  0  0  0  0
  -25.1078   -5.8931   19.7290 C   0  0  0  0  0  0  0  0  0  0  0  0
  -24.0718   -5.2853   21.8253 C   0  0  0  0  0  0  0  0  0  0  0  0
  -27.1321  -29.4969   17.6864 C   0  0  0  0  0  0  0  0  0  0  0  0
  -22.9688   -2.6601   20.0054 C   0  0  0  0  0  0  0  0  0  0  0  0
  -22.0052   -1.6822   20.2522 C   0  0  0  0  0  0  0  0  0  0  0  0
  -27.7195  -30.5656   19.7747 C   0  0  0  0  0  0  0  0  0  0  0  0
  -23.4406   -0.6896   21.9229 C   0  0  0  0  0  0  0  0  0  0  0  0
  -29.6539  -24.2787   21.5623 C   0  0  0  0  0  0  0  0  0  0  0  0
  -24.0470   -7.5858   21.0878 C   0  0  0  0  0  0  0  0  0  0  0  0
  -22.4819   -9.5912   20.8968 C   0  0  0  0  0  0  0  0  0  0  0  0
  -19.0227  -27.9176   24.0231 C   0  0  0  0  0  0  0  0  0  0  0  0
  -25.4541  -29.7803   19.4046 C   0  0  0  0  0  0  0  0  0  0  0  0
  -19.4678  -28.7041   22.9435 C   0  0  0  0  0  0  0  0  0  0  0  0
  -26.4086  -30.3988   20.2289 C   0  0  0  0  0  0  0  0  0  0  0  0
  -30.3257  -23.4361   20.7003 C   0  0  0  0  0  0  0  0  0  0  0  0
  -24.7708   -4.9237   20.6736 C   0  0  0  0  0  0  0  0  0  0  0  0
  -28.0800  -30.1089   18.5069 C   0  0  0  0  0  0  0  0  0  0  0  0
  -24.1683   -2.6527   20.7173 C   0  0  0  0  0  0  0  0  0  0  0  0
  -22.2411   -0.6970   21.2109 C   0  0  0  0  0  0  0  0  0  0  0  0
  -24.4041   -1.6674   21.6761 C   0  0  0  0  0  0  0  0  0  0  0  0
  -23.6734   -8.9607   21.3026 C   0  0  0  0  0  0  0  0  0  0  0  0
  -30.8441  -24.0302   19.5678 C   0  0  0  0  0  0  0  0  0  0  0  0
  -22.6113  -10.8858   21.3371 C   0  0  0  0  0  0  0  0  0  0  0  0
  -30.0456  -26.0605   20.2062 C   0  0  0  0  0  0  0  0  0  0  0  0
  -21.3586   -9.0546   20.1856 C   0  0  0  0  0  0  0  0  0  0  0  0
  -22.7410  -30.1179   21.9738 C   0  0  0  0  0  0  0  0  0  0  0  0
  -25.2980  -29.3335   23.4760 C   0  0  0  0  0  0  0  0  0  0  0  0
  -27.8241  -27.7016   24.4028 C   0  0  0  0  0  0  0  0  0  0  0  0
  -25.3599  -15.4496   22.0182 C   0  0  0  0  0  0  0  0  0  0  0  0
  -19.5520  -28.1172   25.4212 C   0  0  0  0  0  0  0  0  0  0  0  0
  -24.0364  -29.6864   19.8996 C   0  0  0  0  0  0  0  0  0  0  0  0
  -25.9627  -30.8894   21.5792 C   0  0  0  0  0  0  0  0  0  0  0  0
  -20.8660  -28.8925   25.4702 C   0  0  0  0  0  0  0  0  0  0  0  0
  -25.9818  -12.9939   24.4535 C   0  0  0  0  0  0  0  0  0  0  0  0
  -20.7909  -30.1271   24.5775 C   0  0  0  0  0  0  0  0  0  0  0  0
  -31.6469  -23.6657   17.1395 C   0  0  0  0  0  0  0  0  0  0  0  0
  -30.8185  -22.4739   17.5048 C   0  0  0  0  0  0  0  0  0  0  0  0
  -25.3371  -11.7636   23.8157 C   0  0  0  0  0  0  0  0  0  0  0  0
  -31.9680  -28.1833   18.8097 C   0  0  0  0  0  0  0  0  0  0  0  0
  -31.8031  -29.6094   18.2474 C   0  0  0  0  0  0  0  0  0  0  0  0
  -26.7286  -13.8469   23.4266 C   0  0  0  0  0  0  0  0  0  0  0  0
  -27.6162  -16.5019   22.4989 C   0  0  0  0  0  0  0  0  0  0  0  0
  -25.5601  -17.8759   22.4745 C   0  0  0  0  0  0  0  0  0  0  0  0
  -25.2612  -13.0067   21.6211 C   0  0  0  0  0  0  0  0  0  0  0  0
  -29.7383  -19.7167   20.5074 C   0  0  0  0  0  0  0  0  0  0  0  0
  -28.2151  -21.1093   20.7838 C   0  0  0  0  0  0  0  0  0  0  0  0
  -28.2394  -17.3989   21.4322 C   0  0  0  0  0  0  0  0  0  0  0  0
  -26.1407  -18.7762   21.3943 C   0  0  0  0  0  0  0  0  0  0  0  0
  -20.5620  -29.7357   23.1126 C   0  0  1  0  0  0  0  0  0  0  0  0
  -31.5897  -23.2045   18.5709 C   0  0  0  0  0  0  0  0  0  0  0  0
  -23.9419  -29.4155   21.4118 C   0  0  1  0  0  0  0  0  0  0  0  0
  -24.4551  -12.1603   22.6185 C   0  0  1  0  0  0  0  0  0  0  0  0
  -30.4303  -28.0707   18.7791 C   0  0  2  0  0  0  0  0  0  0  0  0
  -28.2009  -19.6009   20.4625 C   0  0  0  0  0  0  0  0  0  0  0  0
  -30.3810  -29.6172   18.8589 C   0  0  2  0  0  0  0  0  0  1  0  0
  -29.7034  -26.4828   25.5342 C   0  0  0  0  0  0  0  0  0  0  0  0
  -25.6850  -32.2462   24.2946 C   0  0  0  0  0  0  0  0  0  0  0  0
  -27.5136  -31.4972   25.8319 C   0  0  0  0  0  0  0  0  0  0  0  0
  -25.1802  -30.6890   26.1853 C   0  0  0  0  0  0  0  0  0  0  0  0
  -26.1824  -25.2654   24.7617 C   0  0  0  0  0  0  0  0  0  0  0  0
  -30.4670  -21.9721   21.0019 C   0  0  0  0  0  0  0  0  0  0  0  0
  -26.5162  -29.8026   24.2305 C   0  0  1  0  0  0  0  0  0  0  0  0
  -28.1949  -26.6065   25.3865 C   0  0  2  0  0  0  0  0  0  0  0  0
  -26.2249  -31.0528   25.1078 C   0  0  0  0  0  0  0  0  0  0  0  0
  -29.4944  -25.6008   21.3456 N   0  0  0  0  0  0  0  0  0  0  0  0
  -24.4990   -9.7868   21.9507 N   0  0  0  0  0  0  0  0  0  0  0  0
  -30.7221  -25.3444   19.2879 N   0  0  0  0  0  0  0  0  0  0  0  0
  -23.8253  -10.9496   21.9554 N   0  0  0  0  0  0  0  0  0  0  0  0
  -25.0834  -29.8930   22.2105 N   0  0  0  0  0  0  0  0  0  0  0  0
  -25.8602  -14.1664   22.2850 N   0  0  0  0  0  0  0  0  0  0  0  0
  -26.1486  -16.5372   22.4225 N   0  0  0  0  0  0  0  0  0  0  0  0
  -29.5742  -21.1579   20.1851 N   0  0  0  0  0  0  0  0  0  0  0  0
  -21.8040  -11.9644   21.2516 N   0  0  0  0  0  0  0  0  0  0  0  0
  -21.3891   -7.7051   19.8086 N   0  0  0  0  0  0  0  0  0  0  0  0
  -29.8979  -27.4403   19.9463 N   0  0  0  0  0  0  0  0  0  0  0  0
  -21.7950  -29.2688   22.5156 N   0  0  0  0  0  0  0  0  0  0  0  0
  -27.0030  -28.6483   24.9781 N   0  0  0  0  0  0  0  0  0  0  0  0
  -27.6387  -18.7732   21.5336 N   0  3  0  0  0  0  0  0  0  0  0  0
  -27.6585  -25.2942   24.9270 N   0  3  0  0  0  0  0  0  0  0  0  0
  -20.3645   -9.7554   19.8787 O   0  0  0  0  0  0  0  0  0  0  0  0
  -22.6768  -31.3405   21.9216 O   0  0  0  0  0  0  0  0  0  0  0  0
  -24.5522  -28.4979   23.9945 O   0  0  0  0  0  0  0  0  0  0  0  0
  -28.2258  -27.7178   23.2414 O   0  0  0  0  0  0  0  0  0  0  0  0
  -24.2725  -15.6142   21.4510 O   0  0  0  0  0  0  0  0  0  0  0  0
  -25.1236   -3.6247   20.4717 O   0  0  0  0  0  0  0  0  0  0  0  0
  -29.3638  -30.2562   18.0689 O   0  0  0  0  0  0  0  0  0  1  0  0
  -21.3151    0.2411   21.4489 F   0  0  0  0  0  0  0  0  0  0  0  0
  -25.5541   -1.6559   22.3641 F   0  0  0  0  0  0  0  0  0  0  0  0
  1  2  1  0  0  0  0
  1  5  2  0  0  0  0
  2  6  2  0  0  0  0
  3  8  2  0  0  0  0
  3 16  1  0  0  0  0
  4  9  1  0  0  0  0
  4 16  2  0  0  0  0
  5 18  1  0  0  0  0
  6 20  1  0  0  0  0
  7 10  2  0  0  0  0
  7 19  1  0  0  0  0
  8 23  1  0  0  0  0
  9 23  2  0  0  0  0
 10 24  1  0  0  0  0
 11 12  2  0  0  0  0
 11 25  1  0  0  0  0
 12 26  1  0  0  0  0
 13 21  1  0  0  0  0
 13 24  2  0  0  0  0
 14 26  2  0  0  0  0
 14 27  1  0  0  0  0
 15 22  1  0  0  0  0
 15 72  2  0  0  0  0
 16 28  1  0  0  0  0
 17 28  1  0  0  0  0
 17 30  2  0  0  0  0
 17 32  1  0  0  0  0
 18 20  2  0  0  0  0
 18 37  1  0  0  0  0
 19 21  2  0  0  0  0
 19 38  1  0  0  0  0
 20 56  1  0  0  0  0
 21 39  1  0  0  0  0
 22 29  2  0  0  0  0
 22 68  1  0  0  0  0
 23 92  1  0  0  0  0
 24 93  1  0  0  0  0
 25 27  2  0  0  0  0
 25 92  1  0  0  0  0
 26 94  1  0  0  0  0
 27 95  1  0  0  0  0
 28 73  2  0  0  0  0
 29 57  1  0  0  0  0
 29 74  1  0  0  0  0
 30 75  1  0  0  0  0
 30 80  1  0  0  0  0
 31 72  1  0  0  0  0
 31 74  2  0  0  0  0
 31 82  1  0  0  0  0
 32 81  1  0  0  0  0
 32 87  2  0  0  0  0
 33 58  1  0  0  0  0
 33 83  1  0  0  0  0
 33 88  2  0  0  0  0
 34 69  1  0  0  0  0
 34 76  1  0  0  0  0
 34 89  2  0  0  0  0
 35 70  1  0  0  0  0
 35 84  1  0  0  0  0
 35 90  2  0  0  0  0
 36 77  1  0  0  0  0
 36 78  1  0  0  0  0
 36 91  2  0  0  0  0
 37 40  1  0  0  0  0
 38 58  1  0  0  0  0
 39 76  1  0  0  0  0
 40 42  1  0  0  0  0
 41 45  1  0  0  0  0
 41 48  1  0  0  0  0
 42 56  1  0  0  0  0
 43 44  1  0  0  0  0
 43 57  1  0  0  0  0
 44 57  1  0  0  0  0
 45 59  1  0  0  0  0
 46 47  1  0  0  0  0
 46 60  1  0  0  0  0
 47 62  1  0  0  0  0
 48 77  1  0  0  0  0
 49 54  1  0  0  0  0
 49 78  1  0  0  0  0
 50 55  1  0  0  0  0
 50 78  1  0  0  0  0
 51 59  1  0  0  0  0
 51 77  1  0  0  0  0
 52 61  1  0  0  0  0
 52 79  1  0  0  0  0
 53 61  1  0  0  0  0
 53 79  1  0  0  0  0
 54 85  1  0  0  0  0
 55 85  1  0  0  0  0
 56 83  1  0  0  0  0
 58 76  1  0  0  0  0
 59 75  1  0  0  0  0
 60 62  1  0  0  0  0
 60 82  1  0  0  0  0
 61 85  1  0  0  0  0
 62 93  1  0  0  0  0
 63 70  1  0  0  0  0
 64 71  1  0  0  0  0
 65 71  1  0  0  0  0
 66 71  1  0  0  0  0
 67 86  1  0  0  0  0
 68 79  1  0  0  0  0
 69 71  1  0  0  0  0
 69 84  1  0  0  0  0
 70 86  1  0  0  0  0
 73 75  1  0  0  0  0
M  CHG  2  85   1  86   1
M  ISO  4  36 100  62 101  78 100  93 101
M  END
> <Batch ID>
0195

> <Smiles>
CNC(C)C(=O)NC(C(=O)N1Cc2cc([101O:1][101CH:1]3CCC3Nc3ncc(CN4CC(N5CC[100N:0]([100C:0](=O)N6CCCC(n7nc(-c8ccc(Oc9ccc(F)cc9F)cc8)c(C(N)=O)c7N)C6)CC5)C4)c(C4CC4)n3)ccc2CC1C(=O)NC1CCCc2ccccc21)C(C)(C)C

> <Shape>
0.271

> <Color>
0.085

> <Negative vol penalty>
0.000

$$$$

  -OEChem-04052323373D

 98109  0     1  0  0  0  0  0999 V2000
  -33.5735  -21.4846   25.9185 C   0  0  0  0  0  0  0  0  0  0  0  0
  -32.6273  -22.0038   26.7950 C   0  0  0  0  0  0  0  0  0  0  0  0
  -26.1157  -13.7134   21.8184 C   0  0  0  0  0  0  0  0  0  0  0  0
  -25.9725  -12.6600   19.6488 C   0  0  0  0  0  0  0  0  0  0  0  0
  -34.2378  -22.3319   25.0342 C   0  0  0  0  0  0  0  0  0  0  0  0
  -32.3365  -23.3684   26.7792 C   0  0  0  0  0  0  0  0  0  0  0  0
  -26.5176  -28.7356   24.4882 C   0  0  0  0  0  0  0  0  0  0  0  0
  -24.9693  -13.0309   22.2254 C   0  0  0  0  0  0  0  0  0  0  0  0
  -24.8261  -11.9774   20.0559 C   0  0  0  0  0  0  0  0  0  0  0  0
  -25.2233  -28.8610   23.9833 C   0  0  0  0  0  0  0  0  0  0  0  0
  -22.0684   -9.6823   20.6434 C   0  0  0  0  0  0  0  0  0  0  0  0
  -21.9772   -8.3250   20.3354 C   0  0  0  0  0  0  0  0  0  0  0  0
  -25.2919  -26.5709   23.2094 C   0  0  0  0  0  0  0  0  0  0  0  0
  -23.9839   -7.9004   21.6120 C   0  0  0  0  0  0  0  0  0  0  0  0
  -25.5296  -30.0591   20.5178 C   0  0  0  0  0  0  0  0  0  0  0  0
  -26.6172  -13.5280   20.5300 C   0  0  0  0  0  0  0  0  0  0  0  0
  -29.1356  -13.8020   20.2298 C   0  0  0  0  0  0  0  0  0  0  0  0
  -33.9634  -23.7094   25.0169 C   0  0  0  0  0  0  0  0  0  0  0  0
  -27.1991  -27.5212   24.3692 C   0  0  0  0  0  0  0  0  0  0  0  0
  -32.9790  -24.2361   25.8777 C   0  0  0  0  0  0  0  0  0  0  0  0
  -26.5839  -26.4356   23.7243 C   0  0  0  0  0  0  0  0  0  0  0  0
  -24.3246  -12.1629   21.3442 C   0  0  0  0  0  0  0  0  0  0  0  0
  -24.6120  -27.7814   23.3452 C   0  0  0  0  0  0  0  0  0  0  0  0
  -23.1174  -10.1488   21.4356 C   0  0  0  0  0  0  0  0  0  0  0  0
  -22.9349   -7.4340   20.8197 C   0  0  0  0  0  0  0  0  0  0  0  0
  -24.0752   -9.2578   21.9200 C   0  0  0  0  0  0  0  0  0  0  0  0
  -27.8010  -14.2332   20.1088 C   0  0  0  0  0  0  0  0  0  0  0  0
  -25.0068  -29.0409   19.7515 C   0  0  0  0  0  0  0  0  0  0  0  0
  -27.5671  -29.0209   20.5075 C   0  0  0  0  0  0  0  0  0  0  0  0
  -27.0442  -28.0022   19.7418 C   0  0  0  0  0  0  0  0  0  0  0  0
  -29.8767  -14.8219   19.6848 C   0  0  0  0  0  0  0  0  0  0  0  0
  -29.6587  -12.5881   20.7852 C   0  0  0  0  0  0  0  0  0  0  0  0
  -30.3276  -25.5731   25.0718 C   0  0  0  0  0  0  0  0  0  0  0  0
  -27.9674  -23.6764   25.5641 C   0  0  0  0  0  0  0  0  0  0  0  0
  -25.0939  -22.0404   26.4030 C   0  0  0  0  0  0  0  0  0  0  0  0
  -29.0543  -20.5149   19.1167 C   0  0  0  0  0  0  0  0  0  0  0  0
  -34.7062  -24.5795   24.0338 C   0  0  0  0  0  0  0  0  0  0  0  0
  -28.6177  -27.3595   24.8437 C   0  0  0  0  0  0  0  0  0  0  0  0
  -27.3680  -25.1590   23.5885 C   0  0  0  0  0  0  0  0  0  0  0  0
  -34.6555  -26.0606   24.3943 C   0  0  0  0  0  0  0  0  0  0  0  0
  -29.6302  -18.3183   16.4358 C   0  0  0  0  0  0  0  0  0  0  0  0
  -33.2209  -26.4763   24.6837 C   0  0  0  0  0  0  0  0  0  0  0  0
  -29.3538  -16.9643   17.0886 C   0  0  0  0  0  0  0  0  0  0  0  0
  -31.6641  -30.8003   21.5339 C   0  0  0  0  0  0  0  0  0  0  0  0
  -31.2719  -31.3646   22.8701 C   0  0  0  0  0  0  0  0  0  0  0  0
  -22.9108  -30.2434   18.6578 C   0  0  0  0  0  0  0  0  0  0  0  0
  -28.6323  -19.3866   16.8865 C   0  0  0  0  0  0  0  0  0  0  0  0
  -28.0557  -22.2104   17.5189 C   0  0  0  0  0  0  0  0  0  0  0  0
  -29.8215  -22.8688   19.1116 C   0  0  0  0  0  0  0  0  0  0  0  0
  -28.2516  -18.1742   19.0088 C   0  0  0  0  0  0  0  0  0  0  0  0
  -21.6951  -29.9161   19.5387 C   0  0  0  0  0  0  0  0  0  0  0  0
  -27.1306  -23.2818   18.0870 C   0  0  0  0  0  0  0  0  0  0  0  0
  -28.9180  -23.9296   19.7188 C   0  0  0  0  0  0  0  0  0  0  0  0
  -32.6684  -25.7218   25.8996 C   0  0  1  0  0  0  0  0  0  0  0  0
  -23.5498  -28.9821   19.2770 C   0  0  2  0  0  0  0  0  0  0  0  0
  -28.9128  -25.9534   25.3960 C   0  0  1  0  0  0  0  0  0  0  0  0
  -29.2742  -17.0955   18.6199 C   0  0  1  0  0  0  0  0  0  0  0  0
  -30.7205  -30.0411   22.4223 C   0  0  0  0  0  0  0  0  0  0  0  0
  -27.6628  -27.3751   16.7993 C   0  0  0  0  0  0  0  0  0  0  0  0
  -24.2641  -19.8410   27.2814 C   0  0  0  0  0  0  0  0  0  0  0  0
  -20.7072  -28.1617   21.5672 C   0  0  0  0  0  0  0  0  0  0  0  0
  -28.4432  -22.4093   22.8306 C   0  0  0  0  0  0  0  0  0  0  0  0
  -26.7929  -20.6303   23.4469 C   0  0  0  0  0  0  0  0  0  0  0  0
  -28.8886  -20.8984   24.7731 C   0  0  0  0  0  0  0  0  0  0  0  0
  -23.9014  -23.3133   28.7939 C   0  0  0  0  0  0  0  0  0  0  0  0
  -28.9960  -29.0195   20.9320 C   0  0  0  0  0  0  0  0  0  0  0  0
  -28.6206  -27.1113   17.9554 C   0  0  0  0  0  0  0  0  0  0  0  0
  -27.0832  -25.5292   19.1694 C   0  0  0  0  0  0  0  0  0  0  0  0
  -23.0073  -27.1261   21.7150 C   0  0  0  0  0  0  0  0  0  1  0  0
  -27.9003  -26.8269   19.2928 C   0  0  2  0  0  0  0  0  0  0  0  0
  -27.0522  -22.6218   24.9953 C   0  0  1  0  0  0  0  0  0  0  0  0
  -24.7090  -21.2502   27.6407 C   0  0  2  0  0  0  0  0  0  0  0  0
  -22.0048  -27.8628   20.8340 C   0  0  2  0  0  0  0  0  0  0  0  0
  -27.7868  -21.6674   24.0120 C   0  0  0  0  0  0  0  0  0  0  0  0
  -26.8192  -30.0675   20.9095 N   0  0  0  0  0  0  0  0  0  0  0  0
  -27.6972  -15.4335   19.5323 N   0  0  0  0  0  0  0  0  0  0  0  0
  -25.7547  -27.9940   19.3498 N   0  0  0  0  0  0  0  0  0  0  0  0
  -28.9760  -15.7654   19.2862 N   0  0  0  0  0  0  0  0  0  0  0  0
  -28.0807  -24.8713   24.8431 N   0  0  0  0  0  0  0  0  0  0  0  0
  -28.5606  -19.4467   18.3530 N   0  0  0  0  0  0  0  0  0  0  0  0
  -29.0417  -21.7841   18.5194 N   0  0  0  0  0  0  0  0  0  0  0  0
  -31.2044  -14.9948   19.5124 N   0  0  0  0  0  0  0  0  0  0  0  0
  -28.7577  -11.6473   21.3022 N   0  0  0  0  0  0  0  0  0  0  0  0
  -31.2508  -25.9846   26.0140 N   0  0  0  0  0  0  0  0  0  0  0  0
  -26.4441  -21.9494   26.1384 N   0  0  0  0  0  0  0  0  0  0  0  0
  -27.9508  -24.4113   18.6627 N   0  3  0  0  0  0  0  0  0  0  0  0
  -22.6048  -29.1497   20.4142 N   0  3  2  0  0  0  0  0  0  0  0  0
  -29.2896  -29.9876   22.0250 N   0  3  0  0  0  0  0  0  0  0  0  0
  -23.5929  -21.9263   28.3606 N   0  3  0  0  0  0  0  0  0  0  0  0
  -30.8896  -12.3521   20.8367 O   0  0  0  0  0  0  0  0  0  0  0  0
  -30.5654  -24.9507   24.0433 O   0  0  0  0  0  0  0  0  0  0  0  0
  -28.5711  -23.4475   26.6160 O   0  0  0  0  0  0  0  0  0  0  0  0
  -24.2778  -22.6719   25.7354 O   0  0  0  0  0  0  0  0  0  0  0  0
  -29.4810  -20.3447   20.2658 O   0  0  0  0  0  0  0  0  0  0  0  0
  -23.2061  -11.4965   21.7412 O   0  0  0  0  0  0  0  0  0  0  0  0
  -23.3380  -27.9102   22.8552 O   0  0  0  0  0  0  0  0  0  1  0  0
  -22.8464   -6.1303   20.5252 F   0  0  0  0  0  0  0  0  0  0  0  0
  -25.0846   -9.6999   22.6825 F   0  0  0  0  0  0  0  0  0  0  0  0
  1  2  1  0  0  0  0
  1  5  2  0  0  0  0
  2  6  2  0  0  0  0
  3  8  2  0  0  0  0
  3 16  1  0  0  0  0
  4  9  1  0  0  0  0
  4 16  2  0  0  0  0
  5 18  1  0  0  0  0
  6 20  1  0  0  0  0
  7 10  2  0  0  0  0
  7 19  1  0  0  0  0
  8 22  1  0  0  0  0
  9 22  2  0  0  0  0
 10 23  1  0  0  0  0
 11 12  2  0  0  0  0
 11 24  1  0  0  0  0
 12 25  1  0  0  0  0
 13 21  1  0  0  0  0
 13 23  2  0  0  0  0
 14 25  2  0  0  0  0
 14 26  1  0  0  0  0
 15 28  1  0  0  0  0
 15 75  2  0  0  0  0
 16 27  1  0  0  0  0
 17 27  1  0  0  0  0
 17 31  2  0  0  0  0
 17 32  1  0  0  0  0
 18 20  2  0  0  0  0
 18 37  1  0  0  0  0
 19 21  2  0  0  0  0
 19 38  1  0  0  0  0
 20 54  1  0  0  0  0
 21 39  1  0  0  0  0
 22 95  1  0  0  0  0
 23 96  1  0  0  0  0
 24 26  2  0  0  0  0
 24 95  1  0  0  0  0
 25 97  1  0  0  0  0
 26 98  1  0  0  0  0
 27 76  2  0  0  0  0
 28 55  1  0  0  0  0
 28 77  2  0  0  0  0
 29 30  2  0  0  0  0
 29 66  1  0  0  0  0
 29 75  1  0  0  0  0
 30 70  1  0  0  0  0
 30 77  1  0  0  0  0
 31 78  1  0  0  0  0
 31 82  1  0  0  0  0
 32 83  1  0  0  0  0
 32 90  2  0  0  0  0
 33 56  1  0  0  0  0
 33 84  1  0  0  0  0
 33 91  2  0  0  0  0
 34 71  1  0  0  0  0
 34 79  1  0  0  0  0
 34 92  2  0  0  0  0
 35 72  1  0  0  0  0
 35 85  1  0  0  0  0
 35 93  2  0  0  0  0
 36 80  1  0  0  0  0
 36 81  1  0  0  0  0
 36 94  2  0  0  0  0
 37 40  1  0  0  0  0
 38 56  1  0  0  0  0
 39 79  1  0  0  0  0
 40 42  1  0  0  0  0
 41 43  1  0  0  0  0
 41 47  1  0  0  0  0
 42 54  1  0  0  0  0
 43 57  1  0  0  0  0
 44 45  1  0  0  0  0
 44 58  1  0  0  0  0
 45 58  1  0  0  0  0
 46 51  1  0  0  0  0
 46 55  1  0  0  0  0
 47 80  1  0  0  0  0
 48 52  1  0  0  0  0
 48 81  1  0  0  0  0
 49 53  1  0  0  0  0
 49 81  1  0  0  0  0
 50 57  1  0  0  0  0
 50 80  1  0  0  0  0
 51 87  1  0  0  0  0
 52 86  1  0  0  0  0
 53 86  1  0  0  0  0
 54 84  1  0  0  0  0
 55 87  1  0  0  0  0
 56 79  1  0  0  0  0
 57 78  1  0  0  0  0
 58 88  1  0  0  0  0
 59 67  1  0  0  0  0
 60 72  1  0  0  0  0
 61 73  1  0  0  0  0
 62 74  1  0  0  0  0
 63 74  1  0  0  0  0
 64 74  1  0  0  0  0
 65 89  1  0  0  0  0
 66 88  1  0  0  0  0
 67 70  1  0  0  0  0
 68 70  1  0  0  0  0
 68 86  1  0  0  0  0
 69 73  1  0  0  0  0
 69 96  1  0  0  0  0
 71 74  1  0  0  0  0
 71 85  1  0  0  0  0
 72 89  1  0  0  0  0
 73 87  1  0  0  0  0
 76 78  1  0  0  0  0
M  CHG  4  86   1  87   1  88   1  89   1
M  ISO  4  36 100  69 101  81 100  96 101
M  END
> <Batch ID>
0195

> <Smiles>
CCC(CN1CC[100N:0]([100C:0](=O)N2CCCC(n3nc(-c4ccc(Oc5ccc(F)cc5F)cc4)c(C(N)=O)c3N)C2)CC1)c1nc(C2CCN2C(C)[101CH2:1][101O:1]c2ccc3c(c2)CN(C(=O)C(NC(=O)C(C)NC)C(C)(C)C)C(C(=O)NC2CCCc4ccccc42)C3)cnc1CNC1CC1

> <Shape>
0.219

> <Color>
0.065

> <Negative vol penalty>
0.000

$$$$

  -OEChem-04052323373D

 84 93  0     1  0  0  0  0  0999 V2000
  -28.8477  -36.9031   23.1419 C   0  0  0  0  0  0  0  0  0  0  0  0
  -29.0621  -35.6149   22.6622 C   0  0  0  0  0  0  0  0  0  0  0  0
  -25.3900  -10.0919   23.0820 C   0  0  0  0  0  0  0  0  0  0  0  0
  -23.2433  -10.1684   21.9761 C   0  0  0  0  0  0  0  0  0  0  0  0
  -27.8731  -37.1310   24.1124 C   0  0  0  0  0  0  0  0  0  0  0  0
  -28.3026  -34.5537   23.1536 C   0  0  0  0  0  0  0  0  0  0  0  0
  -26.6430  -31.4877   19.4807 C   0  0  0  0  0  0  0  0  0  0  0  0
  -24.9059   -9.1173   23.9545 C   0  0  0  0  0  0  0  0  0  0  0  0
  -22.7592   -9.1937   22.8486 C   0  0  0  0  0  0  0  0  0  0  0  0
  -27.5564  -30.5784   18.9491 C   0  0  0  0  0  0  0  0  0  0  0  0
  -22.9638   -5.8381   23.1930 C   0  0  0  0  0  0  0  0  0  0  0  0
  -22.2259   -4.7889   22.6451 C   0  0  0  0  0  0  0  0  0  0  0  0
  -26.6115  -28.8353   20.3232 C   0  0  0  0  0  0  0  0  0  0  0  0
  -20.3284   -5.4140   24.0037 C   0  0  0  0  0  0  0  0  0  0  0  0
  -24.5587  -10.6176   22.0929 C   0  0  0  0  0  0  0  0  0  0  0  0
  -25.6897  -11.4175   19.9508 C   0  0  0  0  0  0  0  0  0  0  0  0
  -27.0946  -36.0736   24.6090 C   0  0  0  0  0  0  0  0  0  0  0  0
  -25.7125  -31.0795   20.4471 C   0  0  0  0  0  0  0  0  0  0  0  0
  -27.3175  -34.7676   24.1327 C   0  0  0  0  0  0  0  0  0  0  0  0
  -25.6857  -29.7408   20.8635 C   0  0  0  0  0  0  0  0  0  0  0  0
  -23.5905   -8.6682   23.8378 C   0  0  0  0  0  0  0  0  0  0  0  0
  -27.5427  -29.2526   19.3725 C   0  0  0  0  0  0  0  0  0  0  0  0
  -22.3841   -6.6752   24.1464 C   0  0  0  0  0  0  0  0  0  0  0  0
  -20.9082   -4.5769   23.0504 C   0  0  0  0  0  0  0  0  0  0  0  0
  -21.0664   -6.4632   24.5517 C   0  0  0  0  0  0  0  0  0  0  0  0
  -25.0581  -11.6248   21.1916 C   0  0  0  0  0  0  0  0  0  0  0  0
  -25.9698  -12.6816   19.4926 C   0  0  0  0  0  0  0  0  0  0  0  0
  -25.9958  -10.1917   19.2728 C   0  0  0  0  0  0  0  0  0  0  0  0
  -25.1267  -31.8668   23.4704 C   0  0  0  0  0  0  0  0  0  0  0  0
  -22.5711  -29.9081   23.0771 C   0  0  0  0  0  0  0  0  0  0  0  0
  -21.1507  -27.3013   21.3936 C   0  0  0  0  0  0  0  0  0  0  0  0
  -28.1001  -17.7081   20.7126 C   0  0  0  0  0  0  0  0  0  0  0  0
  -26.0853  -36.3616   25.6920 C   0  0  0  0  0  0  0  0  0  0  0  0
  -24.7164  -32.0666   20.9910 C   0  0  0  0  0  0  0  0  0  0  0  0
  -24.6935  -29.2474   21.8837 C   0  0  0  0  0  0  0  0  0  0  0  0
  -25.0666  -35.2418   25.8886 C   0  0  0  0  0  0  0  0  0  0  0  0
  -24.4524  -17.2069   21.1575 C   0  0  0  0  0  0  0  0  0  0  0  0
  -25.7657  -33.8869   25.9388 C   0  0  0  0  0  0  0  0  0  0  0  0
  -24.3553  -15.6807   21.1435 C   0  0  0  0  0  0  0  0  0  0  0  0
  -27.4950  -20.9639   19.1173 C   0  0  0  0  0  0  0  0  0  0  0  0
  -25.7864  -17.6628   21.7341 C   0  0  0  0  0  0  0  0  0  0  0  0
  -26.8753  -19.8069   19.8948 C   0  0  0  0  0  0  0  0  0  0  0  0
  -26.8911  -15.5781   21.0194 C   0  0  0  0  0  0  0  0  0  0  0  0
  -29.2403  -19.8743   20.3206 C   0  0  0  0  0  0  0  0  0  0  0  0
  -30.8524  -22.4981   19.9882 C   0  0  0  0  0  0  0  0  0  0  0  0
  -29.3235  -23.3836   18.8734 C   0  0  0  0  0  0  0  0  0  0  0  0
  -26.4970  -33.5944   24.6231 C   0  0  1  0  0  0  0  0  0  0  0  0
  -24.1503  -31.6583   22.3475 C   0  0  1  0  0  0  0  0  0  0  0  0
  -30.7663  -23.8231   19.2012 C   0  0  0  0  0  0  0  0  0  0  0  0
  -25.5685  -15.0521   20.4341 C   0  0  1  0  0  0  0  0  0  0  0  0
  -28.7420  -21.2560   19.9383 C   0  0  1  0  0  0  0  0  0  0  0  0
  -19.0683  -25.9027   21.3228 C   0  0  0  0  0  0  0  0  0  0  0  0
  -30.4978  -28.8429   17.6991 C   0  0  0  0  0  0  0  0  0  0  0  0
  -23.5010  -28.4021   25.5625 C   0  0  0  0  0  0  0  0  0  0  0  0
  -21.9934  -26.5166   24.8990 C   0  0  0  0  0  0  0  0  0  0  0  0
  -21.0295  -28.7572   25.4217 C   0  0  0  0  0  0  0  0  0  0  0  0
  -20.5430  -28.1390   18.6208 C   0  0  0  0  0  0  0  0  0  0  0  0
  -30.9277  -25.1019   19.9952 C   0  0  0  0  0  0  0  0  0  0  0  0
  -30.4404  -27.5500   19.9057 C   0  0  0  0  0  0  0  0  0  0  0  0
  -22.3153  -28.4327   23.2692 C   0  0  1  0  0  0  0  0  0  0  0  0
  -19.7752  -27.1323   20.7739 C   0  0  2  0  0  0  0  0  0  0  0  0
  -29.8203  -28.6493   19.0494 C   0  0  2  0  0  0  0  0  0  1  0  0
  -22.2299  -28.0366   24.7703 C   0  0  0  0  0  0  0  0  0  0  0  0
  -24.9437  -12.9188   21.5021 N   0  0  0  0  0  0  0  0  0  0  0  0
  -25.5073  -13.5360   20.4498 N   0  0  0  0  0  0  0  0  0  0  0  0
  -23.7441  -30.2521   22.3905 N   0  0  0  0  0  0  0  0  0  0  0  0
  -26.9096  -17.0425   21.0258 N   0  0  0  0  0  0  0  0  0  0  0  0
  -28.0233  -19.0726   20.4369 N   0  0  0  0  0  0  0  0  0  0  0  0
  -26.5643  -13.1346   18.3684 N   0  0  0  0  0  0  0  0  0  0  0  0
  -25.6384   -8.9825   19.8847 N   0  0  0  0  0  0  0  0  0  0  0  0
  -25.5579  -33.1726   23.6059 N   0  0  0  0  0  0  0  0  0  0  0  0
  -21.1148  -28.1230   22.5003 N   0  0  0  0  0  0  0  0  0  0  0  0
  -29.7436  -21.9918   19.1493 N   0  3  0  0  0  0  0  0  0  0  0  0
  -19.8875  -26.9887   19.2948 N   0  3  0  0  0  0  0  0  0  0  0  0
  -30.3916  -26.2356   19.2070 N   0  3  0  0  0  0  0  0  0  0  0  0
  -26.5840  -10.1689   18.1651 O   0  0  0  0  0  0  0  0  0  0  0  0
  -25.4627  -30.9138   24.1636 O   0  0  0  0  0  0  0  0  0  0  0  0
  -21.7564  -30.7249   23.5137 O   0  0  0  0  0  0  0  0  0  0  0  0
  -22.1558  -26.7558   20.9432 O   0  0  0  0  0  0  0  0  0  0  0  0
  -29.1766  -17.1013   20.6346 O   0  0  0  0  0  0  0  0  0  0  0  0
  -23.1178   -7.7169   24.6888 O   0  0  0  0  0  0  0  0  0  0  0  0
  -28.4387  -28.3580   18.8528 O   0  0  0  0  0  0  0  0  0  1  0  0
  -20.1992   -3.5703   22.5230 F   0  0  0  0  0  0  0  0  0  0  0  0
  -20.5036   -7.2648   25.4663 F   0  0  0  0  0  0  0  0  0  0  0  0
  1  2  1  0  0  0  0
  1  5  2  0  0  0  0
  2  6  2  0  0  0  0
  3  8  2  0  0  0  0
  3 15  1  0  0  0  0
  4  9  1  0  0  0  0
  4 15  2  0  0  0  0
  5 17  1  0  0  0  0
  6 19  1  0  0  0  0
  7 10  2  0  0  0  0
  7 18  1  0  0  0  0
  8 21  1  0  0  0  0
  9 21  2  0  0  0  0
 10 22  1  0  0  0  0
 11 12  2  0  0  0  0
 11 23  1  0  0  0  0
 12 24  1  0  0  0  0
 13 20  1  0  0  0  0
 13 22  2  0  0  0  0
 14 24  2  0  0  0  0
 14 25  1  0  0  0  0
 15 26  1  0  0  0  0
 16 26  1  0  0  0  0
 16 27  2  0  0  0  0
 16 28  1  0  0  0  0
 17 19  2  0  0  0  0
 17 33  1  0  0  0  0
 18 20  2  0  0  0  0
 18 34  1  0  0  0  0
 19 47  1  0  0  0  0
 20 35  1  0  0  0  0
 21 81  1  0  0  0  0
 22 82  1  0  0  0  0
 23 25  2  0  0  0  0
 23 81  1  0  0  0  0
 24 83  1  0  0  0  0
 25 84  1  0  0  0  0
 26 64  2  0  0  0  0
 27 65  1  0  0  0  0
 27 69  1  0  0  0  0
 28 70  1  0  0  0  0
 28 76  2  0  0  0  0
 29 48  1  0  0  0  0
 29 71  1  0  0  0  0
 29 77  2  0  0  0  0
 30 60  1  0  0  0  0
 30 66  1  0  0  0  0
 30 78  2  0  0  0  0
 31 61  1  0  0  0  0
 31 72  1  0  0  0  0
 31 79  2  0  0  0  0
 32 67  1  0  0  0  0
 32 68  1  0  0  0  0
 32 80  2  0  0  0  0
 33 36  1  0  0  0  0
 34 48  1  0  0  0  0
 35 66  1  0  0  0  0
 36 38  1  0  0  0  0
 37 39  1  0  0  0  0
 37 41  1  0  0  0  0
 38 47  1  0  0  0  0
 39 50  1  0  0  0  0
 40 42  1  0  0  0  0
 40 51  1  0  0  0  0
 41 67  1  0  0  0  0
 42 68  1  0  0  0  0
 43 50  1  0  0  0  0
 43 67  1  0  0  0  0
 44 51  1  0  0  0  0
 44 68  1  0  0  0  0
 45 49  1  0  0  0  0
 45 73  1  0  0  0  0
 46 49  1  0  0  0  0
 46 73  1  0  0  0  0
 47 71  1  0  0  0  0
 48 66  1  0  0  0  0
 49 58  1  0  0  0  0
 50 65  1  0  0  0  0
 51 73  1  0  0  0  0
 52 61  1  0  0  0  0
 53 62  1  0  0  0  0
 54 63  1  0  0  0  0
 55 63  1  0  0  0  0
 56 63  1  0  0  0  0
 57 74  1  0  0  0  0
 58 75  1  0  0  0  0
 59 62  1  0  0  0  0
 59 75  1  0  0  0  0
 60 63  1  0  0  0  0
 60 72  1  0  0  0  0
 61 74  1  0  0  0  0
 62 82  1  0  0  0  0
 64 65  1  0  0  0  0
M  CHG  3  73   1  74   1  75   1
M  ISO  4  32 100  62 101  68 100  82 101
M  END
> <Batch ID>
0195

> <Smiles>
CNC(C)C(=O)NC(C(=O)N1Cc2cc([101O:1][101CH:1](C)CNCC3CN(C4CC[100N:0]([100C:0](=O)N5CCCC(n6nc(-c7ccc(Oc8ccc(F)cc8F)cc7)c(C(N)=O)c6N)C5)C4)C3)ccc2CC1C(=O)NC1CCCc2ccccc21)C(C)(C)C

> <Shape>
0.325

> <Color>
0.058

> <Negative vol penalty>
0.000

$$$$

  -OEChem-04052323373D

 90100  0     1  0  0  0  0  0999 V2000
  -18.1551  -27.2430   25.7971 C   0  0  0  0  0  0  0  0  0  0  0  0
  -19.5296  -27.2866   26.0077 C   0  0  0  0  0  0  0  0  0  0  0  0
  -22.4078  -11.3965   19.6508 C   0  0  0  0  0  0  0  0  0  0  0  0
  -23.0129  -10.2638   21.6973 C   0  0  0  0  0  0  0  0  0  0  0  0
  -17.6504  -27.2261   24.4975 C   0  0  0  0  0  0  0  0  0  0  0  0
  -20.4002  -27.3122   24.9188 C   0  0  0  0  0  0  0  0  0  0  0  0
  -26.7482  -29.9530   22.9073 C   0  0  0  0  0  0  0  0  0  0  0  0
  -21.3023  -10.5572   19.5131 C   0  0  0  0  0  0  0  0  0  0  0  0
  -21.9074   -9.4245   21.5596 C   0  0  0  0  0  0  0  0  0  0  0  0
  -27.9611  -29.5403   22.3575 C   0  0  0  0  0  0  0  0  0  0  0  0
  -21.0671   -6.6856   19.7642 C   0  0  0  0  0  0  0  0  0  0  0  0
  -21.2582   -5.3212   19.9821 C   0  0  0  0  0  0  0  0  0  0  0  0
  -26.9731  -29.5877   20.1574 C   0  0  0  0  0  0  0  0  0  0  0  0
  -19.6399   -5.3810   21.7750 C   0  0  0  0  0  0  0  0  0  0  0  0
  -31.8536  -22.5512   19.4235 C   0  0  0  0  0  0  0  0  0  0  0  0
  -23.2631  -11.2498   20.7429 C   0  0  0  0  0  0  0  0  0  0  0  0
  -24.4560  -13.3533   21.5554 C   0  0  0  0  0  0  0  0  0  0  0  0
  -18.5150  -27.2613   23.3921 C   0  0  0  0  0  0  0  0  0  0  0  0
  -25.6337  -30.1760   22.0860 C   0  0  0  0  0  0  0  0  0  0  0  0
  -19.9066  -27.2944   23.6032 C   0  0  0  0  0  0  0  0  0  0  0  0
  -25.7479  -30.0056   20.6989 C   0  0  0  0  0  0  0  0  0  0  0  0
  -30.7544  -22.8983   20.1821 C   0  0  0  0  0  0  0  0  0  0  0  0
  -21.0521   -9.5712   20.4675 C   0  0  0  0  0  0  0  0  0  0  0  0
  -28.0729  -29.3548   20.9827 C   0  0  0  0  0  0  0  0  0  0  0  0
  -20.1625   -7.3977   20.5517 C   0  0  0  0  0  0  0  0  0  0  0  0
  -20.5446   -4.6689   20.9875 C   0  0  0  0  0  0  0  0  0  0  0  0
  -19.4488   -6.7454   21.5571 C   0  0  0  0  0  0  0  0  0  0  0  0
  -24.4056  -12.1162   20.8854 C   0  0  0  0  0  0  0  0  0  0  0  0
  -29.8274  -21.8961   20.3835 C   0  0  0  0  0  0  0  0  0  0  0  0
  -25.7551  -13.7728   21.4045 C   0  0  0  0  0  0  0  0  0  0  0  0
  -31.0691  -20.4335   19.1645 C   0  0  0  0  0  0  0  0  0  0  0  0
  -23.4211  -14.0599   22.2520 C   0  0  0  0  0  0  0  0  0  0  0  0
  -22.7333  -28.8980   21.8449 C   0  0  0  0  0  0  0  0  0  0  0  0
  -22.2863  -31.2840   19.6933 C   0  0  0  0  0  0  0  0  0  0  0  0
  -23.6676  -33.5010   17.4970 C   0  0  0  0  0  0  0  0  0  0  0  0
  -30.1073  -14.5181   17.8859 C   0  0  0  0  0  0  0  0  0  0  0  0
  -17.9243  -27.1936   22.0060 C   0  0  0  0  0  0  0  0  0  0  0  0
  -24.3399  -30.6467   22.6916 C   0  0  0  0  0  0  0  0  0  0  0  0
  -24.5869  -30.2513   19.7715 C   0  0  0  0  0  0  0  0  0  0  0  0
  -18.9018  -27.6014   20.9067 C   0  0  0  0  0  0  0  0  0  0  0  0
  -29.8400  -11.3340   19.6921 C   0  0  0  0  0  0  0  0  0  0  0  0
  -20.2526  -26.9242   21.1154 C   0  0  0  0  0  0  0  0  0  0  0  0
  -28.3891  -11.3394   20.1754 C   0  0  0  0  0  0  0  0  0  0  0  0
  -30.4911  -17.3793   20.1625 C   0  0  0  0  0  0  0  0  0  0  0  0
  -30.0097  -12.1030   18.3839 C   0  0  0  0  0  0  0  0  0  0  0  0
  -29.7999  -16.0407   19.9250 C   0  0  0  0  0  0  0  0  0  0  0  0
  -28.0286  -13.4786   18.8896 C   0  0  0  0  0  0  0  0  0  0  0  0
  -30.4963  -16.9647   17.8212 C   0  0  0  0  0  0  0  0  0  0  0  0
  -29.4967  -25.2324   20.1601 C   0  0  0  0  0  0  0  0  0  0  0  0
  -31.5664  -25.4208   20.2715 C   0  0  0  0  0  0  0  0  0  0  0  0
  -30.5936  -24.3233   20.7582 C   0  0  0  0  0  0  0  0  0  0  0  0
  -20.8824  -27.3483   22.4477 C   0  0  1  0  0  0  0  0  0  0  0  0
  -23.1267  -30.3479   21.8162 C   0  0  1  0  0  0  0  0  0  0  0  0
  -27.8302  -12.7732   20.2383 C   0  0  1  0  0  0  0  0  0  0  0  0
  -30.2903  -18.0872   18.8271 C   0  0  2  0  0  0  0  0  0  0  0  0
  -27.3621  -22.3479   20.3150 C   0  0  0  0  0  0  0  0  0  0  0  0
  -23.0460  -35.2954   15.8565 C   0  0  0  0  0  0  0  0  0  0  0  0
  -21.3976  -29.1511   17.7006 C   0  0  0  0  0  0  0  0  0  0  0  0
  -21.7085  -30.8309   15.8703 C   0  0  0  0  0  0  0  0  0  0  0  0
  -20.0291  -31.2442   17.6679 C   0  0  0  0  0  0  0  0  0  0  0  0
  -25.1769  -35.5574   18.9977 C   0  0  0  0  0  0  0  0  0  0  0  0
  -28.5986  -22.1596   21.1892 C   0  0  0  0  0  0  0  0  0  0  0  0
  -30.4112  -27.2717   19.1616 C   0  0  0  0  0  0  0  0  0  0  0  0
  -29.1948  -28.1719   19.2512 C   0  0  0  0  0  0  0  0  0  1  0  0
  -22.4923  -31.4343   18.2053 C   0  0  1  0  0  0  0  0  0  0  0  0
  -23.4432  -34.9883   17.2920 C   0  0  2  0  0  0  0  0  0  0  0  0
  -21.4284  -30.6585   17.3784 C   0  0  0  0  0  0  0  0  0  0  0  0
  -32.0438  -21.3235   18.8972 N   0  0  0  0  0  0  0  0  0  0  0  0
  -25.5793  -11.7723   20.3486 N   0  0  0  0  0  0  0  0  0  0  0  0
  -29.9533  -20.6477   19.8874 N   0  0  0  0  0  0  0  0  0  0  0  0
  -26.3795  -12.7996   20.6811 N   0  0  0  0  0  0  0  0  0  0  0  0
  -23.3412  -30.7044   20.4122 N   0  0  0  0  0  0  0  0  0  0  0  0
  -29.4387  -13.4461   18.4870 N   0  0  0  0  0  0  0  0  0  0  0  0
  -30.0137  -15.7654   18.5019 N   0  0  0  0  0  0  0  0  0  0  0  0
  -26.4129  -14.8756   21.8212 N   0  0  0  0  0  0  0  0  0  0  0  0
  -22.1437  -13.4863   22.3114 N   0  0  0  0  0  0  0  0  0  0  0  0
  -31.2319  -19.1590   18.6385 N   0  0  0  0  0  0  0  0  0  0  0  0
  -21.4616  -28.6697   22.3350 N   0  0  0  0  0  0  0  0  0  0  0  0
  -22.5254  -32.8686   17.9406 N   0  0  0  0  0  0  0  0  0  0  0  0
  -30.4314  -26.3610   20.3267 N   0  3  0  0  0  0  0  0  0  0  0  0
  -24.6856  -35.7480   17.6087 N   0  3  0  0  0  0  0  0  0  0  0  0
  -23.6190  -15.1750   22.7914 O   0  0  0  0  0  0  0  0  0  0  0  0
  -23.5243  -28.0494   21.4502 O   0  0  0  0  0  0  0  0  0  0  0  0
  -21.2312  -31.6734   20.2001 O   0  0  0  0  0  0  0  0  0  0  0  0
  -24.7469  -32.9542   17.2812 O   0  0  0  0  0  0  0  0  0  0  0  0
  -30.7966  -14.3591   16.8697 O   0  0  0  0  0  0  0  0  0  0  0  0
  -19.9733   -8.7521   20.3335 O   0  0  0  0  0  0  0  0  0  0  0  0
  -29.2640  -28.9484   20.4397 O   0  0  0  0  0  0  0  0  0  1  0  0
  -20.7270   -3.3584   21.1957 F   0  0  0  0  0  0  0  0  0  0  0  0
  -18.5775   -7.4240   22.3161 F   0  0  0  0  0  0  0  0  0  0  0  0
  1  2  1  0  0  0  0
  1  5  2  0  0  0  0
  2  6  2  0  0  0  0
  3  8  2  0  0  0  0
  3 16  1  0  0  0  0
  4  9  1  0  0  0  0
  4 16  2  0  0  0  0
  5 18  1  0  0  0  0
  6 20  1  0  0  0  0
  7 10  2  0  0  0  0
  7 19  1  0  0  0  0
  8 23  1  0  0  0  0
  9 23  2  0  0  0  0
 10 24  1  0  0  0  0
 11 12  2  0  0  0  0
 11 25  1  0  0  0  0
 12 26  1  0  0  0  0
 13 21  1  0  0  0  0
 13 24  2  0  0  0  0
 14 26  2  0  0  0  0
 14 27  1  0  0  0  0
 15 22  1  0  0  0  0
 15 68  2  0  0  0  0
 16 28  1  0  0  0  0
 17 28  1  0  0  0  0
 17 30  2  0  0  0  0
 17 32  1  0  0  0  0
 18 20  2  0  0  0  0
 18 37  1  0  0  0  0
 19 21  2  0  0  0  0
 19 38  1  0  0  0  0
 20 52  1  0  0  0  0
 21 39  1  0  0  0  0
 22 29  2  0  0  0  0
 22 51  1  0  0  0  0
 23 87  1  0  0  0  0
 24 88  1  0  0  0  0
 25 27  2  0  0  0  0
 25 87  1  0  0  0  0
 26 89  1  0  0  0  0
 27 90  1  0  0  0  0
 28 69  2  0  0  0  0
 29 62  1  0  0  0  0
 29 70  1  0  0  0  0
 30 71  1  0  0  0  0
 30 75  1  0  0  0  0
 31 68  1  0  0  0  0
 31 70  2  0  0  0  0
 31 77  1  0  0  0  0
 32 76  1  0  0  0  0
 32 82  2  0  0  0  0
 33 53  1  0  0  0  0
 33 78  1  0  0  0  0
 33 83  2  0  0  0  0
 34 65  1  0  0  0  0
 34 72  1  0  0  0  0
 34 84  2  0  0  0  0
 35 66  1  0  0  0  0
 35 79  1  0  0  0  0
 35 85  2  0  0  0  0
 36 73  1  0  0  0  0
 36 74  1  0  0  0  0
 36 86  2  0  0  0  0
 37 40  1  0  0  0  0
 38 53  1  0  0  0  0
 39 72  1  0  0  0  0
 40 42  1  0  0  0  0
 41 43  1  0  0  0  0
 41 45  1  0  0  0  0
 42 52  1  0  0  0  0
 43 54  1  0  0  0  0
 44 46  1  0  0  0  0
 44 55  1  0  0  0  0
 45 73  1  0  0  0  0
 46 74  1  0  0  0  0
 47 54  1  0  0  0  0
 47 73  1  0  0  0  0
 48 55  1  0  0  0  0
 48 74  1  0  0  0  0
 49 51  1  0  0  0  0
 49 80  1  0  0  0  0
 50 51  1  0  0  0  0
 50 80  1  0  0  0  0
 52 78  1  0  0  0  0
 53 72  1  0  0  0  0
 54 71  1  0  0  0  0
 55 77  1  0  0  0  0
 56 62  1  0  0  0  0
 57 66  1  0  0  0  0
 58 67  1  0  0  0  0
 59 67  1  0  0  0  0
 60 67  1  0  0  0  0
 61 81  1  0  0  0  0
 63 64  1  0  0  0  0
 63 80  1  0  0  0  0
 64 88  1  0  0  0  0
 65 67  1  0  0  0  0
 65 79  1  0  0  0  0
 66 81  1  0  0  0  0
 69 71  1  0  0  0  0
M  CHG  2  80   1  81   1
M  ISO  4  36 100  64 101  74 100  88 101
M  END
> <Batch ID>
0195

> <Smiles>
CCc1nc(NC2CC[100N:0]([100C:0](=O)N3CCCC(n4nc(-c5ccc(Oc6ccc(F)cc6F)cc5)c(C(N)=O)c4N)C3)C2)ncc1C1CN(C[101CH2:1][101O:1]c2ccc3c(c2)CN(C(=O)C(NC(=O)C(C)NC)C(C)(C)C)C(C(=O)NC2CCCc4ccccc42)C3)C1

> <Shape>
0.296

> <Color>
0.113

> <Negative vol penalty>
0.000

$$$$

  -OEChem-04052323373D

 86 96  0     1  0  0  0  0  0999 V2000
  -20.0738  -21.8075   17.1385 C   0  0  0  0  0  0  0  0  0  0  0  0
  -20.7321  -20.6673   16.6890 C   0  0  0  0  0  0  0  0  0  0  0  0
  -25.6438  -28.5478   20.4812 C   0  0  0  0  0  0  0  0  0  0  0  0
  -26.7911  -28.1651   22.5727 C   0  0  0  0  0  0  0  0  0  0  0  0
  -20.2006  -22.2054   18.4687 C   0  0  0  0  0  0  0  0  0  0  0  0
  -21.5184  -19.9248   17.5693 C   0  0  0  0  0  0  0  0  0  0  0  0
  -23.5554  -13.1897   18.9127 C   0  0  0  0  0  0  0  0  0  0  0  0
  -24.4611  -28.8003   21.1762 C   0  0  0  0  0  0  0  0  0  0  0  0
  -25.6084  -28.4176   23.2677 C   0  0  0  0  0  0  0  0  0  0  0  0
  -24.7092  -12.4327   19.1113 C   0  0  0  0  0  0  0  0  0  0  0  0
  -22.0334  -27.0050   22.6952 C   0  0  0  0  0  0  0  0  0  0  0  0
  -20.8640  -26.4117   22.2198 C   0  0  0  0  0  0  0  0  0  0  0  0
  -24.7912  -13.1708   21.4064 C   0  0  0  0  0  0  0  0  0  0  0  0
  -19.8827  -28.5971   21.9065 C   0  0  0  0  0  0  0  0  0  0  0  0
  -31.0208  -16.5568   21.5739 C   0  0  0  0  0  0  0  0  0  0  0  0
  -32.3812  -15.9310   19.7811 C   0  0  0  0  0  0  0  0  0  0  0  0
  -26.8088  -28.2301   21.1795 C   0  0  0  0  0  0  0  0  0  0  0  0
  -29.0164  -28.9035   20.0928 C   0  0  0  0  0  0  0  0  0  0  0  0
  -20.9811  -21.4620   19.3682 C   0  0  0  0  0  0  0  0  0  0  0  0
  -23.0161  -13.9529   19.9583 C   0  0  0  0  0  0  0  0  0  0  0  0
  -21.6568  -20.3139   18.9125 C   0  0  0  0  0  0  0  0  0  0  0  0
  -23.6290  -13.9346   21.2193 C   0  0  0  0  0  0  0  0  0  0  0  0
  -31.9462  -16.9346   20.6224 C   0  0  0  0  0  0  0  0  0  0  0  0
  -24.4433  -28.7352   22.5694 C   0  0  0  0  0  0  0  0  0  0  0  0
  -25.3290  -12.4255   20.3575 C   0  0  0  0  0  0  0  0  0  0  0  0
  -22.1275  -28.3943   22.7764 C   0  0  0  0  0  0  0  0  0  0  0  0
  -19.7886  -27.2078   21.8254 C   0  0  0  0  0  0  0  0  0  0  0  0
  -21.0521  -29.1904   22.3820 C   0  0  0  0  0  0  0  0  0  0  0  0
  -28.0308  -27.9686   20.4621 C   0  0  0  0  0  0  0  0  0  0  0  0
  -29.9664  -28.1596   19.4365 C   0  0  0  0  0  0  0  0  0  0  0  0
  -31.0504  -14.4113   20.8234 C   0  0  0  0  0  0  0  0  0  0  0  0
  -29.0686  -30.3178   20.3224 C   0  0  0  0  0  0  0  0  0  0  0  0
  -22.4901  -17.0514   20.4338 C   0  0  0  0  0  0  0  0  0  0  0  0
  -21.0325  -15.9917   23.1310 C   0  0  0  0  0  0  0  0  0  0  0  0
  -20.7250  -13.5415   25.4866 C   0  0  0  0  0  0  0  0  0  0  0  0
  -31.2944  -22.3624   19.9147 C   0  0  0  0  0  0  0  0  0  0  0  0
  -21.1261  -21.9579   20.7851 C   0  0  0  0  0  0  0  0  0  0  0  0
  -21.7558  -14.7430   19.7353 C   0  0  0  0  0  0  0  0  0  0  0  0
  -23.0784  -14.7206   22.3801 C   0  0  0  0  0  0  0  0  0  0  0  0
  -21.6765  -20.9063   21.7451 C   0  0  0  0  0  0  0  0  0  0  0  0
  -30.4971  -24.2156   16.8150 C   0  0  0  0  0  0  0  0  0  0  0  0
  -22.8840  -20.2040   21.1323 C   0  0  0  0  0  0  0  0  0  0  0  0
  -29.8055  -25.4506   17.3837 C   0  0  0  0  0  0  0  0  0  0  0  0
  -30.2345  -22.9689   17.6590 C   0  0  0  0  0  0  0  0  0  0  0  0
  -29.8885  -24.3821   19.6685 C   0  0  0  0  0  0  0  0  0  0  0  0
  -32.8483  -18.8992   19.3349 C   0  0  0  0  0  0  0  0  0  0  0  0
  -31.8279  -19.4016   21.1029 C   0  0  0  0  0  0  0  0  0  0  0  0
  -28.9280  -11.3503   20.1407 C   0  0  0  0  0  0  0  0  0  0  0  0
  -28.2965  -13.3386   20.0400 C   0  0  0  0  0  0  0  0  0  0  0  0
  -22.4989  -19.4684   19.8431 C   0  0  1  0  0  0  0  0  0  0  0  0
  -21.5852  -15.8886   20.7282 C   0  0  1  0  0  0  0  0  0  0  0  0
  -30.1862  -25.6525   18.8579 C   0  0  2  0  0  0  0  0  0  0  0  0
  -32.6070  -20.2260   20.0684 C   0  0  0  0  0  0  0  0  0  0  0  0
  -27.5944  -12.0035   19.7367 C   0  0  0  0  0  0  0  0  0  1  0  0
  -19.4786  -12.9764   27.5900 C   0  0  0  0  0  0  0  0  0  0  0  0
  -22.8056  -17.9190   24.6966 C   0  0  0  0  0  0  0  0  0  0  0  0
  -22.2183  -16.6584   26.7784 C   0  0  0  0  0  0  0  0  0  0  0  0
  -20.4321  -17.8164   25.4780 C   0  0  0  0  0  0  0  0  0  0  0  0
  -19.5007  -11.1449   24.2552 C   0  0  0  0  0  0  0  0  0  0  0  0
  -30.5485  -13.0020   20.9365 C   0  0  0  0  0  0  0  0  0  0  0  0
  -21.4763  -15.7108   24.5463 C   0  0  1  0  0  0  0  0  0  0  0  0
  -19.5044  -12.8566   26.0742 C   0  0  2  0  0  0  0  0  0  0  0  0
  -21.7448  -17.0128   25.3526 C   0  0  0  0  0  0  0  0  0  0  0  0
  -30.5494  -15.2993   21.7032 N   0  0  0  0  0  0  0  0  0  0  0  0
  -31.9530  -14.6537   19.8538 N   0  0  0  0  0  0  0  0  0  0  0  0
  -28.3271  -26.7258   20.0727 N   0  0  0  0  0  0  0  0  0  0  0  0
  -29.5097  -26.8746   19.4518 N   0  0  0  0  0  0  0  0  0  0  0  0
  -32.4139  -18.2481   20.5191 N   0  0  0  0  0  0  0  0  0  0  0  0
  -21.8478  -15.4824   22.1103 N   0  0  0  0  0  0  0  0  0  0  0  0
  -30.5328  -23.2009   19.0813 N   0  0  0  0  0  0  0  0  0  0  0  0
  -31.1395  -28.4860   18.8536 N   0  0  0  0  0  0  0  0  0  0  0  0
  -28.0093  -30.9220   21.0132 N   0  0  0  0  0  0  0  0  0  0  0  0
  -21.8214  -18.2275   20.1524 N   0  0  0  0  0  0  0  0  0  0  0  0
  -20.4565  -14.8461   25.1299 N   0  0  0  0  0  0  0  0  0  0  0  0
  -31.7961  -21.2086   19.3205 N   0  0  0  0  0  0  0  0  0  0  0  0
  -29.5857  -12.6424   19.8725 N   0  3  0  0  0  0  0  0  0  0  0  0
  -19.5000  -11.4098   25.7170 N   0  3  0  0  0  0  0  0  0  0  0  0
  -30.0183  -31.0273   19.9125 O   0  0  0  0  0  0  0  0  0  0  0  0
  -23.7050  -16.8936   20.4615 O   0  0  0  0  0  0  0  0  0  0  0  0
  -19.9965  -16.6330   22.9381 O   0  0  0  0  0  0  0  0  0  0  0  0
  -21.8094  -12.9769   25.3603 O   0  0  0  0  0  0  0  0  0  0  0  0
  -31.5096  -22.6140   21.1053 O   0  0  0  0  0  0  0  0  0  0  0  0
  -23.2895  -28.9818   23.2479 O   0  0  0  0  0  0  0  0  0  0  0  0
  -26.4557  -11.6880   20.5538 O   0  0  0  0  0  0  0  0  0  1  0  0
  -18.6662  -26.6380   21.3674 F   0  0  0  0  0  0  0  0  0  0  0  0
  -21.1371  -30.5257   22.4566 F   0  0  0  0  0  0  0  0  0  0  0  0
  1  2  1  0  0  0  0
  1  5  2  0  0  0  0
  2  6  2  0  0  0  0
  3  8  2  0  0  0  0
  3 17  1  0  0  0  0
  4  9  1  0  0  0  0
  4 17  2  0  0  0  0
  5 19  1  0  0  0  0
  6 21  1  0  0  0  0
  7 10  2  0  0  0  0
  7 20  1  0  0  0  0
  8 24  1  0  0  0  0
  9 24  2  0  0  0  0
 10 25  1  0  0  0  0
 11 12  2  0  0  0  0
 11 26  1  0  0  0  0
 12 27  1  0  0  0  0
 13 22  1  0  0  0  0
 13 25  2  0  0  0  0
 14 27  2  0  0  0  0
 14 28  1  0  0  0  0
 15 23  1  0  0  0  0
 15 64  2  0  0  0  0
 16 23  2  0  0  0  0
 16 65  1  0  0  0  0
 17 29  1  0  0  0  0
 18 29  1  0  0  0  0
 18 30  2  0  0  0  0
 18 32  1  0  0  0  0
 19 21  2  0  0  0  0
 19 37  1  0  0  0  0
 20 22  2  0  0  0  0
 20 38  1  0  0  0  0
 21 50  1  0  0  0  0
 22 39  1  0  0  0  0
 23 68  1  0  0  0  0
 24 83  1  0  0  0  0
 25 84  1  0  0  0  0
 26 28  2  0  0  0  0
 26 83  1  0  0  0  0
 27 85  1  0  0  0  0
 28 86  1  0  0  0  0
 29 66  2  0  0  0  0
 30 67  1  0  0  0  0
 30 71  1  0  0  0  0
 31 60  1  0  0  0  0
 31 64  1  0  0  0  0
 31 65  2  0  0  0  0
 32 72  1  0  0  0  0
 32 78  2  0  0  0  0
 33 51  1  0  0  0  0
 33 73  1  0  0  0  0
 33 79  2  0  0  0  0
 34 61  1  0  0  0  0
 34 69  1  0  0  0  0
 34 80  2  0  0  0  0
 35 62  1  0  0  0  0
 35 74  1  0  0  0  0
 35 81  2  0  0  0  0
 36 70  1  0  0  0  0
 36 75  1  0  0  0  0
 36 82  2  0  0  0  0
 37 40  1  0  0  0  0
 38 51  1  0  0  0  0
 39 69  1  0  0  0  0
 40 42  1  0  0  0  0
 41 43  1  0  0  0  0
 41 44  1  0  0  0  0
 42 50  1  0  0  0  0
 43 52  1  0  0  0  0
 44 70  1  0  0  0  0
 45 52  1  0  0  0  0
 45 70  1  0  0  0  0
 46 53  1  0  0  0  0
 46 68  1  0  0  0  0
 47 53  1  0  0  0  0
 47 68  1  0  0  0  0
 48 54  1  0  0  0  0
 48 76  1  0  0  0  0
 49 54  1  0  0  0  0
 49 76  1  0  0  0  0
 50 73  1  0  0  0  0
 51 69  1  0  0  0  0
 52 67  1  0  0  0  0
 53 75  1  0  0  0  0
 54 84  1  0  0  0  0
 55 62  1  0  0  0  0
 56 63  1  0  0  0  0
 57 63  1  0  0  0  0
 58 63  1  0  0  0  0
 59 77  1  0  0  0  0
 60 76  1  0  0  0  0
 61 63  1  0  0  0  0
 61 74  1  0  0  0  0
 62 77  1  0  0  0  0
 66 67  1  0  0  0  0
M  CHG  2  76   1  77   1
M  ISO  4  36 100  54 101  75 100  84 101
M  END
> <Batch ID>
0195

> <Smiles>
CNC(C)C(=O)NC(C(=O)N1Cc2cc([101O:1][101CH:1]3CN(Cc4ncc(N5CC([100NH:0][100C:0](=O)N6CCCC(n7nc(-c8ccc(Oc9ccc(F)cc9F)cc8)c(C(N)=O)c7N)C6)C5)cn4)C3)ccc2CC1C(=O)NC1CCCc2ccccc21)C(C)(C)C

> <Shape>
0.219

> <Color>
0.082

> <Negative vol penalty>
0.000

$$$$

  -OEChem-04052323373D

 82 91  0     1  0  0  0  0  0999 V2000
  -17.5245  -32.2709   23.3050 C   0  0  0  0  0  0  0  0  0  0  0  0
  -18.3461  -31.9784   22.2223 C   0  0  0  0  0  0  0  0  0  0  0  0
  -24.6464  -14.1636   19.4540 C   0  0  0  0  0  0  0  0  0  0  0  0
  -23.7266  -15.4852   21.2553 C   0  0  0  0  0  0  0  0  0  0  0  0
  -17.8397  -31.7750   24.5683 C   0  0  0  0  0  0  0  0  0  0  0  0
  -19.4766  -31.1801   22.4001 C   0  0  0  0  0  0  0  0  0  0  0  0
  -25.3871  -28.6442   19.2308 C   0  0  0  0  0  0  0  0  0  0  0  0
  -23.7725  -13.1236   19.7709 C   0  0  0  0  0  0  0  0  0  0  0  0
  -22.8527  -14.4452   21.5721 C   0  0  0  0  0  0  0  0  0  0  0  0
  -26.7785  -28.5880   19.2988 C   0  0  0  0  0  0  0  0  0  0  0  0
  -23.5666  -10.6581   22.0737 C   0  0  0  0  0  0  0  0  0  0  0  0
  -24.0881   -9.3652   22.1177 C   0  0  0  0  0  0  0  0  0  0  0  0
  -26.6204  -26.9102   21.0248 C   0  0  0  0  0  0  0  0  0  0  0  0
  -22.5540   -8.6872   20.3787 C   0  0  0  0  0  0  0  0  0  0  0  0
  -24.6235  -15.3444   20.1963 C   0  0  0  0  0  0  0  0  0  0  0  0
  -25.2962  -17.4801   18.9740 C   0  0  0  0  0  0  0  0  0  0  0  0
  -18.9816  -30.9807   24.7632 C   0  0  0  0  0  0  0  0  0  0  0  0
  -24.6005  -27.8404   20.0684 C   0  0  0  0  0  0  0  0  0  0  0  0
  -19.7985  -30.6503   23.6628 C   0  0  0  0  0  0  0  0  0  0  0  0
  -25.2193  -26.9562   20.9637 C   0  0  0  0  0  0  0  0  0  0  0  0
  -22.8757  -13.2644   20.8299 C   0  0  0  0  0  0  0  0  0  0  0  0
  -27.3954  -27.7230   20.1978 C   0  0  0  0  0  0  0  0  0  0  0  0
  -22.5388  -10.9656   21.1822 C   0  0  0  0  0  0  0  0  0  0  0  0
  -23.5818   -8.3797   21.2703 C   0  0  0  0  0  0  0  0  0  0  0  0
  -22.0325   -9.9802   20.3347 C   0  0  0  0  0  0  0  0  0  0  0  0
  -25.5263  -16.4189   19.8699 C   0  0  0  0  0  0  0  0  0  0  0  0
  -26.4501  -18.2236   19.0188 C   0  0  0  0  0  0  0  0  0  0  0  0
  -24.1424  -17.7680   18.1730 C   0  0  0  0  0  0  0  0  0  0  0  0
  -22.4577  -28.4000   22.3486 C   0  0  0  0  0  0  0  0  0  0  0  0
  -22.0853  -25.1792   22.2477 C   0  0  0  0  0  0  0  0  0  0  0  0
  -23.4141  -22.1317   21.4769 C   0  0  0  0  0  0  0  0  0  0  0  0
  -30.5621  -20.6207   21.8933 C   0  0  0  0  0  0  0  0  0  0  0  0
  -19.2713  -30.4638   26.1504 C   0  0  0  0  0  0  0  0  0  0  0  0
  -23.1010  -27.8934   19.9641 C   0  0  0  0  0  0  0  0  0  0  0  0
  -24.4201  -26.0575   21.8705 C   0  0  0  0  0  0  0  0  0  0  0  0
  -20.7151  -30.0039   26.3240 C   0  0  0  0  0  0  0  0  0  0  0  0
  -30.9516  -17.2225   21.0593 C   0  0  0  0  0  0  0  0  0  0  0  0
  -21.1055  -29.0752   25.1839 C   0  0  0  0  0  0  0  0  0  0  0  0
  -29.5561  -16.7809   20.6253 C   0  0  0  0  0  0  0  0  0  0  0  0
  -30.9520  -27.0117   19.2020 C   0  0  0  0  0  0  0  0  0  0  0  0
  -29.2645  -25.8137   18.6186 C   0  0  0  0  0  0  0  0  0  0  0  0
  -29.1802  -23.9066   22.9318 C   0  0  0  0  0  0  0  0  0  0  0  0
  -30.8730  -18.1911   22.2321 C   0  0  0  0  0  0  0  0  0  0  0  0
  -28.6477  -18.9962   21.4949 C   0  0  0  0  0  0  0  0  0  0  0  0
  -28.6269  -21.6113   23.2254 C   0  0  0  0  0  0  0  0  0  0  0  0
  -21.0501  -29.8094   23.8382 C   0  0  1  0  0  0  0  0  0  0  0  0
  -22.3966  -27.4036   21.2256 C   0  0  1  0  0  0  0  0  0  0  0  0
  -28.6705  -17.9991   20.3181 C   0  0  2  0  0  0  0  0  0  0  0  0
  -30.6470  -25.5018   19.2222 C   0  0  0  0  0  0  0  0  0  0  0  0
  -28.7415  -22.9142   23.9974 C   0  0  2  0  0  0  0  0  0  0  0  0
  -29.4392  -27.2841   19.0574 C   0  0  0  0  0  0  0  0  0  1  0  0
  -30.1783  -23.0810   22.1086 C   0  0  2  0  0  0  0  0  0  0  0  0
  -23.4990  -19.6465   21.1398 C   0  0  0  0  0  0  0  0  0  0  0  0
  -22.5825  -25.1529   25.2580 C   0  0  0  0  0  0  0  0  0  0  0  0
  -22.9866  -22.6872   25.0994 C   0  0  0  0  0  0  0  0  0  0  0  0
  -20.7575  -23.6258   24.4887 C   0  0  0  0  0  0  0  0  0  0  0  0
  -22.4682  -22.3617   18.6820 C   0  0  0  0  0  0  0  0  0  0  0  0
  -30.2093  -23.5169   20.6496 C   0  0  0  0  0  0  0  0  0  0  0  0
  -22.7265  -24.0063   22.9492 C   0  0  1  0  0  0  0  0  0  0  0  0
  -22.8481  -20.9514   20.7082 C   0  0  2  0  0  0  0  0  0  0  0  0
  -22.2786  -23.8863   24.4332 C   0  0  0  0  0  0  0  0  0  0  0  0
  -26.7318  -16.4791   20.4418 N   0  0  0  0  0  0  0  0  0  0  0  0
  -27.2695  -17.5872   19.9040 N   0  0  0  0  0  0  0  0  0  0  0  0
  -22.9570  -26.1505   21.7355 N   0  0  0  0  0  0  0  0  0  0  0  0
  -30.0097  -19.3340   21.9305 N   0  0  0  0  0  0  0  0  0  0  0  0
  -29.7419  -21.6858   22.2745 N   0  0  0  0  0  0  0  0  0  0  0  0
  -26.8337  -19.3532   18.3868 N   0  0  0  0  0  0  0  0  0  0  0  0
  -23.0440  -16.9007   18.2474 N   0  0  0  0  0  0  0  0  0  0  0  0
  -21.2209  -28.8498   22.7696 N   0  0  0  0  0  0  0  0  0  0  0  0
  -22.4267  -22.8316   22.1377 N   0  0  0  0  0  0  0  0  0  0  0  0
  -27.4529  -23.3021   24.5945 N   0  3  0  0  0  0  0  0  0  0  0  0
  -30.5673  -24.9497   20.5865 N   0  3  0  0  0  0  0  0  0  0  0  0
  -23.0752  -21.1286   19.2460 N   0  3  0  0  0  0  0  0  0  0  0  0
  -24.0935  -18.7558   17.4014 O   0  0  0  0  0  0  0  0  0  0  0  0
  -23.5464  -28.7347   22.8007 O   0  0  0  0  0  0  0  0  0  0  0  0
  -20.8565  -25.2280   22.1512 O   0  0  0  0  0  0  0  0  0  0  0  0
  -24.6126  -22.4033   21.4929 O   0  0  0  0  0  0  0  0  0  0  0  0
  -31.7406  -20.8071   21.5637 O   0  0  0  0  0  0  0  0  0  0  0  0
  -22.0227  -12.2499   21.1391 O   0  0  0  0  0  0  0  0  0  0  0  0
  -28.7561  -27.6665   20.2668 O   0  0  0  0  0  0  0  0  0  1  0  0
  -24.0837   -7.1385   21.3116 F   0  0  0  0  0  0  0  0  0  0  0  0
  -21.0459  -10.2699   19.4754 F   0  0  0  0  0  0  0  0  0  0  0  0
  1  2  1  0  0  0  0
  1  5  2  0  0  0  0
  2  6  2  0  0  0  0
  3  8  2  0  0  0  0
  3 15  1  0  0  0  0
  4  9  1  0  0  0  0
  4 15  2  0  0  0  0
  5 17  1  0  0  0  0
  6 19  1  0  0  0  0
  7 10  2  0  0  0  0
  7 18  1  0  0  0  0
  8 21  1  0  0  0  0
  9 21  2  0  0  0  0
 10 22  1  0  0  0  0
 11 12  2  0  0  0  0
 11 23  1  0  0  0  0
 12 24  1  0  0  0  0
 13 20  1  0  0  0  0
 13 22  2  0  0  0  0
 14 24  2  0  0  0  0
 14 25  1  0  0  0  0
 15 26  1  0  0  0  0
 16 26  1  0  0  0  0
 16 27  2  0  0  0  0
 16 28  1  0  0  0  0
 17 19  2  0  0  0  0
 17 33  1  0  0  0  0
 18 20  2  0  0  0  0
 18 34  1  0  0  0  0
 19 46  1  0  0  0  0
 20 35  1  0  0  0  0
 21 79  1  0  0  0  0
 22 80  1  0  0  0  0
 23 25  2  0  0  0  0
 23 79  1  0  0  0  0
 24 81  1  0  0  0  0
 25 82  1  0  0  0  0
 26 62  2  0  0  0  0
 27 63  1  0  0  0  0
 27 67  1  0  0  0  0
 28 68  1  0  0  0  0
 28 74  2  0  0  0  0
 29 47  1  0  0  0  0
 29 69  1  0  0  0  0
 29 75  2  0  0  0  0
 30 59  1  0  0  0  0
 30 64  1  0  0  0  0
 30 76  2  0  0  0  0
 31 60  1  0  0  0  0
 31 70  1  0  0  0  0
 31 77  2  0  0  0  0
 32 65  1  0  0  0  0
 32 66  1  0  0  0  0
 32 78  2  0  0  0  0
 33 36  1  0  0  0  0
 34 47  1  0  0  0  0
 35 64  1  0  0  0  0
 36 38  1  0  0  0  0
 37 39  1  0  0  0  0
 37 43  1  0  0  0  0
 38 46  1  0  0  0  0
 39 48  1  0  0  0  0
 40 49  1  0  0  0  0
 40 51  1  0  0  0  0
 41 49  1  0  0  0  0
 41 51  1  0  0  0  0
 42 50  1  0  0  0  0
 42 52  1  0  0  0  0
 43 65  1  0  0  0  0
 44 48  1  0  0  0  0
 44 65  1  0  0  0  0
 45 50  1  0  0  0  0
 45 66  1  0  0  0  0
 46 69  1  0  0  0  0
 47 64  1  0  0  0  0
 48 63  1  0  0  0  0
 49 72  1  0  0  0  0
 50 71  1  0  0  0  0
 51 80  1  0  0  0  0
 52 58  1  0  0  0  0
 52 66  1  0  0  0  0
 53 60  1  0  0  0  0
 54 61  1  0  0  0  0
 55 61  1  0  0  0  0
 56 61  1  0  0  0  0
 57 73  1  0  0  0  0
 58 72  1  0  0  0  0
 59 61  1  0  0  0  0
 59 70  1  0  0  0  0
 60 73  1  0  0  0  0
 62 63  1  0  0  0  0
M  CHG  3  71   1  72   1  73   1
M  ISO  4  32 100  51 101  66 100  80 101
M  END
> <Batch ID>
0195

> <Smiles>
CNC(C)C(=O)NC(C(=O)N1Cc2cc([101O:1][101CH:1]3CC(NCC4CC(N)C[100N:0]4[100C:0](=O)N4CCCC(n5nc(-c6ccc(Oc7ccc(F)cc7F)cc6)c(C(N)=O)c5N)C4)C3)ccc2CC1C(=O)NC1CCCc2ccccc21)C(C)(C)C

> <Shape>
0.218

> <Color>
0.063

> <Negative vol penalty>
0.000

$$$$

  -OEChem-04052323373D

 89 99  0     1  0  0  0  0  0999 V2000
  -18.1912  -31.2916   22.9042 C   0  0  0  0  0  0  0  0  0  0  0  0
  -19.5799  -31.3383   22.8366 C   0  0  0  0  0  0  0  0  0  0  0  0
  -25.8012  -13.3423   21.3411 C   0  0  0  0  0  0  0  0  0  0  0  0
  -26.2463  -13.2941   18.9669 C   0  0  0  0  0  0  0  0  0  0  0  0
  -17.5356  -30.0611   22.9094 C   0  0  0  0  0  0  0  0  0  0  0  0
  -20.3141  -30.1543   22.7753 C   0  0  0  0  0  0  0  0  0  0  0  0
  -25.5388  -29.2162   19.7212 C   0  0  0  0  0  0  0  0  0  0  0  0
  -24.7210  -12.4795   21.1561 C   0  0  0  0  0  0  0  0  0  0  0  0
  -25.1661  -12.4312   18.7819 C   0  0  0  0  0  0  0  0  0  0  0  0
  -26.8735  -29.2138   20.1243 C   0  0  0  0  0  0  0  0  0  0  0  0
  -22.0670  -10.0034   21.3563 C   0  0  0  0  0  0  0  0  0  0  0  0
  -21.9315   -8.9347   22.2424 C   0  0  0  0  0  0  0  0  0  0  0  0
  -35.0212  -26.9001   19.9838 C   0  0  0  0  0  0  0  0  0  0  0  0
  -26.7920  -26.8143   20.3588 C   0  0  0  0  0  0  0  0  0  0  0  0
  -24.0947   -8.0987   21.5648 C   0  0  0  0  0  0  0  0  0  0  0  0
  -34.7728  -27.9875   22.0844 C   0  0  0  0  0  0  0  0  0  0  0  0
  -26.5639  -13.7497   20.2465 C   0  0  0  0  0  0  0  0  0  0  0  0
  -29.0172  -14.2865   20.6946 C   0  0  0  0  0  0  0  0  0  0  0  0
  -18.2616  -28.8617   22.8384 C   0  0  0  0  0  0  0  0  0  0  0  0
  -24.8164  -28.0168   19.6443 C   0  0  0  0  0  0  0  0  0  0  0  0
  -19.6677  -28.9066   22.7810 C   0  0  0  0  0  0  0  0  0  0  0  0
  -33.6400  -26.7475   19.9338 C   0  0  0  0  0  0  0  0  0  0  0  0
  -25.4491  -26.8039   19.9520 C   0  0  0  0  0  0  0  0  0  0  0  0
  -35.6062  -27.5308   21.0761 C   0  0  0  0  0  0  0  0  0  0  0  0
  -24.4034  -12.0239   19.8766 C   0  0  0  0  0  0  0  0  0  0  0  0
  -27.4995  -28.0130   20.4460 C   0  0  0  0  0  0  0  0  0  0  0  0
  -23.2163  -10.1197   20.5744 C   0  0  0  0  0  0  0  0  0  0  0  0
  -22.9453   -7.9824   22.3466 C   0  0  0  0  0  0  0  0  0  0  0  0
  -24.2301   -9.1674   20.6787 C   0  0  0  0  0  0  0  0  0  0  0  0
  -27.6795  -14.6414   20.4368 C   0  0  0  0  0  0  0  0  0  0  0  0
  -32.8946  -27.2390   20.9933 C   0  0  0  0  0  0  0  0  0  0  0  0
  -29.6779  -15.4865   20.7932 C   0  0  0  0  0  0  0  0  0  0  0  0
  -29.6095  -12.9881   20.8325 C   0  0  0  0  0  0  0  0  0  0  0  0
  -22.2356  -26.8558   21.0919 C   0  0  0  0  0  0  0  0  0  0  0  0
  -22.6143  -24.4315   18.9701 C   0  0  0  0  0  0  0  0  0  0  0  0
  -24.7034  -22.6718   16.9243 C   0  0  0  0  0  0  0  0  0  0  0  0
  -28.3335  -20.8313   18.4845 C   0  0  0  0  0  0  0  0  0  0  0  0
  -17.5113  -27.5546   22.8947 C   0  0  0  0  0  0  0  0  0  0  0  0
  -23.3852  -28.0335   19.1820 C   0  0  0  0  0  0  0  0  0  0  0  0
  -24.7235  -25.4868   19.8661 C   0  0  0  0  0  0  0  0  0  0  0  0
  -18.3435  -26.3549   22.4491 C   0  0  0  0  0  0  0  0  0  0  0  0
  -28.9806  -20.0597   22.0101 C   0  0  0  0  0  0  0  0  0  0  0  0
  -19.7214  -26.3887   23.1025 C   0  0  0  0  0  0  0  0  0  0  0  0
  -28.8209  -18.5386   22.0231 C   0  0  0  0  0  0  0  0  0  0  0  0
  -28.0215  -20.7003   21.0141 C   0  0  0  0  0  0  0  0  0  0  0  0
  -29.2610  -22.9595   17.4223 C   0  0  0  0  0  0  0  0  0  0  0  0
  -29.8902  -22.7076   19.4386 C   0  0  0  0  0  0  0  0  0  0  0  0
  -27.9876  -18.6674   19.6257 C   0  0  0  0  0  0  0  0  0  0  0  0
  -33.4202  -24.6468   18.4248 C   0  0  0  0  0  0  0  0  0  0  0  0
  -20.4977  -27.6446   22.6882 C   0  0  1  0  0  0  0  0  0  0  0  0
  -33.0189  -26.0759   18.7711 C   0  0  1  0  0  0  0  0  0  0  0  0
  -22.5969  -26.8081   19.6342 C   0  0  1  0  0  0  0  0  0  0  0  0
  -30.5502  -23.3112   18.1843 C   0  0  0  0  0  0  0  0  0  0  0  0
  -28.9386  -17.9532   20.6038 C   0  0  2  0  0  0  0  0  0  0  0  0
  -37.7728  -26.5351   21.8512 C   0  0  0  0  0  0  0  0  0  0  0  0
  -24.7325  -20.7210   15.3460 C   0  0  0  0  0  0  0  0  0  0  0  0
  -22.5668  -22.5141   21.3431 C   0  0  0  0  0  0  0  0  0  0  0  0
  -23.5318  -20.7519   19.8492 C   0  0  0  0  0  0  0  0  0  0  0  0
  -21.2929  -21.7269   19.3401 C   0  0  0  0  0  0  0  0  0  0  0  0
  -25.5123  -24.3785   14.6458 C   0  0  0  0  0  0  0  0  0  0  0  0
  -37.0804  -27.7093   21.1609 C   0  0  0  0  0  0  0  0  0  0  0  0
  -30.9160  -24.7803   18.2509 C   0  0  0  0  0  0  0  0  0  0  0  0
  -30.6663  -27.1620   22.1133 C   0  0  0  0  0  0  0  0  0  0  0  0
  -29.2042  -26.9788   21.7422 C   0  0  0  0  0  0  0  0  0  1  0  0
  -23.3670  -23.1230   18.9651 C   0  0  1  0  0  0  0  0  0  0  0  0
  -24.5593  -22.2259   15.4804 C   0  0  2  0  0  0  0  0  0  0  0  0
  -22.7030  -22.0538   19.8780 C   0  0  0  0  0  0  0  0  0  0  0  0
  -33.4272  -27.8574   22.0711 N   0  0  0  0  0  0  0  0  0  0  0  0
  -27.4995  -15.9635   20.3757 N   0  0  0  0  0  0  0  0  0  0  0  0
  -28.7327  -16.4498   20.5965 N   0  0  0  0  0  0  0  0  0  0  0  0
  -23.3238  -25.5560   19.4152 N   0  0  0  0  0  0  0  0  0  0  0  0
  -28.1895  -20.1192   19.6783 N   0  0  0  0  0  0  0  0  0  0  0  0
  -28.9636  -22.0526   18.5276 N   0  0  0  0  0  0  0  0  0  0  0  0
  -30.9695  -15.8012   21.0282 N   0  0  0  0  0  0  0  0  0  0  0  0
  -28.7866  -11.8610   20.7019 N   0  0  0  0  0  0  0  0  0  0  0  0
  -31.4860  -27.0874   20.9483 N   0  0  0  0  0  0  0  0  0  0  0  0
  -21.0356  -27.4890   21.3538 N   0  0  0  0  0  0  0  0  0  0  0  0
  -23.4844  -22.7249   17.5665 N   0  0  0  0  0  0  0  0  0  0  0  0
  -32.1521  -24.9368   19.0509 N   0  3  1  0  0  0  0  0  0  0  0  0
  -25.5819  -22.8947   14.6272 N   0  3  0  0  0  0  0  0  0  0  0  0
  -30.8291  -12.8323   21.0809 O   0  0  0  0  0  0  0  0  0  0  0  0
  -22.9891  -26.3539   21.9178 O   0  0  0  0  0  0  0  0  0  0  0  0
  -21.4422  -24.4564   18.5864 O   0  0  0  0  0  0  0  0  0  0  0  0
  -25.7892  -22.9420   17.4328 O   0  0  0  0  0  0  0  0  0  0  0  0
  -27.9393  -20.3768   17.4022 O   0  0  0  0  0  0  0  0  0  0  0  0
  -23.3496  -11.1817   19.6958 O   0  0  0  0  0  0  0  0  0  0  0  0
  -28.8110  -28.0079   20.8431 O   0  0  0  0  0  0  0  0  0  1  0  0
  -22.8158   -6.9570   23.1987 F   0  0  0  0  0  0  0  0  0  0  0  0
  -25.3370   -9.2745   19.9310 F   0  0  0  0  0  0  0  0  0  0  0  0
  1  2  1  0  0  0  0
  1  5  2  0  0  0  0
  2  6  2  0  0  0  0
  3  8  2  0  0  0  0
  3 17  1  0  0  0  0
  4  9  1  0  0  0  0
  4 17  2  0  0  0  0
  5 19  1  0  0  0  0
  6 21  1  0  0  0  0
  7 10  2  0  0  0  0
  7 20  1  0  0  0  0
  8 25  1  0  0  0  0
  9 25  2  0  0  0  0
 10 26  1  0  0  0  0
 11 12  2  0  0  0  0
 11 27  1  0  0  0  0
 12 28  1  0  0  0  0
 13 22  1  0  0  0  0
 13 24  2  0  0  0  0
 14 23  1  0  0  0  0
 14 26  2  0  0  0  0
 15 28  2  0  0  0  0
 15 29  1  0  0  0  0
 16 24  1  0  0  0  0
 16 68  2  0  0  0  0
 17 30  1  0  0  0  0
 18 30  1  0  0  0  0
 18 32  2  0  0  0  0
 18 33  1  0  0  0  0
 19 21  2  0  0  0  0
 19 38  1  0  0  0  0
 20 23  2  0  0  0  0
 20 39  1  0  0  0  0
 21 50  1  0  0  0  0
 22 31  2  0  0  0  0
 22 51  1  0  0  0  0
 23 40  1  0  0  0  0
 24 61  1  0  0  0  0
 25 86  1  0  0  0  0
 26 87  1  0  0  0  0
 27 29  2  0  0  0  0
 27 86  1  0  0  0  0
 28 88  1  0  0  0  0
 29 89  1  0  0  0  0
 30 69  2  0  0  0  0
 31 68  1  0  0  0  0
 31 76  1  0  0  0  0
 32 70  1  0  0  0  0
 32 74  1  0  0  0  0
 33 75  1  0  0  0  0
 33 81  2  0  0  0  0
 34 52  1  0  0  0  0
 34 77  1  0  0  0  0
 34 82  2  0  0  0  0
 35 65  1  0  0  0  0
 35 71  1  0  0  0  0
 35 83  2  0  0  0  0
 36 66  1  0  0  0  0
 36 78  1  0  0  0  0
 36 84  2  0  0  0  0
 37 72  1  0  0  0  0
 37 73  1  0  0  0  0
 37 85  2  0  0  0  0
 38 41  1  0  0  0  0
 39 52  1  0  0  0  0
 40 71  1  0  0  0  0
 41 43  1  0  0  0  0
 42 44  1  0  0  0  0
 42 45  1  0  0  0  0
 43 50  1  0  0  0  0
 44 54  1  0  0  0  0
 45 72  1  0  0  0  0
 46 53  1  0  0  0  0
 46 73  1  0  0  0  0
 47 53  1  0  0  0  0
 47 73  1  0  0  0  0
 48 54  1  0  0  0  0
 48 72  1  0  0  0  0
 49 51  1  0  0  0  0
 49 79  1  0  0  0  0
 50 77  1  0  0  0  0
 51 79  1  0  0  0  0
 52 71  1  0  0  0  0
 53 62  1  0  0  0  0
 54 70  1  0  0  0  0
 55 61  1  0  0  0  0
 56 66  1  0  0  0  0
 57 67  1  0  0  0  0
 58 67  1  0  0  0  0
 59 67  1  0  0  0  0
 60 80  1  0  0  0  0
 62 79  1  0  0  0  0
 63 64  1  0  0  0  0
 63 76  1  0  0  0  0
 64 87  1  0  0  0  0
 65 67  1  0  0  0  0
 65 78  1  0  0  0  0
 66 80  1  0  0  0  0
 69 70  1  0  0  0  0
M  CHG  2  79   1  80   1
M  ISO  4  37 100  64 101  73 100  87 101
M  END
> <Batch ID>
0195

> <Smiles>
CCc1cnc(NC[101CH2:1][101O:1]c2ccc3c(c2)CN(C(=O)C(NC(=O)C(C)NC)C(C)(C)C)C(C(=O)NC2CCCc4ccccc42)C3)c(C2CN2CC2C[100N:0]([100C:0](=O)N3CCCC(n4nc(-c5ccc(Oc6ccc(F)cc6F)cc5)c(C(N)=O)c4N)C3)C2)c1

> <Shape>
0.287

> <Color>
0.065

> <Negative vol penalty>
0.000

$$$$

  -OEChem-04052323373D

 84 93  0     1  0  0  0  0  0999 V2000
  -21.5140  -29.8265   13.9239 C   0  0  0  0  0  0  0  0  0  0  0  0
  -22.6810  -29.4145   14.5594 C   0  0  0  0  0  0  0  0  0  0  0  0
  -23.4109  -12.8646   22.2149 C   0  0  0  0  0  0  0  0  0  0  0  0
  -23.7211  -12.0713   19.9541 C   0  0  0  0  0  0  0  0  0  0  0  0
  -20.9950  -31.0957   14.1763 C   0  0  0  0  0  0  0  0  0  0  0  0
  -23.3302  -30.2719   15.4469 C   0  0  0  0  0  0  0  0  0  0  0  0
  -24.7783  -27.9334   19.6989 C   0  0  0  0  0  0  0  0  0  0  0  0
  -22.2101  -12.1598   22.2975 C   0  0  0  0  0  0  0  0  0  0  0  0
  -22.5203  -11.3664   20.0366 C   0  0  0  0  0  0  0  0  0  0  0  0
  -25.9261  -27.1447   19.6326 C   0  0  0  0  0  0  0  0  0  0  0  0
  -21.2270   -8.9646   22.8050 C   0  0  0  0  0  0  0  0  0  0  0  0
  -20.9877   -8.2252   23.9632 C   0  0  0  0  0  0  0  0  0  0  0  0
  -27.2061  -28.9351   20.6201 C   0  0  0  0  0  0  0  0  0  0  0  0
  -19.0036   -9.5361   24.3902 C   0  0  0  0  0  0  0  0  0  0  0  0
  -24.1665  -12.8204   21.0432 C   0  0  0  0  0  0  0  0  0  0  0  0
  -26.6912  -13.0832   21.2964 C   0  0  0  0  0  0  0  0  0  0  0  0
  -21.6329  -31.9655   15.0747 C   0  0  0  0  0  0  0  0  0  0  0  0
  -24.8381  -29.2351   20.2172 C   0  0  0  0  0  0  0  0  0  0  0  0
  -22.8200  -31.5544   15.7106 C   0  0  0  0  0  0  0  0  0  0  0  0
  -26.0572  -29.7374   20.6943 C   0  0  0  0  0  0  0  0  0  0  0  0
  -21.7648  -11.4107   21.2084 C   0  0  0  0  0  0  0  0  0  0  0  0
  -27.1408  -27.6466   20.0905 C   0  0  0  0  0  0  0  0  0  0  0  0
  -20.3547   -9.9899   22.4393 C   0  0  0  0  0  0  0  0  0  0  0  0
  -19.8760   -8.5109   24.7558 C   0  0  0  0  0  0  0  0  0  0  0  0
  -19.2430  -10.2756   23.2319 C   0  0  0  0  0  0  0  0  0  0  0  0
  -25.4067  -13.5487   20.9571 C   0  0  0  0  0  0  0  0  0  0  0  0
  -27.5214  -14.1461   21.0365 C   0  0  0  0  0  0  0  0  0  0  0  0
  -27.0977  -11.8044   21.8014 C   0  0  0  0  0  0  0  0  0  0  0  0
  -24.2771  -32.1400   19.0552 C   0  0  0  0  0  0  0  0  0  0  0  0
  -24.7746  -33.0416   22.1313 C   0  0  0  0  0  0  0  0  0  0  0  0
  -26.1917  -32.3541   25.1588 C   0  0  0  0  0  0  0  0  0  0  0  0
  -29.0975  -18.1505   17.5576 C   0  0  0  0  0  0  0  0  0  0  0  0
  -21.0602  -33.3456   15.2796 C   0  0  0  0  0  0  0  0  0  0  0  0
  -23.5858  -30.0634   20.3065 C   0  0  0  0  0  0  0  0  0  0  0  0
  -26.1707  -31.1210   21.2783 C   0  0  0  0  0  0  0  0  0  0  0  0
  -21.6031  -34.0526   16.5188 C   0  0  0  0  0  0  0  0  0  0  0  0
  -26.4615  -18.9737   19.9698 C   0  0  0  0  0  0  0  0  0  0  0  0
  -23.1209  -33.9176   16.5883 C   0  0  0  0  0  0  0  0  0  0  0  0
  -26.0479  -17.5834   20.4550 C   0  0  0  0  0  0  0  0  0  0  0  0
  -30.7637  -25.3380   19.8233 C   0  0  0  0  0  0  0  0  0  0  0  0
  -26.8613  -18.9416   18.4996 C   0  0  0  0  0  0  0  0  0  0  0  0
  -30.9082  -19.8520   16.9712 C   0  0  0  0  0  0  0  0  0  0  0  0
  -29.5840  -20.5511   18.4821 C   0  0  0  0  0  0  0  0  0  0  0  0
  -27.5395  -16.5803   18.6585 C   0  0  0  0  0  0  0  0  0  0  0  0
  -30.1662  -24.7373   17.6011 C   0  0  0  0  0  0  0  0  0  0  0  0
  -23.5395  -32.4465   16.6988 C   0  0  1  0  0  0  0  0  0  0  0  0
  -23.8642  -31.5616   20.3791 C   0  0  1  0  0  0  0  0  0  0  0  0
  -31.0854  -20.7552   18.2038 C   0  0  0  0  0  0  0  0  0  0  0  0
  -27.1344  -16.5378   20.1435 C   0  0  2  0  0  0  0  0  0  0  0  0
  -31.1972  -24.4378   18.6771 C   0  0  2  0  0  0  0  0  0  0  0  0
  -30.4676  -26.6525   19.1109 C   0  0  2  0  0  0  0  0  0  0  0  0
  -26.4566  -33.2967   27.4694 C   0  0  0  0  0  0  0  0  0  0  0  0
  -26.8529  -35.0156   21.0851 C   0  0  0  0  0  0  0  0  0  0  0  0
  -27.7308  -35.2218   23.4207 C   0  0  0  0  0  0  0  0  0  0  0  0
  -25.3889  -35.9090   22.9052 C   0  0  0  0  0  0  0  0  0  0  0  0
  -32.1648  -22.8214   20.1682 C   0  0  0  0  0  0  0  0  0  0  0  0
  -30.2595  -27.0660   16.6234 C   0  0  0  0  0  0  0  0  0  0  0  0
  -24.8106  -30.0420   26.3859 C   0  0  0  0  0  0  0  0  0  0  0  0
  -31.5389  -22.1768   17.9399 C   0  0  0  0  0  0  0  0  0  0  0  0
  -29.5064  -27.5526   19.8650 C   0  0  0  0  0  0  0  0  0  1  0  0
  -25.9793  -33.4510   22.9438 C   0  0  1  0  0  0  0  0  0  0  0  0
  -25.6277  -32.3953   26.5676 C   0  0  2  0  0  0  0  0  0  0  0  0
  -26.4865  -34.8739   22.5760 C   0  0  0  0  0  0  0  0  0  0  0  0
  -25.4151  -14.8092   20.5154 N   0  0  0  0  0  0  0  0  0  0  0  0
  -26.7150  -15.1449   20.5755 N   0  0  0  0  0  0  0  0  0  0  0  0
  -24.9194  -31.8945   21.3382 N   0  0  0  0  0  0  0  0  0  0  0  0
  -27.9096  -17.9437   18.2643 N   0  0  0  0  0  0  0  0  0  0  0  0
  -29.6658  -19.4020   17.5931 N   0  0  0  0  0  0  0  0  0  0  0  0
  -28.8551  -14.3146   21.1596 N   0  0  0  0  0  0  0  0  0  0  0  0
  -26.1162  -10.8260   22.0108 N   0  0  0  0  0  0  0  0  0  0  0  0
  -23.3451  -31.9659   18.0500 N   0  0  0  0  0  0  0  0  0  0  0  0
  -25.5993  -33.2954   24.3438 N   0  0  0  0  0  0  0  0  0  0  0  0
  -31.2186  -23.0119   19.0532 N   0  0  2  0  0  0  0  0  0  0  0  0
  -29.8486  -26.2143   17.7861 N   0  3  1  0  0  0  0  0  0  0  0  0
  -25.6099  -31.0274   27.1587 N   0  3  0  0  0  0  0  0  0  0  0  0
  -28.2936  -11.5426   22.0748 O   0  0  0  0  0  0  0  0  0  0  0  0
  -25.3603  -32.7040   18.9537 O   0  0  0  0  0  0  0  0  0  0  0  0
  -23.7409  -33.7108   22.2032 O   0  0  0  0  0  0  0  0  0  0  0  0
  -27.0724  -31.5682   24.8167 O   0  0  0  0  0  0  0  0  0  0  0  0
  -29.6549  -17.2356   16.9368 O   0  0  0  0  0  0  0  0  0  0  0  0
  -20.5932  -10.7226   21.2887 O   0  0  0  0  0  0  0  0  0  0  0  0
  -28.2719  -26.8728   20.0258 O   0  0  0  0  0  0  0  0  0  1  0  0
  -19.6455   -7.7997   25.8672 F   0  0  0  0  0  0  0  0  0  0  0  0
  -18.4008  -11.2586   22.8851 F   0  0  0  0  0  0  0  0  0  0  0  0
  1  2  1  0  0  0  0
  1  5  2  0  0  0  0
  2  6  2  0  0  0  0
  3  8  2  0  0  0  0
  3 15  1  0  0  0  0
  4  9  1  0  0  0  0
  4 15  2  0  0  0  0
  5 17  1  0  0  0  0
  6 19  1  0  0  0  0
  7 10  2  0  0  0  0
  7 18  1  0  0  0  0
  8 21  1  0  0  0  0
  9 21  2  0  0  0  0
 10 22  1  0  0  0  0
 11 12  2  0  0  0  0
 11 23  1  0  0  0  0
 12 24  1  0  0  0  0
 13 20  1  0  0  0  0
 13 22  2  0  0  0  0
 14 24  2  0  0  0  0
 14 25  1  0  0  0  0
 15 26  1  0  0  0  0
 16 26  1  0  0  0  0
 16 27  2  0  0  0  0
 16 28  1  0  0  0  0
 17 19  2  0  0  0  0
 17 33  1  0  0  0  0
 18 20  2  0  0  0  0
 18 34  1  0  0  0  0
 19 46  1  0  0  0  0
 20 35  1  0  0  0  0
 21 81  1  0  0  0  0
 22 82  1  0  0  0  0
 23 25  2  0  0  0  0
 23 81  1  0  0  0  0
 24 83  1  0  0  0  0
 25 84  1  0  0  0  0
 26 64  2  0  0  0  0
 27 65  1  0  0  0  0
 27 69  1  0  0  0  0
 28 70  1  0  0  0  0
 28 76  2  0  0  0  0
 29 47  1  0  0  0  0
 29 71  1  0  0  0  0
 29 77  2  0  0  0  0
 30 61  1  0  0  0  0
 30 66  1  0  0  0  0
 30 78  2  0  0  0  0
 31 62  1  0  0  0  0
 31 72  1  0  0  0  0
 31 79  2  0  0  0  0
 32 67  1  0  0  0  0
 32 68  1  0  0  0  0
 32 80  2  0  0  0  0
 33 36  1  0  0  0  0
 34 47  1  0  0  0  0
 35 66  1  0  0  0  0
 36 38  1  0  0  0  0
 37 39  1  0  0  0  0
 37 41  1  0  0  0  0
 38 46  1  0  0  0  0
 39 49  1  0  0  0  0
 40 50  1  0  0  0  0
 40 51  1  0  0  0  0
 41 67  1  0  0  0  0
 42 48  1  0  0  0  0
 42 68  1  0  0  0  0
 43 48  1  0  0  0  0
 43 68  1  0  0  0  0
 44 49  1  0  0  0  0
 44 67  1  0  0  0  0
 45 50  1  0  0  0  0
 45 74  1  0  0  0  0
 46 71  1  0  0  0  0
 47 66  1  0  0  0  0
 48 59  1  0  0  0  0
 49 65  1  0  0  0  0
 50 73  1  0  0  0  0
 51 60  1  0  0  0  0
 51 74  1  0  0  0  0
 52 62  1  0  0  0  0
 53 63  1  0  0  0  0
 54 63  1  0  0  0  0
 55 63  1  0  0  0  0
 56 73  1  0  0  0  0
 57 74  1  0  0  0  0
 58 75  1  0  0  0  0
 59 73  1  0  0  0  0
 60 82  1  0  0  0  0
 61 63  1  0  0  0  0
 61 72  1  0  0  0  0
 62 75  1  0  0  0  0
 64 65  1  0  0  0  0
M  CHG  2  74   1  75   1
M  ISO  4  32 100  60 101  68 100  82 101
M  END
> <Batch ID>
0195

> <Smiles>
CNC(C)C(=O)NC(C(=O)N1Cc2cc([101O:1][101CH2:1]C3CC(N(C)CC4C[100N:0]([100C:0](=O)N5CCCC(n6nc(-c7ccc(Oc8ccc(F)cc8F)cc7)c(C(N)=O)c6N)C5)C4)CN3C)ccc2CC1C(=O)NC1CCCc2ccccc21)C(C)(C)C

> <Shape>
0.263

> <Color>
0.080

> <Negative vol penalty>
0.000

$$$$

  -OEChem-04052323373D

 86 95  0     1  0  0  0  0  0999 V2000
  -27.8464  -31.3210   27.7136 C   0  0  0  0  0  0  0  0  0  0  0  0
  -27.9662  -30.1390   26.9896 C   0  0  0  0  0  0  0  0  0  0  0  0
  -23.2659   -9.7582   19.9606 C   0  0  0  0  0  0  0  0  0  0  0  0
  -23.5205  -10.0789   22.3416 C   0  0  0  0  0  0  0  0  0  0  0  0
  -26.6731  -32.0699   27.6341 C   0  0  0  0  0  0  0  0  0  0  0  0
  -26.9121  -29.7048   26.1866 C   0  0  0  0  0  0  0  0  0  0  0  0
  -28.4635  -28.1191   21.6343 C   0  0  0  0  0  0  0  0  0  0  0  0
  -22.5169   -8.6053   20.1959 C   0  0  0  0  0  0  0  0  0  0  0  0
  -22.7715   -8.9261   22.5770 C   0  0  0  0  0  0  0  0  0  0  0  0
  -29.0323  -26.8482   21.5625 C   0  0  0  0  0  0  0  0  0  0  0  0
  -23.2625   -5.5814   22.5214 C   0  0  0  0  0  0  0  0  0  0  0  0
  -23.7384   -4.6831   23.4764 C   0  0  0  0  0  0  0  0  0  0  0  0
  -26.9407  -25.9648   20.7476 C   0  0  0  0  0  0  0  0  0  0  0  0
  -21.7091   -4.9687   24.7561 C   0  0  0  0  0  0  0  0  0  0  0  0
  -23.7678  -10.4950   21.0334 C   0  0  0  0  0  0  0  0  0  0  0  0
  -24.0600  -13.0023   20.6653 C   0  0  0  0  0  0  0  0  0  0  0  0
  -25.6078  -31.6496   26.8222 C   0  0  0  0  0  0  0  0  0  0  0  0
  -27.1237  -28.3207   21.2730 C   0  0  0  0  0  0  0  0  0  0  0  0
  -25.7229  -30.4481   26.0973 C   0  0  0  0  0  0  0  0  0  0  0  0
  -26.3581  -27.2396   20.8132 C   0  0  0  0  0  0  0  0  0  0  0  0
  -22.2696   -8.1893   21.5041 C   0  0  0  0  0  0  0  0  0  0  0  0
  -28.2701  -25.7703   21.1218 C   0  0  0  0  0  0  0  0  0  0  0  0
  -22.0099   -6.1734   22.6837 C   0  0  0  0  0  0  0  0  0  0  0  0
  -22.9617   -4.3768   24.5938 C   0  0  0  0  0  0  0  0  0  0  0  0
  -21.2333   -5.8671   23.8011 C   0  0  0  0  0  0  0  0  0  0  0  0
  -24.5421  -11.6857   20.7909 C   0  0  0  0  0  0  0  0  0  0  0  0
  -25.1841  -13.7599   20.4439 C   0  0  0  0  0  0  0  0  0  0  0  0
  -28.3705  -19.1801   14.3477 C   0  0  0  0  0  0  0  0  0  0  0  0
  -22.7163  -13.4964   20.7420 C   0  0  0  0  0  0  0  0  0  0  0  0
  -24.5159  -29.3166   22.7934 C   0  0  0  0  0  0  0  0  0  0  0  0
  -23.2047  -29.1679   19.8301 C   0  0  0  0  0  0  0  0  0  0  0  0
  -23.2840  -27.8323   16.6906 C   0  0  0  0  0  0  0  0  0  0  0  0
  -30.0131  -14.3334   17.5768 C   0  0  0  0  0  0  0  0  0  0  0  0
  -24.3412  -32.4681   26.8052 C   0  0  0  0  0  0  0  0  0  0  0  0
  -26.5327  -29.7026   21.3307 C   0  0  0  0  0  0  0  0  0  0  0  0
  -24.9211  -27.4069   20.3944 C   0  0  0  0  0  0  0  0  0  0  0  0
  -28.6044  -20.6472   14.6218 C   0  0  0  0  0  0  0  0  0  0  0  0
  -23.4146  -32.1324   25.6394 C   0  0  0  0  0  0  0  0  0  0  0  0
  -30.0892  -12.5845   20.8029 C   0  0  0  0  0  0  0  0  0  0  0  0
  -23.2622  -30.6214   25.4967 C   0  0  0  0  0  0  0  0  0  0  0  0
  -28.6144  -12.2628   21.0489 C   0  0  0  0  0  0  0  0  0  0  0  0
  -27.3821  -16.8030   16.8744 C   0  0  0  0  0  0  0  0  0  0  0  0
  -30.4240  -12.6289   19.3137 C   0  0  0  0  0  0  0  0  0  0  0  0
  -27.6884  -15.3453   17.2002 C   0  0  0  0  0  0  0  0  0  0  0  0
  -28.9382  -19.3816   16.6326 C   0  0  0  0  0  0  0  0  0  0  0  0
  -28.0890  -13.1950   18.7654 C   0  0  0  0  0  0  0  0  0  0  0  0
  -29.6242  -16.3617   16.2077 C   0  0  0  0  0  0  0  0  0  0  0  0
  -24.6111  -29.9568   25.1958 C   0  0  1  0  0  0  0  0  0  0  0  0
  -25.0102  -29.6979   21.4266 C   0  0  1  0  0  0  0  0  0  0  0  0
  -29.4115  -20.6425   15.9228 C   0  0  2  0  0  0  0  0  0  0  0  0
  -27.6988  -13.2091   20.2499 C   0  0  1  0  0  0  0  0  0  0  0  0
  -28.3726  -17.0993   15.7522 C   0  0  2  0  0  0  0  0  0  0  0  0
  -22.0596  -27.8743   14.5004 C   0  0  0  0  0  0  0  0  0  0  0  0
  -21.0129  -27.4130   21.0244 C   0  0  0  0  0  0  0  0  0  0  0  0
  -20.3936  -26.7242   18.6984 C   0  0  0  0  0  0  0  0  0  0  0  0
  -20.2058  -29.1163   19.3807 C   0  0  0  0  0  0  0  0  0  0  0  0
  -25.6591  -28.8531   15.2499 C   0  0  0  0  0  0  0  0  0  0  0  0
  -29.2190  -21.9014   16.7498 C   0  0  0  0  0  0  0  0  0  0  0  0
  -30.0709  -21.8606   18.0047 C   0  0  0  0  0  0  0  0  0  0  0  0
  -30.5463  -23.1469   20.0923 C   0  0  0  0  0  0  0  0  0  0  0  0
  -30.2223  -24.4531   20.7901 C   0  0  0  0  0  0  0  0  0  1  0  0
  -22.4955  -28.1044   19.0270 C   0  0  1  0  0  0  0  0  0  0  0  0
  -23.1909  -28.4765   15.3192 C   0  0  2  0  0  0  0  0  0  0  0  0
  -21.0534  -27.8356   19.5423 C   0  0  0  0  0  0  0  0  0  0  0  0
  -25.8691  -11.6078   20.6600 N   0  0  0  0  0  0  0  0  0  0  0  0
  -26.2304  -12.8850   20.4498 N   0  0  0  0  0  0  0  0  0  0  0  0
  -28.5881  -18.5007   15.5432 N   0  0  0  0  0  0  0  0  0  0  0  0
  -24.3867  -28.7764   20.4746 N   0  0  0  0  0  0  0  0  0  0  0  0
  -29.5099  -13.5184   18.5969 N   0  0  0  0  0  0  0  0  0  0  0  0
  -29.1252  -15.2069   16.9500 N   0  0  0  0  0  0  0  0  0  0  0  0
  -25.3697  -15.0824   20.2466 N   0  0  0  0  0  0  0  0  0  0  0  0
  -21.6803  -12.5816   20.9752 N   0  0  0  0  0  0  0  0  0  0  0  0
  -24.9669  -30.1424   23.8054 N   0  0  0  0  0  0  0  0  0  0  0  0
  -22.5622  -28.5326   17.6339 N   0  0  0  0  0  0  0  0  0  0  0  0
  -24.4654  -28.2872   14.5704 N   0  3  0  0  0  0  0  0  0  0  0  0
  -29.8120  -23.0856   18.7987 N   0  3  0  0  0  0  0  0  0  0  0  0
  -28.0123  -18.7231   13.2724 O   0  0  0  0  0  0  0  0  0  0  0  0
  -22.4406  -14.7108   20.5913 O   0  0  0  0  0  0  0  0  0  0  0  0
  -23.7787  -28.3460   22.9202 O   0  0  0  0  0  0  0  0  0  0  0  0
  -22.7313  -30.3060   19.8778 O   0  0  0  0  0  0  0  0  0  0  0  0
  -23.9292  -26.8080   16.9029 O   0  0  0  0  0  0  0  0  0  0  0  0
  -31.2128  -14.3157   17.2710 O   0  0  0  0  0  0  0  0  0  0  0  0
  -21.5385   -7.0645   21.7342 O   0  0  0  0  0  0  0  0  0  0  0  0
  -28.8266  -24.5197   21.0509 O   0  0  0  0  0  0  0  0  0  1  0  0
  -23.4182   -3.5129   25.5101 F   0  0  0  0  0  0  0  0  0  0  0  0
  -20.0286   -6.4317   23.9619 F   0  0  0  0  0  0  0  0  0  0  0  0
  1  2  1  0  0  0  0
  1  5  2  0  0  0  0
  2  6  2  0  0  0  0
  3  8  2  0  0  0  0
  3 15  1  0  0  0  0
  4  9  1  0  0  0  0
  4 15  2  0  0  0  0
  5 17  1  0  0  0  0
  6 19  1  0  0  0  0
  7 10  2  0  0  0  0
  7 18  1  0  0  0  0
  8 21  1  0  0  0  0
  9 21  2  0  0  0  0
 10 22  1  0  0  0  0
 11 12  2  0  0  0  0
 11 23  1  0  0  0  0
 12 24  1  0  0  0  0
 13 20  1  0  0  0  0
 13 22  2  0  0  0  0
 14 24  2  0  0  0  0
 14 25  1  0  0  0  0
 15 26  1  0  0  0  0
 16 26  1  0  0  0  0
 16 27  2  0  0  0  0
 16 29  1  0  0  0  0
 17 19  2  0  0  0  0
 17 34  1  0  0  0  0
 18 20  2  0  0  0  0
 18 35  1  0  0  0  0
 19 48  1  0  0  0  0
 20 36  1  0  0  0  0
 21 83  1  0  0  0  0
 22 84  1  0  0  0  0
 23 25  2  0  0  0  0
 23 83  1  0  0  0  0
 24 85  1  0  0  0  0
 25 86  1  0  0  0  0
 26 65  2  0  0  0  0
 27 66  1  0  0  0  0
 27 71  1  0  0  0  0
 28 37  1  0  0  0  0
 28 67  1  0  0  0  0
 28 77  2  0  0  0  0
 29 72  1  0  0  0  0
 29 78  2  0  0  0  0
 30 49  1  0  0  0  0
 30 73  1  0  0  0  0
 30 79  2  0  0  0  0
 31 62  1  0  0  0  0
 31 68  1  0  0  0  0
 31 80  2  0  0  0  0
 32 63  1  0  0  0  0
 32 74  1  0  0  0  0
 32 81  2  0  0  0  0
 33 69  1  0  0  0  0
 33 70  1  0  0  0  0
 33 82  2  0  0  0  0
 34 38  1  0  0  0  0
 35 49  1  0  0  0  0
 36 68  1  0  0  0  0
 37 50  1  0  0  0  0
 38 40  1  0  0  0  0
 39 41  1  0  0  0  0
 39 43  1  0  0  0  0
 40 48  1  0  0  0  0
 41 51  1  0  0  0  0
 42 44  1  0  0  0  0
 42 52  1  0  0  0  0
 43 69  1  0  0  0  0
 44 70  1  0  0  0  0
 45 50  1  0  0  0  0
 45 67  1  0  0  0  0
 46 51  1  0  0  0  0
 46 69  1  0  0  0  0
 47 52  1  0  0  0  0
 47 70  1  0  0  0  0
 48 73  1  0  0  0  0
 49 68  1  0  0  0  0
 50 58  1  0  0  0  0
 51 66  1  0  0  0  0
 52 67  1  0  0  0  0
 53 63  1  0  0  0  0
 54 64  1  0  0  0  0
 55 64  1  0  0  0  0
 56 64  1  0  0  0  0
 57 75  1  0  0  0  0
 58 59  1  0  0  0  0
 59 76  1  0  0  0  0
 60 61  1  0  0  0  0
 60 76  1  0  0  0  0
 61 84  1  0  0  0  0
 62 64  1  0  0  0  0
 62 74  1  0  0  0  0
 63 75  1  0  0  0  0
 65 66  1  0  0  0  0
M  CHG  2  75   1  76   1
M  ISO  4  33 100  61 101  70 100  84 101
M  END
> <Batch ID>
0195

> <Smiles>
CNC(C)C(=O)NC(C(=O)N1Cc2cc([101O:1][101CH2:1]CNCCC3CC(=O)N(C4CC[100N:0]([100C:0](=O)N5CCCC(n6nc(-c7ccc(Oc8ccc(F)cc8F)cc7)c(C(N)=O)c6N)C5)C4)C3)ccc2CC1C(=O)NC1CCCc2ccccc21)C(C)(C)C

> <Shape>
0.286

> <Color>
0.200

> <Negative vol penalty>
0.000

$$$$

  -OEChem-04052323373D

 89 99  0     1  0  0  0  0  0999 V2000
  -20.0979  -34.8921   22.7050 C   0  0  0  0  0  0  0  0  0  0  0  0
  -21.1386  -34.4133   21.9157 C   0  0  0  0  0  0  0  0  0  0  0  0
  -23.3086   -9.7700   19.7794 C   0  0  0  0  0  0  0  0  0  0  0  0
  -24.1479   -9.5481   22.0341 C   0  0  0  0  0  0  0  0  0  0  0  0
  -19.7082  -34.1891   23.8443 C   0  0  0  0  0  0  0  0  0  0  0  0
  -21.7911  -33.2317   22.2659 C   0  0  0  0  0  0  0  0  0  0  0  0
  -24.0941  -29.0287   18.4532 C   0  0  0  0  0  0  0  0  0  0  0  0
  -22.6989   -8.5197   19.8833 C   0  0  0  0  0  0  0  0  0  0  0  0
  -23.5382   -8.2979   22.1380 C   0  0  0  0  0  0  0  0  0  0  0  0
  -25.3867  -28.7935   17.9866 C   0  0  0  0  0  0  0  0  0  0  0  0
  -20.4354   -7.0802   22.6956 C   0  0  0  0  0  0  0  0  0  0  0  0
  -19.7306   -6.7999   23.8662 C   0  0  0  0  0  0  0  0  0  0  0  0
  -25.7014  -27.1370   19.7118 C   0  0  0  0  0  0  0  0  0  0  0  0
  -30.1828  -21.6282   17.6637 C   0  0  0  0  0  0  0  0  0  0  0  0
  -21.1938   -4.9267   24.2987 C   0  0  0  0  0  0  0  0  0  0  0  0
  -24.0331  -10.2842   20.8548 C   0  0  0  0  0  0  0  0  0  0  0  0
  -24.1048  -12.8243   21.0790 C   0  0  0  0  0  0  0  0  0  0  0  0
  -20.3498  -32.9932   24.2033 C   0  0  0  0  0  0  0  0  0  0  0  0
  -23.5985  -28.3265   19.5612 C   0  0  0  0  0  0  0  0  0  0  0  0
  -21.4105  -32.5128   23.4118 C   0  0  0  0  0  0  0  0  0  0  0  0
  -24.4013  -27.3634   20.1889 C   0  0  0  0  0  0  0  0  0  0  0  0
  -28.8915  -22.2216   17.5018 C   0  0  0  0  0  0  0  0  0  0  0  0
  -22.8137   -7.7837   21.0626 C   0  0  0  0  0  0  0  0  0  0  0  0
  -26.1916  -27.8496   18.6177 C   0  0  0  0  0  0  0  0  0  0  0  0
  -21.5194   -6.2837   22.3265 C   0  0  0  0  0  0  0  0  0  0  0  0
  -20.1098   -5.7232   24.6677 C   0  0  0  0  0  0  0  0  0  0  0  0
  -21.8987   -5.2070   23.1280 C   0  0  0  0  0  0  0  0  0  0  0  0
  -24.6636  -11.5753   20.7479 C   0  0  0  0  0  0  0  0  0  0  0  0
  -27.9964  -21.1855   17.5151 C   0  0  0  0  0  0  0  0  0  0  0  0
  -30.0235  -20.2548   17.7694 C   0  0  0  0  0  0  0  0  0  0  0  0
  -25.0986  -13.7301   20.7991 C   0  0  0  0  0  0  0  0  0  0  0  0
  -22.8038  -13.1376   21.5936 C   0  0  0  0  0  0  0  0  0  0  0  0
  -22.5821  -29.1399   22.4610 C   0  0  0  0  0  0  0  0  0  0  0  0
  -21.8107  -25.9947   22.6473 C   0  0  0  0  0  0  0  0  0  0  0  0
  -22.3598  -22.8075   21.5578 C   0  0  0  0  0  0  0  0  0  0  0  0
  -30.4164  -15.1802   21.2471 C   0  0  0  0  0  0  0  0  0  0  0  0
  -19.9248  -32.2933   25.4698 C   0  0  0  0  0  0  0  0  0  0  0  0
  -22.1925  -28.5728   20.0356 C   0  0  0  0  0  0  0  0  0  0  0  0
  -23.9092  -26.5682   21.3696 C   0  0  0  0  0  0  0  0  0  0  0  0
  -26.5486  -20.9161   17.4108 C   0  0  0  0  0  0  0  0  0  0  0  0
  -20.4193  -30.8522   25.5646 C   0  0  0  0  0  0  0  0  0  0  0  0
  -26.5305  -19.3886   17.1479 C   0  0  0  0  0  0  0  0  0  0  0  0
  -29.4783  -13.1630   18.3364 C   0  0  0  0  0  0  0  0  0  0  0  0
  -21.8962  -30.7689   25.1919 C   0  0  0  0  0  0  0  0  0  0  0  0
  -28.0935  -12.6604   18.7481 C   0  0  0  0  0  0  0  0  0  0  0  0
  -27.8593  -18.8463   17.7045 C   0  0  0  0  0  0  0  0  0  0  0  0
  -30.3989  -13.2777   19.5456 C   0  0  0  0  0  0  0  0  0  0  0  0
  -28.4916  -13.6428   21.0579 C   0  0  0  0  0  0  0  0  0  0  0  0
  -32.1020  -17.0814   21.0302 C   0  0  0  0  0  0  0  0  0  0  0  0
  -31.6387  -16.1698   19.1568 C   0  0  0  0  0  0  0  0  0  0  0  0
  -22.1264  -31.2218   23.7451 C   0  0  1  0  0  0  0  0  0  0  0  0
  -21.9732  -28.1681   21.4901 C   0  0  1  0  0  0  0  0  0  0  0  0
  -27.5034  -13.5169   19.8836 C   0  0  2  0  0  0  0  0  0  0  0  0
  -32.0816  -17.5766   19.5801 C   0  0  0  0  0  0  0  0  0  0  0  0
  -21.6027  -20.4430   21.9229 C   0  0  0  0  0  0  0  0  0  0  0  0
  -23.4197  -25.8820   25.2374 C   0  0  0  0  0  0  0  0  0  0  0  0
  -23.4286  -23.3861   25.0415 C   0  0  0  0  0  0  0  0  0  0  0  0
  -21.2681  -24.6082   25.2896 C   0  0  0  0  0  0  0  0  0  0  0  0
  -21.4253  -22.5521   18.7612 C   0  0  0  0  0  0  0  0  0  0  0  0
  -31.0306  -19.1573   17.9485 C   0  0  0  0  0  0  0  0  0  0  0  0
  -29.6109  -24.6060   17.3512 C   0  0  0  0  0  0  0  0  0  0  0  0
  -27.9787  -26.3040   18.3474 C   0  0  0  0  0  0  0  0  0  1  0  0
  -22.5245  -24.7438   23.0998 C   0  0  1  0  0  0  0  0  0  0  0  0
  -21.4028  -21.7155   21.1146 C   0  0  2  0  0  0  0  0  0  0  0  0
  -28.9641  -25.9846   17.2264 C   0  0  2  0  0  0  0  0  0  0  0  0
  -22.6705  -24.6712   24.6460 C   0  0  0  0  0  0  0  0  0  0  0  0
  -25.9153  -11.6749   20.2923 N   0  0  0  0  0  0  0  0  0  0  0  0
  -28.6978  -20.0285   17.6804 N   0  0  0  0  0  0  0  0  0  0  0  0
  -26.1511  -12.9973   20.3351 N   0  0  0  0  0  0  0  0  0  0  0  0
  -22.5297  -26.8496   21.8001 N   0  0  0  0  0  0  0  0  0  0  0  0
  -29.7953  -14.1188   20.5837 N   0  0  0  0  0  0  0  0  0  0  0  0
  -31.3547  -15.9169   20.5617 N   0  0  0  0  0  0  0  0  0  0  0  0
  -25.1660  -15.0741   20.9070 N   0  0  0  0  0  0  0  0  0  0  0  0
  -21.9055  -12.0867   21.8238 N   0  0  0  0  0  0  0  0  0  0  0  0
  -28.6134  -23.5330   17.3620 N   0  0  0  0  0  0  0  0  0  0  0  0
  -21.7421  -30.1764   22.8210 N   0  0  0  0  0  0  0  0  0  0  0  0
  -21.7953  -23.6236   22.5152 N   0  0  0  0  0  0  0  0  0  0  0  0
  -28.2421  -26.0666   15.9219 N   0  3  0  0  0  0  0  0  0  0  0  0
  -31.0513  -18.6020   19.3365 N   0  3  0  0  0  0  0  0  0  0  0  0
  -21.6133  -21.3955   19.6744 N   0  3  0  0  0  0  0  0  0  0  0  0
  -22.4426  -14.3161   21.8265 O   0  0  0  0  0  0  0  0  0  0  0  0
  -23.7285  -28.9617   22.8555 O   0  0  0  0  0  0  0  0  0  0  0  0
  -20.6551  -26.2019   23.0257 O   0  0  0  0  0  0  0  0  0  0  0  0
  -23.4957  -22.9225   21.1030 O   0  0  0  0  0  0  0  0  0  0  0  0
  -30.1193  -15.4857   22.4098 O   0  0  0  0  0  0  0  0  0  0  0  0
  -22.2187   -6.5638   21.1645 O   0  0  0  0  0  0  0  0  0  0  0  0
  -27.4622  -27.6169   18.1618 O   0  0  0  0  0  0  0  0  0  1  0  0
  -19.4338   -5.4551   25.7926 F   0  0  0  0  0  0  0  0  0  0  0  0
  -22.9399   -4.4390   22.7793 F   0  0  0  0  0  0  0  0  0  0  0  0
  1  2  1  0  0  0  0
  1  5  2  0  0  0  0
  2  6  2  0  0  0  0
  3  8  2  0  0  0  0
  3 16  1  0  0  0  0
  4  9  1  0  0  0  0
  4 16  2  0  0  0  0
  5 18  1  0  0  0  0
  6 20  1  0  0  0  0
  7 10  2  0  0  0  0
  7 19  1  0  0  0  0
  8 23  1  0  0  0  0
  9 23  2  0  0  0  0
 10 24  1  0  0  0  0
 11 12  2  0  0  0  0
 11 25  1  0  0  0  0
 12 26  1  0  0  0  0
 13 21  1  0  0  0  0
 13 24  2  0  0  0  0
 14 22  1  0  0  0  0
 14 30  2  0  0  0  0
 15 26  2  0  0  0  0
 15 27  1  0  0  0  0
 16 28  1  0  0  0  0
 17 28  1  0  0  0  0
 17 31  2  0  0  0  0
 17 32  1  0  0  0  0
 18 20  2  0  0  0  0
 18 37  1  0  0  0  0
 19 21  2  0  0  0  0
 19 38  1  0  0  0  0
 20 51  1  0  0  0  0
 21 39  1  0  0  0  0
 22 29  2  0  0  0  0
 22 75  1  0  0  0  0
 23 86  1  0  0  0  0
 24 87  1  0  0  0  0
 25 27  2  0  0  0  0
 25 86  1  0  0  0  0
 26 88  1  0  0  0  0
 27 89  1  0  0  0  0
 28 67  2  0  0  0  0
 29 40  1  0  0  0  0
 29 68  1  0  0  0  0
 30 60  1  0  0  0  0
 30 68  1  0  0  0  0
 31 69  1  0  0  0  0
 31 73  1  0  0  0  0
 32 74  1  0  0  0  0
 32 81  2  0  0  0  0
 33 52  1  0  0  0  0
 33 76  1  0  0  0  0
 33 82  2  0  0  0  0
 34 63  1  0  0  0  0
 34 70  1  0  0  0  0
 34 83  2  0  0  0  0
 35 64  1  0  0  0  0
 35 77  1  0  0  0  0
 35 84  2  0  0  0  0
 36 71  1  0  0  0  0
 36 72  1  0  0  0  0
 36 85  2  0  0  0  0
 37 41  1  0  0  0  0
 38 52  1  0  0  0  0
 39 70  1  0  0  0  0
 40 42  1  0  0  0  0
 41 44  1  0  0  0  0
 42 46  1  0  0  0  0
 43 45  1  0  0  0  0
 43 47  1  0  0  0  0
 44 51  1  0  0  0  0
 45 53  1  0  0  0  0
 46 68  1  0  0  0  0
 47 71  1  0  0  0  0
 48 53  1  0  0  0  0
 48 71  1  0  0  0  0
 49 54  1  0  0  0  0
 49 72  1  0  0  0  0
 50 54  1  0  0  0  0
 50 72  1  0  0  0  0
 51 76  1  0  0  0  0
 52 70  1  0  0  0  0
 53 69  1  0  0  0  0
 54 79  1  0  0  0  0
 55 64  1  0  0  0  0
 56 66  1  0  0  0  0
 57 66  1  0  0  0  0
 58 66  1  0  0  0  0
 59 80  1  0  0  0  0
 60 79  1  0  0  0  0
 61 65  1  0  0  0  0
 61 75  1  0  0  0  0
 62 65  1  0  0  0  0
 62 87  1  0  0  0  0
 63 66  1  0  0  0  0
 63 77  1  0  0  0  0
 64 80  1  0  0  0  0
 65 78  1  0  0  0  0
 67 69  1  0  0  0  0
M  CHG  3  78   1  79   1  80   1
M  ISO  4  36 100  62 101  72 100  87 101
M  END
> <Batch ID>
0195

> <Smiles>
CNC(C)C(=O)NC(C(=O)N1Cc2cc([101O:1][101CH2:1]C(N)CNc3cc(CNC4C[100N:0]([100C:0](=O)N5CCCC(n6nc(-c7ccc(Oc8ccc(F)cc8F)cc7)c(C(N)=O)c6N)C5)C4)n4c3CCC4)ccc2CC1C(=O)NC1CCCc2ccccc21)C(C)(C)C

> <Shape>
0.262

> <Color>
0.148

> <Negative vol penalty>
0.000

$$$$

  -OEChem-04052323373D

 90100  0     1  0  0  0  0  0999 V2000
  -22.4589   -8.4644   21.0624 C   0  0  0  0  0  0  0  0  0  0  0  0
  -22.2416   -9.6485   21.7597 C   0  0  0  0  0  0  0  0  0  0  0  0
  -29.3196  -28.0592   19.9377 C   0  0  0  0  0  0  0  0  0  0  0  0
  -27.4943  -26.7453   19.0550 C   0  0  0  0  0  0  0  0  0  0  0  0
  -23.5924   -8.3258   20.2625 C   0  0  0  0  0  0  0  0  0  0  0  0
  -23.1583  -10.6943   21.6584 C   0  0  0  0  0  0  0  0  0  0  0  0
  -20.9153  -15.1879   21.0094 C   0  0  0  0  0  0  0  0  0  0  0  0
  -30.1641  -26.9536   19.8372 C   0  0  0  0  0  0  0  0  0  0  0  0
  -28.3389  -25.6397   18.9544 C   0  0  0  0  0  0  0  0  0  0  0  0
  -20.3618  -15.7921   22.1374 C   0  0  0  0  0  0  0  0  0  0  0  0
  -30.7439  -24.5271   16.8573 C   0  0  0  0  0  0  0  0  0  0  0  0
  -30.6946  -23.7808   15.6799 C   0  0  0  0  0  0  0  0  0  0  0  0
  -22.3072  -17.2057   22.3275 C   0  0  0  0  0  0  0  0  0  0  0  0
  -30.0552  -21.8251   16.9463 C   0  0  0  0  0  0  0  0  0  0  0  0
  -18.2663  -25.0898   23.3373 C   0  0  0  0  0  0  0  0  0  0  0  0
  -15.8531  -24.8065   22.1944 C   0  0  0  0  0  0  0  0  0  0  0  0
  -27.9847  -27.9550   19.5466 C   0  0  0  0  0  0  0  0  0  0  0  0
  -26.8775  -30.0798   18.6709 C   0  0  0  0  0  0  0  0  0  0  0  0
  -24.5186   -9.3740   20.1437 C   0  0  0  0  0  0  0  0  0  0  0  0
  -22.1759  -15.5813   20.5376 C   0  0  0  0  0  0  0  0  0  0  0  0
  -24.3060  -10.5691   20.8572 C   0  0  0  0  0  0  0  0  0  0  0  0
  -22.8734  -16.6068   21.1918 C   0  0  0  0  0  0  0  0  0  0  0  0
  -29.6737  -25.7439   19.3455 C   0  0  0  0  0  0  0  0  0  0  0  0
  -21.0589  -16.7991   22.7983 C   0  0  0  0  0  0  0  0  0  0  0  0
  -30.4490  -23.9224   18.0792 C   0  0  0  0  0  0  0  0  0  0  0  0
  -30.3503  -22.4298   15.7244 C   0  0  0  0  0  0  0  0  0  0  0  0
  -30.1046  -22.5715   18.1237 C   0  0  0  0  0  0  0  0  0  0  0  0
  -27.1117  -29.0965   19.6507 C   0  0  0  0  0  0  0  0  0  0  0  0
  -17.7015  -26.0787   22.5579 C   0  0  0  0  0  0  0  0  0  0  0  0
  -17.5098  -23.9459   23.4912 C   0  0  0  0  0  0  0  0  0  0  0  0
  -25.9770  -30.9377   19.2536 C   0  0  0  0  0  0  0  0  0  0  0  0
  -27.4249  -30.2063   17.3518 C   0  0  0  0  0  0  0  0  0  0  0  0
  -24.9798  -14.1336   20.1552 C   0  0  0  0  0  0  0  0  0  0  0  0
  -25.7966  -16.9399   18.7480 C   0  0  0  0  0  0  0  0  0  0  0  0
  -25.2310  -20.2895   18.4210 C   0  0  0  0  0  0  0  0  0  0  0  0
  -21.9187  -30.2517   23.6024 C   0  0  0  0  0  0  0  0  0  0  0  0
  -25.7533   -9.1602   19.3044 C   0  0  0  0  0  0  0  0  0  0  0  0
  -22.7474  -14.9382   19.3038 C   0  0  0  0  0  0  0  0  0  0  0  0
  -24.2210  -17.0796   20.7136 C   0  0  0  0  0  0  0  0  0  0  0  0
  -26.4841  -10.4541   18.9552 C   0  0  0  0  0  0  0  0  0  0  0  0
  -24.6049  -32.5874   23.5299 C   0  0  0  0  0  0  0  0  0  0  0  0
  -26.6343  -11.3330   20.1929 C   0  0  0  0  0  0  0  0  0  0  0  0
  -25.5308  -32.0464   22.4391 C   0  0  0  0  0  0  0  0  0  0  0  0
  -23.9554  -31.4600   24.3293 C   0  0  0  0  0  0  0  0  0  0  0  0
  -24.1761  -29.9102   22.4258 C   0  0  0  0  0  0  0  0  0  0  0  0
  -19.7478  -27.4790   22.9641 C   0  0  0  0  0  0  0  0  0  0  0  0
  -17.4395  -21.6679   24.5594 C   0  0  0  0  0  0  0  0  0  0  0  0
  -19.3759  -22.4228   24.2213 C   0  0  0  0  0  0  0  0  0  0  0  0
  -17.9668  -28.3803   21.5865 C   0  0  0  0  0  0  0  0  0  0  0  0
  -25.2648  -11.7353   20.7533 C   0  0  1  0  0  0  0  0  0  0  0  0
  -24.2653  -15.0617   19.2141 C   0  0  1  0  0  0  0  0  0  0  0  0
  -24.8111  -31.0090   21.5565 C   0  0  2  0  0  0  0  0  0  0  0  0
  -19.9653  -28.9804   22.7498 C   0  0  2  0  0  0  0  0  0  0  0  0
  -18.8443  -21.1508   24.8939 C   0  0  0  0  0  0  0  0  0  0  0  0
  -19.2275  -29.2296   21.4427 C   0  0  2  0  0  0  0  0  0  0  0  0
  -26.0843  -22.3238   17.2248 C   0  0  0  0  0  0  0  0  0  0  0  0
  -28.1791  -17.0564   20.6508 C   0  0  0  0  0  0  0  0  0  0  0  0
  -28.4245  -19.4826   20.0836 C   0  0  0  0  0  0  0  0  0  0  0  0
  -28.6839  -17.7548   18.3030 C   0  0  0  0  0  0  0  0  0  0  0  0
  -22.6389  -20.7182   17.0585 C   0  0  0  0  0  0  0  0  0  0  0  0
  -18.6911  -18.6593   24.8067 C   0  0  0  0  0  0  0  0  0  0  0  0
  -19.0977  -17.4639   23.9678 C   0  0  0  0  0  0  0  0  0  1  0  0
  -26.3826  -18.2457   19.2279 C   0  0  1  0  0  0  0  0  0  0  0  0
  -25.0913  -21.1724   17.1940 C   0  0  2  0  0  0  0  0  0  0  0  0
  -27.8930  -18.1249   19.5767 C   0  0  0  0  0  0  0  0  0  0  0  0
  -16.4925  -25.9701   21.9690 N   0  0  0  0  0  0  0  0  0  0  0  0
  -16.2947  -23.7699   22.9320 N   0  0  0  0  0  0  0  0  0  0  0  0
  -26.4162  -29.3091   20.7711 N   0  0  0  0  0  0  0  0  0  0  0  0
  -25.7362  -30.4359   20.4988 N   0  0  0  0  0  0  0  0  0  0  0  0
  -18.4258  -27.2378   22.3797 N   0  0  3  0  0  0  0  0  0  0  0  0
  -18.0438  -22.9248   24.2700 N   0  0  0  0  0  0  0  0  0  0  0  0
  -24.7405  -16.4156   19.5067 N   0  0  0  0  0  0  0  0  0  0  0  0
  -23.2887  -30.5117   23.4336 N   0  0  0  0  0  0  0  0  0  0  0  0
  -25.3756  -32.0648   18.8174 N   0  0  0  0  0  0  0  0  0  0  0  0
  -28.3366  -29.2374   16.9110 N   0  0  0  0  0  0  0  0  0  0  0  0
  -24.6860  -12.7977   19.9591 N   0  0  0  0  0  0  0  0  0  0  0  0
  -26.0851  -19.2311   18.1940 N   0  0  0  0  0  0  0  0  0  0  0  0
  -21.3638  -29.3453   22.7072 N   0  0  0  0  0  0  0  0  0  0  0  0
  -18.8952  -30.6549   21.2696 N   0  3  0  0  0  0  0  0  0  0  0  0
  -19.2061  -19.8999   24.1741 N   0  3  0  0  0  0  0  0  0  0  0  0
  -23.7155  -21.7402   17.1184 N   0  3  0  0  0  0  0  0  0  0  0  0
  -27.1273  -31.1597   16.5928 O   0  0  0  0  0  0  0  0  0  0  0  0
  -25.7425  -14.5953   20.9960 O   0  0  0  0  0  0  0  0  0  0  0  0
  -26.2542  -16.4084   17.7333 O   0  0  0  0  0  0  0  0  0  0  0  0
  -24.6442  -20.5181   19.4764 O   0  0  0  0  0  0  0  0  0  0  0  0
  -21.2392  -30.7915   24.4820 O   0  0  0  0  0  0  0  0  0  0  0  0
  -30.4976  -24.6649   19.2471 O   0  0  0  0  0  0  0  0  0  0  0  0
  -20.5212  -17.3900   23.8999 O   0  0  0  0  0  0  0  0  0  1  0  0
  -30.3014  -21.7136   14.5936 F   0  0  0  0  0  0  0  0  0  0  0  0
  -29.8190  -21.9854   19.2945 F   0  0  0  0  0  0  0  0  0  0  0  0
  1  2  1  0  0  0  0
  1  5  2  0  0  0  0
  2  6  2  0  0  0  0
  3  8  2  0  0  0  0
  3 17  1  0  0  0  0
  4  9  1  0  0  0  0
  4 17  2  0  0  0  0
  5 19  1  0  0  0  0
  6 21  1  0  0  0  0
  7 10  2  0  0  0  0
  7 20  1  0  0  0  0
  8 23  1  0  0  0  0
  9 23  2  0  0  0  0
 10 24  1  0  0  0  0
 11 12  2  0  0  0  0
 11 25  1  0  0  0  0
 12 26  1  0  0  0  0
 13 22  1  0  0  0  0
 13 24  2  0  0  0  0
 14 26  2  0  0  0  0
 14 27  1  0  0  0  0
 15 29  2  0  0  0  0
 15 30  1  0  0  0  0
 16 66  2  0  0  0  0
 16 67  1  0  0  0  0
 17 28  1  0  0  0  0
 18 28  1  0  0  0  0
 18 31  2  0  0  0  0
 18 32  1  0  0  0  0
 19 21  2  0  0  0  0
 19 37  1  0  0  0  0
 20 22  2  0  0  0  0
 20 38  1  0  0  0  0
 21 50  1  0  0  0  0
 22 39  1  0  0  0  0
 23 87  1  0  0  0  0
 24 88  1  0  0  0  0
 25 27  2  0  0  0  0
 25 87  1  0  0  0  0
 26 89  1  0  0  0  0
 27 90  1  0  0  0  0
 28 68  2  0  0  0  0
 29 66  1  0  0  0  0
 29 70  1  0  0  0  0
 30 67  2  0  0  0  0
 30 71  1  0  0  0  0
 31 69  1  0  0  0  0
 31 74  1  0  0  0  0
 32 75  1  0  0  0  0
 32 82  2  0  0  0  0
 33 51  1  0  0  0  0
 33 76  1  0  0  0  0
 33 83  2  0  0  0  0
 34 63  1  0  0  0  0
 34 72  1  0  0  0  0
 34 84  2  0  0  0  0
 35 64  1  0  0  0  0
 35 77  1  0  0  0  0
 35 85  2  0  0  0  0
 36 73  1  0  0  0  0
 36 78  1  0  0  0  0
 36 86  2  0  0  0  0
 37 40  1  0  0  0  0
 38 51  1  0  0  0  0
 39 72  1  0  0  0  0
 40 42  1  0  0  0  0
 41 43  1  0  0  0  0
 41 44  1  0  0  0  0
 42 50  1  0  0  0  0
 43 52  1  0  0  0  0
 44 73  1  0  0  0  0
 45 52  1  0  0  0  0
 45 73  1  0  0  0  0
 46 53  1  0  0  0  0
 46 70  1  0  0  0  0
 47 54  1  0  0  0  0
 47 71  1  0  0  0  0
 48 54  1  0  0  0  0
 48 71  1  0  0  0  0
 49 55  1  0  0  0  0
 49 70  1  0  0  0  0
 50 76  1  0  0  0  0
 51 72  1  0  0  0  0
 52 69  1  0  0  0  0
 53 55  1  0  0  0  0
 53 78  1  0  0  0  0
 54 80  1  0  0  0  0
 55 79  1  0  0  0  0
 56 64  1  0  0  0  0
 57 65  1  0  0  0  0
 58 65  1  0  0  0  0
 59 65  1  0  0  0  0
 60 81  1  0  0  0  0
 61 62  1  0  0  0  0
 61 80  1  0  0  0  0
 62 88  1  0  0  0  0
 63 65  1  0  0  0  0
 63 77  1  0  0  0  0
 64 81  1  0  0  0  0
 68 69  1  0  0  0  0
M  CHG  3  79   1  80   1  81   1
M  ISO  4  36 100  62 101  78 100  88 101
M  END
> <Batch ID>
0195

> <Smiles>
CNC(C)C(=O)NC(C(=O)N1Cc2cc([101O:1][101CH2:1]CNC3CN(c4cc(N5CC(N)C([100NH:0][100C:0](=O)N6CCCC(n7nc(-c8ccc(Oc9ccc(F)cc9F)cc8)c(C(N)=O)c7N)C6)C5)ncn4)C3)ccc2CC1C(=O)NC1CCCc2ccccc21)C(C)(C)C

> <Shape>
0.236

> <Color>
0.058

> <Negative vol penalty>
0.000

$$$$

  -OEChem-04052323373D

 89 98  0     1  0  0  0  0  0999 V2000
  -20.7888  -30.9115   23.2580 C   0  0  0  0  0  0  0  0  0  0  0  0
  -20.8325  -29.9635   22.2408 C   0  0  0  0  0  0  0  0  0  0  0  0
  -26.8049  -12.9213   20.8645 C   0  0  0  0  0  0  0  0  0  0  0  0
  -27.5122  -12.3924   18.6157 C   0  0  0  0  0  0  0  0  0  0  0  0
  -21.9282  -31.6531   23.5675 C   0  0  0  0  0  0  0  0  0  0  0  0
  -22.0153  -29.7572   21.5317 C   0  0  0  0  0  0  0  0  0  0  0  0
  -23.0645  -24.8447   20.8903 C   0  0  0  0  0  0  0  0  0  0  0  0
  -26.2887  -11.6331   21.0051 C   0  0  0  0  0  0  0  0  0  0  0  0
  -26.9960  -11.1043   18.7563 C   0  0  0  0  0  0  0  0  0  0  0  0
  -22.3591  -24.1675   19.8965 C   0  0  0  0  0  0  0  0  0  0  0  0
  -24.4642   -8.5969   21.8276 C   0  0  0  0  0  0  0  0  0  0  0  0
  -23.1992   -8.4624   22.3997 C   0  0  0  0  0  0  0  0  0  0  0  0
  -24.2501  -24.3850   18.4146 C   0  0  0  0  0  0  0  0  0  0  0  0
  -22.2547   -9.8049   20.6269 C   0  0  0  0  0  0  0  0  0  0  0  0
  -25.3327  -25.7146   13.5097 C   0  0  0  0  0  0  0  0  0  0  0  0
  -27.4167  -13.3010   19.6698 C   0  0  0  0  0  0  0  0  0  0  0  0
  -29.2535  -15.0638   19.8321 C   0  0  0  0  0  0  0  0  0  0  0  0
  -23.1283  -31.4490   22.8683 C   0  0  0  0  0  0  0  0  0  0  0  0
  -24.3661  -25.3075   20.6496 C   0  0  0  0  0  0  0  0  0  0  0  0
  -23.1715  -30.4977   21.8313 C   0  0  0  0  0  0  0  0  0  0  0  0
  -24.9708  -25.0656   19.4079 C   0  0  0  0  0  0  0  0  0  0  0  0
  -26.3843  -10.7246   19.9510 C   0  0  0  0  0  0  0  0  0  0  0  0
  -22.9509  -23.9400   18.6575 C   0  0  0  0  0  0  0  0  0  0  0  0
  -24.6244   -9.3355   20.6551 C   0  0  0  0  0  0  0  0  0  0  0  0
  -22.0944   -9.0664   21.7993 C   0  0  0  0  0  0  0  0  0  0  0  0
  -23.5197   -9.9394   20.0548 C   0  0  0  0  0  0  0  0  0  0  0  0
  -27.9496  -14.6317   19.5238 C   0  0  0  0  0  0  0  0  0  0  0  0
  -23.3856  -26.8321   13.0744 C   0  0  0  0  0  0  0  0  0  0  0  0
  -22.6653  -25.7034   13.3982 C   0  0  0  0  0  0  0  0  0  0  0  0
  -24.6125  -24.5861   13.8343 C   0  0  0  0  0  0  0  0  0  0  0  0
  -29.2555  -16.4007   19.5174 C   0  0  0  0  0  0  0  0  0  0  0  0
  -30.3635  -14.3229   20.3560 C   0  0  0  0  0  0  0  0  0  0  0  0
  -25.7556  -28.1658   20.5915 C   0  0  0  0  0  0  0  0  0  0  0  0
  -28.4585  -26.4123   20.2144 C   0  0  0  0  0  0  0  0  0  0  0  0
  -29.8963  -23.4852   19.2085 C   0  0  0  0  0  0  0  0  0  0  0  0
  -27.3097  -20.0491   15.7779 C   0  0  0  0  0  0  0  0  0  0  0  0
  -24.3208  -32.3080   23.2071 C   0  0  0  0  0  0  0  0  0  0  0  0
  -25.1234  -26.0129   21.7411 C   0  0  0  0  0  0  0  0  0  0  0  0
  -26.3733  -25.5242   19.1060 C   0  0  0  0  0  0  0  0  0  0  0  0
  -25.6380  -31.7648   22.6591 C   0  0  0  0  0  0  0  0  0  0  0  0
  -25.7810  -19.8591   18.9348 C   0  0  0  0  0  0  0  0  0  0  0  0
  -25.4784  -31.3493   21.2001 C   0  0  0  0  0  0  0  0  0  0  0  0
  -26.3127  -18.5220   19.4498 C   0  0  0  0  0  0  0  0  0  0  0  0
  -25.4218  -19.7991   17.4493 C   0  0  0  0  0  0  0  0  0  0  0  0
  -26.6062  -23.5843   14.9065 C   0  0  0  0  0  0  0  0  0  0  0  0
  -24.5339  -22.2356   14.5425 C   0  0  0  0  0  0  0  0  0  0  0  0
  -27.4350  -22.3075   14.7941 C   0  0  0  0  0  0  0  0  0  0  0  0
  -25.3994  -20.9860   14.4240 C   0  0  0  0  0  0  0  0  0  0  0  0
  -27.0506  -17.9706   17.1006 C   0  0  0  0  0  0  0  0  0  0  0  0
  -24.4428  -30.2277   21.0560 C   0  0  1  0  0  0  0  0  0  0  0  0
  -26.2533  -26.8914   21.2128 C   0  0  1  0  0  0  0  0  0  0  0  0
  -27.4750  -18.0165   18.5767 C   0  0  2  0  0  0  0  0  0  0  0  0
  -22.6713  -29.1350   13.7622 C   0  0  0  0  0  0  0  0  0  0  0  0
  -32.1292  -22.3619   18.9856 C   0  0  0  0  0  0  0  0  0  0  0  0
  -29.0555  -28.0954   17.7403 C   0  0  0  0  0  0  0  0  0  0  0  0
  -30.7210  -26.3594   17.0469 C   0  0  0  0  0  0  0  0  0  0  0  0
  -31.0437  -27.6136   19.1789 C   0  0  0  0  0  0  0  0  0  0  0  0
  -29.1237  -21.3211   21.0736 C   0  0  0  0  0  0  0  0  0  0  0  0
  -22.7091  -28.0903   12.6493 C   0  0  0  0  0  0  0  0  0  0  0  0
  -21.1762  -25.6878   13.3382 C   0  0  0  0  0  0  0  0  0  0  0  0
  -20.5320  -24.4945   14.0462 C   0  0  0  0  0  0  0  0  0  0  0  0
  -20.3231  -23.3626   16.2629 C   0  0  0  0  0  0  0  0  0  0  0  0
  -20.8449  -23.4149   17.6852 C   0  0  0  0  0  0  0  0  0  1  0  0
  -29.2223  -25.8662   19.0323 C   0  0  1  0  0  0  0  0  0  0  0  0
  -30.9172  -22.5825   19.8773 C   0  0  2  0  0  0  0  0  0  0  0  0
  -29.9835  -26.9766   18.2543 C   0  0  0  0  0  0  0  0  0  0  0  0
  -24.7321  -26.8579   13.1240 N   0  0  0  0  0  0  0  0  0  0  0  0
  -27.1792  -15.6145   19.0498 N   0  0  0  0  0  0  0  0  0  0  0  0
  -23.2659  -24.5603   13.7843 N   0  0  0  0  0  0  0  0  0  0  0  0
  -28.0015  -16.6774   19.0580 N   0  0  0  0  0  0  0  0  0  0  0  0
  -25.3149  -23.4392   14.2258 N   0  0  0  0  0  0  0  0  0  0  0  0
  -27.0704  -26.2149   20.2034 N   0  0  0  0  0  0  0  0  0  0  0  0
  -26.5457  -19.2736   16.6627 N   0  0  0  0  0  0  0  0  0  0  0  0
  -26.6600  -21.1267   15.1557 N   0  0  0  0  0  0  0  0  0  0  0  0
  -30.2076  -17.3549   19.5918 N   0  0  0  0  0  0  0  0  0  0  0  0
  -30.1895  -12.9580   20.6230 N   0  0  0  0  0  0  0  0  0  0  0  0
  -25.0152  -28.9577   21.4483 N   0  0  0  0  0  0  0  0  0  0  0  0
  -30.0797  -24.8074   19.5541 N   0  0  0  0  0  0  0  0  0  0  0  0
  -30.3124  -21.2556   20.1850 N   0  3  0  0  0  0  0  0  0  0  0  0
  -20.9444  -24.4589   15.4710 N   0  3  0  0  0  0  0  0  0  0  0  0
  -31.4719  -14.8590   20.5961 O   0  0  0  0  0  0  0  0  0  0  0  0
  -26.0248  -28.4130   19.4219 O   0  0  0  0  0  0  0  0  0  0  0  0
  -29.0717  -26.9864   21.1177 O   0  0  0  0  0  0  0  0  0  0  0  0
  -29.0257  -23.0605   18.4520 O   0  0  0  0  0  0  0  0  0  0  0  0
  -28.5011  -19.7979   15.5580 O   0  0  0  0  0  0  0  0  0  0  0  0
  -25.8808   -9.4675   20.0879 O   0  0  0  0  0  0  0  0  0  0  0  0
  -22.2595  -23.2751   17.6785 O   0  0  0  0  0  0  0  0  0  1  0  0
  -20.8795   -8.9358   22.3480 F   0  0  0  0  0  0  0  0  0  0  0  0
  -23.6672  -10.6492   18.9277 F   0  0  0  0  0  0  0  0  0  0  0  0
  1  2  1  0  0  0  0
  1  5  2  0  0  0  0
  2  6  2  0  0  0  0
  3  8  2  0  0  0  0
  3 16  1  0  0  0  0
  4  9  1  0  0  0  0
  4 16  2  0  0  0  0
  5 18  1  0  0  0  0
  6 20  1  0  0  0  0
  7 10  2  0  0  0  0
  7 19  1  0  0  0  0
  8 22  1  0  0  0  0
  9 22  2  0  0  0  0
 10 23  1  0  0  0  0
 11 12  2  0  0  0  0
 11 24  1  0  0  0  0
 12 25  1  0  0  0  0
 13 21  1  0  0  0  0
 13 23  2  0  0  0  0
 14 25  2  0  0  0  0
 14 26  1  0  0  0  0
 15 30  1  0  0  0  0
 15 67  2  0  0  0  0
 16 27  1  0  0  0  0
 17 27  1  0  0  0  0
 17 31  2  0  0  0  0
 17 32  1  0  0  0  0
 18 20  2  0  0  0  0
 18 37  1  0  0  0  0
 19 21  2  0  0  0  0
 19 38  1  0  0  0  0
 20 50  1  0  0  0  0
 21 39  1  0  0  0  0
 22 86  1  0  0  0  0
 23 87  1  0  0  0  0
 24 26  2  0  0  0  0
 24 86  1  0  0  0  0
 25 88  1  0  0  0  0
 26 89  1  0  0  0  0
 27 68  2  0  0  0  0
 28 29  2  0  0  0  0
 28 59  1  0  0  0  0
 28 67  1  0  0  0  0
 29 60  1  0  0  0  0
 29 69  1  0  0  0  0
 30 69  2  0  0  0  0
 30 71  1  0  0  0  0
 31 70  1  0  0  0  0
 31 75  1  0  0  0  0
 32 76  1  0  0  0  0
 32 81  2  0  0  0  0
 33 51  1  0  0  0  0
 33 77  1  0  0  0  0
 33 82  2  0  0  0  0
 34 64  1  0  0  0  0
 34 72  1  0  0  0  0
 34 83  2  0  0  0  0
 35 65  1  0  0  0  0
 35 78  1  0  0  0  0
 35 84  2  0  0  0  0
 36 73  1  0  0  0  0
 36 74  1  0  0  0  0
 36 85  2  0  0  0  0
 37 40  1  0  0  0  0
 38 51  1  0  0  0  0
 39 72  1  0  0  0  0
 40 42  1  0  0  0  0
 41 43  1  0  0  0  0
 41 44  1  0  0  0  0
 42 50  1  0  0  0  0
 43 52  1  0  0  0  0
 44 73  1  0  0  0  0
 45 47  1  0  0  0  0
 45 71  1  0  0  0  0
 46 48  1  0  0  0  0
 46 71  1  0  0  0  0
 47 74  1  0  0  0  0
 48 74  1  0  0  0  0
 49 52  1  0  0  0  0
 49 73  1  0  0  0  0
 50 77  1  0  0  0  0
 51 72  1  0  0  0  0
 52 70  1  0  0  0  0
 53 59  1  0  0  0  0
 54 65  1  0  0  0  0
 55 66  1  0  0  0  0
 56 66  1  0  0  0  0
 57 66  1  0  0  0  0
 58 79  1  0  0  0  0
 60 61  1  0  0  0  0
 61 80  1  0  0  0  0
 62 63  1  0  0  0  0
 62 80  1  0  0  0  0
 63 87  1  0  0  0  0
 64 66  1  0  0  0  0
 64 78  1  0  0  0  0
 65 79  1  0  0  0  0
 68 70  1  0  0  0  0
M  CHG  2  79   1  80   1
M  ISO  4  36 100  63 101  74 100  87 101
M  END
> <Batch ID>
0195

> <Smiles>
CCc1ncc(N2CC[100N:0]([100C:0](=O)N3CCCC(n4nc(-c5ccc(Oc6ccc(F)cc6F)cc5)c(C(N)=O)c4N)C3)CC2)nc1CCNC[101CH2:1][101O:1]c1ccc2c(c1)CN(C(=O)C(NC(=O)C(C)NC)C(C)(C)C)C(C(=O)NC1CCCc3ccccc31)C2

> <Shape>
0.233

> <Color>
0.063

> <Negative vol penalty>
0.000

$$$$

  -OEChem-04052323372D

  0  0  0     0  0  0  0  0  0999 V2000
M  END
$$$$

  -OEChem-04052323373D

 84 94  0     1  0  0  0  0  0999 V2000
  -26.6414  -33.4641   26.3406 C   0  0  0  0  0  0  0  0  0  0  0  0
  -27.0731  -32.3744   25.5912 C   0  0  0  0  0  0  0  0  0  0  0  0
  -22.0940  -10.4602   20.8974 C   0  0  0  0  0  0  0  0  0  0  0  0
  -23.1470  -10.0019   23.0230 C   0  0  0  0  0  0  0  0  0  0  0  0
  -25.3136  -33.5386   26.7594 C   0  0  0  0  0  0  0  0  0  0  0  0
  -26.1774  -31.3579   25.2610 C   0  0  0  0  0  0  0  0  0  0  0  0
  -26.5630  -29.9260   20.4189 C   0  0  0  0  0  0  0  0  0  0  0  0
  -21.9646   -9.0908   20.6662 C   0  0  0  0  0  0  0  0  0  0  0  0
  -23.0176   -8.6324   22.7919 C   0  0  0  0  0  0  0  0  0  0  0  0
  -27.6259  -29.0878   20.0855 C   0  0  0  0  0  0  0  0  0  0  0  0
  -20.5855   -6.2941   22.9860 C   0  0  0  0  0  0  0  0  0  0  0  0
  -20.1231   -5.5019   24.0368 C   0  0  0  0  0  0  0  0  0  0  0  0
  -26.1389  -27.1892   20.1432 C   0  0  0  0  0  0  0  0  0  0  0  0
  -22.1743   -4.2266   23.9777 C   0  0  0  0  0  0  0  0  0  0  0  0
  -22.6853  -10.9158   22.0758 C   0  0  0  0  0  0  0  0  0  0  0  0
  -21.7846  -13.2810   22.3953 C   0  0  0  0  0  0  0  0  0  0  0  0
  -24.3989  -32.5273   26.4259 C   0  0  0  0  0  0  0  0  0  0  0  0
  -25.2800  -29.3999   20.6280 C   0  0  0  0  0  0  0  0  0  0  0  0
  -24.8365  -31.4183   25.6768 C   0  0  0  0  0  0  0  0  0  0  0  0
  -25.0608  -28.0232   20.4767 C   0  0  0  0  0  0  0  0  0  0  0  0
  -22.4264   -8.1769   21.6134 C   0  0  0  0  0  0  0  0  0  0  0  0
  -27.4146  -27.7188   19.9505 C   0  0  0  0  0  0  0  0  0  0  0  0
  -21.8422   -6.0526   22.4309 C   0  0  0  0  0  0  0  0  0  0  0  0
  -20.9175   -4.4681   24.5326 C   0  0  0  0  0  0  0  0  0  0  0  0
  -22.6366   -5.0188   22.9268 C   0  0  0  0  0  0  0  0  0  0  0  0
  -22.8197  -12.3303   22.3150 C   0  0  0  0  0  0  0  0  0  0  0  0
  -22.4286  -14.4704   22.6345 C   0  0  0  0  0  0  0  0  0  0  0  0
  -20.3676  -13.1049   22.2654 C   0  0  0  0  0  0  0  0  0  0  0  0
  -23.2759  -29.2877   23.0926 C   0  0  0  0  0  0  0  0  0  0  0  0
  -21.2589  -28.0150   20.8939 C   0  0  0  0  0  0  0  0  0  0  0  0
  -20.8698  -26.3483   17.9414 C   0  0  0  0  0  0  0  0  0  0  0  0
  -26.3135  -18.0674   21.7306 C   0  0  0  0  0  0  0  0  0  0  0  0
  -22.9851  -32.6284   26.9414 C   0  0  0  0  0  0  0  0  0  0  0  0
  -24.1385  -30.3209   20.9609 C   0  0  0  0  0  0  0  0  0  0  0  0
  -23.6984  -27.4112   20.6706 C   0  0  0  0  0  0  0  0  0  0  0  0
  -22.0095  -31.6936   26.2310 C   0  0  0  0  0  0  0  0  0  0  0  0
  -27.2296  -15.4367   23.8726 C   0  0  0  0  0  0  0  0  0  0  0  0
  -22.6025  -30.2933   26.1122 C   0  0  0  0  0  0  0  0  0  0  0  0
  -26.0730  -14.4593   23.6651 C   0  0  0  0  0  0  0  0  0  0  0  0
  -30.7083  -22.5035   17.8075 C   0  0  0  0  0  0  0  0  0  0  0  0
  -30.6095  -21.0098   18.1957 C   0  0  0  0  0  0  0  0  0  0  0  0
  -27.6679  -16.0926   22.5620 C   0  0  0  0  0  0  0  0  0  0  0  0
  -28.7506  -18.4361   21.1361 C   0  0  0  0  0  0  0  0  0  0  0  0
  -27.3274  -20.3235   21.8629 C   0  0  0  0  0  0  0  0  0  0  0  0
  -25.4080  -15.7649   21.6107 C   0  0  0  0  0  0  0  0  0  0  0  0
  -28.0403  -24.3964   19.6738 C   0  0  0  0  0  0  0  0  0  0  0  0
  -29.2819  -25.0303   18.1305 C   0  0  0  0  0  0  0  0  0  0  0  0
  -29.0767  -19.1699   19.8377 C   0  0  0  0  0  0  0  0  0  0  0  0
  -27.6117  -21.0728   20.5698 C   0  0  0  0  0  0  0  0  0  0  0  0
  -23.8889  -30.3080   25.2776 C   0  0  1  0  0  0  0  0  0  0  0  0
  -22.9806  -29.6106   21.6552 C   0  0  1  0  0  0  0  0  0  0  0  0
  -24.9077  -15.1330   22.9189 C   0  0  1  0  0  0  0  0  0  0  0  0
  -29.7317  -22.7861   18.9719 C   0  0  2  0  0  0  0  0  0  0  0  0
  -29.2198  -21.3366   18.7959 C   0  0  2  0  0  0  0  0  0  0  0  0
  -28.1180  -25.7166   18.8770 C   0  0  0  0  0  0  0  0  0  1  0  0
  -19.1020  -25.4174   16.4229 C   0  0  0  0  0  0  0  0  0  0  0  0
  -20.8547  -25.6712   22.8052 C   0  0  0  0  0  0  0  0  0  0  0  0
  -19.8824  -24.3736   20.8976 C   0  0  0  0  0  0  0  0  0  0  0  0
  -18.7706  -26.4671   21.6750 C   0  0  0  0  0  0  0  0  0  0  0  0
  -21.7006  -28.1029   15.7075 C   0  0  0  0  0  0  0  0  0  0  0  0
  -20.9519  -26.6198   20.4059 C   0  0  1  0  0  0  0  0  0  0  0  0
  -19.9790  -26.6181   16.7421 C   0  0  2  0  0  0  0  0  0  0  0  0
  -20.1411  -25.7939   21.4441 C   0  0  0  0  0  0  0  0  0  0  0  0
  -24.0294  -12.8692   22.4888 N   0  0  0  0  0  0  0  0  0  0  0  0
  -23.7585  -14.1714   22.6807 N   0  0  0  0  0  0  0  0  0  0  0  0
  -22.6156  -28.3523   21.0012 N   0  0  0  0  0  0  0  0  0  0  0  0
  -26.5173  -16.6861   21.8666 N   0  0  0  0  0  0  0  0  0  0  0  0
  -27.4575  -18.8777   21.6782 N   0  0  0  0  0  0  0  0  0  0  0  0
  -28.6997  -23.7289   18.5289 N   0  0  0  0  0  0  0  0  0  0  0  0
  -21.9814  -15.7323   22.8075 N   0  0  0  0  0  0  0  0  0  0  0  0
  -19.6206  -12.8259   23.4180 N   0  0  0  0  0  0  0  0  0  0  0  0
  -23.5755  -30.3921   23.8673 N   0  0  0  0  0  0  0  0  0  0  0  0
  -20.2879  -26.7754   19.1162 N   0  0  0  0  0  0  0  0  0  0  0  0
  -28.9664  -20.6512   20.0693 N   0  3  0  0  0  0  0  0  0  0  0  0
  -20.8061  -26.9284   15.5419 N   0  3  0  0  0  0  0  0  0  0  0  0
  -19.7836  -13.1760   21.1576 O   0  0  0  0  0  0  0  0  0  0  0  0
  -23.2336  -28.1230   23.4713 O   0  0  0  0  0  0  0  0  0  0  0  0
  -20.3293  -28.7799   21.1629 O   0  0  0  0  0  0  0  0  0  0  0  0
  -21.9700  -25.8089   17.8459 O   0  0  0  0  0  0  0  0  0  0  0  0
  -25.1757  -18.5487   21.6592 O   0  0  0  0  0  0  0  0  0  0  0  0
  -22.3001   -6.8405   21.3883 O   0  0  0  0  0  0  0  0  0  0  0  0
  -28.4529  -26.8964   19.6251 O   0  0  0  0  0  0  0  0  0  1  0  0
  -20.4741   -3.7084   25.5428 F   0  0  0  0  0  0  0  0  0  0  0  0
  -23.8453   -4.7827   22.3985 F   0  0  0  0  0  0  0  0  0  0  0  0
  1  2  1  0  0  0  0
  1  5  2  0  0  0  0
  2  6  2  0  0  0  0
  3  8  2  0  0  0  0
  3 15  1  0  0  0  0
  4  9  1  0  0  0  0
  4 15  2  0  0  0  0
  5 17  1  0  0  0  0
  6 19  1  0  0  0  0
  7 10  2  0  0  0  0
  7 18  1  0  0  0  0
  8 21  1  0  0  0  0
  9 21  2  0  0  0  0
 10 22  1  0  0  0  0
 11 12  2  0  0  0  0
 11 23  1  0  0  0  0
 12 24  1  0  0  0  0
 13 20  1  0  0  0  0
 13 22  2  0  0  0  0
 14 24  2  0  0  0  0
 14 25  1  0  0  0  0
 15 26  1  0  0  0  0
 16 26  1  0  0  0  0
 16 27  2  0  0  0  0
 16 28  1  0  0  0  0
 17 19  2  0  0  0  0
 17 33  1  0  0  0  0
 18 20  2  0  0  0  0
 18 34  1  0  0  0  0
 19 50  1  0  0  0  0
 20 35  1  0  0  0  0
 21 81  1  0  0  0  0
 22 82  1  0  0  0  0
 23 25  2  0  0  0  0
 23 81  1  0  0  0  0
 24 83  1  0  0  0  0
 25 84  1  0  0  0  0
 26 64  2  0  0  0  0
 27 65  1  0  0  0  0
 27 70  1  0  0  0  0
 28 71  1  0  0  0  0
 28 76  2  0  0  0  0
 29 51  1  0  0  0  0
 29 72  1  0  0  0  0
 29 77  2  0  0  0  0
 30 61  1  0  0  0  0
 30 66  1  0  0  0  0
 30 78  2  0  0  0  0
 31 62  1  0  0  0  0
 31 73  1  0  0  0  0
 31 79  2  0  0  0  0
 32 67  1  0  0  0  0
 32 68  1  0  0  0  0
 32 80  2  0  0  0  0
 33 36  1  0  0  0  0
 34 51  1  0  0  0  0
 35 66  1  0  0  0  0
 36 38  1  0  0  0  0
 37 39  1  0  0  0  0
 37 42  1  0  0  0  0
 38 50  1  0  0  0  0
 39 52  1  0  0  0  0
 40 41  1  0  0  0  0
 40 53  1  0  0  0  0
 41 54  1  0  0  0  0
 42 67  1  0  0  0  0
 43 48  1  0  0  0  0
 43 68  1  0  0  0  0
 44 49  1  0  0  0  0
 44 68  1  0  0  0  0
 45 52  1  0  0  0  0
 45 67  1  0  0  0  0
 46 55  1  0  0  0  0
 46 69  1  0  0  0  0
 47 55  1  0  0  0  0
 47 69  1  0  0  0  0
 48 74  1  0  0  0  0
 49 74  1  0  0  0  0
 50 72  1  0  0  0  0
 51 66  1  0  0  0  0
 52 65  1  0  0  0  0
 53 54  1  0  0  0  0
 53 69  1  0  0  0  0
 54 74  1  0  0  0  0
 55 82  1  0  0  0  0
 56 62  1  0  0  0  0
 57 63  1  0  0  0  0
 58 63  1  0  0  0  0
 59 63  1  0  0  0  0
 60 75  1  0  0  0  0
 61 63  1  0  0  0  0
 61 73  1  0  0  0  0
 62 75  1  0  0  0  0
 64 65  1  0  0  0  0
M  CHG  2  74   1  75   1
M  ISO  4  32 100  55 101  68 100  82 101
M  END
> <Batch ID>
0195

> <Smiles>
CNC(C)C(=O)NC(C(=O)N1Cc2cc([101O:1][101CH:1]3CN(C4CCC4N4CC[100N:0]([100C:0](=O)N5CCCC(n6nc(-c7ccc(Oc8ccc(F)cc8F)cc7)c(C(N)=O)c6N)C5)CC4)C3)ccc2CC1C(=O)NC1CCCc2ccccc21)C(C)(C)C

> <Shape>
0.284

> <Color>
0.080

> <Negative vol penalty>
0.000

$$$$

  -OEChem-04052323373D

 85 95  0     1  0  0  0  0  0999 V2000
  -22.8181  -37.3956   16.8409 C   0  0  0  0  0  0  0  0  0  0  0  0
  -23.1065  -36.0951   16.4396 C   0  0  0  0  0  0  0  0  0  0  0  0
  -24.9202   -7.9926   21.5226 C   0  0  0  0  0  0  0  0  0  0  0  0
  -24.3791   -7.4124   19.2406 C   0  0  0  0  0  0  0  0  0  0  0  0
  -23.4043  -37.9141   17.9948 C   0  0  0  0  0  0  0  0  0  0  0  0
  -23.9822  -35.3127   17.1915 C   0  0  0  0  0  0  0  0  0  0  0  0
  -25.1490  -28.5090   19.1057 C   0  0  0  0  0  0  0  0  0  0  0  0
  -23.6985   -7.4691   21.9455 C   0  0  0  0  0  0  0  0  0  0  0  0
  -23.1574   -6.8887   19.6635 C   0  0  0  0  0  0  0  0  0  0  0  0
  -26.1624  -27.5516   19.1157 C   0  0  0  0  0  0  0  0  0  0  0  0
  -20.8781   -5.9591   23.6718 C   0  0  0  0  0  0  0  0  0  0  0  0
  -20.8785   -5.1449   24.8043 C   0  0  0  0  0  0  0  0  0  0  0  0
  -27.0544  -28.5254   21.1344 C   0  0  0  0  0  0  0  0  0  0  0  0
  -22.3747   -3.6049   23.6966 C   0  0  0  0  0  0  0  0  0  0  0  0
  -25.2605   -7.9643   20.1702 C   0  0  0  0  0  0  0  0  0  0  0  0
  -27.7466   -7.8205   19.6163 C   0  0  0  0  0  0  0  0  0  0  0  0
  -24.2801  -37.1343   18.7665 C   0  0  0  0  0  0  0  0  0  0  0  0
  -25.0870  -29.4901   20.1057 C   0  0  0  0  0  0  0  0  0  0  0  0
  -24.5817  -35.8216   18.3561 C   0  0  0  0  0  0  0  0  0  0  0  0
  -26.0378  -29.4926   21.1363 C   0  0  0  0  0  0  0  0  0  0  0  0
  -22.8171   -6.9171   21.0159 C   0  0  0  0  0  0  0  0  0  0  0  0
  -27.1170  -27.5614   20.1285 C   0  0  0  0  0  0  0  0  0  0  0  0
  -21.6258   -5.5961   22.5516 C   0  0  0  0  0  0  0  0  0  0  0  0
  -21.6269   -3.9678   24.8168 C   0  0  0  0  0  0  0  0  0  0  0  0
  -22.3741   -4.4191   22.5640 C   0  0  0  0  0  0  0  0  0  0  0  0
  -26.5222   -8.5055   19.7327 C   0  0  0  0  0  0  0  0  0  0  0  0
  -28.6298   -8.7703   19.1645 C   0  0  0  0  0  0  0  0  0  0  0  0
  -28.0576   -6.4483   19.8920 C   0  0  0  0  0  0  0  0  0  0  0  0
  -25.2644  -32.6635   20.1486 C   0  0  0  0  0  0  0  0  0  0  0  0
  -24.5257  -32.2735   23.2830 C   0  0  0  0  0  0  0  0  0  0  0  0
  -24.5268  -30.2479   26.0296 C   0  0  0  0  0  0  0  0  0  0  0  0
  -28.3094  -14.7816   19.6908 C   0  0  0  0  0  0  0  0  0  0  0  0
  -24.9263  -37.7542   19.9801 C   0  0  0  0  0  0  0  0  0  0  0  0
  -23.9719  -30.4996   20.0956 C   0  0  0  0  0  0  0  0  0  0  0  0
  -26.0036  -30.5122   22.2443 C   0  0  0  0  0  0  0  0  0  0  0  0
  -25.5518  -36.7323   20.9259 C   0  0  0  0  0  0  0  0  0  0  0  0
  -28.8156  -12.8001   16.5968 C   0  0  0  0  0  0  0  0  0  0  0  0
  -26.3813  -35.7188   20.1439 C   0  0  0  0  0  0  0  0  0  0  0  0
  -28.3453  -11.4160   17.0466 C   0  0  0  0  0  0  0  0  0  0  0  0
  -29.5513  -17.8359   18.0659 C   0  0  0  0  0  0  0  0  0  0  0  0
  -29.9888  -25.6829   18.9699 C   0  0  0  0  0  0  0  0  0  0  0  0
  -28.0600  -13.8983   17.3335 C   0  0  0  0  0  0  0  0  0  0  0  0
  -28.9570  -16.4473   17.8522 C   0  0  0  0  0  0  0  0  0  0  0  0
  -27.6765  -12.4318   19.2776 C   0  0  0  0  0  0  0  0  0  0  0  0
  -28.3694  -17.2343   20.0464 C   0  0  0  0  0  0  0  0  0  0  0  0
  -29.8924  -24.3275   19.6408 C   0  0  0  0  0  0  0  0  0  0  0  0
  -28.2856  -20.2626   20.6914 C   0  0  0  0  0  0  0  0  0  0  0  0
  -29.3891  -20.7331   18.9810 C   0  0  0  0  0  0  0  0  0  0  0  0
  -27.7715  -24.8543   18.5344 C   0  0  0  0  0  0  0  0  0  0  0  0
  -25.5073  -34.9333   19.1587 C   0  0  1  0  0  0  0  0  0  0  0  0
  -24.3053  -31.7660   20.8782 C   0  0  1  0  0  0  0  0  0  0  0  0
  -28.9168  -21.5766   20.1842 C   0  0  0  0  0  0  0  0  0  0  0  0
  -28.4130  -11.2755   18.5782 C   0  0  1  0  0  0  0  0  0  0  0  0
  -28.6205  -18.4119   19.1225 C   0  0  1  0  0  0  0  0  0  0  0  0
  -28.5378  -26.1225   18.8767 C   0  0  1  0  0  0  0  0  0  1  0  0
  -23.8924  -30.2206   28.4574 C   0  0  0  0  0  0  0  0  0  0  0  0
  -26.9885  -33.9495   23.9430 C   0  0  0  0  0  0  0  0  0  0  0  0
  -26.8476  -33.1040   26.2953 C   0  0  0  0  0  0  0  0  0  0  0  0
  -24.9782  -34.4533   25.3427 C   0  0  0  0  0  0  0  0  0  0  0  0
  -22.5994  -28.0396   25.6205 C   0  0  0  0  0  0  0  0  0  0  0  0
  -27.9702  -22.7203   19.8879 C   0  0  0  0  0  0  0  0  0  0  0  0
  -25.3194  -32.0762   24.5519 C   0  0  1  0  0  0  0  0  0  0  0  0
  -23.4409  -29.9166   27.0373 C   0  0  2  0  0  0  0  0  0  0  0  0
  -26.0355  -33.3776   25.0114 C   0  0  0  0  0  0  0  0  0  0  0  0
  -26.6155   -9.7912   19.3831 N   0  0  0  0  0  0  0  0  0  0  0  0
  -27.9090   -9.9217   19.0427 N   0  0  0  0  0  0  0  0  0  0  0  0
  -24.8975  -31.4822   22.1869 N   0  0  0  0  0  0  0  0  0  0  0  0
  -28.1560  -13.7252   18.7857 N   0  0  0  0  0  0  0  0  0  0  0  0
  -28.4287  -16.0680   19.1669 N   0  0  0  0  0  0  0  0  0  0  0  0
  -29.9450   -8.7246   18.8635 N   0  0  0  0  0  0  0  0  0  0  0  0
  -27.0320   -5.6096   20.3492 N   0  0  0  0  0  0  0  0  0  0  0  0
  -24.7529  -33.9131   19.8547 N   0  0  0  0  0  0  0  0  0  0  0  0
  -24.3901  -31.5271   25.5334 N   0  0  0  0  0  0  0  0  0  0  0  0
  -29.2498  -19.5343   19.8374 N   0  3  0  0  0  0  0  0  0  0  0  0
  -28.6550  -23.7073   19.0212 N   0  3  2  0  0  0  0  0  0  0  0  0
  -23.0829  -28.4722   26.9570 N   0  3  0  0  0  0  0  0  0  0  0  0
  -29.2145   -5.9838   19.7530 O   0  0  0  0  0  0  0  0  0  0  0  0
  -26.3860  -32.2533   19.8740 O   0  0  0  0  0  0  0  0  0  0  0  0
  -23.6049  -33.0943   23.2671 O   0  0  0  0  0  0  0  0  0  0  0  0
  -25.4103  -29.4528   25.7168 O   0  0  0  0  0  0  0  0  0  0  0  0
  -28.3855  -14.5798   20.9100 O   0  0  0  0  0  0  0  0  0  0  0  0
  -21.6249   -6.4059   21.4282 O   0  0  0  0  0  0  0  0  0  0  0  0
  -28.1141  -26.6224   20.1403 O   0  0  0  0  0  0  0  0  0  1  0  0
  -21.6285   -3.1869   25.9050 F   0  0  0  0  0  0  0  0  0  0  0  0
  -23.0954   -4.0658   21.4913 F   0  0  0  0  0  0  0  0  0  0  0  0
  1  2  1  0  0  0  0
  1  5  2  0  0  0  0
  2  6  2  0  0  0  0
  3  8  2  0  0  0  0
  3 15  1  0  0  0  0
  4  9  1  0  0  0  0
  4 15  2  0  0  0  0
  5 17  1  0  0  0  0
  6 19  1  0  0  0  0
  7 10  2  0  0  0  0
  7 18  1  0  0  0  0
  8 21  1  0  0  0  0
  9 21  2  0  0  0  0
 10 22  1  0  0  0  0
 11 12  2  0  0  0  0
 11 23  1  0  0  0  0
 12 24  1  0  0  0  0
 13 20  1  0  0  0  0
 13 22  2  0  0  0  0
 14 24  2  0  0  0  0
 14 25  1  0  0  0  0
 15 26  1  0  0  0  0
 16 26  1  0  0  0  0
 16 27  2  0  0  0  0
 16 28  1  0  0  0  0
 17 19  2  0  0  0  0
 17 33  1  0  0  0  0
 18 20  2  0  0  0  0
 18 34  1  0  0  0  0
 19 50  1  0  0  0  0
 20 35  1  0  0  0  0
 21 82  1  0  0  0  0
 22 83  1  0  0  0  0
 23 25  2  0  0  0  0
 23 82  1  0  0  0  0
 24 84  1  0  0  0  0
 25 85  1  0  0  0  0
 26 65  2  0  0  0  0
 27 66  1  0  0  0  0
 27 70  1  0  0  0  0
 28 71  1  0  0  0  0
 28 77  2  0  0  0  0
 29 51  1  0  0  0  0
 29 72  1  0  0  0  0
 29 78  2  0  0  0  0
 30 62  1  0  0  0  0
 30 67  1  0  0  0  0
 30 79  2  0  0  0  0
 31 63  1  0  0  0  0
 31 73  1  0  0  0  0
 31 80  2  0  0  0  0
 32 68  1  0  0  0  0
 32 69  1  0  0  0  0
 32 81  2  0  0  0  0
 33 36  1  0  0  0  0
 34 51  1  0  0  0  0
 35 67  1  0  0  0  0
 36 38  1  0  0  0  0
 37 39  1  0  0  0  0
 37 42  1  0  0  0  0
 38 50  1  0  0  0  0
 39 53  1  0  0  0  0
 40 43  1  0  0  0  0
 40 54  1  0  0  0  0
 41 46  1  0  0  0  0
 41 55  1  0  0  0  0
 42 68  1  0  0  0  0
 43 69  1  0  0  0  0
 44 53  1  0  0  0  0
 44 68  1  0  0  0  0
 45 54  1  0  0  0  0
 45 69  1  0  0  0  0
 46 75  1  0  0  0  0
 47 52  1  0  0  0  0
 47 74  1  0  0  0  0
 48 52  1  0  0  0  0
 48 74  1  0  0  0  0
 49 55  1  0  0  0  0
 49 75  1  0  0  0  0
 50 72  1  0  0  0  0
 51 67  1  0  0  0  0
 52 61  1  0  0  0  0
 53 66  1  0  0  0  0
 54 74  1  0  0  0  0
 55 83  1  0  0  0  0
 56 63  1  0  0  0  0
 57 64  1  0  0  0  0
 58 64  1  0  0  0  0
 59 64  1  0  0  0  0
 60 76  1  0  0  0  0
 61 75  1  0  0  0  0
 62 64  1  0  0  0  0
 62 73  1  0  0  0  0
 63 76  1  0  0  0  0
 65 66  1  0  0  0  0
M  CHG  3  74   1  75   1  76   1
M  ISO  4  32 100  55 101  69 100  83 101
M  END
> <Batch ID>
0195

> <Smiles>
CNC(C)C(=O)NC(C(=O)N1Cc2cc([101O:1][101CH:1]3CCN(CC4CN(C5CC[100N:0]([100C:0](=O)N6CCCC(n7nc(-c8ccc(Oc9ccc(F)cc9F)cc8)c(C(N)=O)c7N)C6)C5)C4)C3)ccc2CC1C(=O)NC1CCCc2ccccc21)C(C)(C)C

> <Shape>
0.275

> <Color>
0.083

> <Negative vol penalty>
0.000

$$$$

  -OEChem-04052323373D

 89 99  0     1  0  0  0  0  0999 V2000
  -22.4519  -30.2399   24.7567 C   0  0  0  0  0  0  0  0  0  0  0  0
  -23.6772  -30.5556   24.1783 C   0  0  0  0  0  0  0  0  0  0  0  0
  -23.1377  -10.1856   22.1052 C   0  0  0  0  0  0  0  0  0  0  0  0
  -23.7876   -9.4657   19.8924 C   0  0  0  0  0  0  0  0  0  0  0  0
  -22.2071  -28.9423   25.2040 C   0  0  0  0  0  0  0  0  0  0  0  0
  -24.6588  -29.5738   24.0480 C   0  0  0  0  0  0  0  0  0  0  0  0
  -27.3232  -27.8288   17.5867 C   0  0  0  0  0  0  0  0  0  0  0  0
  -22.3924   -9.0177   22.2663 C   0  0  0  0  0  0  0  0  0  0  0  0
  -23.0423   -8.2977   20.0535 C   0  0  0  0  0  0  0  0  0  0  0  0
  -28.0334  -27.5870   16.4106 C   0  0  0  0  0  0  0  0  0  0  0  0
  -22.9785   -5.7707   23.0057 C   0  0  0  0  0  0  0  0  0  0  0  0
  -23.0986   -5.0868   24.2153 C   0  0  0  0  0  0  0  0  0  0  0  0
  -29.3439  -25.8954   17.5371 C   0  0  0  0  0  0  0  0  0  0  0  0
  -20.7325   -5.3724   24.6118 C   0  0  0  0  0  0  0  0  0  0  0  0
  -28.2464  -23.5567   12.7156 C   0  0  0  0  0  0  0  0  0  0  0  0
  -23.8353  -10.4096   20.9182 C   0  0  0  0  0  0  0  0  0  0  0  0
  -24.1294  -12.9405   20.7924 C   0  0  0  0  0  0  0  0  0  0  0  0
  -23.1827  -27.9418   25.0703 C   0  0  0  0  0  0  0  0  0  0  0  0
  -27.6105  -27.0931   18.7398 C   0  0  0  0  0  0  0  0  0  0  0  0
  -24.4274  -28.2619   24.4952 C   0  0  0  0  0  0  0  0  0  0  0  0
  -28.6273  -26.1244   18.7147 C   0  0  0  0  0  0  0  0  0  0  0  0
  -22.3446   -8.0737   21.2405 C   0  0  0  0  0  0  0  0  0  0  0  0
  -29.0414  -26.6229   16.3860 C   0  0  0  0  0  0  0  0  0  0  0  0
  -21.7354   -6.2557   22.5991 C   0  0  0  0  0  0  0  0  0  0  0  0
  -21.9756   -4.8876   25.0184 C   0  0  0  0  0  0  0  0  0  0  0  0
  -20.6124   -6.0565   23.4021 C   0  0  0  0  0  0  0  0  0  0  0  0
  -24.6050  -11.6162   20.7510 C   0  0  0  0  0  0  0  0  0  0  0  0
  -28.9622  -24.6427   12.2544 C   0  0  0  0  0  0  0  0  0  0  0  0
  -28.0703  -23.4947   14.0828 C   0  0  0  0  0  0  0  0  0  0  0  0
  -25.2450  -13.7128   20.5793 C   0  0  0  0  0  0  0  0  0  0  0  0
  -29.2319  -25.4273   14.3707 C   0  0  0  0  0  0  0  0  0  1  0  0
  -22.7982  -13.4289   21.0045 C   0  0  0  0  0  0  0  0  0  0  0  0
  -26.8096  -26.4306   22.3447 C   0  0  0  0  0  0  0  0  0  0  0  0
  -27.3228  -23.7066   21.0308 C   0  0  0  0  0  0  0  0  0  0  0  0
  -27.3484  -20.4100   20.1537 C   0  0  0  0  0  0  0  0  0  0  0  0
  -29.9689  -14.6368   17.6367 C   0  0  0  0  0  0  0  0  0  0  0  0
  -22.8896  -26.5650   25.6117 C   0  0  0  0  0  0  0  0  0  0  0  0
  -26.9129  -27.3627   20.0454 C   0  0  0  0  0  0  0  0  0  0  0  0
  -28.9255  -25.3814   19.9883 C   0  0  0  0  0  0  0  0  0  0  0  0
  -23.8447  -25.4917   25.0960 C   0  0  0  0  0  0  0  0  0  0  0  0
  -30.1377  -12.5198   20.5354 C   0  0  0  0  0  0  0  0  0  0  0  0
  -25.2888  -25.9752   25.1841 C   0  0  0  0  0  0  0  0  0  0  0  0
  -29.8526  -23.6524   10.0408 C   0  0  0  0  0  0  0  0  0  0  0  0
  -30.6093  -24.9209   10.2826 C   0  0  0  0  0  0  0  0  0  0  0  0
  -28.6842  -12.1581   20.8232 C   0  0  0  0  0  0  0  0  0  0  0  0
  -30.3800  -12.6474   19.0374 C   0  0  0  0  0  0  0  0  0  0  0  0
  -28.0264  -13.3368   18.6645 C   0  0  0  0  0  0  0  0  0  0  0  0
  -27.7207  -15.3866   16.5145 C   0  0  0  0  0  0  0  0  0  0  0  0
  -29.3729  -16.7058   16.2584 C   0  0  0  0  0  0  0  0  0  0  0  0
  -25.5083  -27.2185   24.3137 C   0  0  1  0  0  0  0  0  0  0  0  0
  -29.1972  -24.7837   10.7882 C   0  0  0  0  0  0  0  0  0  0  0  0
  -26.6960  -26.0926   20.8873 C   0  0  1  0  0  0  0  0  0  0  0  0
  -27.7380  -13.1761   20.1705 C   0  0  1  0  0  0  0  0  0  0  0  0
  -28.1780  -16.3155   15.3822 C   0  0  0  0  0  0  0  0  0  0  0  0
  -27.7419  -18.1215   21.1051 C   0  0  0  0  0  0  0  0  0  0  0  0
  -30.3298  -24.2177   21.0071 C   0  0  0  0  0  0  0  0  0  0  0  0
  -30.6797  -21.7387   21.0203 C   0  0  0  0  0  0  0  0  0  0  0  0
  -29.5201  -22.8430   22.9330 C   0  0  0  0  0  0  0  0  0  0  0  0
  -26.0490  -17.0698   14.5634 C   0  0  0  0  0  0  0  0  0  0  0  0
  -24.5922  -19.5430   19.5129 C   0  0  0  0  0  0  0  0  0  0  0  0
  -27.3051  -22.3500   14.6787 C   0  0  0  0  0  0  0  0  0  0  0  0
  -27.9136  -18.5833   14.6344 C   0  0  0  0  0  0  0  0  0  0  0  0
  -27.2166  -19.8764   15.0132 C   0  0  0  0  0  0  0  0  0  0  0  0
  -28.3215  -22.6211   20.7180 C   0  0  1  0  0  0  0  0  0  0  0  0
  -26.7075  -19.1920   20.7941 C   0  0  2  0  0  0  0  0  0  0  0  0
  -29.6973  -22.8675   21.3992 C   0  0  0  0  0  0  0  0  0  0  0  0
  -25.9203  -11.5474   20.5289 N   0  0  0  0  0  0  0  0  0  0  0  0
  -29.4712  -25.6005   13.0568 N   0  0  0  0  0  0  0  0  0  0  0  0
  -28.5511  -24.4162   14.9431 N   0  0  0  0  0  0  0  0  0  0  0  0
  -26.2807  -12.8382   20.4288 N   0  0  0  0  0  0  0  0  0  0  0  0
  -27.6698  -25.0113   20.6597 N   0  0  0  0  0  0  0  0  0  0  0  0
  -29.4508  -13.5899   18.4069 N   0  0  0  0  0  0  0  0  0  0  0  0
  -29.0834  -15.4925   17.0232 N   0  0  0  0  0  0  0  0  0  0  0  0
  -25.4314  -15.0480   20.5079 N   0  0  0  0  0  0  0  0  0  0  0  0
  -21.7696  -12.4987   21.2075 N   0  0  0  0  0  0  0  0  0  0  0  0
  -25.6238  -26.8458   22.9201 N   0  0  0  0  0  0  0  0  0  0  0  0
  -27.6865  -21.3621   21.0921 N   0  0  0  0  0  0  0  0  0  0  0  0
  -27.2637  -17.4461   15.2893 N   0  0  2  0  0  0  0  0  0  0  0  0
  -25.6840  -18.6060   19.8830 N   0  3  0  0  0  0  0  0  0  0  0  0
  -27.9162  -21.0249   14.3864 N   0  3  0  0  0  0  0  0  0  0  0  0
  -22.5259  -14.6534   20.9974 O   0  0  0  0  0  0  0  0  0  0  0  0
  -27.8927  -26.3217   22.9076 O   0  0  0  0  0  0  0  0  0  0  0  0
  -26.2656  -23.4093   21.5940 O   0  0  0  0  0  0  0  0  0  0  0  0
  -27.5343  -20.5056   18.9425 O   0  0  0  0  0  0  0  0  0  0  0  0
  -31.1870  -14.7875   17.4742 O   0  0  0  0  0  0  0  0  0  0  0  0
  -21.6176   -6.9338   21.3974 O   0  0  0  0  0  0  0  0  0  0  0  0
  -29.7365  -26.3858   15.2186 O   0  0  0  0  0  0  0  0  0  1  0  0
  -22.0908   -4.2294   26.1793 F   0  0  0  0  0  0  0  0  0  0  0  0
  -19.4153   -6.5190   23.0162 F   0  0  0  0  0  0  0  0  0  0  0  0
  1  2  1  0  0  0  0
  1  5  2  0  0  0  0
  2  6  2  0  0  0  0
  3  8  2  0  0  0  0
  3 16  1  0  0  0  0
  4  9  1  0  0  0  0
  4 16  2  0  0  0  0
  5 18  1  0  0  0  0
  6 20  1  0  0  0  0
  7 10  2  0  0  0  0
  7 19  1  0  0  0  0
  8 22  1  0  0  0  0
  9 22  2  0  0  0  0
 10 23  1  0  0  0  0
 11 12  2  0  0  0  0
 11 24  1  0  0  0  0
 12 25  1  0  0  0  0
 13 21  1  0  0  0  0
 13 23  2  0  0  0  0
 14 25  2  0  0  0  0
 14 26  1  0  0  0  0
 15 28  2  0  0  0  0
 15 29  1  0  0  0  0
 16 27  1  0  0  0  0
 17 27  1  0  0  0  0
 17 30  2  0  0  0  0
 17 32  1  0  0  0  0
 18 20  2  0  0  0  0
 18 37  1  0  0  0  0
 19 21  2  0  0  0  0
 19 38  1  0  0  0  0
 20 50  1  0  0  0  0
 21 39  1  0  0  0  0
 22 86  1  0  0  0  0
 23 87  1  0  0  0  0
 24 26  2  0  0  0  0
 24 86  1  0  0  0  0
 25 88  1  0  0  0  0
 26 89  1  0  0  0  0
 27 67  2  0  0  0  0
 28 51  1  0  0  0  0
 28 68  1  0  0  0  0
 29 61  1  0  0  0  0
 29 69  2  0  0  0  0
 30 70  1  0  0  0  0
 30 74  1  0  0  0  0
 31 68  2  0  0  0  0
 31 69  1  0  0  0  0
 31 87  1  0  0  0  0
 32 75  1  0  0  0  0
 32 81  2  0  0  0  0
 33 52  1  0  0  0  0
 33 76  1  0  0  0  0
 33 82  2  0  0  0  0
 34 64  1  0  0  0  0
 34 71  1  0  0  0  0
 34 83  2  0  0  0  0
 35 65  1  0  0  0  0
 35 77  1  0  0  0  0
 35 84  2  0  0  0  0
 36 72  1  0  0  0  0
 36 73  1  0  0  0  0
 36 85  2  0  0  0  0
 37 40  1  0  0  0  0
 38 52  1  0  0  0  0
 39 71  1  0  0  0  0
 40 42  1  0  0  0  0
 41 45  1  0  0  0  0
 41 46  1  0  0  0  0
 42 50  1  0  0  0  0
 43 44  1  0  0  0  0
 43 51  1  0  0  0  0
 44 51  1  0  0  0  0
 45 53  1  0  0  0  0
 46 72  1  0  0  0  0
 47 53  1  0  0  0  0
 47 72  1  0  0  0  0
 48 54  1  0  0  0  0
 48 73  1  0  0  0  0
 49 54  1  0  0  0  0
 49 73  1  0  0  0  0
 50 76  1  0  0  0  0
 52 71  1  0  0  0  0
 53 70  1  0  0  0  0
 54 78  1  0  0  0  0
 55 65  1  0  0  0  0
 56 66  1  0  0  0  0
 57 66  1  0  0  0  0
 58 66  1  0  0  0  0
 59 78  1  0  0  0  0
 60 79  1  0  0  0  0
 61 80  1  0  0  0  0
 62 63  1  0  0  0  0
 62 78  1  0  0  0  0
 63 80  1  0  0  0  0
 64 66  1  0  0  0  0
 64 77  1  0  0  0  0
 65 79  1  0  0  0  0
 67 70  1  0  0  0  0
M  CHG  2  79   1  80   1
M  ISO  4  31 101  36 100  73 100  87 101
M  END
> <Batch ID>
0195

> <Smiles>
CNC(C)C(=O)NC(C(=O)N1Cc2cc([101O:1][101c:1]3nc(CNCCN(C)C4C[100N:0]([100C:0](=O)N5CCCC(n6nc(-c7ccc(Oc8ccc(F)cc8F)cc7)c(C(N)=O)c6N)C5)C4)cc(C4CC4)n3)ccc2CC1C(=O)NC1CCCc2ccccc21)C(C)(C)C

> <Shape>
0.212

> <Color>
0.180

> <Negative vol penalty>
0.000

$$$$

  -OEChem-04052323373D

 87 96  0     1  0  0  0  0  0999 V2000
  -19.3360  -24.1457   21.9940 C   0  0  0  0  0  0  0  0  0  0  0  0
  -20.5383  -24.4879   21.3835 C   0  0  0  0  0  0  0  0  0  0  0  0
  -26.3701  -11.0326   20.6260 C   0  0  0  0  0  0  0  0  0  0  0  0
  -26.1582  -11.8310   18.3556 C   0  0  0  0  0  0  0  0  0  0  0  0
  -18.4926  -25.1445   22.4788 C   0  0  0  0  0  0  0  0  0  0  0  0
  -20.8975  -25.8293   21.2565 C   0  0  0  0  0  0  0  0  0  0  0  0
  -25.7374  -26.6693   22.4870 C   0  0  0  0  0  0  0  0  0  0  0  0
  -25.1564  -10.3566   20.5016 C   0  0  0  0  0  0  0  0  0  0  0  0
  -24.9445  -11.1550   18.2311 C   0  0  0  0  0  0  0  0  0  0  0  0
  -26.7033  -26.3286   21.5411 C   0  0  0  0  0  0  0  0  0  0  0  0
  -24.0368   -7.4816   19.1183 C   0  0  0  0  0  0  0  0  0  0  0  0
  -23.9734   -6.1708   19.5909 C   0  0  0  0  0  0  0  0  0  0  0  0
  -26.8570  -28.6417   20.8738 C   0  0  0  0  0  0  0  0  0  0  0  0
  -29.8373  -23.3804   17.3253 C   0  0  0  0  0  0  0  0  0  0  0  0
  -30.7218  -24.6018   15.4517 C   0  0  0  0  0  0  0  0  0  0  0  0
  -22.2277   -6.8115   21.1335 C   0  0  0  0  0  0  0  0  0  0  0  0
  -26.8710  -11.7698   19.5530 C   0  0  0  0  0  0  0  0  0  0  0  0
  -29.4085  -11.9725   19.3865 C   0  0  0  0  0  0  0  0  0  0  0  0
  -18.8461  -26.4984   22.3663 C   0  0  0  0  0  0  0  0  0  0  0  0
  -25.3155  -27.9993   22.6262 C   0  0  0  0  0  0  0  0  0  0  0  0
  -20.0574  -26.8472   21.7391 C   0  0  0  0  0  0  0  0  0  0  0  0
  -25.8875  -28.9970   21.8240 C   0  0  0  0  0  0  0  0  0  0  0  0
  -29.6582  -24.2944   16.2928 C   0  0  0  0  0  0  0  0  0  0  0  0
  -24.4436  -10.4178   19.3042 C   0  0  0  0  0  0  0  0  0  0  0  0
  -27.2611  -27.3144   20.7323 C   0  0  0  0  0  0  0  0  0  0  0  0
  -23.1957   -8.4573   19.6532 C   0  0  0  0  0  0  0  0  0  0  0  0
  -23.0689   -5.8357   20.5985 C   0  0  0  0  0  0  0  0  0  0  0  0
  -22.2912   -8.1223   20.6608 C   0  0  0  0  0  0  0  0  0  0  0  0
  -28.1245  -12.4688   19.6811 C   0  0  0  0  0  0  0  0  0  0  0  0
  -31.0896  -22.8063   17.4731 C   0  0  0  0  0  0  0  0  0  0  0  0
  -31.9345  -23.9731   15.6835 C   0  0  0  0  0  0  0  0  0  0  0  0
  -30.2541  -13.0161   19.6737 C   0  0  0  0  0  0  0  0  0  0  0  0
  -29.8017  -10.6835   18.8970 C   0  0  0  0  0  0  0  0  0  0  0  0
  -22.5485  -29.5234   22.2734 C   0  0  0  0  0  0  0  0  0  0  0  0
  -24.2292  -32.0370   23.4479 C   0  0  0  0  0  0  0  0  0  0  0  0
  -27.2645  -33.5197   23.9327 C   0  0  0  0  0  0  0  0  0  0  0  0
  -31.4700  -18.3575   19.1688 C   0  0  0  0  0  0  0  0  0  0  0  0
  -17.8800  -27.5446   22.8631 C   0  0  0  0  0  0  0  0  0  0  0  0
  -24.2921  -28.3546   23.6697 C   0  0  0  0  0  0  0  0  0  0  0  0
  -25.4837  -30.4427   21.9479 C   0  0  0  0  0  0  0  0  0  0  0  0
  -18.5086  -28.9263   23.0248 C   0  0  0  0  0  0  0  0  0  0  0  0
  -29.4516  -17.3648   22.0767 C   0  0  0  0  0  0  0  0  0  0  0  0
  -19.3397  -29.2818   21.7962 C   0  0  0  0  0  0  0  0  0  0  0  0
  -28.9741  -15.9834   21.6432 C   0  0  0  0  0  0  0  0  0  0  0  0
  -29.6073  -18.3254   20.8974 C   0  0  0  0  0  0  0  0  0  0  0  0
  -30.3608  -20.7003   18.9954 C   0  0  0  0  0  0  0  0  0  0  0  0
  -32.3563  -20.5649   18.2787 C   0  0  0  0  0  0  0  0  0  0  0  0
  -29.9805  -16.3969   19.3728 C   0  0  0  0  0  0  0  0  0  0  0  0
  -20.4936  -28.2901   21.6048 C   0  0  1  0  0  0  0  0  0  0  0  0
  -31.4272  -21.7515   18.6083 C   0  0  0  0  0  0  0  0  0  0  0  0
  -23.5642  -29.6618   23.3720 C   0  0  1  0  0  0  0  0  0  0  0  0
  -29.8935  -15.4177   20.5512 C   0  0  2  0  0  0  0  0  0  0  0  0
  -27.1971  -23.9389   15.8347 C   0  0  0  0  0  0  0  0  0  0  0  0
  -28.3164  -35.5881   24.8882 C   0  0  0  0  0  0  0  0  0  0  0  0
  -23.3243  -33.6233   21.0036 C   0  0  0  0  0  0  0  0  0  0  0  0
  -25.1214  -35.2920   21.5079 C   0  0  0  0  0  0  0  0  0  0  0  0
  -23.2853  -34.9039   23.1514 C   0  0  0  0  0  0  0  0  0  0  0  0
  -28.8144  -31.9576   25.9118 C   0  0  0  0  0  0  0  0  0  0  0  0
  -34.2195  -23.5866   15.1495 C   0  0  0  0  0  0  0  0  0  0  0  0
  -28.8130  -26.9601   17.4817 C   0  0  0  0  0  0  0  0  0  0  0  0
  -28.2655  -27.7861   18.6288 C   0  0  0  0  0  0  0  0  0  1  0  0
  -28.3127  -24.9505   16.0852 C   0  0  1  0  0  0  0  0  0  0  0  0
  -25.0681  -33.1376   22.8447 C   0  0  1  0  0  0  0  0  0  0  0  0
  -27.8911  -34.1538   25.1615 C   0  0  2  0  0  0  0  0  0  0  0  0
  -24.2062  -34.2118   22.1230 C   0  0  0  0  0  0  0  0  0  0  0  0
  -28.1475  -13.7295   20.1217 N   0  0  0  0  0  0  0  0  0  0  0  0
  -32.1466  -23.0800   16.6760 N   0  0  0  0  0  0  0  0  0  0  0  0
  -29.4563  -14.0342   20.1062 N   0  0  0  0  0  0  0  0  0  0  0  0
  -24.4748  -30.7389   22.9784 N   0  0  0  0  0  0  0  0  0  0  0  0
  -30.3878  -17.7386   19.8033 N   0  0  0  0  0  0  0  0  0  0  0  0
  -31.4503  -19.7341   19.0666 N   0  0  0  0  0  0  0  0  0  0  0  0
  -31.5949  -13.1529   19.5959 N   0  0  0  0  0  0  0  0  0  0  0  0
  -28.8051   -9.7283   18.6549 N   0  0  0  0  0  0  0  0  0  0  0  0
  -21.5693  -28.5821   22.5278 N   0  0  0  0  0  0  0  0  0  0  0  0
  -25.8931  -33.6622   23.9275 N   0  0  0  0  0  0  0  0  0  0  0  0
  -29.0916  -33.3808   25.5882 N   0  3  0  0  0  0  0  0  0  0  0  0
  -27.9094  -25.8089   17.2317 N   0  3  0  0  0  0  0  0  0  0  0  0
  -31.0027  -10.3822   18.6963 O   0  0  0  0  0  0  0  0  0  0  0  0
  -22.6451  -30.2202   21.2700 O   0  0  0  0  0  0  0  0  0  0  0  0
  -23.3920  -32.3177   24.3093 O   0  0  0  0  0  0  0  0  0  0  0  0
  -27.9260  -32.9577   23.0626 O   0  0  0  0  0  0  0  0  0  0  0  0
  -32.4041  -17.7087   18.6808 O   0  0  0  0  0  0  0  0  0  0  0  0
  -23.2593   -9.7581   19.1823 O   0  0  0  0  0  0  0  0  0  0  0  0
  -28.2035  -26.9844   19.8077 O   0  0  0  0  0  0  0  0  0  1  0  0
  -32.9977  -24.2592   14.8683 O   0  0  0  0  0  0  0  0  0  0  0  0
  -23.0070   -4.5766   21.0513 F   0  0  0  0  0  0  0  0  0  0  0  0
  -21.4798   -9.0551   21.1778 F   0  0  0  0  0  0  0  0  0  0  0  0
  1  2  1  0  0  0  0
  1  5  2  0  0  0  0
  2  6  2  0  0  0  0
  3  8  2  0  0  0  0
  3 17  1  0  0  0  0
  4  9  1  0  0  0  0
  4 17  2  0  0  0  0
  5 19  1  0  0  0  0
  6 21  1  0  0  0  0
  7 10  2  0  0  0  0
  7 20  1  0  0  0  0
  8 24  1  0  0  0  0
  9 24  2  0  0  0  0
 10 25  1  0  0  0  0
 11 12  2  0  0  0  0
 11 26  1  0  0  0  0
 12 27  1  0  0  0  0
 13 22  1  0  0  0  0
 13 25  2  0  0  0  0
 14 23  2  0  0  0  0
 14 30  1  0  0  0  0
 15 23  1  0  0  0  0
 15 31  2  0  0  0  0
 16 27  2  0  0  0  0
 16 28  1  0  0  0  0
 17 29  1  0  0  0  0
 18 29  1  0  0  0  0
 18 32  2  0  0  0  0
 18 33  1  0  0  0  0
 19 21  2  0  0  0  0
 19 38  1  0  0  0  0
 20 22  2  0  0  0  0
 20 39  1  0  0  0  0
 21 49  1  0  0  0  0
 22 40  1  0  0  0  0
 23 62  1  0  0  0  0
 24 83  1  0  0  0  0
 25 84  1  0  0  0  0
 26 28  2  0  0  0  0
 26 83  1  0  0  0  0
 27 86  1  0  0  0  0
 28 87  1  0  0  0  0
 29 66  2  0  0  0  0
 30 50  1  0  0  0  0
 30 67  2  0  0  0  0
 31 67  1  0  0  0  0
 31 85  1  0  0  0  0
 32 68  1  0  0  0  0
 32 72  1  0  0  0  0
 33 73  1  0  0  0  0
 33 78  2  0  0  0  0
 34 51  1  0  0  0  0
 34 74  1  0  0  0  0
 34 79  2  0  0  0  0
 35 63  1  0  0  0  0
 35 69  1  0  0  0  0
 35 80  2  0  0  0  0
 36 64  1  0  0  0  0
 36 75  1  0  0  0  0
 36 81  2  0  0  0  0
 37 70  1  0  0  0  0
 37 71  1  0  0  0  0
 37 82  2  0  0  0  0
 38 41  1  0  0  0  0
 39 51  1  0  0  0  0
 40 69  1  0  0  0  0
 41 43  1  0  0  0  0
 42 44  1  0  0  0  0
 42 45  1  0  0  0  0
 43 49  1  0  0  0  0
 44 52  1  0  0  0  0
 45 70  1  0  0  0  0
 46 50  1  0  0  0  0
 46 71  1  0  0  0  0
 47 50  1  0  0  0  0
 47 71  1  0  0  0  0
 48 52  1  0  0  0  0
 48 70  1  0  0  0  0
 49 74  1  0  0  0  0
 51 69  1  0  0  0  0
 52 68  1  0  0  0  0
 53 62  1  0  0  0  0
 54 64  1  0  0  0  0
 55 65  1  0  0  0  0
 56 65  1  0  0  0  0
 57 65  1  0  0  0  0
 58 76  1  0  0  0  0
 59 85  1  0  0  0  0
 60 61  1  0  0  0  0
 60 77  1  0  0  0  0
 61 84  1  0  0  0  0
 62 77  1  0  0  0  0
 63 65  1  0  0  0  0
 63 75  1  0  0  0  0
 64 76  1  0  0  0  0
 66 68  1  0  0  0  0
M  CHG  2  76   1  77   1
M  ISO  4  37 100  61 101  71 100  84 101
M  END
> <Batch ID>
0195

> <Smiles>
CNC(C)C(=O)NC(C(=O)N1Cc2cc([101O:1][101CH2:1]CNC(C)c3cc(OC)nc(C4C[100N:0]([100C:0](=O)N5CCCC(n6nc(-c7ccc(Oc8ccc(F)cc8F)cc7)c(C(N)=O)c6N)C5)C4)c3)ccc2CC1C(=O)NC1CCCc2ccccc21)C(C)(C)C

> <Shape>
0.290

> <Color>
0.090

> <Negative vol penalty>
0.000

$$$$

  -OEChem-04052323373D

 91101  0     1  0  0  0  0  0999 V2000
  -16.6261  -28.0189   23.2485 C   0  0  0  0  0  0  0  0  0  0  0  0
  -17.5480  -27.5425   22.3219 C   0  0  0  0  0  0  0  0  0  0  0  0
  -24.9461  -15.0140   19.3862 C   0  0  0  0  0  0  0  0  0  0  0  0
  -26.7007  -15.2809   21.0255 C   0  0  0  0  0  0  0  0  0  0  0  0
  -16.9995  -29.0098   24.1555 C   0  0  0  0  0  0  0  0  0  0  0  0
  -18.8437  -28.0575   22.3012 C   0  0  0  0  0  0  0  0  0  0  0  0
  -23.9933  -25.0167   20.9820 C   0  0  0  0  0  0  0  0  0  0  0  0
  -24.9167  -13.6429   19.6409 C   0  0  0  0  0  0  0  0  0  0  0  0
  -26.6712  -13.9098   21.2803 C   0  0  0  0  0  0  0  0  0  0  0  0
  -24.7528  -24.9192   19.8168 C   0  0  0  0  0  0  0  0  0  0  0  0
  -24.1291  -10.1263   20.1188 C   0  0  0  0  0  0  0  0  0  0  0  0
  -22.8812   -9.5204   20.2645 C   0  0  0  0  0  0  0  0  0  0  0  0
  -26.2068  -26.6659   20.6256 C   0  0  0  0  0  0  0  0  0  0  0  0
  -22.3983  -10.9659   22.1393 C   0  0  0  0  0  0  0  0  0  0  0  0
  -25.8382  -15.8330   20.0784 C   0  0  0  0  0  0  0  0  0  0  0  0
  -25.1168  -18.2502   20.4583 C   0  0  0  0  0  0  0  0  0  0  0  0
  -18.3032  -29.5303   24.1522 C   0  0  0  0  0  0  0  0  0  0  0  0
  -24.3291  -25.9486   21.9745 C   0  0  0  0  0  0  0  0  0  0  0  0
  -19.2345  -29.0572   23.2081 C   0  0  0  0  0  0  0  0  0  0  0  0
  -25.4515  -26.7714   21.8035 C   0  0  0  0  0  0  0  0  0  0  0  0
  -25.7792  -13.0908   20.5880 C   0  0  0  0  0  0  0  0  0  0  0  0
  -25.8580  -25.7458   19.6372 C   0  0  0  0  0  0  0  0  0  0  0  0
  -24.5116  -11.1519   20.9834 C   0  0  0  0  0  0  0  0  0  0  0  0
  -22.0157   -9.9402   21.2747 C   0  0  0  0  0  0  0  0  0  0  0  0
  -23.6462  -11.5717   21.9936 C   0  0  0  0  0  0  0  0  0  0  0  0
  -25.8695  -17.2493   19.8153 C   0  0  0  0  0  0  0  0  0  0  0  0
  -25.5082  -19.4180   19.8504 C   0  0  0  0  0  0  0  0  0  0  0  0
  -27.3716  -26.2061   14.3840 C   0  0  0  0  0  0  0  0  0  0  0  0
  -29.1771  -24.0584   15.5103 C   0  0  0  0  0  0  0  0  0  0  0  0
  -27.2155  -24.7864   16.4002 C   0  0  0  0  0  0  0  0  0  0  0  0
  -24.1502  -18.1347   21.5109 C   0  0  0  0  0  0  0  0  0  0  0  0
  -22.8808  -28.4625   23.2731 C   0  0  0  0  0  0  0  0  0  0  0  0
  -25.4539  -28.4339   25.2481 C   0  0  0  0  0  0  0  0  0  0  0  0
  -28.7073  -27.5364   25.7548 C   0  0  0  0  0  0  0  0  0  0  0  0
  -29.6274  -22.5708   18.0297 C   0  0  0  0  0  0  0  0  0  0  0  0
  -18.6467  -30.6340   25.1210 C   0  0  0  0  0  0  0  0  0  0  0  0
  -23.5154  -26.0229   23.2374 C   0  0  0  0  0  0  0  0  0  0  0  0
  -25.8661  -27.7744   22.8479 C   0  0  0  0  0  0  0  0  0  0  0  0
  -20.1480  -30.8605   25.2790 C   0  0  0  0  0  0  0  0  0  0  0  0
  -28.2925  -20.0910   15.7625 C   0  0  0  0  0  0  0  0  0  0  0  0
  -20.8280  -30.9033   23.9143 C   0  0  0  0  0  0  0  0  0  0  0  0
  -27.4593  -19.2066   16.6900 C   0  0  0  0  0  0  0  0  0  0  0  0
  -29.5463  -20.6149   16.4554 C   0  0  0  0  0  0  0  0  0  0  0  0
  -28.4466  -20.4370   18.6610 C   0  0  0  0  0  0  0  0  0  0  0  0
  -29.0899  -24.6459   13.2036 C   0  0  0  0  0  0  0  0  0  0  0  0
  -29.8427  -26.8221   14.4025 C   0  0  0  0  0  0  0  0  0  0  0  0
  -33.4858  -23.9507   16.4472 C   0  0  0  0  0  0  0  0  0  0  0  0
  -20.6566  -29.5732   23.1706 C   0  0  1  0  0  0  0  0  0  0  0  0
  -28.7225  -26.0579   13.6882 C   0  0  2  0  0  0  0  0  0  0  0  0
  -30.4676  -24.7922   15.7679 C   0  0  2  0  0  0  0  0  0  0  0  0
  -23.6458  -27.3632   23.9542 C   0  0  1  0  0  0  0  0  0  0  0  0
  -32.5439  -24.8072   17.2988 C   0  0  2  0  0  0  0  0  0  0  0  0
  -27.1497  -19.9345   18.0103 C   0  0  2  0  0  0  0  0  0  0  0  0
  -31.0573  -24.4454   17.1302 C   0  0  2  0  0  0  0  0  0  0  0  0
  -31.9179  -22.0538   17.1350 C   0  0  1  0  0  0  0  0  0  0  0  0
  -32.8280  -26.2941   17.0747 C   0  0  0  0  0  0  0  0  0  0  0  0
  -32.6437  -21.6083   18.4054 C   0  0  0  0  0  0  0  0  0  0  0  0
  -30.5498  -27.6833   27.4522 C   0  0  0  0  0  0  0  0  0  0  0  0
  -25.8906  -31.3639   24.5169 C   0  0  0  0  0  0  0  0  0  0  0  0
  -28.2066  -31.1792   25.4497 C   0  0  0  0  0  0  0  0  0  0  0  0
  -26.2338  -30.8300   26.9359 C   0  0  0  0  0  0  0  0  0  0  0  0
  -33.9064  -21.6317   15.6149 C   0  0  0  0  0  0  0  0  0  0  0  0
  -28.8881  -24.5913   25.9844 C   0  0  0  0  0  0  0  0  0  0  0  0
  -26.2120  -24.7027   17.5295 C   0  0  0  0  0  0  0  0  0  1  0  0
  -26.8255  -29.0641   25.2261 C   0  0  1  0  0  0  0  0  0  0  0  0
  -29.3927  -26.8504   26.9227 C   0  0  2  0  0  0  0  0  0  0  0  0
  -26.7804  -30.5918   25.5114 C   0  0  0  0  0  0  0  0  0  0  0  0
  -26.6778  -17.7384   18.8712 N   0  0  0  0  0  0  0  0  0  0  0  0
  -26.8231  -25.6967   15.4462 N   0  0  0  0  0  0  0  0  0  0  0  0
  -28.2449  -23.9977   16.4894 N   0  0  0  0  0  0  0  0  0  0  0  0
  -26.4352  -19.0595   18.9164 N   0  0  0  0  0  0  0  0  0  0  0  0
  -25.0350  -27.8135   24.0625 N   0  0  0  0  0  0  0  0  0  0  0  0
  -29.2243  -21.2614   17.7259 N   0  0  0  0  0  0  0  0  0  0  0  0
  -30.8368  -23.0085   17.4470 N   0  0  0  0  0  0  0  0  0  0  0  0
  -28.8936  -23.7012   14.3145 N   0  3  0  0  0  0  0  0  0  0  0  0
  -25.1464  -20.7062   20.0290 N   0  0  0  0  0  0  0  0  0  0  0  0
  -23.8667  -16.8603   22.0208 N   0  0  0  0  0  0  0  0  0  0  0  0
  -21.5699  -28.5801   23.6941 N   0  0  0  0  0  0  0  0  0  0  0  0
  -27.6392  -28.3039   26.1687 N   0  0  0  0  0  0  0  0  0  0  0  0
  -30.1874  -26.2639   15.7396 N   0  3  0  0  0  0  0  0  0  0  0  0
  -32.8765  -22.6133   16.1075 N   0  3  2  0  0  0  0  0  0  0  0  0
  -29.9227  -25.5218   26.5046 N   0  3  0  0  0  0  0  0  0  0  0  0
  -23.5435  -19.1301   21.9741 O   0  0  0  0  0  0  0  0  0  0  0  0
  -23.4389  -29.1539   22.4292 O   0  0  0  0  0  0  0  0  0  0  0  0
  -24.7819  -28.4838   26.2813 O   0  0  0  0  0  0  0  0  0  0  0  0
  -29.0841  -27.4075   24.5921 O   0  0  0  0  0  0  0  0  0  0  0  0
  -28.9571  -23.2927   18.7776 O   0  0  0  0  0  0  0  0  0  0  0  0
  -25.7506  -11.7530   20.8370 O   0  0  0  0  0  0  0  0  0  0  0  0
  -26.6099  -25.6520   18.4864 O   0  0  0  0  0  0  0  0  0  1  0  0
  -20.8168   -9.3594   21.4135 F   0  0  0  0  0  0  0  0  0  0  0  0
  -24.0077  -12.5574   22.8264 F   0  0  0  0  0  0  0  0  0  0  0  0
  1  2  1  0  0  0  0
  1  5  2  0  0  0  0
  2  6  2  0  0  0  0
  3  8  2  0  0  0  0
  3 15  1  0  0  0  0
  4  9  1  0  0  0  0
  4 15  2  0  0  0  0
  5 17  1  0  0  0  0
  6 19  1  0  0  0  0
  7 10  2  0  0  0  0
  7 18  1  0  0  0  0
  8 21  1  0  0  0  0
  9 21  2  0  0  0  0
 10 22  1  0  0  0  0
 11 12  2  0  0  0  0
 11 23  1  0  0  0  0
 12 24  1  0  0  0  0
 13 20  1  0  0  0  0
 13 22  2  0  0  0  0
 14 24  2  0  0  0  0
 14 25  1  0  0  0  0
 15 26  1  0  0  0  0
 16 26  1  0  0  0  0
 16 27  2  0  0  0  0
 16 31  1  0  0  0  0
 17 19  2  0  0  0  0
 17 36  1  0  0  0  0
 18 20  2  0  0  0  0
 18 37  1  0  0  0  0
 19 48  1  0  0  0  0
 20 38  1  0  0  0  0
 21 88  1  0  0  0  0
 22 89  1  0  0  0  0
 23 25  2  0  0  0  0
 23 88  1  0  0  0  0
 24 90  1  0  0  0  0
 25 91  1  0  0  0  0
 26 68  2  0  0  0  0
 27 71  1  0  0  0  0
 27 76  1  0  0  0  0
 28 49  1  0  0  0  0
 28 69  2  0  0  0  0
 29 50  1  0  0  0  0
 29 70  1  0  0  0  0
 29 75  2  0  0  0  0
 30 64  1  0  0  0  0
 30 69  1  0  0  0  0
 30 70  2  0  0  0  0
 31 77  1  0  0  0  0
 31 83  2  0  0  0  0
 32 51  1  0  0  0  0
 32 78  1  0  0  0  0
 32 84  2  0  0  0  0
 33 65  1  0  0  0  0
 33 72  1  0  0  0  0
 33 85  2  0  0  0  0
 34 66  1  0  0  0  0
 34 79  1  0  0  0  0
 34 86  2  0  0  0  0
 35 73  1  0  0  0  0
 35 74  1  0  0  0  0
 35 87  2  0  0  0  0
 36 39  1  0  0  0  0
 37 51  1  0  0  0  0
 38 72  1  0  0  0  0
 39 41  1  0  0  0  0
 40 42  1  0  0  0  0
 40 43  1  0  0  0  0
 41 48  1  0  0  0  0
 42 53  1  0  0  0  0
 43 73  1  0  0  0  0
 44 53  1  0  0  0  0
 44 73  1  0  0  0  0
 45 49  1  0  0  0  0
 45 75  1  0  0  0  0
 46 49  1  0  0  0  0
 46 80  1  0  0  0  0
 47 52  1  0  0  0  0
 47 81  1  0  0  0  0
 48 78  1  0  0  0  0
 50 54  1  0  0  0  0
 50 80  1  0  0  0  0
 51 72  1  0  0  0  0
 52 54  1  0  0  0  0
 52 56  1  0  0  0  0
 53 71  1  0  0  0  0
 54 74  1  0  0  0  0
 55 57  1  0  0  0  0
 55 74  1  0  0  0  0
 55 81  1  0  0  0  0
 58 66  1  0  0  0  0
 59 67  1  0  0  0  0
 60 67  1  0  0  0  0
 61 67  1  0  0  0  0
 62 81  1  0  0  0  0
 63 82  1  0  0  0  0
 64 89  1  0  0  0  0
 65 67  1  0  0  0  0
 65 79  1  0  0  0  0
 66 82  1  0  0  0  0
 68 71  1  0  0  0  0
M  CHG  4  75   1  80   1  81   1  82   1
M  ISO  4  35 100  64 101  74 100  89 101
M  END
> <Batch ID>
0195

> <Smiles>
CNC(C)C(=O)NC(C(=O)N1Cc2cc([101O:1][101CH2:1]C3=NC=C4CNC(=N3)C(C3C(C)CN(C)C(C)[100N:0]3[100C:0](=O)N3CCCC(n5nc(-c6ccc(Oc7ccc(F)cc7F)cc6)c(C(N)=O)c5N)C3)NC4)ccc2CC1C(=O)NC1CCCc2ccccc21)C(C)(C)C

> <Shape>
0.194

> <Color>
0.065

> <Negative vol penalty>
0.000

$$$$

  -OEChem-04052323373D

 84 93  0     1  0  0  0  0  0999 V2000
  -28.8981  -32.3472   24.5966 C   0  0  0  0  0  0  0  0  0  0  0  0
  -28.8319  -31.1803   23.8422 C   0  0  0  0  0  0  0  0  0  0  0  0
  -23.0744  -10.2639   19.8860 C   0  0  0  0  0  0  0  0  0  0  0  0
  -23.8978   -9.7346   22.0948 C   0  0  0  0  0  0  0  0  0  0  0  0
  -27.7957  -32.7543   25.3469 C   0  0  0  0  0  0  0  0  0  0  0  0
  -27.6636  -30.4191   23.8385 C   0  0  0  0  0  0  0  0  0  0  0  0
  -26.3421  -28.9110   19.1883 C   0  0  0  0  0  0  0  0  0  0  0  0
  -22.2934   -9.1083   19.9001 C   0  0  0  0  0  0  0  0  0  0  0  0
  -23.1168   -8.5789   22.1090 C   0  0  0  0  0  0  0  0  0  0  0  0
  -27.0386  -27.8313   18.6471 C   0  0  0  0  0  0  0  0  0  0  0  0
  -19.8781   -7.7697   22.6349 C   0  0  0  0  0  0  0  0  0  0  0  0
  -19.1533   -7.4934   23.7941 C   0  0  0  0  0  0  0  0  0  0  0  0
  -25.2158  -26.3664   19.2390 C   0  0  0  0  0  0  0  0  0  0  0  0
  -20.3383   -5.4020   24.0367 C   0  0  0  0  0  0  0  0  0  0  0  0
  -23.8767  -10.5770   20.9833 C   0  0  0  0  0  0  0  0  0  0  0  0
  -24.3132  -13.0531   21.4149 C   0  0  0  0  0  0  0  0  0  0  0  0
  -26.6100  -32.0029   25.3448 C   0  0  0  0  0  0  0  0  0  0  0  0
  -25.0797  -28.7243   19.7697 C   0  0  0  0  0  0  0  0  0  0  0  0
  -26.5447  -30.8158   24.5906 C   0  0  0  0  0  0  0  0  0  0  0  0
  -24.5041  -27.4458   19.7846 C   0  0  0  0  0  0  0  0  0  0  0  0
  -22.3146   -8.2658   21.0116 C   0  0  0  0  0  0  0  0  0  0  0  0
  -26.4768  -26.5583   18.6750 C   0  0  0  0  0  0  0  0  0  0  0  0
  -20.8331   -6.8621   22.1765 C   0  0  0  0  0  0  0  0  0  0  0  0
  -19.3833   -6.3096   24.4950 C   0  0  0  0  0  0  0  0  0  0  0  0
  -21.0632   -5.6783   22.8774 C   0  0  0  0  0  0  0  0  0  0  0  0
  -24.6841  -11.7703   20.9690 C   0  0  0  0  0  0  0  0  0  0  0  0
  -25.4231  -13.8297   21.1882 C   0  0  0  0  0  0  0  0  0  0  0  0
  -23.0760  -13.5024   21.9834 C   0  0  0  0  0  0  0  0  0  0  0  0
  -23.8681  -29.1309   22.6801 C   0  0  0  0  0  0  0  0  0  0  0  0
  -21.0787  -28.3929   21.1980 C   0  0  0  0  0  0  0  0  0  0  0  0
  -19.5018  -26.8615   18.5874 C   0  0  0  0  0  0  0  0  0  0  0  0
  -29.6340  -15.4017   17.8815 C   0  0  0  0  0  0  0  0  0  0  0  0
  -25.4606  -32.4578   26.2090 C   0  0  0  0  0  0  0  0  0  0  0  0
  -24.3297  -29.9038   20.3252 C   0  0  0  0  0  0  0  0  0  0  0  0
  -23.1430  -27.1957   20.3789 C   0  0  0  0  0  0  0  0  0  0  0  0
  -24.1325  -31.7937   25.8552 C   0  0  0  0  0  0  0  0  0  0  0  0
  -30.1423  -12.5736   19.9439 C   0  0  0  0  0  0  0  0  0  0  0  0
  -24.3162  -30.2888   25.6868 C   0  0  0  0  0  0  0  0  0  0  0  0
  -28.7400  -12.1883   20.4062 C   0  0  0  0  0  0  0  0  0  0  0  0
  -26.9778  -17.5068   16.4682 C   0  0  0  0  0  0  0  0  0  0  0  0
  -28.8288  -20.9165   16.9782 C   0  0  0  0  0  0  0  0  0  0  0  0
  -30.1212  -13.0613   18.5016 C   0  0  0  0  0  0  0  0  0  0  0  0
  -27.2922  -16.2543   17.2763 C   0  0  0  0  0  0  0  0  0  0  0  0
  -29.1314  -17.7872   17.4455 C   0  0  0  0  0  0  0  0  0  0  0  0
  -27.7931  -13.8790   18.7521 C   0  0  0  0  0  0  0  0  0  0  0  0
  -26.8589  -21.8950   16.0825 C   0  0  0  0  0  0  0  0  0  0  0  0
  -25.2866  -29.9763   24.5413 C   0  0  1  0  0  0  0  0  0  0  0  0
  -23.2736  -29.5100   21.3533 C   0  0  1  0  0  0  0  0  0  0  0  0
  -27.8539  -18.5641   17.1408 C   0  0  1  0  0  0  0  0  0  0  0  0
  -27.7632  -13.3570   20.2033 C   0  0  1  0  0  0  0  0  0  0  0  0
  -28.3509  -22.1484   16.2193 C   0  0  1  0  0  0  0  0  0  0  0  0
  -28.0861  -19.7887   16.2742 C   0  0  1  0  0  0  0  0  0  0  0  0
  -17.2140  -26.3956   17.6674 C   0  0  0  0  0  0  0  0  0  0  0  0
  -20.6690  -26.2353   23.3161 C   0  0  0  0  0  0  0  0  0  0  0  0
  -18.9263  -25.2129   21.8377 C   0  0  0  0  0  0  0  0  0  0  0  0
  -18.6076  -27.5221   22.7256 C   0  0  0  0  0  0  0  0  0  0  0  0
  -30.1016  -23.5357   17.1038 C   0  0  0  0  0  0  0  0  0  0  0  0
  -20.0783  -28.3402   16.0894 C   0  0  0  0  0  0  0  0  0  0  0  0
  -28.1264  -24.5401   16.1751 C   0  0  0  0  0  0  0  0  0  0  0  0
  -28.0371  -25.7732   17.0610 C   0  0  0  0  0  0  0  0  0  1  0  0
  -20.3240  -27.1167   20.9140 C   0  0  1  0  0  0  0  0  0  0  0  0
  -18.4061  -27.3398   17.6519 C   0  0  2  0  0  0  0  0  0  0  0  0
  -19.6582  -26.5258   22.1888 C   0  0  0  0  0  0  0  0  0  0  0  0
  -25.9320  -11.7302   20.4947 N   0  0  0  0  0  0  0  0  0  0  0  0
  -26.3550  -12.9974   20.6412 N   0  0  0  0  0  0  0  0  0  0  0  0
  -22.4519  -28.3800   20.9151 N   0  0  0  0  0  0  0  0  0  0  0  0
  -29.1662  -14.1544   18.3098 N   0  0  0  0  0  0  0  0  0  0  0  0
  -28.6963  -16.4101   17.6618 N   0  0  0  0  0  0  0  0  0  0  0  0
  -25.6832  -15.1364   21.4052 N   0  0  0  0  0  0  0  0  0  0  0  0
  -22.0392  -12.5735   22.1464 N   0  0  0  0  0  0  0  0  0  0  0  0
  -24.6254  -30.1290   23.2630 N   0  0  0  0  0  0  0  0  0  0  0  0
  -19.3870  -27.4270   19.8397 N   0  0  0  0  0  0  0  0  0  0  0  0
  -28.6560  -23.3890   16.9119 N   0  0  1  0  0  0  0  0  0  0  0  0
  -26.7652  -20.4059   15.8873 N   0  3  0  0  0  0  0  0  0  0  0  0
  -18.9187  -27.4265   16.2552 N   0  3  0  0  0  0  0  0  0  0  0  0
  -22.8896  -14.6961   22.3211 O   0  0  0  0  0  0  0  0  0  0  0  0
  -23.6544  -28.0160   23.1415 O   0  0  0  0  0  0  0  0  0  0  0  0
  -20.4709  -29.3677   21.6473 O   0  0  0  0  0  0  0  0  0  0  0  0
  -20.3704  -26.0632   18.2428 O   0  0  0  0  0  0  0  0  0  0  0  0
  -30.8373  -15.5963   17.6626 O   0  0  0  0  0  0  0  0  0  0  0  0
  -21.5525   -7.1382   21.0259 O   0  0  0  0  0  0  0  0  0  0  0  0
  -27.1596  -25.4951   18.1442 O   0  0  0  0  0  0  0  0  0  1  0  0
  -18.6882   -6.0452   25.6090 F   0  0  0  0  0  0  0  0  0  0  0  0
  -21.9801   -4.8031   22.4426 F   0  0  0  0  0  0  0  0  0  0  0  0
  1  2  1  0  0  0  0
  1  5  2  0  0  0  0
  2  6  2  0  0  0  0
  3  8  2  0  0  0  0
  3 15  1  0  0  0  0
  4  9  1  0  0  0  0
  4 15  2  0  0  0  0
  5 17  1  0  0  0  0
  6 19  1  0  0  0  0
  7 10  2  0  0  0  0
  7 18  1  0  0  0  0
  8 21  1  0  0  0  0
  9 21  2  0  0  0  0
 10 22  1  0  0  0  0
 11 12  2  0  0  0  0
 11 23  1  0  0  0  0
 12 24  1  0  0  0  0
 13 20  1  0  0  0  0
 13 22  2  0  0  0  0
 14 24  2  0  0  0  0
 14 25  1  0  0  0  0
 15 26  1  0  0  0  0
 16 26  1  0  0  0  0
 16 27  2  0  0  0  0
 16 28  1  0  0  0  0
 17 19  2  0  0  0  0
 17 33  1  0  0  0  0
 18 20  2  0  0  0  0
 18 34  1  0  0  0  0
 19 47  1  0  0  0  0
 20 35  1  0  0  0  0
 21 81  1  0  0  0  0
 22 82  1  0  0  0  0
 23 25  2  0  0  0  0
 23 81  1  0  0  0  0
 24 83  1  0  0  0  0
 25 84  1  0  0  0  0
 26 64  2  0  0  0  0
 27 65  1  0  0  0  0
 27 69  1  0  0  0  0
 28 70  1  0  0  0  0
 28 76  2  0  0  0  0
 29 48  1  0  0  0  0
 29 71  1  0  0  0  0
 29 77  2  0  0  0  0
 30 61  1  0  0  0  0
 30 66  1  0  0  0  0
 30 78  2  0  0  0  0
 31 62  1  0  0  0  0
 31 72  1  0  0  0  0
 31 79  2  0  0  0  0
 32 67  1  0  0  0  0
 32 68  1  0  0  0  0
 32 80  2  0  0  0  0
 33 36  1  0  0  0  0
 34 48  1  0  0  0  0
 35 66  1  0  0  0  0
 36 38  1  0  0  0  0
 37 39  1  0  0  0  0
 37 42  1  0  0  0  0
 38 47  1  0  0  0  0
 39 50  1  0  0  0  0
 40 43  1  0  0  0  0
 40 49  1  0  0  0  0
 41 51  1  0  0  0  0
 41 52  1  0  0  0  0
 42 67  1  0  0  0  0
 43 68  1  0  0  0  0
 44 49  1  0  0  0  0
 44 68  1  0  0  0  0
 45 50  1  0  0  0  0
 45 67  1  0  0  0  0
 46 51  1  0  0  0  0
 46 74  1  0  0  0  0
 47 71  1  0  0  0  0
 48 66  1  0  0  0  0
 49 52  1  0  0  0  0
 50 65  1  0  0  0  0
 51 73  1  0  0  0  0
 52 74  1  0  0  0  0
 53 62  1  0  0  0  0
 54 63  1  0  0  0  0
 55 63  1  0  0  0  0
 56 63  1  0  0  0  0
 57 73  1  0  0  0  0
 58 75  1  0  0  0  0
 59 60  1  0  0  0  0
 59 73  1  0  0  0  0
 60 82  1  0  0  0  0
 61 63  1  0  0  0  0
 61 72  1  0  0  0  0
 62 75  1  0  0  0  0
 64 65  1  0  0  0  0
M  CHG  2  74   1  75   1
M  ISO  4  32 100  60 101  68 100  82 101
M  END
> <Batch ID>
0195

> <Smiles>
CNC(C)C(=O)NC(C(=O)N1Cc2cc([101O:1][101CH2:1]CN(C)C3CNC(C4CC[100N:0]([100C:0](=O)N5CCCC(n6nc(-c7ccc(Oc8ccc(F)cc8F)cc7)c(C(N)=O)c6N)C5)C4)C3)ccc2CC1C(=O)NC1CCCc2ccccc21)C(C)(C)C

> <Shape>
0.315

> <Color>
0.137

> <Negative vol penalty>
0.000

$$$$

  -OEChem-04052323373D

 86 96  0     1  0  0  0  0  0999 V2000
  -27.0597  -33.0754   27.5620 C   0  0  0  0  0  0  0  0  0  0  0  0
  -27.5075  -32.1177   26.6577 C   0  0  0  0  0  0  0  0  0  0  0  0
  -24.4707   -9.1051   21.3426 C   0  0  0  0  0  0  0  0  0  0  0  0
  -23.1903  -11.1274   21.6709 C   0  0  0  0  0  0  0  0  0  0  0  0
  -25.6998  -33.1760   27.8526 C   0  0  0  0  0  0  0  0  0  0  0  0
  -26.5957  -31.2593   26.0443 C   0  0  0  0  0  0  0  0  0  0  0  0
  -26.8945  -29.0322   20.3473 C   0  0  0  0  0  0  0  0  0  0  0  0
  -23.7186   -8.4686   22.3298 C   0  0  0  0  0  0  0  0  0  0  0  0
  -22.4381  -10.4909   22.6582 C   0  0  0  0  0  0  0  0  0  0  0  0
  -27.3352  -27.8108   19.8396 C   0  0  0  0  0  0  0  0  0  0  0  0
  -20.6704   -7.0301   22.5994 C   0  0  0  0  0  0  0  0  0  0  0  0
  -20.2104   -5.7405   22.3333 C   0  0  0  0  0  0  0  0  0  0  0  0
  -25.0645  -26.9964   19.8441 C   0  0  0  0  0  0  0  0  0  0  0  0
  -21.4345   -4.9096   24.2433 C   0  0  0  0  0  0  0  0  0  0  0  0
  -27.5751  -22.1067   16.6804 C   0  0  0  0  0  0  0  0  0  0  0  0
  -24.2066  -10.4346   21.0132 C   0  0  0  0  0  0  0  0  0  0  0  0
  -24.7080  -11.1426   18.6142 C   0  0  0  0  0  0  0  0  0  0  0  0
  -24.7698  -32.3249   27.2352 C   0  0  0  0  0  0  0  0  0  0  0  0
  -25.5346  -29.2414   20.6179 C   0  0  0  0  0  0  0  0  0  0  0  0
  -25.2222  -31.3478   26.3280 C   0  0  0  0  0  0  0  0  0  0  0  0
  -24.6088  -28.2223   20.3528 C   0  0  0  0  0  0  0  0  0  0  0  0
  -26.9782  -23.2951   17.0488 C   0  0  0  0  0  0  0  0  0  0  0  0
  -22.7022   -9.1614   22.9876 C   0  0  0  0  0  0  0  0  0  0  0  0
  -26.4206  -26.7917   19.5906 C   0  0  0  0  0  0  0  0  0  0  0  0
  -21.5126   -7.2595   23.6875 C   0  0  0  0  0  0  0  0  0  0  0  0
  -20.5924   -4.6803   23.1552 C   0  0  0  0  0  0  0  0  0  0  0  0
  -21.8946   -6.1992   24.5094 C   0  0  0  0  0  0  0  0  0  0  0  0
  -24.9836  -11.0929   19.9938 C   0  0  0  0  0  0  0  0  0  0  0  0
  -26.5243  -23.3568   18.3506 C   0  0  0  0  0  0  0  0  0  0  0  0
  -25.7377  -11.8815   18.0848 C   0  0  0  0  0  0  0  0  0  0  0  0
  -27.2399  -21.2372   18.7537 C   0  0  0  0  0  0  0  0  0  0  0  0
  -23.6186  -10.5720   17.8771 C   0  0  0  0  0  0  0  0  0  0  0  0
  -23.8403  -29.8846   23.2293 C   0  0  0  0  0  0  0  0  0  0  0  0
  -21.4046  -30.1700   21.1060 C   0  0  0  0  0  0  0  0  0  0  0  0
  -20.1144  -29.3632   18.0513 C   0  0  0  0  0  0  0  0  0  0  0  0
  -29.3869  -16.0304   20.3723 C   0  0  0  0  0  0  0  0  0  0  0  0
  -23.3152  -32.4401   27.6169 C   0  0  0  0  0  0  0  0  0  0  0  0
  -25.0719  -30.5739   21.1403 C   0  0  0  0  0  0  0  0  0  0  0  0
  -23.1354  -28.4035   20.6071 C   0  0  0  0  0  0  0  0  0  0  0  0
  -22.3722  -31.7408   26.6412 C   0  0  0  0  0  0  0  0  0  0  0  0
  -30.3366  -12.9720   18.8371 C   0  0  0  0  0  0  0  0  0  0  0  0
  -27.8161  -24.5278   14.9388 C   0  0  0  0  0  0  0  0  0  0  0  0
  -27.8947  -25.5044   16.0704 C   0  0  0  0  0  0  0  0  0  0  0  0
  -22.8897  -30.3455   26.3060 C   0  0  0  0  0  0  0  0  0  0  0  0
  -29.0476  -12.1485   18.8298 C   0  0  0  0  0  0  0  0  0  0  0  0
  -27.0136  -18.7447   21.4630 C   0  0  0  0  0  0  0  0  0  0  0  0
  -30.4597  -13.8160   20.1040 C   0  0  0  0  0  0  0  0  0  0  0  0
  -26.9107  -20.2025   21.0151 C   0  0  0  0  0  0  0  0  0  0  0  0
  -28.0128  -13.8579   20.3814 C   0  0  0  0  0  0  0  0  0  0  0  0
  -27.9784  -18.8963   19.2797 C   0  0  0  0  0  0  0  0  0  0  0  0
  -26.8447  -24.4211   16.0882 C   0  0  0  0  0  0  0  0  0  0  0  0
  -24.2611  -30.4150   25.6235 C   0  0  1  0  0  0  0  0  0  0  0  0
  -23.7302  -30.4992   21.8626 C   0  0  1  0  0  0  0  0  0  0  0  0
  -27.8148  -13.0329   19.0982 C   0  0  2  0  0  0  0  0  0  0  0  0
  -28.1764  -18.2153   20.6349 C   0  0  2  0  0  0  0  0  0  0  0  0
  -18.0881  -29.7149   16.6135 C   0  0  0  0  0  0  0  0  0  0  0  0
  -19.8530  -28.1679   22.8072 C   0  0  0  0  0  0  0  0  0  0  0  0
  -18.2926  -27.8425   20.8765 C   0  0  0  0  0  0  0  0  0  0  0  0
  -18.4932  -30.0845   21.9516 C   0  0  0  0  0  0  0  0  0  0  0  0
  -21.7031  -30.6877   15.9346 C   0  0  0  0  0  0  0  0  0  0  0  0
  -25.8567  -24.5985   18.8642 C   0  0  0  0  0  0  0  0  0  1  0  0
  -20.3868  -29.2257   20.5133 C   0  0  1  0  0  0  0  0  0  0  0  0
  -19.4789  -30.2169   16.9689 C   0  0  2  0  0  0  0  0  0  0  0  0
  -19.2843  -28.8258   21.5341 C   0  0  0  0  0  0  0  0  0  0  0  0
  -27.7232  -21.0533   17.5103 N   0  0  0  0  0  0  0  0  0  0  0  0
  -26.1009  -11.7478   20.3204 N   0  0  0  0  0  0  0  0  0  0  0  0
  -26.6390  -22.3429   19.2333 N   0  0  0  0  0  0  0  0  0  0  0  0
  -26.5365  -12.2161   19.1384 N   0  0  0  0  0  0  0  0  0  0  0  0
  -27.3754  -20.1813   19.6296 N   0  0  3  0  0  0  0  0  0  0  0  0
  -22.7330  -29.7220   21.1239 N   0  0  0  0  0  0  0  0  0  0  0  0
  -29.2596  -14.6345   20.2948 N   0  0  0  0  0  0  0  0  0  0  0  0
  -26.0287  -12.2711   16.8254 N   0  0  0  0  0  0  0  0  0  0  0  0
  -22.6477   -9.8427   18.5771 N   0  0  0  0  0  0  0  0  0  0  0  0
  -24.1157  -30.7924   24.2340 N   0  0  0  0  0  0  0  0  0  0  0  0
  -19.8794  -29.8755   19.3097 N   0  0  0  0  0  0  0  0  0  0  0  0
  -28.2036  -16.7410   20.5449 N   0  0  0  0  0  0  0  0  0  0  0  0
  -20.3152  -30.1968   15.7355 N   0  3  0  0  0  0  0  0  0  0  0  0
  -23.5181  -10.6910   16.6324 O   0  0  0  0  0  0  0  0  0  0  0  0
  -23.6852  -28.6763   23.3626 O   0  0  0  0  0  0  0  0  0  0  0  0
  -21.0356  -31.2678   21.5308 O   0  0  0  0  0  0  0  0  0  0  0  0
  -20.7522  -28.3418   17.8054 O   0  0  0  0  0  0  0  0  0  0  0  0
  -30.4747  -16.6105   20.2863 O   0  0  0  0  0  0  0  0  0  0  0  0
  -21.9679   -8.5405   23.9508 O   0  0  0  0  0  0  0  0  0  0  0  0
  -26.8482  -25.5983   19.0957 O   0  0  0  0  0  0  0  0  0  1  0  0
  -20.1492   -3.4422   22.9004 F   0  0  0  0  0  0  0  0  0  0  0  0
  -22.7026   -6.4136   25.5568 F   0  0  0  0  0  0  0  0  0  0  0  0
  1  2  1  0  0  0  0
  1  5  2  0  0  0  0
  2  6  2  0  0  0  0
  3  8  2  0  0  0  0
  3 16  1  0  0  0  0
  4  9  1  0  0  0  0
  4 16  2  0  0  0  0
  5 18  1  0  0  0  0
  6 20  1  0  0  0  0
  7 10  2  0  0  0  0
  7 19  1  0  0  0  0
  8 23  1  0  0  0  0
  9 23  2  0  0  0  0
 10 24  1  0  0  0  0
 11 12  2  0  0  0  0
 11 25  1  0  0  0  0
 12 26  1  0  0  0  0
 13 21  1  0  0  0  0
 13 24  2  0  0  0  0
 14 26  2  0  0  0  0
 14 27  1  0  0  0  0
 15 22  1  0  0  0  0
 15 65  2  0  0  0  0
 16 28  1  0  0  0  0
 17 28  1  0  0  0  0
 17 30  2  0  0  0  0
 17 32  1  0  0  0  0
 18 20  2  0  0  0  0
 18 37  1  0  0  0  0
 19 21  2  0  0  0  0
 19 38  1  0  0  0  0
 20 52  1  0  0  0  0
 21 39  1  0  0  0  0
 22 29  2  0  0  0  0
 22 51  1  0  0  0  0
 23 83  1  0  0  0  0
 24 84  1  0  0  0  0
 25 27  2  0  0  0  0
 25 83  1  0  0  0  0
 26 85  1  0  0  0  0
 27 86  1  0  0  0  0
 28 66  2  0  0  0  0
 29 61  1  0  0  0  0
 29 67  1  0  0  0  0
 30 68  1  0  0  0  0
 30 72  1  0  0  0  0
 31 65  1  0  0  0  0
 31 67  2  0  0  0  0
 31 69  1  0  0  0  0
 32 73  1  0  0  0  0
 32 78  2  0  0  0  0
 33 53  1  0  0  0  0
 33 74  1  0  0  0  0
 33 79  2  0  0  0  0
 34 62  1  0  0  0  0
 34 70  1  0  0  0  0
 34 80  2  0  0  0  0
 35 63  1  0  0  0  0
 35 75  1  0  0  0  0
 35 81  2  0  0  0  0
 36 71  1  0  0  0  0
 36 76  1  0  0  0  0
 36 82  2  0  0  0  0
 37 40  1  0  0  0  0
 38 53  1  0  0  0  0
 39 70  1  0  0  0  0
 40 44  1  0  0  0  0
 41 45  1  0  0  0  0
 41 47  1  0  0  0  0
 42 43  1  0  0  0  0
 42 51  1  0  0  0  0
 43 51  1  0  0  0  0
 44 52  1  0  0  0  0
 45 54  1  0  0  0  0
 46 48  1  0  0  0  0
 46 55  1  0  0  0  0
 47 71  1  0  0  0  0
 48 69  1  0  0  0  0
 49 54  1  0  0  0  0
 49 71  1  0  0  0  0
 50 55  1  0  0  0  0
 50 69  1  0  0  0  0
 52 74  1  0  0  0  0
 53 70  1  0  0  0  0
 54 68  1  0  0  0  0
 55 76  1  0  0  0  0
 56 63  1  0  0  0  0
 57 64  1  0  0  0  0
 58 64  1  0  0  0  0
 59 64  1  0  0  0  0
 60 77  1  0  0  0  0
 61 84  1  0  0  0  0
 62 64  1  0  0  0  0
 62 75  1  0  0  0  0
 63 77  1  0  0  0  0
 66 68  1  0  0  0  0
M  CHG  1  77   1
M  ISO  4  36 100  61 101  76 100  84 101
M  END
> <Batch ID>
0195

> <Smiles>
CNC(C)C(=O)NC(C(=O)N1Cc2cc([101O:1][101CH2:1]c3nc(N4CCC([100NH:0][100C:0](=O)N5CCCC(n6nc(-c7ccc(Oc8ccc(F)cc8F)cc7)c(C(N)=O)c6N)C5)C4)ncc3C3CC3)ccc2CC1C(=O)NC1CCCc2ccccc21)C(C)(C)C

> <Shape>
0.277

> <Color>
0.094

> <Negative vol penalty>
0.000

$$$$

  -OEChem-04052323373D

 83 92  0     1  0  0  0  0  0999 V2000
  -17.9512  -29.8888   16.5691 C   0  0  0  0  0  0  0  0  0  0  0  0
  -19.1148  -29.1351   16.6844 C   0  0  0  0  0  0  0  0  0  0  0  0
  -22.7618  -10.8354   20.3703 C   0  0  0  0  0  0  0  0  0  0  0  0
  -24.1276   -9.0544   19.4759 C   0  0  0  0  0  0  0  0  0  0  0  0
  -17.9812  -31.2589   16.8252 C   0  0  0  0  0  0  0  0  0  0  0  0
  -20.3095  -29.7514   17.0550 C   0  0  0  0  0  0  0  0  0  0  0  0
  -24.7882  -27.3459   20.4698 C   0  0  0  0  0  0  0  0  0  0  0  0
  -21.6643  -10.3513   19.6584 C   0  0  0  0  0  0  0  0  0  0  0  0
  -23.0301   -8.5703   18.7640 C   0  0  0  0  0  0  0  0  0  0  0  0
  -26.0024  -26.7466   20.1374 C   0  0  0  0  0  0  0  0  0  0  0  0
  -18.4130   -9.3732   18.3595 C   0  0  0  0  0  0  0  0  0  0  0  0
  -17.1924   -9.2870   19.0291 C   0  0  0  0  0  0  0  0  0  0  0  0
  -27.1273  -28.8542   20.4715 C   0  0  0  0  0  0  0  0  0  0  0  0
  -18.1787   -7.7719   20.6319 C   0  0  0  0  0  0  0  0  0  0  0  0
  -23.9934  -10.1870   20.2790 C   0  0  0  0  0  0  0  0  0  0  0  0
  -25.5190  -10.3315   22.3185 C   0  0  0  0  0  0  0  0  0  0  0  0
  -19.1748  -31.8906   17.2085 C   0  0  0  0  0  0  0  0  0  0  0  0
  -24.7328  -28.7087   20.7955 C   0  0  0  0  0  0  0  0  0  0  0  0
  -20.3558  -31.1315   17.3152 C   0  0  0  0  0  0  0  0  0  0  0  0
  -25.9116  -29.4679   20.8101 C   0  0  0  0  0  0  0  0  0  0  0  0
  -21.7985   -9.2187   18.8553 C   0  0  0  0  0  0  0  0  0  0  0  0
  -27.1717  -27.5014   20.1354 C   0  0  0  0  0  0  0  0  0  0  0  0
  -19.5164   -8.6587   18.8260 C   0  0  0  0  0  0  0  0  0  0  0  0
  -17.0752   -8.4864   20.1653 C   0  0  0  0  0  0  0  0  0  0  0  0
  -19.3992   -7.8581   19.9622 C   0  0  0  0  0  0  0  0  0  0  0  0
  -25.1276  -10.6869   21.0138 C   0  0  0  0  0  0  0  0  0  0  0  0
  -26.6478  -11.0779   22.5536 C   0  0  0  0  0  0  0  0  0  0  0  0
  -24.9162   -9.4092   23.2358 C   0  0  0  0  0  0  0  0  0  0  0  0
  -23.2953  -31.2558   19.5506 C   0  0  0  0  0  0  0  0  0  0  0  0
  -24.4610  -32.7232   22.1983 C   0  0  0  0  0  0  0  0  0  0  0  0
  -26.7917  -32.7793   24.6906 C   0  0  0  0  0  0  0  0  0  0  0  0
  -28.3709  -16.2470   19.9409 C   0  0  0  0  0  0  0  0  0  0  0  0
  -19.1682  -33.3826   17.4290 C   0  0  0  0  0  0  0  0  0  0  0  0
  -23.4193  -29.3341   21.1777 C   0  0  0  0  0  0  0  0  0  0  0  0
  -25.9089  -30.9299   21.1721 C   0  0  0  0  0  0  0  0  0  0  0  0
  -20.3950  -33.8927   18.1807 C   0  0  0  0  0  0  0  0  0  0  0  0
  -30.3332  -13.1194   20.2917 C   0  0  0  0  0  0  0  0  0  0  0  0
  -21.6679  -33.2865   17.5986 C   0  0  0  0  0  0  0  0  0  0  0  0
  -29.2291  -12.1045   20.5917 C   0  0  0  0  0  0  0  0  0  0  0  0
  -31.2698  -18.2302   21.0250 C   0  0  0  0  0  0  0  0  0  0  0  0
  -31.1554  -21.7867   18.3291 C   0  0  0  0  0  0  0  0  0  0  0  0
  -29.8148  -14.2412   19.4013 C   0  0  0  0  0  0  0  0  0  0  0  0
  -30.7750  -16.8527   20.5948 C   0  0  0  0  0  0  0  0  0  0  0  0
  -30.9887  -23.2839   18.0657 C   0  0  0  0  0  0  0  0  0  0  0  0
  -27.5179  -13.9512   20.2481 C   0  0  0  0  0  0  0  0  0  0  0  0
  -29.2970  -18.5362   19.7226 C   0  0  0  0  0  0  0  0  0  0  0  0
  -29.7525  -22.8074   19.9915 C   0  0  0  0  0  0  0  0  0  0  0  0
  -21.6659  -31.7594   17.7389 C   0  0  1  0  0  0  0  0  0  0  0  0
  -23.4021  -30.8483   20.9929 C   0  0  1  0  0  0  0  0  0  0  0  0
  -27.9754  -12.7965   21.1570 C   0  0  1  0  0  0  0  0  0  0  0  0
  -30.6792  -19.1229   19.9438 C   0  0  1  0  0  0  0  0  0  0  0  0
  -30.0958  -21.4667   19.3737 C   0  0  2  0  0  0  0  0  0  0  0  0
  -27.5125  -34.1228   26.6838 C   0  0  0  0  0  0  0  0  0  0  0  0
  -25.7161  -34.7961   20.3442 C   0  0  0  0  0  0  0  0  0  0  0  0
  -27.1655  -35.5228   22.2519 C   0  0  0  0  0  0  0  0  0  0  0  0
  -24.6860  -35.7397   22.4185 C   0  0  0  0  0  0  0  0  0  0  0  0
  -26.3092  -30.5164   26.5359 C   0  0  0  0  0  0  0  0  0  0  0  0
  -29.7419  -25.0787   19.1296 C   0  0  0  0  0  0  0  0  0  0  0  0
  -28.3335  -25.5317   19.4825 C   0  0  0  0  0  0  0  0  0  1  0  0
  -25.7407  -33.4454   22.5444 C   0  0  1  0  0  0  0  0  0  0  0  0
  -26.6576  -32.9656   26.1912 C   0  0  2  0  0  0  0  0  0  0  0  0
  -25.8272  -34.8489   21.8810 C   0  0  0  0  0  0  0  0  0  0  0  0
  -25.9415  -11.5890   20.4590 N   0  0  0  0  0  0  0  0  0  0  0  0
  -26.8556  -11.8068   21.4198 N   0  0  0  0  0  0  0  0  0  0  0  0
  -24.5989  -31.4971   21.5324 N   0  0  0  0  0  0  0  0  0  0  0  0
  -28.6255  -14.8714   19.9813 N   0  0  0  0  0  0  0  0  0  0  0  0
  -29.4670  -17.1075   19.9821 N   0  0  0  0  0  0  0  0  0  0  0  0
  -29.7777  -23.6617   18.8017 N   0  0  1  0  0  0  0  0  0  0  0  0
  -27.4728  -11.1753   23.6177 N   0  0  0  0  0  0  0  0  0  0  0  0
  -23.7605   -8.7259   22.8336 N   0  0  0  0  0  0  0  0  0  0  0  0
  -21.9964  -31.3760   19.0947 N   0  0  0  0  0  0  0  0  0  0  0  0
  -25.8158  -33.4675   24.0012 N   0  0  0  0  0  0  0  0  0  0  0  0
  -30.6060  -20.5249   20.3866 N   0  3  0  0  0  0  0  0  0  0  0  0
  -27.0827  -31.7293   26.9067 N   0  3  0  0  0  0  0  0  0  0  0  0
  -25.3790   -9.2094   24.3845 O   0  0  0  0  0  0  0  0  0  0  0  0
  -24.3157  -31.4485   18.9000 O   0  0  0  0  0  0  0  0  0  0  0  0
  -23.3792  -33.2249   22.5137 O   0  0  0  0  0  0  0  0  0  0  0  0
  -27.6762  -32.0950   24.1808 O   0  0  0  0  0  0  0  0  0  0  0  0
  -27.2142  -16.6880   19.9184 O   0  0  0  0  0  0  0  0  0  0  0  0
  -20.7277   -8.7460   18.1606 O   0  0  0  0  0  0  0  0  0  0  0  0
  -28.3665  -26.9149   19.8084 O   0  0  0  0  0  0  0  0  0  1  0  0
  -15.9035   -8.4049   20.8091 F   0  0  0  0  0  0  0  0  0  0  0  0
  -20.4561   -7.1703   20.4159 F   0  0  0  0  0  0  0  0  0  0  0  0
  1  2  1  0  0  0  0
  1  5  2  0  0  0  0
  2  6  2  0  0  0  0
  3  8  2  0  0  0  0
  3 15  1  0  0  0  0
  4  9  1  0  0  0  0
  4 15  2  0  0  0  0
  5 17  1  0  0  0  0
  6 19  1  0  0  0  0
  7 10  2  0  0  0  0
  7 18  1  0  0  0  0
  8 21  1  0  0  0  0
  9 21  2  0  0  0  0
 10 22  1  0  0  0  0
 11 12  2  0  0  0  0
 11 23  1  0  0  0  0
 12 24  1  0  0  0  0
 13 20  1  0  0  0  0
 13 22  2  0  0  0  0
 14 24  2  0  0  0  0
 14 25  1  0  0  0  0
 15 26  1  0  0  0  0
 16 26  1  0  0  0  0
 16 27  2  0  0  0  0
 16 28  1  0  0  0  0
 17 19  2  0  0  0  0
 17 33  1  0  0  0  0
 18 20  2  0  0  0  0
 18 34  1  0  0  0  0
 19 48  1  0  0  0  0
 20 35  1  0  0  0  0
 21 80  1  0  0  0  0
 22 81  1  0  0  0  0
 23 25  2  0  0  0  0
 23 80  1  0  0  0  0
 24 82  1  0  0  0  0
 25 83  1  0  0  0  0
 26 63  2  0  0  0  0
 27 64  1  0  0  0  0
 27 69  1  0  0  0  0
 28 70  1  0  0  0  0
 28 75  2  0  0  0  0
 29 49  1  0  0  0  0
 29 71  1  0  0  0  0
 29 76  2  0  0  0  0
 30 60  1  0  0  0  0
 30 65  1  0  0  0  0
 30 77  2  0  0  0  0
 31 61  1  0  0  0  0
 31 72  1  0  0  0  0
 31 78  2  0  0  0  0
 32 66  1  0  0  0  0
 32 67  1  0  0  0  0
 32 79  2  0  0  0  0
 33 36  1  0  0  0  0
 34 49  1  0  0  0  0
 35 65  1  0  0  0  0
 36 38  1  0  0  0  0
 37 39  1  0  0  0  0
 37 42  1  0  0  0  0
 38 48  1  0  0  0  0
 39 50  1  0  0  0  0
 40 43  1  0  0  0  0
 40 51  1  0  0  0  0
 41 44  1  0  0  0  0
 41 52  1  0  0  0  0
 42 66  1  0  0  0  0
 43 67  1  0  0  0  0
 44 68  1  0  0  0  0
 45 50  1  0  0  0  0
 45 66  1  0  0  0  0
 46 51  1  0  0  0  0
 46 67  1  0  0  0  0
 47 52  1  0  0  0  0
 47 68  1  0  0  0  0
 48 71  1  0  0  0  0
 49 65  1  0  0  0  0
 50 64  1  0  0  0  0
 51 73  1  0  0  0  0
 52 73  1  0  0  0  0
 53 61  1  0  0  0  0
 54 62  1  0  0  0  0
 55 62  1  0  0  0  0
 56 62  1  0  0  0  0
 57 74  1  0  0  0  0
 58 59  1  0  0  0  0
 58 68  1  0  0  0  0
 59 81  1  0  0  0  0
 60 62  1  0  0  0  0
 60 72  1  0  0  0  0
 61 74  1  0  0  0  0
 63 64  1  0  0  0  0
M  CHG  2  73   1  74   1
M  ISO  4  32 100  59 101  67 100  81 101
M  END
> <Batch ID>
0195

> <Smiles>
CNC(C)C(=O)NC(C(=O)N1Cc2cc([101O:1][101CH2:1]CN3CCC(NC4CC[100N:0]([100C:0](=O)N5CCCC(n6nc(-c7ccc(Oc8ccc(F)cc8F)cc7)c(C(N)=O)c6N)C5)C4)C3)ccc2CC1C(=O)NC1CCCc2ccccc21)C(C)(C)C

> <Shape>
0.274

> <Color>
0.096

> <Negative vol penalty>
0.000

$$$$

  -OEChem-04052323373D

 89 99  0     1  0  0  0  0  0999 V2000
  -15.5179  -13.0851   21.9397 C   0  0  0  0  0  0  0  0  0  0  0  0
  -16.5140  -12.4801   21.1801 C   0  0  0  0  0  0  0  0  0  0  0  0
  -23.1422  -28.5996   21.5902 C   0  0  0  0  0  0  0  0  0  0  0  0
  -25.2508  -29.4379   20.7608 C   0  0  0  0  0  0  0  0  0  0  0  0
  -15.7545  -14.3209   22.5403 C   0  0  0  0  0  0  0  0  0  0  0  0
  -17.7471  -13.1111   21.0196 C   0  0  0  0  0  0  0  0  0  0  0  0
  -24.7150  -11.6365   20.2517 C   0  0  0  0  0  0  0  0  0  0  0  0
  -23.0257  -29.7141   22.4207 C   0  0  0  0  0  0  0  0  0  0  0  0
  -25.1343  -30.5525   21.5914 C   0  0  0  0  0  0  0  0  0  0  0  0
  -25.7912  -11.9259   19.4140 C   0  0  0  0  0  0  0  0  0  0  0  0
  -25.6140  -31.2875   24.8564 C   0  0  0  0  0  0  0  0  0  0  0  0
  -26.7417  -31.6785   25.5782 C   0  0  0  0  0  0  0  0  0  0  0  0
  -26.1145  -14.0220   20.5633 C   0  0  0  0  0  0  0  0  0  0  0  0
  -26.6979  -33.8304   24.4807 C   0  0  0  0  0  0  0  0  0  0  0  0
  -24.2548  -28.4615   20.7603 C   0  0  0  0  0  0  0  0  0  0  0  0
  -23.9077  -27.1813   18.5812 C   0  0  0  0  0  0  0  0  0  0  0  0
  -16.9945  -14.9629   22.3951 C   0  0  0  0  0  0  0  0  0  0  0  0
  -24.3230  -12.5442   21.2461 C   0  0  0  0  0  0  0  0  0  0  0  0
  -18.0001  -14.3573   21.6177 C   0  0  0  0  0  0  0  0  0  0  0  0
  -25.0346  -13.7406   21.4140 C   0  0  0  0  0  0  0  0  0  0  0  0
  -24.0217  -30.6906   22.4213 C   0  0  0  0  0  0  0  0  0  0  0  0
  -26.4894  -13.1200   19.5678 C   0  0  0  0  0  0  0  0  0  0  0  0
  -25.0283  -32.1679   23.9467 C   0  0  0  0  0  0  0  0  0  0  0  0
  -27.2836  -32.9500   25.3904 C   0  0  0  0  0  0  0  0  0  0  0  0
  -25.5702  -33.4394   23.7589 C   0  0  0  0  0  0  0  0  0  0  0  0
  -24.3760  -27.3101   19.9025 C   0  0  0  0  0  0  0  0  0  0  0  0
  -24.2691  -25.9089   18.2113 C   0  0  0  0  0  0  0  0  0  0  0  0
  -30.8581  -15.4442   22.0918 C   0  0  0  0  0  0  0  0  0  0  0  0
  -30.5731  -17.2495   21.0834 C   0  0  0  0  0  0  0  0  0  0  0  0
  -23.2086  -28.1274   17.7614 C   0  0  0  0  0  0  0  0  0  0  0  0
  -21.6852  -14.2134   21.8457 C   0  0  0  0  0  0  0  0  0  0  0  0
  -23.2698  -15.0015   24.5643 C   0  0  0  0  0  0  0  0  0  0  0  0
  -26.2312  -15.9206   26.4089 C   0  0  0  0  0  0  0  0  0  0  0  0
  -28.5207  -22.3255   19.7956 C   0  0  0  0  0  0  0  0  0  0  0  0
  -17.1873  -16.3201   23.0240 C   0  0  0  0  0  0  0  0  0  0  0  0
  -23.1767  -12.2051   22.1591 C   0  0  0  0  0  0  0  0  0  0  0  0
  -24.6665  -14.7394   22.4796 C   0  0  0  0  0  0  0  0  0  0  0  0
  -18.6501  -16.7470   23.1148 C   0  0  0  0  0  0  0  0  0  0  0  0
  -25.0987  -21.5666   20.0256 C   0  0  0  0  0  0  0  0  0  0  0  0
  -19.3639  -16.4917   21.7911 C   0  0  0  0  0  0  0  0  0  0  0  0
  -29.6609  -13.3517   23.1213 C   0  0  0  0  0  0  0  0  0  0  0  0
  -29.5575  -14.4457   24.1376 C   0  0  0  0  0  0  0  0  0  0  0  0
  -24.4703  -22.9533   19.8913 C   0  0  0  0  0  0  0  0  0  0  0  0
  -26.3584  -21.5899   20.8927 C   0  0  0  0  0  0  0  0  0  0  0  0
  -29.9331  -18.9226   19.3748 C   0  0  0  0  0  0  0  0  0  0  0  0
  -29.3542  -19.2642   21.7820 C   0  0  0  0  0  0  0  0  0  0  0  0
  -29.9879  -20.4369   19.1920 C   0  0  0  0  0  0  0  0  0  0  0  0
  -29.4318  -20.7706   21.5597 C   0  0  0  0  0  0  0  0  0  0  0  0
  -26.7409  -23.9662   20.3225 C   0  0  0  0  0  0  0  0  0  0  0  0
  -19.3593  -14.9988   21.4409 C   0  0  1  0  0  0  0  0  0  0  0  0
  -30.7499  -14.3938   23.2125 C   0  0  0  0  0  0  0  0  0  0  0  0
  -22.5419  -13.4339   22.8029 C   0  0  1  0  0  0  0  0  0  0  0  0
  -25.5057  -23.9846   19.4085 C   0  0  2  0  0  0  0  0  0  0  0  0
  -27.2620  -16.3972   28.6467 C   0  0  0  0  0  0  0  0  0  0  0  0
  -22.7686  -17.9276   23.8594 C   0  0  0  0  0  0  0  0  0  0  0  0
  -24.5332  -18.5574   25.5201 C   0  0  0  0  0  0  0  0  0  0  0  0
  -22.4739  -17.3723   26.2800 C   0  0  0  0  0  0  0  0  0  0  0  0
  -27.3537  -13.1890   26.6032 C   0  0  0  0  0  0  0  0  0  0  0  0
  -32.2887  -14.1495   20.4209 C   0  0  0  0  0  0  0  0  0  0  0  0
  -31.7586  -13.6312   19.0905 C   0  0  0  0  0  0  0  0  0  0  0  0
  -29.7159  -12.7350   17.9666 C   0  0  0  0  0  0  0  0  0  0  0  0
  -28.2903  -12.3026   18.2471 C   0  0  0  0  0  0  0  0  0  1  0  0
  -24.2212  -16.1025   24.9662 C   0  0  1  0  0  0  0  0  0  0  0  0
  -26.7047  -15.3255   27.7227 C   0  0  2  0  0  0  0  0  0  0  0  0
  -23.5052  -17.4722   25.1350 C   0  0  0  0  0  0  0  0  0  0  0  0
  -24.9880  -26.2074   20.3424 N   0  0  0  0  0  0  0  0  0  0  0  0
  -30.2545  -16.6630   22.2138 N   0  0  0  0  0  0  0  0  0  0  0  0
  -31.3321  -16.4093   20.3299 N   0  0  0  0  0  0  0  0  0  0  0  0
  -24.9067  -25.3736   19.2916 N   0  0  0  0  0  0  0  0  0  0  0  0
  -31.5302  -15.2397   20.9569 N   0  0  0  0  0  0  0  0  0  0  0  0
  -30.1530  -18.5500   20.7765 N   0  0  0  0  0  0  0  0  0  0  0  0
  -23.5344  -14.3652   23.3432 N   0  0  0  0  0  0  0  0  0  0  0  0
  -27.2978  -22.6152   20.4189 N   0  0  0  0  0  0  0  0  0  0  0  0
  -29.1545  -21.1295   20.1674 N   0  0  0  0  0  0  0  0  0  0  0  0
  -24.1003  -25.2069   17.0706 N   0  0  0  0  0  0  0  0  0  0  0  0
  -22.9170  -29.3890   18.2975 N   0  0  0  0  0  0  0  0  0  0  0  0
  -20.3568  -14.2943   22.2175 N   0  0  0  0  0  0  0  0  0  0  0  0
  -24.9045  -15.6334   26.1668 N   0  0  0  0  0  0  0  0  0  0  0  0
  -27.7718  -14.3142   27.4785 N   0  3  0  0  0  0  0  0  0  0  0  0
  -30.3442  -13.2060   19.2310 N   0  3  0  0  0  0  0  0  0  0  0  0
  -22.8386  -27.8560   16.5939 O   0  0  0  0  0  0  0  0  0  0  0  0
  -22.1922  -14.7063   20.8448 O   0  0  0  0  0  0  0  0  0  0  0  0
  -22.3307  -14.7117   25.3097 O   0  0  0  0  0  0  0  0  0  0  0  0
  -26.9639  -16.5778   25.6728 O   0  0  0  0  0  0  0  0  0  0  0  0
  -29.0166  -23.0863   18.9552 O   0  0  0  0  0  0  0  0  0  0  0  0
  -23.9083  -31.7785   23.2314 O   0  0  0  0  0  0  0  0  0  0  0  0
  -27.5473  -13.4073   18.7451 O   0  0  0  0  0  0  0  0  0  1  0  0
  -28.3656  -33.3259   26.0847 F   0  0  0  0  0  0  0  0  0  0  0  0
  -25.0112  -34.2900   22.8872 F   0  0  0  0  0  0  0  0  0  0  0  0
  1  2  1  0  0  0  0
  1  5  2  0  0  0  0
  2  6  2  0  0  0  0
  3  8  2  0  0  0  0
  3 15  1  0  0  0  0
  4  9  1  0  0  0  0
  4 15  2  0  0  0  0
  5 17  1  0  0  0  0
  6 19  1  0  0  0  0
  7 10  2  0  0  0  0
  7 18  1  0  0  0  0
  8 21  1  0  0  0  0
  9 21  2  0  0  0  0
 10 22  1  0  0  0  0
 11 12  2  0  0  0  0
 11 23  1  0  0  0  0
 12 24  1  0  0  0  0
 13 20  1  0  0  0  0
 13 22  2  0  0  0  0
 14 24  2  0  0  0  0
 14 25  1  0  0  0  0
 15 26  1  0  0  0  0
 16 26  1  0  0  0  0
 16 27  2  0  0  0  0
 16 30  1  0  0  0  0
 17 19  2  0  0  0  0
 17 35  1  0  0  0  0
 18 20  2  0  0  0  0
 18 36  1  0  0  0  0
 19 50  1  0  0  0  0
 20 37  1  0  0  0  0
 21 86  1  0  0  0  0
 22 87  1  0  0  0  0
 23 25  2  0  0  0  0
 23 86  1  0  0  0  0
 24 88  1  0  0  0  0
 25 89  1  0  0  0  0
 26 66  2  0  0  0  0
 27 69  1  0  0  0  0
 27 75  1  0  0  0  0
 28 51  1  0  0  0  0
 28 67  2  0  0  0  0
 28 70  1  0  0  0  0
 29 67  1  0  0  0  0
 29 68  2  0  0  0  0
 29 71  1  0  0  0  0
 30 76  1  0  0  0  0
 30 81  2  0  0  0  0
 31 52  1  0  0  0  0
 31 77  1  0  0  0  0
 31 82  2  0  0  0  0
 32 63  1  0  0  0  0
 32 72  1  0  0  0  0
 32 83  2  0  0  0  0
 33 64  1  0  0  0  0
 33 78  1  0  0  0  0
 33 84  2  0  0  0  0
 34 73  1  0  0  0  0
 34 74  1  0  0  0  0
 34 85  2  0  0  0  0
 35 38  1  0  0  0  0
 36 52  1  0  0  0  0
 37 72  1  0  0  0  0
 38 40  1  0  0  0  0
 39 43  1  0  0  0  0
 39 44  1  0  0  0  0
 40 50  1  0  0  0  0
 41 42  1  0  0  0  0
 41 51  1  0  0  0  0
 42 51  1  0  0  0  0
 43 53  1  0  0  0  0
 44 73  1  0  0  0  0
 45 47  1  0  0  0  0
 45 71  1  0  0  0  0
 46 48  1  0  0  0  0
 46 71  1  0  0  0  0
 47 74  1  0  0  0  0
 48 74  1  0  0  0  0
 49 53  1  0  0  0  0
 49 73  1  0  0  0  0
 50 77  1  0  0  0  0
 52 72  1  0  0  0  0
 53 69  1  0  0  0  0
 54 64  1  0  0  0  0
 55 65  1  0  0  0  0
 56 65  1  0  0  0  0
 57 65  1  0  0  0  0
 58 79  1  0  0  0  0
 59 60  1  0  0  0  0
 59 70  1  0  0  0  0
 60 80  1  0  0  0  0
 61 62  1  0  0  0  0
 61 80  1  0  0  0  0
 62 87  1  0  0  0  0
 63 65  1  0  0  0  0
 63 78  1  0  0  0  0
 64 79  1  0  0  0  0
 66 69  1  0  0  0  0
 68 70  1  0  0  0  0
M  CHG  2  79   1  80   1
M  ISO  4  34 100  62 101  74 100  87 101
M  END
> <Batch ID>
0195

> <Smiles>
CNC(C)C(=O)NC(C(=O)N1Cc2cc([101O:1][101CH2:1]CNCCn3nc(N4CC[100N:0]([100C:0](=O)N5CCCC(n6nc(-c7ccc(Oc8ccc(F)cc8F)cc7)c(C(N)=O)c6N)C5)CC4)nc3C3CC3)ccc2CC1C(=O)NC1CCCc2ccccc21)C(C)(C)C

> <Shape>
0.253

> <Color>
0.071

> <Negative vol penalty>
0.000

$$$$

  -OEChem-04052323373D

 83 92  0     1  0  0  0  0  0999 V2000
  -17.9512  -29.8888   16.5691 C   0  0  0  0  0  0  0  0  0  0  0  0
  -19.1148  -29.1351   16.6844 C   0  0  0  0  0  0  0  0  0  0  0  0
  -22.7618  -10.8354   20.3703 C   0  0  0  0  0  0  0  0  0  0  0  0
  -24.1276   -9.0544   19.4759 C   0  0  0  0  0  0  0  0  0  0  0  0
  -17.9812  -31.2589   16.8252 C   0  0  0  0  0  0  0  0  0  0  0  0
  -20.3095  -29.7514   17.0550 C   0  0  0  0  0  0  0  0  0  0  0  0
  -24.7882  -27.3459   20.4698 C   0  0  0  0  0  0  0  0  0  0  0  0
  -21.6643  -10.3513   19.6584 C   0  0  0  0  0  0  0  0  0  0  0  0
  -23.0301   -8.5703   18.7640 C   0  0  0  0  0  0  0  0  0  0  0  0
  -26.0024  -26.7466   20.1374 C   0  0  0  0  0  0  0  0  0  0  0  0
  -18.4130   -9.3732   18.3595 C   0  0  0  0  0  0  0  0  0  0  0  0
  -17.1924   -9.2870   19.0291 C   0  0  0  0  0  0  0  0  0  0  0  0
  -27.1273  -28.8542   20.4715 C   0  0  0  0  0  0  0  0  0  0  0  0
  -18.1787   -7.7719   20.6319 C   0  0  0  0  0  0  0  0  0  0  0  0
  -23.9934  -10.1870   20.2790 C   0  0  0  0  0  0  0  0  0  0  0  0
  -25.5190  -10.3315   22.3185 C   0  0  0  0  0  0  0  0  0  0  0  0
  -19.1748  -31.8906   17.2085 C   0  0  0  0  0  0  0  0  0  0  0  0
  -24.7328  -28.7087   20.7955 C   0  0  0  0  0  0  0  0  0  0  0  0
  -20.3558  -31.1315   17.3152 C   0  0  0  0  0  0  0  0  0  0  0  0
  -25.9116  -29.4679   20.8101 C   0  0  0  0  0  0  0  0  0  0  0  0
  -21.7985   -9.2187   18.8553 C   0  0  0  0  0  0  0  0  0  0  0  0
  -27.1717  -27.5014   20.1354 C   0  0  0  0  0  0  0  0  0  0  0  0
  -19.5164   -8.6587   18.8260 C   0  0  0  0  0  0  0  0  0  0  0  0
  -17.0752   -8.4864   20.1653 C   0  0  0  0  0  0  0  0  0  0  0  0
  -19.3992   -7.8581   19.9622 C   0  0  0  0  0  0  0  0  0  0  0  0
  -25.1276  -10.6869   21.0138 C   0  0  0  0  0  0  0  0  0  0  0  0
  -26.6478  -11.0779   22.5536 C   0  0  0  0  0  0  0  0  0  0  0  0
  -24.9162   -9.4092   23.2358 C   0  0  0  0  0  0  0  0  0  0  0  0
  -23.2953  -31.2558   19.5506 C   0  0  0  0  0  0  0  0  0  0  0  0
  -24.4610  -32.7232   22.1983 C   0  0  0  0  0  0  0  0  0  0  0  0
  -26.7917  -32.7793   24.6906 C   0  0  0  0  0  0  0  0  0  0  0  0
  -28.3709  -16.2470   19.9409 C   0  0  0  0  0  0  0  0  0  0  0  0
  -19.1682  -33.3826   17.4290 C   0  0  0  0  0  0  0  0  0  0  0  0
  -23.4193  -29.3341   21.1777 C   0  0  0  0  0  0  0  0  0  0  0  0
  -25.9089  -30.9299   21.1721 C   0  0  0  0  0  0  0  0  0  0  0  0
  -20.3950  -33.8927   18.1807 C   0  0  0  0  0  0  0  0  0  0  0  0
  -30.3332  -13.1194   20.2917 C   0  0  0  0  0  0  0  0  0  0  0  0
  -21.6679  -33.2865   17.5986 C   0  0  0  0  0  0  0  0  0  0  0  0
  -29.2291  -12.1045   20.5917 C   0  0  0  0  0  0  0  0  0  0  0  0
  -31.2698  -18.2302   21.0250 C   0  0  0  0  0  0  0  0  0  0  0  0
  -31.1554  -21.7867   18.3291 C   0  0  0  0  0  0  0  0  0  0  0  0
  -29.8148  -14.2412   19.4013 C   0  0  0  0  0  0  0  0  0  0  0  0
  -30.7750  -16.8527   20.5948 C   0  0  0  0  0  0  0  0  0  0  0  0
  -30.9887  -23.2839   18.0657 C   0  0  0  0  0  0  0  0  0  0  0  0
  -27.5179  -13.9512   20.2481 C   0  0  0  0  0  0  0  0  0  0  0  0
  -29.2970  -18.5362   19.7226 C   0  0  0  0  0  0  0  0  0  0  0  0
  -29.7525  -22.8074   19.9915 C   0  0  0  0  0  0  0  0  0  0  0  0
  -21.6659  -31.7594   17.7389 C   0  0  1  0  0  0  0  0  0  0  0  0
  -23.4021  -30.8483   20.9929 C   0  0  1  0  0  0  0  0  0  0  0  0
  -27.9754  -12.7965   21.1570 C   0  0  1  0  0  0  0  0  0  0  0  0
  -30.6792  -19.1229   19.9438 C   0  0  1  0  0  0  0  0  0  0  0  0
  -30.0958  -21.4667   19.3737 C   0  0  2  0  0  0  0  0  0  0  0  0
  -27.5125  -34.1228   26.6838 C   0  0  0  0  0  0  0  0  0  0  0  0
  -25.7161  -34.7961   20.3442 C   0  0  0  0  0  0  0  0  0  0  0  0
  -27.1655  -35.5228   22.2519 C   0  0  0  0  0  0  0  0  0  0  0  0
  -24.6860  -35.7397   22.4185 C   0  0  0  0  0  0  0  0  0  0  0  0
  -26.3092  -30.5164   26.5359 C   0  0  0  0  0  0  0  0  0  0  0  0
  -29.7419  -25.0787   19.1296 C   0  0  0  0  0  0  0  0  0  0  0  0
  -28.3335  -25.5317   19.4825 C   0  0  0  0  0  0  0  0  0  1  0  0
  -25.7407  -33.4454   22.5444 C   0  0  1  0  0  0  0  0  0  0  0  0
  -26.6576  -32.9656   26.1912 C   0  0  2  0  0  0  0  0  0  0  0  0
  -25.8272  -34.8489   21.8810 C   0  0  0  0  0  0  0  0  0  0  0  0
  -25.9415  -11.5890   20.4590 N   0  0  0  0  0  0  0  0  0  0  0  0
  -26.8556  -11.8068   21.4198 N   0  0  0  0  0  0  0  0  0  0  0  0
  -24.5989  -31.4971   21.5324 N   0  0  0  0  0  0  0  0  0  0  0  0
  -28.6255  -14.8714   19.9813 N   0  0  0  0  0  0  0  0  0  0  0  0
  -29.4670  -17.1075   19.9821 N   0  0  0  0  0  0  0  0  0  0  0  0
  -29.7777  -23.6617   18.8017 N   0  0  1  0  0  0  0  0  0  0  0  0
  -27.4728  -11.1753   23.6177 N   0  0  0  0  0  0  0  0  0  0  0  0
  -23.7605   -8.7259   22.8336 N   0  0  0  0  0  0  0  0  0  0  0  0
  -21.9964  -31.3760   19.0947 N   0  0  0  0  0  0  0  0  0  0  0  0
  -25.8158  -33.4675   24.0012 N   0  0  0  0  0  0  0  0  0  0  0  0
  -30.6060  -20.5249   20.3866 N   0  3  0  0  0  0  0  0  0  0  0  0
  -27.0827  -31.7293   26.9067 N   0  3  0  0  0  0  0  0  0  0  0  0
  -25.3790   -9.2094   24.3845 O   0  0  0  0  0  0  0  0  0  0  0  0
  -24.3157  -31.4485   18.9000 O   0  0  0  0  0  0  0  0  0  0  0  0
  -23.3792  -33.2249   22.5137 O   0  0  0  0  0  0  0  0  0  0  0  0
  -27.6762  -32.0950   24.1808 O   0  0  0  0  0  0  0  0  0  0  0  0
  -27.2142  -16.6880   19.9184 O   0  0  0  0  0  0  0  0  0  0  0  0
  -20.7277   -8.7460   18.1606 O   0  0  0  0  0  0  0  0  0  0  0  0
  -28.3665  -26.9149   19.8084 O   0  0  0  0  0  0  0  0  0  1  0  0
  -15.9035   -8.4049   20.8091 F   0  0  0  0  0  0  0  0  0  0  0  0
  -20.4561   -7.1703   20.4159 F   0  0  0  0  0  0  0  0  0  0  0  0
  1  2  1  0  0  0  0
  1  5  2  0  0  0  0
  2  6  2  0  0  0  0
  3  8  2  0  0  0  0
  3 15  1  0  0  0  0
  4  9  1  0  0  0  0
  4 15  2  0  0  0  0
  5 17  1  0  0  0  0
  6 19  1  0  0  0  0
  7 10  2  0  0  0  0
  7 18  1  0  0  0  0
  8 21  1  0  0  0  0
  9 21  2  0  0  0  0
 10 22  1  0  0  0  0
 11 12  2  0  0  0  0
 11 23  1  0  0  0  0
 12 24  1  0  0  0  0
 13 20  1  0  0  0  0
 13 22  2  0  0  0  0
 14 24  2  0  0  0  0
 14 25  1  0  0  0  0
 15 26  1  0  0  0  0
 16 26  1  0  0  0  0
 16 27  2  0  0  0  0
 16 28  1  0  0  0  0
 17 19  2  0  0  0  0
 17 33  1  0  0  0  0
 18 20  2  0  0  0  0
 18 34  1  0  0  0  0
 19 48  1  0  0  0  0
 20 35  1  0  0  0  0
 21 80  1  0  0  0  0
 22 81  1  0  0  0  0
 23 25  2  0  0  0  0
 23 80  1  0  0  0  0
 24 82  1  0  0  0  0
 25 83  1  0  0  0  0
 26 63  2  0  0  0  0
 27 64  1  0  0  0  0
 27 69  1  0  0  0  0
 28 70  1  0  0  0  0
 28 75  2  0  0  0  0
 29 49  1  0  0  0  0
 29 71  1  0  0  0  0
 29 76  2  0  0  0  0
 30 60  1  0  0  0  0
 30 65  1  0  0  0  0
 30 77  2  0  0  0  0
 31 61  1  0  0  0  0
 31 72  1  0  0  0  0
 31 78  2  0  0  0  0
 32 66  1  0  0  0  0
 32 67  1  0  0  0  0
 32 79  2  0  0  0  0
 33 36  1  0  0  0  0
 34 49  1  0  0  0  0
 35 65  1  0  0  0  0
 36 38  1  0  0  0  0
 37 39  1  0  0  0  0
 37 42  1  0  0  0  0
 38 48  1  0  0  0  0
 39 50  1  0  0  0  0
 40 43  1  0  0  0  0
 40 51  1  0  0  0  0
 41 44  1  0  0  0  0
 41 52  1  0  0  0  0
 42 66  1  0  0  0  0
 43 67  1  0  0  0  0
 44 68  1  0  0  0  0
 45 50  1  0  0  0  0
 45 66  1  0  0  0  0
 46 51  1  0  0  0  0
 46 67  1  0  0  0  0
 47 52  1  0  0  0  0
 47 68  1  0  0  0  0
 48 71  1  0  0  0  0
 49 65  1  0  0  0  0
 50 64  1  0  0  0  0
 51 73  1  0  0  0  0
 52 73  1  0  0  0  0
 53 61  1  0  0  0  0
 54 62  1  0  0  0  0
 55 62  1  0  0  0  0
 56 62  1  0  0  0  0
 57 74  1  0  0  0  0
 58 59  1  0  0  0  0
 58 68  1  0  0  0  0
 59 81  1  0  0  0  0
 60 62  1  0  0  0  0
 60 72  1  0  0  0  0
 61 74  1  0  0  0  0
 63 64  1  0  0  0  0
M  CHG  2  73   1  74   1
M  ISO  4  32 100  59 101  67 100  81 101
M  END
> <Batch ID>
0195

> <Smiles>
CNC(C)C(=O)NC(C(=O)N1Cc2cc([101O:1][101CH2:1]CN3CCC(NC4CC[100N:0]([100C:0](=O)N5CCCC(n6nc(-c7ccc(Oc8ccc(F)cc8F)cc7)c(C(N)=O)c6N)C5)C4)C3)ccc2CC1C(=O)NC1CCCc2ccccc21)C(C)(C)C

> <Shape>
0.274

> <Color>
0.096

> <Negative vol penalty>
0.000

$$$$

  -OEChem-04052323373D

 84 93  0     1  0  0  0  0  0999 V2000
  -28.6822  -31.8205   26.9183 C   0  0  0  0  0  0  0  0  0  0  0  0
  -28.6081  -30.5558   26.3435 C   0  0  0  0  0  0  0  0  0  0  0  0
  -23.3863   -9.9724   22.0599 C   0  0  0  0  0  0  0  0  0  0  0  0
  -24.0214  -11.3993   23.9032 C   0  0  0  0  0  0  0  0  0  0  0  0
  -27.5602  -32.6482   26.9261 C   0  0  0  0  0  0  0  0  0  0  0  0
  -27.4117  -30.1177   25.7770 C   0  0  0  0  0  0  0  0  0  0  0  0
  -28.0927  -27.8862   21.2824 C   0  0  0  0  0  0  0  0  0  0  0  0
  -22.7336   -9.1167   22.9471 C   0  0  0  0  0  0  0  0  0  0  0  0
  -23.3686  -10.5436   24.7905 C   0  0  0  0  0  0  0  0  0  0  0  0
  -28.5625  -26.5735   21.2879 C   0  0  0  0  0  0  0  0  0  0  0  0
  -23.5766   -6.6777   25.1300 C   0  0  0  0  0  0  0  0  0  0  0  0
  -23.7820   -5.3066   24.9764 C   0  0  0  0  0  0  0  0  0  0  0  0
  -26.3149  -25.7741   20.9291 C   0  0  0  0  0  0  0  0  0  0  0  0
  -21.4138   -4.9923   24.6157 C   0  0  0  0  0  0  0  0  0  0  0  0
  -24.0303  -11.1137   22.5379 C   0  0  0  0  0  0  0  0  0  0  0  0
  -24.1568  -13.1078   20.9519 C   0  0  0  0  0  0  0  0  0  0  0  0
  -26.3521  -32.2237   26.3509 C   0  0  0  0  0  0  0  0  0  0  0  0
  -26.7267  -28.1526   21.1108 C   0  0  0  0  0  0  0  0  0  0  0  0
  -26.2721  -30.9399   25.7783 C   0  0  0  0  0  0  0  0  0  0  0  0
  -25.8308  -27.0911   20.9192 C   0  0  0  0  0  0  0  0  0  0  0  0
  -22.7247   -9.4023   24.3124 C   0  0  0  0  0  0  0  0  0  0  0  0
  -27.6732  -25.5171   21.1141 C   0  0  0  0  0  0  0  0  0  0  0  0
  -22.2898   -7.2061   25.0265 C   0  0  0  0  0  0  0  0  0  0  0  0
  -22.7006   -4.4639   24.7192 C   0  0  0  0  0  0  0  0  0  0  0  0
  -21.2084   -6.3634   24.7693 C   0  0  0  0  0  0  0  0  0  0  0  0
  -24.7052  -11.9978   21.6219 C   0  0  0  0  0  0  0  0  0  0  0  0
  -29.0752  -19.5011   21.1371 C   0  0  0  0  0  0  0  0  0  0  0  0
  -28.3067  -19.9646   22.1822 C   0  0  0  0  0  0  0  0  0  0  0  0
  -28.6202  -21.4066   19.9574 C   0  0  0  0  0  0  0  0  0  0  0  0
  -27.8511  -21.8698   21.0021 C   0  0  0  0  0  0  0  0  0  0  0  0
  -25.1971  -13.6079   20.2075 C   0  0  0  0  0  0  0  0  0  0  0  0
  -22.8260  -13.6393   20.9983 C   0  0  0  0  0  0  0  0  0  0  0  0
  -24.4709  -29.5300   22.8765 C   0  0  0  0  0  0  0  0  0  0  0  0
  -22.6837  -29.1414   20.1974 C   0  0  0  0  0  0  0  0  0  0  0  0
  -22.1632  -27.4438   17.2830 C   0  0  0  0  0  0  0  0  0  0  0  0
  -30.6366  -15.0889   19.9303 C   0  0  0  0  0  0  0  0  0  0  0  0
  -25.1528  -33.1352   26.4254 C   0  0  0  0  0  0  0  0  0  0  0  0
  -26.2397  -29.5754   21.0806 C   0  0  0  0  0  0  0  0  0  0  0  0
  -24.3575  -27.3247   20.7108 C   0  0  0  0  0  0  0  0  0  0  0  0
  -24.0283  -32.7415   25.4711 C   0  0  0  0  0  0  0  0  0  0  0  0
  -29.7358  -11.6945   19.1562 C   0  0  0  0  0  0  0  0  0  0  0  0
  -23.7616  -31.2417   25.5503 C   0  0  0  0  0  0  0  0  0  0  0  0
  -28.3270  -11.5403   19.7195 C   0  0  0  0  0  0  0  0  0  0  0  0
  -30.5708  -12.6243   20.0264 C   0  0  0  0  0  0  0  0  0  0  0  0
  -29.0142  -16.8015   21.0684 C   0  0  0  0  0  0  0  0  0  0  0  0
  -30.5017  -17.6354   19.8092 C   0  0  0  0  0  0  0  0  0  0  0  0
  -28.5425  -13.8660   20.7322 C   0  0  0  0  0  0  0  0  0  0  0  0
  -24.9990  -30.4385   25.1318 C   0  0  1  0  0  0  0  0  0  0  0  0
  -29.8375  -18.1113   21.1217 C   0  0  0  0  0  0  0  0  0  0  0  0
  -24.7563  -29.7063   21.4118 C   0  0  1  0  0  0  0  0  0  0  0  0
  -27.6652  -12.9146   19.8947 C   0  0  2  0  0  0  0  0  0  0  0  0
  -28.8025  -22.2052   18.7123 C   0  0  0  0  0  0  0  0  0  0  0  0
  -20.6004  -27.3278   15.3230 C   0  0  0  0  0  0  0  0  0  0  0  0
  -20.6141  -27.7241   21.9346 C   0  0  0  0  0  0  0  0  0  0  0  0
  -19.5795  -26.8193   19.8419 C   0  0  0  0  0  0  0  0  0  0  0  0
  -19.6543  -29.2823   20.2302 C   0  0  0  0  0  0  0  0  0  0  0  0
  -24.3276  -28.0907   15.3710 C   0  0  0  0  0  0  0  0  0  0  0  0
  -28.1320  -19.1594   23.4230 C   0  0  0  0  0  0  0  0  0  0  0  0
  -27.1624  -23.2012   20.9361 C   0  0  0  0  0  0  0  0  0  1  0  0
  -21.7879  -28.0523   19.6585 C   0  0  1  0  0  0  0  0  0  0  0  0
  -21.8859  -27.9277   15.8711 C   0  0  2  0  0  0  0  0  0  0  0  0
  -20.4364  -27.9647   20.4221 C   0  0  0  0  0  0  0  0  0  0  0  0
  -25.9938  -11.8036   21.3289 N   0  0  0  0  0  0  0  0  0  0  0  0
  -29.2458  -20.2138   20.0060 N   0  0  0  0  0  0  0  0  0  0  0  0
  -27.6808  -21.1572   22.1334 N   0  0  0  0  0  0  0  0  0  0  0  0
  -26.2637  -12.7983   20.4665 N   0  0  0  0  0  0  0  0  0  0  0  0
  -23.9292  -28.7332   20.6955 N   0  0  0  0  0  0  0  0  0  0  0  0
  -29.9215  -13.9233   20.2274 N   0  0  0  0  0  0  0  0  0  0  0  0
  -30.0275  -16.3010   20.1552 N   0  0  0  0  0  0  0  0  0  0  0  0
  -25.2943  -14.6567   19.3631 N   0  0  0  0  0  0  0  0  0  0  0  0
  -21.8808  -13.0037   21.8150 N   0  0  0  0  0  0  0  0  0  0  0  0
  -25.1322  -30.4295   23.6908 N   0  0  0  0  0  0  0  0  0  0  0  0
  -21.6509  -28.3067   18.2285 N   0  0  0  0  0  0  0  0  0  0  0  0
  -26.9613  -18.2395   23.3730 N   0  3  0  0  0  0  0  0  0  0  0  0
  -23.0058  -27.5482   14.9641 N   0  3  0  0  0  0  0  0  0  0  0  0
  -22.4808  -14.6382   20.3226 O   0  0  0  0  0  0  0  0  0  0  0  0
  -23.7061  -28.6445   23.2407 O   0  0  0  0  0  0  0  0  0  0  0  0
  -22.2957  -30.3120   20.1706 O   0  0  0  0  0  0  0  0  0  0  0  0
  -22.7701  -26.4023   17.5230 O   0  0  0  0  0  0  0  0  0  0  0  0
  -31.7984  -15.0516   19.5040 O   0  0  0  0  0  0  0  0  0  0  0  0
  -22.0876   -8.5676   25.1785 O   0  0  0  0  0  0  0  0  0  0  0  0
  -28.1289  -24.2349   21.1197 O   0  0  0  0  0  0  0  0  0  1  0  0
  -22.8982   -3.1475   24.5702 F   0  0  0  0  0  0  0  0  0  0  0  0
  -19.9701   -6.8653   24.6676 F   0  0  0  0  0  0  0  0  0  0  0  0
  1  2  1  0  0  0  0
  1  5  2  0  0  0  0
  2  6  2  0  0  0  0
  3  8  2  0  0  0  0
  3 15  1  0  0  0  0
  4  9  1  0  0  0  0
  4 15  2  0  0  0  0
  5 17  1  0  0  0  0
  6 19  1  0  0  0  0
  7 10  2  0  0  0  0
  7 18  1  0  0  0  0
  8 21  1  0  0  0  0
  9 21  2  0  0  0  0
 10 22  1  0  0  0  0
 11 12  2  0  0  0  0
 11 23  1  0  0  0  0
 12 24  1  0  0  0  0
 13 20  1  0  0  0  0
 13 22  2  0  0  0  0
 14 24  2  0  0  0  0
 14 25  1  0  0  0  0
 15 26  1  0  0  0  0
 16 26  1  0  0  0  0
 16 31  2  0  0  0  0
 16 32  1  0  0  0  0
 17 19  2  0  0  0  0
 17 37  1  0  0  0  0
 18 20  2  0  0  0  0
 18 38  1  0  0  0  0
 19 48  1  0  0  0  0
 20 39  1  0  0  0  0
 21 81  1  0  0  0  0
 22 82  1  0  0  0  0
 23 25  2  0  0  0  0
 23 81  1  0  0  0  0
 24 83  1  0  0  0  0
 25 84  1  0  0  0  0
 26 63  2  0  0  0  0
 27 28  1  0  0  0  0
 27 49  1  0  0  0  0
 27 64  2  0  0  0  0
 28 58  1  0  0  0  0
 28 65  2  0  0  0  0
 29 30  2  0  0  0  0
 29 52  1  0  0  0  0
 29 64  1  0  0  0  0
 30 59  1  0  0  0  0
 30 65  1  0  0  0  0
 31 66  1  0  0  0  0
 31 70  1  0  0  0  0
 32 71  1  0  0  0  0
 32 76  2  0  0  0  0
 33 50  1  0  0  0  0
 33 72  1  0  0  0  0
 33 77  2  0  0  0  0
 34 60  1  0  0  0  0
 34 67  1  0  0  0  0
 34 78  2  0  0  0  0
 35 61  1  0  0  0  0
 35 73  1  0  0  0  0
 35 79  2  0  0  0  0
 36 68  1  0  0  0  0
 36 69  1  0  0  0  0
 36 80  2  0  0  0  0
 37 40  1  0  0  0  0
 38 50  1  0  0  0  0
 39 67  1  0  0  0  0
 40 42  1  0  0  0  0
 41 43  1  0  0  0  0
 41 44  1  0  0  0  0
 42 48  1  0  0  0  0
 43 51  1  0  0  0  0
 44 68  1  0  0  0  0
 45 49  1  0  0  0  0
 45 69  1  0  0  0  0
 46 49  1  0  0  0  0
 46 69  1  0  0  0  0
 47 51  1  0  0  0  0
 47 68  1  0  0  0  0
 48 72  1  0  0  0  0
 50 67  1  0  0  0  0
 51 66  1  0  0  0  0
 53 61  1  0  0  0  0
 54 62  1  0  0  0  0
 55 62  1  0  0  0  0
 56 62  1  0  0  0  0
 57 75  1  0  0  0  0
 58 74  1  0  0  0  0
 59 82  1  0  0  0  0
 60 62  1  0  0  0  0
 60 73  1  0  0  0  0
 61 75  1  0  0  0  0
 63 66  1  0  0  0  0
M  CHG  2  74   1  75   1
M  ISO  4  36 100  59 101  69 100  82 101
M  END
> <Batch ID>
0195

> <Smiles>
CNC(C)C(=O)NC(C(=O)N1Cc2cc([101O:1][101CH2:1]c3nc(CN)c(C4C[100N:0]([100C:0](=O)N5CCCC(n6nc(-c7ccc(Oc8ccc(F)cc8F)cc7)c(C(N)=O)c6N)C5)C4)nc3C)ccc2CC1C(=O)NC1CCCc2ccccc21)C(C)(C)C

> <Shape>
0.314

> <Color>
0.149

> <Negative vol penalty>
0.000

$$$$

  -OEChem-04052323373D

 89 99  0     1  0  0  0  0  0999 V2000
  -29.7959  -22.4445   19.0195 C   0  0  0  0  0  0  0  0  0  0  0  0
  -28.5503  -22.6487   19.6045 C   0  0  0  0  0  0  0  0  0  0  0  0
  -25.6389  -14.2681   18.9858 C   0  0  0  0  0  0  0  0  0  0  0  0
  -24.7025  -14.3241   21.2122 C   0  0  0  0  0  0  0  0  0  0  0  0
  -30.8782  -23.2410   19.3910 C   0  0  0  0  0  0  0  0  0  0  0  0
  -28.3866  -23.6490   20.5621 C   0  0  0  0  0  0  0  0  0  0  0  0
  -24.1866  -26.3796   19.8207 C   0  0  0  0  0  0  0  0  0  0  0  0
  -24.8913  -13.1258   18.7000 C   0  0  0  0  0  0  0  0  0  0  0  0
  -23.9548  -13.1817   20.9265 C   0  0  0  0  0  0  0  0  0  0  0  0
  -22.9782  -25.8100   20.2196 C   0  0  0  0  0  0  0  0  0  0  0  0
  -24.4740   -9.8459   20.7435 C   0  0  0  0  0  0  0  0  0  0  0  0
  -24.4446   -8.8339   21.7029 C   0  0  0  0  0  0  0  0  0  0  0  0
  -23.0324  -27.1254   22.2409 C   0  0  0  0  0  0  0  0  0  0  0  0
  -22.0444   -9.0578   21.8655 C   0  0  0  0  0  0  0  0  0  0  0  0
  -19.9814  -25.4914   23.8664 C   0  0  0  0  0  0  0  0  0  0  0  0
  -25.5445  -14.8673   20.2419 C   0  0  0  0  0  0  0  0  0  0  0  0
  -25.9314  -17.3868   20.3422 C   0  0  0  0  0  0  0  0  0  0  0  0
  -30.7255  -24.2579   20.3465 C   0  0  0  0  0  0  0  0  0  0  0  0
  -24.8336  -27.3199   20.6354 C   0  0  0  0  0  0  0  0  0  0  0  0
  -29.4682  -24.4591   20.9476 C   0  0  0  0  0  0  0  0  0  0  0  0
  -24.2476  -27.7074   21.8489 C   0  0  0  0  0  0  0  0  0  0  0  0
  -24.0493  -12.5826   19.6704 C   0  0  0  0  0  0  0  0  0  0  0  0
  -22.4023  -26.1808   21.4312 C   0  0  0  0  0  0  0  0  0  0  0  0
  -23.2886  -10.4639   20.3450 C   0  0  0  0  0  0  0  0  0  0  0  0
  -23.2298   -8.4398   22.2639 C   0  0  0  0  0  0  0  0  0  0  0  0
  -22.0739  -10.0699   20.9060 C   0  0  0  0  0  0  0  0  0  0  0  0
  -26.3169  -16.0471   20.5378 C   0  0  0  0  0  0  0  0  0  0  0  0
  -20.8766  -24.3916   25.6609 C   0  0  0  0  0  0  0  0  0  0  0  0
  -22.0001  -24.0973   24.9201 C   0  0  0  0  0  0  0  0  0  0  0  0
  -21.1049  -25.1969   23.1256 C   0  0  0  0  0  0  0  0  0  1  0  0
  -27.0076  -18.1209   20.7773 C   0  0  0  0  0  0  0  0  0  0  0  0
  -24.7096  -17.9201   19.8145 C   0  0  0  0  0  0  0  0  0  0  0  0
  -27.6354  -27.4410   22.1316 C   0  0  0  0  0  0  0  0  0  0  0  0
  -26.7085  -30.4776   22.7968 C   0  0  0  0  0  0  0  0  0  0  0  0
  -24.1550  -32.7090   23.1805 C   0  0  0  0  0  0  0  0  0  0  0  0
  -31.0515  -19.1873   24.3101 C   0  0  0  0  0  0  0  0  0  0  0  0
  -31.9356  -25.0623   20.7504 C   0  0  0  0  0  0  0  0  0  0  0  0
  -26.1231  -27.9448   20.1784 C   0  0  0  0  0  0  0  0  0  0  0  0
  -24.8917  -28.7276   22.7505 C   0  0  0  0  0  0  0  0  0  0  0  0
  -31.5908  -26.3473   21.4989 C   0  0  0  0  0  0  0  0  0  0  0  0
  -31.7006  -16.7025   21.9953 C   0  0  0  0  0  0  0  0  0  0  0  0
  -30.5519  -26.0721   22.5814 C   0  0  0  0  0  0  0  0  0  0  0  0
  -19.8619  -24.7084   28.0154 C   0  0  0  0  0  0  0  0  0  0  0  0
  -21.3485  -24.7864   28.1708 C   0  0  0  0  0  0  0  0  0  0  0  0
  -30.3309  -16.4106   21.3827 C   0  0  0  0  0  0  0  0  0  0  0  0
  -29.1864  -22.3722   23.9866 C   0  0  0  0  0  0  0  0  0  0  0  0
  -27.6682  -20.6349   24.9995 C   0  0  0  0  0  0  0  0  0  0  0  0
  -31.5919  -16.9097   23.5017 C   0  0  0  0  0  0  0  0  0  0  0  0
  -30.3932  -21.5613   24.4506 C   0  0  0  0  0  0  0  0  0  0  0  0
  -28.9026  -19.8602   25.4489 C   0  0  0  0  0  0  0  0  0  0  0  0
  -29.2618  -17.7105   23.2895 C   0  0  0  0  0  0  0  0  0  0  0  0
  -29.2451  -25.5504   21.9720 C   0  0  1  0  0  0  0  0  0  0  0  0
  -20.7538  -23.9391   27.0769 C   0  0  0  0  0  0  0  0  0  0  0  0
  -26.9529  -28.5106   21.3268 C   0  0  1  0  0  0  0  0  0  0  0  0
  -27.9649  -22.1362   24.8844 C   0  0  0  0  0  0  0  0  0  0  0  0
  -29.3121  -17.4998   21.7629 C   0  0  2  0  0  0  0  0  0  0  0  0
  -23.7066  -35.1085   23.7625 C   0  0  0  0  0  0  0  0  0  0  0  0
  -27.2284  -29.8586   25.7390 C   0  0  0  0  0  0  0  0  0  0  0  0
  -25.8939  -31.8927   26.3307 C   0  0  0  0  0  0  0  0  0  0  0  0
  -27.9905  -32.1226   24.9987 C   0  0  0  0  0  0  0  0  0  0  0  0
  -22.9083  -33.2352   20.5485 C   0  0  0  0  0  0  0  0  0  0  0  0
  -23.1409  -23.3145   25.5006 C   0  0  0  0  0  0  0  0  0  0  0  0
  -26.7476  -22.8916   24.3565 C   0  0  0  0  0  0  0  0  0  0  0  0
  -25.5484  -22.6923   25.2654 C   0  0  0  0  0  0  0  0  0  0  0  0
  -25.9318  -31.1388   23.9097 C   0  0  1  0  0  0  0  0  0  0  0  0
  -23.9546  -34.1132   22.6397 C   0  0  2  0  0  0  0  0  0  0  0  0
  -26.7497  -31.2325   25.2286 C   0  0  0  0  0  0  0  0  0  0  0  0
  -19.8470  -25.0939   25.1474 N   0  0  0  0  0  0  0  0  0  0  0  0
  -27.5425  -15.9337   21.0567 N   0  0  0  0  0  0  0  0  0  0  0  0
  -22.1345  -24.4946   23.6392 N   0  0  0  0  0  0  0  0  0  0  0  0
  -27.9364  -17.2116   21.1907 N   0  0  0  0  0  0  0  0  0  0  0  0
  -26.1549  -29.3054   22.2626 N   0  0  0  0  0  0  0  0  0  0  0  0
  -30.6121  -17.9477   23.8215 N   0  0  0  0  0  0  0  0  0  0  0  0
  -30.0627  -20.1440   24.5936 N   0  0  0  0  0  0  0  0  0  0  0  0
  -27.2408  -19.4489   20.8428 N   0  0  0  0  0  0  0  0  0  0  0  0
  -23.7077  -17.0253   19.4147 N   0  0  0  0  0  0  0  0  0  0  0  0
  -28.4864  -26.6394   21.3949 N   0  0  0  0  0  0  0  0  0  0  0  0
  -25.4887  -32.4273   23.3886 N   0  0  0  0  0  0  0  0  0  0  0  0
  -22.7880  -34.1497   21.7130 N   0  3  0  0  0  0  0  0  0  0  0  0
  -24.3839  -23.4042   24.6863 N   0  3  0  0  0  0  0  0  0  0  0  0
  -24.5186  -19.1531   19.6855 O   0  0  0  0  0  0  0  0  0  0  0  0
  -27.4081  -27.3507   23.3324 O   0  0  0  0  0  0  0  0  0  0  0  0
  -27.7637  -30.9864   22.4105 O   0  0  0  0  0  0  0  0  0  0  0  0
  -23.2216  -31.9403   23.4002 O   0  0  0  0  0  0  0  0  0  0  0  0
  -32.2532  -19.4290   24.4794 O   0  0  0  0  0  0  0  0  0  0  0  0
  -23.3194  -11.4680   19.3918 O   0  0  0  0  0  0  0  0  0  0  0  0
  -21.2045  -25.6171   21.8294 O   0  0  0  0  0  0  0  0  0  1  0  0
  -23.2015   -7.4669   23.1841 F   0  0  0  0  0  0  0  0  0  0  0  0
  -20.9317  -10.6591   20.5264 F   0  0  0  0  0  0  0  0  0  0  0  0
  1  2  1  0  0  0  0
  1  5  2  0  0  0  0
  2  6  2  0  0  0  0
  3  8  2  0  0  0  0
  3 16  1  0  0  0  0
  4  9  1  0  0  0  0
  4 16  2  0  0  0  0
  5 18  1  0  0  0  0
  6 20  1  0  0  0  0
  7 10  2  0  0  0  0
  7 19  1  0  0  0  0
  8 22  1  0  0  0  0
  9 22  2  0  0  0  0
 10 23  1  0  0  0  0
 11 12  2  0  0  0  0
 11 24  1  0  0  0  0
 12 25  1  0  0  0  0
 13 21  1  0  0  0  0
 13 23  2  0  0  0  0
 14 25  2  0  0  0  0
 14 26  1  0  0  0  0
 15 30  1  0  0  0  0
 15 68  2  0  0  0  0
 16 27  1  0  0  0  0
 17 27  1  0  0  0  0
 17 31  2  0  0  0  0
 17 32  1  0  0  0  0
 18 20  2  0  0  0  0
 18 37  1  0  0  0  0
 19 21  2  0  0  0  0
 19 38  1  0  0  0  0
 20 52  1  0  0  0  0
 21 39  1  0  0  0  0
 22 86  1  0  0  0  0
 23 87  1  0  0  0  0
 24 26  2  0  0  0  0
 24 86  1  0  0  0  0
 25 88  1  0  0  0  0
 26 89  1  0  0  0  0
 27 69  2  0  0  0  0
 28 29  2  0  0  0  0
 28 53  1  0  0  0  0
 28 68  1  0  0  0  0
 29 62  1  0  0  0  0
 29 70  1  0  0  0  0
 30 70  2  0  0  0  0
 30 87  1  0  0  0  0
 31 71  1  0  0  0  0
 31 75  1  0  0  0  0
 32 76  1  0  0  0  0
 32 81  2  0  0  0  0
 33 54  1  0  0  0  0
 33 77  1  0  0  0  0
 33 82  2  0  0  0  0
 34 65  1  0  0  0  0
 34 72  1  0  0  0  0
 34 83  2  0  0  0  0
 35 66  1  0  0  0  0
 35 78  1  0  0  0  0
 35 84  2  0  0  0  0
 36 73  1  0  0  0  0
 36 74  1  0  0  0  0
 36 85  2  0  0  0  0
 37 40  1  0  0  0  0
 38 54  1  0  0  0  0
 39 72  1  0  0  0  0
 40 42  1  0  0  0  0
 41 45  1  0  0  0  0
 41 48  1  0  0  0  0
 42 52  1  0  0  0  0
 43 44  1  0  0  0  0
 43 53  1  0  0  0  0
 44 53  1  0  0  0  0
 45 56  1  0  0  0  0
 46 49  1  0  0  0  0
 46 55  1  0  0  0  0
 47 50  1  0  0  0  0
 47 55  1  0  0  0  0
 48 73  1  0  0  0  0
 49 74  1  0  0  0  0
 50 74  1  0  0  0  0
 51 56  1  0  0  0  0
 51 73  1  0  0  0  0
 52 77  1  0  0  0  0
 54 72  1  0  0  0  0
 55 63  1  0  0  0  0
 56 71  1  0  0  0  0
 57 66  1  0  0  0  0
 58 67  1  0  0  0  0
 59 67  1  0  0  0  0
 60 67  1  0  0  0  0
 61 79  1  0  0  0  0
 62 80  1  0  0  0  0
 63 64  1  0  0  0  0
 64 80  1  0  0  0  0
 65 67  1  0  0  0  0
 65 78  1  0  0  0  0
 66 79  1  0  0  0  0
 69 71  1  0  0  0  0
M  CHG  2  79   1  80   1
M  ISO  4  30 101  36 100  74 100  87 101
M  END
> <Batch ID>
0195

> <Smiles>
CNC(C)C(=O)NC(C(=O)N1Cc2cc([101O:1][101c:1]3cnc(C4CC4)c(CNCCC4CC[100N:0]([100C:0](=O)N5CCCC(n6nc(-c7ccc(Oc8ccc(F)cc8F)cc7)c(C(N)=O)c6N)C5)CC4)n3)ccc2CC1C(=O)NC1CCCc2ccccc21)C(C)(C)C

> <Shape>
0.234

> <Color>
0.052

> <Negative vol penalty>
0.000

$$$$

  -OEChem-04052323373D

 87 97  0     1  0  0  0  0  0999 V2000
  -27.3120  -37.0534   23.9126 C   0  0  0  0  0  0  0  0  0  0  0  0
  -27.8072  -35.8433   23.4372 C   0  0  0  0  0  0  0  0  0  0  0  0
  -24.8023   -8.3812   21.9340 C   0  0  0  0  0  0  0  0  0  0  0  0
  -23.2418   -9.9950   21.0411 C   0  0  0  0  0  0  0  0  0  0  0  0
  -26.1402  -37.0773   24.6676 C   0  0  0  0  0  0  0  0  0  0  0  0
  -27.1313  -34.6563   23.7176 C   0  0  0  0  0  0  0  0  0  0  0  0
  -26.7145  -31.6533   19.6613 C   0  0  0  0  0  0  0  0  0  0  0  0
  -23.7852   -7.8280   22.7119 C   0  0  0  0  0  0  0  0  0  0  0  0
  -22.2246   -9.4419   21.8190 C   0  0  0  0  0  0  0  0  0  0  0  0
  -27.8407  -30.9172   19.2956 C   0  0  0  0  0  0  0  0  0  0  0  0
  -21.1728   -5.7276   22.2690 C   0  0  0  0  0  0  0  0  0  0  0  0
  -21.0655   -4.3373   22.3025 C   0  0  0  0  0  0  0  0  0  0  0  0
  -26.9102  -28.9698   20.3730 C   0  0  0  0  0  0  0  0  0  0  0  0
  -21.4088   -4.3684   24.6938 C   0  0  0  0  0  0  0  0  0  0  0  0
  -30.5580  -22.7187   20.0018 C   0  0  0  0  0  0  0  0  0  0  0  0
  -28.9590  -22.2163   17.9238 C   0  0  0  0  0  0  0  0  0  0  0  0
  -24.5306   -9.4647   21.0986 C   0  0  0  0  0  0  0  0  0  0  0  0
  -26.3441   -9.3880   19.3062 C   0  0  0  0  0  0  0  0  0  0  0  0
  -25.4443  -35.8911   24.9492 C   0  0  0  0  0  0  0  0  0  0  0  0
  -25.6809  -31.0550   20.3962 C   0  0  0  0  0  0  0  0  0  0  0  0
  -25.9498  -34.6643   24.4782 C   0  0  0  0  0  0  0  0  0  0  0  0
  -25.7708  -29.6998   20.7446 C   0  0  0  0  0  0  0  0  0  0  0  0
  -22.4964   -8.3583   22.6544 C   0  0  0  0  0  0  0  0  0  0  0  0
  -27.9400  -29.5760   19.6539 C   0  0  0  0  0  0  0  0  0  0  0  0
  -21.3981   -6.4383   23.4479 C   0  0  0  0  0  0  0  0  0  0  0  0
  -21.1835   -3.6577   23.5149 C   0  0  0  0  0  0  0  0  0  0  0  0
  -21.5161   -5.7588   24.6603 C   0  0  0  0  0  0  0  0  0  0  0  0
  -25.5810  -10.0369   20.2953 C   0  0  0  0  0  0  0  0  0  0  0  0
  -30.3435  -23.6656   19.0247 C   0  0  0  0  0  0  0  0  0  0  0  0
  -29.1741  -21.2689   18.9004 C   0  0  0  0  0  0  0  0  0  0  0  0
  -27.2003  -10.3567   18.8424 C   0  0  0  0  0  0  0  0  0  0  0  0
  -26.2844   -8.0309   18.8475 C   0  0  0  0  0  0  0  0  0  0  0  0
  -24.3920  -31.5428   23.2606 C   0  0  0  0  0  0  0  0  0  0  0  0
  -22.2871  -29.2834   22.2673 C   0  0  0  0  0  0  0  0  0  0  0  0
  -21.6359  -26.6292   20.2233 C   0  0  0  0  0  0  0  0  0  0  0  0
  -26.9353  -16.1232   18.5180 C   0  0  0  0  0  0  0  0  0  0  0  0
  -24.2075  -35.9618   25.8094 C   0  0  0  0  0  0  0  0  0  0  0  0
  -24.4606  -31.8557   20.7599 C   0  0  0  0  0  0  0  0  0  0  0  0
  -24.6794  -29.0052   21.5159 C   0  0  0  0  0  0  0  0  0  0  0  0
  -23.3483  -34.7017   25.7453 C   0  0  0  0  0  0  0  0  0  0  0  0
  -29.4480  -14.3455   20.2108 C   0  0  0  0  0  0  0  0  0  0  0  0
  -24.2168  -33.4556   25.8860 C   0  0  0  0  0  0  0  0  0  0  0  0
  -28.8118  -12.9611   20.3317 C   0  0  0  0  0  0  0  0  0  0  0  0
  -28.4342  -15.4651   20.4520 C   0  0  0  0  0  0  0  0  0  0  0  0
  -28.7948  -19.1973   17.5994 C   0  0  0  0  0  0  0  0  0  0  0  0
  -28.1647  -19.3265   20.0144 C   0  0  0  0  0  0  0  0  0  0  0  0
  -27.6757  -18.1828   17.3806 C   0  0  0  0  0  0  0  0  0  0  0  0
  -27.0499  -18.3205   19.7504 C   0  0  0  0  0  0  0  0  0  0  0  0
  -26.5880  -13.9881   19.7254 C   0  0  0  0  0  0  0  0  0  0  0  0
  -30.9054  -27.2736   20.0021 C   0  0  0  0  0  0  0  0  0  0  0  0
  -29.0541  -26.3533   19.7049 C   0  0  0  0  0  0  0  0  0  0  0  0
  -25.2316  -33.3583   24.7404 C   0  0  1  0  0  0  0  0  0  0  0  0
  -23.7019  -31.2804   21.9519 C   0  0  1  0  0  0  0  0  0  0  0  0
  -27.5698  -12.8434   19.4305 C   0  0  2  0  0  0  0  0  0  0  0  0
  -29.4562  -27.7684   20.1560 C   0  0  0  0  0  0  0  0  0  1  0  0
  -19.8415  -24.9658   19.6659 C   0  0  0  0  0  0  0  0  0  0  0  0
  -22.9149  -27.7509   24.8300 C   0  0  0  0  0  0  0  0  0  0  0  0
  -21.8679  -25.7267   23.7934 C   0  0  0  0  0  0  0  0  0  0  0  0
  -20.4966  -27.7718   24.1928 C   0  0  0  0  0  0  0  0  0  0  0  0
  -21.4771  -27.5655   17.4203 C   0  0  0  0  0  0  0  0  0  0  0  0
  -31.0022  -24.9984   19.1067 C   0  0  0  0  0  0  0  0  0  0  0  0
  -22.2205  -27.7771   22.3434 C   0  0  1  0  0  0  0  0  0  0  0  0
  -20.4529  -26.3160   19.3251 C   0  0  2  0  0  0  0  0  0  0  0  0
  -21.8966  -27.2699   23.7770 C   0  0  0  0  0  0  0  0  0  0  0  0
  -29.5399  -23.4316   17.9683 N   0  0  0  0  0  0  0  0  0  0  0  0
  -29.9774  -21.5032   19.9570 N   0  0  0  0  0  0  0  0  0  0  0  0
  -25.9224  -11.3187   20.4515 N   0  0  0  0  0  0  0  0  0  0  0  0
  -26.9095  -11.4830   19.5545 N   0  0  0  0  0  0  0  0  0  0  0  0
  -28.5316  -20.0303   18.7779 N   0  0  0  0  0  0  0  0  0  0  0  0
  -23.5092  -29.8322   21.8537 N   0  0  0  0  0  0  0  0  0  0  0  0
  -27.2505  -15.2881   19.6003 N   0  0  0  0  0  0  0  0  0  0  0  0
  -27.3544  -17.4600   18.6053 N   0  0  0  0  0  0  0  0  0  0  0  0
  -28.1660  -10.3464   17.8992 N   0  0  0  0  0  0  0  0  0  0  0  0
  -25.4280   -7.7229   17.7816 N   0  0  0  0  0  0  0  0  0  0  0  0
  -24.5882  -32.8830   23.5343 N   0  0  0  0  0  0  0  0  0  0  0  0
  -21.2576  -27.3594   21.3301 N   0  0  0  0  0  0  0  0  0  0  0  0
  -30.3946  -25.8949   20.1144 N   0  3  0  0  0  0  0  0  0  0  0  0
  -20.8787  -26.2921   17.8971 N   0  3  0  0  0  0  0  0  0  0  0  0
  -26.9578   -7.1152   19.3782 O   0  0  0  0  0  0  0  0  0  0  0  0
  -24.7207  -30.5993   23.9702 O   0  0  0  0  0  0  0  0  0  0  0  0
  -21.2893  -29.9482   22.5571 O   0  0  0  0  0  0  0  0  0  0  0  0
  -22.7804  -26.2595   19.9705 O   0  0  0  0  0  0  0  0  0  0  0  0
  -26.3197  -15.7014   17.5311 O   0  0  0  0  0  0  0  0  0  0  0  0
  -21.5036   -7.8187   23.4131 O   0  0  0  0  0  0  0  0  0  0  0  0
  -29.0544  -28.8449   19.2937 O   0  0  0  0  0  0  0  0  0  1  0  0
  -21.0789   -2.3227   23.5472 F   0  0  0  0  0  0  0  0  0  0  0  0
  -21.7314   -6.4362   25.7963 F   0  0  0  0  0  0  0  0  0  0  0  0
  1  2  1  0  0  0  0
  1  5  2  0  0  0  0
  2  6  2  0  0  0  0
  3  8  2  0  0  0  0
  3 17  1  0  0  0  0
  4  9  1  0  0  0  0
  4 17  2  0  0  0  0
  5 19  1  0  0  0  0
  6 21  1  0  0  0  0
  7 10  2  0  0  0  0
  7 20  1  0  0  0  0
  8 23  1  0  0  0  0
  9 23  2  0  0  0  0
 10 24  1  0  0  0  0
 11 12  2  0  0  0  0
 11 25  1  0  0  0  0
 12 26  1  0  0  0  0
 13 22  1  0  0  0  0
 13 24  2  0  0  0  0
 14 26  2  0  0  0  0
 14 27  1  0  0  0  0
 15 29  1  0  0  0  0
 15 66  2  0  0  0  0
 16 30  2  0  0  0  0
 16 65  1  0  0  0  0
 17 28  1  0  0  0  0
 18 28  1  0  0  0  0
 18 31  2  0  0  0  0
 18 32  1  0  0  0  0
 19 21  2  0  0  0  0
 19 37  1  0  0  0  0
 20 22  2  0  0  0  0
 20 38  1  0  0  0  0
 21 52  1  0  0  0  0
 22 39  1  0  0  0  0
 23 84  1  0  0  0  0
 24 85  1  0  0  0  0
 25 27  2  0  0  0  0
 25 84  1  0  0  0  0
 26 86  1  0  0  0  0
 27 87  1  0  0  0  0
 28 67  2  0  0  0  0
 29 61  1  0  0  0  0
 29 65  2  0  0  0  0
 30 66  1  0  0  0  0
 30 69  1  0  0  0  0
 31 68  1  0  0  0  0
 31 73  1  0  0  0  0
 32 74  1  0  0  0  0
 32 79  2  0  0  0  0
 33 53  1  0  0  0  0
 33 75  1  0  0  0  0
 33 80  2  0  0  0  0
 34 62  1  0  0  0  0
 34 70  1  0  0  0  0
 34 81  2  0  0  0  0
 35 63  1  0  0  0  0
 35 76  1  0  0  0  0
 35 82  2  0  0  0  0
 36 71  1  0  0  0  0
 36 72  1  0  0  0  0
 36 83  2  0  0  0  0
 37 40  1  0  0  0  0
 38 53  1  0  0  0  0
 39 70  1  0  0  0  0
 40 42  1  0  0  0  0
 41 43  1  0  0  0  0
 41 44  1  0  0  0  0
 42 52  1  0  0  0  0
 43 54  1  0  0  0  0
 44 71  1  0  0  0  0
 45 47  1  0  0  0  0
 45 69  1  0  0  0  0
 46 48  1  0  0  0  0
 46 69  1  0  0  0  0
 47 72  1  0  0  0  0
 48 72  1  0  0  0  0
 49 54  1  0  0  0  0
 49 71  1  0  0  0  0
 50 55  1  0  0  0  0
 50 77  1  0  0  0  0
 51 55  1  0  0  0  0
 51 77  1  0  0  0  0
 52 75  1  0  0  0  0
 53 70  1  0  0  0  0
 54 68  1  0  0  0  0
 55 85  1  0  0  0  0
 56 63  1  0  0  0  0
 57 64  1  0  0  0  0
 58 64  1  0  0  0  0
 59 64  1  0  0  0  0
 60 78  1  0  0  0  0
 61 77  1  0  0  0  0
 62 64  1  0  0  0  0
 62 76  1  0  0  0  0
 63 78  1  0  0  0  0
 67 68  1  0  0  0  0
M  CHG  2  77   1  78   1
M  ISO  4  36 100  55 101  72 100  85 101
M  END
> <Batch ID>
0195

> <Smiles>
CNC(C)C(=O)NC(C(=O)N1Cc2cc([101O:1][101CH:1]3CN(Cc4cnc(N5CC[100N:0]([100C:0](=O)N6CCCC(n7nc(-c8ccc(Oc9ccc(F)cc9F)cc8)c(C(N)=O)c7N)C6)CC5)cn4)C3)ccc2CC1C(=O)NC1CCCc2ccccc21)C(C)(C)C

> <Shape>
0.351

> <Color>
0.068

> <Negative vol penalty>
0.000

$$$$

  -OEChem-04052323373D

 86 95  0     1  0  0  0  0  0999 V2000
  -26.0804  -17.4117   17.7671 C   0  0  0  0  0  0  0  0  0  0  0  0
  -25.2112  -18.4809   17.9587 C   0  0  0  0  0  0  0  0  0  0  0  0
  -23.6831  -13.6476   19.4226 C   0  0  0  0  0  0  0  0  0  0  0  0
  -24.7997  -14.0812   21.5208 C   0  0  0  0  0  0  0  0  0  0  0  0
  -27.3209  -17.4007   18.4034 C   0  0  0  0  0  0  0  0  0  0  0  0
  -25.5816  -19.5392   18.7877 C   0  0  0  0  0  0  0  0  0  0  0  0
  -24.1613  -25.4525   18.0655 C   0  0  0  0  0  0  0  0  0  0  0  0
  -24.7553  -12.8534   19.0162 C   0  0  0  0  0  0  0  0  0  0  0  0
  -25.8718  -13.2868   21.1144 C   0  0  0  0  0  0  0  0  0  0  0  0
  -23.1751  -26.2567   18.6352 C   0  0  0  0  0  0  0  0  0  0  0  0
  -29.0634  -11.6657   20.4852 C   0  0  0  0  0  0  0  0  0  0  0  0
  -30.3515  -12.1528   20.7062 C   0  0  0  0  0  0  0  0  0  0  0  0
  -24.7620  -27.0264   20.2810 C   0  0  0  0  0  0  0  0  0  0  0  0
  -29.8624  -14.0733   19.3243 C   0  0  0  0  0  0  0  0  0  0  0  0
  -18.4063  -27.1850   23.0134 C   0  0  0  0  0  0  0  0  0  0  0  0
  -23.7054  -14.2616   20.6749 C   0  0  0  0  0  0  0  0  0  0  0  0
  -21.4486  -14.6672   21.7931 C   0  0  0  0  0  0  0  0  0  0  0  0
  -27.7107  -18.4640   19.2328 C   0  0  0  0  0  0  0  0  0  0  0  0
  -25.4545  -25.4210   18.6068 C   0  0  0  0  0  0  0  0  0  0  0  0
  -26.8280  -19.5418   19.4367 C   0  0  0  0  0  0  0  0  0  0  0  0
  -25.7635  -26.2230   19.7147 C   0  0  0  0  0  0  0  0  0  0  0  0
  -25.8496  -12.6729   19.8620 C   0  0  0  0  0  0  0  0  0  0  0  0
  -23.4746  -27.0416   19.7448 C   0  0  0  0  0  0  0  0  0  0  0  0
  -28.1747  -12.3823   19.6837 C   0  0  0  0  0  0  0  0  0  0  0  0
  -30.7511  -13.3566   20.1258 C   0  0  0  0  0  0  0  0  0  0  0  0
  -28.5742  -13.5861   19.1032 C   0  0  0  0  0  0  0  0  0  0  0  0
  -22.5984  -15.0827   21.0951 C   0  0  0  0  0  0  0  0  0  0  0  0
  -19.2846  -29.2310   22.4920 C   0  0  0  0  0  0  0  0  0  0  0  0
  -20.5188  -28.6513   22.2962 C   0  0  0  0  0  0  0  0  0  0  0  0
  -19.6402  -26.6051   22.8169 C   0  0  0  0  0  0  0  0  0  0  0  0
  -20.7094  -15.8141   21.9505 C   0  0  0  0  0  0  0  0  0  0  0  0
  -21.0817  -13.3614   22.2576 C   0  0  0  0  0  0  0  0  0  0  0  0
  -27.2818  -23.1767   19.9212 C   0  0  0  0  0  0  0  0  0  0  0  0
  -29.5202  -25.5241   19.8786 C   0  0  0  0  0  0  0  0  0  0  0  0
  -30.2140  -28.8650   19.8179 C   0  0  0  0  0  0  0  0  0  0  0  0
  -20.1558  -21.0152   23.1694 C   0  0  0  0  0  0  0  0  0  0  0  0
  -29.0423  -18.3852   19.9367 C   0  0  0  0  0  0  0  0  0  0  0  0
  -26.5142  -24.5685   17.9643 C   0  0  0  0  0  0  0  0  0  0  0  0
  -27.1419  -26.2404   20.3213 C   0  0  0  0  0  0  0  0  0  0  0  0
  -29.5126  -19.7229   20.5020 C   0  0  0  0  0  0  0  0  0  0  0  0
  -21.2368  -20.3935   19.8855 C   0  0  0  0  0  0  0  0  0  0  0  0
  -28.3770  -20.4160   21.2483 C   0  0  0  0  0  0  0  0  0  0  0  0
  -21.6001  -18.9108   19.9608 C   0  0  0  0  0  0  0  0  0  0  0  0
  -21.6678  -21.1536   21.1409 C   0  0  0  0  0  0  0  0  0  0  0  0
  -18.6064  -24.3571   22.7415 C   0  0  0  0  0  0  0  0  0  0  0  0
  -21.0903  -24.6227   22.8161 C   0  0  0  0  0  0  0  0  0  0  0  0
  -18.7463  -23.0182   23.4609 C   0  0  0  0  0  0  0  0  0  0  0  0
  -21.1851  -23.2867   23.5447 C   0  0  0  0  0  0  0  0  0  0  0  0
  -21.5348  -19.0769   22.4779 C   0  0  0  0  0  0  0  0  0  0  0  0
  -27.2040  -20.7201   20.3087 C   0  0  1  0  0  0  0  0  0  0  0  0
  -27.6592  -24.2236   18.9117 C   0  0  1  0  0  0  0  0  0  0  0  0
  -21.0619  -18.2754   21.2551 C   0  0  2  0  0  0  0  0  0  0  0  0
  -18.3821  -31.0279   20.9943 C   0  0  0  0  0  0  0  0  0  0  0  0
  -32.1361  -30.4782   19.8279 C   0  0  0  0  0  0  0  0  0  0  0  0
  -29.9231  -25.0218   22.8611 C   0  0  0  0  0  0  0  0  0  0  0  0
  -31.1021  -27.2259   23.0020 C   0  0  0  0  0  0  0  0  0  0  0  0
  -32.0325  -25.4049   21.5734 C   0  0  0  0  0  0  0  0  0  0  0  0
  -29.4434  -29.9792   17.1867 C   0  0  0  0  0  0  0  0  0  0  0  0
  -19.0768  -30.6959   22.3128 C   0  0  0  0  0  0  0  0  0  0  0  0
  -21.7037  -29.4621   21.8963 C   0  0  0  0  0  0  0  0  0  0  0  0
  -22.8884  -28.6055   21.4380 C   0  0  0  0  0  0  0  0  0  1  0  0
  -29.9416  -26.6169   20.8310 C   0  0  1  0  0  0  0  0  0  0  0  0
  -31.1704  -29.6798   18.9661 C   0  0  2  0  0  0  0  0  0  0  0  0
  -30.7232  -26.0658   22.0569 C   0  0  0  0  0  0  0  0  0  0  0  0
  -18.2063  -28.5083   22.8545 N   0  0  0  0  0  0  0  0  0  0  0  0
  -22.5944  -16.3913   20.8275 N   0  0  0  0  0  0  0  0  0  0  0  0
  -20.7186  -27.3279   22.4548 N   0  0  0  0  0  0  0  0  0  0  0  0
  -21.4330  -16.8080   21.3599 N   0  0  0  0  0  0  0  0  0  0  0  0
  -19.7619  -25.2221   23.0030 N   0  0  0  0  0  0  0  0  0  0  0  0
  -28.1421  -25.3851   19.6612 N   0  0  0  0  0  0  0  0  0  0  0  0
  -21.1656  -20.4882   22.3505 N   0  0  0  0  0  0  0  0  0  0  0  0
  -20.0525  -22.4139   23.2286 N   0  0  0  0  0  0  0  0  0  0  0  0
  -19.5174  -16.0592   22.5350 N   0  0  0  0  0  0  0  0  0  0  0  0
  -21.9565  -12.2945   22.0117 N   0  0  0  0  0  0  0  0  0  0  0  0
  -27.4965  -21.8801   19.4942 N   0  0  0  0  0  0  0  0  0  0  0  0
  -30.6853  -27.5875   20.0353 N   0  0  0  0  0  0  0  0  0  0  0  0
  -30.4140  -30.6308   18.1034 N   0  3  0  0  0  0  0  0  0  0  0  0
  -20.0020  -13.1441   22.8583 O   0  0  0  0  0  0  0  0  0  0  0  0
  -26.8308  -23.5198   21.0077 O   0  0  0  0  0  0  0  0  0  0  0  0
  -30.3825  -24.8242   19.3416 O   0  0  0  0  0  0  0  0  0  0  0  0
  -29.1565  -29.3177   20.2506 O   0  0  0  0  0  0  0  0  0  0  0  0
  -19.3897  -20.2824   23.8074 O   0  0  0  0  0  0  0  0  0  0  0  0
  -26.8958  -11.8977   19.4659 O   0  0  0  0  0  0  0  0  0  0  0  0
  -22.5069  -27.8324   20.3072 O   0  0  0  0  0  0  0  0  0  1  0  0
  -31.9876  -13.8251   20.3393 F   0  0  0  0  0  0  0  0  0  0  0  0
  -27.7245  -14.2795   18.3332 F   0  0  0  0  0  0  0  0  0  0  0  0
  1  2  1  0  0  0  0
  1  5  2  0  0  0  0
  2  6  2  0  0  0  0
  3  8  2  0  0  0  0
  3 16  1  0  0  0  0
  4  9  1  0  0  0  0
  4 16  2  0  0  0  0
  5 18  1  0  0  0  0
  6 20  1  0  0  0  0
  7 10  2  0  0  0  0
  7 19  1  0  0  0  0
  8 22  1  0  0  0  0
  9 22  2  0  0  0  0
 10 23  1  0  0  0  0
 11 12  2  0  0  0  0
 11 24  1  0  0  0  0
 12 25  1  0  0  0  0
 13 21  1  0  0  0  0
 13 23  2  0  0  0  0
 14 25  2  0  0  0  0
 14 26  1  0  0  0  0
 15 30  1  0  0  0  0
 15 65  2  0  0  0  0
 16 27  1  0  0  0  0
 17 27  1  0  0  0  0
 17 31  2  0  0  0  0
 17 32  1  0  0  0  0
 18 20  2  0  0  0  0
 18 37  1  0  0  0  0
 19 21  2  0  0  0  0
 19 38  1  0  0  0  0
 20 50  1  0  0  0  0
 21 39  1  0  0  0  0
 22 83  1  0  0  0  0
 23 84  1  0  0  0  0
 24 26  2  0  0  0  0
 24 83  1  0  0  0  0
 25 85  1  0  0  0  0
 26 86  1  0  0  0  0
 27 66  2  0  0  0  0
 28 29  2  0  0  0  0
 28 59  1  0  0  0  0
 28 65  1  0  0  0  0
 29 60  1  0  0  0  0
 29 67  1  0  0  0  0
 30 67  2  0  0  0  0
 30 69  1  0  0  0  0
 31 68  1  0  0  0  0
 31 73  1  0  0  0  0
 32 74  1  0  0  0  0
 32 78  2  0  0  0  0
 33 51  1  0  0  0  0
 33 75  1  0  0  0  0
 33 79  2  0  0  0  0
 34 62  1  0  0  0  0
 34 70  1  0  0  0  0
 34 80  2  0  0  0  0
 35 63  1  0  0  0  0
 35 76  1  0  0  0  0
 35 81  2  0  0  0  0
 36 71  1  0  0  0  0
 36 72  1  0  0  0  0
 36 82  2  0  0  0  0
 37 40  1  0  0  0  0
 38 51  1  0  0  0  0
 39 70  1  0  0  0  0
 40 42  1  0  0  0  0
 41 43  1  0  0  0  0
 41 44  1  0  0  0  0
 42 50  1  0  0  0  0
 43 52  1  0  0  0  0
 44 71  1  0  0  0  0
 45 47  1  0  0  0  0
 45 69  1  0  0  0  0
 46 48  1  0  0  0  0
 46 69  1  0  0  0  0
 47 72  1  0  0  0  0
 48 72  1  0  0  0  0
 49 52  1  0  0  0  0
 49 71  1  0  0  0  0
 50 75  1  0  0  0  0
 51 70  1  0  0  0  0
 52 68  1  0  0  0  0
 53 59  1  0  0  0  0
 54 63  1  0  0  0  0
 55 64  1  0  0  0  0
 56 64  1  0  0  0  0
 57 64  1  0  0  0  0
 58 77  1  0  0  0  0
 60 61  1  0  0  0  0
 61 84  1  0  0  0  0
 62 64  1  0  0  0  0
 62 76  1  0  0  0  0
 63 77  1  0  0  0  0
 66 68  1  0  0  0  0
M  CHG  1  77   1
M  ISO  4  36 100  61 101  72 100  84 101
M  END
> <Batch ID>
0195

> <Smiles>
CCc1ncc(N2CC[100N:0]([100C:0](=O)N3CCCC(n4nc(-c5ccc(Oc6ccc(F)cc6F)cc5)c(C(N)=O)c4N)C3)CC2)nc1C[101CH2:1][101O:1]c1ccc2c(c1)CN(C(=O)C(NC(=O)C(C)NC)C(C)(C)C)C(C(=O)NC1CCCc3ccccc31)C2

> <Shape>
0.231

> <Color>
0.067

> <Negative vol penalty>
0.000

$$$$

  -OEChem-04052323373D

 89 99  0     1  0  0  0  0  0999 V2000
  -16.6646  -28.7463   23.8657 C   0  0  0  0  0  0  0  0  0  0  0  0
  -16.9798  -29.1222   22.5639 C   0  0  0  0  0  0  0  0  0  0  0  0
  -23.9310   -8.9747   22.3598 C   0  0  0  0  0  0  0  0  0  0  0  0
  -22.4050  -10.3025   21.0388 C   0  0  0  0  0  0  0  0  0  0  0  0
  -17.6174  -28.8706   24.8760 C   0  0  0  0  0  0  0  0  0  0  0  0
  -18.2477  -29.6238   22.2718 C   0  0  0  0  0  0  0  0  0  0  0  0
  -22.4799  -26.4053   17.4117 C   0  0  0  0  0  0  0  0  0  0  0  0
  -23.5982   -7.8465   21.6102 C   0  0  0  0  0  0  0  0  0  0  0  0
  -22.0722   -9.1743   20.2891 C   0  0  0  0  0  0  0  0  0  0  0  0
  -23.2642  -25.9697   16.3434 C   0  0  0  0  0  0  0  0  0  0  0  0
  -21.0688   -5.6091   21.4666 C   0  0  0  0  0  0  0  0  0  0  0  0
  -20.8207   -4.4230   22.1574 C   0  0  0  0  0  0  0  0  0  0  0  0
  -24.9539  -27.6068   16.9025 C   0  0  0  0  0  0  0  0  0  0  0  0
  -29.2541  -21.0290   18.0447 C   0  0  0  0  0  0  0  0  0  0  0  0
  -22.6324   -3.3527   20.9702 C   0  0  0  0  0  0  0  0  0  0  0  0
  -30.0901  -23.0821   18.4396 C   0  0  0  0  0  0  0  0  0  0  0  0
  -23.3344  -10.2028   22.0741 C   0  0  0  0  0  0  0  0  0  0  0  0
  -23.5169  -11.5448   24.2359 C   0  0  0  0  0  0  0  0  0  0  0  0
  -18.9007  -29.3649   24.5943 C   0  0  0  0  0  0  0  0  0  0  0  0
  -22.9371  -27.4342   18.2398 C   0  0  0  0  0  0  0  0  0  0  0  0
  -19.2181  -29.7562   23.2796 C   0  0  0  0  0  0  0  0  0  0  0  0
  -24.1783  -28.0389   17.9816 C   0  0  0  0  0  0  0  0  0  0  0  0
  -29.4192  -22.3275   17.5027 C   0  0  0  0  0  0  0  0  0  0  0  0
  -22.6689   -7.9462   20.5749 C   0  0  0  0  0  0  0  0  0  0  0  0
  -24.4980  -26.5692   16.0893 C   0  0  0  0  0  0  0  0  0  0  0  0
  -22.0986   -5.6670   20.5275 C   0  0  0  0  0  0  0  0  0  0  0  0
  -21.6025   -3.2948   21.9093 C   0  0  0  0  0  0  0  0  0  0  0  0
  -22.8804   -4.5388   20.2793 C   0  0  0  0  0  0  0  0  0  0  0  0
  -23.6773  -11.3685   22.8484 C   0  0  0  0  0  0  0  0  0  0  0  0
  -29.8291  -21.0296   19.2964 C   0  0  0  0  0  0  0  0  0  0  0  0
  -23.9898  -12.8114   24.4780 C   0  0  0  0  0  0  0  0  0  0  0  0
  -22.9880  -10.6441   25.2181 C   0  0  0  0  0  0  0  0  0  0  0  0
  -22.2867  -29.6095   21.2266 C   0  0  0  0  0  0  0  0  0  0  0  0
  -25.2543  -28.8377   21.3157 C   0  0  0  0  0  0  0  0  0  0  0  0
  -28.3568  -27.4198   21.2785 C   0  0  0  0  0  0  0  0  0  0  0  0
  -27.9561  -16.0799   21.5301 C   0  0  0  0  0  0  0  0  0  0  0  0
  -19.8818  -29.5255   25.7285 C   0  0  0  0  0  0  0  0  0  0  0  0
  -22.0984  -27.9771   19.3647 C   0  0  0  0  0  0  0  0  0  0  0  0
  -24.6142  -29.1657   18.8779 C   0  0  0  0  0  0  0  0  0  0  0  0
  -21.3237  -29.7146   25.2643 C   0  0  0  0  0  0  0  0  0  0  0  0
  -24.5419  -17.0724   22.4197 C   0  0  0  0  0  0  0  0  0  0  0  0
  -21.3922  -30.7444   24.1410 C   0  0  0  0  0  0  0  0  0  0  0  0
  -23.9067  -15.7148   22.7015 C   0  0  0  0  0  0  0  0  0  0  0  0
  -29.8046  -23.9003   15.5293 C   0  0  0  0  0  0  0  0  0  0  0  0
  -25.5884  -17.0052   21.3067 C   0  0  0  0  0  0  0  0  0  0  0  0
  -25.9914  -14.6118   21.8174 C   0  0  0  0  0  0  0  0  0  0  0  0
  -29.8799  -17.7184   21.1558 C   0  0  0  0  0  0  0  0  0  0  0  0
  -27.9956  -18.5199   20.5779 C   0  0  0  0  0  0  0  0  0  0  0  0
  -28.9217  -24.4106   14.4098 C   0  0  0  0  0  0  0  0  0  0  0  0
  -27.5339  -23.3850   16.1448 C   0  0  0  0  0  0  0  0  0  0  0  0
  -28.9476  -22.7984   16.1487 C   0  0  2  0  0  0  0  0  0  0  0  0
  -20.5906  -30.2814   22.9185 C   0  0  1  0  0  0  0  0  0  0  0  0
  -22.9325  -28.4192   20.5805 C   0  0  1  0  0  0  0  0  0  0  0  0
  -24.9894  -14.6615   22.9793 C   0  0  2  0  0  0  0  0  0  0  0  0
  -29.4293  -18.6871   20.0568 C   0  0  0  0  0  0  0  0  0  0  0  0
  -30.6535  -26.8218   22.0940 C   0  0  0  0  0  0  0  0  0  0  0  0
  -25.9771  -31.5688   20.1658 C   0  0  0  0  0  0  0  0  0  0  0  0
  -28.3807  -31.0538   20.6409 C   0  0  0  0  0  0  0  0  0  0  0  0
  -26.7419  -31.1907   22.5166 C   0  0  0  0  0  0  0  0  0  0  0  0
  -27.3509  -25.0402   22.7225 C   0  0  0  0  0  0  0  0  0  0  0  0
  -32.8550  -22.4143   20.4714 C   0  0  0  0  0  0  0  0  0  0  0  0
  -26.4320  -24.2842   14.0478 C   0  0  0  0  0  0  0  0  0  0  0  0
  -25.1402  -24.7635   14.6800 C   0  0  0  0  0  0  0  0  0  1  0  0
  -26.6692  -29.2081   20.9494 C   0  0  1  0  0  0  0  0  0  0  0  0
  -29.1599  -26.7246   22.3631 C   0  0  2  0  0  0  0  0  0  0  0  0
  -26.9267  -30.7381   21.0518 C   0  0  0  0  0  0  0  0  0  0  0  0
  -24.2102  -12.4376   22.2510 N   0  0  0  0  0  0  0  0  0  0  0  0
  -30.3338  -22.2829   19.5259 N   0  0  0  0  0  0  0  0  0  0  0  0
  -24.3887  -13.2979   23.2679 N   0  0  0  0  0  0  0  0  0  0  0  0
  -24.3121  -28.8380   20.2800 N   0  0  0  0  0  0  0  0  0  0  0  0
  -26.5648  -15.9335   21.5370 N   0  0  0  0  0  0  0  0  0  0  0  0
  -28.4769  -17.3227   21.2536 N   0  0  0  0  0  0  0  0  0  0  0  0
  -24.0990  -13.5453   25.6057 N   0  0  0  0  0  0  0  0  0  0  0  0
  -22.5467   -9.3818   24.7982 N   0  0  0  0  0  0  0  0  0  0  0  0
  -29.9343  -20.0017   20.2395 N   0  0  0  0  0  0  0  0  0  0  0  0
  -21.3336  -29.2875   22.1738 N   0  0  0  0  0  0  0  0  0  0  0  0
  -27.5360  -28.3982   21.7985 N   0  0  0  0  0  0  0  0  0  0  0  0
  -27.5456  -24.4235   15.0348 N   0  3  2  0  0  0  0  0  0  0  0  0
  -28.7889  -25.2833   22.4390 N   0  3  0  0  0  0  0  0  0  0  0  0
  -22.8938  -10.9558   26.4295 O   0  0  0  0  0  0  0  0  0  0  0  0
  -22.6283  -30.7379   20.8922 O   0  0  0  0  0  0  0  0  0  0  0  0
  -24.9877  -28.5607   22.4885 O   0  0  0  0  0  0  0  0  0  0  0  0
  -28.4510  -27.1268   20.0887 O   0  0  0  0  0  0  0  0  0  0  0  0
  -28.7148  -15.1229   21.7339 O   0  0  0  0  0  0  0  0  0  0  0  0
  -22.3441   -6.8455   19.8430 O   0  0  0  0  0  0  0  0  0  0  0  0
  -25.2661  -26.1329   15.0400 O   0  0  0  0  0  0  0  0  0  1  0  0
  -21.3652   -2.1563   22.5738 F   0  0  0  0  0  0  0  0  0  0  0  0
  -23.8718   -4.5887   19.3791 F   0  0  0  0  0  0  0  0  0  0  0  0
  -31.1456  -22.8129   20.9259 S   0  0  0  0  0  0  0  0  0  0  0  0
  1  2  1  0  0  0  0
  1  5  2  0  0  0  0
  2  6  2  0  0  0  0
  3  8  2  0  0  0  0
  3 17  1  0  0  0  0
  4  9  1  0  0  0  0
  4 17  2  0  0  0  0
  5 19  1  0  0  0  0
  6 21  1  0  0  0  0
  7 10  2  0  0  0  0
  7 20  1  0  0  0  0
  8 24  1  0  0  0  0
  9 24  2  0  0  0  0
 10 25  1  0  0  0  0
 11 12  2  0  0  0  0
 11 26  1  0  0  0  0
 12 27  1  0  0  0  0
 13 22  1  0  0  0  0
 13 25  2  0  0  0  0
 14 23  1  0  0  0  0
 14 30  2  0  0  0  0
 15 27  2  0  0  0  0
 15 28  1  0  0  0  0
 16 23  2  0  0  0  0
 16 68  1  0  0  0  0
 17 29  1  0  0  0  0
 18 29  1  0  0  0  0
 18 31  2  0  0  0  0
 18 32  1  0  0  0  0
 19 21  2  0  0  0  0
 19 37  1  0  0  0  0
 20 22  2  0  0  0  0
 20 38  1  0  0  0  0
 21 52  1  0  0  0  0
 22 39  1  0  0  0  0
 23 51  1  0  0  0  0
 24 85  1  0  0  0  0
 25 86  1  0  0  0  0
 26 28  2  0  0  0  0
 26 85  1  0  0  0  0
 27 87  1  0  0  0  0
 28 88  1  0  0  0  0
 29 67  2  0  0  0  0
 30 68  1  0  0  0  0
 30 75  1  0  0  0  0
 31 69  1  0  0  0  0
 31 73  1  0  0  0  0
 32 74  1  0  0  0  0
 32 80  2  0  0  0  0
 33 53  1  0  0  0  0
 33 76  1  0  0  0  0
 33 81  2  0  0  0  0
 34 64  1  0  0  0  0
 34 70  1  0  0  0  0
 34 82  2  0  0  0  0
 35 65  1  0  0  0  0
 35 77  1  0  0  0  0
 35 83  2  0  0  0  0
 36 71  1  0  0  0  0
 36 72  1  0  0  0  0
 36 84  2  0  0  0  0
 37 40  1  0  0  0  0
 38 53  1  0  0  0  0
 39 70  1  0  0  0  0
 40 42  1  0  0  0  0
 41 43  1  0  0  0  0
 41 45  1  0  0  0  0
 42 52  1  0  0  0  0
 43 54  1  0  0  0  0
 44 49  1  0  0  0  0
 44 51  1  0  0  0  0
 45 71  1  0  0  0  0
 46 54  1  0  0  0  0
 46 71  1  0  0  0  0
 47 55  1  0  0  0  0
 47 72  1  0  0  0  0
 48 55  1  0  0  0  0
 48 72  1  0  0  0  0
 49 78  1  0  0  0  0
 50 51  1  0  0  0  0
 50 78  1  0  0  0  0
 52 76  1  0  0  0  0
 53 70  1  0  0  0  0
 54 69  1  0  0  0  0
 55 75  1  0  0  0  0
 56 65  1  0  0  0  0
 57 66  1  0  0  0  0
 58 66  1  0  0  0  0
 59 66  1  0  0  0  0
 60 79  1  0  0  0  0
 61 89  1  0  0  0  0
 62 63  1  0  0  0  0
 62 78  1  0  0  0  0
 63 86  1  0  0  0  0
 64 66  1  0  0  0  0
 64 77  1  0  0  0  0
 65 79  1  0  0  0  0
 67 69  1  0  0  0  0
 68 89  1  0  0  0  0
M  CHG  2  78   1  79   1
M  ISO  4  36 100  63 101  72 100  86 101
M  END
> <Batch ID>
0195

> <Smiles>
CNC(C)C(=O)NC(C(=O)N1Cc2cc([101O:1][101CH2:1]CN3CCC(c4cc(NC5C[100N:0]([100C:0](=O)N6CCCC(n7nc(-c8ccc(Oc9ccc(F)cc9F)cc8)c(C(N)=O)c7N)C6)C5)n(SC)c4)C3)ccc2CC1C(=O)NC1CCCc2ccccc21)C(C)(C)C

> <Shape>
0.236

> <Color>
0.070

> <Negative vol penalty>
0.000

$$$$

  -OEChem-04052323373D

 85 95  0     1  0  0  0  0  0999 V2000
  -21.6139  -12.2549   20.0523 C   0  0  0  0  0  0  0  0  0  0  0  0
  -21.5045  -13.5962   20.4051 C   0  0  0  0  0  0  0  0  0  0  0  0
  -29.7899  -28.0242   20.5310 C   0  0  0  0  0  0  0  0  0  0  0  0
  -28.5228  -26.0030   20.9134 C   0  0  0  0  0  0  0  0  0  0  0  0
  -22.8529  -11.6185   20.1117 C   0  0  0  0  0  0  0  0  0  0  0  0
  -22.6341  -14.3015   20.8186 C   0  0  0  0  0  0  0  0  0  0  0  0
  -22.9537  -18.8822   18.6833 C   0  0  0  0  0  0  0  0  0  0  0  0
  -30.9207  -27.4191   21.0793 C   0  0  0  0  0  0  0  0  0  0  0  0
  -29.6537  -25.3979   21.4618 C   0  0  0  0  0  0  0  0  0  0  0  0
  -22.1428  -19.8875   19.2083 C   0  0  0  0  0  0  0  0  0  0  0  0
  -34.0471  -26.5266   22.7081 C   0  0  0  0  0  0  0  0  0  0  0  0
  -34.8053  -27.2669   23.6151 C   0  0  0  0  0  0  0  0  0  0  0  0
  -24.0221  -20.7445   20.4544 C   0  0  0  0  0  0  0  0  0  0  0  0
  -32.8837  -27.4558   25.0673 C   0  0  0  0  0  0  0  0  0  0  0  0
  -20.3829  -24.0959   21.3904 C   0  0  0  0  0  0  0  0  0  0  0  0
  -28.5909  -27.3162   20.4481 C   0  0  0  0  0  0  0  0  0  0  0  0
  -27.0246  -27.9345   18.5319 C   0  0  0  0  0  0  0  0  0  0  0  0
  -24.0000  -12.3189   20.5169 C   0  0  0  0  0  0  0  0  0  0  0  0
  -24.3046  -18.7939   19.0490 C   0  0  0  0  0  0  0  0  0  0  0  0
  -23.8894  -13.6734   20.8848 C   0  0  0  0  0  0  0  0  0  0  0  0
  -24.8487  -19.7388   19.9307 C   0  0  0  0  0  0  0  0  0  0  0  0
  -30.8526  -26.1059   21.5447 C   0  0  0  0  0  0  0  0  0  0  0  0
  -22.6762  -20.8170   20.0962 C   0  0  0  0  0  0  0  0  0  0  0  0
  -32.7071  -26.2509   22.9807 C   0  0  0  0  0  0  0  0  0  0  0  0
  -34.2236  -27.7315   24.7947 C   0  0  0  0  0  0  0  0  0  0  0  0
  -32.1255  -26.7154   24.1603 C   0  0  0  0  0  0  0  0  0  0  0  0
  -27.4223  -27.9409   19.8823 C   0  0  0  0  0  0  0  0  0  0  0  0
  -19.8132  -22.9629   20.7792 C   0  0  0  0  0  0  0  0  0  0  0  0
  -19.3062  -24.8623   21.7640 C   0  0  0  0  0  0  0  0  0  0  0  0
  -25.8590  -28.6608   18.5138 C   0  0  0  0  0  0  0  0  0  0  0  0
  -27.6525  -27.3263   17.3955 C   0  0  0  0  0  0  0  0  0  0  0  0
  -26.0907  -16.6195   20.5274 C   0  0  0  0  0  0  0  0  0  0  0  0
  -28.5063  -18.6367   19.7411 C   0  0  0  0  0  0  0  0  0  0  0  0
  -29.4912  -21.8054   18.9435 C   0  0  0  0  0  0  0  0  0  0  0  0
  -21.1784  -29.7012   21.5996 C   0  0  0  0  0  0  0  0  0  0  0  0
  -25.3091  -11.5758   20.6105 C   0  0  0  0  0  0  0  0  0  0  0  0
  -25.1726  -17.7197   18.4531 C   0  0  0  0  0  0  0  0  0  0  0  0
  -26.2978  -19.6998   20.3393 C   0  0  0  0  0  0  0  0  0  0  0  0
  -26.5255  -12.4937   20.7003 C   0  0  0  0  0  0  0  0  0  0  0  0
  -23.7751  -32.0047   21.4800 C   0  0  0  0  0  0  0  0  0  0  0  0
  -26.2850  -13.6002   21.7224 C   0  0  0  0  0  0  0  0  0  0  0  0
  -24.9544  -31.2030   20.9320 C   0  0  0  0  0  0  0  0  0  0  0  0
  -19.3050  -27.5981   24.1716 C   0  0  0  0  0  0  0  0  0  0  0  0
  -18.1858  -28.0146   23.2065 C   0  0  0  0  0  0  0  0  0  0  0  0
  -22.9662  -31.1738   22.4684 C   0  0  0  0  0  0  0  0  0  0  0  0
  -23.6207  -29.0723   21.3355 C   0  0  0  0  0  0  0  0  0  0  0  0
  -21.2666  -27.3461   22.5774 C   0  0  0  0  0  0  0  0  0  0  0  0
  -19.4350  -28.0337   20.9981 C   0  0  0  0  0  0  0  0  0  0  0  0
  -25.0963  -14.4789   21.3146 C   0  0  1  0  0  0  0  0  0  0  0  0
  -26.4090  -17.4158   19.2936 C   0  0  1  0  0  0  0  0  0  0  0  0
  -24.4790  -29.8691   20.3314 C   0  0  2  0  0  0  0  0  0  0  0  0
  -20.1702  -26.6057   23.3728 C   0  0  2  0  0  0  0  0  0  0  0  0
  -18.4748  -27.2423   21.9067 C   0  0  1  0  0  0  0  0  0  0  0  0
  -31.5350  -23.1529   18.3918 C   0  0  0  0  0  0  0  0  0  0  0  0
  -29.3012  -18.6327   22.6869 C   0  0  0  0  0  0  0  0  0  0  0  0
  -30.6880  -20.6695   22.2436 C   0  0  0  0  0  0  0  0  0  0  0  0
  -31.2213  -18.5240   21.0881 C   0  0  0  0  0  0  0  0  0  0  0  0
  -16.8181  -24.5605   21.5321 C   0  0  0  0  0  0  0  0  0  0  0  0
  -28.4436  -22.5140   16.2677 C   0  0  0  0  0  0  0  0  0  0  0  0
  -20.5178  -21.8110   20.1917 C   0  0  0  0  0  0  0  0  0  1  0  0
  -29.1649  -19.8243   20.4005 C   0  0  1  0  0  0  0  0  0  0  0  0
  -30.3814  -22.3342   17.8334 C   0  0  2  0  0  0  0  0  0  0  0  0
  -30.0660  -19.4124   21.5988 C   0  0  0  0  0  0  0  0  0  0  0  0
  -26.5780  -28.6178   20.6653 N   0  0  0  0  0  0  0  0  0  0  0  0
  -18.4782  -23.0019   20.7636 N   0  0  0  0  0  0  0  0  0  0  0  0
  -18.2001  -24.1687   21.3697 N   0  0  0  0  0  0  0  0  0  0  0  0
  -25.6382  -29.0435   19.8041 N   0  0  0  0  0  0  0  0  0  0  0  0
  -19.2131  -26.0809   22.4005 N   0  0  0  0  0  0  0  0  0  0  0  0
  -27.1043  -18.6268   19.7345 N   0  0  0  0  0  0  0  0  0  0  0  0
  -22.5375  -29.9072   21.8748 N   0  0  0  0  0  0  0  0  0  0  0  0
  -20.6964  -28.3834   21.6839 N   0  0  0  0  0  0  0  0  0  0  0  0
  -25.0116  -29.0031   17.5202 N   0  0  0  0  0  0  0  0  0  0  0  0
  -28.8451  -26.6166   17.5913 N   0  0  0  0  0  0  0  0  0  0  0  0
  -25.4857  -15.4038   20.2718 N   0  0  0  0  0  0  0  0  0  0  0  0
  -29.8686  -20.5406   19.3422 N   0  0  0  0  0  0  0  0  0  0  0  0
  -29.5966  -23.1986   16.9073 N   0  3  0  0  0  0  0  0  0  0  0  0
  -27.1791  -27.4236   16.2379 O   0  0  0  0  0  0  0  0  0  0  0  0
  -26.3745  -17.0738   21.6296 O   0  0  0  0  0  0  0  0  0  0  0  0
  -29.2099  -17.7540   19.2436 O   0  0  0  0  0  0  0  0  0  0  0  0
  -28.5568  -22.4514   19.4127 O   0  0  0  0  0  0  0  0  0  0  0  0
  -20.4333  -30.6479   21.3157 O   0  0  0  0  0  0  0  0  0  0  0  0
  -31.9559  -25.5151   22.0796 O   0  0  0  0  0  0  0  0  0  0  0  0
  -21.8829  -21.8035   20.6131 O   0  0  0  0  0  0  0  0  0  1  0  0
  -34.9523  -28.4411   25.6663 F   0  0  0  0  0  0  0  0  0  0  0  0
  -30.8390  -26.4527   24.4282 F   0  0  0  0  0  0  0  0  0  0  0  0
  1  2  1  0  0  0  0
  1  5  2  0  0  0  0
  2  6  2  0  0  0  0
  3  8  2  0  0  0  0
  3 16  1  0  0  0  0
  4  9  1  0  0  0  0
  4 16  2  0  0  0  0
  5 18  1  0  0  0  0
  6 20  1  0  0  0  0
  7 10  2  0  0  0  0
  7 19  1  0  0  0  0
  8 22  1  0  0  0  0
  9 22  2  0  0  0  0
 10 23  1  0  0  0  0
 11 12  2  0  0  0  0
 11 24  1  0  0  0  0
 12 25  1  0  0  0  0
 13 21  1  0  0  0  0
 13 23  2  0  0  0  0
 14 25  2  0  0  0  0
 14 26  1  0  0  0  0
 15 28  1  0  0  0  0
 15 29  2  0  0  0  0
 16 27  1  0  0  0  0
 17 27  1  0  0  0  0
 17 30  2  0  0  0  0
 17 31  1  0  0  0  0
 18 20  2  0  0  0  0
 18 36  1  0  0  0  0
 19 21  2  0  0  0  0
 19 37  1  0  0  0  0
 20 49  1  0  0  0  0
 21 38  1  0  0  0  0
 22 82  1  0  0  0  0
 23 83  1  0  0  0  0
 24 26  2  0  0  0  0
 24 82  1  0  0  0  0
 25 84  1  0  0  0  0
 26 85  1  0  0  0  0
 27 64  2  0  0  0  0
 28 60  1  0  0  0  0
 28 65  2  0  0  0  0
 29 66  1  0  0  0  0
 29 68  1  0  0  0  0
 30 67  1  0  0  0  0
 30 72  1  0  0  0  0
 31 73  1  0  0  0  0
 31 77  2  0  0  0  0
 32 50  1  0  0  0  0
 32 74  1  0  0  0  0
 32 78  2  0  0  0  0
 33 61  1  0  0  0  0
 33 69  1  0  0  0  0
 33 79  2  0  0  0  0
 34 62  1  0  0  0  0
 34 75  1  0  0  0  0
 34 80  2  0  0  0  0
 35 70  1  0  0  0  0
 35 71  1  0  0  0  0
 35 81  2  0  0  0  0
 36 39  1  0  0  0  0
 37 50  1  0  0  0  0
 38 69  1  0  0  0  0
 39 41  1  0  0  0  0
 40 42  1  0  0  0  0
 40 45  1  0  0  0  0
 41 49  1  0  0  0  0
 42 51  1  0  0  0  0
 43 44  1  0  0  0  0
 43 52  1  0  0  0  0
 44 53  1  0  0  0  0
 45 70  1  0  0  0  0
 46 51  1  0  0  0  0
 46 70  1  0  0  0  0
 47 52  1  0  0  0  0
 47 71  1  0  0  0  0
 48 53  1  0  0  0  0
 48 71  1  0  0  0  0
 49 74  1  0  0  0  0
 50 69  1  0  0  0  0
 51 67  1  0  0  0  0
 52 68  1  0  0  0  0
 53 68  1  0  0  0  0
 54 62  1  0  0  0  0
 55 63  1  0  0  0  0
 56 63  1  0  0  0  0
 57 63  1  0  0  0  0
 58 66  1  0  0  0  0
 59 76  1  0  0  0  0
 60 83  1  0  0  0  0
 61 63  1  0  0  0  0
 61 75  1  0  0  0  0
 62 76  1  0  0  0  0
 64 67  1  0  0  0  0
 65 66  1  0  0  0  0
M  CHG  1  76   1
M  ISO  4  35 100  60 101  71 100  83 101
M  END
> <Batch ID>
0195

> <Smiles>
CNC(C)C(=O)NC(C(=O)N1Cc2cc([101O:1][101CH2:1]c3cc(N4C5CCC4C[100N:0]([100C:0](=O)N4CCCC(n6nc(-c7ccc(Oc8ccc(F)cc8F)cc7)c(C(N)=O)c6N)C4)C5)n(C)n3)ccc2CC1C(=O)NC1CCCc2ccccc21)C(C)(C)C

> <Shape>
0.252

> <Color>
0.095

> <Negative vol penalty>
0.000

$$$$

  -OEChem-04052323373D

 88 98  0     1  0  0  0  0  0999 V2000
  -21.5453  -34.3465   15.3666 C   0  0  0  0  0  0  0  0  0  0  0  0
  -22.4124  -33.2618   15.4488 C   0  0  0  0  0  0  0  0  0  0  0  0
  -21.5274  -10.3019   20.4968 C   0  0  0  0  0  0  0  0  0  0  0  0
  -23.4963   -9.8988   21.8377 C   0  0  0  0  0  0  0  0  0  0  0  0
  -21.5450  -35.3149   16.3697 C   0  0  0  0  0  0  0  0  0  0  0  0
  -23.2807  -33.1454   16.5336 C   0  0  0  0  0  0  0  0  0  0  0  0
  -25.1026  -27.9688   19.2520 C   0  0  0  0  0  0  0  0  0  0  0  0
  -21.2228   -8.9412   20.5350 C   0  0  0  0  0  0  0  0  0  0  0  0
  -23.1917   -8.5382   21.8760 C   0  0  0  0  0  0  0  0  0  0  0  0
  -26.2592  -27.2004   19.1269 C   0  0  0  0  0  0  0  0  0  0  0  0
  -22.7374   -5.0106   22.6298 C   0  0  0  0  0  0  0  0  0  0  0  0
  -22.8395   -4.3567   23.8576 C   0  0  0  0  0  0  0  0  0  0  0  0
  -27.2053  -28.3240   21.0404 C   0  0  0  0  0  0  0  0  0  0  0  0
  -21.1843   -5.8493   24.7902 C   0  0  0  0  0  0  0  0  0  0  0  0
  -22.6642  -10.7807   21.1481 C   0  0  0  0  0  0  0  0  0  0  0  0
  -22.5634  -13.1767   22.0179 C   0  0  0  0  0  0  0  0  0  0  0  0
  -22.4070  -35.2053   17.4722 C   0  0  0  0  0  0  0  0  0  0  0  0
  -24.9928  -28.9297   20.2674 C   0  0  0  0  0  0  0  0  0  0  0  0
  -23.2930  -34.1139   17.5517 C   0  0  0  0  0  0  0  0  0  0  0  0
  -26.0453  -29.1014   21.1779 C   0  0  0  0  0  0  0  0  0  0  0  0
  -22.0550   -8.0594   21.2246 C   0  0  0  0  0  0  0  0  0  0  0  0
  -27.3119  -27.3800   20.0194 C   0  0  0  0  0  0  0  0  0  0  0  0
  -21.8588   -6.0840   22.4822 C   0  0  0  0  0  0  0  0  0  0  0  0
  -22.0630   -4.7760   24.9378 C   0  0  0  0  0  0  0  0  0  0  0  0
  -21.0822   -6.5032   23.5624 C   0  0  0  0  0  0  0  0  0  0  0  0
  -22.9797  -12.1860   21.1085 C   0  0  0  0  0  0  0  0  0  0  0  0
  -23.1252  -14.3366   21.5431 C   0  0  0  0  0  0  0  0  0  0  0  0
  -21.7423  -13.0590   23.1874 C   0  0  0  0  0  0  0  0  0  0  0  0
  -24.6264  -32.0864   20.3381 C   0  0  0  0  0  0  0  0  0  0  0  0
  -24.3455  -31.5912   23.5316 C   0  0  0  0  0  0  0  0  0  0  0  0
  -25.0226  -29.6104   26.2269 C   0  0  0  0  0  0  0  0  0  0  0  0
  -27.9882  -15.1394   18.1805 C   0  0  0  0  0  0  0  0  0  0  0  0
  -22.4039  -36.3016   18.5079 C   0  0  0  0  0  0  0  0  0  0  0  0
  -23.7279  -29.7318   20.4052 C   0  0  0  0  0  0  0  0  0  0  0  0
  -25.9691  -30.1056   22.2978 C   0  0  0  0  0  0  0  0  0  0  0  0
  -23.0916  -35.9087   19.8129 C   0  0  0  0  0  0  0  0  0  0  0  0
  -24.5856  -16.4287   17.5183 C   0  0  0  0  0  0  0  0  0  0  0  0
  -24.4283  -35.2309   19.5289 C   0  0  0  0  0  0  0  0  0  0  0  0
  -34.0745  -19.1783   16.7509 C   0  0  0  0  0  0  0  0  0  0  0  0
  -23.7503  -15.5202   18.4146 C   0  0  0  0  0  0  0  0  0  0  0  0
  -34.4897  -20.6104   16.3513 C   0  0  0  0  0  0  0  0  0  0  0  0
  -30.5148  -23.5532   15.5476 C   0  0  0  0  0  0  0  0  0  0  0  0
  -25.8101  -15.7107   16.9520 C   0  0  0  0  0  0  0  0  0  0  0  0
  -29.8227  -24.5603   16.4671 C   0  0  0  0  0  0  0  0  0  0  0  0
  -25.8282  -14.1720   18.8981 C   0  0  0  0  0  0  0  0  0  0  0  0
  -31.1977  -23.2520   17.8315 C   0  0  0  0  0  0  0  0  0  0  0  0
  -30.6453  -16.9804   18.4372 C   0  0  0  0  0  0  0  0  0  0  0  0
  -30.6788  -17.1942   16.3614 C   0  0  0  0  0  0  0  0  0  0  0  0
  -24.2323  -33.9396   18.7254 C   0  0  1  0  0  0  0  0  0  0  0  0
  -23.9299  -31.0408   21.1623 C   0  0  1  0  0  0  0  0  0  0  0  0
  -32.6006  -19.6430   16.6142 C   0  0  2  0  0  0  0  0  0  0  0  0
  -24.6221  -14.8963   19.5145 C   0  0  2  0  0  0  0  0  0  0  0  0
  -30.1342  -16.0928   17.2883 C   0  0  0  0  0  0  0  0  0  0  0  0
  -33.1214  -21.0797   16.8935 C   0  0  2  0  0  0  0  0  0  0  0  0
  -31.1313  -22.5361   16.4973 C   0  0  2  0  0  0  0  0  0  0  0  0
  -24.6970  -29.4867   28.7121 C   0  0  0  0  0  0  0  0  0  0  0  0
  -26.5448  -33.6700   23.9208 C   0  0  0  0  0  0  0  0  0  0  0  0
  -26.8333  -32.8251   26.2598 C   0  0  0  0  0  0  0  0  0  0  0  0
  -24.6597  -33.8270   25.5567 C   0  0  0  0  0  0  0  0  0  0  0  0
  -23.4683  -27.1008   26.0151 C   0  0  0  0  0  0  0  0  0  0  0  0
  -31.6199  -19.0734   17.6194 C   0  0  0  0  0  0  0  0  0  0  0  0
  -29.8276  -24.9730   18.8624 C   0  0  0  0  0  0  0  0  0  0  0  0
  -28.4819  -25.6813   18.8354 C   0  0  0  0  0  0  0  0  0  1  0  0
  -25.3071  -31.5403   24.6942 C   0  0  1  0  0  0  0  0  0  0  0  0
  -24.1381  -29.1021   27.3510 C   0  0  2  0  0  0  0  0  0  0  0  0
  -25.8387  -32.9479   25.0857 C   0  0  0  0  0  0  0  0  0  0  0  0
  -23.7467  -12.6740   20.1298 N   0  0  0  0  0  0  0  0  0  0  0  0
  -23.8167  -13.9840   20.4216 N   0  0  0  0  0  0  0  0  0  0  0  0
  -24.7141  -30.8701   22.3871 N   0  0  0  0  0  0  0  0  0  0  0  0
  -26.5948  -15.0546   18.0101 N   0  0  0  0  0  0  0  0  0  0  0  0
  -29.9239  -23.9751   17.8081 N   0  0  1  0  0  0  0  0  0  0  0  0
  -23.0902  -15.6136   21.9796 N   0  0  0  0  0  0  0  0  0  0  0  0
  -21.2478  -11.7937   23.5319 N   0  0  0  0  0  0  0  0  0  0  0  0
  -23.7726  -32.8724   19.5880 N   0  0  0  0  0  0  0  0  0  0  0  0
  -24.6100  -30.8443   25.7704 N   0  0  0  0  0  0  0  0  0  0  0  0
  -28.6684  -15.9147   17.2464 N   0  0  0  0  0  0  0  0  0  0  0  0
  -31.5684  -17.6013   17.4669 N   0  3  0  0  0  0  0  0  0  0  0  0
  -32.4714  -22.1208   16.0447 N   0  3  0  0  0  0  0  0  0  0  0  0
  -24.0264  -27.6172   27.2913 N   0  3  0  0  0  0  0  0  0  0  0  0
  -21.4422  -14.0493   23.8963 O   0  0  0  0  0  0  0  0  0  0  0  0
  -25.8479  -32.1745   20.3809 O   0  0  0  0  0  0  0  0  0  0  0  0
  -23.3023  -32.2408   23.6377 O   0  0  0  0  0  0  0  0  0  0  0  0
  -25.9858  -28.9779   25.7993 O   0  0  0  0  0  0  0  0  0  0  0  0
  -28.5901  -14.5626   19.0927 O   0  0  0  0  0  0  0  0  0  0  0  0
  -21.7579   -6.7316   21.2623 O   0  0  0  0  0  0  0  0  0  0  0  0
  -28.4423  -26.6318   19.8991 O   0  0  0  0  0  0  0  0  0  1  0  0
  -22.1601   -4.1470   26.1164 F   0  0  0  0  0  0  0  0  0  0  0  0
  -20.2355   -7.5330   23.4263 F   0  0  0  0  0  0  0  0  0  0  0  0
  1  2  1  0  0  0  0
  1  5  2  0  0  0  0
  2  6  2  0  0  0  0
  3  8  2  0  0  0  0
  3 15  1  0  0  0  0
  4  9  1  0  0  0  0
  4 15  2  0  0  0  0
  5 17  1  0  0  0  0
  6 19  1  0  0  0  0
  7 10  2  0  0  0  0
  7 18  1  0  0  0  0
  8 21  1  0  0  0  0
  9 21  2  0  0  0  0
 10 22  1  0  0  0  0
 11 12  2  0  0  0  0
 11 23  1  0  0  0  0
 12 24  1  0  0  0  0
 13 20  1  0  0  0  0
 13 22  2  0  0  0  0
 14 24  2  0  0  0  0
 14 25  1  0  0  0  0
 15 26  1  0  0  0  0
 16 26  1  0  0  0  0
 16 27  2  0  0  0  0
 16 28  1  0  0  0  0
 17 19  2  0  0  0  0
 17 33  1  0  0  0  0
 18 20  2  0  0  0  0
 18 34  1  0  0  0  0
 19 49  1  0  0  0  0
 20 35  1  0  0  0  0
 21 85  1  0  0  0  0
 22 86  1  0  0  0  0
 23 25  2  0  0  0  0
 23 85  1  0  0  0  0
 24 87  1  0  0  0  0
 25 88  1  0  0  0  0
 26 67  2  0  0  0  0
 27 68  1  0  0  0  0
 27 72  1  0  0  0  0
 28 73  1  0  0  0  0
 28 80  2  0  0  0  0
 29 50  1  0  0  0  0
 29 74  1  0  0  0  0
 29 81  2  0  0  0  0
 30 64  1  0  0  0  0
 30 69  1  0  0  0  0
 30 82  2  0  0  0  0
 31 65  1  0  0  0  0
 31 75  1  0  0  0  0
 31 83  2  0  0  0  0
 32 70  1  0  0  0  0
 32 76  1  0  0  0  0
 32 84  2  0  0  0  0
 33 36  1  0  0  0  0
 34 50  1  0  0  0  0
 35 69  1  0  0  0  0
 36 38  1  0  0  0  0
 37 40  1  0  0  0  0
 37 43  1  0  0  0  0
 38 49  1  0  0  0  0
 39 41  1  0  0  0  0
 39 51  1  0  0  0  0
 40 52  1  0  0  0  0
 41 54  1  0  0  0  0
 42 44  1  0  0  0  0
 42 55  1  0  0  0  0
 43 70  1  0  0  0  0
 44 71  1  0  0  0  0
 45 52  1  0  0  0  0
 45 70  1  0  0  0  0
 46 55  1  0  0  0  0
 46 71  1  0  0  0  0
 47 53  1  0  0  0  0
 47 77  1  0  0  0  0
 48 53  1  0  0  0  0
 48 77  1  0  0  0  0
 49 74  1  0  0  0  0
 50 69  1  0  0  0  0
 51 54  1  0  0  0  0
 51 61  1  0  0  0  0
 52 68  1  0  0  0  0
 53 76  1  0  0  0  0
 54 78  1  0  0  0  0
 55 78  1  0  0  0  0
 56 65  1  0  0  0  0
 57 66  1  0  0  0  0
 58 66  1  0  0  0  0
 59 66  1  0  0  0  0
 60 79  1  0  0  0  0
 61 77  1  0  0  0  0
 62 63  1  0  0  0  0
 62 71  1  0  0  0  0
 63 86  1  0  0  0  0
 64 66  1  0  0  0  0
 64 75  1  0  0  0  0
 65 79  1  0  0  0  0
 67 68  1  0  0  0  0
M  CHG  3  77   1  78   1  79   1
M  ISO  4  32 100  63 101  76 100  86 101
M  END
> <Batch ID>
0195

> <Smiles>
CNC(C)C(=O)NC(C(=O)N1Cc2cc([101O:1][101CH2:1]CN3CCC(NC4CCC4CN4CC([100NH:0][100C:0](=O)N5CCCC(n6nc(-c7ccc(Oc8ccc(F)cc8F)cc7)c(C(N)=O)c6N)C5)C4)C3)ccc2CC1C(=O)NC1CCCc2ccccc21)C(C)(C)C

> <Shape>
0.260

> <Color>
0.111

> <Negative vol penalty>
0.000

$$$$

  -OEChem-04052323373D

 93103  0     1  0  0  0  0  0999 V2000
  -33.6607  -26.2202   19.6473 C   0  0  0  0  0  0  0  0  0  0  0  0
  -32.4181  -25.6308   19.8566 C   0  0  0  0  0  0  0  0  0  0  0  0
  -22.9613  -15.9720   21.8761 C   0  0  0  0  0  0  0  0  0  0  0  0
  -22.2283  -15.2398   19.6935 C   0  0  0  0  0  0  0  0  0  0  0  0
  -33.9260  -27.4874   20.1648 C   0  0  0  0  0  0  0  0  0  0  0  0
  -31.4402  -26.3079   20.5845 C   0  0  0  0  0  0  0  0  0  0  0  0
  -26.8774  -26.0663   18.4011 C   0  0  0  0  0  0  0  0  0  0  0  0
  -21.8813  -16.8521   21.9436 C   0  0  0  0  0  0  0  0  0  0  0  0
  -21.1483  -16.1199   19.7610 C   0  0  0  0  0  0  0  0  0  0  0  0
  -26.1602  -24.8806   18.5543 C   0  0  0  0  0  0  0  0  0  0  0  0
  -20.5996  -19.4281   19.3304 C   0  0  0  0  0  0  0  0  0  0  0  0
  -20.3189  -20.1973   18.2012 C   0  0  0  0  0  0  0  0  0  0  0  0
  -24.8576  -25.9024   20.3089 C   0  0  0  0  0  0  0  0  0  0  0  0
  -18.1202  -19.2044   18.0714 C   0  0  0  0  0  0  0  0  0  0  0  0
  -27.0429  -20.4481   22.2846 C   0  0  0  0  0  0  0  0  0  0  0  0
  -23.1349  -15.1659   20.7510 C   0  0  0  0  0  0  0  0  0  0  0  0
  -24.2862  -12.9191   21.1171 C   0  0  0  0  0  0  0  0  0  0  0  0
  -32.9476  -28.1844   20.8911 C   0  0  0  0  0  0  0  0  0  0  0  0
  -26.5969  -27.1773   19.2094 C   0  0  0  0  0  0  0  0  0  0  0  0
  -31.6931  -27.5851   21.1133 C   0  0  0  0  0  0  0  0  0  0  0  0
  -25.5710  -27.1018   20.1622 C   0  0  0  0  0  0  0  0  0  0  0  0
  -20.9748  -16.9260   20.8861 C   0  0  0  0  0  0  0  0  0  0  0  0
  -25.1521  -24.7976   19.5103 C   0  0  0  0  0  0  0  0  0  0  0  0
  -19.6407  -18.5470   19.8301 C   0  0  0  0  0  0  0  0  0  0  0  0
  -19.0792  -20.0855   17.5717 C   0  0  0  0  0  0  0  0  0  0  0  0
  -18.4010  -18.4351   19.2006 C   0  0  0  0  0  0  0  0  0  0  0  0
  -24.2507  -14.2570   20.6804 C   0  0  0  0  0  0  0  0  0  0  0  0
  -28.2664  -20.1374   21.7270 C   0  0  0  0  0  0  0  0  0  0  0  0
  -26.1038  -20.9630   21.4146 C   0  0  0  0  0  0  0  0  0  0  0  0
  -25.5614  -12.4978   20.8293 C   0  0  0  0  0  0  0  0  0  0  0  0
  -27.5620  -20.8210   19.6767 C   0  0  0  0  0  0  0  0  0  0  0  0
  -23.2585  -12.1280   21.7282 C   0  0  0  0  0  0  0  0  0  0  0  0
  -28.2368  -28.8714   21.3413 C   0  0  0  0  0  0  0  0  0  0  0  0
  -25.5953  -30.7538   21.2983 C   0  0  0  0  0  0  0  0  0  0  0  0
  -22.2502  -31.0384   20.6854 C   0  0  0  0  0  0  0  0  0  0  0  0
  -30.7326  -15.4235   20.1280 C   0  0  0  0  0  0  0  0  0  0  0  0
  -33.2968  -29.5321   21.4713 C   0  0  0  0  0  0  0  0  0  0  0  0
  -27.3617  -28.4576   19.0134 C   0  0  0  0  0  0  0  0  0  0  0  0
  -25.2172  -28.2726   21.0411 C   0  0  0  0  0  0  0  0  0  0  0  0
  -32.0787  -30.3398   21.9115 C   0  0  0  0  0  0  0  0  0  0  0  0
  -29.1784  -13.2507   17.8170 C   0  0  0  0  0  0  0  0  0  0  0  0
  -31.1228  -29.4673   22.7188 C   0  0  0  0  0  0  0  0  0  0  0  0
  -27.7337  -13.1578   18.3002 C   0  0  0  0  0  0  0  0  0  0  0  0
  -31.3730  -18.0185   22.6881 C   0  0  0  0  0  0  0  0  0  0  0  0
  -22.4274  -21.6741   21.8352 C   0  0  0  0  0  0  0  0  0  0  0  0
  -22.5446  -23.9583   21.1248 C   0  0  0  0  0  0  0  0  0  0  0  0
  -29.7226  -14.6601   18.0075 C   0  0  0  0  0  0  0  0  0  0  0  0
  -31.8205  -16.8310   21.8501 C   0  0  0  0  0  0  0  0  0  0  0  0
  -29.5745  -17.4225   21.2458 C   0  0  0  0  0  0  0  0  0  0  0  0
  -28.2260  -15.0377   19.9484 C   0  0  0  0  0  0  0  0  0  0  0  0
  -30.5981  -28.2983   21.8765 C   0  0  1  0  0  0  0  0  0  0  0  0
  -27.3378  -29.3620   20.2418 C   0  0  1  0  0  0  0  0  0  0  0  0
  -30.2821  -18.6490   21.8217 C   0  0  1  0  0  0  0  0  0  0  0  0
  -27.6185  -13.6327   19.7570 C   0  0  1  0  0  0  0  0  0  0  0  0
  -23.7814  -21.8362   21.1505 C   0  0  1  0  0  0  0  0  0  0  0  0
  -21.6118  -22.7541   21.1457 C   0  0  2  0  0  0  0  0  0  0  0  0
  -23.9464  -23.3523   20.9641 C   0  0  1  0  0  0  0  0  0  1  0  0
  -20.3641  -32.6911   20.7782 C   0  0  0  0  0  0  0  0  0  0  0  0
  -25.4860  -30.4549   24.3329 C   0  0  0  0  0  0  0  0  0  0  0  0
  -23.1271  -31.2904   24.2604 C   0  0  0  0  0  0  0  0  0  0  0  0
  -24.9924  -32.7582   23.4931 C   0  0  0  0  0  0  0  0  0  0  0  0
  -21.7646  -30.8234   17.7738 C   0  0  0  0  0  0  0  0  0  0  0  0
  -27.5064  -20.2478   15.8885 C   0  0  0  0  0  0  0  0  0  0  0  0
  -27.5408  -18.6024   17.7572 C   0  0  0  0  0  0  0  0  0  0  0  0
  -29.3573  -19.5693   22.5983 C   0  0  0  0  0  0  0  0  0  0  0  0
  -27.8502  -21.0278   18.2284 C   0  0  0  0  0  0  0  0  0  0  0  0
  -24.2962  -30.7906   22.0663 C   0  0  1  0  0  0  0  0  0  0  0  0
  -21.4520  -32.0736   19.9135 C   0  0  2  0  0  0  0  0  0  0  0  0
  -24.4831  -31.3007   23.5231 C   0  0  0  0  0  0  0  0  0  0  0  0
  -25.4111  -14.6590   20.1553 N   0  0  0  0  0  0  0  0  0  0  0  0
  -28.5613  -20.3116   20.4220 N   0  0  0  0  0  0  0  0  0  0  0  0
  -26.3303  -21.1636   20.0997 N   0  0  0  0  0  0  0  0  0  0  0  0
  -26.1879  -13.5673   20.2602 N   0  0  0  0  0  0  0  0  0  0  0  0
  -25.9977  -29.5004   20.8157 N   0  0  0  0  0  0  0  0  0  0  0  0
  -29.5832  -15.1144   19.3924 N   0  0  0  0  0  0  0  0  0  0  0  0
  -30.6423  -16.4321   21.0865 N   0  0  0  0  0  0  0  0  0  0  0  0
  -26.1968  -11.3205   21.0100 N   0  0  0  0  0  0  0  0  0  0  0  0
  -22.0064  -12.7166   21.9521 N   0  0  0  0  0  0  0  0  0  0  0  0
  -24.8340  -21.2951   21.9475 N   0  0  0  0  0  0  0  0  0  0  0  0
  -29.5630  -28.7515   20.9722 N   0  0  0  0  0  0  0  0  0  0  0  0
  -23.3723  -31.5888   21.2676 N   0  0  0  0  0  0  0  0  0  0  0  0
  -20.3735  -23.0472   21.8881 N   0  3  0  0  0  0  0  0  0  0  0  0
  -20.8085  -31.4493   18.7230 N   0  3  0  0  0  0  0  0  0  0  0  0
  -27.2080  -20.0138   17.3470 N   0  3  0  0  0  0  0  0  0  0  0  0
  -23.4499  -10.9394   22.0807 O   0  0  0  0  0  0  0  0  0  0  0  0
  -27.7625  -28.6217   22.4433 O   0  0  0  0  0  0  0  0  0  0  0  0
  -26.2262  -31.7998   21.1266 O   0  0  0  0  0  0  0  0  0  0  0  0
  -21.9100  -29.8602   20.7670 O   0  0  0  0  0  0  0  0  0  0  0  0
  -31.8090  -14.8515   19.9092 O   0  0  0  0  0  0  0  0  0  0  0  0
  -19.9206  -17.7846   20.9517 O   0  0  0  0  0  0  0  0  0  0  0  0
  -24.4458  -23.6328   19.6635 O   0  0  0  0  0  0  0  0  0  1  0  0
  -18.8092  -20.8253   16.4883 F   0  0  0  0  0  0  0  0  0  0  0  0
  -17.4753  -17.5912   19.6767 F   0  0  0  0  0  0  0  0  0  0  0  0
  1  2  1  0  0  0  0
  1  5  2  0  0  0  0
  2  6  2  0  0  0  0
  3  8  2  0  0  0  0
  3 16  1  0  0  0  0
  4  9  1  0  0  0  0
  4 16  2  0  0  0  0
  5 18  1  0  0  0  0
  6 20  1  0  0  0  0
  7 10  2  0  0  0  0
  7 19  1  0  0  0  0
  8 22  1  0  0  0  0
  9 22  2  0  0  0  0
 10 23  1  0  0  0  0
 11 12  2  0  0  0  0
 11 24  1  0  0  0  0
 12 25  1  0  0  0  0
 13 21  1  0  0  0  0
 13 23  2  0  0  0  0
 14 25  2  0  0  0  0
 14 26  1  0  0  0  0
 15 28  2  0  0  0  0
 15 29  1  0  0  0  0
 16 27  1  0  0  0  0
 17 27  1  0  0  0  0
 17 30  2  0  0  0  0
 17 32  1  0  0  0  0
 18 20  2  0  0  0  0
 18 37  1  0  0  0  0
 19 21  2  0  0  0  0
 19 38  1  0  0  0  0
 20 51  1  0  0  0  0
 21 39  1  0  0  0  0
 22 90  1  0  0  0  0
 23 91  1  0  0  0  0
 24 26  2  0  0  0  0
 24 90  1  0  0  0  0
 25 92  1  0  0  0  0
 26 93  1  0  0  0  0
 27 70  2  0  0  0  0
 28 65  1  0  0  0  0
 28 71  1  0  0  0  0
 29 72  2  0  0  0  0
 29 79  1  0  0  0  0
 30 73  1  0  0  0  0
 30 77  1  0  0  0  0
 31 66  1  0  0  0  0
 31 71  2  0  0  0  0
 31 72  1  0  0  0  0
 32 78  1  0  0  0  0
 32 85  2  0  0  0  0
 33 52  1  0  0  0  0
 33 80  1  0  0  0  0
 33 86  2  0  0  0  0
 34 67  1  0  0  0  0
 34 74  1  0  0  0  0
 34 87  2  0  0  0  0
 35 68  1  0  0  0  0
 35 81  1  0  0  0  0
 35 88  2  0  0  0  0
 36 75  1  0  0  0  0
 36 76  1  0  0  0  0
 36 89  2  0  0  0  0
 37 40  1  0  0  0  0
 38 52  1  0  0  0  0
 39 74  1  0  0  0  0
 40 42  1  0  0  0  0
 41 43  1  0  0  0  0
 41 47  1  0  0  0  0
 42 51  1  0  0  0  0
 43 54  1  0  0  0  0
 44 48  1  0  0  0  0
 44 53  1  0  0  0  0
 45 55  1  0  0  0  0
 45 56  1  0  0  0  0
 46 56  1  0  0  0  0
 46 57  1  0  0  0  0
 47 75  1  0  0  0  0
 48 76  1  0  0  0  0
 49 53  1  0  0  0  0
 49 76  1  0  0  0  0
 50 54  1  0  0  0  0
 50 75  1  0  0  0  0
 51 80  1  0  0  0  0
 52 74  1  0  0  0  0
 53 65  1  0  0  0  0
 54 73  1  0  0  0  0
 55 57  1  0  0  0  0
 55 79  1  0  0  0  0
 56 82  1  0  0  0  0
 57 91  1  0  0  0  0
 58 68  1  0  0  0  0
 59 69  1  0  0  0  0
 60 69  1  0  0  0  0
 61 69  1  0  0  0  0
 62 83  1  0  0  0  0
 63 84  1  0  0  0  0
 64 84  1  0  0  0  0
 66 84  1  0  0  0  0
 67 69  1  0  0  0  0
 67 81  1  0  0  0  0
 68 83  1  0  0  0  0
 70 73  1  0  0  0  0
M  CHG  3  82   1  83   1  84   1
M  ISO  4  36 100  57 101  76 100  91 101
M  END
> <Batch ID>
0195

> <Smiles>
CNC(C)C(=O)NC(C(=O)N1Cc2cc([101O:1][101CH:1]3CC(N)CC3Nc3cc(CC4CC[100N:0]([100C:0](=O)N5CCCC(n6nc(-c7ccc(Oc8ccc(F)cc8F)cc7)c(C(N)=O)c6N)C5)C4)nc(CN(C)C)n3)ccc2CC1C(=O)NC1CCCc2ccccc21)C(C)(C)C

> <Shape>
0.236

> <Color>
0.091

> <Negative vol penalty>
0.000

$$$$

  -OEChem-04052323373D

 84 93  0     1  0  0  0  0  0999 V2000
  -29.5580  -36.3729   22.2819 C   0  0  0  0  0  0  0  0  0  0  0  0
  -29.6897  -35.1450   21.6414 C   0  0  0  0  0  0  0  0  0  0  0  0
  -24.6458   -8.8328   21.7637 C   0  0  0  0  0  0  0  0  0  0  0  0
  -23.0135  -10.3471   20.8259 C   0  0  0  0  0  0  0  0  0  0  0  0
  -28.7658  -36.4806   23.4242 C   0  0  0  0  0  0  0  0  0  0  0  0
  -29.0301  -34.0237   22.1434 C   0  0  0  0  0  0  0  0  0  0  0  0
  -26.6273  -29.4112   18.9097 C   0  0  0  0  0  0  0  0  0  0  0  0
  -23.6483   -8.2341   22.5332 C   0  0  0  0  0  0  0  0  0  0  0  0
  -22.0160   -9.7483   21.5953 C   0  0  0  0  0  0  0  0  0  0  0  0
  -27.1015  -28.1379   18.5970 C   0  0  0  0  0  0  0  0  0  0  0  0
  -21.1626   -5.9875   22.0781 C   0  0  0  0  0  0  0  0  0  0  0  0
  -21.1314   -4.5940   22.1283 C   0  0  0  0  0  0  0  0  0  0  0  0
  -25.8733  -27.2287   20.4636 C   0  0  0  0  0  0  0  0  0  0  0  0
  -21.4341   -4.6734   24.5240 C   0  0  0  0  0  0  0  0  0  0  0  0
  -29.6449  -22.4472   18.4273 C   0  0  0  0  0  0  0  0  0  0  0  0
  -24.3284   -9.8894   20.9101 C   0  0  0  0  0  0  0  0  0  0  0  0
  -25.7657  -10.1444   18.8180 C   0  0  0  0  0  0  0  0  0  0  0  0
  -28.0884  -35.3621   23.9349 C   0  0  0  0  0  0  0  0  0  0  0  0
  -25.7798  -29.6047   20.0100 C   0  0  0  0  0  0  0  0  0  0  0  0
  -28.2292  -34.1162   23.2943 C   0  0  0  0  0  0  0  0  0  0  0  0
  -25.3876  -28.5051   20.7865 C   0  0  0  0  0  0  0  0  0  0  0  0
  -29.0996  -21.6688   17.4267 C   0  0  0  0  0  0  0  0  0  0  0  0
  -22.3334   -8.6918   22.4490 C   0  0  0  0  0  0  0  0  0  0  0  0
  -26.7268  -27.0469   19.3757 C   0  0  0  0  0  0  0  0  0  0  0  0
  -21.3297   -6.7241   23.2509 C   0  0  0  0  0  0  0  0  0  0  0  0
  -21.2671   -3.9369   23.3512 C   0  0  0  0  0  0  0  0  0  0  0  0
  -21.4654   -6.0670   24.4738 C   0  0  0  0  0  0  0  0  0  0  0  0
  -25.3585  -10.5087   20.1154 C   0  0  0  0  0  0  0  0  0  0  0  0
  -28.1869  -22.3021   16.6081 C   0  0  0  0  0  0  0  0  0  0  0  0
  -26.7662  -11.0335   18.5099 C   0  0  0  0  0  0  0  0  0  0  0  0
  -28.4285  -24.2474   17.7589 C   0  0  0  0  0  0  0  0  0  0  0  0
  -25.2826   -9.0962   17.9674 C   0  0  0  0  0  0  0  0  0  0  0  0
  -25.9653  -31.2527   22.7218 C   0  0  0  0  0  0  0  0  0  0  0  0
  -22.8854  -30.2926   23.0608 C   0  0  0  0  0  0  0  0  0  0  0  0
  -20.4514  -28.0339   22.2729 C   0  0  0  0  0  0  0  0  0  0  0  0
  -28.5127  -16.2623   18.3274 C   0  0  0  0  0  0  0  0  0  0  0  0
  -27.2814  -35.5172   25.1995 C   0  0  0  0  0  0  0  0  0  0  0  0
  -25.2555  -30.9805   20.3180 C   0  0  0  0  0  0  0  0  0  0  0  0
  -24.4635  -28.6565   21.9662 C   0  0  0  0  0  0  0  0  0  0  0  0
  -26.3156  -34.3621   25.4513 C   0  0  0  0  0  0  0  0  0  0  0  0
  -29.2640  -14.3285   21.3892 C   0  0  0  0  0  0  0  0  0  0  0  0
  -27.0168  -33.0241   25.2394 C   0  0  0  0  0  0  0  0  0  0  0  0
  -28.2943  -13.1604   21.2412 C   0  0  0  0  0  0  0  0  0  0  0  0
  -28.6996  -15.6228   20.8044 C   0  0  0  0  0  0  0  0  0  0  0  0
  -27.2855  -14.3179   19.2383 C   0  0  0  0  0  0  0  0  0  0  0  0
  -30.3873  -19.6032   18.0637 C   0  0  0  0  0  0  0  0  0  0  0  0
  -28.5801  -19.2352   17.0547 C   0  0  0  0  0  0  0  0  0  0  0  0
  -27.5096  -32.8823   23.7942 C   0  0  1  0  0  0  0  0  0  0  0  0
  -24.8096  -31.1391   21.7683 C   0  0  1  0  0  0  0  0  0  0  0  0
  -27.8614  -12.9995   19.7764 C   0  0  2  0  0  0  0  0  0  0  0  0
  -29.7148  -18.3245   17.5445 C   0  0  0  0  0  0  0  0  0  0  0  0
  -26.8122  -22.4966   14.5202 C   0  0  0  0  0  0  0  0  0  0  0  0
  -18.0451  -27.4902   22.7328 C   0  0  0  0  0  0  0  0  0  0  0  0
  -23.6586  -29.2019   25.8035 C   0  0  0  0  0  0  0  0  0  0  0  0
  -21.5374  -27.8719   25.7954 C   0  0  0  0  0  0  0  0  0  0  0  0
  -21.4453  -30.3639   25.7289 C   0  0  0  0  0  0  0  0  0  0  0  0
  -19.7174  -28.3373   19.4219 C   0  0  0  0  0  0  0  0  0  0  0  0
  -27.5308  -21.5620   15.4886 C   0  0  0  0  0  0  0  0  0  0  0  0
  -28.0539  -25.6885   17.9441 C   0  0  0  0  0  0  0  0  0  1  0  0
  -22.2000  -29.0963   23.6757 C   0  0  1  0  0  0  0  0  0  0  0  0
  -19.0155  -28.2187   21.8161 C   0  0  2  0  0  0  0  0  0  0  0  0
  -22.2293  -29.1306   25.2299 C   0  0  0  0  0  0  0  0  0  0  0  0
  -29.3308  -23.7447   18.6229 N   0  0  0  0  0  0  0  0  0  0  0  0
  -26.0445  -11.5480   20.5984 N   0  0  0  0  0  0  0  0  0  0  0  0
  -27.8266  -23.5949   16.7462 N   0  0  0  0  0  0  0  0  0  0  0  0
  -26.8928  -11.8444   19.5991 N   0  0  0  0  0  0  0  0  0  0  0  0
  -29.4615  -20.3255   17.2683 N   0  0  0  0  0  0  0  0  0  0  0  0
  -23.9827  -30.0226   22.2307 N   0  0  0  0  0  0  0  0  0  0  0  0
  -28.2202  -15.4344   19.4260 N   0  0  0  0  0  0  0  0  0  0  0  0
  -27.5414  -11.1928   17.4161 N   0  0  0  0  0  0  0  0  0  0  0  0
  -24.2501   -8.2746   18.4400 N   0  0  0  0  0  0  0  0  0  0  0  0
  -26.4096  -32.5467   22.9157 N   0  0  0  0  0  0  0  0  0  0  0  0
  -20.8584  -29.0560   23.1041 N   0  0  0  0  0  0  0  0  0  0  0  0
  -29.3264  -17.3594   18.5932 N   0  0  0  0  0  0  0  0  0  0  0  0
  -18.8403  -27.6925   20.4328 N   0  3  0  0  0  0  0  0  0  0  0  0
  -25.7639   -8.8836   16.8287 O   0  0  0  0  0  0  0  0  0  0  0  0
  -26.4193  -30.2413   23.2440 O   0  0  0  0  0  0  0  0  0  0  0  0
  -22.4584  -31.4244   23.3021 O   0  0  0  0  0  0  0  0  0  0  0  0
  -21.1416  -27.0766   21.9299 O   0  0  0  0  0  0  0  0  0  0  0  0
  -28.0776  -16.0494   17.1906 O   0  0  0  0  0  0  0  0  0  0  0  0
  -21.3597   -8.1076   23.1995 O   0  0  0  0  0  0  0  0  0  0  0  0
  -27.1888  -25.8032   19.0732 O   0  0  0  0  0  0  0  0  0  1  0  0
  -21.2355   -2.5987   23.3994 F   0  0  0  0  0  0  0  0  0  0  0  0
  -21.6250   -6.7693   25.6039 F   0  0  0  0  0  0  0  0  0  0  0  0
  1  2  1  0  0  0  0
  1  5  2  0  0  0  0
  2  6  2  0  0  0  0
  3  8  2  0  0  0  0
  3 16  1  0  0  0  0
  4  9  1  0  0  0  0
  4 16  2  0  0  0  0
  5 18  1  0  0  0  0
  6 20  1  0  0  0  0
  7 10  2  0  0  0  0
  7 19  1  0  0  0  0
  8 23  1  0  0  0  0
  9 23  2  0  0  0  0
 10 24  1  0  0  0  0
 11 12  2  0  0  0  0
 11 25  1  0  0  0  0
 12 26  1  0  0  0  0
 13 21  1  0  0  0  0
 13 24  2  0  0  0  0
 14 26  2  0  0  0  0
 14 27  1  0  0  0  0
 15 22  1  0  0  0  0
 15 63  2  0  0  0  0
 16 28  1  0  0  0  0
 17 28  1  0  0  0  0
 17 30  2  0  0  0  0
 17 32  1  0  0  0  0
 18 20  2  0  0  0  0
 18 37  1  0  0  0  0
 19 21  2  0  0  0  0
 19 38  1  0  0  0  0
 20 48  1  0  0  0  0
 21 39  1  0  0  0  0
 22 29  2  0  0  0  0
 22 67  1  0  0  0  0
 23 81  1  0  0  0  0
 24 82  1  0  0  0  0
 25 27  2  0  0  0  0
 25 81  1  0  0  0  0
 26 83  1  0  0  0  0
 27 84  1  0  0  0  0
 28 64  2  0  0  0  0
 29 58  1  0  0  0  0
 29 65  1  0  0  0  0
 30 66  1  0  0  0  0
 30 70  1  0  0  0  0
 31 59  1  0  0  0  0
 31 63  1  0  0  0  0
 31 65  2  0  0  0  0
 32 71  1  0  0  0  0
 32 76  2  0  0  0  0
 33 49  1  0  0  0  0
 33 72  1  0  0  0  0
 33 77  2  0  0  0  0
 34 60  1  0  0  0  0
 34 68  1  0  0  0  0
 34 78  2  0  0  0  0
 35 61  1  0  0  0  0
 35 73  1  0  0  0  0
 35 79  2  0  0  0  0
 36 69  1  0  0  0  0
 36 74  1  0  0  0  0
 36 80  2  0  0  0  0
 37 40  1  0  0  0  0
 38 49  1  0  0  0  0
 39 68  1  0  0  0  0
 40 42  1  0  0  0  0
 41 43  1  0  0  0  0
 41 44  1  0  0  0  0
 42 48  1  0  0  0  0
 43 50  1  0  0  0  0
 44 69  1  0  0  0  0
 45 50  1  0  0  0  0
 45 69  1  0  0  0  0
 46 51  1  0  0  0  0
 46 67  1  0  0  0  0
 47 51  1  0  0  0  0
 47 67  1  0  0  0  0
 48 72  1  0  0  0  0
 49 68  1  0  0  0  0
 50 66  1  0  0  0  0
 51 74  1  0  0  0  0
 52 58  1  0  0  0  0
 53 61  1  0  0  0  0
 54 62  1  0  0  0  0
 55 62  1  0  0  0  0
 56 62  1  0  0  0  0
 57 75  1  0  0  0  0
 59 82  1  0  0  0  0
 60 62  1  0  0  0  0
 60 73  1  0  0  0  0
 61 75  1  0  0  0  0
 64 66  1  0  0  0  0
M  CHG  1  75   1
M  ISO  4  36 100  59 101  74 100  82 101
M  END
> <Batch ID>
0195

> <Smiles>
CCc1nc([101CH2:1][101O:1]c2ccc3c(c2)CN(C(=O)C(NC(=O)C(C)NC)C(C)(C)C)C(C(=O)NC2CCCc4ccccc42)C3)ncc1N1CC([100NH:0][100C:0](=O)N2CCCC(n3nc(-c4ccc(Oc5ccc(F)cc5F)cc4)c(C(N)=O)c3N)C2)C1

> <Shape>
0.300

> <Color>
0.101

> <Negative vol penalty>
0.000

$$$$
