
  -OEChem-04052323393D

 88 98  0     1  0  0  0  0  0999 V2000
  -30.5659  -32.8475   24.4590 C   0  0  0  0  0  0  0  0  0  0  0  0
  -29.7038  -31.9599   23.8231 C   0  0  0  0  0  0  0  0  0  0  0  0
  -22.7668  -10.1632   20.5964 C   0  0  0  0  0  0  0  0  0  0  0  0
  -24.4237   -9.1904   22.0611 C   0  0  0  0  0  0  0  0  0  0  0  0
  -30.0553  -33.8152   25.3232 C   0  0  0  0  0  0  0  0  0  0  0  0
  -28.3306  -32.0388   24.0519 C   0  0  0  0  0  0  0  0  0  0  0  0
  -25.6268  -31.6885   19.7843 C   0  0  0  0  0  0  0  0  0  0  0  0
  -22.1208   -8.9301   20.5081 C   0  0  0  0  0  0  0  0  0  0  0  0
  -23.7777   -7.9573   21.9729 C   0  0  0  0  0  0  0  0  0  0  0  0
  -25.4559  -30.4158   19.2415 C   0  0  0  0  0  0  0  0  0  0  0  0
  -21.0606   -6.4684   23.3224 C   0  0  0  0  0  0  0  0  0  0  0  0
  -20.8690   -5.7528   24.5042 C   0  0  0  0  0  0  0  0  0  0  0  0
  -23.2499  -30.3049   20.2111 C   0  0  0  0  0  0  0  0  0  0  0  0
  -22.1685   -3.9240   23.6076 C   0  0  0  0  0  0  0  0  0  0  0  0
  -27.4800  -23.4712   20.0535 C   0  0  0  0  0  0  0  0  0  0  0  0
  -23.9182  -10.2934   21.3728 C   0  0  0  0  0  0  0  0  0  0  0  0
  -24.3505  -12.5849   22.4072 C   0  0  0  0  0  0  0  0  0  0  0  0
  -28.6742  -33.9122   25.5552 C   0  0  0  0  0  0  0  0  0  0  0  0
  -24.6130  -32.2756   20.5551 C   0  0  0  0  0  0  0  0  0  0  0  0
  -27.8011  -33.0078   24.9210 C   0  0  0  0  0  0  0  0  0  0  0  0
  -23.4093  -31.5863   20.7605 C   0  0  0  0  0  0  0  0  0  0  0  0
  -26.8289  -22.4024   19.4719 C   0  0  0  0  0  0  0  0  0  0  0  0
  -22.6262   -7.8272   21.1963 C   0  0  0  0  0  0  0  0  0  0  0  0
  -24.2685  -29.7226   19.4572 C   0  0  0  0  0  0  0  0  0  0  0  0
  -21.8061   -5.9118   22.2830 C   0  0  0  0  0  0  0  0  0  0  0  0
  -21.4230   -4.4807   24.6469 C   0  0  0  0  0  0  0  0  0  0  0  0
  -22.3601   -4.6396   22.4257 C   0  0  0  0  0  0  0  0  0  0  0  0
  -24.5863  -11.5667   21.4640 C   0  0  0  0  0  0  0  0  0  0  0  0
  -25.5405  -22.6493   19.0439 C   0  0  0  0  0  0  0  0  0  0  0  0
  -25.2354  -13.5790   22.0678 C   0  0  0  0  0  0  0  0  0  0  0  0
  -25.6647  -24.8057   19.7521 C   0  0  0  0  0  0  0  0  0  0  0  0
  -23.4152  -12.6281   23.4931 C   0  0  0  0  0  0  0  0  0  0  0  0
  -24.3739  -33.2695   23.5648 C   0  0  0  0  0  0  0  0  0  0  0  0
  -21.4838  -34.3532   22.5674 C   0  0  0  0  0  0  0  0  0  0  0  0
  -18.9023  -34.0995   20.3496 C   0  0  0  0  0  0  0  0  0  0  0  0
  -27.4445  -16.7843   18.1694 C   0  0  0  0  0  0  0  0  0  0  0  0
  -28.1733  -34.9442   26.5344 C   0  0  0  0  0  0  0  0  0  0  0  0
  -24.8024  -33.6602   21.1113 C   0  0  0  0  0  0  0  0  0  0  0  0
  -22.2822  -32.1806   21.5635 C   0  0  0  0  0  0  0  0  0  0  0  0
  -26.6721  -35.2021   26.4328 C   0  0  0  0  0  0  0  0  0  0  0  0
  -29.1374  -13.5833   18.8769 C   0  0  0  0  0  0  0  0  0  0  0  0
  -25.9072  -33.8839   26.3673 C   0  0  0  0  0  0  0  0  0  0  0  0
  -24.9047  -21.3151   16.9250 C   0  0  0  0  0  0  0  0  0  0  0  0
  -23.6407  -21.9200   17.4510 C   0  0  0  0  0  0  0  0  0  0  0  0
  -28.0506  -12.8411   19.6489 C   0  0  0  0  0  0  0  0  0  0  0  0
  -29.7844  -19.4311   16.7206 C   0  0  0  0  0  0  0  0  0  0  0  0
  -28.5535  -14.4995   17.8023 C   0  0  0  0  0  0  0  0  0  0  0  0
  -26.4524  -14.7169   19.0993 C   0  0  0  0  0  0  0  0  0  0  0  0
  -26.3031  -33.0776   25.1244 C   0  0  1  0  0  0  0  0  0  0  0  0
  -24.7488  -21.5566   18.4021 C   0  0  0  0  0  0  0  0  0  0  0  0
  -23.9048  -33.9504   22.3103 C   0  0  1  0  0  0  0  0  0  0  0  0
  -27.0187  -13.8275   20.2168 C   0  0  1  0  0  0  0  0  0  0  0  0
  -28.4920  -18.7574   17.1009 C   0  0  2  0  0  0  0  0  0  0  0  0
  -29.1548  -19.7186   18.0524 C   0  0  2  0  0  0  0  0  0  0  0  0
  -16.6627  -35.0954   19.8113 C   0  0  0  0  0  0  0  0  0  0  0  0
  -20.2450  -32.8205   24.8968 C   0  0  0  0  0  0  0  0  0  0  0  0
  -18.0185  -33.0551   23.7762 C   0  0  0  0  0  0  0  0  0  0  0  0
  -19.2676  -35.0885   24.5028 C   0  0  0  0  0  0  0  0  0  0  0  0
  -19.8121  -34.9932   17.6789 C   0  0  0  0  0  0  0  0  0  0  0  0
  -27.4981  -21.0839   19.3291 C   0  0  0  0  0  0  0  0  0  0  0  0
  -23.2590  -27.5777   19.6474 C   0  0  0  0  0  0  0  0  0  1  0  0
  -23.7390  -26.1588   19.4107 C   0  0  0  0  0  0  0  0  0  0  0  0
  -20.0898  -33.7771   22.5038 C   0  0  1  0  0  0  0  0  0  0  0  0
  -18.1590  -35.1502   19.5447 C   0  0  2  0  0  0  0  0  0  0  0  0
  -19.4270  -33.6730   23.9064 C   0  0  0  0  0  0  0  0  0  0  0  0
  -26.9258  -24.6913   20.2101 N   0  0  0  0  0  0  0  0  0  0  0  0
  -25.5457  -11.8849   20.5909 N   0  0  0  0  0  0  0  0  0  0  0  0
  -24.9249  -23.8434   19.1688 N   0  0  0  0  0  0  0  0  0  0  0  0
  -25.9205  -13.1141   20.9840 N   0  0  0  0  0  0  0  0  0  0  0  0
  -22.5179  -33.5344   22.0918 N   0  0  0  0  0  0  0  0  0  0  0  0
  -27.5220  -15.3920   18.3541 N   0  0  0  0  0  0  0  0  0  0  0  0
  -25.4864  -14.7967   22.5937 N   0  0  0  0  0  0  0  0  0  0  0  0
  -22.5808  -11.5213   23.7006 N   0  0  0  0  0  0  0  0  0  0  0  0
  -25.6564  -33.6147   23.9464 N   0  0  0  0  0  0  0  0  0  0  0  0
  -19.3507  -34.6009   21.5533 N   0  0  0  0  0  0  0  0  0  0  0  0
  -28.4434  -17.3477   17.3834 N   0  0  0  0  0  0  0  0  0  0  0  0
  -28.5193  -21.0473   18.2428 N   0  3  0  0  0  0  0  0  0  0  0  0
  -18.3845  -34.9410   18.0865 N   0  3  0  0  0  0  0  0  0  0  0  0
  -23.3108  -13.6255   24.2466 O   0  0  0  0  0  0  0  0  0  0  0  0
  -23.6271  -32.4898   24.1446 O   0  0  0  0  0  0  0  0  0  0  0  0
  -21.6482  -35.4906   23.0157 O   0  0  0  0  0  0  0  0  0  0  0  0
  -19.0655  -32.9480   19.9522 O   0  0  0  0  0  0  0  0  0  0  0  0
  -26.5477  -17.4766   18.6635 O   0  0  0  0  0  0  0  0  0  0  0  0
  -21.9960   -6.6238   21.1106 O   0  0  0  0  0  0  0  0  0  0  0  0
  -24.0994  -28.4799   18.9290 O   0  0  0  0  0  0  0  0  0  1  0  0
  -25.0712  -26.0325   19.8929 O   0  0  0  0  0  0  0  0  0  0  0  0
  -21.2402   -3.7942   25.7825 F   0  0  0  0  0  0  0  0  0  0  0  0
  -23.0782   -4.1002   21.4312 F   0  0  0  0  0  0  0  0  0  0  0  0
  1  2  1  0  0  0  0
  1  5  2  0  0  0  0
  2  6  2  0  0  0  0
  3  8  2  0  0  0  0
  3 16  1  0  0  0  0
  4  9  1  0  0  0  0
  4 16  2  0  0  0  0
  5 18  1  0  0  0  0
  6 20  1  0  0  0  0
  7 10  2  0  0  0  0
  7 19  1  0  0  0  0
  8 23  1  0  0  0  0
  9 23  2  0  0  0  0
 10 24  1  0  0  0  0
 11 12  2  0  0  0  0
 11 25  1  0  0  0  0
 12 26  1  0  0  0  0
 13 21  1  0  0  0  0
 13 24  2  0  0  0  0
 14 26  2  0  0  0  0
 14 27  1  0  0  0  0
 15 22  1  0  0  0  0
 15 66  2  0  0  0  0
 16 28  1  0  0  0  0
 17 28  1  0  0  0  0
 17 30  2  0  0  0  0
 17 32  1  0  0  0  0
 18 20  2  0  0  0  0
 18 37  1  0  0  0  0
 19 21  2  0  0  0  0
 19 38  1  0  0  0  0
 20 49  1  0  0  0  0
 21 39  1  0  0  0  0
 22 29  2  0  0  0  0
 22 60  1  0  0  0  0
 23 84  1  0  0  0  0
 24 85  1  0  0  0  0
 25 27  2  0  0  0  0
 25 84  1  0  0  0  0
 26 87  1  0  0  0  0
 27 88  1  0  0  0  0
 28 67  2  0  0  0  0
 29 50  1  0  0  0  0
 29 68  1  0  0  0  0
 30 69  1  0  0  0  0
 30 72  1  0  0  0  0
 31 66  1  0  0  0  0
 31 68  2  0  0  0  0
 31 86  1  0  0  0  0
 32 73  1  0  0  0  0
 32 79  2  0  0  0  0
 33 51  1  0  0  0  0
 33 74  1  0  0  0  0
 33 80  2  0  0  0  0
 34 63  1  0  0  0  0
 34 70  1  0  0  0  0
 34 81  2  0  0  0  0
 35 64  1  0  0  0  0
 35 75  1  0  0  0  0
 35 82  2  0  0  0  0
 36 71  1  0  0  0  0
 36 76  1  0  0  0  0
 36 83  2  0  0  0  0
 37 40  1  0  0  0  0
 38 51  1  0  0  0  0
 39 70  1  0  0  0  0
 40 42  1  0  0  0  0
 41 45  1  0  0  0  0
 41 47  1  0  0  0  0
 42 49  1  0  0  0  0
 43 44  1  0  0  0  0
 43 50  1  0  0  0  0
 44 50  1  0  0  0  0
 45 52  1  0  0  0  0
 46 53  1  0  0  0  0
 46 54  1  0  0  0  0
 47 71  1  0  0  0  0
 48 52  1  0  0  0  0
 48 71  1  0  0  0  0
 49 74  1  0  0  0  0
 51 70  1  0  0  0  0
 52 69  1  0  0  0  0
 53 54  1  0  0  0  0
 53 76  1  0  0  0  0
 54 77  1  0  0  0  0
 55 64  1  0  0  0  0
 56 65  1  0  0  0  0
 57 65  1  0  0  0  0
 58 65  1  0  0  0  0
 59 78  1  0  0  0  0
 60 77  1  0  0  0  0
 61 62  1  0  0  0  0
 61 85  1  0  0  0  0
 62 86  1  0  0  0  0
 63 65  1  0  0  0  0
 63 75  1  0  0  0  0
 64 78  1  0  0  0  0
 67 69  1  0  0  0  0
M  CHG  2  77   1  78   1
M  ISO  4  36 100  61 101  76 100  85 101
M  END
> <Batch ID>
0196

> <Smiles>
CNC(C)C(=O)NC(C(=O)N1Cc2cc([101O:1][101CH2:1]COc3ncc(CNC4CC4[100NH:0][100C:0](=O)N4CCCC(n5nc(-c6ccc(Oc7ccc(F)cc7F)cc6)c(C(N)=O)c5N)C4)c(C4CC4)n3)ccc2CC1C(=O)NC1CCCc2ccccc21)C(C)(C)C

> <Shape>
0.224

> <Color>
0.109

> <Negative vol penalty>
0.000

$$$$

  -OEChem-04052323393D

 85 94  0     1  0  0  0  0  0999 V2000
  -24.2026  -38.4351   19.1128 C   0  0  0  0  0  0  0  0  0  0  0  0
  -24.4170  -37.2840   18.3617 C   0  0  0  0  0  0  0  0  0  0  0  0
  -22.7027  -11.8309   18.8229 C   0  0  0  0  0  0  0  0  0  0  0  0
  -22.9762   -9.9717   20.3412 C   0  0  0  0  0  0  0  0  0  0  0  0
  -24.6501  -38.4989   20.4317 C   0  0  0  0  0  0  0  0  0  0  0  0
  -25.0801  -36.1962   18.9287 C   0  0  0  0  0  0  0  0  0  0  0  0
  -25.2368  -29.0369   18.7409 C   0  0  0  0  0  0  0  0  0  0  0  0
  -21.6140  -11.1890   18.2328 C   0  0  0  0  0  0  0  0  0  0  0  0
  -21.8875   -9.3297   19.7513 C   0  0  0  0  0  0  0  0  0  0  0  0
  -26.1338  -27.9833   18.5703 C   0  0  0  0  0  0  0  0  0  0  0  0
  -18.5159   -9.5194   19.8817 C   0  0  0  0  0  0  0  0  0  0  0  0
  -17.5724   -8.9370   20.7280 C   0  0  0  0  0  0  0  0  0  0  0  0
  -26.7922  -28.1774   20.8828 C   0  0  0  0  0  0  0  0  0  0  0  0
  -18.0110   -6.7798   19.7323 C   0  0  0  0  0  0  0  0  0  0  0  0
  -23.3839  -11.2223   19.8770 C   0  0  0  0  0  0  0  0  0  0  0  0
  -24.4832  -12.7726   21.5787 C   0  0  0  0  0  0  0  0  0  0  0  0
  -25.3105  -37.4079   21.0183 C   0  0  0  0  0  0  0  0  0  0  0  0
  -25.1184  -29.6769   19.9830 C   0  0  0  0  0  0  0  0  0  0  0  0
  -25.5380  -36.2460   20.2563 C   0  0  0  0  0  0  0  0  0  0  0  0
  -25.8911  -29.2372   21.0673 C   0  0  0  0  0  0  0  0  0  0  0  0
  -21.2063   -9.9384   18.6970 C   0  0  0  0  0  0  0  0  0  0  0  0
  -26.9138  -27.5553   19.6406 C   0  0  0  0  0  0  0  0  0  0  0  0
  -19.2069   -8.7321   18.9607 C   0  0  0  0  0  0  0  0  0  0  0  0
  -17.3200   -7.5672   20.6533 C   0  0  0  0  0  0  0  0  0  0  0  0
  -18.9545   -7.3623   18.8860 C   0  0  0  0  0  0  0  0  0  0  0  0
  -24.5090  -11.8847   20.4865 C   0  0  0  0  0  0  0  0  0  0  0  0
  -25.7982  -13.1206   21.7693 C   0  0  0  0  0  0  0  0  0  0  0  0
  -23.3703  -13.2408   22.3518 C   0  0  0  0  0  0  0  0  0  0  0  0
  -25.6076  -32.6352   21.0377 C   0  0  0  0  0  0  0  0  0  0  0  0
  -24.3508  -31.4474   23.7821 C   0  0  0  0  0  0  0  0  0  0  0  0
  -23.7160  -28.7227   25.7365 C   0  0  0  0  0  0  0  0  0  0  0  0
  -30.7438  -14.6624   19.7065 C   0  0  0  0  0  0  0  0  0  0  0  0
  -25.8178  -37.5412   22.4324 C   0  0  0  0  0  0  0  0  0  0  0  0
  -24.1269  -30.7943   20.1577 C   0  0  0  0  0  0  0  0  0  0  0  0
  -25.7872  -29.8775   22.4265 C   0  0  0  0  0  0  0  0  0  0  0  0
  -26.1804  -36.2062   23.0778 C   0  0  0  0  0  0  0  0  0  0  0  0
  -30.0416  -11.2031   19.8407 C   0  0  0  0  0  0  0  0  0  0  0  0
  -27.0152  -35.3603   22.1216 C   0  0  0  0  0  0  0  0  0  0  0  0
  -28.5352  -11.1333   20.0759 C   0  0  0  0  0  0  0  0  0  0  0  0
  -30.4650  -18.3315   19.3096 C   0  0  0  0  0  0  0  0  0  0  0  0
  -28.3627  -22.0231   15.9962 C   0  0  0  0  0  0  0  0  0  0  0  0
  -30.3901  -12.3531   18.9054 C   0  0  0  0  0  0  0  0  0  0  0  0
  -31.2183  -17.0916   19.7655 C   0  0  0  0  0  0  0  0  0  0  0  0
  -28.2624  -23.4033   16.6471 C   0  0  0  0  0  0  0  0  0  0  0  0
  -29.1623  -16.4271   18.7210 C   0  0  0  0  0  0  0  0  0  0  0  0
  -28.4141  -13.6451   19.6640 C   0  0  0  0  0  0  0  0  0  0  0  0
  -28.2771  -21.8468   18.3910 C   0  0  0  0  0  0  0  0  0  0  0  0
  -26.2315  -35.0361   20.8440 C   0  0  1  0  0  0  0  0  0  0  0  0
  -24.4600  -31.7107   21.3310 C   0  0  1  0  0  0  0  0  0  0  0  0
  -29.5843  -17.7936   18.1812 C   0  0  1  0  0  0  0  0  0  0  0  0
  -28.0045  -12.4808   20.5895 C   0  0  1  0  0  0  0  0  0  0  0  0
  -28.0450  -21.0502   17.1227 C   0  0  2  0  0  0  0  0  0  0  0  0
  -22.7092  -28.0711   27.9409 C   0  0  0  0  0  0  0  0  0  0  0  0
  -27.3466  -17.9922   17.0288 C   0  0  0  0  0  0  0  0  0  0  0  0
  -26.8367  -32.4790   25.2196 C   0  0  0  0  0  0  0  0  0  0  0  0
  -26.2437  -31.0057   27.1551 C   0  0  0  0  0  0  0  0  0  0  0  0
  -24.6933  -32.8317   26.4589 C   0  0  0  0  0  0  0  0  0  0  0  0
  -21.6628  -27.0369   24.4321 C   0  0  0  0  0  0  0  0  0  0  0  0
  -28.0629  -24.2052   18.9330 C   0  0  0  0  0  0  0  0  0  0  0  0
  -27.4552  -25.5340   18.5105 C   0  0  0  0  0  0  0  0  0  1  0  0
  -24.9116  -30.7714   25.0099 C   0  0  1  0  0  0  0  0  0  0  0  0
  -22.4576  -28.2691   26.4542 C   0  0  2  0  0  0  0  0  0  0  0  0
  -28.4118  -18.7002   17.8521 C   0  0  2  0  0  0  0  0  0  0  0  0
  -25.6749  -31.7609   25.9349 C   0  0  0  0  0  0  0  0  0  0  0  0
  -25.7425  -11.6814   20.0162 N   0  0  0  0  0  0  0  0  0  0  0  0
  -26.5040  -12.4465   20.8166 N   0  0  0  0  0  0  0  0  0  0  0  0
  -24.8078  -30.9703   22.5455 N   0  0  0  0  0  0  0  0  0  0  0  0
  -29.8566  -13.6280   19.3886 N   0  0  0  0  0  0  0  0  0  0  0  0
  -30.3187  -15.9738   19.4980 N   0  0  0  0  0  0  0  0  0  0  0  0
  -27.7332  -23.1468   17.9907 N   0  0  1  0  0  0  0  0  0  0  0  0
  -26.4079  -13.9344   22.6572 N   0  0  0  0  0  0  0  0  0  0  0  0
  -22.0874  -12.7832   22.0213 N   0  0  0  0  0  0  0  0  0  0  0  0
  -25.2778  -33.9761   21.0914 N   0  0  0  0  0  0  0  0  0  0  0  0
  -23.7891  -30.0971   25.6532 N   0  0  0  0  0  0  0  0  0  0  0  0
  -28.9162  -19.8622   17.0691 N   0  3  0  0  0  0  0  0  0  0  0  0
  -21.9721  -26.9806   25.8841 N   0  3  0  0  0  0  0  0  0  0  0  0
  -23.5074  -14.0541   23.2970 O   0  0  0  0  0  0  0  0  0  0  0  0
  -26.7109  -32.1668   20.7830 O   0  0  0  0  0  0  0  0  0  0  0  0
  -23.5319  -32.3603   23.9152 O   0  0  0  0  0  0  0  0  0  0  0  0
  -24.5524  -27.9366   25.2973 O   0  0  0  0  0  0  0  0  0  0  0  0
  -31.8866  -14.4246   20.1202 O   0  0  0  0  0  0  0  0  0  0  0  0
  -20.1438   -9.3117   18.1217 O   0  0  0  0  0  0  0  0  0  0  0  0
  -27.7969  -26.5202   19.4754 O   0  0  0  0  0  0  0  0  0  1  0  0
  -16.4151   -7.0077   21.4671 F   0  0  0  0  0  0  0  0  0  0  0  0
  -19.6161   -6.6006   18.0040 F   0  0  0  0  0  0  0  0  0  0  0  0
  1  2  1  0  0  0  0
  1  5  2  0  0  0  0
  2  6  2  0  0  0  0
  3  8  2  0  0  0  0
  3 15  1  0  0  0  0
  4  9  1  0  0  0  0
  4 15  2  0  0  0  0
  5 17  1  0  0  0  0
  6 19  1  0  0  0  0
  7 10  2  0  0  0  0
  7 18  1  0  0  0  0
  8 21  1  0  0  0  0
  9 21  2  0  0  0  0
 10 22  1  0  0  0  0
 11 12  2  0  0  0  0
 11 23  1  0  0  0  0
 12 24  1  0  0  0  0
 13 20  1  0  0  0  0
 13 22  2  0  0  0  0
 14 24  2  0  0  0  0
 14 25  1  0  0  0  0
 15 26  1  0  0  0  0
 16 26  1  0  0  0  0
 16 27  2  0  0  0  0
 16 28  1  0  0  0  0
 17 19  2  0  0  0  0
 17 33  1  0  0  0  0
 18 20  2  0  0  0  0
 18 34  1  0  0  0  0
 19 48  1  0  0  0  0
 20 35  1  0  0  0  0
 21 82  1  0  0  0  0
 22 83  1  0  0  0  0
 23 25  2  0  0  0  0
 23 82  1  0  0  0  0
 24 84  1  0  0  0  0
 25 85  1  0  0  0  0
 26 65  2  0  0  0  0
 27 66  1  0  0  0  0
 27 71  1  0  0  0  0
 28 72  1  0  0  0  0
 28 77  2  0  0  0  0
 29 49  1  0  0  0  0
 29 73  1  0  0  0  0
 29 78  2  0  0  0  0
 30 61  1  0  0  0  0
 30 67  1  0  0  0  0
 30 79  2  0  0  0  0
 31 62  1  0  0  0  0
 31 74  1  0  0  0  0
 31 80  2  0  0  0  0
 32 68  1  0  0  0  0
 32 69  1  0  0  0  0
 32 81  2  0  0  0  0
 33 36  1  0  0  0  0
 34 49  1  0  0  0  0
 35 67  1  0  0  0  0
 36 38  1  0  0  0  0
 37 39  1  0  0  0  0
 37 42  1  0  0  0  0
 38 48  1  0  0  0  0
 39 51  1  0  0  0  0
 40 43  1  0  0  0  0
 40 50  1  0  0  0  0
 41 44  1  0  0  0  0
 41 52  1  0  0  0  0
 42 68  1  0  0  0  0
 43 69  1  0  0  0  0
 44 70  1  0  0  0  0
 45 50  1  0  0  0  0
 45 69  1  0  0  0  0
 46 51  1  0  0  0  0
 46 68  1  0  0  0  0
 47 52  1  0  0  0  0
 47 70  1  0  0  0  0
 48 73  1  0  0  0  0
 49 67  1  0  0  0  0
 50 63  1  0  0  0  0
 51 66  1  0  0  0  0
 52 75  1  0  0  0  0
 53 62  1  0  0  0  0
 54 63  1  0  0  0  0
 55 64  1  0  0  0  0
 56 64  1  0  0  0  0
 57 64  1  0  0  0  0
 58 76  1  0  0  0  0
 59 60  1  0  0  0  0
 59 70  1  0  0  0  0
 60 83  1  0  0  0  0
 61 64  1  0  0  0  0
 61 74  1  0  0  0  0
 62 76  1  0  0  0  0
 63 75  1  0  0  0  0
 65 66  1  0  0  0  0
M  CHG  2  75   1  76   1
M  ISO  4  32 100  60 101  69 100  83 101
M  END
> <Batch ID>
0196

> <Smiles>
CNC(C)C(=O)NC(C(=O)N1Cc2cc([101O:1][101CH2:1]CN3CCC(NC(C)C4CC[100N:0]([100C:0](=O)N5CCCC(n6nc(-c7ccc(Oc8ccc(F)cc8F)cc7)c(C(N)=O)c6N)C5)C4)C3)ccc2CC1C(=O)NC1CCCc2ccccc21)C(C)(C)C

> <Shape>
0.248

> <Color>
0.153

> <Negative vol penalty>
0.000

$$$$

  -OEChem-04052323393D

 83 92  0     1  0  0  0  0  0999 V2000
  -32.5889  -21.5028   23.3759 C   0  0  0  0  0  0  0  0  0  0  0  0
  -31.3830  -21.9896   23.8703 C   0  0  0  0  0  0  0  0  0  0  0  0
  -28.4915  -26.0609   17.1488 C   0  0  0  0  0  0  0  0  0  0  0  0
  -28.9530  -25.2403   19.3738 C   0  0  0  0  0  0  0  0  0  0  0  0
  -32.6164  -20.8117   22.1653 C   0  0  0  0  0  0  0  0  0  0  0  0
  -30.2041  -21.7863   23.1539 C   0  0  0  0  0  0  0  0  0  0  0  0
  -23.1907  -20.7065   24.1349 C   0  0  0  0  0  0  0  0  0  0  0  0
  -29.6989  -25.5253   16.7008 C   0  0  0  0  0  0  0  0  0  0  0  0
  -30.1604  -24.7046   18.9258 C   0  0  0  0  0  0  0  0  0  0  0  0
  -21.9561  -21.2109   23.7286 C   0  0  0  0  0  0  0  0  0  0  0  0
  -32.4910  -24.0612   14.8908 C   0  0  0  0  0  0  0  0  0  0  0  0
  -32.4818  -23.3604   13.6849 C   0  0  0  0  0  0  0  0  0  0  0  0
  -22.1127  -19.9338   21.6881 C   0  0  0  0  0  0  0  0  0  0  0  0
  -30.8944  -21.7909   14.6091 C   0  0  0  0  0  0  0  0  0  0  0  0
  -28.1185  -25.9185   18.4854 C   0  0  0  0  0  0  0  0  0  0  0  0
  -25.6162  -25.8355   18.9747 C   0  0  0  0  0  0  0  0  0  0  0  0
  -31.4358  -20.5914   21.4384 C   0  0  0  0  0  0  0  0  0  0  0  0
  -23.9018  -19.8190   23.3146 C   0  0  0  0  0  0  0  0  0  0  0  0
  -30.2161  -21.0927   21.9318 C   0  0  0  0  0  0  0  0  0  0  0  0
  -23.3549  -19.4176   22.0874 C   0  0  0  0  0  0  0  0  0  0  0  0
  -30.5334  -24.8472   17.5893 C   0  0  0  0  0  0  0  0  0  0  0  0
  -21.4182  -20.8269   22.5038 C   0  0  0  0  0  0  0  0  0  0  0  0
  -31.7020  -23.6268   15.9560 C   0  0  0  0  0  0  0  0  0  0  0  0
  -31.6835  -22.2253   13.5440 C   0  0  0  0  0  0  0  0  0  0  0  0
  -30.9037  -22.4917   15.8151 C   0  0  0  0  0  0  0  0  0  0  0  0
  -26.8716  -26.4721   18.9489 C   0  0  0  0  0  0  0  0  0  0  0  0
  -24.7647  -26.7768   19.4994 C   0  0  0  0  0  0  0  0  0  0  0  0
  -25.2525  -24.5117   18.5614 C   0  0  0  0  0  0  0  0  0  0  0  0
  -26.7246  -19.8860   21.8547 C   0  0  0  0  0  0  0  0  0  0  0  0
  -25.9857  -16.8116   21.1303 C   0  0  0  0  0  0  0  0  0  0  0  0
  -23.5724  -14.4414   20.6776 C   0  0  0  0  0  0  0  0  0  0  0  0
  -23.6020  -30.7260   23.2673 C   0  0  0  0  0  0  0  0  0  0  0  0
  -31.5224  -19.8799   20.1115 C   0  0  0  0  0  0  0  0  0  0  0  0
  -25.2200  -19.2631   23.7793 C   0  0  0  0  0  0  0  0  0  0  0  0
  -24.0690  -18.4515   21.1790 C   0  0  0  0  0  0  0  0  0  0  0  0
  -30.1738  -19.3812   19.5987 C   0  0  0  0  0  0  0  0  0  0  0  0
  -25.4539  -31.7082   20.3894 C   0  0  0  0  0  0  0  0  0  0  0  0
  -29.1162  -20.4726   19.7292 C   0  0  0  0  0  0  0  0  0  0  0  0
  -25.8892  -30.3817   19.7642 C   0  0  0  0  0  0  0  0  0  0  0  0
  -25.4639  -31.6433   21.9151 C   0  0  0  0  0  0  0  0  0  0  0  0
  -25.1241  -29.2028   21.8674 C   0  0  0  0  0  0  0  0  0  0  0  0
  -20.1096  -27.3274   23.6517 C   0  0  0  0  0  0  0  0  0  0  0  0
  -18.9591  -28.7547   22.0757 C   0  0  0  0  0  0  0  0  0  0  0  0
  -28.9125  -20.8708   21.1959 C   0  0  1  0  0  0  0  0  0  0  0  0
  -26.0958  -18.7654   22.6336 C   0  0  1  0  0  0  0  0  0  0  0  0
  -19.1370  -26.4833   22.8884 C   0  0  1  0  0  0  0  0  0  0  0  0
  -18.4261  -27.3651   21.9153 C   0  0  2  0  0  0  0  0  0  0  0  0
  -19.2985  -26.2447   21.4083 C   0  0  0  0  0  0  0  0  0  0  0  0
  -25.0762  -29.2017   20.3299 C   0  0  2  0  0  0  0  0  0  0  0  0
  -23.2727  -12.0295   20.0527 C   0  0  0  0  0  0  0  0  0  0  0  0
  -26.5053  -17.5075   18.2053 C   0  0  0  0  0  0  0  0  0  0  0  0
  -25.3000  -15.4088   17.5642 C   0  0  0  0  0  0  0  0  0  0  0  0
  -27.3895  -15.2802   18.9207 C   0  0  0  0  0  0  0  0  0  0  0  0
  -22.3256  -13.8006   23.2842 C   0  0  0  0  0  0  0  0  0  0  0  0
  -18.6681  -25.0282   20.7663 C   0  0  0  0  0  0  0  0  0  0  0  0
  -21.7700  -29.6603   24.5584 C   0  0  0  0  0  0  0  0  0  0  0  0
  -20.4582  -29.8389   23.8171 C   0  0  0  0  0  0  0  0  0  0  0  0
  -19.0066  -22.5742   20.4468 C   0  0  0  0  0  0  0  0  0  0  0  0
  -20.0035  -21.4606   20.7003 C   0  0  0  0  0  0  0  0  0  1  0  0
  -25.2632  -16.1243   19.9969 C   0  0  1  0  0  0  0  0  0  0  0  0
  -23.4478  -13.0193   21.1940 C   0  0  2  0  0  0  0  0  0  0  0  0
  -26.1017  -16.0999   18.6878 C   0  0  0  0  0  0  0  0  0  0  0  0
  -26.8261  -27.7212   19.4196 N   0  0  0  0  0  0  0  0  0  0  0  0
  -25.5318  -27.8772   19.7461 N   0  0  0  0  0  0  0  0  0  0  0  0
  -25.3576  -17.9407   21.6749 N   0  0  0  0  0  0  0  0  0  0  0  0
  -24.6738  -30.5036   22.3870 N   0  0  0  0  0  0  0  0  0  0  0  0
  -23.4420  -26.7622   19.7692 N   0  0  0  0  0  0  0  0  0  0  0  0
  -26.2511  -23.6749   18.0449 N   0  0  0  0  0  0  0  0  0  0  0  0
  -28.1062  -19.8830   21.8805 N   0  0  0  0  0  0  0  0  0  0  0  0
  -24.8898  -14.8038   20.4920 N   0  0  0  0  0  0  0  0  0  0  0  0
  -22.9015  -29.5923   23.6607 N   0  0  0  0  0  0  0  0  0  0  0  0
  -20.2154  -28.6644   22.9309 N   0  3  0  0  0  0  0  0  0  0  0  0
  -22.2738  -12.8997   22.1041 N   0  3  0  0  0  0  0  0  0  0  0  0
  -19.5487  -23.8485   20.9822 N   0  3  0  0  0  0  0  0  0  0  0  0
  -24.0735  -24.0891   18.6324 O   0  0  0  0  0  0  0  0  0  0  0  0
  -26.0093  -20.6926   21.2721 O   0  0  0  0  0  0  0  0  0  0  0  0
  -27.0640  -16.3591   21.5228 O   0  0  0  0  0  0  0  0  0  0  0  0
  -22.5983  -15.1577   20.4572 O   0  0  0  0  0  0  0  0  0  0  0  0
  -23.2891  -31.8521   23.6685 O   0  0  0  0  0  0  0  0  0  0  0  0
  -31.7116  -24.3242   17.1524 O   0  0  0  0  0  0  0  0  0  0  0  0
  -20.2136  -21.3182   22.1045 O   0  0  0  0  0  0  0  0  0  1  0  0
  -31.6736  -21.5532   12.3854 F   0  0  0  0  0  0  0  0  0  0  0  0
  -30.1427  -22.0703   16.8345 F   0  0  0  0  0  0  0  0  0  0  0  0
  1  2  1  0  0  0  0
  1  5  2  0  0  0  0
  2  6  2  0  0  0  0
  3  8  2  0  0  0  0
  3 15  1  0  0  0  0
  4  9  1  0  0  0  0
  4 15  2  0  0  0  0
  5 17  1  0  0  0  0
  6 19  1  0  0  0  0
  7 10  2  0  0  0  0
  7 18  1  0  0  0  0
  8 21  1  0  0  0  0
  9 21  2  0  0  0  0
 10 22  1  0  0  0  0
 11 12  2  0  0  0  0
 11 23  1  0  0  0  0
 12 24  1  0  0  0  0
 13 20  1  0  0  0  0
 13 22  2  0  0  0  0
 14 24  2  0  0  0  0
 14 25  1  0  0  0  0
 15 26  1  0  0  0  0
 16 26  1  0  0  0  0
 16 27  2  0  0  0  0
 16 28  1  0  0  0  0
 17 19  2  0  0  0  0
 17 33  1  0  0  0  0
 18 20  2  0  0  0  0
 18 34  1  0  0  0  0
 19 44  1  0  0  0  0
 20 35  1  0  0  0  0
 21 80  1  0  0  0  0
 22 81  1  0  0  0  0
 23 25  2  0  0  0  0
 23 80  1  0  0  0  0
 24 82  1  0  0  0  0
 25 83  1  0  0  0  0
 26 63  2  0  0  0  0
 27 64  1  0  0  0  0
 27 67  1  0  0  0  0
 28 68  1  0  0  0  0
 28 75  2  0  0  0  0
 29 45  1  0  0  0  0
 29 69  1  0  0  0  0
 29 76  2  0  0  0  0
 30 60  1  0  0  0  0
 30 65  1  0  0  0  0
 30 77  2  0  0  0  0
 31 61  1  0  0  0  0
 31 70  1  0  0  0  0
 31 78  2  0  0  0  0
 32 66  1  0  0  0  0
 32 71  1  0  0  0  0
 32 79  2  0  0  0  0
 33 36  1  0  0  0  0
 34 45  1  0  0  0  0
 35 65  1  0  0  0  0
 36 38  1  0  0  0  0
 37 39  1  0  0  0  0
 37 40  1  0  0  0  0
 38 44  1  0  0  0  0
 39 49  1  0  0  0  0
 40 66  1  0  0  0  0
 41 49  1  0  0  0  0
 41 66  1  0  0  0  0
 42 46  1  0  0  0  0
 42 72  1  0  0  0  0
 43 47  1  0  0  0  0
 43 72  1  0  0  0  0
 44 69  1  0  0  0  0
 45 65  1  0  0  0  0
 46 47  1  0  0  0  0
 46 48  1  0  0  0  0
 47 48  1  0  0  0  0
 48 55  1  0  0  0  0
 49 64  1  0  0  0  0
 50 61  1  0  0  0  0
 51 62  1  0  0  0  0
 52 62  1  0  0  0  0
 53 62  1  0  0  0  0
 54 73  1  0  0  0  0
 55 74  1  0  0  0  0
 56 57  1  0  0  0  0
 56 71  1  0  0  0  0
 57 72  1  0  0  0  0
 58 59  1  0  0  0  0
 58 74  1  0  0  0  0
 59 81  1  0  0  0  0
 60 62  1  0  0  0  0
 60 70  1  0  0  0  0
 61 73  1  0  0  0  0
 63 64  1  0  0  0  0
M  CHG  3  72   1  73   1  74   1
M  ISO  4  32 100  59 101  71 100  81 101
M  END
> <Batch ID>
0196

> <Smiles>
CNC(C)C(=O)NC(C(=O)N1Cc2cc([101O:1][101CH2:1]CNCC3C4CN(CC[100NH:0][100C:0](=O)N5CCCC(n6nc(-c7ccc(Oc8ccc(F)cc8F)cc7)c(C(N)=O)c6N)C5)CC34)ccc2CC1C(=O)NC1CCCc2ccccc21)C(C)(C)C

> <Shape>
0.204

> <Color>
0.109

> <Negative vol penalty>
0.000

$$$$

  -OEChem-04052323393D

 83 92  0     1  0  0  0  0  0999 V2000
  -26.8378  -35.3641   25.4490 C   0  0  0  0  0  0  0  0  0  0  0  0
  -27.1826  -34.0221   25.3250 C   0  0  0  0  0  0  0  0  0  0  0  0
  -23.4280   -9.2936   21.6020 C   0  0  0  0  0  0  0  0  0  0  0  0
  -23.9206  -10.3976   23.6938 C   0  0  0  0  0  0  0  0  0  0  0  0
  -25.5248  -35.7699   25.2139 C   0  0  0  0  0  0  0  0  0  0  0  0
  -26.2143  -33.0848   24.9667 C   0  0  0  0  0  0  0  0  0  0  0  0
  -27.8592  -29.8428   21.4413 C   0  0  0  0  0  0  0  0  0  0  0  0
  -23.5131   -8.0541   22.2361 C   0  0  0  0  0  0  0  0  0  0  0  0
  -24.0057   -9.1581   24.3280 C   0  0  0  0  0  0  0  0  0  0  0  0
  -28.6924  -28.8089   21.8662 C   0  0  0  0  0  0  0  0  0  0  0  0
  -21.5656   -6.1348   24.2252 C   0  0  0  0  0  0  0  0  0  0  0  0
  -20.5726   -5.1954   23.9479 C   0  0  0  0  0  0  0  0  0  0  0  0
  -26.8131  -27.2964   21.8511 C   0  0  0  0  0  0  0  0  0  0  0  0
  -22.2483   -3.6733   23.1038 C   0  0  0  0  0  0  0  0  0  0  0  0
  -23.6319  -10.4653   22.3309 C   0  0  0  0  0  0  0  0  0  0  0  0
  -22.3968  -12.5466   21.5243 C   0  0  0  0  0  0  0  0  0  0  0  0
  -24.5420  -34.8386   24.8431 C   0  0  0  0  0  0  0  0  0  0  0  0
  -26.4923  -29.6135   21.2282 C   0  0  0  0  0  0  0  0  0  0  0  0
  -24.8867  -33.4784   24.7277 C   0  0  0  0  0  0  0  0  0  0  0  0
  -25.9653  -28.3285   21.4210 C   0  0  0  0  0  0  0  0  0  0  0  0
  -23.8019   -7.9864   23.5991 C   0  0  0  0  0  0  0  0  0  0  0  0
  -28.1688  -27.5361   22.0740 C   0  0  0  0  0  0  0  0  0  0  0  0
  -22.9000   -5.8436   23.9417 C   0  0  0  0  0  0  0  0  0  0  0  0
  -20.9139   -3.9646   23.3873 C   0  0  0  0  0  0  0  0  0  0  0  0
  -23.2413   -4.6128   23.3810 C   0  0  0  0  0  0  0  0  0  0  0  0
  -23.5447  -11.7460   21.6763 C   0  0  0  0  0  0  0  0  0  0  0  0
  -22.8374  -13.6518   20.8382 C   0  0  0  0  0  0  0  0  0  0  0  0
  -21.0524  -12.3122   21.9640 C   0  0  0  0  0  0  0  0  0  0  0  0
  -23.8044  -30.7350   22.5015 C   0  0  0  0  0  0  0  0  0  0  0  0
  -22.4184  -28.9840   20.1488 C   0  0  0  0  0  0  0  0  0  0  0  0
  -22.6419  -26.3658   17.9712 C   0  0  0  0  0  0  0  0  0  0  0  0
  -28.2972  -16.0554   20.4949 C   0  0  0  0  0  0  0  0  0  0  0  0
  -23.1257  -35.3177   24.6454 C   0  0  0  0  0  0  0  0  0  0  0  0
  -25.6121  -30.7330   20.7441 C   0  0  0  0  0  0  0  0  0  0  0  0
  -24.5086  -28.0254   21.1868 C   0  0  0  0  0  0  0  0  0  0  0  0
  -22.2422  -34.3173   23.9045 C   0  0  0  0  0  0  0  0  0  0  0  0
  -26.1676  -15.0284   17.6924 C   0  0  0  0  0  0  0  0  0  0  0  0
  -22.4232  -32.9164   24.4803 C   0  0  0  0  0  0  0  0  0  0  0  0
  -25.1554  -14.1224   18.3952 C   0  0  0  0  0  0  0  0  0  0  0  0
  -31.8179  -22.9565   19.8617 C   0  0  0  0  0  0  0  0  0  0  0  0
  -27.5425  -14.9154   18.3399 C   0  0  0  0  0  0  0  0  0  0  0  0
  -31.5669  -21.7117   19.0095 C   0  0  0  0  0  0  0  0  0  0  0  0
  -29.6398  -18.2242   20.3880 C   0  0  0  0  0  0  0  0  0  0  0  0
  -28.4036  -17.9397   18.6804 C   0  0  0  0  0  0  0  0  0  0  0  0
  -26.5526  -14.3059   20.5101 C   0  0  0  0  0  0  0  0  0  0  0  0
  -29.5758  -22.1442   20.1550 C   0  0  0  0  0  0  0  0  0  0  0  0
  -23.8700  -32.4354   24.3168 C   0  0  1  0  0  0  0  0  0  0  0  0
  -24.1352  -30.5084   21.0534 C   0  0  1  0  0  0  0  0  0  0  0  0
  -28.8650  -19.1817   19.4664 C   0  0  0  0  0  0  0  0  0  0  0  0
  -25.1352  -14.3808   19.9130 C   0  0  2  0  0  0  0  0  0  0  0  0
  -30.6327  -23.0070   20.8151 C   0  0  2  0  0  0  0  0  0  0  0  0
  -21.3352  -25.1586   16.2013 C   0  0  0  0  0  0  0  0  0  0  0  0
  -20.7320  -27.6451   22.3107 C   0  0  0  0  0  0  0  0  0  0  0  0
  -20.1705  -25.8473   20.6613 C   0  0  0  0  0  0  0  0  0  0  0  0
  -19.4881  -28.2047   20.2145 C   0  0  0  0  0  0  0  0  0  0  0  0
  -24.6584  -26.9858   15.8955 C   0  0  0  0  0  0  0  0  0  0  0  0
  -29.6889  -20.1994   18.7036 C   0  0  0  0  0  0  0  0  0  0  0  0
  -30.9196  -25.1797   22.0133 C   0  0  0  0  0  0  0  0  0  0  0  0
  -30.3469  -26.5813   22.0884 C   0  0  0  0  0  0  0  0  0  1  0  0
  -21.9259  -27.5625   20.0229 C   0  0  1  0  0  0  0  0  0  0  0  0
  -22.3421  -26.2620   16.4867 C   0  0  2  0  0  0  0  0  0  0  0  0
  -20.6062  -27.3207   20.8087 C   0  0  0  0  0  0  0  0  0  0  0  0
  -24.6327  -12.2957   21.1305 N   0  0  0  0  0  0  0  0  0  0  0  0
  -24.1705  -13.4536   20.6287 N   0  0  0  0  0  0  0  0  0  0  0  0
  -23.6874  -29.1547   20.7200 N   0  0  0  0  0  0  0  0  0  0  0  0
  -27.4672  -15.1889   19.7785 N   0  0  0  0  0  0  0  0  0  0  0  0
  -28.7903  -17.1651   19.8500 N   0  0  0  0  0  0  0  0  0  0  0  0
  -30.4089  -21.0597   19.6299 N   0  0  1  0  0  0  0  0  0  0  0  0
  -22.2107  -14.7641   20.3995 N   0  0  0  0  0  0  0  0  0  0  0  0
  -20.7728  -11.1255   22.6553 N   0  0  0  0  0  0  0  0  0  0  0  0
  -24.1084  -32.0041   22.9560 N   0  0  0  0  0  0  0  0  0  0  0  0
  -21.8286  -27.2893   18.5931 N   0  0  0  0  0  0  0  0  0  0  0  0
  -30.1543  -24.3882   21.0060 N   0  3  0  0  0  0  0  0  0  0  0  0
  -23.5893  -25.9684   15.7256 N   0  3  0  0  0  0  0  0  0  0  0  0
  -20.1231  -13.1233   21.7359 O   0  0  0  0  0  0  0  0  0  0  0  0
  -23.3086  -29.8264   23.1574 O   0  0  0  0  0  0  0  0  0  0  0  0
  -21.7065  -29.9083   19.7484 O   0  0  0  0  0  0  0  0  0  0  0  0
  -23.5083  -25.6922   18.5244 O   0  0  0  0  0  0  0  0  0  0  0  0
  -28.5668  -15.8629   21.6880 O   0  0  0  0  0  0  0  0  0  0  0  0
  -23.8847   -6.7771   24.2182 O   0  0  0  0  0  0  0  0  0  0  0  0
  -28.9856  -26.5181   22.4923 O   0  0  0  0  0  0  0  0  0  1  0  0
  -19.9604   -3.0619   23.1225 F   0  0  0  0  0  0  0  0  0  0  0  0
  -24.5216   -4.3269   23.1076 F   0  0  0  0  0  0  0  0  0  0  0  0
  1  2  1  0  0  0  0
  1  5  2  0  0  0  0
  2  6  2  0  0  0  0
  3  8  2  0  0  0  0
  3 15  1  0  0  0  0
  4  9  1  0  0  0  0
  4 15  2  0  0  0  0
  5 17  1  0  0  0  0
  6 19  1  0  0  0  0
  7 10  2  0  0  0  0
  7 18  1  0  0  0  0
  8 21  1  0  0  0  0
  9 21  2  0  0  0  0
 10 22  1  0  0  0  0
 11 12  2  0  0  0  0
 11 23  1  0  0  0  0
 12 24  1  0  0  0  0
 13 20  1  0  0  0  0
 13 22  2  0  0  0  0
 14 24  2  0  0  0  0
 14 25  1  0  0  0  0
 15 26  1  0  0  0  0
 16 26  1  0  0  0  0
 16 27  2  0  0  0  0
 16 28  1  0  0  0  0
 17 19  2  0  0  0  0
 17 33  1  0  0  0  0
 18 20  2  0  0  0  0
 18 34  1  0  0  0  0
 19 47  1  0  0  0  0
 20 35  1  0  0  0  0
 21 80  1  0  0  0  0
 22 81  1  0  0  0  0
 23 25  2  0  0  0  0
 23 80  1  0  0  0  0
 24 82  1  0  0  0  0
 25 83  1  0  0  0  0
 26 63  2  0  0  0  0
 27 64  1  0  0  0  0
 27 69  1  0  0  0  0
 28 70  1  0  0  0  0
 28 75  2  0  0  0  0
 29 48  1  0  0  0  0
 29 71  1  0  0  0  0
 29 76  2  0  0  0  0
 30 60  1  0  0  0  0
 30 65  1  0  0  0  0
 30 77  2  0  0  0  0
 31 61  1  0  0  0  0
 31 72  1  0  0  0  0
 31 78  2  0  0  0  0
 32 66  1  0  0  0  0
 32 67  1  0  0  0  0
 32 79  2  0  0  0  0
 33 36  1  0  0  0  0
 34 48  1  0  0  0  0
 35 65  1  0  0  0  0
 36 38  1  0  0  0  0
 37 39  1  0  0  0  0
 37 41  1  0  0  0  0
 38 47  1  0  0  0  0
 39 50  1  0  0  0  0
 40 42  1  0  0  0  0
 40 51  1  0  0  0  0
 41 66  1  0  0  0  0
 42 68  1  0  0  0  0
 43 49  1  0  0  0  0
 43 67  1  0  0  0  0
 44 49  1  0  0  0  0
 44 67  1  0  0  0  0
 45 50  1  0  0  0  0
 45 66  1  0  0  0  0
 46 51  1  0  0  0  0
 46 68  1  0  0  0  0
 47 71  1  0  0  0  0
 48 65  1  0  0  0  0
 49 57  1  0  0  0  0
 50 64  1  0  0  0  0
 51 73  1  0  0  0  0
 52 61  1  0  0  0  0
 53 62  1  0  0  0  0
 54 62  1  0  0  0  0
 55 62  1  0  0  0  0
 56 74  1  0  0  0  0
 57 68  1  0  0  0  0
 58 59  1  0  0  0  0
 58 73  1  0  0  0  0
 59 81  1  0  0  0  0
 60 62  1  0  0  0  0
 60 72  1  0  0  0  0
 61 74  1  0  0  0  0
 63 64  1  0  0  0  0
M  CHG  2  73   1  74   1
M  ISO  4  32 100  59 101  67 100  81 101
M  END
> <Batch ID>
0196

> <Smiles>
CNC(C)C(=O)NC(C(=O)N1Cc2cc([101O:1][101CH2:1]CNC3CCN(CC4C[100N:0]([100C:0](=O)N5CCCC(n6nc(-c7ccc(Oc8ccc(F)cc8F)cc7)c(C(N)=O)c6N)C5)C4)C3)ccc2CC1C(=O)NC1CCCc2ccccc21)C(C)(C)C

> <Shape>
0.291

> <Color>
0.052

> <Negative vol penalty>
0.000

$$$$

  -OEChem-04052323393D

 83 92  0     1  0  0  0  0  0999 V2000
  -21.7821  -32.2210   15.8104 C   0  0  0  0  0  0  0  0  0  0  0  0
  -22.4654  -31.0098   15.8482 C   0  0  0  0  0  0  0  0  0  0  0  0
  -23.0968   -9.8612   20.8747 C   0  0  0  0  0  0  0  0  0  0  0  0
  -23.7789  -10.5201   23.0968 C   0  0  0  0  0  0  0  0  0  0  0  0
  -22.0047  -33.1769   16.8007 C   0  0  0  0  0  0  0  0  0  0  0  0
  -23.3726  -30.7542   16.8758 C   0  0  0  0  0  0  0  0  0  0  0  0
  -24.5054  -25.3511   19.5272 C   0  0  0  0  0  0  0  0  0  0  0  0
  -22.3334   -8.8268   21.4157 C   0  0  0  0  0  0  0  0  0  0  0  0
  -23.0154   -9.4857   23.6378 C   0  0  0  0  0  0  0  0  0  0  0  0
  -25.5114  -24.4050   19.3360 C   0  0  0  0  0  0  0  0  0  0  0  0
  -19.7609   -8.8923   24.3281 C   0  0  0  0  0  0  0  0  0  0  0  0
  -18.9645   -9.1870   25.4347 C   0  0  0  0  0  0  0  0  0  0  0  0
  -26.7507  -25.3604   21.1718 C   0  0  0  0  0  0  0  0  0  0  0  0
  -20.1608   -7.5389   26.7346 C   0  0  0  0  0  0  0  0  0  0  0  0
  -29.6646  -21.6490   18.0095 C   0  0  0  0  0  0  0  0  0  0  0  0
  -23.8197  -10.7079   21.7152 C   0  0  0  0  0  0  0  0  0  0  0  0
  -24.1907  -13.0946   20.8946 C   0  0  0  0  0  0  0  0  0  0  0  0
  -22.9079  -32.9290   17.8463 C   0  0  0  0  0  0  0  0  0  0  0  0
  -24.6198  -26.3175   20.5369 C   0  0  0  0  0  0  0  0  0  0  0  0
  -23.6085  -31.7081   17.8803 C   0  0  0  0  0  0  0  0  0  0  0  0
  -25.7436  -26.3161   21.3755 C   0  0  0  0  0  0  0  0  0  0  0  0
  -30.5165  -20.6405   18.3887 C   0  0  0  0  0  0  0  0  0  0  0  0
  -22.2927   -8.6390   22.7972 C   0  0  0  0  0  0  0  0  0  0  0  0
  -26.6356  -24.4114   20.1564 C   0  0  0  0  0  0  0  0  0  0  0  0
  -20.7572   -7.9208   24.4248 C   0  0  0  0  0  0  0  0  0  0  0  0
  -19.1644   -8.5104   26.6379 C   0  0  0  0  0  0  0  0  0  0  0  0
  -20.9572   -7.2442   25.6280 C   0  0  0  0  0  0  0  0  0  0  0  0
  -24.6089  -11.7762   21.1569 C   0  0  0  0  0  0  0  0  0  0  0  0
  -29.9057  -20.0715   19.5222 C   0  0  0  0  0  0  0  0  0  0  0  0
  -25.3020  -13.7098   20.3720 C   0  0  0  0  0  0  0  0  0  0  0  0
  -22.9121  -13.7083   21.1046 C   0  0  0  0  0  0  0  0  0  0  0  0
  -24.7755  -29.4917   20.5967 C   0  0  0  0  0  0  0  0  0  0  0  0
  -24.6282  -29.0498   23.8069 C   0  0  0  0  0  0  0  0  0  0  0  0
  -25.1505  -26.9861   26.4743 C   0  0  0  0  0  0  0  0  0  0  0  0
  -30.7797  -14.7450   20.4361 C   0  0  0  0  0  0  0  0  0  0  0  0
  -23.1506  -34.0116   18.8679 C   0  0  0  0  0  0  0  0  0  0  0  0
  -23.5134  -27.3145   20.7475 C   0  0  0  0  0  0  0  0  0  0  0  0
  -25.9049  -27.3197   22.4869 C   0  0  0  0  0  0  0  0  0  0  0  0
  -23.8496  -33.5125   20.1299 C   0  0  0  0  0  0  0  0  0  0  0  0
  -29.7080  -11.7755   18.8095 C   0  0  0  0  0  0  0  0  0  0  0  0
  -25.0372  -32.6264   19.7675 C   0  0  0  0  0  0  0  0  0  0  0  0
  -28.2530  -11.6174   19.2541 C   0  0  0  0  0  0  0  0  0  0  0  0
  -30.5837  -12.3298   19.9313 C   0  0  0  0  0  0  0  0  0  0  0  0
  -28.6431  -13.4240   20.9817 C   0  0  0  0  0  0  0  0  0  0  0  0
  -29.9368  -18.3820   21.3333 C   0  0  0  0  0  0  0  0  0  0  0  0
  -31.0217  -17.8620   19.6093 C   0  0  0  0  0  0  0  0  0  0  0  0
  -24.5821  -31.3839   18.9925 C   0  0  1  0  0  0  0  0  0  0  0  0
  -23.9742  -28.5735   21.4755 C   0  0  1  0  0  0  0  0  0  0  0  0
  -27.7086  -12.9216   19.8677 C   0  0  2  0  0  0  0  0  0  0  0  0
  -30.8456  -17.1958   20.9812 C   0  0  0  0  0  0  0  0  0  0  0  0
  -33.0188  -20.7546   18.4969 C   0  0  0  0  0  0  0  0  0  0  0  0
  -24.9729  -26.9177   28.9765 C   0  0  0  0  0  0  0  0  0  0  0  0
  -27.1562  -30.7436   24.0301 C   0  0  0  0  0  0  0  0  0  0  0  0
  -27.4566  -29.8638   26.3547 C   0  0  0  0  0  0  0  0  0  0  0  0
  -25.4329  -31.2054   25.7827 C   0  0  0  0  0  0  0  0  0  0  0  0
  -23.1994  -24.7623   26.3910 C   0  0  0  0  0  0  0  0  0  0  0  0
  -31.7825  -20.2599   17.7369 C   0  0  0  0  0  0  0  0  0  0  0  0
  -27.4404  -22.5394   18.9171 C   0  0  0  0  0  0  0  0  0  1  0  0
  -25.6430  -28.8436   24.9053 C   0  0  1  0  0  0  0  0  0  0  0  0
  -24.2709  -26.6287   27.6588 C   0  0  2  0  0  0  0  0  0  0  0  0
  -26.4203  -30.1463   25.2461 C   0  0  0  0  0  0  0  0  0  0  0  0
  -25.8862  -11.5654   20.8279 N   0  0  0  0  0  0  0  0  0  0  0  0
  -28.7548  -20.6689   19.8424 N   0  0  0  0  0  0  0  0  0  0  0  0
  -28.6356  -21.6239   18.9044 N   0  0  0  0  0  0  0  0  0  0  0  0
  -26.2801  -12.7594   20.3535 N   0  0  0  0  0  0  0  0  0  0  0  0
  -30.4635  -19.0266   20.1884 N   0  0  0  0  0  0  0  0  0  0  0  0
  -24.7991  -28.2780   22.6488 N   0  0  0  0  0  0  0  0  0  0  0  0
  -30.0128  -13.5695   20.4640 N   0  0  0  0  0  0  0  0  0  0  0  0
  -25.5281  -14.9655   19.9311 N   0  0  0  0  0  0  0  0  0  0  0  0
  -21.8803  -12.9326   21.6505 N   0  0  0  0  0  0  0  0  0  0  0  0
  -24.0131  -30.4058   19.8947 N   0  0  0  0  0  0  0  0  0  0  0  0
  -24.9144  -28.2705   26.0319 N   0  0  0  0  0  0  0  0  0  0  0  0
  -30.1681  -15.8834   20.9507 N   0  0  0  0  0  0  0  0  0  0  0  0
  -23.9164  -25.1816   27.6227 N   0  3  0  0  0  0  0  0  0  0  0  0
  -22.6864  -14.9044   20.8015 O   0  0  0  0  0  0  0  0  0  0  0  0
  -25.9953  -29.3802   20.5593 O   0  0  0  0  0  0  0  0  0  0  0  0
  -23.7133  -29.8603   23.9731 O   0  0  0  0  0  0  0  0  0  0  0  0
  -25.9682  -26.2053   25.9922 O   0  0  0  0  0  0  0  0  0  0  0  0
  -31.9271  -14.7865   19.9787 O   0  0  0  0  0  0  0  0  0  0  0  0
  -21.5476   -7.6299   23.3255 O   0  0  0  0  0  0  0  0  0  0  0  0
  -27.6193  -23.4894   19.9715 O   0  0  0  0  0  0  0  0  0  1  0  0
  -18.4006   -8.7946   27.7009 F   0  0  0  0  0  0  0  0  0  0  0  0
  -21.9135   -6.3107   25.7273 F   0  0  0  0  0  0  0  0  0  0  0  0
  1  2  1  0  0  0  0
  1  5  2  0  0  0  0
  2  6  2  0  0  0  0
  3  8  2  0  0  0  0
  3 16  1  0  0  0  0
  4  9  1  0  0  0  0
  4 16  2  0  0  0  0
  5 18  1  0  0  0  0
  6 20  1  0  0  0  0
  7 10  2  0  0  0  0
  7 19  1  0  0  0  0
  8 23  1  0  0  0  0
  9 23  2  0  0  0  0
 10 24  1  0  0  0  0
 11 12  2  0  0  0  0
 11 25  1  0  0  0  0
 12 26  1  0  0  0  0
 13 21  1  0  0  0  0
 13 24  2  0  0  0  0
 14 26  2  0  0  0  0
 14 27  1  0  0  0  0
 15 22  2  0  0  0  0
 15 64  1  0  0  0  0
 16 28  1  0  0  0  0
 17 28  1  0  0  0  0
 17 30  2  0  0  0  0
 17 31  1  0  0  0  0
 18 20  2  0  0  0  0
 18 36  1  0  0  0  0
 19 21  2  0  0  0  0
 19 37  1  0  0  0  0
 20 47  1  0  0  0  0
 21 38  1  0  0  0  0
 22 29  1  0  0  0  0
 22 57  1  0  0  0  0
 23 80  1  0  0  0  0
 24 81  1  0  0  0  0
 25 27  2  0  0  0  0
 25 80  1  0  0  0  0
 26 82  1  0  0  0  0
 27 83  1  0  0  0  0
 28 62  2  0  0  0  0
 29 63  2  0  0  0  0
 29 66  1  0  0  0  0
 30 65  1  0  0  0  0
 30 69  1  0  0  0  0
 31 70  1  0  0  0  0
 31 75  2  0  0  0  0
 32 48  1  0  0  0  0
 32 71  1  0  0  0  0
 32 76  2  0  0  0  0
 33 59  1  0  0  0  0
 33 67  1  0  0  0  0
 33 77  2  0  0  0  0
 34 60  1  0  0  0  0
 34 72  1  0  0  0  0
 34 78  2  0  0  0  0
 35 68  1  0  0  0  0
 35 73  1  0  0  0  0
 35 79  2  0  0  0  0
 36 39  1  0  0  0  0
 37 48  1  0  0  0  0
 38 67  1  0  0  0  0
 39 41  1  0  0  0  0
 40 42  1  0  0  0  0
 40 43  1  0  0  0  0
 41 47  1  0  0  0  0
 42 49  1  0  0  0  0
 43 68  1  0  0  0  0
 44 49  1  0  0  0  0
 44 68  1  0  0  0  0
 45 50  1  0  0  0  0
 45 66  1  0  0  0  0
 46 50  1  0  0  0  0
 46 66  1  0  0  0  0
 47 71  1  0  0  0  0
 48 67  1  0  0  0  0
 49 65  1  0  0  0  0
 50 73  1  0  0  0  0
 51 57  1  0  0  0  0
 52 60  1  0  0  0  0
 53 61  1  0  0  0  0
 54 61  1  0  0  0  0
 55 61  1  0  0  0  0
 56 74  1  0  0  0  0
 58 64  1  0  0  0  0
 58 81  1  0  0  0  0
 59 61  1  0  0  0  0
 59 72  1  0  0  0  0
 60 74  1  0  0  0  0
 62 65  1  0  0  0  0
 63 64  1  0  0  0  0
M  CHG  1  74   1
M  ISO  4  35 100  58 101  73 100  81 101
M  END
> <Batch ID>
0196

> <Smiles>
CCc1cn([101CH2:1][101O:1]c2ccc3c(c2)CN(C(=O)C(NC(=O)C(C)NC)C(C)(C)C)C(C(=O)NC2CCCc4ccccc42)C3)nc1N1CC([100NH:0][100C:0](=O)N2CCCC(n3nc(-c4ccc(Oc5ccc(F)cc5F)cc4)c(C(N)=O)c3N)C2)C1

> <Shape>
0.249

> <Color>
0.175

> <Negative vol penalty>
0.000

$$$$

  -OEChem-04052323393D

 83 92  0     1  0  0  0  0  0999 V2000
  -30.0113   -5.9153   17.7929 C   0  0  0  0  0  0  0  0  0  0  0  0
  -28.8455   -6.6426   18.0105 C   0  0  0  0  0  0  0  0  0  0  0  0
  -25.5782  -30.9791   21.2369 C   0  0  0  0  0  0  0  0  0  0  0  0
  -24.1210  -29.2053   21.9901 C   0  0  0  0  0  0  0  0  0  0  0  0
  -31.1766   -6.2452   18.4837 C   0  0  0  0  0  0  0  0  0  0  0  0
  -28.8440   -7.6996   18.9199 C   0  0  0  0  0  0  0  0  0  0  0  0
  -25.6536  -12.9105   18.5029 C   0  0  0  0  0  0  0  0  0  0  0  0
  -24.9703  -31.8588   22.1325 C   0  0  0  0  0  0  0  0  0  0  0  0
  -23.5131  -30.0851   22.8858 C   0  0  0  0  0  0  0  0  0  0  0  0
  -24.4510  -13.3224   19.0755 C   0  0  0  0  0  0  0  0  0  0  0  0
  -24.0460  -34.4799   24.4757 C   0  0  0  0  0  0  0  0  0  0  0  0
  -24.8733  -35.3115   25.2303 C   0  0  0  0  0  0  0  0  0  0  0  0
  -25.6748  -14.4256   20.8375 C   0  0  0  0  0  0  0  0  0  0  0  0
  -25.9415  -33.3719   26.1967 C   0  0  0  0  0  0  0  0  0  0  0  0
  -22.1653  -17.9413   19.7858 C   0  0  0  0  0  0  0  0  0  0  0  0
  -22.3012  -17.5088   21.9425 C   0  0  0  0  0  0  0  0  0  0  0  0
  -25.1535  -29.6523   21.1656 C   0  0  0  0  0  0  0  0  0  0  0  0
  -25.8395  -28.8631   18.8388 C   0  0  0  0  0  0  0  0  0  0  0  0
  -31.1919   -7.3129   19.3950 C   0  0  0  0  0  0  0  0  0  0  0  0
  -26.8776  -13.2444   19.1003 C   0  0  0  0  0  0  0  0  0  0  0  0
  -30.0102   -8.0433   19.6246 C   0  0  0  0  0  0  0  0  0  0  0  0
  -26.8916  -14.0189   20.2691 C   0  0  0  0  0  0  0  0  0  0  0  0
  -23.9379  -31.4118   22.9570 C   0  0  0  0  0  0  0  0  0  0  0  0
  -24.4614  -14.0776   20.2446 C   0  0  0  0  0  0  0  0  0  0  0  0
  -24.1663  -33.0942   24.5817 C   0  0  0  0  0  0  0  0  0  0  0  0
  -25.8211  -34.7576   26.0908 C   0  0  0  0  0  0  0  0  0  0  0  0
  -25.1141  -32.5403   25.4422 C   0  0  0  0  0  0  0  0  0  0  0  0
  -25.7806  -28.7433   20.2402 C   0  0  0  0  0  0  0  0  0  0  0  0
  -22.7620  -18.9744   20.4693 C   0  0  0  0  0  0  0  0  0  0  0  0
  -26.5380  -27.7540   18.4284 C   0  0  0  0  0  0  0  0  0  0  0  0
  -25.3103  -29.8857   17.9844 C   0  0  0  0  0  0  0  0  0  0  0  0
  -29.2857  -11.5921   20.3552 C   0  0  0  0  0  0  0  0  0  0  0  0
  -30.6724  -14.5173   20.5622 C   0  0  0  0  0  0  0  0  0  0  0  0
  -30.2812  -17.9028   20.7419 C   0  0  0  0  0  0  0  0  0  0  0  0
  -27.3012  -22.4065   21.2266 C   0  0  0  0  0  0  0  0  0  0  0  0
  -32.4631   -7.6020   20.1532 C   0  0  0  0  0  0  0  0  0  0  0  0
  -28.1669  -12.8150   18.4555 C   0  0  0  0  0  0  0  0  0  0  0  0
  -28.1795  -14.4209   20.9386 C   0  0  0  0  0  0  0  0  0  0  0  0
  -32.4749   -8.9743   20.8219 C   0  0  0  0  0  0  0  0  0  0  0  0
  -29.8790  -24.6630   19.9090 C   0  0  0  0  0  0  0  0  0  0  0  0
  -31.1612   -9.2213   21.5568 C   0  0  0  0  0  0  0  0  0  0  0  0
  -29.1293  -25.9886   19.7689 C   0  0  0  0  0  0  0  0  0  0  0  0
  -23.8779  -22.5252   19.8910 C   0  0  0  0  0  0  0  0  0  0  0  0
  -29.3234  -23.8096   21.0469 C   0  0  0  0  0  0  0  0  0  0  0  0
  -24.9787  -23.2987   20.6094 C   0  0  0  0  0  0  0  0  0  0  0  0
  -27.1241  -24.9031   20.8460 C   0  0  0  0  0  0  0  0  0  0  0  0
  -25.3253  -20.9429   20.9184 C   0  0  0  0  0  0  0  0  0  0  0  0
  -29.9752   -9.2125   20.5848 C   0  0  1  0  0  0  0  0  0  0  0  0
  -29.3389  -12.7759   19.4313 C   0  0  1  0  0  0  0  0  0  0  0  0
  -27.6097  -25.7592   19.6681 C   0  0  1  0  0  0  0  0  0  0  0  0
  -23.8495  -21.2115   20.6645 C   0  0  2  0  0  0  0  0  0  0  0  0
  -31.5975  -20.0300   20.9411 C   0  0  0  0  0  0  0  0  0  0  0  0
  -31.1405  -13.9476   23.5230 C   0  0  0  0  0  0  0  0  0  0  0  0
  -31.5624  -16.3930   23.8552 C   0  0  0  0  0  0  0  0  0  0  0  0
  -33.0528  -15.0638   22.3603 C   0  0  0  0  0  0  0  0  0  0  0  0
  -29.2632  -18.9115   18.1525 C   0  0  0  0  0  0  0  0  0  0  0  0
  -21.2389  -15.7336   20.5277 C   0  0  0  0  0  0  0  0  0  0  0  0
  -22.1897  -14.7049   19.9253 C   0  0  0  0  0  0  0  0  0  1  0  0
  -30.7054  -15.6138   21.5993 C   0  0  1  0  0  0  0  0  0  0  0  0
  -30.9532  -19.0359   19.9875 C   0  0  2  0  0  0  0  0  0  0  0  0
  -31.5908  -15.2455   22.8232 C   0  0  0  0  0  0  0  0  0  0  0  0
  -22.8439  -18.6989   21.8113 N   0  0  0  0  0  0  0  0  0  0  0  0
  -26.3926  -27.6446   20.6899 N   0  0  0  0  0  0  0  0  0  0  0  0
  -21.8761  -17.0096   20.7427 N   0  0  0  0  0  0  0  0  0  0  0  0
  -26.8428  -27.0639   19.5646 N   0  0  0  0  0  0  0  0  0  0  0  0
  -29.4136  -13.9716   20.2733 N   0  0  0  0  0  0  0  0  0  0  0  0
  -27.8751  -23.6453   20.9205 N   0  0  0  0  0  0  0  0  0  0  0  0
  -25.9257  -22.2688   21.0447 N   0  0  0  0  0  0  0  0  0  0  0  0
  -26.9149  -27.3114   17.2100 N   0  0  0  0  0  0  0  0  0  0  0  0
  -24.0083  -29.7340   17.4881 N   0  0  0  0  0  0  0  0  0  0  0  0
  -23.2319  -20.1542   19.9084 N   0  0  0  0  0  0  0  0  0  0  0  0
  -29.9076  -10.4625   19.8586 N   0  0  0  0  0  0  0  0  0  0  0  0
  -31.1250  -16.8239   20.9007 N   0  0  0  0  0  0  0  0  0  0  0  0
  -29.9571  -19.7641   19.1518 N   0  3  0  0  0  0  0  0  0  0  0  0
  -25.9783  -30.8957   17.6571 O   0  0  0  0  0  0  0  0  0  0  0  0
  -28.7235  -11.6964   21.4390 O   0  0  0  0  0  0  0  0  0  0  0  0
  -31.7238  -14.1631   20.0230 O   0  0  0  0  0  0  0  0  0  0  0  0
  -29.1248  -17.9696   21.1527 O   0  0  0  0  0  0  0  0  0  0  0  0
  -27.9936  -21.4507   21.6008 O   0  0  0  0  0  0  0  0  0  0  0  0
  -23.3447  -32.2699   23.8313 O   0  0  0  0  0  0  0  0  0  0  0  0
  -23.2808  -14.4832   20.8099 O   0  0  0  0  0  0  0  0  0  1  0  0
  -26.6166  -35.5563   26.8142 F   0  0  0  0  0  0  0  0  0  0  0  0
  -25.2352  -31.2098   25.5473 F   0  0  0  0  0  0  0  0  0  0  0  0
  1  2  1  0  0  0  0
  1  5  2  0  0  0  0
  2  6  2  0  0  0  0
  3  8  2  0  0  0  0
  3 17  1  0  0  0  0
  4  9  1  0  0  0  0
  4 17  2  0  0  0  0
  5 19  1  0  0  0  0
  6 21  1  0  0  0  0
  7 10  2  0  0  0  0
  7 20  1  0  0  0  0
  8 23  1  0  0  0  0
  9 23  2  0  0  0  0
 10 24  1  0  0  0  0
 11 12  2  0  0  0  0
 11 25  1  0  0  0  0
 12 26  1  0  0  0  0
 13 22  1  0  0  0  0
 13 24  2  0  0  0  0
 14 26  2  0  0  0  0
 14 27  1  0  0  0  0
 15 29  2  0  0  0  0
 15 64  1  0  0  0  0
 16 62  2  0  0  0  0
 16 64  1  0  0  0  0
 17 28  1  0  0  0  0
 18 28  1  0  0  0  0
 18 30  2  0  0  0  0
 18 31  1  0  0  0  0
 19 21  2  0  0  0  0
 19 36  1  0  0  0  0
 20 22  2  0  0  0  0
 20 37  1  0  0  0  0
 21 48  1  0  0  0  0
 22 38  1  0  0  0  0
 23 80  1  0  0  0  0
 24 81  1  0  0  0  0
 25 27  2  0  0  0  0
 25 80  1  0  0  0  0
 26 82  1  0  0  0  0
 27 83  1  0  0  0  0
 28 63  2  0  0  0  0
 29 62  1  0  0  0  0
 29 71  1  0  0  0  0
 30 65  1  0  0  0  0
 30 69  1  0  0  0  0
 31 70  1  0  0  0  0
 31 75  2  0  0  0  0
 32 49  1  0  0  0  0
 32 72  1  0  0  0  0
 32 76  2  0  0  0  0
 33 59  1  0  0  0  0
 33 66  1  0  0  0  0
 33 77  2  0  0  0  0
 34 60  1  0  0  0  0
 34 73  1  0  0  0  0
 34 78  2  0  0  0  0
 35 67  1  0  0  0  0
 35 68  1  0  0  0  0
 35 79  2  0  0  0  0
 36 39  1  0  0  0  0
 37 49  1  0  0  0  0
 38 66  1  0  0  0  0
 39 41  1  0  0  0  0
 40 42  1  0  0  0  0
 40 44  1  0  0  0  0
 41 48  1  0  0  0  0
 42 50  1  0  0  0  0
 43 45  1  0  0  0  0
 43 51  1  0  0  0  0
 44 67  1  0  0  0  0
 45 68  1  0  0  0  0
 46 50  1  0  0  0  0
 46 67  1  0  0  0  0
 47 51  1  0  0  0  0
 47 68  1  0  0  0  0
 48 72  1  0  0  0  0
 49 66  1  0  0  0  0
 50 65  1  0  0  0  0
 51 71  1  0  0  0  0
 52 60  1  0  0  0  0
 53 61  1  0  0  0  0
 54 61  1  0  0  0  0
 55 61  1  0  0  0  0
 56 74  1  0  0  0  0
 57 58  1  0  0  0  0
 57 64  1  0  0  0  0
 58 81  1  0  0  0  0
 59 61  1  0  0  0  0
 59 73  1  0  0  0  0
 60 74  1  0  0  0  0
 63 65  1  0  0  0  0
M  CHG  1  74   1
M  ISO  4  35 100  58 101  68 100  81 101
M  END
> <Batch ID>
0196

> <Smiles>
CNC(C)C(=O)NC(C(=O)N1Cc2cc([101O:1][101CH2:1]Cn3cnc(NC4CC[100N:0]([100C:0](=O)N5CCCC(n6nc(-c7ccc(Oc8ccc(F)cc8F)cc7)c(C(N)=O)c6N)C5)C4)c3)ccc2CC1C(=O)NC1CCCc2ccccc21)C(C)(C)C

> <Shape>
0.241

> <Color>
0.065

> <Negative vol penalty>
0.000

$$$$

  -OEChem-04052323393D

 84 93  0     1  0  0  0  0  0999 V2000
  -26.7331  -38.3514   22.9307 C   0  0  0  0  0  0  0  0  0  0  0  0
  -27.3725  -37.4143   22.1254 C   0  0  0  0  0  0  0  0  0  0  0  0
  -24.4966  -10.1384   23.1842 C   0  0  0  0  0  0  0  0  0  0  0  0
  -24.4942   -8.6042   21.3179 C   0  0  0  0  0  0  0  0  0  0  0  0
  -25.9791  -37.9296   24.0250 C   0  0  0  0  0  0  0  0  0  0  0  0
  -27.2591  -36.0549   22.4146 C   0  0  0  0  0  0  0  0  0  0  0  0
  -26.9937  -29.6641   19.1891 C   0  0  0  0  0  0  0  0  0  0  0  0
  -23.3426   -9.5339   23.6827 C   0  0  0  0  0  0  0  0  0  0  0  0
  -23.3403   -7.9996   21.8164 C   0  0  0  0  0  0  0  0  0  0  0  0
  -27.6054  -28.4119   19.2278 C   0  0  0  0  0  0  0  0  0  0  0  0
  -22.5407   -5.7702   24.2270 C   0  0  0  0  0  0  0  0  0  0  0  0
  -22.4963   -4.3762   24.2425 C   0  0  0  0  0  0  0  0  0  0  0  0
  -26.2114  -27.7954   21.0975 C   0  0  0  0  0  0  0  0  0  0  0  0
  -20.5556   -4.4220   22.8041 C   0  0  0  0  0  0  0  0  0  0  0  0
  -30.5816  -23.1059   20.5616 C   0  0  0  0  0  0  0  0  0  0  0  0
  -25.0724   -9.6736   22.0018 C   0  0  0  0  0  0  0  0  0  0  0  0
  -27.5979   -9.9492   21.7709 C   0  0  0  0  0  0  0  0  0  0  0  0
  -25.8485  -36.5639   24.3221 C   0  0  0  0  0  0  0  0  0  0  0  0
  -25.9921  -29.9959   20.1128 C   0  0  0  0  0  0  0  0  0  0  0  0
  -26.5037  -35.6146   23.5147 C   0  0  0  0  0  0  0  0  0  0  0  0
  -25.5867  -29.0516   21.0668 C   0  0  0  0  0  0  0  0  0  0  0  0
  -22.7645   -8.4645   22.9988 C   0  0  0  0  0  0  0  0  0  0  0  0
  -27.2163  -27.4784   20.1839 C   0  0  0  0  0  0  0  0  0  0  0  0
  -21.5926   -6.4902   23.5001 C   0  0  0  0  0  0  0  0  0  0  0  0
  -21.5038   -3.7021   23.5311 C   0  0  0  0  0  0  0  0  0  0  0  0
  -20.6001   -5.8161   22.7886 C   0  0  0  0  0  0  0  0  0  0  0  0
  -26.2641  -10.2980   21.4861 C   0  0  0  0  0  0  0  0  0  0  0  0
  -30.2075  -22.1401   19.6629 C   0  0  0  0  0  0  0  0  0  0  0  0
  -28.3486  -10.8367   21.0392 C   0  0  0  0  0  0  0  0  0  0  0  0
  -29.3365  -24.6050   19.4205 C   0  0  0  0  0  0  0  0  0  0  0  0
  -28.1124   -8.9153   22.6207 C   0  0  0  0  0  0  0  0  0  0  0  0
  -25.6769  -32.1945   22.3866 C   0  0  0  0  0  0  0  0  0  0  0  0
  -22.6655  -31.0041   22.5775 C   0  0  0  0  0  0  0  0  0  0  0  0
  -20.5476  -28.3816   22.0446 C   0  0  0  0  0  0  0  0  0  0  0  0
  -29.5204  -15.7534   19.2339 C   0  0  0  0  0  0  0  0  0  0  0  0
  -25.0617  -36.1586   25.5433 C   0  0  0  0  0  0  0  0  0  0  0  0
  -25.3234  -31.3413   20.0408 C   0  0  0  0  0  0  0  0  0  0  0  0
  -24.5022  -29.3511   22.0680 C   0  0  0  0  0  0  0  0  0  0  0  0
  -24.6841  -34.6797   25.5615 C   0  0  0  0  0  0  0  0  0  0  0  0
  -27.0119  -14.0969   17.4193 C   0  0  0  0  0  0  0  0  0  0  0  0
  -25.8883  -33.8167   25.1984 C   0  0  0  0  0  0  0  0  0  0  0  0
  -26.6949  -12.9216   18.3436 C   0  0  0  0  0  0  0  0  0  0  0  0
  -28.9611  -19.2281   19.2767 C   0  0  0  0  0  0  0  0  0  0  0  0
  -31.4088  -18.6533   19.0619 C   0  0  0  0  0  0  0  0  0  0  0  0
  -27.2353  -15.3945   18.1982 C   0  0  0  0  0  0  0  0  0  0  0  0
  -28.6147  -17.9872   18.4487 C   0  0  0  0  0  0  0  0  0  0  0  0
  -31.0170  -17.4440   18.2174 C   0  0  0  0  0  0  0  0  0  0  0  0
  -27.9351  -14.1091   20.1924 C   0  0  0  0  0  0  0  0  0  0  0  0
  -26.3841  -34.1298   23.7814 C   0  0  1  0  0  0  0  0  0  0  0  0
  -24.6738  -31.7569   21.3571 C   0  0  1  0  0  0  0  0  0  0  0  0
  -27.7631  -12.7792   19.4424 C   0  0  1  0  0  0  0  0  0  0  0  0
  -30.3565  -19.7583   18.9386 C   0  0  0  0  0  0  0  0  0  0  0  0
  -18.1519  -27.6936   22.3359 C   0  0  0  0  0  0  0  0  0  0  0  0
  -23.1437  -30.6131   25.5655 C   0  0  0  0  0  0  0  0  0  0  0  0
  -21.1555  -29.0922   25.6138 C   0  0  0  0  0  0  0  0  0  0  0  0
  -20.8758  -31.4880   24.9777 C   0  0  0  0  0  0  0  0  0  0  0  0
  -20.1852  -27.9893   19.1336 C   0  0  0  0  0  0  0  0  0  0  0  0
  -28.8287  -25.9961   19.2571 C   0  0  0  0  0  0  0  0  0  1  0  0
  -22.0001  -29.9001   23.3632 C   0  0  1  0  0  0  0  0  0  0  0  0
  -19.1769  -28.3095   21.3963 C   0  0  2  0  0  0  0  0  0  0  0  0
  -21.8156  -30.2681   24.8626 C   0  0  0  0  0  0  0  0  0  0  0  0
  -30.1508  -24.3725   20.4607 N   0  0  0  0  0  0  0  0  0  0  0  0
  -26.1697  -11.3270   20.6397 N   0  0  0  0  0  0  0  0  0  0  0  0
  -29.3871  -22.4330   18.6377 N   0  0  0  0  0  0  0  0  0  0  0  0
  -28.9362  -23.6981   18.5077 N   0  0  0  0  0  0  0  0  0  0  0  0
  -27.4537  -11.6324   20.3864 N   0  0  0  0  0  0  0  0  0  0  0  0
  -23.8830  -30.6826   21.9611 N   0  0  0  0  0  0  0  0  0  0  0  0
  -28.2320  -15.1988   19.2602 N   0  0  0  0  0  0  0  0  0  0  0  0
  -29.6742  -16.9744   18.5604 N   0  0  0  0  0  0  0  0  0  0  0  0
  -29.6803  -11.0064   20.8972 N   0  0  0  0  0  0  0  0  0  0  0  0
  -27.2021   -8.0931   23.2987 N   0  0  0  0  0  0  0  0  0  0  0  0
  -30.6873  -20.8525   19.8246 N   0  0  0  0  0  0  0  0  0  0  0  0
  -25.5269  -33.5056   22.7966 N   0  0  0  0  0  0  0  0  0  0  0  0
  -20.7558  -29.5951   22.6653 N   0  0  0  0  0  0  0  0  0  0  0  0
  -19.2331  -27.4847   20.1563 N   0  3  0  0  0  0  0  0  0  0  0  0
  -29.3428   -8.7367   22.7870 O   0  0  0  0  0  0  0  0  0  0  0  0
  -26.5234  -31.4010   22.7810 O   0  0  0  0  0  0  0  0  0  0  0  0
  -22.1213  -32.1089   22.5070 O   0  0  0  0  0  0  0  0  0  0  0  0
  -21.3517  -27.4529   22.0075 O   0  0  0  0  0  0  0  0  0  0  0  0
  -30.4775  -15.1908   19.7803 O   0  0  0  0  0  0  0  0  0  0  0  0
  -21.6386   -7.8742   23.4850 O   0  0  0  0  0  0  0  0  0  0  0  0
  -27.8162  -26.2474   20.2246 O   0  0  0  0  0  0  0  0  0  1  0  0
  -21.4621   -2.3633   23.5448 F   0  0  0  0  0  0  0  0  0  0  0  0
  -19.6872   -6.5023   22.0875 F   0  0  0  0  0  0  0  0  0  0  0  0
  1  2  1  0  0  0  0
  1  5  2  0  0  0  0
  2  6  2  0  0  0  0
  3  8  2  0  0  0  0
  3 16  1  0  0  0  0
  4  9  1  0  0  0  0
  4 16  2  0  0  0  0
  5 18  1  0  0  0  0
  6 20  1  0  0  0  0
  7 10  2  0  0  0  0
  7 19  1  0  0  0  0
  8 22  1  0  0  0  0
  9 22  2  0  0  0  0
 10 23  1  0  0  0  0
 11 12  2  0  0  0  0
 11 24  1  0  0  0  0
 12 25  1  0  0  0  0
 13 21  1  0  0  0  0
 13 23  2  0  0  0  0
 14 25  2  0  0  0  0
 14 26  1  0  0  0  0
 15 28  1  0  0  0  0
 15 62  2  0  0  0  0
 16 27  1  0  0  0  0
 17 27  1  0  0  0  0
 17 29  2  0  0  0  0
 17 31  1  0  0  0  0
 18 20  2  0  0  0  0
 18 36  1  0  0  0  0
 19 21  2  0  0  0  0
 19 37  1  0  0  0  0
 20 49  1  0  0  0  0
 21 38  1  0  0  0  0
 22 81  1  0  0  0  0
 23 82  1  0  0  0  0
 24 26  2  0  0  0  0
 24 81  1  0  0  0  0
 25 83  1  0  0  0  0
 26 84  1  0  0  0  0
 27 63  2  0  0  0  0
 28 64  2  0  0  0  0
 28 72  1  0  0  0  0
 29 66  1  0  0  0  0
 29 70  1  0  0  0  0
 30 58  1  0  0  0  0
 30 62  1  0  0  0  0
 30 65  2  0  0  0  0
 31 71  1  0  0  0  0
 31 76  2  0  0  0  0
 32 50  1  0  0  0  0
 32 73  1  0  0  0  0
 32 77  2  0  0  0  0
 33 59  1  0  0  0  0
 33 67  1  0  0  0  0
 33 78  2  0  0  0  0
 34 60  1  0  0  0  0
 34 74  1  0  0  0  0
 34 79  2  0  0  0  0
 35 68  1  0  0  0  0
 35 69  1  0  0  0  0
 35 80  2  0  0  0  0
 36 39  1  0  0  0  0
 37 50  1  0  0  0  0
 38 67  1  0  0  0  0
 39 41  1  0  0  0  0
 40 42  1  0  0  0  0
 40 45  1  0  0  0  0
 41 49  1  0  0  0  0
 42 51  1  0  0  0  0
 43 46  1  0  0  0  0
 43 52  1  0  0  0  0
 44 47  1  0  0  0  0
 44 52  1  0  0  0  0
 45 68  1  0  0  0  0
 46 69  1  0  0  0  0
 47 69  1  0  0  0  0
 48 51  1  0  0  0  0
 48 68  1  0  0  0  0
 49 73  1  0  0  0  0
 50 67  1  0  0  0  0
 51 66  1  0  0  0  0
 52 72  1  0  0  0  0
 53 60  1  0  0  0  0
 54 61  1  0  0  0  0
 55 61  1  0  0  0  0
 56 61  1  0  0  0  0
 57 75  1  0  0  0  0
 58 82  1  0  0  0  0
 59 61  1  0  0  0  0
 59 74  1  0  0  0  0
 60 75  1  0  0  0  0
 63 66  1  0  0  0  0
 64 65  1  0  0  0  0
M  CHG  1  75   1
M  ISO  4  35 100  58 101  69 100  82 101
M  END
> <Batch ID>
0196

> <Smiles>
CNC(C)C(=O)NC(C(=O)N1Cc2cc([101O:1][101CH2:1]c3ncc(NC4CC[100N:0]([100C:0](=O)N5CCCC(n6nc(-c7ccc(Oc8ccc(F)cc8F)cc7)c(C(N)=O)c6N)C5)CC4)nn3)ccc2CC1C(=O)NC1CCCc2ccccc21)C(C)(C)C

> <Shape>
0.331

> <Color>
0.114

> <Negative vol penalty>
0.000

$$$$

  -OEChem-04052323393D

 83 92  0     1  0  0  0  0  0999 V2000
  -22.9162  -38.1488   24.6196 C   0  0  0  0  0  0  0  0  0  0  0  0
  -22.4301  -37.3274   23.6074 C   0  0  0  0  0  0  0  0  0  0  0  0
  -23.3650   -9.5141   19.7442 C   0  0  0  0  0  0  0  0  0  0  0  0
  -24.3854   -9.3369   21.9270 C   0  0  0  0  0  0  0  0  0  0  0  0
  -24.2842  -38.4004   24.7151 C   0  0  0  0  0  0  0  0  0  0  0  0
  -23.3118  -36.7580   22.6894 C   0  0  0  0  0  0  0  0  0  0  0  0
  -23.7465  -29.6101   21.9081 C   0  0  0  0  0  0  0  0  0  0  0  0
  -22.2972   -8.7293   20.1796 C   0  0  0  0  0  0  0  0  0  0  0  0
  -23.3176   -8.5521   22.3624 C   0  0  0  0  0  0  0  0  0  0  0  0
  -23.7371  -28.2617   21.5504 C   0  0  0  0  0  0  0  0  0  0  0  0
  -22.3097   -5.3375   22.0777 C   0  0  0  0  0  0  0  0  0  0  0  0
  -22.6065   -4.1887   22.8110 C   0  0  0  0  0  0  0  0  0  0  0  0
  -25.5133  -28.6605   19.9586 C   0  0  0  0  0  0  0  0  0  0  0  0
  -21.3360   -5.0511   24.6762 C   0  0  0  0  0  0  0  0  0  0  0  0
  -24.4091   -9.8179   20.6179 C   0  0  0  0  0  0  0  0  0  0  0  0
  -26.3985  -10.3468   19.1112 C   0  0  0  0  0  0  0  0  0  0  0  0
  -25.1842  -37.8259   23.8036 C   0  0  0  0  0  0  0  0  0  0  0  0
  -24.6510  -30.4869   21.3026 C   0  0  0  0  0  0  0  0  0  0  0  0
  -24.6931  -37.0031   22.7720 C   0  0  0  0  0  0  0  0  0  0  0  0
  -25.5359  -30.0097   20.3217 C   0  0  0  0  0  0  0  0  0  0  0  0
  -22.2735   -8.2483   21.4887 C   0  0  0  0  0  0  0  0  0  0  0  0
  -24.6181  -27.7882   20.5779 C   0  0  0  0  0  0  0  0  0  0  0  0
  -21.5261   -6.3431   22.6437 C   0  0  0  0  0  0  0  0  0  0  0  0
  -22.1196   -4.0455   24.1102 C   0  0  0  0  0  0  0  0  0  0  0  0
  -21.0392   -6.1999   23.9429 C   0  0  0  0  0  0  0  0  0  0  0  0
  -25.5126  -10.6280   20.1685 C   0  0  0  0  0  0  0  0  0  0  0  0
  -27.2583  -11.4177   19.0896 C   0  0  0  0  0  0  0  0  0  0  0  0
  -26.4404   -9.2185   18.2275 C   0  0  0  0  0  0  0  0  0  0  0  0
  -25.9743  -33.9892   21.0610 C   0  0  0  0  0  0  0  0  0  0  0  0
  -28.3935  -32.1096   20.9019 C   0  0  0  0  0  0  0  0  0  0  0  0
  -31.4810  -30.6704   21.0830 C   0  0  0  0  0  0  0  0  0  0  0  0
  -26.4874  -17.0228   21.0158 C   0  0  0  0  0  0  0  0  0  0  0  0
  -26.6493  -38.1650   23.9184 C   0  0  0  0  0  0  0  0  0  0  0  0
  -24.6546  -31.9592   21.6125 C   0  0  0  0  0  0  0  0  0  0  0  0
  -26.4677  -30.9961   19.6723 C   0  0  0  0  0  0  0  0  0  0  0  0
  -27.5562  -37.2219   23.1320 C   0  0  0  0  0  0  0  0  0  0  0  0
  -29.1928  -14.7292   21.9468 C   0  0  0  0  0  0  0  0  0  0  0  0
  -27.0066  -37.0015   21.7263 C   0  0  0  0  0  0  0  0  0  0  0  0
  -28.6144  -13.3826   21.5093 C   0  0  0  0  0  0  0  0  0  0  0  0
  -29.3608  -23.2914   20.3042 C   0  0  0  0  0  0  0  0  0  0  0  0
  -28.0941  -15.6564   22.4522 C   0  0  0  0  0  0  0  0  0  0  0  0
  -28.2964  -24.3873   20.3733 C   0  0  0  0  0  0  0  0  0  0  0  0
  -26.4090  -14.5535   21.0363 C   0  0  0  0  0  0  0  0  0  0  0  0
  -28.7219  -18.3767   20.8414 C   0  0  0  0  0  0  0  0  0  0  0  0
  -26.9302  -19.5152   20.6841 C   0  0  0  0  0  0  0  0  0  0  0  0
  -27.1527  -22.3684   20.0907 C   0  0  0  0  0  0  0  0  0  0  0  0
  -25.6205  -36.3471   21.7721 C   0  0  1  0  0  0  0  0  0  0  0  0
  -26.0620  -32.5810   21.5717 C   0  0  1  0  0  0  0  0  0  0  0  0
  -27.4661  -13.5700   20.5008 C   0  0  2  0  0  0  0  0  0  0  0  0
  -28.6097  -22.0663   19.8027 C   0  0  2  0  0  0  0  0  0  0  0  0
  -28.3273  -19.6414   20.0665 C   0  0  0  0  0  0  0  0  0  0  0  0
  -33.8706  -31.0436   20.4136 C   0  0  0  0  0  0  0  0  0  0  0  0
  -27.7006  -31.3643   18.0265 C   0  0  0  0  0  0  0  0  0  0  0  0
  -30.1181  -30.8279   17.6579 C   0  0  0  0  0  0  0  0  0  0  0  0
  -29.4346  -33.1522   18.2522 C   0  0  0  0  0  0  0  0  0  0  0  0
  -32.3935  -30.6546   23.8983 C   0  0  0  0  0  0  0  0  0  0  0  0
  -30.5565  -20.6965   20.4097 C   0  0  0  0  0  0  0  0  0  0  0  0
  -25.8730  -24.4309   20.1912 C   0  0  0  0  0  0  0  0  0  0  0  0
  -25.8378  -25.8997   19.7978 C   0  0  0  0  0  0  0  0  0  1  0  0
  -29.3446  -31.3442   20.0171 C   0  0  1  0  0  0  0  0  0  0  0  0
  -32.8286  -31.2265   21.5061 C   0  0  2  0  0  0  0  0  0  0  0  0
  -29.1348  -31.6593   18.5091 C   0  0  0  0  0  0  0  0  0  0  0  0
  -25.7847  -11.7867   20.7748 N   0  0  0  0  0  0  0  0  0  0  0  0
  -26.8513  -12.2429   20.0963 N   0  0  0  0  0  0  0  0  0  0  0  0
  -27.0253  -31.9037   20.6872 N   0  0  0  0  0  0  0  0  0  0  0  0
  -27.0383  -15.8130   21.4469 N   0  0  0  0  0  0  0  0  0  0  0  0
  -27.2947  -18.1359   20.9995 N   0  0  0  0  0  0  0  0  0  0  0  0
  -27.1061  -23.7936   19.7553 N   0  0  1  0  0  0  0  0  0  0  0  0
  -28.3153  -11.7244   18.3079 N   0  0  0  0  0  0  0  0  0  0  0  0
  -27.2090   -8.1070   18.5991 N   0  0  0  0  0  0  0  0  0  0  0  0
  -25.7390  -34.9308   22.0446 N   0  0  0  0  0  0  0  0  0  0  0  0
  -30.6862  -31.6395   20.5082 N   0  0  0  0  0  0  0  0  0  0  0  0
  -33.3109  -30.5362   22.7358 N   0  3  0  0  0  0  0  0  0  0  0  0
  -29.0508  -20.8432   20.4974 N   0  3  1  0  0  0  0  0  0  0  0  0
  -25.8279   -9.2032   17.1329 O   0  0  0  0  0  0  0  0  0  0  0  0
  -26.1114  -34.2070   19.8629 O   0  0  0  0  0  0  0  0  0  0  0  0
  -28.8484  -32.8744   21.7572 O   0  0  0  0  0  0  0  0  0  0  0  0
  -31.1664  -29.4931   21.2426 O   0  0  0  0  0  0  0  0  0  0  0  0
  -25.3153  -17.1032   20.6245 O   0  0  0  0  0  0  0  0  0  0  0  0
  -21.2316   -7.4827   21.9140 O   0  0  0  0  0  0  0  0  0  0  0  0
  -24.6066  -26.4603   20.2343 O   0  0  0  0  0  0  0  0  0  1  0  0
  -22.4034   -2.9415   24.8138 F   0  0  0  0  0  0  0  0  0  0  0  0
  -20.2849   -7.1621   24.4915 F   0  0  0  0  0  0  0  0  0  0  0  0
  1  2  1  0  0  0  0
  1  5  2  0  0  0  0
  2  6  2  0  0  0  0
  3  8  2  0  0  0  0
  3 15  1  0  0  0  0
  4  9  1  0  0  0  0
  4 15  2  0  0  0  0
  5 17  1  0  0  0  0
  6 19  1  0  0  0  0
  7 10  2  0  0  0  0
  7 18  1  0  0  0  0
  8 21  1  0  0  0  0
  9 21  2  0  0  0  0
 10 22  1  0  0  0  0
 11 12  2  0  0  0  0
 11 23  1  0  0  0  0
 12 24  1  0  0  0  0
 13 20  1  0  0  0  0
 13 22  2  0  0  0  0
 14 24  2  0  0  0  0
 14 25  1  0  0  0  0
 15 26  1  0  0  0  0
 16 26  1  0  0  0  0
 16 27  2  0  0  0  0
 16 28  1  0  0  0  0
 17 19  2  0  0  0  0
 17 33  1  0  0  0  0
 18 20  2  0  0  0  0
 18 34  1  0  0  0  0
 19 47  1  0  0  0  0
 20 35  1  0  0  0  0
 21 80  1  0  0  0  0
 22 81  1  0  0  0  0
 23 25  2  0  0  0  0
 23 80  1  0  0  0  0
 24 82  1  0  0  0  0
 25 83  1  0  0  0  0
 26 63  2  0  0  0  0
 27 64  1  0  0  0  0
 27 69  1  0  0  0  0
 28 70  1  0  0  0  0
 28 75  2  0  0  0  0
 29 48  1  0  0  0  0
 29 71  1  0  0  0  0
 29 76  2  0  0  0  0
 30 60  1  0  0  0  0
 30 65  1  0  0  0  0
 30 77  2  0  0  0  0
 31 61  1  0  0  0  0
 31 72  1  0  0  0  0
 31 78  2  0  0  0  0
 32 66  1  0  0  0  0
 32 67  1  0  0  0  0
 32 79  2  0  0  0  0
 33 36  1  0  0  0  0
 34 48  1  0  0  0  0
 35 65  1  0  0  0  0
 36 38  1  0  0  0  0
 37 39  1  0  0  0  0
 37 41  1  0  0  0  0
 38 47  1  0  0  0  0
 39 49  1  0  0  0  0
 40 42  1  0  0  0  0
 40 50  1  0  0  0  0
 41 66  1  0  0  0  0
 42 68  1  0  0  0  0
 43 49  1  0  0  0  0
 43 66  1  0  0  0  0
 44 51  1  0  0  0  0
 44 67  1  0  0  0  0
 45 51  1  0  0  0  0
 45 67  1  0  0  0  0
 46 50  1  0  0  0  0
 46 68  1  0  0  0  0
 47 71  1  0  0  0  0
 48 65  1  0  0  0  0
 49 64  1  0  0  0  0
 50 74  1  0  0  0  0
 51 74  1  0  0  0  0
 52 61  1  0  0  0  0
 53 62  1  0  0  0  0
 54 62  1  0  0  0  0
 55 62  1  0  0  0  0
 56 73  1  0  0  0  0
 57 74  1  0  0  0  0
 58 59  1  0  0  0  0
 58 68  1  0  0  0  0
 59 81  1  0  0  0  0
 60 62  1  0  0  0  0
 60 72  1  0  0  0  0
 61 73  1  0  0  0  0
 63 64  1  0  0  0  0
M  CHG  2  73   1  74   1
M  ISO  4  32 100  59 101  67 100  81 101
M  END
> <Batch ID>
0196

> <Smiles>
CNC(C)C(=O)NC(C(=O)N1Cc2cc([101O:1][101CH2:1]CN3CCC(N(C)C4C[100N:0]([100C:0](=O)N5CCCC(n6nc(-c7ccc(Oc8ccc(F)cc8F)cc7)c(C(N)=O)c6N)C5)C4)C3)ccc2CC1C(=O)NC1CCCc2ccccc21)C(C)(C)C

> <Shape>
0.266

> <Color>
0.071

> <Negative vol penalty>
0.000

$$$$

  -OEChem-04052323393D

 83 92  0     1  0  0  0  0  0999 V2000
  -29.8794  -24.2052   15.1044 C   0  0  0  0  0  0  0  0  0  0  0  0
  -28.5664  -24.3112   15.5519 C   0  0  0  0  0  0  0  0  0  0  0  0
  -25.9640  -13.3768   20.5194 C   0  0  0  0  0  0  0  0  0  0  0  0
  -27.4217  -12.4940   18.8068 C   0  0  0  0  0  0  0  0  0  0  0  0
  -30.9356  -24.4163   15.9897 C   0  0  0  0  0  0  0  0  0  0  0  0
  -28.3089  -24.6272   16.8854 C   0  0  0  0  0  0  0  0  0  0  0  0
  -23.6649  -27.9871   19.0419 C   0  0  0  0  0  0  0  0  0  0  0  0
  -25.0300  -12.3797   20.2384 C   0  0  0  0  0  0  0  0  0  0  0  0
  -26.4877  -11.4968   18.5259 C   0  0  0  0  0  0  0  0  0  0  0  0
  -22.4382  -27.6393   19.6058 C   0  0  0  0  0  0  0  0  0  0  0  0
  -22.4199   -9.8495   20.2185 C   0  0  0  0  0  0  0  0  0  0  0  0
  -21.8358   -9.1854   21.2971 C   0  0  0  0  0  0  0  0  0  0  0  0
  -23.3917  -27.8731   21.8093 C   0  0  0  0  0  0  0  0  0  0  0  0
  -24.0168   -8.4343   22.0156 C   0  0  0  0  0  0  0  0  0  0  0  0
  -19.5308  -24.2559   22.5315 C   0  0  0  0  0  0  0  0  0  0  0  0
  -27.1599  -13.4340   19.8036 C   0  0  0  0  0  0  0  0  0  0  0  0
  -29.1803  -14.4033   21.0225 C   0  0  0  0  0  0  0  0  0  0  0  0
  -30.6909  -24.7446   17.3324 C   0  0  0  0  0  0  0  0  0  0  0  0
  -24.7690  -28.2703   19.8587 C   0  0  0  0  0  0  0  0  0  0  0  0
  -29.3628  -24.8416   17.7898 C   0  0  0  0  0  0  0  0  0  0  0  0
  -24.6306  -28.2267   21.2533 C   0  0  0  0  0  0  0  0  0  0  0  0
  -25.2919  -11.4397   19.2417 C   0  0  0  0  0  0  0  0  0  0  0  0
  -22.3022  -27.5794   20.9897 C   0  0  0  0  0  0  0  0  0  0  0  0
  -23.8024   -9.8059   20.0383 C   0  0  0  0  0  0  0  0  0  0  0  0
  -22.6343   -8.4779   22.1957 C   0  0  0  0  0  0  0  0  0  0  0  0
  -24.6009   -9.0984   20.9369 C   0  0  0  0  0  0  0  0  0  0  0  0
  -28.1248  -14.4641   20.0930 C   0  0  0  0  0  0  0  0  0  0  0  0
  -29.7998  -15.6248   20.9190 C   0  0  0  0  0  0  0  0  0  0  0  0
  -21.5580  -23.7664   21.7025 C   0  0  0  0  0  0  0  0  0  0  0  0
  -20.8650  -25.8993   21.7861 C   0  0  0  0  0  0  0  0  0  1  0  0
  -29.5663  -13.3379   21.9009 C   0  0  0  0  0  0  0  0  0  0  0  0
  -27.6486  -26.9863   20.2626 C   0  0  0  0  0  0  0  0  0  0  0  0
  -28.0920  -29.5509   22.1987 C   0  0  0  0  0  0  0  0  0  0  0  0
  -26.7047  -31.9719   24.1636 C   0  0  0  0  0  0  0  0  0  0  0  0
  -27.8817  -20.9933   19.0888 C   0  0  0  0  0  0  0  0  0  0  0  0
  -31.8651  -24.9172   18.2632 C   0  0  0  0  0  0  0  0  0  0  0  0
  -26.0782  -28.6699   19.2353 C   0  0  0  0  0  0  0  0  0  0  0  0
  -25.7799  -28.5415   22.1745 C   0  0  0  0  0  0  0  0  0  0  0  0
  -31.5071  -25.6165   19.5720 C   0  0  0  0  0  0  0  0  0  0  0  0
  -30.6397  -19.1645   17.8401 C   0  0  0  0  0  0  0  0  0  0  0  0
  -30.2366  -25.0178   20.1671 C   0  0  0  0  0  0  0  0  0  0  0  0
  -30.3962  -17.7385   18.3256 C   0  0  0  0  0  0  0  0  0  0  0  0
  -24.2207  -21.0910   19.3567 C   0  0  0  0  0  0  0  0  0  0  0  0
  -29.3283  -19.8361   17.4555 C   0  0  0  0  0  0  0  0  0  0  0  0
  -25.4403  -20.2087   19.1228 C   0  0  0  0  0  0  0  0  0  0  0  0
  -26.1008  -22.1611   20.3528 C   0  0  0  0  0  0  0  0  0  0  0  0
  -28.0761  -18.4580   19.0939 C   0  0  0  0  0  0  0  0  0  0  0  0
  -29.0430  -25.2070   19.2231 C   0  0  1  0  0  0  0  0  0  0  0  0
  -27.2734  -28.4372   20.1544 C   0  0  1  0  0  0  0  0  0  0  0  0
  -24.6203  -21.8864   20.6001 C   0  0  1  0  0  0  0  0  0  0  0  0
  -29.3783  -17.7250   19.4766 C   0  0  1  0  0  0  0  0  0  0  0  0
  -27.3231  -33.8994   25.6467 C   0  0  0  0  0  0  0  0  0  0  0  0
  -28.9215  -27.5958   24.3895 C   0  0  0  0  0  0  0  0  0  0  0  0
  -28.6032  -29.4367   26.0562 C   0  0  0  0  0  0  0  0  0  0  0  0
  -30.3160  -29.6676   24.2575 C   0  0  0  0  0  0  0  0  0  0  0  0
  -25.2459  -33.9021   22.4590 C   0  0  0  0  0  0  0  0  0  0  0  0
  -23.7979  -23.1475   20.7938 C   0  0  0  0  0  0  0  0  0  0  0  0
  -27.8644  -29.8366   23.6635 C   0  0  1  0  0  0  0  0  0  0  0  0
  -26.9449  -33.4690   24.2380 C   0  0  2  0  0  0  0  0  0  0  0  0
  -28.9050  -29.1263   24.5746 C   0  0  0  0  0  0  0  0  0  0  0  0
  -20.4228  -23.2947   22.2426 N   0  0  0  0  0  0  0  0  0  0  0  0
  -19.6818  -25.5751   22.3319 N   0  0  0  0  0  0  0  0  0  0  0  0
  -28.0736  -15.6319   19.4467 N   0  0  0  0  0  0  0  0  0  0  0  0
  -21.8492  -25.0518   21.4455 N   0  0  0  0  0  0  0  0  0  0  0  0
  -29.1046  -16.3162   19.9709 N   0  0  0  0  0  0  0  0  0  0  0  0
  -27.0412  -28.9209   21.5169 N   0  0  0  0  0  0  0  0  0  0  0  0
  -28.3531  -19.7925   18.5468 N   0  0  0  0  0  0  0  0  0  0  0  0
  -26.5727  -21.0235   19.5681 N   0  0  0  0  0  0  0  0  0  0  0  0
  -30.8659  -16.1642   21.5474 N   0  0  0  0  0  0  0  0  0  0  0  0
  -28.8212  -12.1511   21.8795 N   0  0  0  0  0  0  0  0  0  0  0  0
  -22.5344  -22.8257   21.3743 N   0  0  0  0  0  0  0  0  0  0  0  0
  -28.5471  -26.5643   19.3013 N   0  0  0  0  0  0  0  0  0  0  0  0
  -27.8455  -31.2892   23.7978 N   0  0  0  0  0  0  0  0  0  0  0  0
  -25.7175  -34.2113   23.8334 N   0  3  0  0  0  0  0  0  0  0  0  0
  -30.5331  -13.4416   22.6934 O   0  0  0  0  0  0  0  0  0  0  0  0
  -27.1602  -26.3007   21.1532 O   0  0  0  0  0  0  0  0  0  0  0  0
  -29.1599  -29.8810   21.6770 O   0  0  0  0  0  0  0  0  0  0  0  0
  -25.6151  -31.4591   24.4092 O   0  0  0  0  0  0  0  0  0  0  0  0
  -28.5868  -22.0113   19.1060 O   0  0  0  0  0  0  0  0  0  0  0  0
  -24.3808  -10.4664   18.9674 O   0  0  0  0  0  0  0  0  0  0  0  0
  -21.0909  -27.2353   21.5497 O   0  0  0  0  0  0  0  0  0  1  0  0
  -22.0734   -7.8415   23.2324 F   0  0  0  0  0  0  0  0  0  0  0  0
  -25.9297   -9.0539   20.7698 F   0  0  0  0  0  0  0  0  0  0  0  0
  1  2  1  0  0  0  0
  1  5  2  0  0  0  0
  2  6  2  0  0  0  0
  3  8  2  0  0  0  0
  3 16  1  0  0  0  0
  4  9  1  0  0  0  0
  4 16  2  0  0  0  0
  5 18  1  0  0  0  0
  6 20  1  0  0  0  0
  7 10  2  0  0  0  0
  7 19  1  0  0  0  0
  8 22  1  0  0  0  0
  9 22  2  0  0  0  0
 10 23  1  0  0  0  0
 11 12  2  0  0  0  0
 11 24  1  0  0  0  0
 12 25  1  0  0  0  0
 13 21  1  0  0  0  0
 13 23  2  0  0  0  0
 14 25  2  0  0  0  0
 14 26  1  0  0  0  0
 15 61  1  0  0  0  0
 15 62  2  0  0  0  0
 16 27  1  0  0  0  0
 17 27  1  0  0  0  0
 17 28  2  0  0  0  0
 17 31  1  0  0  0  0
 18 20  2  0  0  0  0
 18 36  1  0  0  0  0
 19 21  2  0  0  0  0
 19 37  1  0  0  0  0
 20 48  1  0  0  0  0
 21 38  1  0  0  0  0
 22 80  1  0  0  0  0
 23 81  1  0  0  0  0
 24 26  2  0  0  0  0
 24 80  1  0  0  0  0
 25 82  1  0  0  0  0
 26 83  1  0  0  0  0
 27 63  2  0  0  0  0
 28 65  1  0  0  0  0
 28 69  1  0  0  0  0
 29 61  2  0  0  0  0
 29 64  1  0  0  0  0
 29 71  1  0  0  0  0
 30 62  1  0  0  0  0
 30 64  2  0  0  0  0
 30 81  1  0  0  0  0
 31 70  1  0  0  0  0
 31 75  2  0  0  0  0
 32 49  1  0  0  0  0
 32 72  1  0  0  0  0
 32 76  2  0  0  0  0
 33 58  1  0  0  0  0
 33 66  1  0  0  0  0
 33 77  2  0  0  0  0
 34 59  1  0  0  0  0
 34 73  1  0  0  0  0
 34 78  2  0  0  0  0
 35 67  1  0  0  0  0
 35 68  1  0  0  0  0
 35 79  2  0  0  0  0
 36 39  1  0  0  0  0
 37 49  1  0  0  0  0
 38 66  1  0  0  0  0
 39 41  1  0  0  0  0
 40 42  1  0  0  0  0
 40 44  1  0  0  0  0
 41 48  1  0  0  0  0
 42 51  1  0  0  0  0
 43 45  1  0  0  0  0
 43 50  1  0  0  0  0
 44 67  1  0  0  0  0
 45 68  1  0  0  0  0
 46 50  1  0  0  0  0
 46 68  1  0  0  0  0
 47 51  1  0  0  0  0
 47 67  1  0  0  0  0
 48 72  1  0  0  0  0
 49 66  1  0  0  0  0
 50 57  1  0  0  0  0
 51 65  1  0  0  0  0
 52 59  1  0  0  0  0
 53 60  1  0  0  0  0
 54 60  1  0  0  0  0
 55 60  1  0  0  0  0
 56 74  1  0  0  0  0
 57 71  1  0  0  0  0
 58 60  1  0  0  0  0
 58 73  1  0  0  0  0
 59 74  1  0  0  0  0
 63 65  1  0  0  0  0
M  CHG  1  74   1
M  ISO  4  30 101  35 100  68 100  81 101
M  END
> <Batch ID>
0196

> <Smiles>
CNC(C)C(=O)NC(C(=O)N1Cc2cc([101O:1][101c:1]3ncnc(NCC4CC[100N:0]([100C:0](=O)N5CCCC(n6nc(-c7ccc(Oc8ccc(F)cc8F)cc7)c(C(N)=O)c6N)C5)C4)n3)ccc2CC1C(=O)NC1CCCc2ccccc21)C(C)(C)C

> <Shape>
0.295

> <Color>
0.053

> <Negative vol penalty>
0.000

$$$$

  -OEChem-04052323393D

 85 94  0     1  0  0  0  0  0999 V2000
  -28.1113  -36.3532   24.9813 C   0  0  0  0  0  0  0  0  0  0  0  0
  -28.5054  -35.1432   24.4192 C   0  0  0  0  0  0  0  0  0  0  0  0
  -23.3269  -10.4203   21.9934 C   0  0  0  0  0  0  0  0  0  0  0  0
  -24.4149   -8.6512   20.7590 C   0  0  0  0  0  0  0  0  0  0  0  0
  -26.8324  -36.4863   25.5205 C   0  0  0  0  0  0  0  0  0  0  0  0
  -27.6213  -34.0652   24.3970 C   0  0  0  0  0  0  0  0  0  0  0  0
  -27.1240  -29.8010   20.0295 C   0  0  0  0  0  0  0  0  0  0  0  0
  -22.1136   -9.7383   21.9014 C   0  0  0  0  0  0  0  0  0  0  0  0
  -23.2017   -7.9692   20.6670 C   0  0  0  0  0  0  0  0  0  0  0  0
  -27.6245  -28.5040   19.9236 C   0  0  0  0  0  0  0  0  0  0  0  0
  -20.6005   -7.1293   23.4299 C   0  0  0  0  0  0  0  0  0  0  0  0
  -19.8203   -7.0359   24.5823 C   0  0  0  0  0  0  0  0  0  0  0  0
  -25.5334  -27.6355   20.7556 C   0  0  0  0  0  0  0  0  0  0  0  0
  -18.0226   -8.1953   23.4593 C   0  0  0  0  0  0  0  0  0  0  0  0
  -29.3335  -23.6611   20.5462 C   0  0  0  0  0  0  0  0  0  0  0  0
  -24.4776   -9.8768   21.4221 C   0  0  0  0  0  0  0  0  0  0  0  0
  -26.6970  -10.4649   22.5339 C   0  0  0  0  0  0  0  0  0  0  0  0
  -25.9288  -35.4123   25.4962 C   0  0  0  0  0  0  0  0  0  0  0  0
  -25.8261  -30.0259   20.5105 C   0  0  0  0  0  0  0  0  0  0  0  0
  -26.3296  -34.1836   24.9376 C   0  0  0  0  0  0  0  0  0  0  0  0
  -25.0179  -28.9361   20.8643 C   0  0  0  0  0  0  0  0  0  0  0  0
  -22.0510   -8.5128   21.2382 C   0  0  0  0  0  0  0  0  0  0  0  0
  -26.8302  -27.4212   20.2893 C   0  0  0  0  0  0  0  0  0  0  0  0
  -20.0918   -7.7557   22.2921 C   0  0  0  0  0  0  0  0  0  0  0  0
  -18.5314   -7.5689   24.5971 C   0  0  0  0  0  0  0  0  0  0  0  0
  -18.8029   -8.2887   22.3068 C   0  0  0  0  0  0  0  0  0  0  0  0
  -25.7310  -10.5810   21.5164 C   0  0  0  0  0  0  0  0  0  0  0  0
  -29.0096  -24.5876   19.5853 C   0  0  0  0  0  0  0  0  0  0  0  0
  -29.5735  -22.4759   19.8255 C   0  0  0  0  0  0  0  0  0  0  0  0
  -27.6928  -11.3351   22.1629 C   0  0  0  0  0  0  0  0  0  0  0  0
  -26.6944   -9.6438   23.7092 C   0  0  0  0  0  0  0  0  0  0  0  0
  -24.5941  -31.5497   23.0133 C   0  0  0  0  0  0  0  0  0  0  0  0
  -21.7792  -30.8473   21.5622 C   0  0  0  0  0  0  0  0  0  0  0  0
  -20.0499  -28.8382   19.4128 C   0  0  0  0  0  0  0  0  0  0  0  0
  -29.4803  -16.0601   20.3504 C   0  0  0  0  0  0  0  0  0  0  0  0
  -24.5735  -35.5894   26.1338 C   0  0  0  0  0  0  0  0  0  0  0  0
  -25.2915  -31.4294   20.5936 C   0  0  0  0  0  0  0  0  0  0  0  0
  -23.6105  -29.1228   21.3672 C   0  0  0  0  0  0  0  0  0  0  0  0
  -23.5670  -34.5135   25.7340 C   0  0  0  0  0  0  0  0  0  0  0  0
  -28.4585  -13.8304   17.8377 C   0  0  0  0  0  0  0  0  0  0  0  0
  -24.1995  -33.1288   25.8298 C   0  0  0  0  0  0  0  0  0  0  0  0
  -27.7279  -12.7657   18.6557 C   0  0  0  0  0  0  0  0  0  0  0  0
  -28.8597  -19.3939   19.4077 C   0  0  0  0  0  0  0  0  0  0  0  0
  -31.0376  -19.1400   20.6567 C   0  0  0  0  0  0  0  0  0  0  0  0
  -28.1646  -15.2438   18.3440 C   0  0  0  0  0  0  0  0  0  0  0  0
  -29.0762  -18.0119   18.7840 C   0  0  0  0  0  0  0  0  0  0  0  0
  -31.2242  -17.7805   19.9890 C   0  0  0  0  0  0  0  0  0  0  0  0
  -27.6931  -14.3645   20.6075 C   0  0  0  0  0  0  0  0  0  0  0  0
  -25.3904  -32.9988   24.8725 C   0  0  1  0  0  0  0  0  0  0  0  0
  -24.1381  -31.5719   21.5818 C   0  0  1  0  0  0  0  0  0  0  0  0
  -28.0149  -12.9306   20.1588 C   0  0  1  0  0  0  0  0  0  0  0  0
  -30.1880  -20.0593   19.7753 C   0  0  0  0  0  0  0  0  0  0  0  0
  -27.3286  -24.6307   16.8071 C   0  0  0  0  0  0  0  0  0  0  0  0
  -17.7555  -28.4877   18.4587 C   0  0  0  0  0  0  0  0  0  0  0  0
  -20.8792  -29.5926   24.1939 C   0  0  0  0  0  0  0  0  0  0  0  0
  -19.0369  -28.4520   22.9396 C   0  0  0  0  0  0  0  0  0  0  0  0
  -19.1263  -30.9434   23.0288 C   0  0  0  0  0  0  0  0  0  0  0  0
  -21.0003  -29.3097   16.6499 C   0  0  0  0  0  0  0  0  0  0  0  0
  -28.6533  -26.0139   19.6961 C   0  0  0  0  0  0  0  0  0  1  0  0
  -28.8143  -24.4744   17.0826 C   0  0  0  0  0  0  0  0  0  0  0  0
  -20.8081  -29.6926   21.6149 C   0  0  1  0  0  0  0  0  0  0  0  0
  -19.1049  -29.1632   18.2700 C   0  0  2  0  0  0  0  0  0  0  0  0
  -19.9898  -29.6664   22.9367 C   0  0  0  0  0  0  0  0  0  0  0  0
  -26.0815  -11.4561   20.5701 N   0  0  0  0  0  0  0  0  0  0  0  0
  -29.4154  -22.6322   18.5085 N   0  0  0  0  0  0  0  0  0  0  0  0
  -29.0725  -23.9266   18.3940 N   0  0  0  0  0  0  0  0  0  0  0  0
  -27.2787  -11.8979   20.9915 N   0  0  0  0  0  0  0  0  0  0  0  0
  -23.1355  -30.5146   21.4365 N   0  0  0  0  0  0  0  0  0  0  0  0
  -28.4144  -15.3413   19.7889 N   0  0  0  0  0  0  0  0  0  0  0  0
  -29.9346  -17.1824   19.6418 N   0  0  0  0  0  0  0  0  0  0  0  0
  -28.8734  -11.6662   22.7276 N   0  0  0  0  0  0  0  0  0  0  0  0
  -25.5929   -8.8079   23.9378 N   0  0  0  0  0  0  0  0  0  0  0  0
  -29.9321  -21.3035   20.4669 N   0  0  0  0  0  0  0  0  0  0  0  0
  -24.9287  -32.7923   23.5165 N   0  0  0  0  0  0  0  0  0  0  0  0
  -19.9927  -29.7897   20.4091 N   0  0  0  0  0  0  0  0  0  0  0  0
  -19.6823  -28.7059   16.9744 N   0  3  0  0  0  0  0  0  0  0  0  0
  -27.6333   -9.6633   24.5408 O   0  0  0  0  0  0  0  0  0  0  0  0
  -24.6376  -30.4841   23.6170 O   0  0  0  0  0  0  0  0  0  0  0  0
  -21.3497  -32.0020   21.6228 O   0  0  0  0  0  0  0  0  0  0  0  0
  -20.7644  -27.8383   19.4224 O   0  0  0  0  0  0  0  0  0  0  0  0
  -29.9962  -15.7193   21.4223 O   0  0  0  0  0  0  0  0  0  0  0  0
  -20.8673   -7.8469   21.1485 O   0  0  0  0  0  0  0  0  0  0  0  0
  -27.3190  -26.1480   20.1870 O   0  0  0  0  0  0  0  0  0  1  0  0
  -17.7817   -7.4778   25.7034 F   0  0  0  0  0  0  0  0  0  0  0  0
  -18.3083   -8.8906   21.2164 F   0  0  0  0  0  0  0  0  0  0  0  0
  1  2  1  0  0  0  0
  1  5  2  0  0  0  0
  2  6  2  0  0  0  0
  3  8  2  0  0  0  0
  3 16  1  0  0  0  0
  4  9  1  0  0  0  0
  4 16  2  0  0  0  0
  5 18  1  0  0  0  0
  6 20  1  0  0  0  0
  7 10  2  0  0  0  0
  7 19  1  0  0  0  0
  8 22  1  0  0  0  0
  9 22  2  0  0  0  0
 10 23  1  0  0  0  0
 11 12  2  0  0  0  0
 11 24  1  0  0  0  0
 12 25  1  0  0  0  0
 13 21  1  0  0  0  0
 13 23  2  0  0  0  0
 14 25  2  0  0  0  0
 14 26  1  0  0  0  0
 15 28  2  0  0  0  0
 15 29  1  0  0  0  0
 16 27  1  0  0  0  0
 17 27  1  0  0  0  0
 17 30  2  0  0  0  0
 17 31  1  0  0  0  0
 18 20  2  0  0  0  0
 18 36  1  0  0  0  0
 19 21  2  0  0  0  0
 19 37  1  0  0  0  0
 20 49  1  0  0  0  0
 21 38  1  0  0  0  0
 22 82  1  0  0  0  0
 23 83  1  0  0  0  0
 24 26  2  0  0  0  0
 24 82  1  0  0  0  0
 25 84  1  0  0  0  0
 26 85  1  0  0  0  0
 27 64  2  0  0  0  0
 28 59  1  0  0  0  0
 28 66  1  0  0  0  0
 29 65  2  0  0  0  0
 29 73  1  0  0  0  0
 30 67  1  0  0  0  0
 30 71  1  0  0  0  0
 31 72  1  0  0  0  0
 31 77  2  0  0  0  0
 32 50  1  0  0  0  0
 32 74  1  0  0  0  0
 32 78  2  0  0  0  0
 33 61  1  0  0  0  0
 33 68  1  0  0  0  0
 33 79  2  0  0  0  0
 34 62  1  0  0  0  0
 34 75  1  0  0  0  0
 34 80  2  0  0  0  0
 35 69  1  0  0  0  0
 35 70  1  0  0  0  0
 35 81  2  0  0  0  0
 36 39  1  0  0  0  0
 37 50  1  0  0  0  0
 38 68  1  0  0  0  0
 39 41  1  0  0  0  0
 40 42  1  0  0  0  0
 40 45  1  0  0  0  0
 41 49  1  0  0  0  0
 42 51  1  0  0  0  0
 43 46  1  0  0  0  0
 43 52  1  0  0  0  0
 44 47  1  0  0  0  0
 44 52  1  0  0  0  0
 45 69  1  0  0  0  0
 46 70  1  0  0  0  0
 47 70  1  0  0  0  0
 48 51  1  0  0  0  0
 48 69  1  0  0  0  0
 49 74  1  0  0  0  0
 50 68  1  0  0  0  0
 51 67  1  0  0  0  0
 52 73  1  0  0  0  0
 53 60  1  0  0  0  0
 54 62  1  0  0  0  0
 55 63  1  0  0  0  0
 56 63  1  0  0  0  0
 57 63  1  0  0  0  0
 58 76  1  0  0  0  0
 59 83  1  0  0  0  0
 60 66  1  0  0  0  0
 61 63  1  0  0  0  0
 61 75  1  0  0  0  0
 62 76  1  0  0  0  0
 64 67  1  0  0  0  0
 65 66  1  0  0  0  0
M  CHG  1  76   1
M  ISO  4  35 100  59 101  70 100  83 101
M  END
> <Batch ID>
0196

> <Smiles>
CCn1nc(NC2CC[100N:0]([100C:0](=O)N3CCCC(n4nc(-c5ccc(Oc6ccc(F)cc6F)cc5)c(C(N)=O)c4N)C3)CC2)cc1[101CH2:1][101O:1]c1ccc2c(c1)CN(C(=O)C(NC(=O)C(C)NC)C(C)(C)C)C(C(=O)NC1CCCc3ccccc31)C2

> <Shape>
0.312

> <Color>
0.094

> <Negative vol penalty>
0.000

$$$$

  -OEChem-04052323393D

 87 96  0     1  0  0  0  0  0999 V2000
  -21.6043  -31.7505   14.6581 C   0  0  0  0  0  0  0  0  0  0  0  0
  -22.7578  -31.1241   15.1190 C   0  0  0  0  0  0  0  0  0  0  0  0
  -24.1932   -6.1045   22.3256 C   0  0  0  0  0  0  0  0  0  0  0  0
  -22.9439   -7.2869   24.0221 C   0  0  0  0  0  0  0  0  0  0  0  0
  -21.0843  -32.8455   15.3470 C   0  0  0  0  0  0  0  0  0  0  0  0
  -23.3927  -31.5931   16.2685 C   0  0  0  0  0  0  0  0  0  0  0  0
  -24.7534  -27.8528   19.3996 C   0  0  0  0  0  0  0  0  0  0  0  0
  -24.3726   -5.0351   23.2030 C   0  0  0  0  0  0  0  0  0  0  0  0
  -23.1233   -6.2175   24.8996 C   0  0  0  0  0  0  0  0  0  0  0  0
  -25.8999  -27.1314   19.0694 C   0  0  0  0  0  0  0  0  0  0  0  0
  -22.5640   -2.4129   24.3369 C   0  0  0  0  0  0  0  0  0  0  0  0
  -22.3579   -1.1256   23.8408 C   0  0  0  0  0  0  0  0  0  0  0  0
  -27.4140  -21.7918   19.1348 C   0  0  0  0  0  0  0  0  0  0  0  0
  -26.5915  -20.6852   19.2529 C   0  0  0  0  0  0  0  0  0  0  0  0
  -27.1663  -28.4268   20.6623 C   0  0  0  0  0  0  0  0  0  0  0  0
  -24.6428   -0.5528   24.3779 C   0  0  0  0  0  0  0  0  0  0  0  0
  -23.4789   -7.2304   22.7352 C   0  0  0  0  0  0  0  0  0  0  0  0
  -22.2349   -8.5215   20.9205 C   0  0  0  0  0  0  0  0  0  0  0  0
  -21.7077  -33.3221   16.5109 C   0  0  0  0  0  0  0  0  0  0  0  0
  -24.8073  -28.8757   20.3573 C   0  0  0  0  0  0  0  0  0  0  0  0
  -22.8813  -32.6964   16.9728 C   0  0  0  0  0  0  0  0  0  0  0  0
  -26.0186  -29.1579   21.0047 C   0  0  0  0  0  0  0  0  0  0  0  0
  -23.8377   -5.0916   24.4900 C   0  0  0  0  0  0  0  0  0  0  0  0
  -27.1072  -27.4203   19.6987 C   0  0  0  0  0  0  0  0  0  0  0  0
  -23.8096   -2.7701   24.8535 C   0  0  0  0  0  0  0  0  0  0  0  0
  -23.3973   -0.1956   23.8613 C   0  0  0  0  0  0  0  0  0  0  0  0
  -24.8489   -1.8401   24.8740 C   0  0  0  0  0  0  0  0  0  0  0  0
  -23.2937   -8.3356   21.8295 C   0  0  0  0  0  0  0  0  0  0  0  0
  -28.6777  -21.7192   19.6855 C   0  0  0  0  0  0  0  0  0  0  0  0
  -27.0873  -19.5791   19.9134 C   0  0  0  0  0  0  0  0  0  0  0  0
  -22.5198   -9.7136   20.3007 C   0  0  0  0  0  0  0  0  0  0  0  0
  -21.0956   -7.6910   20.6598 C   0  0  0  0  0  0  0  0  0  0  0  0
  -24.2768  -32.0095   20.3245 C   0  0  0  0  0  0  0  0  0  0  0  0
  -24.7188  -31.7241   23.5254 C   0  0  0  0  0  0  0  0  0  0  0  0
  -26.0764  -29.9675   26.1173 C   0  0  0  0  0  0  0  0  0  0  0  0
  -24.0505  -14.8615   20.3121 C   0  0  0  0  0  0  0  0  0  0  0  0
  -21.1352  -34.5383   17.1950 C   0  0  0  0  0  0  0  0  0  0  0  0
  -23.5559  -29.6265   20.7216 C   0  0  0  0  0  0  0  0  0  0  0  0
  -26.1251  -30.2326   22.0545 C   0  0  0  0  0  0  0  0  0  0  0  0
  -21.6568  -34.7402   18.6154 C   0  0  0  0  0  0  0  0  0  0  0  0
  -26.6973  -12.5525   20.3616 C   0  0  0  0  0  0  0  0  0  0  0  0
  -23.1726  -34.5745   18.6561 C   0  0  0  0  0  0  0  0  0  0  0  0
  -25.9598  -11.2519   20.6785 C   0  0  0  0  0  0  0  0  0  0  0  0
  -26.1510  -13.7320   21.1678 C   0  0  0  0  0  0  0  0  0  0  0  0
  -25.7548  -17.7998   18.8242 C   0  0  0  0  0  0  0  0  0  0  0  0
  -26.4110  -17.6183   21.2289 C   0  0  0  0  0  0  0  0  0  0  0  0
  -24.5068  -16.9728   19.1213 C   0  0  0  0  0  0  0  0  0  0  0  0
  -25.1463  -16.8063   21.4856 C   0  0  0  0  0  0  0  0  0  0  0  0
  -23.9506  -12.6185   21.3589 C   0  0  0  0  0  0  0  0  0  0  0  0
  -23.5847  -33.1603   18.2299 C   0  0  1  0  0  0  0  0  0  0  0  0
  -23.8373  -30.9926   21.3396 C   0  0  1  0  0  0  0  0  0  0  0  0
  -24.4389  -11.4267   20.5207 C   0  0  2  0  0  0  0  0  0  0  0  0
  -26.3005  -30.0012   28.6165 C   0  0  0  0  0  0  0  0  0  0  0  0
  -31.0643  -25.0670   21.2561 C   0  0  0  0  0  0  0  0  0  0  0  0
  -26.8222  -33.9234   23.3047 C   0  0  0  0  0  0  0  0  0  0  0  0
  -27.6565  -33.2563   25.5691 C   0  0  0  0  0  0  0  0  0  0  0  0
  -25.3268  -34.1066   25.3009 C   0  0  0  0  0  0  0  0  0  0  0  0
  -24.6656  -27.3807   26.3948 C   0  0  0  0  0  0  0  0  0  0  0  0
  -29.6035  -22.8826   19.5844 C   0  0  0  0  0  0  0  0  0  0  0  0
  -29.2061  -26.5518   20.4032 C   0  0  0  0  0  0  0  0  0  1  0  0
  -25.9091  -31.7977   24.4510 C   0  0  1  0  0  0  0  0  0  0  0  0
  -25.4861  -29.4982   27.4348 C   0  0  2  0  0  0  0  0  0  0  0  0
  -30.0073  -25.2736   20.1833 C   0  0  2  0  0  0  0  0  0  0  0  0
  -26.4274  -33.2520   24.6353 C   0  0  0  0  0  0  0  0  0  0  0  0
  -24.1848   -9.3299   21.7934 N   0  0  0  0  0  0  0  0  0  0  0  0
  -29.1367  -20.6236   20.3267 N   0  0  0  0  0  0  0  0  0  0  0  0
  -28.3285  -19.5359   20.4423 N   0  0  0  0  0  0  0  0  0  0  0  0
  -23.6867  -10.1520   20.8542 N   0  0  0  0  0  0  0  0  0  0  0  0
  -26.2530  -18.4607   20.0354 N   0  0  0  0  0  0  0  0  0  0  0  0
  -24.8752  -30.9432   22.3714 N   0  0  0  0  0  0  0  0  0  0  0  0
  -24.6931  -13.8340   21.0186 N   0  0  0  0  0  0  0  0  0  0  0  0
  -24.6946  -16.1084   20.2801 N   0  0  0  0  0  0  0  0  0  0  0  0
  -21.8837  -10.4191   19.3415 N   0  0  0  0  0  0  0  0  0  0  0  0
  -20.9565   -6.5004   21.3861 N   0  0  0  0  0  0  0  0  0  0  0  0
  -23.3635  -32.2224   19.3097 N   0  0  0  0  0  0  0  0  0  0  0  0
  -25.5024  -31.1467   25.6916 N   0  0  0  0  0  0  0  0  0  0  0  0
  -25.4531  -28.0092   27.4865 N   0  3  0  0  0  0  0  0  0  0  0  0
  -29.0734  -24.1186   20.2246 N   0  3  0  0  0  0  0  0  0  0  0  0
  -20.2353   -7.9875   19.7964 O   0  0  0  0  0  0  0  0  0  0  0  0
  -25.3633  -32.5613   20.4534 O   0  0  0  0  0  0  0  0  0  0  0  0
  -23.6859  -32.3310   23.8191 O   0  0  0  0  0  0  0  0  0  0  0  0
  -26.9612  -29.3517   25.5269 O   0  0  0  0  0  0  0  0  0  0  0  0
  -22.9684  -14.6776   19.7409 O   0  0  0  0  0  0  0  0  0  0  0  0
  -24.0124   -4.0482   25.3464 O   0  0  0  0  0  0  0  0  0  0  0  0
  -28.2355  -26.7134   19.3756 O   0  0  0  0  0  0  0  0  0  1  0  0
  -23.1988    1.0410   23.3862 F   0  0  0  0  0  0  0  0  0  0  0  0
  -26.0473   -2.1771   25.3700 F   0  0  0  0  0  0  0  0  0  0  0  0
  1  2  1  0  0  0  0
  1  5  2  0  0  0  0
  2  6  2  0  0  0  0
  3  8  2  0  0  0  0
  3 17  1  0  0  0  0
  4  9  1  0  0  0  0
  4 17  2  0  0  0  0
  5 19  1  0  0  0  0
  6 21  1  0  0  0  0
  7 10  2  0  0  0  0
  7 20  1  0  0  0  0
  8 23  1  0  0  0  0
  9 23  2  0  0  0  0
 10 24  1  0  0  0  0
 11 12  2  0  0  0  0
 11 25  1  0  0  0  0
 12 26  1  0  0  0  0
 13 14  2  0  0  0  0
 13 29  1  0  0  0  0
 14 30  1  0  0  0  0
 15 22  1  0  0  0  0
 15 24  2  0  0  0  0
 16 26  2  0  0  0  0
 16 27  1  0  0  0  0
 17 28  1  0  0  0  0
 18 28  1  0  0  0  0
 18 31  2  0  0  0  0
 18 32  1  0  0  0  0
 19 21  2  0  0  0  0
 19 37  1  0  0  0  0
 20 22  2  0  0  0  0
 20 38  1  0  0  0  0
 21 50  1  0  0  0  0
 22 39  1  0  0  0  0
 23 84  1  0  0  0  0
 24 85  1  0  0  0  0
 25 27  2  0  0  0  0
 25 84  1  0  0  0  0
 26 86  1  0  0  0  0
 27 87  1  0  0  0  0
 28 65  2  0  0  0  0
 29 59  1  0  0  0  0
 29 66  2  0  0  0  0
 30 67  2  0  0  0  0
 30 69  1  0  0  0  0
 31 68  1  0  0  0  0
 31 73  1  0  0  0  0
 32 74  1  0  0  0  0
 32 79  2  0  0  0  0
 33 51  1  0  0  0  0
 33 75  1  0  0  0  0
 33 80  2  0  0  0  0
 34 61  1  0  0  0  0
 34 70  1  0  0  0  0
 34 81  2  0  0  0  0
 35 62  1  0  0  0  0
 35 76  1  0  0  0  0
 35 82  2  0  0  0  0
 36 71  1  0  0  0  0
 36 72  1  0  0  0  0
 36 83  2  0  0  0  0
 37 40  1  0  0  0  0
 38 51  1  0  0  0  0
 39 70  1  0  0  0  0
 40 42  1  0  0  0  0
 41 43  1  0  0  0  0
 41 44  1  0  0  0  0
 42 50  1  0  0  0  0
 43 52  1  0  0  0  0
 44 71  1  0  0  0  0
 45 47  1  0  0  0  0
 45 69  1  0  0  0  0
 46 48  1  0  0  0  0
 46 69  1  0  0  0  0
 47 72  1  0  0  0  0
 48 72  1  0  0  0  0
 49 52  1  0  0  0  0
 49 71  1  0  0  0  0
 50 75  1  0  0  0  0
 51 70  1  0  0  0  0
 52 68  1  0  0  0  0
 53 62  1  0  0  0  0
 54 63  1  0  0  0  0
 55 64  1  0  0  0  0
 56 64  1  0  0  0  0
 57 64  1  0  0  0  0
 58 77  1  0  0  0  0
 59 78  1  0  0  0  0
 60 63  1  0  0  0  0
 60 85  1  0  0  0  0
 61 64  1  0  0  0  0
 61 76  1  0  0  0  0
 62 77  1  0  0  0  0
 63 78  1  0  0  0  0
 65 68  1  0  0  0  0
 66 67  1  0  0  0  0
M  CHG  2  77   1  78   1
M  ISO  4  36 100  60 101  72 100  85 101
M  END
> <Batch ID>
0196

> <Smiles>
CNC(C)C(=O)NC(C(=O)N1Cc2cc([101O:1][101CH2:1]C(C)NCc3ccc(N4CC[100N:0]([100C:0](=O)N5CCCC(n6nc(-c7ccc(Oc8ccc(F)cc8F)cc7)c(C(N)=O)c6N)C5)CC4)nn3)ccc2CC1C(=O)NC1CCCc2ccccc21)C(C)(C)C

> <Shape>
0.284

> <Color>
0.128

> <Negative vol penalty>
0.000

$$$$

  -OEChem-04052323393D

 84 93  0     1  0  0  0  0  0999 V2000
  -25.5654  -38.6616   19.4748 C   0  0  0  0  0  0  0  0  0  0  0  0
  -26.2195  -37.5849   18.8847 C   0  0  0  0  0  0  0  0  0  0  0  0
  -24.4493   -8.5761   21.3253 C   0  0  0  0  0  0  0  0  0  0  0  0
  -23.7902   -7.9612   19.0838 C   0  0  0  0  0  0  0  0  0  0  0  0
  -25.0527  -38.5418   20.7658 C   0  0  0  0  0  0  0  0  0  0  0  0
  -26.3624  -36.3880   19.5857 C   0  0  0  0  0  0  0  0  0  0  0  0
  -26.6320  -29.3058   18.5440 C   0  0  0  0  0  0  0  0  0  0  0  0
  -23.3303   -7.9175   21.8350 C   0  0  0  0  0  0  0  0  0  0  0  0
  -22.6712   -7.3025   19.5935 C   0  0  0  0  0  0  0  0  0  0  0  0
  -27.4304  -28.2027   18.8432 C   0  0  0  0  0  0  0  0  0  0  0  0
  -22.4007   -4.7349   22.4985 C   0  0  0  0  0  0  0  0  0  0  0  0
  -22.5832   -3.9124   23.6101 C   0  0  0  0  0  0  0  0  0  0  0  0
  -26.4349  -28.0851   21.0374 C   0  0  0  0  0  0  0  0  0  0  0  0
  -21.0245   -5.2648   24.8666 C   0  0  0  0  0  0  0  0  0  0  0  0
  -24.6792   -8.5980   19.9497 C   0  0  0  0  0  0  0  0  0  0  0  0
  -27.1125   -8.7336   19.1960 C   0  0  0  0  0  0  0  0  0  0  0  0
  -25.1808  -37.3397   21.4794 C   0  0  0  0  0  0  0  0  0  0  0  0
  -25.7353  -29.8143   19.4947 C   0  0  0  0  0  0  0  0  0  0  0  0
  -25.8521  -36.2525   20.8880 C   0  0  0  0  0  0  0  0  0  0  0  0
  -25.6244  -29.1931   20.7468 C   0  0  0  0  0  0  0  0  0  0  0  0
  -22.4413   -7.2807   20.9691 C   0  0  0  0  0  0  0  0  0  0  0  0
  -27.3341  -27.5940   20.0911 C   0  0  0  0  0  0  0  0  0  0  0  0
  -21.5302   -5.8225   22.5709 C   0  0  0  0  0  0  0  0  0  0  0  0
  -21.8951   -4.1773   24.7942 C   0  0  0  0  0  0  0  0  0  0  0  0
  -20.8421   -6.0873   23.7550 C   0  0  0  0  0  0  0  0  0  0  0  0
  -25.8345   -9.2787   19.4225 C   0  0  0  0  0  0  0  0  0  0  0  0
  -27.8474   -9.7789   18.6923 C   0  0  0  0  0  0  0  0  0  0  0  0
  -27.5925   -7.4013   19.4209 C   0  0  0  0  0  0  0  0  0  0  0  0
  -25.4139  -32.5858   21.0175 C   0  0  0  0  0  0  0  0  0  0  0  0
  -22.6844  -31.2202   22.1163 C   0  0  0  0  0  0  0  0  0  0  0  0
  -20.9465  -28.3645   22.8030 C   0  0  0  0  0  0  0  0  0  0  0  0
  -26.9187  -15.7133   19.3519 C   0  0  0  0  0  0  0  0  0  0  0  0
  -24.6519  -37.2731   22.8902 C   0  0  0  0  0  0  0  0  0  0  0  0
  -24.8619  -30.9884   19.1468 C   0  0  0  0  0  0  0  0  0  0  0  0
  -24.6629  -29.6880   21.7952 C   0  0  0  0  0  0  0  0  0  0  0  0
  -24.5160  -35.8491   23.4232 C   0  0  0  0  0  0  0  0  0  0  0  0
  -27.3834  -13.8284   16.1918 C   0  0  0  0  0  0  0  0  0  0  0  0
  -25.7746  -35.0428   23.1188 C   0  0  0  0  0  0  0  0  0  0  0  0
  -27.1048  -12.3969   16.6525 C   0  0  0  0  0  0  0  0  0  0  0  0
  -29.2603  -18.3001   18.1957 C   0  0  0  0  0  0  0  0  0  0  0  0
  -28.5863  -21.7392   21.6465 C   0  0  0  0  0  0  0  0  0  0  0  0
  -27.3117  -22.0536   19.4835 C   0  0  0  0  0  0  0  0  0  0  0  0
  -26.5754  -14.8300   17.0065 C   0  0  0  0  0  0  0  0  0  0  0  0
  -28.4562  -17.0635   17.8069 C   0  0  0  0  0  0  0  0  0  0  0  0
  -26.5137  -13.3122   18.9480 C   0  0  0  0  0  0  0  0  0  0  0  0
  -27.4299  -18.1124   19.7110 C   0  0  0  0  0  0  0  0  0  0  0  0
  -29.5935  -22.7901   21.1941 C   0  0  0  0  0  0  0  0  0  0  0  0
  -28.3288  -23.1021   19.0482 C   0  0  0  0  0  0  0  0  0  0  0  0
  -26.0052  -34.9297   21.6070 C   0  0  1  0  0  0  0  0  0  0  0  0
  -24.3529  -31.7388   20.3737 C   0  0  1  0  0  0  0  0  0  0  0  0
  -27.3121  -12.2504   18.1710 C   0  0  1  0  0  0  0  0  0  0  0  0
  -28.2120  -19.1386   18.9117 C   0  0  1  0  0  0  0  0  0  0  0  0
  -27.8757  -21.0471   20.4848 C   0  0  0  0  0  0  0  0  0  0  0  0
  -18.7550  -27.5669   23.7295 C   0  0  0  0  0  0  0  0  0  0  0  0
  -23.6450  -31.8674   24.9391 C   0  0  0  0  0  0  0  0  0  0  0  0
  -21.9462  -30.2493   25.8132 C   0  0  0  0  0  0  0  0  0  0  0  0
  -21.2076  -32.2689   24.5489 C   0  0  0  0  0  0  0  0  0  0  0  0
  -20.2322  -27.0170   20.2667 C   0  0  0  0  0  0  0  0  0  0  0  0
  -29.8314  -24.9033   19.8929 C   0  0  0  0  0  0  0  0  0  0  0  0
  -29.0063  -26.0635   19.3720 C   0  0  0  0  0  0  0  0  0  1  0  0
  -22.3200  -30.3678   23.3078 C   0  0  1  0  0  0  0  0  0  0  0  0
  -19.5245  -27.9471   22.4741 C   0  0  2  0  0  0  0  0  0  0  0  0
  -22.2993  -31.1800   24.6334 C   0  0  0  0  0  0  0  0  0  0  0  0
  -25.7585  -10.5701   19.0900 N   0  0  0  0  0  0  0  0  0  0  0  0
  -26.9980  -10.8452   18.6496 N   0  0  0  0  0  0  0  0  0  0  0  0
  -23.8350  -30.8427   21.4096 N   0  0  0  0  0  0  0  0  0  0  0  0
  -26.8078  -14.6550   18.4430 N   0  0  0  0  0  0  0  0  0  0  0  0
  -27.4829  -16.9024   18.8922 N   0  0  0  0  0  0  0  0  0  0  0  0
  -29.1308   -9.8808   18.2862 N   0  0  0  0  0  0  0  0  0  0  0  0
  -26.7050   -6.4507   19.9434 N   0  0  0  0  0  0  0  0  0  0  0  0
  -25.1223  -33.9365   21.0340 N   0  0  0  0  0  0  0  0  0  0  0  0
  -21.0506  -29.7281   22.9791 N   0  0  0  0  0  0  0  0  0  0  0  0
  -28.9148  -23.7714   20.2685 N   0  3  0  0  0  0  0  0  0  0  0  0
  -28.8358  -20.1438   19.7877 N   0  3  0  0  0  0  0  0  0  0  0  0
  -19.5285  -26.7759   21.5526 N   0  3  0  0  0  0  0  0  0  0  0  0
  -28.7779   -7.0682   19.1813 O   0  0  0  0  0  0  0  0  0  0  0  0
  -26.4217  -32.0533   21.4675 O   0  0  0  0  0  0  0  0  0  0  0  0
  -21.9703  -32.1812   21.8192 O   0  0  0  0  0  0  0  0  0  0  0  0
  -21.8715  -27.5609   22.8981 O   0  0  0  0  0  0  0  0  0  0  0  0
  -26.5741  -15.5862   20.5343 O   0  0  0  0  0  0  0  0  0  0  0  0
  -21.3495   -6.6377   21.4662 O   0  0  0  0  0  0  0  0  0  0  0  0
  -28.1183  -26.5099   20.3882 O   0  0  0  0  0  0  0  0  0  1  0  0
  -22.0692   -3.3865   25.8611 F   0  0  0  0  0  0  0  0  0  0  0  0
  -20.0035   -7.1299   23.8302 F   0  0  0  0  0  0  0  0  0  0  0  0
  1  2  1  0  0  0  0
  1  5  2  0  0  0  0
  2  6  2  0  0  0  0
  3  8  2  0  0  0  0
  3 15  1  0  0  0  0
  4  9  1  0  0  0  0
  4 15  2  0  0  0  0
  5 17  1  0  0  0  0
  6 19  1  0  0  0  0
  7 10  2  0  0  0  0
  7 18  1  0  0  0  0
  8 21  1  0  0  0  0
  9 21  2  0  0  0  0
 10 22  1  0  0  0  0
 11 12  2  0  0  0  0
 11 23  1  0  0  0  0
 12 24  1  0  0  0  0
 13 20  1  0  0  0  0
 13 22  2  0  0  0  0
 14 24  2  0  0  0  0
 14 25  1  0  0  0  0
 15 26  1  0  0  0  0
 16 26  1  0  0  0  0
 16 27  2  0  0  0  0
 16 28  1  0  0  0  0
 17 19  2  0  0  0  0
 17 33  1  0  0  0  0
 18 20  2  0  0  0  0
 18 34  1  0  0  0  0
 19 49  1  0  0  0  0
 20 35  1  0  0  0  0
 21 81  1  0  0  0  0
 22 82  1  0  0  0  0
 23 25  2  0  0  0  0
 23 81  1  0  0  0  0
 24 83  1  0  0  0  0
 25 84  1  0  0  0  0
 26 64  2  0  0  0  0
 27 65  1  0  0  0  0
 27 69  1  0  0  0  0
 28 70  1  0  0  0  0
 28 76  2  0  0  0  0
 29 50  1  0  0  0  0
 29 71  1  0  0  0  0
 29 77  2  0  0  0  0
 30 61  1  0  0  0  0
 30 66  1  0  0  0  0
 30 78  2  0  0  0  0
 31 62  1  0  0  0  0
 31 72  1  0  0  0  0
 31 79  2  0  0  0  0
 32 67  1  0  0  0  0
 32 68  1  0  0  0  0
 32 80  2  0  0  0  0
 33 36  1  0  0  0  0
 34 50  1  0  0  0  0
 35 66  1  0  0  0  0
 36 38  1  0  0  0  0
 37 39  1  0  0  0  0
 37 43  1  0  0  0  0
 38 49  1  0  0  0  0
 39 51  1  0  0  0  0
 40 44  1  0  0  0  0
 40 52  1  0  0  0  0
 41 47  1  0  0  0  0
 41 53  1  0  0  0  0
 42 48  1  0  0  0  0
 42 53  1  0  0  0  0
 43 67  1  0  0  0  0
 44 68  1  0  0  0  0
 45 51  1  0  0  0  0
 45 67  1  0  0  0  0
 46 52  1  0  0  0  0
 46 68  1  0  0  0  0
 47 73  1  0  0  0  0
 48 73  1  0  0  0  0
 49 71  1  0  0  0  0
 50 66  1  0  0  0  0
 51 65  1  0  0  0  0
 52 74  1  0  0  0  0
 53 74  1  0  0  0  0
 54 62  1  0  0  0  0
 55 63  1  0  0  0  0
 56 63  1  0  0  0  0
 57 63  1  0  0  0  0
 58 75  1  0  0  0  0
 59 60  1  0  0  0  0
 59 73  1  0  0  0  0
 60 82  1  0  0  0  0
 61 63  1  0  0  0  0
 61 72  1  0  0  0  0
 62 75  1  0  0  0  0
 64 65  1  0  0  0  0
M  CHG  3  73   1  74   1  75   1
M  ISO  4  32 100  60 101  68 100  82 101
M  END
> <Batch ID>
0196

> <Smiles>
CNC(C)C(=O)NC(C(=O)N1Cc2cc([101O:1][101CH2:1]CN3CCC(NC4CC[100N:0]([100C:0](=O)N5CCCC(n6nc(-c7ccc(Oc8ccc(F)cc8F)cc7)c(C(N)=O)c6N)C5)C4)CC3)ccc2CC1C(=O)NC1CCCc2ccccc21)C(C)(C)C

> <Shape>
0.288

> <Color>
0.089

> <Negative vol penalty>
0.000

$$$$

  -OEChem-04052323393D

 85 94  0     1  0  0  0  0  0999 V2000
  -18.2831  -24.0504   22.2784 C   0  0  0  0  0  0  0  0  0  0  0  0
  -19.6485  -23.7859   22.3127 C   0  0  0  0  0  0  0  0  0  0  0  0
  -25.7564  -13.5220   21.6466 C   0  0  0  0  0  0  0  0  0  0  0  0
  -25.3178  -13.6412   19.2738 C   0  0  0  0  0  0  0  0  0  0  0  0
  -17.8264  -25.3648   22.3672 C   0  0  0  0  0  0  0  0  0  0  0  0
  -20.5581  -24.8358   22.4348 C   0  0  0  0  0  0  0  0  0  0  0  0
  -24.2071  -23.8624   25.8085 C   0  0  0  0  0  0  0  0  0  0  0  0
  -25.2458  -12.2243   21.6759 C   0  0  0  0  0  0  0  0  0  0  0  0
  -24.8071  -12.3435   19.3030 C   0  0  0  0  0  0  0  0  0  0  0  0
  -25.2426  -23.0222   25.4018 C   0  0  0  0  0  0  0  0  0  0  0  0
  -26.2989   -9.1143   20.8688 C   0  0  0  0  0  0  0  0  0  0  0  0
  -27.0183   -8.1503   21.5751 C   0  0  0  0  0  0  0  0  0  0  0  0
  -26.6391  -24.9476   24.9999 C   0  0  0  0  0  0  0  0  0  0  0  0
  -25.1124   -7.7816   23.0133 C   0  0  0  0  0  0  0  0  0  0  0  0
  -25.7924  -14.2305   20.4456 C   0  0  0  0  0  0  0  0  0  0  0  0
  -27.6544  -15.9549   20.1871 C   0  0  0  0  0  0  0  0  0  0  0  0
  -18.7304  -26.4305   22.5002 C   0  0  0  0  0  0  0  0  0  0  0  0
  -24.3764  -25.2544   25.8036 C   0  0  0  0  0  0  0  0  0  0  0  0
  -20.1131  -26.1657   22.5241 C   0  0  0  0  0  0  0  0  0  0  0  0
  -25.6051  -25.8033   25.4095 C   0  0  0  0  0  0  0  0  0  0  0  0
  -24.7712  -11.6350   20.5041 C   0  0  0  0  0  0  0  0  0  0  0  0
  -26.4579  -23.5648   24.9947 C   0  0  0  0  0  0  0  0  0  0  0  0
  -24.9862   -9.4120   21.2349 C   0  0  0  0  0  0  0  0  0  0  0  0
  -26.4251   -7.4839   22.6473 C   0  0  0  0  0  0  0  0  0  0  0  0
  -24.3930   -8.7456   22.3071 C   0  0  0  0  0  0  0  0  0  0  0  0
  -26.3192  -15.5712   20.4149 C   0  0  0  0  0  0  0  0  0  0  0  0
  -27.6345  -17.3264   20.2588 C   0  0  0  0  0  0  0  0  0  0  0  0
  -28.0752  -23.8271   18.8484 C   0  0  0  0  0  0  0  0  0  0  0  0
  -29.1058  -25.5554   19.8420 C   0  0  0  0  0  0  0  0  0  0  0  0
  -29.3317  -23.4841   20.6761 C   0  0  0  0  0  0  0  0  0  0  0  0
  -28.8094  -15.1441   19.9333 C   0  0  0  0  0  0  0  0  0  0  0  0
  -22.9871  -27.6778   24.2867 C   0  0  0  0  0  0  0  0  0  0  0  0
  -24.8693  -29.4653   26.2320 C   0  0  0  0  0  0  0  0  0  0  0  0
  -27.6895  -29.6741   28.1425 C   0  0  0  0  0  0  0  0  0  0  0  0
  -25.3532  -22.2123   19.0682 C   0  0  0  0  0  0  0  0  0  0  0  0
  -18.1914  -27.8383   22.5451 C   0  0  0  0  0  0  0  0  0  0  0  0
  -23.2587  -26.1460   26.2707 C   0  0  0  0  0  0  0  0  0  0  0  0
  -25.8445  -27.2903   25.4053 C   0  0  0  0  0  0  0  0  0  0  0  0
  -19.2046  -28.8627   23.0495 C   0  0  0  0  0  0  0  0  0  0  0  0
  -27.1279  -21.7101   15.9461 C   0  0  0  0  0  0  0  0  0  0  0  0
  -24.0478  -20.5086   21.8292 C   0  0  0  0  0  0  0  0  0  0  0  0
  -20.5531  -28.6611   22.3656 C   0  0  0  0  0  0  0  0  0  0  0  0
  -27.9817  -22.8333   16.5208 C   0  0  0  0  0  0  0  0  0  0  0  0
  -24.6091  -19.0948   21.6913 C   0  0  0  0  0  0  0  0  0  0  0  0
  -23.6614  -21.0741   20.4682 C   0  0  0  0  0  0  0  0  0  0  0  0
  -26.5954  -21.0196   17.1922 C   0  0  0  0  0  0  0  0  0  0  0  0
  -25.3738  -19.6886   19.3365 C   0  0  0  0  0  0  0  0  0  0  0  0
  -21.1298  -27.2756   22.6806 C   0  0  1  0  0  0  0  0  0  0  0  0
  -27.1855  -23.2883   17.7511 C   0  0  1  0  0  0  0  0  0  0  0  0
  -23.3678  -27.5708   25.7363 C   0  0  1  0  0  0  0  0  0  0  0  0
  -25.7751  -19.0656   20.6893 C   0  0  2  0  0  0  0  0  0  0  0  0
  -29.4146  -27.0126   19.9033 C   0  0  0  0  0  0  0  0  0  0  0  0
  -28.9809  -31.2751   29.5800 C   0  0  0  0  0  0  0  0  0  0  0  0
  -25.8992  -30.8768   23.7306 C   0  0  0  0  0  0  0  0  0  0  0  0
  -27.8092  -31.7493   25.0940 C   0  0  0  0  0  0  0  0  0  0  0  0
  -25.4690  -32.3862   25.6777 C   0  0  0  0  0  0  0  0  0  0  0  0
  -27.3849  -27.9552   30.5323 C   0  0  0  0  0  0  0  0  0  0  0  0
  -29.9002  -22.5582   21.6969 C   0  0  0  0  0  0  0  0  0  0  0  0
  -28.8978  -22.1089   22.7721 C   0  0  0  0  0  0  0  0  0  0  0  0
  -28.3771  -23.2610   23.6235 C   0  0  0  0  0  0  0  0  0  1  0  0
  -26.2656  -30.0322   26.1428 C   0  0  1  0  0  0  0  0  0  0  0  0
  -27.9153  -30.1905   29.5520 C   0  0  2  0  0  0  0  0  0  0  0  0
  -26.3559  -31.2331   25.1594 C   0  0  0  0  0  0  0  0  0  0  0  0
  -25.5101  -16.6146   20.6163 N   0  0  0  0  0  0  0  0  0  0  0  0
  -28.3093  -25.1494   18.8403 N   0  0  0  0  0  0  0  0  0  0  0  0
  -28.5508  -22.9347   19.7319 N   0  0  0  0  0  0  0  0  0  0  0  0
  -29.6525  -24.7826   20.7943 N   0  0  0  0  0  0  0  0  0  0  0  0
  -26.3392  -17.6675   20.5155 N   0  0  0  0  0  0  0  0  0  0  0  0
  -24.7189  -28.1206   25.8646 N   0  0  0  0  0  0  0  0  0  0  0  0
  -24.7812  -21.0192   19.5278 N   0  0  0  0  0  0  0  0  0  0  0  0
  -26.4042  -22.1082   18.1525 N   0  0  0  0  0  0  0  0  0  0  0  0
  -28.5989  -18.2617   20.1268 N   0  0  0  0  0  0  0  0  0  0  0  0
  -28.6526  -13.7519   19.8931 N   0  0  0  0  0  0  0  0  0  0  0  0
  -21.7005  -27.2561   24.0104 N   0  0  0  0  0  0  0  0  0  0  0  0
  -26.6662  -30.3477   27.5097 N   0  0  0  0  0  0  0  0  0  0  0  0
  -28.3506  -29.0808   30.4466 N   0  3  0  0  0  0  0  0  0  0  0  0
  -29.9496  -15.6386   19.7640 O   0  0  0  0  0  0  0  0  0  0  0  0
  -23.7998  -28.1122   23.4791 O   0  0  0  0  0  0  0  0  0  0  0  0
  -23.9474  -30.1869   26.6205 O   0  0  0  0  0  0  0  0  0  0  0  0
  -28.3568  -28.7668   27.6506 O   0  0  0  0  0  0  0  0  0  0  0  0
  -24.9330  -23.3157   19.4394 O   0  0  0  0  0  0  0  0  0  0  0  0
  -24.2730  -10.3687   20.5322 O   0  0  0  0  0  0  0  0  0  0  0  0
  -27.4772  -22.7412   24.5938 O   0  0  0  0  0  0  0  0  0  1  0  0
  -27.1155   -6.5572   23.3244 F   0  0  0  0  0  0  0  0  0  0  0  0
  -23.1318   -9.0265   22.6626 F   0  0  0  0  0  0  0  0  0  0  0  0
  1  2  1  0  0  0  0
  1  5  2  0  0  0  0
  2  6  2  0  0  0  0
  3  8  2  0  0  0  0
  3 15  1  0  0  0  0
  4  9  1  0  0  0  0
  4 15  2  0  0  0  0
  5 17  1  0  0  0  0
  6 19  1  0  0  0  0
  7 10  2  0  0  0  0
  7 18  1  0  0  0  0
  8 21  1  0  0  0  0
  9 21  2  0  0  0  0
 10 22  1  0  0  0  0
 11 12  2  0  0  0  0
 11 23  1  0  0  0  0
 12 24  1  0  0  0  0
 13 20  1  0  0  0  0
 13 22  2  0  0  0  0
 14 24  2  0  0  0  0
 14 25  1  0  0  0  0
 15 26  1  0  0  0  0
 16 26  1  0  0  0  0
 16 27  2  0  0  0  0
 16 31  1  0  0  0  0
 17 19  2  0  0  0  0
 17 36  1  0  0  0  0
 18 20  2  0  0  0  0
 18 37  1  0  0  0  0
 19 48  1  0  0  0  0
 20 38  1  0  0  0  0
 21 82  1  0  0  0  0
 22 83  1  0  0  0  0
 23 25  2  0  0  0  0
 23 82  1  0  0  0  0
 24 84  1  0  0  0  0
 25 85  1  0  0  0  0
 26 64  2  0  0  0  0
 27 68  1  0  0  0  0
 27 72  1  0  0  0  0
 28 49  1  0  0  0  0
 28 65  2  0  0  0  0
 28 66  1  0  0  0  0
 29 52  1  0  0  0  0
 29 65  1  0  0  0  0
 29 67  2  0  0  0  0
 30 58  1  0  0  0  0
 30 66  2  0  0  0  0
 30 67  1  0  0  0  0
 31 73  1  0  0  0  0
 31 77  2  0  0  0  0
 32 50  1  0  0  0  0
 32 74  1  0  0  0  0
 32 78  2  0  0  0  0
 33 61  1  0  0  0  0
 33 69  1  0  0  0  0
 33 79  2  0  0  0  0
 34 62  1  0  0  0  0
 34 75  1  0  0  0  0
 34 80  2  0  0  0  0
 35 70  1  0  0  0  0
 35 71  1  0  0  0  0
 35 81  2  0  0  0  0
 36 39  1  0  0  0  0
 37 50  1  0  0  0  0
 38 69  1  0  0  0  0
 39 42  1  0  0  0  0
 40 43  1  0  0  0  0
 40 46  1  0  0  0  0
 41 44  1  0  0  0  0
 41 45  1  0  0  0  0
 42 48  1  0  0  0  0
 43 49  1  0  0  0  0
 44 51  1  0  0  0  0
 45 70  1  0  0  0  0
 46 71  1  0  0  0  0
 47 51  1  0  0  0  0
 47 70  1  0  0  0  0
 48 74  1  0  0  0  0
 49 71  1  0  0  0  0
 50 69  1  0  0  0  0
 51 68  1  0  0  0  0
 53 62  1  0  0  0  0
 54 63  1  0  0  0  0
 55 63  1  0  0  0  0
 56 63  1  0  0  0  0
 57 76  1  0  0  0  0
 58 59  1  0  0  0  0
 59 60  1  0  0  0  0
 60 83  1  0  0  0  0
 61 63  1  0  0  0  0
 61 75  1  0  0  0  0
 62 76  1  0  0  0  0
 64 68  1  0  0  0  0
M  CHG  1  76   1
M  ISO  4  35 100  60 101  71 100  83 101
M  END
> <Batch ID>
0196

> <Smiles>
CNC(C)C(=O)NC(C(=O)N1Cc2cc([101O:1][101CH2:1]CCc3nc(C)nc(C4CCC[100N:0]4[100C:0](=O)N4CCCC(n5nc(-c6ccc(Oc7ccc(F)cc7F)cc6)c(C(N)=O)c5N)C4)n3)ccc2CC1C(=O)NC1CCCc2ccccc21)C(C)(C)C

> <Shape>
0.201

> <Color>
0.069

> <Negative vol penalty>
0.000

$$$$

  -OEChem-04052323393D

 89 99  0     1  0  0  0  0  0999 V2000
  -24.8788  -31.2461    9.7110 C   0  0  0  0  0  0  0  0  0  0  0  0
  -25.7097  -30.1648    9.9867 C   0  0  0  0  0  0  0  0  0  0  0  0
  -23.0634   -9.8524   19.9616 C   0  0  0  0  0  0  0  0  0  0  0  0
  -23.9532   -9.8296   22.2076 C   0  0  0  0  0  0  0  0  0  0  0  0
  -24.3845  -32.0276   10.7545 C   0  0  0  0  0  0  0  0  0  0  0  0
  -26.0477  -29.8652   11.3059 C   0  0  0  0  0  0  0  0  0  0  0  0
  -27.5174  -24.2963   15.5654 C   0  0  0  0  0  0  0  0  0  0  0  0
  -22.3649   -8.6744   20.2264 C   0  0  0  0  0  0  0  0  0  0  0  0
  -23.2547   -8.6517   22.4725 C   0  0  0  0  0  0  0  0  0  0  0  0
  -28.4885  -23.8530   16.4622 C   0  0  0  0  0  0  0  0  0  0  0  0
  -20.0879   -7.7543   23.2385 C   0  0  0  0  0  0  0  0  0  0  0  0
  -19.4007   -7.6684   24.4493 C   0  0  0  0  0  0  0  0  0  0  0  0
  -27.5115  -25.2251   18.1891 C   0  0  0  0  0  0  0  0  0  0  0  0
  -20.7316   -5.7494   25.0685 C   0  0  0  0  0  0  0  0  0  0  0  0
  -23.8576  -10.4300   20.9522 C   0  0  0  0  0  0  0  0  0  0  0  0
  -24.1272  -12.9654   20.8720 C   0  0  0  0  0  0  0  0  0  0  0  0
  -24.7088  -31.7316   12.0878 C   0  0  0  0  0  0  0  0  0  0  0  0
  -26.5409  -25.2172   15.9715 C   0  0  0  0  0  0  0  0  0  0  0  0
  -25.5583  -30.6444   12.3681 C   0  0  0  0  0  0  0  0  0  0  0  0
  -26.5276  -25.6765   17.2963 C   0  0  0  0  0  0  0  0  0  0  0  0
  -22.4605   -8.0741   21.4818 C   0  0  0  0  0  0  0  0  0  0  0  0
  -28.4874  -24.3196   17.7734 C   0  0  0  0  0  0  0  0  0  0  0  0
  -21.0970   -6.8377   22.9427 C   0  0  0  0  0  0  0  0  0  0  0  0
  -19.7225   -6.6660   25.3643 C   0  0  0  0  0  0  0  0  0  0  0  0
  -21.4188   -5.8353   23.8577 C   0  0  0  0  0  0  0  0  0  0  0  0
  -24.5799  -11.6465   20.6791 C   0  0  0  0  0  0  0  0  0  0  0  0
  -25.1771  -13.7518   20.4649 C   0  0  0  0  0  0  0  0  0  0  0  0
  -33.0495  -23.0526   20.6147 C   0  0  0  0  0  0  0  0  0  0  0  0
  -32.0186  -21.0658   20.7776 C   0  0  0  0  0  0  0  0  0  0  0  0
  -31.3260  -22.5683   19.2611 C   0  0  0  0  0  0  0  0  0  0  0  0
  -22.8700  -13.4376   21.3744 C   0  0  0  0  0  0  0  0  0  0  0  0
  -25.7449  -28.1704   15.1062 C   0  0  0  0  0  0  0  0  0  0  0  0
  -23.2776  -27.6881   17.1561 C   0  0  0  0  0  0  0  0  0  0  0  0
  -22.0422  -26.0104   19.8591 C   0  0  0  0  0  0  0  0  0  0  0  0
  -30.7951  -14.5816   20.7969 C   0  0  0  0  0  0  0  0  0  0  0  0
  -24.1886  -32.6337   13.1789 C   0  0  0  0  0  0  0  0  0  0  0  0
  -25.4842  -25.6651   14.9993 C   0  0  0  0  0  0  0  0  0  0  0  0
  -25.4888  -26.6502   17.7876 C   0  0  0  0  0  0  0  0  0  0  0  0
  -24.2914  -32.0235   14.5744 C   0  0  0  0  0  0  0  0  0  0  0  0
  -29.4199  -12.5893   17.9897 C   0  0  0  0  0  0  0  0  0  0  0  0
  -25.6703  -31.4069   14.7871 C   0  0  0  0  0  0  0  0  0  0  0  0
  -34.1716  -24.3786   22.5269 C   0  0  0  0  0  0  0  0  0  0  0  0
  -33.7110  -25.3822   21.5166 C   0  0  0  0  0  0  0  0  0  0  0  0
  -28.0290  -12.2167   18.4997 C   0  0  0  0  0  0  0  0  0  0  0  0
  -31.4848  -17.3399   22.7852 C   0  0  0  0  0  0  0  0  0  0  0  0
  -29.4297  -17.7763   21.3822 C   0  0  0  0  0  0  0  0  0  0  0  0
  -30.4058  -12.7993   19.1347 C   0  0  0  0  0  0  0  0  0  0  0  0
  -31.0617  -15.8772   22.8911 C   0  0  0  0  0  0  0  0  0  0  0  0
  -29.0602  -16.2942   21.4942 C   0  0  0  0  0  0  0  0  0  0  0  0
  -28.5568  -13.4204   20.6571 C   0  0  0  0  0  0  0  0  0  0  0  0
  -25.9275  -30.2726   13.7878 C   0  0  1  0  0  0  0  0  0  0  0  0
  -34.1081  -23.9996   21.0708 C   0  0  0  0  0  0  0  0  0  0  0  0
  -24.8470  -26.9975   15.3814 C   0  0  1  0  0  0  0  0  0  0  0  0
  -27.5295  -13.2455   19.5286 C   0  0  2  0  0  0  0  0  0  0  0  0
  -30.2596  -18.2287   22.5818 C   0  0  0  0  0  0  0  0  0  0  0  0
  -20.0104  -25.8598   21.3241 C   0  0  0  0  0  0  0  0  0  0  0  0
  -24.0948  -30.2756   18.5514 C   0  0  0  0  0  0  0  0  0  0  0  0
  -22.6876  -29.5855   20.5037 C   0  0  0  0  0  0  0  0  0  0  0  0
  -21.6275  -29.9716   18.2789 C   0  0  0  0  0  0  0  0  0  0  0  0
  -21.5841  -23.1787   19.1306 C   0  0  0  0  0  0  0  0  0  0  0  0
  -30.9760  -20.3584   23.6550 C   0  0  0  0  0  0  0  0  0  0  0  0
  -31.8859  -19.7197   21.4268 C   0  0  0  0  0  0  0  0  0  0  0  0
  -30.3993  -22.9592   18.1606 C   0  0  0  0  0  0  0  0  0  1  0  0
  -23.0539  -27.9143   18.6319 C   0  0  1  0  0  0  0  0  0  0  0  0
  -20.7136  -25.3137   20.0912 C   0  0  2  0  0  0  0  0  0  0  0  0
  -22.8868  -29.4199   18.9820 C   0  0  0  0  0  0  0  0  0  0  0  0
  -25.8207  -11.5939   20.1876 N   0  0  0  0  0  0  0  0  0  0  0  0
  -32.9924  -21.8659   21.2407 N   0  0  0  0  0  0  0  0  0  0  0  0
  -32.2520  -23.4724   19.6192 N   0  0  0  0  0  0  0  0  0  0  0  0
  -31.1498  -21.3483   19.7936 N   0  0  0  0  0  0  0  0  0  0  0  0
  -26.1566  -12.8896   20.0681 N   0  0  0  0  0  0  0  0  0  0  0  0
  -24.4805  -27.0633   16.7976 N   0  0  0  0  0  0  0  0  0  0  0  0
  -29.8889  -13.7450   20.1241 N   0  0  0  0  0  0  0  0  0  0  0  0
  -30.2573  -15.4752   21.7356 N   0  0  0  0  0  0  0  0  0  0  0  0
  -25.3488  -15.0897   20.4112 N   0  0  0  0  0  0  0  0  0  0  0  0
  -21.9028  -12.4943   21.7472 N   0  0  0  0  0  0  0  0  0  0  0  0
  -25.2292  -29.0722   14.1950 N   0  0  0  0  0  0  0  0  0  0  0  0
  -21.9133  -27.0842   19.0038 N   0  0  0  0  0  0  0  0  0  0  0  0
  -20.9220  -23.8500   20.2787 N   0  3  0  0  0  0  0  0  0  0  0  0
  -30.7067  -19.6286   22.3628 N   0  3  1  0  0  0  0  0  0  0  0  0
  -22.6060  -14.6598   21.4738 O   0  0  0  0  0  0  0  0  0  0  0  0
  -26.8249  -28.2520   15.6794 O   0  0  0  0  0  0  0  0  0  0  0  0
  -22.4136  -28.0459   16.3517 O   0  0  0  0  0  0  0  0  0  0  0  0
  -23.0890  -25.6413   20.3869 O   0  0  0  0  0  0  0  0  0  0  0  0
  -32.0105  -14.5335   20.5698 O   0  0  0  0  0  0  0  0  0  0  0  0
  -21.7789   -6.9248   21.7406 O   0  0  0  0  0  0  0  0  0  0  0  0
  -29.4411  -23.8861   18.6566 O   0  0  0  0  0  0  0  0  0  1  0  0
  -19.0635   -6.5845   26.5276 F   0  0  0  0  0  0  0  0  0  0  0  0
  -22.3880   -4.9526   23.5797 F   0  0  0  0  0  0  0  0  0  0  0  0
  1  2  1  0  0  0  0
  1  5  2  0  0  0  0
  2  6  2  0  0  0  0
  3  8  2  0  0  0  0
  3 15  1  0  0  0  0
  4  9  1  0  0  0  0
  4 15  2  0  0  0  0
  5 17  1  0  0  0  0
  6 19  1  0  0  0  0
  7 10  2  0  0  0  0
  7 18  1  0  0  0  0
  8 21  1  0  0  0  0
  9 21  2  0  0  0  0
 10 22  1  0  0  0  0
 11 12  2  0  0  0  0
 11 23  1  0  0  0  0
 12 24  1  0  0  0  0
 13 20  1  0  0  0  0
 13 22  2  0  0  0  0
 14 24  2  0  0  0  0
 14 25  1  0  0  0  0
 15 26  1  0  0  0  0
 16 26  1  0  0  0  0
 16 27  2  0  0  0  0
 16 31  1  0  0  0  0
 17 19  2  0  0  0  0
 17 36  1  0  0  0  0
 18 20  2  0  0  0  0
 18 37  1  0  0  0  0
 19 51  1  0  0  0  0
 20 38  1  0  0  0  0
 21 86  1  0  0  0  0
 22 87  1  0  0  0  0
 23 25  2  0  0  0  0
 23 86  1  0  0  0  0
 24 88  1  0  0  0  0
 25 89  1  0  0  0  0
 26 67  2  0  0  0  0
 27 71  1  0  0  0  0
 27 75  1  0  0  0  0
 28 52  1  0  0  0  0
 28 68  2  0  0  0  0
 28 69  1  0  0  0  0
 29 62  1  0  0  0  0
 29 68  1  0  0  0  0
 29 70  2  0  0  0  0
 30 63  1  0  0  0  0
 30 69  2  0  0  0  0
 30 70  1  0  0  0  0
 31 76  1  0  0  0  0
 31 81  2  0  0  0  0
 32 53  1  0  0  0  0
 32 77  1  0  0  0  0
 32 82  2  0  0  0  0
 33 64  1  0  0  0  0
 33 72  1  0  0  0  0
 33 83  2  0  0  0  0
 34 65  1  0  0  0  0
 34 78  1  0  0  0  0
 34 84  2  0  0  0  0
 35 73  1  0  0  0  0
 35 74  1  0  0  0  0
 35 85  2  0  0  0  0
 36 39  1  0  0  0  0
 37 53  1  0  0  0  0
 38 72  1  0  0  0  0
 39 41  1  0  0  0  0
 40 44  1  0  0  0  0
 40 47  1  0  0  0  0
 41 51  1  0  0  0  0
 42 43  1  0  0  0  0
 42 52  1  0  0  0  0
 43 52  1  0  0  0  0
 44 54  1  0  0  0  0
 45 48  1  0  0  0  0
 45 55  1  0  0  0  0
 46 49  1  0  0  0  0
 46 55  1  0  0  0  0
 47 73  1  0  0  0  0
 48 74  1  0  0  0  0
 49 74  1  0  0  0  0
 50 54  1  0  0  0  0
 50 73  1  0  0  0  0
 51 77  1  0  0  0  0
 53 72  1  0  0  0  0
 54 71  1  0  0  0  0
 55 80  1  0  0  0  0
 56 65  1  0  0  0  0
 57 66  1  0  0  0  0
 58 66  1  0  0  0  0
 59 66  1  0  0  0  0
 60 79  1  0  0  0  0
 61 80  1  0  0  0  0
 62 80  1  0  0  0  0
 63 87  1  0  0  0  0
 64 66  1  0  0  0  0
 64 78  1  0  0  0  0
 65 79  1  0  0  0  0
 67 71  1  0  0  0  0
M  CHG  2  79   1  80   1
M  ISO  4  35 100  63 101  74 100  87 101
M  END
> <Batch ID>
0196

> <Smiles>
CNC(C)C(=O)NC(C(=O)N1Cc2cc([101O:1][101CH2:1]c3nc(CN(C)C4CC[100N:0]([100C:0](=O)N5CCCC(n6nc(-c7ccc(Oc8ccc(F)cc8F)cc7)c(C(N)=O)c6N)C5)CC4)nc(C4CC4)n3)ccc2CC1C(=O)NC1CCCc2ccccc21)C(C)(C)C

> <Shape>
0.235

> <Color>
0.179

> <Negative vol penalty>
0.000

$$$$

  -OEChem-04052323393D

 89 99  0     1  0  0  0  0  0999 V2000
  -28.1306  -36.7518   27.4711 C   0  0  0  0  0  0  0  0  0  0  0  0
  -27.0165  -35.9994   27.8291 C   0  0  0  0  0  0  0  0  0  0  0  0
  -22.8582  -10.0891   21.9076 C   0  0  0  0  0  0  0  0  0  0  0  0
  -24.1437   -9.2255   20.0531 C   0  0  0  0  0  0  0  0  0  0  0  0
  -28.3822  -37.0267   26.1276 C   0  0  0  0  0  0  0  0  0  0  0  0
  -26.1527  -35.5225   26.8438 C   0  0  0  0  0  0  0  0  0  0  0  0
  -21.8837  -29.9598   25.3782 C   0  0  0  0  0  0  0  0  0  0  0  0
  -22.2135   -8.8586   22.0338 C   0  0  0  0  0  0  0  0  0  0  0  0
  -23.4990   -7.9950   20.1793 C   0  0  0  0  0  0  0  0  0  0  0  0
  -20.5730  -29.6798   24.9941 C   0  0  0  0  0  0  0  0  0  0  0  0
  -22.8913   -5.8135   23.3380 C   0  0  0  0  0  0  0  0  0  0  0  0
  -22.7485   -5.2851   24.6209 C   0  0  0  0  0  0  0  0  0  0  0  0
  -21.1512  -30.1499   22.6998 C   0  0  0  0  0  0  0  0  0  0  0  0
  -20.4901  -24.4493   21.6835 C   0  0  0  0  0  0  0  0  0  0  0  0
  -20.3466   -5.3029   24.3609 C   0  0  0  0  0  0  0  0  0  0  0  0
  -23.8233  -10.2725   20.9172 C   0  0  0  0  0  0  0  0  0  0  0  0
  -25.6782  -11.9498   21.4208 C   0  0  0  0  0  0  0  0  0  0  0  0
  -27.5263  -36.5448   25.1246 C   0  0  0  0  0  0  0  0  0  0  0  0
  -22.8369  -30.3481   24.4258 C   0  0  0  0  0  0  0  0  0  0  0  0
  -26.3924  -35.7924   25.4857 C   0  0  0  0  0  0  0  0  0  0  0  0
  -22.4739  -30.4318   23.0740 C   0  0  0  0  0  0  0  0  0  0  0  0
  -19.3850  -25.2594   21.4525 C   0  0  0  0  0  0  0  0  0  0  0  0
  -22.5339   -7.8116   21.1697 C   0  0  0  0  0  0  0  0  0  0  0  0
  -20.2058  -29.7777   23.6552 C   0  0  0  0  0  0  0  0  0  0  0  0
  -21.7618   -6.0868   22.5665 C   0  0  0  0  0  0  0  0  0  0  0  0
  -21.4762   -5.0297   25.1324 C   0  0  0  0  0  0  0  0  0  0  0  0
  -20.4894   -5.8314   23.0779 C   0  0  0  0  0  0  0  0  0  0  0  0
  -24.4892  -11.5435   20.7860 C   0  0  0  0  0  0  0  0  0  0  0  0
  -18.7823  -25.1951   20.2002 C   0  0  0  0  0  0  0  0  0  0  0  0
  -20.9370  -23.6462   20.6548 C   0  0  0  0  0  0  0  0  0  0  0  0
  -25.8884  -13.2298   20.9692 C   0  0  0  0  0  0  0  0  0  0  0  0
  -26.5177  -11.2341   22.3366 C   0  0  0  0  0  0  0  0  0  0  0  0
  -24.6015  -32.9488   23.9496 C   0  0  0  0  0  0  0  0  0  0  0  0
  -25.9357  -31.1406   21.6102 C   0  0  0  0  0  0  0  0  0  0  0  0
  -25.6290  -28.5249   19.4397 C   0  0  0  0  0  0  0  0  0  0  0  0
  -24.2640  -18.2047   19.7786 C   0  0  0  0  0  0  0  0  0  0  0  0
  -27.8134  -36.9077   23.6892 C   0  0  0  0  0  0  0  0  0  0  0  0
  -24.2532  -30.6208   24.8525 C   0  0  0  0  0  0  0  0  0  0  0  0
  -23.4646  -30.8249   22.0098 C   0  0  0  0  0  0  0  0  0  0  0  0
  -18.8303  -26.1259   22.5443 C   0  0  0  0  0  0  0  0  0  0  0  0
  -17.6023  -26.0638   19.8635 C   0  0  0  0  0  0  0  0  0  0  0  0
  -27.0551  -36.0488   22.6804 C   0  0  0  0  0  0  0  0  0  0  0  0
  -23.6555  -15.8340   17.2610 C   0  0  0  0  0  0  0  0  0  0  0  0
  -25.5886  -35.9242   23.0811 C   0  0  0  0  0  0  0  0  0  0  0  0
  -23.9146  -14.5256   18.0073 C   0  0  0  0  0  0  0  0  0  0  0  0
  -21.7646  -20.6827   19.8092 C   0  0  0  0  0  0  0  0  0  0  0  0
  -24.0583  -21.6283   20.2701 C   0  0  0  0  0  0  0  0  0  0  0  0
  -22.9040  -16.8479   18.1256 C   0  0  0  0  0  0  0  0  0  0  0  0
  -22.3966  -19.6556   18.8651 C   0  0  0  0  0  0  0  0  0  0  0  0
  -24.6395  -20.6047   19.2987 C   0  0  0  0  0  0  0  0  0  0  0  0
  -23.8036  -15.8042   20.1798 C   0  0  0  0  0  0  0  0  0  0  0  0
  -16.8456  -26.5549   21.0925 C   0  0  0  0  0  0  0  0  0  0  0  0
  -25.4456  -35.2365   24.4442 C   0  0  1  0  0  0  0  0  0  0  0  0
  -25.0135  -31.5060   23.8698 C   0  0  1  0  0  0  0  0  0  0  0  0
  -24.6085  -14.7870   19.3560 C   0  0  1  0  0  0  0  0  0  0  0  0
  -22.6089  -21.9558   19.9016 C   0  0  0  0  0  0  0  0  0  0  0  0
  -26.8711  -27.3136   17.6267 C   0  0  0  0  0  0  0  0  0  0  0  0
  -25.3305  -33.4209   19.6754 C   0  0  0  0  0  0  0  0  0  0  0  0
  -25.6996  -31.8218   17.7847 C   0  0  0  0  0  0  0  0  0  0  0  0
  -27.5658  -32.3462   19.3547 C   0  0  0  0  0  0  0  0  0  0  0  0
  -25.6060  -25.9860   20.9603 C   0  0  0  0  0  0  0  0  0  0  0  0
  -17.1597  -27.8715   23.1962 C   0  0  0  0  0  0  0  0  0  0  0  0
  -18.2084  -28.5503   24.0550 C   0  0  0  0  0  0  0  0  0  1  0  0
  -25.6477  -30.9025   20.1476 C   0  0  1  0  0  0  0  0  0  0  0  0
  -26.5607  -27.3715   19.1143 C   0  0  2  0  0  0  0  0  0  0  0  0
  -26.0415  -32.1173   19.2607 C   0  0  0  0  0  0  0  0  0  0  0  0
  -23.9796  -12.4889   19.9919 N   0  0  0  0  0  0  0  0  0  0  0  0
  -19.2580  -24.3982   19.2147 N   0  0  0  0  0  0  0  0  0  0  0  0
  -20.3460  -23.6122   19.4446 N   0  0  0  0  0  0  0  0  0  0  0  0
  -24.8526  -13.5020   20.1247 N   0  0  0  0  0  0  0  0  0  0  0  0
  -24.8355  -31.0876   22.4778 N   0  0  0  0  0  0  0  0  0  0  0  0
  -23.5810  -17.0340   19.4165 N   0  0  0  0  0  0  0  0  0  0  0  0
  -23.7994  -19.4086   19.2284 N   0  0  0  0  0  0  0  0  0  0  0  0
  -26.8563  -14.1379   21.2163 N   0  0  0  0  0  0  0  0  0  0  0  0
  -26.1553   -9.9284   22.6944 N   0  0  0  0  0  0  0  0  0  0  0  0
  -22.0397  -22.8445   20.8906 N   0  0  0  0  0  0  0  0  0  0  0  0
  -25.6232  -33.8065   24.3099 N   0  0  0  0  0  0  0  0  0  0  0  0
  -26.3263  -29.6602   19.7948 N   0  0  0  0  0  0  0  0  0  0  0  0
  -17.8349  -27.1611   22.0580 N   0  3  1  0  0  0  0  0  0  0  0  0
  -25.9419  -26.0766   19.5161 N   0  3  0  0  0  0  0  0  0  0  0  0
  -27.5496  -11.7435   22.8359 O   0  0  0  0  0  0  0  0  0  0  0  0
  -23.4428  -33.2609   23.7013 O   0  0  0  0  0  0  0  0  0  0  0  0
  -27.0951  -31.3582   21.9707 O   0  0  0  0  0  0  0  0  0  0  0  0
  -24.4050  -28.4295   19.3809 O   0  0  0  0  0  0  0  0  0  0  0  0
  -25.2321  -18.1763   20.5487 O   0  0  0  0  0  0  0  0  0  0  0  0
  -21.9052   -6.6107   21.2927 O   0  0  0  0  0  0  0  0  0  0  0  0
  -18.9178  -29.5036   23.2750 O   0  0  0  0  0  0  0  0  0  1  0  0
  -21.3392   -4.5208   26.3638 F   0  0  0  0  0  0  0  0  0  0  0  0
  -19.4006   -6.0907   22.3410 F   0  0  0  0  0  0  0  0  0  0  0  0
  1  2  1  0  0  0  0
  1  5  2  0  0  0  0
  2  6  2  0  0  0  0
  3  8  2  0  0  0  0
  3 16  1  0  0  0  0
  4  9  1  0  0  0  0
  4 16  2  0  0  0  0
  5 18  1  0  0  0  0
  6 20  1  0  0  0  0
  7 10  2  0  0  0  0
  7 19  1  0  0  0  0
  8 23  1  0  0  0  0
  9 23  2  0  0  0  0
 10 24  1  0  0  0  0
 11 12  2  0  0  0  0
 11 25  1  0  0  0  0
 12 26  1  0  0  0  0
 13 21  1  0  0  0  0
 13 24  2  0  0  0  0
 14 22  1  0  0  0  0
 14 30  2  0  0  0  0
 15 26  2  0  0  0  0
 15 27  1  0  0  0  0
 16 28  1  0  0  0  0
 17 28  1  0  0  0  0
 17 31  2  0  0  0  0
 17 32  1  0  0  0  0
 18 20  2  0  0  0  0
 18 37  1  0  0  0  0
 19 21  2  0  0  0  0
 19 38  1  0  0  0  0
 20 53  1  0  0  0  0
 21 39  1  0  0  0  0
 22 29  2  0  0  0  0
 22 40  1  0  0  0  0
 23 86  1  0  0  0  0
 24 87  1  0  0  0  0
 25 27  2  0  0  0  0
 25 86  1  0  0  0  0
 26 88  1  0  0  0  0
 27 89  1  0  0  0  0
 28 67  2  0  0  0  0
 29 41  1  0  0  0  0
 29 68  1  0  0  0  0
 30 69  1  0  0  0  0
 30 76  1  0  0  0  0
 31 70  1  0  0  0  0
 31 74  1  0  0  0  0
 32 75  1  0  0  0  0
 32 81  2  0  0  0  0
 33 54  1  0  0  0  0
 33 77  1  0  0  0  0
 33 82  2  0  0  0  0
 34 64  1  0  0  0  0
 34 71  1  0  0  0  0
 34 83  2  0  0  0  0
 35 65  1  0  0  0  0
 35 78  1  0  0  0  0
 35 84  2  0  0  0  0
 36 72  1  0  0  0  0
 36 73  1  0  0  0  0
 36 85  2  0  0  0  0
 37 42  1  0  0  0  0
 38 54  1  0  0  0  0
 39 71  1  0  0  0  0
 40 79  1  0  0  0  0
 41 52  1  0  0  0  0
 42 44  1  0  0  0  0
 43 45  1  0  0  0  0
 43 48  1  0  0  0  0
 44 53  1  0  0  0  0
 45 55  1  0  0  0  0
 46 49  1  0  0  0  0
 46 56  1  0  0  0  0
 47 50  1  0  0  0  0
 47 56  1  0  0  0  0
 48 72  1  0  0  0  0
 49 73  1  0  0  0  0
 50 73  1  0  0  0  0
 51 55  1  0  0  0  0
 51 72  1  0  0  0  0
 52 79  1  0  0  0  0
 53 77  1  0  0  0  0
 54 71  1  0  0  0  0
 55 70  1  0  0  0  0
 56 76  1  0  0  0  0
 57 65  1  0  0  0  0
 58 66  1  0  0  0  0
 59 66  1  0  0  0  0
 60 66  1  0  0  0  0
 61 80  1  0  0  0  0
 62 63  1  0  0  0  0
 62 79  1  0  0  0  0
 63 87  1  0  0  0  0
 64 66  1  0  0  0  0
 64 78  1  0  0  0  0
 65 80  1  0  0  0  0
 67 70  1  0  0  0  0
 68 69  2  0  0  0  0
M  CHG  2  79   1  80   1
M  ISO  4  36 100  63 101  73 100  87 101
M  END
> <Batch ID>
0196

> <Smiles>
CNC(C)C(=O)NC(C(=O)N1Cc2cc([101O:1][101CH2:1]CN3CCc4nnc(NC5CC[100N:0]([100C:0](=O)N6CCCC(n7nc(-c8ccc(Oc9ccc(F)cc9F)cc8)c(C(N)=O)c7N)C6)CC5)cc4C3)ccc2CC1C(=O)NC1CCCc2ccccc21)C(C)(C)C

> <Shape>
0.276

> <Color>
0.088

> <Negative vol penalty>
0.000

$$$$

  -OEChem-04052323393D

 84 93  0     1  0  0  0  0  0999 V2000
  -26.7627  -34.8776   24.2671 C   0  0  0  0  0  0  0  0  0  0  0  0
  -27.1802  -33.6118   23.8685 C   0  0  0  0  0  0  0  0  0  0  0  0
  -24.3476   -7.6946   20.8492 C   0  0  0  0  0  0  0  0  0  0  0  0
  -23.6469   -7.4823   23.1515 C   0  0  0  0  0  0  0  0  0  0  0  0
  -25.4612  -35.0675   24.7298 C   0  0  0  0  0  0  0  0  0  0  0  0
  -26.2968  -32.5349   23.9335 C   0  0  0  0  0  0  0  0  0  0  0  0
  -26.4293  -29.6595   19.7671 C   0  0  0  0  0  0  0  0  0  0  0  0
  -24.5378   -6.3146   20.7797 C   0  0  0  0  0  0  0  0  0  0  0  0
  -23.8370   -6.1022   23.0821 C   0  0  0  0  0  0  0  0  0  0  0  0
  -27.4945  -28.7687   19.6418 C   0  0  0  0  0  0  0  0  0  0  0  0
  -22.1821   -3.4196   21.8633 C   0  0  0  0  0  0  0  0  0  0  0  0
  -21.1885   -2.6021   22.4019 C   0  0  0  0  0  0  0  0  0  0  0  0
  -26.0710  -26.9706   20.3897 C   0  0  0  0  0  0  0  0  0  0  0  0
  -22.7959   -1.6631   23.9419 C   0  0  0  0  0  0  0  0  0  0  0  0
  -23.9022   -8.2785   22.0351 C   0  0  0  0  0  0  0  0  0  0  0  0
  -22.5274  -10.4161   21.8147 C   0  0  0  0  0  0  0  0  0  0  0  0
  -24.5585  -33.9943   24.7913 C   0  0  0  0  0  0  0  0  0  0  0  0
  -25.1777  -29.2137   20.2158 C   0  0  0  0  0  0  0  0  0  0  0  0
  -24.9825  -32.7104   24.3987 C   0  0  0  0  0  0  0  0  0  0  0  0
  -24.9908  -27.8571   20.5174 C   0  0  0  0  0  0  0  0  0  0  0  0
  -24.2825   -5.5184   21.8962 C   0  0  0  0  0  0  0  0  0  0  0  0
  -27.3163  -27.4246   19.9559 C   0  0  0  0  0  0  0  0  0  0  0  0
  -23.4827   -3.3588   22.3640 C   0  0  0  0  0  0  0  0  0  0  0  0
  -21.4954   -1.7239   23.4412 C   0  0  0  0  0  0  0  0  0  0  0  0
  -23.7895   -2.4806   23.4033 C   0  0  0  0  0  0  0  0  0  0  0  0
  -23.7060   -9.7041   22.1076 C   0  0  0  0  0  0  0  0  0  0  0  0
  -22.8563  -11.7310   22.0370 C   0  0  0  0  0  0  0  0  0  0  0  0
  -21.2495   -9.9321   21.3807 C   0  0  0  0  0  0  0  0  0  0  0  0
  -23.3316  -29.8622   22.7208 C   0  0  0  0  0  0  0  0  0  0  0  0
  -21.2234  -27.9453   21.1706 C   0  0  0  0  0  0  0  0  0  0  0  0
  -29.3734  -24.3656   20.0135 C   0  0  0  0  0  0  0  0  0  0  0  0
  -20.7050  -25.4327   18.9201 C   0  0  0  0  0  0  0  0  0  0  0  0
  -26.5728  -15.8143   21.1394 C   0  0  0  0  0  0  0  0  0  0  0  0
  -23.1763  -34.2391   25.3431 C   0  0  0  0  0  0  0  0  0  0  0  0
  -24.0316  -30.1821   20.3200 C   0  0  0  0  0  0  0  0  0  0  0  0
  -23.6616  -27.3243   20.9839 C   0  0  0  0  0  0  0  0  0  0  0  0
  -22.1875  -33.1196   25.0277 C   0  0  0  0  0  0  0  0  0  0  0  0
  -26.9186  -13.7916   24.2288 C   0  0  0  0  0  0  0  0  0  0  0  0
  -22.8137  -31.7582   25.3129 C   0  0  0  0  0  0  0  0  0  0  0  0
  -26.0406  -12.5842   23.8968 C   0  0  0  0  0  0  0  0  0  0  0  0
  -28.7793  -18.4318   22.4779 C   0  0  0  0  0  0  0  0  0  0  0  0
  -30.2009  -21.3034   18.9645 C   0  0  0  0  0  0  0  0  0  0  0  0
  -27.5519  -14.3677   22.9691 C   0  0  0  0  0  0  0  0  0  0  0  0
  -28.3554  -16.9697   22.5753 C   0  0  0  0  0  0  0  0  0  0  0  0
  -25.6932  -13.5489   21.5719 C   0  0  0  0  0  0  0  0  0  0  0  0
  -27.8465  -17.8000   20.3774 C   0  0  0  0  0  0  0  0  0  0  0  0
  -29.0919  -20.2684   19.0842 C   0  0  0  0  0  0  0  0  0  0  0  0
  -29.9449  -20.9086   21.2857 C   0  0  0  0  0  0  0  0  0  0  0  0
  -24.0459  -31.5222   24.4311 C   0  0  1  0  0  0  0  0  0  0  0  0
  -22.9398  -29.7150   21.2777 C   0  0  1  0  0  0  0  0  0  0  0  0
  -25.0118  -12.9276   22.8041 C   0  0  1  0  0  0  0  0  0  0  0  0
  -30.1941  -22.0345   20.2979 C   0  0  2  0  0  0  0  0  0  0  0  0
  -28.9912  -18.5937   20.9801 C   0  0  1  0  0  0  0  0  0  0  0  0
  -18.8765  -24.0561   17.8909 C   0  0  0  0  0  0  0  0  0  0  0  0
  -21.0063  -26.3161   23.7413 C   0  0  0  0  0  0  0  0  0  0  0  0
  -19.9587  -24.4765   22.4047 C   0  0  0  0  0  0  0  0  0  0  0  0
  -18.8344  -26.6978   22.5617 C   0  0  0  0  0  0  0  0  0  0  0  0
  -21.3456  -26.4052   16.1993 C   0  0  0  0  0  0  0  0  0  0  0  0
  -28.1168  -25.1953   20.1686 C   0  0  0  0  0  0  0  0  0  1  0  0
  -20.9289  -26.4646   21.1649 C   0  0  1  0  0  0  0  0  0  0  0  0
  -19.7352  -25.3043   17.7593 C   0  0  2  0  0  0  0  0  0  0  0  0
  -20.2078  -25.9988   22.4612 C   0  0  0  0  0  0  0  0  0  0  0  0
  -24.7088  -10.5008   22.4868 N   0  0  0  0  0  0  0  0  0  0  0  0
  -24.1612  -11.7269   22.4337 N   0  0  0  0  0  0  0  0  0  0  0  0
  -22.5734  -28.3117   21.0758 N   0  0  0  0  0  0  0  0  0  0  0  0
  -26.5354  -14.6821   21.9611 N   0  0  0  0  0  0  0  0  0  0  0  0
  -27.6160  -16.7185   21.3338 N   0  0  0  0  0  0  0  0  0  0  0  0
  -22.1537  -12.8787   21.9298 N   0  0  0  0  0  0  0  0  0  0  0  0
  -21.0832   -8.5519   21.2020 N   0  0  0  0  0  0  0  0  0  0  0  0
  -23.6447  -31.1566   23.0895 N   0  0  0  0  0  0  0  0  0  0  0  0
  -29.1591  -23.0381   20.3552 N   0  0  0  0  0  0  0  0  0  0  0  0
  -20.1832  -26.2015   19.9389 N   0  0  0  0  0  0  0  0  0  0  0  0
  -28.9349  -20.0311   20.5743 N   0  3  2  0  0  0  0  0  0  0  0  0
  -20.4781  -25.2299   16.4695 N   0  3  0  0  0  0  0  0  0  0  0  0
  -20.2884  -10.7022   21.1421 O   0  0  0  0  0  0  0  0  0  0  0  0
  -23.3471  -28.8748   23.4464 O   0  0  0  0  0  0  0  0  0  0  0  0
  -20.2894  -28.7473   21.2489 O   0  0  0  0  0  0  0  0  0  0  0  0
  -30.4395  -24.8396   19.6306 O   0  0  0  0  0  0  0  0  0  0  0  0
  -21.8130  -24.9008   18.9243 O   0  0  0  0  0  0  0  0  0  0  0  0
  -25.6869  -16.0329   20.3026 O   0  0  0  0  0  0  0  0  0  0  0  0
  -24.4678   -4.1716   21.8287 O   0  0  0  0  0  0  0  0  0  0  0  0
  -28.3653  -26.5442   19.8338 O   0  0  0  0  0  0  0  0  0  1  0  0
  -20.5408   -0.9400   23.9594 F   0  0  0  0  0  0  0  0  0  0  0  0
  -25.0369   -2.4185   23.8892 F   0  0  0  0  0  0  0  0  0  0  0  0
  1  2  1  0  0  0  0
  1  5  2  0  0  0  0
  2  6  2  0  0  0  0
  3  8  2  0  0  0  0
  3 15  1  0  0  0  0
  4  9  1  0  0  0  0
  4 15  2  0  0  0  0
  5 17  1  0  0  0  0
  6 19  1  0  0  0  0
  7 10  2  0  0  0  0
  7 18  1  0  0  0  0
  8 21  1  0  0  0  0
  9 21  2  0  0  0  0
 10 22  1  0  0  0  0
 11 12  2  0  0  0  0
 11 23  1  0  0  0  0
 12 24  1  0  0  0  0
 13 20  1  0  0  0  0
 13 22  2  0  0  0  0
 14 24  2  0  0  0  0
 14 25  1  0  0  0  0
 15 26  1  0  0  0  0
 16 26  1  0  0  0  0
 16 27  2  0  0  0  0
 16 28  1  0  0  0  0
 17 19  2  0  0  0  0
 17 34  1  0  0  0  0
 18 20  2  0  0  0  0
 18 35  1  0  0  0  0
 19 49  1  0  0  0  0
 20 36  1  0  0  0  0
 21 81  1  0  0  0  0
 22 82  1  0  0  0  0
 23 25  2  0  0  0  0
 23 81  1  0  0  0  0
 24 83  1  0  0  0  0
 25 84  1  0  0  0  0
 26 63  2  0  0  0  0
 27 64  1  0  0  0  0
 27 68  1  0  0  0  0
 28 69  1  0  0  0  0
 28 75  2  0  0  0  0
 29 50  1  0  0  0  0
 29 70  1  0  0  0  0
 29 76  2  0  0  0  0
 30 60  1  0  0  0  0
 30 65  1  0  0  0  0
 30 77  2  0  0  0  0
 31 59  1  0  0  0  0
 31 71  1  0  0  0  0
 31 78  2  0  0  0  0
 32 61  1  0  0  0  0
 32 72  1  0  0  0  0
 32 79  2  0  0  0  0
 33 66  1  0  0  0  0
 33 67  1  0  0  0  0
 33 80  2  0  0  0  0
 34 37  1  0  0  0  0
 35 50  1  0  0  0  0
 36 65  1  0  0  0  0
 37 39  1  0  0  0  0
 38 40  1  0  0  0  0
 38 43  1  0  0  0  0
 39 49  1  0  0  0  0
 40 51  1  0  0  0  0
 41 44  1  0  0  0  0
 41 53  1  0  0  0  0
 42 47  1  0  0  0  0
 42 52  1  0  0  0  0
 43 66  1  0  0  0  0
 44 67  1  0  0  0  0
 45 51  1  0  0  0  0
 45 66  1  0  0  0  0
 46 53  1  0  0  0  0
 46 67  1  0  0  0  0
 47 73  1  0  0  0  0
 48 52  1  0  0  0  0
 48 73  1  0  0  0  0
 49 70  1  0  0  0  0
 50 65  1  0  0  0  0
 51 64  1  0  0  0  0
 52 71  1  0  0  0  0
 53 73  1  0  0  0  0
 54 61  1  0  0  0  0
 55 62  1  0  0  0  0
 56 62  1  0  0  0  0
 57 62  1  0  0  0  0
 58 74  1  0  0  0  0
 59 82  1  0  0  0  0
 60 62  1  0  0  0  0
 60 72  1  0  0  0  0
 61 74  1  0  0  0  0
 63 64  1  0  0  0  0
M  CHG  2  73   1  74   1
M  ISO  4  33 100  59 101  67 100  82 101
M  END
> <Batch ID>
0196

> <Smiles>
CNC(C)C(=O)NC(C(=O)N1Cc2cc([101O:1][101CH2:1]C(=O)NC3CCN(C4CC[100N:0]([100C:0](=O)N5CCCC(n6nc(-c7ccc(Oc8ccc(F)cc8F)cc7)c(C(N)=O)c6N)C5)C4)C3)ccc2CC1C(=O)NC1CCCc2ccccc21)C(C)(C)C

> <Shape>
0.278

> <Color>
0.096

> <Negative vol penalty>
0.000

$$$$

  -OEChem-04052323393D

 83 93  0     1  0  0  0  0  0999 V2000
  -19.4473  -27.6253   22.0521 C   0  0  0  0  0  0  0  0  0  0  0  0
  -19.6443  -26.4117   21.4012 C   0  0  0  0  0  0  0  0  0  0  0  0
  -27.5303  -26.1608   18.9238 C   0  0  0  0  0  0  0  0  0  0  0  0
  -27.1089  -24.5846   20.7056 C   0  0  0  0  0  0  0  0  0  0  0  0
  -20.2380  -27.9627   23.1498 C   0  0  0  0  0  0  0  0  0  0  0  0
  -20.6330  -25.5352   21.8469 C   0  0  0  0  0  0  0  0  0  0  0  0
  -20.4218  -19.4149   21.7970 C   0  0  0  0  0  0  0  0  0  0  0  0
  -26.4226  -26.9085   19.3232 C   0  0  0  0  0  0  0  0  0  0  0  0
  -26.0012  -25.3323   21.1051 C   0  0  0  0  0  0  0  0  0  0  0  0
  -20.9444  -18.4654   20.9200 C   0  0  0  0  0  0  0  0  0  0  0  0
  -25.6716  -29.1527   21.7383 C   0  0  0  0  0  0  0  0  0  0  0  0
  -25.8182  -30.5376   21.8161 C   0  0  0  0  0  0  0  0  0  0  0  0
  -22.8659  -18.2062   22.3552 C   0  0  0  0  0  0  0  0  0  0  0  0
  -24.0657  -30.8151   20.1763 C   0  0  0  0  0  0  0  0  0  0  0  0
  -27.8734  -24.9988   19.6149 C   0  0  0  0  0  0  0  0  0  0  0  0
  -30.3561  -24.6559   19.1393 C   0  0  0  0  0  0  0  0  0  0  0  0
  -21.2304  -27.0857   23.6151 C   0  0  0  0  0  0  0  0  0  0  0  0
  -21.1237  -19.7757   22.9561 C   0  0  0  0  0  0  0  0  0  0  0  0
  -21.4386  -25.8618   22.9510 C   0  0  0  0  0  0  0  0  0  0  0  0
  -22.3489  -19.1586   23.2466 C   0  0  0  0  0  0  0  0  0  0  0  0
  -25.6581  -26.4943   20.4139 C   0  0  0  0  0  0  0  0  0  0  0  0
  -22.1680  -17.8630   21.1975 C   0  0  0  0  0  0  0  0  0  0  0  0
  -24.7221  -28.5989   20.8795 C   0  0  0  0  0  0  0  0  0  0  0  0
  -25.0153  -31.3688   21.0351 C   0  0  0  0  0  0  0  0  0  0  0  0
  -23.9191  -29.4301   20.0986 C   0  0  0  0  0  0  0  0  0  0  0  0
  -29.0172  -24.2257   19.2024 C   0  0  0  0  0  0  0  0  0  0  0  0
  -31.0489  -23.5577   18.6916 C   0  0  0  0  0  0  0  0  0  0  0  0
  -30.9229  -25.9340   19.4569 C   0  0  0  0  0  0  0  0  0  0  0  0
  -22.3999  -22.4702   24.0583 C   0  0  0  0  0  0  0  0  0  0  0  0
  -22.9308  -20.6767   26.7085 C   0  0  0  0  0  0  0  0  0  0  0  0
  -23.3533  -17.5770   28.0723 C   0  0  0  0  0  0  0  0  0  0  0  0
  -30.0080  -17.8138   19.1186 C   0  0  0  0  0  0  0  0  0  0  0  0
  -22.0919  -27.5147   24.7763 C   0  0  0  0  0  0  0  0  0  0  0  0
  -20.5337  -20.7820   23.9057 C   0  0  0  0  0  0  0  0  0  0  0  0
  -23.1322  -19.4960   24.4880 C   0  0  0  0  0  0  0  0  0  0  0  0
  -22.8670  -26.3661   25.4168 C   0  0  0  0  0  0  0  0  0  0  0  0
  -30.5461  -19.6170   16.0533 C   0  0  0  0  0  0  0  0  0  0  0  0
  -23.5305  -25.5069   24.3452 C   0  0  0  0  0  0  0  0  0  0  0  0
  -30.3005  -21.0535   16.5062 C   0  0  0  0  0  0  0  0  0  0  0  0
  -29.6125  -18.6202   16.7435 C   0  0  0  0  0  0  0  0  0  0  0  0
  -28.6973  -15.9620   17.9239 C   0  0  0  0  0  0  0  0  0  0  0  0
  -29.3788  -20.1612   18.6723 C   0  0  0  0  0  0  0  0  0  0  0  0
  -30.3467  -15.4076   19.5921 C   0  0  0  0  0  0  0  0  0  0  0  0
  -27.8853  -13.1567   20.2722 C   0  0  0  0  0  0  0  0  0  0  0  0
  -25.0387  -16.0637   20.6825 C   0  0  0  0  0  0  0  0  0  0  0  0
  -23.6893  -14.6358   19.9736 C   0  0  0  0  0  0  0  0  0  0  0  0
  -22.4844  -24.8736   23.4199 C   0  0  1  0  0  0  0  0  0  0  0  0
  -21.5788  -21.4495   24.7942 C   0  0  1  0  0  0  0  0  0  0  0  0
  -28.4201  -14.5503   18.4241 C   0  0  2  0  0  0  0  0  0  0  0  0
  -27.4385  -14.4443   19.5930 C   0  0  1  0  0  0  0  0  0  0  0  0
  -30.3607  -21.1563   18.0385 C   0  0  2  0  0  0  0  0  0  0  0  0
  -29.7483  -14.1235   19.0383 C   0  0  2  0  0  0  0  0  0  0  0  0
  -23.5209  -15.8818   20.8606 C   0  0  0  0  0  0  0  0  0  1  0  0
  -23.6446  -15.8392   29.8591 C   0  0  0  0  0  0  0  0  0  0  0  0
  -25.8613  -21.5078   26.5313 C   0  0  0  0  0  0  0  0  0  0  0  0
  -26.4146  -19.6365   28.0999 C   0  0  0  0  0  0  0  0  0  0  0  0
  -24.9207  -21.4887   28.8485 C   0  0  0  0  0  0  0  0  0  0  0  0
  -20.4294  -17.2610   28.4040 C   0  0  0  0  0  0  0  0  0  0  0  0
  -25.9835  -14.4022   19.1547 C   0  0  0  0  0  0  0  0  0  0  0  0
  -24.0519  -19.7884   27.1913 C   0  0  1  0  0  0  0  0  0  0  0  0
  -22.7378  -16.9224   29.2959 C   0  0  2  0  0  0  0  0  0  0  0  0
  -25.2985  -20.6002   27.6433 C   0  0  0  0  0  0  0  0  0  0  0  0
  -28.8661  -22.9534   18.8249 N   0  0  0  0  0  0  0  0  0  0  0  0
  -30.1190  -22.5748   18.5202 N   0  0  0  0  0  0  0  0  0  0  0  0
  -22.5165  -20.4906   25.3821 N   0  0  0  0  0  0  0  0  0  0  0  0
  -29.6191  -18.7948   18.2000 N   0  0  0  0  0  0  0  0  0  0  0  0
  -29.7612  -16.4800   18.7906 N   0  0  0  0  0  0  0  0  0  0  0  0
  -32.3567  -23.3466   18.4317 N   0  0  0  0  0  0  0  0  0  0  0  0
  -31.3595  -26.1638   20.7688 N   0  0  0  0  0  0  0  0  0  0  0  0
  -21.8572  -23.7410   24.0667 N   0  0  0  0  0  0  0  0  0  0  0  0
  -23.4813  -18.9405   28.2325 N   0  0  0  0  0  0  0  0  0  0  0  0
  -29.3839  -13.1697   20.1316 N   0  3  0  0  0  0  0  0  0  0  0  0
  -25.1195  -14.6335   20.3330 N   0  3  0  0  0  0  0  0  0  0  0  0
  -21.4270  -16.3043   28.9485 N   0  3  0  0  0  0  0  0  0  0  0  0
  -31.0238  -26.8509   18.6068 O   0  0  0  0  0  0  0  0  0  0  0  0
  -23.4489  -22.1303   23.5237 O   0  0  0  0  0  0  0  0  0  0  0  0
  -22.4360  -21.5004   27.4821 O   0  0  0  0  0  0  0  0  0  0  0  0
  -23.6906  -16.9417   27.0757 O   0  0  0  0  0  0  0  0  0  0  0  0
  -30.5136  -18.1180   20.2074 O   0  0  0  0  0  0  0  0  0  0  0  0
  -24.5773  -27.2238   20.8041 O   0  0  0  0  0  0  0  0  0  0  0  0
  -22.6867  -16.9256   20.3328 O   0  0  0  0  0  0  0  0  0  1  0  0
  -25.1551  -32.6988   21.1110 F   0  0  0  0  0  0  0  0  0  0  0  0
  -23.0044  -28.9040   19.2726 F   0  0  0  0  0  0  0  0  0  0  0  0
  1  2  1  0  0  0  0
  1  5  2  0  0  0  0
  2  6  2  0  0  0  0
  3  8  2  0  0  0  0
  3 15  1  0  0  0  0
  4  9  1  0  0  0  0
  4 15  2  0  0  0  0
  5 17  1  0  0  0  0
  6 19  1  0  0  0  0
  7 10  2  0  0  0  0
  7 18  1  0  0  0  0
  8 21  1  0  0  0  0
  9 21  2  0  0  0  0
 10 22  1  0  0  0  0
 11 12  2  0  0  0  0
 11 23  1  0  0  0  0
 12 24  1  0  0  0  0
 13 20  1  0  0  0  0
 13 22  2  0  0  0  0
 14 24  2  0  0  0  0
 14 25  1  0  0  0  0
 15 26  1  0  0  0  0
 16 26  1  0  0  0  0
 16 27  2  0  0  0  0
 16 28  1  0  0  0  0
 17 19  2  0  0  0  0
 17 33  1  0  0  0  0
 18 20  2  0  0  0  0
 18 34  1  0  0  0  0
 19 47  1  0  0  0  0
 20 35  1  0  0  0  0
 21 80  1  0  0  0  0
 22 81  1  0  0  0  0
 23 25  2  0  0  0  0
 23 80  1  0  0  0  0
 24 82  1  0  0  0  0
 25 83  1  0  0  0  0
 26 63  2  0  0  0  0
 27 64  1  0  0  0  0
 27 68  1  0  0  0  0
 28 69  1  0  0  0  0
 28 75  2  0  0  0  0
 29 48  1  0  0  0  0
 29 70  1  0  0  0  0
 29 76  2  0  0  0  0
 30 60  1  0  0  0  0
 30 65  1  0  0  0  0
 30 77  2  0  0  0  0
 31 61  1  0  0  0  0
 31 71  1  0  0  0  0
 31 78  2  0  0  0  0
 32 66  1  0  0  0  0
 32 67  1  0  0  0  0
 32 79  2  0  0  0  0
 33 36  1  0  0  0  0
 34 48  1  0  0  0  0
 35 65  1  0  0  0  0
 36 38  1  0  0  0  0
 37 39  1  0  0  0  0
 37 40  1  0  0  0  0
 38 47  1  0  0  0  0
 39 51  1  0  0  0  0
 40 66  1  0  0  0  0
 41 49  1  0  0  0  0
 41 67  1  0  0  0  0
 42 51  1  0  0  0  0
 42 66  1  0  0  0  0
 43 52  1  0  0  0  0
 43 67  1  0  0  0  0
 44 50  1  0  0  0  0
 44 72  1  0  0  0  0
 45 53  1  0  0  0  0
 45 73  1  0  0  0  0
 46 53  1  0  0  0  0
 46 73  1  0  0  0  0
 47 70  1  0  0  0  0
 48 65  1  0  0  0  0
 49 50  1  0  0  0  0
 49 52  1  0  0  0  0
 50 59  1  0  0  0  0
 51 64  1  0  0  0  0
 52 72  1  0  0  0  0
 53 81  1  0  0  0  0
 54 61  1  0  0  0  0
 55 62  1  0  0  0  0
 56 62  1  0  0  0  0
 57 62  1  0  0  0  0
 58 74  1  0  0  0  0
 59 73  1  0  0  0  0
 60 62  1  0  0  0  0
 60 71  1  0  0  0  0
 61 74  1  0  0  0  0
 63 64  1  0  0  0  0
M  CHG  3  72   1  73   1  74   1
M  ISO  4  32 100  53 101  67 100  81 101
M  END
> <Batch ID>
0196

> <Smiles>
CNC(C)C(=O)NC(C(=O)N1Cc2cc([101O:1][101CH:1]3CN(CC4CNC5C[100N:0]([100C:0](=O)N6CCCC(n7nc(-c8ccc(Oc9ccc(F)cc9F)cc8)c(C(N)=O)c7N)C6)CC45)C3)ccc2CC1C(=O)NC1CCCc2ccccc21)C(C)(C)C

> <Shape>
0.204

> <Color>
0.069

> <Negative vol penalty>
0.000

$$$$

  -OEChem-04052323393D

 83 92  0     1  0  0  0  0  0999 V2000
  -21.7534  -31.2284   14.5077 C   0  0  0  0  0  0  0  0  0  0  0  0
  -22.9297  -30.7038   15.0335 C   0  0  0  0  0  0  0  0  0  0  0  0
  -23.0476  -10.2466   22.8593 C   0  0  0  0  0  0  0  0  0  0  0  0
  -22.6532  -10.3845   20.4797 C   0  0  0  0  0  0  0  0  0  0  0  0
  -21.1113  -32.2831   15.1552 C   0  0  0  0  0  0  0  0  0  0  0  0
  -23.4652  -31.2343   16.2066 C   0  0  0  0  0  0  0  0  0  0  0  0
  -24.9686  -27.6485   19.4512 C   0  0  0  0  0  0  0  0  0  0  0  0
  -23.0838   -8.8549   22.7727 C   0  0  0  0  0  0  0  0  0  0  0  0
  -22.6895   -8.9928   20.3930 C   0  0  0  0  0  0  0  0  0  0  0  0
  -26.1856  -27.0213   19.1879 C   0  0  0  0  0  0  0  0  0  0  0  0
  -22.9219   -5.2517   23.2354 C   0  0  0  0  0  0  0  0  0  0  0  0
  -22.2216   -4.5221   24.1960 C   0  0  0  0  0  0  0  0  0  0  0  0
  -27.2595  -28.4317   20.8240 C   0  0  0  0  0  0  0  0  0  0  0  0
  -20.1648   -5.5830   23.5022 C   0  0  0  0  0  0  0  0  0  0  0  0
  -22.8322  -11.0114   21.7129 C   0  0  0  0  0  0  0  0  0  0  0  0
  -21.9046  -13.2303   22.5636 C   0  0  0  0  0  0  0  0  0  0  0  0
  -21.6339  -32.8204   16.3421 C   0  0  0  0  0  0  0  0  0  0  0  0
  -24.8900  -28.6812   20.3966 C   0  0  0  0  0  0  0  0  0  0  0  0
  -22.8302  -32.2980   16.8699 C   0  0  0  0  0  0  0  0  0  0  0  0
  -26.0399  -29.0686   21.0993 C   0  0  0  0  0  0  0  0  0  0  0  0
  -22.9048   -8.2280   21.5395 C   0  0  0  0  0  0  0  0  0  0  0  0
  -27.3318  -27.4148   19.8722 C   0  0  0  0  0  0  0  0  0  0  0  0
  -22.2438   -6.1470   22.4082 C   0  0  0  0  0  0  0  0  0  0  0  0
  -20.8430   -4.6877   24.3294 C   0  0  0  0  0  0  0  0  0  0  0  0
  -20.8652   -6.3126   22.5416 C   0  0  0  0  0  0  0  0  0  0  0  0
  -22.7940  -12.4490   21.8018 C   0  0  0  0  0  0  0  0  0  0  0  0
  -22.2801  -14.5264   22.3074 C   0  0  0  0  0  0  0  0  0  0  0  0
  -20.8346  -12.8210   23.4258 C   0  0  0  0  0  0  0  0  0  0  0  0
  -24.1064  -31.7601   20.2955 C   0  0  0  0  0  0  0  0  0  0  0  0
  -24.4084  -31.5419   23.5178 C   0  0  0  0  0  0  0  0  0  0  0  0
  -26.6717  -29.9755   25.8505 C   0  0  0  0  0  0  0  0  0  0  0  0
  -27.5601  -16.7170   20.5979 C   0  0  0  0  0  0  0  0  0  0  0  0
  -20.9299  -33.9914   16.9806 C   0  0  0  0  0  0  0  0  0  0  0  0
  -23.5644  -29.3295   20.6883 C   0  0  0  0  0  0  0  0  0  0  0  0
  -26.0047  -30.1582   22.1385 C   0  0  0  0  0  0  0  0  0  0  0  0
  -21.3608  -34.2489   18.4223 C   0  0  0  0  0  0  0  0  0  0  0  0
  -24.2881  -17.2632   18.9628 C   0  0  0  0  0  0  0  0  0  0  0  0
  -22.8811  -34.2095   18.5401 C   0  0  0  0  0  0  0  0  0  0  0  0
  -23.4762  -16.1096   19.5431 C   0  0  0  0  0  0  0  0  0  0  0  0
  -30.7160  -17.1868   20.2897 C   0  0  0  0  0  0  0  0  0  0  0  0
  -31.6140  -18.3728   19.8774 C   0  0  0  0  0  0  0  0  0  0  0  0
  -25.7602  -16.8961   18.7792 C   0  0  0  0  0  0  0  0  0  0  0  0
  -28.9240  -22.5522   20.1852 C   0  0  0  0  0  0  0  0  0  0  0  0
  -31.1342  -22.8173   19.2407 C   0  0  0  0  0  0  0  0  0  0  0  0
  -25.5879  -15.2247   20.6045 C   0  0  0  0  0  0  0  0  0  0  0  0
  -28.8859  -21.0842   19.7738 C   0  0  0  0  0  0  0  0  0  0  0  0
  -31.1603  -21.3570   18.8020 C   0  0  0  0  0  0  0  0  0  0  0  0
  -23.4288  -32.8302   18.1539 C   0  0  1  0  0  0  0  0  0  0  0  0
  -23.7013  -30.7199   21.3012 C   0  0  1  0  0  0  0  0  0  0  0  0
  -24.1168  -15.5974   20.8417 C   0  0  2  0  0  0  0  0  0  0  0  0
  -29.5540  -18.2015   20.4131 C   0  0  1  0  0  0  0  0  0  0  0  0
  -30.3270  -19.0812   19.3989 C   0  0  1  0  0  0  0  0  0  0  0  0
  -26.2999  -29.1825   28.2022 C   0  0  0  0  0  0  0  0  0  0  0  0
  -25.4611  -34.2956   24.3049 C   0  0  0  0  0  0  0  0  0  0  0  0
  -26.6561  -33.2142   26.2208 C   0  0  0  0  0  0  0  0  0  0  0  0
  -24.1664  -33.1229   26.0947 C   0  0  0  0  0  0  0  0  0  0  0  0
  -27.6160  -27.2465   25.2029 C   0  0  0  0  0  0  0  0  0  0  0  0
  -29.7546  -24.7498   19.6499 C   0  0  0  0  0  0  0  0  0  0  0  0
  -28.4751  -25.4399   19.2025 C   0  0  0  0  0  0  0  0  0  1  0  0
  -25.5404  -31.7223   24.5002 C   0  0  1  0  0  0  0  0  0  0  0  0
  -26.3780  -28.7794   26.7379 C   0  0  2  0  0  0  0  0  0  0  0  0
  -25.4607  -33.0801   25.2534 C   0  0  0  0  0  0  0  0  0  0  0  0
  -23.6686  -13.1871   21.1131 N   0  0  0  0  0  0  0  0  0  0  0  0
  -23.3305  -14.4458   21.4412 N   0  0  0  0  0  0  0  0  0  0  0  0
  -24.6863  -30.7659   22.3836 N   0  0  0  0  0  0  0  0  0  0  0  0
  -26.3400  -16.3369   20.0108 N   0  0  0  0  0  0  0  0  0  0  0  0
  -29.7610  -23.3378   19.2687 N   0  0  0  0  0  0  0  0  0  0  0  0
  -21.8109  -15.7157   22.7407 N   0  0  0  0  0  0  0  0  0  0  0  0
  -19.5545  -12.6685   22.8759 N   0  0  0  0  0  0  0  0  0  0  0  0
  -23.2311  -31.8873   19.2339 N   0  0  0  0  0  0  0  0  0  0  0  0
  -25.5145  -30.5529   25.3721 N   0  0  0  0  0  0  0  0  0  0  0  0
  -28.2717  -17.7099   19.9316 N   0  0  0  0  0  0  0  0  0  0  0  0
  -30.2938  -20.5457   19.7321 N   0  3  0  0  0  0  0  0  0  0  0  0
  -27.4456  -27.7502   26.5900 N   0  3  0  0  0  0  0  0  0  0  0  0
  -21.0052  -12.6131   24.6511 O   0  0  0  0  0  0  0  0  0  0  0  0
  -25.1362  -32.4010   20.4705 O   0  0  0  0  0  0  0  0  0  0  0  0
  -23.3157  -32.0642   23.7519 O   0  0  0  0  0  0  0  0  0  0  0  0
  -27.8133  -30.3615   25.6092 O   0  0  0  0  0  0  0  0  0  0  0  0
  -27.9937  -16.2072   21.6368 O   0  0  0  0  0  0  0  0  0  0  0  0
  -22.9404   -6.8701   21.4545 O   0  0  0  0  0  0  0  0  0  0  0  0
  -28.5211  -26.8047   19.6167 O   0  0  0  0  0  0  0  0  0  1  0  0
  -20.1703   -3.9858   25.2508 F   0  0  0  0  0  0  0  0  0  0  0  0
  -20.2081   -7.1704   21.7490 F   0  0  0  0  0  0  0  0  0  0  0  0
  1  2  1  0  0  0  0
  1  5  2  0  0  0  0
  2  6  2  0  0  0  0
  3  8  2  0  0  0  0
  3 15  1  0  0  0  0
  4  9  1  0  0  0  0
  4 15  2  0  0  0  0
  5 17  1  0  0  0  0
  6 19  1  0  0  0  0
  7 10  2  0  0  0  0
  7 18  1  0  0  0  0
  8 21  1  0  0  0  0
  9 21  2  0  0  0  0
 10 22  1  0  0  0  0
 11 12  2  0  0  0  0
 11 23  1  0  0  0  0
 12 24  1  0  0  0  0
 13 20  1  0  0  0  0
 13 22  2  0  0  0  0
 14 24  2  0  0  0  0
 14 25  1  0  0  0  0
 15 26  1  0  0  0  0
 16 26  1  0  0  0  0
 16 27  2  0  0  0  0
 16 28  1  0  0  0  0
 17 19  2  0  0  0  0
 17 33  1  0  0  0  0
 18 20  2  0  0  0  0
 18 34  1  0  0  0  0
 19 48  1  0  0  0  0
 20 35  1  0  0  0  0
 21 80  1  0  0  0  0
 22 81  1  0  0  0  0
 23 25  2  0  0  0  0
 23 80  1  0  0  0  0
 24 82  1  0  0  0  0
 25 83  1  0  0  0  0
 26 63  2  0  0  0  0
 27 64  1  0  0  0  0
 27 68  1  0  0  0  0
 28 69  1  0  0  0  0
 28 75  2  0  0  0  0
 29 49  1  0  0  0  0
 29 70  1  0  0  0  0
 29 76  2  0  0  0  0
 30 60  1  0  0  0  0
 30 65  1  0  0  0  0
 30 77  2  0  0  0  0
 31 61  1  0  0  0  0
 31 71  1  0  0  0  0
 31 78  2  0  0  0  0
 32 66  1  0  0  0  0
 32 72  1  0  0  0  0
 32 79  2  0  0  0  0
 33 36  1  0  0  0  0
 34 49  1  0  0  0  0
 35 65  1  0  0  0  0
 36 38  1  0  0  0  0
 37 39  1  0  0  0  0
 37 42  1  0  0  0  0
 38 48  1  0  0  0  0
 39 50  1  0  0  0  0
 40 41  1  0  0  0  0
 40 51  1  0  0  0  0
 41 52  1  0  0  0  0
 42 66  1  0  0  0  0
 43 46  1  0  0  0  0
 43 67  1  0  0  0  0
 44 47  1  0  0  0  0
 44 67  1  0  0  0  0
 45 50  1  0  0  0  0
 45 66  1  0  0  0  0
 46 73  1  0  0  0  0
 47 73  1  0  0  0  0
 48 70  1  0  0  0  0
 49 65  1  0  0  0  0
 50 64  1  0  0  0  0
 51 52  1  0  0  0  0
 51 72  1  0  0  0  0
 52 73  1  0  0  0  0
 53 61  1  0  0  0  0
 54 62  1  0  0  0  0
 55 62  1  0  0  0  0
 56 62  1  0  0  0  0
 57 74  1  0  0  0  0
 58 59  1  0  0  0  0
 58 67  1  0  0  0  0
 59 81  1  0  0  0  0
 60 62  1  0  0  0  0
 60 71  1  0  0  0  0
 61 74  1  0  0  0  0
 63 64  1  0  0  0  0
M  CHG  2  73   1  74   1
M  ISO  4  32 100  59 101  72 100  81 101
M  END
> <Batch ID>
0196

> <Smiles>
CNC(C)C(=O)NC(C(=O)N1Cc2cc([101O:1][101CH2:1]CN3CCN(C4CCC4[100NH:0][100C:0](=O)N4CCCC(n5nc(-c6ccc(Oc7ccc(F)cc7F)cc6)c(C(N)=O)c5N)C4)CC3)ccc2CC1C(=O)NC1CCCc2ccccc21)C(C)(C)C

> <Shape>
0.302

> <Color>
0.101

> <Negative vol penalty>
0.000

$$$$

  -OEChem-04052323393D

 83 91  0     1  0  0  0  0  0999 V2000
  -15.5512  -26.6294   24.6766 C   0  0  0  0  0  0  0  0  0  0  0  0
  -16.3081  -25.8463   23.8110 C   0  0  0  0  0  0  0  0  0  0  0  0
  -25.9798  -13.6514   19.7639 C   0  0  0  0  0  0  0  0  0  0  0  0
  -23.9853  -13.7311   21.1251 C   0  0  0  0  0  0  0  0  0  0  0  0
  -15.8219  -27.9916   24.7995 C   0  0  0  0  0  0  0  0  0  0  0  0
  -17.3356  -26.4253   23.0669 C   0  0  0  0  0  0  0  0  0  0  0  0
  -22.6560  -23.8310   21.4959 C   0  0  0  0  0  0  0  0  0  0  0  0
  -25.6635  -12.3492   19.3768 C   0  0  0  0  0  0  0  0  0  0  0  0
  -23.6690  -12.4290   20.7379 C   0  0  0  0  0  0  0  0  0  0  0  0
  -23.0879  -23.2125   20.3234 C   0  0  0  0  0  0  0  0  0  0  0  0
  -24.6316   -9.2884   21.5386 C   0  0  0  0  0  0  0  0  0  0  0  0
  -24.2166   -8.4000   22.5307 C   0  0  0  0  0  0  0  0  0  0  0  0
  -24.0956  -25.2844   19.6086 C   0  0  0  0  0  0  0  0  0  0  0  0
  -22.1092   -8.1064   21.3862 C   0  0  0  0  0  0  0  0  0  0  0  0
  -25.1407  -14.3423   20.6382 C   0  0  0  0  0  0  0  0  0  0  0  0
  -25.0802  -16.8817   20.4022 C   0  0  0  0  0  0  0  0  0  0  0  0
  -16.8595  -28.5856   24.0638 C   0  0  0  0  0  0  0  0  0  0  0  0
  -22.9318  -25.1861   21.7289 C   0  0  0  0  0  0  0  0  0  0  0  0
  -17.6195  -27.7970   23.1791 C   0  0  0  0  0  0  0  0  0  0  0  0
  -23.6683  -25.9171   20.7860 C   0  0  0  0  0  0  0  0  0  0  0  0
  -24.5081  -11.7380   19.8637 C   0  0  0  0  0  0  0  0  0  0  0  0
  -23.8053  -23.9399   19.3783 C   0  0  0  0  0  0  0  0  0  0  0  0
  -23.7853   -9.5859   20.4704 C   0  0  0  0  0  0  0  0  0  0  0  0
  -22.9555   -7.8090   22.4545 C   0  0  0  0  0  0  0  0  0  0  0  0
  -22.5242   -8.9949   20.3942 C   0  0  0  0  0  0  0  0  0  0  0  0
  -25.4672  -15.6873   21.0390 C   0  0  0  0  0  0  0  0  0  0  0  0
  -25.6407  -17.8756   21.1668 C   0  0  0  0  0  0  0  0  0  0  0  0
  -24.2851  -17.0755   19.2250 C   0  0  0  0  0  0  0  0  0  0  0  0
  -21.1650  -27.7965   22.1386 C   0  0  0  0  0  0  0  0  0  0  0  0
  -24.0365  -29.1688   22.7657 C   0  0  0  0  0  0  0  0  0  0  0  0
  -27.4254  -29.1077   22.3678 C   0  0  0  0  0  0  0  0  0  0  0  0
  -29.7497  -20.0587   24.0427 C   0  0  0  0  0  0  0  0  0  0  0  0
  -17.0839  -30.0713   24.1948 C   0  0  0  0  0  0  0  0  0  0  0  0
  -22.4820  -25.8317   23.0108 C   0  0  0  0  0  0  0  0  0  0  0  0
  -24.0079  -27.3691   20.9978 C   0  0  0  0  0  0  0  0  0  0  0  0
  -18.4334  -30.5336   23.6513 C   0  0  0  0  0  0  0  0  0  0  0  0
  -27.8459  -17.7061   25.7084 C   0  0  0  0  0  0  0  0  0  0  0  0
  -18.6990  -29.9131   22.2834 C   0  0  0  0  0  0  0  0  0  0  0  0
  -27.0163  -17.0605   24.5986 C   0  0  0  0  0  0  0  0  0  0  0  0
  -29.2792  -17.9477   25.2489 C   0  0  0  0  0  0  0  0  0  0  0  0
  -29.5324  -22.1973   22.8294 C   0  0  0  0  0  0  0  0  0  0  0  0
  -30.3967  -20.2451   21.6095 C   0  0  0  0  0  0  0  0  0  0  0  0
  -28.8310  -22.6553   21.5506 C   0  0  0  0  0  0  0  0  0  0  0  0
  -29.6728  -20.7256   20.3535 C   0  0  0  0  0  0  0  0  0  0  0  0
  -28.5599  -18.1410   22.8907 C   0  0  0  0  0  0  0  0  0  0  0  0
  -18.7585  -28.3835   22.3736 C   0  0  1  0  0  0  0  0  0  0  0  0
  -22.3749  -27.3501   22.9096 C   0  0  1  0  0  0  0  0  0  0  0  0
  -27.0959  -17.8822   23.2998 C   0  0  1  0  0  0  0  0  0  0  0  0
  -29.5023  -30.3832   22.9654 C   0  0  0  0  0  0  0  0  0  0  0  0
  -29.8449  -22.6923   17.9681 C   0  0  0  0  0  0  0  0  0  0  0  0
  -25.2994  -21.8904   15.8981 C   0  0  0  0  0  0  0  0  0  0  0  0
  -23.3595  -31.2586   20.6481 C   0  0  0  0  0  0  0  0  0  0  0  0
  -25.7785  -31.9029   20.6105 C   0  0  0  0  0  0  0  0  0  0  0  0
  -24.4501  -32.1727   22.7046 C   0  0  0  0  0  0  0  0  0  0  0  0
  -28.5469  -26.8104   23.8590 C   0  0  0  0  0  0  0  0  0  0  0  0
  -27.6184  -21.8167   18.8580 C   0  0  0  0  0  0  0  0  0  0  0  0
  -24.5142  -21.9426   18.2993 C   0  0  0  0  0  0  0  0  0  1  0  0
  -25.0983  -29.8522   21.9383 C   0  0  1  0  0  0  0  0  0  0  0  0
  -28.5597  -29.2589   23.3654 C   0  0  2  0  0  0  0  0  0  0  0  0
  -28.8696  -22.6476   19.1404 C   0  0  1  0  0  0  0  0  0  0  0  0
  -25.6455  -21.5775   17.3448 C   0  0  2  0  0  0  0  0  0  0  0  0
  -24.6637  -31.2698   21.4702 C   0  0  0  0  0  0  0  0  0  0  0  0
  -26.2159  -15.9007   22.1243 N   0  0  0  0  0  0  0  0  0  0  0  0
  -26.3038  -17.2408   22.1755 N   0  0  0  0  0  0  0  0  0  0  0  0
  -23.5406  -27.9572   22.2640 N   0  0  0  0  0  0  0  0  0  0  0  0
  -29.3113  -18.7264   24.0112 N   0  0  0  0  0  0  0  0  0  0  0  0
  -29.7502  -20.7536   22.8239 N   0  0  0  0  0  0  0  0  0  0  0  0
  -29.5448  -22.1898   20.3537 N   0  0  0  0  0  0  0  0  0  0  0  0
  -25.6262  -19.2218   21.0679 N   0  0  0  0  0  0  0  0  0  0  0  0
  -23.7878  -15.9457   18.5612 N   0  0  0  0  0  0  0  0  0  0  0  0
  -20.0322  -27.9582   22.9133 N   0  0  0  0  0  0  0  0  0  0  0  0
  -26.3157  -29.8355   22.7421 N   0  0  0  0  0  0  0  0  0  0  0  0
  -29.3452  -27.9954   23.4520 N   0  3  0  0  0  0  0  0  0  0  0  0
  -26.8502  -22.3693   17.7155 N   0  3  0  0  0  0  0  0  0  0  0  0
  -24.0370  -18.2161   18.7657 O   0  0  0  0  0  0  0  0  0  0  0  0
  -21.2530  -27.9820   20.9305 O   0  0  0  0  0  0  0  0  0  0  0  0
  -23.6661  -29.6872   23.8220 O   0  0  0  0  0  0  0  0  0  0  0  0
  -27.5162  -28.4163   21.3558 O   0  0  0  0  0  0  0  0  0  0  0  0
  -30.1130  -20.5988   25.0948 O   0  0  0  0  0  0  0  0  0  0  0  0
  -24.1991  -10.4675   19.4859 O   0  0  0  0  0  0  0  0  0  0  0  0
  -24.2303  -23.3347   18.2250 O   0  0  0  0  0  0  0  0  0  1  0  0
  -22.5577   -6.9547   23.4064 F   0  0  0  0  0  0  0  0  0  0  0  0
  -21.7072   -9.2758   19.3697 F   0  0  0  0  0  0  0  0  0  0  0  0
  1  2  1  0  0  0  0
  1  5  2  0  0  0  0
  2  6  2  0  0  0  0
  3  8  2  0  0  0  0
  3 15  1  0  0  0  0
  4  9  1  0  0  0  0
  4 15  2  0  0  0  0
  5 17  1  0  0  0  0
  6 19  1  0  0  0  0
  7 10  2  0  0  0  0
  7 18  1  0  0  0  0
  8 21  1  0  0  0  0
  9 21  2  0  0  0  0
 10 22  1  0  0  0  0
 11 12  2  0  0  0  0
 11 23  1  0  0  0  0
 12 24  1  0  0  0  0
 13 20  1  0  0  0  0
 13 22  2  0  0  0  0
 14 24  2  0  0  0  0
 14 25  1  0  0  0  0
 15 26  1  0  0  0  0
 16 26  1  0  0  0  0
 16 27  2  0  0  0  0
 16 28  1  0  0  0  0
 17 19  2  0  0  0  0
 17 33  1  0  0  0  0
 18 20  2  0  0  0  0
 18 34  1  0  0  0  0
 19 46  1  0  0  0  0
 20 35  1  0  0  0  0
 21 80  1  0  0  0  0
 22 81  1  0  0  0  0
 23 25  2  0  0  0  0
 23 80  1  0  0  0  0
 24 82  1  0  0  0  0
 25 83  1  0  0  0  0
 26 63  2  0  0  0  0
 27 64  1  0  0  0  0
 27 69  1  0  0  0  0
 28 70  1  0  0  0  0
 28 75  2  0  0  0  0
 29 47  1  0  0  0  0
 29 71  1  0  0  0  0
 29 76  2  0  0  0  0
 30 58  1  0  0  0  0
 30 65  1  0  0  0  0
 30 77  2  0  0  0  0
 31 59  1  0  0  0  0
 31 72  1  0  0  0  0
 31 78  2  0  0  0  0
 32 66  1  0  0  0  0
 32 67  1  0  0  0  0
 32 79  2  0  0  0  0
 33 36  1  0  0  0  0
 34 47  1  0  0  0  0
 35 65  1  0  0  0  0
 36 38  1  0  0  0  0
 37 39  1  0  0  0  0
 37 40  1  0  0  0  0
 38 46  1  0  0  0  0
 39 48  1  0  0  0  0
 40 66  1  0  0  0  0
 41 43  1  0  0  0  0
 41 67  1  0  0  0  0
 42 44  1  0  0  0  0
 42 67  1  0  0  0  0
 43 68  1  0  0  0  0
 44 68  1  0  0  0  0
 45 48  1  0  0  0  0
 45 66  1  0  0  0  0
 46 71  1  0  0  0  0
 47 65  1  0  0  0  0
 48 64  1  0  0  0  0
 49 59  1  0  0  0  0
 50 60  1  0  0  0  0
 51 61  1  0  0  0  0
 52 62  1  0  0  0  0
 53 62  1  0  0  0  0
 54 62  1  0  0  0  0
 55 73  1  0  0  0  0
 56 60  1  0  0  0  0
 56 74  1  0  0  0  0
 57 61  1  0  0  0  0
 57 81  1  0  0  0  0
 58 62  1  0  0  0  0
 58 72  1  0  0  0  0
 59 73  1  0  0  0  0
 60 68  1  0  0  0  0
 61 74  1  0  0  0  0
 63 64  1  0  0  0  0
M  CHG  2  73   1  74   1
M  ISO  4  32 100  57 101  67 100  81 101
M  END
> <Batch ID>
0196

> <Smiles>
CNC(C)C(=O)NC(C(=O)N1Cc2cc([101O:1][101CH2:1]C(C)NCC(C)N3CC[100N:0]([100C:0](=O)N4CCCC(n5nc(-c6ccc(Oc7ccc(F)cc7F)cc6)c(C(N)=O)c5N)C4)CC3)ccc2CC1C(=O)NC1CCCc2ccccc21)C(C)(C)C

> <Shape>
0.231

> <Color>
0.049

> <Negative vol penalty>
0.000

$$$$

  -OEChem-04052323393D

 85 94  0     1  0  0  0  0  0999 V2000
  -24.5960  -24.6510   18.5502 C   0  0  0  0  0  0  0  0  0  0  0  0
  -23.7355  -25.3240   19.4116 C   0  0  0  0  0  0  0  0  0  0  0  0
  -28.3229  -14.6871   18.8984 C   0  0  0  0  0  0  0  0  0  0  0  0
  -28.3709  -13.5802   21.0454 C   0  0  0  0  0  0  0  0  0  0  0  0
  -25.9753  -24.8048   18.6840 C   0  0  0  0  0  0  0  0  0  0  0  0
  -24.2538  -26.1503   20.4081 C   0  0  0  0  0  0  0  0  0  0  0  0
  -21.8110  -30.5746   20.7286 C   0  0  0  0  0  0  0  0  0  0  0  0
  -29.7062  -14.8566   18.9548 C   0  0  0  0  0  0  0  0  0  0  0  0
  -29.7543  -13.7496   21.1017 C   0  0  0  0  0  0  0  0  0  0  0  0
  -20.5780  -30.5755   21.3793 C   0  0  0  0  0  0  0  0  0  0  0  0
  -33.3447  -13.5697   21.6449 C   0  0  0  0  0  0  0  0  0  0  0  0
  -34.1163  -12.4803   22.0492 C   0  0  0  0  0  0  0  0  0  0  0  0
  -21.6355  -31.4369   23.3690 C   0  0  0  0  0  0  0  0  0  0  0  0
  -33.2721  -11.1916   20.1881 C   0  0  0  0  0  0  0  0  0  0  0  0
  -27.6552  -14.0490   19.9437 C   0  0  0  0  0  0  0  0  0  0  0  0
  -25.5245  -12.7830   19.3397 C   0  0  0  0  0  0  0  0  0  0  0  0
  -26.5106  -25.6409   19.6764 C   0  0  0  0  0  0  0  0  0  0  0  0
  -22.9693  -30.9953   21.3978 C   0  0  0  0  0  0  0  0  0  0  0  0
  -25.6416  -26.3143   20.5561 C   0  0  0  0  0  0  0  0  0  0  0  0
  -22.8815  -31.4429   22.7237 C   0  0  0  0  0  0  0  0  0  0  0  0
  -30.4220  -14.3878   20.0564 C   0  0  0  0  0  0  0  0  0  0  0  0
  -20.4905  -31.0039   22.7006 C   0  0  0  0  0  0  0  0  0  0  0  0
  -32.5367  -13.4700   20.5122 C   0  0  0  0  0  0  0  0  0  0  0  0
  -34.0800  -11.2913   21.3208 C   0  0  0  0  0  0  0  0  0  0  0  0
  -32.5005  -12.2810   19.7838 C   0  0  0  0  0  0  0  0  0  0  0  0
  -26.2261  -13.8742   19.8863 C   0  0  0  0  0  0  0  0  0  0  0  0
  -24.2007  -13.0953   19.5313 C   0  0  0  0  0  0  0  0  0  0  0  0
  -26.0245  -11.5935   18.7147 C   0  0  0  0  0  0  0  0  0  0  0  0
  -25.7156  -29.6170   22.2113 C   0  0  0  0  0  0  0  0  0  0  0  0
  -26.4946  -32.6213   23.1545 C   0  0  0  0  0  0  0  0  0  0  0  0
  -25.4402  -35.7019   24.1767 C   0  0  0  0  0  0  0  0  0  0  0  0
  -21.2792  -18.0613   19.9929 C   0  0  0  0  0  0  0  0  0  0  0  0
  -28.0094  -25.7386   19.8125 C   0  0  0  0  0  0  0  0  0  0  0  0
  -24.2873  -31.0137   20.6733 C   0  0  0  0  0  0  0  0  0  0  0  0
  -24.0920  -31.9236   23.4802 C   0  0  0  0  0  0  0  0  0  0  0  0
  -28.4684  -26.9259   20.6551 C   0  0  0  0  0  0  0  0  0  0  0  0
  -21.3056  -15.5423   22.4419 C   0  0  0  0  0  0  0  0  0  0  0  0
  -27.6511  -27.0166   21.9398 C   0  0  0  0  0  0  0  0  0  0  0  0
  -22.5140  -14.7122   22.0100 C   0  0  0  0  0  0  0  0  0  0  0  0
  -17.0747  -28.4223   23.6935 C   0  0  0  0  0  0  0  0  0  0  0  0
  -17.0346  -29.9533   23.8710 C   0  0  0  0  0  0  0  0  0  0  0  0
  -21.5601  -17.0438   22.2974 C   0  0  0  0  0  0  0  0  0  0  0  0
  -20.5229  -19.7468   21.7282 C   0  0  0  0  0  0  0  0  0  0  0  0
  -19.3188  -19.5177   19.5868 C   0  0  0  0  0  0  0  0  0  0  0  0
  -23.2229  -16.6181   20.5162 C   0  0  0  0  0  0  0  0  0  0  0  0
  -20.7580  -21.2277   21.4485 C   0  0  0  0  0  0  0  0  0  0  0  0
  -19.5564  -20.9838   19.2636 C   0  0  0  0  0  0  0  0  0  0  0  0
  -26.1650  -27.2389   21.6337 C   0  0  1  0  0  0  0  0  0  0  0  0
  -25.4872  -30.9770   21.6147 C   0  0  1  0  0  0  0  0  0  0  0  0
  -22.9756  -15.1037   20.5949 C   0  0  1  0  0  0  0  0  0  0  0  0
  -18.5808  -28.5682   23.3937 C   0  0  2  0  0  0  0  0  0  0  0  0
  -18.2886  -30.0295   22.9674 C   0  0  2  0  0  0  0  0  0  1  0  0
  -26.3102  -37.9381   24.9115 C   0  0  0  0  0  0  0  0  0  0  0  0
  -27.2040  -31.4471   25.8800 C   0  0  0  0  0  0  0  0  0  0  0  0
  -27.1411  -33.7674   26.8183 C   0  0  0  0  0  0  0  0  0  0  0  0
  -28.7973  -33.1850   25.0461 C   0  0  0  0  0  0  0  0  0  0  0  0
  -24.1217  -37.0869   21.9179 C   0  0  0  0  0  0  0  0  0  0  0  0
  -19.2936  -23.9945   21.5250 C   0  0  0  0  0  0  0  0  0  0  0  0
  -19.3787  -25.5051   21.3039 C   0  0  0  0  0  0  0  0  0  0  0  0
  -19.8075  -23.2347   20.3112 C   0  0  0  0  0  0  0  0  0  0  0  0
  -18.8984  -26.2651   22.5314 C   0  0  0  0  0  0  0  0  0  0  0  0
  -26.3546  -33.4102   24.4340 C   0  0  1  0  0  0  0  0  0  0  0  0
  -25.8353  -37.0996   23.7351 C   0  0  2  0  0  0  0  0  0  0  0  0
  -27.3516  -32.9416   25.5312 C   0  0  0  0  0  0  0  0  0  0  0  0
  -25.4153  -14.8098   20.3875 N   0  0  0  0  0  0  0  0  0  0  0  0
  -24.1904  -14.3074   20.1564 N   0  0  0  0  0  0  0  0  0  0  0  0
  -25.3590  -31.9167   22.7305 N   0  0  0  0  0  0  0  0  0  0  0  0
  -22.0374  -17.3633   20.9447 N   0  0  0  0  0  0  0  0  0  0  0  0
  -20.3534  -18.9969   20.4777 N   0  0  0  0  0  0  0  0  0  0  0  0
  -23.0562  -12.4485   19.2242 N   0  0  0  0  0  0  0  0  0  0  0  0
  -27.4119  -11.4319   18.5995 N   0  0  0  0  0  0  0  0  0  0  0  0
  -25.9237  -28.6206   21.2768 N   0  0  0  0  0  0  0  0  0  0  0  0
  -26.4899  -34.8150   24.0643 N   0  0  0  0  0  0  0  0  0  0  0  0
  -19.6618  -21.7589   20.5563 N   0  3  0  0  0  0  0  0  0  0  0  0
  -19.0415  -27.7207   22.2883 N   0  3  0  0  0  0  0  0  0  0  0  0
  -24.6757  -37.7903   23.1033 N   0  3  0  0  0  0  0  0  0  0  0  0
  -25.2632  -10.7079   18.2567 O   0  0  0  0  0  0  0  0  0  0  0  0
  -25.7053  -29.4820   23.4292 O   0  0  0  0  0  0  0  0  0  0  0  0
  -27.5696  -32.6357   22.5497 O   0  0  0  0  0  0  0  0  0  0  0  0
  -24.3142  -35.4256   24.5844 O   0  0  0  0  0  0  0  0  0  0  0  0
  -21.4218  -17.8606   18.7801 O   0  0  0  0  0  0  0  0  0  0  0  0
  -31.7719  -14.5527   20.1117 O   0  0  0  0  0  0  0  0  0  0  0  0
  -19.2748  -31.0052   23.3456 O   0  0  0  0  0  0  0  0  0  1  0  0
  -34.8222  -10.2457   21.7083 F   0  0  0  0  0  0  0  0  0  0  0  0
  -31.7272  -12.1797   18.6941 F   0  0  0  0  0  0  0  0  0  0  0  0
  1  2  1  0  0  0  0
  1  5  2  0  0  0  0
  2  6  2  0  0  0  0
  3  8  2  0  0  0  0
  3 15  1  0  0  0  0
  4  9  1  0  0  0  0
  4 15  2  0  0  0  0
  5 17  1  0  0  0  0
  6 19  1  0  0  0  0
  7 10  2  0  0  0  0
  7 18  1  0  0  0  0
  8 21  1  0  0  0  0
  9 21  2  0  0  0  0
 10 22  1  0  0  0  0
 11 12  2  0  0  0  0
 11 23  1  0  0  0  0
 12 24  1  0  0  0  0
 13 20  1  0  0  0  0
 13 22  2  0  0  0  0
 14 24  2  0  0  0  0
 14 25  1  0  0  0  0
 15 26  1  0  0  0  0
 16 26  1  0  0  0  0
 16 27  2  0  0  0  0
 16 28  1  0  0  0  0
 17 19  2  0  0  0  0
 17 33  1  0  0  0  0
 18 20  2  0  0  0  0
 18 34  1  0  0  0  0
 19 48  1  0  0  0  0
 20 35  1  0  0  0  0
 21 82  1  0  0  0  0
 22 83  1  0  0  0  0
 23 25  2  0  0  0  0
 23 82  1  0  0  0  0
 24 84  1  0  0  0  0
 25 85  1  0  0  0  0
 26 65  2  0  0  0  0
 27 66  1  0  0  0  0
 27 70  1  0  0  0  0
 28 71  1  0  0  0  0
 28 77  2  0  0  0  0
 29 49  1  0  0  0  0
 29 72  1  0  0  0  0
 29 78  2  0  0  0  0
 30 62  1  0  0  0  0
 30 67  1  0  0  0  0
 30 79  2  0  0  0  0
 31 63  1  0  0  0  0
 31 73  1  0  0  0  0
 31 80  2  0  0  0  0
 32 68  1  0  0  0  0
 32 69  1  0  0  0  0
 32 81  2  0  0  0  0
 33 36  1  0  0  0  0
 34 49  1  0  0  0  0
 35 67  1  0  0  0  0
 36 38  1  0  0  0  0
 37 39  1  0  0  0  0
 37 42  1  0  0  0  0
 38 48  1  0  0  0  0
 39 50  1  0  0  0  0
 40 41  1  0  0  0  0
 40 51  1  0  0  0  0
 41 52  1  0  0  0  0
 42 68  1  0  0  0  0
 43 46  1  0  0  0  0
 43 69  1  0  0  0  0
 44 47  1  0  0  0  0
 44 69  1  0  0  0  0
 45 50  1  0  0  0  0
 45 68  1  0  0  0  0
 46 74  1  0  0  0  0
 47 74  1  0  0  0  0
 48 72  1  0  0  0  0
 49 67  1  0  0  0  0
 50 66  1  0  0  0  0
 51 52  1  0  0  0  0
 51 75  1  0  0  0  0
 52 83  1  0  0  0  0
 53 63  1  0  0  0  0
 54 64  1  0  0  0  0
 55 64  1  0  0  0  0
 56 64  1  0  0  0  0
 57 76  1  0  0  0  0
 58 59  1  0  0  0  0
 58 60  1  0  0  0  0
 59 61  1  0  0  0  0
 60 74  1  0  0  0  0
 61 75  1  0  0  0  0
 62 64  1  0  0  0  0
 62 73  1  0  0  0  0
 63 76  1  0  0  0  0
 65 66  1  0  0  0  0
M  CHG  3  74   1  75   1  76   1
M  ISO  4  32 100  52 101  69 100  83 101
M  END
> <Batch ID>
0196

> <Smiles>
CNC(C)C(=O)NC(C(=O)N1Cc2cc([101O:1][101CH:1]3CCC3NCCCCN3CC[100N:0]([100C:0](=O)N4CCCC(n5nc(-c6ccc(Oc7ccc(F)cc7F)cc6)c(C(N)=O)c5N)C4)CC3)ccc2CC1C(=O)NC1CCCc2ccccc21)C(C)(C)C

> <Shape>
0.279

> <Color>
0.062

> <Negative vol penalty>
0.000

$$$$

  -OEChem-04052323393D

 83 92  0     1  0  0  0  0  0999 V2000
  -28.6839  -36.3498   23.7848 C   0  0  0  0  0  0  0  0  0  0  0  0
  -29.0113  -35.0615   23.3743 C   0  0  0  0  0  0  0  0  0  0  0  0
  -24.3836   -9.0287   21.4434 C   0  0  0  0  0  0  0  0  0  0  0  0
  -24.3654  -10.7014   23.1866 C   0  0  0  0  0  0  0  0  0  0  0  0
  -27.4382  -36.6021   24.3580 C   0  0  0  0  0  0  0  0  0  0  0  0
  -28.0936  -34.0245   23.5379 C   0  0  0  0  0  0  0  0  0  0  0  0
  -27.2457  -29.2371   19.8140 C   0  0  0  0  0  0  0  0  0  0  0  0
  -23.9889   -8.0613   22.3675 C   0  0  0  0  0  0  0  0  0  0  0  0
  -23.9707   -9.7340   24.1108 C   0  0  0  0  0  0  0  0  0  0  0  0
  -27.6992  -27.9196   19.8619 C   0  0  0  0  0  0  0  0  0  0  0  0
  -21.1303   -7.0905   23.8902 C   0  0  0  0  0  0  0  0  0  0  0  0
  -20.1144   -6.2116   23.5147 C   0  0  0  0  0  0  0  0  0  0  0  0
  -29.6555  -21.9630   20.7633 C   0  0  0  0  0  0  0  0  0  0  0  0
  -25.6257  -27.2499   20.8970 C   0  0  0  0  0  0  0  0  0  0  0  0
  -21.6174   -4.3445   23.8186 C   0  0  0  0  0  0  0  0  0  0  0  0
  -29.7196  -23.3135   21.0053 C   0  0  0  0  0  0  0  0  0  0  0  0
  -24.5719  -10.3488   21.8530 C   0  0  0  0  0  0  0  0  0  0  0  0
  -24.1449  -12.1618   20.1100 C   0  0  0  0  0  0  0  0  0  0  0  0
  -26.5011  -35.5696   24.5199 C   0  0  0  0  0  0  0  0  0  0  0  0
  -25.9811  -29.5733   20.3180 C   0  0  0  0  0  0  0  0  0  0  0  0
  -26.8347  -34.2629   24.1151 C   0  0  0  0  0  0  0  0  0  0  0  0
  -25.1575  -28.5720   20.8519 C   0  0  0  0  0  0  0  0  0  0  0  0
  -23.7825   -8.4139   23.7012 C   0  0  0  0  0  0  0  0  0  0  0  0
  -26.8904  -26.9262   20.4061 C   0  0  0  0  0  0  0  0  0  0  0  0
  -22.3898   -6.5965   24.2298 C   0  0  0  0  0  0  0  0  0  0  0  0
  -20.3579   -4.8386   23.4789 C   0  0  0  0  0  0  0  0  0  0  0  0
  -22.6333   -5.2235   24.1940 C   0  0  0  0  0  0  0  0  0  0  0  0
  -24.9801  -11.3484   20.8989 C   0  0  0  0  0  0  0  0  0  0  0  0
  -28.7739  -21.8423   19.6725 C   0  0  0  0  0  0  0  0  0  0  0  0
  -25.0116  -12.9357   19.3776 C   0  0  0  0  0  0  0  0  0  0  0  0
  -22.7135  -12.2134   20.0450 C   0  0  0  0  0  0  0  0  0  0  0  0
  -24.9236  -31.4633   22.6447 C   0  0  0  0  0  0  0  0  0  0  0  0
  -22.0194  -30.6806   21.4300 C   0  0  0  0  0  0  0  0  0  0  0  0
  -20.1228  -28.4695   19.6521 C   0  0  0  0  0  0  0  0  0  0  0  0
  -29.5872  -16.1109   19.0207 C   0  0  0  0  0  0  0  0  0  0  0  0
  -25.1854  -35.8815   25.1880 C   0  0  0  0  0  0  0  0  0  0  0  0
  -25.4958  -30.9946   20.2345 C   0  0  0  0  0  0  0  0  0  0  0  0
  -23.7834  -28.8774   21.3878 C   0  0  0  0  0  0  0  0  0  0  0  0
  -24.1269  -34.8008   24.9831 C   0  0  0  0  0  0  0  0  0  0  0  0
  -30.0201  -12.5864   18.7617 C   0  0  0  0  0  0  0  0  0  0  0  0
  -24.7195  -33.4182   25.2367 C   0  0  0  0  0  0  0  0  0  0  0  0
  -28.6814  -12.0177   19.2353 C   0  0  0  0  0  0  0  0  0  0  0  0
  -30.4124  -13.8355   19.5478 C   0  0  0  0  0  0  0  0  0  0  0  0
  -28.0502  -14.3283   20.0485 C   0  0  0  0  0  0  0  0  0  0  0  0
  -28.9910  -19.3394   19.6336 C   0  0  0  0  0  0  0  0  0  0  0  0
  -27.5535  -20.4155   18.0033 C   0  0  0  0  0  0  0  0  0  0  0  0
  -25.8566  -33.1165   24.2531 C   0  0  1  0  0  0  0  0  0  0  0  0
  -24.3979  -31.3114   21.2453 C   0  0  1  0  0  0  0  0  0  0  0  0
  -27.5852  -13.1000   19.2476 C   0  0  2  0  0  0  0  0  0  0  0  0
  -28.6110  -18.3405   18.5358 C   0  0  2  0  0  0  0  0  0  0  0  0
  -27.2970  -18.9104   18.0222 C   0  0  2  0  0  0  0  0  0  0  0  0
  -17.7740  -28.0820   18.8584 C   0  0  0  0  0  0  0  0  0  0  0  0
  -21.2122  -29.8237   24.2450 C   0  0  0  0  0  0  0  0  0  0  0  0
  -19.2748  -28.5965   23.2407 C   0  0  0  0  0  0  0  0  0  0  0  0
  -19.4470  -31.0723   22.9882 C   0  0  0  0  0  0  0  0  0  0  0  0
  -20.9491  -28.5314   16.8109 C   0  0  0  0  0  0  0  0  0  0  0  0
  -28.6343  -25.3705   19.9306 C   0  0  0  0  0  0  0  0  0  1  0  0
  -21.0162  -29.5810   21.6821 C   0  0  1  0  0  0  0  0  0  0  0  0
  -19.1329  -28.6745   18.5196 C   0  0  2  0  0  0  0  0  0  0  0  0
  -20.2641  -29.7626   23.0308 C   0  0  0  0  0  0  0  0  0  0  0  0
  -26.2778  -11.5835   20.6875 N   0  0  0  0  0  0  0  0  0  0  0  0
  -28.3111  -23.0221   19.2506 N   0  0  0  0  0  0  0  0  0  0  0  0
  -28.9040  -23.8969   20.0808 N   0  0  0  0  0  0  0  0  0  0  0  0
  -26.2645  -12.5534   19.7574 N   0  0  0  0  0  0  0  0  0  0  0  0
  -28.4586  -20.6115   19.1380 N   0  0  3  0  0  0  0  0  0  0  0  0
  -23.3565  -30.2829   21.2896 N   0  0  0  0  0  0  0  0  0  0  0  0
  -29.3307  -14.8229   19.5188 N   0  0  0  0  0  0  0  0  0  0  0  0
  -24.8166  -13.8990   18.4522 N   0  0  0  0  0  0  0  0  0  0  0  0
  -21.9759  -11.3492   20.8656 N   0  0  0  0  0  0  0  0  0  0  0  0
  -25.3218  -32.7484   22.9597 N   0  0  0  0  0  0  0  0  0  0  0  0
  -20.1452  -29.5470   20.5122 N   0  0  0  0  0  0  0  0  0  0  0  0
  -28.5055  -16.9832   19.0229 N   0  0  0  0  0  0  0  0  0  0  0  0
  -26.9754  -18.4058   16.6755 N   0  3  0  0  0  0  0  0  0  0  0  0
  -19.6305  -28.0268   17.2731 N   0  3  0  0  0  0  0  0  0  0  0  0
  -22.1067  -12.9910   19.2699 O   0  0  0  0  0  0  0  0  0  0  0  0
  -24.9635  -30.4871   23.3843 O   0  0  0  0  0  0  0  0  0  0  0  0
  -21.6299  -31.8485   21.3532 O   0  0  0  0  0  0  0  0  0  0  0  0
  -20.8051  -27.4535   19.7647 O   0  0  0  0  0  0  0  0  0  0  0  0
  -30.6965  -16.4563   18.6000 O   0  0  0  0  0  0  0  0  0  0  0  0
  -23.3971   -7.4703   24.6032 O   0  0  0  0  0  0  0  0  0  0  0  0
  -27.3308  -25.6396   20.4547 O   0  0  0  0  0  0  0  0  0  1  0  0
  -19.3817   -3.9946   23.1198 F   0  0  0  0  0  0  0  0  0  0  0  0
  -23.8409   -4.7429   24.5203 F   0  0  0  0  0  0  0  0  0  0  0  0
  1  2  1  0  0  0  0
  1  5  2  0  0  0  0
  2  6  2  0  0  0  0
  3  8  2  0  0  0  0
  3 17  1  0  0  0  0
  4  9  1  0  0  0  0
  4 17  2  0  0  0  0
  5 19  1  0  0  0  0
  6 21  1  0  0  0  0
  7 10  2  0  0  0  0
  7 20  1  0  0  0  0
  8 23  1  0  0  0  0
  9 23  2  0  0  0  0
 10 24  1  0  0  0  0
 11 12  2  0  0  0  0
 11 25  1  0  0  0  0
 12 26  1  0  0  0  0
 13 16  2  0  0  0  0
 13 29  1  0  0  0  0
 14 22  1  0  0  0  0
 14 24  2  0  0  0  0
 15 26  2  0  0  0  0
 15 27  1  0  0  0  0
 16 63  1  0  0  0  0
 17 28  1  0  0  0  0
 18 28  1  0  0  0  0
 18 30  2  0  0  0  0
 18 31  1  0  0  0  0
 19 21  2  0  0  0  0
 19 36  1  0  0  0  0
 20 22  2  0  0  0  0
 20 37  1  0  0  0  0
 21 47  1  0  0  0  0
 22 38  1  0  0  0  0
 23 80  1  0  0  0  0
 24 81  1  0  0  0  0
 25 27  2  0  0  0  0
 25 80  1  0  0  0  0
 26 82  1  0  0  0  0
 27 83  1  0  0  0  0
 28 61  2  0  0  0  0
 29 62  2  0  0  0  0
 29 65  1  0  0  0  0
 30 64  1  0  0  0  0
 30 68  1  0  0  0  0
 31 69  1  0  0  0  0
 31 75  2  0  0  0  0
 32 48  1  0  0  0  0
 32 70  1  0  0  0  0
 32 76  2  0  0  0  0
 33 58  1  0  0  0  0
 33 66  1  0  0  0  0
 33 77  2  0  0  0  0
 34 59  1  0  0  0  0
 34 71  1  0  0  0  0
 34 78  2  0  0  0  0
 35 67  1  0  0  0  0
 35 72  1  0  0  0  0
 35 79  2  0  0  0  0
 36 39  1  0  0  0  0
 37 48  1  0  0  0  0
 38 66  1  0  0  0  0
 39 41  1  0  0  0  0
 40 42  1  0  0  0  0
 40 43  1  0  0  0  0
 41 47  1  0  0  0  0
 42 49  1  0  0  0  0
 43 67  1  0  0  0  0
 44 49  1  0  0  0  0
 44 67  1  0  0  0  0
 45 50  1  0  0  0  0
 45 65  1  0  0  0  0
 46 51  1  0  0  0  0
 46 65  1  0  0  0  0
 47 70  1  0  0  0  0
 48 66  1  0  0  0  0
 49 64  1  0  0  0  0
 50 51  1  0  0  0  0
 50 72  1  0  0  0  0
 51 73  1  0  0  0  0
 52 59  1  0  0  0  0
 53 60  1  0  0  0  0
 54 60  1  0  0  0  0
 55 60  1  0  0  0  0
 56 74  1  0  0  0  0
 57 63  1  0  0  0  0
 57 81  1  0  0  0  0
 58 60  1  0  0  0  0
 58 71  1  0  0  0  0
 59 74  1  0  0  0  0
 61 64  1  0  0  0  0
 62 63  1  0  0  0  0
M  CHG  2  73   1  74   1
M  ISO  4  35 100  57 101  72 100  81 101
M  END
> <Batch ID>
0196

> <Smiles>
CNC(C)C(=O)NC(C(=O)N1Cc2cc([101O:1][101CH2:1]n3ccc(N4CC(N)C([100NH:0][100C:0](=O)N5CCCC(n6nc(-c7ccc(Oc8ccc(F)cc8F)cc7)c(C(N)=O)c6N)C5)C4)n3)ccc2CC1C(=O)NC1CCCc2ccccc21)C(C)(C)C

> <Shape>
0.341

> <Color>
0.101

> <Negative vol penalty>
0.000

$$$$

  -OEChem-04052323393D

 85 94  0     1  0  0  0  0  0999 V2000
  -17.2724  -30.2380   24.3479 C   0  0  0  0  0  0  0  0  0  0  0  0
  -18.6427  -30.3884   24.5356 C   0  0  0  0  0  0  0  0  0  0  0  0
  -24.3249   -9.2136   21.5008 C   0  0  0  0  0  0  0  0  0  0  0  0
  -22.3612  -10.1211   20.4249 C   0  0  0  0  0  0  0  0  0  0  0  0
  -16.7923  -29.2596   23.4783 C   0  0  0  0  0  0  0  0  0  0  0  0
  -19.5336  -29.5597   23.8546 C   0  0  0  0  0  0  0  0  0  0  0  0
  -26.0722  -29.6006   20.9286 C   0  0  0  0  0  0  0  0  0  0  0  0
  -23.6640   -7.9988   21.6824 C   0  0  0  0  0  0  0  0  0  0  0  0
  -21.7003   -8.9062   20.6065 C   0  0  0  0  0  0  0  0  0  0  0  0
  -27.2670  -28.8823   20.9515 C   0  0  0  0  0  0  0  0  0  0  0  0
  -21.3614   -6.7076   23.7932 C   0  0  0  0  0  0  0  0  0  0  0  0
  -21.4679   -6.0930   25.0408 C   0  0  0  0  0  0  0  0  0  0  0  0
  -26.3258  -27.2794   19.4140 C   0  0  0  0  0  0  0  0  0  0  0  0
  -22.4762   -4.1588   24.0018 C   0  0  0  0  0  0  0  0  0  0  0  0
  -23.6735  -10.2748   20.8721 C   0  0  0  0  0  0  0  0  0  0  0  0
  -25.1385  -11.9157   19.5802 C   0  0  0  0  0  0  0  0  0  0  0  0
  -17.6782  -28.4249   22.7789 C   0  0  0  0  0  0  0  0  0  0  0  0
  -24.9898  -29.1569   20.1554 C   0  0  0  0  0  0  0  0  0  0  0  0
  -19.0649  -28.5684   22.9757 C   0  0  0  0  0  0  0  0  0  0  0  0
  -25.1193  -27.9952   19.3810 C   0  0  0  0  0  0  0  0  0  0  0  0
  -22.3517   -7.8451   21.2353 C   0  0  0  0  0  0  0  0  0  0  0  0
  -27.3929  -27.7200   20.1964 C   0  0  0  0  0  0  0  0  0  0  0  0
  -21.8123   -6.0478   22.6499 C   0  0  0  0  0  0  0  0  0  0  0  0
  -22.0253   -4.8186   25.1451 C   0  0  0  0  0  0  0  0  0  0  0  0
  -22.3697   -4.7734   22.7542 C   0  0  0  0  0  0  0  0  0  0  0  0
  -24.3554  -11.5302   20.6847 C   0  0  0  0  0  0  0  0  0  0  0  0
  -25.5586  -13.1875   19.8842 C   0  0  0  0  0  0  0  0  0  0  0  0
  -28.3427  -22.7232   20.5094 C   0  0  0  0  0  0  0  0  0  0  0  0
  -29.1278  -23.8035   20.5258 C   0  0  0  0  0  0  0  0  0  0  0  0
  -27.5928  -22.4280   21.7525 C   0  0  0  0  0  0  0  0  0  0  0  0
  -28.5274  -24.3010   22.7697 C   0  0  0  0  0  0  0  0  0  0  0  0
  -25.4575  -11.1891   18.3860 C   0  0  0  0  0  0  0  0  0  0  0  0
  -22.0197  -28.2158   20.7854 C   0  0  0  0  0  0  0  0  0  0  0  0
  -21.7647  -28.1676   17.5520 C   0  0  0  0  0  0  0  0  0  0  0  0
  -23.3242  -27.9254   14.5260 C   0  0  0  0  0  0  0  0  0  0  0  0
  -24.0711  -18.2649   21.7070 C   0  0  0  0  0  0  0  0  0  0  0  0
  -17.1107  -27.3504   21.8856 C   0  0  0  0  0  0  0  0  0  0  0  0
  -23.7169  -29.9575   20.1207 C   0  0  0  0  0  0  0  0  0  0  0  0
  -23.9938  -27.4875   18.5184 C   0  0  0  0  0  0  0  0  0  0  0  0
  -18.1326  -26.7614   20.9165 C   0  0  0  0  0  0  0  0  0  0  0  0
  -25.2989  -15.8054   24.2003 C   0  0  0  0  0  0  0  0  0  0  0  0
  -19.4339  -26.4386   21.6440 C   0  0  0  0  0  0  0  0  0  0  0  0
  -25.1809  -14.4986   23.4148 C   0  0  0  0  0  0  0  0  0  0  0  0
  -24.6576  -21.6983   22.9729 C   0  0  0  0  0  0  0  0  0  0  0  0
  -24.2335  -16.8023   23.7633 C   0  0  0  0  0  0  0  0  0  0  0  0
  -23.8415  -20.6836   22.1813 C   0  0  0  0  0  0  0  0  0  0  0  0
  -24.1204  -15.8054   21.5115 C   0  0  0  0  0  0  0  0  0  0  0  0
  -25.7625  -19.5789   23.1190 C   0  0  0  0  0  0  0  0  0  0  0  0
  -20.0638  -27.7051   22.2361 C   0  0  1  0  0  0  0  0  0  0  0  0
  -22.5041  -29.1337   19.6989 C   0  0  1  0  0  0  0  0  0  0  0  0
  -25.1812  -14.7594   21.8975 C   0  0  2  0  0  0  0  0  0  0  0  0
  -26.0462  -21.0739   23.0488 C   0  0  1  0  0  0  0  0  0  0  0  0
  -22.8481  -27.8800   12.0626 C   0  0  0  0  0  0  0  0  0  0  0  0
  -20.7813  -25.2896   17.7975 C   0  0  0  0  0  0  0  0  0  0  0  0
  -21.2320  -25.0005   15.3518 C   0  0  0  0  0  0  0  0  0  0  0  0
  -19.5483  -26.6737   16.1187 C   0  0  0  0  0  0  0  0  0  0  0  0
  -24.9313  -30.3651   14.0527 C   0  0  0  0  0  0  0  0  0  0  0  0
  -30.1461  -25.7983   21.5597 C   0  0  0  0  0  0  0  0  0  0  0  0
  -29.3286  -27.0711   21.4162 C   0  0  0  0  0  0  0  0  0  1  0  0
  -22.0079  -27.1374   16.4756 C   0  0  1  0  0  0  0  0  0  0  0  0
  -23.1979  -28.7515   13.2588 C   0  0  2  0  0  0  0  0  0  0  0  0
  -20.9131  -26.0335   16.4535 C   0  0  0  0  0  0  0  0  0  0  0  0
  -24.2810  -12.4802   21.6207 N   0  0  0  0  0  0  0  0  0  0  0  0
  -27.7302  -23.2571   22.8428 N   0  0  0  0  0  0  0  0  0  0  0  0
  -25.0228  -13.4752   21.1050 N   0  0  0  0  0  0  0  0  0  0  0  0
  -29.2647  -24.6332   21.6236 N   0  0  0  0  0  0  0  0  0  0  0  0
  -22.7672  -28.3018   18.5229 N   0  0  0  0  0  0  0  0  0  0  0  0
  -24.2731  -17.0205   22.3146 N   0  0  0  0  0  0  0  0  0  0  0  0
  -24.4966  -19.3982   22.3995 N   0  0  0  0  0  0  0  0  0  0  0  0
  -26.3304  -14.0766   19.2238 N   0  0  0  0  0  0  0  0  0  0  0  0
  -28.6627  -25.1270   23.8610 N   0  0  0  0  0  0  0  0  0  0  0  0
  -24.9431   -9.8942   18.2343 N   0  0  0  0  0  0  0  0  0  0  0  0
  -20.7271  -28.4704   21.2023 N   0  0  0  0  0  0  0  0  0  0  0  0
  -22.1363  -27.8767   15.2245 N   0  0  0  0  0  0  0  0  0  0  0  0
  -26.7979  -21.3814   21.8224 N   0  3  0  0  0  0  0  0  0  0  0  0
  -24.4794  -29.4549   12.9691 N   0  3  0  0  0  0  0  0  0  0  0  0
  -26.1908  -11.6675   17.4878 O   0  0  0  0  0  0  0  0  0  0  0  0
  -22.7631  -27.3403   21.2127 O   0  0  0  0  0  0  0  0  0  0  0  0
  -20.7268  -28.8338   17.5280 O   0  0  0  0  0  0  0  0  0  0  0  0
  -24.3709  -27.3750   14.8608 O   0  0  0  0  0  0  0  0  0  0  0  0
  -23.5780  -18.3562   20.5749 O   0  0  0  0  0  0  0  0  0  0  0  0
  -21.7066   -6.6597   21.4121 O   0  0  0  0  0  0  0  0  0  0  0  0
  -28.5659  -27.0117   20.2176 O   0  0  0  0  0  0  0  0  0  1  0  0
  -22.1288   -4.2291   26.3434 F   0  0  0  0  0  0  0  0  0  0  0  0
  -22.8057   -4.1351   21.6595 F   0  0  0  0  0  0  0  0  0  0  0  0
  1  2  1  0  0  0  0
  1  5  2  0  0  0  0
  2  6  2  0  0  0  0
  3  8  2  0  0  0  0
  3 15  1  0  0  0  0
  4  9  1  0  0  0  0
  4 15  2  0  0  0  0
  5 17  1  0  0  0  0
  6 19  1  0  0  0  0
  7 10  2  0  0  0  0
  7 18  1  0  0  0  0
  8 21  1  0  0  0  0
  9 21  2  0  0  0  0
 10 22  1  0  0  0  0
 11 12  2  0  0  0  0
 11 23  1  0  0  0  0
 12 24  1  0  0  0  0
 13 20  1  0  0  0  0
 13 22  2  0  0  0  0
 14 24  2  0  0  0  0
 14 25  1  0  0  0  0
 15 26  1  0  0  0  0
 16 26  1  0  0  0  0
 16 27  2  0  0  0  0
 16 32  1  0  0  0  0
 17 19  2  0  0  0  0
 17 37  1  0  0  0  0
 18 20  2  0  0  0  0
 18 38  1  0  0  0  0
 19 49  1  0  0  0  0
 20 39  1  0  0  0  0
 21 82  1  0  0  0  0
 22 83  1  0  0  0  0
 23 25  2  0  0  0  0
 23 82  1  0  0  0  0
 24 84  1  0  0  0  0
 25 85  1  0  0  0  0
 26 63  2  0  0  0  0
 27 65  1  0  0  0  0
 27 70  1  0  0  0  0
 28 29  2  0  0  0  0
 28 30  1  0  0  0  0
 29 66  1  0  0  0  0
 30 64  1  0  0  0  0
 30 75  2  0  0  0  0
 31 64  2  0  0  0  0
 31 66  1  0  0  0  0
 31 71  1  0  0  0  0
 32 72  1  0  0  0  0
 32 77  2  0  0  0  0
 33 50  1  0  0  0  0
 33 73  1  0  0  0  0
 33 78  2  0  0  0  0
 34 60  1  0  0  0  0
 34 67  1  0  0  0  0
 34 79  2  0  0  0  0
 35 61  1  0  0  0  0
 35 74  1  0  0  0  0
 35 80  2  0  0  0  0
 36 68  1  0  0  0  0
 36 69  1  0  0  0  0
 36 81  2  0  0  0  0
 37 40  1  0  0  0  0
 38 50  1  0  0  0  0
 39 67  1  0  0  0  0
 40 42  1  0  0  0  0
 41 43  1  0  0  0  0
 41 45  1  0  0  0  0
 42 49  1  0  0  0  0
 43 51  1  0  0  0  0
 44 46  1  0  0  0  0
 44 52  1  0  0  0  0
 45 68  1  0  0  0  0
 46 69  1  0  0  0  0
 47 51  1  0  0  0  0
 47 68  1  0  0  0  0
 48 52  1  0  0  0  0
 48 69  1  0  0  0  0
 49 73  1  0  0  0  0
 50 67  1  0  0  0  0
 51 65  1  0  0  0  0
 52 75  1  0  0  0  0
 53 61  1  0  0  0  0
 54 62  1  0  0  0  0
 55 62  1  0  0  0  0
 56 62  1  0  0  0  0
 57 76  1  0  0  0  0
 58 59  1  0  0  0  0
 58 66  1  0  0  0  0
 59 83  1  0  0  0  0
 60 62  1  0  0  0  0
 60 74  1  0  0  0  0
 61 76  1  0  0  0  0
 63 65  1  0  0  0  0
M  CHG  2  75   1  76   1
M  ISO  4  36 100  59 101  69 100  83 101
M  END
> <Batch ID>
0196

> <Smiles>
CNC(C)C(=O)NC(C(=O)N1Cc2cc([101O:1][101CH2:1]Cn3ccc(NC4CC[100N:0]([100C:0](=O)N5CCCC(n6nc(-c7ccc(Oc8ccc(F)cc8F)cc7)c(C(N)=O)c6N)C5)C4)nc3=N)ccc2CC1C(=O)NC1CCCc2ccccc21)C(C)(C)C

> <Shape>
0.262

> <Color>
0.132

> <Negative vol penalty>
0.000

$$$$

  -OEChem-04052323393D

 83 92  0     1  0  0  0  0  0999 V2000
  -30.9730  -34.9555   25.0824 C   0  0  0  0  0  0  0  0  0  0  0  0
  -31.1219  -33.6740   24.5616 C   0  0  0  0  0  0  0  0  0  0  0  0
  -22.4828  -12.6593   20.9228 C   0  0  0  0  0  0  0  0  0  0  0  0
  -22.8973  -10.2866   20.7350 C   0  0  0  0  0  0  0  0  0  0  0  0
  -29.8315  -35.2813   25.8136 C   0  0  0  0  0  0  0  0  0  0  0  0
  -30.1297  -32.7172   24.7728 C   0  0  0  0  0  0  0  0  0  0  0  0
  -28.3936  -28.2984   20.9043 C   0  0  0  0  0  0  0  0  0  0  0  0
  -21.1629  -12.4608   20.5177 C   0  0  0  0  0  0  0  0  0  0  0  0
  -21.5774  -10.0880   20.3299 C   0  0  0  0  0  0  0  0  0  0  0  0
  -28.7159  -26.9445   20.8212 C   0  0  0  0  0  0  0  0  0  0  0  0
  -18.2680  -11.3895   21.8977 C   0  0  0  0  0  0  0  0  0  0  0  0
  -17.2651  -12.0455   22.6116 C   0  0  0  0  0  0  0  0  0  0  0  0
  -26.7162  -26.3988   22.0552 C   0  0  0  0  0  0  0  0  0  0  0  0
  -16.5796  -13.1897   20.5971 C   0  0  0  0  0  0  0  0  0  0  0  0
  -29.9476  -22.1574   21.7128 C   0  0  0  0  0  0  0  0  0  0  0  0
  -23.3500  -11.5722   21.0314 C   0  0  0  0  0  0  0  0  0  0  0  0
  -25.2110  -11.7591   22.7662 C   0  0  0  0  0  0  0  0  0  0  0  0
  -28.8204  -34.3308   26.0256 C   0  0  0  0  0  0  0  0  0  0  0  0
  -27.2338  -28.7141   21.5740 C   0  0  0  0  0  0  0  0  0  0  0  0
  -28.9742  -33.0302   25.5087 C   0  0  0  0  0  0  0  0  0  0  0  0
  -26.3801  -27.7584   22.1432 C   0  0  0  0  0  0  0  0  0  0  0  0
  -20.7102  -11.1752   20.2212 C   0  0  0  0  0  0  0  0  0  0  0  0
  -27.8787  -25.9947   21.3992 C   0  0  0  0  0  0  0  0  0  0  0  0
  -18.4267  -11.6337   20.5336 C   0  0  0  0  0  0  0  0  0  0  0  0
  -16.4209  -12.9456   21.9613 C   0  0  0  0  0  0  0  0  0  0  0  0
  -17.5825  -12.5337   19.8833 C   0  0  0  0  0  0  0  0  0  0  0  0
  -24.7137  -11.7767   21.4493 C   0  0  0  0  0  0  0  0  0  0  0  0
  -29.5546  -22.8526   20.5981 C   0  0  0  0  0  0  0  0  0  0  0  0
  -26.5555  -12.0041   22.6288 C   0  0  0  0  0  0  0  0  0  0  0  0
  -29.8326  -20.2431   20.5204 C   0  0  0  0  0  0  0  0  0  0  0  0
  -24.5194  -11.5408   24.0031 C   0  0  0  0  0  0  0  0  0  0  0  0
  -26.6396  -30.5276   24.1160 C   0  0  0  0  0  0  0  0  0  0  0  0
  -23.5533  -30.1024   23.2125 C   0  0  0  0  0  0  0  0  0  0  0  0
  -21.2572  -28.2044   21.5475 C   0  0  0  0  0  0  0  0  0  0  0  0
  -30.7385  -14.8775   20.3162 C   0  0  0  0  0  0  0  0  0  0  0  0
  -27.6263  -34.7157   26.8627 C   0  0  0  0  0  0  0  0  0  0  0  0
  -26.8864  -30.1764   21.6317 C   0  0  0  0  0  0  0  0  0  0  0  0
  -25.1127  -28.1514   22.8557 C   0  0  0  0  0  0  0  0  0  0  0  0
  -26.4489  -33.7541   26.7228 C   0  0  0  0  0  0  0  0  0  0  0  0
  -29.5018  -12.0880   18.5393 C   0  0  0  0  0  0  0  0  0  0  0  0
  -26.9255  -32.3086   26.8232 C   0  0  0  0  0  0  0  0  0  0  0  0
  -28.1722  -11.7681   19.2170 C   0  0  0  0  0  0  0  0  0  0  0  0
  -31.0272  -17.9188   22.4082 C   0  0  0  0  0  0  0  0  0  0  0  0
  -29.7233  -13.5927   18.4675 C   0  0  0  0  0  0  0  0  0  0  0  0
  -31.6438  -16.7357   21.6758 C   0  0  0  0  0  0  0  0  0  0  0  0
  -28.3819  -13.9469   20.5228 C   0  0  0  0  0  0  0  0  0  0  0  0
  -29.2706  -16.7422   21.2964 C   0  0  0  0  0  0  0  0  0  0  0  0
  -27.9085  -31.9721   25.6953 C   0  0  1  0  0  0  0  0  0  0  0  0
  -25.9468  -30.5223   22.7828 C   0  0  1  0  0  0  0  0  0  0  0  0
  -28.0951  -12.4330   20.6002 C   0  0  1  0  0  0  0  0  0  0  0  0
  -29.7251  -18.1531   21.6500 C   0  0  2  0  0  0  0  0  0  0  0  0
  -18.8068  -28.0912   21.0181 C   0  0  0  0  0  0  0  0  0  0  0  0
  -22.9878  -29.1305   26.0490 C   0  0  0  0  0  0  0  0  0  0  0  0
  -20.8367  -28.1599   25.2129 C   0  0  0  0  0  0  0  0  0  0  0  0
  -21.2253  -30.6207   25.0860 C   0  0  0  0  0  0  0  0  0  0  0  0
  -21.7593  -28.3866   18.6366 C   0  0  0  0  0  0  0  0  0  0  0  0
  -29.3932  -24.3304   20.6295 C   0  0  0  0  0  0  0  0  0  1  0  0
  -22.4804  -29.0852   23.5178 C   0  0  1  0  0  0  0  0  0  0  0  0
  -20.1711  -28.5779   20.5548 C   0  0  2  0  0  0  0  0  0  0  0  0
  -21.9074  -29.2415   24.9547 C   0  0  0  0  0  0  0  0  0  0  0  0
  -30.0973  -20.8242   21.6999 N   0  0  0  0  0  0  0  0  0  0  0  0
  -25.6648  -12.0142   20.5421 N   0  0  0  0  0  0  0  0  0  0  0  0
  -29.3025  -22.2145   19.4409 N   0  0  0  0  0  0  0  0  0  0  0  0
  -29.4435  -20.8734   19.3946 N   0  0  0  0  0  0  0  0  0  0  0  0
  -26.7732  -12.1482   21.2902 N   0  0  0  0  0  0  0  0  0  0  0  0
  -24.8197  -29.5937   22.8909 N   0  0  0  0  0  0  0  0  0  0  0  0
  -29.6226  -14.2204   19.7863 N   0  0  0  0  0  0  0  0  0  0  0  0
  -30.5162  -15.9835   21.1363 N   0  0  0  0  0  0  0  0  0  0  0  0
  -27.5608  -12.1082   23.5237 N   0  0  0  0  0  0  0  0  0  0  0  0
  -23.1387  -11.3035   23.9637 N   0  0  0  0  0  0  0  0  0  0  0  0
  -27.1970  -31.7456   24.4556 N   0  0  0  0  0  0  0  0  0  0  0  0
  -21.4839  -29.2129   22.4600 N   0  0  0  0  0  0  0  0  0  0  0  0
  -20.4577  -27.9750   19.2224 N   0  3  0  0  0  0  0  0  0  0  0  0
  -25.1056  -11.5721   25.1116 O   0  0  0  0  0  0  0  0  0  0  0  0
  -26.6653  -29.5029   24.7877 O   0  0  0  0  0  0  0  0  0  0  0  0
  -23.2761  -31.3038   23.2506 O   0  0  0  0  0  0  0  0  0  0  0  0
  -21.8430  -27.1243   21.5188 O   0  0  0  0  0  0  0  0  0  0  0  0
  -31.8897  -14.5181   20.0341 O   0  0  0  0  0  0  0  0  0  0  0  0
  -19.4223  -10.9811   19.8261 O   0  0  0  0  0  0  0  0  0  0  0  0
  -28.1933  -24.6642   21.3196 O   0  0  0  0  0  0  0  0  0  1  0  0
  -29.9692  -18.8813   20.4533 O   0  0  0  0  0  0  0  0  0  0  0  0
  -15.4569  -13.5743   22.6466 F   0  0  0  0  0  0  0  0  0  0  0  0
  -17.7294  -12.7715   18.5727 F   0  0  0  0  0  0  0  0  0  0  0  0
  1  2  1  0  0  0  0
  1  5  2  0  0  0  0
  2  6  2  0  0  0  0
  3  8  2  0  0  0  0
  3 16  1  0  0  0  0
  4  9  1  0  0  0  0
  4 16  2  0  0  0  0
  5 18  1  0  0  0  0
  6 20  1  0  0  0  0
  7 10  2  0  0  0  0
  7 19  1  0  0  0  0
  8 22  1  0  0  0  0
  9 22  2  0  0  0  0
 10 23  1  0  0  0  0
 11 12  2  0  0  0  0
 11 24  1  0  0  0  0
 12 25  1  0  0  0  0
 13 21  1  0  0  0  0
 13 23  2  0  0  0  0
 14 25  2  0  0  0  0
 14 26  1  0  0  0  0
 15 28  1  0  0  0  0
 15 61  2  0  0  0  0
 16 27  1  0  0  0  0
 17 27  1  0  0  0  0
 17 29  2  0  0  0  0
 17 31  1  0  0  0  0
 18 20  2  0  0  0  0
 18 36  1  0  0  0  0
 19 21  2  0  0  0  0
 19 37  1  0  0  0  0
 20 48  1  0  0  0  0
 21 38  1  0  0  0  0
 22 79  1  0  0  0  0
 23 80  1  0  0  0  0
 24 26  2  0  0  0  0
 24 79  1  0  0  0  0
 25 82  1  0  0  0  0
 26 83  1  0  0  0  0
 27 62  2  0  0  0  0
 28 57  1  0  0  0  0
 28 63  2  0  0  0  0
 29 65  1  0  0  0  0
 29 69  1  0  0  0  0
 30 61  1  0  0  0  0
 30 64  2  0  0  0  0
 30 81  1  0  0  0  0
 31 70  1  0  0  0  0
 31 74  2  0  0  0  0
 32 49  1  0  0  0  0
 32 71  1  0  0  0  0
 32 75  2  0  0  0  0
 33 58  1  0  0  0  0
 33 66  1  0  0  0  0
 33 76  2  0  0  0  0
 34 59  1  0  0  0  0
 34 72  1  0  0  0  0
 34 77  2  0  0  0  0
 35 67  1  0  0  0  0
 35 68  1  0  0  0  0
 35 78  2  0  0  0  0
 36 39  1  0  0  0  0
 37 49  1  0  0  0  0
 38 66  1  0  0  0  0
 39 41  1  0  0  0  0
 40 42  1  0  0  0  0
 40 44  1  0  0  0  0
 41 48  1  0  0  0  0
 42 50  1  0  0  0  0
 43 45  1  0  0  0  0
 43 51  1  0  0  0  0
 44 67  1  0  0  0  0
 45 68  1  0  0  0  0
 46 50  1  0  0  0  0
 46 67  1  0  0  0  0
 47 51  1  0  0  0  0
 47 68  1  0  0  0  0
 48 71  1  0  0  0  0
 49 66  1  0  0  0  0
 50 65  1  0  0  0  0
 51 81  1  0  0  0  0
 52 59  1  0  0  0  0
 53 60  1  0  0  0  0
 54 60  1  0  0  0  0
 55 60  1  0  0  0  0
 56 73  1  0  0  0  0
 57 80  1  0  0  0  0
 58 60  1  0  0  0  0
 58 72  1  0  0  0  0
 59 73  1  0  0  0  0
 62 65  1  0  0  0  0
 63 64  1  0  0  0  0
M  CHG  1  73   1
M  ISO  4  35 100  57 101  68 100  80 101
M  END
> <Batch ID>
0196

> <Smiles>
CNC(C)C(=O)NC(C(=O)N1Cc2cc([101O:1][101CH2:1]c3cnc(OC4CC[100N:0]([100C:0](=O)N5CCCC(n6nc(-c7ccc(Oc8ccc(F)cc8F)cc7)c(C(N)=O)c6N)C5)C4)nn3)ccc2CC1C(=O)NC1CCCc2ccccc21)C(C)(C)C

> <Shape>
0.275

> <Color>
0.103

> <Negative vol penalty>
0.000

$$$$

  -OEChem-04052323393D

 85 95  0     1  0  0  0  0  0999 V2000
  -30.8071  -34.8037   18.7784 C   0  0  0  0  0  0  0  0  0  0  0  0
  -30.8945  -33.4205   18.6581 C   0  0  0  0  0  0  0  0  0  0  0  0
  -24.5406   -8.7530   21.4061 C   0  0  0  0  0  0  0  0  0  0  0  0
  -23.3884  -10.6719   22.3155 C   0  0  0  0  0  0  0  0  0  0  0  0
  -30.0128  -35.3667   19.7765 C   0  0  0  0  0  0  0  0  0  0  0  0
  -30.1885  -32.5994   19.5366 C   0  0  0  0  0  0  0  0  0  0  0  0
  -27.6266  -27.1851   18.2606 C   0  0  0  0  0  0  0  0  0  0  0  0
  -23.9914   -7.9496   22.4053 C   0  0  0  0  0  0  0  0  0  0  0  0
  -22.8391   -9.8685   23.3147 C   0  0  0  0  0  0  0  0  0  0  0  0
  -28.0525  -25.8738   18.4676 C   0  0  0  0  0  0  0  0  0  0  0  0
  -21.0350   -6.4370   23.0413 C   0  0  0  0  0  0  0  0  0  0  0  0
  -20.5081   -5.2019   22.6636 C   0  0  0  0  0  0  0  0  0  0  0  0
  -26.7783  -25.7895   20.5142 C   0  0  0  0  0  0  0  0  0  0  0  0
  -22.0767   -4.0862   24.1236 C   0  0  0  0  0  0  0  0  0  0  0  0
  -24.9002  -20.4857   20.3044 C   0  0  0  0  0  0  0  0  0  0  0  0
  -24.2392  -10.1142   21.3612 C   0  0  0  0  0  0  0  0  0  0  0  0
  -24.2600  -11.2177   19.0613 C   0  0  0  0  0  0  0  0  0  0  0  0
  -29.2891  -34.5521   20.6615 C   0  0  0  0  0  0  0  0  0  0  0  0
  -26.7807  -27.8133   19.1860 C   0  0  0  0  0  0  0  0  0  0  0  0
  -29.3849  -33.1520   20.5483 C   0  0  0  0  0  0  0  0  0  0  0  0
  -26.3410  -27.1080   20.3153 C   0  0  0  0  0  0  0  0  0  0  0  0
  -23.1406   -8.5073   23.3596 C   0  0  0  0  0  0  0  0  0  0  0  0
  -27.6307  -25.1768   19.5960 C   0  0  0  0  0  0  0  0  0  0  0  0
  -22.0828   -6.4966   23.9601 C   0  0  0  0  0  0  0  0  0  0  0  0
  -21.0289   -4.0266   23.2048 C   0  0  0  0  0  0  0  0  0  0  0  0
  -22.6036   -5.3213   24.5013 C   0  0  0  0  0  0  0  0  0  0  0  0
  -24.8067  -10.9447   20.3296 C   0  0  0  0  0  0  0  0  0  0  0  0
  -24.5986  -21.5431   19.4254 C   0  0  0  0  0  0  0  0  0  0  0  0
  -26.2681  -20.3740   20.2507 C   0  0  0  0  0  0  0  0  0  0  0  0
  -25.1749  -12.0507   18.4651 C   0  0  0  0  0  0  0  0  0  0  0  0
  -23.0346  -10.7594   18.4747 C   0  0  0  0  0  0  0  0  0  0  0  0
  -27.0142  -30.3655   21.0662 C   0  0  0  0  0  0  0  0  0  0  0  0
  -23.8971  -29.7129   21.6828 C   0  0  0  0  0  0  0  0  0  0  0  0
  -21.3813  -27.4085   21.7673 C   0  0  0  0  0  0  0  0  0  0  0  0
  -29.2825  -15.8223   20.6253 C   0  0  0  0  0  0  0  0  0  0  0  0
  -28.4812  -35.2062   21.7543 C   0  0  0  0  0  0  0  0  0  0  0  0
  -26.3088  -29.2191   18.9345 C   0  0  0  0  0  0  0  0  0  0  0  0
  -25.4165  -27.7302   21.3285 C   0  0  0  0  0  0  0  0  0  0  0  0
  -27.4694  -34.2686   22.4081 C   0  0  0  0  0  0  0  0  0  0  0  0
  -29.8497  -13.0762   18.4460 C   0  0  0  0  0  0  0  0  0  0  0  0
  -28.1190  -32.9283   22.7376 C   0  0  0  0  0  0  0  0  0  0  0  0
  -22.8702  -23.5131   19.3679 C   0  0  0  0  0  0  0  0  0  0  0  0
  -22.3206  -22.4904   20.3125 C   0  0  0  0  0  0  0  0  0  0  0  0
  -28.5712  -12.2444   18.5622 C   0  0  0  0  0  0  0  0  0  0  0  0
  -30.2401  -13.7006   19.7839 C   0  0  0  0  0  0  0  0  0  0  0  0
  -27.9002  -13.6563   20.5514 C   0  0  0  0  0  0  0  0  0  0  0  0
  -26.8121  -18.5189   21.7950 C   0  0  0  0  0  0  0  0  0  0  0  0
  -28.2235  -18.8581   20.2743 C   0  0  0  0  0  0  0  0  0  0  0  0
  -28.6146  -32.2281   21.4666 C   0  0  1  0  0  0  0  0  0  0  0  0
  -23.1835  -22.0462   19.1478 C   0  0  0  0  0  0  0  0  0  0  0  0
  -25.8607  -29.9352   20.2048 C   0  0  1  0  0  0  0  0  0  0  0  0
  -27.4335  -13.0520   19.2158 C   0  0  2  0  0  0  0  0  0  0  0  0
  -28.1883  -17.9136   21.4841 C   0  0  0  0  0  0  0  0  0  0  0  0
  -18.9528  -27.1637   22.3504 C   0  0  0  0  0  0  0  0  0  0  0  0
  -24.6104  -29.7283   24.6494 C   0  0  0  0  0  0  0  0  0  0  0  0
  -22.4389  -28.5689   25.1062 C   0  0  0  0  0  0  0  0  0  0  0  0
  -22.4448  -30.8477   24.0914 C   0  0  0  0  0  0  0  0  0  0  0  0
  -20.6769  -26.6234   19.0021 C   0  0  0  0  0  0  0  0  0  0  0  0
  -28.1063  -21.6335   18.9615 C   0  0  0  0  0  0  0  0  0  0  0  0
  -28.3183  -23.1094   18.6426 C   0  0  0  0  0  0  0  0  0  1  0  0
  -23.1617  -28.8666   22.6937 C   0  0  1  0  0  0  0  0  0  0  0  0
  -19.9565  -27.4530   21.2452 C   0  0  2  0  0  0  0  0  0  0  0  0
  -23.1829  -29.4915   24.1173 C   0  0  0  0  0  0  0  0  0  0  0  0
  -25.9782  -11.5546   20.5282 N   0  0  0  0  0  0  0  0  0  0  0  0
  -25.6874  -22.0660   18.8550 N   0  0  0  0  0  0  0  0  0  0  0  0
  -26.6864  -21.3341   19.3769 N   0  0  0  0  0  0  0  0  0  0  0  0
  -26.1752  -12.2192   19.3769 N   0  0  0  0  0  0  0  0  0  0  0  0
  -27.1349  -19.5469   20.8706 N   0  0  0  0  0  0  0  0  0  0  0  0
  -24.9879  -29.1091   21.0414 N   0  0  0  0  0  0  0  0  0  0  0  0
  -29.1176  -14.4566   20.3452 N   0  0  0  0  0  0  0  0  0  0  0  0
  -25.2134  -12.6482   17.2552 N   0  0  0  0  0  0  0  0  0  0  0  0
  -22.2117   -9.9086   19.2252 N   0  0  0  0  0  0  0  0  0  0  0  0
  -27.5076  -31.6195   20.7604 N   0  0  0  0  0  0  0  0  0  0  0  0
  -21.8230  -28.6563   22.1534 N   0  0  0  0  0  0  0  0  0  0  0  0
  -28.1708  -16.4751   21.1478 N   0  0  0  0  0  0  0  0  0  0  0  0
  -19.7692  -26.4442   20.1643 N   0  3  0  0  0  0  0  0  0  0  0  0
  -22.6879  -11.0813   17.3129 O   0  0  0  0  0  0  0  0  0  0  0  0
  -27.4251  -29.6159   21.9442 O   0  0  0  0  0  0  0  0  0  0  0  0
  -23.5133  -30.8648   21.4648 O   0  0  0  0  0  0  0  0  0  0  0  0
  -22.0355  -26.3699   21.8300 O   0  0  0  0  0  0  0  0  0  0  0  0
  -30.3408  -16.4262   20.4193 O   0  0  0  0  0  0  0  0  0  0  0  0
  -22.6043   -7.7236   24.3347 O   0  0  0  0  0  0  0  0  0  0  0  0
  -28.0454  -23.8970   19.8009 O   0  0  0  0  0  0  0  0  0  1  0  0
  -20.5218   -2.8407   22.8431 F   0  0  0  0  0  0  0  0  0  0  0  0
  -23.6095   -5.3723   25.3853 F   0  0  0  0  0  0  0  0  0  0  0  0
  1  2  1  0  0  0  0
  1  5  2  0  0  0  0
  2  6  2  0  0  0  0
  3  8  2  0  0  0  0
  3 16  1  0  0  0  0
  4  9  1  0  0  0  0
  4 16  2  0  0  0  0
  5 18  1  0  0  0  0
  6 20  1  0  0  0  0
  7 10  2  0  0  0  0
  7 19  1  0  0  0  0
  8 22  1  0  0  0  0
  9 22  2  0  0  0  0
 10 23  1  0  0  0  0
 11 12  2  0  0  0  0
 11 24  1  0  0  0  0
 12 25  1  0  0  0  0
 13 21  1  0  0  0  0
 13 23  2  0  0  0  0
 14 25  2  0  0  0  0
 14 26  1  0  0  0  0
 15 28  1  0  0  0  0
 15 29  2  0  0  0  0
 16 27  1  0  0  0  0
 17 27  1  0  0  0  0
 17 30  2  0  0  0  0
 17 31  1  0  0  0  0
 18 20  2  0  0  0  0
 18 36  1  0  0  0  0
 19 21  2  0  0  0  0
 19 37  1  0  0  0  0
 20 49  1  0  0  0  0
 21 38  1  0  0  0  0
 22 82  1  0  0  0  0
 23 83  1  0  0  0  0
 24 26  2  0  0  0  0
 24 82  1  0  0  0  0
 25 84  1  0  0  0  0
 26 85  1  0  0  0  0
 27 64  2  0  0  0  0
 28 50  1  0  0  0  0
 28 65  2  0  0  0  0
 29 66  1  0  0  0  0
 29 68  1  0  0  0  0
 30 67  1  0  0  0  0
 30 71  1  0  0  0  0
 31 72  1  0  0  0  0
 31 77  2  0  0  0  0
 32 51  1  0  0  0  0
 32 73  1  0  0  0  0
 32 78  2  0  0  0  0
 33 61  1  0  0  0  0
 33 69  1  0  0  0  0
 33 79  2  0  0  0  0
 34 62  1  0  0  0  0
 34 74  1  0  0  0  0
 34 80  2  0  0  0  0
 35 70  1  0  0  0  0
 35 75  1  0  0  0  0
 35 81  2  0  0  0  0
 36 39  1  0  0  0  0
 37 51  1  0  0  0  0
 38 69  1  0  0  0  0
 39 41  1  0  0  0  0
 40 44  1  0  0  0  0
 40 45  1  0  0  0  0
 41 49  1  0  0  0  0
 42 43  1  0  0  0  0
 42 50  1  0  0  0  0
 43 50  1  0  0  0  0
 44 52  1  0  0  0  0
 45 70  1  0  0  0  0
 46 52  1  0  0  0  0
 46 70  1  0  0  0  0
 47 53  1  0  0  0  0
 47 68  1  0  0  0  0
 48 53  1  0  0  0  0
 48 68  1  0  0  0  0
 49 73  1  0  0  0  0
 51 69  1  0  0  0  0
 52 67  1  0  0  0  0
 53 75  1  0  0  0  0
 54 62  1  0  0  0  0
 55 63  1  0  0  0  0
 56 63  1  0  0  0  0
 57 63  1  0  0  0  0
 58 76  1  0  0  0  0
 59 60  1  0  0  0  0
 59 66  1  0  0  0  0
 60 83  1  0  0  0  0
 61 63  1  0  0  0  0
 61 74  1  0  0  0  0
 62 76  1  0  0  0  0
 64 67  1  0  0  0  0
 65 66  1  0  0  0  0
M  CHG  1  76   1
M  ISO  4  35 100  60 101  75 100  83 101
M  END
> <Batch ID>
0196

> <Smiles>
CNC(C)C(=O)NC(C(=O)N1Cc2cc([101O:1][101CH2:1]Cn3nc(C4CC4)cc3N3CC([100NH:0][100C:0](=O)N4CCCC(n5nc(-c6ccc(Oc7ccc(F)cc7F)cc6)c(C(N)=O)c5N)C4)C3)ccc2CC1C(=O)NC1CCCc2ccccc21)C(C)(C)C

> <Shape>
0.262

> <Color>
0.090

> <Negative vol penalty>
0.000

$$$$

  -OEChem-04052323393D

 83 92  0     1  0  0  0  0  0999 V2000
  -26.6391  -35.6837   22.6735 C   0  0  0  0  0  0  0  0  0  0  0  0
  -27.0884  -34.3820   22.4753 C   0  0  0  0  0  0  0  0  0  0  0  0
  -26.6762  -13.0323   21.1413 C   0  0  0  0  0  0  0  0  0  0  0  0
  -28.3360  -11.8885   19.8095 C   0  0  0  0  0  0  0  0  0  0  0  0
  -25.4164  -35.9094   23.3043 C   0  0  0  0  0  0  0  0  0  0  0  0
  -26.3156  -33.3053   22.9088 C   0  0  0  0  0  0  0  0  0  0  0  0
  -26.0167  -29.6136   19.4552 C   0  0  0  0  0  0  0  0  0  0  0  0
  -26.0708  -11.8108   21.4359 C   0  0  0  0  0  0  0  0  0  0  0  0
  -27.7306  -10.6669   20.1041 C   0  0  0  0  0  0  0  0  0  0  0  0
  -27.1166  -28.7657   19.3328 C   0  0  0  0  0  0  0  0  0  0  0  0
  -23.9905   -9.6294   19.9066 C   0  0  0  0  0  0  0  0  0  0  0  0
  -22.6003   -9.5581   19.8187 C   0  0  0  0  0  0  0  0  0  0  0  0
  -25.9784  -27.1070   20.6641 C   0  0  0  0  0  0  0  0  0  0  0  0
  -22.4835   -8.9560   22.1556 C   0  0  0  0  0  0  0  0  0  0  0  0
  -27.8088  -13.0712   20.3280 C   0  0  0  0  0  0  0  0  0  0  0  0
  -29.4574  -14.9720   20.7486 C   0  0  0  0  0  0  0  0  0  0  0  0
  -24.6237  -34.8346   23.7371 C   0  0  0  0  0  0  0  0  0  0  0  0
  -24.8919  -29.2183   20.1934 C   0  0  0  0  0  0  0  0  0  0  0  0
  -25.0818  -33.5168   23.5472 C   0  0  0  0  0  0  0  0  0  0  0  0
  -24.8645  -27.9507   20.7922 C   0  0  0  0  0  0  0  0  0  0  0  0
  -26.5980  -10.6281   20.9173 C   0  0  0  0  0  0  0  0  0  0  0  0
  -27.0988  -27.5133   19.9397 C   0  0  0  0  0  0  0  0  0  0  0  0
  -24.6273   -9.3639   21.1189 C   0  0  0  0  0  0  0  0  0  0  0  0
  -21.8468   -9.2214   20.9432 C   0  0  0  0  0  0  0  0  0  0  0  0
  -23.8738   -9.0272   22.2434 C   0  0  0  0  0  0  0  0  0  0  0  0
  -28.4344  -14.3329   20.0229 C   0  0  0  0  0  0  0  0  0  0  0  0
  -29.6992  -16.1313   20.0528 C   0  0  0  0  0  0  0  0  0  0  0  0
  -30.1292  -14.5551   21.9447 C   0  0  0  0  0  0  0  0  0  0  0  0
  -23.4198  -30.3041   22.7929 C   0  0  0  0  0  0  0  0  0  0  0  0
  -21.2533  -28.0067   22.0509 C   0  0  0  0  0  0  0  0  0  0  0  0
  -20.5882  -25.0499   20.4819 C   0  0  0  0  0  0  0  0  0  0  0  0
  -27.9159  -20.6375   17.3714 C   0  0  0  0  0  0  0  0  0  0  0  0
  -23.3313  -35.1292   24.4565 C   0  0  0  0  0  0  0  0  0  0  0  0
  -23.7028  -30.1339   20.2935 C   0  0  0  0  0  0  0  0  0  0  0  0
  -23.6730  -27.4707   21.5786 C   0  0  0  0  0  0  0  0  0  0  0  0
  -22.3981  -33.9249   24.5501 C   0  0  0  0  0  0  0  0  0  0  0  0
  -28.1281  -17.6331   15.4859 C   0  0  0  0  0  0  0  0  0  0  0  0
  -23.1686  -32.6857   24.9945 C   0  0  0  0  0  0  0  0  0  0  0  0
  -28.2988  -16.5546   16.5576 C   0  0  0  0  0  0  0  0  0  0  0  0
  -32.6636  -25.3771   18.2443 C   0  0  0  0  0  0  0  0  0  0  0  0
  -27.1770  -18.7350   15.9454 C   0  0  0  0  0  0  0  0  0  0  0  0
  -27.7112  -18.2785   18.3170 C   0  0  0  0  0  0  0  0  0  0  0  0
  -28.0684  -22.2910   19.2231 C   0  0  0  0  0  0  0  0  0  0  0  0
  -32.0720  -24.1168   17.6303 C   0  0  0  0  0  0  0  0  0  0  0  0
  -29.7893  -24.7863   18.4304 C   0  0  0  0  0  0  0  0  0  0  0  0
  -24.2605  -32.3221   23.9810 C   0  0  1  0  0  0  0  0  0  0  0  0
  -22.8175  -29.8338   21.4992 C   0  0  1  0  0  0  0  0  0  0  0  0
  -30.3611  -26.0632   19.0590 C   0  0  1  0  0  0  0  0  0  0  0  0
  -28.6985  -17.1706   17.9119 C   0  0  1  0  0  0  0  0  0  0  0  0
  -31.6303  -26.5002   18.3089 C   0  0  1  0  0  0  0  0  0  0  0  0
  -29.4527  -21.7743   19.0053 C   0  0  2  0  0  0  0  0  0  0  0  0
  -30.2316  -21.2750   20.1927 C   0  0  0  0  0  0  0  0  0  0  0  0
  -18.7362  -23.4039   20.0841 C   0  0  0  0  0  0  0  0  0  0  0  0
  -21.5775  -26.9574   24.8976 C   0  0  0  0  0  0  0  0  0  0  0  0
  -20.4824  -24.8291   24.1635 C   0  0  0  0  0  0  0  0  0  0  0  0
  -19.2227  -26.9795   24.0558 C   0  0  0  0  0  0  0  0  0  0  0  0
  -20.7097  -25.4454   17.5515 C   0  0  0  0  0  0  0  0  0  0  0  0
  -29.2815  -27.1488   19.0685 C   0  0  0  0  0  0  0  0  0  1  0  0
  -30.2935  -22.3969   17.9251 C   0  0  0  0  0  0  0  0  0  0  0  0
  -21.0814  -26.5475   22.3973 C   0  0  1  0  0  0  0  0  0  0  0  0
  -19.4603  -24.6325   19.5557 C   0  0  2  0  0  0  0  0  0  0  0  0
  -20.6144  -26.3379   23.8654 C   0  0  0  0  0  0  0  0  0  0  0  0
  -28.0524  -15.0284   18.9485 N   0  0  0  0  0  0  0  0  0  0  0  0
  -28.8395  -16.1168   18.9941 N   0  0  0  0  0  0  0  0  0  0  0  0
  -22.5375  -28.4048   21.6531 N   0  0  0  0  0  0  0  0  0  0  0  0
  -27.5980  -19.2714   17.2392 N   0  0  0  0  0  0  0  0  0  0  0  0
  -28.2934  -20.9951   18.6627 N   0  0  0  0  0  0  0  0  0  0  0  0
  -30.5611  -17.1515   20.2495 N   0  0  0  0  0  0  0  0  0  0  0  0
  -29.7577  -13.3367   22.5295 N   0  0  0  0  0  0  0  0  0  0  0  0
  -23.6826  -31.6601   22.8311 N   0  0  0  0  0  0  0  0  0  0  0  0
  -20.1745  -25.9946   21.3971 N   0  0  0  0  0  0  0  0  0  0  0  0
  -30.8403  -23.6910   18.4049 N   0  3  1  0  0  0  0  0  0  0  0  0
  -32.2568  -27.6676   18.9894 N   0  3  0  0  0  0  0  0  0  0  0  0
  -19.9930  -24.3172   18.2001 N   0  3  0  0  0  0  0  0  0  0  0  0
  -31.0206  -15.2504   22.4882 O   0  0  0  0  0  0  0  0  0  0  0  0
  -23.6293  -29.4966   23.6906 O   0  0  0  0  0  0  0  0  0  0  0  0
  -20.2823  -28.7640   22.1235 O   0  0  0  0  0  0  0  0  0  0  0  0
  -21.7220  -24.5817   20.4040 O   0  0  0  0  0  0  0  0  0  0  0  0
  -27.8591  -21.4355   16.4324 O   0  0  0  0  0  0  0  0  0  0  0  0
  -26.0076   -9.4359   21.2047 O   0  0  0  0  0  0  0  0  0  0  0  0
  -28.1816  -26.6760   19.8211 O   0  0  0  0  0  0  0  0  0  1  0  0
  -20.5116   -9.1545   20.8591 F   0  0  0  0  0  0  0  0  0  0  0  0
  -24.4798   -8.7722   23.4112 F   0  0  0  0  0  0  0  0  0  0  0  0
  1  2  1  0  0  0  0
  1  5  2  0  0  0  0
  2  6  2  0  0  0  0
  3  8  2  0  0  0  0
  3 15  1  0  0  0  0
  4  9  1  0  0  0  0
  4 15  2  0  0  0  0
  5 17  1  0  0  0  0
  6 19  1  0  0  0  0
  7 10  2  0  0  0  0
  7 18  1  0  0  0  0
  8 21  1  0  0  0  0
  9 21  2  0  0  0  0
 10 22  1  0  0  0  0
 11 12  2  0  0  0  0
 11 23  1  0  0  0  0
 12 24  1  0  0  0  0
 13 20  1  0  0  0  0
 13 22  2  0  0  0  0
 14 24  2  0  0  0  0
 14 25  1  0  0  0  0
 15 26  1  0  0  0  0
 16 26  1  0  0  0  0
 16 27  2  0  0  0  0
 16 28  1  0  0  0  0
 17 19  2  0  0  0  0
 17 33  1  0  0  0  0
 18 20  2  0  0  0  0
 18 34  1  0  0  0  0
 19 46  1  0  0  0  0
 20 35  1  0  0  0  0
 21 80  1  0  0  0  0
 22 81  1  0  0  0  0
 23 25  2  0  0  0  0
 23 80  1  0  0  0  0
 24 82  1  0  0  0  0
 25 83  1  0  0  0  0
 26 63  2  0  0  0  0
 27 64  1  0  0  0  0
 27 68  1  0  0  0  0
 28 69  1  0  0  0  0
 28 75  2  0  0  0  0
 29 47  1  0  0  0  0
 29 70  1  0  0  0  0
 29 76  2  0  0  0  0
 30 60  1  0  0  0  0
 30 65  1  0  0  0  0
 30 77  2  0  0  0  0
 31 61  1  0  0  0  0
 31 71  1  0  0  0  0
 31 78  2  0  0  0  0
 32 66  1  0  0  0  0
 32 67  1  0  0  0  0
 32 79  2  0  0  0  0
 33 36  1  0  0  0  0
 34 47  1  0  0  0  0
 35 65  1  0  0  0  0
 36 38  1  0  0  0  0
 37 39  1  0  0  0  0
 37 41  1  0  0  0  0
 38 46  1  0  0  0  0
 39 49  1  0  0  0  0
 40 44  1  0  0  0  0
 40 50  1  0  0  0  0
 41 66  1  0  0  0  0
 42 49  1  0  0  0  0
 42 66  1  0  0  0  0
 43 51  1  0  0  0  0
 43 67  1  0  0  0  0
 44 72  1  0  0  0  0
 45 48  1  0  0  0  0
 45 72  1  0  0  0  0
 46 70  1  0  0  0  0
 47 65  1  0  0  0  0
 48 50  1  0  0  0  0
 48 58  1  0  0  0  0
 49 64  1  0  0  0  0
 50 73  1  0  0  0  0
 51 52  1  0  0  0  0
 51 59  1  0  0  0  0
 51 67  1  0  0  0  0
 53 61  1  0  0  0  0
 54 62  1  0  0  0  0
 55 62  1  0  0  0  0
 56 62  1  0  0  0  0
 57 74  1  0  0  0  0
 58 81  1  0  0  0  0
 59 72  1  0  0  0  0
 60 62  1  0  0  0  0
 60 71  1  0  0  0  0
 61 74  1  0  0  0  0
 63 64  1  0  0  0  0
M  CHG  3  72   1  73   1  74   1
M  ISO  4  32 100  58 101  67 100  81 101
M  END
> <Batch ID>
0196

> <Smiles>
CNC(C)C(=O)NC(C(=O)N1Cc2cc([101O:1][101CH2:1]C3CN(CC4(C)C[100N:0]4[100C:0](=O)N4CCCC(n5nc(-c6ccc(Oc7ccc(F)cc7F)cc6)c(C(N)=O)c5N)C4)CCC3N)ccc2CC1C(=O)NC1CCCc2ccccc21)C(C)(C)C

> <Shape>
0.312

> <Color>
0.078

> <Negative vol penalty>
0.000

$$$$

  -OEChem-04052323393D

 84 93  0     1  0  0  0  0  0999 V2000
  -30.3785  -22.4687   17.3973 C   0  0  0  0  0  0  0  0  0  0  0  0
  -29.4811  -23.5144   17.5817 C   0  0  0  0  0  0  0  0  0  0  0  0
  -26.4453  -12.5664   19.4361 C   0  0  0  0  0  0  0  0  0  0  0  0
  -27.0386  -13.4680   21.5976 C   0  0  0  0  0  0  0  0  0  0  0  0
  -31.2365  -22.1010   18.4316 C   0  0  0  0  0  0  0  0  0  0  0  0
  -29.4497  -24.2006   18.7962 C   0  0  0  0  0  0  0  0  0  0  0  0
  -26.5746  -28.1854   19.0380 C   0  0  0  0  0  0  0  0  0  0  0  0
  -25.9118  -11.4355   20.0543 C   0  0  0  0  0  0  0  0  0  0  0  0
  -26.5051  -12.3372   22.2158 C   0  0  0  0  0  0  0  0  0  0  0  0
  -25.1827  -28.1099   19.0680 C   0  0  0  0  0  0  0  0  0  0  0  0
  -23.0719  -10.5946   21.6854 C   0  0  0  0  0  0  0  0  0  0  0  0
  -21.8306  -10.1383   21.2421 C   0  0  0  0  0  0  0  0  0  0  0  0
  -25.2151  -28.5647   21.4368 C   0  0  0  0  0  0  0  0  0  0  0  0
  -22.8242   -8.0197   20.6406 C   0  0  0  0  0  0  0  0  0  0  0  0
  -27.0088  -13.5826   20.2078 C   0  0  0  0  0  0  0  0  0  0  0  0
  -28.6140  -14.7922   18.6369 C   0  0  0  0  0  0  0  0  0  0  0  0
  -31.2063  -22.7754   19.6634 C   0  0  0  0  0  0  0  0  0  0  0  0
  -27.2989  -28.4408   20.2112 C   0  0  0  0  0  0  0  0  0  0  0  0
  -30.3242  -23.8601   19.8440 C   0  0  0  0  0  0  0  0  0  0  0  0
  -26.6159  -28.6455   21.4186 C   0  0  0  0  0  0  0  0  0  0  0  0
  -25.9416  -11.3209   21.4441 C   0  0  0  0  0  0  0  0  0  0  0  0
  -24.5029  -28.2967   20.2680 C   0  0  0  0  0  0  0  0  0  0  0  0
  -24.1894   -9.7635   21.6063 C   0  0  0  0  0  0  0  0  0  0  0  0
  -21.7068   -8.8509   20.7197 C   0  0  0  0  0  0  0  0  0  0  0  0
  -24.0655   -8.4761   21.0839 C   0  0  0  0  0  0  0  0  0  0  0  0
  -27.5606  -14.7508   19.5698 C   0  0  0  0  0  0  0  0  0  0  0  0
  -28.7559  -16.1252   18.3381 C   0  0  0  0  0  0  0  0  0  0  0  0
  -21.6135  -25.9921   21.1970 C   0  0  0  0  0  0  0  0  0  0  0  0
  -21.9074  -24.5819   21.0948 C   0  0  0  0  0  0  0  0  0  0  0  0
  -29.3945  -13.7213   18.0892 C   0  0  0  0  0  0  0  0  0  0  0  0
  -29.4750  -26.8492   21.8951 C   0  0  0  0  0  0  0  0  0  0  0  0
  -29.6092  -29.6080   23.5962 C   0  0  0  0  0  0  0  0  0  0  0  0
  -27.2614  -32.0349   24.8670 C   0  0  0  0  0  0  0  0  0  0  0  0
  -24.8434  -20.5675   18.5685 C   0  0  0  0  0  0  0  0  0  0  0  0
  -32.1625  -22.3410   20.7461 C   0  0  0  0  0  0  0  0  0  0  0  0
  -28.7984  -28.5456   20.1571 C   0  0  0  0  0  0  0  0  0  0  0  0
  -27.3458  -28.9424   22.7021 C   0  0  0  0  0  0  0  0  0  0  0  0
  -31.7521  -22.8278   22.1321 C   0  0  0  0  0  0  0  0  0  0  0  0
  -28.1352  -20.4758   20.1772 C   0  0  0  0  0  0  0  0  0  0  0  0
  -31.4430  -24.3168   22.0896 C   0  0  0  0  0  0  0  0  0  0  0  0
  -28.4246  -18.9786   20.1656 C   0  0  0  0  0  0  0  0  0  0  0  0
  -22.0410  -25.8853   23.5121 C   0  0  0  0  0  0  0  0  0  0  0  0
  -26.6477  -20.7794   20.3611 C   0  0  0  0  0  0  0  0  0  0  0  0
  -26.0671  -18.5796   19.3739 C   0  0  0  0  0  0  0  0  0  0  0  0
  -23.0890  -22.4043   18.3096 C   0  0  0  0  0  0  0  0  0  0  0  0
  -23.8794  -22.2970   20.2825 C   0  0  0  0  0  0  0  0  0  0  0  0
  -30.2509  -24.6010   21.1669 C   0  0  1  0  0  0  0  0  0  0  0  0
  -29.4636  -28.3010   21.5081 C   0  0  1  0  0  0  0  0  0  0  0  0
  -27.5492  -18.2694   19.1216 C   0  0  2  0  0  0  0  0  0  0  0  0
  -22.5122  -22.6772   19.7018 C   0  0  0  0  0  0  0  0  0  0  0  0
  -21.5010  -24.4648   23.5032 C   0  0  1  0  0  0  0  0  0  0  0  0
  -19.9932  -24.3829   23.6952 C   0  0  0  0  0  0  0  0  0  0  0  0
  -27.5526  -34.4745   25.3781 C   0  0  0  0  0  0  0  0  0  0  0  0
  -30.1918  -28.6471   26.4330 C   0  0  0  0  0  0  0  0  0  0  0  0
  -28.9327  -30.6342   27.2900 C   0  0  0  0  0  0  0  0  0  0  0  0
  -30.9976  -30.9604   25.9290 C   0  0  0  0  0  0  0  0  0  0  0  0
  -25.0044  -32.7917   23.1085 C   0  0  0  0  0  0  0  0  0  0  0  0
  -21.2610  -26.7662   19.9526 C   0  0  0  0  0  0  0  0  0  0  0  0
  -22.5178  -27.3598   19.3530 C   0  0  0  0  0  0  0  0  0  1  0  0
  -28.8826  -30.1584   24.7996 C   0  0  1  0  0  0  0  0  0  0  0  0
  -27.0592  -33.4532   24.3650 C   0  0  2  0  0  0  0  0  0  0  0  0
  -29.7387  -30.0815   26.0952 C   0  0  0  0  0  0  0  0  0  0  0  0
  -27.0683  -15.9613   19.8456 N   0  0  0  0  0  0  0  0  0  0  0  0
  -21.6376  -26.6302   22.3189 N   0  0  0  0  0  0  0  0  0  0  0  0
  -27.8157  -16.7760   19.0816 N   0  0  0  0  0  0  0  0  0  0  0  0
  -28.8119  -29.0286   22.5990 N   0  0  0  0  0  0  0  0  0  0  0  0
  -25.8140  -20.0248   19.4175 N   0  0  0  0  0  0  0  0  0  0  0  0
  -24.1584  -21.6823   18.9932 N   0  0  0  0  0  0  0  0  0  0  0  0
  -21.8492  -23.8649   22.2114 N   0  3  0  0  0  0  0  0  0  0  0  0
  -29.5920  -16.7926   17.5147 N   0  0  0  0  0  0  0  0  0  0  0  0
  -30.5685  -13.3423   18.7543 N   0  0  0  0  0  0  0  0  0  0  0  0
  -22.2031  -24.0857   19.9024 N   0  0  0  0  0  0  0  0  0  0  0  0
  -30.1218  -26.0305   20.9891 N   0  0  0  0  0  0  0  0  0  0  0  0
  -28.4622  -31.5084   24.4403 N   0  0  0  0  0  0  0  0  0  0  0  0
  -25.6144  -33.7096   24.1047 N   0  3  0  0  0  0  0  0  0  0  0  0
  -29.0693  -13.1295   17.0321 O   0  0  0  0  0  0  0  0  0  0  0  0
  -28.9381  -26.4980   22.9392 O   0  0  0  0  0  0  0  0  0  0  0  0
  -30.8383  -29.6954   23.5398 O   0  0  0  0  0  0  0  0  0  0  0  0
  -26.4381  -31.4537   25.5706 O   0  0  0  0  0  0  0  0  0  0  0  0
  -24.5717  -20.0547   17.4747 O   0  0  0  0  0  0  0  0  0  0  0  0
  -25.4209  -10.2177   22.0476 O   0  0  0  0  0  0  0  0  0  0  0  0
  -23.1351  -28.2224   20.3004 O   0  0  0  0  0  0  0  0  0  1  0  0
  -20.5144   -8.4122   20.2954 F   0  0  0  0  0  0  0  0  0  0  0  0
  -25.1353   -7.6727   21.0065 F   0  0  0  0  0  0  0  0  0  0  0  0
  1  2  1  0  0  0  0
  1  5  2  0  0  0  0
  2  6  2  0  0  0  0
  3  8  2  0  0  0  0
  3 15  1  0  0  0  0
  4  9  1  0  0  0  0
  4 15  2  0  0  0  0
  5 17  1  0  0  0  0
  6 19  1  0  0  0  0
  7 10  2  0  0  0  0
  7 18  1  0  0  0  0
  8 21  1  0  0  0  0
  9 21  2  0  0  0  0
 10 22  1  0  0  0  0
 11 12  2  0  0  0  0
 11 23  1  0  0  0  0
 12 24  1  0  0  0  0
 13 20  1  0  0  0  0
 13 22  2  0  0  0  0
 14 24  2  0  0  0  0
 14 25  1  0  0  0  0
 15 26  1  0  0  0  0
 16 26  1  0  0  0  0
 16 27  2  0  0  0  0
 16 30  1  0  0  0  0
 17 19  2  0  0  0  0
 17 35  1  0  0  0  0
 18 20  2  0  0  0  0
 18 36  1  0  0  0  0
 19 47  1  0  0  0  0
 20 37  1  0  0  0  0
 21 81  1  0  0  0  0
 22 82  1  0  0  0  0
 23 25  2  0  0  0  0
 23 81  1  0  0  0  0
 24 83  1  0  0  0  0
 25 84  1  0  0  0  0
 26 63  2  0  0  0  0
 27 65  1  0  0  0  0
 27 70  1  0  0  0  0
 28 29  1  0  0  0  0
 28 58  1  0  0  0  0
 28 64  2  0  0  0  0
 29 69  2  0  0  0  0
 29 72  1  0  0  0  0
 30 71  1  0  0  0  0
 30 76  2  0  0  0  0
 31 48  1  0  0  0  0
 31 73  1  0  0  0  0
 31 77  2  0  0  0  0
 32 60  1  0  0  0  0
 32 66  1  0  0  0  0
 32 78  2  0  0  0  0
 33 61  1  0  0  0  0
 33 74  1  0  0  0  0
 33 79  2  0  0  0  0
 34 67  1  0  0  0  0
 34 68  1  0  0  0  0
 34 80  2  0  0  0  0
 35 38  1  0  0  0  0
 36 48  1  0  0  0  0
 37 66  1  0  0  0  0
 38 40  1  0  0  0  0
 39 41  1  0  0  0  0
 39 43  1  0  0  0  0
 40 47  1  0  0  0  0
 41 49  1  0  0  0  0
 42 51  1  0  0  0  0
 42 64  1  0  0  0  0
 43 67  1  0  0  0  0
 44 49  1  0  0  0  0
 44 67  1  0  0  0  0
 45 50  1  0  0  0  0
 45 68  1  0  0  0  0
 46 50  1  0  0  0  0
 46 68  1  0  0  0  0
 47 73  1  0  0  0  0
 48 66  1  0  0  0  0
 49 65  1  0  0  0  0
 50 72  1  0  0  0  0
 51 52  1  0  0  0  0
 51 69  1  0  0  0  0
 53 61  1  0  0  0  0
 54 62  1  0  0  0  0
 55 62  1  0  0  0  0
 56 62  1  0  0  0  0
 57 75  1  0  0  0  0
 58 59  1  0  0  0  0
 59 82  1  0  0  0  0
 60 62  1  0  0  0  0
 60 74  1  0  0  0  0
 61 75  1  0  0  0  0
 63 65  1  0  0  0  0
M  CHG  2  69   1  75   1
M  ISO  4  34 100  59 101  68 100  82 101
M  END
> <Batch ID>
0196

> <Smiles>
CNC(C)C(=O)NC(C(=O)N1Cc2cc([101O:1][101CH2:1]C=C3NCC(C)N=C3NC3C[100N:0]([100C:0](=O)N4CCCC(n5nc(-c6ccc(Oc7ccc(F)cc7F)cc6)c(C(N)=O)c5N)C4)C3)ccc2CC1C(=O)NC1CCCc2ccccc21)C(C)(C)C

> <Shape>
0.254

> <Color>
0.057

> <Negative vol penalty>
0.000

$$$$

  -OEChem-04052323393D

 80 88  0     1  0  0  0  0  0999 V2000
  -21.5565  -12.5874   19.6669 C   0  0  0  0  0  0  0  0  0  0  0  0
  -21.6675  -13.7800   20.3744 C   0  0  0  0  0  0  0  0  0  0  0  0
  -25.8239  -27.7773   21.3948 C   0  0  0  0  0  0  0  0  0  0  0  0
  -25.1563  -29.9116   20.4803 C   0  0  0  0  0  0  0  0  0  0  0  0
  -22.6797  -11.7833   19.4779 C   0  0  0  0  0  0  0  0  0  0  0  0
  -22.9016  -14.1688   20.8943 C   0  0  0  0  0  0  0  0  0  0  0  0
  -23.9074  -19.0612   20.0589 C   0  0  0  0  0  0  0  0  0  0  0  0
  -26.2968  -27.3882   20.1416 C   0  0  0  0  0  0  0  0  0  0  0  0
  -25.6292  -29.5225   19.2271 C   0  0  0  0  0  0  0  0  0  0  0  0
  -23.2753  -19.9910   20.8834 C   0  0  0  0  0  0  0  0  0  0  0  0
  -28.0074  -25.9701   17.2645 C   0  0  0  0  0  0  0  0  0  0  0  0
  -29.2531  -25.3453   17.2068 C   0  0  0  0  0  0  0  0  0  0  0  0
  -25.2879  -20.1833   22.1993 C   0  0  0  0  0  0  0  0  0  0  0  0
  -30.2812  -27.3055   18.1750 C   0  0  0  0  0  0  0  0  0  0  0  0
  -25.2536  -29.0390   21.5642 C   0  0  0  0  0  0  0  0  0  0  0  0
  -25.4848  -30.1012   23.8720 C   0  0  0  0  0  0  0  0  0  0  0  0
  -23.9302  -12.1671   19.9874 C   0  0  0  0  0  0  0  0  0  0  0  0
  -25.2332  -18.6767   20.3054 C   0  0  0  0  0  0  0  0  0  0  0  0
  -24.0423  -13.3684   20.7131 C   0  0  0  0  0  0  0  0  0  0  0  0
  -25.9354  -19.2503   21.3750 C   0  0  0  0  0  0  0  0  0  0  0  0
  -26.1995  -28.2607   19.0578 C   0  0  0  0  0  0  0  0  0  0  0  0
  -23.9646  -20.5500   21.9555 C   0  0  0  0  0  0  0  0  0  0  0  0
  -27.8986  -27.2627   17.7774 C   0  0  0  0  0  0  0  0  0  0  0  0
  -30.3900  -26.0129   17.6620 C   0  0  0  0  0  0  0  0  0  0  0  0
  -29.0355  -27.9304   18.2327 C   0  0  0  0  0  0  0  0  0  0  0  0
  -24.7644  -29.4413   22.8584 C   0  0  0  0  0  0  0  0  0  0  0  0
  -24.5785  -30.2559   24.8923 C   0  0  0  0  0  0  0  0  0  0  0  0
  -26.8511  -30.5356   23.8896 C   0  0  0  0  0  0  0  0  0  0  0  0
  -26.6767  -15.9396   21.0323 C   0  0  0  0  0  0  0  0  0  0  0  0
  -29.3680  -17.7151   20.6758 C   0  0  0  0  0  0  0  0  0  0  0  0
  -30.8293  -20.7990   20.7051 C   0  0  0  0  0  0  0  0  0  0  0  0
  -20.4754  -27.6146   22.5793 C   0  0  0  0  0  0  0  0  0  0  0  0
  -25.1062  -11.2419   19.7983 C   0  0  0  0  0  0  0  0  0  0  0  0
  -25.9094  -17.6925   19.3908 C   0  0  0  0  0  0  0  0  0  0  0  0
  -27.3667  -18.8863   21.6702 C   0  0  0  0  0  0  0  0  0  0  0  0
  -26.4542  -11.9090   20.0592 C   0  0  0  0  0  0  0  0  0  0  0  0
  -20.3928  -30.9139   23.7884 C   0  0  0  0  0  0  0  0  0  0  0  0
  -26.4099  -12.7136   21.3544 C   0  0  0  0  0  0  0  0  0  0  0  0
  -21.2522  -30.8892   25.0494 C   0  0  0  0  0  0  0  0  0  0  0  0
  -19.5669  -29.6414   23.6684 C   0  0  0  0  0  0  0  0  0  0  0  0
  -22.1024  -26.1516   23.8505 C   0  0  0  0  0  0  0  0  0  0  0  0
  -21.2807  -28.3283   24.8881 C   0  0  0  0  0  0  0  0  0  0  0  0
  -21.6933  -24.8036   24.4291 C   0  0  0  0  0  0  0  0  0  0  0  0
  -20.8461  -24.1044   22.1902 C   0  0  0  0  0  0  0  0  0  0  0  0
  -25.3689  -13.8364   21.2710 C   0  0  1  0  0  0  0  0  0  0  0  0
  -27.0961  -16.9892   20.0423 C   0  0  1  0  0  0  0  0  0  0  0  0
  -22.0919  -29.6077   25.1930 C   0  0  1  0  0  0  0  0  0  0  0  0
  -21.2432  -25.4611   21.6067 C   0  0  2  0  0  0  0  0  0  0  0  0
  -32.6269  -22.5267   20.4199 C   0  0  0  0  0  0  0  0  0  0  0  0
  -30.2025  -16.7810   23.4581 C   0  0  0  0  0  0  0  0  0  0  0  0
  -31.8871  -18.6327   23.4983 C   0  0  0  0  0  0  0  0  0  0  0  0
  -32.0533  -16.8350   21.7770 C   0  0  0  0  0  0  0  0  0  0  0  0
  -30.1361  -21.2182   17.8586 C   0  0  0  0  0  0  0  0  0  0  0  0
  -22.5538  -25.4049   20.8160 C   0  0  0  0  0  0  0  0  0  0  0  0
  -21.4359  -22.3832   23.8948 C   0  0  0  0  0  0  0  0  0  0  0  0
  -21.9382  -21.3348   22.9218 C   0  0  0  0  0  0  0  0  0  1  0  0
  -30.2179  -18.5637   21.5905 C   0  0  1  0  0  0  0  0  0  0  0  0
  -31.7731  -21.4758   19.7275 C   0  0  2  0  0  0  0  0  0  0  0  0
  -31.0626  -17.7087   22.5768 C   0  0  0  0  0  0  0  0  0  0  0  0
  -23.4981  -29.1937   23.2035 N   0  0  0  0  0  0  0  0  0  0  0  0
  -23.4157  -29.7006   24.4454 N   0  0  0  0  0  0  0  0  0  0  0  0
  -27.9822  -17.9148   20.7510 N   0  0  0  0  0  0  0  0  0  0  0  0
  -20.4127  -28.4496   23.7070 N   0  0  0  0  0  0  0  0  0  0  0  0
  -21.3161  -26.4927   22.6560 N   0  0  0  0  0  0  0  0  0  0  0  0
  -24.6707  -30.8113   26.1193 N   0  0  0  0  0  0  0  0  0  0  0  0
  -27.6426  -30.2973   22.7577 N   0  0  0  0  0  0  0  0  0  0  0  0
  -25.8821  -14.9449   20.4950 N   0  0  0  0  0  0  0  0  0  0  0  0
  -31.0081  -19.4319   20.7244 N   0  0  0  0  0  0  0  0  0  0  0  0
  -21.7417  -23.7517   23.3515 N   0  3  2  0  0  0  0  0  0  0  0  0
  -31.0021  -22.1395   18.6385 N   0  3  0  0  0  0  0  0  0  0  0  0
  -27.3597  -31.1031   24.8859 O   0  0  0  0  0  0  0  0  0  0  0  0
  -27.0478  -16.0250   22.1971 O   0  0  0  0  0  0  0  0  0  0  0  0
  -29.9139  -16.9100   19.9173 O   0  0  0  0  0  0  0  0  0  0  0  0
  -30.0175  -21.4213   21.3865 O   0  0  0  0  0  0  0  0  0  0  0  0
  -19.8294  -27.8674   21.5543 O   0  0  0  0  0  0  0  0  0  0  0  0
  -22.8250  -26.6981   20.3125 O   0  0  0  0  0  0  0  0  0  0  0  0
  -26.6610  -27.8815   17.8348 O   0  0  0  0  0  0  0  0  0  0  0  0
  -23.3454  -21.4638   22.7680 O   0  0  0  0  0  0  0  0  0  1  0  0
  -31.5860  -25.4122   17.6080 F   0  0  0  0  0  0  0  0  0  0  0  0
  -28.9371  -29.1719   18.7276 F   0  0  0  0  0  0  0  0  0  0  0  0
  1  2  1  0  0  0  0
  1  5  2  0  0  0  0
  2  6  2  0  0  0  0
  3  8  2  0  0  0  0
  3 15  1  0  0  0  0
  4  9  1  0  0  0  0
  4 15  2  0  0  0  0
  5 17  1  0  0  0  0
  6 19  1  0  0  0  0
  7 10  2  0  0  0  0
  7 18  1  0  0  0  0
  8 21  1  0  0  0  0
  9 21  2  0  0  0  0
 10 22  1  0  0  0  0
 11 12  2  0  0  0  0
 11 23  1  0  0  0  0
 12 24  1  0  0  0  0
 13 20  1  0  0  0  0
 13 22  2  0  0  0  0
 14 24  2  0  0  0  0
 14 25  1  0  0  0  0
 15 26  1  0  0  0  0
 16 26  1  0  0  0  0
 16 27  2  0  0  0  0
 16 28  1  0  0  0  0
 17 19  2  0  0  0  0
 17 33  1  0  0  0  0
 18 20  2  0  0  0  0
 18 34  1  0  0  0  0
 19 45  1  0  0  0  0
 20 35  1  0  0  0  0
 21 77  1  0  0  0  0
 22 78  1  0  0  0  0
 23 25  2  0  0  0  0
 23 77  1  0  0  0  0
 24 79  1  0  0  0  0
 25 80  1  0  0  0  0
 26 60  2  0  0  0  0
 27 61  1  0  0  0  0
 27 65  1  0  0  0  0
 28 66  1  0  0  0  0
 28 71  2  0  0  0  0
 29 46  1  0  0  0  0
 29 67  1  0  0  0  0
 29 72  2  0  0  0  0
 30 57  1  0  0  0  0
 30 62  1  0  0  0  0
 30 73  2  0  0  0  0
 31 58  1  0  0  0  0
 31 68  1  0  0  0  0
 31 74  2  0  0  0  0
 32 63  1  0  0  0  0
 32 64  1  0  0  0  0
 32 75  2  0  0  0  0
 33 36  1  0  0  0  0
 34 46  1  0  0  0  0
 35 62  1  0  0  0  0
 36 38  1  0  0  0  0
 37 39  1  0  0  0  0
 37 40  1  0  0  0  0
 38 45  1  0  0  0  0
 39 47  1  0  0  0  0
 40 63  1  0  0  0  0
 41 43  1  0  0  0  0
 41 64  1  0  0  0  0
 42 47  1  0  0  0  0
 42 63  1  0  0  0  0
 43 69  1  0  0  0  0
 44 48  1  0  0  0  0
 44 69  1  0  0  0  0
 45 67  1  0  0  0  0
 46 62  1  0  0  0  0
 47 61  1  0  0  0  0
 48 54  1  0  0  0  0
 48 64  1  0  0  0  0
 49 58  1  0  0  0  0
 50 59  1  0  0  0  0
 51 59  1  0  0  0  0
 52 59  1  0  0  0  0
 53 70  1  0  0  0  0
 54 76  1  0  0  0  0
 55 56  1  0  0  0  0
 55 69  1  0  0  0  0
 56 78  1  0  0  0  0
 57 59  1  0  0  0  0
 57 68  1  0  0  0  0
 58 70  1  0  0  0  0
 60 61  1  0  0  0  0
M  CHG  2  69   1  70   1
M  ISO  4  32 100  56 101  64 100  78 101
M  END
> <Batch ID>
0196

> <Smiles>
CNC(C)C(=O)NC(C(=O)N1Cc2cc([101O:1][101CH2:1]CN3CC[100N:0]([100C:0](=O)N4CCCC(n5nc(-c6ccc(Oc7ccc(F)cc7F)cc6)c(C(N)=O)c5N)C4)C(CO)C3)ccc2CC1C(=O)NC1CCCc2ccccc21)C(C)(C)C

> <Shape>
0.234

> <Color>
0.072

> <Negative vol penalty>
0.000

$$$$

  -OEChem-04052323393D

 82 90  0     1  0  0  0  0  0999 V2000
  -15.9402  -28.2274   26.9381 C   0  0  0  0  0  0  0  0  0  0  0  0
  -16.5837  -27.0235   26.6700 C   0  0  0  0  0  0  0  0  0  0  0  0
  -22.9676  -15.3043   19.6742 C   0  0  0  0  0  0  0  0  0  0  0  0
  -22.5894  -13.2186   18.5149 C   0  0  0  0  0  0  0  0  0  0  0  0
  -16.1130  -29.3146   26.0824 C   0  0  0  0  0  0  0  0  0  0  0  0
  -17.3996  -26.9057   25.5453 C   0  0  0  0  0  0  0  0  0  0  0  0
  -22.5283  -23.5958   25.0483 C   0  0  0  0  0  0  0  0  0  0  0  0
  -21.9174  -15.8884   18.9661 C   0  0  0  0  0  0  0  0  0  0  0  0
  -21.5391  -13.8027   17.8068 C   0  0  0  0  0  0  0  0  0  0  0  0
  -22.7820  -22.3338   24.5127 C   0  0  0  0  0  0  0  0  0  0  0  0
  -21.4049  -17.1773   15.8838 C   0  0  0  0  0  0  0  0  0  0  0  0
  -21.6131  -18.4483   15.3484 C   0  0  0  0  0  0  0  0  0  0  0  0
  -23.4578  -23.3578   22.4357 C   0  0  0  0  0  0  0  0  0  0  0  0
  -19.7775  -19.3039   16.6658 C   0  0  0  0  0  0  0  0  0  0  0  0
  -23.3037  -13.9694   19.4486 C   0  0  0  0  0  0  0  0  0  0  0  0
  -24.3122  -12.6932   21.4138 C   0  0  0  0  0  0  0  0  0  0  0  0
  -16.9392  -29.2130   24.9520 C   0  0  0  0  0  0  0  0  0  0  0  0
  -22.7274  -24.7496   24.2766 C   0  0  0  0  0  0  0  0  0  0  0  0
  -17.5826  -27.9921   24.6730 C   0  0  0  0  0  0  0  0  0  0  0  0
  -23.2084  -24.6333   22.9646 C   0  0  0  0  0  0  0  0  0  0  0  0
  -21.2031  -15.1376   18.0324 C   0  0  0  0  0  0  0  0  0  0  0  0
  -23.2441  -22.2145   23.2053 C   0  0  0  0  0  0  0  0  0  0  0  0
  -20.3830  -16.9695   16.8102 C   0  0  0  0  0  0  0  0  0  0  0  0
  -20.7994  -19.5116   15.7394 C   0  0  0  0  0  0  0  0  0  0  0  0
  -19.5693  -18.0328   17.2012 C   0  0  0  0  0  0  0  0  0  0  0  0
  -24.3888  -13.3656   20.1794 C   0  0  0  0  0  0  0  0  0  0  0  0
  -25.6048  -12.3112   21.6775 C   0  0  0  0  0  0  0  0  0  0  0  0
  -23.1742  -12.4367   22.2474 C   0  0  0  0  0  0  0  0  0  0  0  0
  -20.8552  -27.0887   23.2147 C   0  0  0  0  0  0  0  0  0  0  0  0
  -23.6670  -28.3541   22.2072 C   0  0  0  0  0  0  0  0  0  0  0  0
  -26.9128  -27.8372   21.2884 C   0  0  0  0  0  0  0  0  0  0  0  0
  -30.8262  -14.7169   19.9014 C   0  0  0  0  0  0  0  0  0  0  0  0
  -17.0578  -30.4010   24.0304 C   0  0  0  0  0  0  0  0  0  0  0  0
  -22.4745  -26.1050   24.8779 C   0  0  0  0  0  0  0  0  0  0  0  0
  -23.4577  -25.8421   22.1014 C   0  0  0  0  0  0  0  0  0  0  0  0
  -18.2365  -30.3076   23.0649 C   0  0  0  0  0  0  0  0  0  0  0  0
  -29.4890  -11.3175   18.9419 C   0  0  0  0  0  0  0  0  0  0  0  0
  -18.2908  -28.9259   22.4208 C   0  0  0  0  0  0  0  0  0  0  0  0
  -28.1842  -11.2635   19.7385 C   0  0  0  0  0  0  0  0  0  0  0  0
  -30.4796  -12.3103   19.5314 C   0  0  0  0  0  0  0  0  0  0  0  0
  -30.9061  -16.9637   20.9166 C   0  0  0  0  0  0  0  0  0  0  0  0
  -29.4536  -16.6229   18.9683 C   0  0  0  0  0  0  0  0  0  0  0  0
  -29.8623  -17.9174   21.4994 C   0  0  0  0  0  0  0  0  0  0  0  0
  -28.4197  -17.5624   19.5841 C   0  0  0  0  0  0  0  0  0  0  0  0
  -28.4690  -13.7903   19.6755 C   0  0  0  0  0  0  0  0  0  0  0  0
  -18.4955  -27.8327   23.4766 C   0  0  1  0  0  0  0  0  0  0  0  0
  -22.2222  -27.1855   23.8309 C   0  0  1  0  0  0  0  0  0  0  0  0
  -27.8438  -12.6009   20.4243 C   0  0  1  0  0  0  0  0  0  0  0  0
  -28.9497  -29.0596   20.4795 C   0  0  0  0  0  0  0  0  0  0  0  0
  -27.6842  -20.5400   20.0010 C   0  0  0  0  0  0  0  0  0  0  0  0
  -22.4284  -28.5734   19.4273 C   0  0  0  0  0  0  0  0  0  0  0  0
  -24.7336  -28.8832   18.5008 C   0  0  0  0  0  0  0  0  0  0  0  0
  -23.8060  -30.5445   20.1140 C   0  0  0  0  0  0  0  0  0  0  0  0
  -28.4857  -27.0228   23.6594 C   0  0  0  0  0  0  0  0  0  0  0  0
  -24.7544  -18.9405   22.8551 C   0  0  0  0  0  0  0  0  0  0  0  0
  -26.8965  -18.7058   21.5920 C   0  0  0  0  0  0  0  0  0  0  0  0
  -23.9029  -19.9610   23.5842 C   0  0  0  0  0  0  0  0  0  1  0  0
  -24.4919  -28.2579   20.9466 C   0  0  1  0  0  0  0  0  0  0  0  0
  -28.1979  -28.5364   21.6935 C   0  0  2  0  0  0  0  0  0  0  0  0
  -28.0855  -19.4736   21.0156 C   0  0  1  0  0  0  0  0  0  0  0  0
  -23.8585  -29.0417   19.7626 C   0  0  0  0  0  0  0  0  0  0  0  0
  -25.6319  -13.4101   19.6927 N   0  0  0  0  0  0  0  0  0  0  0  0
  -26.3483  -12.7608   20.6262 N   0  0  0  0  0  0  0  0  0  0  0  0
  -23.1896  -27.1449   22.7324 N   0  0  0  0  0  0  0  0  0  0  0  0
  -29.9364  -13.6689   19.6098 N   0  0  0  0  0  0  0  0  0  0  0  0
  -30.2890  -16.0069   20.0023 N   0  0  0  0  0  0  0  0  0  0  0  0
  -29.0738  -18.5626   20.4402 N   0  0  0  0  0  0  0  0  0  0  0  0
  -26.1667  -11.6380   22.7039 N   0  0  0  0  0  0  0  0  0  0  0  0
  -21.9199  -12.8990   21.8265 N   0  0  0  0  0  0  0  0  0  0  0  0
  -19.8794  -27.7894   23.8975 N   0  0  0  0  0  0  0  0  0  0  0  0
  -25.8361  -28.6985   21.3038 N   0  0  0  0  0  0  0  0  0  0  0  0
  -29.0897  -27.5959   22.4291 N   0  3  0  0  0  0  0  0  0  0  0  0
  -25.9644  -19.6118   22.3070 N   0  3  0  0  0  0  0  0  0  0  0  0
  -23.2696  -11.8303   23.3413 O   0  0  0  0  0  0  0  0  0  0  0  0
  -20.6978  -26.4284   22.1945 O   0  0  0  0  0  0  0  0  0  0  0  0
  -23.4599  -29.4607   22.7114 O   0  0  0  0  0  0  0  0  0  0  0  0
  -26.8692  -26.6471   20.9848 O   0  0  0  0  0  0  0  0  0  0  0  0
  -32.0317  -14.5050   20.0871 O   0  0  0  0  0  0  0  0  0  0  0  0
  -20.1781  -15.7072   17.3414 O   0  0  0  0  0  0  0  0  0  0  0  0
  -23.4936  -20.9750   22.6761 O   0  0  0  0  0  0  0  0  0  1  0  0
  -21.0004  -20.7325   15.2263 F   0  0  0  0  0  0  0  0  0  0  0  0
  -18.5867  -17.8396   18.0917 F   0  0  0  0  0  0  0  0  0  0  0  0
  1  2  1  0  0  0  0
  1  5  2  0  0  0  0
  2  6  2  0  0  0  0
  3  8  2  0  0  0  0
  3 15  1  0  0  0  0
  4  9  1  0  0  0  0
  4 15  2  0  0  0  0
  5 17  1  0  0  0  0
  6 19  1  0  0  0  0
  7 10  2  0  0  0  0
  7 18  1  0  0  0  0
  8 21  1  0  0  0  0
  9 21  2  0  0  0  0
 10 22  1  0  0  0  0
 11 12  2  0  0  0  0
 11 23  1  0  0  0  0
 12 24  1  0  0  0  0
 13 20  1  0  0  0  0
 13 22  2  0  0  0  0
 14 24  2  0  0  0  0
 14 25  1  0  0  0  0
 15 26  1  0  0  0  0
 16 26  1  0  0  0  0
 16 27  2  0  0  0  0
 16 28  1  0  0  0  0
 17 19  2  0  0  0  0
 17 33  1  0  0  0  0
 18 20  2  0  0  0  0
 18 34  1  0  0  0  0
 19 46  1  0  0  0  0
 20 35  1  0  0  0  0
 21 79  1  0  0  0  0
 22 80  1  0  0  0  0
 23 25  2  0  0  0  0
 23 79  1  0  0  0  0
 24 81  1  0  0  0  0
 25 82  1  0  0  0  0
 26 62  2  0  0  0  0
 27 63  1  0  0  0  0
 27 68  1  0  0  0  0
 28 69  1  0  0  0  0
 28 74  2  0  0  0  0
 29 47  1  0  0  0  0
 29 70  1  0  0  0  0
 29 75  2  0  0  0  0
 30 58  1  0  0  0  0
 30 64  1  0  0  0  0
 30 76  2  0  0  0  0
 31 59  1  0  0  0  0
 31 71  1  0  0  0  0
 31 77  2  0  0  0  0
 32 65  1  0  0  0  0
 32 66  1  0  0  0  0
 32 78  2  0  0  0  0
 33 36  1  0  0  0  0
 34 47  1  0  0  0  0
 35 64  1  0  0  0  0
 36 38  1  0  0  0  0
 37 39  1  0  0  0  0
 37 40  1  0  0  0  0
 38 46  1  0  0  0  0
 39 48  1  0  0  0  0
 40 65  1  0  0  0  0
 41 43  1  0  0  0  0
 41 66  1  0  0  0  0
 42 44  1  0  0  0  0
 42 66  1  0  0  0  0
 43 67  1  0  0  0  0
 44 67  1  0  0  0  0
 45 48  1  0  0  0  0
 45 65  1  0  0  0  0
 46 70  1  0  0  0  0
 47 64  1  0  0  0  0
 48 63  1  0  0  0  0
 49 59  1  0  0  0  0
 50 60  1  0  0  0  0
 51 61  1  0  0  0  0
 52 61  1  0  0  0  0
 53 61  1  0  0  0  0
 54 72  1  0  0  0  0
 55 57  1  0  0  0  0
 55 73  1  0  0  0  0
 56 60  1  0  0  0  0
 56 73  1  0  0  0  0
 57 80  1  0  0  0  0
 58 61  1  0  0  0  0
 58 71  1  0  0  0  0
 59 72  1  0  0  0  0
 60 67  1  0  0  0  0
 62 63  1  0  0  0  0
M  CHG  2  72   1  73   1
M  ISO  4  32 100  57 101  66 100  80 101
M  END
> <Batch ID>
0196

> <Smiles>
CNC(C)C(=O)NC(C(=O)N1Cc2cc([101O:1][101CH2:1]CNCC(C)N3CC[100N:0]([100C:0](=O)N4CCCC(n5nc(-c6ccc(Oc7ccc(F)cc7F)cc6)c(C(N)=O)c5N)C4)CC3)ccc2CC1C(=O)NC1CCCc2ccccc21)C(C)(C)C

> <Shape>
0.226

> <Color>
0.100

> <Negative vol penalty>
0.000

$$$$

  -OEChem-04052323393D

 87 96  0     1  0  0  0  0  0999 V2000
  -28.2324  -37.6095   20.9007 C   0  0  0  0  0  0  0  0  0  0  0  0
  -28.3953  -36.4825   20.1015 C   0  0  0  0  0  0  0  0  0  0  0  0
  -23.5382  -10.3656   21.6623 C   0  0  0  0  0  0  0  0  0  0  0  0
  -24.9726   -8.4693   22.0909 C   0  0  0  0  0  0  0  0  0  0  0  0
  -27.9432  -37.4649   22.2570 C   0  0  0  0  0  0  0  0  0  0  0  0
  -28.2702  -35.2102   20.6583 C   0  0  0  0  0  0  0  0  0  0  0  0
  -26.0829  -28.5888   19.0184 C   0  0  0  0  0  0  0  0  0  0  0  0
  -22.4493   -9.5074   21.5096 C   0  0  0  0  0  0  0  0  0  0  0  0
  -23.8836   -7.6111   21.9383 C   0  0  0  0  0  0  0  0  0  0  0  0
  -26.5279  -27.2680   19.0530 C   0  0  0  0  0  0  0  0  0  0  0  0
  -21.2385   -6.5943   23.7794 C   0  0  0  0  0  0  0  0  0  0  0  0
  -21.0816   -5.5754   24.7190 C   0  0  0  0  0  0  0  0  0  0  0  0
  -25.9481  -27.1403   21.3911 C   0  0  0  0  0  0  0  0  0  0  0  0
  -29.0985  -22.8828   19.0667 C   0  0  0  0  0  0  0  0  0  0  0  0
  -21.2541   -3.9275   22.9607 C   0  0  0  0  0  0  0  0  0  0  0  0
  -24.7999   -9.8466   21.9529 C   0  0  0  0  0  0  0  0  0  0  0  0
  -26.3706  -11.3382   23.3004 C   0  0  0  0  0  0  0  0  0  0  0  0
  -27.8049  -36.1903   22.8287 C   0  0  0  0  0  0  0  0  0  0  0  0
  -25.5765  -29.1998   20.1745 C   0  0  0  0  0  0  0  0  0  0  0  0
  -27.9802  -35.0485   22.0238 C   0  0  0  0  0  0  0  0  0  0  0  0
  -25.4950  -28.4682   21.3679 C   0  0  0  0  0  0  0  0  0  0  0  0
  -29.4086  -21.5508   19.2774 C   0  0  0  0  0  0  0  0  0  0  0  0
  -22.6219   -8.1302   21.6476 C   0  0  0  0  0  0  0  0  0  0  0  0
  -26.4632  -26.5445   20.2402 C   0  0  0  0  0  0  0  0  0  0  0  0
  -21.4031   -6.2798   22.4305 C   0  0  0  0  0  0  0  0  0  0  0  0
  -21.0894   -4.2420   24.3097 C   0  0  0  0  0  0  0  0  0  0  0  0
  -21.4110   -4.9464   22.0211 C   0  0  0  0  0  0  0  0  0  0  0  0
  -25.9253  -10.7325   22.1101 C   0  0  0  0  0  0  0  0  0  0  0  0
  -27.7942  -23.2835   19.2759 C   0  0  0  0  0  0  0  0  0  0  0  0
  -28.3938  -20.7076   19.6836 C   0  0  0  0  0  0  0  0  0  0  0  0
  -27.4637  -12.0782   22.9210 C   0  0  0  0  0  0  0  0  0  0  0  0
  -25.8433  -11.2405   24.6301 C   0  0  0  0  0  0  0  0  0  0  0  0
  -26.4269  -31.6967   21.9482 C   0  0  0  0  0  0  0  0  0  0  0  0
  -23.6422  -31.0593   23.4849 C   0  0  0  0  0  0  0  0  0  0  0  0
  -21.2342  -28.7794   24.2913 C   0  0  0  0  0  0  0  0  0  0  0  0
  -30.0846  -15.4793   19.5076 C   0  0  0  0  0  0  0  0  0  0  0  0
  -27.5386  -36.0838   24.3093 C   0  0  0  0  0  0  0  0  0  0  0  0
  -25.0757  -30.6169   20.1140 C   0  0  0  0  0  0  0  0  0  0  0  0
  -24.9409  -29.0716   22.6318 C   0  0  0  0  0  0  0  0  0  0  0  0
  -27.0520  -34.7034   24.7430 C   0  0  0  0  0  0  0  0  0  0  0  0
  -30.0743  -12.1377   18.5983 C   0  0  0  0  0  0  0  0  0  0  0  0
  -27.9142  -33.6123   24.1163 C   0  0  0  0  0  0  0  0  0  0  0  0
  -29.0306  -11.5114   19.5225 C   0  0  0  0  0  0  0  0  0  0  0  0
  -29.6109  -13.5004   18.0968 C   0  0  0  0  0  0  0  0  0  0  0  0
  -27.9958  -18.3349   19.1218 C   0  0  0  0  0  0  0  0  0  0  0  0
  -28.0727  -16.9701   19.8010 C   0  0  0  0  0  0  0  0  0  0  0  0
  -28.2373  -13.8524   20.1237 C   0  0  0  0  0  0  0  0  0  0  0  0
  -29.5250  -18.9378   21.0261 C   0  0  0  0  0  0  0  0  0  0  0  0
  -27.8277  -33.6517   22.5858 C   0  0  1  0  0  0  0  0  0  0  0  0
  -25.0558  -31.3022   21.4769 C   0  0  1  0  0  0  0  0  0  0  0  0
  -28.6588  -12.4717   20.6661 C   0  0  1  0  0  0  0  0  0  0  0  0
  -30.3001  -17.6480   20.6961 C   0  0  1  0  0  0  0  0  0  0  0  0
  -30.8062  -21.0769   19.0653 C   0  0  0  0  0  0  0  0  0  0  0  0
  -19.1013  -28.5436   25.5923 C   0  0  0  0  0  0  0  0  0  0  0  0
  -25.2385  -30.9855   26.0841 C   0  0  0  0  0  0  0  0  0  0  0  0
  -23.2941  -29.8363   27.1642 C   0  0  0  0  0  0  0  0  0  0  0  0
  -23.0273  -32.1421   26.2504 C   0  0  0  0  0  0  0  0  0  0  0  0
  -30.4447  -15.9111   24.0915 C   0  0  0  0  0  0  0  0  0  0  0  0
  -19.6946  -28.0782   21.8630 C   0  0  0  0  0  0  0  0  0  0  0  0
  -27.4075  -24.7067   19.0625 C   0  0  0  0  0  0  0  0  0  1  0  0
  -30.9695  -17.1193   21.9694 C   0  0  0  0  0  0  0  0  0  0  0  0
  -23.2403  -30.1931   24.6541 C   0  0  1  0  0  0  0  0  0  0  0  0
  -19.7189  -28.8530   24.2374 C   0  0  2  0  0  0  0  0  0  0  0  0
  -23.7123  -30.7782   26.0150 C   0  0  0  0  0  0  0  0  0  0  0  0
  -26.6742  -11.0596   21.0536 N   0  0  0  0  0  0  0  0  0  0  0  0
  -26.8213  -22.4364   19.6734 N   0  0  0  0  0  0  0  0  0  0  0  0
  -27.1262  -21.1273   19.8809 N   0  0  0  0  0  0  0  0  0  0  0  0
  -27.6011  -11.8789   21.5787 N   0  0  0  0  0  0  0  0  0  0  0  0
  -28.6876  -19.3613   19.9035 N   0  0  3  0  0  0  0  0  0  0  0  0
  -24.4698  -30.4623   22.5234 N   0  0  0  0  0  0  0  0  0  0  0  0
  -29.2618  -14.3820   19.2107 N   0  0  0  0  0  0  0  0  0  0  0  0
  -29.4639  -16.6057   20.0793 N   0  0  0  0  0  0  0  0  0  0  0  0
  -28.3111  -12.8735   23.6078 N   0  0  0  0  0  0  0  0  0  0  0  0
  -24.7154  -10.4366   24.8442 N   0  0  0  0  0  0  0  0  0  0  0  0
  -26.5884  -33.0564   22.1341 N   0  0  0  0  0  0  0  0  0  0  0  0
  -21.7964  -30.0115   24.5503 N   0  0  0  0  0  0  0  0  0  0  0  0
  -29.9494  -16.4328   22.7846 N   0  3  0  0  0  0  0  0  0  0  0  0
  -19.1879  -27.8763   23.2448 N   0  3  0  0  0  0  0  0  0  0  0  0
  -26.3474  -11.8610   25.5967 O   0  0  0  0  0  0  0  0  0  0  0  0
  -27.2751  -30.8314   22.1312 O   0  0  0  0  0  0  0  0  0  0  0  0
  -23.2309  -32.2207   23.4231 O   0  0  0  0  0  0  0  0  0  0  0  0
  -21.8566  -27.7329   24.1244 O   0  0  0  0  0  0  0  0  0  0  0  0
  -31.3010  -15.4558   19.2819 O   0  0  0  0  0  0  0  0  0  0  0  0
  -21.5595   -7.2925   21.4990 O   0  0  0  0  0  0  0  0  0  0  0  0
  -26.9004  -25.2466   20.2772 O   0  0  0  0  0  0  0  0  0  1  0  0
  -20.9403   -3.2636   25.2123 F   0  0  0  0  0  0  0  0  0  0  0  0
  -21.5699   -4.6380   20.7267 F   0  0  0  0  0  0  0  0  0  0  0  0
  1  2  1  0  0  0  0
  1  5  2  0  0  0  0
  2  6  2  0  0  0  0
  3  8  2  0  0  0  0
  3 16  1  0  0  0  0
  4  9  1  0  0  0  0
  4 16  2  0  0  0  0
  5 18  1  0  0  0  0
  6 20  1  0  0  0  0
  7 10  2  0  0  0  0
  7 19  1  0  0  0  0
  8 23  1  0  0  0  0
  9 23  2  0  0  0  0
 10 24  1  0  0  0  0
 11 12  2  0  0  0  0
 11 25  1  0  0  0  0
 12 26  1  0  0  0  0
 13 21  1  0  0  0  0
 13 24  2  0  0  0  0
 14 22  1  0  0  0  0
 14 29  2  0  0  0  0
 15 26  2  0  0  0  0
 15 27  1  0  0  0  0
 16 28  1  0  0  0  0
 17 28  1  0  0  0  0
 17 31  2  0  0  0  0
 17 32  1  0  0  0  0
 18 20  2  0  0  0  0
 18 37  1  0  0  0  0
 19 21  2  0  0  0  0
 19 38  1  0  0  0  0
 20 49  1  0  0  0  0
 21 39  1  0  0  0  0
 22 30  2  0  0  0  0
 22 53  1  0  0  0  0
 23 84  1  0  0  0  0
 24 85  1  0  0  0  0
 25 27  2  0  0  0  0
 25 84  1  0  0  0  0
 26 86  1  0  0  0  0
 27 87  1  0  0  0  0
 28 65  2  0  0  0  0
 29 60  1  0  0  0  0
 29 66  1  0  0  0  0
 30 67  1  0  0  0  0
 30 69  1  0  0  0  0
 31 68  1  0  0  0  0
 31 73  1  0  0  0  0
 32 74  1  0  0  0  0
 32 79  2  0  0  0  0
 33 50  1  0  0  0  0
 33 75  1  0  0  0  0
 33 80  2  0  0  0  0
 34 62  1  0  0  0  0
 34 70  1  0  0  0  0
 34 81  2  0  0  0  0
 35 63  1  0  0  0  0
 35 76  1  0  0  0  0
 35 82  2  0  0  0  0
 36 71  1  0  0  0  0
 36 72  1  0  0  0  0
 36 83  2  0  0  0  0
 37 40  1  0  0  0  0
 38 50  1  0  0  0  0
 39 70  1  0  0  0  0
 40 42  1  0  0  0  0
 41 43  1  0  0  0  0
 41 44  1  0  0  0  0
 42 49  1  0  0  0  0
 43 51  1  0  0  0  0
 44 71  1  0  0  0  0
 45 46  1  0  0  0  0
 45 69  1  0  0  0  0
 46 72  1  0  0  0  0
 47 51  1  0  0  0  0
 47 71  1  0  0  0  0
 48 52  1  0  0  0  0
 48 69  1  0  0  0  0
 49 75  1  0  0  0  0
 50 70  1  0  0  0  0
 51 68  1  0  0  0  0
 52 61  1  0  0  0  0
 52 72  1  0  0  0  0
 54 63  1  0  0  0  0
 55 64  1  0  0  0  0
 56 64  1  0  0  0  0
 57 64  1  0  0  0  0
 58 77  1  0  0  0  0
 59 78  1  0  0  0  0
 60 85  1  0  0  0  0
 61 77  1  0  0  0  0
 62 64  1  0  0  0  0
 62 76  1  0  0  0  0
 63 78  1  0  0  0  0
 65 68  1  0  0  0  0
 66 67  2  0  0  0  0
M  CHG  2  77   1  78   1
M  ISO  4  36 100  60 101  72 100  85 101
M  END
> <Batch ID>
0196

> <Smiles>
CNCC1CN(c2nnc([101CH2:1][101O:1]c3ccc4c(c3)CN(C(=O)C(NC(=O)C(C)NC)C(C)(C)C)C(C(=O)NC3CCCc5ccccc53)C4)cc2C)CC[100N:0]1[100C:0](=O)N1CCCC(n2nc(-c3ccc(Oc4ccc(F)cc4F)cc3)c(C(N)=O)c2N)C1

> <Shape>
0.337

> <Color>
0.115

> <Negative vol penalty>
0.000

$$$$

  -OEChem-04052323393D

 85 94  0     1  0  0  0  0  0999 V2000
  -16.7515  -28.3761   24.6298 C   0  0  0  0  0  0  0  0  0  0  0  0
  -17.8735  -28.7068   25.3829 C   0  0  0  0  0  0  0  0  0  0  0  0
  -25.9122  -13.0680   21.3518 C   0  0  0  0  0  0  0  0  0  0  0  0
  -23.8694  -13.3004   20.0828 C   0  0  0  0  0  0  0  0  0  0  0  0
  -16.9034  -27.8803   23.3356 C   0  0  0  0  0  0  0  0  0  0  0  0
  -19.1482  -28.5408   24.8426 C   0  0  0  0  0  0  0  0  0  0  0  0
  -25.6953  -31.4442   24.9893 C   0  0  0  0  0  0  0  0  0  0  0  0
  -25.3767  -11.9615   22.0111 C   0  0  0  0  0  0  0  0  0  0  0  0
  -23.3340  -12.1939   20.7421 C   0  0  0  0  0  0  0  0  0  0  0  0
  -27.0271  -31.0880   25.1977 C   0  0  0  0  0  0  0  0  0  0  0  0
  -24.8739   -8.6806   21.3666 C   0  0  0  0  0  0  0  0  0  0  0  0
  -25.6868   -7.5565   21.5119 C   0  0  0  0  0  0  0  0  0  0  0  0
  -27.1655  -30.2980   22.9226 C   0  0  0  0  0  0  0  0  0  0  0  0
  -25.4971   -7.7297   23.9142 C   0  0  0  0  0  0  0  0  0  0  0  0
  -25.1585  -13.7375   20.3877 C   0  0  0  0  0  0  0  0  0  0  0  0
  -26.4536  -14.8810   18.5108 C   0  0  0  0  0  0  0  0  0  0  0  0
  -18.1803  -27.7173   22.7756 C   0  0  0  0  0  0  0  0  0  0  0  0
  -25.0845  -31.2195   23.7472 C   0  0  0  0  0  0  0  0  0  0  0  0
  -19.3174  -28.0411   23.5401 C   0  0  0  0  0  0  0  0  0  0  0  0
  -25.8267  -30.6546   22.7002 C   0  0  0  0  0  0  0  0  0  0  0  0
  -24.0876  -11.5245   21.7063 C   0  0  0  0  0  0  0  0  0  0  0  0
  -27.7615  -30.5122   24.1651 C   0  0  0  0  0  0  0  0  0  0  0  0
  -24.3725   -9.3293   22.4952 C   0  0  0  0  0  0  0  0  0  0  0  0
  -25.9984   -7.0811   22.7856 C   0  0  0  0  0  0  0  0  0  0  0  0
  -24.6841   -8.8539   23.7689 C   0  0  0  0  0  0  0  0  0  0  0  0
  -25.7109  -14.8808   19.7067 C   0  0  0  0  0  0  0  0  0  0  0  0
  -26.7426  -16.2048   18.2864 C   0  0  0  0  0  0  0  0  0  0  0  0
  -26.8469  -13.7827   17.6773 C   0  0  0  0  0  0  0  0  0  0  0  0
  -22.6287  -29.4715   22.7387 C   0  0  0  0  0  0  0  0  0  0  0  0
  -23.2134  -30.9785   19.9263 C   0  0  0  0  0  0  0  0  0  0  0  0
  -25.4416  -32.6131   17.9239 C   0  0  0  0  0  0  0  0  0  0  0  0
  -28.6378  -20.9907   20.4765 C   0  0  0  0  0  0  0  0  0  0  0  0
  -18.2961  -27.1333   21.3899 C   0  0  0  0  0  0  0  0  0  0  0  0
  -23.6549  -31.6339   23.5303 C   0  0  0  0  0  0  0  0  0  0  0  0
  -25.2234  -30.4111   21.3418 C   0  0  0  0  0  0  0  0  0  0  0  0
  -19.6686  -27.3401   20.7545 C   0  0  0  0  0  0  0  0  0  0  0  0
  -24.9780  -20.3902   20.5049 C   0  0  0  0  0  0  0  0  0  0  0  0
  -20.7740  -26.9903   21.7457 C   0  0  0  0  0  0  0  0  0  0  0  0
  -24.9188  -18.8851   20.2400 C   0  0  0  0  0  0  0  0  0  0  0  0
  -28.1626  -24.5773   21.1262 C   0  0  0  0  0  0  0  0  0  0  0  0
  -26.2452  -20.7603   21.2647 C   0  0  0  0  0  0  0  0  0  0  0  0
  -27.5412  -23.1870   21.2165 C   0  0  0  0  0  0  0  0  0  0  0  0
  -27.4575  -18.8277   20.3307 C   0  0  0  0  0  0  0  0  0  0  0  0
  -29.9363  -22.9855   21.1699 C   0  0  0  0  0  0  0  0  0  0  0  0
  -31.7570  -25.3190   22.0829 C   0  0  0  0  0  0  0  0  0  0  0  0
  -30.1870  -26.6914   21.9569 C   0  0  0  0  0  0  0  0  0  0  0  0
  -20.7159  -27.8986   22.9799 C   0  0  1  0  0  0  0  0  0  0  0  0
  -22.9840  -30.8871   22.3816 C   0  0  1  0  0  0  0  0  0  0  0  0
  -31.7011  -26.8564   22.2071 C   0  0  0  0  0  0  0  0  0  0  0  0
  -26.2041  -18.3899   19.5522 C   0  0  1  0  0  0  0  0  0  0  0  0
  -29.5400  -24.3404   21.7273 C   0  0  1  0  0  0  0  0  0  0  0  0
  -25.6385  -33.6929   15.6671 C   0  0  0  0  0  0  0  0  0  0  0  0
  -23.3547  -28.2232   18.6231 C   0  0  0  0  0  0  0  0  0  0  0  0
  -24.4670  -29.2903   16.6502 C   0  0  0  0  0  0  0  0  0  0  0  0
  -22.1457  -29.9518   17.2798 C   0  0  0  0  0  0  0  0  0  0  0  0
  -26.0783  -35.2481   19.1115 C   0  0  0  0  0  0  0  0  0  0  0  0
  -32.1136  -27.4506   23.5370 C   0  0  0  0  0  0  0  0  0  0  0  0
  -31.8859  -29.5129   24.9276 C   0  0  0  0  0  0  0  0  0  0  0  0
  -29.8026  -30.9377   25.3092 C   0  0  0  0  0  0  0  0  0  1  0  0
  -24.0820  -30.6984   18.7238 C   0  0  1  0  0  0  0  0  0  0  0  0
  -25.3300  -33.9087   17.1406 C   0  0  2  0  0  0  0  0  0  0  0  0
  -31.2897  -30.9206   24.9423 C   0  0  1  0  0  0  0  0  0  0  0  0
  -23.5234  -29.5436   17.8453 C   0  0  0  0  0  0  0  0  0  0  0  0
  -25.5390  -16.1072   20.2071 N   0  0  0  0  0  0  0  0  0  0  0  0
  -26.1778  -16.8904   19.3214 N   0  0  0  0  0  0  0  0  0  0  0  0
  -23.8204  -30.8275   21.1812 N   0  0  0  0  0  0  0  0  0  0  0  0
  -27.4405  -20.2723   20.5712 N   0  0  0  0  0  0  0  0  0  0  0  0
  -28.6696  -22.2681   21.0340 N   0  0  0  0  0  0  0  0  0  0  0  0
  -27.4224  -16.8377   17.3067 N   0  0  0  0  0  0  0  0  0  0  0  0
  -26.4661  -12.4878   18.0546 N   0  0  0  0  0  0  0  0  0  0  0  0
  -32.0309  -31.7177   25.9270 N   0  0  0  0  0  0  0  0  0  0  0  0
  -21.2755  -29.1985   22.6775 N   0  0  0  0  0  0  0  0  0  0  0  0
  -24.2267  -31.9682   18.0201 N   0  0  0  0  0  0  0  0  0  0  0  0
  -30.4898  -25.3895   21.3221 N   0  3  0  0  0  0  0  0  0  0  0  0
  -26.2824  -34.9218   17.6767 N   0  3  0  0  0  0  0  0  0  0  0  0
  -31.5942  -28.8344   23.6342 N   0  3  0  0  0  0  0  0  0  0  0  0
  -27.5303  -13.9433   16.6377 O   0  0  0  0  0  0  0  0  0  0  0  0
  -23.5167  -28.6847   23.0455 O   0  0  0  0  0  0  0  0  0  0  0  0
  -22.0417  -31.3254   19.7583 O   0  0  0  0  0  0  0  0  0  0  0  0
  -26.5014  -32.2114   18.3993 O   0  0  0  0  0  0  0  0  0  0  0  0
  -29.6195  -20.5313   19.8779 O   0  0  0  0  0  0  0  0  0  0  0  0
  -23.5649  -10.4447   22.3493 O   0  0  0  0  0  0  0  0  0  0  0  0
  -29.0696  -30.1608   24.3673 O   0  0  0  0  0  0  0  0  0  1  0  0
  -26.7779   -6.0007   22.9250 F   0  0  0  0  0  0  0  0  0  0  0  0
  -24.2045   -9.4722   24.8568 F   0  0  0  0  0  0  0  0  0  0  0  0
  1  2  1  0  0  0  0
  1  5  2  0  0  0  0
  2  6  2  0  0  0  0
  3  8  2  0  0  0  0
  3 15  1  0  0  0  0
  4  9  1  0  0  0  0
  4 15  2  0  0  0  0
  5 17  1  0  0  0  0
  6 19  1  0  0  0  0
  7 10  2  0  0  0  0
  7 18  1  0  0  0  0
  8 21  1  0  0  0  0
  9 21  2  0  0  0  0
 10 22  1  0  0  0  0
 11 12  2  0  0  0  0
 11 23  1  0  0  0  0
 12 24  1  0  0  0  0
 13 20  1  0  0  0  0
 13 22  2  0  0  0  0
 14 24  2  0  0  0  0
 14 25  1  0  0  0  0
 15 26  1  0  0  0  0
 16 26  1  0  0  0  0
 16 27  2  0  0  0  0
 16 28  1  0  0  0  0
 17 19  2  0  0  0  0
 17 33  1  0  0  0  0
 18 20  2  0  0  0  0
 18 34  1  0  0  0  0
 19 47  1  0  0  0  0
 20 35  1  0  0  0  0
 21 82  1  0  0  0  0
 22 83  1  0  0  0  0
 23 25  2  0  0  0  0
 23 82  1  0  0  0  0
 24 84  1  0  0  0  0
 25 85  1  0  0  0  0
 26 64  2  0  0  0  0
 27 65  1  0  0  0  0
 27 69  1  0  0  0  0
 28 70  1  0  0  0  0
 28 77  2  0  0  0  0
 29 48  1  0  0  0  0
 29 72  1  0  0  0  0
 29 78  2  0  0  0  0
 30 60  1  0  0  0  0
 30 66  1  0  0  0  0
 30 79  2  0  0  0  0
 31 61  1  0  0  0  0
 31 73  1  0  0  0  0
 31 80  2  0  0  0  0
 32 67  1  0  0  0  0
 32 68  1  0  0  0  0
 32 81  2  0  0  0  0
 33 36  1  0  0  0  0
 34 48  1  0  0  0  0
 35 66  1  0  0  0  0
 36 38  1  0  0  0  0
 37 39  1  0  0  0  0
 37 41  1  0  0  0  0
 38 47  1  0  0  0  0
 39 50  1  0  0  0  0
 40 42  1  0  0  0  0
 40 51  1  0  0  0  0
 41 67  1  0  0  0  0
 42 68  1  0  0  0  0
 43 50  1  0  0  0  0
 43 67  1  0  0  0  0
 44 51  1  0  0  0  0
 44 68  1  0  0  0  0
 45 49  1  0  0  0  0
 45 74  1  0  0  0  0
 46 49  1  0  0  0  0
 46 74  1  0  0  0  0
 47 72  1  0  0  0  0
 48 66  1  0  0  0  0
 49 57  1  0  0  0  0
 50 65  1  0  0  0  0
 51 74  1  0  0  0  0
 52 61  1  0  0  0  0
 53 63  1  0  0  0  0
 54 63  1  0  0  0  0
 55 63  1  0  0  0  0
 56 75  1  0  0  0  0
 57 76  1  0  0  0  0
 58 62  1  0  0  0  0
 58 76  1  0  0  0  0
 59 62  1  0  0  0  0
 59 83  1  0  0  0  0
 60 63  1  0  0  0  0
 60 73  1  0  0  0  0
 61 75  1  0  0  0  0
 62 71  1  0  0  0  0
 64 65  1  0  0  0  0
M  CHG  3  74   1  75   1  76   1
M  ISO  4  32 100  59 101  68 100  83 101
M  END
> <Batch ID>
0196

> <Smiles>
CNC(C)C(=O)NC(C(=O)N1Cc2cc([101O:1][101CH2:1]C(N)CNCC3CN(C4CC[100N:0]([100C:0](=O)N5CCCC(n6nc(-c7ccc(Oc8ccc(F)cc8F)cc7)c(C(N)=O)c6N)C5)C4)C3)ccc2CC1C(=O)NC1CCCc2ccccc21)C(C)(C)C

> <Shape>
0.251

> <Color>
0.086

> <Negative vol penalty>
0.000

$$$$

  -OEChem-04052323393D

 86 95  0     1  0  0  0  0  0999 V2000
  -19.3709  -26.3980   18.7104 C   0  0  0  0  0  0  0  0  0  0  0  0
  -19.2210  -25.0919   18.2555 C   0  0  0  0  0  0  0  0  0  0  0  0
  -27.0730  -23.4343   20.6784 C   0  0  0  0  0  0  0  0  0  0  0  0
  -28.7036  -23.2659   18.9036 C   0  0  0  0  0  0  0  0  0  0  0  0
  -20.3439  -26.6956   19.6636 C   0  0  0  0  0  0  0  0  0  0  0  0
  -20.0449  -24.0827   18.7527 C   0  0  0  0  0  0  0  0  0  0  0  0
  -19.9824  -17.0959   20.3325 C   0  0  0  0  0  0  0  0  0  0  0  0
  -27.2891  -24.8106   20.7464 C   0  0  0  0  0  0  0  0  0  0  0  0
  -28.9197  -24.6422   18.9716 C   0  0  0  0  0  0  0  0  0  0  0  0
  -20.7002  -15.9278   20.0791 C   0  0  0  0  0  0  0  0  0  0  0  0
  -27.1483  -28.4216   21.1406 C   0  0  0  0  0  0  0  0  0  0  0  0
  -26.0295  -29.2504   21.2243 C   0  0  0  0  0  0  0  0  0  0  0  0
  -22.2937  -16.5449   21.7817 C   0  0  0  0  0  0  0  0  0  0  0  0
  -25.2387  -28.3966   19.1071 C   0  0  0  0  0  0  0  0  0  0  0  0
  -27.7803  -22.6619   19.7570 C   0  0  0  0  0  0  0  0  0  0  0  0
  -26.6170  -20.5653   18.8859 C   0  0  0  0  0  0  0  0  0  0  0  0
  -21.1737  -25.6879   20.1799 C   0  0  0  0  0  0  0  0  0  0  0  0
  -20.4216  -18.0040   21.3066 C   0  0  0  0  0  0  0  0  0  0  0  0
  -21.0309  -24.3674   19.7127 C   0  0  0  0  0  0  0  0  0  0  0  0
  -21.5783  -17.7224   22.0474 C   0  0  0  0  0  0  0  0  0  0  0  0
  -28.2124  -25.4146   19.8930 C   0  0  0  0  0  0  0  0  0  0  0  0
  -21.8576  -15.6536   20.8017 C   0  0  0  0  0  0  0  0  0  0  0  0
  -27.3124  -27.5804   20.0401 C   0  0  0  0  0  0  0  0  0  0  0  0
  -25.0747  -29.2378   20.2076 C   0  0  0  0  0  0  0  0  0  0  0  0
  -26.3576  -27.5678   19.0234 C   0  0  0  0  0  0  0  0  0  0  0  0
  -27.5579  -21.2400   19.6867 C   0  0  0  0  0  0  0  0  0  0  0  0
  -26.8035  -19.2372   19.1821 C   0  0  0  0  0  0  0  0  0  0  0  0
  -25.6600  -21.0920   17.9573 C   0  0  0  0  0  0  0  0  0  0  0  0
  -21.3681  -21.0383   21.2800 C   0  0  0  0  0  0  0  0  0  0  0  0
  -25.2818  -11.3962   20.2010 C   0  0  0  0  0  0  0  0  0  0  0  0
  -21.3959  -20.6511   24.5005 C   0  0  0  0  0  0  0  0  0  0  0  0
  -21.6181  -18.5256   27.1612 C   0  0  0  0  0  0  0  0  0  0  0  0
  -30.6469  -15.1017   19.8795 C   0  0  0  0  0  0  0  0  0  0  0  0
  -22.2428  -26.0664   21.1741 C   0  0  0  0  0  0  0  0  0  0  0  0
  -19.6214  -19.2464   21.5865 C   0  0  0  0  0  0  0  0  0  0  0  0
  -22.0810  -18.6550   23.1179 C   0  0  0  0  0  0  0  0  0  0  0  0
  -22.8251  -24.8725   21.9264 C   0  0  0  0  0  0  0  0  0  0  0  0
  -29.4732  -17.0029   22.8374 C   0  0  0  0  0  0  0  0  0  0  0  0
  -26.5687   -8.9159   18.4108 C   0  0  0  0  0  0  0  0  0  0  0  0
  -23.1520  -23.7396   20.9587 C   0  0  0  0  0  0  0  0  0  0  0  0
  -25.3813   -9.8457   18.2316 C   0  0  0  0  0  0  0  0  0  0  0  0
  -28.8632  -18.2528   22.2055 C   0  0  0  0  0  0  0  0  0  0  0  0
  -29.5547  -12.1037   18.5174 C   0  0  0  0  0  0  0  0  0  0  0  0
  -27.5747  -13.5183   19.1962 C   0  0  0  0  0  0  0  0  0  0  0  0
  -30.5802  -16.4122   21.9699 C   0  0  0  0  0  0  0  0  0  0  0  0
  -30.2942  -13.3821   18.1320 C   0  0  0  0  0  0  0  0  0  0  0  0
  -28.3662  -14.7747   18.8211 C   0  0  0  0  0  0  0  0  0  0  0  0
  -29.5473  -17.3744   19.9378 C   0  0  0  0  0  0  0  0  0  0  0  0
  -27.7508   -9.8272   18.1683 C   0  0  0  0  0  0  0  0  0  0  0  0
  -21.8889  -23.2409   20.2463 C   0  0  1  0  0  0  0  0  0  0  0  0
  -20.4431  -20.3509   22.2441 C   0  0  1  0  0  0  0  0  0  0  0  0
  -25.8287  -11.1771   18.8283 C   0  0  2  0  0  0  0  0  0  0  0  0
  -28.3984  -17.9678   20.7670 C   0  0  2  0  0  0  0  0  0  0  0  0
  -28.0466  -12.3096   18.3908 C   0  0  0  0  0  0  0  0  0  0  0  0
  -21.6480  -18.5069   29.6704 C   0  0  0  0  0  0  0  0  0  0  0  0
  -24.2758  -21.6587   24.4713 C   0  0  0  0  0  0  0  0  0  0  0  0
  -24.5491  -20.7344   26.7819 C   0  0  0  0  0  0  0  0  0  0  0  0
  -22.8816  -22.5391   26.3516 C   0  0  0  0  0  0  0  0  0  0  0  0
  -19.1747  -16.8609   27.2936 C   0  0  0  0  0  0  0  0  0  0  0  0
  -23.4061  -12.4453   21.4514 C   0  0  0  0  0  0  0  0  0  0  0  0
  -23.2794  -13.9454   21.6482 C   0  0  0  0  0  0  0  0  0  1  0  0
  -22.4191  -20.1989   25.5141 C   0  0  1  0  0  0  0  0  0  0  0  0
  -20.7839  -18.4011   28.4234 C   0  0  2  0  0  0  0  0  0  0  0  0
  -23.5233  -21.2659   25.7583 C   0  0  0  0  0  0  0  0  0  0  0  0
  -28.2879  -20.4091   20.4355 N   0  0  0  0  0  0  0  0  0  0  0  0
  -27.8056  -19.1986   20.1066 N   0  0  0  0  0  0  0  0  0  0  0  0
  -21.2673  -19.8598   23.3503 N   0  0  0  0  0  0  0  0  0  0  0  0
  -30.1292  -16.1942   20.5953 N   0  0  0  0  0  0  0  0  0  0  0  0
  -29.8127  -14.5255   18.9096 N   0  0  0  0  0  0  0  0  0  0  0  0
  -26.2065  -18.1103   18.7395 N   0  0  0  0  0  0  0  0  0  0  0  0
  -25.6018  -22.4802   17.7731 N   0  0  0  0  0  0  0  0  0  0  0  0
  -21.1167  -22.3882   21.1245 N   0  0  0  0  0  0  0  0  0  0  0  0
  -24.1056  -12.1209   20.2289 N   0  0  0  0  0  0  0  0  0  0  0  0
  -21.6718  -19.8277   26.7109 N   0  0  0  0  0  0  0  0  0  0  0  0
  -27.3479  -11.0946   18.8838 N   0  3  2  0  0  0  0  0  0  0  0  0
  -20.0781  -17.0888   28.4506 N   0  3  0  0  0  0  0  0  0  0  0  0
  -24.8684  -20.3547   17.3222 O   0  0  0  0  0  0  0  0  0  0  0  0
  -22.2459  -20.3922   20.7199 O   0  0  0  0  0  0  0  0  0  0  0  0
  -25.8794  -10.9410   21.1692 O   0  0  0  0  0  0  0  0  0  0  0  0
  -20.7300  -21.6651   24.7245 O   0  0  0  0  0  0  0  0  0  0  0  0
  -22.1701  -17.5645   26.6301 O   0  0  0  0  0  0  0  0  0  0  0  0
  -31.7850  -14.6673   20.0967 O   0  0  0  0  0  0  0  0  0  0  0  0
  -28.4233  -26.7576   19.9589 O   0  0  0  0  0  0  0  0  0  0  0  0
  -22.5655  -14.5065   20.5541 O   0  0  0  0  0  0  0  0  0  1  0  0
  -23.9996  -30.0326   20.2888 F   0  0  0  0  0  0  0  0  0  0  0  0
  -26.5092  -26.7609   17.9643 F   0  0  0  0  0  0  0  0  0  0  0  0
  1  2  1  0  0  0  0
  1  5  2  0  0  0  0
  2  6  2  0  0  0  0
  3  8  2  0  0  0  0
  3 15  1  0  0  0  0
  4  9  1  0  0  0  0
  4 15  2  0  0  0  0
  5 17  1  0  0  0  0
  6 19  1  0  0  0  0
  7 10  2  0  0  0  0
  7 18  1  0  0  0  0
  8 21  1  0  0  0  0
  9 21  2  0  0  0  0
 10 22  1  0  0  0  0
 11 12  2  0  0  0  0
 11 23  1  0  0  0  0
 12 24  1  0  0  0  0
 13 20  1  0  0  0  0
 13 22  2  0  0  0  0
 14 24  2  0  0  0  0
 14 25  1  0  0  0  0
 15 26  1  0  0  0  0
 16 26  1  0  0  0  0
 16 27  2  0  0  0  0
 16 28  1  0  0  0  0
 17 19  2  0  0  0  0
 17 34  1  0  0  0  0
 18 20  2  0  0  0  0
 18 35  1  0  0  0  0
 19 50  1  0  0  0  0
 20 36  1  0  0  0  0
 21 83  1  0  0  0  0
 22 84  1  0  0  0  0
 23 25  2  0  0  0  0
 23 83  1  0  0  0  0
 24 85  1  0  0  0  0
 25 86  1  0  0  0  0
 26 65  2  0  0  0  0
 27 66  1  0  0  0  0
 27 70  1  0  0  0  0
 28 71  1  0  0  0  0
 28 77  2  0  0  0  0
 29 51  1  0  0  0  0
 29 72  1  0  0  0  0
 29 78  2  0  0  0  0
 30 52  1  0  0  0  0
 30 73  1  0  0  0  0
 30 79  2  0  0  0  0
 31 62  1  0  0  0  0
 31 67  1  0  0  0  0
 31 80  2  0  0  0  0
 32 63  1  0  0  0  0
 32 74  1  0  0  0  0
 32 81  2  0  0  0  0
 33 68  1  0  0  0  0
 33 69  1  0  0  0  0
 33 82  2  0  0  0  0
 34 37  1  0  0  0  0
 35 51  1  0  0  0  0
 36 67  1  0  0  0  0
 37 40  1  0  0  0  0
 38 42  1  0  0  0  0
 38 45  1  0  0  0  0
 39 41  1  0  0  0  0
 39 49  1  0  0  0  0
 40 50  1  0  0  0  0
 41 52  1  0  0  0  0
 42 53  1  0  0  0  0
 43 46  1  0  0  0  0
 43 54  1  0  0  0  0
 44 47  1  0  0  0  0
 44 54  1  0  0  0  0
 45 68  1  0  0  0  0
 46 69  1  0  0  0  0
 47 69  1  0  0  0  0
 48 53  1  0  0  0  0
 48 68  1  0  0  0  0
 49 75  1  0  0  0  0
 50 72  1  0  0  0  0
 51 67  1  0  0  0  0
 52 75  1  0  0  0  0
 53 66  1  0  0  0  0
 54 75  1  0  0  0  0
 55 63  1  0  0  0  0
 56 64  1  0  0  0  0
 57 64  1  0  0  0  0
 58 64  1  0  0  0  0
 59 76  1  0  0  0  0
 60 61  1  0  0  0  0
 60 73  1  0  0  0  0
 61 84  1  0  0  0  0
 62 64  1  0  0  0  0
 62 74  1  0  0  0  0
 63 76  1  0  0  0  0
 65 66  1  0  0  0  0
M  CHG  2  75   1  76   1
M  ISO  4  33 100  61 101  69 100  84 101
M  END
> <Batch ID>
0196

> <Smiles>
CNC(C)C(=O)NC(C(=O)N1Cc2cc([101O:1][101CH2:1]CNC(=O)C3CCCN3C3CC[100N:0]([100C:0](=O)N4CCCC(n5nc(-c6ccc(Oc7ccc(F)cc7F)cc6)c(C(N)=O)c5N)C4)CC3)ccc2CC1C(=O)NC1CCCc2ccccc21)C(C)(C)C

> <Shape>
0.185

> <Color>
0.091

> <Negative vol penalty>
0.000

$$$$

  -OEChem-04052323393D

 80 88  0     1  0  0  0  0  0999 V2000
  -33.5227  -15.3619   23.5426 C   0  0  0  0  0  0  0  0  0  0  0  0
  -33.0338  -16.6599   23.4351 C   0  0  0  0  0  0  0  0  0  0  0  0
  -28.6151  -26.3624   20.0381 C   0  0  0  0  0  0  0  0  0  0  0  0
  -26.7787  -25.4390   18.7685 C   0  0  0  0  0  0  0  0  0  0  0  0
  -33.0781  -14.3757   22.6630 C   0  0  0  0  0  0  0  0  0  0  0  0
  -32.1007  -16.9727   22.4471 C   0  0  0  0  0  0  0  0  0  0  0  0
  -24.9899  -20.1396   23.1058 C   0  0  0  0  0  0  0  0  0  0  0  0
  -29.3947  -25.2507   19.7191 C   0  0  0  0  0  0  0  0  0  0  0  0
  -27.5583  -24.3273   18.4494 C   0  0  0  0  0  0  0  0  0  0  0  0
  -23.6559  -20.5476   23.1087 C   0  0  0  0  0  0  0  0  0  0  0  0
  -29.7044  -22.0471   20.7513 C   0  0  0  0  0  0  0  0  0  0  0  0
  -30.4400  -21.4559   21.7785 C   0  0  0  0  0  0  0  0  0  0  0  0
  -23.2726  -19.3454   21.0457 C   0  0  0  0  0  0  0  0  0  0  0  0
  -32.4837  -21.8926   20.5663 C   0  0  0  0  0  0  0  0  0  0  0  0
  -27.3070  -26.4566   19.5629 C   0  0  0  0  0  0  0  0  0  0  0  0
  -26.3972  -28.8069   19.1678 C   0  0  0  0  0  0  0  0  0  0  0  0
  -32.1320  -14.6743   21.6700 C   0  0  0  0  0  0  0  0  0  0  0  0
  -25.4671  -19.3193   22.0798 C   0  0  0  0  0  0  0  0  0  0  0  0
  -31.6441  -15.9899   21.5526 C   0  0  0  0  0  0  0  0  0  0  0  0
  -24.6048  -18.9233   21.0442 C   0  0  0  0  0  0  0  0  0  0  0  0
  -28.8664  -24.2331   18.9247 C   0  0  0  0  0  0  0  0  0  0  0  0
  -22.7995  -20.1517   22.0810 C   0  0  0  0  0  0  0  0  0  0  0  0
  -30.3585  -22.5610   19.6315 C   0  0  0  0  0  0  0  0  0  0  0  0
  -31.8296  -21.3787   21.6860 C   0  0  0  0  0  0  0  0  0  0  0  0
  -31.7482  -22.4838   19.5391 C   0  0  0  0  0  0  0  0  0  0  0  0
  -26.5010  -27.6045   19.8926 C   0  0  0  0  0  0  0  0  0  0  0  0
  -25.5127  -29.5687   19.8915 C   0  0  0  0  0  0  0  0  0  0  0  0
  -27.0426  -29.1999   17.9494 C   0  0  0  0  0  0  0  0  0  0  0  0
  -28.3749  -17.4436   20.6298 C   0  0  0  0  0  0  0  0  0  0  0  0
  -25.9031  -15.6596   20.2863 C   0  0  0  0  0  0  0  0  0  0  0  0
  -23.0283  -13.8333   20.4788 C   0  0  0  0  0  0  0  0  0  0  0  0
  -21.1248  -28.1855   23.7235 C   0  0  0  0  0  0  0  0  0  0  0  0
  -31.7168  -13.5859   20.7120 C   0  0  0  0  0  0  0  0  0  0  0  0
  -26.9119  -18.9062   22.0035 C   0  0  0  0  0  0  0  0  0  0  0  0
  -25.1706  -18.0691   19.9428 C   0  0  0  0  0  0  0  0  0  0  0  0
  -30.4460  -13.9130   19.9321 C   0  0  0  0  0  0  0  0  0  0  0  0
  -23.9485  -30.2588   24.3600 C   0  0  0  0  0  0  0  0  0  0  0  0
  -30.5103  -15.3328   19.3781 C   0  0  0  0  0  0  0  0  0  0  0  0
  -24.9135  -29.9221   23.2219 C   0  0  0  0  0  0  0  0  0  0  0  0
  -18.6940  -21.5893   22.0433 C   0  0  0  0  0  0  0  0  0  0  0  0
  -23.1762  -29.0273   24.8280 C   0  0  0  0  0  0  0  0  0  0  0  0
  -23.4338  -27.9603   22.6214 C   0  0  0  0  0  0  0  0  0  0  0  0
  -30.6126  -16.3625   20.5098 C   0  0  1  0  0  0  0  0  0  0  0  0
  -27.1055  -17.4916   21.4284 C   0  0  1  0  0  0  0  0  0  0  0  0
  -20.0084  -22.4189   22.0145 C   0  0  1  0  0  0  0  0  0  0  0  0
  -24.1948  -29.1817   22.0779 C   0  0  2  0  0  0  0  0  0  0  0  0
  -17.9427  -22.9330   22.1780 C   0  0  2  0  0  0  0  0  0  0  0  0
  -19.2317  -23.5105   22.8082 C   0  0  2  0  0  0  0  0  0  0  0  0
  -22.0752  -11.5909   19.8783 C   0  0  0  0  0  0  0  0  0  0  0  0
  -25.7085  -16.5277   17.3687 C   0  0  0  0  0  0  0  0  0  0  0  0
  -23.9666  -14.7609   17.0331 C   0  0  0  0  0  0  0  0  0  0  0  0
  -26.2812  -14.1165   17.7041 C   0  0  0  0  0  0  0  0  0  0  0  0
  -22.4645  -13.1852   23.3109 C   0  0  0  0  0  0  0  0  0  0  0  0
  -21.2080  -21.8046   22.7076 C   0  0  0  0  0  0  0  0  0  1  0  0
  -19.1613  -27.3061   22.4865 C   0  0  0  0  0  0  0  0  0  0  0  0
  -18.7712  -25.9533   23.0521 C   0  0  0  0  0  0  0  0  0  0  0  0
  -24.7662  -15.2317   19.3932 C   0  0  1  0  0  0  0  0  0  0  0  0
  -22.7651  -12.4157   20.9537 C   0  0  2  0  0  0  0  0  0  0  0  0
  -25.1772  -15.1793   17.8946 C   0  0  0  0  0  0  0  0  0  0  0  0
  -25.7431  -27.5983   20.9924 N   0  0  0  0  0  0  0  0  0  0  0  0
  -25.1547  -28.8062   20.9641 N   0  0  0  0  0  0  0  0  0  0  0  0
  -26.0486  -17.0340   20.5105 N   0  0  0  0  0  0  0  0  0  0  0  0
  -22.5167  -28.3722   23.6957 N   0  0  0  0  0  0  0  0  0  0  0  0
  -25.0142  -30.8099   19.7086 N   0  0  0  0  0  0  0  0  0  0  0  0
  -27.9214  -28.2959   17.3371 N   0  0  0  0  0  0  0  0  0  0  0  0
  -16.9225  -22.8046   23.2097 N   0  0  0  0  0  0  0  0  0  0  0  0
  -29.3193  -16.5658   21.1266 N   0  0  0  0  0  0  0  0  0  0  0  0
  -24.2847  -13.9616   19.9255 N   0  0  0  0  0  0  0  0  0  0  0  0
  -20.5792  -27.5623   22.6079 N   0  0  0  0  0  0  0  0  0  0  0  0
  -19.5369  -24.8746   22.3566 N   0  3  0  0  0  0  0  0  0  0  0  0
  -21.8974  -12.4281   22.1653 N   0  3  0  0  0  0  0  0  0  0  0  0
  -26.8584  -30.3258   17.4280 O   0  0  0  0  0  0  0  0  0  0  0  0
  -28.4897  -18.1496   19.6347 O   0  0  0  0  0  0  0  0  0  0  0  0
  -26.6471  -14.8010   20.7688 O   0  0  0  0  0  0  0  0  0  0  0  0
  -22.2006  -14.7357   20.5844 O   0  0  0  0  0  0  0  0  0  0  0  0
  -20.4199  -28.5521   24.6699 O   0  0  0  0  0  0  0  0  0  0  0  0
  -29.6269  -23.1483   18.6129 O   0  0  0  0  0  0  0  0  0  0  0  0
  -21.4972  -20.5499   22.0924 O   0  0  0  0  0  0  0  0  0  1  0  0
  -32.5359  -20.8124   22.6732 F   0  0  0  0  0  0  0  0  0  0  0  0
  -32.3822  -22.9767   18.4663 F   0  0  0  0  0  0  0  0  0  0  0  0
  1  2  1  0  0  0  0
  1  5  2  0  0  0  0
  2  6  2  0  0  0  0
  3  8  2  0  0  0  0
  3 15  1  0  0  0  0
  4  9  1  0  0  0  0
  4 15  2  0  0  0  0
  5 17  1  0  0  0  0
  6 19  1  0  0  0  0
  7 10  2  0  0  0  0
  7 18  1  0  0  0  0
  8 21  1  0  0  0  0
  9 21  2  0  0  0  0
 10 22  1  0  0  0  0
 11 12  2  0  0  0  0
 11 23  1  0  0  0  0
 12 24  1  0  0  0  0
 13 20  1  0  0  0  0
 13 22  2  0  0  0  0
 14 24  2  0  0  0  0
 14 25  1  0  0  0  0
 15 26  1  0  0  0  0
 16 26  1  0  0  0  0
 16 27  2  0  0  0  0
 16 28  1  0  0  0  0
 17 19  2  0  0  0  0
 17 33  1  0  0  0  0
 18 20  2  0  0  0  0
 18 34  1  0  0  0  0
 19 43  1  0  0  0  0
 20 35  1  0  0  0  0
 21 77  1  0  0  0  0
 22 78  1  0  0  0  0
 23 25  2  0  0  0  0
 23 77  1  0  0  0  0
 24 79  1  0  0  0  0
 25 80  1  0  0  0  0
 26 60  2  0  0  0  0
 27 61  1  0  0  0  0
 27 64  1  0  0  0  0
 28 65  1  0  0  0  0
 28 72  2  0  0  0  0
 29 44  1  0  0  0  0
 29 67  1  0  0  0  0
 29 73  2  0  0  0  0
 30 57  1  0  0  0  0
 30 62  1  0  0  0  0
 30 74  2  0  0  0  0
 31 58  1  0  0  0  0
 31 68  1  0  0  0  0
 31 75  2  0  0  0  0
 32 63  1  0  0  0  0
 32 69  1  0  0  0  0
 32 76  2  0  0  0  0
 33 36  1  0  0  0  0
 34 44  1  0  0  0  0
 35 62  1  0  0  0  0
 36 38  1  0  0  0  0
 37 39  1  0  0  0  0
 37 41  1  0  0  0  0
 38 43  1  0  0  0  0
 39 46  1  0  0  0  0
 40 45  1  0  0  0  0
 40 47  1  0  0  0  0
 41 63  1  0  0  0  0
 42 46  1  0  0  0  0
 42 63  1  0  0  0  0
 43 67  1  0  0  0  0
 44 62  1  0  0  0  0
 45 48  1  0  0  0  0
 45 54  1  0  0  0  0
 46 61  1  0  0  0  0
 47 48  1  0  0  0  0
 47 66  1  0  0  0  0
 48 70  1  0  0  0  0
 49 58  1  0  0  0  0
 50 59  1  0  0  0  0
 51 59  1  0  0  0  0
 52 59  1  0  0  0  0
 53 71  1  0  0  0  0
 54 78  1  0  0  0  0
 55 56  1  0  0  0  0
 55 69  1  0  0  0  0
 56 70  1  0  0  0  0
 57 59  1  0  0  0  0
 57 68  1  0  0  0  0
 58 71  1  0  0  0  0
 60 61  1  0  0  0  0
M  CHG  2  70   1  71   1
M  ISO  4  32 100  54 101  69 100  78 101
M  END
> <Batch ID>
0196

> <Smiles>
CNC(C)C(=O)NC(C(=O)N1Cc2cc([101O:1][101CH2:1]C3CC(N)C3NCC[100NH:0][100C:0](=O)N3CCCC(n4nc(-c5ccc(Oc6ccc(F)cc6F)cc5)c(C(N)=O)c4N)C3)ccc2CC1C(=O)NC1CCCc2ccccc21)C(C)(C)C

> <Shape>
0.212

> <Color>
0.065

> <Negative vol penalty>
0.000

$$$$

  -OEChem-04052323393D

 87 96  0     1  0  0  0  0  0999 V2000
  -24.1389  -20.0812   14.4122 C   0  0  0  0  0  0  0  0  0  0  0  0
  -24.8562  -21.1681   14.9016 C   0  0  0  0  0  0  0  0  0  0  0  0
  -28.1132  -14.8400   19.2214 C   0  0  0  0  0  0  0  0  0  0  0  0
  -27.3751  -15.2253   21.4894 C   0  0  0  0  0  0  0  0  0  0  0  0
  -22.7632  -20.0027   14.6245 C   0  0  0  0  0  0  0  0  0  0  0  0
  -24.1979  -22.1778   15.6027 C   0  0  0  0  0  0  0  0  0  0  0  0
  -26.6867  -23.5798   19.7843 C   0  0  0  0  0  0  0  0  0  0  0  0
  -27.5218  -13.5769   19.2435 C   0  0  0  0  0  0  0  0  0  0  0  0
  -26.7836  -13.9623   21.5115 C   0  0  0  0  0  0  0  0  0  0  0  0
  -27.7859  -24.4212   19.6190 C   0  0  0  0  0  0  0  0  0  0  0  0
  -23.9530  -12.5187   20.3608 C   0  0  0  0  0  0  0  0  0  0  0  0
  -22.6664  -12.4164   20.8897 C   0  0  0  0  0  0  0  0  0  0  0  0
  -26.4242  -26.3126   20.2415 C   0  0  0  0  0  0  0  0  0  0  0  0
  -23.4790  -10.8819   22.5696 C   0  0  0  0  0  0  0  0  0  0  0  0
  -28.0399  -15.6642   20.3444 C   0  0  0  0  0  0  0  0  0  0  0  0
  -28.0554  -18.1801   19.9228 C   0  0  0  0  0  0  0  0  0  0  0  0
  -22.0892  -21.0071   15.3369 C   0  0  0  0  0  0  0  0  0  0  0  0
  -25.4431  -24.1008   20.1695 C   0  0  0  0  0  0  0  0  0  0  0  0
  -22.8116  -22.1133   15.8236 C   0  0  0  0  0  0  0  0  0  0  0  0
  -25.3113  -25.4753   20.4135 C   0  0  0  0  0  0  0  0  0  0  0  0
  -26.8570  -13.1381   20.3885 C   0  0  0  0  0  0  0  0  0  0  0  0
  -27.6541  -25.7882   19.8448 C   0  0  0  0  0  0  0  0  0  0  0  0
  -25.0026  -11.8025   20.9362 C   0  0  0  0  0  0  0  0  0  0  0  0
  -22.4294  -11.5981   21.9941 C   0  0  0  0  0  0  0  0  0  0  0  0
  -24.7656  -10.9842   22.0406 C   0  0  0  0  0  0  0  0  0  0  0  0
  -28.6512  -16.9688   20.3223 C   0  0  0  0  0  0  0  0  0  0  0  0
  -29.0442  -19.1193   20.0859 C   0  0  0  0  0  0  0  0  0  0  0  0
  -26.7269  -18.4336   19.4469 C   0  0  0  0  0  0  0  0  0  0  0  0
  -22.5541  -24.2189   18.8490 C   0  0  0  0  0  0  0  0  0  0  0  0
  -21.7182  -25.4669   21.7241 C   0  0  0  0  0  0  0  0  0  0  0  0
  -23.1054  -27.8272   24.0740 C   0  0  0  0  0  0  0  0  0  0  0  0
  -33.0670  -21.1081   23.5818 C   0  0  0  0  0  0  0  0  0  0  0  0
  -20.5936  -20.9022   15.5005 C   0  0  0  0  0  0  0  0  0  0  0  0
  -24.2737  -23.1761   20.3694 C   0  0  0  0  0  0  0  0  0  0  0  0
  -24.0030  -26.0817   20.8484 C   0  0  0  0  0  0  0  0  0  0  0  0
  -20.0322  -21.8273   16.5771 C   0  0  0  0  0  0  0  0  0  0  0  0
  -33.9808  -18.6050   21.0050 C   0  0  0  0  0  0  0  0  0  0  0  0
  -20.6142  -23.2299   16.4323 C   0  0  0  0  0  0  0  0  0  0  0  0
  -32.6255  -18.0094   20.6282 C   0  0  0  0  0  0  0  0  0  0  0  0
  -32.0729  -24.1346   24.9560 C   0  0  0  0  0  0  0  0  0  0  0  0
  -31.3427  -23.9989   22.5414 C   0  0  0  0  0  0  0  0  0  0  0  0
  -30.6088  -28.0290   23.8572 C   0  0  0  0  0  0  0  0  0  0  0  0
  -33.9919  -19.1259   22.4386 C   0  0  0  0  0  0  0  0  0  0  0  0
  -31.8207  -22.6346   25.0824 C   0  0  0  0  0  0  0  0  0  0  0  0
  -31.1297  -22.4915   22.7089 C   0  0  0  0  0  0  0  0  0  0  0  0
  -31.5484  -19.5062   22.3549 C   0  0  0  0  0  0  0  0  0  0  0  0
  -31.1196  -26.9734   24.8499 C   0  0  0  0  0  0  0  0  0  0  0  0
  -22.1372  -23.2162   16.6104 C   0  0  1  0  0  0  0  0  0  0  0  0
  -22.9268  -23.8851   20.2658 C   0  0  1  0  0  0  0  0  0  0  0  0
  -31.4917  -19.0125   20.9013 C   0  0  2  0  0  0  0  0  0  0  0  0
  -31.1763  -24.7295   23.8721 C   0  0  0  0  0  0  0  0  0  0  0  0
  -30.5266  -26.8654   22.8470 C   0  0  1  0  0  0  0  0  0  0  0  0
  -30.9287  -31.4003   16.9369 C   0  0  0  0  0  0  0  0  0  0  0  0
  -22.8050  -28.0251   26.5575 C   0  0  0  0  0  0  0  0  0  0  0  0
  -19.5049  -27.4411   21.0074 C   0  0  0  0  0  0  0  0  0  0  0  0
  -20.2120  -28.8363   22.9623 C   0  0  0  0  0  0  0  0  0  0  0  0
  -19.3679  -26.5175   23.3274 C   0  0  0  0  0  0  0  0  0  0  0  0
  -26.0237  -27.7116   24.5530 C   0  0  0  0  0  0  0  0  0  0  0  0
  -31.0364  -27.1375   21.4464 C   0  0  0  0  0  0  0  0  0  0  0  0
  -31.2101  -30.0267   17.5241 C   0  0  0  0  0  0  0  0  0  0  0  0
  -30.4901  -29.8372   18.8496 C   0  0  0  0  0  0  0  0  0  0  0  0
  -28.7726  -27.7829   20.4979 C   0  0  0  0  0  0  0  0  0  1  0  0
  -21.6568  -26.8573   22.3090 C   0  0  1  0  0  0  0  0  0  0  0  0
  -23.6959  -27.5126   25.4366 C   0  0  2  0  0  0  0  0  0  0  0  0
  -30.2164  -28.2210   20.7343 C   0  0  2  0  0  0  0  0  0  0  0  0
  -20.2040  -27.4063   22.3810 C   0  0  0  0  0  0  0  0  0  0  0  0
  -29.9202  -17.1216   20.7099 N   0  0  0  0  0  0  0  0  0  0  0  0
  -30.1299  -18.4399   20.5546 N   0  0  0  0  0  0  0  0  0  0  0  0
  -22.8874  -25.1372   21.0240 N   0  0  0  0  0  0  0  0  0  0  0  0
  -32.8777  -20.0406   22.6882 N   0  0  0  0  0  0  0  0  0  0  0  0
  -31.9739  -21.9627   23.7905 N   0  0  0  0  0  0  0  0  0  0  0  0
  -29.0821  -20.4518   19.8726 N   0  0  0  0  0  0  0  0  0  0  0  0
  -25.8382  -17.3550   19.3401 N   0  0  0  0  0  0  0  0  0  0  0  0
  -22.4813  -23.1212   18.0129 N   0  0  0  0  0  0  0  0  0  0  0  0
  -22.3340  -26.7876   23.5993 N   0  0  0  0  0  0  0  0  0  0  0  0
  -31.5231  -26.1563   23.6872 N   0  3  1  0  0  0  0  0  0  0  0  0
  -25.0386  -28.1438   25.5776 N   0  3  0  0  0  0  0  0  0  0  0  0
  -30.8321  -28.5031   19.4020 N   0  3  0  0  0  0  0  0  0  0  0  0
  -26.3444  -19.5798   19.1102 O   0  0  0  0  0  0  0  0  0  0  0  0
  -22.3465  -25.3859   18.5378 O   0  0  0  0  0  0  0  0  0  0  0  0
  -20.7668  -24.6991   21.8887 O   0  0  0  0  0  0  0  0  0  0  0  0
  -23.3053  -28.8904   23.4907 O   0  0  0  0  0  0  0  0  0  0  0  0
  -34.1485  -21.2866   24.1560 O   0  0  0  0  0  0  0  0  0  0  0  0
  -26.2796  -11.9057   20.4104 O   0  0  0  0  0  0  0  0  0  0  0  0
  -28.7325  -26.6174   19.6825 O   0  0  0  0  0  0  0  0  0  1  0  0
  -21.1941  -11.5012   22.5028 F   0  0  0  0  0  0  0  0  0  0  0  0
  -25.7702  -10.2946   22.5984 F   0  0  0  0  0  0  0  0  0  0  0  0
  1  2  1  0  0  0  0
  1  5  2  0  0  0  0
  2  6  2  0  0  0  0
  3  8  2  0  0  0  0
  3 15  1  0  0  0  0
  4  9  1  0  0  0  0
  4 15  2  0  0  0  0
  5 17  1  0  0  0  0
  6 19  1  0  0  0  0
  7 10  2  0  0  0  0
  7 18  1  0  0  0  0
  8 21  1  0  0  0  0
  9 21  2  0  0  0  0
 10 22  1  0  0  0  0
 11 12  2  0  0  0  0
 11 23  1  0  0  0  0
 12 24  1  0  0  0  0
 13 20  1  0  0  0  0
 13 22  2  0  0  0  0
 14 24  2  0  0  0  0
 14 25  1  0  0  0  0
 15 26  1  0  0  0  0
 16 26  1  0  0  0  0
 16 27  2  0  0  0  0
 16 28  1  0  0  0  0
 17 19  2  0  0  0  0
 17 33  1  0  0  0  0
 18 20  2  0  0  0  0
 18 34  1  0  0  0  0
 19 48  1  0  0  0  0
 20 35  1  0  0  0  0
 21 84  1  0  0  0  0
 22 85  1  0  0  0  0
 23 25  2  0  0  0  0
 23 84  1  0  0  0  0
 24 86  1  0  0  0  0
 25 87  1  0  0  0  0
 26 67  2  0  0  0  0
 27 68  1  0  0  0  0
 27 72  1  0  0  0  0
 28 73  1  0  0  0  0
 28 79  2  0  0  0  0
 29 49  1  0  0  0  0
 29 74  1  0  0  0  0
 29 80  2  0  0  0  0
 30 63  1  0  0  0  0
 30 69  1  0  0  0  0
 30 81  2  0  0  0  0
 31 64  1  0  0  0  0
 31 75  1  0  0  0  0
 31 82  2  0  0  0  0
 32 70  1  0  0  0  0
 32 71  1  0  0  0  0
 32 83  2  0  0  0  0
 33 36  1  0  0  0  0
 34 49  1  0  0  0  0
 35 69  1  0  0  0  0
 36 38  1  0  0  0  0
 37 39  1  0  0  0  0
 37 43  1  0  0  0  0
 38 48  1  0  0  0  0
 39 50  1  0  0  0  0
 40 44  1  0  0  0  0
 40 51  1  0  0  0  0
 41 45  1  0  0  0  0
 41 51  1  0  0  0  0
 42 47  1  0  0  0  0
 42 52  1  0  0  0  0
 43 70  1  0  0  0  0
 44 71  1  0  0  0  0
 45 71  1  0  0  0  0
 46 50  1  0  0  0  0
 46 70  1  0  0  0  0
 47 76  1  0  0  0  0
 48 74  1  0  0  0  0
 49 69  1  0  0  0  0
 50 68  1  0  0  0  0
 51 76  1  0  0  0  0
 52 59  1  0  0  0  0
 52 76  1  0  0  0  0
 53 60  1  0  0  0  0
 54 64  1  0  0  0  0
 55 66  1  0  0  0  0
 56 66  1  0  0  0  0
 57 66  1  0  0  0  0
 58 77  1  0  0  0  0
 59 65  1  0  0  0  0
 60 61  1  0  0  0  0
 61 78  1  0  0  0  0
 62 65  1  0  0  0  0
 62 85  1  0  0  0  0
 63 66  1  0  0  0  0
 63 75  1  0  0  0  0
 64 77  1  0  0  0  0
 65 78  1  0  0  0  0
 67 68  1  0  0  0  0
M  CHG  3  76   1  77   1  78   1
M  ISO  4  32 100  62 101  71 100  85 101
M  END
> <Batch ID>
0196

> <Smiles>
CCCNC(CC1CCN1C1CC[100N:0]([100C:0](=O)N2CCCC(n3nc(-c4ccc(Oc5ccc(F)cc5F)cc4)c(C(N)=O)c3N)C2)CC1)[101CH2:1][101O:1]c1ccc2c(c1)CN(C(=O)C(NC(=O)C(C)NC)C(C)(C)C)C(C(=O)NC1CCCc3ccccc31)C2

> <Shape>
0.171

> <Color>
0.070

> <Negative vol penalty>
0.000

$$$$

  -OEChem-04052323393D

 92101  0     1  0  0  0  0  0999 V2000
  -21.1769  -21.2745   20.4896 C   0  0  0  0  0  0  0  0  0  0  0  0
  -22.3734  -21.4914   21.1656 C   0  0  0  0  0  0  0  0  0  0  0  0
  -23.0791   -9.8325   19.9760 C   0  0  0  0  0  0  0  0  0  0  0  0
  -23.8131   -9.9078   22.2766 C   0  0  0  0  0  0  0  0  0  0  0  0
  -20.5355  -22.3357   19.8522 C   0  0  0  0  0  0  0  0  0  0  0  0
  -22.9297  -22.7695   21.2035 C   0  0  0  0  0  0  0  0  0  0  0  0
  -24.5648  -24.0401   25.8248 C   0  0  0  0  0  0  0  0  0  0  0  0
  -22.3287   -8.6897   20.2528 C   0  0  0  0  0  0  0  0  0  0  0  0
  -23.0627   -8.7650   22.5534 C   0  0  0  0  0  0  0  0  0  0  0  0
  -25.7840  -23.5050   26.2383 C   0  0  0  0  0  0  0  0  0  0  0  0
  -19.8254   -7.9955   23.1434 C   0  0  0  0  0  0  0  0  0  0  0  0
  -19.0552   -7.9937   24.3063 C   0  0  0  0  0  0  0  0  0  0  0  0
  -26.8770  -25.5828   25.6840 C   0  0  0  0  0  0  0  0  0  0  0  0
  -20.2819   -6.0763   25.1160 C   0  0  0  0  0  0  0  0  0  0  0  0
  -30.7950  -21.9555   25.0990 C   0  0  0  0  0  0  0  0  0  0  0  0
  -23.8213  -10.4415   20.9879 C   0  0  0  0  0  0  0  0  0  0  0  0
  -24.1727  -12.9608   20.7942 C   0  0  0  0  0  0  0  0  0  0  0  0
  -21.0792  -23.6294   19.8905 C   0  0  0  0  0  0  0  0  0  0  0  0
  -24.4943  -25.3491   25.3268 C   0  0  0  0  0  0  0  0  0  0  0  0
  -22.2956  -23.8487   20.5648 C   0  0  0  0  0  0  0  0  0  0  0  0
  -25.6553  -26.1331   25.2672 C   0  0  0  0  0  0  0  0  0  0  0  0
  -30.3871  -21.8177   23.7879 C   0  0  0  0  0  0  0  0  0  0  0  0
  -22.3205   -8.1560   21.5415 C   0  0  0  0  0  0  0  0  0  0  0  0
  -26.9408  -24.2754   26.1652 C   0  0  0  0  0  0  0  0  0  0  0  0
  -20.8238   -7.0375   22.9667 C   0  0  0  0  0  0  0  0  0  0  0  0
  -19.2834   -7.0342   25.2926 C   0  0  0  0  0  0  0  0  0  0  0  0
  -21.0521   -6.0780   23.9530 C   0  0  0  0  0  0  0  0  0  0  0  0
  -24.5971  -11.6217   20.7024 C   0  0  0  0  0  0  0  0  0  0  0  0
  -29.1648  -22.3796   23.4807 C   0  0  0  0  0  0  0  0  0  0  0  0
  -25.2713  -13.6956   20.4205 C   0  0  0  0  0  0  0  0  0  0  0  0
  -28.8994  -23.0960   25.6216 C   0  0  0  0  0  0  0  0  0  1  0  0
  -22.8992  -13.4929   21.1827 C   0  0  0  0  0  0  0  0  0  0  0  0
  -23.6634  -26.6502   22.5482 C   0  0  0  0  0  0  0  0  0  0  0  0
  -24.0477  -29.4282   24.1782 C   0  0  0  0  0  0  0  0  0  0  0  0
  -25.5014  -31.0791   26.7875 C   0  0  0  0  0  0  0  0  0  0  0  0
  -30.7558  -14.7041   20.6398 C   0  0  0  0  0  0  0  0  0  0  0  0
  -20.3739  -24.7356   19.1465 C   0  0  0  0  0  0  0  0  0  0  0  0
  -23.1670  -25.9208   24.9098 C   0  0  0  0  0  0  0  0  0  0  0  0
  -25.6297  -27.5507   24.7593 C   0  0  0  0  0  0  0  0  0  0  0  0
  -20.8363  -26.1330   19.5512 C   0  0  0  0  0  0  0  0  0  0  0  0
  -29.6375  -12.2506   18.3146 C   0  0  0  0  0  0  0  0  0  0  0  0
  -22.3595  -26.1972   19.6025 C   0  0  0  0  0  0  0  0  0  0  0  0
  -28.1943  -11.9745   18.7400 C   0  0  0  0  0  0  0  0  0  0  0  0
  -30.5619  -17.9535   20.7378 C   0  0  0  0  0  0  0  0  0  0  0  0
  -30.5417  -12.5056   19.5185 C   0  0  0  0  0  0  0  0  0  0  0  0
  -28.6268  -13.2844   20.8603 C   0  0  0  0  0  0  0  0  0  0  0  0
  -31.2119  -19.2820   21.0942 C   0  0  0  0  0  0  0  0  0  0  0  0
  -31.0277  -18.7329   23.5321 C   0  0  0  0  0  0  0  0  0  0  0  0
  -22.9177  -25.2256   20.6494 C   0  0  1  0  0  0  0  0  0  0  0  0
  -23.2984  -27.0894   23.9380 C   0  0  1  0  0  0  0  0  0  0  0  0
  -30.3728  -17.3871   23.2013 C   0  0  1  0  0  0  0  0  0  0  0  0
  -27.6655  -13.0766   19.6776 C   0  0  2  0  0  0  0  0  0  0  0  0
  -30.8147  -16.8914   21.8107 C   0  0  1  0  0  0  0  0  0  0  0  0
  -27.5284  -21.2351   21.9645 C   0  0  0  0  0  0  0  0  0  0  0  0
  -25.6561  -33.3520   27.8397 C   0  0  0  0  0  0  0  0  0  0  0  0
  -25.9330  -30.3271   21.9538 C   0  0  0  0  0  0  0  0  0  0  0  0
  -26.7689  -32.1241   23.4836 C   0  0  0  0  0  0  0  0  0  0  0  0
  -24.3754  -32.1002   22.7812 C   0  0  0  0  0  0  0  0  0  0  0  0
  -29.6854  -15.8948   30.3740 C   0  0  0  0  0  0  0  0  0  0  0  0
  -24.3414  -30.1080   29.3311 C   0  0  0  0  0  0  0  0  0  0  0  0
  -31.2275  -21.1050   22.7918 C   0  0  0  0  0  0  0  0  0  0  0  0
  -28.6218  -22.2916   22.0927 C   0  0  0  0  0  0  0  0  0  0  0  0
  -30.7084  -16.3747   24.3004 C   0  0  0  0  0  0  0  0  0  0  0  0
  -30.5262  -15.9249   26.6520 C   0  0  0  0  0  0  0  0  0  0  0  0
  -29.9386  -16.4442   27.9506 C   0  0  0  0  0  0  0  0  0  0  0  0
  -25.2008  -30.3697   24.4293 C   0  0  1  0  0  0  0  0  0  0  0  0
  -24.9253  -32.0183   27.8317 C   0  0  2  0  0  0  0  0  0  0  0  0
  -25.5706  -31.2029   23.1698 C   0  0  0  0  0  0  0  0  0  0  0  0
  -30.0736  -22.5909   26.0456 N   0  0  0  0  0  0  0  0  0  0  0  0
  -25.8663  -11.5094   20.3017 N   0  0  0  0  0  0  0  0  0  0  0  0
  -28.3917  -23.0284   24.3761 N   0  0  0  0  0  0  0  0  0  0  0  0
  -26.2488  -12.7873   20.1383 N   0  0  0  0  0  0  0  0  0  0  0  0
  -24.3090  -28.0624   24.3575 N   0  0  0  0  0  0  0  0  0  0  0  0
  -29.9845  -13.5625   20.3662 N   0  0  0  0  0  0  0  0  0  0  0  0
  -25.4868  -15.0236   20.3091 N   0  0  0  0  0  0  0  0  0  0  0  0
  -21.8806  -12.5975   21.5362 N   0  0  0  0  0  0  0  0  0  0  0  0
  -22.7605  -25.7717   21.9804 N   0  0  0  0  0  0  0  0  0  0  0  0
  -24.8270  -31.1729   25.5885 N   0  0  0  0  0  0  0  0  0  0  0  0
  -30.1502  -15.6601   21.4461 N   0  0  0  0  0  0  0  0  0  0  0  0
  -30.2226  -16.8486   25.5508 N   0  0  0  0  0  0  0  0  0  0  0  0
  -30.7216  -19.7447   22.4480 N   0  3  1  0  0  0  0  0  0  0  0  0
  -30.2061  -15.4773   29.0438 N   0  3  0  0  0  0  0  0  0  0  0  0
  -25.0355  -31.4138   29.1893 N   0  3  0  0  0  0  0  0  0  0  0  0
  -22.6663  -14.7254   21.1995 O   0  0  0  0  0  0  0  0  0  0  0  0
  -24.6877  -27.0779   22.0288 O   0  0  0  0  0  0  0  0  0  0  0  0
  -22.9535  -29.8882   23.8425 O   0  0  0  0  0  0  0  0  0  0  0  0
  -26.4567  -30.3391   27.0118 O   0  0  0  0  0  0  0  0  0  0  0  0
  -31.8974  -14.8622   20.1940 O   0  0  0  0  0  0  0  0  0  0  0  0
  -21.5882   -7.0411   21.8120 O   0  0  0  0  0  0  0  0  0  0  0  0
  -28.1323  -23.7553   26.5675 O   0  0  0  0  0  0  0  0  0  1  0  0
  -18.5447   -7.0336   26.4100 F   0  0  0  0  0  0  0  0  0  0  0  0
  -22.0107   -5.1559   23.7894 F   0  0  0  0  0  0  0  0  0  0  0  0
  1  2  1  0  0  0  0
  1  5  2  0  0  0  0
  2  6  2  0  0  0  0
  3  8  2  0  0  0  0
  3 16  1  0  0  0  0
  4  9  1  0  0  0  0
  4 16  2  0  0  0  0
  5 18  1  0  0  0  0
  6 20  1  0  0  0  0
  7 10  2  0  0  0  0
  7 19  1  0  0  0  0
  8 23  1  0  0  0  0
  9 23  2  0  0  0  0
 10 24  1  0  0  0  0
 11 12  2  0  0  0  0
 11 25  1  0  0  0  0
 12 26  1  0  0  0  0
 13 21  1  0  0  0  0
 13 24  2  0  0  0  0
 14 26  2  0  0  0  0
 14 27  1  0  0  0  0
 15 22  1  0  0  0  0
 15 69  2  0  0  0  0
 16 28  1  0  0  0  0
 17 28  1  0  0  0  0
 17 30  2  0  0  0  0
 17 32  1  0  0  0  0
 18 20  2  0  0  0  0
 18 37  1  0  0  0  0
 19 21  2  0  0  0  0
 19 38  1  0  0  0  0
 20 49  1  0  0  0  0
 21 39  1  0  0  0  0
 22 29  2  0  0  0  0
 22 61  1  0  0  0  0
 23 89  1  0  0  0  0
 24 90  1  0  0  0  0
 25 27  2  0  0  0  0
 25 89  1  0  0  0  0
 26 91  1  0  0  0  0
 27 92  1  0  0  0  0
 28 70  2  0  0  0  0
 29 62  1  0  0  0  0
 29 71  1  0  0  0  0
 30 72  1  0  0  0  0
 30 75  1  0  0  0  0
 31 69  1  0  0  0  0
 31 71  2  0  0  0  0
 31 90  1  0  0  0  0
 32 76  1  0  0  0  0
 32 84  2  0  0  0  0
 33 50  1  0  0  0  0
 33 77  1  0  0  0  0
 33 85  2  0  0  0  0
 34 66  1  0  0  0  0
 34 73  1  0  0  0  0
 34 86  2  0  0  0  0
 35 67  1  0  0  0  0
 35 78  1  0  0  0  0
 35 87  2  0  0  0  0
 36 74  1  0  0  0  0
 36 79  1  0  0  0  0
 36 88  2  0  0  0  0
 37 40  1  0  0  0  0
 38 50  1  0  0  0  0
 39 73  1  0  0  0  0
 40 42  1  0  0  0  0
 41 43  1  0  0  0  0
 41 45  1  0  0  0  0
 42 49  1  0  0  0  0
 43 52  1  0  0  0  0
 44 47  1  0  0  0  0
 44 53  1  0  0  0  0
 45 74  1  0  0  0  0
 46 52  1  0  0  0  0
 46 74  1  0  0  0  0
 47 81  1  0  0  0  0
 48 51  1  0  0  0  0
 48 81  1  0  0  0  0
 49 77  1  0  0  0  0
 50 73  1  0  0  0  0
 51 53  1  0  0  0  0
 51 63  1  0  0  0  0
 52 72  1  0  0  0  0
 53 79  1  0  0  0  0
 54 62  1  0  0  0  0
 55 67  1  0  0  0  0
 56 68  1  0  0  0  0
 57 68  1  0  0  0  0
 58 68  1  0  0  0  0
 59 82  1  0  0  0  0
 60 83  1  0  0  0  0
 61 81  1  0  0  0  0
 63 80  1  0  0  0  0
 64 65  1  0  0  0  0
 64 80  1  0  0  0  0
 65 82  1  0  0  0  0
 66 68  1  0  0  0  0
 66 78  1  0  0  0  0
 67 83  1  0  0  0  0
 70 72  1  0  0  0  0
M  CHG  3  81   1  82   1  83   1
M  ISO  4  31 101  36 100  79 100  90 101
M  END
> <Batch ID>
0196

> <Smiles>
CCc1n[101c:1]([101O:1]c2ccc3c(c2)CN(C(=O)C(NC(=O)C(C)NC)C(C)(C)C)C(C(=O)NC2CCCc4ccccc42)C3)ncc1CN1CCC([100NH:0][100C:0](=O)N2CCCC(n3nc(-c4ccc(Oc5ccc(F)cc5F)cc4)c(C(N)=O)c3N)C2)C(CNCCNC)C1

> <Shape>
0.242

> <Color>
0.167

> <Negative vol penalty>
0.000

$$$$

  -OEChem-04052323393D

 83 92  0     1  0  0  0  0  0999 V2000
  -27.6514  -37.2769   21.6546 C   0  0  0  0  0  0  0  0  0  0  0  0
  -27.9940  -35.9304   21.7249 C   0  0  0  0  0  0  0  0  0  0  0  0
  -23.4650   -9.8646   22.0421 C   0  0  0  0  0  0  0  0  0  0  0  0
  -24.5063   -8.7681   20.1578 C   0  0  0  0  0  0  0  0  0  0  0  0
  -26.4270  -37.7108   22.1612 C   0  0  0  0  0  0  0  0  0  0  0  0
  -27.1129  -35.0171   22.3028 C   0  0  0  0  0  0  0  0  0  0  0  0
  -26.6424  -30.7776   19.5733 C   0  0  0  0  0  0  0  0  0  0  0  0
  -22.5573   -8.8113   22.1534 C   0  0  0  0  0  0  0  0  0  0  0  0
  -23.5987   -7.7148   20.2692 C   0  0  0  0  0  0  0  0  0  0  0  0
  -27.6687  -29.8392   19.6726 C   0  0  0  0  0  0  0  0  0  0  0  0
  -22.5313   -5.6662   23.3947 C   0  0  0  0  0  0  0  0  0  0  0  0
  -22.2807   -5.1585   24.6694 C   0  0  0  0  0  0  0  0  0  0  0  0
  -26.3349  -28.5528   21.2170 C   0  0  0  0  0  0  0  0  0  0  0  0
  -19.9444   -5.7289   24.4372 C   0  0  0  0  0  0  0  0  0  0  0  0
  -24.4394   -9.8430   21.0442 C   0  0  0  0  0  0  0  0  0  0  0  0
  -26.6317  -11.0426   21.5567 C   0  0  0  0  0  0  0  0  0  0  0  0
  -25.5263  -36.8009   22.7369 C   0  0  0  0  0  0  0  0  0  0  0  0
  -25.4570  -30.6160   20.3047 C   0  0  0  0  0  0  0  0  0  0  0  0
  -25.8759  -35.4395   22.8187 C   0  0  0  0  0  0  0  0  0  0  0  0
  -25.2941  -29.4892   21.1233 C   0  0  0  0  0  0  0  0  0  0  0  0
  -22.6242   -7.7364   21.2670 C   0  0  0  0  0  0  0  0  0  0  0  0
  -27.5163  -28.7281   20.4967 C   0  0  0  0  0  0  0  0  0  0  0  0
  -21.4885   -6.2054   22.6412 C   0  0  0  0  0  0  0  0  0  0  0  0
  -20.9872   -5.1898   25.1907 C   0  0  0  0  0  0  0  0  0  0  0  0
  -20.1951   -6.2366   23.1624 C   0  0  0  0  0  0  0  0  0  0  0  0
  -25.3769  -10.9311   20.9284 C   0  0  0  0  0  0  0  0  0  0  0  0
  -27.1254  -12.2497   21.1260 C   0  0  0  0  0  0  0  0  0  0  0  0
  -27.2921  -10.1359   22.4498 C   0  0  0  0  0  0  0  0  0  0  0  0
  -23.9750  -32.2807   22.5711 C   0  0  0  0  0  0  0  0  0  0  0  0
  -21.6509  -30.0596   22.1382 C   0  0  0  0  0  0  0  0  0  0  0  0
  -20.7992  -26.9214   21.1021 C   0  0  0  0  0  0  0  0  0  0  0  0
  -28.1140  -15.7020   16.9158 C   0  0  0  0  0  0  0  0  0  0  0  0
  -24.2348  -37.3243   23.3136 C   0  0  0  0  0  0  0  0  0  0  0  0
  -24.3487  -31.6234   20.1660 C   0  0  0  0  0  0  0  0  0  0  0  0
  -24.0329  -29.2589   21.9137 C   0  0  0  0  0  0  0  0  0  0  0  0
  -23.1973  -36.2348   23.5721 C   0  0  0  0  0  0  0  0  0  0  0  0
  -24.8820  -16.0234   18.6174 C   0  0  0  0  0  0  0  0  0  0  0  0
  -23.8377  -35.0451   24.2802 C   0  0  0  0  0  0  0  0  0  0  0  0
  -24.8244  -14.7170   19.4106 C   0  0  0  0  0  0  0  0  0  0  0  0
  -25.5914  -15.8209   17.2839 C   0  0  0  0  0  0  0  0  0  0  0  0
  -29.3873  -17.7707   16.1304 C   0  0  0  0  0  0  0  0  0  0  0  0
  -27.6076  -18.2560   17.1896 C   0  0  0  0  0  0  0  0  0  0  0  0
  -26.9176  -13.9542   18.1880 C   0  0  0  0  0  0  0  0  0  0  0  0
  -29.2757  -23.8607   19.3231 C   0  0  0  0  0  0  0  0  0  0  0  0
  -28.2667  -25.1206   17.9969 C   0  0  0  0  0  0  0  0  0  0  0  0
  -24.9362  -34.4145   23.4158 C   0  0  1  0  0  0  0  0  0  0  0  0
  -23.3900  -31.6242   21.3527 C   0  0  1  0  0  0  0  0  0  0  0  0
  -28.9926  -18.9202   17.0734 C   0  0  0  0  0  0  0  0  0  0  0  0
  -28.2138  -23.5964   18.2346 C   0  0  0  0  0  0  0  0  0  0  0  0
  -26.2234  -14.0903   19.5557 C   0  0  2  0  0  0  0  0  0  0  0  0
  -18.8300  -25.3784   20.9058 C   0  0  0  0  0  0  0  0  0  0  0  0
  -21.7608  -29.5409   25.1430 C   0  0  0  0  0  0  0  0  0  0  0  0
  -20.5173  -27.4039   24.7492 C   0  0  0  0  0  0  0  0  0  0  0  0
  -19.4549  -29.5869   24.1760 C   0  0  0  0  0  0  0  0  0  0  0  0
  -21.0797  -26.7496   18.1609 C   0  0  0  0  0  0  0  0  0  0  0  0
  -29.0276  -20.3171   16.4871 C   0  0  0  0  0  0  0  0  0  0  0  0
  -28.6251  -22.7100   17.0795 C   0  0  0  0  0  0  0  0  0  0  0  0
  -29.9104  -26.2235   19.4394 C   0  0  0  0  0  0  0  0  0  0  0  0
  -29.3516  -27.6326   19.4539 C   0  0  0  0  0  0  0  0  0  1  0  0
  -21.3382  -28.7089   22.7357 C   0  0  1  0  0  0  0  0  0  0  0  0
  -19.6799  -26.4262   20.2041 C   0  0  2  0  0  0  0  0  0  0  0  0
  -20.7924  -28.8152   24.1877 C   0  0  0  0  0  0  0  0  0  0  0  0
  -25.0910  -11.9836   20.1573 N   0  0  0  0  0  0  0  0  0  0  0  0
  -26.1732  -12.7679   20.2984 N   0  0  0  0  0  0  0  0  0  0  0  0
  -22.9806  -30.2754   21.7495 N   0  0  0  0  0  0  0  0  0  0  0  0
  -26.9230  -15.2402   17.4827 N   0  0  0  0  0  0  0  0  0  0  0  0
  -28.2408  -17.0502   16.6773 N   0  0  0  0  0  0  0  0  0  0  0  0
  -28.2766  -12.9080   21.3784 N   0  0  0  0  0  0  0  0  0  0  0  0
  -26.6437   -8.9403   22.7882 N   0  0  0  0  0  0  0  0  0  0  0  0
  -24.3526  -33.5954   22.3752 N   0  0  0  0  0  0  0  0  0  0  0  0
  -20.4303  -28.0502   21.8028 N   0  0  0  0  0  0  0  0  0  0  0  0
  -28.7937  -25.2561   19.3702 N   0  3  0  0  0  0  0  0  0  0  0  0
  -20.2407  -25.8221   18.9626 N   0  3  0  0  0  0  0  0  0  0  0  0
  -28.5820  -21.2860   17.5143 N   0  3  0  0  0  0  0  0  0  0  0  0
  -28.4165  -10.3864   22.9464 O   0  0  0  0  0  0  0  0  0  0  0  0
  -24.0749  -31.6422   23.6123 O   0  0  0  0  0  0  0  0  0  0  0  0
  -20.7470  -30.8898   22.0141 O   0  0  0  0  0  0  0  0  0  0  0  0
  -21.8903  -26.3607   21.1774 O   0  0  0  0  0  0  0  0  0  0  0  0
  -29.0532  -14.9374   16.6579 O   0  0  0  0  0  0  0  0  0  0  0  0
  -21.7389   -6.7083   21.3755 O   0  0  0  0  0  0  0  0  0  0  0  0
  -28.5239  -27.8044   20.5967 O   0  0  0  0  0  0  0  0  0  1  0  0
  -20.7464   -4.7008   26.4142 F   0  0  0  0  0  0  0  0  0  0  0  0
  -19.1891   -6.7522   22.4428 F   0  0  0  0  0  0  0  0  0  0  0  0
  1  2  1  0  0  0  0
  1  5  2  0  0  0  0
  2  6  2  0  0  0  0
  3  8  2  0  0  0  0
  3 15  1  0  0  0  0
  4  9  1  0  0  0  0
  4 15  2  0  0  0  0
  5 17  1  0  0  0  0
  6 19  1  0  0  0  0
  7 10  2  0  0  0  0
  7 18  1  0  0  0  0
  8 21  1  0  0  0  0
  9 21  2  0  0  0  0
 10 22  1  0  0  0  0
 11 12  2  0  0  0  0
 11 23  1  0  0  0  0
 12 24  1  0  0  0  0
 13 20  1  0  0  0  0
 13 22  2  0  0  0  0
 14 24  2  0  0  0  0
 14 25  1  0  0  0  0
 15 26  1  0  0  0  0
 16 26  1  0  0  0  0
 16 27  2  0  0  0  0
 16 28  1  0  0  0  0
 17 19  2  0  0  0  0
 17 33  1  0  0  0  0
 18 20  2  0  0  0  0
 18 34  1  0  0  0  0
 19 46  1  0  0  0  0
 20 35  1  0  0  0  0
 21 80  1  0  0  0  0
 22 81  1  0  0  0  0
 23 25  2  0  0  0  0
 23 80  1  0  0  0  0
 24 82  1  0  0  0  0
 25 83  1  0  0  0  0
 26 63  2  0  0  0  0
 27 64  1  0  0  0  0
 27 68  1  0  0  0  0
 28 69  1  0  0  0  0
 28 75  2  0  0  0  0
 29 47  1  0  0  0  0
 29 70  1  0  0  0  0
 29 76  2  0  0  0  0
 30 60  1  0  0  0  0
 30 65  1  0  0  0  0
 30 77  2  0  0  0  0
 31 61  1  0  0  0  0
 31 71  1  0  0  0  0
 31 78  2  0  0  0  0
 32 66  1  0  0  0  0
 32 67  1  0  0  0  0
 32 79  2  0  0  0  0
 33 36  1  0  0  0  0
 34 47  1  0  0  0  0
 35 65  1  0  0  0  0
 36 38  1  0  0  0  0
 37 39  1  0  0  0  0
 37 40  1  0  0  0  0
 38 46  1  0  0  0  0
 39 50  1  0  0  0  0
 40 66  1  0  0  0  0
 41 48  1  0  0  0  0
 41 67  1  0  0  0  0
 42 48  1  0  0  0  0
 42 67  1  0  0  0  0
 43 50  1  0  0  0  0
 43 66  1  0  0  0  0
 44 49  1  0  0  0  0
 44 72  1  0  0  0  0
 45 49  1  0  0  0  0
 45 72  1  0  0  0  0
 46 70  1  0  0  0  0
 47 65  1  0  0  0  0
 48 56  1  0  0  0  0
 49 57  1  0  0  0  0
 50 64  1  0  0  0  0
 51 61  1  0  0  0  0
 52 62  1  0  0  0  0
 53 62  1  0  0  0  0
 54 62  1  0  0  0  0
 55 73  1  0  0  0  0
 56 74  1  0  0  0  0
 57 74  1  0  0  0  0
 58 59  1  0  0  0  0
 58 72  1  0  0  0  0
 59 81  1  0  0  0  0
 60 62  1  0  0  0  0
 60 71  1  0  0  0  0
 61 73  1  0  0  0  0
 63 64  1  0  0  0  0
M  CHG  3  72   1  73   1  74   1
M  ISO  4  32 100  59 101  67 100  81 101
M  END
> <Batch ID>
0196

> <Smiles>
CNC(C)C(=O)NC(C(=O)N1Cc2cc([101O:1][101CH2:1]CN3CC(CNCC4C[100N:0]([100C:0](=O)N5CCCC(n6nc(-c7ccc(Oc8ccc(F)cc8F)cc7)c(C(N)=O)c6N)C5)C4)C3)ccc2CC1C(=O)NC1CCCc2ccccc21)C(C)(C)C

> <Shape>
0.296

> <Color>
0.086

> <Negative vol penalty>
0.000

$$$$

  -OEChem-04052323393D

 92102  0     1  0  0  0  0  0999 V2000
  -28.2997  -25.0366   15.2116 C   0  0  0  0  0  0  0  0  0  0  0  0
  -28.0793  -23.6631   15.2206 C   0  0  0  0  0  0  0  0  0  0  0  0
  -22.2322  -29.2766   23.0222 C   0  0  0  0  0  0  0  0  0  0  0  0
  -21.8068  -30.7649   21.1671 C   0  0  0  0  0  0  0  0  0  0  0  0
  -29.0110  -25.6342   16.2513 C   0  0  0  0  0  0  0  0  0  0  0  0
  -28.5709  -22.8860   16.2689 C   0  0  0  0  0  0  0  0  0  0  0  0
  -25.9486  -17.9221   18.7163 C   0  0  0  0  0  0  0  0  0  0  0  0
  -22.7264  -30.3469   23.7676 C   0  0  0  0  0  0  0  0  0  0  0  0
  -22.3010  -31.8353   21.9126 C   0  0  0  0  0  0  0  0  0  0  0  0
  -26.1581  -16.5577   18.5205 C   0  0  0  0  0  0  0  0  0  0  0  0
  -25.5885  -32.1342   23.9637 C   0  0  0  0  0  0  0  0  0  0  0  0
  -26.7746  -31.9375   24.6709 C   0  0  0  0  0  0  0  0  0  0  0  0
  -27.6154  -16.5119   20.4423 C   0  0  0  0  0  0  0  0  0  0  0  0
  -25.6231  -32.4261   26.7379 C   0  0  0  0  0  0  0  0  0  0  0  0
  -26.5108  -12.2741   19.6642 C   0  0  0  0  0  0  0  0  0  0  0  0
  -21.7724  -29.4856   21.7219 C   0  0  0  0  0  0  0  0  0  0  0  0
  -19.9307  -27.9273   20.8928 C   0  0  0  0  0  0  0  0  0  0  0  0
  -29.5032  -24.8655   17.3178 C   0  0  0  0  0  0  0  0  0  0  0  0
  -26.5806  -18.5950   19.7718 C   0  0  0  0  0  0  0  0  0  0  0  0
  -29.2905  -23.4737   17.3232 C   0  0  0  0  0  0  0  0  0  0  0  0
  -27.4103  -17.8843   20.6508 C   0  0  0  0  0  0  0  0  0  0  0  0
  -22.7608  -31.6262   23.2129 C   0  0  0  0  0  0  0  0  0  0  0  0
  -26.9938  -15.8530   19.3819 C   0  0  0  0  0  0  0  0  0  0  0  0
  -24.4197  -32.4768   24.6436 C   0  0  0  0  0  0  0  0  0  0  0  0
  -26.7919  -32.0835   26.0580 C   0  0  0  0  0  0  0  0  0  0  0  0
  -24.4370  -32.6228   26.0307 C   0  0  0  0  0  0  0  0  0  0  0  0
  -21.2623  -28.3802   20.9511 C   0  0  0  0  0  0  0  0  0  0  0  0
  -24.7102  -11.9130   21.0275 C   0  0  0  0  0  0  0  0  0  0  0  0
  -24.5527  -13.2730   21.1799 C   0  0  0  0  0  0  0  0  0  0  0  0
  -26.3534  -13.6342   19.8168 C   0  0  0  0  0  0  0  0  0  1  0  0
  -19.9682  -26.8611   20.0277 C   0  0  0  0  0  0  0  0  0  0  0  0
  -18.7641  -28.4258   21.5608 C   0  0  0  0  0  0  0  0  0  0  0  0
  -28.6707  -20.9809   19.9793 C   0  0  0  0  0  0  0  0  0  0  0  0
  -28.0978  -20.6890   23.1588 C   0  0  0  0  0  0  0  0  0  0  0  0
  -27.0718  -18.7176   25.7488 C   0  0  0  0  0  0  0  0  0  0  0  0
  -22.1007  -22.3093   18.1427 C   0  0  0  0  0  0  0  0  0  0  0  0
  -30.3071  -25.5493   18.3952 C   0  0  0  0  0  0  0  0  0  0  0  0
  -26.3232  -20.0615   19.9853 C   0  0  0  0  0  0  0  0  0  0  0  0
  -28.0963  -18.5559   21.8113 C   0  0  0  0  0  0  0  0  0  0  0  0
  -30.4714  -24.7087   19.6588 C   0  0  0  0  0  0  0  0  0  0  0  0
  -23.6220  -25.2389   16.9399 C   0  0  0  0  0  0  0  0  0  0  0  0
  -30.8698  -23.2802   19.3017 C   0  0  0  0  0  0  0  0  0  0  0  0
  -23.0346  -26.2927   17.8782 C   0  0  0  0  0  0  0  0  0  0  0  0
  -24.3542   -9.5467   22.0331 C   0  0  0  0  0  0  0  0  0  0  0  0
  -23.9783  -23.9478   17.6790 C   0  0  0  0  0  0  0  0  0  0  0  0
  -20.2764  -20.8330   19.1003 C   0  0  0  0  0  0  0  0  0  0  0  0
  -22.2984  -21.3500   20.4165 C   0  0  0  0  0  0  0  0  0  0  0  0
  -22.2740  -24.4333   19.4049 C   0  0  0  0  0  0  0  0  0  0  0  0
  -23.1241   -8.7322   22.3775 C   0  0  0  0  0  0  0  0  0  0  0  0
  -20.5544  -19.3399   19.2420 C   0  0  0  0  0  0  0  0  0  0  0  0
  -22.6201  -19.8710   20.5565 C   0  0  0  0  0  0  0  0  0  0  0  0
  -22.5516  -10.5659   20.8788 C   0  0  0  0  0  0  0  0  0  0  0  0
  -29.7865  -22.6006   18.4554 C   0  0  1  0  0  0  0  0  0  0  0  0
  -23.7838  -10.9299   21.7099 C   0  0  2  0  0  0  0  0  0  0  0  0
  -27.4239  -20.7510   20.7857 C   0  0  1  0  0  0  0  0  0  0  0  0
  -21.8519  -25.7206   18.6799 C   0  0  1  0  0  0  0  0  0  0  0  0
  -26.7477  -18.7452   28.2370 C   0  0  0  0  0  0  0  0  0  0  0  0
  -31.1131  -20.4374   23.5519 C   0  0  0  0  0  0  0  0  0  0  0  0
  -30.6687  -19.5345   25.8444 C   0  0  0  0  0  0  0  0  0  0  0  0
  -29.9530  -21.8511   25.2578 C   0  0  0  0  0  0  0  0  0  0  0  0
  -24.1703  -18.1938   25.4932 C   0  0  0  0  0  0  0  0  0  0  0  0
  -23.4554  -13.8433   22.0294 C   0  0  0  0  0  0  0  0  0  0  0  0
  -21.8982  -17.3408   22.1977 C   0  0  0  0  0  0  0  0  0  0  0  0
  -21.5664  -17.6160   20.7349 C   0  0  0  0  0  0  0  0  0  0  0  0
  -22.1082  -15.8764   22.5681 C   0  0  0  0  0  0  0  0  0  0  0  0
  -28.7001  -19.8828   24.2840 C   0  0  1  0  0  0  0  0  0  0  0  0
  -26.0947  -18.9717   26.8824 C   0  0  2  0  0  0  0  0  0  0  0  0
  -30.0975  -20.4139   24.7116 C   0  0  0  0  0  0  0  0  0  0  0  0
  -25.6921  -11.3890   20.2669 N   0  0  0  0  0  0  0  0  0  0  0  0
  -22.0858  -27.6606   20.1843 N   0  0  0  0  0  0  0  0  0  0  0  0
  -25.3715  -14.1580   20.5773 N   0  0  0  0  0  0  0  0  0  0  0  0
  -21.2694  -26.7446   19.6360 N   0  0  0  0  0  0  0  0  0  0  0  0
  -27.8180  -19.9924   21.9745 N   0  0  0  0  0  0  0  0  0  0  0  0
  -22.8329  -23.4626   18.4615 N   0  0  0  0  0  0  0  0  0  0  0  0
  -21.5167  -21.6104   19.2096 N   0  0  0  0  0  0  0  0  0  0  0  0
  -19.0148  -26.0213   19.5716 N   0  0  0  0  0  0  0  0  0  0  0  0
  -18.9031  -29.5285   22.4147 N   0  0  0  0  0  0  0  0  0  0  0  0
  -28.6827  -22.1790   19.2911 N   0  0  0  0  0  0  0  0  0  0  0  0
  -27.7104  -19.8748   25.3558 N   0  0  0  0  0  0  0  0  0  0  0  0
  -22.0645   -9.2730   21.4677 N   0  3  0  0  0  0  0  0  0  0  0  0
  -21.3313  -19.0837   20.5110 N   0  3  0  0  0  0  0  0  0  0  0  0
  -24.9208  -18.0608   26.7684 N   0  3  0  0  0  0  0  0  0  0  0  0
  -23.2279  -15.2956   21.7912 N   0  3  0  0  0  0  0  0  0  0  0  0
  -17.6349  -27.8985   21.4179 O   0  0  0  0  0  0  0  0  0  0  0  0
  -29.5569  -20.1345   19.9826 O   0  0  0  0  0  0  0  0  0  0  0  0
  -27.8768  -21.8908   23.3268 O   0  0  0  0  0  0  0  0  0  0  0  0
  -27.2534  -17.6033   25.2631 O   0  0  0  0  0  0  0  0  0  0  0  0
  -21.9754  -21.9265   16.9726 O   0  0  0  0  0  0  0  0  0  0  0  0
  -23.2428  -32.6710   23.9401 O   0  0  0  0  0  0  0  0  0  0  0  0
  -27.2038  -14.5002   19.1897 O   0  0  0  0  0  0  0  0  0  1  0  0
  -27.9306  -31.8931   26.7372 F   0  0  0  0  0  0  0  0  0  0  0  0
  -23.3170  -32.9507   26.6894 F   0  0  0  0  0  0  0  0  0  0  0  0
  1  2  1  0  0  0  0
  1  5  2  0  0  0  0
  2  6  2  0  0  0  0
  3  8  2  0  0  0  0
  3 16  1  0  0  0  0
  4  9  1  0  0  0  0
  4 16  2  0  0  0  0
  5 18  1  0  0  0  0
  6 20  1  0  0  0  0
  7 10  2  0  0  0  0
  7 19  1  0  0  0  0
  8 22  1  0  0  0  0
  9 22  2  0  0  0  0
 10 23  1  0  0  0  0
 11 12  2  0  0  0  0
 11 24  1  0  0  0  0
 12 25  1  0  0  0  0
 13 21  1  0  0  0  0
 13 23  2  0  0  0  0
 14 25  2  0  0  0  0
 14 26  1  0  0  0  0
 15 30  1  0  0  0  0
 15 69  2  0  0  0  0
 16 27  1  0  0  0  0
 17 27  1  0  0  0  0
 17 31  2  0  0  0  0
 17 32  1  0  0  0  0
 18 20  2  0  0  0  0
 18 37  1  0  0  0  0
 19 21  2  0  0  0  0
 19 38  1  0  0  0  0
 20 53  1  0  0  0  0
 21 39  1  0  0  0  0
 22 89  1  0  0  0  0
 23 90  1  0  0  0  0
 24 26  2  0  0  0  0
 24 89  1  0  0  0  0
 25 91  1  0  0  0  0
 26 92  1  0  0  0  0
 27 70  2  0  0  0  0
 28 29  2  0  0  0  0
 28 54  1  0  0  0  0
 28 69  1  0  0  0  0
 29 62  1  0  0  0  0
 29 71  1  0  0  0  0
 30 71  2  0  0  0  0
 30 90  1  0  0  0  0
 31 72  1  0  0  0  0
 31 76  1  0  0  0  0
 32 77  1  0  0  0  0
 32 84  2  0  0  0  0
 33 55  1  0  0  0  0
 33 78  1  0  0  0  0
 33 85  2  0  0  0  0
 34 66  1  0  0  0  0
 34 73  1  0  0  0  0
 34 86  2  0  0  0  0
 35 67  1  0  0  0  0
 35 79  1  0  0  0  0
 35 87  2  0  0  0  0
 36 74  1  0  0  0  0
 36 75  1  0  0  0  0
 36 88  2  0  0  0  0
 37 40  1  0  0  0  0
 38 55  1  0  0  0  0
 39 73  1  0  0  0  0
 40 42  1  0  0  0  0
 41 43  1  0  0  0  0
 41 45  1  0  0  0  0
 42 53  1  0  0  0  0
 43 56  1  0  0  0  0
 44 49  1  0  0  0  0
 44 54  1  0  0  0  0
 45 74  1  0  0  0  0
 46 50  1  0  0  0  0
 46 75  1  0  0  0  0
 47 51  1  0  0  0  0
 47 75  1  0  0  0  0
 48 56  1  0  0  0  0
 48 74  1  0  0  0  0
 49 80  1  0  0  0  0
 50 81  1  0  0  0  0
 51 81  1  0  0  0  0
 52 54  1  0  0  0  0
 52 80  1  0  0  0  0
 53 78  1  0  0  0  0
 55 73  1  0  0  0  0
 56 72  1  0  0  0  0
 57 67  1  0  0  0  0
 58 68  1  0  0  0  0
 59 68  1  0  0  0  0
 60 68  1  0  0  0  0
 61 82  1  0  0  0  0
 62 83  1  0  0  0  0
 63 64  1  0  0  0  0
 63 65  1  0  0  0  0
 64 81  1  0  0  0  0
 65 83  1  0  0  0  0
 66 68  1  0  0  0  0
 66 79  1  0  0  0  0
 67 82  1  0  0  0  0
 70 72  1  0  0  0  0
M  CHG  4  80   1  81   1  82   1  83   1
M  ISO  4  30 101  36 100  75 100  90 101
M  END
> <Batch ID>
0196

> <Smiles>
CNC(C)C(=O)NC(C(=O)N1Cc2cc([101O:1][101c:1]3cnc(C4CCNC4)c(CNCCCN4CC[100N:0]([100C:0](=O)N5CCCC(n6nc(-c7ccc(Oc8ccc(F)cc8F)cc7)c(C(N)=O)c6N)C5)CC4)n3)ccc2CC1C(=O)NC1CCCc2ccccc21)C(C)(C)C

> <Shape>
0.228

> <Color>
0.070

> <Negative vol penalty>
0.000

$$$$

  -OEChem-04052323393D

 86 95  0     1  0  0  0  0  0999 V2000
  -22.0807  -11.1169   19.5791 C   0  0  0  0  0  0  0  0  0  0  0  0
  -21.6915  -12.3743   20.0294 C   0  0  0  0  0  0  0  0  0  0  0  0
  -26.2768  -31.0629   20.9695 C   0  0  0  0  0  0  0  0  0  0  0  0
  -24.0585  -31.0398   21.9266 C   0  0  0  0  0  0  0  0  0  0  0  0
  -23.4183  -10.7320   19.6598 C   0  0  0  0  0  0  0  0  0  0  0  0
  -22.6396  -13.2473   20.5617 C   0  0  0  0  0  0  0  0  0  0  0  0
  -22.7164  -19.3504   20.0598 C   0  0  0  0  0  0  0  0  0  0  0  0
  -26.0022  -29.8681   20.3042 C   0  0  0  0  0  0  0  0  0  0  0  0
  -23.7839  -29.8450   21.2612 C   0  0  0  0  0  0  0  0  0  0  0  0
  -22.3068  -20.3676   20.9208 C   0  0  0  0  0  0  0  0  0  0  0  0
  -26.0089  -26.6355   18.6386 C   0  0  0  0  0  0  0  0  0  0  0  0
  -26.9827  -25.6373   18.6666 C   0  0  0  0  0  0  0  0  0  0  0  0
  -24.5695  -20.5873   21.7279 C   0  0  0  0  0  0  0  0  0  0  0  0
  -26.8477  -25.5733   21.0780 C   0  0  0  0  0  0  0  0  0  0  0  0
  -22.0998  -25.4600   25.8871 C   0  0  0  0  0  0  0  0  0  0  0  0
  -25.3049  -31.6487   21.7808 C   0  0  0  0  0  0  0  0  0  0  0  0
  -25.3697  -34.1899   21.9944 C   0  0  0  0  0  0  0  0  0  0  0  0
  -24.3849  -11.6044   20.1845 C   0  0  0  0  0  0  0  0  0  0  0  0
  -24.0558  -18.9359   20.0341 C   0  0  0  0  0  0  0  0  0  0  0  0
  -23.9912  -12.8733   20.6507 C   0  0  0  0  0  0  0  0  0  0  0  0
  -24.9940  -19.5664   20.8638 C   0  0  0  0  0  0  0  0  0  0  0  0
  -24.7557  -29.2591   20.4500 C   0  0  0  0  0  0  0  0  0  0  0  0
  -23.2328  -20.9842   21.7571 C   0  0  0  0  0  0  0  0  0  0  0  0
  -25.4546  -27.1028   19.8303 C   0  0  0  0  0  0  0  0  0  0  0  0
  -27.4021  -25.1061   19.8863 C   0  0  0  0  0  0  0  0  0  0  0  0
  -25.8740  -26.5717   21.0500 C   0  0  0  0  0  0  0  0  0  0  0  0
  -25.5882  -32.8826   22.4687 C   0  0  0  0  0  0  0  0  0  0  0  0
  -21.7114  -24.1363   25.9231 C   0  0  0  0  0  0  0  0  0  0  0  0
  -23.1002  -25.7643   24.9866 C   0  0  0  0  0  0  0  0  0  0  0  0
  -25.8006  -35.0020   23.0149 C   0  0  0  0  0  0  0  0  0  0  0  0
  -23.2177  -23.5981   24.3080 C   0  0  0  0  0  0  0  0  0  0  0  0
  -24.8258  -34.6308   20.7432 C   0  0  0  0  0  0  0  0  0  0  0  0
  -25.5732  -16.2125   20.6539 C   0  0  0  0  0  0  0  0  0  0  0  0
  -28.1467  -17.8476   19.5468 C   0  0  0  0  0  0  0  0  0  0  0  0
  -29.6362  -20.8647   18.9765 C   0  0  0  0  0  0  0  0  0  0  0  0
  -27.0351  -31.1050   26.7229 C   0  0  0  0  0  0  0  0  0  0  0  0
  -25.8110  -11.1260   20.2950 C   0  0  0  0  0  0  0  0  0  0  0  0
  -24.4867  -17.8555   19.0804 C   0  0  0  0  0  0  0  0  0  0  0  0
  -26.4476  -19.1721   20.8598 C   0  0  0  0  0  0  0  0  0  0  0  0
  -26.8150  -12.2522   20.5268 C   0  0  0  0  0  0  0  0  0  0  0  0
  -29.1724  -33.5965   25.3118 C   0  0  0  0  0  0  0  0  0  0  0  0
  -24.7343  -30.5445   29.4691 C   0  0  0  0  0  0  0  0  0  0  0  0
  -26.3168  -13.1956   21.6171 C   0  0  0  0  0  0  0  0  0  0  0  0
  -28.3177  -34.8578   25.2549 C   0  0  0  0  0  0  0  0  0  0  0  0
  -24.2314  -29.4708   28.5144 C   0  0  0  0  0  0  0  0  0  0  0  0
  -28.8406  -32.7798   26.5510 C   0  0  0  0  0  0  0  0  0  0  0  0
  -25.3022  -31.5910   28.5230 C   0  0  0  0  0  0  0  0  0  0  0  0
  -26.4876  -33.5848   26.5125 C   0  0  0  0  0  0  0  0  0  0  0  0
  -24.9944  -13.8577   21.2116 C   0  0  1  0  0  0  0  0  0  0  0  0
  -25.7766  -17.1616   19.5070 C   0  0  1  0  0  0  0  0  0  0  0  0
  -26.8139  -34.5557   25.3543 C   0  0  2  0  0  0  0  0  0  0  0  0
  -25.2922  -29.4576   27.4102 C   0  0  1  0  0  0  0  0  0  0  0  0
  -20.6354  -23.7112   26.8652 C   0  0  0  0  0  0  0  0  0  0  0  0
  -31.7556  -21.8803   18.0966 C   0  0  0  0  0  0  0  0  0  0  0  0
  -29.5743  -17.1096   22.1405 C   0  0  0  0  0  0  0  0  0  0  0  0
  -31.2596  -18.8917   21.6383 C   0  0  0  0  0  0  0  0  0  0  0  0
  -30.9945  -16.9556   20.0878 C   0  0  0  0  0  0  0  0  0  0  0  0
  -28.1973  -22.2748   16.8085 C   0  0  0  0  0  0  0  0  0  0  0  0
  -23.5880  -27.1786   24.8741 C   0  0  0  0  0  0  0  0  0  0  0  0
  -23.8364  -22.5651   23.4281 C   0  0  0  0  0  0  0  0  0  1  0  0
  -24.7024  -29.0741   26.0591 C   0  0  0  0  0  0  0  0  0  0  0  0
  -29.1989  -18.7336   20.1688 C   0  0  1  0  0  0  0  0  0  0  0  0
  -30.3457  -21.4231   17.7561 C   0  0  2  0  0  0  0  0  0  0  0  0
  -30.2291  -17.9290   21.0106 C   0  0  0  0  0  0  0  0  0  0  0  0
  -26.1170  -32.8607   23.6951 N   0  0  0  0  0  0  0  0  0  0  0  0
  -22.2509  -23.1753   25.1448 N   0  0  0  0  0  0  0  0  0  0  0  0
  -23.6838  -24.8549   24.1788 N   0  0  0  0  0  0  0  0  0  0  0  0
  -26.2345  -34.1643   23.9999 N   0  0  0  0  0  0  0  0  0  0  0  0
  -26.8186  -18.1064   19.9143 N   0  0  0  0  0  0  0  0  0  0  0  0
  -27.4168  -32.4513   26.6249 N   0  0  0  0  0  0  0  0  0  0  0  0
  -25.8578  -30.8121   27.4151 N   0  0  0  0  0  0  0  0  0  0  0  0
  -25.8471  -36.3437   23.1567 N   0  0  0  0  0  0  0  0  0  0  0  0
  -24.4330  -33.6640   19.8076 N   0  0  0  0  0  0  0  0  0  0  0  0
  -25.2339  -14.9294   20.2690 N   0  0  0  0  0  0  0  0  0  0  0  0
  -29.7880  -19.4977   19.0745 N   0  0  0  0  0  0  0  0  0  0  0  0
  -29.5939  -22.5870   17.2074 N   0  3  0  0  0  0  0  0  0  0  0  0
  -24.1500  -27.7059   26.1500 N   0  3  0  0  0  0  0  0  0  0  0  0
  -24.7073  -35.8463   20.4566 O   0  0  0  0  0  0  0  0  0  0  0  0
  -25.7151  -16.6141   21.8030 O   0  0  0  0  0  0  0  0  0  0  0  0
  -28.4899  -16.9633   18.7583 O   0  0  0  0  0  0  0  0  0  0  0  0
  -29.0131  -21.5710   19.7660 O   0  0  0  0  0  0  0  0  0  0  0  0
  -27.7207  -30.2032   26.2231 O   0  0  0  0  0  0  0  0  0  0  0  0
  -24.4874  -28.0934   19.8008 O   0  0  0  0  0  0  0  0  0  0  0  0
  -22.8329  -21.9837   22.6047 O   0  0  0  0  0  0  0  0  0  1  0  0
  -28.3361  -24.1464   19.9130 F   0  0  0  0  0  0  0  0  0  0  0  0
  -25.3443  -27.0157   22.1980 F   0  0  0  0  0  0  0  0  0  0  0  0
  1  2  1  0  0  0  0
  1  5  2  0  0  0  0
  2  6  2  0  0  0  0
  3  8  2  0  0  0  0
  3 16  1  0  0  0  0
  4  9  1  0  0  0  0
  4 16  2  0  0  0  0
  5 18  1  0  0  0  0
  6 20  1  0  0  0  0
  7 10  2  0  0  0  0
  7 19  1  0  0  0  0
  8 22  1  0  0  0  0
  9 22  2  0  0  0  0
 10 23  1  0  0  0  0
 11 12  2  0  0  0  0
 11 24  1  0  0  0  0
 12 25  1  0  0  0  0
 13 21  1  0  0  0  0
 13 23  2  0  0  0  0
 14 25  2  0  0  0  0
 14 26  1  0  0  0  0
 15 28  1  0  0  0  0
 15 29  2  0  0  0  0
 16 27  1  0  0  0  0
 17 27  1  0  0  0  0
 17 30  2  0  0  0  0
 17 32  1  0  0  0  0
 18 20  2  0  0  0  0
 18 37  1  0  0  0  0
 19 21  2  0  0  0  0
 19 38  1  0  0  0  0
 20 49  1  0  0  0  0
 21 39  1  0  0  0  0
 22 83  1  0  0  0  0
 23 84  1  0  0  0  0
 24 26  2  0  0  0  0
 24 83  1  0  0  0  0
 25 85  1  0  0  0  0
 26 86  1  0  0  0  0
 27 65  2  0  0  0  0
 28 53  1  0  0  0  0
 28 66  2  0  0  0  0
 29 59  1  0  0  0  0
 29 67  1  0  0  0  0
 30 68  1  0  0  0  0
 30 72  1  0  0  0  0
 31 60  1  0  0  0  0
 31 66  1  0  0  0  0
 31 67  2  0  0  0  0
 32 73  1  0  0  0  0
 32 78  2  0  0  0  0
 33 50  1  0  0  0  0
 33 74  1  0  0  0  0
 33 79  2  0  0  0  0
 34 62  1  0  0  0  0
 34 69  1  0  0  0  0
 34 80  2  0  0  0  0
 35 63  1  0  0  0  0
 35 75  1  0  0  0  0
 35 81  2  0  0  0  0
 36 70  1  0  0  0  0
 36 71  1  0  0  0  0
 36 82  2  0  0  0  0
 37 40  1  0  0  0  0
 38 50  1  0  0  0  0
 39 69  1  0  0  0  0
 40 43  1  0  0  0  0
 41 44  1  0  0  0  0
 41 46  1  0  0  0  0
 42 45  1  0  0  0  0
 42 47  1  0  0  0  0
 43 49  1  0  0  0  0
 44 51  1  0  0  0  0
 45 52  1  0  0  0  0
 46 70  1  0  0  0  0
 47 71  1  0  0  0  0
 48 51  1  0  0  0  0
 48 70  1  0  0  0  0
 49 74  1  0  0  0  0
 50 69  1  0  0  0  0
 51 68  1  0  0  0  0
 52 61  1  0  0  0  0
 52 71  1  0  0  0  0
 54 63  1  0  0  0  0
 55 64  1  0  0  0  0
 56 64  1  0  0  0  0
 57 64  1  0  0  0  0
 58 76  1  0  0  0  0
 59 77  1  0  0  0  0
 60 84  1  0  0  0  0
 61 77  1  0  0  0  0
 62 64  1  0  0  0  0
 62 75  1  0  0  0  0
 63 76  1  0  0  0  0
 65 68  1  0  0  0  0
M  CHG  2  76   1  77   1
M  ISO  4  36 100  60 101  71 100  84 101
M  END
> <Batch ID>
0196

> <Smiles>
CNC(C)C(=O)NC(C(=O)N1Cc2cc([101O:1][101CH2:1]c3nc(C)cc(CNCC4CCC[100N:0]4[100C:0](=O)N4CCCC(n5nc(-c6ccc(Oc7ccc(F)cc7F)cc6)c(C(N)=O)c5N)C4)n3)ccc2CC1C(=O)NC1CCCc2ccccc21)C(C)(C)C

> <Shape>
0.245

> <Color>
0.058

> <Negative vol penalty>
0.000

$$$$

  -OEChem-04052323393D

 85 94  0     1  0  0  0  0  0999 V2000
  -24.7094  -37.4000   20.5081 C   0  0  0  0  0  0  0  0  0  0  0  0
  -25.5068  -36.3040   20.1943 C   0  0  0  0  0  0  0  0  0  0  0  0
  -25.6831  -15.4710   20.0449 C   0  0  0  0  0  0  0  0  0  0  0  0
  -23.5815  -14.7408   20.9866 C   0  0  0  0  0  0  0  0  0  0  0  0
  -23.8443  -37.3414   21.5999 C   0  0  0  0  0  0  0  0  0  0  0  0
  -25.4405  -35.1492   20.9730 C   0  0  0  0  0  0  0  0  0  0  0  0
  -26.0390  -29.3681   19.0427 C   0  0  0  0  0  0  0  0  0  0  0  0
  -26.1675  -14.1647   20.1129 C   0  0  0  0  0  0  0  0  0  0  0  0
  -24.0658  -13.4345   21.0546 C   0  0  0  0  0  0  0  0  0  0  0  0
  -27.1160  -28.4828   19.0519 C   0  0  0  0  0  0  0  0  0  0  0  0
  -24.5325  -10.8395   18.9406 C   0  0  0  0  0  0  0  0  0  0  0  0
  -23.6909   -9.8146   18.5082 C   0  0  0  0  0  0  0  0  0  0  0  0
  -26.2994  -27.5201   21.1075 C   0  0  0  0  0  0  0  0  0  0  0  0
  -23.7768   -8.8166   20.7068 C   0  0  0  0  0  0  0  0  0  0  0  0
  -24.3901  -15.7590   20.4818 C   0  0  0  0  0  0  0  0  0  0  0  0
  -23.2010  -17.7054   19.3393 C   0  0  0  0  0  0  0  0  0  0  0  0
  -23.7602  -36.1818   22.3866 C   0  0  0  0  0  0  0  0  0  0  0  0
  -25.0884  -29.3432   20.0733 C   0  0  0  0  0  0  0  0  0  0  0  0
  -24.5744  -35.0755   22.0772 C   0  0  0  0  0  0  0  0  0  0  0  0
  -25.2098  -28.4043   21.1077 C   0  0  0  0  0  0  0  0  0  0  0  0
  -25.3588  -13.1464   20.6177 C   0  0  0  0  0  0  0  0  0  0  0  0
  -27.2480  -27.5606   20.0859 C   0  0  0  0  0  0  0  0  0  0  0  0
  -24.9963  -10.8530   20.2560 C   0  0  0  0  0  0  0  0  0  0  0  0
  -23.3131   -8.8032   19.3913 C   0  0  0  0  0  0  0  0  0  0  0  0
  -24.6184   -9.8415   21.1391 C   0  0  0  0  0  0  0  0  0  0  0  0
  -23.8894  -17.1083   20.4123 C   0  0  0  0  0  0  0  0  0  0  0  0
  -22.9459  -18.9861   19.7651 C   0  0  0  0  0  0  0  0  0  0  0  0
  -31.6022  -23.5059   18.6919 C   0  0  0  0  0  0  0  0  0  0  0  0
  -30.3474  -23.9861   20.2894 C   0  0  0  0  0  0  0  0  0  0  0  0
  -22.8255  -17.1519   18.0711 C   0  0  0  0  0  0  0  0  0  0  0  0
  -24.1183  -31.4144   22.2807 C   0  0  0  0  0  0  0  0  0  0  0  0
  -21.9092  -29.1218   22.9021 C   0  0  0  0  0  0  0  0  0  0  0  0
  -21.0303  -25.8278   22.7482 C   0  0  0  0  0  0  0  0  0  0  0  0
  -25.8082  -22.3040   23.9849 C   0  0  0  0  0  0  0  0  0  0  0  0
  -22.8448  -36.1825   23.5852 C   0  0  0  0  0  0  0  0  0  0  0  0
  -23.9177  -30.2869   20.0348 C   0  0  0  0  0  0  0  0  0  0  0  0
  -24.2053  -28.3232   22.2270 C   0  0  0  0  0  0  0  0  0  0  0  0
  -22.5605  -34.7872   24.1353 C   0  0  0  0  0  0  0  0  0  0  0  0
  -22.2252  -21.5435   23.7462 C   0  0  0  0  0  0  0  0  0  0  0  0
  -23.8535  -33.9867   24.2545 C   0  0  0  0  0  0  0  0  0  0  0  0
  -22.1966  -20.3390   22.8044 C   0  0  0  0  0  0  0  0  0  0  0  0
  -27.9309  -22.1822   20.9856 C   0  0  0  0  0  0  0  0  0  0  0  0
  -23.5144  -21.6003   24.5626 C   0  0  0  0  0  0  0  0  0  0  0  0
  -27.0217  -21.3907   21.9199 C   0  0  0  0  0  0  0  0  0  0  0  0
  -24.7183  -20.3363   22.8231 C   0  0  0  0  0  0  0  0  0  0  0  0
  -27.8855  -23.3073   23.0799 C   0  0  0  0  0  0  0  0  0  0  0  0
  -24.5127  -33.7961   22.8831 C   0  0  1  0  0  0  0  0  0  0  0  0
  -23.2899  -30.5165   21.4061 C   0  0  1  0  0  0  0  0  0  0  0  0
  -23.4671  -20.2831   21.9356 C   0  0  1  0  0  0  0  0  0  0  0  0
  -28.8428  -22.9125   21.9654 C   0  0  2  0  0  0  0  0  0  0  0  0
  -32.3241  -22.7039   17.6972 C   0  0  0  0  0  0  0  0  0  0  0  0
  -19.1794  -24.2517   23.3706 C   0  0  0  0  0  0  0  0  0  0  0  0
  -31.9851  -27.3073   19.9687 C   0  0  0  0  0  0  0  0  0  0  0  0
  -22.8038  -29.2264   25.8174 C   0  0  0  0  0  0  0  0  0  0  0  0
  -21.6428  -27.0379   26.1795 C   0  0  0  0  0  0  0  0  0  0  0  0
  -20.3310  -29.0448   25.4909 C   0  0  0  0  0  0  0  0  0  0  0  0
  -20.5735  -25.0653   19.9253 C   0  0  0  0  0  0  0  0  0  0  0  0
  -29.5134  -27.1420   19.4954 C   0  0  0  0  0  0  0  0  0  1  0  0
  -21.8451  -27.9169   23.8094 C   0  0  1  0  0  0  0  0  0  0  0  0
  -19.7559  -25.1459   22.2840 C   0  0  2  0  0  0  0  0  0  0  0  0
  -30.7128  -26.4853   20.1924 C   0  0  1  0  0  0  0  0  0  0  0  0
  -21.6758  -28.3091   25.3044 C   0  0  0  0  0  0  0  0  0  0  0  0
  -24.0610  -17.9413   21.4422 N   0  0  0  0  0  0  0  0  0  0  0  0
  -30.7766  -22.9407   19.6211 N   0  0  0  0  0  0  0  0  0  0  0  0
  -31.7109  -24.8352   18.7431 N   0  0  0  0  0  0  0  0  0  0  0  0
  -23.4767  -19.0749   21.0183 N   0  0  0  0  0  0  0  0  0  0  0  0
  -30.8988  -25.1172   19.7732 N   0  0  0  0  0  0  0  0  0  0  0  0
  -23.0818  -29.2713   22.1480 N   0  0  0  0  0  0  0  0  0  0  0  0
  -24.6892  -21.5158   23.6947 N   0  0  0  0  0  0  0  0  0  0  0  0
  -26.8900  -22.2384   23.1077 N   0  0  0  0  0  0  0  0  0  0  0  0
  -22.3216  -20.0336   19.1861 N   0  0  0  0  0  0  0  0  0  0  0  0
  -23.1658  -15.8203   17.7962 N   0  0  0  0  0  0  0  0  0  0  0  0
  -29.4717  -24.0588   21.3642 N   0  0  0  0  0  0  0  0  0  0  0  0
  -23.8342  -32.7590   22.1359 N   0  0  0  0  0  0  0  0  0  0  0  0
  -20.7768  -27.0705   23.2890 N   0  0  0  0  0  0  0  0  0  0  0  0
  -20.0249  -24.3093   21.0804 N   0  3  0  0  0  0  0  0  0  0  0  0
  -22.2211  -17.8233   17.2009 O   0  0  0  0  0  0  0  0  0  0  0  0
  -24.9524  -30.9237   23.0325 O   0  0  0  0  0  0  0  0  0  0  0  0
  -20.9513  -29.8977   22.8586 O   0  0  0  0  0  0  0  0  0  0  0  0
  -22.1393  -25.3082   22.6450 O   0  0  0  0  0  0  0  0  0  0  0  0
  -25.8224  -23.0685   24.9587 O   0  0  0  0  0  0  0  0  0  0  0  0
  -25.8311  -11.8716   20.6840 O   0  0  0  0  0  0  0  0  0  0  0  0
  -28.3056  -26.6902   20.0978 O   0  0  0  0  0  0  0  0  0  1  0  0
  -22.5037   -7.8199   18.9764 F   0  0  0  0  0  0  0  0  0  0  0  0
  -25.0598   -9.8497   22.4044 F   0  0  0  0  0  0  0  0  0  0  0  0
  1  2  1  0  0  0  0
  1  5  2  0  0  0  0
  2  6  2  0  0  0  0
  3  8  2  0  0  0  0
  3 15  1  0  0  0  0
  4  9  1  0  0  0  0
  4 15  2  0  0  0  0
  5 17  1  0  0  0  0
  6 19  1  0  0  0  0
  7 10  2  0  0  0  0
  7 18  1  0  0  0  0
  8 21  1  0  0  0  0
  9 21  2  0  0  0  0
 10 22  1  0  0  0  0
 11 12  2  0  0  0  0
 11 23  1  0  0  0  0
 12 24  1  0  0  0  0
 13 20  1  0  0  0  0
 13 22  2  0  0  0  0
 14 24  2  0  0  0  0
 14 25  1  0  0  0  0
 15 26  1  0  0  0  0
 16 26  1  0  0  0  0
 16 27  2  0  0  0  0
 16 30  1  0  0  0  0
 17 19  2  0  0  0  0
 17 35  1  0  0  0  0
 18 20  2  0  0  0  0
 18 36  1  0  0  0  0
 19 47  1  0  0  0  0
 20 37  1  0  0  0  0
 21 82  1  0  0  0  0
 22 83  1  0  0  0  0
 23 25  2  0  0  0  0
 23 82  1  0  0  0  0
 24 84  1  0  0  0  0
 25 85  1  0  0  0  0
 26 63  2  0  0  0  0
 27 66  1  0  0  0  0
 27 71  1  0  0  0  0
 28 51  1  0  0  0  0
 28 64  1  0  0  0  0
 28 65  2  0  0  0  0
 29 64  2  0  0  0  0
 29 67  1  0  0  0  0
 29 73  1  0  0  0  0
 30 72  1  0  0  0  0
 30 77  2  0  0  0  0
 31 48  1  0  0  0  0
 31 74  1  0  0  0  0
 31 78  2  0  0  0  0
 32 59  1  0  0  0  0
 32 68  1  0  0  0  0
 32 79  2  0  0  0  0
 33 60  1  0  0  0  0
 33 75  1  0  0  0  0
 33 80  2  0  0  0  0
 34 69  1  0  0  0  0
 34 70  1  0  0  0  0
 34 81  2  0  0  0  0
 35 38  1  0  0  0  0
 36 48  1  0  0  0  0
 37 68  1  0  0  0  0
 38 40  1  0  0  0  0
 39 41  1  0  0  0  0
 39 43  1  0  0  0  0
 40 47  1  0  0  0  0
 41 49  1  0  0  0  0
 42 44  1  0  0  0  0
 42 50  1  0  0  0  0
 43 69  1  0  0  0  0
 44 70  1  0  0  0  0
 45 49  1  0  0  0  0
 45 69  1  0  0  0  0
 46 50  1  0  0  0  0
 46 70  1  0  0  0  0
 47 74  1  0  0  0  0
 48 68  1  0  0  0  0
 49 66  1  0  0  0  0
 50 73  1  0  0  0  0
 52 60  1  0  0  0  0
 53 61  1  0  0  0  0
 54 62  1  0  0  0  0
 55 62  1  0  0  0  0
 56 62  1  0  0  0  0
 57 76  1  0  0  0  0
 58 61  1  0  0  0  0
 58 83  1  0  0  0  0
 59 62  1  0  0  0  0
 59 75  1  0  0  0  0
 60 76  1  0  0  0  0
 61 67  1  0  0  0  0
 63 66  1  0  0  0  0
 65 67  1  0  0  0  0
M  CHG  1  76   1
M  ISO  4  34 100  58 101  70 100  83 101
M  END
> <Batch ID>
0196

> <Smiles>
CNC(C)C(=O)NC(C(=O)N1Cc2cc([101O:1][101CH2:1]C(C)n3nc(C)nc3NC3CC[100N:0]([100C:0](=O)N4CCCC(n5nc(-c6ccc(Oc7ccc(F)cc7F)cc6)c(C(N)=O)c5N)C4)C3)ccc2CC1C(=O)NC1CCCc2ccccc21)C(C)(C)C

> <Shape>
0.231

> <Color>
0.067

> <Negative vol penalty>
0.000

$$$$

  -OEChem-04052323393D

 87 96  0     1  0  0  0  0  0999 V2000
  -21.5639  -12.0889   20.3412 C   0  0  0  0  0  0  0  0  0  0  0  0
  -21.6822  -13.0184   21.3696 C   0  0  0  0  0  0  0  0  0  0  0  0
  -28.0474  -29.6484   19.8822 C   0  0  0  0  0  0  0  0  0  0  0  0
  -26.7996  -27.6213   19.4686 C   0  0  0  0  0  0  0  0  0  0  0  0
  -22.6958  -11.6859   19.6339 C   0  0  0  0  0  0  0  0  0  0  0  0
  -22.9326  -13.5445   21.6920 C   0  0  0  0  0  0  0  0  0  0  0  0
  -22.8112  -18.5601   22.3806 C   0  0  0  0  0  0  0  0  0  0  0  0
  -29.1920  -29.0517   19.3537 C   0  0  0  0  0  0  0  0  0  0  0  0
  -27.9443  -27.0246   18.9400 C   0  0  0  0  0  0  0  0  0  0  0  0
  -22.3106  -19.0239   23.5964 C   0  0  0  0  0  0  0  0  0  0  0  0
  -29.6684  -27.0875   16.0341 C   0  0  0  0  0  0  0  0  0  0  0  0
  -29.5339  -26.3722   14.8442 C   0  0  0  0  0  0  0  0  0  0  0  0
  -24.5642  -19.3406   24.3965 C   0  0  0  0  0  0  0  0  0  0  0  0
  -30.3122  -24.3741   15.9572 C   0  0  0  0  0  0  0  0  0  0  0  0
  -18.0399  -25.0541   22.3768 C   0  0  0  0  0  0  0  0  0  0  0  0
  -26.8512  -28.9331   19.9398 C   0  0  0  0  0  0  0  0  0  0  0  0
  -24.6960  -30.2896   19.7884 C   0  0  0  0  0  0  0  0  0  0  0  0
  -23.9594  -12.2146   19.9414 C   0  0  0  0  0  0  0  0  0  0  0  0
  -24.1944  -18.4726   22.1673 C   0  0  0  0  0  0  0  0  0  0  0  0
  -24.0827  -13.1471   20.9890 C   0  0  0  0  0  0  0  0  0  0  0  0
  -25.0798  -18.8778   23.1763 C   0  0  0  0  0  0  0  0  0  0  0  0
  -18.0099  -26.3935   22.8093 C   0  0  0  0  0  0  0  0  0  0  0  0
  -29.1405  -27.7398   18.8825 C   0  0  0  0  0  0  0  0  0  0  0  0
  -23.1871  -19.4116   24.6056 C   0  0  0  0  0  0  0  0  0  0  0  0
  -30.1249  -26.4461   17.1856 C   0  0  0  0  0  0  0  0  0  0  0  0
  -29.8558  -25.0156   14.8057 C   0  0  0  0  0  0  0  0  0  0  0  0
  -30.4468  -25.0894   17.1472 C   0  0  0  0  0  0  0  0  0  0  0  0
  -25.6686  -29.5488   20.4862 C   0  0  0  0  0  0  0  0  0  0  0  0
  -18.8320  -26.4175   23.9093 C   0  0  0  0  0  0  0  0  0  0  0  0
  -23.7854  -30.6528   20.7503 C   0  0  0  0  0  0  0  0  0  0  0  0
  -24.6223  -30.6198   18.3951 C   0  0  0  0  0  0  0  0  0  0  0  0
  -26.2244  -16.1043   21.5558 C   0  0  0  0  0  0  0  0  0  0  0  0
  -28.3487  -18.5327   21.2210 C   0  0  0  0  0  0  0  0  0  0  0  0
  -29.2162  -21.7472   21.9704 C   0  0  0  0  0  0  0  0  0  0  0  0
  -21.3180  -28.6036   25.5697 C   0  0  0  0  0  0  0  0  0  0  0  0
  -25.1609  -11.7130   19.1803 C   0  0  0  0  0  0  0  0  0  0  0  0
  -24.7183  -17.9954   20.8406 C   0  0  0  0  0  0  0  0  0  0  0  0
  -26.5733  -18.8223   22.9900 C   0  0  0  0  0  0  0  0  0  0  0  0
  -26.3941  -12.5991   19.3363 C   0  0  0  0  0  0  0  0  0  0  0  0
  -23.8955  -31.0575   25.6764 C   0  0  0  0  0  0  0  0  0  0  0  0
  -26.6079  -12.9632   20.8021 C   0  0  0  0  0  0  0  0  0  0  0  0
  -24.5251  -30.9875   24.2840 C   0  0  0  0  0  0  0  0  0  0  0  0
  -19.4970  -23.5848   25.9470 C   0  0  0  0  0  0  0  0  0  0  0  0
  -21.4784  -24.1118   24.4563 C   0  0  0  0  0  0  0  0  0  0  0  0
  -23.4672  -29.6781   26.1721 C   0  0  0  0  0  0  0  0  0  0  0  0
  -23.2159  -28.8651   23.8592 C   0  0  0  0  0  0  0  0  0  0  0  0
  -20.4490  -23.0073   26.9863 C   0  0  0  0  0  0  0  0  0  0  0  0
  -22.4102  -23.5281   25.5102 C   0  0  0  0  0  0  0  0  0  0  0  0
  -25.4182  -13.7592   21.3520 C   0  0  1  0  0  0  0  0  0  0  0  0
  -26.1458  -17.4627   20.9185 C   0  0  1  0  0  0  0  0  0  0  0  0
  -23.6130  -30.2393   23.2933 C   0  0  2  0  0  0  0  0  0  0  0  0
  -20.1874  -24.6548   25.0878 C   0  0  0  0  0  0  0  0  0  0  0  0
  -15.9995  -27.8794   23.0008 C   0  0  0  0  0  0  0  0  0  0  0  0
  -31.0277  -23.4401   21.5829 C   0  0  0  0  0  0  0  0  0  0  0  0
  -30.1245  -17.0913   23.2405 C   0  0  0  0  0  0  0  0  0  0  0  0
  -31.4102  -19.2207   23.5251 C   0  0  0  0  0  0  0  0  0  0  0  0
  -31.3481  -18.0908   21.3020 C   0  0  0  0  0  0  0  0  0  0  0  0
  -27.3501  -23.6067   20.6218 C   0  0  0  0  0  0  0  0  0  0  0  0
  -17.2631  -27.5131   22.2122 C   0  0  0  0  0  0  0  0  0  0  0  0
  -19.2186  -27.5184   24.8121 C   0  0  0  0  0  0  0  0  0  0  0  0
  -22.5922  -21.7643   27.2631 C   0  0  0  0  0  0  0  0  0  0  0  0
  -23.4957  -20.8159   26.5000 C   0  0  0  0  0  0  0  0  0  1  0  0
  -29.2805  -19.2737   22.1493 C   0  0  1  0  0  0  0  0  0  0  0  0
  -29.6959  -22.8912   21.0954 C   0  0  2  0  0  0  0  0  0  0  0  0
  -30.5128  -18.4184   22.5587 C   0  0  0  0  0  0  0  0  0  0  0  0
  -18.8194  -24.2832   23.1398 N   0  0  0  0  0  0  0  0  0  0  0  0
  -25.4011  -29.4467   21.7908 N   0  0  0  0  0  0  0  0  0  0  0  0
  -19.2870  -25.1409   24.0627 N   0  0  0  0  0  0  0  0  0  0  0  0
  -24.2501  -30.1282   21.9204 N   0  0  0  0  0  0  0  0  0  0  0  0
  -27.0368  -18.3427   21.6775 N   0  0  0  0  0  0  0  0  0  0  0  0
  -22.6030  -29.0226   25.1875 N   0  0  0  0  0  0  0  0  0  0  0  0
  -22.6407  -31.3667   20.7010 N   0  0  0  0  0  0  0  0  0  0  0  0
  -25.6413  -30.1667   17.5462 N   0  0  0  0  0  0  0  0  0  0  0  0
  -25.4823  -15.1352   20.9080 N   0  0  0  0  0  0  0  0  0  0  0  0
  -29.6176  -20.5238   21.4770 N   0  0  0  0  0  0  0  0  0  0  0  0
  -20.5621  -27.9971   24.5740 N   0  0  0  0  0  0  0  0  0  0  0  0
  -21.6902  -22.4566   26.3084 N   0  3  0  0  0  0  0  0  0  0  0  0
  -28.7002  -24.0001   21.1008 N   0  3  0  0  0  0  0  0  0  0  0  0
  -23.6892  -31.3106   17.9199 O   0  0  0  0  0  0  0  0  0  0  0  0
  -26.9088  -15.9467   22.5600 O   0  0  0  0  0  0  0  0  0  0  0  0
  -28.7675  -18.1434   20.1279 O   0  0  0  0  0  0  0  0  0  0  0  0
  -28.5551  -21.9216   22.9916 O   0  0  0  0  0  0  0  0  0  0  0  0
  -20.8751  -28.7633   26.7122 O   0  0  0  0  0  0  0  0  0  0  0  0
  -30.2571  -27.1574   18.3664 O   0  0  0  0  0  0  0  0  0  0  0  0
  -22.7012  -19.8640   25.7935 O   0  0  0  0  0  0  0  0  0  1  0  0
  -29.7251  -24.3285   13.6634 F   0  0  0  0  0  0  0  0  0  0  0  0
  -30.8847  -24.4675   18.2505 F   0  0  0  0  0  0  0  0  0  0  0  0
  1  2  1  0  0  0  0
  1  5  2  0  0  0  0
  2  6  2  0  0  0  0
  3  8  2  0  0  0  0
  3 16  1  0  0  0  0
  4  9  1  0  0  0  0
  4 16  2  0  0  0  0
  5 18  1  0  0  0  0
  6 20  1  0  0  0  0
  7 10  2  0  0  0  0
  7 19  1  0  0  0  0
  8 23  1  0  0  0  0
  9 23  2  0  0  0  0
 10 24  1  0  0  0  0
 11 12  2  0  0  0  0
 11 25  1  0  0  0  0
 12 26  1  0  0  0  0
 13 21  1  0  0  0  0
 13 24  2  0  0  0  0
 14 26  2  0  0  0  0
 14 27  1  0  0  0  0
 15 22  1  0  0  0  0
 15 66  2  0  0  0  0
 16 28  1  0  0  0  0
 17 28  1  0  0  0  0
 17 30  2  0  0  0  0
 17 31  1  0  0  0  0
 18 20  2  0  0  0  0
 18 36  1  0  0  0  0
 19 21  2  0  0  0  0
 19 37  1  0  0  0  0
 20 49  1  0  0  0  0
 21 38  1  0  0  0  0
 22 29  2  0  0  0  0
 22 59  1  0  0  0  0
 23 84  1  0  0  0  0
 24 85  1  0  0  0  0
 25 27  2  0  0  0  0
 25 84  1  0  0  0  0
 26 86  1  0  0  0  0
 27 87  1  0  0  0  0
 28 67  2  0  0  0  0
 29 60  1  0  0  0  0
 29 68  1  0  0  0  0
 30 69  1  0  0  0  0
 30 72  1  0  0  0  0
 31 73  1  0  0  0  0
 31 79  2  0  0  0  0
 32 50  1  0  0  0  0
 32 74  1  0  0  0  0
 32 80  2  0  0  0  0
 33 63  1  0  0  0  0
 33 70  1  0  0  0  0
 33 81  2  0  0  0  0
 34 64  1  0  0  0  0
 34 75  1  0  0  0  0
 34 82  2  0  0  0  0
 35 71  1  0  0  0  0
 35 76  1  0  0  0  0
 35 83  2  0  0  0  0
 36 39  1  0  0  0  0
 37 50  1  0  0  0  0
 38 70  1  0  0  0  0
 39 41  1  0  0  0  0
 40 42  1  0  0  0  0
 40 45  1  0  0  0  0
 41 49  1  0  0  0  0
 42 51  1  0  0  0  0
 43 47  1  0  0  0  0
 43 52  1  0  0  0  0
 44 48  1  0  0  0  0
 44 52  1  0  0  0  0
 45 71  1  0  0  0  0
 46 51  1  0  0  0  0
 46 71  1  0  0  0  0
 47 77  1  0  0  0  0
 48 77  1  0  0  0  0
 49 74  1  0  0  0  0
 50 70  1  0  0  0  0
 51 69  1  0  0  0  0
 52 68  1  0  0  0  0
 53 59  1  0  0  0  0
 54 64  1  0  0  0  0
 55 65  1  0  0  0  0
 56 65  1  0  0  0  0
 57 65  1  0  0  0  0
 58 78  1  0  0  0  0
 60 76  1  0  0  0  0
 61 62  1  0  0  0  0
 61 77  1  0  0  0  0
 62 85  1  0  0  0  0
 63 65  1  0  0  0  0
 63 75  1  0  0  0  0
 64 78  1  0  0  0  0
 66 68  1  0  0  0  0
 67 69  1  0  0  0  0
M  CHG  2  77   1  78   1
M  ISO  4  35 100  62 101  76 100  85 101
M  END
> <Batch ID>
0196

> <Smiles>
CCc1cnn(C2CCN(C[101CH2:1][101O:1]c3ccc4c(c3)CN(C(=O)C(NC(=O)C(C)NC)C(C)(C)C)C(C(=O)NC3CCCc5ccccc53)C4)CC2)c1C[100NH:0][100C:0](=O)N1CCCC(n2nc(-c3ccc(Oc4ccc(F)cc4F)cc3)c(C(N)=O)c2N)C1

> <Shape>
0.216

> <Color>
0.048

> <Negative vol penalty>
0.000

$$$$

  -OEChem-04052323393D

 83 91  0     1  0  0  0  0  0999 V2000
  -28.7882  -30.7445   13.3900 C   0  0  0  0  0  0  0  0  0  0  0  0
  -28.7764  -29.7435   14.3561 C   0  0  0  0  0  0  0  0  0  0  0  0
  -23.0600   -9.8546   19.9770 C   0  0  0  0  0  0  0  0  0  0  0  0
  -23.8677   -9.9057   22.2534 C   0  0  0  0  0  0  0  0  0  0  0  0
  -28.3042  -32.0151   13.6984 C   0  0  0  0  0  0  0  0  0  0  0  0
  -28.2817  -30.0131   15.6317 C   0  0  0  0  0  0  0  0  0  0  0  0
  -25.2307  -26.3526   17.3456 C   0  0  0  0  0  0  0  0  0  0  0  0
  -22.3373   -8.6955   20.2594 C   0  0  0  0  0  0  0  0  0  0  0  0
  -23.1449   -8.7466   22.5358 C   0  0  0  0  0  0  0  0  0  0  0  0
  -25.8363  -25.1952   17.8329 C   0  0  0  0  0  0  0  0  0  0  0  0
  -23.4692   -5.4208   22.0209 C   0  0  0  0  0  0  0  0  0  0  0  0
  -24.1135   -4.4146   22.7405 C   0  0  0  0  0  0  0  0  0  0  0  0
  -25.5337  -25.9940   20.0889 C   0  0  0  0  0  0  0  0  0  0  0  0
  -22.4461   -4.5909   24.4800 C   0  0  0  0  0  0  0  0  0  0  0  0
  -23.8253  -10.4597   20.9740 C   0  0  0  0  0  0  0  0  0  0  0  0
  -24.1302  -12.9871   20.8100 C   0  0  0  0  0  0  0  0  0  0  0  0
  -27.7944  -32.2977   14.9754 C   0  0  0  0  0  0  0  0  0  0  0  0
  -24.7812  -27.3460   18.2274 C   0  0  0  0  0  0  0  0  0  0  0  0
  -27.7917  -31.2891   15.9579 C   0  0  0  0  0  0  0  0  0  0  0  0
  -24.9205  -27.1619   19.6104 C   0  0  0  0  0  0  0  0  0  0  0  0
  -22.3797   -8.1415   21.5388 C   0  0  0  0  0  0  0  0  0  0  0  0
  -25.9905  -25.0170   19.2046 C   0  0  0  0  0  0  0  0  0  0  0  0
  -22.3134   -6.0122   22.5308 C   0  0  0  0  0  0  0  0  0  0  0  0
  -23.6020   -3.9996   23.9700 C   0  0  0  0  0  0  0  0  0  0  0  0
  -21.8018   -5.5972   23.7603 C   0  0  0  0  0  0  0  0  0  0  0  0
  -24.5725  -11.6567   20.6827 C   0  0  0  0  0  0  0  0  0  0  0  0
  -25.2042  -13.7455   20.4128 C   0  0  0  0  0  0  0  0  0  0  0  0
  -22.8619  -13.4921   21.2482 C   0  0  0  0  0  0  0  0  0  0  0  0
  -25.5046  -30.4017   18.7209 C   0  0  0  0  0  0  0  0  0  0  0  0
  -23.0029  -30.2573   20.7808 C   0  0  0  0  0  0  0  0  0  0  0  0
  -20.9962  -28.3457   22.7722 C   0  0  0  0  0  0  0  0  0  0  0  0
  -30.8166  -14.5225   20.9192 C   0  0  0  0  0  0  0  0  0  0  0  0
  -27.3259  -33.6994   15.2762 C   0  0  0  0  0  0  0  0  0  0  0  0
  -24.1060  -28.5767   17.6869 C   0  0  0  0  0  0  0  0  0  0  0  0
  -24.4366  -28.1892   20.5999 C   0  0  0  0  0  0  0  0  0  0  0  0
  -26.4728  -33.7988   16.5382 C   0  0  0  0  0  0  0  0  0  0  0  0
  -29.5183  -12.4424   18.1391 C   0  0  0  0  0  0  0  0  0  0  0  0
  -27.1212  -33.0269   17.6831 C   0  0  0  0  0  0  0  0  0  0  0  0
  -28.1052  -12.1052   18.6113 C   0  0  0  0  0  0  0  0  0  0  0  0
  -31.4696  -17.3450   22.8280 C   0  0  0  0  0  0  0  0  0  0  0  0
  -29.4723  -17.7523   21.3356 C   0  0  0  0  0  0  0  0  0  0  0  0
  -30.4648  -12.6837   19.3109 C   0  0  0  0  0  0  0  0  0  0  0  0
  -31.0240  -15.8923   22.9724 C   0  0  0  0  0  0  0  0  0  0  0  0
  -29.0799  -16.2798   21.4886 C   0  0  0  0  0  0  0  0  0  0  0  0
  -28.5702  -13.3827   20.7406 C   0  0  0  0  0  0  0  0  0  0  0  0
  -27.2402  -31.5358   17.3454 C   0  0  1  0  0  0  0  0  0  0  0  0
  -24.1497  -29.7557   18.6541 C   0  0  1  0  0  0  0  0  0  0  0  0
  -27.5821  -13.1775   19.5825 C   0  0  2  0  0  0  0  0  0  0  0  0
  -30.2640  -18.2397   22.5471 C   0  0  0  0  0  0  0  0  0  0  0  0
  -19.0624  -28.5155   24.3624 C   0  0  0  0  0  0  0  0  0  0  0  0
  -31.3244  -22.4507   23.1989 C   0  0  0  0  0  0  0  0  0  0  0  0
  -24.8686  -31.3617   22.9278 C   0  0  0  0  0  0  0  0  0  0  0  0
  -23.2094  -30.6229   24.6510 C   0  0  0  0  0  0  0  0  0  0  0  0
  -22.5629  -32.3299   22.9508 C   0  0  0  0  0  0  0  0  0  0  0  0
  -19.3006  -26.6096   21.0781 C   0  0  0  0  0  0  0  0  0  0  0  0
  -28.4182  -22.9735   20.9291 C   0  0  0  0  0  0  0  0  0  0  0  0
  -29.6791  -20.6643   22.4127 C   0  0  0  0  0  0  0  0  0  0  0  0
  -27.2950  -23.9989   20.9127 C   0  0  0  0  0  0  0  0  0  1  0  0
  -22.8401  -29.9187   22.2429 C   0  0  1  0  0  0  0  0  0  0  0  0
  -19.4866  -28.2863   22.9201 C   0  0  2  0  0  0  0  0  0  0  0  0
  -30.2481  -22.0649   22.1888 C   0  0  1  0  0  0  0  0  0  0  0  0
  -23.3812  -31.0396   23.1746 C   0  0  0  0  0  0  0  0  0  0  0  0
  -25.8295  -11.5715   20.2391 N   0  0  0  0  0  0  0  0  0  0  0  0
  -26.1862  -12.8579   20.0842 N   0  0  0  0  0  0  0  0  0  0  0  0
  -23.7887  -29.3782   20.0221 N   0  0  0  0  0  0  0  0  0  0  0  0
  -29.9247  -13.6717   20.2451 N   0  0  0  0  0  0  0  0  0  0  0  0
  -30.2568  -15.4566   21.8039 N   0  0  0  0  0  0  0  0  0  0  0  0
  -25.3949  -15.0784   20.3159 N   0  0  0  0  0  0  0  0  0  0  0  0
  -21.8697  -12.5747   21.6200 N   0  0  0  0  0  0  0  0  0  0  0  0
  -25.9616  -30.8774   17.5067 N   0  0  0  0  0  0  0  0  0  0  0  0
  -21.4270  -29.6116   22.4359 N   0  0  0  0  0  0  0  0  0  0  0  0
  -29.1982  -23.0564   22.1618 N   0  0  0  0  0  0  0  0  0  0  0  0
  -30.7367  -19.6252   22.2930 N   0  3  0  0  0  0  0  0  0  0  0  0
  -18.9756  -26.9554   22.4858 N   0  3  0  0  0  0  0  0  0  0  0  0
  -22.6101  -14.7202   21.2926 O   0  0  0  0  0  0  0  0  0  0  0  0
  -26.0914  -30.4652   19.7949 O   0  0  0  0  0  0  0  0  0  0  0  0
  -22.4474  -31.2608   20.3269 O   0  0  0  0  0  0  0  0  0  0  0  0
  -21.7212  -27.3678   22.9419 O   0  0  0  0  0  0  0  0  0  0  0  0
  -32.0387  -14.4519   20.7387 O   0  0  0  0  0  0  0  0  0  0  0  0
  -21.6744   -7.0106   21.8148 O   0  0  0  0  0  0  0  0  0  0  0  0
  -26.5860  -23.8805   19.6863 O   0  0  0  0  0  0  0  0  0  1  0  0
  -24.2199   -3.0321   24.6602 F   0  0  0  0  0  0  0  0  0  0  0  0
  -20.6911   -6.1608   24.2548 F   0  0  0  0  0  0  0  0  0  0  0  0
  1  2  1  0  0  0  0
  1  5  2  0  0  0  0
  2  6  2  0  0  0  0
  3  8  2  0  0  0  0
  3 15  1  0  0  0  0
  4  9  1  0  0  0  0
  4 15  2  0  0  0  0
  5 17  1  0  0  0  0
  6 19  1  0  0  0  0
  7 10  2  0  0  0  0
  7 18  1  0  0  0  0
  8 21  1  0  0  0  0
  9 21  2  0  0  0  0
 10 22  1  0  0  0  0
 11 12  2  0  0  0  0
 11 23  1  0  0  0  0
 12 24  1  0  0  0  0
 13 20  1  0  0  0  0
 13 22  2  0  0  0  0
 14 24  2  0  0  0  0
 14 25  1  0  0  0  0
 15 26  1  0  0  0  0
 16 26  1  0  0  0  0
 16 27  2  0  0  0  0
 16 28  1  0  0  0  0
 17 19  2  0  0  0  0
 17 33  1  0  0  0  0
 18 20  2  0  0  0  0
 18 34  1  0  0  0  0
 19 46  1  0  0  0  0
 20 35  1  0  0  0  0
 21 80  1  0  0  0  0
 22 81  1  0  0  0  0
 23 25  2  0  0  0  0
 23 80  1  0  0  0  0
 24 82  1  0  0  0  0
 25 83  1  0  0  0  0
 26 63  2  0  0  0  0
 27 64  1  0  0  0  0
 27 68  1  0  0  0  0
 28 69  1  0  0  0  0
 28 75  2  0  0  0  0
 29 47  1  0  0  0  0
 29 70  1  0  0  0  0
 29 76  2  0  0  0  0
 30 59  1  0  0  0  0
 30 65  1  0  0  0  0
 30 77  2  0  0  0  0
 31 60  1  0  0  0  0
 31 71  1  0  0  0  0
 31 78  2  0  0  0  0
 32 66  1  0  0  0  0
 32 67  1  0  0  0  0
 32 79  2  0  0  0  0
 33 36  1  0  0  0  0
 34 47  1  0  0  0  0
 35 65  1  0  0  0  0
 36 38  1  0  0  0  0
 37 39  1  0  0  0  0
 37 42  1  0  0  0  0
 38 46  1  0  0  0  0
 39 48  1  0  0  0  0
 40 43  1  0  0  0  0
 40 49  1  0  0  0  0
 41 44  1  0  0  0  0
 41 49  1  0  0  0  0
 42 66  1  0  0  0  0
 43 67  1  0  0  0  0
 44 67  1  0  0  0  0
 45 48  1  0  0  0  0
 45 66  1  0  0  0  0
 46 70  1  0  0  0  0
 47 65  1  0  0  0  0
 48 64  1  0  0  0  0
 49 73  1  0  0  0  0
 50 60  1  0  0  0  0
 51 61  1  0  0  0  0
 52 62  1  0  0  0  0
 53 62  1  0  0  0  0
 54 62  1  0  0  0  0
 55 74  1  0  0  0  0
 56 58  1  0  0  0  0
 56 72  1  0  0  0  0
 57 61  1  0  0  0  0
 57 73  1  0  0  0  0
 58 81  1  0  0  0  0
 59 62  1  0  0  0  0
 59 71  1  0  0  0  0
 60 74  1  0  0  0  0
 61 72  1  0  0  0  0
 63 64  1  0  0  0  0
M  CHG  2  73   1  74   1
M  ISO  4  32 100  58 101  67 100  81 101
M  END
> <Batch ID>
0196

> <Smiles>
CNC(C)C(=O)NC(C(=O)N1Cc2cc([101O:1][101CH2:1]CNC(C)CNC3CC[100N:0]([100C:0](=O)N4CCCC(n5nc(-c6ccc(Oc7ccc(F)cc7F)cc6)c(C(N)=O)c5N)C4)CC3)ccc2CC1C(=O)NC1CCCc2ccccc21)C(C)(C)C

> <Shape>
0.333

> <Color>
0.204

> <Negative vol penalty>
0.000

$$$$

  -OEChem-04052323393D

 89 98  0     1  0  0  0  0  0999 V2000
  -18.4637  -24.8317   23.4395 C   0  0  0  0  0  0  0  0  0  0  0  0
  -19.7404  -24.6547   22.9158 C   0  0  0  0  0  0  0  0  0  0  0  0
  -23.4881  -12.7266   21.8749 C   0  0  0  0  0  0  0  0  0  0  0  0
  -22.5935  -13.4535   19.7516 C   0  0  0  0  0  0  0  0  0  0  0  0
  -17.8725  -26.0942   23.4202 C   0  0  0  0  0  0  0  0  0  0  0  0
  -20.4261  -25.7400   22.3715 C   0  0  0  0  0  0  0  0  0  0  0  0
  -26.4616  -26.7585   22.5746 C   0  0  0  0  0  0  0  0  0  0  0  0
  -22.2266  -12.2626   22.2476 C   0  0  0  0  0  0  0  0  0  0  0  0
  -21.3320  -12.9895   20.1243 C   0  0  0  0  0  0  0  0  0  0  0  0
  -27.4824  -26.5335   21.6521 C   0  0  0  0  0  0  0  0  0  0  0  0
  -17.9529  -11.6710   20.3723 C   0  0  0  0  0  0  0  0  0  0  0  0
  -17.2270  -10.9385   19.4332 C   0  0  0  0  0  0  0  0  0  0  0  0
  -27.3052  -28.8211   20.9071 C   0  0  0  0  0  0  0  0  0  0  0  0
  -18.9918   -9.2904   19.3545 C   0  0  0  0  0  0  0  0  0  0  0  0
  -23.6716  -13.3221   20.6269 C   0  0  0  0  0  0  0  0  0  0  0  0
  -25.9813  -13.0824   19.5707 C   0  0  0  0  0  0  0  0  0  0  0  0
  -18.5551  -27.1974   22.8840 C   0  0  0  0  0  0  0  0  0  0  0  0
  -25.8465  -28.0156   22.6630 C   0  0  0  0  0  0  0  0  0  0  0  0
  -19.8429  -27.0182   22.3437 C   0  0  0  0  0  0  0  0  0  0  0  0
  -26.2786  -29.0602   21.8334 C   0  0  0  0  0  0  0  0  0  0  0  0
  -21.1485  -12.3941   21.3723 C   0  0  0  0  0  0  0  0  0  0  0  0
  -27.9024  -27.5640   20.8162 C   0  0  0  0  0  0  0  0  0  0  0  0
  -19.1983  -11.2133   20.8026 C   0  0  0  0  0  0  0  0  0  0  0  0
  -17.7464   -9.7482   18.9243 C   0  0  0  0  0  0  0  0  0  0  0  0
  -19.7178  -10.0229   20.2937 C   0  0  0  0  0  0  0  0  0  0  0  0
  -24.9743  -13.8021   20.2416 C   0  0  0  0  0  0  0  0  0  0  0  0
  -26.9117  -22.5129   15.8999 C   0  0  0  0  0  0  0  0  0  0  0  0
  -26.1173  -22.1394   14.8384 C   0  0  0  0  0  0  0  0  0  0  0  0
  -26.3729  -20.5738   16.9857 C   0  0  0  0  0  0  0  0  0  0  0  0
  -25.5778  -20.2005   15.9246 C   0  0  0  0  0  0  0  0  0  0  0  0
  -27.0147  -13.9777   19.4409 C   0  0  0  0  0  0  0  0  0  0  0  0
  -25.9823  -11.7259   19.1064 C   0  0  0  0  0  0  0  0  0  0  0  0
  -22.8915  -29.1026   22.2262 C   0  0  0  0  0  0  0  0  0  0  0  0
  -24.1649  -31.8734   23.3323 C   0  0  0  0  0  0  0  0  0  0  0  0
  -26.9409  -33.8026   23.8003 C   0  0  0  0  0  0  0  0  0  0  0  0
  -27.2471  -19.9460   19.2634 C   0  0  0  0  0  0  0  0  0  0  0  0
  -17.8563  -28.5333   22.8423 C   0  0  0  0  0  0  0  0  0  0  0  0
  -24.7650  -28.2497   23.6818 C   0  0  0  0  0  0  0  0  0  0  0  0
  -25.6646  -30.4337   21.9027 C   0  0  0  0  0  0  0  0  0  0  0  0
  -18.7993  -29.7063   22.5872 C   0  0  0  0  0  0  0  0  0  0  0  0
  -28.9326  -17.8169   21.5662 C   0  0  0  0  0  0  0  0  0  0  0  0
  -19.7487  -29.3876   21.4367 C   0  0  0  0  0  0  0  0  0  0  0  0
  -28.2044  -16.4785   21.4224 C   0  0  0  0  0  0  0  0  0  0  0  0
  -26.7899  -24.9289   16.4789 C   0  0  0  0  0  0  0  0  0  0  0  0
  -28.9683  -23.6657   16.6927 C   0  0  0  0  0  0  0  0  0  0  0  0
  -27.9742  -19.0001   21.4432 C   0  0  0  0  0  0  0  0  0  0  0  0
  -26.4091  -17.6600   20.0927 C   0  0  0  0  0  0  0  0  0  0  0  0
  -27.5550  -26.2434   16.5643 C   0  0  0  0  0  0  0  0  0  0  0  0
  -29.7167  -24.9899   16.7761 C   0  0  0  0  0  0  0  0  0  0  0  0
  -20.6285  -28.1759   21.7670 C   0  0  1  0  0  0  0  0  0  0  0  0
  -27.6619  -23.8058   15.8948 C   0  0  0  0  0  0  0  0  0  0  0  0
  -23.8577  -29.4249   23.3309 C   0  0  1  0  0  0  0  0  0  0  0  0
  -27.3432  -16.4400   20.1447 C   0  0  2  0  0  0  0  0  0  0  0  0
  -27.6614  -36.0334   24.6957 C   0  0  0  0  0  0  0  0  0  0  0  0
  -23.0768  -33.2287   20.8245 C   0  0  0  0  0  0  0  0  0  0  0  0
  -24.6005  -35.1596   21.2914 C   0  0  0  0  0  0  0  0  0  0  0  0
  -22.8147  -34.5586   22.9262 C   0  0  0  0  0  0  0  0  0  0  0  0
  -24.6922  -23.4420   11.5335 C   0  0  0  0  0  0  0  0  0  0  0  0
  -28.6710  -32.5513   25.8497 C   0  0  0  0  0  0  0  0  0  0  0  0
  -25.9691  -23.0069   13.6356 C   0  0  0  0  0  0  0  0  0  0  0  0
  -29.5426  -27.3372   17.5977 C   0  0  0  0  0  0  0  0  0  0  0  0
  -28.8608  -28.1102   18.7093 C   0  0  0  0  0  0  0  0  0  1  0  0
  -24.8426  -33.0655   22.7011 C   0  0  1  0  0  0  0  0  0  0  0  0
  -27.4472  -34.5617   25.0135 C   0  0  2  0  0  0  0  0  0  0  0  0
  -23.8441  -33.9768   21.9329 C   0  0  0  0  0  0  0  0  0  0  0  0
  -25.3355  -15.0577   20.5187 N   0  0  0  0  0  0  0  0  0  0  0  0
  -27.0538  -21.7368   16.9926 N   0  0  0  0  0  0  0  0  0  0  0  0
  -25.4360  -20.9765   14.8317 N   0  0  0  0  0  0  0  0  0  0  0  0
  -26.5810  -15.1341   20.0196 N   0  0  0  0  0  0  0  0  0  0  0  0
  -24.6064  -30.6111   22.9108 N   0  0  0  0  0  0  0  0  0  0  0  0
  -27.1951  -18.8986   20.2073 N   0  0  0  0  0  0  0  0  0  0  0  0
  -28.2430  -13.8808   18.8893 N   0  0  0  0  0  0  0  0  0  0  0  0
  -24.8385  -10.9451   19.3218 N   0  0  0  0  0  0  0  0  0  0  0  0
  -26.4912  -19.7234   18.1129 N   0  0  0  0  0  0  0  0  0  0  0  0
  -21.6991  -28.5578   22.6629 N   0  0  0  0  0  0  0  0  0  0  0  0
  -25.5637  -33.7410   23.7745 N   0  0  0  0  0  0  0  0  0  0  0  0
  -28.8223  -26.0578   17.3773 N   0  3  0  0  0  0  0  0  0  0  0  0
  -24.8213  -22.6238   12.7671 N   0  3  0  0  0  0  0  0  0  0  0  0
  -28.7412  -33.9885   25.4803 N   0  3  0  0  0  0  0  0  0  0  0  0
  -26.9744  -11.2162   18.5324 O   0  0  0  0  0  0  0  0  0  0  0  0
  -23.2042  -29.3326   21.0639 O   0  0  0  0  0  0  0  0  0  0  0  0
  -23.2816  -32.0553   24.1739 O   0  0  0  0  0  0  0  0  0  0  0  0
  -27.6920  -33.3164   22.9577 O   0  0  0  0  0  0  0  0  0  0  0  0
  -27.9348  -20.9532   19.4490 O   0  0  0  0  0  0  0  0  0  0  0  0
  -19.9175  -11.9412   21.7356 O   0  0  0  0  0  0  0  0  0  0  0  0
  -28.8981  -27.3469   19.9144 O   0  0  0  0  0  0  0  0  0  1  0  0
  -17.0485   -9.0441   18.0236 F   0  0  0  0  0  0  0  0  0  0  0  0
  -20.9132   -9.5775   20.7041 F   0  0  0  0  0  0  0  0  0  0  0  0
  -24.6893  -18.7326   15.8639 Cl  0  0  0  0  0  0  0  0  0  0  0  0
  1  2  1  0  0  0  0
  1  5  2  0  0  0  0
  2  6  2  0  0  0  0
  3  8  2  0  0  0  0
  3 15  1  0  0  0  0
  4  9  1  0  0  0  0
  4 15  2  0  0  0  0
  5 17  1  0  0  0  0
  6 19  1  0  0  0  0
  7 10  2  0  0  0  0
  7 18  1  0  0  0  0
  8 21  1  0  0  0  0
  9 21  2  0  0  0  0
 10 22  1  0  0  0  0
 11 12  2  0  0  0  0
 11 23  1  0  0  0  0
 12 24  1  0  0  0  0
 13 20  1  0  0  0  0
 13 22  2  0  0  0  0
 14 24  2  0  0  0  0
 14 25  1  0  0  0  0
 15 26  1  0  0  0  0
 16 26  1  0  0  0  0
 16 31  2  0  0  0  0
 16 32  1  0  0  0  0
 17 19  2  0  0  0  0
 17 37  1  0  0  0  0
 18 20  2  0  0  0  0
 18 38  1  0  0  0  0
 19 50  1  0  0  0  0
 20 39  1  0  0  0  0
 21 85  1  0  0  0  0
 22 86  1  0  0  0  0
 23 25  2  0  0  0  0
 23 85  1  0  0  0  0
 24 87  1  0  0  0  0
 25 88  1  0  0  0  0
 26 66  2  0  0  0  0
 27 28  2  0  0  0  0
 27 51  1  0  0  0  0
 27 67  1  0  0  0  0
 28 60  1  0  0  0  0
 28 68  1  0  0  0  0
 29 30  1  0  0  0  0
 29 67  2  0  0  0  0
 29 74  1  0  0  0  0
 30 68  2  0  0  0  0
 30 89  1  0  0  0  0
 31 69  1  0  0  0  0
 31 72  1  0  0  0  0
 32 73  1  0  0  0  0
 32 80  2  0  0  0  0
 33 52  1  0  0  0  0
 33 75  1  0  0  0  0
 33 81  2  0  0  0  0
 34 63  1  0  0  0  0
 34 70  1  0  0  0  0
 34 82  2  0  0  0  0
 35 64  1  0  0  0  0
 35 76  1  0  0  0  0
 35 83  2  0  0  0  0
 36 71  1  0  0  0  0
 36 74  1  0  0  0  0
 36 84  2  0  0  0  0
 37 40  1  0  0  0  0
 38 52  1  0  0  0  0
 39 70  1  0  0  0  0
 40 42  1  0  0  0  0
 41 43  1  0  0  0  0
 41 46  1  0  0  0  0
 42 50  1  0  0  0  0
 43 53  1  0  0  0  0
 44 48  1  0  0  0  0
 44 51  1  0  0  0  0
 45 49  1  0  0  0  0
 45 51  1  0  0  0  0
 46 71  1  0  0  0  0
 47 53  1  0  0  0  0
 47 71  1  0  0  0  0
 48 77  1  0  0  0  0
 49 77  1  0  0  0  0
 50 75  1  0  0  0  0
 52 70  1  0  0  0  0
 53 69  1  0  0  0  0
 54 64  1  0  0  0  0
 55 65  1  0  0  0  0
 56 65  1  0  0  0  0
 57 65  1  0  0  0  0
 58 78  1  0  0  0  0
 59 79  1  0  0  0  0
 60 78  1  0  0  0  0
 61 62  1  0  0  0  0
 61 77  1  0  0  0  0
 62 86  1  0  0  0  0
 63 65  1  0  0  0  0
 63 76  1  0  0  0  0
 64 79  1  0  0  0  0
 66 69  1  0  0  0  0
M  CHG  3  77   1  78   1  79   1
M  ISO  4  36 100  62 101  74 100  86 101
M  END
> <Batch ID>
0196

> <Smiles>
CNCc1nc(Cl)c([100NH:0][100C:0](=O)N2CCCC(n3nc(-c4ccc(Oc5ccc(F)cc5F)cc4)c(C(N)=O)c3N)C2)nc1C1CCN(C[101CH2:1][101O:1]c2ccc3c(c2)CN(C(=O)C(NC(=O)C(C)NC)C(C)(C)C)C(C(=O)NC2CCCc4ccccc42)C3)CC1

> <Shape>
0.253

> <Color>
0.077

> <Negative vol penalty>
0.000

$$$$

  -OEChem-04052323393D

 86 96  0     1  0  0  0  0  0999 V2000
  -23.1878  -37.7197   18.5524 C   0  0  0  0  0  0  0  0  0  0  0  0
  -23.5403  -36.5492   17.8883 C   0  0  0  0  0  0  0  0  0  0  0  0
  -22.0188  -11.4537   21.3406 C   0  0  0  0  0  0  0  0  0  0  0  0
  -22.6610  -11.1925   19.0262 C   0  0  0  0  0  0  0  0  0  0  0  0
  -23.6321  -37.9415   19.8553 C   0  0  0  0  0  0  0  0  0  0  0  0
  -24.3383  -35.6002   18.5262 C   0  0  0  0  0  0  0  0  0  0  0  0
  -25.3913  -28.5235   18.8844 C   0  0  0  0  0  0  0  0  0  0  0  0
  -20.7930  -10.8462   21.0691 C   0  0  0  0  0  0  0  0  0  0  0  0
  -21.4351  -10.5848   18.7547 C   0  0  0  0  0  0  0  0  0  0  0  0
  -26.4124  -27.5799   18.7806 C   0  0  0  0  0  0  0  0  0  0  0  0
  -20.0174   -7.5453   19.1697 C   0  0  0  0  0  0  0  0  0  0  0  0
  -20.0279   -6.3877   18.3917 C   0  0  0  0  0  0  0  0  0  0  0  0
  -27.0559  -28.0343   21.0607 C   0  0  0  0  0  0  0  0  0  0  0  0
  -18.6315   -7.4787   16.7495 C   0  0  0  0  0  0  0  0  0  0  0  0
  -31.4588  -22.9490   18.7617 C   0  0  0  0  0  0  0  0  0  0  0  0
  -22.9528  -11.6270   20.3191 C   0  0  0  0  0  0  0  0  0  0  0  0
  -25.4111  -11.6231   21.0008 C   0  0  0  0  0  0  0  0  0  0  0  0
  -24.4280  -36.9903   20.5130 C   0  0  0  0  0  0  0  0  0  0  0  0
  -25.2014  -29.2386   20.0757 C   0  0  0  0  0  0  0  0  0  0  0  0
  -24.7948  -35.8100   19.8386 C   0  0  0  0  0  0  0  0  0  0  0  0
  -26.0300  -28.9846   21.1779 C   0  0  0  0  0  0  0  0  0  0  0  0
  -20.5011  -10.4117   19.7761 C   0  0  0  0  0  0  0  0  0  0  0  0
  -27.2467  -27.3373   19.8679 C   0  0  0  0  0  0  0  0  0  0  0  0
  -19.3139   -8.6697   18.7377 C   0  0  0  0  0  0  0  0  0  0  0  0
  -19.3349   -6.3544   17.1816 C   0  0  0  0  0  0  0  0  0  0  0  0
  -18.6210   -8.6364   17.5276 C   0  0  0  0  0  0  0  0  0  0  0  0
  -24.2190  -12.2550   20.5989 C   0  0  0  0  0  0  0  0  0  0  0  0
  -30.8092  -25.1345   18.5849 C   0  0  0  0  0  0  0  0  0  0  0  0
  -29.4885  -24.7439   18.6084 C   0  0  0  0  0  0  0  0  0  0  0  0
  -30.1381  -22.5584   18.7859 C   0  0  0  0  0  0  0  0  0  0  0  0
  -26.3150  -12.6485   21.1350 C   0  0  0  0  0  0  0  0  0  0  0  0
  -25.6775  -10.2334   21.2321 C   0  0  0  0  0  0  0  0  0  0  0  0
  -25.3220  -32.3081   20.8928 C   0  0  0  0  0  0  0  0  0  0  0  0
  -24.2416  -31.1904   23.7400 C   0  0  0  0  0  0  0  0  0  0  0  0
  -23.9662  -28.5685   25.9071 C   0  0  0  0  0  0  0  0  0  0  0  0
  -28.7030  -17.1637   19.4756 C   0  0  0  0  0  0  0  0  0  0  0  0
  -24.9234  -37.2956   21.9044 C   0  0  0  0  0  0  0  0  0  0  0  0
  -24.0785  -30.2339   20.1802 C   0  0  0  0  0  0  0  0  0  0  0  0
  -25.8551  -29.7109   22.4857 C   0  0  0  0  0  0  0  0  0  0  0  0
  -25.4549  -36.0706   22.6442 C   0  0  0  0  0  0  0  0  0  0  0  0
  -25.6520  -17.6559   21.1455 C   0  0  0  0  0  0  0  0  0  0  0  0
  -26.3832  -35.2635   21.7423 C   0  0  0  0  0  0  0  0  0  0  0  0
  -32.5105  -27.0316   19.0097 C   0  0  0  0  0  0  0  0  0  0  0  0
  -31.2508  -27.4124   19.7227 C   0  0  0  0  0  0  0  0  0  0  0  0
  -25.0948  -16.2333   21.1857 C   0  0  0  0  0  0  0  0  0  0  0  0
  -26.3242  -17.9705   19.8080 C   0  0  0  0  0  0  0  0  0  0  0  0
  -30.3242  -20.4466   20.0642 C   0  0  0  0  0  0  0  0  0  0  0  0
  -28.6255  -20.6993   18.2485 C   0  0  0  0  0  0  0  0  0  0  0  0
  -30.3786  -18.9480   19.7796 C   0  0  0  0  0  0  0  0  0  0  0  0
  -28.7194  -19.2000   17.9879 C   0  0  0  0  0  0  0  0  0  0  0  0
  -26.8062  -15.5704   19.4539 C   0  0  0  0  0  0  0  0  0  0  0  0
  -25.6383  -34.7455   20.5060 C   0  0  1  0  0  0  0  0  0  0  0  0
  -31.1796  -26.5752   18.4729 C   0  0  0  0  0  0  0  0  0  0  0  0
  -24.3014  -31.2734   21.2744 C   0  0  1  0  0  0  0  0  0  0  0  0
  -26.1761  -15.2056   20.8071 C   0  0  2  0  0  0  0  0  0  0  0  0
  -23.0632  -27.9703   28.1707 C   0  0  0  0  0  0  0  0  0  0  0  0
  -26.5874  -32.6327   25.0542 C   0  0  0  0  0  0  0  0  0  0  0  0
  -26.1962  -31.2524   27.1060 C   0  0  0  0  0  0  0  0  0  0  0  0
  -24.4245  -32.8110   26.2970 C   0  0  0  0  0  0  0  0  0  0  0  0
  -22.1327  -26.5434   24.7687 C   0  0  0  0  0  0  0  0  0  0  0  0
  -28.3801  -25.7371   18.5222 C   0  0  0  0  0  0  0  0  0  1  0  0
  -24.8906  -30.6873   25.0067 C   0  0  1  0  0  0  0  0  0  0  0  0
  -22.7793  -28.0189   26.6775 C   0  0  2  0  0  0  0  0  0  0  0  0
  -25.5295  -31.8334   25.8409 C   0  0  0  0  0  0  0  0  0  0  0  0
  -31.8181  -24.2441   18.6608 N   0  0  0  0  0  0  0  0  0  0  0  0
  -24.3505  -13.5794   20.4853 N   0  0  0  0  0  0  0  0  0  0  0  0
  -29.1292  -23.4488   18.7096 N   0  0  0  0  0  0  0  0  0  0  0  0
  -25.6358  -13.7880   20.8180 N   0  0  0  0  0  0  0  0  0  0  0  0
  -29.8512  -21.1915   18.8923 N   0  0  0  0  0  0  0  0  0  0  0  0
  -24.7471  -30.6791   22.5363 N   0  0  0  0  0  0  0  0  0  0  0  0
  -27.3177  -16.9425   19.4701 N   0  0  0  0  0  0  0  0  0  0  0  0
  -29.1386  -18.4658   19.1835 N   0  0  0  0  0  0  0  0  0  0  0  0
  -27.6165  -12.6776   21.4921 N   0  0  0  0  0  0  0  0  0  0  0  0
  -24.6360   -9.3137   21.0477 N   0  0  0  0  0  0  0  0  0  0  0  0
  -24.8268  -33.5974   20.8491 N   0  0  0  0  0  0  0  0  0  0  0  0
  -23.8657  -29.9306   25.7177 N   0  0  0  0  0  0  0  0  0  0  0  0
  -22.4557  -26.6394   26.2155 N   0  3  0  0  0  0  0  0  0  0  0  0
  -26.8012   -9.8212   21.6075 O   0  0  0  0  0  0  0  0  0  0  0  0
  -26.4738  -31.9624   20.6571 O   0  0  0  0  0  0  0  0  0  0  0  0
  -23.3155  -32.0017   23.8159 O   0  0  0  0  0  0  0  0  0  0  0  0
  -24.8919  -27.8610   25.5160 O   0  0  0  0  0  0  0  0  0  0  0  0
  -29.5040  -16.2553   19.7289 O   0  0  0  0  0  0  0  0  0  0  0  0
  -19.3051   -9.8185   19.5109 O   0  0  0  0  0  0  0  0  0  0  0  0
  -28.2513  -26.4110   19.7684 O   0  0  0  0  0  0  0  0  0  1  0  0
  -19.3463   -5.2431   16.4338 F   0  0  0  0  0  0  0  0  0  0  0  0
  -17.9443   -9.7138   17.1067 F   0  0  0  0  0  0  0  0  0  0  0  0
  1  2  1  0  0  0  0
  1  5  2  0  0  0  0
  2  6  2  0  0  0  0
  3  8  2  0  0  0  0
  3 16  1  0  0  0  0
  4  9  1  0  0  0  0
  4 16  2  0  0  0  0
  5 18  1  0  0  0  0
  6 20  1  0  0  0  0
  7 10  2  0  0  0  0
  7 19  1  0  0  0  0
  8 22  1  0  0  0  0
  9 22  2  0  0  0  0
 10 23  1  0  0  0  0
 11 12  2  0  0  0  0
 11 24  1  0  0  0  0
 12 25  1  0  0  0  0
 13 21  1  0  0  0  0
 13 23  2  0  0  0  0
 14 25  2  0  0  0  0
 14 26  1  0  0  0  0
 15 30  1  0  0  0  0
 15 65  2  0  0  0  0
 16 27  1  0  0  0  0
 17 27  1  0  0  0  0
 17 31  2  0  0  0  0
 17 32  1  0  0  0  0
 18 20  2  0  0  0  0
 18 37  1  0  0  0  0
 19 21  2  0  0  0  0
 19 38  1  0  0  0  0
 20 52  1  0  0  0  0
 21 39  1  0  0  0  0
 22 83  1  0  0  0  0
 23 84  1  0  0  0  0
 24 26  2  0  0  0  0
 24 83  1  0  0  0  0
 25 85  1  0  0  0  0
 26 86  1  0  0  0  0
 27 66  2  0  0  0  0
 28 29  2  0  0  0  0
 28 53  1  0  0  0  0
 28 65  1  0  0  0  0
 29 61  1  0  0  0  0
 29 67  1  0  0  0  0
 30 67  2  0  0  0  0
 30 69  1  0  0  0  0
 31 68  1  0  0  0  0
 31 73  1  0  0  0  0
 32 74  1  0  0  0  0
 32 78  2  0  0  0  0
 33 54  1  0  0  0  0
 33 75  1  0  0  0  0
 33 79  2  0  0  0  0
 34 62  1  0  0  0  0
 34 70  1  0  0  0  0
 34 80  2  0  0  0  0
 35 63  1  0  0  0  0
 35 76  1  0  0  0  0
 35 81  2  0  0  0  0
 36 71  1  0  0  0  0
 36 72  1  0  0  0  0
 36 82  2  0  0  0  0
 37 40  1  0  0  0  0
 38 54  1  0  0  0  0
 39 70  1  0  0  0  0
 40 42  1  0  0  0  0
 41 45  1  0  0  0  0
 41 46  1  0  0  0  0
 42 52  1  0  0  0  0
 43 44  1  0  0  0  0
 43 53  1  0  0  0  0
 44 53  1  0  0  0  0
 45 55  1  0  0  0  0
 46 71  1  0  0  0  0
 47 49  1  0  0  0  0
 47 69  1  0  0  0  0
 48 50  1  0  0  0  0
 48 69  1  0  0  0  0
 49 72  1  0  0  0  0
 50 72  1  0  0  0  0
 51 55  1  0  0  0  0
 51 71  1  0  0  0  0
 52 75  1  0  0  0  0
 54 70  1  0  0  0  0
 55 68  1  0  0  0  0
 56 63  1  0  0  0  0
 57 64  1  0  0  0  0
 58 64  1  0  0  0  0
 59 64  1  0  0  0  0
 60 77  1  0  0  0  0
 61 84  1  0  0  0  0
 62 64  1  0  0  0  0
 62 76  1  0  0  0  0
 63 77  1  0  0  0  0
 66 68  1  0  0  0  0
M  CHG  1  77   1
M  ISO  4  36 100  61 101  72 100  84 101
M  END
> <Batch ID>
0196

> <Smiles>
CNC(C)C(=O)NC(C(=O)N1Cc2cc([101O:1][101CH2:1]c3nc(N4CC[100N:0]([100C:0](=O)N5CCCC(n6nc(-c7ccc(Oc8ccc(F)cc8F)cc7)c(C(N)=O)c6N)C5)CC4)cnc3C3CC3)ccc2CC1C(=O)NC1CCCc2ccccc21)C(C)(C)C

> <Shape>
0.268

> <Color>
0.111

> <Negative vol penalty>
0.000

$$$$

  -OEChem-04052323393D

 87 97  0     1  0  0  0  0  0999 V2000
  -25.3358  -38.6024   19.0341 C   0  0  0  0  0  0  0  0  0  0  0  0
  -25.6147  -37.4369   18.3275 C   0  0  0  0  0  0  0  0  0  0  0  0
  -22.4583   -9.4934   20.0977 C   0  0  0  0  0  0  0  0  0  0  0  0
  -23.6770   -9.3122   22.1759 C   0  0  0  0  0  0  0  0  0  0  0  0
  -25.5308  -38.6432   20.4141 C   0  0  0  0  0  0  0  0  0  0  0  0
  -26.0897  -36.3117   19.0004 C   0  0  0  0  0  0  0  0  0  0  0  0
  -25.8284  -29.1561   18.7891 C   0  0  0  0  0  0  0  0  0  0  0  0
  -22.2384   -8.1160   20.1066 C   0  0  0  0  0  0  0  0  0  0  0  0
  -23.4571   -7.9348   22.1849 C   0  0  0  0  0  0  0  0  0  0  0  0
  -26.6734  -28.0472   18.7816 C   0  0  0  0  0  0  0  0  0  0  0  0
  -22.9073   -4.4214   22.9410 C   0  0  0  0  0  0  0  0  0  0  0  0
  -22.5054   -3.8359   24.1414 C   0  0  0  0  0  0  0  0  0  0  0  0
  -26.8966  -28.2088   21.1781 C   0  0  0  0  0  0  0  0  0  0  0  0
  -30.5326  -24.8742   19.1675 C   0  0  0  0  0  0  0  0  0  0  0  0
  -20.5346   -5.2332   24.1631 C   0  0  0  0  0  0  0  0  0  0  0  0
  -23.1777  -10.0915   21.1324 C   0  0  0  0  0  0  0  0  0  0  0  0
  -22.5877  -12.5098   21.6902 C   0  0  0  0  0  0  0  0  0  0  0  0
  -25.9993  -37.5149   21.1056 C   0  0  0  0  0  0  0  0  0  0  0  0
  -25.5193  -29.8074   19.9919 C   0  0  0  0  0  0  0  0  0  0  0  0
  -26.2924  -36.3379   20.3908 C   0  0  0  0  0  0  0  0  0  0  0  0
  -26.0454  -29.3241   21.1984 C   0  0  0  0  0  0  0  0  0  0  0  0
  -31.3091  -23.7411   19.3348 C   0  0  0  0  0  0  0  0  0  0  0  0
  -22.7377   -7.3367   21.1502 C   0  0  0  0  0  0  0  0  0  0  0  0
  -27.2100  -27.5751   19.9759 C   0  0  0  0  0  0  0  0  0  0  0  0
  -22.1230   -5.4129   22.3516 C   0  0  0  0  0  0  0  0  0  0  0  0
  -21.3190   -4.2417   24.7525 C   0  0  0  0  0  0  0  0  0  0  0  0
  -20.9366   -5.8188   22.9626 C   0  0  0  0  0  0  0  0  0  0  0  0
  -23.4058  -11.5142   21.1234 C   0  0  0  0  0  0  0  0  0  0  0  0
  -29.1901  -24.7030   18.8960 C   0  0  0  0  0  0  0  0  0  0  0  0
  -30.6916  -22.5118   19.2198 C   0  0  0  0  0  0  0  0  0  0  0  0
  -23.2378  -13.6874   21.4126 C   0  0  0  0  0  0  0  0  0  0  0  0
  -21.3508  -12.3816   22.4039 C   0  0  0  0  0  0  0  0  0  0  0  0
  -25.9867  -32.7332   21.1429 C   0  0  0  0  0  0  0  0  0  0  0  0
  -24.1647  -31.6385   23.5932 C   0  0  0  0  0  0  0  0  0  0  0  0
  -23.0040  -28.9674   25.3722 C   0  0  0  0  0  0  0  0  0  0  0  0
  -29.0207  -14.7408   20.3387 C   0  0  0  0  0  0  0  0  0  0  0  0
  -26.2393  -37.6217   22.5907 C   0  0  0  0  0  0  0  0  0  0  0  0
  -24.5848  -30.9860   19.9861 C   0  0  0  0  0  0  0  0  0  0  0  0
  -25.7284  -29.9753   22.5190 C   0  0  0  0  0  0  0  0  0  0  0  0
  -26.3896  -36.2691   23.2822 C   0  0  0  0  0  0  0  0  0  0  0  0
  -26.1840  -15.6776   18.2127 C   0  0  0  0  0  0  0  0  0  0  0  0
  -33.6335  -24.6689   18.6943 C   0  0  0  0  0  0  0  0  0  0  0  0
  -33.7583  -23.1779   18.7325 C   0  0  0  0  0  0  0  0  0  0  0  0
  -27.3343  -35.3682   22.4931 C   0  0  0  0  0  0  0  0  0  0  0  0
  -25.0768  -14.7817   18.7701 C   0  0  0  0  0  0  0  0  0  0  0  0
  -27.5361  -14.9774   18.2764 C   0  0  0  0  0  0  0  0  0  0  0  0
  -30.9698  -16.3498   20.6987 C   0  0  0  0  0  0  0  0  0  0  0  0
  -29.4130  -17.1972   19.5226 C   0  0  0  0  0  0  0  0  0  0  0  0
  -26.8246  -13.6170   20.2009 C   0  0  0  0  0  0  0  0  0  0  0  0
  -32.7639  -23.8690   19.6295 C   0  0  0  0  0  0  0  0  0  0  0  0
  -26.7856  -35.0890   21.0886 C   0  0  1  0  0  0  0  0  0  0  0  0
  -24.7487  -31.8843   21.2083 C   0  0  1  0  0  0  0  0  0  0  0  0
  -30.4044  -17.7728   20.5516 C   0  0  0  0  0  0  0  0  0  0  0  0
  -25.4299  -14.2694   20.1786 C   0  0  2  0  0  0  0  0  0  0  0  0
  -21.5622  -28.3899   27.3433 C   0  0  0  0  0  0  0  0  0  0  0  0
  -26.3962  -32.5167   25.4798 C   0  0  0  0  0  0  0  0  0  0  0  0
  -25.3588  -31.0918   27.2579 C   0  0  0  0  0  0  0  0  0  0  0  0
  -24.0847  -33.0093   26.2974 C   0  0  0  0  0  0  0  0  0  0  0  0
  -21.1305  -27.4095   23.6924 C   0  0  0  0  0  0  0  0  0  0  0  0
  -31.4678  -21.2391   19.3890 C   0  0  0  0  0  0  0  0  0  0  0  0
  -28.3097  -25.8906   18.7074 C   0  0  0  0  0  0  0  0  0  1  0  0
  -31.3643  -18.8324   20.0492 C   0  0  0  0  0  0  0  0  0  0  0  0
  -24.4412  -30.9334   24.8991 C   0  0  1  0  0  0  0  0  0  0  0  0
  -21.6072  -28.5972   25.8374 C   0  0  2  0  0  0  0  0  0  0  0  0
  -25.0779  -31.8765   25.9586 C   0  0  0  0  0  0  0  0  0  0  0  0
  -24.4925  -12.0156   20.5304 N   0  0  0  0  0  0  0  0  0  0  0  0
  -28.6123  -23.4877   18.7889 N   0  0  0  0  0  0  0  0  0  0  0  0
  -29.3754  -22.3741   18.9537 N   0  0  0  0  0  0  0  0  0  0  0  0
  -24.3617  -13.3392   20.7230 N   0  0  0  0  0  0  0  0  0  0  0  0
  -24.8149  -31.1284   22.4606 N   0  0  0  0  0  0  0  0  0  0  0  0
  -27.8285  -14.5279   19.6411 N   0  0  0  0  0  0  0  0  0  0  0  0
  -29.7284  -15.8911   20.0812 N   0  0  0  0  0  0  0  0  0  0  0  0
  -22.9518  -14.9765   21.6935 N   0  0  0  0  0  0  0  0  0  0  0  0
  -20.8229  -11.0983   22.6007 N   0  0  0  0  0  0  0  0  0  0  0  0
  -25.7377  -34.0924   21.1443 N   0  0  0  0  0  0  0  0  0  0  0  0
  -23.1778  -30.3341   25.3149 N   0  0  0  0  0  0  0  0  0  0  0  0
  -21.1574  -27.3397   25.1761 N   0  3  0  0  0  0  0  0  0  0  0  0
  -30.6453  -20.1214   19.9304 N   0  3  0  0  0  0  0  0  0  0  0  0
  -20.7237  -13.3769   22.8394 O   0  0  0  0  0  0  0  0  0  0  0  0
  -27.0866  -32.1949   21.0961 O   0  0  0  0  0  0  0  0  0  0  0  0
  -23.3944  -32.6019   23.5774 O   0  0  0  0  0  0  0  0  0  0  0  0
  -23.8569  -28.1282   25.0916 O   0  0  0  0  0  0  0  0  0  0  0  0
  -29.4284  -13.9420   21.1925 O   0  0  0  0  0  0  0  0  0  0  0  0
  -22.5230   -5.9927   21.1593 O   0  0  0  0  0  0  0  0  0  0  0  0
  -28.0412  -26.4860   19.9713 O   0  0  0  0  0  0  0  0  0  1  0  0
  -20.9323   -3.6783   25.9045 F   0  0  0  0  0  0  0  0  0  0  0  0
  -20.1783   -6.7701   22.4005 F   0  0  0  0  0  0  0  0  0  0  0  0
  1  2  1  0  0  0  0
  1  5  2  0  0  0  0
  2  6  2  0  0  0  0
  3  8  2  0  0  0  0
  3 16  1  0  0  0  0
  4  9  1  0  0  0  0
  4 16  2  0  0  0  0
  5 18  1  0  0  0  0
  6 20  1  0  0  0  0
  7 10  2  0  0  0  0
  7 19  1  0  0  0  0
  8 23  1  0  0  0  0
  9 23  2  0  0  0  0
 10 24  1  0  0  0  0
 11 12  2  0  0  0  0
 11 25  1  0  0  0  0
 12 26  1  0  0  0  0
 13 21  1  0  0  0  0
 13 24  2  0  0  0  0
 14 22  2  0  0  0  0
 14 29  1  0  0  0  0
 15 26  2  0  0  0  0
 15 27  1  0  0  0  0
 16 28  1  0  0  0  0
 17 28  1  0  0  0  0
 17 31  2  0  0  0  0
 17 32  1  0  0  0  0
 18 20  2  0  0  0  0
 18 37  1  0  0  0  0
 19 21  2  0  0  0  0
 19 38  1  0  0  0  0
 20 51  1  0  0  0  0
 21 39  1  0  0  0  0
 22 30  1  0  0  0  0
 22 50  1  0  0  0  0
 23 84  1  0  0  0  0
 24 85  1  0  0  0  0
 25 27  2  0  0  0  0
 25 84  1  0  0  0  0
 26 86  1  0  0  0  0
 27 87  1  0  0  0  0
 28 66  2  0  0  0  0
 29 61  1  0  0  0  0
 29 67  2  0  0  0  0
 30 60  1  0  0  0  0
 30 68  2  0  0  0  0
 31 69  1  0  0  0  0
 31 73  1  0  0  0  0
 32 74  1  0  0  0  0
 32 79  2  0  0  0  0
 33 52  1  0  0  0  0
 33 75  1  0  0  0  0
 33 80  2  0  0  0  0
 34 63  1  0  0  0  0
 34 70  1  0  0  0  0
 34 81  2  0  0  0  0
 35 64  1  0  0  0  0
 35 76  1  0  0  0  0
 35 82  2  0  0  0  0
 36 71  1  0  0  0  0
 36 72  1  0  0  0  0
 36 83  2  0  0  0  0
 37 40  1  0  0  0  0
 38 52  1  0  0  0  0
 39 70  1  0  0  0  0
 40 44  1  0  0  0  0
 41 45  1  0  0  0  0
 41 46  1  0  0  0  0
 42 43  1  0  0  0  0
 42 50  1  0  0  0  0
 43 50  1  0  0  0  0
 44 51  1  0  0  0  0
 45 54  1  0  0  0  0
 46 71  1  0  0  0  0
 47 53  1  0  0  0  0
 47 72  1  0  0  0  0
 48 53  1  0  0  0  0
 48 72  1  0  0  0  0
 49 54  1  0  0  0  0
 49 71  1  0  0  0  0
 51 75  1  0  0  0  0
 52 70  1  0  0  0  0
 53 62  1  0  0  0  0
 54 69  1  0  0  0  0
 55 64  1  0  0  0  0
 56 65  1  0  0  0  0
 57 65  1  0  0  0  0
 58 65  1  0  0  0  0
 59 77  1  0  0  0  0
 60 78  1  0  0  0  0
 61 85  1  0  0  0  0
 62 78  1  0  0  0  0
 63 65  1  0  0  0  0
 63 76  1  0  0  0  0
 64 77  1  0  0  0  0
 66 69  1  0  0  0  0
 67 68  1  0  0  0  0
M  CHG  2  77   1  78   1
M  ISO  4  36 100  61 101  72 100  85 101
M  END
> <Batch ID>
0196

> <Smiles>
CNC(C)C(=O)NC(C(=O)N1Cc2cc([101O:1][101CH2:1]c3cc(C4CC4)c(CNCC4C[100N:0]([100C:0](=O)N5CCCC(n6nc(-c7ccc(Oc8ccc(F)cc8F)cc7)c(C(N)=O)c6N)C5)C4)nn3)ccc2CC1C(=O)NC1CCCc2ccccc21)C(C)(C)C

> <Shape>
0.326

> <Color>
0.124

> <Negative vol penalty>
0.000

$$$$

  -OEChem-04052323393D

 89 99  0     1  0  0  0  0  0999 V2000
  -24.8229  -36.5653   17.2726 C   0  0  0  0  0  0  0  0  0  0  0  0
  -25.4518  -35.3281   17.1773 C   0  0  0  0  0  0  0  0  0  0  0  0
  -24.5639  -10.0463   22.1604 C   0  0  0  0  0  0  0  0  0  0  0  0
  -23.4355  -10.6912   20.1238 C   0  0  0  0  0  0  0  0  0  0  0  0
  -24.4368  -37.0555   18.5194 C   0  0  0  0  0  0  0  0  0  0  0  0
  -25.6959  -34.5807   18.3290 C   0  0  0  0  0  0  0  0  0  0  0  0
  -25.5703  -28.4804   18.8545 C   0  0  0  0  0  0  0  0  0  0  0  0
  -23.4106   -9.3913   22.5921 C   0  0  0  0  0  0  0  0  0  0  0  0
  -22.2821  -10.0362   20.5555 C   0  0  0  0  0  0  0  0  0  0  0  0
  -26.5784  -27.5174   18.8478 C   0  0  0  0  0  0  0  0  0  0  0  0
  -21.8439   -6.4543   21.9986 C   0  0  0  0  0  0  0  0  0  0  0  0
  -21.9891   -5.1810   22.5492 C   0  0  0  0  0  0  0  0  0  0  0  0
  -26.6105  -27.5427   21.2597 C   0  0  0  0  0  0  0  0  0  0  0  0
  -21.0230   -5.9661   24.6198 C   0  0  0  0  0  0  0  0  0  0  0  0
  -24.5764  -10.6963   20.9263 C   0  0  0  0  0  0  0  0  0  0  0  0
  -26.8219  -10.8289   19.7231 C   0  0  0  0  0  0  0  0  0  0  0  0
  -24.6676  -36.3095   19.6860 C   0  0  0  0  0  0  0  0  0  0  0  0
  -25.0815  -28.9906   20.0658 C   0  0  0  0  0  0  0  0  0  0  0  0
  -25.3137  -35.0620   19.5927 C   0  0  0  0  0  0  0  0  0  0  0  0
  -25.5944  -28.5103   21.2792 C   0  0  0  0  0  0  0  0  0  0  0  0
  -22.2697   -9.3863   21.7896 C   0  0  0  0  0  0  0  0  0  0  0  0
  -27.1007  -27.0505   20.0504 C   0  0  0  0  0  0  0  0  0  0  0  0
  -21.2883   -7.4836   22.7587 C   0  0  0  0  0  0  0  0  0  0  0  0
  -21.5786   -4.9368   23.8597 C   0  0  0  0  0  0  0  0  0  0  0  0
  -20.8779   -7.2395   24.0693 C   0  0  0  0  0  0  0  0  0  0  0  0
  -25.7673  -11.3736   20.4801 C   0  0  0  0  0  0  0  0  0  0  0  0
  -27.7034  -11.8701   19.5634 C   0  0  0  0  0  0  0  0  0  0  0  0
  -29.5791  -24.5988   18.9621 C   0  0  0  0  0  0  0  0  0  0  0  0
  -30.1935  -22.4406   18.9275 C   0  0  0  0  0  0  0  0  0  0  0  0
  -31.6834  -24.0225   19.4883 C   0  0  0  0  0  0  0  0  0  0  0  0
  -26.9897   -9.5007   19.2100 C   0  0  0  0  0  0  0  0  0  0  0  0
  -25.0017  -31.8654   21.4196 C   0  0  0  0  0  0  0  0  0  0  0  0
  -23.2138  -30.3353   23.6521 C   0  0  0  0  0  0  0  0  0  0  0  0
  -22.3718  -27.3997   25.1754 C   0  0  0  0  0  0  0  0  0  0  0  0
  -28.9102  -16.9847   18.4550 C   0  0  0  0  0  0  0  0  0  0  0  0
  -24.2748  -36.9020   21.0162 C   0  0  0  0  0  0  0  0  0  0  0  0
  -23.9751  -30.0096   20.0566 C   0  0  0  0  0  0  0  0  0  0  0  0
  -25.0898  -29.0109   22.6071 C   0  0  0  0  0  0  0  0  0  0  0  0
  -24.2328  -35.8801   22.1495 C   0  0  0  0  0  0  0  0  0  0  0  0
  -27.8837  -16.4124   21.7653 C   0  0  0  0  0  0  0  0  0  0  0  0
  -25.4816  -35.0045   22.1254 C   0  0  0  0  0  0  0  0  0  0  0  0
  -27.3199  -14.9953   21.6678 C   0  0  0  0  0  0  0  0  0  0  0  0
  -27.5113  -17.2623   20.5494 C   0  0  0  0  0  0  0  0  0  0  0  0
  -30.9146  -20.0726   18.9011 C   0  0  0  0  0  0  0  0  0  0  0  0
  -28.4887  -20.6724   18.9399 C   0  0  0  0  0  0  0  0  0  0  0  0
  -30.5661  -18.7878   18.1544 C   0  0  0  0  0  0  0  0  0  0  0  0
  -28.1850  -19.3846   18.1822 C   0  0  0  0  0  0  0  0  0  0  0  0
  -27.3087  -15.2291   19.1554 C   0  0  0  0  0  0  0  0  0  0  0  0
  -33.3363  -25.5016   20.6781 C   0  0  0  0  0  0  0  0  0  0  0  0
  -33.9794  -23.5177   20.3878 C   0  0  0  0  0  0  0  0  0  0  0  0
  -25.5736  -34.2107   20.8166 C   0  0  1  0  0  0  0  0  0  0  0  0
  -23.9118  -30.8344   21.3384 C   0  0  1  0  0  0  0  0  0  0  0  0
  -27.7158  -14.3336   20.3359 C   0  0  2  0  0  0  0  0  0  0  0  0
  -34.6483  -24.7656   20.9778 C   0  0  0  0  0  0  0  0  0  0  0  0
  -20.9092  -26.4711   26.9908 C   0  0  0  0  0  0  0  0  0  0  0  0
  -25.1456  -31.4104   25.7550 C   0  0  0  0  0  0  0  0  0  0  0  0
  -24.2282  -29.7222   27.3602 C   0  0  0  0  0  0  0  0  0  0  0  0
  -22.7352  -31.4844   26.4177 C   0  0  0  0  0  0  0  0  0  0  0  0
  -35.3446  -25.9307   23.0745 C   0  0  0  0  0  0  0  0  0  0  0  0
  -20.8861  -25.6948   23.2662 C   0  0  0  0  0  0  0  0  0  0  0  0
  -28.5362  -25.6475   18.7748 C   0  0  0  0  0  0  0  0  0  1  0  0
  -23.5092  -29.5909   24.9319 C   0  0  1  0  0  0  0  0  0  0  0  0
  -21.0228  -26.7881   25.5078 C   0  0  2  0  0  0  0  0  0  0  0  0
  -23.9156  -30.5438   26.0913 C   0  0  0  0  0  0  0  0  0  0  0  0
  -25.9595  -12.6607   20.7806 N   0  0  0  0  0  0  0  0  0  0  0  0
  -29.2045  -23.3288   18.7386 N   0  0  0  0  0  0  0  0  0  0  0  0
  -30.7974  -25.0202   19.3382 N   0  0  0  0  0  0  0  0  0  0  0  0
  -31.4542  -22.7128   19.3011 N   0  0  0  0  0  0  0  0  0  0  0  0
  -27.1451  -12.9336   20.2096 N   0  0  0  0  0  0  0  0  0  0  0  0
  -29.8779  -21.0930   18.7116 N   0  0  0  0  0  0  0  0  0  0  0  0
  -32.9887  -24.3879   19.8829 N   0  0  0  0  0  0  0  0  0  0  0  0
  -24.0116  -30.0116   22.5455 N   0  0  0  0  0  0  0  0  0  0  0  0
  -27.8709  -16.5733   19.3027 N   0  0  0  0  0  0  0  0  0  0  0  0
  -29.2000  -18.3579   18.4270 N   0  0  0  0  0  0  0  0  0  0  0  0
  -28.8938  -11.9705   18.9348 N   0  0  0  0  0  0  0  0  0  0  0  0
  -25.9883   -8.5541   19.4660 N   0  0  0  0  0  0  0  0  0  0  0  0
  -24.6718  -33.0792   20.8473 N   0  0  0  0  0  0  0  0  0  0  0  0
  -22.3310  -28.7774   25.2121 N   0  0  0  0  0  0  0  0  0  0  0  0
  -34.9448  -24.6522   22.4105 N   0  3  0  0  0  0  0  0  0  0  0  0
  -20.8231  -25.5260   24.7408 N   0  3  0  0  0  0  0  0  0  0  0  0
  -28.0055   -9.1588   18.5583 O   0  0  0  0  0  0  0  0  0  0  0  0
  -26.0629  -31.5813   21.9626 O   0  0  0  0  0  0  0  0  0  0  0  0
  -22.3039  -31.1679   23.6330 O   0  0  0  0  0  0  0  0  0  0  0  0
  -23.3637  -26.7228   24.9132 O   0  0  0  0  0  0  0  0  0  0  0  0
  -29.5442  -16.1756   17.7662 O   0  0  0  0  0  0  0  0  0  0  0  0
  -21.1441   -8.7470   22.2104 O   0  0  0  0  0  0  0  0  0  0  0  0
  -28.0919  -26.1046   20.0465 O   0  0  0  0  0  0  0  0  0  1  0  0
  -21.7167   -3.7136   24.3878 F   0  0  0  0  0  0  0  0  0  0  0  0
  -20.3424   -8.2240   24.8039 F   0  0  0  0  0  0  0  0  0  0  0  0
  1  2  1  0  0  0  0
  1  5  2  0  0  0  0
  2  6  2  0  0  0  0
  3  8  2  0  0  0  0
  3 15  1  0  0  0  0
  4  9  1  0  0  0  0
  4 15  2  0  0  0  0
  5 17  1  0  0  0  0
  6 19  1  0  0  0  0
  7 10  2  0  0  0  0
  7 18  1  0  0  0  0
  8 21  1  0  0  0  0
  9 21  2  0  0  0  0
 10 22  1  0  0  0  0
 11 12  2  0  0  0  0
 11 23  1  0  0  0  0
 12 24  1  0  0  0  0
 13 20  1  0  0  0  0
 13 22  2  0  0  0  0
 14 24  2  0  0  0  0
 14 25  1  0  0  0  0
 15 26  1  0  0  0  0
 16 26  1  0  0  0  0
 16 27  2  0  0  0  0
 16 31  1  0  0  0  0
 17 19  2  0  0  0  0
 17 36  1  0  0  0  0
 18 20  2  0  0  0  0
 18 37  1  0  0  0  0
 19 51  1  0  0  0  0
 20 38  1  0  0  0  0
 21 86  1  0  0  0  0
 22 87  1  0  0  0  0
 23 25  2  0  0  0  0
 23 86  1  0  0  0  0
 24 88  1  0  0  0  0
 25 89  1  0  0  0  0
 26 65  2  0  0  0  0
 27 69  1  0  0  0  0
 27 75  1  0  0  0  0
 28 61  1  0  0  0  0
 28 66  2  0  0  0  0
 28 67  1  0  0  0  0
 29 66  1  0  0  0  0
 29 68  2  0  0  0  0
 29 70  1  0  0  0  0
 30 67  2  0  0  0  0
 30 68  1  0  0  0  0
 30 71  1  0  0  0  0
 31 76  1  0  0  0  0
 31 81  2  0  0  0  0
 32 52  1  0  0  0  0
 32 77  1  0  0  0  0
 32 82  2  0  0  0  0
 33 62  1  0  0  0  0
 33 72  1  0  0  0  0
 33 83  2  0  0  0  0
 34 63  1  0  0  0  0
 34 78  1  0  0  0  0
 34 84  2  0  0  0  0
 35 73  1  0  0  0  0
 35 74  1  0  0  0  0
 35 85  2  0  0  0  0
 36 39  1  0  0  0  0
 37 52  1  0  0  0  0
 38 72  1  0  0  0  0
 39 41  1  0  0  0  0
 40 42  1  0  0  0  0
 40 43  1  0  0  0  0
 41 51  1  0  0  0  0
 42 53  1  0  0  0  0
 43 73  1  0  0  0  0
 44 46  1  0  0  0  0
 44 70  1  0  0  0  0
 45 47  1  0  0  0  0
 45 70  1  0  0  0  0
 46 74  1  0  0  0  0
 47 74  1  0  0  0  0
 48 53  1  0  0  0  0
 48 73  1  0  0  0  0
 49 54  1  0  0  0  0
 49 71  1  0  0  0  0
 50 54  1  0  0  0  0
 50 71  1  0  0  0  0
 51 77  1  0  0  0  0
 52 72  1  0  0  0  0
 53 69  1  0  0  0  0
 54 79  1  0  0  0  0
 55 63  1  0  0  0  0
 56 64  1  0  0  0  0
 57 64  1  0  0  0  0
 58 64  1  0  0  0  0
 59 79  1  0  0  0  0
 60 80  1  0  0  0  0
 61 87  1  0  0  0  0
 62 64  1  0  0  0  0
 62 78  1  0  0  0  0
 63 80  1  0  0  0  0
 65 69  1  0  0  0  0
M  CHG  2  79   1  80   1
M  ISO  4  35 100  61 101  74 100  87 101
M  END
> <Batch ID>
0196

> <Smiles>
CNC1CN(c2nc(N3CC[100N:0]([100C:0](=O)N4CCCC(n5nc(-c6ccc(Oc7ccc(F)cc7F)cc6)c(C(N)=O)c5N)C4)CC3)nc([101CH2:1][101O:1]c3ccc4c(c3)CN(C(=O)C(NC(=O)C(C)NC)C(C)(C)C)C(C(=O)NC3CCCc5ccccc53)C4)n2)C1

> <Shape>
0.278

> <Color>
0.096

> <Negative vol penalty>
0.000

$$$$

  -OEChem-04052323393D

 81 90  0     1  0  0  0  0  0999 V2000
  -22.6653   -8.1792   21.9802 C   0  0  0  0  0  0  0  0  0  0  0  0
  -23.9609   -8.6539   22.1578 C   0  0  0  0  0  0  0  0  0  0  0  0
  -24.2085  -27.4353   20.7130 C   0  0  0  0  0  0  0  0  0  0  0  0
  -25.2519  -26.9487   22.8371 C   0  0  0  0  0  0  0  0  0  0  0  0
  -21.7944   -8.8403   21.1151 C   0  0  0  0  0  0  0  0  0  0  0  0
  -24.3867   -9.7894   21.4695 C   0  0  0  0  0  0  0  0  0  0  0  0
  -28.7083  -15.4576   22.1839 C   0  0  0  0  0  0  0  0  0  0  0  0
  -22.9915  -26.9608   21.2021 C   0  0  0  0  0  0  0  0  0  0  0  0
  -24.0348  -26.4742   23.3262 C   0  0  0  0  0  0  0  0  0  0  0  0
  -29.7425  -16.1142   21.5182 C   0  0  0  0  0  0  0  0  0  0  0  0
  -20.4993  -28.0827   23.1929 C   0  0  0  0  0  0  0  0  0  0  0  0
  -19.3574  -28.8414   22.9360 C   0  0  0  0  0  0  0  0  0  0  0  0
  -28.1260  -17.2205   20.1104 C   0  0  0  0  0  0  0  0  0  0  0  0
  -18.3828  -26.9737   21.7531 C   0  0  0  0  0  0  0  0  0  0  0  0
  -32.6536  -19.5555   19.4644 C   0  0  0  0  0  0  0  0  0  0  0  0
  -34.5076  -18.2705   18.0078 C   0  0  0  0  0  0  0  0  0  0  0  0
  -25.3388  -27.4292   21.5305 C   0  0  0  0  0  0  0  0  0  0  0  0
  -27.0824  -29.2384   21.0895 C   0  0  0  0  0  0  0  0  0  0  0  0
  -22.2067   -9.9901   20.4232 C   0  0  0  0  0  0  0  0  0  0  0  0
  -27.3735  -15.6697   21.8099 C   0  0  0  0  0  0  0  0  0  0  0  0
  -23.5209  -10.4657   20.5933 C   0  0  0  0  0  0  0  0  0  0  0  0
  -27.0765  -16.5674   20.7746 C   0  0  0  0  0  0  0  0  0  0  0  0
  -22.9046  -26.4803   22.5087 C   0  0  0  0  0  0  0  0  0  0  0  0
  -29.4516  -16.9936   20.4794 C   0  0  0  0  0  0  0  0  0  0  0  0
  -20.5830  -26.7696   22.7298 C   0  0  0  0  0  0  0  0  0  0  0  0
  -18.2991  -28.2869   22.2161 C   0  0  0  0  0  0  0  0  0  0  0  0
  -19.5248  -26.2151   22.0100 C   0  0  0  0  0  0  0  0  0  0  0  0
  -26.5964  -27.9187   21.0256 C   0  0  0  0  0  0  0  0  0  0  0  0
  -33.5731  -20.2286   18.6860 C   0  0  0  0  0  0  0  0  0  0  0  0
  -32.7489  -18.1790   19.4452 C   0  0  0  0  0  0  0  0  0  0  0  0
  -28.3094  -29.1825   20.4749 C   0  0  0  0  0  0  0  0  0  0  0  0
  -26.4786  -30.4099   21.6539 C   0  0  0  0  0  0  0  0  0  0  0  0
  -25.0441  -13.8312   20.6709 C   0  0  0  0  0  0  0  0  0  0  0  0
  -23.2634  -16.5135   21.0668 C   0  0  0  0  0  0  0  0  0  0  0  0
  -23.1658  -19.9158   21.3148 C   0  0  0  0  0  0  0  0  0  0  0  0
  -32.0682  -24.6205   19.8075 C   0  0  0  0  0  0  0  0  0  0  0  0
  -21.2447  -10.6433   19.4627 C   0  0  0  0  0  0  0  0  0  0  0  0
  -26.2679  -14.9741   22.5556 C   0  0  0  0  0  0  0  0  0  0  0  0
  -25.6590  -16.8452   20.3481 C   0  0  0  0  0  0  0  0  0  0  0  0
  -21.6545  -12.0568   19.0572 C   0  0  0  0  0  0  0  0  0  0  0  0
  -30.7496  -26.7991   17.1561 C   0  0  0  0  0  0  0  0  0  0  0  0
  -23.1339  -12.0986   18.6881 C   0  0  0  0  0  0  0  0  0  0  0  0
  -29.5283  -27.3947   17.8475 C   0  0  0  0  0  0  0  0  0  0  0  0
  -31.0361  -25.3670   17.6083 C   0  0  0  0  0  0  0  0  0  0  0  0
  -32.3300  -22.5788   18.2226 C   0  0  0  0  0  0  0  0  0  0  0  0
  -33.6703  -22.6508   19.8696 C   0  0  0  0  0  0  0  0  0  0  0  0
  -29.9110  -25.8245   19.7780 C   0  0  0  0  0  0  0  0  0  0  0  0
  -24.0120  -11.7086   19.8834 C   0  0  1  0  0  0  0  0  0  0  0  0
  -33.6244  -21.8099   18.5770 C   0  0  0  0  0  0  0  0  0  0  0  0
  -24.9756  -14.8735   21.7510 C   0  0  1  0  0  0  0  0  0  0  0  0
  -29.6702  -27.2849   19.3725 C   0  0  2  0  0  0  0  0  0  0  0  0
  -21.5620  -21.8252   21.5965 C   0  0  0  0  0  0  0  0  0  0  0  0
  -22.4262  -16.2381   18.1456 C   0  0  0  0  0  0  0  0  0  0  0  0
  -21.6349  -18.6122   18.2211 C   0  0  0  0  0  0  0  0  0  0  0  0
  -20.5834  -16.9013   19.7009 C   0  0  0  0  0  0  0  0  0  0  0  0
  -24.4255  -20.7504   23.8594 C   0  0  0  0  0  0  0  0  0  0  0  0
  -31.7911  -17.3606   20.2601 C   0  0  0  0  0  0  0  0  0  1  0  0
  -22.9250  -17.7084   20.2085 C   0  0  1  0  0  0  0  0  0  0  0  0
  -22.4723  -20.8342   22.3049 C   0  0  2  0  0  0  0  0  0  0  0  0
  -21.9193  -17.3585   19.0756 C   0  0  0  0  0  0  0  0  0  0  0  0
  -34.5174  -19.6155   17.9425 N   0  0  0  0  0  0  0  0  0  0  0  0
  -33.6670  -17.5011   18.7255 N   0  0  0  0  0  0  0  0  0  0  0  0
  -27.4454  -27.0854   20.4183 N   0  0  0  0  0  0  0  0  0  0  0  0
  -28.4772  -27.8835   20.0948 N   0  0  0  0  0  0  0  0  0  0  0  0
  -24.6132  -16.1360   21.1037 N   0  0  0  0  0  0  0  0  0  0  0  0
  -31.0542  -25.2397   19.0691 N   0  0  0  0  0  0  0  0  0  0  0  0
  -32.7330  -23.5627   19.2201 N   0  0  0  0  0  0  0  0  0  0  0  0
  -29.2504  -30.1184   20.2279 N   0  0  0  0  0  0  0  0  0  0  0  0
  -25.2143  -30.2904   22.2467 N   0  0  0  0  0  0  0  0  0  0  0  0
  -24.1206  -12.8131   20.8123 N   0  0  0  0  0  0  0  0  0  0  0  0
  -22.4596  -18.7475   21.1207 N   0  0  0  0  0  0  0  0  0  0  0  0
  -23.4786  -21.6006   23.0929 N   0  3  0  0  0  0  0  0  0  0  0  0
  -27.0364  -31.5329   21.6186 O   0  0  0  0  0  0  0  0  0  0  0  0
  -25.8724  -13.9432   19.7748 O   0  0  0  0  0  0  0  0  0  0  0  0
  -22.3643  -15.9407   21.6875 O   0  0  0  0  0  0  0  0  0  0  0  0
  -24.2258  -20.2074   20.7654 O   0  0  0  0  0  0  0  0  0  0  0  0
  -32.3505  -24.9726   20.9599 O   0  0  0  0  0  0  0  0  0  0  0  0
  -21.7171  -26.0174   22.9864 O   0  0  0  0  0  0  0  0  0  0  0  0
  -30.4593  -17.6352   19.8276 O   0  0  0  0  0  0  0  0  0  1  0  0
  -17.2019  -29.0150   21.9708 F   0  0  0  0  0  0  0  0  0  0  0  0
  -19.5989  -24.9537   21.5636 F   0  0  0  0  0  0  0  0  0  0  0  0
  1  2  1  0  0  0  0
  1  5  2  0  0  0  0
  2  6  2  0  0  0  0
  3  8  2  0  0  0  0
  3 17  1  0  0  0  0
  4  9  1  0  0  0  0
  4 17  2  0  0  0  0
  5 19  1  0  0  0  0
  6 21  1  0  0  0  0
  7 10  2  0  0  0  0
  7 20  1  0  0  0  0
  8 23  1  0  0  0  0
  9 23  2  0  0  0  0
 10 24  1  0  0  0  0
 11 12  2  0  0  0  0
 11 25  1  0  0  0  0
 12 26  1  0  0  0  0
 13 22  1  0  0  0  0
 13 24  2  0  0  0  0
 14 26  2  0  0  0  0
 14 27  1  0  0  0  0
 15 29  2  0  0  0  0
 15 30  1  0  0  0  0
 16 61  2  0  0  0  0
 16 62  1  0  0  0  0
 17 28  1  0  0  0  0
 18 28  1  0  0  0  0
 18 31  2  0  0  0  0
 18 32  1  0  0  0  0
 19 21  2  0  0  0  0
 19 37  1  0  0  0  0
 20 22  2  0  0  0  0
 20 38  1  0  0  0  0
 21 48  1  0  0  0  0
 22 39  1  0  0  0  0
 23 78  1  0  0  0  0
 24 79  1  0  0  0  0
 25 27  2  0  0  0  0
 25 78  1  0  0  0  0
 26 80  1  0  0  0  0
 27 81  1  0  0  0  0
 28 63  2  0  0  0  0
 29 49  1  0  0  0  0
 29 61  1  0  0  0  0
 30 57  1  0  0  0  0
 30 62  2  0  0  0  0
 31 64  1  0  0  0  0
 31 68  1  0  0  0  0
 32 69  1  0  0  0  0
 32 73  2  0  0  0  0
 33 50  1  0  0  0  0
 33 70  1  0  0  0  0
 33 74  2  0  0  0  0
 34 58  1  0  0  0  0
 34 65  1  0  0  0  0
 34 75  2  0  0  0  0
 35 59  1  0  0  0  0
 35 71  1  0  0  0  0
 35 76  2  0  0  0  0
 36 66  1  0  0  0  0
 36 67  1  0  0  0  0
 36 77  2  0  0  0  0
 37 40  1  0  0  0  0
 38 50  1  0  0  0  0
 39 65  1  0  0  0  0
 40 42  1  0  0  0  0
 41 43  1  0  0  0  0
 41 44  1  0  0  0  0
 42 48  1  0  0  0  0
 43 51  1  0  0  0  0
 44 66  1  0  0  0  0
 45 49  1  0  0  0  0
 45 67  1  0  0  0  0
 46 49  1  0  0  0  0
 46 67  1  0  0  0  0
 47 51  1  0  0  0  0
 47 66  1  0  0  0  0
 48 70  1  0  0  0  0
 50 65  1  0  0  0  0
 51 64  1  0  0  0  0
 52 59  1  0  0  0  0
 53 60  1  0  0  0  0
 54 60  1  0  0  0  0
 55 60  1  0  0  0  0
 56 72  1  0  0  0  0
 57 79  1  0  0  0  0
 58 60  1  0  0  0  0
 58 71  1  0  0  0  0
 59 72  1  0  0  0  0
 63 64  1  0  0  0  0
M  CHG  1  72   1
M  ISO  4  36 100  57 101  67 100  79 101
M  END
> <Batch ID>
0196

> <Smiles>
CNC(C)C(=O)NC(C(=O)N1Cc2cc([101O:1][101CH2:1]c3cc(C4C[100N:0]([100C:0](=O)N5CCCC(n6nc(-c7ccc(Oc8ccc(F)cc8F)cc7)c(C(N)=O)c6N)C5)C4)ncn3)ccc2CC1C(=O)NC1CCCc2ccccc21)C(C)(C)C

> <Shape>
0.228

> <Color>
0.066

> <Negative vol penalty>
0.000

$$$$

  -OEChem-04052323393D

 85 94  0     1  0  0  0  0  0999 V2000
  -17.2562  -25.3343   24.6426 C   0  0  0  0  0  0  0  0  0  0  0  0
  -17.7641  -24.3509   23.7998 C   0  0  0  0  0  0  0  0  0  0  0  0
  -25.6094  -13.4199   21.8136 C   0  0  0  0  0  0  0  0  0  0  0  0
  -25.5717  -13.9898   19.4661 C   0  0  0  0  0  0  0  0  0  0  0  0
  -17.6594  -26.6599   24.4875 C   0  0  0  0  0  0  0  0  0  0  0  0
  -18.6747  -24.6928   22.8006 C   0  0  0  0  0  0  0  0  0  0  0  0
  -24.3371  -22.0797   19.2756 C   0  0  0  0  0  0  0  0  0  0  0  0
  -24.5628  -12.5202   21.6120 C   0  0  0  0  0  0  0  0  0  0  0  0
  -24.5251  -13.0900   19.2645 C   0  0  0  0  0  0  0  0  0  0  0  0
  -24.7937  -21.8710   17.9749 C   0  0  0  0  0  0  0  0  0  0  0  0
  -24.1685   -9.3894   20.3972 C   0  0  0  0  0  0  0  0  0  0  0  0
  -24.2739   -8.1298   20.9869 C   0  0  0  0  0  0  0  0  0  0  0  0
  -25.4787  -24.1807   17.8514 C   0  0  0  0  0  0  0  0  0  0  0  0
  -22.2486   -8.5455   22.2368 C   0  0  0  0  0  0  0  0  0  0  0  0
  -26.1138  -14.1548   20.7406 C   0  0  0  0  0  0  0  0  0  0  0  0
  -28.4836  -14.7953   21.4345 C   0  0  0  0  0  0  0  0  0  0  0  0
  -18.5828  -27.0167   23.4921 C   0  0  0  0  0  0  0  0  0  0  0  0
  -24.4381  -23.3453   19.8710 C   0  0  0  0  0  0  0  0  0  0  0  0
  -19.0896  -26.0246   22.6312 C   0  0  0  0  0  0  0  0  0  0  0  0
  -25.0250  -24.4022   19.1606 C   0  0  0  0  0  0  0  0  0  0  0  0
  -24.0207  -12.3552   20.3375 C   0  0  0  0  0  0  0  0  0  0  0  0
  -25.3620  -22.9223   17.2616 C   0  0  0  0  0  0  0  0  0  0  0  0
  -23.1032  -10.2271   20.7273 C   0  0  0  0  0  0  0  0  0  0  0  0
  -23.3140   -7.7078   21.9067 C   0  0  0  0  0  0  0  0  0  0  0  0
  -22.1432   -9.8051   21.6470 C   0  0  0  0  0  0  0  0  0  0  0  0
  -27.1946  -15.0848   20.9484 C   0  0  0  0  0  0  0  0  0  0  0  0
  -29.1269  -16.0088   21.4455 C   0  0  0  0  0  0  0  0  0  0  0  0
  -29.0489  -13.5416   21.8399 C   0  0  0  0  0  0  0  0  0  0  0  0
  -22.3564  -25.4670   20.9972 C   0  0  0  0  0  0  0  0  0  0  0  0
  -25.0426  -27.0114   21.9570 C   0  0  0  0  0  0  0  0  0  0  0  0
  -28.3867  -27.5438   21.5327 C   0  0  0  0  0  0  0  0  0  0  0  0
  -28.3425  -21.0680   18.3407 C   0  0  0  0  0  0  0  0  0  0  0  0
  -18.9526  -28.4701   23.3324 C   0  0  0  0  0  0  0  0  0  0  0  0
  -23.9652  -23.5473   21.2845 C   0  0  0  0  0  0  0  0  0  0  0  0
  -25.1751  -25.7749   19.7618 C   0  0  0  0  0  0  0  0  0  0  0  0
  -20.2068  -28.6905   22.4905 C   0  0  0  0  0  0  0  0  0  0  0  0
  -31.1059  -20.7553   14.5432 C   0  0  0  0  0  0  0  0  0  0  0  0
  -28.2725  -20.6961   21.8810 C   0  0  0  0  0  0  0  0  0  0  0  0
  -20.1515  -27.8484   21.2198 C   0  0  0  0  0  0  0  0  0  0  0  0
  -28.1046  -19.1897   22.0873 C   0  0  0  0  0  0  0  0  0  0  0  0
  -30.7088  -20.8302   16.0213 C   0  0  0  0  0  0  0  0  0  0  0  0
  -29.8184  -20.4803   13.7654 C   0  0  0  0  0  0  0  0  0  0  0  0
  -27.4925  -21.1895   20.6643 C   0  0  0  0  0  0  0  0  0  0  0  0
  -27.6121  -18.9620   19.6166 C   0  0  0  0  0  0  0  0  0  0  0  0
  -26.8202  -17.5478   13.9797 C   0  0  0  0  0  0  0  0  0  0  0  0
  -20.0980  -26.3522   21.5514 C   0  0  1  0  0  0  0  0  0  0  0  0
  -23.6498  -25.0048   21.6064 C   0  0  1  0  0  0  0  0  0  0  0  0
  -28.4253  -18.4082   20.7990 C   0  0  2  0  0  0  0  0  0  0  0  0
  -29.1819  -20.7797   16.0328 C   0  0  1  0  0  0  0  0  0  0  0  0
  -28.8563  -19.9218   14.8107 C   0  0  1  0  0  0  0  0  0  0  0  0
  -27.1369  -18.9379   13.4666 C   0  0  2  0  0  0  0  0  0  0  0  0
  -30.2981  -28.8909   22.4432 C   0  0  0  0  0  0  0  0  0  0  0  0
  -23.9928  -29.4796   20.5022 C   0  0  0  0  0  0  0  0  0  0  0  0
  -26.2985  -30.4473   20.6259 C   0  0  0  0  0  0  0  0  0  0  0  0
  -25.0441  -29.9460   22.7230 C   0  0  0  0  0  0  0  0  0  0  0  0
  -25.0844  -18.1308   12.2517 C   0  0  0  0  0  0  0  0  0  0  0  0
  -29.8754  -25.1116   22.3247 C   0  0  0  0  0  0  0  0  0  0  0  0
  -27.2118  -21.3195   13.7749 C   0  0  0  0  0  0  0  0  0  0  0  0
  -25.1374  -21.7280   15.2173 C   0  0  0  0  0  0  0  0  0  1  0  0
  -25.9631  -28.0379   21.3422 C   0  0  1  0  0  0  0  0  0  0  0  0
  -29.5351  -27.5780   22.5249 C   0  0  2  0  0  0  0  0  0  0  0  0
  -25.7225  -21.6678   13.8068 C   0  0  1  0  0  0  0  0  0  0  0  0
  -25.3202  -29.4524   21.2860 C   0  0  0  0  0  0  0  0  0  0  0  0
  -27.0271  -16.3806   20.6708 N   0  0  0  0  0  0  0  0  0  0  0  0
  -28.2194  -16.9161   20.9836 N   0  0  0  0  0  0  0  0  0  0  0  0
  -24.6919  -25.9240   21.1445 N   0  0  0  0  0  0  0  0  0  0  0  0
  -27.8439  -20.4082   19.4760 N   0  0  0  0  0  0  0  0  0  0  0  0
  -30.3747  -16.3776   21.8053 N   0  0  0  0  0  0  0  0  0  0  0  0
  -29.7028  -12.7610   20.8768 N   0  0  0  0  0  0  0  0  0  0  0  0
  -21.4112  -25.8693   21.9214 N   0  0  0  0  0  0  0  0  0  0  0  0
  -27.2076  -27.9768   22.1012 N   0  0  0  0  0  0  0  0  0  0  0  0
  -28.6567  -20.2524   17.2605 N   0  0  0  0  0  0  0  0  0  0  0  0
  -27.4685  -20.0224   14.3918 N   0  0  2  0  0  0  0  0  0  0  0  0
  -25.7695  -18.4394   13.5094 N   0  3  1  0  0  0  0  0  0  0  0  0
  -25.5593  -23.0179   13.1832 N   0  3  0  0  0  0  0  0  0  0  0  0
  -30.4870  -26.4636   22.2541 N   0  3  0  0  0  0  0  0  0  0  0  0
  -28.9622  -13.1183   23.0175 O   0  0  0  0  0  0  0  0  0  0  0  0
  -22.2261  -25.4606   19.7787 O   0  0  0  0  0  0  0  0  0  0  0  0
  -24.6549  -27.1651   23.1179 O   0  0  0  0  0  0  0  0  0  0  0  0
  -28.5230  -27.1737   20.3686 O   0  0  0  0  0  0  0  0  0  0  0  0
  -28.5013  -22.2926   18.2951 O   0  0  0  0  0  0  0  0  0  0  0  0
  -22.9995  -11.4771   20.1404 O   0  0  0  0  0  0  0  0  0  0  0  0
  -25.8079  -22.7215   15.9916 O   0  0  0  0  0  0  0  0  0  1  0  0
  -23.4144   -6.4975   22.4717 F   0  0  0  0  0  0  0  0  0  0  0  0
  -21.1168  -10.6050   21.9673 F   0  0  0  0  0  0  0  0  0  0  0  0
  1  2  1  0  0  0  0
  1  5  2  0  0  0  0
  2  6  2  0  0  0  0
  3  8  2  0  0  0  0
  3 15  1  0  0  0  0
  4  9  1  0  0  0  0
  4 15  2  0  0  0  0
  5 17  1  0  0  0  0
  6 19  1  0  0  0  0
  7 10  2  0  0  0  0
  7 18  1  0  0  0  0
  8 21  1  0  0  0  0
  9 21  2  0  0  0  0
 10 22  1  0  0  0  0
 11 12  2  0  0  0  0
 11 23  1  0  0  0  0
 12 24  1  0  0  0  0
 13 20  1  0  0  0  0
 13 22  2  0  0  0  0
 14 24  2  0  0  0  0
 14 25  1  0  0  0  0
 15 26  1  0  0  0  0
 16 26  1  0  0  0  0
 16 27  2  0  0  0  0
 16 28  1  0  0  0  0
 17 19  2  0  0  0  0
 17 33  1  0  0  0  0
 18 20  2  0  0  0  0
 18 34  1  0  0  0  0
 19 46  1  0  0  0  0
 20 35  1  0  0  0  0
 21 82  1  0  0  0  0
 22 83  1  0  0  0  0
 23 25  2  0  0  0  0
 23 82  1  0  0  0  0
 24 84  1  0  0  0  0
 25 85  1  0  0  0  0
 26 64  2  0  0  0  0
 27 65  1  0  0  0  0
 27 68  1  0  0  0  0
 28 69  1  0  0  0  0
 28 77  2  0  0  0  0
 29 47  1  0  0  0  0
 29 70  1  0  0  0  0
 29 78  2  0  0  0  0
 30 60  1  0  0  0  0
 30 66  1  0  0  0  0
 30 79  2  0  0  0  0
 31 61  1  0  0  0  0
 31 71  1  0  0  0  0
 31 80  2  0  0  0  0
 32 67  1  0  0  0  0
 32 72  1  0  0  0  0
 32 81  2  0  0  0  0
 33 36  1  0  0  0  0
 34 47  1  0  0  0  0
 35 66  1  0  0  0  0
 36 39  1  0  0  0  0
 37 41  1  0  0  0  0
 37 42  1  0  0  0  0
 38 40  1  0  0  0  0
 38 43  1  0  0  0  0
 39 46  1  0  0  0  0
 40 48  1  0  0  0  0
 41 49  1  0  0  0  0
 42 50  1  0  0  0  0
 43 67  1  0  0  0  0
 44 48  1  0  0  0  0
 44 67  1  0  0  0  0
 45 51  1  0  0  0  0
 45 74  1  0  0  0  0
 46 70  1  0  0  0  0
 47 66  1  0  0  0  0
 48 65  1  0  0  0  0
 49 50  1  0  0  0  0
 49 72  1  0  0  0  0
 50 73  1  0  0  0  0
 51 73  1  0  0  0  0
 51 74  1  0  0  0  0
 52 61  1  0  0  0  0
 53 63  1  0  0  0  0
 54 63  1  0  0  0  0
 55 63  1  0  0  0  0
 56 74  1  0  0  0  0
 57 76  1  0  0  0  0
 58 62  1  0  0  0  0
 58 73  1  0  0  0  0
 59 62  1  0  0  0  0
 59 83  1  0  0  0  0
 60 63  1  0  0  0  0
 60 71  1  0  0  0  0
 61 76  1  0  0  0  0
 62 75  1  0  0  0  0
 64 65  1  0  0  0  0
M  CHG  3  74   1  75   1  76   1
M  ISO  4  32 100  59 101  72 100  83 101
M  END
> <Batch ID>
0196

> <Smiles>
CNC(C)C(=O)NC(C(=O)N1Cc2cc([101O:1][101CH2:1]C(N)CN(C3CCCC3[100NH:0][100C:0](=O)N3CCCC(n4nc(-c5ccc(Oc6ccc(F)cc6F)cc5)c(C(N)=O)c4N)C3)C3CN3C)ccc2CC1C(=O)NC1CCCc2ccccc21)C(C)(C)C

> <Shape>
0.217

> <Color>
0.065

> <Negative vol penalty>
0.000

$$$$

  -OEChem-04052323393D

 80 88  0     1  0  0  0  0  0999 V2000
  -28.2073  -37.4852   23.0639 C   0  0  0  0  0  0  0  0  0  0  0  0
  -28.6644  -36.2900   22.5180 C   0  0  0  0  0  0  0  0  0  0  0  0
  -21.8802  -12.8388   20.7163 C   0  0  0  0  0  0  0  0  0  0  0  0
  -22.8537  -11.8301   18.7486 C   0  0  0  0  0  0  0  0  0  0  0  0
  -27.1891  -37.4709   24.0161 C   0  0  0  0  0  0  0  0  0  0  0  0
  -28.1042  -35.0796   22.9250 C   0  0  0  0  0  0  0  0  0  0  0  0
  -27.1961  -30.0996   19.4782 C   0  0  0  0  0  0  0  0  0  0  0  0
  -20.6081  -12.4789   20.2715 C   0  0  0  0  0  0  0  0  0  0  0  0
  -21.5816  -11.4701   18.3038 C   0  0  0  0  0  0  0  0  0  0  0  0
  -27.9231  -28.9199   19.3244 C   0  0  0  0  0  0  0  0  0  0  0  0
  -18.6896   -9.6955   20.1991 C   0  0  0  0  0  0  0  0  0  0  0  0
  -17.8146   -9.1300   21.1265 C   0  0  0  0  0  0  0  0  0  0  0  0
  -26.4975  -27.8377   20.9418 C   0  0  0  0  0  0  0  0  0  0  0  0
  -16.2565  -10.9397   20.7598 C   0  0  0  0  0  0  0  0  0  0  0  0
  -23.0030  -12.5145   19.9548 C   0  0  0  0  0  0  0  0  0  0  0  0
  -25.1794  -12.1286   21.2283 C   0  0  0  0  0  0  0  0  0  0  0  0
  -26.6094  -36.2605   24.4279 C   0  0  0  0  0  0  0  0  0  0  0  0
  -26.1194  -30.1604   20.3744 C   0  0  0  0  0  0  0  0  0  0  0  0
  -27.0781  -35.0490   23.8847 C   0  0  0  0  0  0  0  0  0  0  0  0
  -25.7569  -29.0186   21.1031 C   0  0  0  0  0  0  0  0  0  0  0  0
  -20.4588  -11.7945   19.0653 C   0  0  0  0  0  0  0  0  0  0  0  0
  -27.5757  -27.7896   20.0584 C   0  0  0  0  0  0  0  0  0  0  0  0
  -18.3482  -10.8832   19.5521 C   0  0  0  0  0  0  0  0  0  0  0  0
  -16.5980   -9.7521   21.4069 C   0  0  0  0  0  0  0  0  0  0  0  0
  -17.1316  -11.5052   19.8324 C   0  0  0  0  0  0  0  0  0  0  0  0
  -24.3172  -12.8865   20.4135 C   0  0  0  0  0  0  0  0  0  0  0  0
  -26.2946  -12.9169   21.3749 C   0  0  0  0  0  0  0  0  0  0  0  0
  -24.9893  -10.8282   21.8015 C   0  0  0  0  0  0  0  0  0  0  0  0
  -25.4721  -31.8432   22.9922 C   0  0  0  0  0  0  0  0  0  0  0  0
  -22.5840  -30.3876   22.7425 C   0  0  0  0  0  0  0  0  0  0  0  0
  -20.7612  -27.7477   21.5783 C   0  0  0  0  0  0  0  0  0  0  0  0
  -26.8876  -18.8361   21.0425 C   0  0  0  0  0  0  0  0  0  0  0  0
  -25.5439  -36.2918   25.4948 C   0  0  0  0  0  0  0  0  0  0  0  0
  -25.3285  -31.4328   20.5089 C   0  0  0  0  0  0  0  0  0  0  0  0
  -24.5966  -29.0260   22.0634 C   0  0  0  0  0  0  0  0  0  0  0  0
  -24.7454  -34.9947   25.5964 C   0  0  0  0  0  0  0  0  0  0  0  0
  -28.8112  -16.3095   19.1639 C   0  0  0  0  0  0  0  0  0  0  0  0
  -25.6810  -33.7900   25.5901 C   0  0  0  0  0  0  0  0  0  0  0  0
  -27.9107  -15.0865   19.3107 C   0  0  0  0  0  0  0  0  0  0  0  0
  -27.9694  -20.9373   23.0168 C   0  0  0  0  0  0  0  0  0  0  0  0
  -28.0079  -17.6073   19.0880 C   0  0  0  0  0  0  0  0  0  0  0  0
  -28.8285  -22.1423   23.3968 C   0  0  0  0  0  0  0  0  0  0  0  0
  -26.1635  -16.5658   20.3755 C   0  0  0  0  0  0  0  0  0  0  0  0
  -28.6469  -22.1829   21.0729 C   0  0  0  0  0  0  0  0  0  0  0  0
  -26.4785  -33.7177   24.2823 C   0  0  1  0  0  0  0  0  0  0  0  0
  -24.5724  -31.5295   21.8304 C   0  0  1  0  0  0  0  0  0  0  0  0
  -26.9559  -15.2556   20.5024 C   0  0  1  0  0  0  0  0  0  0  0  0
  -27.6455  -21.1372   21.5374 C   0  0  1  0  0  0  0  0  0  0  0  0
  -18.4312  -26.8159   21.5649 C   0  0  0  0  0  0  0  0  0  0  0  0
  -22.9377  -29.4682   25.6303 C   0  0  0  0  0  0  0  0  0  0  0  0
  -21.1062  -27.8038   25.2514 C   0  0  0  0  0  0  0  0  0  0  0  0
  -20.6304  -30.2449   25.0579 C   0  0  0  0  0  0  0  0  0  0  0  0
  -20.5943  -27.8963   18.6272 C   0  0  0  0  0  0  0  0  0  0  0  0
  -29.8163  -23.9990   22.1820 C   0  0  0  0  0  0  0  0  0  0  0  0
  -28.3660  -25.7752   21.0452 C   0  0  0  0  0  0  0  0  0  1  0  0
  -21.9876  -29.1002   23.2580 C   0  0  1  0  0  0  0  0  0  0  0  0
  -19.4404  -27.6865   20.8325 C   0  0  2  0  0  0  0  0  0  0  0  0
  -29.6543  -24.9546   20.9983 C   0  0  1  0  0  0  0  0  0  0  0  0
  -21.6886  -29.1544   24.7828 C   0  0  0  0  0  0  0  0  0  0  0  0
  -24.8397  -14.0659   20.0668 N   0  0  0  0  0  0  0  0  0  0  0  0
  -26.0422  -14.0549   20.6668 N   0  0  0  0  0  0  0  0  0  0  0  0
  -23.8582  -30.2956   22.1645 N   0  0  0  0  0  0  0  0  0  0  0  0
  -27.0546  -17.7197   20.2032 N   0  0  0  0  0  0  0  0  0  0  0  0
  -28.7167  -23.0488   22.2515 N   0  0  2  0  0  0  0  0  0  0  0  0
  -27.4565  -12.7408   22.0392 N   0  0  0  0  0  0  0  0  0  0  0  0
  -23.7848  -10.1570   21.5505 N   0  0  0  0  0  0  0  0  0  0  0  0
  -25.6528  -33.1950   23.2149 N   0  0  0  0  0  0  0  0  0  0  0  0
  -20.8176  -28.8315   22.4289 N   0  0  0  0  0  0  0  0  0  0  0  0
  -27.7065  -19.9262   20.7707 N   0  0  0  0  0  0  0  0  0  0  0  0
  -30.8076  -25.9072   21.0238 N   0  3  0  0  0  0  0  0  0  0  0  0
  -19.6422  -27.1247   19.4670 N   0  3  0  0  0  0  0  0  0  0  0  0
  -25.8550  -10.2846   22.5285 O   0  0  0  0  0  0  0  0  0  0  0  0
  -25.9647  -30.9268   23.6396 O   0  0  0  0  0  0  0  0  0  0  0  0
  -21.9401  -31.4350   22.8422 O   0  0  0  0  0  0  0  0  0  0  0  0
  -21.6521  -26.9152   21.4247 O   0  0  0  0  0  0  0  0  0  0  0  0
  -26.0648  -18.8638   21.9644 O   0  0  0  0  0  0  0  0  0  0  0  0
  -19.2177  -11.4429   18.6311 O   0  0  0  0  0  0  0  0  0  0  0  0
  -28.2840  -26.6371   19.9108 O   0  0  0  0  0  0  0  0  0  1  0  0
  -15.7571   -9.2081   22.2963 F   0  0  0  0  0  0  0  0  0  0  0  0
  -16.7975  -12.6457   19.2131 F   0  0  0  0  0  0  0  0  0  0  0  0
  1  2  1  0  0  0  0
  1  5  2  0  0  0  0
  2  6  2  0  0  0  0
  3  8  2  0  0  0  0
  3 15  1  0  0  0  0
  4  9  1  0  0  0  0
  4 15  2  0  0  0  0
  5 17  1  0  0  0  0
  6 19  1  0  0  0  0
  7 10  2  0  0  0  0
  7 18  1  0  0  0  0
  8 21  1  0  0  0  0
  9 21  2  0  0  0  0
 10 22  1  0  0  0  0
 11 12  2  0  0  0  0
 11 23  1  0  0  0  0
 12 24  1  0  0  0  0
 13 20  1  0  0  0  0
 13 22  2  0  0  0  0
 14 24  2  0  0  0  0
 14 25  1  0  0  0  0
 15 26  1  0  0  0  0
 16 26  1  0  0  0  0
 16 27  2  0  0  0  0
 16 28  1  0  0  0  0
 17 19  2  0  0  0  0
 17 33  1  0  0  0  0
 18 20  2  0  0  0  0
 18 34  1  0  0  0  0
 19 45  1  0  0  0  0
 20 35  1  0  0  0  0
 21 77  1  0  0  0  0
 22 78  1  0  0  0  0
 23 25  2  0  0  0  0
 23 77  1  0  0  0  0
 24 79  1  0  0  0  0
 25 80  1  0  0  0  0
 26 60  2  0  0  0  0
 27 61  1  0  0  0  0
 27 65  1  0  0  0  0
 28 66  1  0  0  0  0
 28 72  2  0  0  0  0
 29 46  1  0  0  0  0
 29 67  1  0  0  0  0
 29 73  2  0  0  0  0
 30 56  1  0  0  0  0
 30 62  1  0  0  0  0
 30 74  2  0  0  0  0
 31 57  1  0  0  0  0
 31 68  1  0  0  0  0
 31 75  2  0  0  0  0
 32 63  1  0  0  0  0
 32 69  1  0  0  0  0
 32 76  2  0  0  0  0
 33 36  1  0  0  0  0
 34 46  1  0  0  0  0
 35 62  1  0  0  0  0
 36 38  1  0  0  0  0
 37 39  1  0  0  0  0
 37 41  1  0  0  0  0
 38 45  1  0  0  0  0
 39 47  1  0  0  0  0
 40 42  1  0  0  0  0
 40 48  1  0  0  0  0
 41 63  1  0  0  0  0
 42 64  1  0  0  0  0
 43 47  1  0  0  0  0
 43 63  1  0  0  0  0
 44 48  1  0  0  0  0
 44 64  1  0  0  0  0
 45 67  1  0  0  0  0
 46 62  1  0  0  0  0
 47 61  1  0  0  0  0
 48 69  1  0  0  0  0
 49 57  1  0  0  0  0
 50 59  1  0  0  0  0
 51 59  1  0  0  0  0
 52 59  1  0  0  0  0
 53 71  1  0  0  0  0
 54 58  1  0  0  0  0
 54 64  1  0  0  0  0
 55 58  1  0  0  0  0
 55 78  1  0  0  0  0
 56 59  1  0  0  0  0
 56 68  1  0  0  0  0
 57 71  1  0  0  0  0
 58 70  1  0  0  0  0
 60 61  1  0  0  0  0
M  CHG  2  70   1  71   1
M  ISO  4  32 100  55 101  69 100  78 101
M  END
> <Batch ID>
0196

> <Smiles>
CNC(C)C(=O)NC(C(=O)N1Cc2cc([101O:1][101CH2:1]C(N)CN3CCC([100NH:0][100C:0](=O)N4CCCC(n5nc(-c6ccc(Oc7ccc(F)cc7F)cc6)c(C(N)=O)c5N)C4)C3)ccc2CC1C(=O)NC1CCCc2ccccc21)C(C)(C)C

> <Shape>
0.268

> <Color>
0.071

> <Negative vol penalty>
0.000

$$$$

  -OEChem-04052323393D

 81 90  0     1  0  0  0  0  0999 V2000
  -37.4649  -13.4362   23.6961 C   0  0  0  0  0  0  0  0  0  0  0  0
  -36.8314  -14.6217   23.3374 C   0  0  0  0  0  0  0  0  0  0  0  0
  -21.1281  -27.9611   25.3490 C   0  0  0  0  0  0  0  0  0  0  0  0
  -20.9644  -30.3420   24.9726 C   0  0  0  0  0  0  0  0  0  0  0  0
  -37.0225  -12.2236   23.1691 C   0  0  0  0  0  0  0  0  0  0  0  0
  -35.7557  -14.5953   22.4505 C   0  0  0  0  0  0  0  0  0  0  0  0
  -30.8388  -18.2458   22.5174 C   0  0  0  0  0  0  0  0  0  0  0  0
  -20.4821  -28.1107   26.5762 C   0  0  0  0  0  0  0  0  0  0  0  0
  -20.3183  -30.4916   26.1997 C   0  0  0  0  0  0  0  0  0  0  0  0
  -30.5136  -19.3946   21.7975 C   0  0  0  0  0  0  0  0  0  0  0  0
  -17.3168  -28.5239   27.6909 C   0  0  0  0  0  0  0  0  0  0  0  0
  -16.3025  -27.6190   28.0041 C   0  0  0  0  0  0  0  0  0  0  0  0
  -29.2692  -18.0511   20.2273 C   0  0  0  0  0  0  0  0  0  0  0  0
  -17.5366  -26.9120   29.9572 C   0  0  0  0  0  0  0  0  0  0  0  0
  -21.3693  -29.0768   24.5472 C   0  0  0  0  0  0  0  0  0  0  0  0
  -21.4396  -28.6841   22.0276 C   0  0  0  0  0  0  0  0  0  0  0  0
  -35.9347  -12.1813   22.2828 C   0  0  0  0  0  0  0  0  0  0  0  0
  -30.3899  -16.9876   22.0908 C   0  0  0  0  0  0  0  0  0  0  0  0
  -35.2991  -13.3811   21.9101 C   0  0  0  0  0  0  0  0  0  0  0  0
  -29.5879  -16.8881   20.9450 C   0  0  0  0  0  0  0  0  0  0  0  0
  -20.0772  -29.3759   27.0015 C   0  0  0  0  0  0  0  0  0  0  0  0
  -29.7311  -19.2970   20.6506 C   0  0  0  0  0  0  0  0  0  0  0  0
  -18.4409  -28.6228   28.5107 C   0  0  0  0  0  0  0  0  0  0  0  0
  -16.4124  -26.8131   29.1372 C   0  0  0  0  0  0  0  0  0  0  0  0
  -18.5508  -27.8169   29.6439 C   0  0  0  0  0  0  0  0  0  0  0  0
  -22.0370  -28.9230   23.2797 C   0  0  0  0  0  0  0  0  0  0  0  0
  -22.4947  -28.6189   21.1506 C   0  0  0  0  0  0  0  0  0  0  0  0
  -20.0548  -28.5347   21.6876 C   0  0  0  0  0  0  0  0  0  0  0  0
  -31.8052  -14.3048   21.1404 C   0  0  0  0  0  0  0  0  0  0  0  0
  -28.7711  -13.1578   21.1585 C   0  0  0  0  0  0  0  0  0  0  0  0
  -25.4261  -13.8097   20.9763 C   0  0  0  0  0  0  0  0  0  0  0  0
  -27.3831  -26.9631   19.6701 C   0  0  0  0  0  0  0  0  0  0  0  0
  -35.5225  -10.8517   21.7024 C   0  0  0  0  0  0  0  0  0  0  0  0
  -30.7271  -15.7610   22.8934 C   0  0  0  0  0  0  0  0  0  0  0  0
  -29.0640  -15.5633   20.4563 C   0  0  0  0  0  0  0  0  0  0  0  0
  -34.1376  -10.8704   21.0604 C   0  0  0  0  0  0  0  0  0  0  0  0
  -27.3716  -29.7881   21.7571 C   0  0  0  0  0  0  0  0  0  0  0  0
  -33.9818  -12.0938   20.1627 C   0  0  0  0  0  0  0  0  0  0  0  0
  -25.9232  -29.7992   22.2450 C   0  0  0  0  0  0  0  0  0  0  0  0
  -32.6609  -23.1516   19.1679 C   0  0  0  0  0  0  0  0  0  0  0  0
  -32.4501  -23.2799   17.6857 C   0  0  0  0  0  0  0  0  0  0  0  0
  -27.9464  -28.3717   21.7004 C   0  0  0  0  0  0  0  0  0  0  0  0
  -29.7436  -26.4180   20.4155 C   0  0  0  0  0  0  0  0  0  0  0  0
  -29.1730  -26.5255   18.0159 C   0  0  0  0  0  0  0  0  0  0  0  0
  -25.6772  -27.4333   21.4033 C   0  0  0  0  0  0  0  0  0  0  0  0
  -30.2437  -24.9872   20.2427 C   0  0  0  0  0  0  0  0  0  0  0  0
  -29.6399  -25.0936   17.8108 C   0  0  0  0  0  0  0  0  0  0  0  0
  -34.1132  -13.3908   20.9702 C   0  0  1  0  0  0  0  0  0  0  0  0
  -30.6447  -14.4732   22.0798 C   0  0  1  0  0  0  0  0  0  0  0  0
  -25.0535  -28.8375   21.4161 C   0  0  1  0  0  0  0  0  0  0  0  0
  -31.2738  -23.3945   18.6246 C   0  0  0  0  0  0  0  0  0  0  0  0
  -23.1929  -12.6651   20.9818 C   0  0  0  0  0  0  0  0  0  0  0  0
  -29.2256  -12.2624   18.2772 C   0  0  0  0  0  0  0  0  0  0  0  0
  -26.7462  -12.0111   18.0376 C   0  0  0  0  0  0  0  0  0  0  0  0
  -27.9845  -10.6195   19.6967 C   0  0  0  0  0  0  0  0  0  0  0  0
  -24.5704  -15.2376   23.4233 C   0  0  0  0  0  0  0  0  0  0  0  0
  -30.2792  -22.2736   18.6693 C   0  0  0  0  0  0  0  0  0  0  0  0
  -30.3492  -21.4917   19.9745 C   0  0  0  0  0  0  0  0  0  1  0  0
  -27.6499  -13.0841   20.1502 C   0  0  1  0  0  0  0  0  0  0  0  0
  -24.2606  -13.3406   21.8283 C   0  0  2  0  0  0  0  0  0  0  0  0
  -27.9129  -12.0192   19.0483 C   0  0  0  0  0  0  0  0  0  0  0  0
  -23.3684  -29.0038   23.2088 N   0  0  0  0  0  0  0  0  0  0  0  0
  -23.6162  -28.8146   21.9016 N   0  0  0  0  0  0  0  0  0  0  0  0
  -29.4261  -14.3922   21.2717 N   0  0  0  0  0  0  0  0  0  0  0  0
  -27.0633  -27.4821   20.9336 N   0  0  0  0  0  0  0  0  0  0  0  0
  -28.7420  -26.7507   19.3944 N   0  0  0  0  0  0  0  0  0  0  0  0
  -22.5632  -28.4136   19.8181 N   0  0  0  0  0  0  0  0  0  0  0  0
  -19.1016  -28.6301   22.7106 N   0  0  0  0  0  0  0  0  0  0  0  0
  -32.8916  -13.6586   21.6986 N   0  0  0  0  0  0  0  0  0  0  0  0
  -26.4272  -12.8635   20.9147 N   0  0  0  0  0  0  0  0  0  0  0  0
  -30.7135  -24.7836   18.8246 N   0  3  0  0  0  0  0  0  0  0  0  0
  -23.6385  -14.4952   22.5360 N   0  3  0  0  0  0  0  0  0  0  0  0
  -19.6751  -28.3064   20.5140 O   0  0  0  0  0  0  0  0  0  0  0  0
  -31.7208  -14.7285   19.9936 O   0  0  0  0  0  0  0  0  0  0  0  0
  -29.0504  -12.1589   21.8262 O   0  0  0  0  0  0  0  0  0  0  0  0
  -25.4449  -14.9045   20.4180 O   0  0  0  0  0  0  0  0  0  0  0  0
  -26.5056  -26.7041   18.8369 O   0  0  0  0  0  0  0  0  0  0  0  0
  -19.4466  -29.5222   28.1988 O   0  0  0  0  0  0  0  0  0  0  0  0
  -29.4105  -20.4247   19.9407 O   0  0  0  0  0  0  0  0  0  1  0  0
  -15.4377  -25.9452   29.4388 F   0  0  0  0  0  0  0  0  0  0  0  0
  -19.6279  -27.9082   30.4360 F   0  0  0  0  0  0  0  0  0  0  0  0
  1  2  1  0  0  0  0
  1  5  2  0  0  0  0
  2  6  2  0  0  0  0
  3  8  2  0  0  0  0
  3 15  1  0  0  0  0
  4  9  1  0  0  0  0
  4 15  2  0  0  0  0
  5 17  1  0  0  0  0
  6 19  1  0  0  0  0
  7 10  2  0  0  0  0
  7 18  1  0  0  0  0
  8 21  1  0  0  0  0
  9 21  2  0  0  0  0
 10 22  1  0  0  0  0
 11 12  2  0  0  0  0
 11 23  1  0  0  0  0
 12 24  1  0  0  0  0
 13 20  1  0  0  0  0
 13 22  2  0  0  0  0
 14 24  2  0  0  0  0
 14 25  1  0  0  0  0
 15 26  1  0  0  0  0
 16 26  1  0  0  0  0
 16 27  2  0  0  0  0
 16 28  1  0  0  0  0
 17 19  2  0  0  0  0
 17 33  1  0  0  0  0
 18 20  2  0  0  0  0
 18 34  1  0  0  0  0
 19 48  1  0  0  0  0
 20 35  1  0  0  0  0
 21 78  1  0  0  0  0
 22 79  1  0  0  0  0
 23 25  2  0  0  0  0
 23 78  1  0  0  0  0
 24 80  1  0  0  0  0
 25 81  1  0  0  0  0
 26 62  2  0  0  0  0
 27 63  1  0  0  0  0
 27 67  1  0  0  0  0
 28 68  1  0  0  0  0
 28 73  2  0  0  0  0
 29 49  1  0  0  0  0
 29 69  1  0  0  0  0
 29 74  2  0  0  0  0
 30 59  1  0  0  0  0
 30 64  1  0  0  0  0
 30 75  2  0  0  0  0
 31 60  1  0  0  0  0
 31 70  1  0  0  0  0
 31 76  2  0  0  0  0
 32 65  1  0  0  0  0
 32 66  1  0  0  0  0
 32 77  2  0  0  0  0
 33 36  1  0  0  0  0
 34 49  1  0  0  0  0
 35 64  1  0  0  0  0
 36 38  1  0  0  0  0
 37 39  1  0  0  0  0
 37 42  1  0  0  0  0
 38 48  1  0  0  0  0
 39 50  1  0  0  0  0
 40 41  1  0  0  0  0
 40 51  1  0  0  0  0
 41 51  1  0  0  0  0
 42 65  1  0  0  0  0
 43 46  1  0  0  0  0
 43 66  1  0  0  0  0
 44 47  1  0  0  0  0
 44 66  1  0  0  0  0
 45 50  1  0  0  0  0
 45 65  1  0  0  0  0
 46 71  1  0  0  0  0
 47 71  1  0  0  0  0
 48 69  1  0  0  0  0
 49 64  1  0  0  0  0
 50 63  1  0  0  0  0
 51 57  1  0  0  0  0
 51 71  1  0  0  0  0
 52 60  1  0  0  0  0
 53 61  1  0  0  0  0
 54 61  1  0  0  0  0
 55 61  1  0  0  0  0
 56 72  1  0  0  0  0
 57 58  1  0  0  0  0
 58 79  1  0  0  0  0
 59 61  1  0  0  0  0
 59 70  1  0  0  0  0
 60 72  1  0  0  0  0
 62 63  1  0  0  0  0
M  CHG  2  71   1  72   1
M  ISO  4  32 100  58 101  66 100  79 101
M  END
> <Batch ID>
0196

> <Smiles>
CNC(C)C(=O)NC(C(=O)N1Cc2cc([101O:1][101CH2:1]CC3(N4CC[100N:0]([100C:0](=O)N5CCCC(n6nc(-c7ccc(Oc8ccc(F)cc8F)cc7)c(C(N)=O)c6N)C5)CC4)CC3)ccc2CC1C(=O)NC1CCCc2ccccc21)C(C)(C)C

> <Shape>
0.257

> <Color>
0.078

> <Negative vol penalty>
0.000

$$$$

  -OEChem-04052323393D

 86 95  0     1  0  0  0  0  0999 V2000
  -21.3027  -14.6529   24.9931 C   0  0  0  0  0  0  0  0  0  0  0  0
  -21.4845  -16.0291   25.0847 C   0  0  0  0  0  0  0  0  0  0  0  0
  -29.0354  -17.4485   19.5258 C   0  0  0  0  0  0  0  0  0  0  0  0
  -30.6001  -17.9119   21.3074 C   0  0  0  0  0  0  0  0  0  0  0  0
  -21.7316  -13.9683   23.8567 C   0  0  0  0  0  0  0  0  0  0  0  0
  -22.0964  -16.7215   24.0403 C   0  0  0  0  0  0  0  0  0  0  0  0
  -20.8255  -22.4058   22.1484 C   0  0  0  0  0  0  0  0  0  0  0  0
  -29.6260  -16.1998   19.3319 C   0  0  0  0  0  0  0  0  0  0  0  0
  -31.1906  -16.6631   21.1136 C   0  0  0  0  0  0  0  0  0  0  0  0
  -21.4309  -23.6359   22.4014 C   0  0  0  0  0  0  0  0  0  0  0  0
  -29.5503  -13.1539   20.7981 C   0  0  0  0  0  0  0  0  0  0  0  0
  -28.7059  -12.0546   20.6433 C   0  0  0  0  0  0  0  0  0  0  0  0
  -22.6893  -23.4308   20.3535 C   0  0  0  0  0  0  0  0  0  0  0  0
  -29.6443  -11.6418   18.4556 C   0  0  0  0  0  0  0  0  0  0  0  0
  -29.5225  -18.3046   20.5135 C   0  0  0  0  0  0  0  0  0  0  0  0
  -27.8427  -19.9052   21.5737 C   0  0  0  0  0  0  0  0  0  0  0  0
  -22.3403  -14.6540   22.7938 C   0  0  0  0  0  0  0  0  0  0  0  0
  -21.1560  -21.6726   20.9997 C   0  0  0  0  0  0  0  0  0  0  0  0
  -22.5351  -16.0452   22.8892 C   0  0  0  0  0  0  0  0  0  0  0  0
  -22.0847  -22.1929   20.0870 C   0  0  0  0  0  0  0  0  0  0  0  0
  -30.7035  -15.8071   20.1258 C   0  0  0  0  0  0  0  0  0  0  0  0
  -22.3651  -24.1473   21.5053 C   0  0  0  0  0  0  0  0  0  0  0  0
  -30.4416  -13.4973   19.7816 C   0  0  0  0  0  0  0  0  0  0  0  0
  -28.7529  -11.2985   19.4721 C   0  0  0  0  0  0  0  0  0  0  0  0
  -30.4887  -12.7412   18.6104 C   0  0  0  0  0  0  0  0  0  0  0  0
  -28.9133  -19.5949   20.7139 C   0  0  0  0  0  0  0  0  0  0  0  0
  -27.6424  -21.2529   21.4002 C   0  0  0  0  0  0  0  0  0  0  0  0
  -25.1451  -28.1691   21.0841 C   0  0  0  0  0  0  0  0  0  0  0  0
  -26.4216  -28.8948   21.3298 C   0  0  0  0  0  0  0  0  0  0  0  0
  -25.7679  -27.8002   18.9065 C   0  0  0  0  0  0  0  0  0  0  0  0
  -27.0960  -19.0515   22.4508 C   0  0  0  0  0  0  0  0  0  0  0  0
  -22.4537  -18.8228   20.4537 C   0  0  0  0  0  0  0  0  0  0  0  0
  -21.7473  -19.5255   17.3668 C   0  0  0  0  0  0  0  0  0  0  0  0
  -21.1339  -21.9125   15.0061 C   0  0  0  0  0  0  0  0  0  0  0  0
  -29.6111  -26.3454   21.0296 C   0  0  0  0  0  0  0  0  0  0  0  0
  -22.8302  -13.8641   21.6060 C   0  0  0  0  0  0  0  0  0  0  0  0
  -20.4742  -20.3597   20.7278 C   0  0  0  0  0  0  0  0  0  0  0  0
  -22.4592  -21.4545   18.8288 C   0  0  0  0  0  0  0  0  0  0  0  0
  -23.1312  -14.7267   20.3831 C   0  0  0  0  0  0  0  0  0  0  0  0
  -29.5154  -24.4448   17.9513 C   0  0  0  0  0  0  0  0  0  0  0  0
  -23.9478  -15.9518   20.7818 C   0  0  0  0  0  0  0  0  0  0  0  0
  -29.2597  -23.0304   18.4750 C   0  0  0  0  0  0  0  0  0  0  0  0
  -30.4474  -25.2179   18.8797 C   0  0  0  0  0  0  0  0  0  0  0  0
  -29.7296  -23.8787   20.8200 C   0  0  0  0  0  0  0  0  0  0  0  0
  -22.4166  -28.9025   22.9810 C   0  0  0  0  0  0  0  0  0  0  0  0
  -23.1723  -16.8351   21.7666 C   0  0  1  0  0  0  0  0  0  0  0  0
  -24.1903  -28.0580   22.2712 C   0  0  2  0  0  0  0  0  0  0  0  0
  -21.2670  -19.4584   19.7863 C   0  0  1  0  0  0  0  0  0  0  0  0
  -22.7024  -27.7229   22.0339 C   0  0  1  0  0  0  0  0  0  0  0  0
  -28.7763  -23.0531   19.9371 C   0  0  2  0  0  0  0  0  0  0  0  0
  -20.6264  -22.1828   12.5634 C   0  0  0  0  0  0  0  0  0  0  0  0
  -24.6693  -18.9544   16.6991 C   0  0  0  0  0  0  0  0  0  0  0  0
  -24.3282  -20.1322   14.5162 C   0  0  0  0  0  0  0  0  0  0  0  0
  -23.0265  -18.0683   15.0346 C   0  0  0  0  0  0  0  0  0  0  0  0
  -18.5319  -23.2047   15.5708 C   0  0  0  0  0  0  0  0  0  0  0  0
  -22.2317  -26.3570   22.4892 C   0  0  0  0  0  0  0  0  0  1  0  0
  -28.5155  -29.6568   20.3515 C   0  0  0  0  0  0  0  0  0  0  0  0
  -29.5496  -28.8252   21.0926 C   0  0  0  0  0  0  0  0  0  0  0  0
  -22.4675  -20.2210   16.2369 C   0  0  1  0  0  0  0  0  0  0  0  0
  -20.0413  -22.0368   13.9595 C   0  0  2  0  0  0  0  0  0  0  0  0
  -23.6175  -19.3573   15.6463 C   0  0  0  0  0  0  0  0  0  0  0  0
  -29.3618  -20.6597   20.0438 N   0  0  0  0  0  0  0  0  0  0  0  0
  -24.8639  -27.6640   19.9340 N   0  0  0  0  0  0  0  0  0  0  0  0
  -26.9097  -28.4217   19.0314 N   0  0  0  0  0  0  0  0  0  0  0  0
  -28.5690  -21.6523   20.4825 N   0  0  0  0  0  0  0  0  0  0  0  0
  -27.2441  -28.9688   20.2287 N   0  0  0  0  0  0  0  0  0  0  0  0
  -21.7699  -20.1720   18.6107 N   0  0  0  0  0  0  0  0  0  0  0  0
  -29.9205  -25.2173   20.2517 N   0  0  0  0  0  0  0  0  0  0  0  0
  -26.7659  -22.1233   21.9445 N   0  0  0  0  0  0  0  0  0  0  0  0
  -25.4306  -27.2461   17.6947 N   0  0  0  0  0  0  0  0  0  0  0  0
  -27.4332  -17.6923   22.5072 N   0  0  0  0  0  0  0  0  0  0  0  0
  -22.1748  -17.6165   21.0674 N   0  0  0  0  0  0  0  0  0  0  0  0
  -21.4426  -20.5945   15.2681 N   0  0  0  0  0  0  0  0  0  0  0  0
  -29.8269  -27.5753   20.4202 N   0  0  0  0  0  0  0  0  0  0  0  0
  -23.7602  -29.4179   22.6653 N   0  3  0  0  0  0  0  0  0  0  0  0
  -19.1894  -23.2273   14.2389 N   0  3  0  0  0  0  0  0  0  0  0  0
  -26.6265  -29.3481   22.4464 O   0  0  0  0  0  0  0  0  0  0  0  0
  -26.1468  -19.4781   23.1513 O   0  0  0  0  0  0  0  0  0  0  0  0
  -23.5421  -19.3844   20.4136 O   0  0  0  0  0  0  0  0  0  0  0  0
  -21.1794  -18.4517   17.1518 O   0  0  0  0  0  0  0  0  0  0  0  0
  -21.6633  -22.8873   15.5354 O   0  0  0  0  0  0  0  0  0  0  0  0
  -29.1698  -26.2627   22.1809 O   0  0  0  0  0  0  0  0  0  0  0  0
  -31.2798  -14.5886   19.9371 O   0  0  0  0  0  0  0  0  0  0  0  0
  -22.9581  -25.3474   21.7501 O   0  0  0  0  0  0  0  0  0  1  0  0
  -27.9431  -10.2418   19.3243 F   0  0  0  0  0  0  0  0  0  0  0  0
  -31.3438  -13.0655   17.6309 F   0  0  0  0  0  0  0  0  0  0  0  0
  1  2  1  0  0  0  0
  1  5  2  0  0  0  0
  2  6  2  0  0  0  0
  3  8  2  0  0  0  0
  3 15  1  0  0  0  0
  4  9  1  0  0  0  0
  4 15  2  0  0  0  0
  5 17  1  0  0  0  0
  6 19  1  0  0  0  0
  7 10  2  0  0  0  0
  7 18  1  0  0  0  0
  8 21  1  0  0  0  0
  9 21  2  0  0  0  0
 10 22  1  0  0  0  0
 11 12  2  0  0  0  0
 11 23  1  0  0  0  0
 12 24  1  0  0  0  0
 13 20  1  0  0  0  0
 13 22  2  0  0  0  0
 14 24  2  0  0  0  0
 14 25  1  0  0  0  0
 15 26  1  0  0  0  0
 16 26  1  0  0  0  0
 16 27  2  0  0  0  0
 16 31  1  0  0  0  0
 17 19  2  0  0  0  0
 17 36  1  0  0  0  0
 18 20  2  0  0  0  0
 18 37  1  0  0  0  0
 19 46  1  0  0  0  0
 20 38  1  0  0  0  0
 21 83  1  0  0  0  0
 22 84  1  0  0  0  0
 23 25  2  0  0  0  0
 23 83  1  0  0  0  0
 24 85  1  0  0  0  0
 25 86  1  0  0  0  0
 26 62  2  0  0  0  0
 27 65  1  0  0  0  0
 27 69  1  0  0  0  0
 28 29  1  0  0  0  0
 28 47  1  0  0  0  0
 28 63  2  0  0  0  0
 29 66  1  0  0  0  0
 29 77  2  0  0  0  0
 30 63  1  0  0  0  0
 30 64  2  0  0  0  0
 30 70  1  0  0  0  0
 31 71  1  0  0  0  0
 31 78  2  0  0  0  0
 32 48  1  0  0  0  0
 32 72  1  0  0  0  0
 32 79  2  0  0  0  0
 33 59  1  0  0  0  0
 33 67  1  0  0  0  0
 33 80  2  0  0  0  0
 34 60  1  0  0  0  0
 34 73  1  0  0  0  0
 34 81  2  0  0  0  0
 35 68  1  0  0  0  0
 35 74  1  0  0  0  0
 35 82  2  0  0  0  0
 36 39  1  0  0  0  0
 37 48  1  0  0  0  0
 38 67  1  0  0  0  0
 39 41  1  0  0  0  0
 40 42  1  0  0  0  0
 40 43  1  0  0  0  0
 41 46  1  0  0  0  0
 42 50  1  0  0  0  0
 43 68  1  0  0  0  0
 44 50  1  0  0  0  0
 44 68  1  0  0  0  0
 45 49  1  0  0  0  0
 45 75  1  0  0  0  0
 46 72  1  0  0  0  0
 47 49  1  0  0  0  0
 47 75  1  0  0  0  0
 48 67  1  0  0  0  0
 49 56  1  0  0  0  0
 50 65  1  0  0  0  0
 51 60  1  0  0  0  0
 52 61  1  0  0  0  0
 53 61  1  0  0  0  0
 54 61  1  0  0  0  0
 55 76  1  0  0  0  0
 56 84  1  0  0  0  0
 57 58  1  0  0  0  0
 57 66  1  0  0  0  0
 58 74  1  0  0  0  0
 59 61  1  0  0  0  0
 59 73  1  0  0  0  0
 60 76  1  0  0  0  0
 62 65  1  0  0  0  0
 64 66  1  0  0  0  0
M  CHG  2  75   1  76   1
M  ISO  4  35 100  56 101  74 100  84 101
M  END
> <Batch ID>
0196

> <Smiles>
CNC(C)C(=O)NC(C(=O)N1Cc2cc([101O:1][101CH2:1]C3CNC3c3nc(N)nn(CC[100NH:0][100C:0](=O)N4CCCC(n5nc(-c6ccc(Oc7ccc(F)cc7F)cc6)c(C(N)=O)c5N)C4)c3=O)ccc2CC1C(=O)NC1CCCc2ccccc21)C(C)(C)C

> <Shape>
0.215

> <Color>
0.057

> <Negative vol penalty>
0.000

$$$$

  -OEChem-04052323393D

 83 92  0     1  0  0  0  0  0999 V2000
  -32.4258  -37.9129   21.5591 C   0  0  0  0  0  0  0  0  0  0  0  0
  -32.3438  -36.8911   20.6186 C   0  0  0  0  0  0  0  0  0  0  0  0
  -24.3972   -9.1263   22.2620 C   0  0  0  0  0  0  0  0  0  0  0  0
  -23.8977   -9.1520   19.8984 C   0  0  0  0  0  0  0  0  0  0  0  0
  -32.0466  -37.6755   22.8796 C   0  0  0  0  0  0  0  0  0  0  0  0
  -31.8835  -35.6308   20.9984 C   0  0  0  0  0  0  0  0  0  0  0  0
  -28.2139  -30.0281   18.4566 C   0  0  0  0  0  0  0  0  0  0  0  0
  -23.2964   -8.2995   22.4857 C   0  0  0  0  0  0  0  0  0  0  0  0
  -22.7969   -8.3251   20.1221 C   0  0  0  0  0  0  0  0  0  0  0  0
  -28.3181  -28.6445   18.3205 C   0  0  0  0  0  0  0  0  0  0  0  0
  -22.5343   -5.0221   22.1533 C   0  0  0  0  0  0  0  0  0  0  0  0
  -22.7088   -3.9241   22.9957 C   0  0  0  0  0  0  0  0  0  0  0  0
  -27.6156  -28.3722   20.6121 C   0  0  0  0  0  0  0  0  0  0  0  0
  -21.0040   -4.7873   24.4740 C   0  0  0  0  0  0  0  0  0  0  0  0
  -27.5702  -23.7375   17.3854 C   0  0  0  0  0  0  0  0  0  0  0  0
  -29.5323  -23.7606   18.6526 C   0  0  0  0  0  0  0  0  0  0  0  0
  -24.6979   -9.5526   20.9683 C   0  0  0  0  0  0  0  0  0  0  0  0
  -27.1545  -10.0081   20.4533 C   0  0  0  0  0  0  0  0  0  0  0  0
  -31.5723  -36.4144   23.2736 C   0  0  0  0  0  0  0  0  0  0  0  0
  -27.8196  -30.5956   19.6768 C   0  0  0  0  0  0  0  0  0  0  0  0
  -31.4988  -35.3759   22.3257 C   0  0  0  0  0  0  0  0  0  0  0  0
  -27.5047  -29.7631   20.7604 C   0  0  0  0  0  0  0  0  0  0  0  0
  -28.5477  -24.4840   18.0111 C   0  0  0  0  0  0  0  0  0  0  0  0
  -22.4962   -7.8988   21.4158 C   0  0  0  0  0  0  0  0  0  0  0  0
  -28.0218  -27.8164   19.3991 C   0  0  0  0  0  0  0  0  0  0  0  0
  -21.5947   -6.0027   22.4714 C   0  0  0  0  0  0  0  0  0  0  0  0
  -21.9437   -3.8067   24.1560 C   0  0  0  0  0  0  0  0  0  0  0  0
  -20.8295   -5.8853   23.6317 C   0  0  0  0  0  0  0  0  0  0  0  0
  -25.8346  -10.4072   20.7367 C   0  0  0  0  0  0  0  0  0  0  0  0
  -27.8480  -11.1859   20.3186 C   0  0  0  0  0  0  0  0  0  0  0  0
  -28.5609  -21.7991   18.0397 C   0  0  0  0  0  0  0  0  0  0  0  0
  -27.7045   -8.6904   20.3232 C   0  0  0  0  0  0  0  0  0  0  0  0
  -29.1740  -32.5562   21.7805 C   0  0  0  0  0  0  0  0  0  0  0  0
  -26.2490  -32.4470   23.1787 C   0  0  0  0  0  0  0  0  0  0  0  0
  -23.3190  -30.7588   23.6389 C   0  0  0  0  0  0  0  0  0  0  0  0
  -28.4545  -16.1919   18.4702 C   0  0  0  0  0  0  0  0  0  0  0  0
  -31.2187  -36.1921   24.7228 C   0  0  0  0  0  0  0  0  0  0  0  0
  -27.6863  -32.0887   19.7995 C   0  0  0  0  0  0  0  0  0  0  0  0
  -27.0574  -30.3216   22.0857 C   0  0  0  0  0  0  0  0  0  0  0  0
  -30.3876  -34.9340   24.9609 C   0  0  0  0  0  0  0  0  0  0  0  0
  -26.5237  -15.9403   21.3939 C   0  0  0  0  0  0  0  0  0  0  0  0
  -30.9833  -33.7499   24.2061 C   0  0  0  0  0  0  0  0  0  0  0  0
  -26.2734  -14.4342   21.4640 C   0  0  0  0  0  0  0  0  0  0  0  0
  -26.4262  -16.4714   19.9629 C   0  0  0  0  0  0  0  0  0  0  0  0
  -29.6457  -19.6921   18.7552 C   0  0  0  0  0  0  0  0  0  0  0  0
  -27.2737  -19.7084   17.9683 C   0  0  0  0  0  0  0  0  0  0  0  0
  -29.7838  -18.2580   18.2513 C   0  0  0  0  0  0  0  0  0  0  0  0
  -27.4575  -18.2801   17.4675 C   0  0  0  0  0  0  0  0  0  0  0  0
  -27.0381  -14.2488   19.0664 C   0  0  0  0  0  0  0  0  0  0  0  0
  -30.9812  -34.0023   22.6936 C   0  0  1  0  0  0  0  0  0  0  0  0
  -27.7717  -32.5798   21.2414 C   0  0  1  0  0  0  0  0  0  0  0  0
  -27.1872  -13.6762   20.4846 C   0  0  2  0  0  0  0  0  0  0  0  0
  -21.1350  -30.9018   24.8665 C   0  0  0  0  0  0  0  0  0  0  0  0
  -27.6543  -31.6492   25.7669 C   0  0  0  0  0  0  0  0  0  0  0  0
  -25.4383  -30.8961   26.6561 C   0  0  0  0  0  0  0  0  0  0  0  0
  -25.7903  -33.2915   26.0553 C   0  0  0  0  0  0  0  0  0  0  0  0
  -21.7700  -30.7768   21.1172 C   0  0  0  0  0  0  0  0  0  0  0  0
  -28.5398  -25.9669   17.9966 C   0  0  0  0  0  0  0  0  0  1  0  0
  -25.5919  -31.5685   24.2157 C   0  0  1  0  0  0  0  0  0  0  0  0
  -21.8726  -31.2151   23.5740 C   0  0  2  0  0  0  0  0  0  0  0  0
  -26.1290  -31.8406   25.6493 C   0  0  0  0  0  0  0  0  0  0  0  0
  -27.5458  -22.3886   17.3797 N   0  0  0  0  0  0  0  0  0  0  0  0
  -29.5699  -22.4124   18.6872 N   0  0  0  0  0  0  0  0  0  0  0  0
  -25.6955  -11.7349   20.7800 N   0  0  0  0  0  0  0  0  0  0  0  0
  -26.9369  -12.1803   20.5220 N   0  0  0  0  0  0  0  0  0  0  0  0
  -28.5681  -20.3984   18.0540 N   0  0  0  0  0  0  0  0  0  0  0  0
  -26.9485  -31.7881   22.1578 N   0  0  0  0  0  0  0  0  0  0  0  0
  -27.2831  -15.6926   19.0589 N   0  0  0  0  0  0  0  0  0  0  0  0
  -28.4981  -17.5716   18.2156 N   0  0  0  0  0  0  0  0  0  0  0  0
  -29.1422  -11.4578   20.0473 N   0  0  0  0  0  0  0  0  0  0  0  0
  -26.8519   -7.5909   20.4922 N   0  0  0  0  0  0  0  0  0  0  0  0
  -29.6561  -33.7977   22.1489 N   0  0  0  0  0  0  0  0  0  0  0  0
  -24.1543  -31.7683   24.0683 N   0  0  0  0  0  0  0  0  0  0  0  0
  -21.1649  -30.5355   22.4523 N   0  3  0  0  0  0  0  0  0  0  0  0
  -28.9195   -8.4936   20.0810 O   0  0  0  0  0  0  0  0  0  0  0  0
  -29.7736  -31.4903   21.8580 O   0  0  0  0  0  0  0  0  0  0  0  0
  -26.1395  -33.6725   23.2672 O   0  0  0  0  0  0  0  0  0  0  0  0
  -23.6720  -29.6195   23.3422 O   0  0  0  0  0  0  0  0  0  0  0  0
  -29.4063  -15.4522   18.1911 O   0  0  0  0  0  0  0  0  0  0  0  0
  -21.4221   -7.0918   21.6337 O   0  0  0  0  0  0  0  0  0  0  0  0
  -28.1239  -26.4576   19.2683 O   0  0  0  0  0  0  0  0  0  1  0  0
  -22.1103   -2.7514   24.9640 F   0  0  0  0  0  0  0  0  0  0  0  0
  -19.9244   -6.8236   23.9418 F   0  0  0  0  0  0  0  0  0  0  0  0
  1  2  1  0  0  0  0
  1  5  2  0  0  0  0
  2  6  2  0  0  0  0
  3  8  2  0  0  0  0
  3 17  1  0  0  0  0
  4  9  1  0  0  0  0
  4 17  2  0  0  0  0
  5 19  1  0  0  0  0
  6 21  1  0  0  0  0
  7 10  2  0  0  0  0
  7 20  1  0  0  0  0
  8 24  1  0  0  0  0
  9 24  2  0  0  0  0
 10 25  1  0  0  0  0
 11 12  2  0  0  0  0
 11 26  1  0  0  0  0
 12 27  1  0  0  0  0
 13 22  1  0  0  0  0
 13 25  2  0  0  0  0
 14 27  2  0  0  0  0
 14 28  1  0  0  0  0
 15 23  1  0  0  0  0
 15 62  2  0  0  0  0
 16 23  2  0  0  0  0
 16 63  1  0  0  0  0
 17 29  1  0  0  0  0
 18 29  1  0  0  0  0
 18 30  2  0  0  0  0
 18 32  1  0  0  0  0
 19 21  2  0  0  0  0
 19 37  1  0  0  0  0
 20 22  2  0  0  0  0
 20 38  1  0  0  0  0
 21 50  1  0  0  0  0
 22 39  1  0  0  0  0
 23 58  1  0  0  0  0
 24 80  1  0  0  0  0
 25 81  1  0  0  0  0
 26 28  2  0  0  0  0
 26 80  1  0  0  0  0
 27 82  1  0  0  0  0
 28 83  1  0  0  0  0
 29 64  2  0  0  0  0
 30 65  1  0  0  0  0
 30 70  1  0  0  0  0
 31 62  1  0  0  0  0
 31 63  2  0  0  0  0
 31 66  1  0  0  0  0
 32 71  1  0  0  0  0
 32 75  2  0  0  0  0
 33 51  1  0  0  0  0
 33 72  1  0  0  0  0
 33 76  2  0  0  0  0
 34 59  1  0  0  0  0
 34 67  1  0  0  0  0
 34 77  2  0  0  0  0
 35 60  1  0  0  0  0
 35 73  1  0  0  0  0
 35 78  2  0  0  0  0
 36 68  1  0  0  0  0
 36 69  1  0  0  0  0
 36 79  2  0  0  0  0
 37 40  1  0  0  0  0
 38 51  1  0  0  0  0
 39 67  1  0  0  0  0
 40 42  1  0  0  0  0
 41 43  1  0  0  0  0
 41 44  1  0  0  0  0
 42 50  1  0  0  0  0
 43 52  1  0  0  0  0
 44 68  1  0  0  0  0
 45 47  1  0  0  0  0
 45 66  1  0  0  0  0
 46 48  1  0  0  0  0
 46 66  1  0  0  0  0
 47 69  1  0  0  0  0
 48 69  1  0  0  0  0
 49 52  1  0  0  0  0
 49 68  1  0  0  0  0
 50 72  1  0  0  0  0
 51 67  1  0  0  0  0
 52 65  1  0  0  0  0
 53 60  1  0  0  0  0
 54 61  1  0  0  0  0
 55 61  1  0  0  0  0
 56 61  1  0  0  0  0
 57 74  1  0  0  0  0
 58 81  1  0  0  0  0
 59 61  1  0  0  0  0
 59 73  1  0  0  0  0
 60 74  1  0  0  0  0
 64 65  1  0  0  0  0
M  CHG  1  74   1
M  ISO  4  36 100  58 101  69 100  81 101
M  END
> <Batch ID>
0196

> <Smiles>
CNC(C)C(=O)NC(C(=O)N1Cc2cc([101O:1][101CH2:1]c3cnc(N4CC[100N:0]([100C:0](=O)N5CCCC(n6nc(-c7ccc(Oc8ccc(F)cc8F)cc7)c(C(N)=O)c6N)C5)CC4)nc3)ccc2CC1C(=O)NC1CCCc2ccccc21)C(C)(C)C

> <Shape>
0.257

> <Color>
0.110

> <Negative vol penalty>
0.000

$$$$

  -OEChem-04052323392D

  0  0  0     0  0  0  0  0  0999 V2000
M  END
$$$$

  -OEChem-04052323393D

 83 92  0     1  0  0  0  0  0999 V2000
  -15.4495  -26.3984   23.3077 C   0  0  0  0  0  0  0  0  0  0  0  0
  -16.4254  -25.9133   22.4431 C   0  0  0  0  0  0  0  0  0  0  0  0
  -25.5415  -14.2563   19.5159 C   0  0  0  0  0  0  0  0  0  0  0  0
  -24.4580  -14.0850   21.6685 C   0  0  0  0  0  0  0  0  0  0  0  0
  -15.6130  -27.6435   23.9135 C   0  0  0  0  0  0  0  0  0  0  0  0
  -17.5651  -26.6735   22.1829 C   0  0  0  0  0  0  0  0  0  0  0  0
  -23.2325  -24.5844   21.1723 C   0  0  0  0  0  0  0  0  0  0  0  0
  -25.7099  -12.8719   19.4905 C   0  0  0  0  0  0  0  0  0  0  0  0
  -24.6263  -12.7005   21.6430 C   0  0  0  0  0  0  0  0  0  0  0  0
  -23.9548  -24.3608   20.0010 C   0  0  0  0  0  0  0  0  0  0  0  0
  -23.1413  -10.0389   20.1834 C   0  0  0  0  0  0  0  0  0  0  0  0
  -22.0531   -9.2484   20.5528 C   0  0  0  0  0  0  0  0  0  0  0  0
  -24.9905  -26.5271   20.2332 C   0  0  0  0  0  0  0  0  0  0  0  0
  -23.3564   -8.2941   22.3495 C   0  0  0  0  0  0  0  0  0  0  0  0
  -28.4761  -23.0063   17.1479 C   0  0  0  0  0  0  0  0  0  0  0  0
  -24.9156  -14.8629   20.6050 C   0  0  0  0  0  0  0  0  0  0  0  0
  -23.6457  -17.0257   20.1389 C   0  0  0  0  0  0  0  0  0  0  0  0
  -16.7597  -28.4151   23.6681 C   0  0  0  0  0  0  0  0  0  0  0  0
  -23.3759  -25.7875   21.8782 C   0  0  0  0  0  0  0  0  0  0  0  0
  -17.7435  -27.9307   22.7849 C   0  0  0  0  0  0  0  0  0  0  0  0
  -24.2708  -26.7624   21.4147 C   0  0  0  0  0  0  0  0  0  0  0  0
  -25.2523  -12.0940   20.5540 C   0  0  0  0  0  0  0  0  0  0  0  0
  -24.8318  -25.3334   19.5297 C   0  0  0  0  0  0  0  0  0  0  0  0
  -24.3370   -9.9570   20.8969 C   0  0  0  0  0  0  0  0  0  0  0  0
  -22.1606   -8.3760   21.6359 C   0  0  0  0  0  0  0  0  0  0  0  0
  -24.4446   -9.0846   21.9800 C   0  0  0  0  0  0  0  0  0  0  0  0
  -24.7419  -16.2930   20.6321 C   0  0  0  0  0  0  0  0  0  0  0  0
  -29.6901  -23.6449   17.1875 C   0  0  0  0  0  0  0  0  0  0  0  0
  -23.9616  -18.3360   20.4032 C   0  0  0  0  0  0  0  0  0  0  0  0
  -22.4488  -16.5633   19.4991 C   0  0  0  0  0  0  0  0  0  0  0  0
  -21.4283  -28.1744   22.6617 C   0  0  0  0  0  0  0  0  0  0  0  0
  -24.0021  -29.2047   24.3458 C   0  0  0  0  0  0  0  0  0  0  0  0
  -27.3899  -29.1901   24.7576 C   0  0  0  0  0  0  0  0  0  0  0  0
  -29.2741  -20.9464   21.0837 C   0  0  0  0  0  0  0  0  0  0  0  0
  -16.8700  -29.7759   24.3091 C   0  0  0  0  0  0  0  0  0  0  0  0
  -22.6096  -26.0023   23.1546 C   0  0  0  0  0  0  0  0  0  0  0  0
  -24.4761  -28.0627   22.1466 C   0  0  0  0  0  0  0  0  0  0  0  0
  -18.2824  -30.3539   24.2724 C   0  0  0  0  0  0  0  0  0  0  0  0
  -26.4318  -21.0650   23.4332 C   0  0  0  0  0  0  0  0  0  0  0  0
  -18.8883  -30.1947   22.8816 C   0  0  0  0  0  0  0  0  0  0  0  0
  -25.6055  -19.8751   22.9543 C   0  0  0  0  0  0  0  0  0  0  0  0
  -31.5326  -24.0171   21.3046 C   0  0  0  0  0  0  0  0  0  0  0  0
  -27.9319  -20.8253   23.2675 C   0  0  0  0  0  0  0  0  0  0  0  0
  -27.4961  -19.2546   21.4001 C   0  0  0  0  0  0  0  0  0  0  0  0
  -19.0052  -28.7149   22.4968 C   0  0  1  0  0  0  0  0  0  0  0  0
  -22.4495  -27.4762   23.5146 C   0  0  1  0  0  0  0  0  0  0  0  0
  -25.9832  -19.4968   21.5139 C   0  0  1  0  0  0  0  0  0  0  0  0
  -31.0890  -22.6248   20.9394 C   0  0  2  0  0  0  0  0  0  0  0  0
  -30.8174  -23.7763   20.0072 C   0  0  2  0  0  0  0  0  0  0  0  0
  -29.2035  -30.1576   26.1972 C   0  0  0  0  0  0  0  0  0  0  0  0
  -23.7234  -31.8758   22.8976 C   0  0  0  0  0  0  0  0  0  0  0  0
  -26.0488  -32.4389   23.6349 C   0  0  0  0  0  0  0  0  0  0  0  0
  -24.2611  -32.0607   25.3330 C   0  0  0  0  0  0  0  0  0  0  0  0
  -28.2558  -26.5108   25.6689 C   0  0  0  0  0  0  0  0  0  0  0  0
  -30.9974  -23.1210   17.6037 C   0  0  0  0  0  0  0  0  0  0  0  0
  -26.1443  -23.8371   16.4310 C   0  0  0  0  0  0  0  0  0  0  0  0
  -25.3306  -23.8731   17.7201 C   0  0  0  0  0  0  0  0  0  1  0  0
  -25.1889  -30.0896   24.0500 C   0  0  1  0  0  0  0  0  0  0  0  0
  -28.2540  -28.9879   25.9892 C   0  0  2  0  0  0  0  0  0  0  0  0
  -24.8005  -31.5927   23.9638 C   0  0  0  0  0  0  0  0  0  0  0  0
  -25.6839  -17.0730   21.1690 N   0  0  0  0  0  0  0  0  0  0  0  0
  -29.5449  -24.9347   16.7575 N   0  0  0  0  0  0  0  0  0  0  0  0
  -28.2660  -25.1208   16.4495 N   0  0  0  0  0  0  0  0  0  0  0  0
  -27.6269  -23.9634   16.6844 N   0  0  0  0  0  0  0  0  0  0  0  0
  -25.1805  -18.3095   21.0145 N   0  0  0  0  0  0  0  0  0  0  0  0
  -23.6993  -28.2283   23.3862 N   0  0  0  0  0  0  0  0  0  0  0  0
  -28.2643  -20.4024   21.8979 N   0  0  0  0  0  0  0  0  0  0  0  0
  -23.3130  -19.4967   20.1699 N   0  0  0  0  0  0  0  0  0  0  0  0
  -22.2844  -15.1849   19.3058 N   0  0  0  0  0  0  0  0  0  0  0  0
  -20.1406  -28.1088   23.1586 N   0  0  0  0  0  0  0  0  0  0  0  0
  -26.1873  -29.7880   25.0700 N   0  0  0  0  0  0  0  0  0  0  0  0
  -30.0192  -21.9752   21.6486 N   0  0  0  0  0  0  0  0  0  0  0  0
  -31.6121  -23.8517   18.7582 N   0  3  0  0  0  0  0  0  0  0  0  0
  -29.0633  -27.7437   25.8556 N   0  3  0  0  0  0  0  0  0  0  0  0
  -21.5592  -17.3502   19.0956 O   0  0  0  0  0  0  0  0  0  0  0  0
  -21.7827  -28.7326   21.6299 O   0  0  0  0  0  0  0  0  0  0  0  0
  -23.3716  -29.3688   25.3932 O   0  0  0  0  0  0  0  0  0  0  0  0
  -27.7476  -28.8549   23.6306 O   0  0  0  0  0  0  0  0  0  0  0  0
  -29.5009  -20.5423   19.9378 O   0  0  0  0  0  0  0  0  0  0  0  0
  -25.4162  -10.7431   20.5293 O   0  0  0  0  0  0  0  0  0  0  0  0
  -25.5375  -25.1180   18.3863 O   0  0  0  0  0  0  0  0  0  1  0  0
  -21.1151   -7.6180   21.9915 F   0  0  0  0  0  0  0  0  0  0  0  0
  -25.5904   -9.0024   22.6700 F   0  0  0  0  0  0  0  0  0  0  0  0
  1  2  1  0  0  0  0
  1  5  2  0  0  0  0
  2  6  2  0  0  0  0
  3  8  2  0  0  0  0
  3 16  1  0  0  0  0
  4  9  1  0  0  0  0
  4 16  2  0  0  0  0
  5 18  1  0  0  0  0
  6 20  1  0  0  0  0
  7 10  2  0  0  0  0
  7 19  1  0  0  0  0
  8 22  1  0  0  0  0
  9 22  2  0  0  0  0
 10 23  1  0  0  0  0
 11 12  2  0  0  0  0
 11 24  1  0  0  0  0
 12 25  1  0  0  0  0
 13 21  1  0  0  0  0
 13 23  2  0  0  0  0
 14 25  2  0  0  0  0
 14 26  1  0  0  0  0
 15 28  2  0  0  0  0
 15 64  1  0  0  0  0
 16 27  1  0  0  0  0
 17 27  1  0  0  0  0
 17 29  2  0  0  0  0
 17 30  1  0  0  0  0
 18 20  2  0  0  0  0
 18 35  1  0  0  0  0
 19 21  2  0  0  0  0
 19 36  1  0  0  0  0
 20 45  1  0  0  0  0
 21 37  1  0  0  0  0
 22 80  1  0  0  0  0
 23 81  1  0  0  0  0
 24 26  2  0  0  0  0
 24 80  1  0  0  0  0
 25 82  1  0  0  0  0
 26 83  1  0  0  0  0
 27 61  2  0  0  0  0
 28 55  1  0  0  0  0
 28 62  1  0  0  0  0
 29 65  1  0  0  0  0
 29 68  1  0  0  0  0
 30 69  1  0  0  0  0
 30 75  2  0  0  0  0
 31 46  1  0  0  0  0
 31 70  1  0  0  0  0
 31 76  2  0  0  0  0
 32 58  1  0  0  0  0
 32 66  1  0  0  0  0
 32 77  2  0  0  0  0
 33 59  1  0  0  0  0
 33 71  1  0  0  0  0
 33 78  2  0  0  0  0
 34 67  1  0  0  0  0
 34 72  1  0  0  0  0
 34 79  2  0  0  0  0
 35 38  1  0  0  0  0
 36 46  1  0  0  0  0
 37 66  1  0  0  0  0
 38 40  1  0  0  0  0
 39 41  1  0  0  0  0
 39 43  1  0  0  0  0
 40 45  1  0  0  0  0
 41 47  1  0  0  0  0
 42 48  1  0  0  0  0
 42 49  1  0  0  0  0
 43 67  1  0  0  0  0
 44 47  1  0  0  0  0
 44 67  1  0  0  0  0
 45 70  1  0  0  0  0
 46 66  1  0  0  0  0
 47 65  1  0  0  0  0
 48 49  1  0  0  0  0
 48 72  1  0  0  0  0
 49 73  1  0  0  0  0
 50 59  1  0  0  0  0
 51 60  1  0  0  0  0
 52 60  1  0  0  0  0
 53 60  1  0  0  0  0
 54 74  1  0  0  0  0
 55 73  1  0  0  0  0
 56 57  1  0  0  0  0
 56 64  1  0  0  0  0
 57 81  1  0  0  0  0
 58 60  1  0  0  0  0
 58 71  1  0  0  0  0
 59 74  1  0  0  0  0
 61 65  1  0  0  0  0
 62 63  2  0  0  0  0
 63 64  1  0  0  0  0
M  CHG  2  73   1  74   1
M  ISO  4  34 100  57 101  72 100  81 101
M  END
> <Batch ID>
0196

> <Smiles>
CNC(C)C(=O)NC(C(=O)N1Cc2cc([101O:1][101CH2:1]Cn3cc(CNC4CC4[100NH:0][100C:0](=O)N4CCCC(n5nc(-c6ccc(Oc7ccc(F)cc7F)cc6)c(C(N)=O)c5N)C4)nn3)ccc2CC1C(=O)NC1CCCc2ccccc21)C(C)(C)C

> <Shape>
0.251

> <Color>
0.069

> <Negative vol penalty>
0.000

$$$$

  -OEChem-04052323393D

 89 99  0     1  0  0  0  0  0999 V2000
  -36.6529  -33.4077   22.4856 C   0  0  0  0  0  0  0  0  0  0  0  0
  -36.2676  -32.1747   21.9692 C   0  0  0  0  0  0  0  0  0  0  0  0
  -23.7328   -9.7741   20.0081 C   0  0  0  0  0  0  0  0  0  0  0  0
  -23.1786  -10.2003   22.3207 C   0  0  0  0  0  0  0  0  0  0  0  0
  -35.8869  -34.0163   23.4789 C   0  0  0  0  0  0  0  0  0  0  0  0
  -35.1166  -31.5489   22.4468 C   0  0  0  0  0  0  0  0  0  0  0  0
  -31.2028  -28.0977   19.2411 C   0  0  0  0  0  0  0  0  0  0  0  0
  -23.0133   -8.5801   20.0557 C   0  0  0  0  0  0  0  0  0  0  0  0
  -22.4590   -9.0063   22.3683 C   0  0  0  0  0  0  0  0  0  0  0  0
  -31.0643  -26.7172   19.1045 C   0  0  0  0  0  0  0  0  0  0  0  0
  -23.1267   -5.7056   22.6695 C   0  0  0  0  0  0  0  0  0  0  0  0
  -23.3142   -4.8797   23.7777 C   0  0  0  0  0  0  0  0  0  0  0  0
  -29.3695  -26.7233   20.8211 C   0  0  0  0  0  0  0  0  0  0  0  0
  -20.9660   -5.0665   24.3143 C   0  0  0  0  0  0  0  0  0  0  0  0
  -23.8155  -10.5842   21.1406 C   0  0  0  0  0  0  0  0  0  0  0  0
  -24.0718  -13.0906   20.7410 C   0  0  0  0  0  0  0  0  0  0  0  0
  -34.7206  -33.4022   23.9621 C   0  0  0  0  0  0  0  0  0  0  0  0
  -30.4321  -28.8011   20.1780 C   0  0  0  0  0  0  0  0  0  0  0  0
  -34.3350  -32.1492   23.4485 C   0  0  0  0  0  0  0  0  0  0  0  0
  -29.4982  -28.1131   20.9658 C   0  0  0  0  0  0  0  0  0  0  0  0
  -22.3764   -8.1962   21.2358 C   0  0  0  0  0  0  0  0  0  0  0  0
  -30.1496  -26.0293   19.8965 C   0  0  0  0  0  0  0  0  0  0  0  0
  -21.8588   -6.2120   22.3836 C   0  0  0  0  0  0  0  0  0  0  0  0
  -22.2339   -4.5601   24.6002 C   0  0  0  0  0  0  0  0  0  0  0  0
  -20.7784   -5.8925   23.2061 C   0  0  0  0  0  0  0  0  0  0  0  0
  -24.5590  -11.8174   21.0922 C   0  0  0  0  0  0  0  0  0  0  0  0
  -29.5578  -20.8188   17.7304 C   0  0  0  0  0  0  0  0  0  0  0  0
  -30.0049  -20.0069   18.7409 C   0  0  0  0  0  0  0  0  0  0  0  0
  -25.1626  -13.9180   20.8508 C   0  0  0  0  0  0  0  0  0  0  0  0
  -30.5269  -22.5798   18.7597 C   0  0  0  0  0  0  0  0  0  0  0  0
  -22.7512  -13.4897   20.3505 C   0  0  0  0  0  0  0  0  0  0  0  0
  -31.0768  -30.5520   22.7513 C   0  0  0  0  0  0  0  0  0  0  0  0
  -27.8855  -31.1284   22.6792 C   0  0  0  0  0  0  0  0  0  0  0  0
  -24.7792  -30.1117   21.6972 C   0  0  0  0  0  0  0  0  0  0  0  0
  -30.6405  -14.6327   19.5822 C   0  0  0  0  0  0  0  0  0  0  0  0
  -33.9508  -34.0764   25.0700 C   0  0  0  0  0  0  0  0  0  0  0  0
  -30.5742  -30.2940   20.2944 C   0  0  0  0  0  0  0  0  0  0  0  0
  -28.6324  -28.8246   21.9722 C   0  0  0  0  0  0  0  0  0  0  0  0
  -32.5404  -33.5229   25.2560 C   0  0  0  0  0  0  0  0  0  0  0  0
  -25.7566  -21.7812   15.6266 C   0  0  0  0  0  0  0  0  0  0  0  0
  -29.7392  -13.1304   22.8404 C   0  0  0  0  0  0  0  0  0  0  0  0
  -32.5615  -31.9977   25.2589 C   0  0  0  0  0  0  0  0  0  0  0  0
  -26.5921  -21.6923   16.9205 C   0  0  0  0  0  0  0  0  0  0  0  0
  -26.7633  -20.7986   14.9932 C   0  0  0  0  0  0  0  0  0  0  0  0
  -28.2906  -12.6973   22.6159 C   0  0  0  0  0  0  0  0  0  0  0  0
  -30.5387  -13.1360   21.5404 C   0  0  0  0  0  0  0  0  0  0  0  0
  -30.1876  -17.8291   17.5917 C   0  0  0  0  0  0  0  0  0  0  0  0
  -30.9011  -16.5919   18.1256 C   0  0  0  0  0  0  0  0  0  0  0  0
  -28.4768  -13.5050   20.2319 C   0  0  0  0  0  0  0  0  0  0  0  0
  -28.8666  -16.4576   19.5469 C   0  0  0  0  0  0  0  0  0  0  0  0
  -33.0794  -31.4506   23.9232 C   0  0  1  0  0  0  0  0  0  0  0  0
  -30.1050  -30.8357   21.6411 C   0  0  1  0  0  0  0  0  0  0  0  0
  -27.8004  -21.3115   16.0259 C   0  0  0  0  0  0  0  0  0  0  0  0
  -27.6297  -13.5418   21.5121 C   0  0  1  0  0  0  0  0  0  0  0  0
  -29.0509  -17.9604   19.8392 C   0  0  2  0  0  0  0  0  0  0  0  0
  -27.6678  -18.5653   20.1089 C   0  0  0  0  0  0  0  0  0  0  0  0
  -22.3611  -30.7716   21.8172 C   0  0  0  0  0  0  0  0  0  0  0  0
  -27.7791  -30.2013   25.5842 C   0  0  0  0  0  0  0  0  0  0  0  0
  -25.2970  -29.9737   25.3478 C   0  0  0  0  0  0  0  0  0  0  0  0
  -26.3743  -32.2073   25.0773 C   0  0  0  0  0  0  0  0  0  0  0  0
  -24.5675  -30.3106   18.7520 C   0  0  0  0  0  0  0  0  0  0  0  0
  -28.7634  -20.2857   16.5864 C   0  0  0  0  0  0  0  0  0  0  0  0
  -30.8386  -24.0362   18.7972 C   0  0  0  0  0  0  0  0  0  1  0  0
  -26.6654  -30.4637   23.2697 C   0  0  1  0  0  0  0  0  0  0  0  0
  -23.6471  -30.8534   21.0097 C   0  0  2  0  0  0  0  0  0  0  0  0
  -26.5465  -30.6975   24.8023 C   0  0  0  0  0  0  0  0  0  0  0  0
  -25.8582  -11.8299   21.4018 N   0  0  0  0  0  0  0  0  0  0  0  0
  -29.8107  -22.1364   17.7159 N   0  0  0  0  0  0  0  0  0  0  0  0
  -30.7200  -20.5092   19.7637 N   0  0  0  0  0  0  0  0  0  0  0  0
  -30.9914  -21.8309   19.7791 N   0  0  0  0  0  0  0  0  0  0  0  0
  -26.1967  -13.1211   21.2454 N   0  0  0  0  0  0  0  0  0  0  0  0
  -29.7186  -18.6431   18.7147 N   0  0  3  0  0  0  0  0  0  0  0  0
  -28.8129  -30.2835   22.0532 N   0  0  0  0  0  0  0  0  0  0  0  0
  -29.8628  -13.9124   20.5009 N   0  0  0  0  0  0  0  0  0  0  0  0
  -30.0959  -15.8200   19.0661 N   0  0  0  0  0  0  0  0  0  0  0  0
  -25.3285  -15.2422   20.6473 N   0  0  0  0  0  0  0  0  0  0  0  0
  -21.7484  -12.5124   20.2896 N   0  0  0  0  0  0  0  0  0  0  0  0
  -32.0461  -31.5236   22.9125 N   0  0  0  0  0  0  0  0  0  0  0  0
  -25.5242  -30.9485   22.5010 N   0  0  0  0  0  0  0  0  0  0  0  0
  -23.3925  -30.2741   19.6604 N   0  3  0  0  0  0  0  0  0  0  0  0
  -22.4726  -14.6749   20.0483 O   0  0  0  0  0  0  0  0  0  0  0  0
  -30.9554  -29.5282   23.4138 O   0  0  0  0  0  0  0  0  0  0  0  0
  -28.0075  -32.3530   22.7638 O   0  0  0  0  0  0  0  0  0  0  0  0
  -24.9801  -28.9094   21.5402 O   0  0  0  0  0  0  0  0  0  0  0  0
  -31.7698  -14.2468   19.2529 O   0  0  0  0  0  0  0  0  0  0  0  0
  -21.6740   -7.0312   21.2825 O   0  0  0  0  0  0  0  0  0  0  0  0
  -30.0121  -24.6727   19.7648 O   0  0  0  0  0  0  0  0  0  1  0  0
  -22.4138   -3.7657   25.6635 F   0  0  0  0  0  0  0  0  0  0  0  0
  -19.5578   -6.3750   22.9359 F   0  0  0  0  0  0  0  0  0  0  0  0
  1  2  1  0  0  0  0
  1  5  2  0  0  0  0
  2  6  2  0  0  0  0
  3  8  2  0  0  0  0
  3 15  1  0  0  0  0
  4  9  1  0  0  0  0
  4 15  2  0  0  0  0
  5 17  1  0  0  0  0
  6 19  1  0  0  0  0
  7 10  2  0  0  0  0
  7 18  1  0  0  0  0
  8 21  1  0  0  0  0
  9 21  2  0  0  0  0
 10 22  1  0  0  0  0
 11 12  2  0  0  0  0
 11 23  1  0  0  0  0
 12 24  1  0  0  0  0
 13 20  1  0  0  0  0
 13 22  2  0  0  0  0
 14 24  2  0  0  0  0
 14 25  1  0  0  0  0
 15 26  1  0  0  0  0
 16 26  1  0  0  0  0
 16 29  2  0  0  0  0
 16 31  1  0  0  0  0
 17 19  2  0  0  0  0
 17 36  1  0  0  0  0
 18 20  2  0  0  0  0
 18 37  1  0  0  0  0
 19 51  1  0  0  0  0
 20 38  1  0  0  0  0
 21 86  1  0  0  0  0
 22 87  1  0  0  0  0
 23 25  2  0  0  0  0
 23 86  1  0  0  0  0
 24 88  1  0  0  0  0
 25 89  1  0  0  0  0
 26 67  2  0  0  0  0
 27 28  2  0  0  0  0
 27 62  1  0  0  0  0
 27 68  1  0  0  0  0
 28 69  1  0  0  0  0
 28 72  1  0  0  0  0
 29 71  1  0  0  0  0
 29 76  1  0  0  0  0
 30 63  1  0  0  0  0
 30 68  2  0  0  0  0
 30 70  1  0  0  0  0
 31 77  1  0  0  0  0
 31 81  2  0  0  0  0
 32 52  1  0  0  0  0
 32 78  1  0  0  0  0
 32 82  2  0  0  0  0
 33 64  1  0  0  0  0
 33 73  1  0  0  0  0
 33 83  2  0  0  0  0
 34 65  1  0  0  0  0
 34 79  1  0  0  0  0
 34 84  2  0  0  0  0
 35 74  1  0  0  0  0
 35 75  1  0  0  0  0
 35 85  2  0  0  0  0
 36 39  1  0  0  0  0
 37 52  1  0  0  0  0
 38 73  1  0  0  0  0
 39 42  1  0  0  0  0
 40 43  1  0  0  0  0
 40 44  1  0  0  0  0
 41 45  1  0  0  0  0
 41 46  1  0  0  0  0
 42 51  1  0  0  0  0
 43 53  1  0  0  0  0
 44 53  1  0  0  0  0
 45 54  1  0  0  0  0
 46 74  1  0  0  0  0
 47 48  1  0  0  0  0
 47 72  1  0  0  0  0
 48 75  1  0  0  0  0
 49 54  1  0  0  0  0
 49 74  1  0  0  0  0
 50 55  1  0  0  0  0
 50 75  1  0  0  0  0
 51 78  1  0  0  0  0
 52 73  1  0  0  0  0
 53 62  1  0  0  0  0
 54 71  1  0  0  0  0
 55 56  1  0  0  0  0
 55 72  1  0  0  0  0
 57 65  1  0  0  0  0
 58 66  1  0  0  0  0
 59 66  1  0  0  0  0
 60 66  1  0  0  0  0
 61 80  1  0  0  0  0
 63 87  1  0  0  0  0
 64 66  1  0  0  0  0
 64 79  1  0  0  0  0
 65 80  1  0  0  0  0
 67 71  1  0  0  0  0
 69 70  2  0  0  0  0
M  CHG  1  80   1
M  ISO  4  35 100  63 101  75 100  87 101
M  END
> <Batch ID>
0196

> <Smiles>
CNC(C)C(=O)NC(C(=O)N1Cc2cc([101O:1][101CH2:1]c3nnc(N4CC[100N:0]([100C:0](=O)N5CCCC(n6nc(-c7ccc(Oc8ccc(F)cc8F)cc7)c(C(N)=O)c6N)C5)CC4C)c(CC4CCC4)n3)ccc2CC1C(=O)NC1CCCc2ccccc21)C(C)(C)C

> <Shape>
0.303

> <Color>
0.166

> <Negative vol penalty>
0.000

$$$$

  -OEChem-04052323393D

 86 95  0     1  0  0  0  0  0999 V2000
  -27.5289  -37.6402   22.9095 C   0  0  0  0  0  0  0  0  0  0  0  0
  -28.0720  -36.6326   22.1188 C   0  0  0  0  0  0  0  0  0  0  0  0
  -24.0750   -8.8213   21.1304 C   0  0  0  0  0  0  0  0  0  0  0  0
  -23.2442  -11.0597   20.7611 C   0  0  0  0  0  0  0  0  0  0  0  0
  -26.7035  -37.3128   23.9843 C   0  0  0  0  0  0  0  0  0  0  0  0
  -27.7908  -35.2968   22.4033 C   0  0  0  0  0  0  0  0  0  0  0  0
  -26.8475  -28.9778   19.1634 C   0  0  0  0  0  0  0  0  0  0  0  0
  -23.0524   -8.5937   22.0513 C   0  0  0  0  0  0  0  0  0  0  0  0
  -22.2215  -10.8321   21.6819 C   0  0  0  0  0  0  0  0  0  0  0  0
  -27.3049  -27.6618   19.2154 C   0  0  0  0  0  0  0  0  0  0  0  0
  -19.7565   -7.8420   21.9785 C   0  0  0  0  0  0  0  0  0  0  0  0
  -19.0678   -6.6319   21.8965 C   0  0  0  0  0  0  0  0  0  0  0  0
  -25.8020  -27.2182   21.0494 C   0  0  0  0  0  0  0  0  0  0  0  0
  -19.7555   -6.0878   24.1477 C   0  0  0  0  0  0  0  0  0  0  0  0
  -30.0899  -20.8300   23.0264 C   0  0  0  0  0  0  0  0  0  0  0  0
  -24.1709  -10.0544   20.4853 C   0  0  0  0  0  0  0  0  0  0  0  0
  -25.1927  -10.0489   18.1479 C   0  0  0  0  0  0  0  0  0  0  0  0
  -26.4042  -35.9727   24.2762 C   0  0  0  0  0  0  0  0  0  0  0  0
  -25.8700  -29.4276   20.0626 C   0  0  0  0  0  0  0  0  0  0  0  0
  -26.9617  -34.9510   23.4838 C   0  0  0  0  0  0  0  0  0  0  0  0
  -25.3320  -28.5397   21.0051 C   0  0  0  0  0  0  0  0  0  0  0  0
  -22.1256   -9.5991   22.3270 C   0  0  0  0  0  0  0  0  0  0  0  0
  -26.7843  -26.7826   20.1604 C   0  0  0  0  0  0  0  0  0  0  0  0
  -20.4448   -8.1750   23.1452 C   0  0  0  0  0  0  0  0  0  0  0  0
  -19.0672   -5.7547   22.9810 C   0  0  0  0  0  0  0  0  0  0  0  0
  -20.4443   -7.2979   24.2298 C   0  0  0  0  0  0  0  0  0  0  0  0
  -25.2274  -10.2903   19.5343 C   0  0  0  0  0  0  0  0  0  0  0  0
  -26.4323  -10.4362   17.7008 C   0  0  0  0  0  0  0  0  0  0  0  0
  -29.5508  -19.8991   21.0568 C   0  0  0  0  0  0  0  0  0  0  0  0
  -29.3516  -22.1163   21.3419 C   0  0  0  0  0  0  0  0  0  0  0  0
  -24.1345   -9.5218   17.3366 C   0  0  0  0  0  0  0  0  0  0  0  0
  -25.7624  -31.6517   22.3311 C   0  0  0  0  0  0  0  0  0  0  0  0
  -22.6271  -30.8278   22.4461 C   0  0  0  0  0  0  0  0  0  0  0  0
  -20.2264  -28.4746   21.8576 C   0  0  0  0  0  0  0  0  0  0  0  0
  -30.5037  -14.2909   19.8021 C   0  0  0  0  0  0  0  0  0  0  0  0
  -25.5450  -35.6657   25.4771 C   0  0  0  0  0  0  0  0  0  0  0  0
  -25.3679  -30.8428   19.9761 C   0  0  0  0  0  0  0  0  0  0  0  0
  -24.2664  -28.9675   21.9797 C   0  0  0  0  0  0  0  0  0  0  0  0
  -24.9940  -34.2421   25.4840 C   0  0  0  0  0  0  0  0  0  0  0  0
  -30.9786  -10.8250   19.1398 C   0  0  0  0  0  0  0  0  0  0  0  0
  -26.0958  -33.2416   25.1494 C   0  0  0  0  0  0  0  0  0  0  0  0
  -29.5554  -10.2732   19.0407 C   0  0  0  0  0  0  0  0  0  0  0  0
  -31.0879  -11.9170   20.2018 C   0  0  0  0  0  0  0  0  0  0  0  0
  -28.6988  -12.4702   19.9563 C   0  0  0  0  0  0  0  0  0  0  0  0
  -29.7537  -17.4216   20.6909 C   0  0  0  0  0  0  0  0  0  0  0  0
  -28.9610  -18.8132   18.8695 C   0  0  0  0  0  0  0  0  0  0  0  0
  -26.6600  -33.4914   23.7455 C   0  0  1  0  0  0  0  0  0  0  0  0
  -24.7401  -31.3347   21.2765 C   0  0  1  0  0  0  0  0  0  0  0  0
  -28.5264  -11.4053   18.8597 C   0  0  2  0  0  0  0  0  0  0  0  0
  -29.7630  -16.6223   19.3838 C   0  0  2  0  0  0  0  0  0  0  0  0
  -28.7046  -17.3402   18.5594 C   0  0  2  0  0  0  0  0  0  0  0  0
  -17.7595  -28.0766   22.0889 C   0  0  0  0  0  0  0  0  0  0  0  0
  -22.9818  -30.3873   25.4444 C   0  0  0  0  0  0  0  0  0  0  0  0
  -20.8264  -29.1136   25.4417 C   0  0  0  0  0  0  0  0  0  0  0  0
  -20.8491  -31.5246   24.8022 C   0  0  0  0  0  0  0  0  0  0  0  0
  -19.8917  -28.1236   18.9381 C   0  0  0  0  0  0  0  0  0  0  0  0
  -28.5351  -23.5868   19.4989 C   0  0  0  0  0  0  0  0  0  0  0  0
  -28.2452  -25.0623   19.2799 C   0  0  0  0  0  0  0  0  0  1  0  0
  -21.8161  -29.8119   23.2137 C   0  0  1  0  0  0  0  0  0  0  0  0
  -18.8732  -28.5649   21.1756 C   0  0  2  0  0  0  0  0  0  0  0  0
  -21.6398  -30.2015   24.7085 C   0  0  0  0  0  0  0  0  0  0  0  0
  -29.9982  -19.6998   22.3070 N   0  0  0  0  0  0  0  0  0  0  0  0
  -29.7853  -22.0704   22.6119 N   0  0  0  0  0  0  0  0  0  0  0  0
  -26.3965  -10.7919   19.9413 N   0  0  0  0  0  0  0  0  0  0  0  0
  -29.2088  -21.0751   20.5062 N   0  0  0  0  0  0  0  0  0  0  0  0
  -27.1079  -10.8688   18.8038 N   0  0  0  0  0  0  0  0  0  0  0  0
  -29.4284  -18.7830   20.2572 N   0  0  3  0  0  0  0  0  0  0  0  0
  -23.8126  -30.3629   21.8594 N   0  0  0  0  0  0  0  0  0  0  0  0
  -30.0859  -12.9607   19.9719 N   0  0  0  0  0  0  0  0  0  0  0  0
  -26.9994  -10.4453   16.4758 N   0  0  0  0  0  0  0  0  0  0  0  0
  -22.9265   -9.1750   17.9568 N   0  0  0  0  0  0  0  0  0  0  0  0
  -29.0172  -23.3643   20.8428 N   0  0  0  0  0  0  0  0  0  0  0  0
  -25.7591  -32.9719   22.7390 N   0  0  0  0  0  0  0  0  0  0  0  0
  -20.5619  -29.6558   22.4850 N   0  0  0  0  0  0  0  0  0  0  0  0
  -29.4906  -15.2163   19.5827 N   0  0  0  0  0  0  0  0  0  0  0  0
  -28.8562  -17.0625   17.1201 N   0  3  0  0  0  0  0  0  0  0  0  0
  -18.8615  -27.7373   19.9363 N   0  3  0  0  0  0  0  0  0  0  0  0
  -24.2623   -9.3478   16.1009 O   0  0  0  0  0  0  0  0  0  0  0  0
  -26.4986  -30.7638   22.7451 O   0  0  0  0  0  0  0  0  0  0  0  0
  -22.2199  -31.9893   22.3638 O   0  0  0  0  0  0  0  0  0  0  0  0
  -20.9151  -27.4569   21.8391 O   0  0  0  0  0  0  0  0  0  0  0  0
  -31.6920  -14.6281   19.8377 O   0  0  0  0  0  0  0  0  0  0  0  0
  -21.1275   -9.3772   23.2254 O   0  0  0  0  0  0  0  0  0  0  0  0
  -27.2295  -25.4978   20.2137 O   0  0  0  0  0  0  0  0  0  1  0  0
  -18.4045   -4.5934   22.9026 F   0  0  0  0  0  0  0  0  0  0  0  0
  -21.1027   -7.6129   25.3536 F   0  0  0  0  0  0  0  0  0  0  0  0
  1  2  1  0  0  0  0
  1  5  2  0  0  0  0
  2  6  2  0  0  0  0
  3  8  2  0  0  0  0
  3 16  1  0  0  0  0
  4  9  1  0  0  0  0
  4 16  2  0  0  0  0
  5 18  1  0  0  0  0
  6 20  1  0  0  0  0
  7 10  2  0  0  0  0
  7 19  1  0  0  0  0
  8 22  1  0  0  0  0
  9 22  2  0  0  0  0
 10 23  1  0  0  0  0
 11 12  2  0  0  0  0
 11 24  1  0  0  0  0
 12 25  1  0  0  0  0
 13 21  1  0  0  0  0
 13 23  2  0  0  0  0
 14 25  2  0  0  0  0
 14 26  1  0  0  0  0
 15 62  1  0  0  0  0
 15 63  2  0  0  0  0
 16 27  1  0  0  0  0
 17 27  1  0  0  0  0
 17 28  2  0  0  0  0
 17 31  1  0  0  0  0
 18 20  2  0  0  0  0
 18 36  1  0  0  0  0
 19 21  2  0  0  0  0
 19 37  1  0  0  0  0
 20 47  1  0  0  0  0
 21 38  1  0  0  0  0
 22 83  1  0  0  0  0
 23 84  1  0  0  0  0
 24 26  2  0  0  0  0
 24 83  1  0  0  0  0
 25 85  1  0  0  0  0
 26 86  1  0  0  0  0
 27 64  2  0  0  0  0
 28 66  1  0  0  0  0
 28 70  1  0  0  0  0
 29 62  2  0  0  0  0
 29 65  1  0  0  0  0
 29 67  1  0  0  0  0
 30 63  1  0  0  0  0
 30 65  2  0  0  0  0
 30 72  1  0  0  0  0
 31 71  1  0  0  0  0
 31 78  2  0  0  0  0
 32 48  1  0  0  0  0
 32 73  1  0  0  0  0
 32 79  2  0  0  0  0
 33 59  1  0  0  0  0
 33 68  1  0  0  0  0
 33 80  2  0  0  0  0
 34 60  1  0  0  0  0
 34 74  1  0  0  0  0
 34 81  2  0  0  0  0
 35 69  1  0  0  0  0
 35 75  1  0  0  0  0
 35 82  2  0  0  0  0
 36 39  1  0  0  0  0
 37 48  1  0  0  0  0
 38 68  1  0  0  0  0
 39 41  1  0  0  0  0
 40 42  1  0  0  0  0
 40 43  1  0  0  0  0
 41 47  1  0  0  0  0
 42 49  1  0  0  0  0
 43 69  1  0  0  0  0
 44 49  1  0  0  0  0
 44 69  1  0  0  0  0
 45 50  1  0  0  0  0
 45 67  1  0  0  0  0
 46 51  1  0  0  0  0
 46 67  1  0  0  0  0
 47 73  1  0  0  0  0
 48 68  1  0  0  0  0
 49 66  1  0  0  0  0
 50 51  1  0  0  0  0
 50 75  1  0  0  0  0
 51 76  1  0  0  0  0
 52 60  1  0  0  0  0
 53 61  1  0  0  0  0
 54 61  1  0  0  0  0
 55 61  1  0  0  0  0
 56 77  1  0  0  0  0
 57 58  1  0  0  0  0
 57 72  1  0  0  0  0
 58 84  1  0  0  0  0
 59 61  1  0  0  0  0
 59 74  1  0  0  0  0
 60 77  1  0  0  0  0
 64 66  1  0  0  0  0
M  CHG  2  76   1  77   1
M  ISO  4  35 100  58 101  75 100  84 101
M  END
> <Batch ID>
0196

> <Smiles>
CNC(C)C(=O)NC(C(=O)N1Cc2cc([101O:1][101CH2:1]CNc3ncnc(N4CC(N)C([100NH:0][100C:0](=O)N5CCCC(n6nc(-c7ccc(Oc8ccc(F)cc8F)cc7)c(C(N)=O)c6N)C5)C4)n3)ccc2CC1C(=O)NC1CCCc2ccccc21)C(C)(C)C

> <Shape>
0.317

> <Color>
0.087

> <Negative vol penalty>
0.000

$$$$

  -OEChem-04052323393D

 83 92  0     1  0  0  0  0  0999 V2000
  -27.8419  -21.9520   28.1060 C   0  0  0  0  0  0  0  0  0  0  0  0
  -28.0808  -22.4294   26.8213 C   0  0  0  0  0  0  0  0  0  0  0  0
  -24.2357  -13.7232   21.3029 C   0  0  0  0  0  0  0  0  0  0  0  0
  -26.6334  -13.4272   21.2822 C   0  0  0  0  0  0  0  0  0  0  0  0
  -26.5499  -21.5900   28.4848 C   0  0  0  0  0  0  0  0  0  0  0  0
  -27.0279  -22.5441   25.9143 C   0  0  0  0  0  0  0  0  0  0  0  0
  -27.1063  -26.9345   23.3918 C   0  0  0  0  0  0  0  0  0  0  0  0
  -24.0745  -12.4572   20.7401 C   0  0  0  0  0  0  0  0  0  0  0  0
  -26.4722  -12.1611   20.7194 C   0  0  0  0  0  0  0  0  0  0  0  0
  -28.0149  -27.0487   22.3405 C   0  0  0  0  0  0  0  0  0  0  0  0
  -23.0164   -9.1571   19.6423 C   0  0  0  0  0  0  0  0  0  0  0  0
  -22.0375   -8.3256   20.1861 C   0  0  0  0  0  0  0  0  0  0  0  0
  -26.2416  -26.6015   20.7674 C   0  0  0  0  0  0  0  0  0  0  0  0
  -23.1555   -8.4087   22.3262 C   0  0  0  0  0  0  0  0  0  0  0  0
  -31.6954  -28.7314   17.5628 C   0  0  0  0  0  0  0  0  0  0  0  0
  -32.0655  -27.6196   16.8387 C   0  0  0  0  0  0  0  0  0  0  0  0
  -25.5151  -14.2083   21.5739 C   0  0  0  0  0  0  0  0  0  0  0  0
  -25.7341  -15.8379   23.5243 C   0  0  0  0  0  0  0  0  0  0  0  0
  -25.4790  -21.7094   27.5851 C   0  0  0  0  0  0  0  0  0  0  0  0
  -25.7584  -26.6418   23.1391 C   0  0  0  0  0  0  0  0  0  0  0  0
  -25.7206  -22.1821   26.2810 C   0  0  0  0  0  0  0  0  0  0  0  0
  -25.3174  -26.4867   21.8171 C   0  0  0  0  0  0  0  0  0  0  0  0
  -25.1927  -11.6761   20.4483 C   0  0  0  0  0  0  0  0  0  0  0  0
  -27.5831  -26.8793   21.0282 C   0  0  0  0  0  0  0  0  0  0  0  0
  -24.0650   -9.6145   20.4405 C   0  0  0  0  0  0  0  0  0  0  0  0
  -22.1070   -7.9514   21.5280 C   0  0  0  0  0  0  0  0  0  0  0  0
  -24.1346   -9.2403   21.7824 C   0  0  0  0  0  0  0  0  0  0  0  0
  -25.6823  -15.5162   22.1548 C   0  0  0  0  0  0  0  0  0  0  0  0
  -30.6297  -27.3902   19.0777 C   0  0  0  0  0  0  0  0  0  0  0  0
  -30.9991  -26.2783   18.3533 C   0  0  0  0  0  0  0  0  0  0  0  0
  -25.9034  -17.2006   23.5508 C   0  0  0  0  0  0  0  0  0  0  0  0
  -25.6378  -14.9814   24.6701 C   0  0  0  0  0  0  0  0  0  0  0  0
  -23.7986  -24.2594   23.9053 C   0  0  0  0  0  0  0  0  0  0  0  0
  -21.5707  -26.1626   22.5138 C   0  0  0  0  0  0  0  0  0  0  0  0
  -20.8743  -28.6764   20.3131 C   0  0  0  0  0  0  0  0  0  0  0  0
  -28.2867  -20.9445   19.6573 C   0  0  0  0  0  0  0  0  0  0  0  0
  -24.1078  -21.2611   28.0250 C   0  0  0  0  0  0  0  0  0  0  0  0
  -24.7857  -26.5483   24.2825 C   0  0  0  0  0  0  0  0  0  0  0  0
  -23.8769  -26.1913   21.4912 C   0  0  0  0  0  0  0  0  0  0  0  0
  -22.9836  -21.7662   27.1242 C   0  0  0  0  0  0  0  0  0  0  0  0
  -24.9383  -21.1441   21.0160 C   0  0  0  0  0  0  0  0  0  0  0  0
  -23.3408  -21.5562   25.6562 C   0  0  0  0  0  0  0  0  0  0  0  0
  -24.7608  -19.7393   21.5951 C   0  0  0  0  0  0  0  0  0  0  0  0
  -30.4631  -23.0856   20.1206 C   0  0  0  0  0  0  0  0  0  0  0  0
  -25.7248  -21.1079   19.7090 C   0  0  0  0  0  0  0  0  0  0  0  0
  -31.4157  -24.2062   19.7045 C   0  0  0  0  0  0  0  0  0  0  0  0
  -26.8797  -19.0390   20.3869 C   0  0  0  0  0  0  0  0  0  0  0  0
  -29.3622  -24.3767   18.4349 C   0  0  0  0  0  0  0  0  0  0  0  0
  -24.6003  -22.3443   25.2766 C   0  0  1  0  0  0  0  0  0  0  0  0
  -23.5385  -25.7388   23.9413 C   0  0  1  0  0  0  0  0  0  0  0  0
  -26.1117  -19.0103   21.7209 C   0  0  2  0  0  0  0  0  0  0  0  0
  -29.5626  -22.9342   18.9023 C   0  0  2  0  0  0  0  0  0  0  0  0
  -18.9573  -29.9875   19.3626 C   0  0  0  0  0  0  0  0  0  0  0  0
  -20.8209  -23.7857   20.7537 C   0  0  0  0  0  0  0  0  0  0  0  0
  -19.6239  -25.3765   19.2356 C   0  0  0  0  0  0  0  0  0  0  0  0
  -18.8765  -25.1110   21.6007 C   0  0  0  0  0  0  0  0  0  0  0  0
  -21.9451  -31.2266   21.3661 C   0  0  0  0  0  0  0  0  0  0  0  0
  -29.8235  -27.2803   20.3384 C   0  0  0  0  0  0  0  0  0  1  0  0
  -21.0351  -26.3335   21.1128 C   0  0  1  0  0  0  0  0  0  0  0  0
  -20.0215  -29.9250   20.4472 C   0  0  2  0  0  0  0  0  0  0  0  0
  -20.1167  -25.1553   20.6816 C   0  0  0  0  0  0  0  0  0  0  0  0
  -30.9710  -28.6367   18.6954 N   0  0  0  0  0  0  0  0  0  0  0  0
  -31.7239  -26.3730   17.2209 N   0  0  0  0  0  0  0  0  0  0  0  0
  -25.8084  -16.5883   21.3682 N   0  0  0  0  0  0  0  0  0  0  0  0
  -25.9410  -17.5970   22.2463 N   0  0  0  0  0  0  0  0  0  0  0  0
  -30.6197  -25.0291   18.7961 N   0  0  3  0  0  0  0  0  0  0  0  0
  -22.9655  -26.1033   22.6440 N   0  0  0  0  0  0  0  0  0  0  0  0
  -27.0077  -20.4172   19.9015 N   0  0  0  0  0  0  0  0  0  0  0  0
  -26.0223  -18.0866   24.5624 N   0  0  0  0  0  0  0  0  0  0  0  0
  -25.4654  -13.6059   24.4635 N   0  0  0  0  0  0  0  0  0  0  0  0
  -24.2840  -23.7444   25.0922 N   0  0  0  0  0  0  0  0  0  0  0  0
  -20.3862  -27.6397   21.0803 N   0  0  0  0  0  0  0  0  0  0  0  0
  -28.3203  -22.2536   19.1928 N   0  0  0  0  0  0  0  0  0  0  0  0
  -20.8702  -31.1456   20.3438 N   0  3  0  0  0  0  0  0  0  0  0  0
  -25.6862  -15.4248   25.8426 O   0  0  0  0  0  0  0  0  0  0  0  0
  -23.5742  -23.6313   22.8773 O   0  0  0  0  0  0  0  0  0  0  0  0
  -20.7809  -26.0919   23.4587 O   0  0  0  0  0  0  0  0  0  0  0  0
  -21.8714  -28.6245   19.5965 O   0  0  0  0  0  0  0  0  0  0  0  0
  -29.3231  -20.2980   19.8446 O   0  0  0  0  0  0  0  0  0  0  0  0
  -25.0358  -10.4406   19.8994 O   0  0  0  0  0  0  0  0  0  0  0  0
  -28.4680  -26.9896   20.0002 O   0  0  0  0  0  0  0  0  0  1  0  0
  -21.1660   -7.1541   22.0505 F   0  0  0  0  0  0  0  0  0  0  0  0
  -25.1389   -9.6774   22.5545 F   0  0  0  0  0  0  0  0  0  0  0  0
  1  2  1  0  0  0  0
  1  5  2  0  0  0  0
  2  6  2  0  0  0  0
  3  8  2  0  0  0  0
  3 17  1  0  0  0  0
  4  9  1  0  0  0  0
  4 17  2  0  0  0  0
  5 19  1  0  0  0  0
  6 21  1  0  0  0  0
  7 10  2  0  0  0  0
  7 20  1  0  0  0  0
  8 23  1  0  0  0  0
  9 23  2  0  0  0  0
 10 24  1  0  0  0  0
 11 12  2  0  0  0  0
 11 25  1  0  0  0  0
 12 26  1  0  0  0  0
 13 22  1  0  0  0  0
 13 24  2  0  0  0  0
 14 26  2  0  0  0  0
 14 27  1  0  0  0  0
 15 16  1  0  0  0  0
 15 62  2  0  0  0  0
 16 63  2  0  0  0  0
 17 28  1  0  0  0  0
 18 28  1  0  0  0  0
 18 31  2  0  0  0  0
 18 32  1  0  0  0  0
 19 21  2  0  0  0  0
 19 37  1  0  0  0  0
 20 22  2  0  0  0  0
 20 38  1  0  0  0  0
 21 49  1  0  0  0  0
 22 39  1  0  0  0  0
 23 80  1  0  0  0  0
 24 81  1  0  0  0  0
 25 27  2  0  0  0  0
 25 80  1  0  0  0  0
 26 82  1  0  0  0  0
 27 83  1  0  0  0  0
 28 64  2  0  0  0  0
 29 30  2  0  0  0  0
 29 58  1  0  0  0  0
 29 62  1  0  0  0  0
 30 63  1  0  0  0  0
 30 66  1  0  0  0  0
 31 65  1  0  0  0  0
 31 69  1  0  0  0  0
 32 70  1  0  0  0  0
 32 75  2  0  0  0  0
 33 50  1  0  0  0  0
 33 71  1  0  0  0  0
 33 76  2  0  0  0  0
 34 59  1  0  0  0  0
 34 67  1  0  0  0  0
 34 77  2  0  0  0  0
 35 60  1  0  0  0  0
 35 72  1  0  0  0  0
 35 78  2  0  0  0  0
 36 68  1  0  0  0  0
 36 73  1  0  0  0  0
 36 79  2  0  0  0  0
 37 40  1  0  0  0  0
 38 50  1  0  0  0  0
 39 67  1  0  0  0  0
 40 42  1  0  0  0  0
 41 43  1  0  0  0  0
 41 45  1  0  0  0  0
 42 49  1  0  0  0  0
 43 51  1  0  0  0  0
 44 46  1  0  0  0  0
 44 52  1  0  0  0  0
 45 68  1  0  0  0  0
 46 66  1  0  0  0  0
 47 51  1  0  0  0  0
 47 68  1  0  0  0  0
 48 52  1  0  0  0  0
 48 66  1  0  0  0  0
 49 71  1  0  0  0  0
 50 67  1  0  0  0  0
 51 65  1  0  0  0  0
 52 73  1  0  0  0  0
 53 60  1  0  0  0  0
 54 61  1  0  0  0  0
 55 61  1  0  0  0  0
 56 61  1  0  0  0  0
 57 74  1  0  0  0  0
 58 81  1  0  0  0  0
 59 61  1  0  0  0  0
 59 72  1  0  0  0  0
 60 74  1  0  0  0  0
 64 65  1  0  0  0  0
M  CHG  1  74   1
M  ISO  4  36 100  58 101  73 100  81 101
M  END
> <Batch ID>
0196

> <Smiles>
CNC(C)C(=O)NC(C(=O)N1Cc2cc([101O:1][101CH2:1]c3nccnc3N3CCC([100NH:0][100C:0](=O)N4CCCC(n5nc(-c6ccc(Oc7ccc(F)cc7F)cc6)c(C(N)=O)c5N)C4)C3)ccc2CC1C(=O)NC1CCCc2ccccc21)C(C)(C)C

> <Shape>
0.189

> <Color>
0.067

> <Negative vol penalty>
0.000

$$$$

  -OEChem-04052323393D

 87 96  0     1  0  0  0  0  0999 V2000
  -28.8266  -29.5196   27.4497 C   0  0  0  0  0  0  0  0  0  0  0  0
  -28.4609  -28.6534   26.4243 C   0  0  0  0  0  0  0  0  0  0  0  0
  -22.9148  -11.5685   22.5352 C   0  0  0  0  0  0  0  0  0  0  0  0
  -24.5354   -9.7779   22.6036 C   0  0  0  0  0  0  0  0  0  0  0  0
  -27.9334  -30.4967   27.8871 C   0  0  0  0  0  0  0  0  0  0  0  0
  -27.2013  -28.7632   25.8364 C   0  0  0  0  0  0  0  0  0  0  0  0
  -27.3849  -28.4847   20.7833 C   0  0  0  0  0  0  0  0  0  0  0  0
  -22.2854  -11.0419   23.6631 C   0  0  0  0  0  0  0  0  0  0  0  0
  -23.9059   -9.2513   23.7315 C   0  0  0  0  0  0  0  0  0  0  0  0
  -27.5293  -27.2175   20.2202 C   0  0  0  0  0  0  0  0  0  0  0  0
  -21.1624   -7.3978   24.4161 C   0  0  0  0  0  0  0  0  0  0  0  0
  -20.9402   -6.0213   24.4508 C   0  0  0  0  0  0  0  0  0  0  0  0
  -25.7609  -22.7450   21.7429 C   0  0  0  0  0  0  0  0  0  0  0  0
  -25.1605  -27.1550   19.7684 C   0  0  0  0  0  0  0  0  0  0  0  0
  -22.2890   -5.8539   26.4483 C   0  0  0  0  0  0  0  0  0  0  0  0
  -24.4403  -22.2846   21.9035 C   0  0  0  0  0  0  0  0  0  0  0  0
  -24.0398  -10.9365   22.0054 C   0  0  0  0  0  0  0  0  0  0  0  0
  -24.1255  -11.6762   19.5655 C   0  0  0  0  0  0  0  0  0  0  0  0
  -26.6658  -30.6248   27.2977 C   0  0  0  0  0  0  0  0  0  0  0  0
  -26.1234  -29.0931   20.8530 C   0  0  0  0  0  0  0  0  0  0  0  0
  -26.2897  -29.7421   26.2672 C   0  0  0  0  0  0  0  0  0  0  0  0
  -25.0032  -28.4311   20.3304 C   0  0  0  0  0  0  0  0  0  0  0  0
  -22.7809   -9.8834   24.2612 C   0  0  0  0  0  0  0  0  0  0  0  0
  -26.4165  -26.5512   19.7153 C   0  0  0  0  0  0  0  0  0  0  0  0
  -21.9480   -8.0025   25.3974 C   0  0  0  0  0  0  0  0  0  0  0  0
  -21.5034   -5.2493   25.4669 C   0  0  0  0  0  0  0  0  0  0  0  0
  -22.5113   -7.2305   26.4135 C   0  0  0  0  0  0  0  0  0  0  0  0
  -24.6901  -11.4796   20.8400 C   0  0  0  0  0  0  0  0  0  0  0  0
  -25.9915  -22.6620   20.3915 C   0  0  0  0  0  0  0  0  0  0  0  0
  -25.1448  -12.2125   18.8174 C   0  0  0  0  0  0  0  0  0  0  0  0
  -22.7982  -11.3989   19.0996 C   0  0  0  0  0  0  0  0  0  0  0  0
  -24.2390  -30.0853   23.2128 C   0  0  0  0  0  0  0  0  0  0  0  0
  -22.4419  -31.2373   20.7703 C   0  0  0  0  0  0  0  0  0  0  0  0
  -21.5668  -31.0479   17.4770 C   0  0  0  0  0  0  0  0  0  0  0  0
  -30.0507  -15.3312   20.2519 C   0  0  0  0  0  0  0  0  0  0  0  0
  -25.7166  -31.6657   27.8362 C   0  0  0  0  0  0  0  0  0  0  0  0
  -25.9887  -30.4717   21.4393 C   0  0  0  0  0  0  0  0  0  0  0  0
  -23.6301  -29.0493   20.3628 C   0  0  0  0  0  0  0  0  0  0  0  0
  -24.5419  -31.9582   26.9063 C   0  0  0  0  0  0  0  0  0  0  0  0
  -29.9166  -12.2505   18.4720 C   0  0  0  0  0  0  0  0  0  0  0  0
  -23.9256  -30.6581   26.3996 C   0  0  0  0  0  0  0  0  0  0  0  0
  -28.5110  -11.7213   18.7621 C   0  0  0  0  0  0  0  0  0  0  0  0
  -29.0849  -18.4545   19.6083 C   0  0  0  0  0  0  0  0  0  0  0  0
  -30.5120  -12.9646   19.6834 C   0  0  0  0  0  0  0  0  0  0  0  0
  -28.2642  -13.5079   20.5358 C   0  0  0  0  0  0  0  0  0  0  0  0
  -28.6245  -18.3319   21.9375 C   0  0  0  0  0  0  0  0  0  0  0  0
  -24.9416  -29.8457   25.5876 C   0  0  1  0  0  0  0  0  0  0  0  0
  -24.5751  -30.7797   21.9233 C   0  0  1  0  0  0  0  0  0  0  0  0
  -27.6003  -12.8286   19.3258 C   0  0  2  0  0  0  0  0  0  0  0  0
  -29.4310  -17.6474   20.8495 C   0  0  1  0  0  0  0  0  0  0  0  0
  -29.1379  -19.8890   20.1210 C   0  0  1  0  0  0  0  0  0  0  0  0
  -20.0441  -32.0960   15.7800 C   0  0  0  0  0  0  0  0  0  0  0  0
  -28.6843  -20.9534   17.8893 C   0  0  0  0  0  0  0  0  0  0  0  0
  -20.0748  -29.7280   21.9656 C   0  0  0  0  0  0  0  0  0  0  0  0
  -18.8792  -30.0162   19.7848 C   0  0  0  0  0  0  0  0  0  0  0  0
  -19.5325  -32.0187   21.1212 C   0  0  0  0  0  0  0  0  0  0  0  0
  -24.5852  -21.9113   18.4489 C   0  0  0  0  0  0  0  0  0  0  0  0
  -23.8450  -31.9265   15.8046 C   0  0  0  0  0  0  0  0  0  0  0  0
  -27.6011  -24.4893   19.6769 C   0  0  0  0  0  0  0  0  0  1  0  0
  -27.2187  -23.0061   19.5658 C   0  0  1  0  0  0  0  0  0  0  0  0
  -21.3193  -30.6935   19.9199 C   0  0  1  0  0  0  0  0  0  0  0  0
  -21.4288  -32.1172   16.4084 C   0  0  2  0  0  0  0  0  0  0  0  0
  -28.2640  -20.8565   19.3486 C   0  0  2  0  0  0  0  0  0  0  0  0
  -19.9769  -30.6014   20.6989 C   0  0  0  0  0  0  0  0  0  0  0  0
  -23.8718  -21.9351   20.7465 N   0  0  0  0  0  0  0  0  0  0  0  0
  -25.9690  -11.8600   20.9016 N   0  0  0  0  0  0  0  0  0  0  0  0
  -24.8398  -22.1761   19.8460 N   0  0  0  0  0  0  0  0  0  0  0  0
  -26.2164  -12.3008   19.6565 N   0  0  0  0  0  0  0  0  0  0  0  0
  -23.5488  -30.3961   20.9518 N   0  0  0  0  0  0  0  0  0  0  0  0
  -29.5999  -14.0035   20.1681 N   0  0  0  0  0  0  0  0  0  0  0  0
  -25.2201  -12.6124   17.5302 N   0  0  0  0  0  0  0  0  0  0  0  0
  -21.8755  -10.8484   19.9996 N   0  0  0  0  0  0  0  0  0  0  0  0
  -25.0855  -30.4002   24.2585 N   0  0  0  0  0  0  0  0  0  0  0  0
  -21.2633  -31.5362   18.7303 N   0  0  0  0  0  0  0  0  0  0  0  0
  -29.1209  -16.2540   20.7152 N   0  0  0  0  0  0  0  0  0  0  0  0
  -28.3614  -22.1737   19.9547 N   0  0  0  0  0  0  0  0  0  0  0  0
  -28.6613  -19.7849   21.5488 N   0  3  0  0  0  0  0  0  0  0  0  0
  -22.4370  -31.9062   15.3313 N   0  3  0  0  0  0  0  0  0  0  0  0
  -22.4457  -11.6171   17.9157 O   0  0  0  0  0  0  0  0  0  0  0  0
  -23.2815  -29.3217   23.2560 O   0  0  0  0  0  0  0  0  0  0  0  0
  -22.3434  -32.3696   21.2497 O   0  0  0  0  0  0  0  0  0  0  0  0
  -21.9061  -29.8939   17.2248 O   0  0  0  0  0  0  0  0  0  0  0  0
  -31.1952  -15.6700   19.9320 O   0  0  0  0  0  0  0  0  0  0  0  0
  -22.1671   -9.3694   25.3620 O   0  0  0  0  0  0  0  0  0  0  0  0
  -26.5546  -25.3139   19.1658 O   0  0  0  0  0  0  0  0  0  1  0  0
  -21.2886   -3.9276   25.5010 F   0  0  0  0  0  0  0  0  0  0  0  0
  -23.2659   -7.8059   27.3597 F   0  0  0  0  0  0  0  0  0  0  0  0
  1  2  1  0  0  0  0
  1  5  2  0  0  0  0
  2  6  2  0  0  0  0
  3  8  2  0  0  0  0
  3 17  1  0  0  0  0
  4  9  1  0  0  0  0
  4 17  2  0  0  0  0
  5 19  1  0  0  0  0
  6 21  1  0  0  0  0
  7 10  2  0  0  0  0
  7 20  1  0  0  0  0
  8 23  1  0  0  0  0
  9 23  2  0  0  0  0
 10 24  1  0  0  0  0
 11 12  2  0  0  0  0
 11 25  1  0  0  0  0
 12 26  1  0  0  0  0
 13 16  1  0  0  0  0
 13 29  2  0  0  0  0
 14 22  1  0  0  0  0
 14 24  2  0  0  0  0
 15 26  2  0  0  0  0
 15 27  1  0  0  0  0
 16 65  2  0  0  0  0
 17 28  1  0  0  0  0
 18 28  1  0  0  0  0
 18 30  2  0  0  0  0
 18 31  1  0  0  0  0
 19 21  2  0  0  0  0
 19 36  1  0  0  0  0
 20 22  2  0  0  0  0
 20 37  1  0  0  0  0
 21 47  1  0  0  0  0
 22 38  1  0  0  0  0
 23 84  1  0  0  0  0
 24 85  1  0  0  0  0
 25 27  2  0  0  0  0
 25 84  1  0  0  0  0
 26 86  1  0  0  0  0
 27 87  1  0  0  0  0
 28 66  2  0  0  0  0
 29 60  1  0  0  0  0
 29 67  1  0  0  0  0
 30 68  1  0  0  0  0
 30 71  1  0  0  0  0
 31 72  1  0  0  0  0
 31 79  2  0  0  0  0
 32 48  1  0  0  0  0
 32 73  1  0  0  0  0
 32 80  2  0  0  0  0
 33 61  1  0  0  0  0
 33 69  1  0  0  0  0
 33 81  2  0  0  0  0
 34 62  1  0  0  0  0
 34 74  1  0  0  0  0
 34 82  2  0  0  0  0
 35 70  1  0  0  0  0
 35 75  1  0  0  0  0
 35 83  2  0  0  0  0
 36 39  1  0  0  0  0
 37 48  1  0  0  0  0
 38 69  1  0  0  0  0
 39 41  1  0  0  0  0
 40 42  1  0  0  0  0
 40 44  1  0  0  0  0
 41 47  1  0  0  0  0
 42 49  1  0  0  0  0
 43 50  1  0  0  0  0
 43 51  1  0  0  0  0
 44 70  1  0  0  0  0
 45 49  1  0  0  0  0
 45 70  1  0  0  0  0
 46 50  1  0  0  0  0
 46 77  1  0  0  0  0
 47 73  1  0  0  0  0
 48 69  1  0  0  0  0
 49 68  1  0  0  0  0
 50 75  1  0  0  0  0
 51 63  1  0  0  0  0
 51 77  1  0  0  0  0
 52 62  1  0  0  0  0
 53 63  1  0  0  0  0
 54 64  1  0  0  0  0
 55 64  1  0  0  0  0
 56 64  1  0  0  0  0
 57 67  1  0  0  0  0
 58 78  1  0  0  0  0
 59 60  1  0  0  0  0
 59 85  1  0  0  0  0
 60 76  1  0  0  0  0
 61 64  1  0  0  0  0
 61 74  1  0  0  0  0
 62 78  1  0  0  0  0
 63 76  1  0  0  0  0
 65 67  1  0  0  0  0
 66 68  1  0  0  0  0
M  CHG  2  77   1  78   1
M  ISO  4  35 100  59 101  75 100  85 101
M  END
> <Batch ID>
0196

> <Smiles>
CNC(C)C(=O)NC(C(=O)N1Cc2cc([101O:1][101CH2:1]C(NC(C)C3CC([100NH:0][100C:0](=O)N4CCCC(n5nc(-c6ccc(Oc7ccc(F)cc7F)cc6)c(C(N)=O)c5N)C4)CN3)c3ccnn3C)ccc2CC1C(=O)NC1CCCc2ccccc21)C(C)(C)C

> <Shape>
0.277

> <Color>
0.088

> <Negative vol penalty>
0.000

$$$$

  -OEChem-04052323393D

 84 93  0     1  0  0  0  0  0999 V2000
  -26.2089  -37.0386   16.5896 C   0  0  0  0  0  0  0  0  0  0  0  0
  -26.5703  -35.6970   16.5201 C   0  0  0  0  0  0  0  0  0  0  0  0
  -23.0689   -9.6787   21.6014 C   0  0  0  0  0  0  0  0  0  0  0  0
  -24.8155   -8.0362   21.8993 C   0  0  0  0  0  0  0  0  0  0  0  0
  -26.1240  -37.6732   17.8281 C   0  0  0  0  0  0  0  0  0  0  0  0
  -26.8482  -34.9895   17.6891 C   0  0  0  0  0  0  0  0  0  0  0  0
  -25.6604  -29.0829   18.7880 C   0  0  0  0  0  0  0  0  0  0  0  0
  -22.1703   -8.6637   21.2730 C   0  0  0  0  0  0  0  0  0  0  0  0
  -23.9168   -7.0211   21.5710 C   0  0  0  0  0  0  0  0  0  0  0  0
  -26.4552  -27.9391   18.7262 C   0  0  0  0  0  0  0  0  0  0  0  0
  -21.4311   -5.3093   23.0913 C   0  0  0  0  0  0  0  0  0  0  0  0
  -21.4274   -4.1658   23.8899 C   0  0  0  0  0  0  0  0  0  0  0  0
  -30.1980  -24.6226   18.8449 C   0  0  0  0  0  0  0  0  0  0  0  0
  -26.8723  -28.1083   21.0962 C   0  0  0  0  0  0  0  0  0  0  0  0
  -21.9888   -2.8191   21.9642 C   0  0  0  0  0  0  0  0  0  0  0  0
  -30.9016  -23.4410   18.9599 C   0  0  0  0  0  0  0  0  0  0  0  0
  -24.3915   -9.3650   21.9145 C   0  0  0  0  0  0  0  0  0  0  0  0
  -25.5883  -10.9301   23.5350 C   0  0  0  0  0  0  0  0  0  0  0  0
  -26.3916  -36.9706   19.0136 C   0  0  0  0  0  0  0  0  0  0  0  0
  -25.4742  -29.7554   20.0043 C   0  0  0  0  0  0  0  0  0  0  0  0
  -26.7682  -35.6157   18.9446 C   0  0  0  0  0  0  0  0  0  0  0  0
  -26.0727  -29.2590   21.1712 C   0  0  0  0  0  0  0  0  0  0  0  0
  -22.5943   -7.3349   21.2578 C   0  0  0  0  0  0  0  0  0  0  0  0
  -27.0636  -27.4533   19.8799 C   0  0  0  0  0  0  0  0  0  0  0  0
  -21.7136   -5.2078   21.7291 C   0  0  0  0  0  0  0  0  0  0  0  0
  -21.7063   -2.9206   23.3264 C   0  0  0  0  0  0  0  0  0  0  0  0
  -21.9925   -3.9627   21.1655 C   0  0  0  0  0  0  0  0  0  0  0  0
  -25.3204  -10.4131   22.2533 C   0  0  0  0  0  0  0  0  0  0  0  0
  -28.8340  -24.4918   18.6814 C   0  0  0  0  0  0  0  0  0  0  0  0
  -26.5376  -11.8997   23.3226 C   0  0  0  0  0  0  0  0  0  0  0  0
  -28.9916  -22.2254   18.7565 C   0  0  0  0  0  0  0  0  0  0  0  0
  -25.0291  -10.5663   24.8041 C   0  0  0  0  0  0  0  0  0  0  0  0
  -26.1524  -32.6670   21.0844 C   0  0  0  0  0  0  0  0  0  0  0  0
  -24.4841  -31.6685   23.6810 C   0  0  0  0  0  0  0  0  0  0  0  0
  -23.3558  -29.0621   25.5732 C   0  0  0  0  0  0  0  0  0  0  0  0
  -28.5584  -16.1122   20.6812 C   0  0  0  0  0  0  0  0  0  0  0  0
  -26.3327  -37.7117   20.3258 C   0  0  0  0  0  0  0  0  0  0  0  0
  -24.5923  -30.9727   20.0592 C   0  0  0  0  0  0  0  0  0  0  0  0
  -25.8878  -29.9326   22.5055 C   0  0  0  0  0  0  0  0  0  0  0  0
  -26.2787  -36.7920   21.5429 C   0  0  0  0  0  0  0  0  0  0  0  0
  -29.2776  -12.9998   19.2236 C   0  0  0  0  0  0  0  0  0  0  0  0
  -27.3204  -35.6843   21.4217 C   0  0  0  0  0  0  0  0  0  0  0  0
  -28.3268  -12.0796   19.9887 C   0  0  0  0  0  0  0  0  0  0  0  0
  -28.2300  -18.6107   18.2239 C   0  0  0  0  0  0  0  0  0  0  0  0
  -29.3985  -19.4516   20.2964 C   0  0  0  0  0  0  0  0  0  0  0  0
  -28.6226  -14.3372   18.8734 C   0  0  0  0  0  0  0  0  0  0  0  0
  -28.8808  -17.2403   18.4339 C   0  0  0  0  0  0  0  0  0  0  0  0
  -30.0460  -18.0780   20.4488 C   0  0  0  0  0  0  0  0  0  0  0  0
  -27.0886  -14.1222   20.8019 C   0  0  0  0  0  0  0  0  0  0  0  0
  -27.0532  -34.8078   20.1921 C   0  0  1  0  0  0  0  0  0  0  0  0
  -24.8889  -31.8720   21.2552 C   0  0  1  0  0  0  0  0  0  0  0  0
  -27.7377  -12.7933   21.2185 C   0  0  1  0  0  0  0  0  0  0  0  0
  -29.0772  -19.7338   18.8264 C   0  0  0  0  0  0  0  0  0  0  0  0
  -22.0502  -28.5606   27.6567 C   0  0  0  0  0  0  0  0  0  0  0  0
  -26.8915  -32.4646   25.3782 C   0  0  0  0  0  0  0  0  0  0  0  0
  -25.9380  -31.0980   27.2468 C   0  0  0  0  0  0  0  0  0  0  0  0
  -24.6738  -33.0610   26.3686 C   0  0  0  0  0  0  0  0  0  0  0  0
  -21.2928  -27.5731   24.0613 C   0  0  0  0  0  0  0  0  0  0  0  0
  -27.9893  -25.7141   18.5479 C   0  0  0  0  0  0  0  0  0  1  0  0
  -24.8324  -30.9617   24.9686 C   0  0  1  0  0  0  0  0  0  0  0  0
  -21.9855  -28.7550   26.1498 C   0  0  2  0  0  0  0  0  0  0  0  0
  -25.5892  -31.8845   25.9652 C   0  0  0  0  0  0  0  0  0  0  0  0
  -30.3283  -22.2204   18.9199 N   0  0  0  0  0  0  0  0  0  0  0  0
  -26.0411  -11.0054   21.2974 N   0  0  0  0  0  0  0  0  0  0  0  0
  -28.1954  -23.3043   18.6324 N   0  0  0  0  0  0  0  0  0  0  0  0
  -26.7712  -11.9046   21.9788 N   0  0  0  0  0  0  0  0  0  0  0  0
  -25.0215  -31.1230   22.5065 N   0  0  0  0  0  0  0  0  0  0  0  0
  -28.0404  -14.9606   20.0700 N   0  0  0  0  0  0  0  0  0  0  0  0
  -29.2136  -17.0337   19.8507 N   0  0  0  0  0  0  0  0  0  0  0  0
  -27.1868  -12.7402   24.1560 N   0  0  0  0  0  0  0  0  0  0  0  0
  -24.0652   -9.5495   24.8428 N   0  0  0  0  0  0  0  0  0  0  0  0
  -28.3699  -20.9901   18.7109 N   0  0  0  0  0  0  0  0  0  0  0  0
  -25.9708  -33.8840   20.4556 N   0  0  0  0  0  0  0  0  0  0  0  0
  -23.5815  -30.4197   25.4881 N   0  0  0  0  0  0  0  0  0  0  0  0
  -21.4330  -27.5130   25.5390 N   0  3  0  0  0  0  0  0  0  0  0  0
  -25.3619  -11.1376   25.8701 O   0  0  0  0  0  0  0  0  0  0  0  0
  -27.2134  -32.2107   21.4943 O   0  0  0  0  0  0  0  0  0  0  0  0
  -23.7559  -32.6636   23.7152 O   0  0  0  0  0  0  0  0  0  0  0  0
  -24.1482  -28.1854   25.2357 O   0  0  0  0  0  0  0  0  0  0  0  0
  -28.4423  -16.3062   21.8978 O   0  0  0  0  0  0  0  0  0  0  0  0
  -21.7176   -6.3442   20.9377 O   0  0  0  0  0  0  0  0  0  0  0  0
  -27.8457  -26.3296   19.8219 O   0  0  0  0  0  0  0  0  0  1  0  0
  -21.7043   -1.8228   24.0937 F   0  0  0  0  0  0  0  0  0  0  0  0
  -22.2658   -3.8590   19.8577 F   0  0  0  0  0  0  0  0  0  0  0  0
  1  2  1  0  0  0  0
  1  5  2  0  0  0  0
  2  6  2  0  0  0  0
  3  8  2  0  0  0  0
  3 17  1  0  0  0  0
  4  9  1  0  0  0  0
  4 17  2  0  0  0  0
  5 19  1  0  0  0  0
  6 21  1  0  0  0  0
  7 10  2  0  0  0  0
  7 20  1  0  0  0  0
  8 23  1  0  0  0  0
  9 23  2  0  0  0  0
 10 24  1  0  0  0  0
 11 12  2  0  0  0  0
 11 25  1  0  0  0  0
 12 26  1  0  0  0  0
 13 16  2  0  0  0  0
 13 29  1  0  0  0  0
 14 22  1  0  0  0  0
 14 24  2  0  0  0  0
 15 26  2  0  0  0  0
 15 27  1  0  0  0  0
 16 63  1  0  0  0  0
 17 28  1  0  0  0  0
 18 28  1  0  0  0  0
 18 30  2  0  0  0  0
 18 32  1  0  0  0  0
 19 21  2  0  0  0  0
 19 37  1  0  0  0  0
 20 22  2  0  0  0  0
 20 38  1  0  0  0  0
 21 50  1  0  0  0  0
 22 39  1  0  0  0  0
 23 81  1  0  0  0  0
 24 82  1  0  0  0  0
 25 27  2  0  0  0  0
 25 81  1  0  0  0  0
 26 83  1  0  0  0  0
 27 84  1  0  0  0  0
 28 64  2  0  0  0  0
 29 59  1  0  0  0  0
 29 65  2  0  0  0  0
 30 66  1  0  0  0  0
 30 70  1  0  0  0  0
 31 63  2  0  0  0  0
 31 65  1  0  0  0  0
 31 72  1  0  0  0  0
 32 71  1  0  0  0  0
 32 76  2  0  0  0  0
 33 51  1  0  0  0  0
 33 73  1  0  0  0  0
 33 77  2  0  0  0  0
 34 60  1  0  0  0  0
 34 67  1  0  0  0  0
 34 78  2  0  0  0  0
 35 61  1  0  0  0  0
 35 74  1  0  0  0  0
 35 79  2  0  0  0  0
 36 68  1  0  0  0  0
 36 69  1  0  0  0  0
 36 80  2  0  0  0  0
 37 40  1  0  0  0  0
 38 51  1  0  0  0  0
 39 67  1  0  0  0  0
 40 42  1  0  0  0  0
 41 43  1  0  0  0  0
 41 46  1  0  0  0  0
 42 50  1  0  0  0  0
 43 52  1  0  0  0  0
 44 47  1  0  0  0  0
 44 53  1  0  0  0  0
 45 48  1  0  0  0  0
 45 53  1  0  0  0  0
 46 68  1  0  0  0  0
 47 69  1  0  0  0  0
 48 69  1  0  0  0  0
 49 52  1  0  0  0  0
 49 68  1  0  0  0  0
 50 73  1  0  0  0  0
 51 67  1  0  0  0  0
 52 66  1  0  0  0  0
 53 72  1  0  0  0  0
 54 61  1  0  0  0  0
 55 62  1  0  0  0  0
 56 62  1  0  0  0  0
 57 62  1  0  0  0  0
 58 75  1  0  0  0  0
 59 82  1  0  0  0  0
 60 62  1  0  0  0  0
 60 74  1  0  0  0  0
 61 75  1  0  0  0  0
 64 66  1  0  0  0  0
M  CHG  1  75   1
M  ISO  4  36 100  59 101  69 100  82 101
M  END
> <Batch ID>
0196

> <Smiles>
CNC(C)C(=O)NC(C(=O)N1Cc2cc([101O:1][101CH2:1]c3ccnc(NC4CC[100N:0]([100C:0](=O)N5CCCC(n6nc(-c7ccc(Oc8ccc(F)cc8F)cc7)c(C(N)=O)c6N)C5)CC4)n3)ccc2CC1C(=O)NC1CCCc2ccccc21)C(C)(C)C

> <Shape>
0.290

> <Color>
0.097

> <Negative vol penalty>
0.000

$$$$

  -OEChem-04052323393D

 87 96  0     1  0  0  0  0  0999 V2000
  -19.1449  -25.7886   19.8824 C   0  0  0  0  0  0  0  0  0  0  0  0
  -19.1188  -24.4581   19.4766 C   0  0  0  0  0  0  0  0  0  0  0  0
  -26.2669  -28.1715   18.9990 C   0  0  0  0  0  0  0  0  0  0  0  0
  -26.5051  -27.7927   21.3732 C   0  0  0  0  0  0  0  0  0  0  0  0
  -20.3004  -26.3191   20.4546 C   0  0  0  0  0  0  0  0  0  0  0  0
  -20.2487  -23.6577   19.6417 C   0  0  0  0  0  0  0  0  0  0  0  0
  -22.1414  -16.8822   20.9929 C   0  0  0  0  0  0  0  0  0  0  0  0
  -25.2905  -29.1351   19.2507 C   0  0  0  0  0  0  0  0  0  0  0  0
  -25.5286  -28.7564   21.6249 C   0  0  0  0  0  0  0  0  0  0  0  0
  -22.9529  -15.8688   20.4847 C   0  0  0  0  0  0  0  0  0  0  0  0
  -25.3277  -32.1282   21.7295 C   0  0  0  0  0  0  0  0  0  0  0  0
  -25.5797  -33.0552   22.7408 C   0  0  0  0  0  0  0  0  0  0  0  0
  -29.0954  -11.9631   19.6527 C   0  0  0  0  0  0  0  0  0  0  0  0
  -24.8667  -16.8714   21.5578 C   0  0  0  0  0  0  0  0  0  0  0  0
  -23.6106  -32.3027   23.9213 C   0  0  0  0  0  0  0  0  0  0  0  0
  -29.9400  -12.6787   18.8286 C   0  0  0  0  0  0  0  0  0  0  0  0
  -26.8743  -27.5002   20.0602 C   0  0  0  0  0  0  0  0  0  0  0  0
  -29.2715  -26.7082   19.6943 C   0  0  0  0  0  0  0  0  0  0  0  0
  -21.4418  -25.5222   20.6357 C   0  0  0  0  0  0  0  0  0  0  0  0
  -22.6893  -17.9056   21.7797 C   0  0  0  0  0  0  0  0  0  0  0  0
  -21.4209  -24.1785   20.2156 C   0  0  0  0  0  0  0  0  0  0  0  0
  -24.0596  -17.8952   22.0769 C   0  0  0  0  0  0  0  0  0  0  0  0
  -24.9213  -29.4276   20.5636 C   0  0  0  0  0  0  0  0  0  0  0  0
  -24.3162  -15.8649   20.7647 C   0  0  0  0  0  0  0  0  0  0  0  0
  -24.2170  -31.2885   21.8140 C   0  0  0  0  0  0  0  0  0  0  0  0
  -24.7212  -33.1425   23.8367 C   0  0  0  0  0  0  0  0  0  0  0  0
  -23.3585  -31.3757   22.9099 C   0  0  0  0  0  0  0  0  0  0  0  0
  -27.8827  -26.5042   19.8008 C   0  0  0  0  0  0  0  0  0  0  0  0
  -28.4793  -12.6891   20.6514 C   0  0  0  0  0  0  0  0  0  0  0  0
  -29.7839  -25.4587   19.4443 C   0  0  0  0  0  0  0  0  0  0  0  0
  -29.5125  -14.5964   19.9718 C   0  0  0  0  0  0  0  0  0  0  0  0
  -30.0305  -27.9190   19.8109 C   0  0  0  0  0  0  0  0  0  0  0  0
  -22.9348  -21.0624   21.5006 C   0  0  0  0  0  0  0  0  0  0  0  0
  -24.1244  -20.8451   24.5105 C   0  0  0  0  0  0  0  0  0  0  0  0
  -25.6569  -18.9374   26.8894 C   0  0  0  0  0  0  0  0  0  0  0  0
  -30.1433  -20.1740   20.3317 C   0  0  0  0  0  0  0  0  0  0  0  0
  -22.6830  -26.1529   21.2155 C   0  0  0  0  0  0  0  0  0  0  0  0
  -21.7958  -18.9768   22.3425 C   0  0  0  0  0  0  0  0  0  0  0  0
  -24.6933  -18.9598   22.9334 C   0  0  0  0  0  0  0  0  0  0  0  0
  -23.7141  -25.1361   21.6984 C   0  0  0  0  0  0  0  0  0  0  0  0
  -27.4839  -21.1250   18.2430 C   0  0  0  0  0  0  0  0  0  0  0  0
  -23.9184  -24.0449   20.6523 C   0  0  0  0  0  0  0  0  0  0  0  0
  -27.4584  -22.6386   18.4537 C   0  0  0  0  0  0  0  0  0  0  0  0
  -27.7418  -20.3691   19.5474 C   0  0  0  0  0  0  0  0  0  0  0  0
  -30.6412  -16.6695   19.2260 C   0  0  0  0  0  0  0  0  0  0  0  0
  -28.6435  -16.7669   20.7246 C   0  0  0  0  0  0  0  0  0  0  0  0
  -31.1431  -17.9733   19.8408 C   0  0  0  0  0  0  0  0  0  0  0  0
  -29.1866  -18.0607   21.3210 C   0  0  0  0  0  0  0  0  0  0  0  0
  -28.9289  -22.3281   20.4807 C   0  0  0  0  0  0  0  0  0  0  0  0
  -22.6182  -23.2717   20.4007 C   0  0  1  0  0  0  0  0  0  0  0  0
  -22.5488  -20.2528   22.7060 C   0  0  1  0  0  0  0  0  0  0  0  0
  -28.7298  -23.1170   19.1771 C   0  0  2  0  0  0  0  0  0  0  0  0
  -26.5340  -19.0467   29.2381 C   0  0  0  0  0  0  0  0  0  0  0  0
  -26.5578  -22.4010   23.5268 C   0  0  0  0  0  0  0  0  0  0  0  0
  -27.7755  -21.6625   25.5859 C   0  0  0  0  0  0  0  0  0  0  0  0
  -25.7312  -23.0777   25.7880 C   0  0  0  0  0  0  0  0  0  0  0  0
  -23.7929  -16.8297   27.8071 C   0  0  0  0  0  0  0  0  0  0  0  0
  -25.2636  -11.8967   22.5772 C   0  0  0  0  0  0  0  0  0  0  0  0
  -27.5483  -12.0013   21.5924 C   0  0  0  0  0  0  0  0  0  0  0  0
  -25.5604  -12.5128   20.1826 C   0  0  0  0  0  0  0  0  0  0  0  0
  -24.5104  -13.6000   20.0657 C   0  0  0  0  0  0  0  0  0  1  0  0
  -25.4986  -20.6544   25.1058 C   0  0  1  0  0  0  0  0  0  0  0  0
  -25.3407  -18.7114   28.3569 C   0  0  2  0  0  0  0  0  0  0  0  0
  -26.3795  -21.9298   24.9839 C   0  0  0  0  0  0  0  0  0  0  0  0
  -30.1726  -14.0012   18.9601 N   0  0  0  0  0  0  0  0  0  0  0  0
  -27.5349  -25.2257   19.6323 N   0  0  0  0  0  0  0  0  0  0  0  0
  -28.6658  -14.0119   20.8407 N   0  0  0  0  0  0  0  0  0  0  0  0
  -28.7126  -24.6150   19.4171 N   0  0  0  0  0  0  0  0  0  0  0  0
  -29.7299  -15.9701   20.1383 N   0  0  0  0  0  0  0  0  0  0  0  0
  -23.7791  -19.9891   23.4551 N   0  0  0  0  0  0  0  0  0  0  0  0
  -28.9401  -20.8870   20.2211 N   0  0  0  0  0  0  0  0  0  0  0  0
  -30.0492  -18.7742   20.3770 N   0  0  0  0  0  0  0  0  0  0  0  0
  -31.0419  -25.0102   19.2473 N   0  0  0  0  0  0  0  0  0  0  0  0
  -29.3460  -29.1144   20.0695 N   0  0  0  0  0  0  0  0  0  0  0  0
  -22.3773  -22.3264   21.4697 N   0  0  0  0  0  0  0  0  0  0  0  0
  -25.2902  -20.2009   26.4767 N   0  0  0  0  0  0  0  0  0  0  0  0
  -24.9673  -17.2881   28.5931 N   0  3  0  0  0  0  0  0  0  0  0  0
  -26.1651  -12.5516   21.5625 N   0  3  1  0  0  0  0  0  0  0  0  0
  -31.2770  -27.9429   19.6730 O   0  0  0  0  0  0  0  0  0  0  0  0
  -23.6841  -20.5768   20.6613 O   0  0  0  0  0  0  0  0  0  0  0  0
  -23.3820  -21.7165   24.9699 O   0  0  0  0  0  0  0  0  0  0  0  0
  -26.1804  -18.0802   26.1811 O   0  0  0  0  0  0  0  0  0  0  0  0
  -31.2366  -20.7509   20.3837 O   0  0  0  0  0  0  0  0  0  0  0  0
  -23.9687  -30.3681   20.8096 O   0  0  0  0  0  0  0  0  0  0  0  0
  -25.1164  -14.8702   20.2659 O   0  0  0  0  0  0  0  0  0  1  0  0
  -24.9642  -34.0317   24.8085 F   0  0  0  0  0  0  0  0  0  0  0  0
  -22.2907  -30.5708   22.9973 F   0  0  0  0  0  0  0  0  0  0  0  0
  1  2  1  0  0  0  0
  1  5  2  0  0  0  0
  2  6  2  0  0  0  0
  3  8  2  0  0  0  0
  3 17  1  0  0  0  0
  4  9  1  0  0  0  0
  4 17  2  0  0  0  0
  5 19  1  0  0  0  0
  6 21  1  0  0  0  0
  7 10  2  0  0  0  0
  7 20  1  0  0  0  0
  8 23  1  0  0  0  0
  9 23  2  0  0  0  0
 10 24  1  0  0  0  0
 11 12  2  0  0  0  0
 11 25  1  0  0  0  0
 12 26  1  0  0  0  0
 13 16  2  0  0  0  0
 13 29  1  0  0  0  0
 14 22  1  0  0  0  0
 14 24  2  0  0  0  0
 15 26  2  0  0  0  0
 15 27  1  0  0  0  0
 16 65  1  0  0  0  0
 17 28  1  0  0  0  0
 18 28  1  0  0  0  0
 18 30  2  0  0  0  0
 18 32  1  0  0  0  0
 19 21  2  0  0  0  0
 19 37  1  0  0  0  0
 20 22  2  0  0  0  0
 20 38  1  0  0  0  0
 21 50  1  0  0  0  0
 22 39  1  0  0  0  0
 23 84  1  0  0  0  0
 24 85  1  0  0  0  0
 25 27  2  0  0  0  0
 25 84  1  0  0  0  0
 26 86  1  0  0  0  0
 27 87  1  0  0  0  0
 28 66  2  0  0  0  0
 29 59  1  0  0  0  0
 29 67  2  0  0  0  0
 30 68  1  0  0  0  0
 30 73  1  0  0  0  0
 31 65  2  0  0  0  0
 31 67  1  0  0  0  0
 31 69  1  0  0  0  0
 32 74  1  0  0  0  0
 32 79  2  0  0  0  0
 33 51  1  0  0  0  0
 33 75  1  0  0  0  0
 33 80  2  0  0  0  0
 34 62  1  0  0  0  0
 34 70  1  0  0  0  0
 34 81  2  0  0  0  0
 35 63  1  0  0  0  0
 35 76  1  0  0  0  0
 35 82  2  0  0  0  0
 36 71  1  0  0  0  0
 36 72  1  0  0  0  0
 36 83  2  0  0  0  0
 37 40  1  0  0  0  0
 38 51  1  0  0  0  0
 39 70  1  0  0  0  0
 40 42  1  0  0  0  0
 41 43  1  0  0  0  0
 41 44  1  0  0  0  0
 42 50  1  0  0  0  0
 43 52  1  0  0  0  0
 44 71  1  0  0  0  0
 45 47  1  0  0  0  0
 45 69  1  0  0  0  0
 46 48  1  0  0  0  0
 46 69  1  0  0  0  0
 47 72  1  0  0  0  0
 48 72  1  0  0  0  0
 49 52  1  0  0  0  0
 49 71  1  0  0  0  0
 50 75  1  0  0  0  0
 51 70  1  0  0  0  0
 52 68  1  0  0  0  0
 53 63  1  0  0  0  0
 54 64  1  0  0  0  0
 55 64  1  0  0  0  0
 56 64  1  0  0  0  0
 57 77  1  0  0  0  0
 58 78  1  0  0  0  0
 59 78  1  0  0  0  0
 60 61  1  0  0  0  0
 60 78  1  0  0  0  0
 61 85  1  0  0  0  0
 62 64  1  0  0  0  0
 62 76  1  0  0  0  0
 63 77  1  0  0  0  0
 66 68  1  0  0  0  0
M  CHG  2  77   1  78   1
M  ISO  4  36 100  61 101  72 100  85 101
M  END
> <Batch ID>
0196

> <Smiles>
CNC(C)C(=O)NC(C(=O)N1Cc2cc([101O:1][101CH2:1]CN(C)Cc3ccnc(N4CC[100N:0]([100C:0](=O)N5CCCC(n6nc(-c7ccc(Oc8ccc(F)cc8F)cc7)c(C(N)=O)c6N)C5)CC4)n3)ccc2CC1C(=O)NC1CCCc2ccccc21)C(C)(C)C

> <Shape>
0.241

> <Color>
0.060

> <Negative vol penalty>
0.000

$$$$

  -OEChem-04052323393D

 88 98  0     1  0  0  0  0  0999 V2000
  -24.1976  -33.8890   28.0894 C   0  0  0  0  0  0  0  0  0  0  0  0
  -25.1211  -33.1045   27.4059 C   0  0  0  0  0  0  0  0  0  0  0  0
  -27.4588  -10.8935   20.8113 C   0  0  0  0  0  0  0  0  0  0  0  0
  -27.2914  -11.3766   18.4501 C   0  0  0  0  0  0  0  0  0  0  0  0
  -22.8324  -33.6579   27.9266 C   0  0  0  0  0  0  0  0  0  0  0  0
  -24.6798  -32.0876   26.5600 C   0  0  0  0  0  0  0  0  0  0  0  0
  -27.2880  -30.2584   21.3295 C   0  0  0  0  0  0  0  0  0  0  0  0
  -26.4172   -9.9728   20.6968 C   0  0  0  0  0  0  0  0  0  0  0  0
  -26.2498  -10.4559   18.3355 C   0  0  0  0  0  0  0  0  0  0  0  0
  -28.1407  -29.1976   21.0275 C   0  0  0  0  0  0  0  0  0  0  0  0
  -23.5611   -7.7577   21.0959 C   0  0  0  0  0  0  0  0  0  0  0  0
  -22.5595   -7.7853   22.0662 C   0  0  0  0  0  0  0  0  0  0  0  0
  -26.2442  -27.8795   20.3306 C   0  0  0  0  0  0  0  0  0  0  0  0
  -22.0401  -10.0670   21.4652 C   0  0  0  0  0  0  0  0  0  0  0  0
  -28.8746  -18.9354   15.5281 C   0  0  0  0  0  0  0  0  0  0  0  0
  -27.8959  -11.5954   19.6879 C   0  0  0  0  0  0  0  0  0  0  0  0
  -30.3485  -12.2962   19.6565 C   0  0  0  0  0  0  0  0  0  0  0  0
  -22.3739  -32.6440   27.0708 C   0  0  0  0  0  0  0  0  0  0  0  0
  -25.9035  -30.1338   21.1444 C   0  0  0  0  0  0  0  0  0  0  0  0
  -23.3071  -31.8418   26.3866 C   0  0  0  0  0  0  0  0  0  0  0  0
  -25.3764  -28.9412   20.6287 C   0  0  0  0  0  0  0  0  0  0  0  0
  -25.8128   -9.7540   19.4589 C   0  0  0  0  0  0  0  0  0  0  0  0
  -27.6186  -28.0069   20.5307 C   0  0  0  0  0  0  0  0  0  0  0  0
  -23.8023   -8.8848   20.3102 C   0  0  0  0  0  0  0  0  0  0  0  0
  -21.7990   -8.9400   22.2509 C   0  0  0  0  0  0  0  0  0  0  0  0
  -23.0418  -10.0394   20.4949 C   0  0  0  0  0  0  0  0  0  0  0  0
  -28.9714  -12.5470   19.8057 C   0  0  0  0  0  0  0  0  0  0  0  0
  -28.9206  -19.7714   14.4311 C   0  0  0  0  0  0  0  0  0  0  0  0
  -28.9875  -19.5550   16.7559 C   0  0  0  0  0  0  0  0  0  0  0  0
  -30.9442  -13.5164   19.8631 C   0  0  0  0  0  0  0  0  0  0  0  0
  -29.1646  -21.5941   15.7672 C   0  0  0  0  0  0  0  0  0  0  0  0
  -31.0286  -11.0698   19.3578 C   0  0  0  0  0  0  0  0  0  0  0  0
  -23.3659  -30.2440   23.0554 C   0  0  0  0  0  0  0  0  0  0  0  0
  -21.7365  -30.0555   20.2569 C   0  0  0  0  0  0  0  0  0  0  0  0
  -21.7118  -29.1147   16.9765 C   0  0  0  0  0  0  0  0  0  0  0  0
  -29.0400  -19.1460   19.2412 C   0  0  0  0  0  0  0  0  0  0  0  0
  -20.8893  -32.4008   26.9634 C   0  0  0  0  0  0  0  0  0  0  0  0
  -24.9999  -31.2968   21.4498 C   0  0  0  0  0  0  0  0  0  0  0  0
  -23.8995  -28.7637   20.3926 C   0  0  0  0  0  0  0  0  0  0  0  0
  -20.4972  -31.5481   25.7595 C   0  0  0  0  0  0  0  0  0  0  0  0
  -30.3109  -17.6435   22.2084 C   0  0  0  0  0  0  0  0  0  0  0  0
  -21.4064  -30.3281   25.6506 C   0  0  0  0  0  0  0  0  0  0  0  0
  -27.7335  -19.6866   12.1381 C   0  0  0  0  0  0  0  0  0  0  0  0
  -27.6131  -18.3209   12.7385 C   0  0  0  0  0  0  0  0  0  0  0  0
  -30.2426  -16.1434   21.9131 C   0  0  0  0  0  0  0  0  0  0  0  0
  -29.2376  -25.2652   15.3978 C   0  0  0  0  0  0  0  0  0  0  0  0
  -29.1235  -18.3943   21.6082 C   0  0  0  0  0  0  0  0  0  0  0  0
  -29.3673  -23.8828   14.7562 C   0  0  0  0  0  0  0  0  0  0  0  0
  -28.8347  -16.6629   19.8796 C   0  0  0  0  0  0  0  0  0  0  0  0
  -29.4137  -23.6634   17.1683 C   0  0  0  0  0  0  0  0  0  0  0  0
  -22.8670  -30.7454   25.4409 C   0  0  1  0  0  0  0  0  0  0  0  0
  -28.8058  -19.1801   13.0666 C   0  0  0  0  0  0  0  0  0  0  0  0
  -23.5552  -30.8795   21.7071 C   0  0  1  0  0  0  0  0  0  0  0  0
  -30.0434  -15.8737   20.4087 C   0  0  2  0  0  0  0  0  0  0  0  0
  -29.8810  -25.0551   16.7567 C   0  0  2  0  0  0  0  0  0  0  0  0
  -20.2249  -29.0536   14.9559 C   0  0  0  0  0  0  0  0  0  0  0  0
  -20.2398  -27.6711   21.4335 C   0  0  0  0  0  0  0  0  0  0  0  0
  -19.4965  -27.0830   19.1162 C   0  0  0  0  0  0  0  0  0  0  0  0
  -18.8132  -29.2579   20.1290 C   0  0  0  0  0  0  0  0  0  0  0  0
  -23.5336  -30.8688   15.4392 C   0  0  0  0  0  0  0  0  0  0  0  0
  -30.3086  -26.1968   18.9220 C   0  0  0  0  0  0  0  0  0  0  0  0
  -29.7733  -27.2964   19.8178 C   0  0  0  0  0  0  0  0  0  1  0  0
  -21.2115  -28.9296   19.3992 C   0  0  1  0  0  0  0  0  0  0  0  0
  -21.2719  -29.8473   15.7218 C   0  0  2  0  0  0  0  0  0  0  0  0
  -19.9679  -28.2377   20.0256 C   0  0  0  0  0  0  0  0  0  0  0  0
  -28.7076  -13.8261   20.0856 N   0  0  0  0  0  0  0  0  0  0  0  0
  -29.0652  -21.1102   14.5144 N   0  0  0  0  0  0  0  0  0  0  0  0
  -29.1344  -20.8870   16.9129 N   0  0  0  0  0  0  0  0  0  0  0  0
  -29.9272  -14.3899   20.1141 N   0  0  0  0  0  0  0  0  0  0  0  0
  -29.3135  -22.9591   15.8899 N   0  0  3  0  0  0  0  0  0  0  0  0
  -23.0563  -29.9274   20.7126 N   0  0  0  0  0  0  0  0  0  0  0  0
  -28.9995  -18.0937   20.1802 N   0  0  0  0  0  0  0  0  0  0  0  0
  -32.2334  -13.9167   19.8529 N   0  0  0  0  0  0  0  0  0  0  0  0
  -30.2642   -9.9093   19.1753 N   0  0  0  0  0  0  0  0  0  0  0  0
  -28.9454  -18.7362   17.9116 N   0  0  0  0  0  0  0  0  0  0  0  0
  -23.0866  -31.1432   24.0669 N   0  0  0  0  0  0  0  0  0  0  0  0
  -20.9756  -29.4994   18.0771 N   0  0  0  0  0  0  0  0  0  0  0  0
  -29.4429  -26.0775   17.7218 N   0  3  0  0  0  0  0  0  0  0  0  0
  -22.4370  -30.0792   14.8220 N   0  3  0  0  0  0  0  0  0  0  0  0
  -32.2782  -11.0017   19.2720 O   0  0  0  0  0  0  0  0  0  0  0  0
  -23.4645  -29.0279   23.1694 O   0  0  0  0  0  0  0  0  0  0  0  0
  -21.0051  -31.0168   20.5072 O   0  0  0  0  0  0  0  0  0  0  0  0
  -22.6154  -28.2817   16.9792 O   0  0  0  0  0  0  0  0  0  0  0  0
  -29.1779  -20.3215   19.5893 O   0  0  0  0  0  0  0  0  0  0  0  0
  -24.7965   -8.8555   19.3468 O   0  0  0  0  0  0  0  0  0  0  0  0
  -28.4486  -26.9696   20.2356 O   0  0  0  0  0  0  0  0  0  1  0  0
  -20.8361   -8.9658   23.1817 F   0  0  0  0  0  0  0  0  0  0  0  0
  -23.2681  -11.1249   19.7423 F   0  0  0  0  0  0  0  0  0  0  0  0
  1  2  1  0  0  0  0
  1  5  2  0  0  0  0
  2  6  2  0  0  0  0
  3  8  2  0  0  0  0
  3 16  1  0  0  0  0
  4  9  1  0  0  0  0
  4 16  2  0  0  0  0
  5 18  1  0  0  0  0
  6 20  1  0  0  0  0
  7 10  2  0  0  0  0
  7 19  1  0  0  0  0
  8 22  1  0  0  0  0
  9 22  2  0  0  0  0
 10 23  1  0  0  0  0
 11 12  2  0  0  0  0
 11 24  1  0  0  0  0
 12 25  1  0  0  0  0
 13 21  1  0  0  0  0
 13 23  2  0  0  0  0
 14 25  2  0  0  0  0
 14 26  1  0  0  0  0
 15 28  2  0  0  0  0
 15 29  1  0  0  0  0
 16 27  1  0  0  0  0
 17 27  1  0  0  0  0
 17 30  2  0  0  0  0
 17 32  1  0  0  0  0
 18 20  2  0  0  0  0
 18 37  1  0  0  0  0
 19 21  2  0  0  0  0
 19 38  1  0  0  0  0
 20 51  1  0  0  0  0
 21 39  1  0  0  0  0
 22 85  1  0  0  0  0
 23 86  1  0  0  0  0
 24 26  2  0  0  0  0
 24 85  1  0  0  0  0
 25 87  1  0  0  0  0
 26 88  1  0  0  0  0
 27 66  2  0  0  0  0
 28 52  1  0  0  0  0
 28 67  1  0  0  0  0
 29 68  2  0  0  0  0
 29 75  1  0  0  0  0
 30 69  1  0  0  0  0
 30 73  1  0  0  0  0
 31 67  2  0  0  0  0
 31 68  1  0  0  0  0
 31 70  1  0  0  0  0
 32 74  1  0  0  0  0
 32 80  2  0  0  0  0
 33 53  1  0  0  0  0
 33 76  1  0  0  0  0
 33 81  2  0  0  0  0
 34 63  1  0  0  0  0
 34 71  1  0  0  0  0
 34 82  2  0  0  0  0
 35 64  1  0  0  0  0
 35 77  1  0  0  0  0
 35 83  2  0  0  0  0
 36 72  1  0  0  0  0
 36 75  1  0  0  0  0
 36 84  2  0  0  0  0
 37 40  1  0  0  0  0
 38 53  1  0  0  0  0
 39 71  1  0  0  0  0
 40 42  1  0  0  0  0
 41 45  1  0  0  0  0
 41 47  1  0  0  0  0
 42 51  1  0  0  0  0
 43 44  1  0  0  0  0
 43 52  1  0  0  0  0
 44 52  1  0  0  0  0
 45 54  1  0  0  0  0
 46 48  1  0  0  0  0
 46 55  1  0  0  0  0
 47 72  1  0  0  0  0
 48 70  1  0  0  0  0
 49 54  1  0  0  0  0
 49 72  1  0  0  0  0
 50 55  1  0  0  0  0
 50 70  1  0  0  0  0
 51 76  1  0  0  0  0
 53 71  1  0  0  0  0
 54 69  1  0  0  0  0
 55 78  1  0  0  0  0
 56 64  1  0  0  0  0
 57 65  1  0  0  0  0
 58 65  1  0  0  0  0
 59 65  1  0  0  0  0
 60 79  1  0  0  0  0
 61 62  1  0  0  0  0
 61 78  1  0  0  0  0
 62 86  1  0  0  0  0
 63 65  1  0  0  0  0
 63 77  1  0  0  0  0
 64 79  1  0  0  0  0
 66 69  1  0  0  0  0
M  CHG  2  78   1  79   1
M  ISO  4  36 100  62 101  75 100  86 101
M  END
> <Batch ID>
0196

> <Smiles>
CNC(C)C(=O)NC(C(=O)N1Cc2cc([101O:1][101CH2:1]CNC3CCN(c4nc([100NH:0][100C:0](=O)N5CCCC(n6nc(-c7ccc(Oc8ccc(F)cc8F)cc7)c(C(N)=O)c6N)C5)cc(C5CC5)n4)C3)ccc2CC1C(=O)NC1CCCc2ccccc21)C(C)(C)C

> <Shape>
0.266

> <Color>
0.101

> <Negative vol penalty>
0.000

$$$$

  -OEChem-04052323393D

 82 91  0     1  0  0  0  0  0999 V2000
  -28.3076  -37.0011   21.1748 C   0  0  0  0  0  0  0  0  0  0  0  0
  -28.6824  -35.7141   20.8026 C   0  0  0  0  0  0  0  0  0  0  0  0
  -24.5481   -9.5676   22.2593 C   0  0  0  0  0  0  0  0  0  0  0  0
  -23.7120   -9.9847   20.0312 C   0  0  0  0  0  0  0  0  0  0  0  0
  -27.3896  -37.1873   22.2075 C   0  0  0  0  0  0  0  0  0  0  0  0
  -28.1402  -34.6126   21.4637 C   0  0  0  0  0  0  0  0  0  0  0  0
  -26.7869  -29.1580   19.0302 C   0  0  0  0  0  0  0  0  0  0  0  0
  -23.3983   -8.8347   22.5535 C   0  0  0  0  0  0  0  0  0  0  0  0
  -22.5623   -9.2517   20.3254 C   0  0  0  0  0  0  0  0  0  0  0  0
  -27.4698  -27.9426   19.0142 C   0  0  0  0  0  0  0  0  0  0  0  0
  -22.1949   -5.7352   21.9390 C   0  0  0  0  0  0  0  0  0  0  0  0
  -22.3543   -4.5152   22.5961 C   0  0  0  0  0  0  0  0  0  0  0  0
  -26.1906  -27.2055   20.9219 C   0  0  0  0  0  0  0  0  0  0  0  0
  -21.0069   -5.3269   24.4299 C   0  0  0  0  0  0  0  0  0  0  0  0
  -30.7384  -22.7875   19.6021 C   0  0  0  0  0  0  0  0  0  0  0  0
  -24.7049  -10.1427   20.9981 C   0  0  0  0  0  0  0  0  0  0  0  0
  -27.0958  -10.4127   20.1506 C   0  0  0  0  0  0  0  0  0  0  0  0
  -26.8285  -36.0873   22.8751 C   0  0  0  0  0  0  0  0  0  0  0  0
  -25.8067  -29.4109   20.0006 C   0  0  0  0  0  0  0  0  0  0  0  0
  -27.2149  -34.7843   22.5072 C   0  0  0  0  0  0  0  0  0  0  0  0
  -25.4949  -28.4239   20.9465 C   0  0  0  0  0  0  0  0  0  0  0  0
  -22.4055   -8.6767   21.5866 C   0  0  0  0  0  0  0  0  0  0  0  0
  -27.1737  -26.9672   19.9618 C   0  0  0  0  0  0  0  0  0  0  0  0
  -21.4415   -6.7511   22.5273 C   0  0  0  0  0  0  0  0  0  0  0  0
  -21.7603   -4.3111   23.8416 C   0  0  0  0  0  0  0  0  0  0  0  0
  -20.8475   -6.5469   23.7727 C   0  0  0  0  0  0  0  0  0  0  0  0
  -25.8921  -10.9003   20.6938 C   0  0  0  0  0  0  0  0  0  0  0  0
  -29.5823  -22.2208   19.0475 C   0  0  0  0  0  0  0  0  0  0  0  0
  -27.9025  -11.5201   20.0543 C   0  0  0  0  0  0  0  0  0  0  0  0
  -27.4528   -9.0780   19.7673 C   0  0  0  0  0  0  0  0  0  0  0  0
  -25.4603  -31.5369   22.3381 C   0  0  0  0  0  0  0  0  0  0  0  0
  -22.5316  -30.1707   22.6185 C   0  0  0  0  0  0  0  0  0  0  0  0
  -20.5460  -27.4428   22.1059 C   0  0  0  0  0  0  0  0  0  0  0  0
  -28.8459  -16.6510   18.7785 C   0  0  0  0  0  0  0  0  0  0  0  0
  -25.8759  -36.3396   24.0169 C   0  0  0  0  0  0  0  0  0  0  0  0
  -25.0604  -30.7167   19.9879 C   0  0  0  0  0  0  0  0  0  0  0  0
  -24.4368  -28.6382   21.9968 C   0  0  0  0  0  0  0  0  0  0  0  0
  -25.0644  -35.1099   24.4161 C   0  0  0  0  0  0  0  0  0  0  0  0
  -27.3516  -16.1806   21.9226 C   0  0  0  0  0  0  0  0  0  0  0  0
  -25.9690  -33.8869   24.5291 C   0  0  0  0  0  0  0  0  0  0  0  0
  -26.9295  -14.7139   21.8419 C   0  0  0  0  0  0  0  0  0  0  0  0
  -27.1106  -16.9195   20.6053 C   0  0  0  0  0  0  0  0  0  0  0  0
  -30.4910  -19.9326   19.3048 C   0  0  0  0  0  0  0  0  0  0  0  0
  -28.0494  -20.3057   18.9238 C   0  0  0  0  0  0  0  0  0  0  0  0
  -30.3743  -18.5794   18.6082 C   0  0  0  0  0  0  0  0  0  0  0  0
  -27.9786  -18.9532   18.2236 C   0  0  0  0  0  0  0  0  0  0  0  0
  -27.3030  -14.7983   19.3478 C   0  0  0  0  0  0  0  0  0  0  0  0
  -26.6300  -33.5635   23.1838 C   0  0  1  0  0  0  0  0  0  0  0  0
  -24.4425  -31.0649   21.3386 C   0  0  1  0  0  0  0  0  0  0  0  0
  -27.5876  -14.0151   20.6389 C   0  0  2  0  0  0  0  0  0  0  0  0
  -18.2072  -26.6114   22.4747 C   0  0  0  0  0  0  0  0  0  0  0  0
  -23.1528  -29.7420   25.5749 C   0  0  0  0  0  0  0  0  0  0  0  0
  -21.2577  -28.1083   25.6646 C   0  0  0  0  0  0  0  0  0  0  0  0
  -20.8167  -30.4974   25.0987 C   0  0  0  0  0  0  0  0  0  0  0  0
  -20.0880  -27.0946   19.2028 C   0  0  0  0  0  0  0  0  0  0  0  0
  -28.8323  -25.5943   18.9363 C   0  0  0  0  0  0  0  0  0  1  0  0
  -21.9626  -29.0131   23.4028 C   0  0  1  0  0  0  0  0  0  0  0  0
  -19.1563  -27.3061   21.5106 C   0  0  2  0  0  0  0  0  0  0  0  0
  -21.8188  -29.3366   24.9168 C   0  0  0  0  0  0  0  0  0  0  0  0
  -30.6197  -24.1177   19.6356 N   0  0  0  0  0  0  0  0  0  0  0  0
  -25.9266  -12.2151   20.9264 N   0  0  0  0  0  0  0  0  0  0  0  0
  -28.7159  -23.1848   18.7238 N   0  0  0  0  0  0  0  0  0  0  0  0
  -27.1619  -12.5631   20.5276 N   0  0  0  0  0  0  0  0  0  0  0  0
  -29.3987  -24.2779   19.1003 N   0  0  0  0  0  0  0  0  0  0  0  0
  -29.4178  -20.8395   18.8836 N   0  0  0  0  0  0  0  0  0  0  0  0
  -23.7393  -29.9337   21.9469 N   0  0  0  0  0  0  0  0  0  0  0  0
  -27.7214  -16.1952   19.4827 N   0  0  0  0  0  0  0  0  0  0  0  0
  -29.0222  -18.0412   18.6964 N   0  0  0  0  0  0  0  0  0  0  0  0
  -29.1661  -11.6938   19.6119 N   0  0  0  0  0  0  0  0  0  0  0  0
  -26.5048   -8.0591   19.9331 N   0  0  0  0  0  0  0  0  0  0  0  0
  -25.6908  -32.8990   22.3059 N   0  0  0  0  0  0  0  0  0  0  0  0
  -20.7101  -28.6523   22.7473 N   0  0  0  0  0  0  0  0  0  0  0  0
  -19.2086  -26.5134   20.2497 N   0  3  0  0  0  0  0  0  0  0  0  0
  -28.5848   -8.7945   19.3072 O   0  0  0  0  0  0  0  0  0  0  0  0
  -25.9957  -30.7255   23.0842 O   0  0  0  0  0  0  0  0  0  0  0  0
  -21.9231  -31.2436   22.5966 O   0  0  0  0  0  0  0  0  0  0  0  0
  -21.3994  -26.5630   22.0145 O   0  0  0  0  0  0  0  0  0  0  0  0
  -29.6469  -15.8655   18.2568 O   0  0  0  0  0  0  0  0  0  0  0  0
  -21.2836   -7.9614   21.8732 O   0  0  0  0  0  0  0  0  0  0  0  0
  -27.8435  -25.7726   19.9488 O   0  0  0  0  0  0  0  0  0  1  0  0
  -21.9122   -3.1389   24.4718 F   0  0  0  0  0  0  0  0  0  0  0  0
  -20.1216   -7.5187   24.3424 F   0  0  0  0  0  0  0  0  0  0  0  0
  1  2  1  0  0  0  0
  1  5  2  0  0  0  0
  2  6  2  0  0  0  0
  3  8  2  0  0  0  0
  3 16  1  0  0  0  0
  4  9  1  0  0  0  0
  4 16  2  0  0  0  0
  5 18  1  0  0  0  0
  6 20  1  0  0  0  0
  7 10  2  0  0  0  0
  7 19  1  0  0  0  0
  8 22  1  0  0  0  0
  9 22  2  0  0  0  0
 10 23  1  0  0  0  0
 11 12  2  0  0  0  0
 11 24  1  0  0  0  0
 12 25  1  0  0  0  0
 13 21  1  0  0  0  0
 13 23  2  0  0  0  0
 14 25  2  0  0  0  0
 14 26  1  0  0  0  0
 15 28  1  0  0  0  0
 15 60  2  0  0  0  0
 16 27  1  0  0  0  0
 17 27  1  0  0  0  0
 17 29  2  0  0  0  0
 17 30  1  0  0  0  0
 18 20  2  0  0  0  0
 18 35  1  0  0  0  0
 19 21  2  0  0  0  0
 19 36  1  0  0  0  0
 20 48  1  0  0  0  0
 21 37  1  0  0  0  0
 22 79  1  0  0  0  0
 23 80  1  0  0  0  0
 24 26  2  0  0  0  0
 24 79  1  0  0  0  0
 25 81  1  0  0  0  0
 26 82  1  0  0  0  0
 27 61  2  0  0  0  0
 28 62  2  0  0  0  0
 28 65  1  0  0  0  0
 29 63  1  0  0  0  0
 29 69  1  0  0  0  0
 30 70  1  0  0  0  0
 30 74  2  0  0  0  0
 31 49  1  0  0  0  0
 31 71  1  0  0  0  0
 31 75  2  0  0  0  0
 32 57  1  0  0  0  0
 32 66  1  0  0  0  0
 32 76  2  0  0  0  0
 33 58  1  0  0  0  0
 33 72  1  0  0  0  0
 33 77  2  0  0  0  0
 34 67  1  0  0  0  0
 34 68  1  0  0  0  0
 34 78  2  0  0  0  0
 35 38  1  0  0  0  0
 36 49  1  0  0  0  0
 37 66  1  0  0  0  0
 38 40  1  0  0  0  0
 39 41  1  0  0  0  0
 39 42  1  0  0  0  0
 40 48  1  0  0  0  0
 41 50  1  0  0  0  0
 42 67  1  0  0  0  0
 43 45  1  0  0  0  0
 43 65  1  0  0  0  0
 44 46  1  0  0  0  0
 44 65  1  0  0  0  0
 45 68  1  0  0  0  0
 46 68  1  0  0  0  0
 47 50  1  0  0  0  0
 47 67  1  0  0  0  0
 48 71  1  0  0  0  0
 49 66  1  0  0  0  0
 50 63  1  0  0  0  0
 51 58  1  0  0  0  0
 52 59  1  0  0  0  0
 53 59  1  0  0  0  0
 54 59  1  0  0  0  0
 55 73  1  0  0  0  0
 56 64  1  0  0  0  0
 56 80  1  0  0  0  0
 57 59  1  0  0  0  0
 57 72  1  0  0  0  0
 58 73  1  0  0  0  0
 60 64  1  0  0  0  0
 61 63  1  0  0  0  0
 62 64  1  0  0  0  0
M  CHG  1  73   1
M  ISO  4  34 100  56 101  68 100  80 101
M  END
> <Batch ID>
0196

> <Smiles>
CNC(C)C(=O)NC(C(=O)N1Cc2cc([101O:1][101CH2:1]n3ncc(N4CC[100N:0]([100C:0](=O)N5CCCC(n6nc(-c7ccc(Oc8ccc(F)cc8F)cc7)c(C(N)=O)c6N)C5)CC4)n3)ccc2CC1C(=O)NC1CCCc2ccccc21)C(C)(C)C

> <Shape>
0.361

> <Color>
0.117

> <Negative vol penalty>
0.000

$$$$

  -OEChem-04052323393D

 79 87  0     1  0  0  0  0  0999 V2000
  -29.0930  -11.5607   19.4506 C   0  0  0  0  0  0  0  0  0  0  0  0
  -29.1270  -12.9337   19.2289 C   0  0  0  0  0  0  0  0  0  0  0  0
  -24.0385  -26.1984   21.7995 C   0  0  0  0  0  0  0  0  0  0  0  0
  -23.1419  -28.3742   21.2525 C   0  0  0  0  0  0  0  0  0  0  0  0
  -27.9020  -10.9475   19.8371 C   0  0  0  0  0  0  0  0  0  0  0  0
  -27.9697  -13.6941   19.3923 C   0  0  0  0  0  0  0  0  0  0  0  0
  -28.8096  -17.9863   21.9450 C   0  0  0  0  0  0  0  0  0  0  0  0
  -22.9149  -25.9321   22.5819 C   0  0  0  0  0  0  0  0  0  0  0  0
  -22.0183  -28.1079   22.0349 C   0  0  0  0  0  0  0  0  0  0  0  0
  -29.3942  -19.0401   21.2439 C   0  0  0  0  0  0  0  0  0  0  0  0
  -18.7454  -27.8591   23.5983 C   0  0  0  0  0  0  0  0  0  0  0  0
  -17.4952  -28.1815   23.0702 C   0  0  0  0  0  0  0  0  0  0  0  0
  -27.2238  -20.0585   20.9766 C   0  0  0  0  0  0  0  0  0  0  0  0
  -17.8895  -26.6792   21.2196 C   0  0  0  0  0  0  0  0  0  0  0  0
  -24.1520  -27.4195   21.1348 C   0  0  0  0  0  0  0  0  0  0  0  0
  -25.4796  -27.4198   18.9564 C   0  0  0  0  0  0  0  0  0  0  0  0
  -26.7318  -11.7022   20.0147 C   0  0  0  0  0  0  0  0  0  0  0  0
  -27.4239  -17.9552   22.1581 C   0  0  0  0  0  0  0  0  0  0  0  0
  -26.7615  -13.0901   19.7802 C   0  0  0  0  0  0  0  0  0  0  0  0
  -26.6243  -19.0045   21.6830 C   0  0  0  0  0  0  0  0  0  0  0  0
  -21.9048  -26.8868   22.6996 C   0  0  0  0  0  0  0  0  0  0  0  0
  -28.6009  -20.0749   20.7571 C   0  0  0  0  0  0  0  0  0  0  0  0
  -19.5676  -26.9469   22.9369 C   0  0  0  0  0  0  0  0  0  0  0  0
  -17.0673  -27.5915   21.8809 C   0  0  0  0  0  0  0  0  0  0  0  0
  -19.1397  -26.3569   21.7476 C   0  0  0  0  0  0  0  0  0  0  0  0
  -25.3127  -27.6954   20.3268 C   0  0  0  0  0  0  0  0  0  0  0  0
  -26.7448  -27.8694   18.6673 C   0  0  0  0  0  0  0  0  0  0  0  0
  -24.5720  -26.8119   18.0277 C   0  0  0  0  0  0  0  0  0  0  0  0
  -25.0691  -15.9916   21.3197 C   0  0  0  0  0  0  0  0  0  0  0  0
  -23.3016  -17.9211   23.2368 C   0  0  0  0  0  0  0  0  0  0  0  0
  -22.9102  -20.9793   24.7001 C   0  0  0  0  0  0  0  0  0  0  0  0
  -32.1480  -28.2901   19.9785 C   0  0  0  0  0  0  0  0  0  0  0  0
  -25.4568  -10.9878   20.3874 C   0  0  0  0  0  0  0  0  0  0  0  0
  -26.8121  -16.8249   22.9395 C   0  0  0  0  0  0  0  0  0  0  0  0
  -25.1345  -19.0284   21.9026 C   0  0  0  0  0  0  0  0  0  0  0  0
  -24.3640  -11.9209   20.9024 C   0  0  0  0  0  0  0  0  0  0  0  0
  -29.9476  -30.6894   21.3492 C   0  0  0  0  0  0  0  0  0  0  0  0
  -24.2324  -13.1405   19.9956 C   0  0  0  0  0  0  0  0  0  0  0  0
  -28.5588  -30.0961   21.1289 C   0  0  0  0  0  0  0  0  0  0  0  0
  -33.0224  -25.6535   17.5327 C   0  0  0  0  0  0  0  0  0  0  0  0
  -30.9522  -29.5993   21.6976 C   0  0  0  0  0  0  0  0  0  0  0  0
  -33.3638  -26.9065   18.3239 C   0  0  0  0  0  0  0  0  0  0  0  0
  -31.1668  -26.1598   18.9365 C   0  0  0  0  0  0  0  0  0  0  0  0
  -29.6681  -27.9209   20.4000 C   0  0  0  0  0  0  0  0  0  0  0  0
  -25.5328  -13.9526   19.9712 C   0  0  1  0  0  0  0  0  0  0  0  0
  -25.3256  -16.6360   22.6526 C   0  0  1  0  0  0  0  0  0  0  0  0
  -31.9770  -24.9723   18.4168 C   0  0  1  0  0  0  0  0  0  0  0  0
  -28.6058  -28.9883   20.0651 C   0  0  1  0  0  0  0  0  0  0  0  0
  -21.3479  -22.2690   26.1811 C   0  0  0  0  0  0  0  0  0  0  0  0
  -21.3805  -18.2800   20.8936 C   0  0  0  0  0  0  0  0  0  0  0  0
  -20.4133  -20.2610   22.0803 C   0  0  0  0  0  0  0  0  0  0  0  0
  -20.2721  -17.9967   23.1174 C   0  0  0  0  0  0  0  0  0  0  0  0
  -24.9927  -21.3501   26.7700 C   0  0  0  0  0  0  0  0  0  0  0  0
  -31.1377  -23.9492   17.6726 C   0  0  0  0  0  0  0  0  0  0  0  0
  -29.2630  -22.3319   18.0020 C   0  0  0  0  0  0  0  0  0  0  0  0
  -28.3714  -21.7423   19.0769 C   0  0  0  0  0  0  0  0  0  1  0  0
  -22.5018  -19.1856   23.0357 C   0  0  1  0  0  0  0  0  0  0  0  0
  -22.5794  -21.3783   26.1269 C   0  0  2  0  0  0  0  0  0  0  0  0
  -21.1697  -18.9297   22.2758 C   0  0  0  0  0  0  0  0  0  0  0  0
  -26.3862  -28.2750   20.8706 N   0  0  0  0  0  0  0  0  0  0  0  0
  -27.2397  -28.3672   19.8367 N   0  0  0  0  0  0  0  0  0  0  0  0
  -24.5825  -17.8976   22.6670 N   0  0  0  0  0  0  0  0  0  0  0  0
  -30.9699  -28.5347   20.6926 N   0  0  0  0  0  0  0  0  0  0  0  0
  -32.1494  -27.2393   19.0620 N   0  0  0  0  0  0  0  0  0  0  0  0
  -27.4711  -27.8835   17.5295 N   0  0  0  0  0  0  0  0  0  0  0  0
  -23.3123  -26.4086   18.4913 N   0  0  0  0  0  0  0  0  0  0  0  0
  -25.6545  -14.7484   21.1739 N   0  0  0  0  0  0  0  0  0  0  0  0
  -22.3310  -19.7754   24.3591 N   0  0  0  0  0  0  0  0  0  0  0  0
  -23.7211  -22.1174   26.7361 N   0  3  0  0  0  0  0  0  0  0  0  0
  -30.1902  -23.3208   18.6201 N   0  3  0  0  0  0  0  0  0  0  0  0
  -24.8754  -26.6168   16.8263 O   0  0  0  0  0  0  0  0  0  0  0  0
  -24.3891  -16.5781   20.4859 O   0  0  0  0  0  0  0  0  0  0  0  0
  -22.8109  -16.9913   23.8820 O   0  0  0  0  0  0  0  0  0  0  0  0
  -23.6093  -21.6686   23.9607 O   0  0  0  0  0  0  0  0  0  0  0  0
  -33.1724  -28.9560   20.1809 O   0  0  0  0  0  0  0  0  0  0  0  0
  -20.8082  -26.6272   23.4629 O   0  0  0  0  0  0  0  0  0  0  0  0
  -29.1730  -21.1117   20.0670 O   0  0  0  0  0  0  0  0  0  1  0  0
  -15.8661  -27.9000   21.3747 F   0  0  0  0  0  0  0  0  0  0  0  0
  -19.9248  -25.4788   21.1084 F   0  0  0  0  0  0  0  0  0  0  0  0
  1  2  1  0  0  0  0
  1  5  2  0  0  0  0
  2  6  2  0  0  0  0
  3  8  2  0  0  0  0
  3 15  1  0  0  0  0
  4  9  1  0  0  0  0
  4 15  2  0  0  0  0
  5 17  1  0  0  0  0
  6 19  1  0  0  0  0
  7 10  2  0  0  0  0
  7 18  1  0  0  0  0
  8 21  1  0  0  0  0
  9 21  2  0  0  0  0
 10 22  1  0  0  0  0
 11 12  2  0  0  0  0
 11 23  1  0  0  0  0
 12 24  1  0  0  0  0
 13 20  1  0  0  0  0
 13 22  2  0  0  0  0
 14 24  2  0  0  0  0
 14 25  1  0  0  0  0
 15 26  1  0  0  0  0
 16 26  1  0  0  0  0
 16 27  2  0  0  0  0
 16 28  1  0  0  0  0
 17 19  2  0  0  0  0
 17 33  1  0  0  0  0
 18 20  2  0  0  0  0
 18 34  1  0  0  0  0
 19 45  1  0  0  0  0
 20 35  1  0  0  0  0
 21 76  1  0  0  0  0
 22 77  1  0  0  0  0
 23 25  2  0  0  0  0
 23 76  1  0  0  0  0
 24 78  1  0  0  0  0
 25 79  1  0  0  0  0
 26 60  2  0  0  0  0
 27 61  1  0  0  0  0
 27 65  1  0  0  0  0
 28 66  1  0  0  0  0
 28 71  2  0  0  0  0
 29 46  1  0  0  0  0
 29 67  1  0  0  0  0
 29 72  2  0  0  0  0
 30 57  1  0  0  0  0
 30 62  1  0  0  0  0
 30 73  2  0  0  0  0
 31 58  1  0  0  0  0
 31 68  1  0  0  0  0
 31 74  2  0  0  0  0
 32 63  1  0  0  0  0
 32 64  1  0  0  0  0
 32 75  2  0  0  0  0
 33 36  1  0  0  0  0
 34 46  1  0  0  0  0
 35 62  1  0  0  0  0
 36 38  1  0  0  0  0
 37 39  1  0  0  0  0
 37 41  1  0  0  0  0
 38 45  1  0  0  0  0
 39 48  1  0  0  0  0
 40 42  1  0  0  0  0
 40 47  1  0  0  0  0
 41 63  1  0  0  0  0
 42 64  1  0  0  0  0
 43 47  1  0  0  0  0
 43 64  1  0  0  0  0
 44 48  1  0  0  0  0
 44 63  1  0  0  0  0
 45 67  1  0  0  0  0
 46 62  1  0  0  0  0
 47 54  1  0  0  0  0
 48 61  1  0  0  0  0
 49 58  1  0  0  0  0
 50 59  1  0  0  0  0
 51 59  1  0  0  0  0
 52 59  1  0  0  0  0
 53 69  1  0  0  0  0
 54 70  1  0  0  0  0
 55 56  1  0  0  0  0
 55 70  1  0  0  0  0
 56 77  1  0  0  0  0
 57 59  1  0  0  0  0
 57 68  1  0  0  0  0
 58 69  1  0  0  0  0
 60 61  1  0  0  0  0
M  CHG  2  69   1  70   1
M  ISO  4  32 100  56 101  64 100  77 101
M  END
> <Batch ID>
0196

> <Smiles>
CNC(C)C(=O)NC(C(=O)N1Cc2cc([101O:1][101CH2:1]CNCC3CC[100N:0]([100C:0](=O)N4CCCC(n5nc(-c6ccc(Oc7ccc(F)cc7F)cc6)c(C(N)=O)c5N)C4)C3)ccc2CC1C(=O)NC1CCCc2ccccc21)C(C)(C)C

> <Shape>
0.230

> <Color>
0.059

> <Negative vol penalty>
0.000

$$$$

  -OEChem-04052323393D

 84 93  0     1  0  0  0  0  0999 V2000
  -27.8036  -18.2439   17.9535 C   0  0  0  0  0  0  0  0  0  0  0  0
  -26.7451  -19.1255   17.7593 C   0  0  0  0  0  0  0  0  0  0  0  0
  -25.3347  -13.6408   23.1079 C   0  0  0  0  0  0  0  0  0  0  0  0
  -26.1258  -14.6026   21.0377 C   0  0  0  0  0  0  0  0  0  0  0  0
  -28.7166  -18.4688   18.9830 C   0  0  0  0  0  0  0  0  0  0  0  0
  -26.5983  -20.2320   18.5951 C   0  0  0  0  0  0  0  0  0  0  0  0
  -24.3159  -27.0217   18.5202 C   0  0  0  0  0  0  0  0  0  0  0  0
  -25.3020  -12.3809   22.5102 C   0  0  0  0  0  0  0  0  0  0  0  0
  -26.0932  -13.3428   20.4399 C   0  0  0  0  0  0  0  0  0  0  0  0
  -23.4525  -27.8754   19.2055 C   0  0  0  0  0  0  0  0  0  0  0  0
  -24.6676   -8.9691   21.4237 C   0  0  0  0  0  0  0  0  0  0  0  0
  -23.5429   -8.1741   21.6438 C   0  0  0  0  0  0  0  0  0  0  0  0
  -25.1359  -28.2066   20.9013 C   0  0  0  0  0  0  0  0  0  0  0  0
  -22.1470   -9.8706   20.6386 C   0  0  0  0  0  0  0  0  0  0  0  0
  -18.5023  -28.0420   22.7474 C   0  0  0  0  0  0  0  0  0  0  0  0
  -25.7465  -14.7517   22.3717 C   0  0  0  0  0  0  0  0  0  0  0  0
  -26.8594  -16.6418   23.6742 C   0  0  0  0  0  0  0  0  0  0  0  0
  -28.5865  -19.5838   19.8258 C   0  0  0  0  0  0  0  0  0  0  0  0
  -25.5938  -26.7450   19.0268 C   0  0  0  0  0  0  0  0  0  0  0  0
  -27.5097  -20.4712   19.6377 C   0  0  0  0  0  0  0  0  0  0  0  0
  -26.0144  -27.3510   20.2192 C   0  0  0  0  0  0  0  0  0  0  0  0
  -25.6813  -12.2319   21.1761 C   0  0  0  0  0  0  0  0  0  0  0  0
  -23.8614  -28.4657   20.3977 C   0  0  0  0  0  0  0  0  0  0  0  0
  -24.5321  -10.2149   20.8111 C   0  0  0  0  0  0  0  0  0  0  0  0
  -22.2826   -8.6248   21.2512 C   0  0  0  0  0  0  0  0  0  0  0  0
  -23.2718  -10.6657   20.4185 C   0  0  0  0  0  0  0  0  0  0  0  0
  -19.4072  -29.0328   23.0697 C   0  0  0  0  0  0  0  0  0  0  0  0
  -25.7799  -16.0534   22.9885 C   0  0  0  0  0  0  0  0  0  0  0  0
  -20.7307  -28.7393   22.8122 C   0  0  0  0  0  0  0  0  0  0  0  0
  -26.3888  -17.8716   24.0647 C   0  0  0  0  0  0  0  0  0  0  0  0
  -20.1720  -26.6869   22.0105 C   0  0  0  0  0  0  0  0  0  0  0  0
  -28.1704  -16.1231   23.9347 C   0  0  0  0  0  0  0  0  0  0  0  0
  -27.0960  -24.1236   20.0143 C   0  0  0  0  0  0  0  0  0  0  0  0
  -29.6383  -26.1280   20.2180 C   0  0  0  0  0  0  0  0  0  0  0  0
  -30.7888  -29.3228   20.5589 C   0  0  0  0  0  0  0  0  0  0  0  0
  -22.1950  -21.3712   21.8242 C   0  0  0  0  0  0  0  0  0  0  0  0
  -29.5711  -19.7593   20.9547 C   0  0  0  0  0  0  0  0  0  0  0  0
  -26.5230  -25.8429   18.2618 C   0  0  0  0  0  0  0  0  0  0  0  0
  -27.3838  -27.1025   20.7950 C   0  0  0  0  0  0  0  0  0  0  0  0
  -29.5593  -21.1602   21.5610 C   0  0  0  0  0  0  0  0  0  0  0  0
  -22.3332  -20.1342   25.2225 C   0  0  0  0  0  0  0  0  0  0  0  0
  -28.1272  -21.6192   21.8163 C   0  0  0  0  0  0  0  0  0  0  0  0
  -23.3455  -18.9950   25.0905 C   0  0  0  0  0  0  0  0  0  0  0  0
  -21.4362  -20.2220   23.9913 C   0  0  0  0  0  0  0  0  0  0  0  0
  -23.1832  -19.2236   22.5683 C   0  0  0  0  0  0  0  0  0  0  0  0
  -21.8070  -24.8036   21.6779 C   0  0  0  0  0  0  0  0  0  0  0  0
  -19.7926  -24.2805   21.3812 C   0  0  0  0  0  0  0  0  0  0  0  0
  -27.3310  -21.6963   20.5080 C   0  0  1  0  0  0  0  0  0  0  0  0
  -27.6119  -25.2275   19.1352 C   0  0  1  0  0  0  0  0  0  0  0  0
  -24.1348  -19.0966   23.7718 C   0  0  2  0  0  0  0  0  0  0  0  0
  -21.1133  -23.5175   21.2072 C   0  0  0  0  0  0  0  0  0  0  0  0
  -32.9163  -30.6427   20.7300 C   0  0  0  0  0  0  0  0  0  0  0  0
  -29.9767  -25.2035   23.1060 C   0  0  0  0  0  0  0  0  0  0  0  0
  -31.4506  -27.1895   23.4957 C   0  0  0  0  0  0  0  0  0  0  0  0
  -32.1149  -25.4526   21.8331 C   0  0  0  0  0  0  0  0  0  0  0  0
  -30.1723  -30.8548   18.1029 C   0  0  0  0  0  0  0  0  0  0  0  0
  -21.8206  -29.7377   23.1183 C   0  0  0  0  0  0  0  0  0  0  0  0
  -23.1545  -29.3512   22.4887 C   0  0  0  0  0  0  0  0  0  1  0  0
  -30.2102  -27.0239   21.2901 C   0  0  1  0  0  0  0  0  0  0  0  0
  -31.8465  -30.0994   19.7956 C   0  0  2  0  0  0  0  0  0  0  0  0
  -30.9115  -26.2207   22.4216 C   0  0  0  0  0  0  0  0  0  0  0  0
  -18.8512  -26.8527   22.2144 N   0  0  0  0  0  0  0  0  0  0  0  0
  -24.7044  -16.8443   22.9444 N   0  0  0  0  0  0  0  0  0  0  0  0
  -21.1502  -27.5720   22.2814 N   0  0  0  0  0  0  0  0  0  0  0  0
  -25.1058  -17.9422   23.6074 N   0  0  0  0  0  0  0  0  0  0  0  0
  -20.5743  -25.4532   21.4539 N   0  0  0  0  0  0  0  0  0  0  0  0
  -28.2536  -26.2081   20.0133 N   0  0  0  0  0  0  0  0  0  0  0  0
  -22.2488  -20.3357   22.7719 N   0  0  0  0  0  0  0  0  0  0  0  0
  -26.9514  -18.8886   24.7514 N   0  0  0  0  0  0  0  0  0  0  0  0
  -28.4884  -14.8425   23.4621 N   0  0  0  0  0  0  0  0  0  0  0  0
  -27.6792  -22.8941   19.7742 N   0  0  0  0  0  0  0  0  0  0  0  0
  -31.0789  -27.9756   20.6061 N   0  0  0  0  0  0  0  0  0  0  0  0
  -21.2790  -22.3823   22.0876 N   0  0  0  0  0  0  0  0  0  0  0  0
  -31.2267  -31.2462   19.0734 N   0  3  0  0  0  0  0  0  0  0  0  0
  -29.0289  -16.7692   24.5820 O   0  0  0  0  0  0  0  0  0  0  0  0
  -26.2338  -24.3694   20.8497 O   0  0  0  0  0  0  0  0  0  0  0  0
  -30.3935  -25.3897   19.5806 O   0  0  0  0  0  0  0  0  0  0  0  0
  -29.8056  -29.8583   21.0661 O   0  0  0  0  0  0  0  0  0  0  0  0
  -22.9143  -21.3959   20.8197 O   0  0  0  0  0  0  0  0  0  0  0  0
  -25.6498  -11.0027   20.5926 O   0  0  0  0  0  0  0  0  0  0  0  0
  -23.0205  -29.2989   21.0690 O   0  0  0  0  0  0  0  0  0  1  0  0
  -21.2028   -7.8606   21.4612 F   0  0  0  0  0  0  0  0  0  0  0  0
  -23.1355  -11.8611   19.8285 F   0  0  0  0  0  0  0  0  0  0  0  0
  -18.8806  -30.5171   23.7450 Cl  0  0  0  0  0  0  0  0  0  0  0  0
  1  2  1  0  0  0  0
  1  5  2  0  0  0  0
  2  6  2  0  0  0  0
  3  8  2  0  0  0  0
  3 16  1  0  0  0  0
  4  9  1  0  0  0  0
  4 16  2  0  0  0  0
  5 18  1  0  0  0  0
  6 20  1  0  0  0  0
  7 10  2  0  0  0  0
  7 19  1  0  0  0  0
  8 22  1  0  0  0  0
  9 22  2  0  0  0  0
 10 23  1  0  0  0  0
 11 12  2  0  0  0  0
 11 24  1  0  0  0  0
 12 25  1  0  0  0  0
 13 21  1  0  0  0  0
 13 23  2  0  0  0  0
 14 25  2  0  0  0  0
 14 26  1  0  0  0  0
 15 27  1  0  0  0  0
 15 62  2  0  0  0  0
 16 28  1  0  0  0  0
 17 28  1  0  0  0  0
 17 30  2  0  0  0  0
 17 32  1  0  0  0  0
 18 20  2  0  0  0  0
 18 37  1  0  0  0  0
 19 21  2  0  0  0  0
 19 38  1  0  0  0  0
 20 48  1  0  0  0  0
 21 39  1  0  0  0  0
 22 80  1  0  0  0  0
 23 81  1  0  0  0  0
 24 26  2  0  0  0  0
 24 80  1  0  0  0  0
 25 82  1  0  0  0  0
 26 83  1  0  0  0  0
 27 29  2  0  0  0  0
 27 84  1  0  0  0  0
 28 63  2  0  0  0  0
 29 57  1  0  0  0  0
 29 64  1  0  0  0  0
 30 65  1  0  0  0  0
 30 69  1  0  0  0  0
 31 62  1  0  0  0  0
 31 64  2  0  0  0  0
 31 66  1  0  0  0  0
 32 70  1  0  0  0  0
 32 75  2  0  0  0  0
 33 49  1  0  0  0  0
 33 71  1  0  0  0  0
 33 76  2  0  0  0  0
 34 59  1  0  0  0  0
 34 67  1  0  0  0  0
 34 77  2  0  0  0  0
 35 60  1  0  0  0  0
 35 72  1  0  0  0  0
 35 78  2  0  0  0  0
 36 68  1  0  0  0  0
 36 73  1  0  0  0  0
 36 79  2  0  0  0  0
 37 40  1  0  0  0  0
 38 49  1  0  0  0  0
 39 67  1  0  0  0  0
 40 42  1  0  0  0  0
 41 43  1  0  0  0  0
 41 44  1  0  0  0  0
 42 48  1  0  0  0  0
 43 50  1  0  0  0  0
 44 68  1  0  0  0  0
 45 50  1  0  0  0  0
 45 68  1  0  0  0  0
 46 51  1  0  0  0  0
 46 66  1  0  0  0  0
 47 51  1  0  0  0  0
 47 66  1  0  0  0  0
 48 71  1  0  0  0  0
 49 67  1  0  0  0  0
 50 65  1  0  0  0  0
 51 73  1  0  0  0  0
 52 60  1  0  0  0  0
 53 61  1  0  0  0  0
 54 61  1  0  0  0  0
 55 61  1  0  0  0  0
 56 74  1  0  0  0  0
 57 58  1  0  0  0  0
 58 81  1  0  0  0  0
 59 61  1  0  0  0  0
 59 72  1  0  0  0  0
 60 74  1  0  0  0  0
 63 65  1  0  0  0  0
M  CHG  1  74   1
M  ISO  4  36 100  58 101  73 100  81 101
M  END
> <Batch ID>
0196

> <Smiles>
CNC(C)C(=O)NC(C(=O)N1Cc2cc([101O:1][101CH2:1]Cc3nc(N4CC([100NH:0][100C:0](=O)N5CCCC(n6nc(-c7ccc(Oc8ccc(F)cc8F)cc7)c(C(N)=O)c6N)C5)C4)ncc3Cl)ccc2CC1C(=O)NC1CCCc2ccccc21)C(C)(C)C

> <Shape>
0.243

> <Color>
0.062

> <Negative vol penalty>
0.000

$$$$

  -OEChem-04052323393D

 84 93  0     1  0  0  0  0  0999 V2000
  -21.8430  -11.9086   18.8583 C   0  0  0  0  0  0  0  0  0  0  0  0
  -21.7371  -13.2627   19.1595 C   0  0  0  0  0  0  0  0  0  0  0  0
  -27.7237  -26.0403   20.1546 C   0  0  0  0  0  0  0  0  0  0  0  0
  -29.0943  -27.3425   21.6589 C   0  0  0  0  0  0  0  0  0  0  0  0
  -22.9627  -11.1889   19.2732 C   0  0  0  0  0  0  0  0  0  0  0  0
  -22.7504  -13.8976   19.8768 C   0  0  0  0  0  0  0  0  0  0  0  0
  -24.0056  -18.3896   17.9043 C   0  0  0  0  0  0  0  0  0  0  0  0
  -28.8552  -25.7119   19.4080 C   0  0  0  0  0  0  0  0  0  0  0  0
  -30.2258  -27.0140   20.9123 C   0  0  0  0  0  0  0  0  0  0  0  0
  -23.1552  -19.4619   18.1705 C   0  0  0  0  0  0  0  0  0  0  0  0
  -31.6750  -27.9993   18.0209 C   0  0  0  0  0  0  0  0  0  0  0  0
  -32.5713  -29.0241   17.7178 C   0  0  0  0  0  0  0  0  0  0  0  0
  -24.6582  -20.2167   19.8998 C   0  0  0  0  0  0  0  0  0  0  0  0
  -34.3208  -27.8409   18.8911 C   0  0  0  0  0  0  0  0  0  0  0  0
  -27.8433  -26.8556   21.2801 C   0  0  0  0  0  0  0  0  0  0  0  0
  -26.1441  -26.4888   23.1471 C   0  0  0  0  0  0  0  0  0  0  0  0
  -23.9948  -11.8175   19.9876 C   0  0  0  0  0  0  0  0  0  0  0  0
  -25.1852  -18.2164   18.6425 C   0  0  0  0  0  0  0  0  0  0  0  0
  -23.8843  -13.1852   20.3028 C   0  0  0  0  0  0  0  0  0  0  0  0
  -25.5231  -19.1428   19.6393 C   0  0  0  0  0  0  0  0  0  0  0  0
  -30.1062  -26.1987   19.7868 C   0  0  0  0  0  0  0  0  0  0  0  0
  -23.4800  -20.3740   19.1703 C   0  0  0  0  0  0  0  0  0  0  0  0
  -32.1015  -26.8953   18.7591 C   0  0  0  0  0  0  0  0  0  0  0  0
  -33.8942  -28.9449   18.1528 C   0  0  0  0  0  0  0  0  0  0  0  0
  -33.4244  -26.8161   19.1942 C   0  0  0  0  0  0  0  0  0  0  0  0
  -26.6747  -27.1957   22.0514 C   0  0  0  0  0  0  0  0  0  0  0  0
  -25.0415  -27.2162   23.5235 C   0  0  0  0  0  0  0  0  0  0  0  0
  -20.5504  -24.5207   21.4187 C   0  0  0  0  0  0  0  0  0  0  0  0
  -21.5987  -24.2183   19.6391 C   0  0  0  0  0  0  0  0  0  0  0  0
  -26.6066  -25.2827   23.7692 C   0  0  0  0  0  0  0  0  0  0  0  0
  -26.3080  -15.9605   20.5800 C   0  0  0  0  0  0  0  0  0  0  0  0
  -28.9901  -17.7836   20.5114 C   0  0  0  0  0  0  0  0  0  0  0  0
  -30.3939  -20.8548   20.0170 C   0  0  0  0  0  0  0  0  0  0  0  0
  -20.4255  -30.0461   22.1908 C   0  0  0  0  0  0  0  0  0  0  0  0
  -25.1636  -10.9873   20.4559 C   0  0  0  0  0  0  0  0  0  0  0  0
  -26.1052  -17.0696   18.3250 C   0  0  0  0  0  0  0  0  0  0  0  0
  -26.7879  -19.0131   20.4467 C   0  0  0  0  0  0  0  0  0  0  0  0
  -26.3682  -11.8200   20.8871 C   0  0  0  0  0  0  0  0  0  0  0  0
  -23.4850  -31.8115   22.1585 C   0  0  0  0  0  0  0  0  0  0  0  0
  -25.9283  -12.9660   21.7927 C   0  0  0  0  0  0  0  0  0  0  0  0
  -24.5505  -30.7191   22.1830 C   0  0  0  0  0  0  0  0  0  0  0  0
  -18.2978  -27.1791   23.1659 C   0  0  0  0  0  0  0  0  0  0  0  0
  -22.2979  -31.3898   21.3029 C   0  0  0  0  0  0  0  0  0  0  0  0
  -18.5261  -28.6719   22.9868 C   0  0  0  0  0  0  0  0  0  0  0  0
  -20.4747  -27.4808   22.2492 C   0  0  0  0  0  0  0  0  0  0  0  0
  -22.7098  -28.9972   21.8084 C   0  0  0  0  0  0  0  0  0  0  0  0
  -24.9743  -13.9150   21.0576 C   0  0  1  0  0  0  0  0  0  0  0  0
  -27.0237  -16.7013   19.4861 C   0  0  1  0  0  0  0  0  0  0  0  0
  -19.2536  -26.5677   22.1407 C   0  0  1  0  0  0  0  0  0  0  0  0
  -23.9466  -29.3840   22.6455 C   0  0  1  0  0  0  0  0  0  0  0  0
  -22.1441  -24.2555   18.2703 C   0  0  0  0  0  0  0  0  0  0  0  0
  -32.6041  -22.0419   20.0693 C   0  0  0  0  0  0  0  0  0  0  0  0
  -28.9074  -17.7982   23.5615 C   0  0  0  0  0  0  0  0  0  0  0  0
  -30.5100  -19.7214   23.5264 C   0  0  0  0  0  0  0  0  0  0  0  0
  -31.1907  -17.5155   22.5812 C   0  0  0  0  0  0  0  0  0  0  0  0
  -30.2103  -21.5672   17.1504 C   0  0  0  0  0  0  0  0  0  0  0  0
  -23.0408  -22.3235   20.4720 C   0  0  0  0  0  0  0  0  0  1  0  0
  -19.5672  -25.1069   22.4104 C   0  0  1  0  0  0  0  0  0  0  0  0
  -29.5189  -18.9385   21.3273 C   0  0  1  0  0  0  0  0  0  0  0  0
  -31.6009  -21.2919   19.2068 C   0  0  2  0  0  0  0  0  0  0  0  0
  -30.0069  -18.4950   22.7354 C   0  0  0  0  0  0  0  0  0  0  0  0
  -25.9673  -28.2881   21.7511 N   0  0  0  0  0  0  0  0  0  0  0  0
  -20.6579  -24.9853   20.1391 N   0  0  0  0  0  0  0  0  0  0  0  0
  -21.3656  -23.5145   21.7418 N   0  0  0  0  0  0  0  0  0  0  0  0
  -24.9808  -28.2731   22.6636 N   0  0  0  0  0  0  0  0  0  0  0  0
  -22.0251  -23.3405   20.5864 N   0  0  0  0  0  0  0  0  0  0  0  0
  -27.6517  -17.8715   20.1030 N   0  0  0  0  0  0  0  0  0  0  0  0
  -21.7468  -30.1036   21.7336 N   0  0  0  0  0  0  0  0  0  0  0  0
  -19.9127  -28.8001   22.5492 N   0  0  0  0  0  0  0  0  0  0  0  0
  -24.1275  -27.0483   24.5027 N   0  0  0  0  0  0  0  0  0  0  0  0
  -27.7552  -24.6645   23.2565 N   0  0  0  0  0  0  0  0  0  0  0  0
  -25.7128  -14.7839   20.1665 N   0  0  0  0  0  0  0  0  0  0  0  0
  -30.5468  -19.5771   20.5124 N   0  0  0  0  0  0  0  0  0  0  0  0
  -18.2774  -24.3460   22.4519 N   0  3  0  0  0  0  0  0  0  0  0  0
  -31.1797  -22.1855   18.0910 N   0  3  0  0  0  0  0  0  0  0  0  0
  -26.0093  -24.7594   24.7402 O   0  0  0  0  0  0  0  0  0  0  0  0
  -26.2978  -16.4214   21.7154 O   0  0  0  0  0  0  0  0  0  0  0  0
  -29.7391  -16.8417   20.2403 O   0  0  0  0  0  0  0  0  0  0  0  0
  -29.4149  -21.5760   20.1958 O   0  0  0  0  0  0  0  0  0  0  0  0
  -19.7168  -31.0607   22.2374 O   0  0  0  0  0  0  0  0  0  0  0  0
  -31.2106  -25.8783   19.0586 O   0  0  0  0  0  0  0  0  0  0  0  0
  -22.6461  -21.4280   19.4343 O   0  0  0  0  0  0  0  0  0  1  0  0
  -34.7553  -29.9284   17.8604 F   0  0  0  0  0  0  0  0  0  0  0  0
  -33.8403  -25.7574   19.9028 F   0  0  0  0  0  0  0  0  0  0  0  0
  1  2  1  0  0  0  0
  1  5  2  0  0  0  0
  2  6  2  0  0  0  0
  3  8  2  0  0  0  0
  3 15  1  0  0  0  0
  4  9  1  0  0  0  0
  4 15  2  0  0  0  0
  5 17  1  0  0  0  0
  6 19  1  0  0  0  0
  7 10  2  0  0  0  0
  7 18  1  0  0  0  0
  8 21  1  0  0  0  0
  9 21  2  0  0  0  0
 10 22  1  0  0  0  0
 11 12  2  0  0  0  0
 11 23  1  0  0  0  0
 12 24  1  0  0  0  0
 13 20  1  0  0  0  0
 13 22  2  0  0  0  0
 14 24  2  0  0  0  0
 14 25  1  0  0  0  0
 15 26  1  0  0  0  0
 16 26  1  0  0  0  0
 16 27  2  0  0  0  0
 16 30  1  0  0  0  0
 17 19  2  0  0  0  0
 17 35  1  0  0  0  0
 18 20  2  0  0  0  0
 18 36  1  0  0  0  0
 19 47  1  0  0  0  0
 20 37  1  0  0  0  0
 21 81  1  0  0  0  0
 22 82  1  0  0  0  0
 23 25  2  0  0  0  0
 23 81  1  0  0  0  0
 24 83  1  0  0  0  0
 25 84  1  0  0  0  0
 26 62  2  0  0  0  0
 27 65  1  0  0  0  0
 27 70  1  0  0  0  0
 28 58  1  0  0  0  0
 28 63  1  0  0  0  0
 28 64  2  0  0  0  0
 29 51  1  0  0  0  0
 29 63  2  0  0  0  0
 29 66  1  0  0  0  0
 30 71  1  0  0  0  0
 30 76  2  0  0  0  0
 31 48  1  0  0  0  0
 31 72  1  0  0  0  0
 31 77  2  0  0  0  0
 32 59  1  0  0  0  0
 32 67  1  0  0  0  0
 32 78  2  0  0  0  0
 33 60  1  0  0  0  0
 33 73  1  0  0  0  0
 33 79  2  0  0  0  0
 34 68  1  0  0  0  0
 34 69  1  0  0  0  0
 34 80  2  0  0  0  0
 35 38  1  0  0  0  0
 36 48  1  0  0  0  0
 37 67  1  0  0  0  0
 38 40  1  0  0  0  0
 39 41  1  0  0  0  0
 39 43  1  0  0  0  0
 40 47  1  0  0  0  0
 41 50  1  0  0  0  0
 42 44  1  0  0  0  0
 42 49  1  0  0  0  0
 43 68  1  0  0  0  0
 44 69  1  0  0  0  0
 45 49  1  0  0  0  0
 45 69  1  0  0  0  0
 46 50  1  0  0  0  0
 46 68  1  0  0  0  0
 47 72  1  0  0  0  0
 48 67  1  0  0  0  0
 49 58  1  0  0  0  0
 50 65  1  0  0  0  0
 52 60  1  0  0  0  0
 53 61  1  0  0  0  0
 54 61  1  0  0  0  0
 55 61  1  0  0  0  0
 56 75  1  0  0  0  0
 57 66  1  0  0  0  0
 57 82  1  0  0  0  0
 58 74  1  0  0  0  0
 59 61  1  0  0  0  0
 59 73  1  0  0  0  0
 60 75  1  0  0  0  0
 62 65  1  0  0  0  0
 64 66  1  0  0  0  0
M  CHG  2  74   1  75   1
M  ISO  4  34 100  57 101  69 100  82 101
M  END
> <Batch ID>
0196

> <Smiles>
CNC(C)C(=O)NC(C(=O)N1Cc2cc([101O:1][101CH2:1]n3nc(C(N)C4CC[100N:0]([100C:0](=O)N5CCCC(n6nc(-c7ccc(Oc8ccc(F)cc8F)cc7)c(C(N)=O)c6N)C5)C4)nc3C)ccc2CC1C(=O)NC1CCCc2ccccc21)C(C)(C)C

> <Shape>
0.213

> <Color>
0.070

> <Negative vol penalty>
0.000

$$$$

  -OEChem-04052323393D

 86 96  0     1  0  0  0  0  0999 V2000
  -13.2153  -16.7516   21.0739 C   0  0  0  0  0  0  0  0  0  0  0  0
  -14.3230  -15.9248   21.2316 C   0  0  0  0  0  0  0  0  0  0  0  0
  -26.7680  -27.4732   21.2162 C   0  0  0  0  0  0  0  0  0  0  0  0
  -26.3657  -27.1239   18.8596 C   0  0  0  0  0  0  0  0  0  0  0  0
  -13.3646  -18.0128   20.4984 C   0  0  0  0  0  0  0  0  0  0  0  0
  -15.5804  -16.3583   20.8129 C   0  0  0  0  0  0  0  0  0  0  0  0
  -20.9693  -15.1061   23.4393 C   0  0  0  0  0  0  0  0  0  0  0  0
  -25.7749  -28.4524   21.2406 C   0  0  0  0  0  0  0  0  0  0  0  0
  -25.3726  -28.1031   18.8841 C   0  0  0  0  0  0  0  0  0  0  0  0
  -21.9583  -14.1671   23.1496 C   0  0  0  0  0  0  0  0  0  0  0  0
  -22.3973  -28.5726   21.3401 C   0  0  0  0  0  0  0  0  0  0  0  0
  -21.4841  -28.5437   22.3940 C   0  0  0  0  0  0  0  0  0  0  0  0
  -23.1647  -15.8349   21.8918 C   0  0  0  0  0  0  0  0  0  0  0  0
  -29.2333  -15.0349   20.7450 C   0  0  0  0  0  0  0  0  0  0  0  0
  -22.1810  -30.7594   23.0587 C   0  0  0  0  0  0  0  0  0  0  0  0
  -31.2857  -13.7652   19.3944 C   0  0  0  0  0  0  0  0  0  0  0  0
  -27.0634  -26.8090   20.0257 C   0  0  0  0  0  0  0  0  0  0  0  0
  -29.4513  -25.9602   20.3178 C   0  0  0  0  0  0  0  0  0  0  0  0
  -14.6261  -18.4657   20.0812 C   0  0  0  0  0  0  0  0  0  0  0  0
  -21.0653  -16.4158   22.9475 C   0  0  0  0  0  0  0  0  0  0  0  0
  -15.7465  -17.6261   20.2300 C   0  0  0  0  0  0  0  0  0  0  0  0
  -22.1769  -16.7893   22.1788 C   0  0  0  0  0  0  0  0  0  0  0  0
  -29.0590  -13.7665   20.2314 C   0  0  0  0  0  0  0  0  0  0  0  0
  -30.0792  -13.1233   19.5354 C   0  0  0  0  0  0  0  0  0  0  0  0
  -25.0772  -28.7673   20.0746 C   0  0  0  0  0  0  0  0  0  0  0  0
  -23.0548  -14.5306   22.3733 C   0  0  0  0  0  0  0  0  0  0  0  0
  -23.2024  -29.6950   21.1454 C   0  0  0  0  0  0  0  0  0  0  0  0
  -21.3760  -29.6371   23.2534 C   0  0  0  0  0  0  0  0  0  0  0  0
  -23.0942  -30.7884   22.0047 C   0  0  0  0  0  0  0  0  0  0  0  0
  -28.0896  -25.7978   19.9997 C   0  0  0  0  0  0  0  0  0  0  0  0
  -30.4744  -15.6137   20.5275 C   0  0  0  0  0  0  0  0  0  0  0  0
  -29.9970  -24.7127   20.1378 C   0  0  0  0  0  0  0  0  0  0  0  0
  -30.1595  -27.1337   20.7385 C   0  0  0  0  0  0  0  0  0  0  0  0
  -19.3123  -18.2143   20.9992 C   0  0  0  0  0  0  0  0  0  0  0  0
  -21.4143  -20.5248   21.8743 C   0  0  0  0  0  0  0  0  0  0  0  0
  -24.5114  -21.3240   23.0642 C   0  0  0  0  0  0  0  0  0  0  0  0
  -29.8417  -19.2967   20.9062 C   0  0  0  0  0  0  0  0  0  0  0  0
  -14.7301  -19.8179   19.4213 C   0  0  0  0  0  0  0  0  0  0  0  0
  -20.0034  -17.4241   23.2913 C   0  0  0  0  0  0  0  0  0  0  0  0
  -22.3372  -18.1880   21.6438 C   0  0  0  0  0  0  0  0  0  0  0  0
  -16.1586  -20.3509   19.3466 C   0  0  0  0  0  0  0  0  0  0  0  0
  -28.0674  -20.5481   18.0107 C   0  0  0  0  0  0  0  0  0  0  0  0
  -17.1082  -19.2653   18.8499 C   0  0  0  0  0  0  0  0  0  0  0  0
  -28.0297  -22.0493   18.3025 C   0  0  0  0  0  0  0  0  0  0  0  0
  -27.8958  -19.7321   19.2886 C   0  0  0  0  0  0  0  0  0  0  0  0
  -28.8443  -21.5515   20.6538 C   0  0  0  0  0  0  0  0  0  0  0  0
  -25.4640  -12.5292   20.3179 C   0  0  0  0  0  0  0  0  0  0  0  0
  -26.1146  -14.4185   20.9260 C   0  0  0  0  0  0  0  0  0  0  0  0
  -17.1310  -18.0705   19.8109 C   0  0  1  0  0  0  0  0  0  0  0  0
  -27.8910  -12.8396   20.3430 C   0  0  2  0  0  0  0  0  0  0  0  0
  -19.9459  -18.5898   22.3089 C   0  0  1  0  0  0  0  0  0  0  0  0
  -29.0351  -22.4313   19.4049 C   0  0  2  0  0  0  0  0  0  0  0  0
  -24.7214  -13.7705   20.8436 C   0  0  0  0  0  0  0  0  0  1  0  0
  -28.2882  -11.7127   19.3460 C   0  0  2  0  0  0  0  0  0  0  0  0
  -27.9422  -10.3261   19.8658 C   0  0  0  0  0  0  0  0  0  0  0  0
  -25.9529  -23.2967   23.6371 C   0  0  0  0  0  0  0  0  0  0  0  0
  -21.9184  -21.0157   18.9053 C   0  0  0  0  0  0  0  0  0  0  0  0
  -23.9915  -22.2697   19.5359 C   0  0  0  0  0  0  0  0  0  0  0  0
  -21.7608  -23.0899   20.2935 C   0  0  0  0  0  0  0  0  0  0  0  0
  -24.7164  -20.4981   25.8988 C   0  0  0  0  0  0  0  0  0  0  0  0
  -30.7361  -16.9868   21.0524 C   0  0  0  0  0  0  0  0  0  0  0  0
  -22.7433  -21.0146   21.3518 C   0  0  1  0  0  0  0  0  0  0  0  0
  -24.9545  -22.2759   24.1606 C   0  0  2  0  0  0  0  0  0  0  0  0
  -22.5998  -21.8205   20.0299 C   0  0  0  0  0  0  0  0  0  0  0  0
  -31.5036  -15.0137   19.8701 N   0  0  0  0  0  0  0  0  0  0  0  0
  -27.7888  -24.5459   19.6444 N   0  0  0  0  0  0  0  0  0  0  0  0
  -28.9692  -23.9103   19.7380 N   0  0  0  0  0  0  0  0  0  0  0  0
  -29.7352  -11.8344   19.1500 N   0  0  0  0  0  0  0  0  0  0  0  0
  -21.2693  -19.1361   22.0019 N   0  0  0  0  0  0  0  0  0  0  0  0
  -28.8947  -20.1315   20.2900 N   0  0  0  0  0  0  0  0  0  0  0  0
  -31.2511  -24.2348   20.2839 N   0  0  0  0  0  0  0  0  0  0  0  0
  -30.7315  -27.9562   19.7583 N   0  0  0  0  0  0  0  0  0  0  0  0
  -17.9397  -18.3717   20.9727 N   0  0  0  0  0  0  0  0  0  0  0  0
  -23.3608  -21.7610   22.4427 N   0  0  0  0  0  0  0  0  0  0  0  0
  -29.8186  -17.9647   20.5112 N   0  0  0  0  0  0  0  0  0  0  0  0
  -26.5850  -13.4149   19.9533 N   0  3  0  0  0  0  0  0  0  0  0  0
  -25.5946  -21.5209   25.2746 N   0  3  0  0  0  0  0  0  0  0  0  0
  -30.2956  -27.4349   21.9485 O   0  0  0  0  0  0  0  0  0  0  0  0
  -20.0168  -17.8131   20.0803 O   0  0  0  0  0  0  0  0  0  0  0  0
  -20.5397  -21.3445   22.1653 O   0  0  0  0  0  0  0  0  0  0  0  0
  -25.1268  -20.2976   22.7844 O   0  0  0  0  0  0  0  0  0  0  0  0
  -30.6522  -19.7091   21.7429 O   0  0  0  0  0  0  0  0  0  0  0  0
  -24.1079  -29.7225   20.0981 O   0  0  0  0  0  0  0  0  0  0  0  0
  -24.0212  -13.6159   22.0885 O   0  0  0  0  0  0  0  0  0  1  0  0
  -20.4979  -29.6097   24.2645 F   0  0  0  0  0  0  0  0  0  0  0  0
  -23.8641  -31.8699   21.8220 F   0  0  0  0  0  0  0  0  0  0  0  0
  1  2  1  0  0  0  0
  1  5  2  0  0  0  0
  2  6  2  0  0  0  0
  3  8  2  0  0  0  0
  3 17  1  0  0  0  0
  4  9  1  0  0  0  0
  4 17  2  0  0  0  0
  5 19  1  0  0  0  0
  6 21  1  0  0  0  0
  7 10  2  0  0  0  0
  7 20  1  0  0  0  0
  8 25  1  0  0  0  0
  9 25  2  0  0  0  0
 10 26  1  0  0  0  0
 11 12  2  0  0  0  0
 11 27  1  0  0  0  0
 12 28  1  0  0  0  0
 13 22  1  0  0  0  0
 13 26  2  0  0  0  0
 14 23  1  0  0  0  0
 14 31  2  0  0  0  0
 15 28  2  0  0  0  0
 15 29  1  0  0  0  0
 16 24  1  0  0  0  0
 16 65  2  0  0  0  0
 17 30  1  0  0  0  0
 18 30  1  0  0  0  0
 18 32  2  0  0  0  0
 18 33  1  0  0  0  0
 19 21  2  0  0  0  0
 19 38  1  0  0  0  0
 20 22  2  0  0  0  0
 20 39  1  0  0  0  0
 21 49  1  0  0  0  0
 22 40  1  0  0  0  0
 23 24  2  0  0  0  0
 23 50  1  0  0  0  0
 24 68  1  0  0  0  0
 25 83  1  0  0  0  0
 26 84  1  0  0  0  0
 27 29  2  0  0  0  0
 27 83  1  0  0  0  0
 28 85  1  0  0  0  0
 29 86  1  0  0  0  0
 30 66  2  0  0  0  0
 31 61  1  0  0  0  0
 31 65  1  0  0  0  0
 32 67  1  0  0  0  0
 32 71  1  0  0  0  0
 33 72  1  0  0  0  0
 33 78  2  0  0  0  0
 34 51  1  0  0  0  0
 34 73  1  0  0  0  0
 34 79  2  0  0  0  0
 35 62  1  0  0  0  0
 35 69  1  0  0  0  0
 35 80  2  0  0  0  0
 36 63  1  0  0  0  0
 36 74  1  0  0  0  0
 36 81  2  0  0  0  0
 37 70  1  0  0  0  0
 37 75  1  0  0  0  0
 37 82  2  0  0  0  0
 38 41  1  0  0  0  0
 39 51  1  0  0  0  0
 40 69  1  0  0  0  0
 41 43  1  0  0  0  0
 42 44  1  0  0  0  0
 42 45  1  0  0  0  0
 43 49  1  0  0  0  0
 44 52  1  0  0  0  0
 45 70  1  0  0  0  0
 46 52  1  0  0  0  0
 46 70  1  0  0  0  0
 47 53  1  0  0  0  0
 47 76  1  0  0  0  0
 48 53  1  0  0  0  0
 48 76  1  0  0  0  0
 49 73  1  0  0  0  0
 50 54  1  0  0  0  0
 50 76  1  0  0  0  0
 51 69  1  0  0  0  0
 52 67  1  0  0  0  0
 53 84  1  0  0  0  0
 54 55  1  0  0  0  0
 54 68  1  0  0  0  0
 56 63  1  0  0  0  0
 57 64  1  0  0  0  0
 58 64  1  0  0  0  0
 59 64  1  0  0  0  0
 60 77  1  0  0  0  0
 61 75  1  0  0  0  0
 62 64  1  0  0  0  0
 62 74  1  0  0  0  0
 63 77  1  0  0  0  0
 66 67  1  0  0  0  0
M  CHG  2  76   1  77   1
M  ISO  4  37 100  53 101  75 100  84 101
M  END
> <Batch ID>
0196

> <Smiles>
CNC(C)C(=O)NC(C(=O)N1Cc2cc([101O:1][101CH:1]3CN(C4c5cc(C[100NH:0][100C:0](=O)N6CCCC(n7nc(-c8ccc(Oc9ccc(F)cc9F)cc8)c(C(N)=O)c7N)C6)ncc5NC4C)C3)ccc2CC1C(=O)NC1CCCc2ccccc21)C(C)(C)C

> <Shape>
0.239

> <Color>
0.054

> <Negative vol penalty>
0.000

$$$$

  -OEChem-04052323393D

 86 96  0     1  0  0  0  0  0999 V2000
  -27.8059  -37.3868   26.4781 C   0  0  0  0  0  0  0  0  0  0  0  0
  -28.5618  -36.4435   25.7895 C   0  0  0  0  0  0  0  0  0  0  0  0
  -24.4448   -9.1043   22.3188 C   0  0  0  0  0  0  0  0  0  0  0  0
  -23.8754   -9.4025   19.9899 C   0  0  0  0  0  0  0  0  0  0  0  0
  -26.4814  -37.1079   26.8123 C   0  0  0  0  0  0  0  0  0  0  0  0
  -27.9937  -35.2201   25.4357 C   0  0  0  0  0  0  0  0  0  0  0  0
  -28.2253  -30.2358   20.2957 C   0  0  0  0  0  0  0  0  0  0  0  0
  -23.3357   -8.2747   22.4838 C   0  0  0  0  0  0  0  0  0  0  0  0
  -22.7663   -8.5729   20.1548 C   0  0  0  0  0  0  0  0  0  0  0  0
  -28.3918  -28.8610   20.1353 C   0  0  0  0  0  0  0  0  0  0  0  0
  -22.5022   -5.0673   21.8120 C   0  0  0  0  0  0  0  0  0  0  0  0
  -22.6810   -3.8793   22.5205 C   0  0  0  0  0  0  0  0  0  0  0  0
  -26.0704  -28.5204   20.6958 C   0  0  0  0  0  0  0  0  0  0  0  0
  -21.0378   -4.5974   24.1396 C   0  0  0  0  0  0  0  0  0  0  0  0
  -24.7146   -9.6683   21.0719 C   0  0  0  0  0  0  0  0  0  0  0  0
  -27.1629  -10.1406   20.5329 C   0  0  0  0  0  0  0  0  0  0  0  0
  -25.8939  -35.8844   26.4539 C   0  0  0  0  0  0  0  0  0  0  0  0
  -26.9806  -30.7633   20.6685 C   0  0  0  0  0  0  0  0  0  0  0  0
  -26.6605  -34.9241   25.7666 C   0  0  0  0  0  0  0  0  0  0  0  0
  -25.8900  -29.9026   20.8577 C   0  0  0  0  0  0  0  0  0  0  0  0
  -22.4964   -8.0089   21.4018 C   0  0  0  0  0  0  0  0  0  0  0  0
  -27.3151  -28.0028   20.3382 C   0  0  0  0  0  0  0  0  0  0  0  0
  -21.5912   -6.0205   22.2673 C   0  0  0  0  0  0  0  0  0  0  0  0
  -21.9488   -3.6442   23.6843 C   0  0  0  0  0  0  0  0  0  0  0  0
  -20.8590   -5.7855   23.4310 C   0  0  0  0  0  0  0  0  0  0  0  0
  -25.8599  -10.5258   20.9010 C   0  0  0  0  0  0  0  0  0  0  0  0
  -28.7521  -22.9080   18.2961 C   0  0  0  0  0  0  0  0  0  0  0  0
  -28.7191  -22.1048   19.4070 C   0  0  0  0  0  0  0  0  0  0  0  0
  -27.8742  -11.3153   20.5085 C   0  0  0  0  0  0  0  0  0  0  0  0
  -28.7544  -24.7192   19.6449 C   0  0  0  0  0  0  0  0  0  0  0  0
  -27.6837   -8.8375   20.2391 C   0  0  0  0  0  0  0  0  0  0  0  0
  -25.9013  -32.4211   23.1566 C   0  0  0  0  0  0  0  0  0  0  0  0
  -23.1797  -32.5470   21.3962 C   0  0  0  0  0  0  0  0  0  0  0  0
  -21.2504  -31.1682   18.9419 C   0  0  0  0  0  0  0  0  0  0  0  0
  -28.5197  -16.4870   19.2121 C   0  0  0  0  0  0  0  0  0  0  0  0
  -24.4731  -35.6094   26.8785 C   0  0  0  0  0  0  0  0  0  0  0  0
  -26.8106  -32.2510   20.8114 C   0  0  0  0  0  0  0  0  0  0  0  0
  -24.5280  -30.4203   21.2391 C   0  0  0  0  0  0  0  0  0  0  0  0
  -23.8319  -34.4385   26.1381 C   0  0  0  0  0  0  0  0  0  0  0  0
  -26.6729  -15.9389   22.1495 C   0  0  0  0  0  0  0  0  0  0  0  0
  -24.7834  -33.2470   26.0977 C   0  0  0  0  0  0  0  0  0  0  0  0
  -30.0867  -21.9246   16.3148 C   0  0  0  0  0  0  0  0  0  0  0  0
  -29.3658  -23.1292   15.7955 C   0  0  0  0  0  0  0  0  0  0  0  0
  -26.3963  -14.4385   22.0589 C   0  0  0  0  0  0  0  0  0  0  0  0
  -26.5426  -16.6287   20.7905 C   0  0  0  0  0  0  0  0  0  0  0  0
  -29.7849  -19.9144   19.8479 C   0  0  0  0  0  0  0  0  0  0  0  0
  -27.3911  -20.0554   19.1437 C   0  0  0  0  0  0  0  0  0  0  0  0
  -29.8807  -18.5439   19.1830 C   0  0  0  0  0  0  0  0  0  0  0  0
  -27.5328  -18.6896   18.4811 C   0  0  0  0  0  0  0  0  0  0  0  0
  -27.0853  -14.5115   19.6325 C   0  0  0  0  0  0  0  0  0  0  0  0
  -26.0723  -33.5955   25.3435 C   0  0  1  0  0  0  0  0  0  0  0  0
  -28.7688  -22.3270   16.9209 C   0  0  0  0  0  0  0  0  0  0  0  0
  -25.6277  -32.6351   21.6948 C   0  0  1  0  0  0  0  0  0  0  0  0
  -27.2659  -13.7812   20.9724 C   0  0  2  0  0  0  0  0  0  0  0  0
  -19.0624  -31.4730   17.7514 C   0  0  0  0  0  0  0  0  0  0  0  0
  -21.7061  -31.4322   23.8243 C   0  0  0  0  0  0  0  0  0  0  0  0
  -19.7873  -30.8737   22.3162 C   0  0  0  0  0  0  0  0  0  0  0  0
  -20.4903  -33.2491   22.6097 C   0  0  0  0  0  0  0  0  0  0  0  0
  -22.5899  -31.5213   16.3265 C   0  0  0  0  0  0  0  0  0  0  0  0
  -28.7734  -26.1996   19.8111 C   0  0  0  0  0  0  0  0  0  1  0  0
  -21.9496  -31.6815   21.2661 C   0  0  1  0  0  0  0  0  0  0  0  0
  -20.5507  -31.7855   17.7444 C   0  0  2  0  0  0  0  0  0  0  0  0
  -21.0094  -31.7989   22.4988 C   0  0  0  0  0  0  0  0  0  0  0  0
  -25.7472  -11.8423   21.0966 N   0  0  0  0  0  0  0  0  0  0  0  0
  -28.7708  -24.2463   18.3899 N   0  0  0  0  0  0  0  0  0  0  0  0
  -28.7039  -22.6371   20.6424 N   0  0  0  0  0  0  0  0  0  0  0  0
  -28.7217  -23.9801   20.7713 N   0  0  0  0  0  0  0  0  0  0  0  0
  -26.9886  -12.2945   20.8506 N   0  0  0  0  0  0  0  0  0  0  0  0
  -28.7003  -20.7114   19.2646 N   0  0  0  0  0  0  0  0  0  0  0  0
  -24.4138  -31.8820   21.3729 N   0  0  0  0  0  0  0  0  0  0  0  0
  -27.3572  -15.9430   19.7784 N   0  0  0  0  0  0  0  0  0  0  0  0
  -28.5817  -17.8858   19.1118 N   0  0  0  0  0  0  0  0  0  0  0  0
  -29.1646  -11.5958   20.2282 N   0  0  0  0  0  0  0  0  0  0  0  0
  -26.8160   -7.7393   20.3114 N   0  0  0  0  0  0  0  0  0  0  0  0
  -25.8430  -33.5750   23.9147 N   0  0  0  0  0  0  0  0  0  0  0  0
  -21.3241  -32.0488   20.0003 N   0  0  0  0  0  0  0  0  0  0  0  0
  -21.1348  -31.2627   16.4769 N   0  3  0  0  0  0  0  0  0  0  0  0
  -28.8870   -8.6504   19.9379 O   0  0  0  0  0  0  0  0  0  0  0  0
  -26.1458  -31.2925   23.5666 O   0  0  0  0  0  0  0  0  0  0  0  0
  -23.0506  -33.7687   21.5069 O   0  0  0  0  0  0  0  0  0  0  0  0
  -21.6846  -30.0184   18.9398 O   0  0  0  0  0  0  0  0  0  0  0  0
  -29.4485  -15.7687   18.8220 O   0  0  0  0  0  0  0  0  0  0  0  0
  -21.4142   -7.1993   21.5623 O   0  0  0  0  0  0  0  0  0  0  0  0
  -27.4762  -26.6513   20.1819 O   0  0  0  0  0  0  0  0  0  1  0  0
  -22.1196   -2.5026   24.3637 F   0  0  0  0  0  0  0  0  0  0  0  0
  -19.9815   -6.6970   23.8727 F   0  0  0  0  0  0  0  0  0  0  0  0
  1  2  1  0  0  0  0
  1  5  2  0  0  0  0
  2  6  2  0  0  0  0
  3  8  2  0  0  0  0
  3 15  1  0  0  0  0
  4  9  1  0  0  0  0
  4 15  2  0  0  0  0
  5 17  1  0  0  0  0
  6 19  1  0  0  0  0
  7 10  2  0  0  0  0
  7 18  1  0  0  0  0
  8 21  1  0  0  0  0
  9 21  2  0  0  0  0
 10 22  1  0  0  0  0
 11 12  2  0  0  0  0
 11 23  1  0  0  0  0
 12 24  1  0  0  0  0
 13 20  1  0  0  0  0
 13 22  2  0  0  0  0
 14 24  2  0  0  0  0
 14 25  1  0  0  0  0
 15 26  1  0  0  0  0
 16 26  1  0  0  0  0
 16 29  2  0  0  0  0
 16 31  1  0  0  0  0
 17 19  2  0  0  0  0
 17 36  1  0  0  0  0
 18 20  2  0  0  0  0
 18 37  1  0  0  0  0
 19 51  1  0  0  0  0
 20 38  1  0  0  0  0
 21 83  1  0  0  0  0
 22 84  1  0  0  0  0
 23 25  2  0  0  0  0
 23 83  1  0  0  0  0
 24 85  1  0  0  0  0
 25 86  1  0  0  0  0
 26 64  2  0  0  0  0
 27 28  2  0  0  0  0
 27 52  1  0  0  0  0
 27 65  1  0  0  0  0
 28 66  1  0  0  0  0
 28 69  1  0  0  0  0
 29 68  1  0  0  0  0
 29 73  1  0  0  0  0
 30 60  1  0  0  0  0
 30 65  2  0  0  0  0
 30 67  1  0  0  0  0
 31 74  1  0  0  0  0
 31 78  2  0  0  0  0
 32 53  1  0  0  0  0
 32 75  1  0  0  0  0
 32 79  2  0  0  0  0
 33 61  1  0  0  0  0
 33 70  1  0  0  0  0
 33 80  2  0  0  0  0
 34 62  1  0  0  0  0
 34 76  1  0  0  0  0
 34 81  2  0  0  0  0
 35 71  1  0  0  0  0
 35 72  1  0  0  0  0
 35 82  2  0  0  0  0
 36 39  1  0  0  0  0
 37 53  1  0  0  0  0
 38 70  1  0  0  0  0
 39 41  1  0  0  0  0
 40 44  1  0  0  0  0
 40 45  1  0  0  0  0
 41 51  1  0  0  0  0
 42 43  1  0  0  0  0
 42 52  1  0  0  0  0
 43 52  1  0  0  0  0
 44 54  1  0  0  0  0
 45 71  1  0  0  0  0
 46 48  1  0  0  0  0
 46 69  1  0  0  0  0
 47 49  1  0  0  0  0
 47 69  1  0  0  0  0
 48 72  1  0  0  0  0
 49 72  1  0  0  0  0
 50 54  1  0  0  0  0
 50 71  1  0  0  0  0
 51 75  1  0  0  0  0
 53 70  1  0  0  0  0
 54 68  1  0  0  0  0
 55 62  1  0  0  0  0
 56 63  1  0  0  0  0
 57 63  1  0  0  0  0
 58 63  1  0  0  0  0
 59 77  1  0  0  0  0
 60 84  1  0  0  0  0
 61 63  1  0  0  0  0
 61 76  1  0  0  0  0
 62 77  1  0  0  0  0
 64 68  1  0  0  0  0
 66 67  2  0  0  0  0
M  CHG  1  77   1
M  ISO  4  35 100  60 101  72 100  84 101
M  END
> <Batch ID>
0196

> <Smiles>
CNC(C)C(=O)NC(C(=O)N1Cc2cc([101O:1][101CH2:1]c3nnc(N4CC[100N:0]([100C:0](=O)N5CCCC(n6nc(-c7ccc(Oc8ccc(F)cc8F)cc7)c(C(N)=O)c6N)C5)CC4)c(C4CC4)n3)ccc2CC1C(=O)NC1CCCc2ccccc21)C(C)(C)C

> <Shape>
0.296

> <Color>
0.084

> <Negative vol penalty>
0.000

$$$$

  -OEChem-04052323393D

 85 94  0     1  0  0  0  0  0999 V2000
  -29.6652  -10.1439   17.1753 C   0  0  0  0  0  0  0  0  0  0  0  0
  -28.4320  -10.6904   16.8348 C   0  0  0  0  0  0  0  0  0  0  0  0
  -27.0674  -31.5165   21.3241 C   0  0  0  0  0  0  0  0  0  0  0  0
  -26.8419  -30.1315   23.2908 C   0  0  0  0  0  0  0  0  0  0  0  0
  -30.2870  -10.5174   18.3660 C   0  0  0  0  0  0  0  0  0  0  0  0
  -27.8194  -11.6100   17.6854 C   0  0  0  0  0  0  0  0  0  0  0  0
  -23.5982  -17.3960   17.5421 C   0  0  0  0  0  0  0  0  0  0  0  0
  -27.5887  -32.5454   22.1083 C   0  0  0  0  0  0  0  0  0  0  0  0
  -27.3632  -31.1605   24.0751 C   0  0  0  0  0  0  0  0  0  0  0  0
  -22.4157  -17.8806   18.0994 C   0  0  0  0  0  0  0  0  0  0  0  0
  -28.6440  -35.6667   23.6470 C   0  0  0  0  0  0  0  0  0  0  0  0
  -28.1639  -36.9579   23.4283 C   0  0  0  0  0  0  0  0  0  0  0  0
  -23.6203  -18.5113   20.0920 C   0  0  0  0  0  0  0  0  0  0  0  0
  -25.9301  -36.2206   23.9793 C   0  0  0  0  0  0  0  0  0  0  0  0
  -17.3256  -19.3522   21.5775 C   0  0  0  0  0  0  0  0  0  0  0  0
  -26.6940  -30.3095   21.9153 C   0  0  0  0  0  0  0  0  0  0  0  0
  -26.8722  -28.2188   20.4646 C   0  0  0  0  0  0  0  0  0  0  0  0
  -29.6863  -11.4493   19.2270 C   0  0  0  0  0  0  0  0  0  0  0  0
  -24.8007  -17.4556   18.2612 C   0  0  0  0  0  0  0  0  0  0  0  0
  -28.4332  -11.9953   18.8893 C   0  0  0  0  0  0  0  0  0  0  0  0
  -24.8172  -18.0291   19.5406 C   0  0  0  0  0  0  0  0  0  0  0  0
  -27.7366  -32.3674   23.4839 C   0  0  0  0  0  0  0  0  0  0  0  0
  -22.4261  -18.4357   19.3757 C   0  0  0  0  0  0  0  0  0  0  0  0
  -27.7672  -34.6524   24.0319 C   0  0  0  0  0  0  0  0  0  0  0  0
  -18.3739  -18.7155   20.9450 C   0  0  0  0  0  0  0  0  0  0  0  0
  -26.8069  -37.2349   23.5944 C   0  0  0  0  0  0  0  0  0  0  0  0
  -26.4102  -34.9294   24.1980 C   0  0  0  0  0  0  0  0  0  0  0  0
  -26.1549  -29.2464   21.1058 C   0  0  0  0  0  0  0  0  0  0  0  0
  -18.9407  -19.4021   19.8907 C   0  0  0  0  0  0  0  0  0  0  0  0
  -25.9096  -27.4725   19.8298 C   0  0  0  0  0  0  0  0  0  0  0  0
  -17.4947  -21.1329   20.1747 C   0  0  0  0  0  0  0  0  0  0  0  0
  -28.2826  -27.9616   20.4447 C   0  0  0  0  0  0  0  0  0  0  0  0
  -26.8591  -15.3032   19.3720 C   0  0  0  0  0  0  0  0  0  0  0  0
  -28.5925  -17.9336   20.1456 C   0  0  0  0  0  0  0  0  0  0  0  0
  -28.6319  -21.2708   20.8585 C   0  0  0  0  0  0  0  0  0  0  0  0
  -20.1856  -26.6435   20.9773 C   0  0  0  0  0  0  0  0  0  0  0  0
  -30.3745  -11.7865   20.5259 C   0  0  0  0  0  0  0  0  0  0  0  0
  -26.0727  -16.9529   17.6353 C   0  0  0  0  0  0  0  0  0  0  0  0
  -26.0856  -18.1351   20.3458 C   0  0  0  0  0  0  0  0  0  0  0  0
  -29.8344  -13.0496   21.1915 C   0  0  0  0  0  0  0  0  0  0  0  0
  -21.5646  -27.8598   17.8615 C   0  0  0  0  0  0  0  0  0  0  0  0
  -28.3091  -13.0374   21.2011 C   0  0  0  0  0  0  0  0  0  0  0  0
  -22.9785  -28.2555   18.2907 C   0  0  0  0  0  0  0  0  0  0  0  0
  -20.5447  -28.1822   18.9499 C   0  0  0  0  0  0  0  0  0  0  0  0
  -22.2587  -27.9701   20.7065 C   0  0  0  0  0  0  0  0  0  0  0  0
  -18.5075  -23.8720   21.0912 C   0  0  0  0  0  0  0  0  0  0  0  0
  -16.8520  -24.8596   20.2914 C   0  0  0  0  0  0  0  0  0  0  0  0
  -27.7485  -13.0145   19.7740 C   0  0  1  0  0  0  0  0  0  0  0  0
  -27.1435  -16.5965   18.6618 C   0  0  1  0  0  0  0  0  0  0  0  0
  -23.3391  -27.6469   19.6586 C   0  0  2  0  0  0  0  0  0  0  0  0
  -18.0454  -25.3394   21.1366 C   0  0  0  0  0  0  0  0  0  0  0  0
  -30.1926  -23.1324   21.4880 C   0  0  0  0  0  0  0  0  0  0  0  0
  -28.7319  -16.8501   22.9946 C   0  0  0  0  0  0  0  0  0  0  0  0
  -29.4394  -19.1290   23.7524 C   0  0  0  0  0  0  0  0  0  0  0  0
  -30.8642  -17.8501   22.1533 C   0  0  0  0  0  0  0  0  0  0  0  0
  -27.9752  -22.8039   18.4137 C   0  0  0  0  0  0  0  0  0  0  0  0
  -18.1297  -16.8934   22.4536 C   0  0  0  0  0  0  0  0  0  0  0  0
  -20.0893  -18.8047   19.1323 C   0  0  0  0  0  0  0  0  0  1  0  0
  -17.0080  -22.4763   19.7485 C   0  0  0  0  0  0  0  0  0  0  0  0
  -28.6808  -18.8397   21.3499 C   0  0  1  0  0  0  0  0  0  0  0  0
  -29.5067  -22.4002   20.3451 C   0  0  2  0  0  0  0  0  0  0  0  0
  -29.4046  -18.1636   22.5484 C   0  0  0  0  0  0  0  0  0  0  0  0
  -16.8585  -20.5656   21.2173 N   0  0  0  0  0  0  0  0  0  0  0  0
  -24.8382  -29.1638   20.8972 N   0  0  0  0  0  0  0  0  0  0  0  0
  -18.5246  -20.6170   19.4770 N   0  0  0  0  0  0  0  0  0  0  0  0
  -24.7205  -28.0754   20.1178 N   0  0  0  0  0  0  0  0  0  0  0  0
  -27.3022  -17.6239   19.6930 N   0  0  0  0  0  0  0  0  0  0  0  0
  -20.9369  -27.5574   20.2215 N   0  0  0  0  0  0  0  0  0  0  0  0
  -25.9727  -26.3662   19.0589 N   0  0  0  0  0  0  0  0  0  0  0  0
  -29.1296  -28.8270   21.1503 N   0  0  0  0  0  0  0  0  0  0  0  0
  -27.8234  -14.3323   19.1803 N   0  0  0  0  0  0  0  0  0  0  0  0
  -29.3117  -20.0715   20.8885 N   0  0  0  0  0  0  0  0  0  0  0  0
  -18.9442  -26.2946   20.4564 N   0  0  0  0  0  0  0  0  0  0  0  0
  -17.1065  -23.5076   20.8182 N   0  3  0  0  0  0  0  0  0  0  0  0
  -28.6878  -23.3836   19.5813 N   0  3  0  0  0  0  0  0  0  0  0  0
  -28.7786  -27.0025   19.8062 O   0  0  0  0  0  0  0  0  0  0  0  0
  -25.8409  -15.1948   20.0452 O   0  0  0  0  0  0  0  0  0  0  0  0
  -29.6304  -17.5217   19.6214 O   0  0  0  0  0  0  0  0  0  0  0  0
  -27.4637  -21.4367   21.2023 O   0  0  0  0  0  0  0  0  0  0  0  0
  -20.5894  -26.1621   22.0417 O   0  0  0  0  0  0  0  0  0  0  0  0
  -28.2455  -33.3712   24.2495 O   0  0  0  0  0  0  0  0  0  0  0  0
  -18.8040  -17.4981   21.3458 O   0  0  0  0  0  0  0  0  0  0  0  0
  -21.2731  -18.9088   19.9223 O   0  0  0  0  0  0  0  0  0  1  0  0
  -26.3463  -38.4752   23.3858 F   0  0  0  0  0  0  0  0  0  0  0  0
  -25.5632  -33.9594   24.5688 F   0  0  0  0  0  0  0  0  0  0  0  0
  1  2  1  0  0  0  0
  1  5  2  0  0  0  0
  2  6  2  0  0  0  0
  3  8  2  0  0  0  0
  3 16  1  0  0  0  0
  4  9  1  0  0  0  0
  4 16  2  0  0  0  0
  5 18  1  0  0  0  0
  6 20  1  0  0  0  0
  7 10  2  0  0  0  0
  7 19  1  0  0  0  0
  8 22  1  0  0  0  0
  9 22  2  0  0  0  0
 10 23  1  0  0  0  0
 11 12  2  0  0  0  0
 11 24  1  0  0  0  0
 12 26  1  0  0  0  0
 13 21  1  0  0  0  0
 13 23  2  0  0  0  0
 14 26  2  0  0  0  0
 14 27  1  0  0  0  0
 15 25  1  0  0  0  0
 15 63  2  0  0  0  0
 16 28  1  0  0  0  0
 17 28  1  0  0  0  0
 17 30  2  0  0  0  0
 17 32  1  0  0  0  0
 18 20  2  0  0  0  0
 18 37  1  0  0  0  0
 19 21  2  0  0  0  0
 19 38  1  0  0  0  0
 20 48  1  0  0  0  0
 21 39  1  0  0  0  0
 22 81  1  0  0  0  0
 23 83  1  0  0  0  0
 24 27  2  0  0  0  0
 24 81  1  0  0  0  0
 25 29  2  0  0  0  0
 25 82  1  0  0  0  0
 26 84  1  0  0  0  0
 27 85  1  0  0  0  0
 28 64  2  0  0  0  0
 29 58  1  0  0  0  0
 29 65  1  0  0  0  0
 30 66  1  0  0  0  0
 30 69  1  0  0  0  0
 31 59  1  0  0  0  0
 31 63  1  0  0  0  0
 31 65  2  0  0  0  0
 32 70  1  0  0  0  0
 32 76  2  0  0  0  0
 33 49  1  0  0  0  0
 33 71  1  0  0  0  0
 33 77  2  0  0  0  0
 34 60  1  0  0  0  0
 34 67  1  0  0  0  0
 34 78  2  0  0  0  0
 35 61  1  0  0  0  0
 35 72  1  0  0  0  0
 35 79  2  0  0  0  0
 36 68  1  0  0  0  0
 36 73  1  0  0  0  0
 36 80  2  0  0  0  0
 37 40  1  0  0  0  0
 38 49  1  0  0  0  0
 39 67  1  0  0  0  0
 40 42  1  0  0  0  0
 41 43  1  0  0  0  0
 41 44  1  0  0  0  0
 42 48  1  0  0  0  0
 43 50  1  0  0  0  0
 44 68  1  0  0  0  0
 45 50  1  0  0  0  0
 45 68  1  0  0  0  0
 46 51  1  0  0  0  0
 46 74  1  0  0  0  0
 47 51  1  0  0  0  0
 47 74  1  0  0  0  0
 48 71  1  0  0  0  0
 49 67  1  0  0  0  0
 50 66  1  0  0  0  0
 51 73  1  0  0  0  0
 52 61  1  0  0  0  0
 53 62  1  0  0  0  0
 54 62  1  0  0  0  0
 55 62  1  0  0  0  0
 56 75  1  0  0  0  0
 57 82  1  0  0  0  0
 58 83  1  0  0  0  0
 59 74  1  0  0  0  0
 60 62  1  0  0  0  0
 60 72  1  0  0  0  0
 61 75  1  0  0  0  0
 64 66  1  0  0  0  0
M  CHG  2  74   1  75   1
M  ISO  4  36 100  58 101  73 100  83 101
M  END
> <Batch ID>
0196

> <Smiles>
CNC(C)C(=O)NC(C(=O)N1Cc2cc([101O:1][101CH2:1]c3nc(CN4CC([100NH:0][100C:0](=O)N5CCCC(n6nc(-c7ccc(Oc8ccc(F)cc8F)cc7)c(C(N)=O)c6N)C5)C4)ncc3OC)ccc2CC1C(=O)NC1CCCc2ccccc21)C(C)(C)C

> <Shape>
0.271

> <Color>
0.061

> <Negative vol penalty>
0.000

$$$$

  -OEChem-04052323393D

 88 97  0     1  0  0  0  0  0999 V2000
  -18.8333  -24.4608   22.3525 C   0  0  0  0  0  0  0  0  0  0  0  0
  -20.2199  -24.5118   22.2523 C   0  0  0  0  0  0  0  0  0  0  0  0
  -26.5753  -13.5815   21.6508 C   0  0  0  0  0  0  0  0  0  0  0  0
  -27.3217  -11.4201   20.8709 C   0  0  0  0  0  0  0  0  0  0  0  0
  -18.0773  -25.6127   22.1394 C   0  0  0  0  0  0  0  0  0  0  0  0
  -20.8513  -25.7147   21.9378 C   0  0  0  0  0  0  0  0  0  0  0  0
  -24.8916  -26.6093   24.8567 C   0  0  0  0  0  0  0  0  0  0  0  0
  -25.4730  -12.9813   22.2593 C   0  0  0  0  0  0  0  0  0  0  0  0
  -26.2195  -10.8199   21.4795 C   0  0  0  0  0  0  0  0  0  0  0  0
  -26.0646  -25.9215   24.5486 C   0  0  0  0  0  0  0  0  0  0  0  0
  -22.9263  -10.4175   20.8281 C   0  0  0  0  0  0  0  0  0  0  0  0
  -22.2208   -9.4636   20.0948 C   0  0  0  0  0  0  0  0  0  0  0  0
  -26.9087  -27.8789   23.4194 C   0  0  0  0  0  0  0  0  0  0  0  0
  -22.7030   -7.8068   21.7859 C   0  0  0  0  0  0  0  0  0  0  0  0
  -29.3878  -23.8477   20.8813 C   0  0  0  0  0  0  0  0  0  0  0  0
  -27.1992  -24.5297   20.4321 C   0  0  0  0  0  0  0  0  0  0  0  0
  -27.4996  -12.8009   20.9565 C   0  0  0  0  0  0  0  0  0  0  0  0
  -29.9040  -13.6513   20.8982 C   0  0  0  0  0  0  0  0  0  0  0  0
  -18.7003  -26.8324   21.8316 C   0  0  0  0  0  0  0  0  0  0  0  0
  -24.7136  -27.9359   24.4383 C   0  0  0  0  0  0  0  0  0  0  0  0
  -20.1028  -26.8837   21.7190 C   0  0  0  0  0  0  0  0  0  0  0  0
  -25.7337  -28.5822   23.7257 C   0  0  0  0  0  0  0  0  0  0  0  0
  -28.3071  -23.8153   20.0238 C   0  0  0  0  0  0  0  0  0  0  0  0
  -25.2951  -11.6005   22.1737 C   0  0  0  0  0  0  0  0  0  0  0  0
  -27.0721  -26.5553   23.8274 C   0  0  0  0  0  0  0  0  0  0  0  0
  -23.5203  -10.0661   22.0404 C   0  0  0  0  0  0  0  0  0  0  0  0
  -22.1091   -8.1582   20.5737 C   0  0  0  0  0  0  0  0  0  0  0  0
  -23.4086   -8.7608   22.5192 C   0  0  0  0  0  0  0  0  0  0  0  0
  -28.6382  -13.4204   20.3271 C   0  0  0  0  0  0  0  0  0  0  0  0
  -30.6252  -14.2596   19.9000 C   0  0  0  0  0  0  0  0  0  0  0  0
  -28.2575  -25.1794   22.3360 C   0  0  0  0  0  0  0  0  0  1  0  0
  -30.3850  -13.3434   22.2133 C   0  0  0  0  0  0  0  0  0  0  0  0
  -22.6531  -29.4301   22.5343 C   0  0  0  0  0  0  0  0  0  0  0  0
  -24.1929  -32.0804   23.5961 C   0  0  0  0  0  0  0  0  0  0  0  0
  -27.0228  -33.4507   24.9230 C   0  0  0  0  0  0  0  0  0  0  0  0
  -27.6788  -17.6850   17.8539 C   0  0  0  0  0  0  0  0  0  0  0  0
  -17.8382  -28.0405   21.5633 C   0  0  0  0  0  0  0  0  0  0  0  0
  -23.4537  -28.6726   24.8018 C   0  0  0  0  0  0  0  0  0  0  0  0
  -25.6002  -30.0118   23.2709 C   0  0  0  0  0  0  0  0  0  0  0  0
  -18.6073  -29.3585   21.6028 C   0  0  0  0  0  0  0  0  0  0  0  0
  -27.9506  -14.6645   16.0772 C   0  0  0  0  0  0  0  0  0  0  0  0
  -19.9033  -29.2444   20.8064 C   0  0  0  0  0  0  0  0  0  0  0  0
  -29.3794  -14.1905   16.3292 C   0  0  0  0  0  0  0  0  0  0  0  0
  -27.9015  -16.1759   15.9065 C   0  0  0  0  0  0  0  0  0  0  0  0
  -29.4601  -19.4797   17.9508 C   0  0  0  0  0  0  0  0  0  0  0  0
  -29.8719  -16.4787   17.3810 C   0  0  0  0  0  0  0  0  0  0  0  0
  -29.1451  -20.9449   17.6793 C   0  0  0  0  0  0  0  0  0  0  0  0
  -27.3324  -20.8678   19.3903 C   0  0  0  0  0  0  0  0  0  0  0  0
  -20.8258  -28.1753   21.4041 C   0  0  1  0  0  0  0  0  0  0  0  0
  -23.1661  -29.8547   23.8813 C   0  0  1  0  0  0  0  0  0  0  0  0
  -30.0850  -14.9505   17.4659 C   0  0  1  0  0  0  0  0  0  0  0  0
  -27.6358  -19.3928   19.6579 C   0  0  2  0  0  0  0  0  0  0  0  0
  -27.9959  -35.6484   25.6446 C   0  0  0  0  0  0  0  0  0  0  0  0
  -27.7474  -19.7957   22.1345 C   0  0  0  0  0  0  0  0  0  0  0  0
  -24.6367  -32.8404   20.6745 C   0  0  0  0  0  0  0  0  0  0  0  0
  -26.3798  -34.4686   21.4353 C   0  0  0  0  0  0  0  0  0  0  0  0
  -24.0109  -34.7484   22.1653 C   0  0  0  0  0  0  0  0  0  0  0  0
  -30.8779  -18.2772   22.4530 C   0  0  0  0  0  0  0  0  0  0  0  0
  -27.3459  -32.5230   27.7148 C   0  0  0  0  0  0  0  0  0  0  0  0
  -28.3349  -23.0534   18.7316 C   0  0  0  0  0  0  0  0  0  0  0  0
  -28.8231  -17.7075   21.1522 C   0  0  0  0  0  0  0  0  0  0  0  0
  -25.3955  -32.8720   23.1422 C   0  0  1  0  0  0  0  0  0  0  0  0
  -27.2300  -34.4093   26.0817 C   0  0  2  0  0  0  0  0  0  0  0  0
  -28.4606  -19.1795   20.9308 C   0  0  1  0  0  0  0  0  0  0  0  0
  -25.1077  -33.7048   21.8611 C   0  0  0  0  0  0  0  0  0  0  0  0
  -29.3975  -24.5221   22.0498 N   0  0  0  0  0  0  0  0  0  0  0  0
  -27.1397  -25.2257   21.5864 N   0  0  0  0  0  0  0  0  0  0  0  0
  -28.5566  -13.8474   19.0642 N   0  0  0  0  0  0  0  0  0  0  0  0
  -29.7803  -14.3527   18.8334 N   0  0  0  0  0  0  0  0  0  0  0  0
  -24.3470  -30.6877   23.6453 N   0  0  0  0  0  0  0  0  0  0  0  0
  -28.4903  -16.8629   17.0548 N   0  0  0  0  0  0  0  0  0  0  0  0
  -28.2986  -18.7659   18.5010 N   0  0  0  0  0  0  0  0  0  0  0  0
  -31.8933  -14.7186   19.8394 N   0  0  0  0  0  0  0  0  0  0  0  0
  -29.5126  -12.7178   23.1143 N   0  0  0  0  0  0  0  0  0  0  0  0
  -21.4909  -28.6843   22.5844 N   0  0  0  0  0  0  0  0  0  0  0  0
  -25.8173  -33.6678   24.2899 N   0  0  0  0  0  0  0  0  0  0  0  0
  -28.5756  -21.5811   18.9207 N   0  3  2  0  0  0  0  0  0  0  0  0
  -29.6069  -17.5040   22.3936 N   0  3  0  0  0  0  0  0  0  0  0  0
  -27.9958  -33.7443   27.1736 N   0  3  0  0  0  0  0  0  0  0  0  0
  -31.5487  -13.6298   22.5839 O   0  0  0  0  0  0  0  0  0  0  0  0
  -23.2656  -29.7563   21.5243 O   0  0  0  0  0  0  0  0  0  0  0  0
  -23.1573  -32.6763   23.9027 O   0  0  0  0  0  0  0  0  0  0  0  0
  -27.8494  -32.5973   24.6086 O   0  0  0  0  0  0  0  0  0  0  0  0
  -26.4709  -17.4554   17.9953 O   0  0  0  0  0  0  0  0  0  0  0  0
  -24.2198  -11.0145   22.7676 O   0  0  0  0  0  0  0  0  0  0  0  0
  -28.2323  -25.8775   23.5210 O   0  0  0  0  0  0  0  0  0  1  0  0
  -21.4302   -7.2427   19.8701 F   0  0  0  0  0  0  0  0  0  0  0  0
  -23.9761   -8.4175   23.6837 F   0  0  0  0  0  0  0  0  0  0  0  0
  1  2  1  0  0  0  0
  1  5  2  0  0  0  0
  2  6  2  0  0  0  0
  3  8  2  0  0  0  0
  3 17  1  0  0  0  0
  4  9  1  0  0  0  0
  4 17  2  0  0  0  0
  5 19  1  0  0  0  0
  6 21  1  0  0  0  0
  7 10  2  0  0  0  0
  7 20  1  0  0  0  0
  8 24  1  0  0  0  0
  9 24  2  0  0  0  0
 10 25  1  0  0  0  0
 11 12  2  0  0  0  0
 11 26  1  0  0  0  0
 12 27  1  0  0  0  0
 13 22  1  0  0  0  0
 13 25  2  0  0  0  0
 14 27  2  0  0  0  0
 14 28  1  0  0  0  0
 15 23  1  0  0  0  0
 15 66  2  0  0  0  0
 16 23  2  0  0  0  0
 16 67  1  0  0  0  0
 17 29  1  0  0  0  0
 18 29  1  0  0  0  0
 18 30  2  0  0  0  0
 18 32  1  0  0  0  0
 19 21  2  0  0  0  0
 19 37  1  0  0  0  0
 20 22  2  0  0  0  0
 20 38  1  0  0  0  0
 21 49  1  0  0  0  0
 22 39  1  0  0  0  0
 23 60  1  0  0  0  0
 24 85  1  0  0  0  0
 25 86  1  0  0  0  0
 26 28  2  0  0  0  0
 26 85  1  0  0  0  0
 27 87  1  0  0  0  0
 28 88  1  0  0  0  0
 29 68  2  0  0  0  0
 30 69  1  0  0  0  0
 30 73  1  0  0  0  0
 31 66  1  0  0  0  0
 31 67  2  0  0  0  0
 31 86  1  0  0  0  0
 32 74  1  0  0  0  0
 32 80  2  0  0  0  0
 33 50  1  0  0  0  0
 33 75  1  0  0  0  0
 33 81  2  0  0  0  0
 34 62  1  0  0  0  0
 34 70  1  0  0  0  0
 34 82  2  0  0  0  0
 35 63  1  0  0  0  0
 35 76  1  0  0  0  0
 35 83  2  0  0  0  0
 36 71  1  0  0  0  0
 36 72  1  0  0  0  0
 36 84  2  0  0  0  0
 37 40  1  0  0  0  0
 38 50  1  0  0  0  0
 39 70  1  0  0  0  0
 40 42  1  0  0  0  0
 41 43  1  0  0  0  0
 41 44  1  0  0  0  0
 42 49  1  0  0  0  0
 43 51  1  0  0  0  0
 44 71  1  0  0  0  0
 45 47  1  0  0  0  0
 45 72  1  0  0  0  0
 46 51  1  0  0  0  0
 46 71  1  0  0  0  0
 47 77  1  0  0  0  0
 48 52  1  0  0  0  0
 48 77  1  0  0  0  0
 49 75  1  0  0  0  0
 50 70  1  0  0  0  0
 51 69  1  0  0  0  0
 52 64  1  0  0  0  0
 52 72  1  0  0  0  0
 53 63  1  0  0  0  0
 54 64  1  0  0  0  0
 55 65  1  0  0  0  0
 56 65  1  0  0  0  0
 57 65  1  0  0  0  0
 58 78  1  0  0  0  0
 59 79  1  0  0  0  0
 60 77  1  0  0  0  0
 61 64  1  0  0  0  0
 61 78  1  0  0  0  0
 62 65  1  0  0  0  0
 62 76  1  0  0  0  0
 63 79  1  0  0  0  0
 68 69  1  0  0  0  0
M  CHG  3  77   1  78   1  79   1
M  ISO  4  31 101  36 100  72 100  86 101
M  END
> <Batch ID>
0196

> <Smiles>
CNCC(C)C1CN(Cc2cn[101c:1]([101O:1]c3ccc4c(c3)CN(C(=O)C(NC(=O)C(C)NC)C(C)(C)C)C(C(=O)NC3CCCc5ccccc53)C4)nc2)CC[100N:0]1[100C:0](=O)N1CCCC(n2nc(-c3ccc(Oc4ccc(F)cc4F)cc3)c(C(N)=O)c2N)C1

> <Shape>
0.287

> <Color>
0.080

> <Negative vol penalty>
0.000

$$$$

  -OEChem-04052323393D

 86 94  0     1  0  0  0  0  0999 V2000
  -26.0472   -7.2527   20.4002 C   0  0  0  0  0  0  0  0  0  0  0  0
  -26.1615   -8.2457   19.4325 C   0  0  0  0  0  0  0  0  0  0  0  0
  -22.7126  -30.3150   23.3693 C   0  0  0  0  0  0  0  0  0  0  0  0
  -22.7366  -31.3436   21.1834 C   0  0  0  0  0  0  0  0  0  0  0  0
  -25.0147   -7.3079   21.3354 C   0  0  0  0  0  0  0  0  0  0  0  0
  -25.2425   -9.2939   19.3988 C   0  0  0  0  0  0  0  0  0  0  0  0
  -27.4007  -16.1392   20.0114 C   0  0  0  0  0  0  0  0  0  0  0  0
  -21.3390  -30.5397   23.4600 C   0  0  0  0  0  0  0  0  0  0  0  0
  -21.3629  -31.5683   21.2740 C   0  0  0  0  0  0  0  0  0  0  0  0
  -27.7552  -17.4846   19.9105 C   0  0  0  0  0  0  0  0  0  0  0  0
  -18.5015  -29.1353   22.2729 C   0  0  0  0  0  0  0  0  0  0  0  0
  -17.7028  -28.0896   22.7356 C   0  0  0  0  0  0  0  0  0  0  0  0
  -25.4192  -18.1057   19.8377 C   0  0  0  0  0  0  0  0  0  0  0  0
  -16.9625  -29.4693   24.5756 C   0  0  0  0  0  0  0  0  0  0  0  0
  -23.4115  -30.7170   22.2310 C   0  0  0  0  0  0  0  0  0  0  0  0
  -25.8306  -30.9758   22.9980 C   0  0  0  0  0  0  0  0  0  0  0  0
  -24.0882   -8.3625   21.3191 C   0  0  0  0  0  0  0  0  0  0  0  0
  -26.0523  -15.7726   20.0414 C   0  0  0  0  0  0  0  0  0  0  0  0
  -24.1957   -9.3625   20.3338 C   0  0  0  0  0  0  0  0  0  0  0  0
  -25.0580  -16.7606   19.9512 C   0  0  0  0  0  0  0  0  0  0  0  0
  -20.6641  -31.1663   22.4124 C   0  0  0  0  0  0  0  0  0  0  0  0
  -26.7669  -18.4654   19.8236 C   0  0  0  0  0  0  0  0  0  0  0  0
  -18.5308  -30.3480   22.9616 C   0  0  0  0  0  0  0  0  0  0  0  0
  -16.9332  -28.2566   23.8870 C   0  0  0  0  0  0  0  0  0  0  0  0
  -17.7613  -30.5150   24.1129 C   0  0  0  0  0  0  0  0  0  0  0  0
  -24.8305  -30.4857   22.1370 C   0  0  0  0  0  0  0  0  0  0  0  0
  -27.0020  -30.4766   22.4830 C   0  0  0  0  0  0  0  0  0  0  0  0
  -25.7114  -31.8078   24.1596 C   0  0  0  0  0  0  0  0  0  0  0  0
  -23.5383  -12.9981   20.2824 C   0  0  0  0  0  0  0  0  0  0  0  0
  -22.4742  -15.3154   21.9878 C   0  0  0  0  0  0  0  0  0  0  0  0
  -21.8626  -17.9313   24.0903 C   0  0  0  0  0  0  0  0  0  0  0  0
  -29.9661  -26.2706   20.3223 C   0  0  0  0  0  0  0  0  0  0  0  0
  -22.9611   -8.3540   22.3212 C   0  0  0  0  0  0  0  0  0  0  0  0
  -25.6246  -14.3308   20.0871 C   0  0  0  0  0  0  0  0  0  0  0  0
  -23.6205  -16.3170   19.9523 C   0  0  0  0  0  0  0  0  0  0  0  0
  -22.2502   -9.6988   22.4496 C   0  0  0  0  0  0  0  0  0  0  0  0
  -27.9419  -28.1611   18.0851 C   0  0  0  0  0  0  0  0  0  0  0  0
  -21.9438  -10.2745   21.0707 C   0  0  0  0  0  0  0  0  0  0  0  0
  -27.0309  -28.9696   19.0105 C   0  0  0  0  0  0  0  0  0  0  0  0
  -32.7539  -26.8869   21.8958 C   0  0  0  0  0  0  0  0  0  0  0  0
  -28.2155  -26.7654   18.6409 C   0  0  0  0  0  0  0  0  0  0  0  0
  -27.8268  -27.5479   20.9454 C   0  0  0  0  0  0  0  0  0  0  0  0
  -34.0878  -26.3774   22.4208 C   0  0  0  0  0  0  0  0  0  0  0  0
  -32.9040  -24.9390   24.0964 C   0  0  0  0  0  0  0  0  0  0  0  0
  -23.2330  -10.5288   20.2802 C   0  0  1  0  0  0  0  0  0  0  0  0
  -24.3362  -14.1090   20.8995 C   0  0  1  0  0  0  0  0  0  0  0  0
  -27.5675  -28.9825   20.4545 C   0  0  2  0  0  0  0  0  0  0  0  0
  -31.6337  -25.8637   22.1139 C   0  0  1  0  0  0  0  0  0  0  0  0
  -31.5516  -25.4400   23.5927 C   0  0  1  0  0  0  0  0  0  0  0  0
  -20.1903  -18.7613   25.7671 C   0  0  0  0  0  0  0  0  0  0  0  0
  -26.0391  -23.0354   21.3097 C   0  0  0  0  0  0  0  0  0  0  0  0
  -20.5897  -16.0918   19.7186 C   0  0  0  0  0  0  0  0  0  0  0  0
  -19.4753  -17.6937   21.2871 C   0  0  0  0  0  0  0  0  0  0  0  0
  -19.4504  -15.2482   21.7788 C   0  0  0  0  0  0  0  0  0  0  0  0
  -30.1056  -24.3616   25.1731 C   0  0  0  0  0  0  0  0  0  0  0  0
  -23.8705  -17.9338   26.2645 C   0  0  0  0  0  0  0  0  0  0  0  0
  -29.9593  -22.1098   23.0871 C   0  0  0  0  0  0  0  0  0  0  0  0
  -31.0859  -23.0971   23.3806 C   0  0  0  0  0  0  0  0  0  0  0  0
  -29.0507  -22.5877   21.9614 C   0  0  0  0  0  0  0  0  0  0  0  0
  -26.2164  -20.7333   20.2833 C   0  0  0  0  0  0  0  0  0  1  0  0
  -21.6038  -16.5450   22.0493 C   0  0  1  0  0  0  0  0  0  0  0  0
  -21.4753  -17.9755   25.5574 C   0  0  2  0  0  0  0  0  0  0  0  0
  -26.9676  -21.9853   20.7217 C   0  0  2  0  0  0  0  0  0  0  0  0
  -20.3077  -16.3965   21.2034 C   0  0  0  0  0  0  0  0  0  0  0  0
  -25.3235  -29.7331   21.1497 N   0  0  0  0  0  0  0  0  0  0  0  0
  -26.6462  -29.7466   21.3872 N   0  0  0  0  0  0  0  0  0  0  0  0
  -23.4213  -15.2617   20.9579 N   0  0  0  0  0  0  0  0  0  0  0  0
  -28.7237  -26.8479   20.0124 N   0  0  0  0  0  0  0  0  0  0  0  0
  -28.2913  -30.5954   22.8650 N   0  0  0  0  0  0  0  0  0  0  0  0
  -25.7726  -33.1983   23.9946 N   0  0  0  0  0  0  0  0  0  0  0  0
  -23.8779  -11.7396   20.7411 N   0  0  0  0  0  0  0  0  0  0  0  0
  -21.3667  -16.8070   23.4648 N   0  0  0  0  0  0  0  0  0  0  0  0
  -30.3765  -26.3995   21.6436 N   0  0  0  0  0  0  0  0  0  0  0  0
  -30.5574  -24.3813   23.7753 N   0  0  2  0  0  0  0  0  0  0  0  0
  -33.9382  -25.9903   23.8542 N   0  3  0  0  0  0  0  0  0  0  0  0
  -22.5551  -18.6176   26.3591 N   0  3  0  0  0  0  0  0  0  0  0  0
  -27.9576  -21.6010   21.7692 N   0  3  0  0  0  0  0  0  0  0  0  0
  -25.5718  -31.3318   25.3117 O   0  0  0  0  0  0  0  0  0  0  0  0
  -22.6765  -13.2622   19.4522 O   0  0  0  0  0  0  0  0  0  0  0  0
  -22.3171  -14.4227   22.8255 O   0  0  0  0  0  0  0  0  0  0  0  0
  -22.5345  -18.8084   23.5520 O   0  0  0  0  0  0  0  0  0  0  0  0
  -30.6609  -25.6884   19.4824 O   0  0  0  0  0  0  0  0  0  0  0  0
  -19.3237  -31.3855   22.5004 O   0  0  0  0  0  0  0  0  0  0  0  0
  -27.1199  -19.7774   19.7298 O   0  0  0  0  0  0  0  0  0  1  0  0
  -16.1651  -27.2529   24.3303 F   0  0  0  0  0  0  0  0  0  0  0  0
  -17.7844  -31.6781   24.7780 F   0  0  0  0  0  0  0  0  0  0  0  0
  1  2  1  0  0  0  0
  1  5  2  0  0  0  0
  2  6  2  0  0  0  0
  3  8  2  0  0  0  0
  3 15  1  0  0  0  0
  4  9  1  0  0  0  0
  4 15  2  0  0  0  0
  5 17  1  0  0  0  0
  6 19  1  0  0  0  0
  7 10  2  0  0  0  0
  7 18  1  0  0  0  0
  8 21  1  0  0  0  0
  9 21  2  0  0  0  0
 10 22  1  0  0  0  0
 11 12  2  0  0  0  0
 11 23  1  0  0  0  0
 12 24  1  0  0  0  0
 13 20  1  0  0  0  0
 13 22  2  0  0  0  0
 14 24  2  0  0  0  0
 14 25  1  0  0  0  0
 15 26  1  0  0  0  0
 16 26  1  0  0  0  0
 16 27  2  0  0  0  0
 16 28  1  0  0  0  0
 17 19  2  0  0  0  0
 17 33  1  0  0  0  0
 18 20  2  0  0  0  0
 18 34  1  0  0  0  0
 19 45  1  0  0  0  0
 20 35  1  0  0  0  0
 21 83  1  0  0  0  0
 22 84  1  0  0  0  0
 23 25  2  0  0  0  0
 23 83  1  0  0  0  0
 24 85  1  0  0  0  0
 25 86  1  0  0  0  0
 26 65  2  0  0  0  0
 27 66  1  0  0  0  0
 27 69  1  0  0  0  0
 28 70  1  0  0  0  0
 28 78  2  0  0  0  0
 29 46  1  0  0  0  0
 29 71  1  0  0  0  0
 29 79  2  0  0  0  0
 30 61  1  0  0  0  0
 30 67  1  0  0  0  0
 30 80  2  0  0  0  0
 31 62  1  0  0  0  0
 31 72  1  0  0  0  0
 31 81  2  0  0  0  0
 32 68  1  0  0  0  0
 32 73  1  0  0  0  0
 32 82  2  0  0  0  0
 33 36  1  0  0  0  0
 34 46  1  0  0  0  0
 35 67  1  0  0  0  0
 36 38  1  0  0  0  0
 37 39  1  0  0  0  0
 37 41  1  0  0  0  0
 38 45  1  0  0  0  0
 39 47  1  0  0  0  0
 40 43  1  0  0  0  0
 40 48  1  0  0  0  0
 41 68  1  0  0  0  0
 42 47  1  0  0  0  0
 42 68  1  0  0  0  0
 43 75  1  0  0  0  0
 44 49  1  0  0  0  0
 44 75  1  0  0  0  0
 45 71  1  0  0  0  0
 46 67  1  0  0  0  0
 47 66  1  0  0  0  0
 48 49  1  0  0  0  0
 48 73  1  0  0  0  0
 49 74  1  0  0  0  0
 50 62  1  0  0  0  0
 51 63  1  0  0  0  0
 52 64  1  0  0  0  0
 53 64  1  0  0  0  0
 54 64  1  0  0  0  0
 55 74  1  0  0  0  0
 56 76  1  0  0  0  0
 57 58  1  0  0  0  0
 57 59  1  0  0  0  0
 58 74  1  0  0  0  0
 59 77  1  0  0  0  0
 60 63  1  0  0  0  0
 60 84  1  0  0  0  0
 61 64  1  0  0  0  0
 61 72  1  0  0  0  0
 62 76  1  0  0  0  0
 63 77  1  0  0  0  0
 65 66  1  0  0  0  0
M  CHG  3  75   1  76   1  77   1
M  ISO  4  32 100  60 101  73 100  84 101
M  END
> <Batch ID>
0196

> <Smiles>
CNC(C)C(=O)NC(C(=O)N1Cc2cc([101O:1][101CH2:1]C(C)NCCCN(C)C3CNCCC3[100NH:0][100C:0](=O)N3CCCC(n4nc(-c5ccc(Oc6ccc(F)cc6F)cc5)c(C(N)=O)c4N)C3)ccc2CC1C(=O)NC1CCCc2ccccc21)C(C)(C)C

> <Shape>
0.237

> <Color>
0.064

> <Negative vol penalty>
0.000

$$$$

  -OEChem-04052323393D

 84 93  0     1  0  0  0  0  0999 V2000
  -18.8737  -32.3730   21.2696 C   0  0  0  0  0  0  0  0  0  0  0  0
  -20.0715  -31.6661   21.2403 C   0  0  0  0  0  0  0  0  0  0  0  0
  -24.7093  -13.7888   21.2218 C   0  0  0  0  0  0  0  0  0  0  0  0
  -26.5380  -13.4189   19.6868 C   0  0  0  0  0  0  0  0  0  0  0  0
  -17.7853  -31.8688   21.9804 C   0  0  0  0  0  0  0  0  0  0  0  0
  -20.1820  -30.4551   21.9226 C   0  0  0  0  0  0  0  0  0  0  0  0
  -22.4732  -26.8757   19.1688 C   0  0  0  0  0  0  0  0  0  0  0  0
  -24.1232  -12.5912   20.8123 C   0  0  0  0  0  0  0  0  0  0  0  0
  -25.9519  -12.2212   19.2773 C   0  0  0  0  0  0  0  0  0  0  0  0
  -23.8625  -26.9392   19.0712 C   0  0  0  0  0  0  0  0  0  0  0  0
  -22.3280   -9.4532   20.4314 C   0  0  0  0  0  0  0  0  0  0  0  0
  -21.8303   -8.6037   21.4193 C   0  0  0  0  0  0  0  0  0  0  0  0
  -32.2666  -21.3170   20.9171 C   0  0  0  0  0  0  0  0  0  0  0  0
  -24.0535  -25.2349   20.7678 C   0  0  0  0  0  0  0  0  0  0  0  0
  -24.0375   -8.4365   22.3875 C   0  0  0  0  0  0  0  0  0  0  0  0
  -33.3761  -22.0885   21.1967 C   0  0  0  0  0  0  0  0  0  0  0  0
  -25.9167  -14.2027   20.6591 C   0  0  0  0  0  0  0  0  0  0  0  0
  -27.4414  -15.6215   22.1321 C   0  0  0  0  0  0  0  0  0  0  0  0
  -17.8795  -30.6462   22.6638 C   0  0  0  0  0  0  0  0  0  0  0  0
  -21.8627  -25.9976   20.0759 C   0  0  0  0  0  0  0  0  0  0  0  0
  -19.0943  -29.9347   22.6443 C   0  0  0  0  0  0  0  0  0  0  0  0
  -22.6562  -25.1603   20.8731 C   0  0  0  0  0  0  0  0  0  0  0  0
  -24.7445  -11.8074   19.8400 C   0  0  0  0  0  0  0  0  0  0  0  0
  -24.6529  -26.1208   19.8728 C   0  0  0  0  0  0  0  0  0  0  0  0
  -23.6805   -9.7944   20.4214 C   0  0  0  0  0  0  0  0  0  0  0  0
  -22.6850   -8.0953   22.3974 C   0  0  0  0  0  0  0  0  0  0  0  0
  -24.5352   -9.2860   21.3995 C   0  0  0  0  0  0  0  0  0  0  0  0
  -26.5224  -15.4400   21.0813 C   0  0  0  0  0  0  0  0  0  0  0  0
  -31.2143  -21.9795   20.3186 C   0  0  0  0  0  0  0  0  0  0  0  0
  -27.7093  -16.9686   22.1252 C   0  0  0  0  0  0  0  0  0  0  0  0
  -32.3713  -23.9361   20.3344 C   0  0  0  0  0  0  0  0  0  0  0  0
  -28.0029  -14.6585   23.0338 C   0  0  0  0  0  0  0  0  0  0  0  0
  -19.9672  -26.3445   22.6038 C   0  0  0  0  0  0  0  0  0  0  0  0
  -19.8589  -23.1049   22.4790 C   0  0  0  0  0  0  0  0  0  0  0  0
  -21.3392  -20.1925   21.4925 C   0  0  0  0  0  0  0  0  0  0  0  0
  -28.8818  -21.6878   19.4128 C   0  0  0  0  0  0  0  0  0  0  0  0
  -16.6908  -30.1648   23.4575 C   0  0  0  0  0  0  0  0  0  0  0  0
  -20.3623  -25.9219   20.1500 C   0  0  0  0  0  0  0  0  0  0  0  0
  -22.0496  -24.1860   21.8483 C   0  0  0  0  0  0  0  0  0  0  0  0
  -16.7734  -28.6903   23.8442 C   0  0  0  0  0  0  0  0  0  0  0  0
  -25.4516  -20.7633   19.6503 C   0  0  0  0  0  0  0  0  0  0  0  0
  -18.1548  -28.3611   24.4012 C   0  0  0  0  0  0  0  0  0  0  0  0
  -25.5000  -19.3109   20.1302 C   0  0  0  0  0  0  0  0  0  0  0  0
  -31.1923  -27.4966   19.5532 C   0  0  0  0  0  0  0  0  0  0  0  0
  -26.5876  -21.0776   18.6784 C   0  0  0  0  0  0  0  0  0  0  0  0
  -27.9802  -19.2902   19.6453 C   0  0  0  0  0  0  0  0  0  0  0  0
  -19.2455  -28.6053   23.3513 C   0  0  1  0  0  0  0  0  0  0  0  0
  -19.8571  -25.3591   21.4749 C   0  0  1  0  0  0  0  0  0  0  0  0
  -26.8938  -18.9440   20.6766 C   0  0  2  0  0  0  0  0  0  0  0  0
  -31.3327  -26.0055   19.4045 C   0  0  2  0  0  0  0  0  0  0  0  0
  -30.2037  -26.5814   20.2162 C   0  0  2  0  0  0  0  0  0  0  0  0
  -21.0316  -17.7030   21.5659 C   0  0  0  0  0  0  0  0  0  0  0  0
  -20.7116  -23.0884   25.4086 C   0  0  0  0  0  0  0  0  0  0  0  0
  -21.3009  -20.6687   25.1511 C   0  0  0  0  0  0  0  0  0  0  0  0
  -18.9436  -21.4179   24.8272 C   0  0  0  0  0  0  0  0  0  0  0  0
  -21.2538  -19.9995   18.5405 C   0  0  0  0  0  0  0  0  0  0  0  0
  -27.9269  -27.6000   20.0841 C   0  0  0  0  0  0  0  0  0  0  0  0
  -26.5796  -27.4356   19.4089 C   0  0  0  0  0  0  0  0  0  1  0  0
  -20.6760  -21.9842   23.0750 C   0  0  1  0  0  0  0  0  0  0  0  0
  -20.7875  -18.9762   20.7708 C   0  0  2  0  0  0  0  0  0  0  0  0
  -20.4198  -21.8094   24.5986 C   0  0  0  0  0  0  0  0  0  0  0  0
  -33.4629  -23.4057   20.9179 N   0  0  0  0  0  0  0  0  0  0  0  0
  -26.2261  -16.5807   20.4527 N   0  0  0  0  0  0  0  0  0  0  0  0
  -31.2326  -23.2933   20.0122 N   0  0  0  0  0  0  0  0  0  0  0  0
  -26.9632  -17.4918   21.1104 N   0  0  0  0  0  0  0  0  0  0  0  0
  -20.5782  -24.1536   21.8885 N   0  0  0  0  0  0  0  0  0  0  0  0
  -27.8774  -20.7079   19.2653 N   0  0  0  0  0  0  0  0  0  0  0  0
  -28.5078  -17.7448   22.8883 N   0  0  0  0  0  0  0  0  0  0  0  0
  -27.6197  -13.3168   22.9018 N   0  0  0  0  0  0  0  0  0  0  0  0
  -30.0532  -21.2271   20.0129 N   0  0  0  0  0  0  0  0  0  0  0  0
  -32.4248  -25.2824   20.0361 N   0  0  0  0  0  0  0  0  0  0  0  0
  -19.2755  -27.5219   22.3923 N   0  0  0  0  0  0  0  0  0  0  0  0
  -20.3820  -20.7970   22.2796 N   0  0  0  0  0  0  0  0  0  0  0  0
  -28.8334  -26.5110   19.6407 N   0  3  0  0  0  0  0  0  0  0  0  0
  -21.4343  -18.8282   19.4363 N   0  3  0  0  0  0  0  0  0  0  0  0
  -28.8076  -14.9808   23.9405 O   0  0  0  0  0  0  0  0  0  0  0  0
  -20.6294  -26.0573   23.5941 O   0  0  0  0  0  0  0  0  0  0  0  0
  -18.6277  -23.0484   22.5289 O   0  0  0  0  0  0  0  0  0  0  0  0
  -22.5038  -20.5665   21.3731 O   0  0  0  0  0  0  0  0  0  0  0  0
  -28.7050  -22.8566   19.0595 O   0  0  0  0  0  0  0  0  0  0  0  0
  -24.1729  -10.6386   19.4403 O   0  0  0  0  0  0  0  0  0  0  0  0
  -26.0093  -26.1813   19.7801 O   0  0  0  0  0  0  0  0  0  1  0  0
  -22.2066   -7.2807   23.3470 F   0  0  0  0  0  0  0  0  0  0  0  0
  -25.8352   -9.6112   21.3958 F   0  0  0  0  0  0  0  0  0  0  0  0
  1  2  1  0  0  0  0
  1  5  2  0  0  0  0
  2  6  2  0  0  0  0
  3  8  2  0  0  0  0
  3 17  1  0  0  0  0
  4  9  1  0  0  0  0
  4 17  2  0  0  0  0
  5 19  1  0  0  0  0
  6 21  1  0  0  0  0
  7 10  2  0  0  0  0
  7 20  1  0  0  0  0
  8 23  1  0  0  0  0
  9 23  2  0  0  0  0
 10 24  1  0  0  0  0
 11 12  2  0  0  0  0
 11 25  1  0  0  0  0
 12 26  1  0  0  0  0
 13 16  1  0  0  0  0
 13 29  2  0  0  0  0
 14 22  1  0  0  0  0
 14 24  2  0  0  0  0
 15 26  2  0  0  0  0
 15 27  1  0  0  0  0
 16 62  2  0  0  0  0
 17 28  1  0  0  0  0
 18 28  1  0  0  0  0
 18 30  2  0  0  0  0
 18 32  1  0  0  0  0
 19 21  2  0  0  0  0
 19 37  1  0  0  0  0
 20 22  2  0  0  0  0
 20 38  1  0  0  0  0
 21 47  1  0  0  0  0
 22 39  1  0  0  0  0
 23 81  1  0  0  0  0
 24 82  1  0  0  0  0
 25 27  2  0  0  0  0
 25 81  1  0  0  0  0
 26 83  1  0  0  0  0
 27 84  1  0  0  0  0
 28 63  2  0  0  0  0
 29 64  1  0  0  0  0
 29 70  1  0  0  0  0
 30 65  1  0  0  0  0
 30 68  1  0  0  0  0
 31 62  1  0  0  0  0
 31 64  2  0  0  0  0
 31 71  1  0  0  0  0
 32 69  1  0  0  0  0
 32 76  2  0  0  0  0
 33 48  1  0  0  0  0
 33 72  1  0  0  0  0
 33 77  2  0  0  0  0
 34 59  1  0  0  0  0
 34 66  1  0  0  0  0
 34 78  2  0  0  0  0
 35 60  1  0  0  0  0
 35 73  1  0  0  0  0
 35 79  2  0  0  0  0
 36 67  1  0  0  0  0
 36 70  1  0  0  0  0
 36 80  2  0  0  0  0
 37 40  1  0  0  0  0
 38 48  1  0  0  0  0
 39 66  1  0  0  0  0
 40 42  1  0  0  0  0
 41 43  1  0  0  0  0
 41 45  1  0  0  0  0
 42 47  1  0  0  0  0
 43 49  1  0  0  0  0
 44 50  1  0  0  0  0
 44 51  1  0  0  0  0
 45 67  1  0  0  0  0
 46 49  1  0  0  0  0
 46 67  1  0  0  0  0
 47 72  1  0  0  0  0
 48 66  1  0  0  0  0
 49 65  1  0  0  0  0
 50 51  1  0  0  0  0
 50 71  1  0  0  0  0
 51 74  1  0  0  0  0
 52 60  1  0  0  0  0
 53 61  1  0  0  0  0
 54 61  1  0  0  0  0
 55 61  1  0  0  0  0
 56 75  1  0  0  0  0
 57 58  1  0  0  0  0
 57 74  1  0  0  0  0
 58 82  1  0  0  0  0
 59 61  1  0  0  0  0
 59 73  1  0  0  0  0
 60 75  1  0  0  0  0
 63 65  1  0  0  0  0
M  CHG  2  74   1  75   1
M  ISO  4  36 100  58 101  70 100  82 101
M  END
> <Batch ID>
0196

> <Smiles>
CNC(C)C(=O)NC(C(=O)N1Cc2cc([101O:1][101CH2:1]CNC3CC3Nc3nccc([100NH:0][100C:0](=O)N4CCCC(n5nc(-c6ccc(Oc7ccc(F)cc7F)cc6)c(C(N)=O)c5N)C4)n3)ccc2CC1C(=O)NC1CCCc2ccccc21)C(C)(C)C

> <Shape>
0.223

> <Color>
0.064

> <Negative vol penalty>
0.000

$$$$

  -OEChem-04052323393D

 79 87  0     1  0  0  0  0  0999 V2000
  -32.4765  -31.2511   15.7912 C   0  0  0  0  0  0  0  0  0  0  0  0
  -31.7915  -30.0856   15.4629 C   0  0  0  0  0  0  0  0  0  0  0  0
  -24.3737  -15.3979   23.1286 C   0  0  0  0  0  0  0  0  0  0  0  0
  -23.5401  -16.1356   20.9843 C   0  0  0  0  0  0  0  0  0  0  0  0
  -32.6016  -31.6322   17.1265 C   0  0  0  0  0  0  0  0  0  0  0  0
  -31.2321  -29.2999   16.4700 C   0  0  0  0  0  0  0  0  0  0  0  0
  -25.6419  -25.0054   17.7442 C   0  0  0  0  0  0  0  0  0  0  0  0
  -23.7677  -16.4946   23.7415 C   0  0  0  0  0  0  0  0  0  0  0  0
  -22.9341  -17.2323   21.5971 C   0  0  0  0  0  0  0  0  0  0  0  0
  -25.3521  -23.7266   18.2181 C   0  0  0  0  0  0  0  0  0  0  0  0
  -22.1369  -18.9040   25.9211 C   0  0  0  0  0  0  0  0  0  0  0  0
  -21.4312  -18.6784   27.1029 C   0  0  0  0  0  0  0  0  0  0  0  0
  -25.5629  -24.5254   20.4846 C   0  0  0  0  0  0  0  0  0  0  0  0
  -19.9598  -17.1596   25.9343 C   0  0  0  0  0  0  0  0  0  0  0  0
  -24.2600  -15.2184   21.7500 C   0  0  0  0  0  0  0  0  0  0  0  0
  -24.3225  -12.8148   20.8978 C   0  0  0  0  0  0  0  0  0  0  0  0
  -32.0351  -30.8559   18.1497 C   0  0  0  0  0  0  0  0  0  0  0  0
  -25.9056  -26.0530   18.6383 C   0  0  0  0  0  0  0  0  0  0  0  0
  -31.3508  -29.6703   17.8203 C   0  0  0  0  0  0  0  0  0  0  0  0
  -25.8533  -25.8171   20.0195 C   0  0  0  0  0  0  0  0  0  0  0  0
  -23.0478  -17.4118   22.9758 C   0  0  0  0  0  0  0  0  0  0  0  0
  -25.3154  -23.4858   19.5884 C   0  0  0  0  0  0  0  0  0  0  0  0
  -21.7540  -18.2574   24.7458 C   0  0  0  0  0  0  0  0  0  0  0  0
  -20.3427  -17.8062   27.1095 C   0  0  0  0  0  0  0  0  0  0  0  0
  -20.6655  -17.3852   24.7525 C   0  0  0  0  0  0  0  0  0  0  0  0
  -24.8863  -14.0861   21.1162 C   0  0  0  0  0  0  0  0  0  0  0  0
  -25.3136  -12.1034   20.2669 C   0  0  0  0  0  0  0  0  0  0  0  0
  -23.0193  -12.3211   21.2350 C   0  0  0  0  0  0  0  0  0  0  0  0
  -28.4009  -27.9360   19.2142 C   0  0  0  0  0  0  0  0  0  0  0  0
  -26.3252  -29.4183   21.2183 C   0  0  0  0  0  0  0  0  0  0  0  0
  -23.5013  -29.2261   23.1251 C   0  0  0  0  0  0  0  0  0  0  0  0
  -29.0551  -16.1311   19.7781 C   0  0  0  0  0  0  0  0  0  0  0  0
  -32.2370  -31.2836   19.5819 C   0  0  0  0  0  0  0  0  0  0  0  0
  -26.1903  -27.4328   18.1114 C   0  0  0  0  0  0  0  0  0  0  0  0
  -26.1089  -26.9123   21.0213 C   0  0  0  0  0  0  0  0  0  0  0  0
  -31.2930  -30.5928   20.5627 C   0  0  0  0  0  0  0  0  0  0  0  0
  -29.3717  -12.9839   21.4400 C   0  0  0  0  0  0  0  0  0  0  0  0
  -27.7614  -17.5452   16.6998 C   0  0  0  0  0  0  0  0  0  0  0  0
  -31.2445  -29.0927   20.2903 C   0  0  0  0  0  0  0  0  0  0  0  0
  -28.6744  -11.9856   20.5225 C   0  0  0  0  0  0  0  0  0  0  0  0
  -27.1813  -18.5497   17.6854 C   0  0  0  0  0  0  0  0  0  0  0  0
  -30.0836  -14.0533   20.6260 C   0  0  0  0  0  0  0  0  0  0  0  0
  -27.8600  -16.2784   17.5356 C   0  0  0  0  0  0  0  0  0  0  0  0
  -28.3927  -13.8683   18.8115 C   0  0  0  0  0  0  0  0  0  0  0  0
  -30.7087  -28.8047   18.8826 C   0  0  1  0  0  0  0  0  0  0  0  0
  -26.9489  -28.3070   19.1051 C   0  0  1  0  0  0  0  0  0  0  0  0
  -27.7273  -12.6669   19.5217 C   0  0  2  0  0  0  0  0  0  0  0  0
  -27.8672  -18.1841   19.0046 C   0  0  1  0  0  0  0  0  0  0  0  0
  -22.0769  -30.5881   24.6785 C   0  0  0  0  0  0  0  0  0  0  0  0
  -28.4001  -29.0646   23.4272 C   0  0  0  0  0  0  0  0  0  0  0  0
  -26.6014  -29.5522   25.0991 C   0  0  0  0  0  0  0  0  0  0  0  0
  -27.2478  -31.2841   23.4242 C   0  0  0  0  0  0  0  0  0  0  0  0
  -21.1394  -28.9838   21.3584 C   0  0  0  0  0  0  0  0  0  0  0  0
  -26.9817  -18.4813   20.2079 C   0  0  0  0  0  0  0  0  0  0  0  0
  -25.7940  -20.3576   21.3514 C   0  0  0  0  0  0  0  0  0  0  0  0
  -25.6148  -21.8620   21.3000 C   0  0  0  0  0  0  0  0  0  1  0  0
  -25.9396  -29.2567   22.6689 C   0  0  1  0  0  0  0  0  0  0  0  0
  -22.2993  -30.1460   23.2405 C   0  0  2  0  0  0  0  0  0  0  0  0
  -27.0443  -29.7681   23.6362 C   0  0  0  0  0  0  0  0  0  0  0  0
  -26.1385  -14.1799   20.6611 N   0  0  0  0  0  0  0  0  0  0  0  0
  -26.3698  -12.9585   20.1506 N   0  0  0  0  0  0  0  0  0  0  0  0
  -26.3892  -28.2428   20.4567 N   0  0  0  0  0  0  0  0  0  0  0  0
  -29.1746  -14.7354   19.7047 N   0  0  0  0  0  0  0  0  0  0  0  0
  -28.1888  -16.7573   18.8792 N   0  0  0  0  0  0  0  0  0  0  0  0
  -25.3760  -10.8361   19.8059 N   0  0  0  0  0  0  0  0  0  0  0  0
  -22.1242  -13.1847   21.8809 N   0  0  0  0  0  0  0  0  0  0  0  0
  -29.2690  -28.9478   18.8507 N   0  0  0  0  0  0  0  0  0  0  0  0
  -24.6520  -29.9244   22.8259 N   0  0  0  0  0  0  0  0  0  0  0  0
  -21.0686  -29.4521   22.7664 N   0  3  0  0  0  0  0  0  0  0  0  0
  -26.7024  -19.9323   20.2488 N   0  3  0  0  0  0  0  0  0  0  0  0
  -22.6651  -11.1437   20.9861 O   0  0  0  0  0  0  0  0  0  0  0  0
  -28.7106  -26.8152   19.6009 O   0  0  0  0  0  0  0  0  0  0  0  0
  -26.5539  -30.5466   20.7755 O   0  0  0  0  0  0  0  0  0  0  0  0
  -23.4276  -28.0101   23.2880 O   0  0  0  0  0  0  0  0  0  0  0  0
  -29.7012  -16.7902   20.6035 O   0  0  0  0  0  0  0  0  0  0  0  0
  -22.4561  -18.4819   23.5735 O   0  0  0  0  0  0  0  0  0  0  0  0
  -25.0314  -22.2295   20.0570 O   0  0  0  0  0  0  0  0  0  1  0  0
  -19.6661  -17.5884   28.2449 F   0  0  0  0  0  0  0  0  0  0  0  0
  -20.2937  -16.7603   23.6269 F   0  0  0  0  0  0  0  0  0  0  0  0
  1  2  1  0  0  0  0
  1  5  2  0  0  0  0
  2  6  2  0  0  0  0
  3  8  2  0  0  0  0
  3 15  1  0  0  0  0
  4  9  1  0  0  0  0
  4 15  2  0  0  0  0
  5 17  1  0  0  0  0
  6 19  1  0  0  0  0
  7 10  2  0  0  0  0
  7 18  1  0  0  0  0
  8 21  1  0  0  0  0
  9 21  2  0  0  0  0
 10 22  1  0  0  0  0
 11 12  2  0  0  0  0
 11 23  1  0  0  0  0
 12 24  1  0  0  0  0
 13 20  1  0  0  0  0
 13 22  2  0  0  0  0
 14 24  2  0  0  0  0
 14 25  1  0  0  0  0
 15 26  1  0  0  0  0
 16 26  1  0  0  0  0
 16 27  2  0  0  0  0
 16 28  1  0  0  0  0
 17 19  2  0  0  0  0
 17 33  1  0  0  0  0
 18 20  2  0  0  0  0
 18 34  1  0  0  0  0
 19 45  1  0  0  0  0
 20 35  1  0  0  0  0
 21 76  1  0  0  0  0
 22 77  1  0  0  0  0
 23 25  2  0  0  0  0
 23 76  1  0  0  0  0
 24 78  1  0  0  0  0
 25 79  1  0  0  0  0
 26 60  2  0  0  0  0
 27 61  1  0  0  0  0
 27 65  1  0  0  0  0
 28 66  1  0  0  0  0
 28 71  2  0  0  0  0
 29 46  1  0  0  0  0
 29 67  1  0  0  0  0
 29 72  2  0  0  0  0
 30 57  1  0  0  0  0
 30 62  1  0  0  0  0
 30 73  2  0  0  0  0
 31 58  1  0  0  0  0
 31 68  1  0  0  0  0
 31 74  2  0  0  0  0
 32 63  1  0  0  0  0
 32 64  1  0  0  0  0
 32 75  2  0  0  0  0
 33 36  1  0  0  0  0
 34 46  1  0  0  0  0
 35 62  1  0  0  0  0
 36 39  1  0  0  0  0
 37 40  1  0  0  0  0
 37 42  1  0  0  0  0
 38 41  1  0  0  0  0
 38 43  1  0  0  0  0
 39 45  1  0  0  0  0
 40 47  1  0  0  0  0
 41 48  1  0  0  0  0
 42 63  1  0  0  0  0
 43 64  1  0  0  0  0
 44 47  1  0  0  0  0
 44 63  1  0  0  0  0
 45 67  1  0  0  0  0
 46 62  1  0  0  0  0
 47 61  1  0  0  0  0
 48 54  1  0  0  0  0
 48 64  1  0  0  0  0
 49 58  1  0  0  0  0
 50 59  1  0  0  0  0
 51 59  1  0  0  0  0
 52 59  1  0  0  0  0
 53 69  1  0  0  0  0
 54 70  1  0  0  0  0
 55 56  1  0  0  0  0
 55 70  1  0  0  0  0
 56 77  1  0  0  0  0
 57 59  1  0  0  0  0
 57 68  1  0  0  0  0
 58 69  1  0  0  0  0
 60 61  1  0  0  0  0
M  CHG  2  69   1  70   1
M  ISO  4  32 100  56 101  64 100  77 101
M  END
> <Batch ID>
0196

> <Smiles>
CNC(C)C(=O)NC(C(=O)N1Cc2cc([101O:1][101CH2:1]CNCC3CCC[100N:0]3[100C:0](=O)N3CCCC(n4nc(-c5ccc(Oc6ccc(F)cc6F)cc5)c(C(N)=O)c4N)C3)ccc2CC1C(=O)NC1CCCc2ccccc21)C(C)(C)C

> <Shape>
0.200

> <Color>
0.098

> <Negative vol penalty>
0.000

$$$$

  -OEChem-04052323393D

 88 98  0     1  0  0  0  0  0999 V2000
  -14.7799  -31.8178   22.6734 C   0  0  0  0  0  0  0  0  0  0  0  0
  -15.6563  -30.8954   22.1109 C   0  0  0  0  0  0  0  0  0  0  0  0
  -22.9163   -9.1929   19.7142 C   0  0  0  0  0  0  0  0  0  0  0  0
  -24.5053   -8.6267   21.4438 C   0  0  0  0  0  0  0  0  0  0  0  0
  -15.1784  -33.1432   22.8424 C   0  0  0  0  0  0  0  0  0  0  0  0
  -16.9316  -31.2981   21.7160 C   0  0  0  0  0  0  0  0  0  0  0  0
  -22.0803  -27.9919   21.9715 C   0  0  0  0  0  0  0  0  0  0  0  0
  -21.8995   -8.5828   20.4486 C   0  0  0  0  0  0  0  0  0  0  0  0
  -23.4884   -8.0166   22.1783 C   0  0  0  0  0  0  0  0  0  0  0  0
  -22.7680  -27.2512   21.0112 C   0  0  0  0  0  0  0  0  0  0  0  0
  -21.8034   -5.0857   22.1421 C   0  0  0  0  0  0  0  0  0  0  0  0
  -22.0705   -3.8385   22.7067 C   0  0  0  0  0  0  0  0  0  0  0  0
  -24.2150  -29.1373   20.6013 C   0  0  0  0  0  0  0  0  0  0  0  0
  -21.6487   -4.7440   24.9065 C   0  0  0  0  0  0  0  0  0  0  0  0
  -29.0154  -21.3656   19.9835 C   0  0  0  0  0  0  0  0  0  0  0  0
  -30.2239  -23.0739   21.6662 C   0  0  0  0  0  0  0  0  0  0  0  0
  -24.2193   -9.2148   20.2118 C   0  0  0  0  0  0  0  0  0  0  0  0
  -25.7057   -9.5034   18.1588 C   0  0  0  0  0  0  0  0  0  0  0  0
  -16.4626  -33.5602   22.4582 C   0  0  0  0  0  0  0  0  0  0  0  0
  -22.4485  -29.3168   22.2466 C   0  0  0  0  0  0  0  0  0  0  0  0
  -17.3472  -32.6306   21.8787 C   0  0  0  0  0  0  0  0  0  0  0  0
  -23.5320  -29.8919   21.5674 C   0  0  0  0  0  0  0  0  0  0  0  0
  -22.1855   -7.9947   21.6806 C   0  0  0  0  0  0  0  0  0  0  0  0
  -23.8337  -27.8248   20.3239 C   0  0  0  0  0  0  0  0  0  0  0  0
  -21.4590   -6.1621   22.9597 C   0  0  0  0  0  0  0  0  0  0  0  0
  -21.9931   -3.6676   24.0889 C   0  0  0  0  0  0  0  0  0  0  0  0
  -21.3817   -5.9912   24.3419 C   0  0  0  0  0  0  0  0  0  0  0  0
  -25.2702   -9.8444   19.4533 C   0  0  0  0  0  0  0  0  0  0  0  0
  -28.7978  -22.7273   19.9303 C   0  0  0  0  0  0  0  0  0  0  0  0
  -29.8947  -20.9392   20.9578 C   0  0  0  0  0  0  0  0  0  0  0  0
  -26.7171  -10.3934   17.8912 C   0  0  0  0  0  0  0  0  0  0  0  0
  -25.2378   -8.4743   17.2769 C   0  0  0  0  0  0  0  0  0  0  0  0
  -21.0071  -32.1401   22.0128 C   0  0  0  0  0  0  0  0  0  0  0  0
  -23.6984  -33.1987   23.4820 C   0  0  0  0  0  0  0  0  0  0  0  0
  -26.8295  -33.7079   24.7404 C   0  0  0  0  0  0  0  0  0  0  0  0
  -27.5382  -15.8714   20.3438 C   0  0  0  0  0  0  0  0  0  0  0  0
  -16.8316  -35.0139   22.6170 C   0  0  0  0  0  0  0  0  0  0  0  0
  -21.7135  -30.0935   23.3044 C   0  0  0  0  0  0  0  0  0  0  0  0
  -23.9798  -31.3038   21.8402 C   0  0  0  0  0  0  0  0  0  0  0  0
  -18.3322  -35.2758   22.5170 C   0  0  0  0  0  0  0  0  0  0  0  0
  -29.8144  -12.8574   20.6894 C   0  0  0  0  0  0  0  0  0  0  0  0
  -18.9238  -34.5402   21.3188 C   0  0  0  0  0  0  0  0  0  0  0  0
  -29.1365  -11.8331   19.7817 C   0  0  0  0  0  0  0  0  0  0  0  0
  -28.4882  -24.2863   17.9327 C   0  0  0  0  0  0  0  0  0  0  0  0
  -29.5339  -14.2928   20.2583 C   0  0  0  0  0  0  0  0  0  0  0  0
  -27.1909  -13.4468   20.0858 C   0  0  0  0  0  0  0  0  0  0  0  0
  -29.8092  -17.1536   20.6861 C   0  0  0  0  0  0  0  0  0  0  0  0
  -28.0644  -18.3630   20.4874 C   0  0  0  0  0  0  0  0  0  0  0  0
  -27.2808  -24.9346   17.2885 C   0  0  0  0  0  0  0  0  0  0  0  0
  -26.6625  -24.0538   19.4862 C   0  0  0  0  0  0  0  0  0  0  0  0
  -18.7475  -33.0235   21.4605 C   0  0  1  0  0  0  0  0  0  0  0  0
  -27.8510  -23.2893   18.8983 C   0  0  2  0  0  0  0  0  0  0  0  0
  -21.8469  -31.6041   23.1375 C   0  0  1  0  0  0  0  0  0  0  0  0
  -27.7913  -12.3287   19.2209 C   0  0  2  0  0  0  0  0  0  0  0  0
  -29.5517  -18.5858   20.2023 C   0  0  0  0  0  0  0  0  0  0  0  0
  -28.3550  -35.5284   25.5504 C   0  0  0  0  0  0  0  0  0  0  0  0
  -24.2159  -34.0454   20.5966 C   0  0  0  0  0  0  0  0  0  0  0  0
  -26.3420  -35.1201   21.3667 C   0  0  0  0  0  0  0  0  0  0  0  0
  -24.1500  -35.9288   22.2407 C   0  0  0  0  0  0  0  0  0  0  0  0
  -27.0058  -32.5168   27.4440 C   0  0  0  0  0  0  0  0  0  0  0  0
  -24.8862  -25.1408   18.0428 C   0  0  0  0  0  0  0  0  0  0  0  0
  -24.0682  -25.7671   19.1549 C   0  0  0  0  0  0  0  0  0  1  0  0
  -25.0458  -33.6954   23.0163 C   0  0  1  0  0  0  0  0  0  0  0  0
  -27.3152  -34.4916   25.9464 C   0  0  2  0  0  0  0  0  0  0  0  0
  -24.9336  -34.6698   21.8099 C   0  0  0  0  0  0  0  0  0  0  0  0
  -29.3874  -23.6136   20.7592 N   0  0  0  0  0  0  0  0  0  0  0  0
  -30.5192  -21.7689   21.8192 N   0  0  0  0  0  0  0  0  0  0  0  0
  -25.9495  -10.8707   19.9722 N   0  0  0  0  0  0  0  0  0  0  0  0
  -26.8221  -11.1823   18.9988 N   0  0  0  0  0  0  0  0  0  0  0  0
  -23.2255  -32.0246   22.8789 N   0  0  0  0  0  0  0  0  0  0  0  0
  -28.0990  -14.5968   20.1950 N   0  0  0  0  0  0  0  0  0  0  0  0
  -28.3787  -16.9382   20.5511 N   0  0  0  0  0  0  0  0  0  0  0  0
  -27.5181  -10.5701   16.8190 N   0  0  0  0  0  0  0  0  0  0  0  0
  -25.8379   -7.2098   17.3479 N   0  0  0  0  0  0  0  0  0  0  0  0
  -30.1428  -19.5651   21.0445 N   0  0  0  0  0  0  0  0  0  0  0  0
  -19.7221  -32.4857   22.3855 N   0  0  0  0  0  0  0  0  0  0  0  0
  -25.6970  -34.2689   24.1891 N   0  0  0  0  0  0  0  0  0  0  0  0
  -26.3250  -25.1097   18.4461 N   0  3  2  0  0  0  0  0  0  0  0  0
  -27.9253  -33.5736   26.9494 N   0  3  0  0  0  0  0  0  0  0  0  0
  -24.3260   -8.6751   16.4390 O   0  0  0  0  0  0  0  0  0  0  0  0
  -21.4896  -32.2346   20.8904 O   0  0  0  0  0  0  0  0  0  0  0  0
  -23.0912  -33.8253   24.3540 O   0  0  0  0  0  0  0  0  0  0  0  0
  -27.3999  -32.7010   24.3265 O   0  0  0  0  0  0  0  0  0  0  0  0
  -26.3149  -16.0540   20.2783 O   0  0  0  0  0  0  0  0  0  0  0  0
  -21.1934   -7.3995   22.3976 O   0  0  0  0  0  0  0  0  0  0  0  0
  -24.5111  -27.0991   19.3789 O   0  0  0  0  0  0  0  0  0  1  0  0
  -22.2481   -2.4695   24.6308 F   0  0  0  0  0  0  0  0  0  0  0  0
  -21.0502   -7.0213   25.1324 F   0  0  0  0  0  0  0  0  0  0  0  0
  1  2  1  0  0  0  0
  1  5  2  0  0  0  0
  2  6  2  0  0  0  0
  3  8  2  0  0  0  0
  3 17  1  0  0  0  0
  4  9  1  0  0  0  0
  4 17  2  0  0  0  0
  5 19  1  0  0  0  0
  6 21  1  0  0  0  0
  7 10  2  0  0  0  0
  7 20  1  0  0  0  0
  8 23  1  0  0  0  0
  9 23  2  0  0  0  0
 10 24  1  0  0  0  0
 11 12  2  0  0  0  0
 11 25  1  0  0  0  0
 12 26  1  0  0  0  0
 13 22  1  0  0  0  0
 13 24  2  0  0  0  0
 14 26  2  0  0  0  0
 14 27  1  0  0  0  0
 15 29  1  0  0  0  0
 15 30  2  0  0  0  0
 16 66  1  0  0  0  0
 16 67  2  0  0  0  0
 17 28  1  0  0  0  0
 18 28  1  0  0  0  0
 18 31  2  0  0  0  0
 18 32  1  0  0  0  0
 19 21  2  0  0  0  0
 19 37  1  0  0  0  0
 20 22  2  0  0  0  0
 20 38  1  0  0  0  0
 21 51  1  0  0  0  0
 22 39  1  0  0  0  0
 23 85  1  0  0  0  0
 24 86  1  0  0  0  0
 25 27  2  0  0  0  0
 25 85  1  0  0  0  0
 26 87  1  0  0  0  0
 27 88  1  0  0  0  0
 28 68  2  0  0  0  0
 29 52  1  0  0  0  0
 29 66  2  0  0  0  0
 30 67  1  0  0  0  0
 30 75  1  0  0  0  0
 31 69  1  0  0  0  0
 31 73  1  0  0  0  0
 32 74  1  0  0  0  0
 32 80  2  0  0  0  0
 33 53  1  0  0  0  0
 33 76  1  0  0  0  0
 33 81  2  0  0  0  0
 34 63  1  0  0  0  0
 34 70  1  0  0  0  0
 34 82  2  0  0  0  0
 35 64  1  0  0  0  0
 35 77  1  0  0  0  0
 35 83  2  0  0  0  0
 36 71  1  0  0  0  0
 36 72  1  0  0  0  0
 36 84  2  0  0  0  0
 37 40  1  0  0  0  0
 38 53  1  0  0  0  0
 39 70  1  0  0  0  0
 40 42  1  0  0  0  0
 41 43  1  0  0  0  0
 41 45  1  0  0  0  0
 42 51  1  0  0  0  0
 43 54  1  0  0  0  0
 44 49  1  0  0  0  0
 44 52  1  0  0  0  0
 45 71  1  0  0  0  0
 46 54  1  0  0  0  0
 46 71  1  0  0  0  0
 47 55  1  0  0  0  0
 47 72  1  0  0  0  0
 48 55  1  0  0  0  0
 48 72  1  0  0  0  0
 49 78  1  0  0  0  0
 50 52  1  0  0  0  0
 50 78  1  0  0  0  0
 51 76  1  0  0  0  0
 53 70  1  0  0  0  0
 54 69  1  0  0  0  0
 55 75  1  0  0  0  0
 56 64  1  0  0  0  0
 57 65  1  0  0  0  0
 58 65  1  0  0  0  0
 59 65  1  0  0  0  0
 60 79  1  0  0  0  0
 61 62  1  0  0  0  0
 61 78  1  0  0  0  0
 62 86  1  0  0  0  0
 63 65  1  0  0  0  0
 63 77  1  0  0  0  0
 64 79  1  0  0  0  0
 68 69  1  0  0  0  0
M  CHG  2  78   1  79   1
M  ISO  4  36 100  62 101  72 100  86 101
M  END
> <Batch ID>
0196

> <Smiles>
CNC(C)C(=O)NC(C(=O)N1Cc2cc([101O:1][101CH2:1]CN3CCC(c4cc(NC5C[100N:0]([100C:0](=O)N6CCCC(n7nc(-c8ccc(Oc9ccc(F)cc9F)cc8)c(C(N)=O)c7N)C6)C5)ncn4)C3)ccc2CC1C(=O)NC1CCCc2ccccc21)C(C)(C)C

> <Shape>
0.287

> <Color>
0.068

> <Negative vol penalty>
0.000

$$$$

  -OEChem-04052323393D

 85 94  0     1  0  0  0  0  0999 V2000
  -21.9850  -33.3208   23.0981 C   0  0  0  0  0  0  0  0  0  0  0  0
  -23.1072  -32.5413   22.8363 C   0  0  0  0  0  0  0  0  0  0  0  0
  -25.0096  -10.4411   21.3645 C   0  0  0  0  0  0  0  0  0  0  0  0
  -25.0851  -11.4380   23.5640 C   0  0  0  0  0  0  0  0  0  0  0  0
  -20.8211  -32.7248   23.5820 C   0  0  0  0  0  0  0  0  0  0  0  0
  -23.0665  -31.1654   23.0593 C   0  0  0  0  0  0  0  0  0  0  0  0
  -25.1144  -28.5198   19.2578 C   0  0  0  0  0  0  0  0  0  0  0  0
  -24.8325   -9.1833   21.9406 C   0  0  0  0  0  0  0  0  0  0  0  0
  -24.9079  -10.1801   24.1401 C   0  0  0  0  0  0  0  0  0  0  0  0
  -26.5062  -28.4619   19.1996 C   0  0  0  0  0  0  0  0  0  0  0  0
  -22.3071   -7.4100   23.3231 C   0  0  0  0  0  0  0  0  0  0  0  0
  -21.3302   -6.5782   22.7759 C   0  0  0  0  0  0  0  0  0  0  0  0
  -26.4510  -26.2697   20.2047 C   0  0  0  0  0  0  0  0  0  0  0  0
  -23.0187   -4.9240   22.2763 C   0  0  0  0  0  0  0  0  0  0  0  0
  -25.1360  -11.5685   22.1762 C   0  0  0  0  0  0  0  0  0  0  0  0
  -24.3156  -13.7794   21.2032 C   0  0  0  0  0  0  0  0  0  0  0  0
  -20.7630  -31.3395   23.8018 C   0  0  0  0  0  0  0  0  0  0  0  0
  -24.3799  -27.4559   19.8007 C   0  0  0  0  0  0  0  0  0  0  0  0
  -21.9012  -30.5505   23.5478 C   0  0  0  0  0  0  0  0  0  0  0  0
  -25.0499  -26.3155   20.2663 C   0  0  0  0  0  0  0  0  0  0  0  0
  -24.7815   -9.0528   23.3284 C   0  0  0  0  0  0  0  0  0  0  0  0
  -27.1749  -27.3380   19.6758 C   0  0  0  0  0  0  0  0  0  0  0  0
  -23.6398   -6.9989   23.3467 C   0  0  0  0  0  0  0  0  0  0  0  0
  -21.6860   -5.3352   22.2526 C   0  0  0  0  0  0  0  0  0  0  0  0
  -23.9956   -5.7558   22.8234 C   0  0  0  0  0  0  0  0  0  0  0  0
  -25.3197  -12.8681   21.5816 C   0  0  0  0  0  0  0  0  0  0  0  0
  -25.0019  -14.8544   20.6934 C   0  0  0  0  0  0  0  0  0  0  0  0
  -29.7912  -23.2730   17.0524 C   0  0  0  0  0  0  0  0  0  0  0  0
  -29.5576  -24.4473   16.2133 C   0  0  0  0  0  0  0  0  0  0  0  0
  -30.2587  -23.4837   18.2844 C   0  0  0  0  0  0  0  0  0  0  0  0
  -30.5114  -24.8922   18.7244 C   0  0  0  0  0  0  0  0  0  0  0  0
  -22.8900  -13.6645   21.3037 C   0  0  0  0  0  0  0  0  0  0  0  0
  -22.4158  -27.1193   22.2772 C   0  0  0  0  0  0  0  0  0  0  0  0
  -21.9934  -24.1504   21.0403 C   0  0  0  0  0  0  0  0  0  0  0  0
  -23.2215  -21.6098   19.1210 C   0  0  0  0  0  0  0  0  0  0  0  0
  -29.0405  -18.5287   21.0627 C   0  0  0  0  0  0  0  0  0  0  0  0
  -19.4980  -30.7472   24.3706 C   0  0  0  0  0  0  0  0  0  0  0  0
  -22.8775  -27.5225   19.8317 C   0  0  0  0  0  0  0  0  0  0  0  0
  -24.3065  -25.1379   20.8399 C   0  0  0  0  0  0  0  0  0  0  0  0
  -19.4168  -29.2298   24.2249 C   0  0  0  0  0  0  0  0  0  0  0  0
  -29.8901  -15.3769   19.5000 C   0  0  0  0  0  0  0  0  0  0  0  0
  -20.7323  -28.5820   24.6454 C   0  0  0  0  0  0  0  0  0  0  0  0
  -28.6829  -14.5158   19.8760 C   0  0  0  0  0  0  0  0  0  0  0  0
  -31.6641  -21.1821   20.7751 C   0  0  0  0  0  0  0  0  0  0  0  0
  -30.2744  -16.3173   20.6385 C   0  0  0  0  0  0  0  0  0  0  0  0
  -31.5585  -22.5998   20.2172 C   0  0  0  0  0  0  0  0  0  0  0  0
  -27.9608  -16.3386   21.4873 C   0  0  0  0  0  0  0  0  0  0  0  0
  -29.8350  -21.2219   19.2409 C   0  0  0  0  0  0  0  0  0  0  0  0
  -21.8881  -29.0513   23.7535 C   0  0  1  0  0  0  0  0  0  0  0  0
  -22.2599  -26.5982   20.8765 C   0  0  1  0  0  0  0  0  0  0  0  0
  -27.5086  -15.3819   20.3690 C   0  0  2  0  0  0  0  0  0  0  0  0
  -30.2509  -20.6431   20.5926 C   0  0  1  0  0  0  0  0  0  0  0  0
  -22.6663  -19.2947   18.3276 C   0  0  0  0  0  0  0  0  0  0  0  0
  -22.7072  -23.0392   23.7909 C   0  0  0  0  0  0  0  0  0  0  0  0
  -23.0654  -20.8053   22.7185 C   0  0  0  0  0  0  0  0  0  0  0  0
  -20.8108  -21.8708   22.6538 C   0  0  0  0  0  0  0  0  0  0  0  0
  -23.2508  -22.4500   16.2834 C   0  0  0  0  0  0  0  0  0  0  0  0
  -30.4728  -27.2775   18.2124 C   0  0  0  0  0  0  0  0  0  0  0  0
  -29.1715  -27.9853   18.5576 C   0  0  0  0  0  0  0  0  0  1  0  0
  -22.6680  -22.8118   21.2194 C   0  0  1  0  0  0  0  0  0  0  0  0
  -22.5855  -20.7817   18.0191 C   0  0  2  0  0  0  0  0  0  0  0  0
  -22.3272  -22.1546   22.5867 C   0  0  0  0  0  0  0  0  0  0  0  0
  -26.5502  -13.3243   21.3332 N   0  0  0  0  0  0  0  0  0  0  0  0
  -29.7594  -25.6747   16.5478 N   0  0  0  0  0  0  0  0  0  0  0  0
  -26.3239  -14.5339   20.7932 N   0  0  0  0  0  0  0  0  0  0  0  0
  -30.5288  -22.5052   19.1874 N   0  0  3  0  0  0  0  0  0  0  0  0
  -30.2368  -25.8992   17.8064 N   0  0  0  0  0  0  0  0  0  0  0  0
  -22.8388  -25.2534   20.8544 N   0  0  0  0  0  0  0  0  0  0  0  0
  -29.1176  -17.1261   21.0481 N   0  0  0  0  0  0  0  0  0  0  0  0
  -24.5976  -16.0329   20.1739 N   0  0  0  0  0  0  0  0  0  0  0  0
  -22.3511  -12.4928   21.8524 N   0  0  0  0  0  0  0  0  0  0  0  0
  -21.8541  -28.3655   22.4796 N   0  0  0  0  0  0  0  0  0  0  0  0
  -22.2943  -22.0081   20.0606 N   0  0  0  0  0  0  0  0  0  0  0  0
  -30.1810  -19.1995   20.6385 N   0  0  0  0  0  0  0  0  0  0  0  0
  -23.2740  -21.0305   16.7211 N   0  3  0  0  0  0  0  0  0  0  0  0
  -30.9442  -25.0975   19.8602 O   0  0  0  0  0  0  0  0  0  0  0  0
  -22.1164  -14.5671   20.9032 O   0  0  0  0  0  0  0  0  0  0  0  0
  -23.0009  -26.4403   23.1128 O   0  0  0  0  0  0  0  0  0  0  0  0
  -20.7616  -24.2140   21.0575 O   0  0  0  0  0  0  0  0  0  0  0  0
  -24.4216  -21.8735   19.1477 O   0  0  0  0  0  0  0  0  0  0  0  0
  -28.0276  -19.1386   21.4223 O   0  0  0  0  0  0  0  0  0  0  0  0
  -24.6084   -7.8255   23.8910 O   0  0  0  0  0  0  0  0  0  0  0  0
  -28.5333  -27.2792   19.6209 O   0  0  0  0  0  0  0  0  0  1  0  0
  -20.7475   -4.5359   21.7286 F   0  0  0  0  0  0  0  0  0  0  0  0
  -25.2741   -5.3549   22.8444 F   0  0  0  0  0  0  0  0  0  0  0  0
  1  2  1  0  0  0  0
  1  5  2  0  0  0  0
  2  6  2  0  0  0  0
  3  8  2  0  0  0  0
  3 15  1  0  0  0  0
  4  9  1  0  0  0  0
  4 15  2  0  0  0  0
  5 17  1  0  0  0  0
  6 19  1  0  0  0  0
  7 10  2  0  0  0  0
  7 18  1  0  0  0  0
  8 21  1  0  0  0  0
  9 21  2  0  0  0  0
 10 22  1  0  0  0  0
 11 12  2  0  0  0  0
 11 23  1  0  0  0  0
 12 24  1  0  0  0  0
 13 20  1  0  0  0  0
 13 22  2  0  0  0  0
 14 24  2  0  0  0  0
 14 25  1  0  0  0  0
 15 26  1  0  0  0  0
 16 26  1  0  0  0  0
 16 27  2  0  0  0  0
 16 32  1  0  0  0  0
 17 19  2  0  0  0  0
 17 37  1  0  0  0  0
 18 20  2  0  0  0  0
 18 38  1  0  0  0  0
 19 49  1  0  0  0  0
 20 39  1  0  0  0  0
 21 82  1  0  0  0  0
 22 83  1  0  0  0  0
 23 25  2  0  0  0  0
 23 82  1  0  0  0  0
 24 84  1  0  0  0  0
 25 85  1  0  0  0  0
 26 63  2  0  0  0  0
 27 65  1  0  0  0  0
 27 70  1  0  0  0  0
 28 29  1  0  0  0  0
 28 30  2  0  0  0  0
 29 64  2  0  0  0  0
 30 31  1  0  0  0  0
 30 66  1  0  0  0  0
 31 67  1  0  0  0  0
 31 76  2  0  0  0  0
 32 71  1  0  0  0  0
 32 77  2  0  0  0  0
 33 50  1  0  0  0  0
 33 72  1  0  0  0  0
 33 78  2  0  0  0  0
 34 60  1  0  0  0  0
 34 68  1  0  0  0  0
 34 79  2  0  0  0  0
 35 61  1  0  0  0  0
 35 73  1  0  0  0  0
 35 80  2  0  0  0  0
 36 69  1  0  0  0  0
 36 74  1  0  0  0  0
 36 81  2  0  0  0  0
 37 40  1  0  0  0  0
 38 50  1  0  0  0  0
 39 68  1  0  0  0  0
 40 42  1  0  0  0  0
 41 43  1  0  0  0  0
 41 45  1  0  0  0  0
 42 49  1  0  0  0  0
 43 51  1  0  0  0  0
 44 46  1  0  0  0  0
 44 52  1  0  0  0  0
 45 69  1  0  0  0  0
 46 66  1  0  0  0  0
 47 51  1  0  0  0  0
 47 69  1  0  0  0  0
 48 52  1  0  0  0  0
 48 66  1  0  0  0  0
 49 72  1  0  0  0  0
 50 68  1  0  0  0  0
 51 65  1  0  0  0  0
 52 74  1  0  0  0  0
 53 61  1  0  0  0  0
 54 62  1  0  0  0  0
 55 62  1  0  0  0  0
 56 62  1  0  0  0  0
 57 75  1  0  0  0  0
 58 59  1  0  0  0  0
 58 67  1  0  0  0  0
 59 83  1  0  0  0  0
 60 62  1  0  0  0  0
 60 73  1  0  0  0  0
 61 75  1  0  0  0  0
 63 65  1  0  0  0  0
 64 67  1  0  0  0  0
M  CHG  1  75   1
M  ISO  4  36 100  59 101  74 100  83 101
M  END
> <Batch ID>
0196

> <Smiles>
CNC(C)C(=O)NC(C(=O)N1Cc2cc([101O:1][101CH2:1]Cn3nccc(N4CCC([100NH:0][100C:0](=O)N5CCCC(n6nc(-c7ccc(Oc8ccc(F)cc8F)cc7)c(C(N)=O)c6N)C5)C4)c3=O)ccc2CC1C(=O)NC1CCCc2ccccc21)C(C)(C)C

> <Shape>
0.252

> <Color>
0.087

> <Negative vol penalty>
0.000

$$$$

  -OEChem-04052323393D

 87 96  0     1  0  0  0  0  0999 V2000
  -25.2892  -25.8672   20.7974 C   0  0  0  0  0  0  0  0  0  0  0  0
  -26.2834  -25.4211   21.6623 C   0  0  0  0  0  0  0  0  0  0  0  0
  -23.0115   -9.8954   19.9743 C   0  0  0  0  0  0  0  0  0  0  0  0
  -23.6611   -9.9628   22.3004 C   0  0  0  0  0  0  0  0  0  0  0  0
  -25.3797  -25.5944   19.4331 C   0  0  0  0  0  0  0  0  0  0  0  0
  -27.3683  -24.7010   21.1634 C   0  0  0  0  0  0  0  0  0  0  0  0
  -33.1455  -24.8728   23.1884 C   0  0  0  0  0  0  0  0  0  0  0  0
  -22.2202   -8.7750   20.2277 C   0  0  0  0  0  0  0  0  0  0  0  0
  -22.8697   -8.8424   22.5538 C   0  0  0  0  0  0  0  0  0  0  0  0
  -33.8658  -24.0372   24.0409 C   0  0  0  0  0  0  0  0  0  0  0  0
  -23.0810   -5.4951   22.1274 C   0  0  0  0  0  0  0  0  0  0  0  0
  -23.6286   -4.4785   22.9097 C   0  0  0  0  0  0  0  0  0  0  0  0
  -34.7626  -22.8704   22.1295 C   0  0  0  0  0  0  0  0  0  0  0  0
  -21.8542   -4.7651   24.5242 C   0  0  0  0  0  0  0  0  0  0  0  0
  -33.2652  -17.9911   24.2688 C   0  0  0  0  0  0  0  0  0  0  0  0
  -23.7320  -10.4892   21.0106 C   0  0  0  0  0  0  0  0  0  0  0  0
  -24.1593  -12.9969   20.8195 C   0  0  0  0  0  0  0  0  0  0  0  0
  -26.4712  -24.8789   18.9160 C   0  0  0  0  0  0  0  0  0  0  0  0
  -33.2199  -24.7061   21.7981 C   0  0  0  0  0  0  0  0  0  0  0  0
  -27.4729  -24.4172   19.7911 C   0  0  0  0  0  0  0  0  0  0  0  0
  -34.0441  -23.7068   21.2615 C   0  0  0  0  0  0  0  0  0  0  0  0
  -22.1493   -8.2485   21.5174 C   0  0  0  0  0  0  0  0  0  0  0  0
  -34.6723  -23.0340   23.5115 C   0  0  0  0  0  0  0  0  0  0  0  0
  -21.9200   -6.1468   22.5434 C   0  0  0  0  0  0  0  0  0  0  0  0
  -23.0152   -4.1134   24.1081 C   0  0  0  0  0  0  0  0  0  0  0  0
  -21.3066   -5.7818   23.7418 C   0  0  0  0  0  0  0  0  0  0  0  0
  -24.5500  -11.6463   20.7494 C   0  0  0  0  0  0  0  0  0  0  0  0
  -31.9519  -17.7025   24.5487 C   0  0  0  0  0  0  0  0  0  0  0  0
  -33.6062  -19.0034   25.1858 C   0  0  0  0  0  0  0  0  0  0  0  0
  -25.2909  -13.6995   20.4841 C   0  0  0  0  0  0  0  0  0  0  0  0
  -22.8874  -13.5657   21.1578 C   0  0  0  0  0  0  0  0  0  0  0  0
  -31.1325  -23.9923   19.5096 C   0  0  0  0  0  0  0  0  0  0  0  0
  -33.6556  -24.5912   17.5608 C   0  0  0  0  0  0  0  0  0  0  0  0
  -37.0422  -24.7629   17.1756 C   0  0  0  0  0  0  0  0  0  0  0  0
  -30.7895  -14.5155   20.9284 C   0  0  0  0  0  0  0  0  0  0  0  0
  -26.5015  -24.5675   17.4406 C   0  0  0  0  0  0  0  0  0  0  0  0
  -32.4574  -25.6329   20.8913 C   0  0  0  0  0  0  0  0  0  0  0  0
  -34.1744  -23.4995   19.7754 C   0  0  0  0  0  0  0  0  0  0  0  0
  -27.8731  -24.1218   16.9402 C   0  0  0  0  0  0  0  0  0  0  0  0
  -29.6784  -12.1689   18.5322 C   0  0  0  0  0  0  0  0  0  0  0  0
  -28.4705  -23.0781   17.8787 C   0  0  0  0  0  0  0  0  0  0  0  0
  -28.2246  -11.9023   18.9125 C   0  0  0  0  0  0  0  0  0  0  0  0
  -30.9974  -15.2865   24.5084 C   0  0  0  0  0  0  0  0  0  0  0  0
  -30.5392  -12.3454   19.7758 C   0  0  0  0  0  0  0  0  0  0  0  0
  -30.2775  -14.4766   23.4385 C   0  0  0  0  0  0  0  0  0  0  0  0
  -31.2586  -16.4208   22.4388 C   0  0  0  0  0  0  0  0  0  0  0  0
  -28.6062  -13.2197   21.0600 C   0  0  0  0  0  0  0  0  0  0  0  0
  -28.6777  -23.6545   19.2845 C   0  0  1  0  0  0  0  0  0  0  0  0
  -30.9979  -16.7085   23.9241 C   0  0  2  0  0  0  0  0  0  0  0  0
  -32.2072  -25.0424   19.5071 C   0  0  1  0  0  0  0  0  0  0  0  0
  -27.6936  -13.0115   19.8337 C   0  0  2  0  0  0  0  0  0  0  0  0
  -38.8076  -25.2415   15.4576 C   0  0  0  0  0  0  0  0  0  0  0  0
  -33.1870  -21.8444   16.3175 C   0  0  0  0  0  0  0  0  0  0  0  0
  -35.4804  -21.9807   15.3225 C   0  0  0  0  0  0  0  0  0  0  0  0
  -33.7423  -23.6502   14.6789 C   0  0  0  0  0  0  0  0  0  0  0  0
  -28.3758  -20.9014   23.8591 C   0  0  0  0  0  0  0  0  0  0  0  0
  -38.0904  -27.0575   18.7232 C   0  0  0  0  0  0  0  0  0  0  0  0
  -30.3125  -18.6019   26.2274 C   0  0  0  0  0  0  0  0  0  0  0  0
  -35.2801  -20.5979   26.1245 C   0  0  0  0  0  0  0  0  0  0  0  0
  -29.4868  -19.8129   25.8135 C   0  0  0  0  0  0  0  0  0  0  0  0
  -34.8154  -21.9563   25.6267 C   0  0  0  0  0  0  0  0  0  1  0  0
  -34.7790  -23.7654   16.9819 C   0  0  1  0  0  0  0  0  0  0  0  0
  -37.9330  -25.8248   16.5565 C   0  0  2  0  0  0  0  0  0  0  0  0
  -34.2934  -22.8126   15.8533 C   0  0  0  0  0  0  0  0  0  0  0  0
  -25.8296  -11.4973   20.3969 N   0  0  0  0  0  0  0  0  0  0  0  0
  -32.5913  -19.3355   25.9881 N   0  0  0  0  0  0  0  0  0  0  0  0
  -31.5997  -18.5274   25.5761 N   0  0  0  0  0  0  0  0  0  0  0  0
  -26.2529  -12.7634   20.2424 N   0  0  0  0  0  0  0  0  0  0  0  0
  -33.4042  -24.4270   18.9303 N   0  0  0  0  0  0  0  0  0  0  0  0
  -30.0099  -13.3848   20.6608 N   0  0  0  0  0  0  0  0  0  0  0  0
  -30.6612  -15.1145   22.1809 N   0  0  0  0  0  0  0  0  0  0  0  0
  -25.5468  -15.0205   20.3751 N   0  0  0  0  0  0  0  0  0  0  0  0
  -21.8321  -12.7002   21.4768 N   0  0  0  0  0  0  0  0  0  0  0  0
  -34.8500  -19.5477   25.2070 N   0  0  0  0  0  0  0  0  0  0  0  0
  -29.8581  -24.4912   19.3188 N   0  0  0  0  0  0  0  0  0  0  0  0
  -35.8076  -24.7117   16.5637 N   0  0  0  0  0  0  0  0  0  0  0  0
  -29.1785  -19.7540   24.3636 N   0  3  0  0  0  0  0  0  0  0  0  0
  -38.8190  -26.4262   17.5929 N   0  3  0  0  0  0  0  0  0  0  0  0
  -22.6880  -14.8041   21.1606 O   0  0  0  0  0  0  0  0  0  0  0  0
  -31.4372  -22.8164   19.6711 O   0  0  0  0  0  0  0  0  0  0  0  0
  -33.0290  -25.3591   16.8264 O   0  0  0  0  0  0  0  0  0  0  0  0
  -37.4065  -24.0476   18.1063 O   0  0  0  0  0  0  0  0  0  0  0  0
  -31.5990  -14.9495   20.0976 O   0  0  0  0  0  0  0  0  0  0  0  0
  -21.3771   -7.1554   21.7651 O   0  0  0  0  0  0  0  0  0  0  0  0
  -35.3809  -22.2109   24.3472 O   0  0  0  0  0  0  0  0  0  1  0  0
  -23.5404   -3.1361   24.8586 F   0  0  0  0  0  0  0  0  0  0  0  0
  -20.1904   -6.4035   24.1461 F   0  0  0  0  0  0  0  0  0  0  0  0
  1  2  1  0  0  0  0
  1  5  2  0  0  0  0
  2  6  2  0  0  0  0
  3  8  2  0  0  0  0
  3 16  1  0  0  0  0
  4  9  1  0  0  0  0
  4 16  2  0  0  0  0
  5 18  1  0  0  0  0
  6 20  1  0  0  0  0
  7 10  2  0  0  0  0
  7 19  1  0  0  0  0
  8 22  1  0  0  0  0
  9 22  2  0  0  0  0
 10 23  1  0  0  0  0
 11 12  2  0  0  0  0
 11 24  1  0  0  0  0
 12 25  1  0  0  0  0
 13 21  1  0  0  0  0
 13 23  2  0  0  0  0
 14 25  2  0  0  0  0
 14 26  1  0  0  0  0
 15 28  2  0  0  0  0
 15 29  1  0  0  0  0
 16 27  1  0  0  0  0
 17 27  1  0  0  0  0
 17 30  2  0  0  0  0
 17 31  1  0  0  0  0
 18 20  2  0  0  0  0
 18 36  1  0  0  0  0
 19 21  2  0  0  0  0
 19 37  1  0  0  0  0
 20 48  1  0  0  0  0
 21 38  1  0  0  0  0
 22 84  1  0  0  0  0
 23 85  1  0  0  0  0
 24 26  2  0  0  0  0
 24 84  1  0  0  0  0
 25 86  1  0  0  0  0
 26 87  1  0  0  0  0
 27 65  2  0  0  0  0
 28 49  1  0  0  0  0
 28 67  1  0  0  0  0
 29 66  2  0  0  0  0
 29 74  1  0  0  0  0
 30 68  1  0  0  0  0
 30 72  1  0  0  0  0
 31 73  1  0  0  0  0
 31 79  2  0  0  0  0
 32 50  1  0  0  0  0
 32 75  1  0  0  0  0
 32 80  2  0  0  0  0
 33 62  1  0  0  0  0
 33 69  1  0  0  0  0
 33 81  2  0  0  0  0
 34 63  1  0  0  0  0
 34 76  1  0  0  0  0
 34 82  2  0  0  0  0
 35 70  1  0  0  0  0
 35 71  1  0  0  0  0
 35 83  2  0  0  0  0
 36 39  1  0  0  0  0
 37 50  1  0  0  0  0
 38 69  1  0  0  0  0
 39 41  1  0  0  0  0
 40 42  1  0  0  0  0
 40 44  1  0  0  0  0
 41 48  1  0  0  0  0
 42 51  1  0  0  0  0
 43 45  1  0  0  0  0
 43 49  1  0  0  0  0
 44 70  1  0  0  0  0
 45 71  1  0  0  0  0
 46 49  1  0  0  0  0
 46 71  1  0  0  0  0
 47 51  1  0  0  0  0
 47 70  1  0  0  0  0
 48 75  1  0  0  0  0
 50 69  1  0  0  0  0
 51 68  1  0  0  0  0
 52 63  1  0  0  0  0
 53 64  1  0  0  0  0
 54 64  1  0  0  0  0
 55 64  1  0  0  0  0
 56 77  1  0  0  0  0
 57 78  1  0  0  0  0
 58 60  1  0  0  0  0
 58 67  1  0  0  0  0
 59 61  1  0  0  0  0
 59 74  1  0  0  0  0
 60 77  1  0  0  0  0
 61 85  1  0  0  0  0
 62 64  1  0  0  0  0
 62 76  1  0  0  0  0
 63 78  1  0  0  0  0
 65 68  1  0  0  0  0
 66 67  1  0  0  0  0
M  CHG  2  77   1  78   1
M  ISO  4  35 100  61 101  71 100  85 101
M  END
> <Batch ID>
0196

> <Smiles>
CNCCn1nc(NC[101CH2:1][101O:1]c2ccc3c(c2)CN(C(=O)C(NC(=O)C(C)NC)C(C)(C)C)C(C(=O)NC2CCCc4ccccc42)C3)cc1C1CC[100N:0]([100C:0](=O)N2CCCC(n3nc(-c4ccc(Oc5ccc(F)cc5F)cc4)c(C(N)=O)c3N)C2)C1

> <Shape>
0.202

> <Color>
0.188

> <Negative vol penalty>
0.000

$$$$

  -OEChem-04052323393D

 83 92  0     1  0  0  0  0  0999 V2000
  -27.4799  -24.3496   16.9302 C   0  0  0  0  0  0  0  0  0  0  0  0
  -26.2991  -24.7067   17.5733 C   0  0  0  0  0  0  0  0  0  0  0  0
  -24.8217  -13.7330   21.4220 C   0  0  0  0  0  0  0  0  0  0  0  0
  -25.5398  -13.7823   19.1157 C   0  0  0  0  0  0  0  0  0  0  0  0
  -28.7090  -24.7044   17.4845 C   0  0  0  0  0  0  0  0  0  0  0  0
  -26.3468  -25.4180   18.7718 C   0  0  0  0  0  0  0  0  0  0  0  0
  -23.0345  -29.2467   18.8917 C   0  0  0  0  0  0  0  0  0  0  0  0
  -24.0411  -12.6084   21.1550 C   0  0  0  0  0  0  0  0  0  0  0  0
  -24.7591  -12.6576   18.8487 C   0  0  0  0  0  0  0  0  0  0  0  0
  -21.7008  -28.9273   19.1427 C   0  0  0  0  0  0  0  0  0  0  0  0
  -24.5146   -9.2836   20.7620 C   0  0  0  0  0  0  0  0  0  0  0  0
  -24.5694   -8.2259   21.6698 C   0  0  0  0  0  0  0  0  0  0  0  0
  -18.5153  -26.8292   20.4979 C   0  0  0  0  0  0  0  0  0  0  0  0
  -21.9828  -29.5864   21.4460 C   0  0  0  0  0  0  0  0  0  0  0  0
  -22.1976   -8.4485   22.0724 C   0  0  0  0  0  0  0  0  0  0  0  0
  -18.3032  -25.5436   20.9523 C   0  0  0  0  0  0  0  0  0  0  0  0
  -25.5711  -14.3200   20.4024 C   0  0  0  0  0  0  0  0  0  0  0  0
  -27.7211  -15.5047   21.0962 C   0  0  0  0  0  0  0  0  0  0  0  0
  -28.7716  -25.4287   18.6854 C   0  0  0  0  0  0  0  0  0  0  0  0
  -23.8567  -29.7289   19.9202 C   0  0  0  0  0  0  0  0  0  0  0  0
  -27.5779  -25.7816   19.3434 C   0  0  0  0  0  0  0  0  0  0  0  0
  -23.3259  -29.9137   21.2048 C   0  0  0  0  0  0  0  0  0  0  0  0
  -24.0098  -12.0706   19.8683 C   0  0  0  0  0  0  0  0  0  0  0  0
  -21.1756  -29.0943   20.4207 C   0  0  0  0  0  0  0  0  0  0  0  0
  -23.3013   -9.9237   20.5095 C   0  0  0  0  0  0  0  0  0  0  0  0
  -23.4110   -7.8084   22.3249 C   0  0  0  0  0  0  0  0  0  0  0  0
  -22.1428   -9.5062   21.1646 C   0  0  0  0  0  0  0  0  0  0  0  0
  -26.3772  -15.4821   20.6775 C   0  0  0  0  0  0  0  0  0  0  0  0
  -19.5791  -27.4967   21.0697 C   0  0  0  0  0  0  0  0  0  1  0  0
  -28.0207  -16.8397   21.2171 C   0  0  0  0  0  0  0  0  0  0  0  0
  -20.0714  -25.6998   22.3721 C   0  0  0  0  0  0  0  0  0  0  0  0
  -28.6185  -14.4163   21.3528 C   0  0  0  0  0  0  0  0  0  0  0  0
  -26.5116  -28.7046   21.3364 C   0  0  0  0  0  0  0  0  0  0  0  0
  -26.3612  -31.5813   22.8277 C   0  0  0  0  0  0  0  0  0  0  0  0
  -24.4495  -34.2133   23.8597 C   0  0  0  0  0  0  0  0  0  0  0  0
  -24.8911  -21.5633   22.3584 C   0  0  0  0  0  0  0  0  0  0  0  0
  -30.1244  -25.7486   19.2705 C   0  0  0  0  0  0  0  0  0  0  0  0
  -25.2860  -30.0942   19.6269 C   0  0  0  0  0  0  0  0  0  0  0  0
  -24.1612  -30.4473   22.3389 C   0  0  0  0  0  0  0  0  0  0  0  0
  -30.0816  -26.8275   20.3496 C   0  0  0  0  0  0  0  0  0  0  0  0
  -26.8352  -21.1252   19.4649 C   0  0  0  0  0  0  0  0  0  0  0  0
  -28.9506  -26.5520   21.3354 C   0  0  0  0  0  0  0  0  0  0  0  0
  -27.0730  -19.6156   19.4852 C   0  0  0  0  0  0  0  0  0  0  0  0
  -25.4072  -21.4864   19.8779 C   0  0  0  0  0  0  0  0  0  0  0  0
  -23.5461  -23.3645   21.1874 C   0  0  0  0  0  0  0  0  0  0  0  0
  -24.5320  -23.7749   23.4117 C   0  0  0  0  0  0  0  0  0  0  0  0
  -25.2330  -19.4018   21.1983 C   0  0  0  0  0  0  0  0  0  0  0  0
  -22.1602  -23.6995   21.7294 C   0  0  0  0  0  0  0  0  0  0  0  0
  -23.1629  -24.0904   23.9919 C   0  0  0  0  0  0  0  0  0  0  0  0
  -27.5881  -26.5748   20.6321 C   0  0  1  0  0  0  0  0  0  0  0  0
  -26.1706  -30.0915   20.8698 C   0  0  1  0  0  0  0  0  0  0  0  0
  -26.6765  -19.0123   20.8443 C   0  0  1  0  0  0  0  0  0  0  0  0
  -24.6017  -36.3970   25.0867 C   0  0  0  0  0  0  0  0  0  0  0  0
  -26.5468  -30.0775   25.4762 C   0  0  0  0  0  0  0  0  0  0  0  0
  -25.7496  -32.1517   26.6297 C   0  0  0  0  0  0  0  0  0  0  0  0
  -27.9031  -32.1761   25.3708 C   0  0  0  0  0  0  0  0  0  0  0  0
  -23.5222  -35.7375   21.4984 C   0  0  0  0  0  0  0  0  0  0  0  0
  -20.9396  -25.0689   23.4204 C   0  0  0  0  0  0  0  0  0  0  0  0
  -25.7220  -32.0967   24.0946 C   0  0  1  0  0  0  0  0  0  0  0  0
  -24.6455  -35.7130   23.7292 C   0  0  2  0  0  0  0  0  0  0  0  0
  -26.4649  -31.6136   25.3721 C   0  0  0  0  0  0  0  0  0  0  0  0
  -19.0646  -24.9454   21.8918 N   0  0  0  0  0  0  0  0  0  0  0  0
  -25.8588  -16.7055   20.5417 N   0  0  0  0  0  0  0  0  0  0  0  0
  -20.3809  -26.9603   22.0129 N   0  0  0  0  0  0  0  0  0  0  0  0
  -26.8822  -17.5094   20.8771 N   0  0  0  0  0  0  0  0  0  0  0  0
  -25.5546  -30.7840   22.0034 N   0  0  0  0  0  0  0  0  0  0  0  0
  -25.0604  -20.8555   21.1590 N   0  0  0  0  0  0  0  0  0  0  0  0
  -24.4264  -22.8831   22.2589 N   0  0  0  0  0  0  0  0  0  0  0  0
  -29.1441  -17.4942   21.5801 N   0  0  0  0  0  0  0  0  0  0  0  0
  -28.1482  -13.1075   21.1792 N   0  0  0  0  0  0  0  0  0  0  0  0
  -27.1663  -27.9381   20.3913 N   0  0  0  0  0  0  0  0  0  0  0  0
  -25.6531  -33.5474   23.9560 N   0  0  0  0  0  0  0  0  0  0  0  0
  -22.2845  -24.6490   22.8967 N   0  3  0  0  0  0  0  0  0  0  0  0
  -23.5787  -36.3021   22.8714 N   0  3  0  0  0  0  0  0  0  0  0  0
  -29.7973  -14.5987   21.7408 O   0  0  0  0  0  0  0  0  0  0  0  0
  -26.2049  -28.3562   22.4705 O   0  0  0  0  0  0  0  0  0  0  0  0
  -27.5308  -31.8812   22.5752 O   0  0  0  0  0  0  0  0  0  0  0  0
  -23.3396  -33.6857   23.8784 O   0  0  0  0  0  0  0  0  0  0  0  0
  -25.1401  -21.0458   23.4546 O   0  0  0  0  0  0  0  0  0  0  0  0
  -23.2483  -10.9731   19.6074 O   0  0  0  0  0  0  0  0  0  0  0  0
  -19.8552  -28.7781   20.6722 O   0  0  0  0  0  0  0  0  0  1  0  0
  -23.4635   -6.7917   23.1955 F   0  0  0  0  0  0  0  0  0  0  0  0
  -20.9740  -10.1165   20.9252 F   0  0  0  0  0  0  0  0  0  0  0  0
  1  2  1  0  0  0  0
  1  5  2  0  0  0  0
  2  6  2  0  0  0  0
  3  8  2  0  0  0  0
  3 17  1  0  0  0  0
  4  9  1  0  0  0  0
  4 17  2  0  0  0  0
  5 19  1  0  0  0  0
  6 21  1  0  0  0  0
  7 10  2  0  0  0  0
  7 20  1  0  0  0  0
  8 23  1  0  0  0  0
  9 23  2  0  0  0  0
 10 24  1  0  0  0  0
 11 12  2  0  0  0  0
 11 25  1  0  0  0  0
 12 26  1  0  0  0  0
 13 16  2  0  0  0  0
 13 29  1  0  0  0  0
 14 22  1  0  0  0  0
 14 24  2  0  0  0  0
 15 26  2  0  0  0  0
 15 27  1  0  0  0  0
 16 62  1  0  0  0  0
 17 28  1  0  0  0  0
 18 28  1  0  0  0  0
 18 30  2  0  0  0  0
 18 32  1  0  0  0  0
 19 21  2  0  0  0  0
 19 37  1  0  0  0  0
 20 22  2  0  0  0  0
 20 38  1  0  0  0  0
 21 50  1  0  0  0  0
 22 39  1  0  0  0  0
 23 80  1  0  0  0  0
 24 81  1  0  0  0  0
 25 27  2  0  0  0  0
 25 80  1  0  0  0  0
 26 82  1  0  0  0  0
 27 83  1  0  0  0  0
 28 63  2  0  0  0  0
 29 64  2  0  0  0  0
 29 81  1  0  0  0  0
 30 65  1  0  0  0  0
 30 69  1  0  0  0  0
 31 58  1  0  0  0  0
 31 62  2  0  0  0  0
 31 64  1  0  0  0  0
 32 70  1  0  0  0  0
 32 75  2  0  0  0  0
 33 51  1  0  0  0  0
 33 71  1  0  0  0  0
 33 76  2  0  0  0  0
 34 59  1  0  0  0  0
 34 66  1  0  0  0  0
 34 77  2  0  0  0  0
 35 60  1  0  0  0  0
 35 72  1  0  0  0  0
 35 78  2  0  0  0  0
 36 67  1  0  0  0  0
 36 68  1  0  0  0  0
 36 79  2  0  0  0  0
 37 40  1  0  0  0  0
 38 51  1  0  0  0  0
 39 66  1  0  0  0  0
 40 42  1  0  0  0  0
 41 43  1  0  0  0  0
 41 44  1  0  0  0  0
 42 50  1  0  0  0  0
 43 52  1  0  0  0  0
 44 67  1  0  0  0  0
 45 48  1  0  0  0  0
 45 68  1  0  0  0  0
 46 49  1  0  0  0  0
 46 68  1  0  0  0  0
 47 52  1  0  0  0  0
 47 67  1  0  0  0  0
 48 73  1  0  0  0  0
 49 73  1  0  0  0  0
 50 71  1  0  0  0  0
 51 66  1  0  0  0  0
 52 65  1  0  0  0  0
 53 60  1  0  0  0  0
 54 61  1  0  0  0  0
 55 61  1  0  0  0  0
 56 61  1  0  0  0  0
 57 74  1  0  0  0  0
 58 73  1  0  0  0  0
 59 61  1  0  0  0  0
 59 72  1  0  0  0  0
 60 74  1  0  0  0  0
 63 65  1  0  0  0  0
M  CHG  2  73   1  74   1
M  ISO  4  29 101  36 100  68 100  81 101
M  END
> <Batch ID>
0196

> <Smiles>
CNC(C)C(=O)NC(C(=O)N1Cc2cc([101O:1][101c:1]3ccnc(CN4CC[100N:0]([100C:0](=O)N5CCCC(n6nc(-c7ccc(Oc8ccc(F)cc8F)cc7)c(C(N)=O)c6N)C5)CC4)n3)ccc2CC1C(=O)NC1CCCc2ccccc21)C(C)(C)C

> <Shape>
0.332

> <Color>
0.078

> <Negative vol penalty>
0.000

$$$$

  -OEChem-04052323393D

 86 96  0     1  0  0  0  0  0999 V2000
  -29.6367  -13.5000   37.1186 C   0  0  0  0  0  0  0  0  0  0  0  0
  -29.5317  -13.3436   35.7402 C   0  0  0  0  0  0  0  0  0  0  0  0
  -23.1416   -9.8561   19.9050 C   0  0  0  0  0  0  0  0  0  0  0  0
  -23.7711   -9.8900   22.2373 C   0  0  0  0  0  0  0  0  0  0  0  0
  -28.4884  -13.6861   37.8873 C   0  0  0  0  0  0  0  0  0  0  0  0
  -28.2783  -13.3721   35.1299 C   0  0  0  0  0  0  0  0  0  0  0  0
  -26.9290  -15.6203   29.5954 C   0  0  0  0  0  0  0  0  0  0  0  0
  -22.3764   -8.7114   20.1281 C   0  0  0  0  0  0  0  0  0  0  0  0
  -23.0058   -8.7454   22.4605 C   0  0  0  0  0  0  0  0  0  0  0  0
  -26.7560  -15.0124   28.3527 C   0  0  0  0  0  0  0  0  0  0  0  0
  -19.3453   -7.9545   21.4213 C   0  0  0  0  0  0  0  0  0  0  0  0
  -18.0675   -7.9102   20.8637 C   0  0  0  0  0  0  0  0  0  0  0  0
  -26.2551  -17.1468   23.3309 C   0  0  0  0  0  0  0  0  0  0  0  0
  -24.3715  -14.9651   28.7144 C   0  0  0  0  0  0  0  0  0  0  0  0
  -18.6865   -5.9452   19.6016 C   0  0  0  0  0  0  0  0  0  0  0  0
  -25.0331  -16.5507   23.5251 C   0  0  0  0  0  0  0  0  0  0  0  0
  -23.8390  -10.4453   20.9596 C   0  0  0  0  0  0  0  0  0  0  0  0
  -24.2056  -12.9663   20.8248 C   0  0  0  0  0  0  0  0  0  0  0  0
  -27.2211  -13.7265   37.2849 C   0  0  0  0  0  0  0  0  0  0  0  0
  -25.8235  -15.8957   30.4130 C   0  0  0  0  0  0  0  0  0  0  0  0
  -27.1120  -13.5575   35.8914 C   0  0  0  0  0  0  0  0  0  0  0  0
  -24.5328  -15.5788   29.9659 C   0  0  0  0  0  0  0  0  0  0  0  0
  -22.3084   -8.1561   21.4059 C   0  0  0  0  0  0  0  0  0  0  0  0
  -25.4774  -14.6821   27.9132 C   0  0  0  0  0  0  0  0  0  0  0  0
  -20.2937   -6.9943   21.0690 C   0  0  0  0  0  0  0  0  0  0  0  0
  -17.7381   -6.9055   19.9539 C   0  0  0  0  0  0  0  0  0  0  0  0
  -19.9643   -5.9896   20.1592 C   0  0  0  0  0  0  0  0  0  0  0  0
  -24.6301  -11.6274   20.7295 C   0  0  0  0  0  0  0  0  0  0  0  0
  -27.1842  -16.2173   23.8352 C   0  0  0  0  0  0  0  0  0  0  0  0
  -25.3220  -13.7034   20.5137 C   0  0  0  0  0  0  0  0  0  0  0  0
  -22.9174  -13.4962   21.1644 C   0  0  0  0  0  0  0  0  0  0  0  0
  -24.8814  -14.9608   33.3013 C   0  0  0  0  0  0  0  0  0  0  0  0
  -22.5477  -17.1630   32.8256 C   0  0  0  0  0  0  0  0  0  0  0  0
  -20.6785  -18.9726   30.6170 C   0  0  0  0  0  0  0  0  0  0  0  0
  -30.6494  -14.7923   20.7847 C   0  0  0  0  0  0  0  0  0  0  0  0
  -26.0047  -13.8828   38.1627 C   0  0  0  0  0  0  0  0  0  0  0  0
  -26.0246  -16.5761   31.7393 C   0  0  0  0  0  0  0  0  0  0  0  0
  -23.3114  -15.8720   30.7970 C   0  0  0  0  0  0  0  0  0  0  0  0
  -24.7454  -14.2754   37.3944 C   0  0  0  0  0  0  0  0  0  0  0  0
  -29.7744  -12.3046   18.5767 C   0  0  0  0  0  0  0  0  0  0  0  0
  -24.5902  -13.4115   36.1468 C   0  0  0  0  0  0  0  0  0  0  0  0
  -31.2151  -17.4734   24.5361 C   0  0  0  0  0  0  0  0  0  0  0  0
  -28.3169  -12.0089   18.9323 C   0  0  0  0  0  0  0  0  0  0  0  0
  -30.5265  -16.3261   25.2612 C   0  0  0  0  0  0  0  0  0  0  0  0
  -30.6137  -12.5053   19.8338 C   0  0  0  0  0  0  0  0  0  0  0  0
  -29.0597  -17.7391   23.2505 C   0  0  0  0  0  0  0  0  0  0  0  0
  -31.1407  -16.8004   22.0913 C   0  0  0  0  0  0  0  0  0  0  0  0
  -28.6452  -13.2868   21.1044 C   0  0  0  0  0  0  0  0  0  0  0  0
  -30.2671  -14.7577   23.2656 C   0  0  0  0  0  0  0  0  0  0  0  0
  -25.7721  -13.6074   35.1896 C   0  0  1  0  0  0  0  0  0  0  0  0
  -24.8722  -16.3427   32.7114 C   0  0  1  0  0  0  0  0  0  0  0  0
  -30.5944  -17.7547   23.1661 C   0  0  2  0  0  0  0  0  0  0  0  0
  -27.7454  -13.0886   19.8692 C   0  0  2  0  0  0  0  0  0  0  0  0
  -29.5465  -15.5441   24.3746 C   0  0  2  0  0  0  0  0  0  0  0  0
  -18.8244  -20.6612   30.5259 C   0  0  0  0  0  0  0  0  0  0  0  0
  -20.5226  -14.9699   33.4577 C   0  0  0  0  0  0  0  0  0  0  0  0
  -18.7467  -16.4139   32.4432 C   0  0  0  0  0  0  0  0  0  0  0  0
  -19.9913  -17.2000   34.4571 C   0  0  0  0  0  0  0  0  0  0  0  0
  -22.4045  -20.9672   29.2748 C   0  0  0  0  0  0  0  0  0  0  0  0
  -24.3206  -14.3588   24.5088 C   0  0  0  0  0  0  0  0  0  0  0  0
  -24.0834  -14.3512   26.0151 C   0  0  0  0  0  0  0  0  0  1  0  0
  -21.1655  -17.1420   32.2188 C   0  0  1  0  0  0  0  0  0  0  0  0
  -20.3298  -20.4492   30.5655 C   0  0  2  0  0  0  0  0  0  0  0  0
  -20.1295  -16.4240   33.1292 C   0  0  0  0  0  0  0  0  0  0  0  0
  -25.9158  -11.5175   20.3847 N   0  0  0  0  0  0  0  0  0  0  0  0
  -26.6023  -15.1145   24.3141 N   0  0  0  0  0  0  0  0  0  0  0  0
  -25.2943  -15.3474   24.1116 N   0  0  0  0  0  0  0  0  0  0  0  0
  -26.3088  -12.7966   20.2605 N   0  0  0  0  0  0  0  0  0  0  0  0
  -28.5557  -16.4752   23.8109 N   0  0  3  0  0  0  0  0  0  0  0  0
  -23.5604  -16.5325   32.0890 N   0  0  0  0  0  0  0  0  0  0  0  0
  -30.0323  -13.5357   20.6933 N   0  0  0  0  0  0  0  0  0  0  0  0
  -30.4992  -15.4882   22.0074 N   0  0  0  0  0  0  0  0  0  0  0  0
  -25.5460  -15.0323   20.4347 N   0  0  0  0  0  0  0  0  0  0  0  0
  -21.8814  -12.5985   21.4562 N   0  0  0  0  0  0  0  0  0  0  0  0
  -25.6295  -14.8476   34.4576 N   0  0  0  0  0  0  0  0  0  0  0  0
  -20.8327  -18.5292   31.9135 N   0  0  0  0  0  0  0  0  0  0  0  0
  -20.9253  -21.0801   29.3538 N   0  3  0  0  0  0  0  0  0  0  0  0
  -22.6873  -14.7290   21.1916 O   0  0  0  0  0  0  0  0  0  0  0  0
  -24.2550  -14.0640   32.7491 O   0  0  0  0  0  0  0  0  0  0  0  0
  -22.7237  -17.7245   33.9098 O   0  0  0  0  0  0  0  0  0  0  0  0
  -20.7982  -18.2809   29.6082 O   0  0  0  0  0  0  0  0  0  0  0  0
  -31.2892  -15.2708   19.8398 O   0  0  0  0  0  0  0  0  0  0  0  0
  -21.5616   -7.0393   21.6240 O   0  0  0  0  0  0  0  0  0  0  0  0
  -25.3047  -14.0839   26.6925 O   0  0  0  0  0  0  0  0  0  1  0  0
  -16.5105   -6.8621   19.4197 F   0  0  0  0  0  0  0  0  0  0  0  0
  -20.8709   -5.0637   19.8178 F   0  0  0  0  0  0  0  0  0  0  0  0
  1  2  1  0  0  0  0
  1  5  2  0  0  0  0
  2  6  2  0  0  0  0
  3  8  2  0  0  0  0
  3 17  1  0  0  0  0
  4  9  1  0  0  0  0
  4 17  2  0  0  0  0
  5 19  1  0  0  0  0
  6 21  1  0  0  0  0
  7 10  2  0  0  0  0
  7 20  1  0  0  0  0
  8 23  1  0  0  0  0
  9 23  2  0  0  0  0
 10 24  1  0  0  0  0
 11 12  2  0  0  0  0
 11 25  1  0  0  0  0
 12 26  1  0  0  0  0
 13 16  2  0  0  0  0
 13 29  1  0  0  0  0
 14 22  1  0  0  0  0
 14 24  2  0  0  0  0
 15 26  2  0  0  0  0
 15 27  1  0  0  0  0
 16 67  1  0  0  0  0
 17 28  1  0  0  0  0
 18 28  1  0  0  0  0
 18 30  2  0  0  0  0
 18 31  1  0  0  0  0
 19 21  2  0  0  0  0
 19 36  1  0  0  0  0
 20 22  2  0  0  0  0
 20 37  1  0  0  0  0
 21 50  1  0  0  0  0
 22 38  1  0  0  0  0
 23 83  1  0  0  0  0
 24 84  1  0  0  0  0
 25 27  2  0  0  0  0
 25 83  1  0  0  0  0
 26 85  1  0  0  0  0
 27 86  1  0  0  0  0
 28 65  2  0  0  0  0
 29 66  2  0  0  0  0
 29 69  1  0  0  0  0
 30 68  1  0  0  0  0
 30 73  1  0  0  0  0
 31 74  1  0  0  0  0
 31 78  2  0  0  0  0
 32 51  1  0  0  0  0
 32 75  1  0  0  0  0
 32 79  2  0  0  0  0
 33 62  1  0  0  0  0
 33 70  1  0  0  0  0
 33 80  2  0  0  0  0
 34 63  1  0  0  0  0
 34 76  1  0  0  0  0
 34 81  2  0  0  0  0
 35 71  1  0  0  0  0
 35 72  1  0  0  0  0
 35 82  2  0  0  0  0
 36 39  1  0  0  0  0
 37 51  1  0  0  0  0
 38 70  1  0  0  0  0
 39 41  1  0  0  0  0
 40 43  1  0  0  0  0
 40 45  1  0  0  0  0
 41 50  1  0  0  0  0
 42 44  1  0  0  0  0
 42 52  1  0  0  0  0
 43 53  1  0  0  0  0
 44 54  1  0  0  0  0
 45 71  1  0  0  0  0
 46 52  1  0  0  0  0
 46 69  1  0  0  0  0
 47 52  1  0  0  0  0
 47 72  1  0  0  0  0
 48 53  1  0  0  0  0
 48 71  1  0  0  0  0
 49 54  1  0  0  0  0
 49 72  1  0  0  0  0
 50 75  1  0  0  0  0
 51 70  1  0  0  0  0
 53 68  1  0  0  0  0
 54 69  1  0  0  0  0
 55 63  1  0  0  0  0
 56 64  1  0  0  0  0
 57 64  1  0  0  0  0
 58 64  1  0  0  0  0
 59 77  1  0  0  0  0
 60 61  1  0  0  0  0
 60 67  1  0  0  0  0
 61 84  1  0  0  0  0
 62 64  1  0  0  0  0
 62 76  1  0  0  0  0
 63 77  1  0  0  0  0
 65 68  1  0  0  0  0
 66 67  1  0  0  0  0
M  CHG  1  77   1
M  ISO  4  35 100  61 101  72 100  84 101
M  END
> <Batch ID>
0196

> <Smiles>
CNC(C)C(=O)NC(C(=O)N1Cc2cc([101O:1][101CH2:1]Cn3ccc(N4CC5CCC4C[100N:0]([100C:0](=O)N4CCCC(n6nc(-c7ccc(Oc8ccc(F)cc8F)cc7)c(C(N)=O)c6N)C4)C5)n3)ccc2CC1C(=O)NC1CCCc2ccccc21)C(C)(C)C

> <Shape>
0.144

> <Color>
0.168

> <Negative vol penalty>
0.000

$$$$

  -OEChem-04052323393D

 82 90  0     1  0  0  0  0  0999 V2000
  -32.4435  -34.6194   17.9634 C   0  0  0  0  0  0  0  0  0  0  0  0
  -32.0696  -33.3994   17.4090 C   0  0  0  0  0  0  0  0  0  0  0  0
  -23.4653  -14.5817   20.3442 C   0  0  0  0  0  0  0  0  0  0  0  0
  -24.3015  -13.9602   18.1644 C   0  0  0  0  0  0  0  0  0  0  0  0
  -32.2959  -34.8360   19.3328 C   0  0  0  0  0  0  0  0  0  0  0  0
  -31.5487  -32.3949   18.2240 C   0  0  0  0  0  0  0  0  0  0  0  0
  -26.8512  -26.9878   18.1096 C   0  0  0  0  0  0  0  0  0  0  0  0
  -22.9107  -15.7406   19.8010 C   0  0  0  0  0  0  0  0  0  0  0  0
  -23.7469  -15.1191   17.6212 C   0  0  0  0  0  0  0  0  0  0  0  0
  -26.7695  -25.6258   18.3960 C   0  0  0  0  0  0  0  0  0  0  0  0
  -22.8611  -18.0919   15.7270 C   0  0  0  0  0  0  0  0  0  0  0  0
  -23.6470  -18.8358   14.8469 C   0  0  0  0  0  0  0  0  0  0  0  0
  -26.4859  -26.1410   20.7355 C   0  0  0  0  0  0  0  0  0  0  0  0
  -25.2932  -19.1546   16.5864 C   0  0  0  0  0  0  0  0  0  0  0  0
  -24.1607  -13.6915   19.5259 C   0  0  0  0  0  0  0  0  0  0  0  0
  -24.1193  -11.2342   20.2097 C   0  0  0  0  0  0  0  0  0  0  0  0
  -31.7639  -33.8372   20.1634 C   0  0  0  0  0  0  0  0  0  0  0  0
  -26.7616  -27.9379   19.1371 C   0  0  0  0  0  0  0  0  0  0  0  0
  -31.3950  -32.5980   19.6060 C   0  0  0  0  0  0  0  0  0  0  0  0
  -26.5642  -27.5146   20.4592 C   0  0  0  0  0  0  0  0  0  0  0  0
  -23.0515  -16.0093   18.4395 C   0  0  0  0  0  0  0  0  0  0  0  0
  -26.5897  -25.2021   19.7095 C   0  0  0  0  0  0  0  0  0  0  0  0
  -23.2912  -17.8793   17.0368 C   0  0  0  0  0  0  0  0  0  0  0  0
  -24.8630  -19.3671   15.2766 C   0  0  0  0  0  0  0  0  0  0  0  0
  -24.5072  -18.4107   17.4665 C   0  0  0  0  0  0  0  0  0  0  0  0
  -24.7343  -12.4945   20.0865 C   0  0  0  0  0  0  0  0  0  0  0  0
  -25.0737  -10.4427   20.8005 C   0  0  0  0  0  0  0  0  0  0  0  0
  -22.8030  -10.8163   19.8243 C   0  0  0  0  0  0  0  0  0  0  0  0
  -28.7032  -30.1660   20.3075 C   0  0  0  0  0  0  0  0  0  0  0  0
  -28.7256  -19.2884   20.4949 C   0  0  0  0  0  0  0  0  0  0  0  0
  -26.1017  -30.9476   22.0806 C   0  0  0  0  0  0  0  0  0  0  0  0
  -23.1383  -29.9714   23.4634 C   0  0  0  0  0  0  0  0  0  0  0  0
  -29.5051  -13.9282   20.8267 C   0  0  0  0  0  0  0  0  0  0  0  0
  -31.6672  -34.1007   21.6452 C   0  0  0  0  0  0  0  0  0  0  0  0
  -26.8249  -29.4043   18.8082 C   0  0  0  0  0  0  0  0  0  0  0  0
  -26.4416  -28.4950   21.5959 C   0  0  0  0  0  0  0  0  0  0  0  0
  -30.7582  -33.1192   22.3805 C   0  0  0  0  0  0  0  0  0  0  0  0
  -27.6042  -12.3803   23.6539 C   0  0  0  0  0  0  0  0  0  0  0  0
  -31.0619  -31.6870   21.9522 C   0  0  0  0  0  0  0  0  0  0  0  0
  -27.4503  -10.9470   23.1493 C   0  0  0  0  0  0  0  0  0  0  0  0
  -28.8627  -13.0240   23.0888 C   0  0  0  0  0  0  0  0  0  0  0  0
  -30.0374  -17.2507   20.0159 C   0  0  0  0  0  0  0  0  0  0  0  0
  -27.7668  -16.9876   20.9797 C   0  0  0  0  0  0  0  0  0  0  0  0
  -30.5490  -16.1698   20.9591 C   0  0  0  0  0  0  0  0  0  0  0  0
  -28.2904  -15.8803   21.8964 C   0  0  0  0  0  0  0  0  0  0  0  0
  -28.7386  -11.5938   21.0672 C   0  0  0  0  0  0  0  0  0  0  0  0
  -30.8030  -31.4927   20.4533 C   0  0  1  0  0  0  0  0  0  0  0  0
  -27.2363  -30.2662   19.9978 C   0  0  1  0  0  0  0  0  0  0  0  0
  -27.4971  -10.8585   21.6110 C   0  0  2  0  0  0  0  0  0  0  0  0
  -21.2560  -30.8194   24.8900 C   0  0  0  0  0  0  0  0  0  0  0  0
  -27.8700  -30.7027   24.5551 C   0  0  0  0  0  0  0  0  0  0  0  0
  -25.7907  -30.6134   25.9466 C   0  0  0  0  0  0  0  0  0  0  0  0
  -26.2935  -32.6438   24.5875 C   0  0  0  0  0  0  0  0  0  0  0  0
  -21.1534  -29.5232   21.3144 C   0  0  0  0  0  0  0  0  0  0  0  0
  -27.4658  -19.8892   21.0661 C   0  0  0  0  0  0  0  0  0  0  0  0
  -26.1991  -22.0023   21.4771 C   0  0  0  0  0  0  0  0  0  0  0  0
  -26.3258  -23.5083   21.3579 C   0  0  0  0  0  0  0  0  0  1  0  0
  -25.5564  -30.5241   23.4231 C   0  0  1  0  0  0  0  0  0  0  0  0
  -21.7673  -30.6230   23.4713 C   0  0  2  0  0  0  0  0  0  0  0  0
  -26.3819  -31.1022   24.6071 C   0  0  0  0  0  0  0  0  0  0  0  0
  -25.9827  -12.5076   20.5611 N   0  0  0  0  0  0  0  0  0  0  0  0
  -26.1599  -11.2458   20.9884 N   0  0  0  0  0  0  0  0  0  0  0  0
  -26.5162  -29.9177   21.2243 N   0  0  0  0  0  0  0  0  0  0  0  0
  -28.8361  -17.8980   20.5496 N   0  0  0  0  0  0  0  0  0  0  0  0
  -28.9037  -12.9394   21.6243 N   0  0  0  0  0  0  0  0  0  0  0  0
  -29.4786  -15.2422   21.3178 N   0  0  0  0  0  0  0  0  0  0  0  0
  -25.0813   -9.1451   21.1727 N   0  0  0  0  0  0  0  0  0  0  0  0
  -21.9506  -11.7568   19.2300 N   0  0  0  0  0  0  0  0  0  0  0  0
  -29.3844  -31.3632   20.1980 N   0  0  0  0  0  0  0  0  0  0  0  0
  -24.1491  -30.9086   23.4318 N   0  0  0  0  0  0  0  0  0  0  0  0
  -20.7878  -29.7779   22.7316 N   0  3  0  0  0  0  0  0  0  0  0  0
  -27.4500  -21.3619   20.9768 N   0  3  0  0  0  0  0  0  0  0  0  0
  -22.3891   -9.6479   20.0168 O   0  0  0  0  0  0  0  0  0  0  0  0
  -29.1812  -29.0829   20.6239 O   0  0  0  0  0  0  0  0  0  0  0  0
  -29.5861  -20.0331   20.0183 O   0  0  0  0  0  0  0  0  0  0  0  0
  -26.1512  -32.1476   21.7992 O   0  0  0  0  0  0  0  0  0  0  0  0
  -23.2968  -28.7528   23.4870 O   0  0  0  0  0  0  0  0  0  0  0  0
  -30.0221  -13.6526   19.7369 O   0  0  0  0  0  0  0  0  0  0  0  0
  -22.5102  -17.1399   17.9091 O   0  0  0  0  0  0  0  0  0  0  0  0
  -26.5097  -23.8638   19.9940 O   0  0  0  0  0  0  0  0  0  1  0  0
  -25.6183  -20.0802   14.4309 F   0  0  0  0  0  0  0  0  0  0  0  0
  -24.9263  -18.2089   18.7233 F   0  0  0  0  0  0  0  0  0  0  0  0
  1  2  1  0  0  0  0
  1  5  2  0  0  0  0
  2  6  2  0  0  0  0
  3  8  2  0  0  0  0
  3 15  1  0  0  0  0
  4  9  1  0  0  0  0
  4 15  2  0  0  0  0
  5 17  1  0  0  0  0
  6 19  1  0  0  0  0
  7 10  2  0  0  0  0
  7 18  1  0  0  0  0
  8 21  1  0  0  0  0
  9 21  2  0  0  0  0
 10 22  1  0  0  0  0
 11 12  2  0  0  0  0
 11 23  1  0  0  0  0
 12 24  1  0  0  0  0
 13 20  1  0  0  0  0
 13 22  2  0  0  0  0
 14 24  2  0  0  0  0
 14 25  1  0  0  0  0
 15 26  1  0  0  0  0
 16 26  1  0  0  0  0
 16 27  2  0  0  0  0
 16 28  1  0  0  0  0
 17 19  2  0  0  0  0
 17 34  1  0  0  0  0
 18 20  2  0  0  0  0
 18 35  1  0  0  0  0
 19 47  1  0  0  0  0
 20 36  1  0  0  0  0
 21 79  1  0  0  0  0
 22 80  1  0  0  0  0
 23 25  2  0  0  0  0
 23 79  1  0  0  0  0
 24 81  1  0  0  0  0
 25 82  1  0  0  0  0
 26 61  2  0  0  0  0
 27 62  1  0  0  0  0
 27 67  1  0  0  0  0
 28 68  1  0  0  0  0
 28 73  2  0  0  0  0
 29 48  1  0  0  0  0
 29 69  1  0  0  0  0
 29 74  2  0  0  0  0
 30 55  1  0  0  0  0
 30 64  1  0  0  0  0
 30 75  2  0  0  0  0
 31 58  1  0  0  0  0
 31 63  1  0  0  0  0
 31 76  2  0  0  0  0
 32 59  1  0  0  0  0
 32 70  1  0  0  0  0
 32 77  2  0  0  0  0
 33 65  1  0  0  0  0
 33 66  1  0  0  0  0
 33 78  2  0  0  0  0
 34 37  1  0  0  0  0
 35 48  1  0  0  0  0
 36 63  1  0  0  0  0
 37 39  1  0  0  0  0
 38 40  1  0  0  0  0
 38 41  1  0  0  0  0
 39 47  1  0  0  0  0
 40 49  1  0  0  0  0
 41 65  1  0  0  0  0
 42 44  1  0  0  0  0
 42 64  1  0  0  0  0
 43 45  1  0  0  0  0
 43 64  1  0  0  0  0
 44 66  1  0  0  0  0
 45 66  1  0  0  0  0
 46 49  1  0  0  0  0
 46 65  1  0  0  0  0
 47 69  1  0  0  0  0
 48 63  1  0  0  0  0
 49 62  1  0  0  0  0
 50 59  1  0  0  0  0
 51 60  1  0  0  0  0
 52 60  1  0  0  0  0
 53 60  1  0  0  0  0
 54 71  1  0  0  0  0
 55 72  1  0  0  0  0
 56 57  1  0  0  0  0
 56 72  1  0  0  0  0
 57 80  1  0  0  0  0
 58 60  1  0  0  0  0
 58 70  1  0  0  0  0
 59 71  1  0  0  0  0
 61 62  1  0  0  0  0
M  CHG  2  71   1  72   1
M  ISO  4  33 100  57 101  66 100  80 101
M  END
> <Batch ID>
0196

> <Smiles>
CNC(C)C(=O)NC(C(=O)N1Cc2cc([101O:1][101CH2:1]CNCC(=O)N3CC[100N:0]([100C:0](=O)N4CCCC(n5nc(-c6ccc(Oc7ccc(F)cc7F)cc6)c(C(N)=O)c5N)C4)CC3)ccc2CC1C(=O)NC1CCCc2ccccc21)C(C)(C)C

> <Shape>
0.228

> <Color>
0.083

> <Negative vol penalty>
0.000

$$$$

  -OEChem-04052323393D

 84 93  0     1  0  0  0  0  0999 V2000
  -17.4413  -31.3156   20.0330 C   0  0  0  0  0  0  0  0  0  0  0  0
  -18.7722  -31.4026   19.6372 C   0  0  0  0  0  0  0  0  0  0  0  0
  -27.2319  -11.2652   21.0932 C   0  0  0  0  0  0  0  0  0  0  0  0
  -26.1698  -12.8085   19.5678 C   0  0  0  0  0  0  0  0  0  0  0  0
  -17.1260  -30.9175   21.3315 C   0  0  0  0  0  0  0  0  0  0  0  0
  -19.7886  -31.0928   20.5401 C   0  0  0  0  0  0  0  0  0  0  0  0
  -25.1586  -28.4370   19.2689 C   0  0  0  0  0  0  0  0  0  0  0  0
  -26.0956  -10.4567   21.0666 C   0  0  0  0  0  0  0  0  0  0  0  0
  -25.0334  -12.0000   19.5411 C   0  0  0  0  0  0  0  0  0  0  0  0
  -26.4372  -28.9553   19.0684 C   0  0  0  0  0  0  0  0  0  0  0  0
  -24.7172   -8.1647   18.9980 C   0  0  0  0  0  0  0  0  0  0  0  0
  -24.9032   -6.7894   18.8579 C   0  0  0  0  0  0  0  0  0  0  0  0
  -26.9721  -28.5134   21.3787 C   0  0  0  0  0  0  0  0  0  0  0  0
  -23.7987   -6.4243   20.9754 C   0  0  0  0  0  0  0  0  0  0  0  0
  -27.2690  -12.4411   20.3438 C   0  0  0  0  0  0  0  0  0  0  0  0
  -29.7493  -12.9202   19.9887 C   0  0  0  0  0  0  0  0  0  0  0  0
  -18.1389  -30.5933   22.2479 C   0  0  0  0  0  0  0  0  0  0  0  0
  -24.7729  -27.9622   20.5307 C   0  0  0  0  0  0  0  0  0  0  0  0
  -19.4866  -30.6913   21.8525 C   0  0  0  0  0  0  0  0  0  0  0  0
  -25.6889  -27.9872   21.5920 C   0  0  0  0  0  0  0  0  0  0  0  0
  -24.9963  -10.8241   20.2905 C   0  0  0  0  0  0  0  0  0  0  0  0
  -27.3432  -28.9963   20.1241 C   0  0  0  0  0  0  0  0  0  0  0  0
  -24.0720   -8.6698   20.1269 C   0  0  0  0  0  0  0  0  0  0  0  0
  -24.4439   -5.9192   19.8466 C   0  0  0  0  0  0  0  0  0  0  0  0
  -23.6128   -7.7996   21.1156 C   0  0  0  0  0  0  0  0  0  0  0  0
  -28.4424  -13.2769   20.3714 C   0  0  0  0  0  0  0  0  0  0  0  0
  -30.4914  -14.0564   20.2010 C   0  0  0  0  0  0  0  0  0  0  0  0
  -30.2480  -11.6734   19.4863 C   0  0  0  0  0  0  0  0  0  0  0  0
  -31.4957  -24.5760   18.6717 C   0  0  0  0  0  0  0  0  0  0  0  0
  -22.5417  -28.7702   22.6456 C   0  0  0  0  0  0  0  0  0  0  0  0
  -23.5907  -26.1139   24.1837 C   0  0  0  0  0  0  0  0  0  0  0  0
  -26.1178  -23.8835   24.7183 C   0  0  0  0  0  0  0  0  0  0  0  0
  -29.0133  -19.7642   20.2584 C   0  0  0  0  0  0  0  0  0  0  0  0
  -17.7505  -30.2136   23.6549 C   0  0  0  0  0  0  0  0  0  0  0  0
  -23.3989  -27.3815   20.7240 C   0  0  0  0  0  0  0  0  0  0  0  0
  -25.3308  -27.4712   22.9610 C   0  0  0  0  0  0  0  0  0  0  0  0
  -18.8760  -29.5417   24.4371 C   0  0  0  0  0  0  0  0  0  0  0  0
  -30.6406  -17.9726   22.9476 C   0  0  0  0  0  0  0  0  0  0  0  0
  -20.1803  -30.3137   24.2654 C   0  0  0  0  0  0  0  0  0  0  0  0
  -30.3804  -16.5203   22.5441 C   0  0  0  0  0  0  0  0  0  0  0  0
  -32.8660  -26.5740   19.2357 C   0  0  0  0  0  0  0  0  0  0  0  0
  -29.4415  -18.8601   22.6262 C   0  0  0  0  0  0  0  0  0  0  0  0
  -28.7436  -17.3629   20.7987 C   0  0  0  0  0  0  0  0  0  0  0  0
  -29.9525  -23.4840   20.4424 C   0  0  0  0  0  0  0  0  0  0  0  0
  -30.4485  -22.2382   18.7753 C   0  0  0  0  0  0  0  0  0  0  0  0
  -32.5762  -27.9875   19.7075 C   0  0  0  0  0  0  0  0  0  0  0  0
  -30.5179  -26.8345   19.0652 C   0  0  0  0  0  0  0  0  0  0  0  0
  -20.6167  -30.3396   22.7955 C   0  0  1  0  0  0  0  0  0  0  0  0
  -31.5688  -25.8260   19.4857 C   0  0  1  0  0  0  0  0  0  0  0  0
  -22.9420  -27.3991   22.1794 C   0  0  1  0  0  0  0  0  0  0  0  0
  -29.9284  -16.4198   21.0754 C   0  0  2  0  0  0  0  0  0  0  0  0
  -29.3301  -22.2183   19.8298 C   0  0  0  0  0  0  0  0  0  0  0  0
  -27.2698  -21.8392   25.6078 C   0  0  0  0  0  0  0  0  0  0  0  0
  -23.9764  -27.8529   26.6610 C   0  0  0  0  0  0  0  0  0  0  0  0
  -25.4038  -26.0373   27.6278 C   0  0  0  0  0  0  0  0  0  0  0  0
  -23.0035  -25.5939   27.1134 C   0  0  0  0  0  0  0  0  0  0  0  0
  -25.2343  -22.2432   22.4188 C   0  0  0  0  0  0  0  0  0  0  0  0
  -30.6661  -29.3268   18.7277 C   0  0  0  0  0  0  0  0  0  0  0  0
  -29.1540  -29.3647   18.6269 C   0  0  0  0  0  0  0  0  0  1  0  0
  -24.6558  -25.8255   25.2139 C   0  0  1  0  0  0  0  0  0  0  0  0
  -26.1327  -22.3658   24.7462 C   0  0  2  0  0  0  0  0  0  0  0  0
  -24.2663  -26.3390   26.6288 C   0  0  0  0  0  0  0  0  0  0  0  0
  -28.3558  -14.5407   20.7948 N   0  0  0  0  0  0  0  0  0  0  0  0
  -29.6178  -14.9881   20.6796 N   0  0  0  0  0  0  0  0  0  0  0  0
  -30.7251  -23.5898   19.2208 N   0  0  0  0  0  0  0  0  0  0  0  0
  -23.9734  -26.9189   23.1014 N   0  0  0  0  0  0  0  0  0  0  0  0
  -29.0743  -18.7323   21.2085 N   0  0  0  0  0  0  0  0  0  0  0  0
  -31.7993  -14.3393   20.0232 N   0  0  0  0  0  0  0  0  0  0  0  0
  -29.3497  -10.6092   19.3290 N   0  0  0  0  0  0  0  0  0  0  0  0
  -21.2122  -29.0743   22.4228 N   0  0  0  0  0  0  0  0  0  0  0  0
  -24.9096  -24.3904   25.1480 N   0  0  0  0  0  0  0  0  0  0  0  0
  -29.3426  -21.0358   20.7156 N   0  0  0  0  0  0  0  0  0  0  0  0
  -31.0762  -28.1520   19.5567 N   0  3  2  0  0  0  0  0  0  0  0  0
  -26.2977  -21.8240   23.3677 N   0  3  0  0  0  0  0  0  0  0  0  0
  -31.4577  -11.5031   19.2011 O   0  0  0  0  0  0  0  0  0  0  0  0
  -32.0869  -24.4741   17.5979 O   0  0  0  0  0  0  0  0  0  0  0  0
  -23.3767  -29.4979   23.1699 O   0  0  0  0  0  0  0  0  0  0  0  0
  -22.4627  -25.6365   24.3301 O   0  0  0  0  0  0  0  0  0  0  0  0
  -27.0828  -24.5525   24.3555 O   0  0  0  0  0  0  0  0  0  0  0  0
  -28.6939  -19.5723   19.0799 O   0  0  0  0  0  0  0  0  0  0  0  0
  -23.8874  -10.0353   20.2641 O   0  0  0  0  0  0  0  0  0  0  0  0
  -28.5917  -29.5023   19.9312 O   0  0  0  0  0  0  0  0  0  1  0  0
  -24.6212   -4.5985   19.7112 F   0  0  0  0  0  0  0  0  0  0  0  0
  -22.9912   -8.2789   22.2017 F   0  0  0  0  0  0  0  0  0  0  0  0
  1  2  1  0  0  0  0
  1  5  2  0  0  0  0
  2  6  2  0  0  0  0
  3  8  2  0  0  0  0
  3 15  1  0  0  0  0
  4  9  1  0  0  0  0
  4 15  2  0  0  0  0
  5 17  1  0  0  0  0
  6 19  1  0  0  0  0
  7 10  2  0  0  0  0
  7 18  1  0  0  0  0
  8 21  1  0  0  0  0
  9 21  2  0  0  0  0
 10 22  1  0  0  0  0
 11 12  2  0  0  0  0
 11 23  1  0  0  0  0
 12 24  1  0  0  0  0
 13 20  1  0  0  0  0
 13 22  2  0  0  0  0
 14 24  2  0  0  0  0
 14 25  1  0  0  0  0
 15 26  1  0  0  0  0
 16 26  1  0  0  0  0
 16 27  2  0  0  0  0
 16 28  1  0  0  0  0
 17 19  2  0  0  0  0
 17 34  1  0  0  0  0
 18 20  2  0  0  0  0
 18 35  1  0  0  0  0
 19 48  1  0  0  0  0
 20 36  1  0  0  0  0
 21 81  1  0  0  0  0
 22 82  1  0  0  0  0
 23 25  2  0  0  0  0
 23 81  1  0  0  0  0
 24 83  1  0  0  0  0
 25 84  1  0  0  0  0
 26 63  2  0  0  0  0
 27 64  1  0  0  0  0
 27 68  1  0  0  0  0
 28 69  1  0  0  0  0
 28 75  2  0  0  0  0
 29 49  1  0  0  0  0
 29 65  1  0  0  0  0
 29 76  2  0  0  0  0
 30 50  1  0  0  0  0
 30 70  1  0  0  0  0
 30 77  2  0  0  0  0
 31 60  1  0  0  0  0
 31 66  1  0  0  0  0
 31 78  2  0  0  0  0
 32 61  1  0  0  0  0
 32 71  1  0  0  0  0
 32 79  2  0  0  0  0
 33 67  1  0  0  0  0
 33 72  1  0  0  0  0
 33 80  2  0  0  0  0
 34 37  1  0  0  0  0
 35 50  1  0  0  0  0
 36 66  1  0  0  0  0
 37 39  1  0  0  0  0
 38 40  1  0  0  0  0
 38 42  1  0  0  0  0
 39 48  1  0  0  0  0
 40 51  1  0  0  0  0
 41 46  1  0  0  0  0
 41 49  1  0  0  0  0
 42 67  1  0  0  0  0
 43 51  1  0  0  0  0
 43 67  1  0  0  0  0
 44 52  1  0  0  0  0
 44 65  1  0  0  0  0
 45 52  1  0  0  0  0
 45 65  1  0  0  0  0
 46 73  1  0  0  0  0
 47 49  1  0  0  0  0
 47 73  1  0  0  0  0
 48 70  1  0  0  0  0
 50 66  1  0  0  0  0
 51 64  1  0  0  0  0
 52 72  1  0  0  0  0
 53 61  1  0  0  0  0
 54 62  1  0  0  0  0
 55 62  1  0  0  0  0
 56 62  1  0  0  0  0
 57 74  1  0  0  0  0
 58 59  1  0  0  0  0
 58 73  1  0  0  0  0
 59 82  1  0  0  0  0
 60 62  1  0  0  0  0
 60 71  1  0  0  0  0
 61 74  1  0  0  0  0
 63 64  1  0  0  0  0
M  CHG  2  73   1  74   1
M  ISO  4  33 100  59 101  72 100  82 101
M  END
> <Batch ID>
0196

> <Smiles>
CNC(C)C(=O)NC(C(=O)N1Cc2cc([101O:1][101CH2:1]CN3CCC(C(=O)N4CC([100NH:0][100C:0](=O)N5CCCC(n6nc(-c7ccc(Oc8ccc(F)cc8F)cc7)c(C(N)=O)c6N)C5)C4)C3)ccc2CC1C(=O)NC1CCCc2ccccc21)C(C)(C)C

> <Shape>
0.256

> <Color>
0.070

> <Negative vol penalty>
0.000

$$$$

  -OEChem-04052323393D

 88 98  0     1  0  0  0  0  0999 V2000
  -27.1131  -39.3430   22.6159 C   0  0  0  0  0  0  0  0  0  0  0  0
  -27.7632  -38.1934   22.1787 C   0  0  0  0  0  0  0  0  0  0  0  0
  -24.4394   -8.9840   22.1476 C   0  0  0  0  0  0  0  0  0  0  0  0
  -23.6028   -9.2770   19.9000 C   0  0  0  0  0  0  0  0  0  0  0  0
  -26.0880  -39.2480   23.5562 C   0  0  0  0  0  0  0  0  0  0  0  0
  -27.3892  -36.9480   22.6824 C   0  0  0  0  0  0  0  0  0  0  0  0
  -27.3469  -31.6184   19.6659 C   0  0  0  0  0  0  0  0  0  0  0  0
  -23.3509   -8.1645   22.4460 C   0  0  0  0  0  0  0  0  0  0  0  0
  -22.5143   -8.4574   20.1984 C   0  0  0  0  0  0  0  0  0  0  0  0
  -28.2521  -30.5590   19.6207 C   0  0  0  0  0  0  0  0  0  0  0  0
  -22.4193   -4.9614   21.8937 C   0  0  0  0  0  0  0  0  0  0  0  0
  -22.6708   -3.7749   22.5826 C   0  0  0  0  0  0  0  0  0  0  0  0
  -26.9759  -29.4043   21.3110 C   0  0  0  0  0  0  0  0  0  0  0  0
  -21.2347   -4.5138   24.3795 C   0  0  0  0  0  0  0  0  0  0  0  0
  -24.5654   -9.5403   20.8746 C   0  0  0  0  0  0  0  0  0  0  0  0
  -26.9370   -9.9898   20.0494 C   0  0  0  0  0  0  0  0  0  0  0  0
  -25.6948  -38.0000   24.0644 C   0  0  0  0  0  0  0  0  0  0  0  0
  -26.2536  -31.5835   20.5434 C   0  0  0  0  0  0  0  0  0  0  0  0
  -26.3588  -36.8364   23.6314 C   0  0  0  0  0  0  0  0  0  0  0  0
  -26.0569  -30.4634   21.3636 C   0  0  0  0  0  0  0  0  0  0  0  0
  -22.3884   -7.9011   21.4714 C   0  0  0  0  0  0  0  0  0  0  0  0
  -28.0683  -29.4530   20.4453 C   0  0  0  0  0  0  0  0  0  0  0  0
  -21.5755   -5.9241   22.4477 C   0  0  0  0  0  0  0  0  0  0  0  0
  -22.0785   -3.5511   23.8254 C   0  0  0  0  0  0  0  0  0  0  0  0
  -20.9832   -5.7003   23.6906 C   0  0  0  0  0  0  0  0  0  0  0  0
  -25.6893  -10.3875   20.5659 C   0  0  0  0  0  0  0  0  0  0  0  0
  -27.3750  -23.9028   18.9809 C   0  0  0  0  0  0  0  0  0  0  0  0
  -28.5847  -24.5461   18.9261 C   0  0  0  0  0  0  0  0  0  0  0  0
  -27.6497  -11.1584   19.9355 C   0  0  0  0  0  0  0  0  0  0  0  0
  -28.4437  -21.9355   18.6854 C   0  0  0  0  0  0  0  0  0  0  0  0
  -27.4095   -8.6811   19.7034 C   0  0  0  0  0  0  0  0  0  0  0  0
  -25.2926  -33.3551   23.0013 C   0  0  0  0  0  0  0  0  0  0  0  0
  -22.6730  -31.4480   22.8496 C   0  0  0  0  0  0  0  0  0  0  0  0
  -21.3106  -28.4671   21.8983 C   0  0  0  0  0  0  0  0  0  0  0  0
  -28.1789  -16.3188   18.5449 C   0  0  0  0  0  0  0  0  0  0  0  0
  -24.6133  -37.9519   25.1146 C   0  0  0  0  0  0  0  0  0  0  0  0
  -25.2713  -32.7224   20.5610 C   0  0  0  0  0  0  0  0  0  0  0  0
  -24.8880  -30.3680   22.3087 C   0  0  0  0  0  0  0  0  0  0  0  0
  -24.0245  -36.5584   25.3192 C   0  0  0  0  0  0  0  0  0  0  0  0
  -26.6855  -15.7989   21.6817 C   0  0  0  0  0  0  0  0  0  0  0  0
  -25.1363  -35.5194   25.4249 C   0  0  0  0  0  0  0  0  0  0  0  0
  -25.6633  -24.9949   20.5783 C   0  0  0  0  0  0  0  0  0  0  0  0
  -24.9224  -23.9580   19.7934 C   0  0  0  0  0  0  0  0  0  0  0  0
  -26.3886  -14.3005   21.6321 C   0  0  0  0  0  0  0  0  0  0  0  0
  -26.4020  -16.4839   20.3438 C   0  0  0  0  0  0  0  0  0  0  0  0
  -29.5367  -19.7382   19.0097 C   0  0  0  0  0  0  0  0  0  0  0  0
  -27.0779  -19.8962   18.5907 C   0  0  0  0  0  0  0  0  0  0  0  0
  -29.5431  -18.3640   18.3454 C   0  0  0  0  0  0  0  0  0  0  0  0
  -27.1302  -18.5265   17.9232 C   0  0  0  0  0  0  0  0  0  0  0  0
  -26.7884  -14.3572   19.1413 C   0  0  0  0  0  0  0  0  0  0  0  0
  -25.9650  -35.4650   24.1358 C   0  0  1  0  0  0  0  0  0  0  0  0
  -26.1035  -24.6600   19.1782 C   0  0  0  0  0  0  0  0  0  0  0  0
  -24.4795  -32.8085   21.8621 C   0  0  1  0  0  0  0  0  0  0  0  0
  -27.1193  -13.6313   20.4545 C   0  0  2  0  0  0  0  0  0  0  0  0
  -19.1551  -27.1828   21.9425 C   0  0  0  0  0  0  0  0  0  0  0  0
  -23.0995  -30.8386   25.8087 C   0  0  0  0  0  0  0  0  0  0  0  0
  -21.5588  -28.8815   25.5562 C   0  0  0  0  0  0  0  0  0  0  0  0
  -20.7131  -31.1929   25.1500 C   0  0  0  0  0  0  0  0  0  0  0  0
  -21.1900  -28.3420   18.9439 C   0  0  0  0  0  0  0  0  0  0  0  0
  -29.8718  -26.6820   19.0085 C   0  0  0  0  0  0  0  0  0  0  0  0
  -29.6041  -28.1701   19.1602 C   0  0  0  0  0  0  0  0  0  1  0  0
  -22.2727  -30.1302   23.4677 C   0  0  1  0  0  0  0  0  0  0  0  0
  -20.0329  -28.1373   21.1479 C   0  0  2  0  0  0  0  0  0  0  0  0
  -21.9342  -30.2631   24.9794 C   0  0  0  0  0  0  0  0  0  0  0  0
  -25.6107  -11.7057   20.7664 N   0  0  0  0  0  0  0  0  0  0  0  0
  -27.2752  -22.5703   18.8609 N   0  0  0  0  0  0  0  0  0  0  0  0
  -29.7254  -23.8554   18.7477 N   0  0  0  0  0  0  0  0  0  0  0  0
  -29.6594  -22.5135   18.6232 N   0  0  0  0  0  0  0  0  0  0  0  0
  -26.8180  -12.1464   20.3740 N   0  0  0  0  0  0  0  0  0  0  0  0
  -28.3974  -20.5418   18.5536 N   0  0  0  0  0  0  0  0  0  0  0  0
  -23.9587  -31.5098   22.2938 N   0  0  0  0  0  0  0  0  0  0  0  0
  -27.0867  -15.7870   19.2467 N   0  0  0  0  0  0  0  0  0  0  0  0
  -28.2396  -17.7166   18.4307 N   0  0  0  0  0  0  0  0  0  0  0  0
  -28.9004  -11.4268   19.5042 N   0  0  0  0  0  0  0  0  0  0  0  0
  -26.5477   -7.5905   19.8829 N   0  0  0  0  0  0  0  0  0  0  0  0
  -28.6446  -25.9492   19.0563 N   0  0  0  0  0  0  0  0  0  0  0  0
  -25.2553  -34.7322   23.1092 N   0  0  0  0  0  0  0  0  0  0  0  0
  -21.1781  -29.6131   22.6535 N   0  0  0  0  0  0  0  0  0  0  0  0
  -20.3508  -27.5028   19.8375 N   0  3  0  0  0  0  0  0  0  0  0  0
  -28.5676   -8.4826   19.2640 O   0  0  0  0  0  0  0  0  0  0  0  0
  -25.9070  -32.5844   23.7294 O   0  0  0  0  0  0  0  0  0  0  0  0
  -21.8716  -32.3858   22.8532 O   0  0  0  0  0  0  0  0  0  0  0  0
  -22.3237  -27.7751   21.8250 O   0  0  0  0  0  0  0  0  0  0  0  0
  -29.0498  -15.5911   18.0523 O   0  0  0  0  0  0  0  0  0  0  0  0
  -21.3262   -7.1012   21.7622 O   0  0  0  0  0  0  0  0  0  0  0  0
  -28.9569  -28.4107   20.4033 O   0  0  0  0  0  0  0  0  0  1  0  0
  -22.3189   -2.4110   24.4862 F   0  0  0  0  0  0  0  0  0  0  0  0
  -20.1708   -6.6210   24.2273 F   0  0  0  0  0  0  0  0  0  0  0  0
  1  2  1  0  0  0  0
  1  5  2  0  0  0  0
  2  6  2  0  0  0  0
  3  8  2  0  0  0  0
  3 15  1  0  0  0  0
  4  9  1  0  0  0  0
  4 15  2  0  0  0  0
  5 17  1  0  0  0  0
  6 19  1  0  0  0  0
  7 10  2  0  0  0  0
  7 18  1  0  0  0  0
  8 21  1  0  0  0  0
  9 21  2  0  0  0  0
 10 22  1  0  0  0  0
 11 12  2  0  0  0  0
 11 23  1  0  0  0  0
 12 24  1  0  0  0  0
 13 20  1  0  0  0  0
 13 22  2  0  0  0  0
 14 24  2  0  0  0  0
 14 25  1  0  0  0  0
 15 26  1  0  0  0  0
 16 26  1  0  0  0  0
 16 29  2  0  0  0  0
 16 31  1  0  0  0  0
 17 19  2  0  0  0  0
 17 36  1  0  0  0  0
 18 20  2  0  0  0  0
 18 37  1  0  0  0  0
 19 51  1  0  0  0  0
 20 38  1  0  0  0  0
 21 85  1  0  0  0  0
 22 86  1  0  0  0  0
 23 25  2  0  0  0  0
 23 85  1  0  0  0  0
 24 87  1  0  0  0  0
 25 88  1  0  0  0  0
 26 65  2  0  0  0  0
 27 28  2  0  0  0  0
 27 52  1  0  0  0  0
 27 66  1  0  0  0  0
 28 67  1  0  0  0  0
 28 76  1  0  0  0  0
 29 69  1  0  0  0  0
 29 74  1  0  0  0  0
 30 66  2  0  0  0  0
 30 68  1  0  0  0  0
 30 70  1  0  0  0  0
 31 75  1  0  0  0  0
 31 80  2  0  0  0  0
 32 53  1  0  0  0  0
 32 77  1  0  0  0  0
 32 81  2  0  0  0  0
 33 62  1  0  0  0  0
 33 71  1  0  0  0  0
 33 82  2  0  0  0  0
 34 63  1  0  0  0  0
 34 78  1  0  0  0  0
 34 83  2  0  0  0  0
 35 72  1  0  0  0  0
 35 73  1  0  0  0  0
 35 84  2  0  0  0  0
 36 39  1  0  0  0  0
 37 53  1  0  0  0  0
 38 71  1  0  0  0  0
 39 41  1  0  0  0  0
 40 44  1  0  0  0  0
 40 45  1  0  0  0  0
 41 51  1  0  0  0  0
 42 43  1  0  0  0  0
 42 52  1  0  0  0  0
 43 52  1  0  0  0  0
 44 54  1  0  0  0  0
 45 72  1  0  0  0  0
 46 48  1  0  0  0  0
 46 70  1  0  0  0  0
 47 49  1  0  0  0  0
 47 70  1  0  0  0  0
 48 73  1  0  0  0  0
 49 73  1  0  0  0  0
 50 54  1  0  0  0  0
 50 72  1  0  0  0  0
 51 77  1  0  0  0  0
 53 71  1  0  0  0  0
 54 69  1  0  0  0  0
 55 63  1  0  0  0  0
 56 64  1  0  0  0  0
 57 64  1  0  0  0  0
 58 64  1  0  0  0  0
 59 79  1  0  0  0  0
 60 61  1  0  0  0  0
 60 76  1  0  0  0  0
 61 86  1  0  0  0  0
 62 64  1  0  0  0  0
 62 78  1  0  0  0  0
 63 79  1  0  0  0  0
 65 69  1  0  0  0  0
 67 68  2  0  0  0  0
M  CHG  1  79   1
M  ISO  4  35 100  61 101  73 100  86 101
M  END
> <Batch ID>
0196

> <Smiles>
CNC(C)C(=O)NC(C(=O)N1Cc2cc([101O:1][101CH2:1]CNc3nnc(N4CC[100N:0]([100C:0](=O)N5CCCC(n6nc(-c7ccc(Oc8ccc(F)cc8F)cc7)c(C(N)=O)c6N)C5)CC4)nc3C3CC3)ccc2CC1C(=O)NC1CCCc2ccccc21)C(C)(C)C

> <Shape>
0.323

> <Color>
0.092

> <Negative vol penalty>
0.000

$$$$

  -OEChem-04052323393D

 83 91  0     1  0  0  0  0  0999 V2000
  -31.2079  -27.8914   25.1439 C   0  0  0  0  0  0  0  0  0  0  0  0
  -30.9106  -26.5828   25.5107 C   0  0  0  0  0  0  0  0  0  0  0  0
  -23.2893   -9.7926   19.9144 C   0  0  0  0  0  0  0  0  0  0  0  0
  -23.7391   -9.9404   22.2836 C   0  0  0  0  0  0  0  0  0  0  0  0
  -31.0523  -28.2951   23.8184 C   0  0  0  0  0  0  0  0  0  0  0  0
  -30.4565  -25.6773   24.5524 C   0  0  0  0  0  0  0  0  0  0  0  0
  -32.7324  -21.1675   24.9083 C   0  0  0  0  0  0  0  0  0  0  0  0
  -22.5683   -8.6173   20.1246 C   0  0  0  0  0  0  0  0  0  0  0  0
  -23.0181   -8.7650   22.4938 C   0  0  0  0  0  0  0  0  0  0  0  0
  -32.2929  -20.3102   25.9161 C   0  0  0  0  0  0  0  0  0  0  0  0
  -23.2367   -5.3471   20.6570 C   0  0  0  0  0  0  0  0  0  0  0  0
  -23.4701   -4.2805   19.7890 C   0  0  0  0  0  0  0  0  0  0  0  0
  -30.9691  -19.1011   24.3021 C   0  0  0  0  0  0  0  0  0  0  0  0
  -21.1479   -4.3143   19.1231 C   0  0  0  0  0  0  0  0  0  0  0  0
  -23.8748  -10.4542   20.9939 C   0  0  0  0  0  0  0  0  0  0  0  0
  -24.1226  -12.9849   20.7899 C   0  0  0  0  0  0  0  0  0  0  0  0
  -30.6053  -27.3915   22.8416 C   0  0  0  0  0  0  0  0  0  0  0  0
  -32.2843  -21.0044   23.5896 C   0  0  0  0  0  0  0  0  0  0  0  0
  -30.2935  -26.0696   23.2129 C   0  0  0  0  0  0  0  0  0  0  0  0
  -31.4065  -19.9561   23.2789 C   0  0  0  0  0  0  0  0  0  0  0  0
  -22.4326   -8.1035   21.4143 C   0  0  0  0  0  0  0  0  0  0  0  0
  -31.4089  -19.2787   25.6137 C   0  0  0  0  0  0  0  0  0  0  0  0
  -21.9589   -5.8973   20.7581 C   0  0  0  0  0  0  0  0  0  0  0  0
  -22.4258   -3.7641   19.0220 C   0  0  0  0  0  0  0  0  0  0  0  0
  -20.9145   -5.3809   19.9911 C   0  0  0  0  0  0  0  0  0  0  0  0
  -24.6202  -11.6681   20.7773 C   0  0  0  0  0  0  0  0  0  0  0  0
  -25.2205  -13.7693   20.5334 C   0  0  0  0  0  0  0  0  0  0  0  0
  -30.9800  -13.0102   25.1085 C   0  0  0  0  0  0  0  0  0  0  0  0
  -22.7874  -13.4569   21.0136 C   0  0  0  0  0  0  0  0  0  0  0  0
  -30.6254  -22.7880   21.5474 C   0  0  0  0  0  0  0  0  0  0  0  0
  -31.3391  -20.3927   19.4798 C   0  0  0  0  0  0  0  0  0  0  0  0
  -30.5554  -15.5045   27.5851 C   0  0  0  0  0  0  0  0  0  0  0  0
  -32.1903  -17.1199   19.0198 C   0  0  0  0  0  0  0  0  0  0  0  0
  -31.0952  -12.9549   21.3553 C   0  0  0  0  0  0  0  0  0  0  0  0
  -30.4075  -27.8867   21.4308 C   0  0  0  0  0  0  0  0  0  0  0  0
  -32.7887  -21.9211   22.5090 C   0  0  0  0  0  0  0  0  0  0  0  0
  -30.9115  -19.7258   21.8752 C   0  0  0  0  0  0  0  0  0  0  0  0
  -30.2788  -26.7647   20.4038 C   0  0  0  0  0  0  0  0  0  0  0  0
  -29.4433  -13.6802   18.2859 C   0  0  0  0  0  0  0  0  0  0  0  0
  -29.3133  -25.6937   20.9013 C   0  0  0  0  0  0  0  0  0  0  0  0
  -27.9750  -13.3656   18.5775 C   0  0  0  0  0  0  0  0  0  0  0  0
  -32.1418  -14.6227   23.7819 C   0  0  0  0  0  0  0  0  0  0  0  0
  -30.3810  -12.7066   18.9964 C   0  0  0  0  0  0  0  0  0  0  0  0
  -32.4311  -14.8759   25.2505 C   0  0  0  0  0  0  0  0  0  0  0  0
  -28.6961  -12.2733   20.7421 C   0  0  0  0  0  0  0  0  0  0  0  0
  -29.8221  -25.0514   22.1975 C   0  0  1  0  0  0  0  0  0  0  0  0
  -31.6559  -13.1764   23.7628 C   0  0  2  0  0  0  0  0  0  0  0  0
  -31.8660  -21.9787   21.2954 C   0  0  1  0  0  0  0  0  0  0  0  0
  -27.7137  -13.2626   20.0922 C   0  0  2  0  0  0  0  0  0  0  0  0
  -32.6680  -15.4438   17.2144 C   0  0  0  0  0  0  0  0  0  0  0  0
  -28.3531  -20.1817   18.8890 C   0  0  0  0  0  0  0  0  0  0  0  0
  -28.7863  -17.9419   17.8575 C   0  0  0  0  0  0  0  0  0  0  0  0
  -29.8303  -19.9860   16.8805 C   0  0  0  0  0  0  0  0  0  0  0  0
  -34.9472  -16.6762   20.0005 C   0  0  0  0  0  0  0  0  0  0  0  0
  -31.2079  -14.1677   27.3413 C   0  0  0  0  0  0  0  0  0  0  0  0
  -30.9235  -17.6183   28.8541 C   0  0  0  0  0  0  0  0  0  0  0  0
  -31.4715  -18.6766   27.9136 C   0  0  0  0  0  0  0  0  0  1  0  0
  -30.6849  -19.0907   19.0851 C   0  0  1  0  0  0  0  0  0  0  0  0
  -33.2639  -16.4687   18.1668 C   0  0  2  0  0  0  0  0  0  0  0  0
  -29.4213  -19.3053   18.2049 C   0  0  0  0  0  0  0  0  0  0  0  0
  -25.9321  -11.6149   20.5321 N   0  0  0  0  0  0  0  0  0  0  0  0
  -26.2681  -12.9081   20.3880 N   0  0  0  0  0  0  0  0  0  0  0  0
  -31.4899  -14.0154   25.9304 N   0  0  0  0  0  0  0  0  0  0  0  0
  -31.4284  -20.6526   20.8547 N   0  0  0  0  0  0  0  0  0  0  0  0
  -30.0818  -12.6569   20.4296 N   0  0  0  0  0  0  0  0  0  0  0  0
  -25.3824  -15.1047   20.4201 N   0  0  0  0  0  0  0  0  0  0  0  0
  -21.7791  -12.5159   21.2629 N   0  0  0  0  0  0  0  0  0  0  0  0
  -30.8725  -24.0982   21.9107 N   0  0  0  0  0  0  0  0  0  0  0  0
  -31.3084  -16.2922   28.4497 N   0  0  0  0  0  0  0  0  0  0  0  0
  -31.7247  -18.2869   18.4518 N   0  0  0  0  0  0  0  0  0  0  0  0
  -30.7257  -12.8906   22.6933 N   0  0  0  0  0  0  0  0  0  0  0  0
  -34.2654  -15.7813   19.0302 N   0  3  0  0  0  0  0  0  0  0  0  0
  -30.1901  -12.1259   25.4033 O   0  0  0  0  0  0  0  0  0  0  0  0
  -22.4939  -14.6760   20.9766 O   0  0  0  0  0  0  0  0  0  0  0  0
  -29.5254  -22.2632   21.4201 O   0  0  0  0  0  0  0  0  0  0  0  0
  -31.7620  -21.1478   18.6009 O   0  0  0  0  0  0  0  0  0  0  0  0
  -29.4910  -15.8405   27.0727 O   0  0  0  0  0  0  0  0  0  0  0  0
  -31.8008  -16.6394   20.0819 O   0  0  0  0  0  0  0  0  0  0  0  0
  -32.2429  -13.2612   21.0147 O   0  0  0  0  0  0  0  0  0  0  0  0
  -21.7289   -6.9567   21.6198 O   0  0  0  0  0  0  0  0  0  0  0  0
  -30.9778  -18.4409   26.5956 O   0  0  0  0  0  0  0  0  0  1  0  0
  -22.6504   -2.7408   18.1874 F   0  0  0  0  0  0  0  0  0  0  0  0
  -19.6851   -5.9060   20.0831 F   0  0  0  0  0  0  0  0  0  0  0  0
  1  2  1  0  0  0  0
  1  5  2  0  0  0  0
  2  6  2  0  0  0  0
  3  8  2  0  0  0  0
  3 15  1  0  0  0  0
  4  9  1  0  0  0  0
  4 15  2  0  0  0  0
  5 17  1  0  0  0  0
  6 19  1  0  0  0  0
  7 10  2  0  0  0  0
  7 18  1  0  0  0  0
  8 21  1  0  0  0  0
  9 21  2  0  0  0  0
 10 22  1  0  0  0  0
 11 12  2  0  0  0  0
 11 23  1  0  0  0  0
 12 24  1  0  0  0  0
 13 20  1  0  0  0  0
 13 22  2  0  0  0  0
 14 24  2  0  0  0  0
 14 25  1  0  0  0  0
 15 26  1  0  0  0  0
 16 26  1  0  0  0  0
 16 27  2  0  0  0  0
 16 29  1  0  0  0  0
 17 19  2  0  0  0  0
 17 35  1  0  0  0  0
 18 20  2  0  0  0  0
 18 36  1  0  0  0  0
 19 46  1  0  0  0  0
 20 37  1  0  0  0  0
 21 80  1  0  0  0  0
 22 81  1  0  0  0  0
 23 25  2  0  0  0  0
 23 80  1  0  0  0  0
 24 82  1  0  0  0  0
 25 83  1  0  0  0  0
 26 61  2  0  0  0  0
 27 62  1  0  0  0  0
 27 66  1  0  0  0  0
 28 47  1  0  0  0  0
 28 63  1  0  0  0  0
 28 73  2  0  0  0  0
 29 67  1  0  0  0  0
 29 74  2  0  0  0  0
 30 48  1  0  0  0  0
 30 68  1  0  0  0  0
 30 75  2  0  0  0  0
 31 58  1  0  0  0  0
 31 64  1  0  0  0  0
 31 76  2  0  0  0  0
 32 55  1  0  0  0  0
 32 69  1  0  0  0  0
 32 77  2  0  0  0  0
 33 59  1  0  0  0  0
 33 70  1  0  0  0  0
 33 78  2  0  0  0  0
 34 65  1  0  0  0  0
 34 71  1  0  0  0  0
 34 79  2  0  0  0  0
 35 38  1  0  0  0  0
 36 48  1  0  0  0  0
 37 64  1  0  0  0  0
 38 40  1  0  0  0  0
 39 41  1  0  0  0  0
 39 43  1  0  0  0  0
 40 46  1  0  0  0  0
 41 49  1  0  0  0  0
 42 44  1  0  0  0  0
 42 47  1  0  0  0  0
 43 65  1  0  0  0  0
 44 63  1  0  0  0  0
 45 49  1  0  0  0  0
 45 65  1  0  0  0  0
 46 68  1  0  0  0  0
 47 71  1  0  0  0  0
 48 64  1  0  0  0  0
 49 62  1  0  0  0  0
 50 59  1  0  0  0  0
 51 60  1  0  0  0  0
 52 60  1  0  0  0  0
 53 60  1  0  0  0  0
 54 72  1  0  0  0  0
 55 63  1  0  0  0  0
 56 57  1  0  0  0  0
 56 69  1  0  0  0  0
 57 81  1  0  0  0  0
 58 60  1  0  0  0  0
 58 70  1  0  0  0  0
 59 72  1  0  0  0  0
 61 62  1  0  0  0  0
M  CHG  1  72   1
M  ISO  4  34 100  57 101  71 100  81 101
M  END
> <Batch ID>
0196

> <Smiles>
CNC(C)C(=O)NC(C(=O)N1Cc2cc([101O:1][101CH2:1]CNC(=O)CN3CCC([100NH:0][100C:0](=O)N4CCCC(n5nc(-c6ccc(Oc7ccc(F)cc7F)cc6)c(C(N)=O)c5N)C4)C3=O)ccc2CC1C(=O)NC1CCCc2ccccc21)C(C)(C)C

> <Shape>
0.175

> <Color>
0.172

> <Negative vol penalty>
0.000

$$$$

  -OEChem-04052323393D

 85 95  0     1  0  0  0  0  0999 V2000
  -25.6438  -37.5330   22.8812 C   0  0  0  0  0  0  0  0  0  0  0  0
  -26.3161  -36.6749   22.0170 C   0  0  0  0  0  0  0  0  0  0  0  0
  -24.5452   -9.5108   22.2212 C   0  0  0  0  0  0  0  0  0  0  0  0
  -23.6163   -9.9887   20.0428 C   0  0  0  0  0  0  0  0  0  0  0  0
  -25.0347  -37.0280   24.0292 C   0  0  0  0  0  0  0  0  0  0  0  0
  -26.3808  -35.3112   22.3009 C   0  0  0  0  0  0  0  0  0  0  0  0
  -26.5725  -28.9337   19.0441 C   0  0  0  0  0  0  0  0  0  0  0  0
  -23.3954   -8.7950   22.5545 C   0  0  0  0  0  0  0  0  0  0  0  0
  -22.4665   -9.2728   20.3760 C   0  0  0  0  0  0  0  0  0  0  0  0
  -27.3225  -27.7586   19.0201 C   0  0  0  0  0  0  0  0  0  0  0  0
  -22.1014   -5.7326   21.9376 C   0  0  0  0  0  0  0  0  0  0  0  0
  -22.2657   -4.4969   22.5633 C   0  0  0  0  0  0  0  0  0  0  0  0
  -26.1654  -26.9871   20.9912 C   0  0  0  0  0  0  0  0  0  0  0  0
  -21.0211   -5.2982   24.4728 C   0  0  0  0  0  0  0  0  0  0  0  0
  -30.8957  -22.6259   19.5366 C   0  0  0  0  0  0  0  0  0  0  0  0
  -24.6557  -10.1078   20.9654 C   0  0  0  0  0  0  0  0  0  0  0  0
  -27.0101  -10.3475   20.0131 C   0  0  0  0  0  0  0  0  0  0  0  0
  -25.0836  -35.6560   24.3223 C   0  0  0  0  0  0  0  0  0  0  0  0
  -25.6194  -29.1494   20.0498 C   0  0  0  0  0  0  0  0  0  0  0  0
  -25.7729  -34.7875   23.4546 C   0  0  0  0  0  0  0  0  0  0  0  0
  -25.4028  -28.1646   21.0242 C   0  0  0  0  0  0  0  0  0  0  0  0
  -22.3561   -8.6759   21.6319 C   0  0  0  0  0  0  0  0  0  0  0  0
  -27.1210  -26.7864   19.9954 C   0  0  0  0  0  0  0  0  0  0  0  0
  -21.3970   -6.7512   22.5795 C   0  0  0  0  0  0  0  0  0  0  0  0
  -21.7256   -4.2797   23.8309 C   0  0  0  0  0  0  0  0  0  0  0  0
  -20.8568   -6.5340   23.8471 C   0  0  0  0  0  0  0  0  0  0  0  0
  -25.8429  -10.8478   20.6207 C   0  0  0  0  0  0  0  0  0  0  0  0
  -30.7172  -23.9874   19.5679 C   0  0  0  0  0  0  0  0  0  0  0  0
  -29.6859  -22.1240   19.0207 C   0  0  0  0  0  0  0  0  0  0  0  0
  -27.8341  -11.4406   19.9005 C   0  0  0  0  0  0  0  0  0  0  0  0
  -27.3214   -9.0140   19.5882 C   0  0  0  0  0  0  0  0  0  0  0  0
  -25.2467  -31.2967   22.3637 C   0  0  0  0  0  0  0  0  0  0  0  0
  -22.4145  -29.7732   22.7879 C   0  0  0  0  0  0  0  0  0  0  0  0
  -20.5689  -26.9283   22.4036 C   0  0  0  0  0  0  0  0  0  0  0  0
  -28.8233  -16.5763   18.6802 C   0  0  0  0  0  0  0  0  0  0  0  0
  -24.4506  -35.1635   25.5996 C   0  0  0  0  0  0  0  0  0  0  0  0
  -24.7997  -30.4106   20.0461 C   0  0  0  0  0  0  0  0  0  0  0  0
  -24.3775  -28.3389   22.1136 C   0  0  0  0  0  0  0  0  0  0  0  0
  -24.2448  -33.6513   25.6338 C   0  0  0  0  0  0  0  0  0  0  0  0
  -27.4659  -16.0727   21.8808 C   0  0  0  0  0  0  0  0  0  0  0  0
  -25.5047  -32.9304   25.1648 C   0  0  0  0  0  0  0  0  0  0  0  0
  -32.2994  -24.9125   21.4421 C   0  0  0  0  0  0  0  0  0  0  0  0
  -31.3178  -26.0004   21.1367 C   0  0  0  0  0  0  0  0  0  0  0  0
  -27.0105  -14.6165   21.7919 C   0  0  0  0  0  0  0  0  0  0  0  0
  -27.1798  -16.8424   20.5904 C   0  0  0  0  0  0  0  0  0  0  0  0
  -30.5581  -19.8137   19.1919 C   0  0  0  0  0  0  0  0  0  0  0  0
  -28.1097  -20.2423   18.9319 C   0  0  0  0  0  0  0  0  0  0  0  0
  -30.3816  -18.4773   18.4759 C   0  0  0  0  0  0  0  0  0  0  0  0
  -27.9790  -18.9057   18.2101 C   0  0  0  0  0  0  0  0  0  0  0  0
  -27.2704  -14.7434   19.2851 C   0  0  0  0  0  0  0  0  0  0  0  0
  -25.8437  -33.2985   23.7153 C   0  0  1  0  0  0  0  0  0  0  0  0
  -31.7240  -25.0303   20.0436 C   0  0  0  0  0  0  0  0  0  0  0  0
  -24.2180  -30.7491   21.4152 C   0  0  1  0  0  0  0  0  0  0  0  0
  -27.5979  -13.9291   20.5465 C   0  0  2  0  0  0  0  0  0  0  0  0
  -18.2982  -25.9736   22.8827 C   0  0  0  0  0  0  0  0  0  0  0  0
  -23.1779  -29.4366   25.7228 C   0  0  0  0  0  0  0  0  0  0  0  0
  -21.3845  -27.7006   25.9181 C   0  0  0  0  0  0  0  0  0  0  0  0
  -20.7853  -30.0499   25.3310 C   0  0  0  0  0  0  0  0  0  0  0  0
  -20.0147  -26.4996   19.5282 C   0  0  0  0  0  0  0  0  0  0  0  0
  -28.8126  -25.4898   18.9253 C   0  0  0  0  0  0  0  0  0  1  0  0
  -21.9446  -28.6004   23.6143 C   0  0  1  0  0  0  0  0  0  0  0  0
  -19.1663  -26.7021   21.8687 C   0  0  2  0  0  0  0  0  0  0  0  0
  -21.8438  -28.9441   25.1273 C   0  0  0  0  0  0  0  0  0  0  0  0
  -25.9152  -12.1568   20.8765 N   0  0  0  0  0  0  0  0  0  0  0  0
  -28.8038  -23.0882   18.7444 N   0  0  0  0  0  0  0  0  0  0  0  0
  -29.4600  -24.2096   19.0879 N   0  0  0  0  0  0  0  0  0  0  0  0
  -27.1378  -12.4882   20.4274 N   0  0  0  0  0  0  0  0  0  0  0  0
  -29.4855  -20.7498   18.8383 N   0  0  0  0  0  0  0  0  0  0  0  0
  -23.6057  -29.5918   22.0709 N   0  0  0  0  0  0  0  0  0  0  0  0
  -27.7233  -16.1287   19.4270 N   0  0  0  0  0  0  0  0  0  0  0  0
  -29.0243  -17.9641   18.6165 N   0  0  0  0  0  0  0  0  0  0  0  0
  -29.0793  -11.5981   19.4033 N   0  0  0  0  0  0  0  0  0  0  0  0
  -26.3613   -8.0109   19.7784 N   0  0  0  0  0  0  0  0  0  0  0  0
  -24.9841  -32.5820   22.7976 N   0  0  0  0  0  0  0  0  0  0  0  0
  -20.6894  -28.1572   23.0174 N   0  0  0  0  0  0  0  0  0  0  0  0
  -19.2129  -25.8898   20.6201 N   0  3  0  0  0  0  0  0  0  0  0  0
  -28.4250   -8.7175   19.0707 O   0  0  0  0  0  0  0  0  0  0  0  0
  -26.2067  -30.6037   22.6796 O   0  0  0  0  0  0  0  0  0  0  0  0
  -21.7454  -30.8094   22.7732 O   0  0  0  0  0  0  0  0  0  0  0  0
  -21.4667  -26.0965   22.2917 O   0  0  0  0  0  0  0  0  0  0  0  0
  -29.5830  -15.7857   18.1070 O   0  0  0  0  0  0  0  0  0  0  0  0
  -21.2340   -7.9773   21.9567 O   0  0  0  0  0  0  0  0  0  0  0  0
  -27.8569  -25.6314   19.9747 O   0  0  0  0  0  0  0  0  0  1  0  0
  -21.8821   -3.0924   24.4310 F   0  0  0  0  0  0  0  0  0  0  0  0
  -20.1781   -7.5083   24.4682 F   0  0  0  0  0  0  0  0  0  0  0  0
  1  2  1  0  0  0  0
  1  5  2  0  0  0  0
  2  6  2  0  0  0  0
  3  8  2  0  0  0  0
  3 16  1  0  0  0  0
  4  9  1  0  0  0  0
  4 16  2  0  0  0  0
  5 18  1  0  0  0  0
  6 20  1  0  0  0  0
  7 10  2  0  0  0  0
  7 19  1  0  0  0  0
  8 22  1  0  0  0  0
  9 22  2  0  0  0  0
 10 23  1  0  0  0  0
 11 12  2  0  0  0  0
 11 24  1  0  0  0  0
 12 25  1  0  0  0  0
 13 21  1  0  0  0  0
 13 23  2  0  0  0  0
 14 25  2  0  0  0  0
 14 26  1  0  0  0  0
 15 28  2  0  0  0  0
 15 29  1  0  0  0  0
 16 27  1  0  0  0  0
 17 27  1  0  0  0  0
 17 30  2  0  0  0  0
 17 31  1  0  0  0  0
 18 20  2  0  0  0  0
 18 36  1  0  0  0  0
 19 21  2  0  0  0  0
 19 37  1  0  0  0  0
 20 51  1  0  0  0  0
 21 38  1  0  0  0  0
 22 82  1  0  0  0  0
 23 83  1  0  0  0  0
 24 26  2  0  0  0  0
 24 82  1  0  0  0  0
 25 84  1  0  0  0  0
 26 85  1  0  0  0  0
 27 64  2  0  0  0  0
 28 52  1  0  0  0  0
 28 66  1  0  0  0  0
 29 65  2  0  0  0  0
 29 68  1  0  0  0  0
 30 67  1  0  0  0  0
 30 72  1  0  0  0  0
 31 73  1  0  0  0  0
 31 77  2  0  0  0  0
 32 53  1  0  0  0  0
 32 74  1  0  0  0  0
 32 78  2  0  0  0  0
 33 61  1  0  0  0  0
 33 69  1  0  0  0  0
 33 79  2  0  0  0  0
 34 62  1  0  0  0  0
 34 75  1  0  0  0  0
 34 80  2  0  0  0  0
 35 70  1  0  0  0  0
 35 71  1  0  0  0  0
 35 81  2  0  0  0  0
 36 39  1  0  0  0  0
 37 53  1  0  0  0  0
 38 69  1  0  0  0  0
 39 41  1  0  0  0  0
 40 44  1  0  0  0  0
 40 45  1  0  0  0  0
 41 51  1  0  0  0  0
 42 43  1  0  0  0  0
 42 52  1  0  0  0  0
 43 52  1  0  0  0  0
 44 54  1  0  0  0  0
 45 70  1  0  0  0  0
 46 48  1  0  0  0  0
 46 68  1  0  0  0  0
 47 49  1  0  0  0  0
 47 68  1  0  0  0  0
 48 71  1  0  0  0  0
 49 71  1  0  0  0  0
 50 54  1  0  0  0  0
 50 70  1  0  0  0  0
 51 74  1  0  0  0  0
 53 69  1  0  0  0  0
 54 67  1  0  0  0  0
 55 62  1  0  0  0  0
 56 63  1  0  0  0  0
 57 63  1  0  0  0  0
 58 63  1  0  0  0  0
 59 76  1  0  0  0  0
 60 66  1  0  0  0  0
 60 83  1  0  0  0  0
 61 63  1  0  0  0  0
 61 75  1  0  0  0  0
 62 76  1  0  0  0  0
 64 67  1  0  0  0  0
 65 66  1  0  0  0  0
M  CHG  1  76   1
M  ISO  4  35 100  60 101  71 100  83 101
M  END
> <Batch ID>
0196

> <Smiles>
CNC(C)C(=O)NC(C(=O)N1Cc2cc([101O:1][101CH2:1]n3nc(N4CC[100N:0]([100C:0](=O)N5CCCC(n6nc(-c7ccc(Oc8ccc(F)cc8F)cc7)c(C(N)=O)c6N)C5)CC4)cc3C3CC3)ccc2CC1C(=O)NC1CCCc2ccccc21)C(C)(C)C

> <Shape>
0.384

> <Color>
0.106

> <Negative vol penalty>
0.000

$$$$

  -OEChem-04052323393D

 83 92  0     1  0  0  0  0  0999 V2000
  -18.0701  -24.3437   22.9693 C   0  0  0  0  0  0  0  0  0  0  0  0
  -19.4281  -24.1982   22.7047 C   0  0  0  0  0  0  0  0  0  0  0  0
  -25.6753  -14.4422   24.4335 C   0  0  0  0  0  0  0  0  0  0  0  0
  -25.6350  -16.2044   22.7812 C   0  0  0  0  0  0  0  0  0  0  0  0
  -17.4687  -25.5962   22.8530 C   0  0  0  0  0  0  0  0  0  0  0  0
  -20.1853  -25.3050   22.3224 C   0  0  0  0  0  0  0  0  0  0  0  0
  -24.6268  -25.5497   24.7427 C   0  0  0  0  0  0  0  0  0  0  0  0
  -25.6341  -15.3954   25.4510 C   0  0  0  0  0  0  0  0  0  0  0  0
  -25.5938  -17.1576   23.7987 C   0  0  0  0  0  0  0  0  0  0  0  0
  -25.6437  -24.7081   24.2939 C   0  0  0  0  0  0  0  0  0  0  0  0
  -25.1139  -20.0434   25.9573 C   0  0  0  0  0  0  0  0  0  0  0  0
  -24.2086  -21.0962   25.8245 C   0  0  0  0  0  0  0  0  0  0  0  0
  -26.6234  -26.5486   23.0808 C   0  0  0  0  0  0  0  0  0  0  0  0
  -22.3811  -19.5170   25.7644 C   0  0  0  0  0  0  0  0  0  0  0  0
  -25.6758  -14.8467   23.0985 C   0  0  0  0  0  0  0  0  0  0  0  0
  -24.7826  -12.8407   21.8001 C   0  0  0  0  0  0  0  0  0  0  0  0
  -18.2209  -26.7207   22.4785 C   0  0  0  0  0  0  0  0  0  0  0  0
  -24.5945  -26.8968   24.3544 C   0  0  0  0  0  0  0  0  0  0  0  0
  -19.5931  -26.5734   22.1997 C   0  0  0  0  0  0  0  0  0  0  0  0
  -25.6065  -27.4059   23.5281 C   0  0  0  0  0  0  0  0  0  0  0  0
  -25.5933  -16.7530   25.1337 C   0  0  0  0  0  0  0  0  0  0  0  0
  -26.6406  -25.2068   23.4605 C   0  0  0  0  0  0  0  0  0  0  0  0
  -24.6528  -18.7274   25.9936 C   0  0  0  0  0  0  0  0  0  0  0  0
  -22.8422  -20.8330   25.7280 C   0  0  0  0  0  0  0  0  0  0  0  0
  -23.2864  -18.4642   25.8972 C   0  0  0  0  0  0  0  0  0  0  0  0
  -25.7189  -13.8626   22.0470 C   0  0  0  0  0  0  0  0  0  0  0  0
  -25.2742  -12.1834   20.6989 C   0  0  0  0  0  0  0  0  0  0  0  0
  -23.5763  -12.5150   22.5032 C   0  0  0  0  0  0  0  0  0  0  0  0
  -22.5624  -28.7109   22.7163 C   0  0  0  0  0  0  0  0  0  0  0  0
  -24.5828  -31.0904   23.5986 C   0  0  0  0  0  0  0  0  0  0  0  0
  -27.7170  -32.0132   24.5848 C   0  0  0  0  0  0  0  0  0  0  0  0
  -29.6242  -15.4185   19.6638 C   0  0  0  0  0  0  0  0  0  0  0  0
  -17.5169  -28.0451   22.3202 C   0  0  0  0  0  0  0  0  0  0  0  0
  -23.5056  -27.7980   24.8688 C   0  0  0  0  0  0  0  0  0  0  0  0
  -25.6285  -28.8494   23.0988 C   0  0  0  0  0  0  0  0  0  0  0  0
  -18.4676  -29.2385   22.2736 C   0  0  0  0  0  0  0  0  0  0  0  0
  -29.5679  -11.9152   20.3641 C   0  0  0  0  0  0  0  0  0  0  0  0
  -29.4040  -17.7827   16.9230 C   0  0  0  0  0  0  0  0  0  0  0  0
  -19.6310  -28.9575   21.3278 C   0  0  0  0  0  0  0  0  0  0  0  0
  -29.4721  -21.7149   22.7255 C   0  0  0  0  0  0  0  0  0  0  0  0
  -28.3607  -11.3833   19.5998 C   0  0  0  0  0  0  0  0  0  0  0  0
  -29.4769  -22.9572   23.6235 C   0  0  0  0  0  0  0  0  0  0  0  0
  -28.9963  -18.7032   18.0647 C   0  0  0  0  0  0  0  0  0  0  0  0
  -27.2327  -22.0523   23.5024 C   0  0  0  0  0  0  0  0  0  0  0  0
  -30.2466  -13.0309   19.5847 C   0  0  0  0  0  0  0  0  0  0  0  0
  -28.9548  -16.4174   17.4203 C   0  0  0  0  0  0  0  0  0  0  0  0
  -28.0784  -13.7111   18.5736 C   0  0  0  0  0  0  0  0  0  0  0  0
  -20.4531  -27.7549   21.8066 C   0  0  1  0  0  0  0  0  0  0  0  0
  -23.2858  -29.0287   23.9944 C   0  0  1  0  0  0  0  0  0  0  0  0
  -28.0162  -21.5100   22.3080 C   0  0  2  0  0  0  0  0  0  0  0  0
  -27.3711  -12.4944   19.2139 C   0  0  2  0  0  0  0  0  0  0  0  0
  -28.0107  -23.3079   23.8765 C   0  0  2  0  0  0  0  0  0  1  0  0
  -29.2879  -17.8656   19.3128 C   0  0  1  0  0  0  0  0  0  0  0  0
  -29.0752  -34.0331   25.1949 C   0  0  0  0  0  0  0  0  0  0  0  0
  -24.7858  -31.8420   20.6484 C   0  0  0  0  0  0  0  0  0  0  0  0
  -26.8229  -33.1876   21.2032 C   0  0  0  0  0  0  0  0  0  0  0  0
  -24.6215  -33.7872   22.2116 C   0  0  0  0  0  0  0  0  0  0  0  0
  -28.2280  -30.9888   27.3140 C   0  0  0  0  0  0  0  0  0  0  0  0
  -27.6843  -20.0638   21.9823 C   0  0  0  0  0  0  0  0  0  0  0  0
  -28.3374  -18.1977   20.4559 C   0  0  0  0  0  0  0  0  0  0  0  0
  -25.8255  -31.7116   23.0081 C   0  0  1  0  0  0  0  0  0  0  0  0
  -28.1951  -32.9071   25.7147 C   0  0  2  0  0  0  0  0  0  0  0  0
  -25.5127  -32.6044   21.7742 C   0  0  0  0  0  0  0  0  0  0  0  0
  -26.7290  -13.8586   21.1731 N   0  0  0  0  0  0  0  0  0  0  0  0
  -26.4302  -12.8262   20.3663 N   0  0  0  0  0  0  0  0  0  0  0  0
  -24.5388  -29.6892   23.6229 N   0  0  0  0  0  0  0  0  0  0  0  0
  -29.3174  -14.1120   19.2555 N   0  0  0  0  0  0  0  0  0  0  0  0
  -29.1695  -16.4719   18.8672 N   0  0  0  0  0  0  0  0  0  0  0  0
  -24.8261  -11.1239   19.9923 N   0  0  0  0  0  0  0  0  0  0  0  0
  -22.3805  -13.1215   22.0952 N   0  0  0  0  0  0  0  0  0  0  0  0
  -21.3187  -28.1379   22.9014 N   0  0  0  0  0  0  0  0  0  0  0  0
  -26.4896  -32.4140   24.1009 N   0  0  0  0  0  0  0  0  0  0  0  0
  -28.9795  -32.1161   26.7045 N   0  3  0  0  0  0  0  0  0  0  0  0
  -28.5178  -19.6162   20.8305 N   0  3  0  0  0  0  0  0  0  0  0  0
  -23.5621  -11.7223   23.4754 O   0  0  0  0  0  0  0  0  0  0  0  0
  -23.0928  -28.9680   21.6419 O   0  0  0  0  0  0  0  0  0  0  0  0
  -23.6874  -31.8214   24.0292 O   0  0  0  0  0  0  0  0  0  0  0  0
  -28.3689  -31.0574   24.1702 O   0  0  0  0  0  0  0  0  0  0  0  0
  -30.2838  -15.6346   20.6892 O   0  0  0  0  0  0  0  0  0  0  0  0
  -25.5528  -17.6834   26.1263 O   0  0  0  0  0  0  0  0  0  0  0  0
  -27.6401  -24.3822   23.0178 O   0  0  0  0  0  0  0  0  0  1  0  0
  -21.9728  -21.8442   25.6020 F   0  0  0  0  0  0  0  0  0  0  0  0
  -22.8374  -17.2021   25.9327 F   0  0  0  0  0  0  0  0  0  0  0  0
  1  2  1  0  0  0  0
  1  5  2  0  0  0  0
  2  6  2  0  0  0  0
  3  8  2  0  0  0  0
  3 15  1  0  0  0  0
  4  9  1  0  0  0  0
  4 15  2  0  0  0  0
  5 17  1  0  0  0  0
  6 19  1  0  0  0  0
  7 10  2  0  0  0  0
  7 18  1  0  0  0  0
  8 21  1  0  0  0  0
  9 21  2  0  0  0  0
 10 22  1  0  0  0  0
 11 12  2  0  0  0  0
 11 23  1  0  0  0  0
 12 24  1  0  0  0  0
 13 20  1  0  0  0  0
 13 22  2  0  0  0  0
 14 24  2  0  0  0  0
 14 25  1  0  0  0  0
 15 26  1  0  0  0  0
 16 26  1  0  0  0  0
 16 27  2  0  0  0  0
 16 28  1  0  0  0  0
 17 19  2  0  0  0  0
 17 33  1  0  0  0  0
 18 20  2  0  0  0  0
 18 34  1  0  0  0  0
 19 48  1  0  0  0  0
 20 35  1  0  0  0  0
 21 80  1  0  0  0  0
 22 81  1  0  0  0  0
 23 25  2  0  0  0  0
 23 80  1  0  0  0  0
 24 82  1  0  0  0  0
 25 83  1  0  0  0  0
 26 64  2  0  0  0  0
 27 65  1  0  0  0  0
 27 69  1  0  0  0  0
 28 70  1  0  0  0  0
 28 75  2  0  0  0  0
 29 49  1  0  0  0  0
 29 71  1  0  0  0  0
 29 76  2  0  0  0  0
 30 61  1  0  0  0  0
 30 66  1  0  0  0  0
 30 77  2  0  0  0  0
 31 62  1  0  0  0  0
 31 72  1  0  0  0  0
 31 78  2  0  0  0  0
 32 67  1  0  0  0  0
 32 68  1  0  0  0  0
 32 79  2  0  0  0  0
 33 36  1  0  0  0  0
 34 49  1  0  0  0  0
 35 66  1  0  0  0  0
 36 39  1  0  0  0  0
 37 41  1  0  0  0  0
 37 45  1  0  0  0  0
 38 43  1  0  0  0  0
 38 46  1  0  0  0  0
 39 48  1  0  0  0  0
 40 42  1  0  0  0  0
 40 50  1  0  0  0  0
 41 51  1  0  0  0  0
 42 52  1  0  0  0  0
 43 53  1  0  0  0  0
 44 50  1  0  0  0  0
 44 52  1  0  0  0  0
 45 67  1  0  0  0  0
 46 68  1  0  0  0  0
 47 51  1  0  0  0  0
 47 67  1  0  0  0  0
 48 71  1  0  0  0  0
 49 66  1  0  0  0  0
 50 59  1  0  0  0  0
 51 65  1  0  0  0  0
 52 81  1  0  0  0  0
 53 60  1  0  0  0  0
 53 68  1  0  0  0  0
 54 62  1  0  0  0  0
 55 63  1  0  0  0  0
 56 63  1  0  0  0  0
 57 63  1  0  0  0  0
 58 73  1  0  0  0  0
 59 74  1  0  0  0  0
 60 74  1  0  0  0  0
 61 63  1  0  0  0  0
 61 72  1  0  0  0  0
 62 73  1  0  0  0  0
 64 65  1  0  0  0  0
M  CHG  2  73   1  74   1
M  ISO  4  32 100  52 101  68 100  81 101
M  END
> <Batch ID>
0196

> <Smiles>
CNC(C)C(=O)NC(C(=O)N1Cc2cc([101O:1][101CH:1]3CCC(CNCC4CCC[100N:0]4[100C:0](=O)N4CCCC(n5nc(-c6ccc(Oc7ccc(F)cc7F)cc6)c(C(N)=O)c5N)C4)C3)ccc2CC1C(=O)NC1CCCc2ccccc21)C(C)(C)C

> <Shape>
0.237

> <Color>
0.080

> <Negative vol penalty>
0.000

$$$$

  -OEChem-04052323393D

 83 92  0     1  0  0  0  0  0999 V2000
  -32.3017  -37.8863   21.4094 C   0  0  0  0  0  0  0  0  0  0  0  0
  -32.2279  -36.8560   20.4774 C   0  0  0  0  0  0  0  0  0  0  0  0
  -24.4229   -9.0833   22.2491 C   0  0  0  0  0  0  0  0  0  0  0  0
  -23.9007   -9.1240   19.8906 C   0  0  0  0  0  0  0  0  0  0  0  0
  -31.9362  -37.6534   22.7346 C   0  0  0  0  0  0  0  0  0  0  0  0
  -31.7896  -35.5920   20.8704 C   0  0  0  0  0  0  0  0  0  0  0  0
  -28.1856  -29.9153   18.4001 C   0  0  0  0  0  0  0  0  0  0  0  0
  -23.3180   -8.2638   22.4797 C   0  0  0  0  0  0  0  0  0  0  0  0
  -22.7957   -8.3045   20.1211 C   0  0  0  0  0  0  0  0  0  0  0  0
  -28.3096  -28.5324   18.2737 C   0  0  0  0  0  0  0  0  0  0  0  0
  -22.5275   -4.9939   22.1393 C   0  0  0  0  0  0  0  0  0  0  0  0
  -22.7018   -3.8906   22.9747 C   0  0  0  0  0  0  0  0  0  0  0  0
  -27.6289  -28.2672   20.5727 C   0  0  0  0  0  0  0  0  0  0  0  0
  -21.0181   -4.7597   24.4737 C   0  0  0  0  0  0  0  0  0  0  0  0
  -29.6098  -23.6949   18.6441 C   0  0  0  0  0  0  0  0  0  0  0  0
  -24.7143   -9.5134   20.9546 C   0  0  0  0  0  0  0  0  0  0  0  0
  -27.1692   -9.9525   20.4177 C   0  0  0  0  0  0  0  0  0  0  0  0
  -31.4840  -36.3884   23.1419 C   0  0  0  0  0  0  0  0  0  0  0  0
  -27.7921  -30.4861   19.6190 C   0  0  0  0  0  0  0  0  0  0  0  0
  -31.4190  -35.3416   22.2026 C   0  0  0  0  0  0  0  0  0  0  0  0
  -27.4982  -29.6575   20.7112 C   0  0  0  0  0  0  0  0  0  0  0  0
  -22.5044   -7.8744   21.4157 C   0  0  0  0  0  0  0  0  0  0  0  0
  -28.0340  -27.7083   19.3609 C   0  0  0  0  0  0  0  0  0  0  0  0
  -21.5986   -5.9802   22.4711 C   0  0  0  0  0  0  0  0  0  0  0  0
  -21.9470   -3.7735   24.1419 C   0  0  0  0  0  0  0  0  0  0  0  0
  -20.8439   -5.8631   23.6383 C   0  0  0  0  0  0  0  0  0  0  0  0
  -25.8552  -10.3604   20.7159 C   0  0  0  0  0  0  0  0  0  0  0  0
  -28.6026  -24.3686   18.0021 C   0  0  0  0  0  0  0  0  0  0  0  0
  -27.8704  -11.1257   20.2818 C   0  0  0  0  0  0  0  0  0  0  0  0
  -28.6426  -21.7439   18.0460 C   0  0  0  0  0  0  0  0  0  0  0  0
  -27.7077   -8.6313   20.2761 C   0  0  0  0  0  0  0  0  0  0  0  0
  -29.1328  -32.4831   21.6970 C   0  0  0  0  0  0  0  0  0  0  0  0
  -26.2207  -32.3408   23.1188 C   0  0  0  0  0  0  0  0  0  0  0  0
  -23.3201  -30.6123   23.6147 C   0  0  0  0  0  0  0  0  0  0  0  0
  -28.4974  -16.1357   18.4512 C   0  0  0  0  0  0  0  0  0  0  0  0
  -31.1450  -36.1720   24.5955 C   0  0  0  0  0  0  0  0  0  0  0  0
  -27.6373  -31.9781   19.7313 C   0  0  0  0  0  0  0  0  0  0  0  0
  -27.0526  -30.2194   22.0357 C   0  0  0  0  0  0  0  0  0  0  0  0
  -30.3348  -34.9034   24.8497 C   0  0  0  0  0  0  0  0  0  0  0  0
  -26.5932  -15.8848   21.3924 C   0  0  0  0  0  0  0  0  0  0  0  0
  -30.9425  -33.7226   24.0993 C   0  0  0  0  0  0  0  0  0  0  0  0
  -26.3321  -14.3804   21.4578 C   0  0  0  0  0  0  0  0  0  0  0  0
  -26.4859  -16.4236   19.9649 C   0  0  0  0  0  0  0  0  0  0  0  0
  -29.7182  -19.6253   18.7410 C   0  0  0  0  0  0  0  0  0  0  0  0
  -27.3388  -19.6634   17.9774 C   0  0  0  0  0  0  0  0  0  0  0  0
  -29.8403  -18.1926   18.2291 C   0  0  0  0  0  0  0  0  0  0  0  0
  -27.5067  -18.2362   17.4681 C   0  0  0  0  0  0  0  0  0  0  0  0
  -27.0719  -14.2007   19.0521 C   0  0  0  0  0  0  0  0  0  0  0  0
  -30.9250  -33.9632   22.5849 C   0  0  1  0  0  0  0  0  0  0  0  0
  -27.7262  -32.4815   21.1687 C   0  0  1  0  0  0  0  0  0  0  0  0
  -27.2304  -13.6202   20.4660 C   0  0  2  0  0  0  0  0  0  0  0  0
  -21.1436  -30.7320   24.8581 C   0  0  0  0  0  0  0  0  0  0  0  0
  -27.6576  -31.5843   25.7020 C   0  0  0  0  0  0  0  0  0  0  0  0
  -25.4602  -30.8048   26.6141 C   0  0  0  0  0  0  0  0  0  0  0  0
  -25.7714  -33.2005   25.9923 C   0  0  0  0  0  0  0  0  0  0  0  0
  -21.7517  -30.5875   21.1050 C   0  0  0  0  0  0  0  0  0  0  0  0
  -28.5688  -25.8548   17.9700 C   0  0  0  0  0  0  0  0  0  1  0  0
  -25.5849  -31.4605   24.1676 C   0  0  1  0  0  0  0  0  0  0  0  0
  -21.8665  -31.0464   23.5576 C   0  0  2  0  0  0  0  0  0  0  0  0
  -26.1288  -31.7518   25.5947 C   0  0  0  0  0  0  0  0  0  0  0  0
  -29.6539  -22.3545   18.6813 N   0  0  0  0  0  0  0  0  0  0  0  0
  -25.7267  -11.6889   20.7668 N   0  0  0  0  0  0  0  0  0  0  0  0
  -27.6132  -23.7012   17.3812 N   0  0  0  0  0  0  0  0  0  0  0  0
  -27.6282  -22.3521   17.4004 N   0  0  0  0  0  0  0  0  0  0  0  0
  -26.9690  -12.1260   20.4988 N   0  0  0  0  0  0  0  0  0  0  0  0
  -28.6392  -20.3432   18.0537 N   0  0  0  0  0  0  0  0  0  0  0  0
  -26.9222  -31.6846   22.0975 N   0  0  0  0  0  0  0  0  0  0  0  0
  -27.3279  -15.6425   19.0489 N   0  0  0  0  0  0  0  0  0  0  0  0
  -28.5491  -17.5162   18.2026 N   0  0  0  0  0  0  0  0  0  0  0  0
  -29.1639  -11.3889   19.9992 N   0  0  0  0  0  0  0  0  0  0  0  0
  -26.8484   -7.5376   20.4482 N   0  0  0  0  0  0  0  0  0  0  0  0
  -29.5990  -33.7346   22.0522 N   0  0  0  0  0  0  0  0  0  0  0  0
  -24.1433  -31.6376   24.0298 N   0  0  0  0  0  0  0  0  0  0  0  0
  -21.1606  -30.3475   22.4466 N   0  3  0  0  0  0  0  0  0  0  0  0
  -28.9187   -8.4265   20.0211 O   0  0  0  0  0  0  0  0  0  0  0  0
  -29.7491  -31.4270   21.7780 O   0  0  0  0  0  0  0  0  0  0  0  0
  -26.0933  -33.5651   23.1987 O   0  0  0  0  0  0  0  0  0  0  0  0
  -23.6879  -29.4763   23.3239 O   0  0  0  0  0  0  0  0  0  0  0  0
  -29.4406  -15.3901   18.1593 O   0  0  0  0  0  0  0  0  0  0  0  0
  -21.4262   -7.0746   21.6403 O   0  0  0  0  0  0  0  0  0  0  0  0
  -28.1557  -26.3496   19.2396 O   0  0  0  0  0  0  0  0  0  1  0  0
  -22.1134   -2.7132   24.9432 F   0  0  0  0  0  0  0  0  0  0  0  0
  -19.9491   -6.8068   23.9617 F   0  0  0  0  0  0  0  0  0  0  0  0
  1  2  1  0  0  0  0
  1  5  2  0  0  0  0
  2  6  2  0  0  0  0
  3  8  2  0  0  0  0
  3 16  1  0  0  0  0
  4  9  1  0  0  0  0
  4 16  2  0  0  0  0
  5 18  1  0  0  0  0
  6 20  1  0  0  0  0
  7 10  2  0  0  0  0
  7 19  1  0  0  0  0
  8 22  1  0  0  0  0
  9 22  2  0  0  0  0
 10 23  1  0  0  0  0
 11 12  2  0  0  0  0
 11 24  1  0  0  0  0
 12 25  1  0  0  0  0
 13 21  1  0  0  0  0
 13 23  2  0  0  0  0
 14 25  2  0  0  0  0
 14 26  1  0  0  0  0
 15 28  1  0  0  0  0
 15 61  2  0  0  0  0
 16 27  1  0  0  0  0
 17 27  1  0  0  0  0
 17 29  2  0  0  0  0
 17 31  1  0  0  0  0
 18 20  2  0  0  0  0
 18 36  1  0  0  0  0
 19 21  2  0  0  0  0
 19 37  1  0  0  0  0
 20 49  1  0  0  0  0
 21 38  1  0  0  0  0
 22 80  1  0  0  0  0
 23 81  1  0  0  0  0
 24 26  2  0  0  0  0
 24 80  1  0  0  0  0
 25 82  1  0  0  0  0
 26 83  1  0  0  0  0
 27 62  2  0  0  0  0
 28 57  1  0  0  0  0
 28 63  2  0  0  0  0
 29 65  1  0  0  0  0
 29 70  1  0  0  0  0
 30 61  1  0  0  0  0
 30 64  2  0  0  0  0
 30 66  1  0  0  0  0
 31 71  1  0  0  0  0
 31 75  2  0  0  0  0
 32 50  1  0  0  0  0
 32 72  1  0  0  0  0
 32 76  2  0  0  0  0
 33 58  1  0  0  0  0
 33 67  1  0  0  0  0
 33 77  2  0  0  0  0
 34 59  1  0  0  0  0
 34 73  1  0  0  0  0
 34 78  2  0  0  0  0
 35 68  1  0  0  0  0
 35 69  1  0  0  0  0
 35 79  2  0  0  0  0
 36 39  1  0  0  0  0
 37 50  1  0  0  0  0
 38 67  1  0  0  0  0
 39 41  1  0  0  0  0
 40 42  1  0  0  0  0
 40 43  1  0  0  0  0
 41 49  1  0  0  0  0
 42 51  1  0  0  0  0
 43 68  1  0  0  0  0
 44 46  1  0  0  0  0
 44 66  1  0  0  0  0
 45 47  1  0  0  0  0
 45 66  1  0  0  0  0
 46 69  1  0  0  0  0
 47 69  1  0  0  0  0
 48 51  1  0  0  0  0
 48 68  1  0  0  0  0
 49 72  1  0  0  0  0
 50 67  1  0  0  0  0
 51 65  1  0  0  0  0
 52 59  1  0  0  0  0
 53 60  1  0  0  0  0
 54 60  1  0  0  0  0
 55 60  1  0  0  0  0
 56 74  1  0  0  0  0
 57 81  1  0  0  0  0
 58 60  1  0  0  0  0
 58 73  1  0  0  0  0
 59 74  1  0  0  0  0
 62 65  1  0  0  0  0
 63 64  1  0  0  0  0
M  CHG  1  74   1
M  ISO  4  35 100  57 101  69 100  81 101
M  END
> <Batch ID>
0196

> <Smiles>
CNC(C)C(=O)NC(C(=O)N1Cc2cc([101O:1][101CH2:1]c3cnc(N4CC[100N:0]([100C:0](=O)N5CCCC(n6nc(-c7ccc(Oc8ccc(F)cc8F)cc7)c(C(N)=O)c6N)C5)CC4)nn3)ccc2CC1C(=O)NC1CCCc2ccccc21)C(C)(C)C

> <Shape>
0.259

> <Color>
0.110

> <Negative vol penalty>
0.000

$$$$

  -OEChem-04052323393D

 86 95  0     1  0  0  0  0  0999 V2000
  -21.4645  -29.8319   14.0044 C   0  0  0  0  0  0  0  0  0  0  0  0
  -22.6388  -29.4154   14.6232 C   0  0  0  0  0  0  0  0  0  0  0  0
  -22.2065  -13.8668   22.5443 C   0  0  0  0  0  0  0  0  0  0  0  0
  -21.6249  -13.3222   20.2635 C   0  0  0  0  0  0  0  0  0  0  0  0
  -20.9260  -31.0827   14.3035 C   0  0  0  0  0  0  0  0  0  0  0  0
  -23.2760  -30.2500   15.5407 C   0  0  0  0  0  0  0  0  0  0  0  0
  -24.7677  -27.7811   19.7029 C   0  0  0  0  0  0  0  0  0  0  0  0
  -20.8626  -14.1085   22.8293 C   0  0  0  0  0  0  0  0  0  0  0  0
  -20.2810  -13.5638   20.5484 C   0  0  0  0  0  0  0  0  0  0  0  0
  -25.9276  -27.0135   19.6066 C   0  0  0  0  0  0  0  0  0  0  0  0
  -18.0914  -12.2895   23.4957 C   0  0  0  0  0  0  0  0  0  0  0  0
  -17.5739  -11.7596   24.6776 C   0  0  0  0  0  0  0  0  0  0  0  0
  -27.1810  -28.7866   20.6574 C   0  0  0  0  0  0  0  0  0  0  0  0
  -17.0235  -13.9868   25.4351 C   0  0  0  0  0  0  0  0  0  0  0  0
  -31.8336  -23.5486   19.4583 C   0  0  0  0  0  0  0  0  0  0  0  0
  -22.5876  -13.4737   21.2614 C   0  0  0  0  0  0  0  0  0  0  0  0
  -24.6633  -12.0016   21.0827 C   0  0  0  0  0  0  0  0  0  0  0  0
  -21.5516  -31.9291   15.2325 C   0  0  0  0  0  0  0  0  0  0  0  0
  -24.8079  -29.0637   20.2683 C   0  0  0  0  0  0  0  0  0  0  0  0
  -22.7461  -31.5139   15.8516 C   0  0  0  0  0  0  0  0  0  0  0  0
  -26.0198  -29.5674   20.7621 C   0  0  0  0  0  0  0  0  0  0  0  0
  -19.8999  -13.9570   21.8314 C   0  0  0  0  0  0  0  0  0  0  0  0
  -27.1350  -27.5174   20.0812 C   0  0  0  0  0  0  0  0  0  0  0  0
  -18.0750  -13.6680   23.2835 C   0  0  0  0  0  0  0  0  0  0  0  0
  -17.0399  -12.6082   25.6473 C   0  0  0  0  0  0  0  0  0  0  0  0
  -17.5410  -14.5167   24.2532 C   0  0  0  0  0  0  0  0  0  0  0  0
  -23.9757  -13.2245   20.9662 C   0  0  0  0  0  0  0  0  0  0  0  0
  -30.8272  -23.1951   20.3300 C   0  0  0  0  0  0  0  0  0  0  0  0
  -30.4779  -25.1454   18.5407 C   0  0  0  0  0  0  0  0  0  0  0  0
  -29.4712  -24.7915   19.4118 C   0  0  0  0  0  0  0  0  0  0  0  0
  -25.9463  -12.2899   20.6858 C   0  0  0  0  0  0  0  0  0  0  0  0
  -24.1851  -10.7197   21.5112 C   0  0  0  0  0  0  0  0  0  0  0  0
  -24.1994  -32.0000   19.2138 C   0  0  0  0  0  0  0  0  0  0  0  0
  -24.6878  -32.7965   22.3201 C   0  0  0  0  0  0  0  0  0  0  0  0
  -26.1205  -32.0214   25.3190 C   0  0  0  0  0  0  0  0  0  0  0  0
  -29.1840  -17.0783   20.7528 C   0  0  0  0  0  0  0  0  0  0  0  0
  -20.9576  -33.2916   15.4882 C   0  0  0  0  0  0  0  0  0  0  0  0
  -23.5429  -29.8684   20.3891 C   0  0  0  0  0  0  0  0  0  0  0  0
  -26.1124  -30.9305   21.3961 C   0  0  0  0  0  0  0  0  0  0  0  0
  -21.4915  -33.9614   16.7517 C   0  0  0  0  0  0  0  0  0  0  0  0
  -28.4252  -15.2400   17.8577 C   0  0  0  0  0  0  0  0  0  0  0  0
  -23.0113  -33.8479   16.8147 C   0  0  0  0  0  0  0  0  0  0  0  0
  -27.2534  -14.3851   18.3393 C   0  0  0  0  0  0  0  0  0  0  0  0
  -28.3497  -16.6704   18.3945 C   0  0  0  0  0  0  0  0  0  0  0  0
  -29.7351  -19.1008   19.3279 C   0  0  0  0  0  0  0  0  0  0  0  0
  -31.3182  -18.2994   21.0446 C   0  0  0  0  0  0  0  0  0  0  0  0
  -27.0445  -15.8975   20.3483 C   0  0  0  0  0  0  0  0  0  0  0  0
  -29.7044  -20.4774   19.9846 C   0  0  0  0  0  0  0  0  0  0  0  0
  -31.2940  -19.6510   21.7397 C   0  0  0  0  0  0  0  0  0  0  0  0
  -23.4531  -32.3806   16.8709 C   0  0  1  0  0  0  0  0  0  0  0  0
  -23.7979  -31.3671   20.5161 C   0  0  1  0  0  0  0  0  0  0  0  0
  -27.1234  -14.4388   19.8719 C   0  0  1  0  0  0  0  0  0  0  0  0
  -26.3744  -32.8831   27.6622 C   0  0  0  0  0  0  0  0  0  0  0  0
  -26.7330  -34.8398   21.3445 C   0  0  0  0  0  0  0  0  0  0  0  0
  -27.6115  -34.9744   23.6851 C   0  0  0  0  0  0  0  0  0  0  0  0
  -25.2582  -35.6430   23.1976 C   0  0  0  0  0  0  0  0  0  0  0  0
  -24.7780  -29.6446   26.4624 C   0  0  0  0  0  0  0  0  0  0  0  0
  -31.0378  -22.0977   21.3311 C   0  0  0  0  0  0  0  0  0  0  0  0
  -30.2918  -26.2328   17.5383 C   0  0  0  0  0  0  0  0  0  0  0  0
  -28.1491  -25.4795   19.3924 C   0  0  0  0  0  0  0  0  0  1  0  0
  -25.8872  -33.1948   23.1458 C   0  0  1  0  0  0  0  0  0  0  0  0
  -25.5583  -32.0023   26.7290 C   0  0  2  0  0  0  0  0  0  0  0  0
  -26.3714  -34.6381   22.8296 C   0  0  0  0  0  0  0  0  0  0  0  0
  -31.6770  -24.5302   18.5480 N   0  0  0  0  0  0  0  0  0  0  0  0
  -24.7572  -14.2159   20.5297 N   0  0  0  0  0  0  0  0  0  0  0  0
  -29.6280  -23.8102   20.3223 N   0  0  0  0  0  0  0  0  0  0  0  0
  -25.9491  -13.6163   20.3685 N   0  0  0  0  0  0  0  0  0  0  0  0
  -24.8493  -31.6814   21.4856 N   0  0  0  0  0  0  0  0  0  0  0  0
  -28.1863  -16.6701   19.8548 N   0  0  0  0  0  0  0  0  0  0  0  0
  -30.0798  -18.0607   20.3055 N   0  0  0  0  0  0  0  0  0  0  0  0
  -27.0609  -11.5357   20.5810 N   0  0  0  0  0  0  0  0  0  0  0  0
  -22.8394  -10.5990   21.8839 N   0  0  0  0  0  0  0  0  0  0  0  0
  -23.2686  -31.8479   18.2038 N   0  0  0  0  0  0  0  0  0  0  0  0
  -25.5121  -32.9824   24.5396 N   0  0  0  0  0  0  0  0  0  0  0  0
  -31.0015  -20.7186   20.7143 N   0  3  0  0  0  0  0  0  0  0  0  0
  -29.7557  -25.7509   16.2350 N   0  3  0  0  0  0  0  0  0  0  0  0
  -25.5630  -30.6136   27.2698 N   0  3  0  0  0  0  0  0  0  0  0  0
  -24.9331   -9.7149   21.5777 O   0  0  0  0  0  0  0  0  0  0  0  0
  -25.2734  -32.5843   19.1318 O   0  0  0  0  0  0  0  0  0  0  0  0
  -23.6438  -33.4462   22.4176 O   0  0  0  0  0  0  0  0  0  0  0  0
  -27.0129  -31.2624   24.9475 O   0  0  0  0  0  0  0  0  0  0  0  0
  -29.2690  -16.5936   21.8881 O   0  0  0  0  0  0  0  0  0  0  0  0
  -18.5884  -14.1925   22.1091 O   0  0  0  0  0  0  0  0  0  0  0  0
  -28.2765  -26.7655   19.9872 O   0  0  0  0  0  0  0  0  0  1  0  0
  -16.5416  -12.0991   26.7817 F   0  0  0  0  0  0  0  0  0  0  0  0
  -17.5214  -15.8418   24.0544 F   0  0  0  0  0  0  0  0  0  0  0  0
  1  2  1  0  0  0  0
  1  5  2  0  0  0  0
  2  6  2  0  0  0  0
  3  8  2  0  0  0  0
  3 16  1  0  0  0  0
  4  9  1  0  0  0  0
  4 16  2  0  0  0  0
  5 18  1  0  0  0  0
  6 20  1  0  0  0  0
  7 10  2  0  0  0  0
  7 19  1  0  0  0  0
  8 22  1  0  0  0  0
  9 22  2  0  0  0  0
 10 23  1  0  0  0  0
 11 12  2  0  0  0  0
 11 24  1  0  0  0  0
 12 25  1  0  0  0  0
 13 21  1  0  0  0  0
 13 23  2  0  0  0  0
 14 25  2  0  0  0  0
 14 26  1  0  0  0  0
 15 28  1  0  0  0  0
 15 64  2  0  0  0  0
 16 27  1  0  0  0  0
 17 27  1  0  0  0  0
 17 31  2  0  0  0  0
 17 32  1  0  0  0  0
 18 20  2  0  0  0  0
 18 37  1  0  0  0  0
 19 21  2  0  0  0  0
 19 38  1  0  0  0  0
 20 50  1  0  0  0  0
 21 39  1  0  0  0  0
 22 83  1  0  0  0  0
 23 84  1  0  0  0  0
 24 26  2  0  0  0  0
 24 83  1  0  0  0  0
 25 85  1  0  0  0  0
 26 86  1  0  0  0  0
 27 65  2  0  0  0  0
 28 58  1  0  0  0  0
 28 66  2  0  0  0  0
 29 30  2  0  0  0  0
 29 59  1  0  0  0  0
 29 64  1  0  0  0  0
 30 60  1  0  0  0  0
 30 66  1  0  0  0  0
 31 67  1  0  0  0  0
 31 71  1  0  0  0  0
 32 72  1  0  0  0  0
 32 78  2  0  0  0  0
 33 51  1  0  0  0  0
 33 73  1  0  0  0  0
 33 79  2  0  0  0  0
 34 61  1  0  0  0  0
 34 68  1  0  0  0  0
 34 80  2  0  0  0  0
 35 62  1  0  0  0  0
 35 74  1  0  0  0  0
 35 81  2  0  0  0  0
 36 69  1  0  0  0  0
 36 70  1  0  0  0  0
 36 82  2  0  0  0  0
 37 40  1  0  0  0  0
 38 51  1  0  0  0  0
 39 68  1  0  0  0  0
 40 42  1  0  0  0  0
 41 43  1  0  0  0  0
 41 44  1  0  0  0  0
 42 50  1  0  0  0  0
 43 52  1  0  0  0  0
 44 69  1  0  0  0  0
 45 48  1  0  0  0  0
 45 70  1  0  0  0  0
 46 49  1  0  0  0  0
 46 70  1  0  0  0  0
 47 52  1  0  0  0  0
 47 69  1  0  0  0  0
 48 75  1  0  0  0  0
 49 75  1  0  0  0  0
 50 73  1  0  0  0  0
 51 68  1  0  0  0  0
 52 67  1  0  0  0  0
 53 62  1  0  0  0  0
 54 63  1  0  0  0  0
 55 63  1  0  0  0  0
 56 63  1  0  0  0  0
 57 77  1  0  0  0  0
 58 75  1  0  0  0  0
 59 76  1  0  0  0  0
 60 84  1  0  0  0  0
 61 63  1  0  0  0  0
 61 74  1  0  0  0  0
 62 77  1  0  0  0  0
 65 67  1  0  0  0  0
M  CHG  3  75   1  76   1  77   1
M  ISO  4  36 100  60 101  70 100  84 101
M  END
> <Batch ID>
0196

> <Smiles>
CNC(C)C(=O)NC(C(=O)N1Cc2cc([101O:1][101CH2:1]c3nc(CN4CC[100N:0]([100C:0](=O)N5CCCC(n6nc(-c7ccc(Oc8ccc(F)cc8F)cc7)c(C(N)=O)c6N)C5)CC4)cnc3CN)ccc2CC1C(=O)NC1CCCc2ccccc21)C(C)(C)C

> <Shape>
0.284

> <Color>
0.086

> <Negative vol penalty>
0.000

$$$$

  -OEChem-04052323393D

 87 97  0     1  0  0  0  0  0999 V2000
  -28.9618  -12.0494   19.9551 C   0  0  0  0  0  0  0  0  0  0  0  0
  -28.9333  -13.2748   19.2970 C   0  0  0  0  0  0  0  0  0  0  0  0
  -28.8985  -24.8978   19.9506 C   0  0  0  0  0  0  0  0  0  0  0  0
  -26.9857  -23.6684   20.7673 C   0  0  0  0  0  0  0  0  0  0  0  0
  -27.8051  -11.5554   20.5565 C   0  0  0  0  0  0  0  0  0  0  0  0
  -27.7476  -14.0064   19.2391 C   0  0  0  0  0  0  0  0  0  0  0  0
  -25.3527  -20.7568   19.1232 C   0  0  0  0  0  0  0  0  0  0  0  0
  -29.7479  -23.9199   20.4680 C   0  0  0  0  0  0  0  0  0  0  0  0
  -27.8352  -22.6904   21.2846 C   0  0  0  0  0  0  0  0  0  0  0  0
  -24.5166  -21.5904   18.3817 C   0  0  0  0  0  0  0  0  0  0  0  0
  -29.4822  -19.6879   22.5054 C   0  0  0  0  0  0  0  0  0  0  0  0
  -29.1438  -18.3525   22.2872 C   0  0  0  0  0  0  0  0  0  0  0  0
  -22.5999  -20.6751   19.5251 C   0  0  0  0  0  0  0  0  0  0  0  0
  -29.2574  -18.7135   19.9010 C   0  0  0  0  0  0  0  0  0  0  0  0
  -27.5173  -24.7721   20.1003 C   0  0  0  0  0  0  0  0  0  0  0  0
  -26.0671  -25.8182   18.2809 C   0  0  0  0  0  0  0  0  0  0  0  0
  -26.6070  -12.2858   20.5143 C   0  0  0  0  0  0  0  0  0  0  0  0
  -24.8168  -19.8667   20.0651 C   0  0  0  0  0  0  0  0  0  0  0  0
  -26.5734  -13.5210   19.8395 C   0  0  0  0  0  0  0  0  0  0  0  0
  -23.4314  -19.8330   20.2791 C   0  0  0  0  0  0  0  0  0  0  0  0
  -19.1925  -26.9827   23.5783 C   0  0  0  0  0  0  0  0  0  0  0  0
  -29.2163  -22.8162   21.1349 C   0  0  0  0  0  0  0  0  0  0  0  0
  -23.1398  -21.5476   18.5805 C   0  0  0  0  0  0  0  0  0  0  0  0
  -29.7082  -20.5362   21.4214 C   0  0  0  0  0  0  0  0  0  0  0  0
  -29.0314  -17.8653   20.9851 C   0  0  0  0  0  0  0  0  0  0  0  0
  -29.5958  -20.0490   20.1192 C   0  0  0  0  0  0  0  0  0  0  0  0
  -26.6393  -25.7823   19.5666 C   0  0  0  0  0  0  0  0  0  0  0  0
  -18.4606  -26.3368   22.6298 C   0  0  0  0  0  0  0  0  0  0  0  0
  -19.8123  -28.0290   22.9021 C   0  0  0  0  0  0  0  0  0  0  0  0
  -25.3203  -26.9708   18.2696 C   0  0  0  0  0  0  0  0  0  0  0  0
  -26.1987  -24.8923   17.1941 C   0  0  0  0  0  0  0  0  0  0  0  0
  -24.7861  -16.7060   20.4005 C   0  0  0  0  0  0  0  0  0  0  0  0
  -23.3834  -17.4113   23.2390 C   0  0  0  0  0  0  0  0  0  0  0  0
  -21.5779  -19.6235   25.1080 C   0  0  0  0  0  0  0  0  0  0  0  0
  -22.7524  -30.2085   22.6026 C   0  0  0  0  0  0  0  0  0  0  0  0
  -25.3705  -11.6889   21.1384 C   0  0  0  0  0  0  0  0  0  0  0  0
  -25.7343  -18.9931   20.8759 C   0  0  0  0  0  0  0  0  0  0  0  0
  -19.0486  -26.3516   24.8984 C   0  0  0  0  0  0  0  0  0  0  0  0
  -22.8078  -18.9098   21.2926 C   0  0  0  0  0  0  0  0  0  0  0  0
  -17.7002  -25.1732   23.0986 C   0  0  0  0  0  0  0  0  0  0  0  0
  -24.2481  -12.7007   21.3544 C   0  0  0  0  0  0  0  0  0  0  0  0
  -18.3233  -25.0034   24.5310 C   0  0  0  0  0  0  0  0  0  0  0  0
  -25.1432  -31.3371   20.2178 C   0  0  0  0  0  0  0  0  0  0  0  0
  -24.0485  -13.5516   20.1042 C   0  0  0  0  0  0  0  0  0  0  0  0
  -25.7461  -30.0447   19.6645 C   0  0  0  0  0  0  0  0  0  0  0  0
  -18.6281  -25.3544   17.9738 C   0  0  0  0  0  0  0  0  0  0  0  0
  -24.8288  -31.2205   21.7076 C   0  0  0  0  0  0  0  0  0  0  0  0
  -24.5886  -28.7749   21.5210 C   0  0  0  0  0  0  0  0  0  0  0  0
  -25.3126  -14.3556   19.7765 C   0  0  1  0  0  0  0  0  0  0  0  0
  -25.0385  -17.7591   21.4421 C   0  0  1  0  0  0  0  0  0  0  0  0
  -18.7561  -25.5253   19.4640 C   0  0  1  0  0  0  0  0  0  0  0  0
  -24.8707  -28.8249   20.0096 C   0  0  2  0  0  0  0  0  0  0  0  0
  -19.9390  -25.7889   18.5710 C   0  0  1  0  0  0  0  0  0  0  0  0
  -20.5515  -19.9047   27.3806 C   0  0  0  0  0  0  0  0  0  0  0  0
  -21.1232  -15.5195   22.4497 C   0  0  0  0  0  0  0  0  0  0  0  0
  -19.7251  -16.5494   24.2532 C   0  0  0  0  0  0  0  0  0  0  0  0
  -21.8343  -15.3545   24.8417 C   0  0  0  0  0  0  0  0  0  0  0  0
  -23.2414  -22.0004   25.6928 C   0  0  0  0  0  0  0  0  0  0  0  0
  -20.7232  -29.0509   23.4401 C   0  0  0  0  0  0  0  0  0  0  0  0
  -18.0696  -26.6562   20.1488 C   0  0  0  0  0  0  0  0  0  0  0  0
  -21.7312  -24.6191   17.2833 C   0  0  0  0  0  0  0  0  0  0  0  0
  -22.8562  -23.6151   17.4398 C   0  0  0  0  0  0  0  0  0  1  0  0
  -21.9628  -17.6112   23.7090 C   0  0  1  0  0  0  0  0  0  0  0  0
  -21.7789  -20.1510   26.5172 C   0  0  2  0  0  0  0  0  0  0  0  0
  -21.1726  -16.2748   23.7928 C   0  0  0  0  0  0  0  0  0  0  0  0
  -26.2865  -26.8290   20.3175 N   0  0  0  0  0  0  0  0  0  0  0  0
  -19.4860  -28.0384   21.5961 N   0  0  0  0  0  0  0  0  0  0  0  0
  -18.6483  -26.9789   21.4600 N   0  0  0  0  0  0  0  0  0  0  0  0
  -25.4845  -27.5336   19.5010 N   0  0  0  0  0  0  0  0  0  0  0  0
  -23.7462  -18.0708   22.0561 N   0  0  0  0  0  0  0  0  0  0  0  0
  -23.9944  -30.0448   21.9673 N   0  0  0  0  0  0  0  0  0  0  0  0
  -24.5458  -27.5479   17.3264 N   0  0  0  0  0  0  0  0  0  0  0  0
  -27.0046  -23.7600   17.3749 N   0  0  0  0  0  0  0  0  0  0  0  0
  -25.4214  -15.5044   20.6499 N   0  0  0  0  0  0  0  0  0  0  0  0
  -22.0490  -18.3347   24.9730 N   0  0  0  0  0  0  0  0  0  0  0  0
  -22.0222  -29.0438   22.8049 N   0  0  0  0  0  0  0  0  0  0  0  0
  -21.0498  -24.7992   18.5900 N   0  3  0  0  0  0  0  0  0  0  0  0
  -22.0468  -21.6167   26.4883 N   0  3  0  0  0  0  0  0  0  0  0  0
  -25.6320  -25.0725   16.0896 O   0  0  0  0  0  0  0  0  0  0  0  0
  -24.0671  -16.9640   19.4423 O   0  0  0  0  0  0  0  0  0  0  0  0
  -24.1452  -16.7020   23.9010 O   0  0  0  0  0  0  0  0  0  0  0  0
  -21.0518  -20.2870   24.2171 O   0  0  0  0  0  0  0  0  0  0  0  0
  -22.3236  -31.3115   22.9580 O   0  0  0  0  0  0  0  0  0  0  0  0
  -30.0449  -21.8616   21.6397 O   0  0  0  0  0  0  0  0  0  0  0  0
  -22.3214  -22.3598   17.8576 O   0  0  0  0  0  0  0  0  0  1  0  0
  -28.7079  -16.5824   20.7757 F   0  0  0  0  0  0  0  0  0  0  0  0
  -29.8129  -20.8589   19.0739 F   0  0  0  0  0  0  0  0  0  0  0  0
  1  2  1  0  0  0  0
  1  5  2  0  0  0  0
  2  6  2  0  0  0  0
  3  8  2  0  0  0  0
  3 15  1  0  0  0  0
  4  9  1  0  0  0  0
  4 15  2  0  0  0  0
  5 17  1  0  0  0  0
  6 19  1  0  0  0  0
  7 10  2  0  0  0  0
  7 18  1  0  0  0  0
  8 22  1  0  0  0  0
  9 22  2  0  0  0  0
 10 23  1  0  0  0  0
 11 12  2  0  0  0  0
 11 24  1  0  0  0  0
 12 25  1  0  0  0  0
 13 20  1  0  0  0  0
 13 23  2  0  0  0  0
 14 25  2  0  0  0  0
 14 26  1  0  0  0  0
 15 27  1  0  0  0  0
 16 27  1  0  0  0  0
 16 30  2  0  0  0  0
 16 31  1  0  0  0  0
 17 19  2  0  0  0  0
 17 36  1  0  0  0  0
 18 20  2  0  0  0  0
 18 37  1  0  0  0  0
 19 49  1  0  0  0  0
 20 39  1  0  0  0  0
 21 28  2  0  0  0  0
 21 29  1  0  0  0  0
 21 38  1  0  0  0  0
 22 84  1  0  0  0  0
 23 85  1  0  0  0  0
 24 26  2  0  0  0  0
 24 84  1  0  0  0  0
 25 86  1  0  0  0  0
 26 87  1  0  0  0  0
 27 66  2  0  0  0  0
 28 40  1  0  0  0  0
 28 68  1  0  0  0  0
 29 59  1  0  0  0  0
 29 67  2  0  0  0  0
 30 69  1  0  0  0  0
 30 72  1  0  0  0  0
 31 73  1  0  0  0  0
 31 79  2  0  0  0  0
 32 50  1  0  0  0  0
 32 74  1  0  0  0  0
 32 80  2  0  0  0  0
 33 63  1  0  0  0  0
 33 70  1  0  0  0  0
 33 81  2  0  0  0  0
 34 64  1  0  0  0  0
 34 75  1  0  0  0  0
 34 82  2  0  0  0  0
 35 71  1  0  0  0  0
 35 76  1  0  0  0  0
 35 83  2  0  0  0  0
 36 41  1  0  0  0  0
 37 50  1  0  0  0  0
 38 42  1  0  0  0  0
 39 70  1  0  0  0  0
 40 42  1  0  0  0  0
 41 44  1  0  0  0  0
 43 45  1  0  0  0  0
 43 47  1  0  0  0  0
 44 49  1  0  0  0  0
 45 52  1  0  0  0  0
 46 51  1  0  0  0  0
 46 53  1  0  0  0  0
 47 71  1  0  0  0  0
 48 52  1  0  0  0  0
 48 71  1  0  0  0  0
 49 74  1  0  0  0  0
 50 70  1  0  0  0  0
 51 53  1  0  0  0  0
 51 60  1  0  0  0  0
 52 69  1  0  0  0  0
 53 77  1  0  0  0  0
 54 64  1  0  0  0  0
 55 65  1  0  0  0  0
 56 65  1  0  0  0  0
 57 65  1  0  0  0  0
 58 78  1  0  0  0  0
 59 76  1  0  0  0  0
 60 68  1  0  0  0  0
 61 62  1  0  0  0  0
 61 77  1  0  0  0  0
 62 85  1  0  0  0  0
 63 65  1  0  0  0  0
 63 75  1  0  0  0  0
 64 78  1  0  0  0  0
 66 69  1  0  0  0  0
 67 68  1  0  0  0  0
M  CHG  2  77   1  78   1
M  ISO  4  35 100  62 101  76 100  85 101
M  END
> <Batch ID>
0196

> <Smiles>
CNC(C)C(=O)NC(C(=O)N1Cc2cc([101O:1][101CH2:1]CNC3CC3Cn3nc(C[100NH:0][100C:0](=O)N4CCCC(n5nc(-c6ccc(Oc7ccc(F)cc7F)cc6)c(C(N)=O)c5N)C4)c4c3CCC4)ccc2CC1C(=O)NC1CCCc2ccccc21)C(C)(C)C

> <Shape>
0.225

> <Color>
0.079

> <Negative vol penalty>
0.000

$$$$

  -OEChem-04052323393D

 85 94  0     1  0  0  0  0  0999 V2000
  -25.6872  -25.0169   15.8113 C   0  0  0  0  0  0  0  0  0  0  0  0
  -24.8197  -25.9931   16.2882 C   0  0  0  0  0  0  0  0  0  0  0  0
  -24.6940  -14.3626   21.5619 C   0  0  0  0  0  0  0  0  0  0  0  0
  -26.6045  -14.2238   20.0896 C   0  0  0  0  0  0  0  0  0  0  0  0
  -26.7727  -24.6154   16.5869 C   0  0  0  0  0  0  0  0  0  0  0  0
  -25.0442  -26.5766   17.5356 C   0  0  0  0  0  0  0  0  0  0  0  0
  -22.1620  -30.3634   18.7829 C   0  0  0  0  0  0  0  0  0  0  0  0
  -24.7101  -12.9762   21.7135 C   0  0  0  0  0  0  0  0  0  0  0  0
  -26.6206  -12.8373   20.2412 C   0  0  0  0  0  0  0  0  0  0  0  0
  -20.8180  -30.2087   19.1199 C   0  0  0  0  0  0  0  0  0  0  0  0
  -23.7203  -10.2667   19.9518 C   0  0  0  0  0  0  0  0  0  0  0  0
  -22.5024   -9.5921   19.8674 C   0  0  0  0  0  0  0  0  0  0  0  0
  -21.3784  -30.4726   21.4513 C   0  0  0  0  0  0  0  0  0  0  0  0
  -22.8055   -8.7635   22.1166 C   0  0  0  0  0  0  0  0  0  0  0  0
  -25.6412  -14.9865   20.7499 C   0  0  0  0  0  0  0  0  0  0  0  0
  -26.3016  -17.3684   21.3809 C   0  0  0  0  0  0  0  0  0  0  0  0
  -27.0028  -25.1859   17.8497 C   0  0  0  0  0  0  0  0  0  0  0  0
  -23.1274  -30.5634   19.7801 C   0  0  0  0  0  0  0  0  0  0  0  0
  -26.1479  -26.2020   18.3230 C   0  0  0  0  0  0  0  0  0  0  0  0
  -22.7337  -30.6322   21.1241 C   0  0  0  0  0  0  0  0  0  0  0  0
  -25.6734  -12.2135   21.0532 C   0  0  0  0  0  0  0  0  0  0  0  0
  -20.4264  -30.2604   20.4545 C   0  0  0  0  0  0  0  0  0  0  0  0
  -24.4809  -10.1896   21.1186 C   0  0  0  0  0  0  0  0  0  0  0  0
  -22.0449   -8.8405   20.9498 C   0  0  0  0  0  0  0  0  0  0  0  0
  -24.0235   -9.4381   22.2010 C   0  0  0  0  0  0  0  0  0  0  0  0
  -25.6247  -16.4186   20.5925 C   0  0  0  0  0  0  0  0  0  0  0  0
  -25.9634  -18.5786   20.8266 C   0  0  0  0  0  0  0  0  0  0  0  0
  -17.6301  -24.8579   20.1473 C   0  0  0  0  0  0  0  0  0  0  0  0
  -16.5417  -27.0170   20.8762 C   0  0  0  0  0  0  0  0  0  0  0  0
  -27.1595  -17.1740   22.5132 C   0  0  0  0  0  0  0  0  0  0  0  0
  -25.6878  -28.9647   20.7762 C   0  0  0  0  0  0  0  0  0  0  0  0
  -26.1116  -31.5809   22.6466 C   0  0  0  0  0  0  0  0  0  0  0  0
  -24.7273  -34.2826   24.2060 C   0  0  0  0  0  0  0  0  0  0  0  0
  -22.4486  -22.0811   18.7796 C   0  0  0  0  0  0  0  0  0  0  0  0
  -28.1974  -24.7196   18.6439 C   0  0  0  0  0  0  0  0  0  0  0  0
  -24.5694  -30.7552   19.3980 C   0  0  0  0  0  0  0  0  0  0  0  0
  -23.7283  -30.8649   22.2309 C   0  0  0  0  0  0  0  0  0  0  0  0
  -28.0999  -25.0698   20.1251 C   0  0  0  0  0  0  0  0  0  0  0  0
  -23.6203  -19.6889   16.4907 C   0  0  0  0  0  0  0  0  0  0  0  0
  -27.7365  -26.5380   20.2893 C   0  0  0  0  0  0  0  0  0  0  0  0
  -24.3073  -18.6895   17.4210 C   0  0  0  0  0  0  0  0  0  0  0  0
  -19.1253  -22.9875   18.0660 C   0  0  0  0  0  0  0  0  0  0  0  0
  -20.5149  -24.9538   18.8239 C   0  0  0  0  0  0  0  0  0  0  0  0
  -22.3067  -20.2085   17.0778 C   0  0  0  0  0  0  0  0  0  0  0  0
  -20.3615  -22.4025   17.3772 C   0  0  0  0  0  0  0  0  0  0  0  0
  -21.7112  -24.3446   18.0986 C   0  0  0  0  0  0  0  0  0  0  0  0
  -17.0876  -26.0108   18.4786 C   0  0  0  0  0  0  0  0  0  0  0  0
  -23.1275  -19.7735   19.3705 C   0  0  0  0  0  0  0  0  0  0  0  0
  -26.3548  -26.8288   19.6900 C   0  0  1  0  0  0  0  0  0  0  0  0
  -16.4715  -25.8501   19.8907 C   0  0  1  0  0  0  0  0  0  0  0  0
  -25.5360  -30.4401   20.5355 C   0  0  1  0  0  0  0  0  0  0  0  0
  -24.4787  -19.2771   18.8331 C   0  0  1  0  0  0  0  0  0  0  0  0
  -19.2029  -24.5131   18.1682 C   0  0  0  0  0  0  0  0  0  0  0  0
  -25.3186  -36.2156   25.6930 C   0  0  0  0  0  0  0  0  0  0  0  0
  -26.2607  -29.6922   25.0384 C   0  0  0  0  0  0  0  0  0  0  0  0
  -25.8945  -31.6675   26.5325 C   0  0  0  0  0  0  0  0  0  0  0  0
  -27.9205  -31.5625   25.0809 C   0  0  0  0  0  0  0  0  0  0  0  0
  -23.8735  -36.2573   22.1736 C   0  0  0  0  0  0  0  0  0  0  0  0
  -17.5119  -28.7762   21.9891 C   0  0  0  0  0  0  0  0  0  0  0  0
  -18.8289  -29.5275   22.0566 C   0  0  0  0  0  0  0  0  0  1  0  0
  -25.6623  -31.9916   24.0281 C   0  0  1  0  0  0  0  0  0  0  0  0
  -25.1480  -35.7402   24.2585 C   0  0  2  0  0  0  0  0  0  0  0  0
  -26.4158  -31.2221   25.1495 C   0  0  0  0  0  0  0  0  0  0  0  0
  -24.9104  -16.9775   19.6120 N   0  0  0  0  0  0  0  0  0  0  0  0
  -17.6220  -27.7046   21.0038 N   0  0  0  0  0  0  0  0  0  0  0  0
  -25.1364  -18.2914   19.7807 N   0  0  0  0  0  0  0  0  0  0  0  0
  -18.0680  -25.0331   18.8902 N   0  0  0  0  0  0  0  0  0  0  0  0
  -25.1273  -31.0403   21.8071 N   0  0  0  0  0  0  0  0  0  0  0  0
  -22.5121  -20.7216   18.4394 N   0  0  0  0  0  0  0  0  0  0  0  0
  -21.5923  -22.8888   18.0163 N   0  0  0  0  0  0  0  0  0  0  0  0
  -26.2955  -19.8498   21.1366 N   0  0  0  0  0  0  0  0  0  0  0  0
  -27.4011  -15.8648   22.9514 N   0  0  0  0  0  0  0  0  0  0  0  0
  -26.1374  -28.2587   19.6768 N   0  0  0  0  0  0  0  0  0  0  0  0
  -25.8138  -33.4412   24.0925 N   0  0  0  0  0  0  0  0  0  0  0  0
  -24.1250  -36.5988   23.5974 N   0  3  0  0  0  0  0  0  0  0  0  0
  -18.0191  -24.1870   21.0755 O   0  0  0  0  0  0  0  0  0  0  0  0
  -27.6827  -18.1337   23.1285 O   0  0  0  0  0  0  0  0  0  0  0  0
  -25.4184  -28.5015   21.8783 O   0  0  0  0  0  0  0  0  0  0  0  0
  -27.2908  -31.7407   22.3218 O   0  0  0  0  0  0  0  0  0  0  0  0
  -23.5526  -33.9258   24.2638 O   0  0  0  0  0  0  0  0  0  0  0  0
  -23.1173  -22.5464   19.7110 O   0  0  0  0  0  0  0  0  0  0  0  0
  -25.6895  -10.8606   21.2011 O   0  0  0  0  0  0  0  0  0  0  0  0
  -19.1061  -30.1079   20.7885 O   0  0  0  0  0  0  0  0  0  1  0  0
  -20.8746   -8.1940   20.8692 F   0  0  0  0  0  0  0  0  0  0  0  0
  -24.7492   -9.3612   23.3249 F   0  0  0  0  0  0  0  0  0  0  0  0
  1  2  1  0  0  0  0
  1  5  2  0  0  0  0
  2  6  2  0  0  0  0
  3  8  2  0  0  0  0
  3 15  1  0  0  0  0
  4  9  1  0  0  0  0
  4 15  2  0  0  0  0
  5 17  1  0  0  0  0
  6 19  1  0  0  0  0
  7 10  2  0  0  0  0
  7 18  1  0  0  0  0
  8 21  1  0  0  0  0
  9 21  2  0  0  0  0
 10 22  1  0  0  0  0
 11 12  2  0  0  0  0
 11 23  1  0  0  0  0
 12 24  1  0  0  0  0
 13 20  1  0  0  0  0
 13 22  2  0  0  0  0
 14 24  2  0  0  0  0
 14 25  1  0  0  0  0
 15 26  1  0  0  0  0
 16 26  1  0  0  0  0
 16 27  2  0  0  0  0
 16 30  1  0  0  0  0
 17 19  2  0  0  0  0
 17 35  1  0  0  0  0
 18 20  2  0  0  0  0
 18 36  1  0  0  0  0
 19 49  1  0  0  0  0
 20 37  1  0  0  0  0
 21 82  1  0  0  0  0
 22 83  1  0  0  0  0
 23 25  2  0  0  0  0
 23 82  1  0  0  0  0
 24 84  1  0  0  0  0
 25 85  1  0  0  0  0
 26 64  2  0  0  0  0
 27 66  1  0  0  0  0
 27 71  1  0  0  0  0
 28 50  1  0  0  0  0
 28 67  1  0  0  0  0
 28 76  2  0  0  0  0
 29 50  1  0  0  0  0
 29 65  2  0  0  0  0
 30 72  1  0  0  0  0
 30 77  2  0  0  0  0
 31 51  1  0  0  0  0
 31 73  1  0  0  0  0
 31 78  2  0  0  0  0
 32 61  1  0  0  0  0
 32 68  1  0  0  0  0
 32 79  2  0  0  0  0
 33 62  1  0  0  0  0
 33 74  1  0  0  0  0
 33 80  2  0  0  0  0
 34 69  1  0  0  0  0
 34 70  1  0  0  0  0
 34 81  2  0  0  0  0
 35 38  1  0  0  0  0
 36 51  1  0  0  0  0
 37 68  1  0  0  0  0
 38 40  1  0  0  0  0
 39 41  1  0  0  0  0
 39 44  1  0  0  0  0
 40 49  1  0  0  0  0
 41 52  1  0  0  0  0
 42 45  1  0  0  0  0
 42 53  1  0  0  0  0
 43 46  1  0  0  0  0
 43 53  1  0  0  0  0
 44 69  1  0  0  0  0
 45 70  1  0  0  0  0
 46 70  1  0  0  0  0
 47 50  1  0  0  0  0
 47 67  1  0  0  0  0
 48 52  1  0  0  0  0
 48 69  1  0  0  0  0
 49 73  1  0  0  0  0
 51 68  1  0  0  0  0
 52 66  1  0  0  0  0
 53 67  1  0  0  0  0
 54 62  1  0  0  0  0
 55 63  1  0  0  0  0
 56 63  1  0  0  0  0
 57 63  1  0  0  0  0
 58 75  1  0  0  0  0
 59 60  1  0  0  0  0
 59 65  1  0  0  0  0
 60 83  1  0  0  0  0
 61 63  1  0  0  0  0
 61 74  1  0  0  0  0
 62 75  1  0  0  0  0
 64 66  1  0  0  0  0
M  CHG  1  75   1
M  ISO  4  34 100  60 101  70 100  83 101
M  END
> <Batch ID>
0196

> <Smiles>
CNC(C)C(=O)NC(C(=O)N1Cc2cc([101O:1][101CH2:1]CNC=C3CN(C4CC[100N:0]([100C:0](=O)N5CCCC(n6nc(-c7ccc(Oc8ccc(F)cc8F)cc7)c(C(N)=O)c6N)C5)CC4)C3=O)ccc2CC1C(=O)NC1CCCc2ccccc21)C(C)(C)C

> <Shape>
0.251

> <Color>
0.070

> <Negative vol penalty>
0.000

$$$$

  -OEChem-04052323393D

 89 99  0     1  0  0  0  0  0999 V2000
  -18.7354  -31.8417   26.2580 C   0  0  0  0  0  0  0  0  0  0  0  0
  -20.0876  -31.5146   26.2490 C   0  0  0  0  0  0  0  0  0  0  0  0
  -24.6544   -9.8612   22.0483 C   0  0  0  0  0  0  0  0  0  0  0  0
  -22.6814  -10.0558   23.4291 C   0  0  0  0  0  0  0  0  0  0  0  0
  -17.8722  -31.2586   25.3312 C   0  0  0  0  0  0  0  0  0  0  0  0
  -20.5772  -30.6035   25.3138 C   0  0  0  0  0  0  0  0  0  0  0  0
  -26.4322  -29.1830   21.4386 C   0  0  0  0  0  0  0  0  0  0  0  0
  -24.7895   -8.5263   22.4295 C   0  0  0  0  0  0  0  0  0  0  0  0
  -22.8165   -8.7208   23.8103 C   0  0  0  0  0  0  0  0  0  0  0  0
  -27.3115  -28.1377   21.1593 C   0  0  0  0  0  0  0  0  0  0  0  0
  -22.1461   -5.6782   22.5011 C   0  0  0  0  0  0  0  0  0  0  0  0
  -20.9980   -4.8862   22.5002 C   0  0  0  0  0  0  0  0  0  0  0  0
  -25.7415  -27.2535   19.5555 C   0  0  0  0  0  0  0  0  0  0  0  0
  -21.2831   -4.4700   24.8629 C   0  0  0  0  0  0  0  0  0  0  0  0
  -31.3626  -22.8882   19.3832 C   0  0  0  0  0  0  0  0  0  0  0  0
  -23.6003  -10.6260   22.5482 C   0  0  0  0  0  0  0  0  0  0  0  0
  -22.7397  -12.5067   21.0549 C   0  0  0  0  0  0  0  0  0  0  0  0
  -18.3532  -30.3472   24.3781 C   0  0  0  0  0  0  0  0  0  0  0  0
  -25.1942  -29.2654   20.7852 C   0  0  0  0  0  0  0  0  0  0  0  0
  -19.7194  -30.0067   24.3743 C   0  0  0  0  0  0  0  0  0  0  0  0
  -24.8494  -28.3022   19.8264 C   0  0  0  0  0  0  0  0  0  0  0  0
  -23.8706   -7.9561   23.3105 C   0  0  0  0  0  0  0  0  0  0  0  0
  -26.9650  -27.1712   20.2198 C   0  0  0  0  0  0  0  0  0  0  0  0
  -22.8628   -5.8661   23.6830 C   0  0  0  0  0  0  0  0  0  0  0  0
  -20.5664   -4.2820   23.6811 C   0  0  0  0  0  0  0  0  0  0  0  0
  -22.4313   -5.2620   24.8639 C   0  0  0  0  0  0  0  0  0  0  0  0
  -23.4605  -12.0052   22.1552 C   0  0  0  0  0  0  0  0  0  0  0  0
  -31.6433  -24.1846   19.0025 C   0  0  0  0  0  0  0  0  0  0  0  0
  -30.2709  -22.7327   20.2128 C   0  0  0  0  0  0  0  0  0  0  0  0
  -22.9177  -13.8671   21.1191 C   0  0  0  0  0  0  0  0  0  0  0  0
  -29.8809  -24.9721   20.2029 C   0  0  0  0  0  0  0  0  0  0  0  0
  -21.9773  -11.8056   20.0635 C   0  0  0  0  0  0  0  0  0  0  0  0
  -22.1563  -29.1948   21.7182 C   0  0  0  0  0  0  0  0  0  0  0  0
  -21.5886  -29.8799   18.5988 C   0  0  0  0  0  0  0  0  0  0  0  0
  -22.6752  -29.7753   15.3653 C   0  0  0  0  0  0  0  0  0  0  0  0
  -25.9200  -18.2689   21.7641 C   0  0  0  0  0  0  0  0  0  0  0  0
  -17.3735  -29.7069   23.4268 C   0  0  0  0  0  0  0  0  0  0  0  0
  -24.2682  -30.4140   21.0783 C   0  0  0  0  0  0  0  0  0  0  0  0
  -23.5409  -28.3567   19.0825 C   0  0  0  0  0  0  0  0  0  0  0  0
  -18.0386  -29.0352   22.2282 C   0  0  0  0  0  0  0  0  0  0  0  0
  -24.8630  -16.7768   24.7617 C   0  0  0  0  0  0  0  0  0  0  0  0
  -19.2190  -28.1819   22.6815 C   0  0  0  0  0  0  0  0  0  0  0  0
  -24.3408  -15.4299   24.2624 C   0  0  0  0  0  0  0  0  0  0  0  0
  -29.0790  -19.7726   22.1485 C   0  0  0  0  0  0  0  0  0  0  0  0
  -27.5406  -21.1342   20.6832 C   0  0  0  0  0  0  0  0  0  0  0  0
  -26.1501  -17.1929   24.0472 C   0  0  0  0  0  0  0  0  0  0  0  0
  -27.8706  -19.3360   22.9820 C   0  0  0  0  0  0  0  0  0  0  0  0
  -26.3709  -20.6950   21.5595 C   0  0  0  0  0  0  0  0  0  0  0  0
  -25.5222  -15.8435   22.0715 C   0  0  0  0  0  0  0  0  0  0  0  0
  -34.1682  -23.8218   18.2791 C   0  0  0  0  0  0  0  0  0  0  0  0
  -33.6356  -25.8296   18.4070 C   0  0  0  0  0  0  0  0  0  0  0  0
  -20.2927  -29.0414   23.3596 C   0  0  1  0  0  0  0  0  0  0  0  0
  -32.8174  -24.5546   18.0828 C   0  0  0  0  0  0  0  0  0  0  0  0
  -22.8141  -30.1137   20.7279 C   0  0  1  0  0  0  0  0  0  0  0  0
  -24.1980  -15.4264   22.7300 C   0  0  1  0  0  0  0  0  0  0  0  0
  -28.8439  -21.1323   21.4865 C   0  0  0  0  0  0  0  0  0  0  0  0
  -21.9758  -30.3774   13.0317 C   0  0  0  0  0  0  0  0  0  0  0  0
  -19.7222  -27.4669   18.5382 C   0  0  0  0  0  0  0  0  0  0  0  0
  -19.8105  -27.5492   16.0374 C   0  0  0  0  0  0  0  0  0  0  0  0
  -18.8711  -29.4751   17.3146 C   0  0  0  0  0  0  0  0  0  0  0  0
  -35.9923  -25.3472   18.8604 C   0  0  0  0  0  0  0  0  0  0  0  0
  -24.9563  -31.6320   15.0364 C   0  0  0  0  0  0  0  0  0  0  0  0
  -29.0575  -26.1291   20.6575 C   0  0  0  0  0  0  0  0  0  1  0  0
  -21.3654  -29.0639   17.3485 C   0  0  1  0  0  0  0  0  0  0  0  0
  -22.7126  -30.8364   14.2804 C   0  0  2  0  0  0  0  0  0  0  0  0
  -19.9662  -28.3864   17.3249 C   0  0  0  0  0  0  0  0  0  0  0  0
  -24.0524  -12.9685   22.8662 N   0  0  0  0  0  0  0  0  0  0  0  0
  -30.9207  -25.2542   19.3950 N   0  0  0  0  0  0  0  0  0  0  0  0
  -29.5050  -23.7564   20.6438 N   0  0  0  0  0  0  0  0  0  0  0  0
  -23.7040  -14.0890   22.2112 N   0  0  0  0  0  0  0  0  0  0  0  0
  -22.6667  -29.4955   19.4086 N   0  0  0  0  0  0  0  0  0  0  0  0
  -25.9776  -17.1355   22.5890 N   0  0  0  0  0  0  0  0  0  0  0  0
  -26.6377  -19.3988   22.1839 N   0  0  0  0  0  0  0  0  0  0  0  0
  -22.4769  -14.8831   20.3472 N   0  0  0  0  0  0  0  0  0  0  0  0
  -21.8982  -10.4087   20.1459 N   0  0  0  0  0  0  0  0  0  0  0  0
  -29.9565  -21.4476   20.6178 N   0  0  0  0  0  0  0  0  0  0  0  0
  -21.0717  -29.7520   22.3683 N   0  0  0  0  0  0  0  0  0  0  0  0
  -21.6137  -29.9615   16.2255 N   0  0  0  0  0  0  0  0  0  0  0  0
  -34.8390  -25.0981   17.9688 N   0  3  0  0  0  0  0  0  0  0  0  0
  -24.1217  -31.1464   13.9074 N   0  3  0  0  0  0  0  0  0  0  0  0
  -21.3973  -12.3988   19.1226 O   0  0  0  0  0  0  0  0  0  0  0  0
  -22.5991  -28.0636   21.8794 O   0  0  0  0  0  0  0  0  0  0  0  0
  -20.8386  -30.8280   18.8441 O   0  0  0  0  0  0  0  0  0  0  0  0
  -23.5025  -28.8695   15.4399 O   0  0  0  0  0  0  0  0  0  0  0  0
  -25.2658  -18.2713   20.7138 O   0  0  0  0  0  0  0  0  0  0  0  0
  -24.0020   -6.6534   23.6825 O   0  0  0  0  0  0  0  0  0  0  0  0
  -27.8271  -26.1425   19.9439 O   0  0  0  0  0  0  0  0  0  1  0  0
  -19.4630   -3.5227   23.6803 F   0  0  0  0  0  0  0  0  0  0  0  0
  -23.1150   -5.4398   26.0026 F   0  0  0  0  0  0  0  0  0  0  0  0
  1  2  1  0  0  0  0
  1  5  2  0  0  0  0
  2  6  2  0  0  0  0
  3  8  2  0  0  0  0
  3 16  1  0  0  0  0
  4  9  1  0  0  0  0
  4 16  2  0  0  0  0
  5 18  1  0  0  0  0
  6 20  1  0  0  0  0
  7 10  2  0  0  0  0
  7 19  1  0  0  0  0
  8 22  1  0  0  0  0
  9 22  2  0  0  0  0
 10 23  1  0  0  0  0
 11 12  2  0  0  0  0
 11 24  1  0  0  0  0
 12 25  1  0  0  0  0
 13 21  1  0  0  0  0
 13 23  2  0  0  0  0
 14 25  2  0  0  0  0
 14 26  1  0  0  0  0
 15 28  2  0  0  0  0
 15 29  1  0  0  0  0
 16 27  1  0  0  0  0
 17 27  1  0  0  0  0
 17 30  2  0  0  0  0
 17 32  1  0  0  0  0
 18 20  2  0  0  0  0
 18 37  1  0  0  0  0
 19 21  2  0  0  0  0
 19 38  1  0  0  0  0
 20 52  1  0  0  0  0
 21 39  1  0  0  0  0
 22 86  1  0  0  0  0
 23 87  1  0  0  0  0
 24 26  2  0  0  0  0
 24 86  1  0  0  0  0
 25 88  1  0  0  0  0
 26 89  1  0  0  0  0
 27 67  2  0  0  0  0
 28 53  1  0  0  0  0
 28 68  1  0  0  0  0
 29 69  2  0  0  0  0
 29 76  1  0  0  0  0
 30 70  1  0  0  0  0
 30 74  1  0  0  0  0
 31 63  1  0  0  0  0
 31 68  2  0  0  0  0
 31 69  1  0  0  0  0
 32 75  1  0  0  0  0
 32 81  2  0  0  0  0
 33 54  1  0  0  0  0
 33 77  1  0  0  0  0
 33 82  2  0  0  0  0
 34 64  1  0  0  0  0
 34 71  1  0  0  0  0
 34 83  2  0  0  0  0
 35 65  1  0  0  0  0
 35 78  1  0  0  0  0
 35 84  2  0  0  0  0
 36 72  1  0  0  0  0
 36 73  1  0  0  0  0
 36 85  2  0  0  0  0
 37 40  1  0  0  0  0
 38 54  1  0  0  0  0
 39 71  1  0  0  0  0
 40 42  1  0  0  0  0
 41 43  1  0  0  0  0
 41 46  1  0  0  0  0
 42 52  1  0  0  0  0
 43 55  1  0  0  0  0
 44 47  1  0  0  0  0
 44 56  1  0  0  0  0
 45 48  1  0  0  0  0
 45 56  1  0  0  0  0
 46 72  1  0  0  0  0
 47 73  1  0  0  0  0
 48 73  1  0  0  0  0
 49 55  1  0  0  0  0
 49 72  1  0  0  0  0
 50 53  1  0  0  0  0
 50 79  1  0  0  0  0
 51 53  1  0  0  0  0
 51 79  1  0  0  0  0
 52 77  1  0  0  0  0
 54 71  1  0  0  0  0
 55 70  1  0  0  0  0
 56 76  1  0  0  0  0
 57 65  1  0  0  0  0
 58 66  1  0  0  0  0
 59 66  1  0  0  0  0
 60 66  1  0  0  0  0
 61 79  1  0  0  0  0
 62 80  1  0  0  0  0
 63 87  1  0  0  0  0
 64 66  1  0  0  0  0
 64 78  1  0  0  0  0
 65 80  1  0  0  0  0
 67 70  1  0  0  0  0
M  CHG  2  79   1  80   1
M  ISO  4  36 100  63 101  73 100  87 101
M  END
> <Batch ID>
0196

> <Smiles>
CNC(C)C(=O)NC(C(=O)N1Cc2cc([101O:1][101CH2:1]c3nc(NC4CC[100N:0]([100C:0](=O)N5CCCC(n6nc(-c7ccc(Oc8ccc(F)cc8F)cc7)c(C(N)=O)c6N)C5)CC4)cc(C4CN(C)C4)n3)ccc2CC1C(=O)NC1CCCc2ccccc21)C(C)(C)C

> <Shape>
0.241

> <Color>
0.101

> <Negative vol penalty>
0.000

$$$$

  -OEChem-04052323393D

 86 95  0     1  0  0  0  0  0999 V2000
  -19.7760  -32.9383   15.8276 C   0  0  0  0  0  0  0  0  0  0  0  0
  -20.8299  -32.0302   15.8156 C   0  0  0  0  0  0  0  0  0  0  0  0
  -25.8097   -8.7940   21.1518 C   0  0  0  0  0  0  0  0  0  0  0  0
  -23.6108   -9.7243   21.5209 C   0  0  0  0  0  0  0  0  0  0  0  0
  -19.7645  -33.9789   16.7554 C   0  0  0  0  0  0  0  0  0  0  0  0
  -21.8735  -32.1629   16.7308 C   0  0  0  0  0  0  0  0  0  0  0  0
  -25.0478  -27.6424   19.3756 C   0  0  0  0  0  0  0  0  0  0  0  0
  -25.5802   -7.8531   22.1556 C   0  0  0  0  0  0  0  0  0  0  0  0
  -23.3812   -8.7834   22.5247 C   0  0  0  0  0  0  0  0  0  0  0  0
  -26.2890  -27.0756   19.0892 C   0  0  0  0  0  0  0  0  0  0  0  0
  -22.0773   -6.3971   24.9379 C   0  0  0  0  0  0  0  0  0  0  0  0
  -20.8437   -5.7463   24.9480 C   0  0  0  0  0  0  0  0  0  0  0  0
  -27.3175  -28.5130   20.7310 C   0  0  0  0  0  0  0  0  0  0  0  0
  -28.5145  -22.6941   21.5577 C   0  0  0  0  0  0  0  0  0  0  0  0
  -21.2888   -4.8683   22.7416 C   0  0  0  0  0  0  0  0  0  0  0  0
  -24.8250   -9.7296   20.8345 C   0  0  0  0  0  0  0  0  0  0  0  0
  -24.7751  -10.5693   18.4261 C   0  0  0  0  0  0  0  0  0  0  0  0
  -20.8037  -34.1187   17.6888 C   0  0  0  0  0  0  0  0  0  0  0  0
  -24.9337  -28.6581   20.3357 C   0  0  0  0  0  0  0  0  0  0  0  0
  -21.8766  -33.2071   17.6712 C   0  0  0  0  0  0  0  0  0  0  0  0
  -26.0733  -29.0892   21.0296 C   0  0  0  0  0  0  0  0  0  0  0  0
  -24.3660   -7.8478   22.8421 C   0  0  0  0  0  0  0  0  0  0  0  0
  -27.4245  -27.5129   19.7648 C   0  0  0  0  0  0  0  0  0  0  0  0
  -22.9167   -6.2836   23.8297 C   0  0  0  0  0  0  0  0  0  0  0  0
  -29.2288  -23.8782   21.6069 C   0  0  0  0  0  0  0  0  0  0  0  0
  -20.4494   -4.9819   23.8499 C   0  0  0  0  0  0  0  0  0  0  0  0
  -22.5225   -5.5192   22.7315 C   0  0  0  0  0  0  0  0  0  0  0  0
  -25.0618  -10.7021   19.7980 C   0  0  0  0  0  0  0  0  0  0  0  0
  -29.6965  -24.4005   20.4178 C   0  0  0  0  0  0  0  0  0  0  0  0
  -28.3149  -22.1107   20.3226 C   0  0  0  0  0  0  0  0  0  0  0  0
  -25.1843  -11.7582   17.8732 C   0  0  0  0  0  0  0  0  0  0  0  0
  -24.1910   -9.4697   17.7152 C   0  0  0  0  0  0  0  0  0  0  0  0
  -24.0077  -31.6984   20.2855 C   0  0  0  0  0  0  0  0  0  0  0  0
  -24.3604  -31.4530   23.5008 C   0  0  0  0  0  0  0  0  0  0  0  0
  -25.8321  -29.8693   26.1414 C   0  0  0  0  0  0  0  0  0  0  0  0
  -25.6918  -17.1543   19.8860 C   0  0  0  0  0  0  0  0  0  0  0  0
  -20.7712  -35.2873   18.6417 C   0  0  0  0  0  0  0  0  0  0  0  0
  -23.5835  -29.2405   20.6522 C   0  0  0  0  0  0  0  0  0  0  0  0
  -26.0011  -30.1625   22.0838 C   0  0  0  0  0  0  0  0  0  0  0  0
  -21.7277  -35.1377   19.8219 C   0  0  0  0  0  0  0  0  0  0  0  0
  -28.3314  -15.2998   18.4958 C   0  0  0  0  0  0  0  0  0  0  0  0
  -23.1000  -34.6762   19.3417 C   0  0  0  0  0  0  0  0  0  0  0  0
  -27.7620  -13.8821   18.5382 C   0  0  0  0  0  0  0  0  0  0  0  0
  -27.9890  -16.0929   19.7580 C   0  0  0  0  0  0  0  0  0  0  0  0
  -26.7985  -20.6004   19.0787 C   0  0  0  0  0  0  0  0  0  0  0  0
  -28.1090  -19.7701   21.0380 C   0  0  0  0  0  0  0  0  0  0  0  0
  -25.7159  -19.5703   19.3894 C   0  0  0  0  0  0  0  0  0  0  0  0
  -26.9986  -18.7644   21.3213 C   0  0  0  0  0  0  0  0  0  0  0  0
  -25.9742  -14.7041   20.1180 C   0  0  0  0  0  0  0  0  0  0  0  0
  -23.0145  -33.3032   18.6642 C   0  0  1  0  0  0  0  0  0  0  0  0
  -23.6638  -30.6277   21.2820 C   0  0  1  0  0  0  0  0  0  0  0  0
  -26.2524  -13.9019   18.8372 C   0  0  2  0  0  0  0  0  0  0  0  0
  -25.9545  -29.9167   28.6474 C   0  0  0  0  0  0  0  0  0  0  0  0
  -26.1716  -33.9046   23.3635 C   0  0  0  0  0  0  0  0  0  0  0  0
  -26.9975  -33.3365   25.6577 C   0  0  0  0  0  0  0  0  0  0  0  0
  -24.5900  -33.8832   25.3007 C   0  0  0  0  0  0  0  0  0  0  0  0
  -24.7547  -27.1216   26.3617 C   0  0  0  0  0  0  0  0  0  0  0  0
  -28.9231  -23.8651   23.9653 C   0  0  0  0  0  0  0  0  0  0  0  0
  -30.4733  -25.6735   20.3992 C   0  0  0  0  0  0  0  0  0  0  0  0
  -29.5892  -26.9155   20.5478 C   0  0  0  0  0  0  0  0  0  1  0  0
  -25.4953  -31.6729   24.4717 C   0  0  1  0  0  0  0  0  0  0  0  0
  -25.2569  -29.3206   27.4347 C   0  0  2  0  0  0  0  0  0  0  0  0
  -25.8156  -33.1804   24.6772 C   0  0  0  0  0  0  0  0  0  0  0  0
  -25.6108  -11.8821   20.0982 N   0  0  0  0  0  0  0  0  0  0  0  0
  -29.4863  -23.8081   19.2233 N   0  0  0  0  0  0  0  0  0  0  0  0
  -28.7839  -22.6444   19.1749 N   0  0  0  0  0  0  0  0  0  0  0  0
  -25.6725  -12.5017   18.9072 N   0  0  0  0  0  0  0  0  0  0  0  0
  -27.5910  -20.9126   20.2729 N   0  0  0  0  0  0  0  0  0  0  0  0
  -24.6594  -30.7054   22.3530 N   0  0  0  0  0  0  0  0  0  0  0  0
  -26.5450  -16.0494   20.0246 N   0  0  0  0  0  0  0  0  0  0  0  0
  -26.2536  -18.4214   20.1082 N   0  0  0  0  0  0  0  0  0  0  0  0
  -25.1706  -12.2296   16.6083 N   0  0  0  0  0  0  0  0  0  0  0  0
  -23.8285   -8.3244   18.4371 N   0  0  0  0  0  0  0  0  0  0  0  0
  -22.9104  -32.2554   19.6569 N   0  0  0  0  0  0  0  0  0  0  0  0
  -25.1283  -30.9678   25.6950 N   0  0  0  0  0  0  0  0  0  0  0  0
  -25.4130  -27.8393   27.4836 N   0  3  0  0  0  0  0  0  0  0  0  0
  -24.0115   -9.4955   16.4740 O   0  0  0  0  0  0  0  0  0  0  0  0
  -25.1816  -31.9982   20.1018 O   0  0  0  0  0  0  0  0  0  0  0  0
  -23.2477  -31.9210   23.7550 O   0  0  0  0  0  0  0  0  0  0  0  0
  -26.8102  -29.3753   25.5850 O   0  0  0  0  0  0  0  0  0  0  0  0
  -24.5008  -17.0196   19.5793 O   0  0  0  0  0  0  0  0  0  0  0  0
  -24.1416   -6.9297   23.8215 O   0  0  0  0  0  0  0  0  0  0  0  0
  -29.4523  -24.4928   22.7965 O   0  0  0  0  0  0  0  0  0  0  0  0
  -28.6458  -26.9580   19.4848 O   0  0  0  0  0  0  0  0  0  1  0  0
  -19.2654   -4.3557   23.8603 F   0  0  0  0  0  0  0  0  0  0  0  0
  -23.3251   -5.4055   21.6644 F   0  0  0  0  0  0  0  0  0  0  0  0
  1  2  1  0  0  0  0
  1  5  2  0  0  0  0
  2  6  2  0  0  0  0
  3  8  2  0  0  0  0
  3 16  1  0  0  0  0
  4  9  1  0  0  0  0
  4 16  2  0  0  0  0
  5 18  1  0  0  0  0
  6 20  1  0  0  0  0
  7 10  2  0  0  0  0
  7 19  1  0  0  0  0
  8 22  1  0  0  0  0
  9 22  2  0  0  0  0
 10 23  1  0  0  0  0
 11 12  2  0  0  0  0
 11 24  1  0  0  0  0
 12 26  1  0  0  0  0
 13 21  1  0  0  0  0
 13 23  2  0  0  0  0
 14 25  1  0  0  0  0
 14 30  2  0  0  0  0
 15 26  2  0  0  0  0
 15 27  1  0  0  0  0
 16 28  1  0  0  0  0
 17 28  1  0  0  0  0
 17 31  2  0  0  0  0
 17 32  1  0  0  0  0
 18 20  2  0  0  0  0
 18 37  1  0  0  0  0
 19 21  2  0  0  0  0
 19 38  1  0  0  0  0
 20 50  1  0  0  0  0
 21 39  1  0  0  0  0
 22 82  1  0  0  0  0
 23 84  1  0  0  0  0
 24 27  2  0  0  0  0
 24 82  1  0  0  0  0
 25 29  2  0  0  0  0
 25 83  1  0  0  0  0
 26 85  1  0  0  0  0
 27 86  1  0  0  0  0
 28 64  2  0  0  0  0
 29 59  1  0  0  0  0
 29 65  1  0  0  0  0
 30 66  1  0  0  0  0
 30 68  1  0  0  0  0
 31 67  1  0  0  0  0
 31 72  1  0  0  0  0
 32 73  1  0  0  0  0
 32 77  2  0  0  0  0
 33 51  1  0  0  0  0
 33 74  1  0  0  0  0
 33 78  2  0  0  0  0
 34 61  1  0  0  0  0
 34 69  1  0  0  0  0
 34 79  2  0  0  0  0
 35 62  1  0  0  0  0
 35 75  1  0  0  0  0
 35 80  2  0  0  0  0
 36 70  1  0  0  0  0
 36 71  1  0  0  0  0
 36 81  2  0  0  0  0
 37 40  1  0  0  0  0
 38 51  1  0  0  0  0
 39 69  1  0  0  0  0
 40 42  1  0  0  0  0
 41 43  1  0  0  0  0
 41 44  1  0  0  0  0
 42 50  1  0  0  0  0
 43 52  1  0  0  0  0
 44 70  1  0  0  0  0
 45 47  1  0  0  0  0
 45 68  1  0  0  0  0
 46 48  1  0  0  0  0
 46 68  1  0  0  0  0
 47 71  1  0  0  0  0
 48 71  1  0  0  0  0
 49 52  1  0  0  0  0
 49 70  1  0  0  0  0
 50 74  1  0  0  0  0
 51 69  1  0  0  0  0
 52 67  1  0  0  0  0
 53 62  1  0  0  0  0
 54 63  1  0  0  0  0
 55 63  1  0  0  0  0
 56 63  1  0  0  0  0
 57 76  1  0  0  0  0
 58 83  1  0  0  0  0
 59 60  1  0  0  0  0
 60 84  1  0  0  0  0
 61 63  1  0  0  0  0
 61 75  1  0  0  0  0
 62 76  1  0  0  0  0
 64 67  1  0  0  0  0
 65 66  2  0  0  0  0
M  CHG  1  76   1
M  ISO  4  36 100  60 101  71 100  84 101
M  END
> <Batch ID>
0196

> <Smiles>
CNC(C)C(=O)NC(C(=O)N1Cc2cc([101O:1][101CH2:1]Cc3nnc(N4CC[100N:0]([100C:0](=O)N5CCCC(n6nc(-c7ccc(Oc8ccc(F)cc8F)cc7)c(C(N)=O)c6N)C5)CC4)cc3OC)ccc2CC1C(=O)NC1CCCc2ccccc21)C(C)(C)C

> <Shape>
0.270

> <Color>
0.118

> <Negative vol penalty>
0.000

$$$$

  -OEChem-04052323393D

 86 95  0     1  0  0  0  0  0999 V2000
  -27.7700  -22.7739   19.0760 C   0  0  0  0  0  0  0  0  0  0  0  0
  -26.5443  -23.3347   19.4206 C   0  0  0  0  0  0  0  0  0  0  0  0
  -24.0363   -9.9782   21.9778 C   0  0  0  0  0  0  0  0  0  0  0  0
  -22.6724  -10.1125   19.9881 C   0  0  0  0  0  0  0  0  0  0  0  0
  -28.9285  -23.1693   19.7435 C   0  0  0  0  0  0  0  0  0  0  0  0
  -26.4763  -24.2904   20.4337 C   0  0  0  0  0  0  0  0  0  0  0  0
  -23.5629  -28.2401   19.1859 C   0  0  0  0  0  0  0  0  0  0  0  0
  -23.4819   -8.7329   22.2738 C   0  0  0  0  0  0  0  0  0  0  0  0
  -22.1180   -8.8672   20.2841 C   0  0  0  0  0  0  0  0  0  0  0  0
  -22.1823  -28.0643   19.2688 C   0  0  0  0  0  0  0  0  0  0  0  0
  -23.8609   -5.5315   21.2538 C   0  0  0  0  0  0  0  0  0  0  0  0
  -24.7283   -4.5132   21.6490 C   0  0  0  0  0  0  0  0  0  0  0  0
  -22.1716  -29.2010   21.3965 C   0  0  0  0  0  0  0  0  0  0  0  0
  -23.5589   -4.3349   23.7557 C   0  0  0  0  0  0  0  0  0  0  0  0
  -19.5273  -23.8861   21.4098 C   0  0  0  0  0  0  0  0  0  0  0  0
  -23.6315  -10.6680   20.8350 C   0  0  0  0  0  0  0  0  0  0  0  0
  -25.3529  -12.2124   19.7583 C   0  0  0  0  0  0  0  0  0  0  0  0
  -28.8760  -24.1375   20.7586 C   0  0  0  0  0  0  0  0  0  0  0  0
  -24.2609  -28.8891   20.2145 C   0  0  0  0  0  0  0  0  0  0  0  0
  -27.6350  -24.6981   21.1163 C   0  0  0  0  0  0  0  0  0  0  0  0
  -23.5607  -29.3860   21.3230 C   0  0  0  0  0  0  0  0  0  0  0  0
  -22.5228   -8.1774   21.4269 C   0  0  0  0  0  0  0  0  0  0  0  0
  -21.4869  -28.5422   20.3756 C   0  0  0  0  0  0  0  0  0  0  0  0
  -22.8426   -5.9516   22.1095 C   0  0  0  0  0  0  0  0  0  0  0  0
  -24.5773   -3.9149   22.9000 C   0  0  0  0  0  0  0  0  0  0  0  0
  -22.6916   -5.3533   23.3604 C   0  0  0  0  0  0  0  0  0  0  0  0
  -24.2034  -11.9546   20.5291 C   0  0  0  0  0  0  0  0  0  0  0  0
  -20.1208  -22.9744   22.2354 C   0  0  0  0  0  0  0  0  0  0  0  0
  -19.2616  -25.0882   22.0011 C   0  0  0  0  0  0  0  0  0  0  0  0
  -25.4727  -13.5807   19.7675 C   0  0  0  0  0  0  0  0  0  0  0  0
  -26.2335  -11.2970   19.0934 C   0  0  0  0  0  0  0  0  0  0  0  0
  -26.5599  -28.0491   22.2424 C   0  0  0  0  0  0  0  0  0  0  0  0
  -26.4580  -31.1891   23.0501 C   0  0  0  0  0  0  0  0  0  0  0  0
  -24.6699  -34.0935   23.1686 C   0  0  0  0  0  0  0  0  0  0  0  0
  -21.7064  -17.9339   20.3076 C   0  0  0  0  0  0  0  0  0  0  0  0
  -30.1481  -24.4984   21.4840 C   0  0  0  0  0  0  0  0  0  0  0  0
  -25.7464  -29.0944   20.0973 C   0  0  0  0  0  0  0  0  0  0  0  0
  -24.2604  -30.1077   22.4446 C   0  0  0  0  0  0  0  0  0  0  0  0
  -30.0441  -25.7907   22.2899 C   0  0  0  0  0  0  0  0  0  0  0  0
  -24.4591  -17.4184   22.4282 C   0  0  0  0  0  0  0  0  0  0  0  0
  -28.7552  -25.8090   23.1055 C   0  0  0  0  0  0  0  0  0  0  0  0
  -24.8233  -15.9694   22.1063 C   0  0  0  0  0  0  0  0  0  0  0  0
  -22.9454  -17.6272   22.4965 C   0  0  0  0  0  0  0  0  0  0  0  0
  -21.3437  -21.6154   20.5664 C   0  0  0  0  0  0  0  0  0  0  0  0
  -20.3891  -20.5638   22.6228 C   0  0  0  0  0  0  0  0  0  0  0  0
  -21.1636  -20.2917   19.8281 C   0  0  0  0  0  0  0  0  0  0  0  0
  -20.2144  -19.2640   21.8454 C   0  0  0  0  0  0  0  0  0  0  0  0
  -22.5845  -15.7143   20.9705 C   0  0  0  0  0  0  0  0  0  0  0  0
  -27.5240  -25.7559   22.1928 C   0  0  1  0  0  0  0  0  0  0  0  0
  -26.4271  -29.3154   21.4446 C   0  0  1  0  0  0  0  0  0  0  0  0
  -24.0983  -15.4864   20.8376 C   0  0  2  0  0  0  0  0  0  0  0  0
  -24.8401  -36.4824   23.9182 C   0  0  0  0  0  0  0  0  0  0  0  0
  -17.2478  -28.0082   20.8522 C   0  0  0  0  0  0  0  0  0  0  0  0
  -26.0945  -30.3033   25.9472 C   0  0  0  0  0  0  0  0  0  0  0  0
  -25.3316  -32.6257   26.4884 C   0  0  0  0  0  0  0  0  0  0  0  0
  -27.6440  -32.2415   25.6354 C   0  0  0  0  0  0  0  0  0  0  0  0
  -24.2618  -35.1072   20.4181 C   0  0  0  0  0  0  0  0  0  0  0  0
  -19.5806  -28.2510   21.7674 C   0  0  0  0  0  0  0  0  0  1  0  0
  -25.6852  -32.0103   24.0538 C   0  0  1  0  0  0  0  0  0  0  0  0
  -25.0250  -35.5123   22.7617 C   0  0  2  0  0  0  0  0  0  0  0  0
  -18.3235  -27.3845   21.7316 C   0  0  2  0  0  0  0  0  0  0  0  0
  -26.1756  -31.7799   25.5112 C   0  0  0  0  0  0  0  0  0  0  0  0
  -23.6338  -13.0696   20.9942 N   0  0  0  0  0  0  0  0  0  0  0  0
  -20.4200  -23.2362   23.5238 N   0  0  0  0  0  0  0  0  0  0  0  0
  -19.5591  -25.3546   23.2888 N   0  0  0  0  0  0  0  0  0  0  0  0
  -20.1304  -24.4201   24.0139 N   0  0  0  0  0  0  0  0  0  0  0  0
  -24.4286  -14.0413   20.5145 N   0  0  0  0  0  0  0  0  0  0  0  0
  -20.4286  -21.7135   21.7087 N   0  0  0  0  0  0  0  0  0  0  0  0
  -25.7142  -30.2780   22.2869 N   0  0  0  0  0  0  0  0  0  0  0  0
  -22.2938  -17.1150   21.2835 N   0  0  0  0  0  0  0  0  0  0  0  0
  -21.1727  -19.1569   20.7433 N   0  0  0  0  0  0  0  0  0  0  0  0
  -26.3684  -14.4226   19.2096 N   0  0  0  0  0  0  0  0  0  0  0  0
  -25.9645   -9.9246   19.1860 N   0  0  0  0  0  0  0  0  0  0  0  0
  -18.6480  -26.0926   21.2169 N   0  0  0  0  0  0  0  0  0  0  0  0
  -27.2752  -27.0541   21.6037 N   0  0  0  0  0  0  0  0  0  0  0  0
  -25.7761  -33.3953   23.6047 N   0  0  0  0  0  0  0  0  0  0  0  0
  -24.1620  -35.9584   21.6316 N   0  3  0  0  0  0  0  0  0  0  0  0
  -27.2387  -11.6835   18.4503 O   0  0  0  0  0  0  0  0  0  0  0  0
  -26.0524  -27.9804   23.3557 O   0  0  0  0  0  0  0  0  0  0  0  0
  -27.6755  -31.3552   22.9420 O   0  0  0  0  0  0  0  0  0  0  0  0
  -23.5251  -33.6503   23.1093 O   0  0  0  0  0  0  0  0  0  0  0  0
  -21.6631  -17.5964   19.1181 O   0  0  0  0  0  0  0  0  0  0  0  0
  -21.9818   -6.9622   21.7153 O   0  0  0  0  0  0  0  0  0  0  0  0
  -20.1306  -28.3703   20.4600 O   0  0  0  0  0  0  0  0  0  1  0  0
  -25.4094   -2.9359   23.2788 F   0  0  0  0  0  0  0  0  0  0  0  0
  -21.7144   -5.7518   24.1863 F   0  0  0  0  0  0  0  0  0  0  0  0
  1  2  1  0  0  0  0
  1  5  2  0  0  0  0
  2  6  2  0  0  0  0
  3  8  2  0  0  0  0
  3 16  1  0  0  0  0
  4  9  1  0  0  0  0
  4 16  2  0  0  0  0
  5 18  1  0  0  0  0
  6 20  1  0  0  0  0
  7 10  2  0  0  0  0
  7 19  1  0  0  0  0
  8 22  1  0  0  0  0
  9 22  2  0  0  0  0
 10 23  1  0  0  0  0
 11 12  2  0  0  0  0
 11 24  1  0  0  0  0
 12 25  1  0  0  0  0
 13 21  1  0  0  0  0
 13 23  2  0  0  0  0
 14 25  2  0  0  0  0
 14 26  1  0  0  0  0
 15 28  2  0  0  0  0
 15 29  1  0  0  0  0
 16 27  1  0  0  0  0
 17 27  1  0  0  0  0
 17 30  2  0  0  0  0
 17 31  1  0  0  0  0
 18 20  2  0  0  0  0
 18 36  1  0  0  0  0
 19 21  2  0  0  0  0
 19 37  1  0  0  0  0
 20 49  1  0  0  0  0
 21 38  1  0  0  0  0
 22 83  1  0  0  0  0
 23 84  1  0  0  0  0
 24 26  2  0  0  0  0
 24 83  1  0  0  0  0
 25 85  1  0  0  0  0
 26 86  1  0  0  0  0
 27 63  2  0  0  0  0
 28 64  1  0  0  0  0
 28 68  1  0  0  0  0
 29 65  2  0  0  0  0
 29 74  1  0  0  0  0
 30 67  1  0  0  0  0
 30 72  1  0  0  0  0
 31 73  1  0  0  0  0
 31 78  2  0  0  0  0
 32 50  1  0  0  0  0
 32 75  1  0  0  0  0
 32 79  2  0  0  0  0
 33 59  1  0  0  0  0
 33 69  1  0  0  0  0
 33 80  2  0  0  0  0
 34 60  1  0  0  0  0
 34 76  1  0  0  0  0
 34 81  2  0  0  0  0
 35 70  1  0  0  0  0
 35 71  1  0  0  0  0
 35 82  2  0  0  0  0
 36 39  1  0  0  0  0
 37 50  1  0  0  0  0
 38 69  1  0  0  0  0
 39 41  1  0  0  0  0
 40 42  1  0  0  0  0
 40 43  1  0  0  0  0
 41 49  1  0  0  0  0
 42 51  1  0  0  0  0
 43 70  1  0  0  0  0
 44 46  1  0  0  0  0
 44 68  1  0  0  0  0
 45 47  1  0  0  0  0
 45 68  1  0  0  0  0
 46 71  1  0  0  0  0
 47 71  1  0  0  0  0
 48 51  1  0  0  0  0
 48 70  1  0  0  0  0
 49 75  1  0  0  0  0
 50 69  1  0  0  0  0
 51 67  1  0  0  0  0
 52 60  1  0  0  0  0
 53 61  1  0  0  0  0
 54 62  1  0  0  0  0
 55 62  1  0  0  0  0
 56 62  1  0  0  0  0
 57 77  1  0  0  0  0
 58 61  1  0  0  0  0
 58 84  1  0  0  0  0
 59 62  1  0  0  0  0
 59 76  1  0  0  0  0
 60 77  1  0  0  0  0
 61 74  1  0  0  0  0
 63 67  1  0  0  0  0
 64 66  2  0  0  0  0
 65 66  1  0  0  0  0
M  CHG  1  77   1
M  ISO  4  35 100  58 101  71 100  84 101
M  END
> <Batch ID>
0196

> <Smiles>
CNC(C)C(=O)NC(C(=O)N1Cc2cc([101O:1][101CH2:1]C(C)Nc3cc(N4CC[100N:0]([100C:0](=O)N5CCCC(n6nc(-c7ccc(Oc8ccc(F)cc8F)cc7)c(C(N)=O)c6N)C5)CC4)nnn3)ccc2CC1C(=O)NC1CCCc2ccccc21)C(C)(C)C

> <Shape>
0.275

> <Color>
0.078

> <Negative vol penalty>
0.000

$$$$

  -OEChem-04052323393D

 88 98  0     1  0  0  0  0  0999 V2000
  -19.2122  -29.4155   26.4506 C   0  0  0  0  0  0  0  0  0  0  0  0
  -18.5984  -29.0864   25.2463 C   0  0  0  0  0  0  0  0  0  0  0  0
  -22.6696  -10.2855   20.2989 C   0  0  0  0  0  0  0  0  0  0  0  0
  -24.4366   -9.3469   21.6531 C   0  0  0  0  0  0  0  0  0  0  0  0
  -20.4362  -30.0832   26.4482 C   0  0  0  0  0  0  0  0  0  0  0  0
  -19.2078  -29.4257   24.0388 C   0  0  0  0  0  0  0  0  0  0  0  0
  -20.9106  -24.3726   19.1956 C   0  0  0  0  0  0  0  0  0  0  0  0
  -21.9752   -9.0778   20.3679 C   0  0  0  0  0  0  0  0  0  0  0  0
  -23.7421   -8.1392   21.7221 C   0  0  0  0  0  0  0  0  0  0  0  0
  -21.0753  -23.4883   18.1292 C   0  0  0  0  0  0  0  0  0  0  0  0
  -21.1320   -6.8638   23.4487 C   0  0  0  0  0  0  0  0  0  0  0  0
  -21.0411   -6.2404   24.6932 C   0  0  0  0  0  0  0  0  0  0  0  0
  -22.0512  -25.2568   16.7995 C   0  0  0  0  0  0  0  0  0  0  0  0
  -22.1741   -4.3005   23.8041 C   0  0  0  0  0  0  0  0  0  0  0  0
  -23.9003  -10.4201   20.9415 C   0  0  0  0  0  0  0  0  0  0  0  0
  -24.1790  -12.9279   21.3167 C   0  0  0  0  0  0  0  0  0  0  0  0
  -21.0655  -30.4223   25.2401 C   0  0  0  0  0  0  0  0  0  0  0  0
  -21.3301  -25.7001   19.0731 C   0  0  0  0  0  0  0  0  0  0  0  0
  -20.4407  -30.0997   24.0203 C   0  0  0  0  0  0  0  0  0  0  0  0
  -21.9001  -26.1440   17.8686 C   0  0  0  0  0  0  0  0  0  0  0  0
  -22.5114   -8.0046   21.0795 C   0  0  0  0  0  0  0  0  0  0  0  0
  -21.6440  -23.9294   16.9341 C   0  0  0  0  0  0  0  0  0  0  0  0
  -21.7438   -6.2055   22.3819 C   0  0  0  0  0  0  0  0  0  0  0  0
  -21.5622   -4.9588   24.8709 C   0  0  0  0  0  0  0  0  0  0  0  0
  -22.2649   -4.9239   22.5596 C   0  0  0  0  0  0  0  0  0  0  0  0
  -24.6184  -11.6672   20.8702 C   0  0  0  0  0  0  0  0  0  0  0  0
  -25.2179  -13.7772   21.0236 C   0  0  0  0  0  0  0  0  0  0  0  0
  -27.6753  -21.2408   16.1585 C   0  0  0  0  0  0  0  0  0  0  0  0
  -29.3714  -22.2412   16.8512 C   0  0  0  0  0  0  0  0  0  0  0  0
  -22.9424  -13.2981   21.9408 C   0  0  0  0  0  0  0  0  0  0  0  0
  -21.6779  -29.0648   20.6960 C   0  0  0  0  0  0  0  0  0  0  0  0
  -24.2417  -28.5851   19.0812 C   0  0  0  0  0  0  0  0  0  0  0  0
  -27.0748  -27.4928   17.5263 C   0  0  0  0  0  0  0  0  0  0  0  0
  -28.9925  -15.4825   17.1831 C   0  0  0  0  0  0  0  0  0  0  0  0
  -22.3654  -31.1857   25.2880 C   0  0  0  0  0  0  0  0  0  0  0  0
  -21.1161  -26.7029   20.1742 C   0  0  0  0  0  0  0  0  0  0  0  0
  -22.3051  -27.5894   17.7701 C   0  0  0  0  0  0  0  0  0  0  0  0
  -23.1261  -31.1769   23.9646 C   0  0  0  0  0  0  0  0  0  0  0  0
  -29.9499  -12.8193   19.5217 C   0  0  0  0  0  0  0  0  0  0  0  0
  -22.1846  -31.4886   22.8056 C   0  0  0  0  0  0  0  0  0  0  0  0
  -28.6029  -12.3565   20.0785 C   0  0  0  0  0  0  0  0  0  0  0  0
  -28.2358  -18.6348   18.9131 C   0  0  0  0  0  0  0  0  0  0  0  0
  -26.3073  -21.5984   14.0331 C   0  0  0  0  0  0  0  0  0  0  0  0
  -29.8270  -13.3462   18.0938 C   0  0  0  0  0  0  0  0  0  0  0  0
  -28.1000  -17.1170   18.9434 C   0  0  0  0  0  0  0  0  0  0  0  0
  -27.4623  -13.9296   18.4704 C   0  0  0  0  0  0  0  0  0  0  0  0
  -28.3967  -17.8321   16.6686 C   0  0  0  0  0  0  0  0  0  0  0  0
  -24.8431  -21.4226   13.6891 C   0  0  0  0  0  0  0  0  0  0  0  0
  -25.1260  -21.3661   16.1191 C   0  0  0  0  0  0  0  0  0  0  0  0
  -21.0824  -30.4288   22.6899 C   0  0  1  0  0  0  0  0  0  0  0  0
  -26.4066  -20.9303   15.4029 C   0  0  2  0  0  0  0  0  0  0  0  0
  -22.2467  -27.7427   20.2716 C   0  0  1  0  0  0  0  0  0  0  0  0
  -27.5334  -13.4546   19.9284 C   0  0  1  0  0  0  0  0  0  0  0  0
  -27.7960  -18.9795   17.4845 C   0  0  2  0  0  0  0  0  0  0  0  0
  -30.4405  -23.2005   17.1132 C   0  0  0  0  0  0  0  0  0  0  0  0
  -29.4678  -27.5030   16.7709 C   0  0  0  0  0  0  0  0  0  0  0  0
  -23.1531  -30.3730   16.8625 C   0  0  0  0  0  0  0  0  0  0  0  0
  -25.4097  -30.2852   15.7817 C   0  0  0  0  0  0  0  0  0  0  0  0
  -25.1542  -31.2870   18.0519 C   0  0  0  0  0  0  0  0  0  0  0  0
  -27.9824  -26.1439   19.9993 C   0  0  0  0  0  0  0  0  0  0  0  0
  -22.8191  -21.0138   15.1320 C   0  0  0  0  0  0  0  0  0  0  0  0
  -22.0180  -21.6887   16.2278 C   0  0  0  0  0  0  0  0  0  1  0  0
  -24.9691  -28.7807   17.7751 C   0  0  1  0  0  0  0  0  0  0  0  0
  -28.5277  -27.4885   17.9662 C   0  0  2  0  0  0  0  0  0  0  0  0
  -24.6573  -30.1575   17.1234 C   0  0  0  0  0  0  0  0  0  0  0  0
  -25.8411  -11.7075   20.3340 N   0  0  0  0  0  0  0  0  0  0  0  0
  -28.3664  -22.4108   16.0237 N   0  0  0  0  0  0  0  0  0  0  0  0
  -29.2733  -21.0223   17.4465 N   0  0  0  0  0  0  0  0  0  0  0  0
  -26.1788  -13.0038   20.4416 N   0  0  0  0  0  0  0  0  0  0  0  0
  -28.1894  -20.3580   17.0174 N   0  0  0  0  0  0  0  0  0  0  0  0
  -22.9659  -28.0119   19.0149 N   0  0  0  0  0  0  0  0  0  0  0  0
  -28.7814  -14.3652   17.9987 N   0  0  0  0  0  0  0  0  0  0  0  0
  -28.4190  -16.6902   17.5796 N   0  0  0  0  0  0  0  0  0  0  0  0
  -25.3939  -15.1027   21.2093 N   0  0  0  0  0  0  0  0  0  0  0  0
  -21.9843  -12.3010   22.1687 N   0  0  0  0  0  0  0  0  0  0  0  0
  -21.5981  -29.2293   22.0657 N   0  0  0  0  0  0  0  0  0  0  0  0
  -26.3832  -28.5604   18.0585 N   0  0  0  0  0  0  0  0  0  0  0  0
  -24.1459  -21.6897   15.0032 N   0  3  2  0  0  0  0  0  0  0  0  0
  -28.8193  -26.2737   18.7788 N   0  3  0  0  0  0  0  0  0  0  0  0
  -22.6878  -14.4812   22.2711 O   0  0  0  0  0  0  0  0  0  0  0  0
  -21.3376  -29.8775   19.8443 O   0  0  0  0  0  0  0  0  0  0  0  0
  -24.7850  -28.9354   20.1325 O   0  0  0  0  0  0  0  0  0  0  0  0
  -26.6016  -26.6369   16.7819 O   0  0  0  0  0  0  0  0  0  0  0  0
  -29.7013  -15.4153   16.1701 O   0  0  0  0  0  0  0  0  0  0  0  0
  -21.8340   -6.8261   21.1472 O   0  0  0  0  0  0  0  0  0  0  0  0
  -21.8072  -23.0536   15.8912 O   0  0  0  0  0  0  0  0  0  1  0  0
  -21.4762   -4.3609   26.0664 F   0  0  0  0  0  0  0  0  0  0  0  0
  -22.8549   -4.2870   21.5388 F   0  0  0  0  0  0  0  0  0  0  0  0
  1  2  1  0  0  0  0
  1  5  2  0  0  0  0
  2  6  2  0  0  0  0
  3  8  2  0  0  0  0
  3 15  1  0  0  0  0
  4  9  1  0  0  0  0
  4 15  2  0  0  0  0
  5 17  1  0  0  0  0
  6 19  1  0  0  0  0
  7 10  2  0  0  0  0
  7 18  1  0  0  0  0
  8 21  1  0  0  0  0
  9 21  2  0  0  0  0
 10 22  1  0  0  0  0
 11 12  2  0  0  0  0
 11 23  1  0  0  0  0
 12 24  1  0  0  0  0
 13 20  1  0  0  0  0
 13 22  2  0  0  0  0
 14 24  2  0  0  0  0
 14 25  1  0  0  0  0
 15 26  1  0  0  0  0
 16 26  1  0  0  0  0
 16 27  2  0  0  0  0
 16 30  1  0  0  0  0
 17 19  2  0  0  0  0
 17 35  1  0  0  0  0
 18 20  2  0  0  0  0
 18 36  1  0  0  0  0
 19 50  1  0  0  0  0
 20 37  1  0  0  0  0
 21 85  1  0  0  0  0
 22 86  1  0  0  0  0
 23 25  2  0  0  0  0
 23 85  1  0  0  0  0
 24 87  1  0  0  0  0
 25 88  1  0  0  0  0
 26 66  2  0  0  0  0
 27 69  1  0  0  0  0
 27 74  1  0  0  0  0
 28 51  1  0  0  0  0
 28 67  2  0  0  0  0
 28 70  1  0  0  0  0
 29 55  1  0  0  0  0
 29 67  1  0  0  0  0
 29 68  2  0  0  0  0
 30 75  1  0  0  0  0
 30 80  2  0  0  0  0
 31 52  1  0  0  0  0
 31 76  1  0  0  0  0
 31 81  2  0  0  0  0
 32 63  1  0  0  0  0
 32 71  1  0  0  0  0
 32 82  2  0  0  0  0
 33 64  1  0  0  0  0
 33 77  1  0  0  0  0
 33 83  2  0  0  0  0
 34 72  1  0  0  0  0
 34 73  1  0  0  0  0
 34 84  2  0  0  0  0
 35 38  1  0  0  0  0
 36 52  1  0  0  0  0
 37 71  1  0  0  0  0
 38 40  1  0  0  0  0
 39 41  1  0  0  0  0
 39 44  1  0  0  0  0
 40 50  1  0  0  0  0
 41 53  1  0  0  0  0
 42 45  1  0  0  0  0
 42 54  1  0  0  0  0
 43 48  1  0  0  0  0
 43 51  1  0  0  0  0
 44 72  1  0  0  0  0
 45 73  1  0  0  0  0
 46 53  1  0  0  0  0
 46 72  1  0  0  0  0
 47 54  1  0  0  0  0
 47 73  1  0  0  0  0
 48 78  1  0  0  0  0
 49 51  1  0  0  0  0
 49 78  1  0  0  0  0
 50 76  1  0  0  0  0
 52 71  1  0  0  0  0
 53 69  1  0  0  0  0
 54 70  1  0  0  0  0
 56 64  1  0  0  0  0
 57 65  1  0  0  0  0
 58 65  1  0  0  0  0
 59 65  1  0  0  0  0
 60 79  1  0  0  0  0
 61 62  1  0  0  0  0
 61 78  1  0  0  0  0
 62 86  1  0  0  0  0
 63 65  1  0  0  0  0
 63 77  1  0  0  0  0
 64 79  1  0  0  0  0
 66 69  1  0  0  0  0
 68 70  1  0  0  0  0
M  CHG  2  78   1  79   1
M  ISO  4  34 100  62 101  73 100  86 101
M  END
> <Batch ID>
0196

> <Smiles>
CNC(C)C(=O)NC(C(=O)N1Cc2cc([101O:1][101CH2:1]CN3CCC(c4nc(C)nn4C4CC[100N:0]([100C:0](=O)N5CCCC(n6nc(-c7ccc(Oc8ccc(F)cc8F)cc7)c(C(N)=O)c6N)C5)C4)C3)ccc2CC1C(=O)NC1CCCc2ccccc21)C(C)(C)C

> <Shape>
0.243

> <Color>
0.152

> <Negative vol penalty>
0.000

$$$$

  -OEChem-04052323393D

 82 91  0     1  0  0  0  0  0999 V2000
  -29.4809  -36.5765   21.2823 C   0  0  0  0  0  0  0  0  0  0  0  0
  -29.6791  -35.2194   21.0492 C   0  0  0  0  0  0  0  0  0  0  0  0
  -24.7796   -8.5261   21.5104 C   0  0  0  0  0  0  0  0  0  0  0  0
  -23.1316   -9.9381   20.4486 C   0  0  0  0  0  0  0  0  0  0  0  0
  -28.4656  -36.9941   22.1418 C   0  0  0  0  0  0  0  0  0  0  0  0
  -28.8627  -34.2789   21.6764 C   0  0  0  0  0  0  0  0  0  0  0  0
  -26.9653  -28.9311   19.3727 C   0  0  0  0  0  0  0  0  0  0  0  0
  -23.8132   -8.0736   22.4086 C   0  0  0  0  0  0  0  0  0  0  0  0
  -22.1652   -9.4856   21.3468 C   0  0  0  0  0  0  0  0  0  0  0  0
  -27.4229  -27.6243   19.5359 C   0  0  0  0  0  0  0  0  0  0  0  0
  -21.2574   -5.8598   22.4118 C   0  0  0  0  0  0  0  0  0  0  0  0
  -21.1984   -4.4893   22.6645 C   0  0  0  0  0  0  0  0  0  0  0  0
  -25.7664  -27.2652   21.2524 C   0  0  0  0  0  0  0  0  0  0  0  0
  -21.6346   -4.9021   25.0047 C   0  0  0  0  0  0  0  0  0  0  0  0
  -29.9228  -23.2763   20.5196 C   0  0  0  0  0  0  0  0  0  0  0  0
  -27.7570  -22.6655   19.8934 C   0  0  0  0  0  0  0  0  0  0  0  0
  -24.4388   -9.4584   20.5304 C   0  0  0  0  0  0  0  0  0  0  0  0
  -25.7637   -9.3683   18.3522 C   0  0  0  0  0  0  0  0  0  0  0  0
  -27.6302  -36.0586   22.7724 C   0  0  0  0  0  0  0  0  0  0  0  0
  -25.9103  -29.4191   20.1570 C   0  0  0  0  0  0  0  0  0  0  0  0
  -27.8362  -34.6842   22.5463 C   0  0  0  0  0  0  0  0  0  0  0  0
  -25.2957  -28.5777   21.0954 C   0  0  0  0  0  0  0  0  0  0  0  0
  -28.6790  -23.6760   20.0751 C   0  0  0  0  0  0  0  0  0  0  0  0
  -22.5060   -8.5533   22.3269 C   0  0  0  0  0  0  0  0  0  0  0  0
  -26.8253  -26.7920   20.4779 C   0  0  0  0  0  0  0  0  0  0  0  0
  -21.5051   -6.7514   23.4555 C   0  0  0  0  0  0  0  0  0  0  0  0
  -21.3870   -4.0105   23.9610 C   0  0  0  0  0  0  0  0  0  0  0  0
  -21.6936   -6.2726   24.7519 C   0  0  0  0  0  0  0  0  0  0  0  0
  -25.4368   -9.9266   19.6025 C   0  0  0  0  0  0  0  0  0  0  0  0
  -26.7650  -10.1740   17.8677 C   0  0  0  0  0  0  0  0  0  0  0  0
  -29.2666  -21.1003   20.5553 C   0  0  0  0  0  0  0  0  0  0  0  0
  -25.2116   -8.2238   17.6882 C   0  0  0  0  0  0  0  0  0  0  0  0
  -25.5924  -31.7604   22.2833 C   0  0  0  0  0  0  0  0  0  0  0  0
  -22.4632  -30.9136   22.1674 C   0  0  0  0  0  0  0  0  0  0  0  0
  -20.1352  -28.5092   21.4992 C   0  0  0  0  0  0  0  0  0  0  0  0
  -28.0269  -15.8551   18.9797 C   0  0  0  0  0  0  0  0  0  0  0  0
  -26.5765  -36.5558   23.7301 C   0  0  0  0  0  0  0  0  0  0  0  0
  -25.4108  -30.8227   19.9501 C   0  0  0  0  0  0  0  0  0  0  0  0
  -24.1463  -29.0469   21.9482 C   0  0  0  0  0  0  0  0  0  0  0  0
  -25.5146  -35.5109   24.0634 C   0  0  0  0  0  0  0  0  0  0  0  0
  -30.3200  -13.0121   19.2839 C   0  0  0  0  0  0  0  0  0  0  0  0
  -26.1676  -34.1716   24.3898 C   0  0  0  0  0  0  0  0  0  0  0  0
  -29.3363  -11.8481   19.3437 C   0  0  0  0  0  0  0  0  0  0  0  0
  -29.7727  -14.2713   19.9573 C   0  0  0  0  0  0  0  0  0  0  0  0
  -27.4537  -13.5129   19.5120 C   0  0  0  0  0  0  0  0  0  0  0  0
  -28.3611  -18.3809   19.1656 C   0  0  0  0  0  0  0  0  0  0  0  0
  -29.3428  -17.3072   20.7181 C   0  0  0  0  0  0  0  0  0  0  0  0
  -26.9554  -33.6347   23.1888 C   0  0  1  0  0  0  0  0  0  0  0  0
  -24.6685  -31.3775   21.1619 C   0  0  1  0  0  0  0  0  0  0  0  0
  -27.9712  -12.2676   18.7785 C   0  0  2  0  0  0  0  0  0  0  0  0
  -28.6631  -18.6807   20.6381 C   0  0  0  0  0  0  0  0  0  0  0  0
  -17.6595  -28.1004   21.5345 C   0  0  0  0  0  0  0  0  0  0  0  0
  -22.5545  -30.6379   25.2048 C   0  0  0  0  0  0  0  0  0  0  0  0
  -20.4140  -29.3451   25.0821 C   0  0  0  0  0  0  0  0  0  0  0  0
  -20.4811  -31.7185   24.3172 C   0  0  0  0  0  0  0  0  0  0  0  0
  -20.0607  -27.9990   18.5849 C   0  0  0  0  0  0  0  0  0  0  0  0
  -28.3548  -25.0983   19.8085 C   0  0  0  0  0  0  0  0  0  1  0  0
  -21.5927  -29.9325   22.9149 C   0  0  1  0  0  0  0  0  0  0  0  0
  -18.8469  -28.5498   20.6972 C   0  0  2  0  0  0  0  0  0  0  0  0
  -21.2835  -30.4000   24.3652 C   0  0  0  0  0  0  0  0  0  0  0  0
  -30.2522  -21.9923   20.7707 N   0  0  0  0  0  0  0  0  0  0  0  0
  -28.0178  -21.3621   20.1245 N   0  0  0  0  0  0  0  0  0  0  0  0
  -26.1710  -11.0036   19.8941 N   0  0  0  0  0  0  0  0  0  0  0  0
  -26.9693  -11.1285   18.8202 N   0  0  0  0  0  0  0  0  0  0  0  0
  -23.6981  -30.4294   21.7130 N   0  0  0  0  0  0  0  0  0  0  0  0
  -28.4282  -14.6098   19.4753 N   0  0  0  0  0  0  0  0  0  0  0  0
  -28.6273  -16.9819   19.4919 N   0  0  0  0  0  0  0  0  0  0  0  0
  -27.4819  -10.1519   16.7240 N   0  0  0  0  0  0  0  0  0  0  0  0
  -24.1889   -7.5095   18.3271 N   0  0  0  0  0  0  0  0  0  0  0  0
  -29.5725  -19.7584   20.8061 N   0  0  0  0  0  0  0  0  0  0  0  0
  -26.0567  -33.0598   22.2109 N   0  0  0  0  0  0  0  0  0  0  0  0
  -20.4084  -29.7255   22.0885 N   0  0  0  0  0  0  0  0  0  0  0  0
  -18.9485  -27.6569   19.5084 N   0  3  0  0  0  0  0  0  0  0  0  0
  -25.6245   -7.8361   16.5689 O   0  0  0  0  0  0  0  0  0  0  0  0
  -25.8627  -30.9382   23.1508 O   0  0  0  0  0  0  0  0  0  0  0  0
  -22.0592  -32.0650   21.9869 O   0  0  0  0  0  0  0  0  0  0  0  0
  -20.8279  -27.4986   21.5963 O   0  0  0  0  0  0  0  0  0  0  0  0
  -27.1361  -15.9627   18.1266 O   0  0  0  0  0  0  0  0  0  0  0  0
  -21.5626   -8.1118   23.2031 O   0  0  0  0  0  0  0  0  0  0  0  0
  -27.2731  -25.5086   20.6406 O   0  0  0  0  0  0  0  0  0  1  0  0
  -21.3287   -2.6945   24.2038 F   0  0  0  0  0  0  0  0  0  0  0  0
  -21.9307   -7.1245   25.7589 F   0  0  0  0  0  0  0  0  0  0  0  0
  1  2  1  0  0  0  0
  1  5  2  0  0  0  0
  2  6  2  0  0  0  0
  3  8  2  0  0  0  0
  3 17  1  0  0  0  0
  4  9  1  0  0  0  0
  4 17  2  0  0  0  0
  5 19  1  0  0  0  0
  6 21  1  0  0  0  0
  7 10  2  0  0  0  0
  7 20  1  0  0  0  0
  8 24  1  0  0  0  0
  9 24  2  0  0  0  0
 10 25  1  0  0  0  0
 11 12  2  0  0  0  0
 11 26  1  0  0  0  0
 12 27  1  0  0  0  0
 13 22  1  0  0  0  0
 13 25  2  0  0  0  0
 14 27  2  0  0  0  0
 14 28  1  0  0  0  0
 15 23  1  0  0  0  0
 15 61  2  0  0  0  0
 16 23  2  0  0  0  0
 16 62  1  0  0  0  0
 17 29  1  0  0  0  0
 18 29  1  0  0  0  0
 18 30  2  0  0  0  0
 18 32  1  0  0  0  0
 19 21  2  0  0  0  0
 19 37  1  0  0  0  0
 20 22  2  0  0  0  0
 20 38  1  0  0  0  0
 21 48  1  0  0  0  0
 22 39  1  0  0  0  0
 23 57  1  0  0  0  0
 24 79  1  0  0  0  0
 25 80  1  0  0  0  0
 26 28  2  0  0  0  0
 26 79  1  0  0  0  0
 27 81  1  0  0  0  0
 28 82  1  0  0  0  0
 29 63  2  0  0  0  0
 30 64  1  0  0  0  0
 30 68  1  0  0  0  0
 31 61  1  0  0  0  0
 31 62  2  0  0  0  0
 31 70  1  0  0  0  0
 32 69  1  0  0  0  0
 32 74  2  0  0  0  0
 33 49  1  0  0  0  0
 33 71  1  0  0  0  0
 33 75  2  0  0  0  0
 34 58  1  0  0  0  0
 34 65  1  0  0  0  0
 34 76  2  0  0  0  0
 35 59  1  0  0  0  0
 35 72  1  0  0  0  0
 35 77  2  0  0  0  0
 36 66  1  0  0  0  0
 36 67  1  0  0  0  0
 36 78  2  0  0  0  0
 37 40  1  0  0  0  0
 38 49  1  0  0  0  0
 39 65  1  0  0  0  0
 40 42  1  0  0  0  0
 41 43  1  0  0  0  0
 41 44  1  0  0  0  0
 42 48  1  0  0  0  0
 43 50  1  0  0  0  0
 44 66  1  0  0  0  0
 45 50  1  0  0  0  0
 45 66  1  0  0  0  0
 46 51  1  0  0  0  0
 46 67  1  0  0  0  0
 47 51  1  0  0  0  0
 47 67  1  0  0  0  0
 48 71  1  0  0  0  0
 49 65  1  0  0  0  0
 50 64  1  0  0  0  0
 51 70  1  0  0  0  0
 52 59  1  0  0  0  0
 53 60  1  0  0  0  0
 54 60  1  0  0  0  0
 55 60  1  0  0  0  0
 56 73  1  0  0  0  0
 57 80  1  0  0  0  0
 58 60  1  0  0  0  0
 58 72  1  0  0  0  0
 59 73  1  0  0  0  0
 63 64  1  0  0  0  0
M  CHG  1  73   1
M  ISO  4  36 100  57 101  67 100  80 101
M  END
> <Batch ID>
0196

> <Smiles>
CNC(C)C(=O)NC(C(=O)N1Cc2cc([101O:1][101CH2:1]c3cnc(NC4C[100N:0]([100C:0](=O)N5CCCC(n6nc(-c7ccc(Oc8ccc(F)cc8F)cc7)c(C(N)=O)c6N)C5)C4)nc3)ccc2CC1C(=O)NC1CCCc2ccccc21)C(C)(C)C

> <Shape>
0.332

> <Color>
0.099

> <Negative vol penalty>
0.000

$$$$

  -OEChem-04052323393D

 87 96  0     1  0  0  0  0  0999 V2000
  -22.6041  -32.8973   18.6027 C   0  0  0  0  0  0  0  0  0  0  0  0
  -23.8377  -32.7301   19.2239 C   0  0  0  0  0  0  0  0  0  0  0  0
  -23.3128  -10.2103   22.2354 C   0  0  0  0  0  0  0  0  0  0  0  0
  -23.5911   -9.5402   19.9309 C   0  0  0  0  0  0  0  0  0  0  0  0
  -21.7693  -31.7981   18.4059 C   0  0  0  0  0  0  0  0  0  0  0  0
  -24.2367  -31.4636   19.6496 C   0  0  0  0  0  0  0  0  0  0  0  0
  -30.3021  -28.4619   17.1814 C   0  0  0  0  0  0  0  0  0  0  0  0
  -22.5668   -9.0575   22.4805 C   0  0  0  0  0  0  0  0  0  0  0  0
  -22.8451   -8.3874   20.1760 C   0  0  0  0  0  0  0  0  0  0  0  0
  -31.5552  -27.9088   16.9171 C   0  0  0  0  0  0  0  0  0  0  0  0
  -19.4102   -7.9733   21.9464 C   0  0  0  0  0  0  0  0  0  0  0  0
  -18.2316   -8.1088   22.6798 C   0  0  0  0  0  0  0  0  0  0  0  0
  -30.9772  -25.9519   18.2149 C   0  0  0  0  0  0  0  0  0  0  0  0
  -19.1031   -6.6051   24.3581 C   0  0  0  0  0  0  0  0  0  0  0  0
  -23.8249  -10.4517   20.9605 C   0  0  0  0  0  0  0  0  0  0  0  0
  -24.1713  -12.9769   20.8550 C   0  0  0  0  0  0  0  0  0  0  0  0
  -22.1625  -30.5159   18.8208 C   0  0  0  0  0  0  0  0  0  0  0  0
  -29.3749  -27.7544   17.9516 C   0  0  0  0  0  0  0  0  0  0  0  0
  -23.4058  -30.3464   19.4594 C   0  0  0  0  0  0  0  0  0  0  0  0
  -29.7158  -26.4953   18.4726 C   0  0  0  0  0  0  0  0  0  0  0  0
  -22.3329   -8.1460   21.4509 C   0  0  0  0  0  0  0  0  0  0  0  0
  -31.8920  -26.6571   17.4328 C   0  0  0  0  0  0  0  0  0  0  0  0
  -20.4354   -7.1537   22.4187 C   0  0  0  0  0  0  0  0  0  0  0  0
  -18.0780   -7.4247   23.8857 C   0  0  0  0  0  0  0  0  0  0  0  0
  -20.2818   -6.4696   23.6246 C   0  0  0  0  0  0  0  0  0  0  0  0
  -24.5951  -11.6426   20.7066 C   0  0  0  0  0  0  0  0  0  0  0  0
  -25.2631  -13.7265   20.4910 C   0  0  0  0  0  0  0  0  0  0  0  0
  -22.9040  -13.4925   21.2837 C   0  0  0  0  0  0  0  0  0  0  0  0
  -25.9440  -27.6612   19.4670 C   0  0  0  0  0  0  0  0  0  0  0  0
  -26.5257  -24.8428   18.4047 C   0  0  0  0  0  0  0  0  0  0  0  0
  -26.3365  -21.6870   17.1233 C   0  0  0  0  0  0  0  0  0  0  0  0
  -30.7499  -14.7332   20.6580 C   0  0  0  0  0  0  0  0  0  0  0  0
  -21.2059  -29.3658   18.6291 C   0  0  0  0  0  0  0  0  0  0  0  0
  -28.0361  -28.3381   18.3129 C   0  0  0  0  0  0  0  0  0  0  0  0
  -28.6994  -25.7856   19.3248 C   0  0  0  0  0  0  0  0  0  0  0  0
  -21.8639  -27.9958   18.7724 C   0  0  0  0  0  0  0  0  0  0  0  0
  -29.5952  -12.3664   18.2617 C   0  0  0  0  0  0  0  0  0  0  0  0
  -22.7508  -27.9568   20.0129 C   0  0  0  0  0  0  0  0  0  0  0  0
  -28.1594  -12.0728   18.7001 C   0  0  0  0  0  0  0  0  0  0  0  0
  -31.0935  -20.3024   16.6355 C   0  0  0  0  0  0  0  0  0  0  0  0
  -32.4974  -21.2005   18.5137 C   0  0  0  0  0  0  0  0  0  0  0  0
  -34.5516  -22.7487   15.1921 C   0  0  0  0  0  0  0  0  0  0  0  0
  -30.5189  -12.5776   19.4593 C   0  0  0  0  0  0  0  0  0  0  0  0
  -31.0316  -18.9639   17.3768 C   0  0  0  0  0  0  0  0  0  0  0  0
  -32.3892  -19.8325   19.1934 C   0  0  0  0  0  0  0  0  0  0  0  0
  -28.6257  -13.3036   20.8603 C   0  0  0  0  0  0  0  0  0  0  0  0
  -23.8846  -28.9844   19.9130 C   0  0  1  0  0  0  0  0  0  0  0  0
  -26.9186  -27.2825   18.3908 C   0  0  1  0  0  0  0  0  0  0  0  0
  -33.8439  -24.0775   15.2059 C   0  0  1  0  0  0  0  0  0  0  0  0
  -27.6452  -13.1386   19.6865 C   0  0  2  0  0  0  0  0  0  0  0  0
  -32.3667  -21.0576   17.0014 C   0  0  0  0  0  0  0  0  0  0  0  0
  -33.6257  -23.0959   16.3263 C   0  0  1  0  0  0  0  0  0  0  0  0
  -25.2099  -19.4752   17.4927 C   0  0  0  0  0  0  0  0  0  0  0  0
  -28.4002  -24.2831   20.7451 C   0  0  0  0  0  0  0  0  0  0  0  0
  -27.9251  -21.8427   20.4498 C   0  0  0  0  0  0  0  0  0  0  0  0
  -26.0752  -23.4094   21.0381 C   0  0  0  0  0  0  0  0  0  0  0  0
  -25.0253  -21.7808   14.4718 C   0  0  0  0  0  0  0  0  0  0  0  0
  -34.6163  -25.3393   15.4506 C   0  0  0  0  0  0  0  0  0  0  0  0
  -31.0241  -17.8751   19.5261 C   0  0  0  0  0  0  0  0  0  0  0  0
  -30.8264  -16.8756   21.9083 C   0  0  0  0  0  0  0  0  0  0  0  0
  -33.7245  -26.4781   15.9270 C   0  0  0  0  0  0  0  0  0  1  0  0
  -27.0481  -23.4607   18.7051 C   0  0  1  0  0  0  0  0  0  0  0  0
  -25.1469  -20.8123   16.7709 C   0  0  2  0  0  0  0  0  0  0  0  0
  -30.5642  -18.0611   20.9757 C   0  0  2  0  0  0  0  0  0  0  0  0
  -27.3725  -23.2644   20.2130 C   0  0  0  0  0  0  0  0  0  0  0  0
  -25.8576  -11.5469   20.2812 N   0  0  0  0  0  0  0  0  0  0  0  0
  -26.2365  -12.8306   20.1592 N   0  0  0  0  0  0  0  0  0  0  0  0
  -27.3617  -25.9188   18.7270 N   0  0  0  0  0  0  0  0  0  0  0  0
  -29.9750  -13.6015   20.3547 N   0  0  0  0  0  0  0  0  0  0  0  0
  -31.1344  -19.1573   18.8307 N   0  0  0  0  0  0  0  0  0  0  0  0
  -25.4759  -15.0579   20.4255 N   0  0  0  0  0  0  0  0  0  0  0  0
  -21.8920  -12.5833   21.6203 N   0  0  0  0  0  0  0  0  0  0  0  0
  -24.9314  -28.4987   19.0396 N   0  0  0  0  0  0  0  0  0  0  0  0
  -26.0574  -22.5270   18.1805 N   0  0  0  0  0  0  0  0  0  0  0  0
  -30.1569  -15.6577   21.5090 N   0  0  0  0  0  0  0  0  0  0  0  0
  -29.0961  -18.3377   20.9606 N   0  3  0  0  0  0  0  0  0  0  0  0
  -32.3311  -22.4069   16.3828 N   0  3  0  0  0  0  0  0  0  0  0  0
  -25.1112  -20.5531   15.3037 N   0  3  0  0  0  0  0  0  0  0  0  0
  -22.6706  -14.7232   21.3502 O   0  0  0  0  0  0  0  0  0  0  0  0
  -26.0975  -27.2251   20.6018 O   0  0  0  0  0  0  0  0  0  0  0  0
  -25.4050  -24.9682   17.9033 O   0  0  0  0  0  0  0  0  0  0  0  0
  -27.4076  -21.6281   16.5233 O   0  0  0  0  0  0  0  0  0  0  0  0
  -31.8838  -14.9092   20.1997 O   0  0  0  0  0  0  0  0  0  0  0  0
  -21.6052   -7.0209   21.6898 O   0  0  0  0  0  0  0  0  0  0  0  0
  -33.1155  -26.1210   17.1671 O   0  0  0  0  0  0  0  0  0  1  0  0
  -16.9467   -7.5561   24.5907 F   0  0  0  0  0  0  0  0  0  0  0  0
  -21.2636   -5.6817   24.0840 F   0  0  0  0  0  0  0  0  0  0  0  0
  1  2  1  0  0  0  0
  1  5  2  0  0  0  0
  2  6  2  0  0  0  0
  3  8  2  0  0  0  0
  3 15  1  0  0  0  0
  4  9  1  0  0  0  0
  4 15  2  0  0  0  0
  5 17  1  0  0  0  0
  6 19  1  0  0  0  0
  7 10  2  0  0  0  0
  7 18  1  0  0  0  0
  8 21  1  0  0  0  0
  9 21  2  0  0  0  0
 10 22  1  0  0  0  0
 11 12  2  0  0  0  0
 11 23  1  0  0  0  0
 12 24  1  0  0  0  0
 13 20  1  0  0  0  0
 13 22  2  0  0  0  0
 14 24  2  0  0  0  0
 14 25  1  0  0  0  0
 15 26  1  0  0  0  0
 16 26  1  0  0  0  0
 16 27  2  0  0  0  0
 16 28  1  0  0  0  0
 17 19  2  0  0  0  0
 17 33  1  0  0  0  0
 18 20  2  0  0  0  0
 18 34  1  0  0  0  0
 19 47  1  0  0  0  0
 20 35  1  0  0  0  0
 21 84  1  0  0  0  0
 22 85  1  0  0  0  0
 23 25  2  0  0  0  0
 23 84  1  0  0  0  0
 24 86  1  0  0  0  0
 25 87  1  0  0  0  0
 26 66  2  0  0  0  0
 27 67  1  0  0  0  0
 27 71  1  0  0  0  0
 28 72  1  0  0  0  0
 28 79  2  0  0  0  0
 29 48  1  0  0  0  0
 29 73  1  0  0  0  0
 29 80  2  0  0  0  0
 30 62  1  0  0  0  0
 30 68  1  0  0  0  0
 30 81  2  0  0  0  0
 31 63  1  0  0  0  0
 31 74  1  0  0  0  0
 31 82  2  0  0  0  0
 32 69  1  0  0  0  0
 32 75  1  0  0  0  0
 32 83  2  0  0  0  0
 33 36  1  0  0  0  0
 34 48  1  0  0  0  0
 35 68  1  0  0  0  0
 36 38  1  0  0  0  0
 37 39  1  0  0  0  0
 37 43  1  0  0  0  0
 38 47  1  0  0  0  0
 39 50  1  0  0  0  0
 40 44  1  0  0  0  0
 40 51  1  0  0  0  0
 41 45  1  0  0  0  0
 41 51  1  0  0  0  0
 42 49  1  0  0  0  0
 42 52  1  0  0  0  0
 43 69  1  0  0  0  0
 44 70  1  0  0  0  0
 45 70  1  0  0  0  0
 46 50  1  0  0  0  0
 46 69  1  0  0  0  0
 47 73  1  0  0  0  0
 48 68  1  0  0  0  0
 49 52  1  0  0  0  0
 49 58  1  0  0  0  0
 50 67  1  0  0  0  0
 51 77  1  0  0  0  0
 52 77  1  0  0  0  0
 53 63  1  0  0  0  0
 54 65  1  0  0  0  0
 55 65  1  0  0  0  0
 56 65  1  0  0  0  0
 57 78  1  0  0  0  0
 58 61  1  0  0  0  0
 59 64  1  0  0  0  0
 59 70  1  0  0  0  0
 60 64  1  0  0  0  0
 60 75  1  0  0  0  0
 61 85  1  0  0  0  0
 62 65  1  0  0  0  0
 62 74  1  0  0  0  0
 63 78  1  0  0  0  0
 64 76  1  0  0  0  0
 66 67  1  0  0  0  0
M  CHG  3  76   1  77   1  78   1
M  ISO  4  32 100  61 101  75 100  85 101
M  END
> <Batch ID>
0196

> <Smiles>
CNC(C)C(=O)NC(C(=O)N1Cc2cc([101O:1][101CH2:1]CC3CC3NC3CCN(CC(N)C[100NH:0][100C:0](=O)N4CCCC(n5nc(-c6ccc(Oc7ccc(F)cc7F)cc6)c(C(N)=O)c5N)C4)CC3)ccc2CC1C(=O)NC1CCCc2ccccc21)C(C)(C)C

> <Shape>
0.248

> <Color>
0.180

> <Negative vol penalty>
0.000

$$$$

  -OEChem-04052323393D

 86 95  0     1  0  0  0  0  0999 V2000
  -20.7766  -10.2897   20.6675 C   0  0  0  0  0  0  0  0  0  0  0  0
  -20.9494  -11.4548   21.4079 C   0  0  0  0  0  0  0  0  0  0  0  0
  -22.4655  -28.2348   24.2188 C   0  0  0  0  0  0  0  0  0  0  0  0
  -22.5063  -29.1634   21.9887 C   0  0  0  0  0  0  0  0  0  0  0  0
  -21.8807   -9.5054   20.3363 C   0  0  0  0  0  0  0  0  0  0  0  0
  -22.2264  -11.8355   21.8186 C   0  0  0  0  0  0  0  0  0  0  0  0
  -26.1000  -18.5042   20.5734 C   0  0  0  0  0  0  0  0  0  0  0  0
  -23.7458  -28.7371   24.4514 C   0  0  0  0  0  0  0  0  0  0  0  0
  -23.7865  -29.6658   22.2213 C   0  0  0  0  0  0  0  0  0  0  0  0
  -26.9455  -19.5759   20.2856 C   0  0  0  0  0  0  0  0  0  0  0  0
  -26.9279  -27.9006   23.6773 C   0  0  0  0  0  0  0  0  0  0  0  0
  -27.8540  -27.0550   24.2879 C   0  0  0  0  0  0  0  0  0  0  0  0
  -28.8729  -18.1383   20.5428 C   0  0  0  0  0  0  0  0  0  0  0  0
  -28.0759  -28.6183   26.1166 C   0  0  0  0  0  0  0  0  0  0  0  0
  -21.8458  -28.4479   22.9874 C   0  0  0  0  0  0  0  0  0  0  0  0
  -19.3480  -28.2324   23.4589 C   0  0  0  0  0  0  0  0  0  0  0  0
  -23.1730   -9.8818   20.7349 C   0  0  0  0  0  0  0  0  0  0  0  0
  -26.6379  -17.2404   20.8322 C   0  0  0  0  0  0  0  0  0  0  0  0
  -23.3487  -11.0547   21.4937 C   0  0  0  0  0  0  0  0  0  0  0  0
  -28.0305  -17.0582   20.8194 C   0  0  0  0  0  0  0  0  0  0  0  0
  -24.4063  -29.4527   23.4527 C   0  0  0  0  0  0  0  0  0  0  0  0
  -28.3285  -19.3934   20.2706 C   0  0  0  0  0  0  0  0  0  0  0  0
  -26.5757  -29.1052   24.2864 C   0  0  0  0  0  0  0  0  0  0  0  0
  -28.4280  -27.4138   25.5075 C   0  0  0  0  0  0  0  0  0  0  0  0
  -27.1497  -29.4640   25.5060 C   0  0  0  0  0  0  0  0  0  0  0  0
  -20.5235  -27.9287   22.7463 C   0  0  0  0  0  0  0  0  0  0  0  0
  -18.3714  -27.4880   22.8435 C   0  0  0  0  0  0  0  0  0  0  0  0
  -19.1560  -29.1090   24.5771 C   0  0  0  0  0  0  0  0  0  0  0  0
  -25.9853  -13.6384   21.6543 C   0  0  0  0  0  0  0  0  0  0  0  0
  -26.6374  -25.0677   18.6610 C   0  0  0  0  0  0  0  0  0  0  0  0
  -28.2658  -13.6852   19.6031 C   0  0  0  0  0  0  0  0  0  0  0  0
  -30.4590  -14.1483   17.0316 C   0  0  0  0  0  0  0  0  0  0  0  0
  -21.2227  -25.3717   18.4642 C   0  0  0  0  0  0  0  0  0  0  0  0
  -24.3304   -8.9769   20.3937 C   0  0  0  0  0  0  0  0  0  0  0  0
  -25.7680  -16.0715   21.2073 C   0  0  0  0  0  0  0  0  0  0  0  0
  -28.5659  -15.6889   21.1378 C   0  0  0  0  0  0  0  0  0  0  0  0
  -25.6933   -9.6472   20.5468 C   0  0  0  0  0  0  0  0  0  0  0  0
  -19.5894  -23.6630   21.3652 C   0  0  0  0  0  0  0  0  0  0  0  0
  -30.9214  -25.7329   20.1386 C   0  0  0  0  0  0  0  0  0  0  0  0
  -25.7723  -10.3997   21.8713 C   0  0  0  0  0  0  0  0  0  0  0  0
  -18.2633  -24.4174   21.4368 C   0  0  0  0  0  0  0  0  0  0  0  0
  -30.6492  -24.9404   21.4033 C   0  0  0  0  0  0  0  0  0  0  0  0
  -20.1309  -23.6482   19.9425 C   0  0  0  0  0  0  0  0  0  0  0  0
  -24.5239  -25.3944   17.4245 C   0  0  0  0  0  0  0  0  0  0  0  0
  -24.4373  -25.3254   19.9026 C   0  0  0  0  0  0  0  0  0  0  0  0
  -23.2755  -24.5236   17.3694 C   0  0  0  0  0  0  0  0  0  0  0  0
  -23.1648  -24.4794   19.8290 C   0  0  0  0  0  0  0  0  0  0  0  0
  -18.9956  -25.7948   19.4419 C   0  0  0  0  0  0  0  0  0  0  0  0
  -29.5299  -26.0200   19.6203 C   0  0  0  0  0  0  0  0  0  0  0  0
  -24.7210  -11.5141   21.9363 C   0  0  1  0  0  0  0  0  0  0  0  0
  -26.2974  -14.7289   20.6721 C   0  0  1  0  0  0  0  0  0  0  0  0
  -18.3644  -25.8386   20.8481 C   0  0  2  0  0  0  0  0  0  0  0  0
  -29.4689  -24.0349   21.0523 C   0  0  2  0  0  0  0  0  0  0  0  0
  -31.9530  -12.8798   15.4643 C   0  0  0  0  0  0  0  0  0  0  0  0
  -30.2755  -13.2709   21.8599 C   0  0  0  0  0  0  0  0  0  0  0  0
  -32.0423  -12.9057   20.1240 C   0  0  0  0  0  0  0  0  0  0  0  0
  -30.0920  -11.3564   20.2614 C   0  0  0  0  0  0  0  0  0  0  0  0
  -28.9930  -15.1292   14.6552 C   0  0  0  0  0  0  0  0  0  0  0  0
  -27.3192  -24.8734   19.9921 C   0  0  0  0  0  0  0  0  0  0  0  0
  -29.8902  -22.6316   20.6405 C   0  0  0  0  0  0  0  0  0  0  0  0
  -28.6906  -21.7441   20.3445 C   0  0  0  0  0  0  0  0  0  1  0  0
  -29.7549  -13.6971   19.3672 C   0  0  1  0  0  0  0  0  0  0  0  0
  -30.5724  -13.4829   15.6719 C   0  0  2  0  0  0  0  0  0  0  0  0
  -30.5260  -12.8315   20.4035 C   0  0  0  0  0  0  0  0  0  0  0  0
  -20.3149  -27.0590   21.7542 N   0  0  0  0  0  0  0  0  0  0  0  0
  -18.9970  -26.8099   21.8391 N   0  0  0  0  0  0  0  0  0  0  0  0
  -27.7540  -14.6631   20.4647 N   0  0  0  0  0  0  0  0  0  0  0  0
  -25.2486  -25.2070   18.6841 N   0  0  0  0  0  0  0  0  0  0  0  0
  -20.2274  -25.0024   19.3854 N   0  0  0  0  0  0  0  0  0  0  0  0
  -22.4564  -24.7112   18.5648 N   0  0  0  0  0  0  0  0  0  0  0  0
  -17.0472  -27.3539   23.0691 N   0  0  0  0  0  0  0  0  0  0  0  0
  -18.8404  -30.4515   24.3272 N   0  0  0  0  0  0  0  0  0  0  0  0
  -25.1478  -12.6575   21.1586 N   0  0  0  0  0  0  0  0  0  0  0  0
  -29.9520  -13.2866   17.9812 N   0  0  0  0  0  0  0  0  0  0  0  0
  -28.8011  -24.7179   19.8605 N   0  3  1  0  0  0  0  0  0  0  0  0
  -30.3250  -14.4748   14.5876 N   0  3  0  0  0  0  0  0  0  0  0  0
  -19.2773  -28.7173   25.7626 O   0  0  0  0  0  0  0  0  0  0  0  0
  -26.4694  -13.6818   22.7792 O   0  0  0  0  0  0  0  0  0  0  0  0
  -27.3185  -25.0910   17.6327 O   0  0  0  0  0  0  0  0  0  0  0  0
  -27.5734  -12.8298   19.0444 O   0  0  0  0  0  0  0  0  0  0  0  0
  -30.7909  -15.3145   17.2322 O   0  0  0  0  0  0  0  0  0  0  0  0
  -21.0223  -26.2473   17.6133 O   0  0  0  0  0  0  0  0  0  0  0  0
  -25.6555  -29.9432   23.6793 O   0  0  0  0  0  0  0  0  0  0  0  0
  -29.1539  -20.4506   19.9824 O   0  0  0  0  0  0  0  0  0  1  0  0
  -29.3162  -26.6010   26.0944 F   0  0  0  0  0  0  0  0  0  0  0  0
  -26.8145  -30.6193   26.0965 F   0  0  0  0  0  0  0  0  0  0  0  0
  1  2  1  0  0  0  0
  1  5  2  0  0  0  0
  2  6  2  0  0  0  0
  3  8  2  0  0  0  0
  3 15  1  0  0  0  0
  4  9  1  0  0  0  0
  4 15  2  0  0  0  0
  5 17  1  0  0  0  0
  6 19  1  0  0  0  0
  7 10  2  0  0  0  0
  7 18  1  0  0  0  0
  8 21  1  0  0  0  0
  9 21  2  0  0  0  0
 10 22  1  0  0  0  0
 11 12  2  0  0  0  0
 11 23  1  0  0  0  0
 12 24  1  0  0  0  0
 13 20  1  0  0  0  0
 13 22  2  0  0  0  0
 14 24  2  0  0  0  0
 14 25  1  0  0  0  0
 15 26  1  0  0  0  0
 16 26  1  0  0  0  0
 16 27  2  0  0  0  0
 16 28  1  0  0  0  0
 17 19  2  0  0  0  0
 17 34  1  0  0  0  0
 18 20  2  0  0  0  0
 18 35  1  0  0  0  0
 19 50  1  0  0  0  0
 20 36  1  0  0  0  0
 21 83  1  0  0  0  0
 22 84  1  0  0  0  0
 23 25  2  0  0  0  0
 23 83  1  0  0  0  0
 24 85  1  0  0  0  0
 25 86  1  0  0  0  0
 26 65  2  0  0  0  0
 27 66  1  0  0  0  0
 27 71  1  0  0  0  0
 28 72  1  0  0  0  0
 28 77  2  0  0  0  0
 29 51  1  0  0  0  0
 29 73  1  0  0  0  0
 29 78  2  0  0  0  0
 30 59  1  0  0  0  0
 30 68  1  0  0  0  0
 30 79  2  0  0  0  0
 31 62  1  0  0  0  0
 31 67  1  0  0  0  0
 31 80  2  0  0  0  0
 32 63  1  0  0  0  0
 32 74  1  0  0  0  0
 32 81  2  0  0  0  0
 33 69  1  0  0  0  0
 33 70  1  0  0  0  0
 33 82  2  0  0  0  0
 34 37  1  0  0  0  0
 35 51  1  0  0  0  0
 36 67  1  0  0  0  0
 37 40  1  0  0  0  0
 38 41  1  0  0  0  0
 38 43  1  0  0  0  0
 39 42  1  0  0  0  0
 39 49  1  0  0  0  0
 40 50  1  0  0  0  0
 41 52  1  0  0  0  0
 42 53  1  0  0  0  0
 43 69  1  0  0  0  0
 44 46  1  0  0  0  0
 44 68  1  0  0  0  0
 45 47  1  0  0  0  0
 45 68  1  0  0  0  0
 46 70  1  0  0  0  0
 47 70  1  0  0  0  0
 48 52  1  0  0  0  0
 48 69  1  0  0  0  0
 49 75  1  0  0  0  0
 50 73  1  0  0  0  0
 51 67  1  0  0  0  0
 52 66  1  0  0  0  0
 53 60  1  0  0  0  0
 53 75  1  0  0  0  0
 54 63  1  0  0  0  0
 55 64  1  0  0  0  0
 56 64  1  0  0  0  0
 57 64  1  0  0  0  0
 58 76  1  0  0  0  0
 59 75  1  0  0  0  0
 60 61  1  0  0  0  0
 61 84  1  0  0  0  0
 62 64  1  0  0  0  0
 62 74  1  0  0  0  0
 63 76  1  0  0  0  0
 65 66  1  0  0  0  0
M  CHG  2  75   1  76   1
M  ISO  4  33 100  61 101  70 100  84 101
M  END
> <Batch ID>
0196

> <Smiles>
CNC(C)C(=O)NC(C(=O)N1Cc2cc([101O:1][101CH2:1]CC3CCCN3CC(=O)N3CC[100N:0]([100C:0](=O)N4CCCC(n5nc(-c6ccc(Oc7ccc(F)cc7F)cc6)c(C(N)=O)c5N)C4)CC3)ccc2CC1C(=O)NC1CCCc2ccccc21)C(C)(C)C

> <Shape>
0.281

> <Color>
0.037

> <Negative vol penalty>
0.000

$$$$

  -OEChem-04052323393D

 88 97  0     1  0  0  0  0  0999 V2000
  -21.4220  -12.4720   21.7280 C   0  0  0  0  0  0  0  0  0  0  0  0
  -21.8399  -13.6479   22.3428 C   0  0  0  0  0  0  0  0  0  0  0  0
  -29.2142  -26.4307   21.1412 C   0  0  0  0  0  0  0  0  0  0  0  0
  -27.3314  -25.1446   20.3425 C   0  0  0  0  0  0  0  0  0  0  0  0
  -22.3240  -11.7224   20.9740 C   0  0  0  0  0  0  0  0  0  0  0  0
  -23.1604  -14.0743   22.2049 C   0  0  0  0  0  0  0  0  0  0  0  0
  -23.5085  -19.0269   21.2069 C   0  0  0  0  0  0  0  0  0  0  0  0
  -29.8703  -25.2513   21.4936 C   0  0  0  0  0  0  0  0  0  0  0  0
  -27.9875  -23.9652   20.6950 C   0  0  0  0  0  0  0  0  0  0  0  0
  -23.3443  -19.9051   22.2772 C   0  0  0  0  0  0  0  0  0  0  0  0
  -29.7658  -23.0008   24.0132 C   0  0  0  0  0  0  0  0  0  0  0  0
  -30.3886  -22.9544   25.2604 C   0  0  0  0  0  0  0  0  0  0  0  0
  -25.7390  -20.1462   22.4391 C   0  0  0  0  0  0  0  0  0  0  0  0
  -32.5132  -22.5474   24.1844 C   0  0  0  0  0  0  0  0  0  0  0  0
  -22.2070  -26.7560   25.9117 C   0  0  0  0  0  0  0  0  0  0  0  0
  -27.9447  -26.3774   20.5657 C   0  0  0  0  0  0  0  0  0  0  0  0
  -27.3304  -28.2679   18.9669 C   0  0  0  0  0  0  0  0  0  0  0  0
  -23.6537  -12.1448   20.8189 C   0  0  0  0  0  0  0  0  0  0  0  0
  -24.7918  -18.6926   20.7510 C   0  0  0  0  0  0  0  0  0  0  0  0
  -24.0813  -13.3289   21.4493 C   0  0  0  0  0  0  0  0  0  0  0  0
  -25.9168  -19.2654   21.3612 C   0  0  0  0  0  0  0  0  0  0  0  0
  -21.7847  -25.5679   23.5411 C   0  0  0  0  0  0  0  0  0  0  0  0
  -29.2570  -24.0186   21.2705 C   0  0  0  0  0  0  0  0  0  0  0  0
  -24.4597  -20.4627   22.8953 C   0  0  0  0  0  0  0  0  0  0  0  0
  -30.5167  -22.8204   22.8516 C   0  0  0  0  0  0  0  0  0  0  0  0
  -31.7623  -22.7277   25.3461 C   0  0  0  0  0  0  0  0  0  0  0  0
  -31.8903  -22.5937   22.9372 C   0  0  0  0  0  0  0  0  0  0  0  0
  -27.2662  -27.5953   20.2019 C   0  0  0  0  0  0  0  0  0  0  0  0
  -21.0286  -26.6391   23.9714 C   0  0  0  0  0  0  0  0  0  0  0  0
  -22.7721  -25.1473   24.4085 C   0  0  0  0  0  0  0  0  0  0  0  0
  -26.5144  -29.3608   19.1282 C   0  0  0  0  0  0  0  0  0  0  0  0
  -28.0622  -27.9345   17.7798 C   0  0  0  0  0  0  0  0  0  0  0  0
  -26.4693  -16.0004   20.5473 C   0  0  0  0  0  0  0  0  0  0  0  0
  -28.5917  -17.8987   18.9937 C   0  0  0  0  0  0  0  0  0  0  0  0
  -29.8049  -21.0403   18.4405 C   0  0  0  0  0  0  0  0  0  0  0  0
  -21.8553  -30.4758   22.7201 C   0  0  0  0  0  0  0  0  0  0  0  0
  -24.6043  -11.2765   20.0334 C   0  0  0  0  0  0  0  0  0  0  0  0
  -24.9512  -17.7644   19.5782 C   0  0  0  0  0  0  0  0  0  0  0  0
  -27.3154  -18.9548   20.8966 C   0  0  0  0  0  0  0  0  0  0  0  0
  -25.8895  -11.9930   19.6270 C   0  0  0  0  0  0  0  0  0  0  0  0
  -24.8757  -32.3467   22.4883 C   0  0  0  0  0  0  0  0  0  0  0  0
  -26.4715  -12.7581   20.8114 C   0  0  0  0  0  0  0  0  0  0  0  0
  -25.8366  -31.4018   21.7646 C   0  0  0  0  0  0  0  0  0  0  0  0
  -18.0654  -27.6721   22.9301 C   0  0  0  0  0  0  0  0  0  0  0  0
  -23.9482  -31.5905   23.4369 C   0  0  0  0  0  0  0  0  0  0  0  0
  -18.8798  -26.4041   22.6568 C   0  0  0  0  0  0  0  0  0  0  0  0
  -24.1618  -29.5350   22.0941 C   0  0  0  0  0  0  0  0  0  0  0  0
  -25.4991  -13.8373   21.3027 C   0  0  1  0  0  0  0  0  0  0  0  0
  -26.3209  -17.0944   19.5282 C   0  0  1  0  0  0  0  0  0  0  0  0
  -25.0797  -30.2452   21.0845 C   0  0  2  0  0  0  0  0  0  0  0  0
  -19.4110  -28.4008   23.0930 C   0  0  2  0  0  0  0  0  0  0  0  0
  -22.4018  -25.5191   21.1132 C   0  0  0  0  0  0  0  0  0  0  0  0
  -31.5675  -22.2718   17.1467 C   0  0  0  0  0  0  0  0  0  0  0  0
  -30.7123  -16.9231   20.9587 C   0  0  0  0  0  0  0  0  0  0  0  0
  -32.1536  -18.8433   20.2489 C   0  0  0  0  0  0  0  0  0  0  0  0
  -31.4904  -17.1035   18.5888 C   0  0  0  0  0  0  0  0  0  0  0  0
  -27.7834  -22.6282   16.9738 C   0  0  0  0  0  0  0  0  0  0  0  0
  -19.8502  -29.2544   21.9160 C   0  0  0  0  0  0  0  0  0  0  0  0
  -24.6288  -23.5403   24.8512 C   0  0  0  0  0  0  0  0  0  0  0  0
  -25.2853  -22.3589   24.1569 C   0  0  0  0  0  0  0  0  0  1  0  0
  -21.5501  -24.9091   22.2253 C   0  0  1  0  0  0  0  0  0  0  0  0
  -29.7623  -18.7567   19.4091 C   0  0  1  0  0  0  0  0  0  0  0  0
  -30.1271  -21.7841   17.1570 C   0  0  2  0  0  0  0  0  0  0  0  0
  -31.0035  -17.9112   19.8116 C   0  0  0  0  0  0  0  0  0  0  0  0
  -21.2132  -27.2595   25.1552 N   0  0  0  0  0  0  0  0  0  0  0  0
  -23.0119  -25.7205   25.6061 N   0  0  0  0  0  0  0  0  0  0  0  0
  -26.4723  -28.2097   21.0829 N   0  0  0  0  0  0  0  0  0  0  0  0
  -26.0301  -29.2798   20.4007 N   0  0  0  0  0  0  0  0  0  0  0  0
  -19.9977  -27.1179   23.1257 N   0  0  1  0  0  0  0  0  0  0  0  0
  -27.4194  -18.0368   19.7503 N   0  0  0  0  0  0  0  0  0  0  0  0
  -23.2596  -30.5082   22.7296 N   0  0  0  0  0  0  0  0  0  0  0  0
  -26.1710  -30.3737   18.3045 N   0  0  0  0  0  0  0  0  0  0  0  0
  -28.8519  -26.7766   17.7849 N   0  0  0  0  0  0  0  0  0  0  0  0
  -23.5641  -24.0747   24.0334 N   0  0  0  0  0  0  0  0  0  0  0  0
  -25.5365  -14.9882   20.4260 N   0  0  0  0  0  0  0  0  0  0  0  0
  -30.0016  -19.6821   18.3069 N   0  0  0  0  0  0  0  0  0  0  0  0
  -21.2827  -29.4199   22.0215 N   0  0  0  0  0  0  0  0  0  0  0  0
  -29.2302  -22.9643   17.0032 N   0  3  0  0  0  0  0  0  0  0  0  0
  -28.0301  -28.6512   16.7508 O   0  0  0  0  0  0  0  0  0  0  0  0
  -27.3649  -16.0687   21.3810 O   0  0  0  0  0  0  0  0  0  0  0  0
  -28.7108  -17.1394   18.0288 O   0  0  0  0  0  0  0  0  0  0  0  0
  -29.4209  -21.6078   19.4608 O   0  0  0  0  0  0  0  0  0  0  0  0
  -21.1631  -31.3279   23.2873 O   0  0  0  0  0  0  0  0  0  0  0  0
  -29.8970  -22.8676   21.6141 O   0  0  0  0  0  0  0  0  0  0  0  0
  -24.3022  -21.3197   23.9405 O   0  0  0  0  0  0  0  0  0  1  0  0
  -32.3605  -22.6847   26.5437 F   0  0  0  0  0  0  0  0  0  0  0  0
  -32.6171  -22.4209   21.8246 F   0  0  0  0  0  0  0  0  0  0  0  0
  -21.8191  -23.5626   22.2377 F   0  0  0  0  0  0  0  0  0  0  0  0
  1  2  1  0  0  0  0
  1  5  2  0  0  0  0
  2  6  2  0  0  0  0
  3  8  2  0  0  0  0
  3 16  1  0  0  0  0
  4  9  1  0  0  0  0
  4 16  2  0  0  0  0
  5 18  1  0  0  0  0
  6 20  1  0  0  0  0
  7 10  2  0  0  0  0
  7 19  1  0  0  0  0
  8 23  1  0  0  0  0
  9 23  2  0  0  0  0
 10 24  1  0  0  0  0
 11 12  2  0  0  0  0
 11 25  1  0  0  0  0
 12 26  1  0  0  0  0
 13 21  1  0  0  0  0
 13 24  2  0  0  0  0
 14 26  2  0  0  0  0
 14 27  1  0  0  0  0
 15 65  1  0  0  0  0
 15 66  2  0  0  0  0
 16 28  1  0  0  0  0
 17 28  1  0  0  0  0
 17 31  2  0  0  0  0
 17 32  1  0  0  0  0
 18 20  2  0  0  0  0
 18 37  1  0  0  0  0
 19 21  2  0  0  0  0
 19 38  1  0  0  0  0
 20 48  1  0  0  0  0
 21 39  1  0  0  0  0
 22 29  1  0  0  0  0
 22 30  2  0  0  0  0
 22 61  1  0  0  0  0
 23 84  1  0  0  0  0
 24 85  1  0  0  0  0
 25 27  2  0  0  0  0
 25 84  1  0  0  0  0
 26 86  1  0  0  0  0
 27 87  1  0  0  0  0
 28 67  2  0  0  0  0
 29 65  2  0  0  0  0
 29 69  1  0  0  0  0
 30 66  1  0  0  0  0
 30 74  1  0  0  0  0
 31 68  1  0  0  0  0
 31 72  1  0  0  0  0
 32 73  1  0  0  0  0
 32 79  2  0  0  0  0
 33 49  1  0  0  0  0
 33 75  1  0  0  0  0
 33 80  2  0  0  0  0
 34 62  1  0  0  0  0
 34 70  1  0  0  0  0
 34 81  2  0  0  0  0
 35 63  1  0  0  0  0
 35 76  1  0  0  0  0
 35 82  2  0  0  0  0
 36 71  1  0  0  0  0
 36 77  1  0  0  0  0
 36 83  2  0  0  0  0
 37 40  1  0  0  0  0
 38 49  1  0  0  0  0
 39 70  1  0  0  0  0
 40 42  1  0  0  0  0
 41 43  1  0  0  0  0
 41 45  1  0  0  0  0
 42 48  1  0  0  0  0
 43 50  1  0  0  0  0
 44 46  1  0  0  0  0
 44 51  1  0  0  0  0
 45 71  1  0  0  0  0
 46 69  1  0  0  0  0
 47 50  1  0  0  0  0
 47 71  1  0  0  0  0
 48 75  1  0  0  0  0
 49 70  1  0  0  0  0
 50 68  1  0  0  0  0
 51 58  1  0  0  0  0
 51 69  1  0  0  0  0
 52 61  1  0  0  0  0
 53 63  1  0  0  0  0
 54 64  1  0  0  0  0
 55 64  1  0  0  0  0
 56 64  1  0  0  0  0
 57 78  1  0  0  0  0
 58 77  1  0  0  0  0
 59 60  1  0  0  0  0
 59 74  1  0  0  0  0
 60 85  1  0  0  0  0
 61 88  1  0  0  0  0
 62 64  1  0  0  0  0
 62 76  1  0  0  0  0
 63 78  1  0  0  0  0
 67 68  1  0  0  0  0
M  CHG  1  78   1
M  ISO  4  36 100  60 101  77 100  85 101
M  END
> <Batch ID>
0196

> <Smiles>
CNC(C)C(=O)NC(C(=O)N1Cc2cc([101O:1][101CH2:1]CNc3ncnc(N4CCC4C[100NH:0][100C:0](=O)N4CCCC(n5nc(-c6ccc(Oc7ccc(F)cc7F)cc6)c(C(N)=O)c5N)C4)c3C(C)F)ccc2CC1C(=O)NC1CCCc2ccccc21)C(C)(C)C

> <Shape>
0.239

> <Color>
0.084

> <Negative vol penalty>
0.000

$$$$

  -OEChem-04052323393D

 85 94  0     1  0  0  0  0  0999 V2000
  -26.0289  -38.4921   22.2937 C   0  0  0  0  0  0  0  0  0  0  0  0
  -26.7216  -37.5859   21.4972 C   0  0  0  0  0  0  0  0  0  0  0  0
  -21.3572  -10.3502   21.9497 C   0  0  0  0  0  0  0  0  0  0  0  0
  -23.7346   -9.9458   21.8032 C   0  0  0  0  0  0  0  0  0  0  0  0
  -25.3713  -38.0495   23.4408 C   0  0  0  0  0  0  0  0  0  0  0  0
  -26.7580  -36.2368   21.8478 C   0  0  0  0  0  0  0  0  0  0  0  0
  -26.9874  -29.7086   18.9074 C   0  0  0  0  0  0  0  0  0  0  0  0
  -21.1113   -9.0055   21.6725 C   0  0  0  0  0  0  0  0  0  0  0  0
  -23.4888   -8.6010   21.5260 C   0  0  0  0  0  0  0  0  0  0  0  0
  -27.7224  -28.5254   18.9676 C   0  0  0  0  0  0  0  0  0  0  0  0
  -22.6680   -5.8135   23.2512 C   0  0  0  0  0  0  0  0  0  0  0  0
  -23.4354   -4.8636   23.9252 C   0  0  0  0  0  0  0  0  0  0  0  0
  -26.4834  -27.8624   20.9283 C   0  0  0  0  0  0  0  0  0  0  0  0
  -24.2659   -4.0356   21.8128 C   0  0  0  0  0  0  0  0  0  0  0  0
  -31.1233  -24.5915   19.3902 C   0  0  0  0  0  0  0  0  0  0  0  0
  -22.6689  -10.8204   22.0150 C   0  0  0  0  0  0  0  0  0  0  0  0
  -23.1018  -12.7980   23.5672 C   0  0  0  0  0  0  0  0  0  0  0  0
  -25.3916  -36.6927   23.8004 C   0  0  0  0  0  0  0  0  0  0  0  0
  -26.0006  -29.9829   19.8653 C   0  0  0  0  0  0  0  0  0  0  0  0
  -26.1012  -35.7759   23.0014 C   0  0  0  0  0  0  0  0  0  0  0  0
  -25.7354  -29.0486   20.8766 C   0  0  0  0  0  0  0  0  0  0  0  0
  -22.1771   -8.1309   21.4606 C   0  0  0  0  0  0  0  0  0  0  0  0
  -27.4725  -27.6034   19.9798 C   0  0  0  0  0  0  0  0  0  0  0  0
  -22.6994   -5.8744   21.8579 C   0  0  0  0  0  0  0  0  0  0  0  0
  -24.2344   -3.9747   23.2060 C   0  0  0  0  0  0  0  0  0  0  0  0
  -23.4984   -4.9855   21.1388 C   0  0  0  0  0  0  0  0  0  0  0  0
  -22.9235  -12.2095   22.3008 C   0  0  0  0  0  0  0  0  0  0  0  0
  -29.8204  -24.9427   19.1752 C   0  0  0  0  0  0  0  0  0  0  0  0
  -23.3126  -14.1288   23.3007 C   0  0  0  0  0  0  0  0  0  0  0  0
  -29.9251  -22.7337   19.2747 C   0  0  0  0  0  0  0  0  0  0  0  0
  -23.0791  -12.1956   24.8681 C   0  0  0  0  0  0  0  0  0  0  0  0
  -25.5705  -32.2429   22.0588 C   0  0  0  0  0  0  0  0  0  0  0  0
  -22.7050  -30.7732   22.4484 C   0  0  0  0  0  0  0  0  0  0  0  0
  -20.8382  -27.9340   22.1308 C   0  0  0  0  0  0  0  0  0  0  0  0
  -25.5956  -18.1544   20.5780 C   0  0  0  0  0  0  0  0  0  0  0  0
  -24.7055  -36.2693   25.0750 C   0  0  0  0  0  0  0  0  0  0  0  0
  -25.1981  -31.2516   19.7708 C   0  0  0  0  0  0  0  0  0  0  0  0
  -24.6729  -29.2864   21.9172 C   0  0  0  0  0  0  0  0  0  0  0  0
  -24.4790  -34.7628   25.1733 C   0  0  0  0  0  0  0  0  0  0  0  0
  -22.7605  -16.7710   19.0312 C   0  0  0  0  0  0  0  0  0  0  0  0
  -25.7459  -34.0062   24.7868 C   0  0  0  0  0  0  0  0  0  0  0  0
  -22.5603  -15.4958   19.8496 C   0  0  0  0  0  0  0  0  0  0  0  0
  -27.3680  -21.1214   20.3603 C   0  0  0  0  0  0  0  0  0  0  0  0
  -28.1481  -19.5189   18.5771 C   0  0  0  0  0  0  0  0  0  0  0  0
  -24.2387  -17.0438   18.7476 C   0  0  0  0  0  0  0  0  0  0  0  0
  -25.9561  -20.5732   20.1900 C   0  0  0  0  0  0  0  0  0  0  0  0
  -26.7216  -18.9790   18.4616 C   0  0  0  0  0  0  0  0  0  0  0  0
  -24.8879  -15.7893   20.7784 C   0  0  0  0  0  0  0  0  0  0  0  0
  -26.1430  -34.3005   23.3352 C   0  0  1  0  0  0  0  0  0  0  0  0
  -24.5705  -31.6619   21.0994 C   0  0  1  0  0  0  0  0  0  0  0  0
  -23.4161  -15.5204   21.1285 C   0  0  2  0  0  0  0  0  0  0  0  0
  -28.1757  -20.9666   19.0698 C   0  0  0  0  0  0  0  0  0  0  0  0
  -32.4425  -21.8985   21.0861 C   0  0  0  0  0  0  0  0  0  0  0  0
  -18.5391  -27.0288   22.5691 C   0  0  0  0  0  0  0  0  0  0  0  0
  -23.3550  -30.5694   25.4226 C   0  0  0  0  0  0  0  0  0  0  0  0
  -21.5332  -28.8650   25.6327 C   0  0  0  0  0  0  0  0  0  0  0  0
  -20.9867  -31.1899   24.9125 C   0  0  0  0  0  0  0  0  0  0  0  0
  -20.3852  -27.3739   19.2602 C   0  0  0  0  0  0  0  0  0  0  0  0
  -29.1834  -26.2540   19.0270 C   0  0  0  0  0  0  0  0  0  1  0  0
  -32.3508  -22.4230   19.6634 C   0  0  0  0  0  0  0  0  0  0  0  0
  -22.1898  -29.6469   23.3114 C   0  0  1  0  0  0  0  0  0  0  0  0
  -19.4536  -27.6981   21.5549 C   0  0  2  0  0  0  0  0  0  0  0  0
  -22.0376  -30.0639   24.8015 C   0  0  0  0  0  0  0  0  0  0  0  0
  -23.0130  -13.0939   21.3040 N   0  0  0  0  0  0  0  0  0  0  0  0
  -31.1588  -23.2191   19.4479 N   0  0  0  0  0  0  0  0  0  0  0  0
  -23.2498  -14.2517   21.9438 N   0  0  0  0  0  0  0  0  0  0  0  0
  -29.1016  -23.7736   19.1077 N   0  3  0  0  0  0  0  0  0  0  0  0
  -23.9194  -30.5444   21.7861 N   0  0  0  0  0  0  0  0  0  0  0  0
  -25.0212  -17.0169   19.9912 N   0  0  0  0  0  0  0  0  0  0  0  0
  -25.9823  -19.1900   19.7141 N   0  0  0  0  0  0  0  0  0  0  0  0
  -23.5437  -15.1941   24.0970 N   0  0  0  0  0  0  0  0  0  0  0  0
  -22.8495  -10.8161   24.9616 N   0  0  0  0  0  0  0  0  0  0  0  0
  -29.5550  -21.4087   19.2673 N   0  0  0  0  0  0  0  0  0  0  0  0
  -25.3087  -33.5504   22.4209 N   0  0  0  0  0  0  0  0  0  0  0  0
  -20.9519  -29.1895   22.6895 N   0  0  0  0  0  0  0  0  0  0  0  0
  -19.5357  -26.8263   20.3490 N   0  3  0  0  0  0  0  0  0  0  0  0
  -23.2408  -12.8636   25.9174 O   0  0  0  0  0  0  0  0  0  0  0  0
  -26.5091  -31.5552   22.4432 O   0  0  0  0  0  0  0  0  0  0  0  0
  -22.0504  -31.8149   22.3593 O   0  0  0  0  0  0  0  0  0  0  0  0
  -21.7287  -27.0878   22.0923 O   0  0  0  0  0  0  0  0  0  0  0  0
  -25.7544  -18.2399   21.8022 O   0  0  0  0  0  0  0  0  0  0  0  0
  -21.9376   -6.8186   21.1903 O   0  0  0  0  0  0  0  0  0  0  0  0
  -28.1918  -26.4435   20.0414 O   0  0  0  0  0  0  0  0  0  1  0  0
  -24.9725   -3.0635   23.8535 F   0  0  0  0  0  0  0  0  0  0  0  0
  -23.5337   -5.0401   19.8003 F   0  0  0  0  0  0  0  0  0  0  0  0
  1  2  1  0  0  0  0
  1  5  2  0  0  0  0
  2  6  2  0  0  0  0
  3  8  2  0  0  0  0
  3 16  1  0  0  0  0
  4  9  1  0  0  0  0
  4 16  2  0  0  0  0
  5 18  1  0  0  0  0
  6 20  1  0  0  0  0
  7 10  2  0  0  0  0
  7 19  1  0  0  0  0
  8 22  1  0  0  0  0
  9 22  2  0  0  0  0
 10 23  1  0  0  0  0
 11 12  2  0  0  0  0
 11 24  1  0  0  0  0
 12 25  1  0  0  0  0
 13 21  1  0  0  0  0
 13 23  2  0  0  0  0
 14 25  2  0  0  0  0
 14 26  1  0  0  0  0
 15 28  2  0  0  0  0
 15 65  1  0  0  0  0
 16 27  1  0  0  0  0
 17 27  1  0  0  0  0
 17 29  2  0  0  0  0
 17 31  1  0  0  0  0
 18 20  2  0  0  0  0
 18 36  1  0  0  0  0
 19 21  2  0  0  0  0
 19 37  1  0  0  0  0
 20 49  1  0  0  0  0
 21 38  1  0  0  0  0
 22 82  1  0  0  0  0
 23 83  1  0  0  0  0
 24 26  2  0  0  0  0
 24 82  1  0  0  0  0
 25 84  1  0  0  0  0
 26 85  1  0  0  0  0
 27 64  2  0  0  0  0
 28 59  1  0  0  0  0
 28 67  1  0  0  0  0
 29 66  1  0  0  0  0
 29 71  1  0  0  0  0
 30 65  1  0  0  0  0
 30 67  2  0  0  0  0
 30 73  1  0  0  0  0
 31 72  1  0  0  0  0
 31 77  2  0  0  0  0
 32 50  1  0  0  0  0
 32 74  1  0  0  0  0
 32 78  2  0  0  0  0
 33 61  1  0  0  0  0
 33 68  1  0  0  0  0
 33 79  2  0  0  0  0
 34 62  1  0  0  0  0
 34 75  1  0  0  0  0
 34 80  2  0  0  0  0
 35 69  1  0  0  0  0
 35 70  1  0  0  0  0
 35 81  2  0  0  0  0
 36 39  1  0  0  0  0
 37 50  1  0  0  0  0
 38 68  1  0  0  0  0
 39 41  1  0  0  0  0
 40 42  1  0  0  0  0
 40 45  1  0  0  0  0
 41 49  1  0  0  0  0
 42 51  1  0  0  0  0
 43 46  1  0  0  0  0
 43 52  1  0  0  0  0
 44 47  1  0  0  0  0
 44 52  1  0  0  0  0
 45 69  1  0  0  0  0
 46 70  1  0  0  0  0
 47 70  1  0  0  0  0
 48 51  1  0  0  0  0
 48 69  1  0  0  0  0
 49 74  1  0  0  0  0
 50 68  1  0  0  0  0
 51 66  1  0  0  0  0
 52 73  1  0  0  0  0
 53 60  1  0  0  0  0
 54 62  1  0  0  0  0
 55 63  1  0  0  0  0
 56 63  1  0  0  0  0
 57 63  1  0  0  0  0
 58 76  1  0  0  0  0
 59 83  1  0  0  0  0
 60 65  1  0  0  0  0
 61 63  1  0  0  0  0
 61 75  1  0  0  0  0
 62 76  1  0  0  0  0
 64 66  1  0  0  0  0
M  CHG  2  67   1  76   1
M  ISO  4  35 100  59 101  70 100  83 101
M  END
> <Batch ID>
0196

> <Smiles>
CCn1cc([101CH2:1][101O:1]c2ccc3c(c2)CN(C(=O)C(NC(=O)C(C)NC)C(C)(C)C)C(C(=O)NC2CCCc4ccccc42)C3)nc1NC1CC[100N:0]([100C:0](=O)N2CCCC(n3nc(-c4ccc(Oc5ccc(F)cc5F)cc4)c(C(N)=O)c3N)C2)CC1

> <Shape>
0.288

> <Color>
0.081

> <Negative vol penalty>
0.000

$$$$

  -OEChem-04052323393D

 83 92  0     1  0  0  0  0  0999 V2000
  -31.0539  -22.5176   17.5324 C   0  0  0  0  0  0  0  0  0  0  0  0
  -29.9549  -23.2117   17.0365 C   0  0  0  0  0  0  0  0  0  0  0  0
  -26.5794  -13.1965   20.8057 C   0  0  0  0  0  0  0  0  0  0  0  0
  -25.2017  -14.5152   19.3225 C   0  0  0  0  0  0  0  0  0  0  0  0
  -31.1500  -22.2501   18.8973 C   0  0  0  0  0  0  0  0  0  0  0  0
  -28.9507  -23.6376   17.9052 C   0  0  0  0  0  0  0  0  0  0  0  0
  -25.6387  -28.7705   17.4693 C   0  0  0  0  0  0  0  0  0  0  0  0
  -25.8322  -12.0616   20.4908 C   0  0  0  0  0  0  0  0  0  0  0  0
  -24.4545  -13.3803   19.0075 C   0  0  0  0  0  0  0  0  0  0  0  0
  -24.3611  -29.0230   16.9715 C   0  0  0  0  0  0  0  0  0  0  0  0
  -24.0598   -8.8894   20.3512 C   0  0  0  0  0  0  0  0  0  0  0  0
  -23.6667   -8.0582   21.4001 C   0  0  0  0  0  0  0  0  0  0  0  0
  -23.4635  -28.8495   19.2039 C   0  0  0  0  0  0  0  0  0  0  0  0
  -22.4538   -9.8932   22.3995 C   0  0  0  0  0  0  0  0  0  0  0  0
  -26.2642  -14.4233   20.2216 C   0  0  0  0  0  0  0  0  0  0  0  0
  -28.1895  -16.0638   19.8904 C   0  0  0  0  0  0  0  0  0  0  0  0
  -30.1513  -22.6814   19.7845 C   0  0  0  0  0  0  0  0  0  0  0  0
  -25.8370  -28.5444   18.8389 C   0  0  0  0  0  0  0  0  0  0  0  0
  -29.0329  -23.3745   19.2831 C   0  0  0  0  0  0  0  0  0  0  0  0
  -24.7450  -28.5969   19.7169 C   0  0  0  0  0  0  0  0  0  0  0  0
  -24.7697  -12.1535   19.5917 C   0  0  0  0  0  0  0  0  0  0  0  0
  -23.2729  -29.0597   17.8384 C   0  0  0  0  0  0  0  0  0  0  0  0
  -23.6500  -10.2225   20.3264 C   0  0  0  0  0  0  0  0  0  0  0  0
  -22.8637   -8.5601   22.4242 C   0  0  0  0  0  0  0  0  0  0  0  0
  -22.8470  -10.7244   21.3506 C   0  0  0  0  0  0  0  0  0  0  0  0
  -27.0353  -15.5962   20.5470 C   0  0  0  0  0  0  0  0  0  0  0  0
  -28.5378  -17.2013   20.5768 C   0  0  0  0  0  0  0  0  0  0  0  0
  -28.8844  -15.5188   18.7610 C   0  0  0  0  0  0  0  0  0  0  0  0
  -26.9159  -26.1121   20.5778 C   0  0  0  0  0  0  0  0  0  0  0  0
  -26.6591  -28.2439   23.0093 C   0  0  0  0  0  0  0  0  0  0  0  0
  -25.1973  -31.0708   24.2416 C   0  0  0  0  0  0  0  0  0  0  0  0
  -25.4117  -21.0718   23.9081 C   0  0  0  0  0  0  0  0  0  0  0  0
  -30.2757  -22.3275   21.2453 C   0  0  0  0  0  0  0  0  0  0  0  0
  -27.2253  -28.2999   19.3638 C   0  0  0  0  0  0  0  0  0  0  0  0
  -24.9076  -28.3810   21.1986 C   0  0  0  0  0  0  0  0  0  0  0  0
  -29.3529  -23.1403   22.1497 C   0  0  0  0  0  0  0  0  0  0  0  0
  -28.2577  -19.1872   24.9206 C   0  0  0  0  0  0  0  0  0  0  0  0
  -27.9433  -23.1890   21.5688 C   0  0  0  0  0  0  0  0  0  0  0  0
  -28.3713  -18.0953   23.8553 C   0  0  0  0  0  0  0  0  0  0  0  0
  -19.1026  -24.1749   18.9009 C   0  0  0  0  0  0  0  0  0  0  0  0
  -19.6509  -28.5363   17.1887 C   0  0  0  0  0  0  0  0  0  0  0  0
  -26.8007  -19.5132   25.2415 C   0  0  0  0  0  0  0  0  0  0  0  0
  -19.0204  -25.4067   17.9984 C   0  0  0  0  0  0  0  0  0  0  0  0
  -26.0840  -18.7630   23.0061 C   0  0  0  0  0  0  0  0  0  0  0  0
  -21.0098  -25.5863   19.2261 C   0  0  0  0  0  0  0  0  0  0  0  0
  -27.9354  -23.8746   20.1971 C   0  0  1  0  0  0  0  0  0  0  0  0
  -27.2375  -27.5743   20.7057 C   0  0  1  0  0  0  0  0  0  0  0  0
  -27.5343  -18.4392   22.6085 C   0  0  2  0  0  0  0  0  0  0  0  0
  -20.4794  -27.3483   17.5945 C   0  0  1  0  0  0  0  0  0  0  0  0
  -20.1772  -24.5265   19.9167 C   0  0  2  0  0  0  0  0  0  0  0  0
  -20.8801  -28.7329   18.0300 C   0  0  1  0  0  0  0  0  0  1  0  0
  -25.1616  -32.5454   26.2718 C   0  0  0  0  0  0  0  0  0  0  0  0
  -24.9728  -26.1711   24.4822 C   0  0  0  0  0  0  0  0  0  0  0  0
  -24.1961  -27.9932   26.0135 C   0  0  0  0  0  0  0  0  0  0  0  0
  -26.6153  -27.3919   25.9197 C   0  0  0  0  0  0  0  0  0  0  0  0
  -26.1388  -33.4144   22.6988 C   0  0  0  0  0  0  0  0  0  0  0  0
  -22.8391  -22.3215   21.5174 C   0  0  0  0  0  0  0  0  0  0  0  0
  -24.0290  -22.5268   22.4486 C   0  0  0  0  0  0  0  0  0  0  0  0
  -22.1066  -23.6239   21.2209 C   0  0  0  0  0  0  0  0  0  0  0  0
  -25.5703  -28.6322   23.9801 C   0  0  1  0  0  0  0  0  0  0  0  0
  -25.7866  -32.3015   24.9070 C   0  0  2  0  0  0  0  0  0  0  0  0
  -25.3349  -27.5493   25.0708 C   0  0  0  0  0  0  0  0  0  0  0  0
  -26.6747  -16.3730   21.5719 N   0  0  0  0  0  0  0  0  0  0  0  0
  -27.6077  -17.3403   21.5645 N   0  0  0  0  0  0  0  0  0  0  0  0
  -26.2837  -28.1392   21.6624 N   0  0  0  0  0  0  0  0  0  0  0  0
  -26.0628  -19.8319   24.0168 N   0  0  0  0  0  0  0  0  0  0  0  0
  -19.9590  -26.3764   18.5775 N   0  0  1  0  0  0  0  0  0  0  0  0
  -29.5461  -18.0862   20.4258 N   0  0  0  0  0  0  0  0  0  0  0  0
  -28.3913  -14.3444   18.1761 N   0  0  0  0  0  0  0  0  0  0  0  0
  -28.0187  -25.3113   20.3497 N   0  0  0  0  0  0  0  0  0  0  0  0
  -25.9413  -29.9408   24.5077 N   0  0  0  0  0  0  0  0  0  0  0  0
  -24.7409  -21.2962   22.7122 N   0  0  0  0  0  0  0  0  0  0  0  0
  -20.9905  -23.3491   20.2691 N   0  3  0  0  0  0  0  0  0  0  0  0
  -25.5562  -33.5074   24.0622 N   0  3  0  0  0  0  0  0  0  0  0  0
  -29.9217  -16.0481   18.2947 O   0  0  0  0  0  0  0  0  0  0  0  0
  -25.7535  -25.7380   20.6801 O   0  0  0  0  0  0  0  0  0  0  0  0
  -27.8022  -28.0479   23.4294 O   0  0  0  0  0  0  0  0  0  0  0  0
  -24.1769  -31.1076   23.5575 O   0  0  0  0  0  0  0  0  0  0  0  0
  -25.4316  -21.9185   24.8080 O   0  0  0  0  0  0  0  0  0  0  0  0
  -24.0405  -11.0462   19.2840 O   0  0  0  0  0  0  0  0  0  0  0  0
  -22.0247  -29.3052   17.3550 O   0  0  0  0  0  0  0  0  0  1  0  0
  -22.4850   -7.7614   23.4306 F   0  0  0  0  0  0  0  0  0  0  0  0
  -22.4491  -12.0039   21.3316 F   0  0  0  0  0  0  0  0  0  0  0  0
  1  2  1  0  0  0  0
  1  5  2  0  0  0  0
  2  6  2  0  0  0  0
  3  8  2  0  0  0  0
  3 15  1  0  0  0  0
  4  9  1  0  0  0  0
  4 15  2  0  0  0  0
  5 17  1  0  0  0  0
  6 19  1  0  0  0  0
  7 10  2  0  0  0  0
  7 18  1  0  0  0  0
  8 21  1  0  0  0  0
  9 21  2  0  0  0  0
 10 22  1  0  0  0  0
 11 12  2  0  0  0  0
 11 23  1  0  0  0  0
 12 24  1  0  0  0  0
 13 20  1  0  0  0  0
 13 22  2  0  0  0  0
 14 24  2  0  0  0  0
 14 25  1  0  0  0  0
 15 26  1  0  0  0  0
 16 26  1  0  0  0  0
 16 27  2  0  0  0  0
 16 28  1  0  0  0  0
 17 19  2  0  0  0  0
 17 33  1  0  0  0  0
 18 20  2  0  0  0  0
 18 34  1  0  0  0  0
 19 46  1  0  0  0  0
 20 35  1  0  0  0  0
 21 80  1  0  0  0  0
 22 81  1  0  0  0  0
 23 25  2  0  0  0  0
 23 80  1  0  0  0  0
 24 82  1  0  0  0  0
 25 83  1  0  0  0  0
 26 63  2  0  0  0  0
 27 64  1  0  0  0  0
 27 68  1  0  0  0  0
 28 69  1  0  0  0  0
 28 75  2  0  0  0  0
 29 47  1  0  0  0  0
 29 70  1  0  0  0  0
 29 76  2  0  0  0  0
 30 60  1  0  0  0  0
 30 65  1  0  0  0  0
 30 77  2  0  0  0  0
 31 61  1  0  0  0  0
 31 71  1  0  0  0  0
 31 78  2  0  0  0  0
 32 66  1  0  0  0  0
 32 72  1  0  0  0  0
 32 79  2  0  0  0  0
 33 36  1  0  0  0  0
 34 47  1  0  0  0  0
 35 65  1  0  0  0  0
 36 38  1  0  0  0  0
 37 39  1  0  0  0  0
 37 42  1  0  0  0  0
 38 46  1  0  0  0  0
 39 48  1  0  0  0  0
 40 43  1  0  0  0  0
 40 50  1  0  0  0  0
 41 49  1  0  0  0  0
 41 51  1  0  0  0  0
 42 66  1  0  0  0  0
 43 67  1  0  0  0  0
 44 48  1  0  0  0  0
 44 66  1  0  0  0  0
 45 50  1  0  0  0  0
 45 67  1  0  0  0  0
 46 70  1  0  0  0  0
 47 65  1  0  0  0  0
 48 64  1  0  0  0  0
 49 51  1  0  0  0  0
 49 67  1  0  0  0  0
 50 73  1  0  0  0  0
 51 81  1  0  0  0  0
 52 61  1  0  0  0  0
 53 62  1  0  0  0  0
 54 62  1  0  0  0  0
 55 62  1  0  0  0  0
 56 74  1  0  0  0  0
 57 58  1  0  0  0  0
 57 59  1  0  0  0  0
 58 72  1  0  0  0  0
 59 73  1  0  0  0  0
 60 62  1  0  0  0  0
 60 71  1  0  0  0  0
 61 74  1  0  0  0  0
 63 64  1  0  0  0  0
M  CHG  2  73   1  74   1
M  ISO  4  32 100  51 101  72 100  81 101
M  END
> <Batch ID>
0196

> <Smiles>
CNC(C)C(=O)NC(C(=O)N1Cc2cc([101O:1][101CH:1]3CC3N3CCC(NCCC[100NH:0][100C:0](=O)N4CCCC(n5nc(-c6ccc(Oc7ccc(F)cc7F)cc6)c(C(N)=O)c5N)C4)C3)ccc2CC1C(=O)NC1CCCc2ccccc21)C(C)(C)C

> <Shape>
0.209

> <Color>
0.070

> <Negative vol penalty>
0.000

$$$$

  -OEChem-04052323393D

 84 93  0     1  0  0  0  0  0999 V2000
  -33.4286  -30.9736   15.5636 C   0  0  0  0  0  0  0  0  0  0  0  0
  -32.6723  -29.8373   15.8322 C   0  0  0  0  0  0  0  0  0  0  0  0
  -23.1525   -9.9668   19.8820 C   0  0  0  0  0  0  0  0  0  0  0  0
  -23.8522   -9.7842   22.1872 C   0  0  0  0  0  0  0  0  0  0  0  0
  -33.6366  -31.9233   16.5630 C   0  0  0  0  0  0  0  0  0  0  0  0
  -32.1245  -29.6494   17.1007 C   0  0  0  0  0  0  0  0  0  0  0  0
  -27.3057  -28.1024   16.9261 C   0  0  0  0  0  0  0  0  0  0  0  0
  -22.4256   -8.7831   20.0088 C   0  0  0  0  0  0  0  0  0  0  0  0
  -23.1253   -8.6005   22.3141 C   0  0  0  0  0  0  0  0  0  0  0  0
  -27.0788  -26.7575   16.6369 C   0  0  0  0  0  0  0  0  0  0  0  0
  -23.4970   -5.3465   21.4748 C   0  0  0  0  0  0  0  0  0  0  0  0
  -24.1140   -4.2727   22.1165 C   0  0  0  0  0  0  0  0  0  0  0  0
  -26.7488  -26.3144   18.9851 C   0  0  0  0  0  0  0  0  0  0  0  0
  -22.3657   -4.2646   23.7840 C   0  0  0  0  0  0  0  0  0  0  0  0
  -27.2907  -21.7727   16.2719 C   0  0  0  0  0  0  0  0  0  0  0  0
  -23.8659  -10.4673   20.9712 C   0  0  0  0  0  0  0  0  0  0  0  0
  -24.1601  -12.9988   21.0833 C   0  0  0  0  0  0  0  0  0  0  0  0
  -33.0830  -31.7518   17.8415 C   0  0  0  0  0  0  0  0  0  0  0  0
  -27.2665  -28.5621   18.2503 C   0  0  0  0  0  0  0  0  0  0  0  0
  -32.3265  -30.5971   18.1184 C   0  0  0  0  0  0  0  0  0  0  0  0
  -26.9730  -27.6661   19.2882 C   0  0  0  0  0  0  0  0  0  0  0  0
  -22.4120   -8.1000   21.2248 C   0  0  0  0  0  0  0  0  0  0  0  0
  -26.8032  -25.8628   17.6667 C   0  0  0  0  0  0  0  0  0  0  0  0
  -22.3144   -5.8794   21.9877 C   0  0  0  0  0  0  0  0  0  0  0  0
  -23.5484   -3.7317   23.2711 C   0  0  0  0  0  0  0  0  0  0  0  0
  -21.7487   -5.3384   23.1423 C   0  0  0  0  0  0  0  0  0  0  0  0
  -24.6174  -11.6897   20.8406 C   0  0  0  0  0  0  0  0  0  0  0  0
  -26.3411  -22.7011   15.8969 C   0  0  0  0  0  0  0  0  0  0  0  0
  -26.9229  -20.4506   16.1271 C   0  0  0  0  0  0  0  0  0  0  0  0
  -25.2461  -13.7967   20.8178 C   0  0  0  0  0  0  0  0  0  0  0  0
  -24.8844  -21.0535   15.3221 C   0  0  0  0  0  0  0  0  0  0  0  0
  -22.8691  -13.4530   21.5107 C   0  0  0  0  0  0  0  0  0  0  0  0
  -29.3662  -29.9094   20.2200 C   0  0  0  0  0  0  0  0  0  0  0  0
  -26.7815  -30.1839   22.1608 C   0  0  0  0  0  0  0  0  0  0  0  0
  -23.6811  -29.0560   23.0338 C   0  0  0  0  0  0  0  0  0  0  0  0
  -29.4789  -15.0021   17.2812 C   0  0  0  0  0  0  0  0  0  0  0  0
  -33.3748  -32.7825   18.9032 C   0  0  0  0  0  0  0  0  0  0  0  0
  -27.4871  -30.0209   18.5430 C   0  0  0  0  0  0  0  0  0  0  0  0
  -26.8994  -28.1130   20.7246 C   0  0  0  0  0  0  0  0  0  0  0  0
  -32.4467  -32.6916   20.1118 C   0  0  0  0  0  0  0  0  0  0  0  0
  -30.0952  -12.6180   20.0031 C   0  0  0  0  0  0  0  0  0  0  0  0
  -32.3117  -31.2440   20.5734 C   0  0  0  0  0  0  0  0  0  0  0  0
  -28.6819  -12.2385   20.4474 C   0  0  0  0  0  0  0  0  0  0  0  0
  -26.8395  -17.5408   17.6052 C   0  0  0  0  0  0  0  0  0  0  0  0
  -30.1512  -12.9762   18.5198 C   0  0  0  0  0  0  0  0  0  0  0  0
  -27.1564  -16.0496   17.5633 C   0  0  0  0  0  0  0  0  0  0  0  0
  -27.7734  -13.6232   18.5457 C   0  0  0  0  0  0  0  0  0  0  0  0
  -28.9064  -17.2696   16.4614 C   0  0  0  0  0  0  0  0  0  0  0  0
  -31.6950  -30.3698   19.4748 C   0  0  1  0  0  0  0  0  0  0  0  0
  -27.9306  -30.2818   19.9792 C   0  0  1  0  0  0  0  0  0  0  0  0
  -27.6640  -13.3227   20.0470 C   0  0  1  0  0  0  0  0  0  0  0  0
  -27.6133  -18.0688   16.4021 C   0  0  2  0  0  0  0  0  0  0  0  0
  -23.5482  -20.6542   14.7944 C   0  0  0  0  0  0  0  0  0  0  0  0
  -21.8327  -29.4537   24.6838 C   0  0  0  0  0  0  0  0  0  0  0  0
  -28.4116  -28.7765   24.3223 C   0  0  0  0  0  0  0  0  0  0  0  0
  -26.2767  -28.3571   25.5612 C   0  0  0  0  0  0  0  0  0  0  0  0
  -27.0331  -30.6965   25.1395 C   0  0  0  0  0  0  0  0  0  0  0  0
  -21.7541  -29.7255   20.8896 C   0  0  0  0  0  0  0  0  0  0  0  0
  -26.6474  -24.1562   16.0176 C   0  0  0  0  0  0  0  0  0  1  0  0
  -26.1413  -29.3167   23.2177 C   0  0  1  0  0  0  0  0  0  0  0  0
  -22.3815  -29.7917   23.3064 C   0  0  2  0  0  0  0  0  0  0  0  0
  -26.9689  -29.2776   24.5334 C   0  0  0  0  0  0  0  0  0  0  0  0
  -25.8944  -11.6536   20.4507 N   0  0  0  0  0  0  0  0  0  0  0  0
  -25.1233  -22.3755   15.4161 N   0  0  0  0  0  0  0  0  0  0  0  0
  -25.7234  -20.0537   15.6539 N   0  0  0  0  0  0  0  0  0  0  0  0
  -26.2488  -12.9499   20.4463 N   0  0  0  0  0  0  0  0  0  0  0  0
  -27.1287  -29.5480   20.9604 N   0  0  0  0  0  0  0  0  0  0  0  0
  -29.1480  -13.9876   18.1861 N   0  0  0  0  0  0  0  0  0  0  0  0
  -28.5178  -15.9794   17.0260 N   0  0  0  0  0  0  0  0  0  0  0  0
  -25.4317  -15.1329   20.8680 N   0  0  0  0  0  0  0  0  0  0  0  0
  -21.8672  -12.4999   21.7385 N   0  0  0  0  0  0  0  0  0  0  0  0
  -27.8508  -19.4852   16.4936 N   0  0  0  0  0  0  0  0  0  0  0  0
  -30.2641  -30.5761   19.4084 N   0  0  0  0  0  0  0  0  0  0  0  0
  -24.7794  -29.8130   23.3830 N   0  0  0  0  0  0  0  0  0  0  0  0
  -21.3559  -29.4256   22.2890 N   0  3  0  0  0  0  0  0  0  0  0  0
  -22.6069  -14.6694   21.6695 O   0  0  0  0  0  0  0  0  0  0  0  0
  -29.6391  -29.0798   21.0797 O   0  0  0  0  0  0  0  0  0  0  0  0
  -26.9603  -31.3829   22.3891 O   0  0  0  0  0  0  0  0  0  0  0  0
  -23.7182  -27.9218   22.5619 O   0  0  0  0  0  0  0  0  0  0  0  0
  -30.6005  -15.0595   16.7597 O   0  0  0  0  0  0  0  0  0  0  0  0
  -21.7026   -6.9450   21.3491 O   0  0  0  0  0  0  0  0  0  0  0  0
  -26.5804  -24.5403   17.3853 O   0  0  0  0  0  0  0  0  0  1  0  0
  -24.1402   -2.6995   23.8863 F   0  0  0  0  0  0  0  0  0  0  0  0
  -20.6120   -5.8454   23.6391 F   0  0  0  0  0  0  0  0  0  0  0  0
  1  2  1  0  0  0  0
  1  5  2  0  0  0  0
  2  6  2  0  0  0  0
  3  8  2  0  0  0  0
  3 16  1  0  0  0  0
  4  9  1  0  0  0  0
  4 16  2  0  0  0  0
  5 18  1  0  0  0  0
  6 20  1  0  0  0  0
  7 10  2  0  0  0  0
  7 19  1  0  0  0  0
  8 22  1  0  0  0  0
  9 22  2  0  0  0  0
 10 23  1  0  0  0  0
 11 12  2  0  0  0  0
 11 24  1  0  0  0  0
 12 25  1  0  0  0  0
 13 21  1  0  0  0  0
 13 23  2  0  0  0  0
 14 25  2  0  0  0  0
 14 26  1  0  0  0  0
 15 28  1  0  0  0  0
 15 29  2  0  0  0  0
 16 27  1  0  0  0  0
 17 27  1  0  0  0  0
 17 30  2  0  0  0  0
 17 32  1  0  0  0  0
 18 20  2  0  0  0  0
 18 37  1  0  0  0  0
 19 21  2  0  0  0  0
 19 38  1  0  0  0  0
 20 49  1  0  0  0  0
 21 39  1  0  0  0  0
 22 81  1  0  0  0  0
 23 82  1  0  0  0  0
 24 26  2  0  0  0  0
 24 81  1  0  0  0  0
 25 83  1  0  0  0  0
 26 84  1  0  0  0  0
 27 63  2  0  0  0  0
 28 59  1  0  0  0  0
 28 64  2  0  0  0  0
 29 65  1  0  0  0  0
 29 72  1  0  0  0  0
 30 66  1  0  0  0  0
 30 70  1  0  0  0  0
 31 53  1  0  0  0  0
 31 64  1  0  0  0  0
 31 65  2  0  0  0  0
 32 71  1  0  0  0  0
 32 76  2  0  0  0  0
 33 50  1  0  0  0  0
 33 73  1  0  0  0  0
 33 77  2  0  0  0  0
 34 60  1  0  0  0  0
 34 67  1  0  0  0  0
 34 78  2  0  0  0  0
 35 61  1  0  0  0  0
 35 74  1  0  0  0  0
 35 79  2  0  0  0  0
 36 68  1  0  0  0  0
 36 69  1  0  0  0  0
 36 80  2  0  0  0  0
 37 40  1  0  0  0  0
 38 50  1  0  0  0  0
 39 67  1  0  0  0  0
 40 42  1  0  0  0  0
 41 43  1  0  0  0  0
 41 45  1  0  0  0  0
 42 49  1  0  0  0  0
 43 51  1  0  0  0  0
 44 46  1  0  0  0  0
 44 52  1  0  0  0  0
 45 68  1  0  0  0  0
 46 69  1  0  0  0  0
 47 51  1  0  0  0  0
 47 68  1  0  0  0  0
 48 52  1  0  0  0  0
 48 69  1  0  0  0  0
 49 73  1  0  0  0  0
 50 67  1  0  0  0  0
 51 66  1  0  0  0  0
 52 72  1  0  0  0  0
 54 61  1  0  0  0  0
 55 62  1  0  0  0  0
 56 62  1  0  0  0  0
 57 62  1  0  0  0  0
 58 75  1  0  0  0  0
 59 82  1  0  0  0  0
 60 62  1  0  0  0  0
 60 74  1  0  0  0  0
 61 75  1  0  0  0  0
 63 66  1  0  0  0  0
M  CHG  1  75   1
M  ISO  4  36 100  59 101  69 100  82 101
M  END
> <Batch ID>
0196

> <Smiles>
CNC(C)C(=O)NC(C(=O)N1Cc2cc([101O:1][101CH2:1]c3cc(NC4CC[100N:0]([100C:0](=O)N5CCCC(n6nc(-c7ccc(Oc8ccc(F)cc8F)cc7)c(C(N)=O)c6N)C5)C4)nc(C)n3)ccc2CC1C(=O)NC1CCCc2ccccc21)C(C)(C)C

> <Shape>
0.232

> <Color>
0.185

> <Negative vol penalty>
0.000

$$$$

  -OEChem-04052323393D

 90100  0     1  0  0  0  0  0999 V2000
  -27.9870  -39.4794   23.6207 C   0  0  0  0  0  0  0  0  0  0  0  0
  -28.7382  -38.3920   23.1864 C   0  0  0  0  0  0  0  0  0  0  0  0
  -24.6065   -8.7534   21.3559 C   0  0  0  0  0  0  0  0  0  0  0  0
  -23.2203  -10.6059   22.0514 C   0  0  0  0  0  0  0  0  0  0  0  0
  -26.9604  -39.2913   24.5452 C   0  0  0  0  0  0  0  0  0  0  0  0
  -28.4639  -37.1159   23.6772 C   0  0  0  0  0  0  0  0  0  0  0  0
  -28.9157  -31.8235   20.6290 C   0  0  0  0  0  0  0  0  0  0  0  0
  -24.0289   -7.9516   22.3403 C   0  0  0  0  0  0  0  0  0  0  0  0
  -22.6427   -9.8041   23.0358 C   0  0  0  0  0  0  0  0  0  0  0  0
  -29.9079  -30.8448   20.5908 C   0  0  0  0  0  0  0  0  0  0  0  0
  -21.1560   -6.2226   22.7761 C   0  0  0  0  0  0  0  0  0  0  0  0
  -20.7696   -4.9316   22.4163 C   0  0  0  0  0  0  0  0  0  0  0  0
  -28.7103  -29.5742   22.2553 C   0  0  0  0  0  0  0  0  0  0  0  0
  -22.2731   -4.0199   24.0733 C   0  0  0  0  0  0  0  0  0  0  0  0
  -25.9663  -18.4017   21.5878 C   0  0  0  0  0  0  0  0  0  0  0  0
  -24.2022  -10.0806   21.2114 C   0  0  0  0  0  0  0  0  0  0  0  0
  -24.3582  -11.0780   18.8687 C   0  0  0  0  0  0  0  0  0  0  0  0
  -26.6671  -38.0109   25.0403 C   0  0  0  0  0  0  0  0  0  0  0  0
  -27.8170  -31.6899   21.4900 C   0  0  0  0  0  0  0  0  0  0  0  0
  -27.4333  -36.9108   24.6102 C   0  0  0  0  0  0  0  0  0  0  0  0
  -27.7042  -30.5514   22.3007 C   0  0  0  0  0  0  0  0  0  0  0  0
  -23.0470   -8.4769   23.1803 C   0  0  0  0  0  0  0  0  0  0  0  0
  -29.8068  -29.7213   21.4061 C   0  0  0  0  0  0  0  0  0  0  0  0
  -22.1010   -6.4124   23.7844 C   0  0  0  0  0  0  0  0  0  0  0  0
  -21.3281   -3.8302   23.0649 C   0  0  0  0  0  0  0  0  0  0  0  0
  -22.6595   -5.3110   24.4330 C   0  0  0  0  0  0  0  0  0  0  0  0
  -24.7988  -10.9095   20.1950 C   0  0  0  0  0  0  0  0  0  0  0  0
  -26.5769  -20.5992   21.7536 C   0  0  0  0  0  0  0  0  0  0  0  0
  -27.8707  -20.2651   21.4192 C   0  0  0  0  0  0  0  0  0  0  0  0
  -27.2599  -18.0675   21.2525 C   0  0  0  0  0  0  0  0  0  0  0  0
  -25.2569  -11.9584   18.3176 C   0  0  0  0  0  0  0  0  0  0  0  0
  -23.2368  -10.4912   18.1950 C   0  0  0  0  0  0  0  0  0  0  0  0
  -26.6747  -33.3564   23.9440 C   0  0  0  0  0  0  0  0  0  0  0  0
  -24.2284  -31.2357   23.7424 C   0  0  0  0  0  0  0  0  0  0  0  0
  -23.1369  -28.1571   22.7536 C   0  0  0  0  0  0  0  0  0  0  0  0
  -28.8002  -16.1682   20.6472 C   0  0  0  0  0  0  0  0  0  0  0  0
  -25.5788  -37.8641   26.0741 C   0  0  0  0  0  0  0  0  0  0  0  0
  -26.7417  -32.7416   21.4999 C   0  0  0  0  0  0  0  0  0  0  0  0
  -26.5343  -30.3507   23.2278 C   0  0  0  0  0  0  0  0  0  0  0  0
  -25.1073  -36.4244   26.2618 C   0  0  0  0  0  0  0  0  0  0  0  0
  -29.8163  -13.3764   18.6849 C   0  0  0  0  0  0  0  0  0  0  0  0
  -26.3014  -35.4823   26.3777 C   0  0  0  0  0  0  0  0  0  0  0  0
  -24.7719  -22.4460   21.8273 C   0  0  0  0  0  0  0  0  0  0  0  0
  -25.8330  -22.9156   20.8820 C   0  0  0  0  0  0  0  0  0  0  0  0
  -28.6026  -12.4450   18.7238 C   0  0  0  0  0  0  0  0  0  0  0  0
  -31.3421  -24.3972   18.5049 C   0  0  0  0  0  0  0  0  0  0  0  0
  -30.0206  -14.0976   20.0161 C   0  0  0  0  0  0  0  0  0  0  0  0
  -30.7033  -23.0109   18.4104 C   0  0  0  0  0  0  0  0  0  0  0  0
  -27.6279  -13.8804   20.5613 C   0  0  0  0  0  0  0  0  0  0  0  0
  -30.0297  -23.9136   20.4586 C   0  0  0  0  0  0  0  0  0  0  0  0
  -27.1499  -35.5074   25.1006 C   0  0  1  0  0  0  0  0  0  0  0  0
  -26.2004  -22.0155   22.0323 C   0  0  0  0  0  0  0  0  0  0  0  0
  -25.9270  -32.7511   22.7897 C   0  0  1  0  0  0  0  0  0  0  0  0
  -27.3433  -13.1808   19.2222 C   0  0  2  0  0  0  0  0  0  0  0  0
  -31.1508  -24.8029   19.9592 C   0  0  2  0  0  0  0  0  0  0  0  0
  -21.0975  -26.6949   22.7585 C   0  0  0  0  0  0  0  0  0  0  0  0
  -24.6631  -30.6435   26.7039 C   0  0  0  0  0  0  0  0  0  0  0  0
  -23.2972  -28.5649   26.4172 C   0  0  0  0  0  0  0  0  0  0  0  0
  -22.2648  -30.7993   26.0123 C   0  0  0  0  0  0  0  0  0  0  0  0
  -23.0691  -28.0434   19.7970 C   0  0  0  0  0  0  0  0  0  0  0  0
  -28.9561  -21.3088   21.3210 C   0  0  0  0  0  0  0  0  0  0  0  0
  -29.3092  -21.6670   19.8795 C   0  0  0  0  0  0  0  0  0  0  0  0
  -31.9578  -27.1533   20.0355 C   0  0  0  0  0  0  0  0  0  0  0  0
  -31.4633  -28.5829   20.1351 C   0  0  0  0  0  0  0  0  0  1  0  0
  -23.9324  -29.8844   24.3468 C   0  0  1  0  0  0  0  0  0  0  0  0
  -21.9024  -27.7258   21.9826 C   0  0  2  0  0  0  0  0  0  0  0  0
  -23.5625  -29.9774   25.8541 C   0  0  0  0  0  0  0  0  0  0  0  0
  -25.6015  -19.6735   21.8443 N   0  0  0  0  0  0  0  0  0  0  0  0
  -25.8925  -11.6253   20.4699 N   0  0  0  0  0  0  0  0  0  0  0  0
  -28.2354  -18.9933   21.1623 N   0  0  0  0  0  0  0  0  0  0  0  0
  -26.1467  -12.2520   19.3086 N   0  0  0  0  0  0  0  0  0  0  0  0
  -25.5120  -31.4100   23.2060 N   0  0  0  0  0  0  0  0  0  0  0  0
  -28.7877  -14.7752   20.4230 N   0  0  0  0  0  0  0  0  0  0  0  0
  -30.3745  -22.6542   19.7945 N   0  0  1  0  0  0  0  0  0  0  0  0
  -25.3649  -12.5022   17.0867 N   0  0  0  0  0  0  0  0  0  0  0  0
  -22.4158   -9.6078   18.9092 N   0  0  0  0  0  0  0  0  0  0  0  0
  -27.5628  -16.7069   20.9979 N   0  0  0  0  0  0  0  0  0  0  0  0
  -26.5194  -34.7246   24.0595 N   0  0  0  0  0  0  0  0  0  0  0  0
  -22.8972  -29.2824   23.5135 N   0  0  0  0  0  0  0  0  0  0  0  0
  -30.7967  -26.2290   20.0778 N   0  3  0  0  0  0  0  0  0  0  0  0
  -22.2915  -27.1298   20.6732 N   0  3  0  0  0  0  0  0  0  0  0  0
  -22.9802  -10.7301   16.9906 O   0  0  0  0  0  0  0  0  0  0  0  0
  -27.3418  -32.6352   24.6765 O   0  0  0  0  0  0  0  0  0  0  0  0
  -23.3505  -32.1023   23.7398 O   0  0  0  0  0  0  0  0  0  0  0  0
  -24.2058  -27.5538   22.6911 O   0  0  0  0  0  0  0  0  0  0  0  0
  -29.8268  -16.8384   20.5096 O   0  0  0  0  0  0  0  0  0  0  0  0
  -22.4831   -7.6948   24.1409 O   0  0  0  0  0  0  0  0  0  0  0  0
  -30.7742  -28.7649   21.3713 O   0  0  0  0  0  0  0  0  0  1  0  0
  -20.9557   -2.5905   22.7205 F   0  0  0  0  0  0  0  0  0  0  0  0
  -23.5670   -5.4870   25.4032 F   0  0  0  0  0  0  0  0  0  0  0  0
  1  2  1  0  0  0  0
  1  5  2  0  0  0  0
  2  6  2  0  0  0  0
  3  8  2  0  0  0  0
  3 16  1  0  0  0  0
  4  9  1  0  0  0  0
  4 16  2  0  0  0  0
  5 18  1  0  0  0  0
  6 20  1  0  0  0  0
  7 10  2  0  0  0  0
  7 19  1  0  0  0  0
  8 22  1  0  0  0  0
  9 22  2  0  0  0  0
 10 23  1  0  0  0  0
 11 12  2  0  0  0  0
 11 24  1  0  0  0  0
 12 25  1  0  0  0  0
 13 21  1  0  0  0  0
 13 23  2  0  0  0  0
 14 25  2  0  0  0  0
 14 26  1  0  0  0  0
 15 30  1  0  0  0  0
 15 68  2  0  0  0  0
 16 27  1  0  0  0  0
 17 27  1  0  0  0  0
 17 31  2  0  0  0  0
 17 32  1  0  0  0  0
 18 20  2  0  0  0  0
 18 37  1  0  0  0  0
 19 21  2  0  0  0  0
 19 38  1  0  0  0  0
 20 51  1  0  0  0  0
 21 39  1  0  0  0  0
 22 87  1  0  0  0  0
 23 88  1  0  0  0  0
 24 26  2  0  0  0  0
 24 87  1  0  0  0  0
 25 89  1  0  0  0  0
 26 90  1  0  0  0  0
 27 69  2  0  0  0  0
 28 29  2  0  0  0  0
 28 52  1  0  0  0  0
 28 68  1  0  0  0  0
 29 61  1  0  0  0  0
 29 70  1  0  0  0  0
 30 70  2  0  0  0  0
 30 77  1  0  0  0  0
 31 71  1  0  0  0  0
 31 75  1  0  0  0  0
 32 76  1  0  0  0  0
 32 82  2  0  0  0  0
 33 53  1  0  0  0  0
 33 78  1  0  0  0  0
 33 83  2  0  0  0  0
 34 65  1  0  0  0  0
 34 72  1  0  0  0  0
 34 84  2  0  0  0  0
 35 66  1  0  0  0  0
 35 79  1  0  0  0  0
 35 85  2  0  0  0  0
 36 73  1  0  0  0  0
 36 77  1  0  0  0  0
 36 86  2  0  0  0  0
 37 40  1  0  0  0  0
 38 53  1  0  0  0  0
 39 72  1  0  0  0  0
 40 42  1  0  0  0  0
 41 45  1  0  0  0  0
 41 47  1  0  0  0  0
 42 51  1  0  0  0  0
 43 44  1  0  0  0  0
 43 52  1  0  0  0  0
 44 52  1  0  0  0  0
 45 54  1  0  0  0  0
 46 48  1  0  0  0  0
 46 55  1  0  0  0  0
 47 73  1  0  0  0  0
 48 74  1  0  0  0  0
 49 54  1  0  0  0  0
 49 73  1  0  0  0  0
 50 55  1  0  0  0  0
 50 74  1  0  0  0  0
 51 78  1  0  0  0  0
 53 72  1  0  0  0  0
 54 71  1  0  0  0  0
 55 80  1  0  0  0  0
 56 66  1  0  0  0  0
 57 67  1  0  0  0  0
 58 67  1  0  0  0  0
 59 67  1  0  0  0  0
 60 81  1  0  0  0  0
 61 62  1  0  0  0  0
 62 74  1  0  0  0  0
 63 64  1  0  0  0  0
 63 80  1  0  0  0  0
 64 88  1  0  0  0  0
 65 67  1  0  0  0  0
 65 79  1  0  0  0  0
 66 81  1  0  0  0  0
 69 71  1  0  0  0  0
M  CHG  2  80   1  81   1
M  ISO  4  36 100  64 101  77 100  88 101
M  END
> <Batch ID>
0196

> <Smiles>
CNC(C)C(=O)NC(C(=O)N1Cc2cc([101O:1][101CH2:1]CNC3CCN(CCc4nc([100NH:0][100C:0](=O)N5CCCC(n6nc(-c7ccc(Oc8ccc(F)cc8F)cc7)c(C(N)=O)c6N)C5)cnc4C4CC4)C3)ccc2CC1C(=O)NC1CCCc2ccccc21)C(C)(C)C

> <Shape>
0.311

> <Color>
0.077

> <Negative vol penalty>
0.000

$$$$

  -OEChem-04052323393D

 81 90  0     1  0  0  0  0  0999 V2000
  -17.9787  -33.3418   17.5039 C   0  0  0  0  0  0  0  0  0  0  0  0
  -19.2667  -33.1418   17.0176 C   0  0  0  0  0  0  0  0  0  0  0  0
  -26.9551  -11.8014   20.8653 C   0  0  0  0  0  0  0  0  0  0  0  0
  -25.7052  -13.8659   20.9781 C   0  0  0  0  0  0  0  0  0  0  0  0
  -17.7889  -33.7610   18.8200 C   0  0  0  0  0  0  0  0  0  0  0  0
  -20.3658  -33.3620   17.8470 C   0  0  0  0  0  0  0  0  0  0  0  0
  -25.0796  -28.0942   19.2337 C   0  0  0  0  0  0  0  0  0  0  0  0
  -25.8668  -11.1132   21.4015 C   0  0  0  0  0  0  0  0  0  0  0  0
  -24.6169  -13.1777   21.5143 C   0  0  0  0  0  0  0  0  0  0  0  0
  -26.1396  -27.1989   19.3782 C   0  0  0  0  0  0  0  0  0  0  0  0
  -22.9032   -9.9028   20.3129 C   0  0  0  0  0  0  0  0  0  0  0  0
  -22.5409   -8.6959   19.7149 C   0  0  0  0  0  0  0  0  0  0  0  0
  -27.2637  -28.7514   20.8528 C   0  0  0  0  0  0  0  0  0  0  0  0
  -22.9255   -7.5452   21.8042 C   0  0  0  0  0  0  0  0  0  0  0  0
  -26.8743  -13.1777   20.6536 C   0  0  0  0  0  0  0  0  0  0  0  0
  -29.2933  -13.9877   20.6436 C   0  0  0  0  0  0  0  0  0  0  0  0
  -18.8859  -33.9772   19.6688 C   0  0  0  0  0  0  0  0  0  0  0  0
  -25.1004  -29.3165   19.9111 C   0  0  0  0  0  0  0  0  0  0  0  0
  -20.1906  -33.7858   19.1753 C   0  0  0  0  0  0  0  0  0  0  0  0
  -26.1989  -29.6469   20.7217 C   0  0  0  0  0  0  0  0  0  0  0  0
  -24.6977  -11.8013   21.7260 C   0  0  0  0  0  0  0  0  0  0  0  0
  -27.2290  -27.5269   20.1856 C   0  0  0  0  0  0  0  0  0  0  0  0
  -23.2767   -9.9309   21.6566 C   0  0  0  0  0  0  0  0  0  0  0  0
  -22.5520   -7.5171   20.4605 C   0  0  0  0  0  0  0  0  0  0  0  0
  -23.2878   -8.7521   22.4022 C   0  0  0  0  0  0  0  0  0  0  0  0
  -27.9984  -13.8893   20.1002 C   0  0  0  0  0  0  0  0  0  0  0  0
  -29.9841  -14.7651   19.7464 C   0  0  0  0  0  0  0  0  0  0  0  0
  -29.8244  -13.4264   21.8514 C   0  0  0  0  0  0  0  0  0  0  0  0
  -23.3401  -32.5448   20.6563 C   0  0  0  0  0  0  0  0  0  0  0  0
  -24.5949  -31.5864   23.2864 C   0  0  0  0  0  0  0  0  0  0  0  0
  -25.3353  -30.9272   26.5505 C   0  0  0  0  0  0  0  0  0  0  0  0
  -30.2078  -19.3283   16.6676 C   0  0  0  0  0  0  0  0  0  0  0  0
  -18.6328  -34.4757   21.0696 C   0  0  0  0  0  0  0  0  0  0  0  0
  -24.0092  -30.3374   19.7362 C   0  0  0  0  0  0  0  0  0  0  0  0
  -26.1944  -30.9876   21.4039 C   0  0  0  0  0  0  0  0  0  0  0  0
  -19.8365  -34.3256   21.9963 C   0  0  0  0  0  0  0  0  0  0  0  0
  -28.7858  -16.3066   15.0993 C   0  0  0  0  0  0  0  0  0  0  0  0
  -21.1054  -34.8174   21.3071 C   0  0  0  0  0  0  0  0  0  0  0  0
  -28.5137  -15.4400   16.3254 C   0  0  0  0  0  0  0  0  0  0  0  0
  -30.8944  -22.3524   14.4419 C   0  0  0  0  0  0  0  0  0  0  0  0
  -28.5931  -17.7936   15.3938 C   0  0  0  0  0  0  0  0  0  0  0  0
  -29.1167  -17.4094   17.7859 C   0  0  0  0  0  0  0  0  0  0  0  0
  -31.1711  -24.9627   16.4344 C   0  0  0  0  0  0  0  0  0  0  0  0
  -31.0856  -23.6879   18.0758 C   0  0  0  0  0  0  0  0  0  0  0  0
  -21.4073  -33.9903   20.0516 C   0  0  1  0  0  0  0  0  0  0  0  0
  -23.7220  -31.1396   21.0181 C   0  0  1  0  0  0  0  0  0  0  0  0
  -29.3527  -15.9144   17.5218 C   0  0  1  0  0  0  0  0  0  0  0  0
  -30.6360  -22.6125   15.8993 C   0  0  1  0  0  0  0  0  0  0  0  0
  -31.1527  -21.2679   15.4522 C   0  0  1  0  0  0  0  0  0  0  0  0
  -31.4124  -25.1885   17.9404 C   0  0  0  0  0  0  0  0  0  0  0  0
  -25.7292  -32.0688   28.7503 C   0  0  0  0  0  0  0  0  0  0  0  0
  -27.3676  -32.4386   22.3433 C   0  0  0  0  0  0  0  0  0  0  0  0
  -28.0317  -32.6830   24.7449 C   0  0  0  0  0  0  0  0  0  0  0  0
  -26.2064  -34.1012   23.8068 C   0  0  0  0  0  0  0  0  0  0  0  0
  -23.0494  -29.5354   27.8141 C   0  0  0  0  0  0  0  0  0  0  0  0
  -30.6117  -26.2461   20.0346 C   0  0  0  0  0  0  0  0  0  0  0  0
  -29.5542  -27.1957   20.5620 C   0  0  0  0  0  0  0  0  0  1  0  0
  -25.7797  -31.6432   24.2172 C   0  0  1  0  0  0  0  0  0  0  0  0
  -24.7024  -31.4077   27.8440 C   0  0  2  0  0  0  0  0  0  0  0  0
  -26.8363  -32.6917   23.7683 C   0  0  0  0  0  0  0  0  0  0  0  0
  -27.8714  -14.5514   18.9472 N   0  0  0  0  0  0  0  0  0  0  0  0
  -29.0954  -15.0734   18.7588 N   0  0  0  0  0  0  0  0  0  0  0  0
  -24.8568  -31.2700   21.9478 N   0  0  0  0  0  0  0  0  0  0  0  0
  -29.3546  -18.2133   16.5808 N   0  0  0  0  0  0  0  0  0  0  0  0
  -31.5069  -23.5335   16.6599 N   0  0  0  0  0  0  0  0  0  0  0  0
  -31.2588  -15.2082   19.7139 N   0  0  0  0  0  0  0  0  0  0  0  0
  -29.7357  -14.1764   23.0320 N   0  0  0  0  0  0  0  0  0  0  0  0
  -21.9906  -32.7163   20.4139 N   0  0  0  0  0  0  0  0  0  0  0  0
  -25.2390  -31.8738   25.5525 N   0  0  0  0  0  0  0  0  0  0  0  0
  -30.3225  -20.0947   15.5133 N   0  0  0  0  0  0  0  0  0  0  0  0
  -30.4253  -26.0683   18.5724 N   0  3  0  0  0  0  0  0  0  0  0  0
  -24.0942  -30.2631   28.5795 N   0  3  0  0  0  0  0  0  0  0  0  0
  -30.3763  -12.3003   21.8794 O   0  0  0  0  0  0  0  0  0  0  0  0
  -24.2051  -33.4111   20.6023 O   0  0  0  0  0  0  0  0  0  0  0  0
  -23.4674  -31.8213   23.7301 O   0  0  0  0  0  0  0  0  0  0  0  0
  -25.8655  -29.8242   26.4379 O   0  0  0  0  0  0  0  0  0  0  0  0
  -30.8196  -19.6248   17.6998 O   0  0  0  0  0  0  0  0  0  0  0  0
  -23.6354  -11.1301   22.2491 O   0  0  0  0  0  0  0  0  0  0  0  0
  -28.2585  -26.6463   20.3259 O   0  0  0  0  0  0  0  0  0  1  0  0
  -22.2025   -6.3584   19.8865 F   0  0  0  0  0  0  0  0  0  0  0  0
  -23.6446   -8.7730   23.6938 F   0  0  0  0  0  0  0  0  0  0  0  0
  1  2  1  0  0  0  0
  1  5  2  0  0  0  0
  2  6  2  0  0  0  0
  3  8  2  0  0  0  0
  3 15  1  0  0  0  0
  4  9  1  0  0  0  0
  4 15  2  0  0  0  0
  5 17  1  0  0  0  0
  6 19  1  0  0  0  0
  7 10  2  0  0  0  0
  7 18  1  0  0  0  0
  8 21  1  0  0  0  0
  9 21  2  0  0  0  0
 10 22  1  0  0  0  0
 11 12  2  0  0  0  0
 11 23  1  0  0  0  0
 12 24  1  0  0  0  0
 13 20  1  0  0  0  0
 13 22  2  0  0  0  0
 14 24  2  0  0  0  0
 14 25  1  0  0  0  0
 15 26  1  0  0  0  0
 16 26  1  0  0  0  0
 16 27  2  0  0  0  0
 16 28  1  0  0  0  0
 17 19  2  0  0  0  0
 17 33  1  0  0  0  0
 18 20  2  0  0  0  0
 18 34  1  0  0  0  0
 19 45  1  0  0  0  0
 20 35  1  0  0  0  0
 21 78  1  0  0  0  0
 22 79  1  0  0  0  0
 23 25  2  0  0  0  0
 23 78  1  0  0  0  0
 24 80  1  0  0  0  0
 25 81  1  0  0  0  0
 26 61  2  0  0  0  0
 27 62  1  0  0  0  0
 27 66  1  0  0  0  0
 28 67  1  0  0  0  0
 28 73  2  0  0  0  0
 29 46  1  0  0  0  0
 29 68  1  0  0  0  0
 29 74  2  0  0  0  0
 30 58  1  0  0  0  0
 30 63  1  0  0  0  0
 30 75  2  0  0  0  0
 31 59  1  0  0  0  0
 31 69  1  0  0  0  0
 31 76  2  0  0  0  0
 32 64  1  0  0  0  0
 32 70  1  0  0  0  0
 32 77  2  0  0  0  0
 33 36  1  0  0  0  0
 34 46  1  0  0  0  0
 35 63  1  0  0  0  0
 36 38  1  0  0  0  0
 37 39  1  0  0  0  0
 37 41  1  0  0  0  0
 38 45  1  0  0  0  0
 39 47  1  0  0  0  0
 40 48  1  0  0  0  0
 40 49  1  0  0  0  0
 41 64  1  0  0  0  0
 42 47  1  0  0  0  0
 42 64  1  0  0  0  0
 43 50  1  0  0  0  0
 43 65  1  0  0  0  0
 44 50  1  0  0  0  0
 44 65  1  0  0  0  0
 45 68  1  0  0  0  0
 46 63  1  0  0  0  0
 47 62  1  0  0  0  0
 48 49  1  0  0  0  0
 48 65  1  0  0  0  0
 49 70  1  0  0  0  0
 50 71  1  0  0  0  0
 51 59  1  0  0  0  0
 52 60  1  0  0  0  0
 53 60  1  0  0  0  0
 54 60  1  0  0  0  0
 55 72  1  0  0  0  0
 56 57  1  0  0  0  0
 56 71  1  0  0  0  0
 57 79  1  0  0  0  0
 58 60  1  0  0  0  0
 58 69  1  0  0  0  0
 59 72  1  0  0  0  0
 61 62  1  0  0  0  0
M  CHG  2  71   1  72   1
M  ISO  4  32 100  57 101  70 100  79 101
M  END
> <Batch ID>
0196

> <Smiles>
CNC(C)C(=O)NC(C(=O)N1Cc2cc([101O:1][101CH2:1]CNC3CN(C4CC4[100NH:0][100C:0](=O)N4CCCC(n5nc(-c6ccc(Oc7ccc(F)cc7F)cc6)c(C(N)=O)c5N)C4)C3)ccc2CC1C(=O)NC1CCCc2ccccc21)C(C)(C)C

> <Shape>
0.271

> <Color>
0.104

> <Negative vol penalty>
0.000

$$$$
