
  -OEChem-04052323453D

 83 92  0     1  0  0  0  0  0999 V2000
  -28.2739  -24.7767   16.5405 C   0  0  0  0  0  0  0  0  0  0  0  0
  -27.1583  -24.8416   17.3691 C   0  0  0  0  0  0  0  0  0  0  0  0
  -26.5080  -13.3848   20.5738 C   0  0  0  0  0  0  0  0  0  0  0  0
  -24.1342  -13.6200   20.9571 C   0  0  0  0  0  0  0  0  0  0  0  0
  -29.4441  -25.4468   16.8950 C   0  0  0  0  0  0  0  0  0  0  0  0
  -27.2126  -25.5758   18.5534 C   0  0  0  0  0  0  0  0  0  0  0  0
  -23.0974  -28.4433   19.2516 C   0  0  0  0  0  0  0  0  0  0  0  0
  -26.4200  -12.0234   20.8642 C   0  0  0  0  0  0  0  0  0  0  0  0
  -24.0462  -12.2586   21.2475 C   0  0  0  0  0  0  0  0  0  0  0  0
  -21.9460  -27.8040   19.7092 C   0  0  0  0  0  0  0  0  0  0  0  0
  -23.9345   -9.3495   19.5312 C   0  0  0  0  0  0  0  0  0  0  0  0
  -22.8825   -8.6333   18.9602 C   0  0  0  0  0  0  0  0  0  0  0  0
  -22.4120  -28.5787   21.9457 C   0  0  0  0  0  0  0  0  0  0  0  0
  -22.0782   -8.0575   21.1644 C   0  0  0  0  0  0  0  0  0  0  0  0
  -18.2256  -21.5270   19.9332 C   0  0  0  0  0  0  0  0  0  0  0  0
  -25.3651  -14.1832   20.6203 C   0  0  0  0  0  0  0  0  0  0  0  0
  -25.3125  -16.2017   19.0613 C   0  0  0  0  0  0  0  0  0  0  0  0
  -29.5096  -26.1975   18.0794 C   0  0  0  0  0  0  0  0  0  0  0  0
  -23.9220  -29.1472   20.1411 C   0  0  0  0  0  0  0  0  0  0  0  0
  -28.3851  -26.2555   18.9247 C   0  0  0  0  0  0  0  0  0  0  0  0
  -23.5719  -29.2282   21.4964 C   0  0  0  0  0  0  0  0  0  0  0  0
  -18.9756  -23.8190   21.1139 C   0  0  0  0  0  0  0  0  0  0  0  0
  -25.1891  -11.4603   21.2010 C   0  0  0  0  0  0  0  0  0  0  0  0
  -21.6047  -27.8692   21.0569 C   0  0  0  0  0  0  0  0  0  0  0  0
  -24.0584   -9.4197   20.9188 C   0  0  0  0  0  0  0  0  0  0  0  0
  -21.9544   -7.9873   19.7768 C   0  0  0  0  0  0  0  0  0  0  0  0
  -23.1302   -8.7737   21.7354 C   0  0  0  0  0  0  0  0  0  0  0  0
  -25.4554  -15.5897   20.3210 C   0  0  0  0  0  0  0  0  0  0  0  0
  -19.7054  -22.6545   21.2393 C   0  0  0  0  0  0  0  0  0  0  0  0
  -17.8353  -23.7288   20.3420 C   0  0  0  0  0  0  0  0  0  0  0  0
  -25.4844  -17.5417   19.3091 C   0  0  0  0  0  0  0  0  0  0  0  0
  -25.0478  -15.6117   17.7817 C   0  0  0  0  0  0  0  0  0  0  0  0
  -26.9397  -28.8692   21.1001 C   0  0  0  0  0  0  0  0  0  0  0  0
  -26.3004  -31.6557   22.6327 C   0  0  0  0  0  0  0  0  0  0  0  0
  -23.9703  -33.7465   23.9913 C   0  0  0  0  0  0  0  0  0  0  0  0
  -24.3191  -22.0245   22.5347 C   0  0  0  0  0  0  0  0  0  0  0  0
  -30.8115  -26.8660   18.4441 C   0  0  0  0  0  0  0  0  0  0  0  0
  -25.1462  -29.8538   19.6270 C   0  0  0  0  0  0  0  0  0  0  0  0
  -24.4126  -29.9882   22.4885 C   0  0  0  0  0  0  0  0  0  0  0  0
  -30.6670  -27.9293   19.5297 C   0  0  0  0  0  0  0  0  0  0  0  0
  -27.1378  -19.9664   23.4021 C   0  0  0  0  0  0  0  0  0  0  0  0
  -29.8141  -27.4049   20.6805 C   0  0  0  0  0  0  0  0  0  0  0  0
  -26.9160  -18.6748   22.6220 C   0  0  0  0  0  0  0  0  0  0  0  0
  -25.8115  -20.5654   23.8507 C   0  0  0  0  0  0  0  0  0  0  0  0
  -21.8809  -21.2393   21.9880 C   0  0  0  0  0  0  0  0  0  0  0  0
  -22.3092  -23.2745   21.5782 C   0  0  0  0  0  0  0  0  0  0  0  0
  -24.6461  -19.5725   21.8989 C   0  0  0  0  0  0  0  0  0  0  0  0
  -28.3970  -27.0619   20.2052 C   0  0  1  0  0  0  0  0  0  0  0  0
  -21.0450  -22.5389   22.0791 C   0  0  0  0  0  0  0  0  0  0  0  0
  -26.1876  -30.1107   20.7118 C   0  0  1  0  0  0  0  0  0  0  0  0
  -25.9643  -18.9170   21.4417 C   0  0  2  0  0  0  0  0  0  0  0  0
  -23.7542  -35.9319   25.2057 C   0  0  0  0  0  0  0  0  0  0  0  0
  -27.2792  -30.3243   25.1977 C   0  0  0  0  0  0  0  0  0  0  0  0
  -26.1737  -32.1613   26.4905 C   0  0  0  0  0  0  0  0  0  0  0  0
  -28.0226  -32.6939   24.9030 C   0  0  0  0  0  0  0  0  0  0  0  0
  -22.3240  -34.9181   21.8289 C   0  0  0  0  0  0  0  0  0  0  0  0
  -19.4142  -25.0975   21.7858 C   0  0  0  0  0  0  0  0  0  0  0  0
  -20.0694  -26.0697   20.8108 C   0  0  0  0  0  0  0  0  0  1  0  0
  -25.7600  -32.0285   23.9921 C   0  0  1  0  0  0  0  0  0  0  0  0
  -23.7551  -35.2426   23.8502 C   0  0  2  0  0  0  0  0  0  0  0  0
  -26.7939  -31.7860   25.1277 C   0  0  0  0  0  0  0  0  0  0  0  0
  -19.3582  -21.4863   20.6604 N   0  0  0  0  0  0  0  0  0  0  0  0
  -17.4291  -22.5946   19.7346 N   0  0  0  0  0  0  0  0  0  0  0  0
  -25.6995  -16.4688   21.2966 N   0  0  0  0  0  0  0  0  0  0  0  0
  -25.7114  -17.6467   20.6498 N   0  0  0  0  0  0  0  0  0  0  0  0
  -25.6032  -30.6569   21.9383 N   0  0  0  0  0  0  0  0  0  0  0  0
  -24.8867  -20.7603   22.7300 N   0  0  0  0  0  0  0  0  0  0  0  0
  -23.0557  -22.0944   21.9968 N   0  0  0  0  0  0  0  0  0  0  0  0
  -17.0438  -24.8920   20.1758 N   0  0  0  0  0  0  0  0  0  0  0  0
  -25.4621  -18.6285   18.5087 N   0  0  0  0  0  0  0  0  0  0  0  0
  -24.8985  -14.2202   17.7055 N   0  0  0  0  0  0  0  0  0  0  0  0
  -27.6097  -28.2666   20.0525 N   0  0  0  0  0  0  0  0  0  0  0  0
  -25.3032  -33.4099   23.8849 N   0  0  0  0  0  0  0  0  0  0  0  0
  -22.4516  -35.5177   23.1821 N   0  3  0  0  0  0  0  0  0  0  0  0
  -24.9632  -16.2964   16.7341 O   0  0  0  0  0  0  0  0  0  0  0  0
  -26.9152  -28.4871   22.2642 O   0  0  0  0  0  0  0  0  0  0  0  0
  -27.3000  -32.2345   22.1997 O   0  0  0  0  0  0  0  0  0  0  0  0
  -23.0486  -32.9559   24.1810 O   0  0  0  0  0  0  0  0  0  0  0  0
  -24.9103  -23.0630   22.8589 O   0  0  0  0  0  0  0  0  0  0  0  0
  -25.1029  -10.1317   21.4842 O   0  0  0  0  0  0  0  0  0  0  0  0
  -20.4818  -27.2456   21.5063 O   0  0  0  0  0  0  0  0  0  1  0  0
  -20.9433   -7.3009   19.2284 F   0  0  0  0  0  0  0  0  0  0  0  0
  -23.2433   -8.8385   23.0691 F   0  0  0  0  0  0  0  0  0  0  0  0
  1  2  1  0  0  0  0
  1  5  2  0  0  0  0
  2  6  2  0  0  0  0
  3  8  2  0  0  0  0
  3 16  1  0  0  0  0
  4  9  1  0  0  0  0
  4 16  2  0  0  0  0
  5 18  1  0  0  0  0
  6 20  1  0  0  0  0
  7 10  2  0  0  0  0
  7 19  1  0  0  0  0
  8 23  1  0  0  0  0
  9 23  2  0  0  0  0
 10 24  1  0  0  0  0
 11 12  2  0  0  0  0
 11 25  1  0  0  0  0
 12 26  1  0  0  0  0
 13 21  1  0  0  0  0
 13 24  2  0  0  0  0
 14 26  2  0  0  0  0
 14 27  1  0  0  0  0
 15 62  2  0  0  0  0
 15 63  1  0  0  0  0
 16 28  1  0  0  0  0
 17 28  1  0  0  0  0
 17 31  2  0  0  0  0
 17 32  1  0  0  0  0
 18 20  2  0  0  0  0
 18 37  1  0  0  0  0
 19 21  2  0  0  0  0
 19 38  1  0  0  0  0
 20 48  1  0  0  0  0
 21 39  1  0  0  0  0
 22 29  2  0  0  0  0
 22 30  1  0  0  0  0
 22 57  1  0  0  0  0
 23 80  1  0  0  0  0
 24 81  1  0  0  0  0
 25 27  2  0  0  0  0
 25 80  1  0  0  0  0
 26 82  1  0  0  0  0
 27 83  1  0  0  0  0
 28 64  2  0  0  0  0
 29 49  1  0  0  0  0
 29 62  1  0  0  0  0
 30 63  2  0  0  0  0
 30 69  1  0  0  0  0
 31 65  1  0  0  0  0
 31 70  1  0  0  0  0
 32 71  1  0  0  0  0
 32 75  2  0  0  0  0
 33 50  1  0  0  0  0
 33 72  1  0  0  0  0
 33 76  2  0  0  0  0
 34 59  1  0  0  0  0
 34 66  1  0  0  0  0
 34 77  2  0  0  0  0
 35 60  1  0  0  0  0
 35 73  1  0  0  0  0
 35 78  2  0  0  0  0
 36 67  1  0  0  0  0
 36 68  1  0  0  0  0
 36 79  2  0  0  0  0
 37 40  1  0  0  0  0
 38 50  1  0  0  0  0
 39 66  1  0  0  0  0
 40 42  1  0  0  0  0
 41 43  1  0  0  0  0
 41 44  1  0  0  0  0
 42 48  1  0  0  0  0
 43 51  1  0  0  0  0
 44 67  1  0  0  0  0
 45 49  1  0  0  0  0
 45 68  1  0  0  0  0
 46 49  1  0  0  0  0
 46 68  1  0  0  0  0
 47 51  1  0  0  0  0
 47 67  1  0  0  0  0
 48 72  1  0  0  0  0
 50 66  1  0  0  0  0
 51 65  1  0  0  0  0
 52 60  1  0  0  0  0
 53 61  1  0  0  0  0
 54 61  1  0  0  0  0
 55 61  1  0  0  0  0
 56 74  1  0  0  0  0
 57 58  1  0  0  0  0
 58 81  1  0  0  0  0
 59 61  1  0  0  0  0
 59 73  1  0  0  0  0
 60 74  1  0  0  0  0
 64 65  1  0  0  0  0
M  CHG  1  74   1
M  ISO  4  36 100  58 101  68 100  81 101
M  END
> <Batch ID>
0197

> <Smiles>
CNC(C)C(=O)NC(C(=O)N1Cc2cc([101O:1][101CH2:1]Cc3c(N)ncnc3C3C[100N:0]([100C:0](=O)N4CCCC(n5nc(-c6ccc(Oc7ccc(F)cc7F)cc6)c(C(N)=O)c5N)C4)C3)ccc2CC1C(=O)NC1CCCc2ccccc21)C(C)(C)C

> <Shape>
0.257

> <Color>
0.075

> <Negative vol penalty>
0.000

$$$$

  -OEChem-04052323453D

 88 97  0     1  0  0  0  0  0999 V2000
  -25.0920  -17.8477   24.3756 C   0  0  0  0  0  0  0  0  0  0  0  0
  -25.5662  -18.8008   23.4800 C   0  0  0  0  0  0  0  0  0  0  0  0
  -23.3830  -14.3903   23.6690 C   0  0  0  0  0  0  0  0  0  0  0  0
  -24.4894  -12.3252   24.2590 C   0  0  0  0  0  0  0  0  0  0  0  0
  -23.7504  -17.8558   24.7550 C   0  0  0  0  0  0  0  0  0  0  0  0
  -24.6987  -19.7620   22.9623 C   0  0  0  0  0  0  0  0  0  0  0  0
  -26.7079  -24.4104   22.9930 C   0  0  0  0  0  0  0  0  0  0  0  0
  -22.8153  -14.4498   24.9417 C   0  0  0  0  0  0  0  0  0  0  0  0
  -23.9218  -12.3847   25.5318 C   0  0  0  0  0  0  0  0  0  0  0  0
  -27.6290  -24.7125   21.9910 C   0  0  0  0  0  0  0  0  0  0  0  0
  -23.7788  -15.3329   28.0602 C   0  0  0  0  0  0  0  0  0  0  0  0
  -23.8072  -16.5582   28.7259 C   0  0  0  0  0  0  0  0  0  0  0  0
  -31.1183  -23.9410   18.8597 C   0  0  0  0  0  0  0  0  0  0  0  0
  -30.3111  -24.9797   19.2895 C   0  0  0  0  0  0  0  0  0  0  0  0
  -25.9042  -25.8675   20.7621 C   0  0  0  0  0  0  0  0  0  0  0  0
  -21.3931  -16.5615   28.8227 C   0  0  0  0  0  0  0  0  0  0  0  0
  -24.2201  -13.3280   23.3276 C   0  0  0  0  0  0  0  0  0  0  0  0
  -24.1272  -13.2056   20.7813 C   0  0  0  0  0  0  0  0  0  0  0  0
  -22.8681  -18.8235   24.2491 C   0  0  0  0  0  0  0  0  0  0  0  0
  -25.3732  -24.8259   22.8817 C   0  0  0  0  0  0  0  0  0  0  0  0
  -23.3437  -19.7823   23.3342 C   0  0  0  0  0  0  0  0  0  0  0  0
  -24.9687  -25.5716   21.7653 C   0  0  0  0  0  0  0  0  0  0  0  0
  -23.0847  -13.4471   25.8731 C   0  0  0  0  0  0  0  0  0  0  0  0
  -27.2266  -25.4387   20.8740 C   0  0  0  0  0  0  0  0  0  0  0  0
  -22.5576  -14.7219   27.7755 C   0  0  0  0  0  0  0  0  0  0  0  0
  -22.6143  -17.1725   29.1072 C   0  0  0  0  0  0  0  0  0  0  0  0
  -21.3647  -15.3362   28.1568 C   0  0  0  0  0  0  0  0  0  0  0  0
  -24.8063  -13.2656   22.0129 C   0  0  0  0  0  0  0  0  0  0  0  0
  -30.5274  -22.7139   18.6351 C   0  0  0  0  0  0  0  0  0  0  0  0
  -28.9664  -24.7224   19.4660 C   0  0  0  0  0  0  0  0  0  1  0  0
  -25.1264  -13.1619   19.8399 C   0  0  0  0  0  0  0  0  0  0  0  0
  -22.7190  -13.1907   20.5121 C   0  0  0  0  0  0  0  0  0  0  0  0
  -22.5684  -23.3403   22.7077 C   0  0  0  0  0  0  0  0  0  0  0  0
  -21.3978  -26.3603   22.8856 C   0  0  0  0  0  0  0  0  0  0  0  0
  -22.2115  -29.5863   21.4899 C   0  0  0  0  0  0  0  0  0  0  0  0
  -30.8184  -15.0201   19.8465 C   0  0  0  0  0  0  0  0  0  0  0  0
  -21.4159  -18.7632   24.6519 C   0  0  0  0  0  0  0  0  0  0  0  0
  -24.3981  -24.5149   23.9839 C   0  0  0  0  0  0  0  0  0  0  0  0
  -23.5522  -26.0585   21.6077 C   0  0  0  0  0  0  0  0  0  0  0  0
  -20.6455  -20.0452   24.3468 C   0  0  0  0  0  0  0  0  0  0  0  0
  -29.6468  -11.7127   19.2423 C   0  0  0  0  0  0  0  0  0  0  0  0
  -20.9501  -20.5273   22.9320 C   0  0  0  0  0  0  0  0  0  0  0  0
  -28.2121  -11.7302   19.7727 C   0  0  0  0  0  0  0  0  0  0  0  0
  -30.6389  -17.8076   18.1675 C   0  0  0  0  0  0  0  0  0  0  0  0
  -30.5763  -12.5679   20.1005 C   0  0  0  0  0  0  0  0  0  0  0  0
  -28.6913  -13.9748   20.8362 C   0  0  0  0  0  0  0  0  0  0  0  0
  -31.2988  -19.1098   17.7374 C   0  0  0  0  0  0  0  0  0  0  0  0
  -31.1543  -19.9745   20.0854 C   0  0  0  0  0  0  0  0  0  0  0  0
  -22.4391  -20.8563   22.7700 C   0  0  1  0  0  0  0  0  0  0  0  0
  -22.9444  -24.5458   23.5220 C   0  0  1  0  0  0  0  0  0  0  0  0
  -27.7052  -13.1714   19.9710 C   0  0  2  0  0  0  0  0  0  0  0  0
  -30.9065  -17.4923   19.6426 C   0  0  1  0  0  0  0  0  0  0  0  0
  -30.4870  -18.6739   20.5375 C   0  0  1  0  0  0  0  0  0  0  0  0
  -30.3028  -18.9960   24.2519 C   0  0  0  0  0  0  0  0  0  0  0  0
  -21.7840  -31.8983   22.3671 C   0  0  0  0  0  0  0  0  0  0  0  0
  -18.8732  -26.2284   21.1770 C   0  0  0  0  0  0  0  0  0  0  0  0
  -19.2219  -28.6395   20.5997 C   0  0  0  0  0  0  0  0  0  0  0  0
  -18.8293  -27.9707   22.9706 C   0  0  0  0  0  0  0  0  0  0  0  0
  -32.2375  -18.7984   22.1784 C   0  0  0  0  0  0  0  0  0  0  0  0
  -25.0765  -30.3076   21.3158 C   0  0  0  0  0  0  0  0  0  0  0  0
  -31.3523  -21.5625   18.1724 C   0  0  0  0  0  0  0  0  0  0  0  0
  -29.9594  -19.2158   22.8179 C   0  0  0  0  0  0  0  0  0  0  0  0
  -21.0463  -27.4315   21.8816 C   0  0  1  0  0  0  0  0  0  0  0  0
  -22.7993  -30.7744   22.2297 C   0  0  2  0  0  0  0  0  0  0  0  0
  -19.5130  -27.5483   21.6520 C   0  0  0  0  0  0  0  0  0  0  0  0
  -26.1343  -13.2605   21.8702 N   0  0  0  0  0  0  0  0  0  0  0  0
  -29.2084  -22.4907   18.8161 N   0  0  0  0  0  0  0  0  0  0  0  0
  -28.4151  -23.5115   19.2383 N   0  0  0  0  0  0  0  0  0  0  0  0
  -26.2977  -13.1967   20.5378 N   0  0  0  0  0  0  0  0  0  0  0  0
  -22.6345  -25.7237   22.7092 N   0  0  0  0  0  0  0  0  0  0  0  0
  -30.0391  -13.9227   20.2484 N   0  0  0  0  0  0  0  0  0  0  0  0
  -25.1087  -13.0973   18.4916 N   0  0  0  0  0  0  0  0  0  0  0  0
  -21.8311  -13.2415   21.5954 N   0  0  0  0  0  0  0  0  0  0  0  0
  -22.7413  -22.1389   23.3683 N   0  0  0  0  0  0  0  0  0  0  0  0
  -21.6744  -28.6591   22.3578 N   0  0  0  0  0  0  0  0  0  0  0  0
  -30.2317  -16.2683   20.0150 N   0  0  0  0  0  0  0  0  0  0  0  0
  -30.8392  -18.4455   21.9409 N   0  0  1  0  0  0  0  0  0  0  0  0
  -30.8295  -20.2290   18.6323 N   0  3  1  0  0  0  0  0  0  0  0  0
  -23.9880  -31.3015   21.5016 N   0  3  0  0  0  0  0  0  0  0  0  0
  -22.2616  -13.1175   19.3464 O   0  0  0  0  0  0  0  0  0  0  0  0
  -22.1509  -23.4891   21.5653 O   0  0  0  0  0  0  0  0  0  0  0  0
  -20.6075  -26.1029   23.7971 O   0  0  0  0  0  0  0  0  0  0  0  0
  -22.2239  -29.4921   20.2646 O   0  0  0  0  0  0  0  0  0  0  0  0
  -31.9508  -14.8963   19.3678 O   0  0  0  0  0  0  0  0  0  0  0  0
  -22.5311  -13.5050   27.1152 O   0  0  0  0  0  0  0  0  0  0  0  0
  -28.1235  -25.7344   19.8942 O   0  0  0  0  0  0  0  0  0  1  0  0
  -22.6418  -18.3485   29.7480 F   0  0  0  0  0  0  0  0  0  0  0  0
  -20.1885  -14.7534   27.8872 F   0  0  0  0  0  0  0  0  0  0  0  0
  1  2  1  0  0  0  0
  1  5  2  0  0  0  0
  2  6  2  0  0  0  0
  3  8  2  0  0  0  0
  3 17  1  0  0  0  0
  4  9  1  0  0  0  0
  4 17  2  0  0  0  0
  5 19  1  0  0  0  0
  6 21  1  0  0  0  0
  7 10  2  0  0  0  0
  7 20  1  0  0  0  0
  8 23  1  0  0  0  0
  9 23  2  0  0  0  0
 10 24  1  0  0  0  0
 11 12  2  0  0  0  0
 11 25  1  0  0  0  0
 12 26  1  0  0  0  0
 13 14  2  0  0  0  0
 13 29  1  0  0  0  0
 14 30  1  0  0  0  0
 15 22  1  0  0  0  0
 15 24  2  0  0  0  0
 16 26  2  0  0  0  0
 16 27  1  0  0  0  0
 17 28  1  0  0  0  0
 18 28  1  0  0  0  0
 18 31  2  0  0  0  0
 18 32  1  0  0  0  0
 19 21  2  0  0  0  0
 19 37  1  0  0  0  0
 20 22  2  0  0  0  0
 20 38  1  0  0  0  0
 21 49  1  0  0  0  0
 22 39  1  0  0  0  0
 23 85  1  0  0  0  0
 24 86  1  0  0  0  0
 25 27  2  0  0  0  0
 25 85  1  0  0  0  0
 26 87  1  0  0  0  0
 27 88  1  0  0  0  0
 28 66  2  0  0  0  0
 29 61  1  0  0  0  0
 29 67  2  0  0  0  0
 30 68  2  0  0  0  0
 30 86  1  0  0  0  0
 31 69  1  0  0  0  0
 31 72  1  0  0  0  0
 32 73  1  0  0  0  0
 32 80  2  0  0  0  0
 33 50  1  0  0  0  0
 33 74  1  0  0  0  0
 33 81  2  0  0  0  0
 34 63  1  0  0  0  0
 34 70  1  0  0  0  0
 34 82  2  0  0  0  0
 35 64  1  0  0  0  0
 35 75  1  0  0  0  0
 35 83  2  0  0  0  0
 36 71  1  0  0  0  0
 36 76  1  0  0  0  0
 36 84  2  0  0  0  0
 37 40  1  0  0  0  0
 38 50  1  0  0  0  0
 39 70  1  0  0  0  0
 40 42  1  0  0  0  0
 41 43  1  0  0  0  0
 41 45  1  0  0  0  0
 42 49  1  0  0  0  0
 43 51  1  0  0  0  0
 44 47  1  0  0  0  0
 44 52  1  0  0  0  0
 45 71  1  0  0  0  0
 46 51  1  0  0  0  0
 46 71  1  0  0  0  0
 47 78  1  0  0  0  0
 48 53  1  0  0  0  0
 48 78  1  0  0  0  0
 49 74  1  0  0  0  0
 50 70  1  0  0  0  0
 51 69  1  0  0  0  0
 52 53  1  0  0  0  0
 52 76  1  0  0  0  0
 53 77  1  0  0  0  0
 54 62  1  0  0  0  0
 55 64  1  0  0  0  0
 56 65  1  0  0  0  0
 57 65  1  0  0  0  0
 58 65  1  0  0  0  0
 59 77  1  0  0  0  0
 60 79  1  0  0  0  0
 61 78  1  0  0  0  0
 62 77  1  0  0  0  0
 63 65  1  0  0  0  0
 63 75  1  0  0  0  0
 64 79  1  0  0  0  0
 66 69  1  0  0  0  0
 67 68  1  0  0  0  0
M  CHG  2  78   1  79   1
M  ISO  4  30 101  36 100  76 100  86 101
M  END
> <Batch ID>
0197

> <Smiles>
CCN(C)C1CN(Cc2cc[101c:1]([101O:1]c3ccc4c(c3)CN(C(=O)C(NC(=O)C(C)NC)C(C)(C)C)C(C(=O)NC3CCCc5ccccc53)C4)nn2)CCC1[100NH:0][100C:0](=O)N1CCCC(n2nc(-c3ccc(Oc4ccc(F)cc4F)cc3)c(C(N)=O)c2N)C1

> <Shape>
0.207

> <Color>
0.088

> <Negative vol penalty>
0.000

$$$$

  -OEChem-04052323453D

 86 96  0     1  0  0  0  0  0999 V2000
  -33.5152  -15.0123   24.5775 C   0  0  0  0  0  0  0  0  0  0  0  0
  -32.7342  -16.1089   24.2272 C   0  0  0  0  0  0  0  0  0  0  0  0
  -29.9800  -23.7573   19.3587 C   0  0  0  0  0  0  0  0  0  0  0  0
  -27.5782  -23.7995   19.6171 C   0  0  0  0  0  0  0  0  0  0  0  0
  -33.2290  -13.7556   24.0457 C   0  0  0  0  0  0  0  0  0  0  0  0
  -31.6670  -15.9497   23.3439 C   0  0  0  0  0  0  0  0  0  0  0  0
  -26.3250  -18.9427   23.4467 C   0  0  0  0  0  0  0  0  0  0  0  0
  -29.9755  -22.3746   19.5423 C   0  0  0  0  0  0  0  0  0  0  0  0
  -27.5737  -22.4168   19.8007 C   0  0  0  0  0  0  0  0  0  0  0  0
  -25.8530  -20.0440   22.7340 C   0  0  0  0  0  0  0  0  0  0  0  0
  -29.2791  -19.6206   17.7084 C   0  0  0  0  0  0  0  0  0  0  0  0
  -30.0489  -18.8487   16.8383 C   0  0  0  0  0  0  0  0  0  0  0  0
  -24.7837  -18.5602   21.1610 C   0  0  0  0  0  0  0  0  0  0  0  0
  -31.3268  -18.0127   18.7105 C   0  0  0  0  0  0  0  0  0  0  0  0
  -18.9382  -27.5901   22.3558 C   0  0  0  0  0  0  0  0  0  0  0  0
  -28.7814  -24.4698   19.3962 C   0  0  0  0  0  0  0  0  0  0  0  0
  -29.2406  -26.6050   18.0780 C   0  0  0  0  0  0  0  0  0  0  0  0
  -32.1519  -13.5791   23.1629 C   0  0  0  0  0  0  0  0  0  0  0  0
  -26.0386  -17.6396   23.0151 C   0  0  0  0  0  0  0  0  0  0  0  0
  -31.3669  -14.6898   22.7987 C   0  0  0  0  0  0  0  0  0  0  0  0
  -25.2511  -17.4440   21.8715 C   0  0  0  0  0  0  0  0  0  0  0  0
  -28.7724  -21.7043   19.7632 C   0  0  0  0  0  0  0  0  0  0  0  0
  -25.0847  -19.8529   21.5893 C   0  0  0  0  0  0  0  0  0  0  0  0
  -29.5332  -19.5887   19.0796 C   0  0  0  0  0  0  0  0  0  0  0  0
  -31.0728  -18.0447   17.3393 C   0  0  0  0  0  0  0  0  0  0  0  0
  -30.5570  -18.7847   19.5806 C   0  0  0  0  0  0  0  0  0  0  0  0
  -28.7855  -25.8982   19.2072 C   0  0  0  0  0  0  0  0  0  0  0  0
  -29.0305  -27.9256   18.3919 C   0  0  0  0  0  0  0  0  0  0  0  0
  -21.1630  -27.8691   22.4518 C   0  0  0  0  0  0  0  0  0  0  0  0
  -20.3043  -25.9977   21.5587 C   0  0  0  0  0  0  0  0  0  0  0  0
  -29.8029  -26.1120   16.8547 C   0  0  0  0  0  0  0  0  0  0  0  0
  -27.7807  -15.1638   22.0458 C   0  0  0  0  0  0  0  0  0  0  0  0
  -24.9177  -13.6390   22.0682 C   0  0  0  0  0  0  0  0  0  0  0  0
  -21.5162  -13.8597   21.9009 C   0  0  0  0  0  0  0  0  0  0  0  0
  -25.1920  -30.5344   22.2934 C   0  0  0  0  0  0  0  0  0  0  0  0
  -31.9103  -12.2106   22.5769 C   0  0  0  0  0  0  0  0  0  0  0  0
  -26.5327  -16.4622   23.8101 C   0  0  0  0  0  0  0  0  0  0  0  0
  -24.8985  -16.0655   21.3777 C   0  0  0  0  0  0  0  0  0  0  0  0
  -30.5318  -12.0555   21.9398 C   0  0  0  0  0  0  0  0  0  0  0  0
  -28.7627  -30.9121   22.0941 C   0  0  0  0  0  0  0  0  0  0  0  0
  -30.2176  -13.2533   21.0491 C   0  0  0  0  0  0  0  0  0  0  0  0
  -29.2246  -29.7078   21.2803 C   0  0  0  0  0  0  0  0  0  0  0  0
  -22.4182  -21.4743   22.0042 C   0  0  0  0  0  0  0  0  0  0  0  0
  -22.7493  -22.4566   20.1380 C   0  0  0  0  0  0  0  0  0  0  0  0
  -27.5661  -30.5534   22.9650 C   0  0  0  0  0  0  0  0  0  0  0  0
  -23.8289  -28.3000   22.3916 C   0  0  0  0  0  0  0  0  0  0  0  0
  -22.6912  -30.0631   22.0909 C   0  0  0  0  0  0  0  0  0  0  0  0
  -26.8359  -28.8291   21.3379 C   0  0  0  0  0  0  0  0  0  0  0  0
  -30.1856  -14.5526   21.8628 C   0  0  1  0  0  0  0  0  0  0  0  0
  -22.4207  -28.7461   22.8543 C   0  0  0  0  0  0  0  0  0  0  0  0
  -26.6119  -15.1783   22.9899 C   0  0  1  0  0  0  0  0  0  0  0  0
  -28.0613  -29.1391   20.4553 C   0  0  2  0  0  0  0  0  0  0  0  0
  -21.5651  -22.4115   21.1251 C   0  0  0  0  0  0  0  0  0  0  0  0
  -23.2061  -21.0998   20.7262 C   0  0  0  0  0  0  0  0  0  1  0  0
  -19.4473  -12.4395   21.9079 C   0  0  0  0  0  0  0  0  0  0  0  0
  -25.4711  -12.8227   19.1807 C   0  0  0  0  0  0  0  0  0  0  0  0
  -23.0430  -12.2583   18.9482 C   0  0  0  0  0  0  0  0  0  0  0  0
  -24.4555  -11.0281   20.5957 C   0  0  0  0  0  0  0  0  0  0  0  0
  -20.4952  -15.1550   24.3582 C   0  0  0  0  0  0  0  0  0  0  0  0
  -20.5004  -24.6605   20.9072 C   0  0  0  0  0  0  0  0  0  0  0  0
  -23.8111  -13.4277   21.0633 C   0  0  1  0  0  0  0  0  0  0  0  0
  -20.4235  -13.2416   22.7543 C   0  0  2  0  0  0  0  0  0  0  0  0
  -24.2033  -12.4103   19.9550 C   0  0  0  0  0  0  0  0  0  0  0  0
  -19.9545  -28.3867   22.7244 N   0  0  0  0  0  0  0  0  0  0  0  0
  -19.0363  -26.3859   21.7695 N   0  0  0  0  0  0  0  0  0  0  0  0
  -28.3214  -26.7031   20.1668 N   0  0  0  0  0  0  0  0  0  0  0  0
  -21.4149  -26.6842   21.8724 N   0  0  0  0  0  0  0  0  0  0  0  0
  -28.4839  -27.9293   19.6414 N   0  0  0  0  0  0  0  0  0  0  0  0
  -25.4104  -14.9464   22.1857 N   0  0  0  0  0  0  0  0  0  0  0  0
  -26.4693  -29.9733   22.1841 N   0  0  0  0  0  0  0  0  0  0  0  0
  -24.1034  -29.7065   22.1516 N   0  0  0  0  0  0  0  0  0  0  0  0
  -29.2618  -29.0723   17.7181 N   0  0  0  0  0  0  0  0  0  0  0  0
  -29.9483  -24.7270   16.6967 N   0  0  0  0  0  0  0  0  0  0  0  0
  -28.9429  -14.6588   22.5969 N   0  0  0  0  0  0  0  0  0  0  0  0
  -22.6295  -13.0492   21.8309 N   0  0  0  0  0  0  0  0  0  0  0  0
  -21.2780  -23.7042   21.7545 N   0  3  0  0  0  0  0  0  0  0  0  0
  -19.6621  -14.3040   23.4702 N   0  3  0  0  0  0  0  0  0  0  0  0
  -30.1808  -26.8777   15.9359 O   0  0  0  0  0  0  0  0  0  0  0  0
  -27.6382  -15.5787   20.9016 O   0  0  0  0  0  0  0  0  0  0  0  0
  -25.3249  -12.6807   22.7297 O   0  0  0  0  0  0  0  0  0  0  0  0
  -21.3930  -14.9506   21.3483 O   0  0  0  0  0  0  0  0  0  0  0  0
  -25.0255  -31.7362   22.5405 O   0  0  0  0  0  0  0  0  0  0  0  0
  -28.7675  -20.3551   19.9422 O   0  0  0  0  0  0  0  0  0  0  0  0
  -24.6233  -20.9262   20.8914 O   0  0  0  0  0  0  0  0  0  1  0  0
  -31.8109  -17.3022   16.5038 F   0  0  0  0  0  0  0  0  0  0  0  0
  -30.8050  -18.7490   20.8971 F   0  0  0  0  0  0  0  0  0  0  0  0
  1  2  1  0  0  0  0
  1  5  2  0  0  0  0
  2  6  2  0  0  0  0
  3  8  2  0  0  0  0
  3 16  1  0  0  0  0
  4  9  1  0  0  0  0
  4 16  2  0  0  0  0
  5 18  1  0  0  0  0
  6 20  1  0  0  0  0
  7 10  2  0  0  0  0
  7 19  1  0  0  0  0
  8 22  1  0  0  0  0
  9 22  2  0  0  0  0
 10 23  1  0  0  0  0
 11 12  2  0  0  0  0
 11 24  1  0  0  0  0
 12 25  1  0  0  0  0
 13 21  1  0  0  0  0
 13 23  2  0  0  0  0
 14 25  2  0  0  0  0
 14 26  1  0  0  0  0
 15 64  1  0  0  0  0
 15 65  2  0  0  0  0
 16 27  1  0  0  0  0
 17 27  1  0  0  0  0
 17 28  2  0  0  0  0
 17 31  1  0  0  0  0
 18 20  2  0  0  0  0
 18 36  1  0  0  0  0
 19 21  2  0  0  0  0
 19 37  1  0  0  0  0
 20 49  1  0  0  0  0
 21 38  1  0  0  0  0
 22 83  1  0  0  0  0
 23 84  1  0  0  0  0
 24 26  2  0  0  0  0
 24 83  1  0  0  0  0
 25 85  1  0  0  0  0
 26 86  1  0  0  0  0
 27 66  2  0  0  0  0
 28 68  1  0  0  0  0
 28 72  1  0  0  0  0
 29 50  1  0  0  0  0
 29 64  2  0  0  0  0
 29 67  1  0  0  0  0
 30 60  1  0  0  0  0
 30 65  1  0  0  0  0
 30 67  2  0  0  0  0
 31 73  1  0  0  0  0
 31 78  2  0  0  0  0
 32 51  1  0  0  0  0
 32 74  1  0  0  0  0
 32 79  2  0  0  0  0
 33 61  1  0  0  0  0
 33 69  1  0  0  0  0
 33 80  2  0  0  0  0
 34 62  1  0  0  0  0
 34 75  1  0  0  0  0
 34 81  2  0  0  0  0
 35 70  1  0  0  0  0
 35 71  1  0  0  0  0
 35 82  2  0  0  0  0
 36 39  1  0  0  0  0
 37 51  1  0  0  0  0
 38 69  1  0  0  0  0
 39 41  1  0  0  0  0
 40 42  1  0  0  0  0
 40 45  1  0  0  0  0
 41 49  1  0  0  0  0
 42 52  1  0  0  0  0
 43 53  1  0  0  0  0
 43 54  1  0  0  0  0
 44 53  1  0  0  0  0
 44 54  1  0  0  0  0
 45 70  1  0  0  0  0
 46 50  1  0  0  0  0
 46 71  1  0  0  0  0
 47 50  1  0  0  0  0
 47 71  1  0  0  0  0
 48 52  1  0  0  0  0
 48 70  1  0  0  0  0
 49 74  1  0  0  0  0
 51 69  1  0  0  0  0
 52 68  1  0  0  0  0
 53 76  1  0  0  0  0
 54 84  1  0  0  0  0
 55 62  1  0  0  0  0
 56 63  1  0  0  0  0
 57 63  1  0  0  0  0
 58 63  1  0  0  0  0
 59 77  1  0  0  0  0
 60 76  1  0  0  0  0
 61 63  1  0  0  0  0
 61 75  1  0  0  0  0
 62 77  1  0  0  0  0
 66 68  1  0  0  0  0
M  CHG  2  76   1  77   1
M  ISO  4  35 100  54 101  71 100  84 101
M  END
> <Batch ID>
0197

> <Smiles>
CNC(C)C(=O)NC(C(=O)N1Cc2cc([101O:1][101CH:1]3CC(NCc4ncnc(C5C[100N:0]([100C:0](=O)N6CCCC(n7nc(-c8ccc(Oc9ccc(F)cc9F)cc8)c(C(N)=O)c7N)C6)C5)n4)C3)ccc2CC1C(=O)NC1CCCc2ccccc21)C(C)(C)C

> <Shape>
0.237

> <Color>
0.051

> <Negative vol penalty>
0.000

$$$$

  -OEChem-04052323453D

 91102  0     1  0  0  0  0  0999 V2000
  -24.6471  -38.4531   20.8076 C   0  0  0  0  0  0  0  0  0  0  0  0
  -25.3988  -37.5269   20.0916 C   0  0  0  0  0  0  0  0  0  0  0  0
  -23.7783   -8.7225   20.3726 C   0  0  0  0  0  0  0  0  0  0  0  0
  -22.7792  -10.6422   21.4467 C   0  0  0  0  0  0  0  0  0  0  0  0
  -24.1468  -38.1200   22.0656 C   0  0  0  0  0  0  0  0  0  0  0  0
  -25.6516  -36.2674   20.6339 C   0  0  0  0  0  0  0  0  0  0  0  0
  -26.5781  -29.4355   18.6887 C   0  0  0  0  0  0  0  0  0  0  0  0
  -23.5470   -7.9611   21.5182 C   0  0  0  0  0  0  0  0  0  0  0  0
  -22.5479   -9.8808   22.5923 C   0  0  0  0  0  0  0  0  0  0  0  0
  -27.4752  -28.3810   18.8531 C   0  0  0  0  0  0  0  0  0  0  0  0
  -22.8933   -5.4151   24.0293 C   0  0  0  0  0  0  0  0  0  0  0  0
  -22.3665   -4.1345   23.8614 C   0  0  0  0  0  0  0  0  0  0  0  0
  -26.4934  -27.8883   21.0007 C   0  0  0  0  0  0  0  0  0  0  0  0
  -20.4152   -5.0772   22.7932 C   0  0  0  0  0  0  0  0  0  0  0  0
  -30.3797  -22.4470   16.4803 C   0  0  0  0  0  0  0  0  0  0  0  0
  -23.3945  -10.0631   20.3369 C   0  0  0  0  0  0  0  0  0  0  0  0
  -23.1371  -10.6108   17.8587 C   0  0  0  0  0  0  0  0  0  0  0  0
  -24.3854  -36.8523   22.6194 C   0  0  0  0  0  0  0  0  0  0  0  0
  -25.6374  -29.7316   19.6857 C   0  0  0  0  0  0  0  0  0  0  0  0
  -25.1551  -35.9174   21.9010 C   0  0  0  0  0  0  0  0  0  0  0  0
  -25.5837  -28.9455   20.8455 C   0  0  0  0  0  0  0  0  0  0  0  0
  -28.7114  -22.5340   18.5825 C   0  0  0  0  0  0  0  0  0  0  0  0
  -22.9317   -8.5402   22.6280 C   0  0  0  0  0  0  0  0  0  0  0  0
  -27.4349  -27.6091   20.0105 C   0  0  0  0  0  0  0  0  0  0  0  0
  -22.1810   -6.5268   23.5792 C   0  0  0  0  0  0  0  0  0  0  0  0
  -21.1275   -3.9656   23.2434 C   0  0  0  0  0  0  0  0  0  0  0  0
  -20.9420   -6.3578   22.9612 C   0  0  0  0  0  0  0  0  0  0  0  0
  -23.6337  -10.8503   19.1540 C   0  0  0  0  0  0  0  0  0  0  0  0
  -29.6253  -23.5360   18.3275 C   0  0  0  0  0  0  0  0  0  0  0  0
  -28.7108  -21.4844   17.6866 C   0  0  0  0  0  0  0  0  0  0  0  0
  -23.6482  -11.6354   17.1002 C   0  0  0  0  0  0  0  0  0  0  0  0
  -22.2895   -9.5565   17.3837 C   0  0  0  0  0  0  0  0  0  0  0  0
  -25.0590  -32.2404   21.5498 C   0  0  0  0  0  0  0  0  0  0  0  0
  -22.4672  -30.4985   22.4278 C   0  0  0  0  0  0  0  0  0  0  0  0
  -21.0013  -27.4303   22.7173 C   0  0  0  0  0  0  0  0  0  0  0  0
  -25.2936  -17.0543   18.2647 C   0  0  0  0  0  0  0  0  0  0  0  0
  -23.8639  -36.5546   24.0029 C   0  0  0  0  0  0  0  0  0  0  0  0
  -24.6591  -30.8557   19.4814 C   0  0  0  0  0  0  0  0  0  0  0  0
  -24.5796  -29.2094   21.9366 C   0  0  0  0  0  0  0  0  0  0  0  0
  -23.8603  -35.0670   24.3454 C   0  0  0  0  0  0  0  0  0  0  0  0
  -27.3774  -14.6120   16.8391 C   0  0  0  0  0  0  0  0  0  0  0  0
  -25.1886  -34.4262   23.9556 C   0  0  0  0  0  0  0  0  0  0  0  0
  -26.6005  -13.3324   17.1471 C   0  0  0  0  0  0  0  0  0  0  0  0
  -28.5268  -22.5748   21.1135 C   0  0  0  0  0  0  0  0  0  0  0  0
  -26.8053  -23.7844   19.6985 C   0  0  0  0  0  0  0  0  0  0  0  0
  -30.2481  -26.0163   18.6967 C   0  0  0  0  0  0  0  0  0  0  0  0
  -27.3496  -15.5953   18.0103 C   0  0  0  0  0  0  0  0  0  0  0  0
  -26.8108  -20.1315   16.8572 C   0  0  0  0  0  0  0  0  0  0  0  0
  -28.2371  -19.3172   18.7410 C   0  0  0  0  0  0  0  0  0  0  0  0
  -25.6329  -19.3528   17.4367 C   0  0  0  0  0  0  0  0  0  0  0  0
  -27.0320  -18.5642   19.2934 C   0  0  0  0  0  0  0  0  0  0  0  0
  -25.2106  -14.6370   18.8004 C   0  0  0  0  0  0  0  0  0  0  0  0
  -27.5665  -22.6224   22.2934 C   0  0  0  0  0  0  0  0  0  0  0  0
  -25.8670  -23.8164   20.8965 C   0  0  0  0  0  0  0  0  0  0  0  0
  -27.7742  -22.5888   19.7693 C   0  0  0  0  0  0  0  0  0  0  0  0
  -25.4298  -34.5322   22.4449 C   0  0  1  0  0  0  0  0  0  0  0  0
  -29.7083  -24.7193   19.2365 C   0  0  1  0  0  0  0  0  0  0  0  0
  -24.0817  -31.3902   20.7884 C   0  0  1  0  0  0  0  0  0  0  0  0
  -25.1716  -13.6540   17.6200 C   0  0  2  0  0  0  0  0  0  0  0  0
  -28.7860  -25.8870   18.9968 C   0  0  1  0  0  0  0  0  0  1  0  0
  -18.8926  -26.3210   23.5048 C   0  0  0  0  0  0  0  0  0  0  0  0
  -23.3615  -30.8591   25.3227 C   0  0  0  0  0  0  0  0  0  0  0  0
  -21.8196  -28.9919   25.9585 C   0  0  0  0  0  0  0  0  0  0  0  0
  -20.8977  -31.0821   24.9565 C   0  0  0  0  0  0  0  0  0  0  0  0
  -20.4171  -26.3638   20.0191 C   0  0  0  0  0  0  0  0  0  0  0  0
  -22.1826  -29.4687   23.4943 C   0  0  1  0  0  0  0  0  0  0  0  0
  -19.6245  -26.9301   22.3190 C   0  0  2  0  0  0  0  0  0  0  0  0
  -22.0857  -30.0964   24.9135 C   0  0  0  0  0  0  0  0  0  0  0  0
  -30.4777  -23.5248   17.2817 N   0  0  0  0  0  0  0  0  0  0  0  0
  -29.5341  -21.4083   16.6204 N   0  0  0  0  0  0  0  0  0  0  0  0
  -24.4015  -11.9413   19.2183 N   0  0  0  0  0  0  0  0  0  0  0  0
  -24.3912  -12.3965   17.9539 N   0  0  0  0  0  0  0  0  0  0  0  0
  -27.8050  -20.4359   17.8921 N   0  0  0  0  0  0  0  0  0  0  0  0
  -23.6484  -30.3234   21.6930 N   0  0  0  0  0  0  0  0  0  0  0  0
  -25.9701  -15.8397   18.4523 N   0  0  0  0  0  0  0  0  0  0  0  0
  -26.0767  -18.2190   18.2386 N   0  0  0  0  0  0  0  0  0  0  0  0
  -23.5302  -11.9505   15.7928 N   0  0  0  0  0  0  0  0  0  0  0  0
  -20.9016   -9.7488   17.4165 N   0  0  0  0  0  0  0  0  0  0  0  0
  -24.6433  -33.5449   21.7370 N   0  0  0  0  0  0  0  0  0  0  0  0
  -20.9784  -28.7632   23.0695 N   0  0  0  0  0  0  0  0  0  0  0  0
  -26.6729  -23.8100   22.1532 N   0  3  0  0  0  0  0  0  0  0  0  0
  -19.7378  -25.8940   21.2539 N   0  3  0  0  0  0  0  0  0  0  0  0
  -22.7487   -8.4694   16.9584 O   0  0  0  0  0  0  0  0  0  0  0  0
  -26.1115  -31.7489   21.9400 O   0  0  0  0  0  0  0  0  0  0  0  0
  -21.6673  -31.4202   22.2483 O   0  0  0  0  0  0  0  0  0  0  0  0
  -21.9969  -26.7096   22.7195 O   0  0  0  0  0  0  0  0  0  0  0  0
  -24.0650  -17.0976   18.1255 O   0  0  0  0  0  0  0  0  0  0  0  0
  -22.7056   -7.7975   23.7459 O   0  0  0  0  0  0  0  0  0  0  0  0
  -28.3225  -26.5648   20.1761 O   0  0  0  0  0  0  0  0  0  1  0  0
  -20.6225   -2.7356   23.0808 F   0  0  0  0  0  0  0  0  0  0  0  0
  -20.2536   -7.4219   22.5257 F   0  0  0  0  0  0  0  0  0  0  0  0
  1  2  1  0  0  0  0
  1  5  2  0  0  0  0
  2  6  2  0  0  0  0
  3  8  2  0  0  0  0
  3 16  1  0  0  0  0
  4  9  1  0  0  0  0
  4 16  2  0  0  0  0
  5 18  1  0  0  0  0
  6 20  1  0  0  0  0
  7 10  2  0  0  0  0
  7 19  1  0  0  0  0
  8 23  1  0  0  0  0
  9 23  2  0  0  0  0
 10 24  1  0  0  0  0
 11 12  2  0  0  0  0
 11 25  1  0  0  0  0
 12 26  1  0  0  0  0
 13 21  1  0  0  0  0
 13 24  2  0  0  0  0
 14 26  2  0  0  0  0
 14 27  1  0  0  0  0
 15 69  2  0  0  0  0
 15 70  1  0  0  0  0
 16 28  1  0  0  0  0
 17 28  1  0  0  0  0
 17 31  2  0  0  0  0
 17 32  1  0  0  0  0
 18 20  2  0  0  0  0
 18 37  1  0  0  0  0
 19 21  2  0  0  0  0
 19 38  1  0  0  0  0
 20 56  1  0  0  0  0
 21 39  1  0  0  0  0
 22 29  2  0  0  0  0
 22 30  1  0  0  0  0
 22 55  1  0  0  0  0
 23 88  1  0  0  0  0
 24 89  1  0  0  0  0
 25 27  2  0  0  0  0
 25 88  1  0  0  0  0
 26 90  1  0  0  0  0
 27 91  1  0  0  0  0
 28 71  2  0  0  0  0
 29 57  1  0  0  0  0
 29 69  1  0  0  0  0
 30 70  2  0  0  0  0
 30 73  1  0  0  0  0
 31 72  1  0  0  0  0
 31 77  1  0  0  0  0
 32 78  1  0  0  0  0
 32 83  2  0  0  0  0
 33 58  1  0  0  0  0
 33 79  1  0  0  0  0
 33 84  2  0  0  0  0
 34 66  1  0  0  0  0
 34 74  1  0  0  0  0
 34 85  2  0  0  0  0
 35 67  1  0  0  0  0
 35 80  1  0  0  0  0
 35 86  2  0  0  0  0
 36 75  1  0  0  0  0
 36 76  1  0  0  0  0
 36 87  2  0  0  0  0
 37 40  1  0  0  0  0
 38 58  1  0  0  0  0
 39 74  1  0  0  0  0
 40 42  1  0  0  0  0
 41 43  1  0  0  0  0
 41 47  1  0  0  0  0
 42 56  1  0  0  0  0
 43 59  1  0  0  0  0
 44 53  1  0  0  0  0
 44 55  1  0  0  0  0
 45 54  1  0  0  0  0
 45 55  1  0  0  0  0
 46 57  1  0  0  0  0
 46 60  1  0  0  0  0
 47 75  1  0  0  0  0
 48 50  1  0  0  0  0
 48 73  1  0  0  0  0
 49 51  1  0  0  0  0
 49 73  1  0  0  0  0
 50 76  1  0  0  0  0
 51 76  1  0  0  0  0
 52 59  1  0  0  0  0
 52 75  1  0  0  0  0
 53 81  1  0  0  0  0
 54 81  1  0  0  0  0
 56 79  1  0  0  0  0
 57 60  1  0  0  0  0
 58 74  1  0  0  0  0
 59 72  1  0  0  0  0
 60 89  1  0  0  0  0
 61 67  1  0  0  0  0
 62 68  1  0  0  0  0
 63 68  1  0  0  0  0
 64 68  1  0  0  0  0
 65 82  1  0  0  0  0
 66 68  1  0  0  0  0
 66 80  1  0  0  0  0
 67 82  1  0  0  0  0
 71 72  1  0  0  0  0
M  CHG  2  81   1  82   1
M  ISO  4  36 100  60 101  76 100  89 101
M  END
> <Batch ID>
0197

> <Smiles>
CNC(C)C(=O)NC(C(=O)N1Cc2cc([101O:1][101CH:1]3CC3c3ncnc(N4CC[100N:0]([100C:0](=O)N5CCCC(n6nc(-c7ccc(Oc8ccc(F)cc8F)cc7)c(C(N)=O)c6N)C5)CC4)c3C3CCNCC3)ccc2CC1C(=O)NC1CCCc2ccccc21)C(C)(C)C

> <Shape>
0.275

> <Color>
0.087

> <Negative vol penalty>
0.000

$$$$

  -OEChem-04052323453D

 83 92  0     1  0  0  0  0  0999 V2000
  -28.8060  -33.1988   25.3088 C   0  0  0  0  0  0  0  0  0  0  0  0
  -28.7728  -31.9704   24.6567 C   0  0  0  0  0  0  0  0  0  0  0  0
  -22.7708  -10.7303   21.1721 C   0  0  0  0  0  0  0  0  0  0  0  0
  -24.5006   -9.0684   21.4606 C   0  0  0  0  0  0  0  0  0  0  0  0
  -27.6426  -33.7176   25.8757 C   0  0  0  0  0  0  0  0  0  0  0  0
  -27.5762  -31.2594   24.5720 C   0  0  0  0  0  0  0  0  0  0  0  0
  -26.7568  -29.3799   19.9416 C   0  0  0  0  0  0  0  0  0  0  0  0
  -21.9708  -10.0580   22.0961 C   0  0  0  0  0  0  0  0  0  0  0  0
  -23.7006   -8.3961   22.3846 C   0  0  0  0  0  0  0  0  0  0  0  0
  -27.4580  -28.2277   19.5888 C   0  0  0  0  0  0  0  0  0  0  0  0
  -21.0592   -6.2865   22.3238 C   0  0  0  0  0  0  0  0  0  0  0  0
  -20.9638   -4.8996   22.2104 C   0  0  0  0  0  0  0  0  0  0  0  0
  -25.5039  -26.8980   20.0714 C   0  0  0  0  0  0  0  0  0  0  0  0
  -21.8737   -4.6550   24.4351 C   0  0  0  0  0  0  0  0  0  0  0  0
  -24.0357  -10.2354   20.8543 C   0  0  0  0  0  0  0  0  0  0  0  0
  -24.5615  -11.1966   18.5506 C   0  0  0  0  0  0  0  0  0  0  0  0
  -26.4291  -33.0171   25.7895 C   0  0  0  0  0  0  0  0  0  0  0  0
  -25.4250  -29.2986   20.3731 C   0  0  0  0  0  0  0  0  0  0  0  0
  -26.3957  -31.7686   25.1394 C   0  0  0  0  0  0  0  0  0  0  0  0
  -24.7872  -28.0510   20.4266 C   0  0  0  0  0  0  0  0  0  0  0  0
  -22.4357   -8.8910   22.7023 C   0  0  0  0  0  0  0  0  0  0  0  0
  -26.8325  -26.9862   19.6565 C   0  0  0  0  0  0  0  0  0  0  0  0
  -21.5620   -6.8578   23.4928 C   0  0  0  0  0  0  0  0  0  0  0  0
  -21.3710   -4.0838   23.2660 C   0  0  0  0  0  0  0  0  0  0  0  0
  -21.9692   -6.0420   24.5485 C   0  0  0  0  0  0  0  0  0  0  0  0
  -24.8623  -10.9291   19.8995 C   0  0  0  0  0  0  0  0  0  0  0  0
  -25.6605  -11.8737   18.0814 C   0  0  0  0  0  0  0  0  0  0  0  0
  -23.3930  -10.8630   17.7896 C   0  0  0  0  0  0  0  0  0  0  0  0
  -23.8896  -30.0218   23.0607 C   0  0  0  0  0  0  0  0  0  0  0  0
  -21.2679  -29.2613   21.3085 C   0  0  0  0  0  0  0  0  0  0  0  0
  -18.9846  -28.0636   19.0726 C   0  0  0  0  0  0  0  0  0  0  0  0
  -29.8448  -15.2119   20.7646 C   0  0  0  0  0  0  0  0  0  0  0  0
  -25.2077  -33.5959   26.4587 C   0  0  0  0  0  0  0  0  0  0  0  0
  -24.6741  -30.5536   20.7245 C   0  0  0  0  0  0  0  0  0  0  0  0
  -23.3527  -27.9118   20.8639 C   0  0  0  0  0  0  0  0  0  0  0  0
  -23.9004  -32.9553   25.9994 C   0  0  0  0  0  0  0  0  0  0  0  0
  -30.3741  -12.3030   18.7809 C   0  0  0  0  0  0  0  0  0  0  0  0
  -24.0260  -31.4352   25.9874 C   0  0  0  0  0  0  0  0  0  0  0  0
  -28.9943  -11.6452   18.7209 C   0  0  0  0  0  0  0  0  0  0  0  0
  -27.8167  -17.9408   22.3050 C   0  0  0  0  0  0  0  0  0  0  0  0
  -30.6332  -12.9479   20.1407 C   0  0  0  0  0  0  0  0  0  0  0  0
  -28.2162  -13.2407   20.5231 C   0  0  0  0  0  0  0  0  0  0  0  0
  -27.0530  -21.7244   20.4560 C   0  0  0  0  0  0  0  0  0  0  0  0
  -27.9315  -19.4493   22.1504 C   0  0  0  0  0  0  0  0  0  0  0  0
  -28.7541  -18.2915   20.1510 C   0  0  0  0  0  0  0  0  0  0  0  0
  -25.1117  -30.9791   25.0052 C   0  0  1  0  0  0  0  0  0  0  0  0
  -23.4817  -30.2995   21.6415 C   0  0  1  0  0  0  0  0  0  0  0  0
  -27.8867  -12.6251   19.1524 C   0  0  2  0  0  0  0  0  0  0  0  0
  -28.9008  -17.4113   21.3791 C   0  0  2  0  0  0  0  0  0  0  0  0
  -27.4428  -20.3291   19.9271 C   0  0  1  0  0  0  0  0  0  0  0  0
  -28.0357  -21.1024   18.7218 C   0  0  1  0  0  0  0  0  0  0  0  0
  -27.7717  -20.5071   17.3512 C   0  0  0  0  0  0  0  0  0  0  0  0
  -16.5340  -27.5827   18.8260 C   0  0  0  0  0  0  0  0  0  0  0  0
  -21.5882  -26.7607   23.0273 C   0  0  0  0  0  0  0  0  0  0  0  0
  -19.4917  -25.8654   21.9922 C   0  0  0  0  0  0  0  0  0  0  0  0
  -19.4190  -27.9668   23.3344 C   0  0  0  0  0  0  0  0  0  0  0  0
  -18.7179  -29.9714   16.8258 C   0  0  0  0  0  0  0  0  0  0  0  0
  -27.7377  -23.4997   18.9601 C   0  0  0  0  0  0  0  0  0  0  0  0
  -26.8124  -24.6213   19.4062 C   0  0  0  0  0  0  0  0  0  1  0  0
  -20.4891  -27.9954   21.0439 C   0  0  1  0  0  0  0  0  0  0  0  0
  -17.6411  -28.6043   18.6175 C   0  0  2  0  0  0  0  0  0  0  0  0
  -20.2691  -27.1546   22.3332 C   0  0  0  0  0  0  0  0  0  0  0  0
  -26.0588  -11.3978   20.2638 N   0  0  0  0  0  0  0  0  0  0  0  0
  -26.5196  -11.9667   19.1367 N   0  0  0  0  0  0  0  0  0  0  0  0
  -22.6628  -29.1673   21.2033 N   0  0  0  0  0  0  0  0  0  0  0  0
  -29.5472  -13.8669   20.4899 N   0  0  0  0  0  0  0  0  0  0  0  0
  -27.0806  -22.1999   19.0487 N   0  0  2  0  0  0  0  0  0  0  0  0
  -25.9663  -12.3927   16.8733 N   0  0  0  0  0  0  0  0  0  0  0  0
  -23.3669   -9.6389   17.1075 N   0  0  0  0  0  0  0  0  0  0  0  0
  -24.6202  -31.0387   23.6453 N   0  0  0  0  0  0  0  0  0  0  0  0
  -19.2563  -28.4056   20.3805 N   0  0  0  0  0  0  0  0  0  0  0  0
  -28.7568  -16.0163   21.0808 N   0  0  0  0  0  0  0  0  0  0  0  0
  -28.4532  -19.6495   20.7446 N   0  3  1  0  0  0  0  0  0  0  0  0
  -17.6881  -28.9576   17.1705 N   0  3  0  0  0  0  0  0  0  0  0  0
  -22.4080  -11.6349   17.7034 O   0  0  0  0  0  0  0  0  0  0  0  0
  -23.5644  -28.9640   23.5869 O   0  0  0  0  0  0  0  0  0  0  0  0
  -20.6604  -30.2972   21.5907 O   0  0  0  0  0  0  0  0  0  0  0  0
  -19.7179  -27.4008   18.3422 O   0  0  0  0  0  0  0  0  0  0  0  0
  -30.9943  -15.6637   20.7253 O   0  0  0  0  0  0  0  0  0  0  0  0
  -21.6554   -8.2349   23.6041 O   0  0  0  0  0  0  0  0  0  0  0  0
  -27.5149  -25.8599   19.3133 O   0  0  0  0  0  0  0  0  0  1  0  0
  -21.2778   -2.7520   23.1576 F   0  0  0  0  0  0  0  0  0  0  0  0
  -22.4519   -6.5850   25.6745 F   0  0  0  0  0  0  0  0  0  0  0  0
  1  2  1  0  0  0  0
  1  5  2  0  0  0  0
  2  6  2  0  0  0  0
  3  8  2  0  0  0  0
  3 15  1  0  0  0  0
  4  9  1  0  0  0  0
  4 15  2  0  0  0  0
  5 17  1  0  0  0  0
  6 19  1  0  0  0  0
  7 10  2  0  0  0  0
  7 18  1  0  0  0  0
  8 21  1  0  0  0  0
  9 21  2  0  0  0  0
 10 22  1  0  0  0  0
 11 12  2  0  0  0  0
 11 23  1  0  0  0  0
 12 24  1  0  0  0  0
 13 20  1  0  0  0  0
 13 22  2  0  0  0  0
 14 24  2  0  0  0  0
 14 25  1  0  0  0  0
 15 26  1  0  0  0  0
 16 26  1  0  0  0  0
 16 27  2  0  0  0  0
 16 28  1  0  0  0  0
 17 19  2  0  0  0  0
 17 33  1  0  0  0  0
 18 20  2  0  0  0  0
 18 34  1  0  0  0  0
 19 46  1  0  0  0  0
 20 35  1  0  0  0  0
 21 80  1  0  0  0  0
 22 81  1  0  0  0  0
 23 25  2  0  0  0  0
 23 80  1  0  0  0  0
 24 82  1  0  0  0  0
 25 83  1  0  0  0  0
 26 63  2  0  0  0  0
 27 64  1  0  0  0  0
 27 68  1  0  0  0  0
 28 69  1  0  0  0  0
 28 75  2  0  0  0  0
 29 47  1  0  0  0  0
 29 70  1  0  0  0  0
 29 76  2  0  0  0  0
 30 60  1  0  0  0  0
 30 65  1  0  0  0  0
 30 77  2  0  0  0  0
 31 61  1  0  0  0  0
 31 71  1  0  0  0  0
 31 78  2  0  0  0  0
 32 66  1  0  0  0  0
 32 72  1  0  0  0  0
 32 79  2  0  0  0  0
 33 36  1  0  0  0  0
 34 47  1  0  0  0  0
 35 65  1  0  0  0  0
 36 38  1  0  0  0  0
 37 39  1  0  0  0  0
 37 41  1  0  0  0  0
 38 46  1  0  0  0  0
 39 48  1  0  0  0  0
 40 44  1  0  0  0  0
 40 49  1  0  0  0  0
 41 66  1  0  0  0  0
 42 48  1  0  0  0  0
 42 66  1  0  0  0  0
 43 50  1  0  0  0  0
 43 67  1  0  0  0  0
 44 73  1  0  0  0  0
 45 49  1  0  0  0  0
 45 73  1  0  0  0  0
 46 70  1  0  0  0  0
 47 65  1  0  0  0  0
 48 64  1  0  0  0  0
 49 72  1  0  0  0  0
 50 51  1  0  0  0  0
 50 73  1  0  0  0  0
 51 52  1  0  0  0  0
 51 67  1  0  0  0  0
 53 61  1  0  0  0  0
 54 62  1  0  0  0  0
 55 62  1  0  0  0  0
 56 62  1  0  0  0  0
 57 74  1  0  0  0  0
 58 59  1  0  0  0  0
 58 67  1  0  0  0  0
 59 81  1  0  0  0  0
 60 62  1  0  0  0  0
 60 71  1  0  0  0  0
 61 74  1  0  0  0  0
 63 64  1  0  0  0  0
M  CHG  2  73   1  74   1
M  ISO  4  32 100  59 101  72 100  81 101
M  END
> <Batch ID>
0197

> <Smiles>
CNC(C)C(=O)NC(C(=O)N1Cc2cc([101O:1][101CH2:1]CN3CC(N4CCC([100NH:0][100C:0](=O)N5CCCC(n6nc(-c7ccc(Oc8ccc(F)cc8F)cc7)c(C(N)=O)c6N)C5)C4)C3C)ccc2CC1C(=O)NC1CCCc2ccccc21)C(C)(C)C

> <Shape>
0.352

> <Color>
0.108

> <Negative vol penalty>
0.000

$$$$

  -OEChem-04052323453D

 93103  0     1  0  0  0  0  0999 V2000
  -31.6148  -25.5906   14.3324 C   0  0  0  0  0  0  0  0  0  0  0  0
  -30.2253  -25.5297   14.3657 C   0  0  0  0  0  0  0  0  0  0  0  0
  -27.7731  -16.7596   19.6162 C   0  0  0  0  0  0  0  0  0  0  0  0
  -30.0485  -16.7338   20.4278 C   0  0  0  0  0  0  0  0  0  0  0  0
  -32.3414  -25.5611   15.5219 C   0  0  0  0  0  0  0  0  0  0  0  0
  -29.5617  -25.4381   15.5886 C   0  0  0  0  0  0  0  0  0  0  0  0
  -23.4929  -27.4611   18.8124 C   0  0  0  0  0  0  0  0  0  0  0  0
  -27.7222  -18.1410   19.8026 C   0  0  0  0  0  0  0  0  0  0  0  0
  -29.9978  -18.1153   20.6141 C   0  0  0  0  0  0  0  0  0  0  0  0
  -22.4301  -26.9274   19.5401 C   0  0  0  0  0  0  0  0  0  0  0  0
  -28.8026  -20.9127   18.1952 C   0  0  0  0  0  0  0  0  0  0  0  0
  -28.2502  -21.6848   17.1733 C   0  0  0  0  0  0  0  0  0  0  0  0
  -23.7857  -26.9640   21.5352 C   0  0  0  0  0  0  0  0  0  0  0  0
  -26.5633  -22.4982   18.6997 C   0  0  0  0  0  0  0  0  0  0  0  0
  -20.4477  -18.8954   20.9656 C   0  0  0  0  0  0  0  0  0  0  0  0
  -28.9362  -16.0560   19.9289 C   0  0  0  0  0  0  0  0  0  0  0  0
  -29.3950  -13.9414   18.5778 C   0  0  0  0  0  0  0  0  0  0  0  0
  -31.6859  -25.4788   16.7606 C   0  0  0  0  0  0  0  0  0  0  0  0
  -24.7156  -27.7406   19.4395 C   0  0  0  0  0  0  0  0  0  0  0  0
  -30.2803  -25.4061   16.7958 C   0  0  0  0  0  0  0  0  0  0  0  0
  -24.8616  -27.5036   20.8138 C   0  0  0  0  0  0  0  0  0  0  0  0
  -28.8346  -18.8189   20.3014 C   0  0  0  0  0  0  0  0  0  0  0  0
  -22.5774  -26.6760   20.9011 C   0  0  0  0  0  0  0  0  0  0  0  0
  -28.2354  -20.9333   19.4694 C   0  0  0  0  0  0  0  0  0  0  0  0
  -27.1306  -22.4775   17.4255 C   0  0  0  0  0  0  0  0  0  0  0  0
  -27.1157  -21.7261   19.7217 C   0  0  0  0  0  0  0  0  0  0  0  0
  -28.9891  -14.6289   19.7372 C   0  0  0  0  0  0  0  0  0  0  0  0
  -20.5632  -19.9930   21.7939 C   0  0  0  0  0  0  0  0  0  0  0  0
  -20.5131  -17.6666   21.5901 C   0  0  0  0  0  0  0  0  0  0  0  0
  -29.2649  -12.6133   18.9028 C   0  0  0  0  0  0  0  0  0  0  0  0
  -20.7778  -18.6557   23.6195 C   0  0  0  0  0  0  0  0  0  0  0  0
  -29.8492  -14.4572   17.3194 C   0  0  0  0  0  0  0  0  0  0  0  0
  -27.6991  -26.6967   19.1033 C   0  0  0  0  0  0  0  0  0  0  0  0
  -28.3427  -29.0195   21.2742 C   0  0  0  0  0  0  0  0  0  0  0  0
  -27.2124  -31.0216   23.7963 C   0  0  0  0  0  0  0  0  0  0  0  0
  -25.8342   -9.1093   21.9726 C   0  0  0  0  0  0  0  0  0  0  0  0
  -32.5160  -25.4021   18.0175 C   0  0  0  0  0  0  0  0  0  0  0  0
  -25.8436  -28.3411   18.6461 C   0  0  0  0  0  0  0  0  0  0  0  0
  -26.1471  -27.8051   21.5383 C   0  0  0  0  0  0  0  0  0  0  0  0
  -31.7211  -25.6818   19.2903 C   0  0  0  0  0  0  0  0  0  0  0  0
  -29.0517  -10.0389   23.0956 C   0  0  0  0  0  0  0  0  0  0  0  0
  -30.4083  -24.9050   19.2814 C   0  0  0  0  0  0  0  0  0  0  0  0
  -29.3998  -11.2703   22.2639 C   0  0  0  0  0  0  0  0  0  0  0  0
  -22.4324   -9.1436   20.5151 C   0  0  0  0  0  0  0  0  0  0  0  0
  -27.5737  -10.0341   23.4621 C   0  0  0  0  0  0  0  0  0  0  0  0
  -23.6449   -8.4029   21.0573 C   0  0  0  0  0  0  0  0  0  0  0  0
  -24.0209  -10.7669   21.2305 C   0  0  0  0  0  0  0  0  0  0  0  0
  -27.0005  -11.2962   21.4059 C   0  0  0  0  0  0  0  0  0  0  0  0
  -21.6294  -22.4197   21.7275 C   0  0  0  0  0  0  0  0  0  0  0  0
  -19.5646  -22.4416   21.9867 C   0  0  0  0  0  0  0  0  0  0  0  0
  -29.5232  -25.3311   18.1040 C   0  0  1  0  0  0  0  0  0  0  0  0
  -20.5143  -21.4409   21.2817 C   0  0  0  0  0  0  0  0  0  0  0  0
  -27.2112  -28.1068   19.2802 C   0  0  1  0  0  0  0  0  0  0  0  0
  -22.5169  -10.4937   21.2281 C   0  0  1  0  0  0  0  0  0  0  0  0
  -28.4943  -11.3610   21.0258 C   0  0  1  0  0  0  0  0  0  0  0  0
  -20.9611  -18.5227   25.0933 C   0  0  0  0  0  0  0  0  0  0  0  0
  -27.9805  -32.7910   25.4015 C   0  0  0  0  0  0  0  0  0  0  0  0
  -29.7248  -26.8856   22.9613 C   0  0  0  0  0  0  0  0  0  0  0  0
  -29.6198  -28.4561   24.9083 C   0  0  0  0  0  0  0  0  0  0  0  0
  -30.9194  -29.0809   22.8727 C   0  0  0  0  0  0  0  0  0  0  0  0
  -25.3140  -33.0076   22.6962 C   0  0  0  0  0  0  0  0  0  0  0  0
  -20.3974  -16.4144   20.7718 C   0  0  0  0  0  0  0  0  0  0  0  0
  -21.7074  -11.5827   20.5473 C   0  0  0  0  0  0  0  0  0  0  0  0
  -21.7880  -12.9048   21.3111 C   0  0  0  0  0  0  0  0  0  0  0  0
  -20.7583  -24.3334   22.9809 C   0  0  0  0  0  0  0  0  0  0  0  0
  -21.0035  -13.9974   20.6001 C   0  0  0  0  0  0  0  0  0  0  0  0
  -21.8700  -25.3336   22.7323 C   0  0  0  0  0  0  0  0  0  1  0  0
  -28.3928  -29.0900   22.7814 C   0  0  1  0  0  0  0  0  0  0  0  0
  -27.3593  -32.5124   24.0416 C   0  0  2  0  0  0  0  0  0  0  0  0
  -29.6405  -28.3706   23.3672 C   0  0  0  0  0  0  0  0  0  0  0  0
  -28.6280  -13.8056   20.7250 N   0  0  0  0  0  0  0  0  0  0  0  0
  -20.7298  -19.9094   23.1302 N   0  0  0  0  0  0  0  0  0  0  0  0
  -20.6783  -17.5094   22.9199 N   0  0  0  0  0  0  0  0  0  0  0  0
  -28.8065  -12.5871   20.1871 N   0  0  0  0  0  0  0  0  0  0  0  0
  -27.2228  -28.3855   20.7177 N   0  0  0  0  0  0  0  0  0  0  0  0
  -26.7195  -10.1488   22.2785 N   0  0  0  0  0  0  0  0  0  0  0  0
  -24.6282   -9.4395   21.3559 N   0  0  0  0  0  0  0  0  0  0  0  0
  -29.4990  -11.4770   18.2125 N   0  0  0  0  0  0  0  0  0  0  0  0
  -29.9230  -15.8470   17.1544 N   0  0  0  0  0  0  0  0  0  0  0  0
  -28.8773  -26.5946   18.3886 N   0  0  0  0  0  0  0  0  0  0  0  0
  -28.3015  -30.5044   23.1271 N   0  0  0  0  0  0  0  0  0  0  0  0
  -20.5994  -23.4736   21.7882 N   0  3  0  0  0  0  0  0  0  0  0  0
  -26.0279  -33.1799   23.9875 N   0  3  0  0  0  0  0  0  0  0  0  0
  -21.1481  -15.2671   21.3519 N   0  3  0  0  0  0  0  0  0  0  0  0
  -30.1641  -13.7080   16.3639 O   0  0  0  0  0  0  0  0  0  0  0  0
  -27.0551  -25.7701   19.5812 O   0  0  0  0  0  0  0  0  0  0  0  0
  -29.2599  -29.5152   20.6148 O   0  0  0  0  0  0  0  0  0  0  0  0
  -26.2316  -30.3793   24.1650 O   0  0  0  0  0  0  0  0  0  0  0  0
  -26.0907   -7.9363   22.2762 O   0  0  0  0  0  0  0  0  0  0  0  0
  -28.7854  -20.1669   20.4831 O   0  0  0  0  0  0  0  0  0  0  0  0
  -21.5345  -26.1508   21.6187 O   0  0  0  0  0  0  0  0  0  1  0  0
  -26.6011  -23.2201   16.4445 F   0  0  0  0  0  0  0  0  0  0  0  0
  -26.5671  -21.7509   20.9440 F   0  0  0  0  0  0  0  0  0  0  0  0
  1  2  1  0  0  0  0
  1  5  2  0  0  0  0
  2  6  2  0  0  0  0
  3  8  2  0  0  0  0
  3 16  1  0  0  0  0
  4  9  1  0  0  0  0
  4 16  2  0  0  0  0
  5 18  1  0  0  0  0
  6 20  1  0  0  0  0
  7 10  2  0  0  0  0
  7 19  1  0  0  0  0
  8 22  1  0  0  0  0
  9 22  2  0  0  0  0
 10 23  1  0  0  0  0
 11 12  2  0  0  0  0
 11 24  1  0  0  0  0
 12 25  1  0  0  0  0
 13 21  1  0  0  0  0
 13 23  2  0  0  0  0
 14 25  2  0  0  0  0
 14 26  1  0  0  0  0
 15 28  1  0  0  0  0
 15 29  2  0  0  0  0
 16 27  1  0  0  0  0
 17 27  1  0  0  0  0
 17 30  2  0  0  0  0
 17 32  1  0  0  0  0
 18 20  2  0  0  0  0
 18 37  1  0  0  0  0
 19 21  2  0  0  0  0
 19 38  1  0  0  0  0
 20 51  1  0  0  0  0
 21 39  1  0  0  0  0
 22 90  1  0  0  0  0
 23 91  1  0  0  0  0
 24 26  2  0  0  0  0
 24 90  1  0  0  0  0
 25 92  1  0  0  0  0
 26 93  1  0  0  0  0
 27 71  2  0  0  0  0
 28 52  1  0  0  0  0
 28 72  2  0  0  0  0
 29 62  1  0  0  0  0
 29 73  1  0  0  0  0
 30 74  1  0  0  0  0
 30 78  1  0  0  0  0
 31 56  1  0  0  0  0
 31 72  1  0  0  0  0
 31 73  2  0  0  0  0
 32 79  1  0  0  0  0
 32 85  2  0  0  0  0
 33 53  1  0  0  0  0
 33 80  1  0  0  0  0
 33 86  2  0  0  0  0
 34 68  1  0  0  0  0
 34 75  1  0  0  0  0
 34 87  2  0  0  0  0
 35 69  1  0  0  0  0
 35 81  1  0  0  0  0
 35 88  2  0  0  0  0
 36 76  1  0  0  0  0
 36 77  1  0  0  0  0
 36 89  2  0  0  0  0
 37 40  1  0  0  0  0
 38 53  1  0  0  0  0
 39 75  1  0  0  0  0
 40 42  1  0  0  0  0
 41 43  1  0  0  0  0
 41 45  1  0  0  0  0
 42 51  1  0  0  0  0
 43 55  1  0  0  0  0
 44 46  1  0  0  0  0
 44 54  1  0  0  0  0
 45 76  1  0  0  0  0
 46 77  1  0  0  0  0
 47 54  1  0  0  0  0
 47 77  1  0  0  0  0
 48 55  1  0  0  0  0
 48 76  1  0  0  0  0
 49 52  1  0  0  0  0
 49 82  1  0  0  0  0
 50 52  1  0  0  0  0
 50 82  1  0  0  0  0
 51 80  1  0  0  0  0
 53 75  1  0  0  0  0
 54 63  1  0  0  0  0
 55 74  1  0  0  0  0
 57 69  1  0  0  0  0
 58 70  1  0  0  0  0
 59 70  1  0  0  0  0
 60 70  1  0  0  0  0
 61 83  1  0  0  0  0
 62 84  1  0  0  0  0
 63 64  1  0  0  0  0
 64 66  1  0  0  0  0
 65 67  1  0  0  0  0
 65 82  1  0  0  0  0
 66 84  1  0  0  0  0
 67 91  1  0  0  0  0
 68 70  1  0  0  0  0
 68 81  1  0  0  0  0
 69 83  1  0  0  0  0
 71 74  1  0  0  0  0
M  CHG  3  82   1  83   1  84   1
M  ISO  4  36 100  67 101  77 100  91 101
M  END
> <Batch ID>
0197

> <Smiles>
CNC(C)C(=O)NC(C(=O)N1Cc2cc([101O:1][101CH2:1]CN3CC(c4cc(CNCCCC5CC[100N:0]([100C:0](=O)N6CCCC(n7nc(-c8ccc(Oc9ccc(F)cc9F)cc8)c(C(N)=O)c7N)C6)C5)nc(C)n4)C3)ccc2CC1C(=O)NC1CCCc2ccccc21)C(C)(C)C

> <Shape>
0.252

> <Color>
0.057

> <Negative vol penalty>
0.000

$$$$

  -OEChem-04052323453D

 85 94  0     1  0  0  0  0  0999 V2000
  -26.7536  -28.5912   19.2865 C   0  0  0  0  0  0  0  0  0  0  0  0
  -26.6212  -27.2080   19.2376 C   0  0  0  0  0  0  0  0  0  0  0  0
  -31.0701  -23.2506   20.4863 C   0  0  0  0  0  0  0  0  0  0  0  0
  -28.9034  -23.0588   19.4348 C   0  0  0  0  0  0  0  0  0  0  0  0
  -26.0090  -29.3267   20.2061 C   0  0  0  0  0  0  0  0  0  0  0  0
  -25.7355  -26.5612   20.1002 C   0  0  0  0  0  0  0  0  0  0  0  0
  -24.6476  -20.6248   20.9390 C   0  0  0  0  0  0  0  0  0  0  0  0
  -31.2558  -24.4916   19.8772 C   0  0  0  0  0  0  0  0  0  0  0  0
  -29.0891  -24.2999   18.8257 C   0  0  0  0  0  0  0  0  0  0  0  0
  -25.1122  -19.5996   21.7617 C   0  0  0  0  0  0  0  0  0  0  0  0
  -32.1468  -27.8738   18.8862 C   0  0  0  0  0  0  0  0  0  0  0  0
  -32.6493  -28.9123   19.6702 C   0  0  0  0  0  0  0  0  0  0  0  0
  -23.2556  -19.9666   23.2574 C   0  0  0  0  0  0  0  0  0  0  0  0
  -26.4019  -13.3126   21.4149 C   0  0  0  0  0  0  0  0  0  0  0  0
  -30.7452  -28.7204   21.1449 C   0  0  0  0  0  0  0  0  0  0  0  0
  -24.2176  -12.5225   19.9831 C   0  0  0  0  0  0  0  0  0  0  0  0
  -29.8938  -22.5342   20.2650 C   0  0  0  0  0  0  0  0  0  0  0  0
  -29.1149  -20.9995   22.1480 C   0  0  0  0  0  0  0  0  0  0  0  0
  -25.1232  -28.6866   21.0885 C   0  0  0  0  0  0  0  0  0  0  0  0
  -23.4875  -21.3371   21.2756 C   0  0  0  0  0  0  0  0  0  0  0  0
  -24.9575  -27.2883   21.0192 C   0  0  0  0  0  0  0  0  0  0  0  0
  -22.7769  -20.9987   22.4360 C   0  0  0  0  0  0  0  0  0  0  0  0
  -25.1332  -13.4777   21.9594 C   0  0  0  0  0  0  0  0  0  0  0  0
  -30.2654  -25.0163   19.0469 C   0  0  0  0  0  0  0  0  0  0  0  0
  -24.4179  -19.2723   22.9226 C   0  0  0  0  0  0  0  0  0  0  0  0
  -30.9434  -27.2587   19.2315 C   0  0  0  0  0  0  0  0  0  0  0  0
  -31.9485  -29.3356   20.7995 C   0  0  0  0  0  0  0  0  0  0  0  0
  -30.2426  -27.6820   20.3608 C   0  0  0  0  0  0  0  0  0  0  0  0
  -24.0150  -13.0777   21.2363 C   0  0  0  0  0  0  0  0  0  0  0  0
  -29.7016  -21.2519   20.8935 C   0  0  0  0  0  0  0  0  0  0  0  0
  -26.4977  -12.7467   20.1539 C   0  0  0  0  0  0  0  0  0  0  0  0
  -29.1689  -19.6338   22.2838 C   0  0  0  0  0  0  0  0  0  0  0  0
  -28.5697  -21.9175   23.1050 C   0  0  0  0  0  0  0  0  0  0  0  0
  -22.8370  -24.3738   21.9531 C   0  0  0  0  0  0  0  0  0  0  0  0
  -19.7717  -23.3128   21.9442 C   0  0  0  0  0  0  0  0  0  0  0  0
  -17.6111  -20.6942   22.2933 C   0  0  0  0  0  0  0  0  0  0  0  0
  -28.5930  -14.9540   19.0619 C   0  0  0  0  0  0  0  0  0  0  0  0
  -24.3362  -29.5321   22.0585 C   0  0  0  0  0  0  0  0  0  0  0  0
  -22.9845  -22.4224   20.3637 C   0  0  0  0  0  0  0  0  0  0  0  0
  -21.5148  -21.7193   22.8315 C   0  0  0  0  0  0  0  0  0  0  0  0
  -23.7637  -28.7268   23.2204 C   0  0  0  0  0  0  0  0  0  0  0  0
  -31.8630  -16.0316   20.2268 C   0  0  0  0  0  0  0  0  0  0  0  0
  -23.0454  -27.4933   22.6939 C   0  0  0  0  0  0  0  0  0  0  0  0
  -31.5743  -17.4747   20.6458 C   0  0  0  0  0  0  0  0  0  0  0  0
  -28.9882  -11.7642   20.1945 C   0  0  0  0  0  0  0  0  0  0  0  0
  -31.0604  -15.6554   18.9868 C   0  0  0  0  0  0  0  0  0  0  0  0
  -29.9824  -12.8175   19.7089 C   0  0  0  0  0  0  0  0  0  0  0  0
  -29.2975  -17.2720   19.5328 C   0  0  0  0  0  0  0  0  0  0  0  0
  -24.0230  -26.5601   21.9683 C   0  0  1  0  0  0  0  0  0  0  0  0
  -27.8825  -12.5065   19.4185 C   0  0  2  0  0  0  0  0  0  0  0  0
  -22.0770  -23.4242   21.0709 C   0  0  1  0  0  0  0  0  0  0  0  0
  -30.0613  -17.7248   20.7919 C   0  0  2  0  0  0  0  0  0  0  0  0
  -15.1629  -20.1437   22.2699 C   0  0  0  0  0  0  0  0  0  0  0  0
  -19.4731  -24.5331   24.7248 C   0  0  0  0  0  0  0  0  0  0  0  0
  -17.3996  -23.1629   25.0273 C   0  0  0  0  0  0  0  0  0  0  0  0
  -17.5069  -24.8769   23.2180 C   0  0  0  0  0  0  0  0  0  0  0  0
  -17.9298  -18.8474   20.0028 C   0  0  0  0  0  0  0  0  0  0  0  0
  -25.0115  -14.0869   23.3251 C   0  0  0  0  0  0  0  0  0  0  0  0
  -24.3471  -16.1075   24.6344 C   0  0  0  0  0  0  0  0  0  0  0  0
  -23.8921  -17.5441   24.4695 C   0  0  0  0  0  0  0  0  0  1  0  0
  -18.8358  -22.7392   22.9806 C   0  0  1  0  0  0  0  0  0  0  0  0
  -16.4377  -20.2366   21.4459 C   0  0  2  0  0  0  0  0  0  0  0  0
  -18.3287  -23.8155   23.9815 C   0  0  0  0  0  0  0  0  0  0  0  0
  -25.4345  -12.3460   19.4212 N   0  0  0  0  0  0  0  0  0  0  0  0
  -30.0993  -20.1361   20.2764 N   0  0  0  0  0  0  0  0  0  0  0  0
  -29.7620  -19.1694   21.1468 N   0  0  0  0  0  0  0  0  0  0  0  0
  -21.0669  -22.7770   21.9106 N   0  0  0  0  0  0  0  0  0  0  0  0
  -29.6295  -15.8784   19.2117 N   0  0  0  0  0  0  0  0  0  0  0  0
  -28.8410  -13.6250   19.3194 N   0  0  0  0  0  0  0  0  0  0  0  0
  -28.7666  -18.7970   23.2637 N   0  0  0  0  0  0  0  0  0  0  0  0
  -28.5941  -23.2867   22.8066 N   0  0  0  0  0  0  0  0  0  0  0  0
  -23.2744  -25.5142   21.3069 N   0  0  0  0  0  0  0  0  0  0  0  0
  -17.7749  -22.0624   22.2427 N   0  0  0  0  0  0  0  0  0  0  0  0
  -16.7156  -18.8959   20.8573 N   0  3  0  0  0  0  0  0  0  0  0  0
  -24.5349  -15.4960   23.2946 N   0  3  0  0  0  0  0  0  0  0  0  0
  -28.0903  -21.5362   24.1997 O   0  0  0  0  0  0  0  0  0  0  0  0
  -23.0123  -24.0933   23.1331 O   0  0  0  0  0  0  0  0  0  0  0  0
  -19.3661  -24.1985   21.1873 O   0  0  0  0  0  0  0  0  0  0  0  0
  -18.3101  -19.9162   22.9389 O   0  0  0  0  0  0  0  0  0  0  0  0
  -27.4534  -15.3182   18.7392 O   0  0  0  0  0  0  0  0  0  0  0  0
  -30.4462  -26.2273   18.4526 O   0  0  0  0  0  0  0  0  0  0  0  0
  -24.8696  -18.2725   23.7277 O   0  0  0  0  0  0  0  0  0  1  0  0
  -32.4320  -30.3318   21.5532 F   0  0  0  0  0  0  0  0  0  0  0  0
  -29.0866  -27.0941   20.6982 F   0  0  0  0  0  0  0  0  0  0  0  0
  -22.4163  -13.2507   21.8459 Cl  0  0  0  0  0  0  0  0  0  0  0  0
  1  2  1  0  0  0  0
  1  5  2  0  0  0  0
  2  6  2  0  0  0  0
  3  8  2  0  0  0  0
  3 17  1  0  0  0  0
  4  9  1  0  0  0  0
  4 17  2  0  0  0  0
  5 19  1  0  0  0  0
  6 21  1  0  0  0  0
  7 10  2  0  0  0  0
  7 20  1  0  0  0  0
  8 24  1  0  0  0  0
  9 24  2  0  0  0  0
 10 25  1  0  0  0  0
 11 12  2  0  0  0  0
 11 26  1  0  0  0  0
 12 27  1  0  0  0  0
 13 22  1  0  0  0  0
 13 25  2  0  0  0  0
 14 23  1  0  0  0  0
 14 31  2  0  0  0  0
 15 27  2  0  0  0  0
 15 28  1  0  0  0  0
 16 29  1  0  0  0  0
 16 64  2  0  0  0  0
 17 30  1  0  0  0  0
 18 30  1  0  0  0  0
 18 32  2  0  0  0  0
 18 33  1  0  0  0  0
 19 21  2  0  0  0  0
 19 38  1  0  0  0  0
 20 22  2  0  0  0  0
 20 39  1  0  0  0  0
 21 49  1  0  0  0  0
 22 40  1  0  0  0  0
 23 29  2  0  0  0  0
 23 58  1  0  0  0  0
 24 81  1  0  0  0  0
 25 82  1  0  0  0  0
 26 28  2  0  0  0  0
 26 81  1  0  0  0  0
 27 83  1  0  0  0  0
 28 84  1  0  0  0  0
 29 85  1  0  0  0  0
 30 65  2  0  0  0  0
 31 50  1  0  0  0  0
 31 64  1  0  0  0  0
 32 66  1  0  0  0  0
 32 70  1  0  0  0  0
 33 71  1  0  0  0  0
 33 76  2  0  0  0  0
 34 51  1  0  0  0  0
 34 72  1  0  0  0  0
 34 77  2  0  0  0  0
 35 61  1  0  0  0  0
 35 67  1  0  0  0  0
 35 78  2  0  0  0  0
 36 62  1  0  0  0  0
 36 73  1  0  0  0  0
 36 79  2  0  0  0  0
 37 68  1  0  0  0  0
 37 69  1  0  0  0  0
 37 80  2  0  0  0  0
 38 41  1  0  0  0  0
 39 51  1  0  0  0  0
 40 67  1  0  0  0  0
 41 43  1  0  0  0  0
 42 44  1  0  0  0  0
 42 46  1  0  0  0  0
 43 49  1  0  0  0  0
 44 52  1  0  0  0  0
 45 47  1  0  0  0  0
 45 50  1  0  0  0  0
 46 68  1  0  0  0  0
 47 69  1  0  0  0  0
 48 52  1  0  0  0  0
 48 68  1  0  0  0  0
 49 72  1  0  0  0  0
 50 69  1  0  0  0  0
 51 67  1  0  0  0  0
 52 66  1  0  0  0  0
 53 62  1  0  0  0  0
 54 63  1  0  0  0  0
 55 63  1  0  0  0  0
 56 63  1  0  0  0  0
 57 74  1  0  0  0  0
 58 75  1  0  0  0  0
 59 60  1  0  0  0  0
 59 75  1  0  0  0  0
 60 82  1  0  0  0  0
 61 63  1  0  0  0  0
 61 73  1  0  0  0  0
 62 74  1  0  0  0  0
 65 66  1  0  0  0  0
M  CHG  2  74   1  75   1
M  ISO  4  37 100  60 101  69 100  82 101
M  END
> <Batch ID>
0197

> <Smiles>
CNC(C)C(=O)NC(C(=O)N1Cc2cc([101O:1][101CH2:1]CNCc3cc(C4CC[100N:0]4[100C:0](=O)N4CCCC(n5nc(-c6ccc(Oc7ccc(F)cc7F)cc6)c(C(N)=O)c5N)C4)ncc3Cl)ccc2CC1C(=O)NC1CCCc2ccccc21)C(C)(C)C

> <Shape>
0.199

> <Color>
0.066

> <Negative vol penalty>
0.000

$$$$

  -OEChem-04052323453D

 85 95  0     1  0  0  0  0  0999 V2000
  -18.4534  -26.0288   22.3813 C   0  0  0  0  0  0  0  0  0  0  0  0
  -19.5118  -26.1517   21.4867 C   0  0  0  0  0  0  0  0  0  0  0  0
  -26.6856  -12.4153   21.7117 C   0  0  0  0  0  0  0  0  0  0  0  0
  -25.9554  -13.7521   19.8363 C   0  0  0  0  0  0  0  0  0  0  0  0
  -17.9667  -27.1556   23.0426 C   0  0  0  0  0  0  0  0  0  0  0  0
  -20.0834  -27.4018   21.2522 C   0  0  0  0  0  0  0  0  0  0  0  0
  -25.1452  -27.2508   21.2333 C   0  0  0  0  0  0  0  0  0  0  0  0
  -25.4233  -11.8262   21.7833 C   0  0  0  0  0  0  0  0  0  0  0  0
  -24.6931  -13.1629   19.9079 C   0  0  0  0  0  0  0  0  0  0  0  0
  -25.7632  -26.7605   20.0838 C   0  0  0  0  0  0  0  0  0  0  0  0
  -23.7050   -9.4122   20.1544 C   0  0  0  0  0  0  0  0  0  0  0  0
  -23.6439   -8.0280   20.3146 C   0  0  0  0  0  0  0  0  0  0  0  0
  -26.1966  -29.0206   19.3602 C   0  0  0  0  0  0  0  0  0  0  0  0
  -22.4412   -8.3213   22.3894 C   0  0  0  0  0  0  0  0  0  0  0  0
  -27.6781  -21.4106   16.7007 C   0  0  0  0  0  0  0  0  0  0  0  0
  -26.9516  -13.3783   20.7382 C   0  0  0  0  0  0  0  0  0  0  0  0
  -29.3608  -13.5416   19.9155 C   0  0  0  0  0  0  0  0  0  0  0  0
  -18.5390  -28.4186   22.8234 C   0  0  0  0  0  0  0  0  0  0  0  0
  -25.0383  -28.6321   21.4500 C   0  0  0  0  0  0  0  0  0  0  0  0
  -19.6030  -28.5468   21.9103 C   0  0  0  0  0  0  0  0  0  0  0  0
  -25.5790  -29.5258   20.5145 C   0  0  0  0  0  0  0  0  0  0  0  0
  -24.4270  -12.1999   20.8814 C   0  0  0  0  0  0  0  0  0  0  0  0
  -26.2865  -27.6455   19.1456 C   0  0  0  0  0  0  0  0  0  0  0  0
  -23.1344  -10.2510   21.1117 C   0  0  0  0  0  0  0  0  0  0  0  0
  -23.0119   -7.4825   21.4321 C   0  0  0  0  0  0  0  0  0  0  0  0
  -22.5024   -9.7056   22.2292 C   0  0  0  0  0  0  0  0  0  0  0  0
  -28.2552  -13.9876   20.6642 C   0  0  0  0  0  0  0  0  0  0  0  0
  -27.4638  -22.1531   15.5240 C   0  0  0  0  0  0  0  0  0  0  0  0
  -28.4710  -22.2195   17.4775 C   0  0  0  0  0  0  0  0  0  0  0  0
  -30.3486  -14.4577   20.1828 C   0  0  0  0  0  0  0  0  0  0  0  0
  -29.4838  -12.4012   19.0553 C   0  0  0  0  0  0  0  0  0  0  0  0
  -22.6218  -30.6726   21.7667 C   0  0  0  0  0  0  0  0  0  0  0  0
  -24.9968  -32.7749   22.4464 C   0  0  0  0  0  0  0  0  0  0  0  0
  -28.2873  -33.6269   22.1405 C   0  0  0  0  0  0  0  0  0  0  0  0
  -30.8342  -20.2150   21.1867 C   0  0  0  0  0  0  0  0  0  0  0  0
  -17.9479  -29.6152   23.5259 C   0  0  0  0  0  0  0  0  0  0  0  0
  -24.3924  -29.1446   22.7080 C   0  0  0  0  0  0  0  0  0  0  0  0
  -25.5081  -31.0175   20.7100 C   0  0  0  0  0  0  0  0  0  0  0  0
  -18.8541  -30.8434   23.5038 C   0  0  0  0  0  0  0  0  0  0  0  0
  -31.2197  -17.7280   23.7556 C   0  0  0  0  0  0  0  0  0  0  0  0
  -19.4107  -31.0711   22.1019 C   0  0  0  0  0  0  0  0  0  0  0  0
  -25.4737  -22.5144   13.8564 C   0  0  0  0  0  0  0  0  0  0  0  0
  -25.1948  -21.2361   14.5833 C   0  0  0  0  0  0  0  0  0  0  0  0
  -30.5531  -16.4835   23.1789 C   0  0  0  0  0  0  0  0  0  0  0  0
  -30.4989  -18.9906   23.3025 C   0  0  0  0  0  0  0  0  0  0  0  0
  -28.8464  -20.4692   19.5004 C   0  0  0  0  0  0  0  0  0  0  0  0
  -30.5484  -21.6706   19.1091 C   0  0  0  0  0  0  0  0  0  0  0  0
  -29.7837  -17.8870   21.1991 C   0  0  0  0  0  0  0  0  0  0  0  0
  -20.2657  -29.8818   21.6480 C   0  0  1  0  0  0  0  0  0  0  0  0
  -26.6295  -21.6623   14.3421 C   0  0  0  0  0  0  0  0  0  0  0  0
  -29.0298  -21.8945   18.9249 C   0  0  0  0  0  0  0  0  0  0  0  0
  -23.8832  -30.5767   22.5775 C   0  0  1  0  0  0  0  0  0  0  0  0
  -30.4672  -16.5805   21.6489 C   0  0  2  0  0  0  0  0  0  0  0  0
  -29.9244  -35.4212   22.7710 C   0  0  0  0  0  0  0  0  0  0  0  0
  -23.8465  -34.5841   20.2753 C   0  0  0  0  0  0  0  0  0  0  0  0
  -26.0023  -35.8570   20.2913 C   0  0  0  0  0  0  0  0  0  0  0  0
  -24.5872  -35.7783   22.3441 C   0  0  0  0  0  0  0  0  0  0  0  0
  -29.9404  -31.7318   23.7009 C   0  0  0  0  0  0  0  0  0  0  0  0
  -28.6971  -25.8686   17.1297 C   0  0  0  0  0  0  0  0  0  0  0  0
  -29.4841  -24.5566   17.1617 C   0  0  0  0  0  0  0  0  0  0  0  0
  -27.5400  -25.9033   18.1212 C   0  0  0  0  0  0  0  0  0  1  0  0
  -25.8598  -33.7116   21.6360 C   0  0  1  0  0  0  0  0  0  0  0  0
  -29.3079  -34.0881   23.1652 C   0  0  2  0  0  0  0  0  0  0  0  0
  -25.0737  -34.9547   21.1318 C   0  0  0  0  0  0  0  0  0  0  0  0
  -28.5157  -15.1005   21.3554 N   0  0  0  0  0  0  0  0  0  0  0  0
  -28.0712  -23.3424   15.5470 N   0  0  0  0  0  0  0  0  0  0  0  0
  -28.6751  -23.3534   16.7475 N   0  0  0  0  0  0  0  0  0  0  0  0
  -29.7963  -15.3614   21.0421 N   0  0  0  0  0  0  0  0  0  0  0  0
  -24.8612  -31.4697   21.9528 N   0  0  0  0  0  0  0  0  0  0  0  0
  -30.3809  -19.0652   21.8431 N   0  0  0  0  0  0  0  0  0  0  0  0
  -30.1905  -20.6035   20.0355 N   0  0  0  0  0  0  0  0  0  0  0  0
  -31.6271  -14.5703   19.7643 N   0  0  0  0  0  0  0  0  0  0  0  0
  -28.3716  -11.5640   18.8925 N   0  0  0  0  0  0  0  0  0  0  0  0
  -21.5709  -29.9305   22.2712 N   0  0  0  0  0  0  0  0  0  0  0  0
  -27.0116  -34.0318   22.4722 N   0  0  0  0  0  0  0  0  0  0  0  0
  -30.4018  -33.0843   23.2948 N   0  3  0  0  0  0  0  0  0  0  0  0
  -30.5534  -12.1234   18.4618 O   0  0  0  0  0  0  0  0  0  0  0  0
  -22.6029  -31.3696   20.7589 O   0  0  0  0  0  0  0  0  0  0  0  0
  -24.4684  -33.1842   23.4832 O   0  0  0  0  0  0  0  0  0  0  0  0
  -28.5918  -32.9760   21.1434 O   0  0  0  0  0  0  0  0  0  0  0  0
  -31.7690  -20.8949   21.6307 O   0  0  0  0  0  0  0  0  0  0  0  0
  -23.1952  -11.6251   20.9508 O   0  0  0  0  0  0  0  0  0  0  0  0
  -26.8897  -27.1697   18.0224 O   0  0  0  0  0  0  0  0  0  1  0  0
  -22.9519   -6.1531   21.5851 F   0  0  0  0  0  0  0  0  0  0  0  0
  -21.9513  -10.5063   23.1516 F   0  0  0  0  0  0  0  0  0  0  0  0
  1  2  1  0  0  0  0
  1  5  2  0  0  0  0
  2  6  2  0  0  0  0
  3  8  2  0  0  0  0
  3 16  1  0  0  0  0
  4  9  1  0  0  0  0
  4 16  2  0  0  0  0
  5 18  1  0  0  0  0
  6 20  1  0  0  0  0
  7 10  2  0  0  0  0
  7 19  1  0  0  0  0
  8 22  1  0  0  0  0
  9 22  2  0  0  0  0
 10 23  1  0  0  0  0
 11 12  2  0  0  0  0
 11 24  1  0  0  0  0
 12 25  1  0  0  0  0
 13 21  1  0  0  0  0
 13 23  2  0  0  0  0
 14 25  2  0  0  0  0
 14 26  1  0  0  0  0
 15 28  1  0  0  0  0
 15 29  2  0  0  0  0
 16 27  1  0  0  0  0
 17 27  1  0  0  0  0
 17 30  2  0  0  0  0
 17 31  1  0  0  0  0
 18 20  2  0  0  0  0
 18 36  1  0  0  0  0
 19 21  2  0  0  0  0
 19 37  1  0  0  0  0
 20 49  1  0  0  0  0
 21 38  1  0  0  0  0
 22 82  1  0  0  0  0
 23 83  1  0  0  0  0
 24 26  2  0  0  0  0
 24 82  1  0  0  0  0
 25 84  1  0  0  0  0
 26 85  1  0  0  0  0
 27 65  2  0  0  0  0
 28 50  1  0  0  0  0
 28 66  2  0  0  0  0
 29 51  1  0  0  0  0
 29 67  1  0  0  0  0
 30 68  1  0  0  0  0
 30 72  1  0  0  0  0
 31 73  1  0  0  0  0
 31 77  2  0  0  0  0
 32 52  1  0  0  0  0
 32 74  1  0  0  0  0
 32 78  2  0  0  0  0
 33 62  1  0  0  0  0
 33 69  1  0  0  0  0
 33 79  2  0  0  0  0
 34 63  1  0  0  0  0
 34 75  1  0  0  0  0
 34 80  2  0  0  0  0
 35 70  1  0  0  0  0
 35 71  1  0  0  0  0
 35 81  2  0  0  0  0
 36 39  1  0  0  0  0
 37 52  1  0  0  0  0
 38 69  1  0  0  0  0
 39 41  1  0  0  0  0
 40 44  1  0  0  0  0
 40 45  1  0  0  0  0
 41 49  1  0  0  0  0
 42 43  1  0  0  0  0
 42 50  1  0  0  0  0
 43 50  1  0  0  0  0
 44 53  1  0  0  0  0
 45 70  1  0  0  0  0
 46 51  1  0  0  0  0
 46 71  1  0  0  0  0
 47 51  1  0  0  0  0
 47 71  1  0  0  0  0
 48 53  1  0  0  0  0
 48 70  1  0  0  0  0
 49 74  1  0  0  0  0
 52 69  1  0  0  0  0
 53 68  1  0  0  0  0
 54 63  1  0  0  0  0
 55 64  1  0  0  0  0
 56 64  1  0  0  0  0
 57 64  1  0  0  0  0
 58 76  1  0  0  0  0
 59 60  1  0  0  0  0
 59 61  1  0  0  0  0
 60 67  1  0  0  0  0
 61 83  1  0  0  0  0
 62 64  1  0  0  0  0
 62 75  1  0  0  0  0
 63 76  1  0  0  0  0
 65 68  1  0  0  0  0
 66 67  1  0  0  0  0
M  CHG  1  76   1
M  ISO  4  35 100  61 101  71 100  83 101
M  END
> <Batch ID>
0197

> <Smiles>
CNC(C)C(=O)NC(C(=O)N1Cc2cc([101O:1][101CH2:1]CCn3nc(C4CC4)cc3C3C[100N:0]([100C:0](=O)N4CCCC(n5nc(-c6ccc(Oc7ccc(F)cc7F)cc6)c(C(N)=O)c5N)C4)C3)ccc2CC1C(=O)NC1CCCc2ccccc21)C(C)(C)C

> <Shape>
0.320

> <Color>
0.114

> <Negative vol penalty>
0.000

$$$$

  -OEChem-04052323453D

 85 94  0     1  0  0  0  0  0999 V2000
  -28.0078  -37.8662   24.2846 C   0  0  0  0  0  0  0  0  0  0  0  0
  -28.3553  -37.0558   23.2086 C   0  0  0  0  0  0  0  0  0  0  0  0
  -23.4064   -9.2997   22.3485 C   0  0  0  0  0  0  0  0  0  0  0  0
  -24.9608   -7.6459   21.5204 C   0  0  0  0  0  0  0  0  0  0  0  0
  -27.4480  -37.3008   25.4295 C   0  0  0  0  0  0  0  0  0  0  0  0
  -28.1441  -35.6791   23.2773 C   0  0  0  0  0  0  0  0  0  0  0  0
  -26.4789  -30.0731   19.1402 C   0  0  0  0  0  0  0  0  0  0  0  0
  -22.3470   -8.4255   22.1058 C   0  0  0  0  0  0  0  0  0  0  0  0
  -23.9014   -6.7717   21.2777 C   0  0  0  0  0  0  0  0  0  0  0  0
  -26.9342  -28.7933   18.8262 C   0  0  0  0  0  0  0  0  0  0  0  0
  -20.9578   -5.7228   23.5886 C   0  0  0  0  0  0  0  0  0  0  0  0
  -19.9883   -5.5876   24.5822 C   0  0  0  0  0  0  0  0  0  0  0  0
  -25.8872  -27.9372   20.8237 C   0  0  0  0  0  0  0  0  0  0  0  0
  -18.2976   -6.3569   23.0372 C   0  0  0  0  0  0  0  0  0  0  0  0
  -27.8592  -22.9279   16.8646 C   0  0  0  0  0  0  0  0  0  0  0  0
  -24.7134   -8.9099   22.0558 C   0  0  0  0  0  0  0  0  0  0  0  0
  -26.5617   -9.9280   23.4893 C   0  0  0  0  0  0  0  0  0  0  0  0
  -27.2210  -35.9177   25.5085 C   0  0  0  0  0  0  0  0  0  0  0  0
  -25.7323  -30.2968   20.3060 C   0  0  0  0  0  0  0  0  0  0  0  0
  -27.5820  -35.0945   24.4249 C   0  0  0  0  0  0  0  0  0  0  0  0
  -25.4214  -29.2203   21.1489 C   0  0  0  0  0  0  0  0  0  0  0  0
  -22.5944   -7.1615   21.5704 C   0  0  0  0  0  0  0  0  0  0  0  0
  -26.6408  -27.7256   19.6694 C   0  0  0  0  0  0  0  0  0  0  0  0
  -20.5973   -6.1751   22.3192 C   0  0  0  0  0  0  0  0  0  0  0  0
  -18.6582   -5.9046   24.3065 C   0  0  0  0  0  0  0  0  0  0  0  0
  -19.2672   -6.4921   22.0435 C   0  0  0  0  0  0  0  0  0  0  0  0
  -25.8082   -9.8127   22.3058 C   0  0  0  0  0  0  0  0  0  0  0  0
  -28.8486  -22.3302   17.6138 C   0  0  0  0  0  0  0  0  0  0  0  0
  -29.1981  -24.2993   18.7231 C   0  0  0  0  0  0  0  0  0  0  0  0
  -28.2091  -24.8971   17.9734 C   0  0  0  0  0  0  0  0  0  0  0  0
  -27.4740  -10.9189   23.2204 C   0  0  0  0  0  0  0  0  0  0  0  0
  -26.4472   -9.2040   24.7216 C   0  0  0  0  0  0  0  0  0  0  0  0
  -26.1469  -32.0320   22.9368 C   0  0  0  0  0  0  0  0  0  0  0  0
  -23.1187  -31.0650   23.5827 C   0  0  0  0  0  0  0  0  0  0  0  0
  -20.6436  -28.7678   23.0894 C   0  0  0  0  0  0  0  0  0  0  0  0
  -27.1292  -15.3664   19.1442 C   0  0  0  0  0  0  0  0  0  0  0  0
  -26.6570  -35.3465   26.7854 C   0  0  0  0  0  0  0  0  0  0  0  0
  -25.2258  -31.6786   20.6167 C   0  0  0  0  0  0  0  0  0  0  0  0
  -24.6061  -29.4040   22.4020 C   0  0  0  0  0  0  0  0  0  0  0  0
  -26.1199  -33.9258   26.6320 C   0  0  0  0  0  0  0  0  0  0  0  0
  -29.8799  -12.9218   19.6057 C   0  0  0  0  0  0  0  0  0  0  0  0
  -27.1152  -33.0584   25.8678 C   0  0  0  0  0  0  0  0  0  0  0  0
  -29.1820  -11.8361   20.4261 C   0  0  0  0  0  0  0  0  0  0  0  0
  -29.5620  -18.1099   18.8864 C   0  0  0  0  0  0  0  0  0  0  0  0
  -28.8961  -13.6181   18.6745 C   0  0  0  0  0  0  0  0  0  0  0  0
  -29.3684  -16.5975   18.9327 C   0  0  0  0  0  0  0  0  0  0  0  0
  -27.0092  -13.1311   20.1843 C   0  0  0  0  0  0  0  0  0  0  0  0
  -27.3394  -17.6354   18.1676 C   0  0  0  0  0  0  0  0  0  0  0  0
  -27.3456  -33.6000   24.4518 C   0  0  1  0  0  0  0  0  0  0  0  0
  -24.9110  -31.8810   22.0957 C   0  0  1  0  0  0  0  0  0  0  0  0
  -27.9488  -12.3972   21.1574 C   0  0  1  0  0  0  0  0  0  0  0  0
  -28.5288  -18.5227   17.8488 C   0  0  1  0  0  0  0  0  0  0  0  0
  -29.9502  -25.0571   19.7632 C   0  0  0  0  0  0  0  0  0  0  0  0
  -18.2934  -28.2249   23.7818 C   0  0  0  0  0  0  0  0  0  0  0  0
  -24.1456  -30.0675   26.2773 C   0  0  0  0  0  0  0  0  0  0  0  0
  -22.0441  -28.7254   26.5027 C   0  0  0  0  0  0  0  0  0  0  0  0
  -21.9244  -31.2133   26.3666 C   0  0  0  0  0  0  0  0  0  0  0  0
  -19.6529  -28.9752   20.3083 C   0  0  0  0  0  0  0  0  0  0  0  0
  -29.1982  -20.8869   17.4003 C   0  0  0  0  0  0  0  0  0  0  0  0
  -27.8453  -26.3295   18.1674 C   0  0  0  0  0  0  0  0  0  1  0  0
  -22.5021  -29.8850   24.2944 C   0  0  1  0  0  0  0  0  0  0  0  0
  -19.1708  -28.9293   22.7587 C   0  0  2  0  0  0  0  0  0  0  0  0
  -22.6711  -29.9694   25.8377 C   0  0  0  0  0  0  0  0  0  0  0  0
  -27.5217  -24.2221   17.0309 N   0  0  0  0  0  0  0  0  0  0  0  0
  -26.2070  -10.6626   21.3557 N   0  0  0  0  0  0  0  0  0  0  0  0
  -29.5358  -23.0051   18.5565 N   0  0  0  0  0  0  0  0  0  0  0  0
  -27.2211  -11.3214   21.9420 N   0  0  0  0  0  0  0  0  0  0  0  0
  -24.1390  -30.7750   22.6658 N   0  0  0  0  0  0  0  0  0  0  0  0
  -27.7430  -14.1382   19.4147 N   0  0  0  0  0  0  0  0  0  0  0  0
  -27.9371  -16.4028   18.6784 N   0  0  0  0  0  0  0  0  0  0  0  0
  -28.4597  -11.4764   23.9551 N   0  0  0  0  0  0  0  0  0  0  0  0
  -25.4555   -8.2195   24.8284 N   0  0  0  0  0  0  0  0  0  0  0  0
  -26.2386  -33.2466   23.5892 N   0  0  0  0  0  0  0  0  0  0  0  0
  -21.1148  -29.8185   23.8479 N   0  0  0  0  0  0  0  0  0  0  0  0
  -28.1861  -19.9492   17.9710 N   0  3  0  0  0  0  0  0  0  0  0  0
  -18.8762  -28.3580   21.4141 N   0  3  0  0  0  0  0  0  0  0  0  0
  -27.1914   -9.4350   25.7046 O   0  0  0  0  0  0  0  0  0  0  0  0
  -26.9567  -31.1138   22.9910 O   0  0  0  0  0  0  0  0  0  0  0  0
  -22.7053  -32.2014   23.8260 O   0  0  0  0  0  0  0  0  0  0  0  0
  -21.3084  -27.8041   22.7157 O   0  0  0  0  0  0  0  0  0  0  0  0
  -25.9223  -15.5442   19.3555 O   0  0  0  0  0  0  0  0  0  0  0  0
  -21.5609   -6.3081   21.3336 O   0  0  0  0  0  0  0  0  0  0  0  0
  -27.0876  -26.4671   19.3635 O   0  0  0  0  0  0  0  0  0  1  0  0
  -17.7270   -5.7732   25.2603 F   0  0  0  0  0  0  0  0  0  0  0  0
  -18.9146   -6.9260   20.8257 F   0  0  0  0  0  0  0  0  0  0  0  0
  1  2  1  0  0  0  0
  1  5  2  0  0  0  0
  2  6  2  0  0  0  0
  3  8  2  0  0  0  0
  3 16  1  0  0  0  0
  4  9  1  0  0  0  0
  4 16  2  0  0  0  0
  5 18  1  0  0  0  0
  6 20  1  0  0  0  0
  7 10  2  0  0  0  0
  7 19  1  0  0  0  0
  8 22  1  0  0  0  0
  9 22  2  0  0  0  0
 10 23  1  0  0  0  0
 11 12  2  0  0  0  0
 11 24  1  0  0  0  0
 12 25  1  0  0  0  0
 13 21  1  0  0  0  0
 13 23  2  0  0  0  0
 14 25  2  0  0  0  0
 14 26  1  0  0  0  0
 15 28  1  0  0  0  0
 15 64  2  0  0  0  0
 16 27  1  0  0  0  0
 17 27  1  0  0  0  0
 17 31  2  0  0  0  0
 17 32  1  0  0  0  0
 18 20  2  0  0  0  0
 18 37  1  0  0  0  0
 19 21  2  0  0  0  0
 19 38  1  0  0  0  0
 20 49  1  0  0  0  0
 21 39  1  0  0  0  0
 22 82  1  0  0  0  0
 23 83  1  0  0  0  0
 24 26  2  0  0  0  0
 24 82  1  0  0  0  0
 25 84  1  0  0  0  0
 26 85  1  0  0  0  0
 27 65  2  0  0  0  0
 28 59  1  0  0  0  0
 28 66  2  0  0  0  0
 29 30  2  0  0  0  0
 29 53  1  0  0  0  0
 29 66  1  0  0  0  0
 30 60  1  0  0  0  0
 30 64  1  0  0  0  0
 31 67  1  0  0  0  0
 31 71  1  0  0  0  0
 32 72  1  0  0  0  0
 32 77  2  0  0  0  0
 33 50  1  0  0  0  0
 33 73  1  0  0  0  0
 33 78  2  0  0  0  0
 34 61  1  0  0  0  0
 34 68  1  0  0  0  0
 34 79  2  0  0  0  0
 35 62  1  0  0  0  0
 35 74  1  0  0  0  0
 35 80  2  0  0  0  0
 36 69  1  0  0  0  0
 36 70  1  0  0  0  0
 36 81  2  0  0  0  0
 37 40  1  0  0  0  0
 38 50  1  0  0  0  0
 39 68  1  0  0  0  0
 40 42  1  0  0  0  0
 41 43  1  0  0  0  0
 41 45  1  0  0  0  0
 42 49  1  0  0  0  0
 43 51  1  0  0  0  0
 44 46  1  0  0  0  0
 44 52  1  0  0  0  0
 45 69  1  0  0  0  0
 46 70  1  0  0  0  0
 47 51  1  0  0  0  0
 47 69  1  0  0  0  0
 48 52  1  0  0  0  0
 48 70  1  0  0  0  0
 49 73  1  0  0  0  0
 50 68  1  0  0  0  0
 51 67  1  0  0  0  0
 52 75  1  0  0  0  0
 54 62  1  0  0  0  0
 55 63  1  0  0  0  0
 56 63  1  0  0  0  0
 57 63  1  0  0  0  0
 58 76  1  0  0  0  0
 59 75  1  0  0  0  0
 60 83  1  0  0  0  0
 61 63  1  0  0  0  0
 61 74  1  0  0  0  0
 62 76  1  0  0  0  0
 65 67  1  0  0  0  0
M  CHG  2  75   1  76   1
M  ISO  4  36 100  60 101  70 100  83 101
M  END
> <Batch ID>
0197

> <Smiles>
CNC(C)C(=O)NC(C(=O)N1Cc2cc([101O:1][101CH2:1]c3ncc(CNC4CC[100N:0]([100C:0](=O)N5CCCC(n6nc(-c7ccc(Oc8ccc(F)cc8F)cc7)c(C(N)=O)c6N)C5)C4)nc3C)ccc2CC1C(=O)NC1CCCc2ccccc21)C(C)(C)C

> <Shape>
0.295

> <Color>
0.086

> <Negative vol penalty>
0.000

$$$$

  -OEChem-04052323453D

 86 96  0     1  0  0  0  0  0999 V2000
  -18.7982  -27.3831   22.5415 C   0  0  0  0  0  0  0  0  0  0  0  0
  -20.0577  -27.4870   23.1231 C   0  0  0  0  0  0  0  0  0  0  0  0
  -24.0975  -11.9278   20.0291 C   0  0  0  0  0  0  0  0  0  0  0  0
  -25.1391  -12.2038   22.1915 C   0  0  0  0  0  0  0  0  0  0  0  0
  -18.6425  -26.7003   21.3359 C   0  0  0  0  0  0  0  0  0  0  0  0
  -21.1622  -26.9072   22.4998 C   0  0  0  0  0  0  0  0  0  0  0  0
  -25.1902  -29.9758   22.4367 C   0  0  0  0  0  0  0  0  0  0  0  0
  -24.0845  -10.5451   20.2118 C   0  0  0  0  0  0  0  0  0  0  0  0
  -25.1261  -10.8210   22.3742 C   0  0  0  0  0  0  0  0  0  0  0  0
  -25.9239  -30.0877   23.6169 C   0  0  0  0  0  0  0  0  0  0  0  0
  -23.4483   -6.9663   20.2641 C   0  0  0  0  0  0  0  0  0  0  0  0
  -22.2785   -6.2800   19.9383 C   0  0  0  0  0  0  0  0  0  0  0  0
  -27.5537  -28.5385   22.7434 C   0  0  0  0  0  0  0  0  0  0  0  0
  -21.0600   -7.5842   21.5667 C   0  0  0  0  0  0  0  0  0  0  0  0
  -25.9550  -24.1494   24.1725 C   0  0  0  0  0  0  0  0  0  0  0  0
  -24.6248  -12.7572   21.0190 C   0  0  0  0  0  0  0  0  0  0  0  0
  -23.6349  -15.1015   21.1976 C   0  0  0  0  0  0  0  0  0  0  0  0
  -19.7472  -26.1201   20.6927 C   0  0  0  0  0  0  0  0  0  0  0  0
  -25.6277  -29.1346   21.4036 C   0  0  0  0  0  0  0  0  0  0  0  0
  -21.0209  -26.2149   21.2852 C   0  0  0  0  0  0  0  0  0  0  0  0
  -26.8250  -28.4196   21.5501 C   0  0  0  0  0  0  0  0  0  0  0  0
  -24.5988   -9.9916   21.3843 C   0  0  0  0  0  0  0  0  0  0  0  0
  -27.1043  -29.3668   23.7716 C   0  0  0  0  0  0  0  0  0  0  0  0
  -23.4240   -7.9614   21.2413 C   0  0  0  0  0  0  0  0  0  0  0  0
  -21.0843   -6.5890   20.5896 C   0  0  0  0  0  0  0  0  0  0  0  0
  -22.2298   -8.2704   21.8925 C   0  0  0  0  0  0  0  0  0  0  0  0
  -24.6390  -14.1856   20.8306 C   0  0  0  0  0  0  0  0  0  0  0  0
  -26.9946  -23.3015   23.8885 C   0  0  0  0  0  0  0  0  0  0  0  0
  -24.1251  -16.3235   20.8065 C   0  0  0  0  0  0  0  0  0  0  0  0
  -27.4175  -25.5623   25.1546 C   0  0  0  0  0  0  0  0  0  0  0  0
  -22.3720  -14.8685   21.8352 C   0  0  0  0  0  0  0  0  0  0  0  0
  -24.4517  -26.5600   19.9572 C   0  0  0  0  0  0  0  0  0  0  0  0
  -27.0294  -26.9466   18.0263 C   0  0  0  0  0  0  0  0  0  0  0  0
  -30.1818  -28.1880   17.6161 C   0  0  0  0  0  0  0  0  0  0  0  0
  -28.3343  -19.9658   20.4690 C   0  0  0  0  0  0  0  0  0  0  0  0
  -19.5219  -25.3514   19.4148 C   0  0  0  0  0  0  0  0  0  0  0  0
  -24.8387  -29.0455   20.1261 C   0  0  0  0  0  0  0  0  0  0  0  0
  -27.3486  -27.5184   20.4628 C   0  0  0  0  0  0  0  0  0  0  0  0
  -20.8036  -25.0872   18.6289 C   0  0  0  0  0  0  0  0  0  0  0  0
  -28.0757  -17.5332   17.9198 C   0  0  0  0  0  0  0  0  0  0  0  0
  -21.9031  -24.5787   19.5559 C   0  0  0  0  0  0  0  0  0  0  0  0
  -27.1049  -16.4992   18.4835 C   0  0  0  0  0  0  0  0  0  0  0  0
  -26.4506  -30.1953   26.8876 C   0  0  0  0  0  0  0  0  0  0  0  0
  -27.7599  -29.6899   27.4271 C   0  0  0  0  0  0  0  0  0  0  0  0
  -27.2085  -20.7124   23.8792 C   0  0  0  0  0  0  0  0  0  0  0  0
  -28.9827  -18.0773   19.0153 C   0  0  0  0  0  0  0  0  0  0  0  0
  -27.2235  -19.6798   22.7601 C   0  0  0  0  0  0  0  0  0  0  0  0
  -27.5171  -21.8678   21.8279 C   0  0  0  0  0  0  0  0  0  0  0  0
  -27.2374  -17.6876   20.7336 C   0  0  0  0  0  0  0  0  0  0  0  0
  -22.2472  -25.6206   20.6271 C   0  0  1  0  0  0  0  0  0  0  0  0
  -26.7642  -21.9962   23.1596 C   0  0  2  0  0  0  0  0  0  0  0  0
  -25.1099  -27.7637   19.3445 C   0  0  1  0  0  0  0  0  0  0  0  0
  -26.3082  -17.0879   19.6580 C   0  0  2  0  0  0  0  0  0  0  0  0
  -27.1875  -29.0988   26.1673 C   0  0  0  0  0  0  0  0  0  1  0  0
  -32.0473  -28.3132   15.9423 C   0  0  0  0  0  0  0  0  0  0  0  0
  -27.7493  -24.0406   18.6150 C   0  0  0  0  0  0  0  0  0  0  0  0
  -30.0448  -24.5026   17.7287 C   0  0  0  0  0  0  0  0  0  0  0  0
  -28.0625  -24.7307   16.2317 C   0  0  0  0  0  0  0  0  0  0  0  0
  -30.0694  -31.1444   17.5387 C   0  0  0  0  0  0  0  0  0  0  0  0
  -26.6455  -27.7074   26.1686 C   0  0  0  0  0  0  0  0  0  0  0  0
  -28.4569  -26.4556   18.0377 C   0  0  1  0  0  0  0  0  0  0  0  0
  -30.8073  -28.9984   16.4952 C   0  0  2  0  0  0  0  0  0  0  0  0
  -28.5678  -24.9478   17.6747 C   0  0  0  0  0  0  0  0  0  0  0  0
  -26.1438  -25.3103   24.8180 N   0  0  0  0  0  0  0  0  0  0  0  0
  -25.6878  -14.7753   20.2507 N   0  0  0  0  0  0  0  0  0  0  0  0
  -28.2532  -23.6081   24.2518 N   0  0  0  0  0  0  0  0  0  0  0  0
  -28.4769  -24.7685   24.9028 N   0  0  0  0  0  0  0  0  0  0  0  0
  -25.3454  -16.0749   20.2503 N   0  0  0  0  0  0  0  0  0  0  0  0
  -26.5382  -27.4600   19.2351 N   0  0  0  0  0  0  0  0  0  0  0  0
  -28.2150  -18.6105   20.1422 N   0  0  0  0  0  0  0  0  0  0  0  0
  -27.6270  -20.4346   21.5755 N   0  0  0  0  0  0  0  0  0  0  0  0
  -23.6271  -17.5756   20.8874 N   0  0  0  0  0  0  0  0  0  0  0  0
  -22.0250  -13.5524   22.1695 N   0  0  0  0  0  0  0  0  0  0  0  0
  -27.6736  -26.7708   25.8360 N   0  0  0  0  0  0  0  0  0  0  0  0
  -23.0783  -26.6650   20.0677 N   0  0  0  0  0  0  0  0  0  0  0  0
  -29.2001  -27.3407   17.1474 N   0  0  0  0  0  0  0  0  0  0  0  0
  -31.1973  -30.3496   16.9882 N   0  3  0  0  0  0  0  0  0  0  0  0
  -21.5677  -15.7980   22.0858 O   0  0  0  0  0  0  0  0  0  0  0  0
  -25.1387  -25.6059   20.3026 O   0  0  0  0  0  0  0  0  0  0  0  0
  -26.3766  -26.8839   16.9816 O   0  0  0  0  0  0  0  0  0  0  0  0
  -30.5318  -28.2932   18.7896 O   0  0  0  0  0  0  0  0  0  0  0  0
  -29.0754  -20.7198   19.8239 O   0  0  0  0  0  0  0  0  0  0  0  0
  -24.5861   -8.6424   21.5630 O   0  0  0  0  0  0  0  0  0  0  0  0
  -27.8324  -29.4752   24.9393 O   0  0  0  0  0  0  0  0  0  1  0  0
  -19.9606   -5.9310   20.2756 F   0  0  0  0  0  0  0  0  0  0  0  0
  -22.2000   -9.2262   22.8313 F   0  0  0  0  0  0  0  0  0  0  0  0
  1  2  1  0  0  0  0
  1  5  2  0  0  0  0
  2  6  2  0  0  0  0
  3  8  2  0  0  0  0
  3 16  1  0  0  0  0
  4  9  1  0  0  0  0
  4 16  2  0  0  0  0
  5 18  1  0  0  0  0
  6 20  1  0  0  0  0
  7 10  2  0  0  0  0
  7 19  1  0  0  0  0
  8 22  1  0  0  0  0
  9 22  2  0  0  0  0
 10 23  1  0  0  0  0
 11 12  2  0  0  0  0
 11 24  1  0  0  0  0
 12 25  1  0  0  0  0
 13 21  1  0  0  0  0
 13 23  2  0  0  0  0
 14 25  2  0  0  0  0
 14 26  1  0  0  0  0
 15 28  1  0  0  0  0
 15 64  2  0  0  0  0
 16 27  1  0  0  0  0
 17 27  1  0  0  0  0
 17 29  2  0  0  0  0
 17 31  1  0  0  0  0
 18 20  2  0  0  0  0
 18 36  1  0  0  0  0
 19 21  2  0  0  0  0
 19 37  1  0  0  0  0
 20 50  1  0  0  0  0
 21 38  1  0  0  0  0
 22 83  1  0  0  0  0
 23 84  1  0  0  0  0
 24 26  2  0  0  0  0
 24 83  1  0  0  0  0
 25 85  1  0  0  0  0
 26 86  1  0  0  0  0
 27 65  2  0  0  0  0
 28 51  1  0  0  0  0
 28 66  2  0  0  0  0
 29 68  1  0  0  0  0
 29 72  1  0  0  0  0
 30 64  1  0  0  0  0
 30 67  2  0  0  0  0
 30 74  1  0  0  0  0
 31 73  1  0  0  0  0
 31 78  2  0  0  0  0
 32 52  1  0  0  0  0
 32 75  1  0  0  0  0
 32 79  2  0  0  0  0
 33 61  1  0  0  0  0
 33 69  1  0  0  0  0
 33 80  2  0  0  0  0
 34 62  1  0  0  0  0
 34 76  1  0  0  0  0
 34 81  2  0  0  0  0
 35 70  1  0  0  0  0
 35 71  1  0  0  0  0
 35 82  2  0  0  0  0
 36 39  1  0  0  0  0
 37 52  1  0  0  0  0
 38 69  1  0  0  0  0
 39 41  1  0  0  0  0
 40 42  1  0  0  0  0
 40 46  1  0  0  0  0
 41 50  1  0  0  0  0
 42 53  1  0  0  0  0
 43 44  1  0  0  0  0
 43 54  1  0  0  0  0
 44 54  1  0  0  0  0
 45 47  1  0  0  0  0
 45 51  1  0  0  0  0
 46 70  1  0  0  0  0
 47 71  1  0  0  0  0
 48 51  1  0  0  0  0
 48 71  1  0  0  0  0
 49 53  1  0  0  0  0
 49 70  1  0  0  0  0
 50 75  1  0  0  0  0
 52 69  1  0  0  0  0
 53 68  1  0  0  0  0
 54 60  1  0  0  0  0
 54 84  1  0  0  0  0
 55 62  1  0  0  0  0
 56 63  1  0  0  0  0
 57 63  1  0  0  0  0
 58 63  1  0  0  0  0
 59 77  1  0  0  0  0
 60 74  1  0  0  0  0
 61 63  1  0  0  0  0
 61 76  1  0  0  0  0
 62 77  1  0  0  0  0
 65 68  1  0  0  0  0
 66 67  1  0  0  0  0
M  CHG  1  77   1
M  ISO  4  35 100  54 101  71 100  84 101
M  END
> <Batch ID>
0197

> <Smiles>
CNC(C)C(=O)NC(C(=O)N1Cc2cc([101O:1][101C:1]3(CNc4ncc(C5CC[100N:0]([100C:0](=O)N6CCCC(n7nc(-c8ccc(Oc9ccc(F)cc9F)cc8)c(C(N)=O)c7N)C6)C5)nn4)CC3)ccc2CC1C(=O)NC1CCCc2ccccc21)C(C)(C)C

> <Shape>
0.240

> <Color>
0.063

> <Negative vol penalty>
0.000

$$$$

  -OEChem-04052323453D

 93104  0     1  0  0  0  0  0999 V2000
  -26.3225  -32.8307   28.2331 C   0  0  0  0  0  0  0  0  0  0  0  0
  -26.9244  -32.0102   27.2845 C   0  0  0  0  0  0  0  0  0  0  0  0
  -25.2891   -8.1188   22.4640 C   0  0  0  0  0  0  0  0  0  0  0  0
  -24.1571   -8.0978   24.5983 C   0  0  0  0  0  0  0  0  0  0  0  0
  -24.9387  -32.8015   28.4009 C   0  0  0  0  0  0  0  0  0  0  0  0
  -26.1429  -31.1592   26.5038 C   0  0  0  0  0  0  0  0  0  0  0  0
  -27.1209  -29.5831   20.6673 C   0  0  0  0  0  0  0  0  0  0  0  0
  -25.7996   -6.8467   22.7222 C   0  0  0  0  0  0  0  0  0  0  0  0
  -24.6677   -6.8257   24.8565 C   0  0  0  0  0  0  0  0  0  0  0  0
  -27.7025  -28.4581   20.0843 C   0  0  0  0  0  0  0  0  0  0  0  0
  -25.3798   -3.4232   25.9214 C   0  0  0  0  0  0  0  0  0  0  0  0
  -24.5069   -2.4658   26.4381 C   0  0  0  0  0  0  0  0  0  0  0  0
  -25.5141  -27.4869   19.7898 C   0  0  0  0  0  0  0  0  0  0  0  0
  -23.1116   -2.6799   24.4774 C   0  0  0  0  0  0  0  0  0  0  0  0
  -30.7471  -19.7553   21.7141 C   0  0  0  0  0  0  0  0  0  0  0  0
  -24.4679   -8.7444   23.4020 C   0  0  0  0  0  0  0  0  0  0  0  0
  -22.7272  -10.3743   22.4959 C   0  0  0  0  0  0  0  0  0  0  0  0
  -24.1388  -31.9568   27.6152 C   0  0  0  0  0  0  0  0  0  0  0  0
  -25.7300  -29.6639   20.8261 C   0  0  0  0  0  0  0  0  0  0  0  0
  -24.7472  -31.1178   26.6621 C   0  0  0  0  0  0  0  0  0  0  0  0
  -24.9172  -28.6151   20.3727 C   0  0  0  0  0  0  0  0  0  0  0  0
  -25.4889   -6.2001   23.9185 C   0  0  0  0  0  0  0  0  0  0  0  0
  -26.8993  -27.4085   19.6481 C   0  0  0  0  0  0  0  0  0  0  0  0
  -25.1187   -4.0089   24.6827 C   0  0  0  0  0  0  0  0  0  0  0  0
  -23.3728   -2.0941   25.7161 C   0  0  0  0  0  0  0  0  0  0  0  0
  -23.9846   -3.6373   23.9607 C   0  0  0  0  0  0  0  0  0  0  0  0
  -23.9406  -10.0587   23.1361 C   0  0  0  0  0  0  0  0  0  0  0  0
  -29.9204  -20.4886   20.8917 C   0  0  0  0  0  0  0  0  0  0  0  0
  -29.8903  -18.7668   19.3868 C   0  0  0  0  0  0  0  0  0  0  0  0
  -30.7176  -18.0338   20.2090 C   0  0  0  0  0  0  0  0  0  0  0  0
  -22.6891  -11.7473   22.4901 C   0  0  0  0  0  0  0  0  0  0  0  0
  -21.7242   -9.5043   21.9549 C   0  0  0  0  0  0  0  0  0  0  0  0
  -23.7663  -29.8998   23.3144 C   0  0  0  0  0  0  0  0  0  0  0  0
  -21.5112  -30.2354   21.0070 C   0  0  0  0  0  0  0  0  0  0  0  0
  -20.5641  -29.6702   17.7774 C   0  0  0  0  0  0  0  0  0  0  0  0
  -26.7666  -12.9654   20.9215 C   0  0  0  0  0  0  0  0  0  0  0  0
  -22.6519  -31.9256   27.8654 C   0  0  0  0  0  0  0  0  0  0  0  0
  -25.1162  -30.8959   21.4325 C   0  0  0  0  0  0  0  0  0  0  0  0
  -23.4173  -28.6616   20.5017 C   0  0  0  0  0  0  0  0  0  0  0  0
  -21.8582  -31.2690   26.7388 C   0  0  0  0  0  0  0  0  0  0  0  0
  -26.6037  -13.4620   24.4725 C   0  0  0  0  0  0  0  0  0  0  0  0
  -22.5150  -29.9586   26.3166 C   0  0  0  0  0  0  0  0  0  0  0  0
  -28.1201  -18.7378   17.5055 C   0  0  0  0  0  0  0  0  0  0  0  0
  -28.1788  -17.3512   18.0658 C   0  0  0  0  0  0  0  0  0  0  0  0
  -25.1323  -13.8541   24.6231 C   0  0  0  0  0  0  0  0  0  0  0  0
  -30.0121  -12.5362   19.1966 C   0  0  0  0  0  0  0  0  0  0  0  0
  -30.5443  -22.8770   21.6577 C   0  0  0  0  0  0  0  0  0  0  0  0
  -27.2407  -14.0038   23.1939 C   0  0  0  0  0  0  0  0  0  0  0  0
  -28.5384  -12.2037   19.3706 C   0  0  0  0  0  0  0  0  0  0  0  0
  -29.1647  -13.8782   20.9709 C   0  0  0  0  0  0  0  0  0  0  0  0
  -25.0151  -14.2060   22.1451 C   0  0  0  0  0  0  0  0  0  0  0  0
  -23.9309  -30.1992   25.7790 C   0  0  1  0  0  0  0  0  0  0  0  0
  -29.4924  -21.8555   21.2976 C   0  0  1  0  0  0  0  0  0  0  0  0
  -29.4090  -18.2184   18.0840 C   0  0  0  0  0  0  0  0  0  0  0  0
  -23.7269  -30.6479   22.0120 C   0  0  1  0  0  0  0  0  0  0  0  0
  -30.1070  -13.9507   19.7695 C   0  0  1  0  0  0  0  0  0  0  0  0
  -24.2889  -13.5897   23.3574 C   0  0  1  0  0  0  0  0  0  0  0  0
  -29.7808  -23.0173   20.3765 C   0  0  1  0  0  0  0  0  0  0  0  0
  -18.6498  -30.0275   16.1946 C   0  0  0  0  0  0  0  0  0  0  0  0
  -19.9846  -27.9561   22.3427 C   0  0  0  0  0  0  0  0  0  0  0  0
  -18.6314  -27.7282   20.2486 C   0  0  0  0  0  0  0  0  0  0  0  0
  -18.5535  -29.8506   21.5570 C   0  0  0  0  0  0  0  0  0  0  0  0
  -22.2192  -31.3249   15.9659 C   0  0  0  0  0  0  0  0  0  0  0  0
  -31.5236  -14.3542   20.1377 C   0  0  0  0  0  0  0  0  0  0  0  0
  -31.6061  -15.7600   20.7245 C   0  0  0  0  0  0  0  0  0  0  0  0
  -27.7772  -23.9236   19.1920 C   0  0  0  0  0  0  0  0  0  0  0  0
  -26.7836  -25.0673   19.2464 C   0  0  0  0  0  0  0  0  0  1  0  0
  -20.6297  -29.2894   20.2279 C   0  0  1  0  0  0  0  0  0  0  0  0
  -19.9586  -30.5872   16.7301 C   0  0  2  0  0  0  0  0  0  0  0  0
  -19.4782  -28.7041   21.0933 C   0  0  0  0  0  0  0  0  0  0  0  0
  -31.1606  -18.5148   21.3875 N   0  0  0  0  0  0  0  0  0  0  0  0
  -24.6240  -11.1438   23.5097 N   0  0  0  0  0  0  0  0  0  0  0  0
  -29.4772  -20.0074   19.7133 N   0  0  0  0  0  0  0  0  0  0  0  0
  -23.8374  -12.1547   23.1030 N   0  0  0  0  0  0  0  0  0  0  0  0
  -22.8650  -29.8847   21.1071 N   0  0  0  0  0  0  0  0  0  0  0  0
  -26.3983  -13.7414   22.0255 N   0  0  0  0  0  0  0  0  0  0  0  0
  -28.1085  -12.9567   20.5449 N   0  0  0  0  0  0  0  0  0  0  0  0
  -21.7857  -12.6338   22.0205 N   0  0  0  0  0  0  0  0  0  0  0  0
  -21.9216   -8.1197   22.0451 N   0  0  0  0  0  0  0  0  0  0  0  0
  -31.1114  -16.7596   19.8188 N   0  0  0  0  0  0  0  0  0  0  0  0
  -23.8776  -30.7121   24.4267 N   0  0  0  0  0  0  0  0  0  0  0  0
  -20.1786  -30.0264   19.0525 N   0  0  0  0  0  0  0  0  0  0  0  0
  -28.7717  -24.0810   20.2968 N   0  3  0  0  0  0  0  0  0  0  0  0
  -20.8987  -30.7596   15.5867 N   0  3  0  0  0  0  0  0  0  0  0  0
  -20.6916   -9.9419   21.3931 O   0  0  0  0  0  0  0  0  0  0  0  0
  -23.6991  -28.6762   23.3106 O   0  0  0  0  0  0  0  0  0  0  0  0
  -21.0182  -31.2519   21.5023 O   0  0  0  0  0  0  0  0  0  0  0  0
  -21.3021  -28.7296   17.4926 O   0  0  0  0  0  0  0  0  0  0  0  0
  -25.9228  -12.3369   20.2679 O   0  0  0  0  0  0  0  0  0  0  0  0
  -25.9867   -4.9587   24.1707 O   0  0  0  0  0  0  0  0  0  0  0  0
  -27.4685  -26.3010   19.0753 O   0  0  0  0  0  0  0  0  0  1  0  0
  -22.5354   -1.1737   26.2117 F   0  0  0  0  0  0  0  0  0  0  0  0
  -23.7290   -4.1957   22.7696 F   0  0  0  0  0  0  0  0  0  0  0  0
  1  2  1  0  0  0  0
  1  5  2  0  0  0  0
  2  6  2  0  0  0  0
  3  8  2  0  0  0  0
  3 16  1  0  0  0  0
  4  9  1  0  0  0  0
  4 16  2  0  0  0  0
  5 18  1  0  0  0  0
  6 20  1  0  0  0  0
  7 10  2  0  0  0  0
  7 19  1  0  0  0  0
  8 22  1  0  0  0  0
  9 22  2  0  0  0  0
 10 23  1  0  0  0  0
 11 12  2  0  0  0  0
 11 24  1  0  0  0  0
 12 25  1  0  0  0  0
 13 21  1  0  0  0  0
 13 23  2  0  0  0  0
 14 25  2  0  0  0  0
 14 26  1  0  0  0  0
 15 28  1  0  0  0  0
 15 71  2  0  0  0  0
 16 27  1  0  0  0  0
 17 27  1  0  0  0  0
 17 31  2  0  0  0  0
 17 32  1  0  0  0  0
 18 20  2  0  0  0  0
 18 37  1  0  0  0  0
 19 21  2  0  0  0  0
 19 38  1  0  0  0  0
 20 52  1  0  0  0  0
 21 39  1  0  0  0  0
 22 90  1  0  0  0  0
 23 91  1  0  0  0  0
 24 26  2  0  0  0  0
 24 90  1  0  0  0  0
 25 92  1  0  0  0  0
 26 93  1  0  0  0  0
 27 72  2  0  0  0  0
 28 53  1  0  0  0  0
 28 73  2  0  0  0  0
 29 30  2  0  0  0  0
 29 54  1  0  0  0  0
 29 73  1  0  0  0  0
 30 71  1  0  0  0  0
 30 80  1  0  0  0  0
 31 74  1  0  0  0  0
 31 78  1  0  0  0  0
 32 79  1  0  0  0  0
 32 85  2  0  0  0  0
 33 55  1  0  0  0  0
 33 81  1  0  0  0  0
 33 86  2  0  0  0  0
 34 68  1  0  0  0  0
 34 75  1  0  0  0  0
 34 87  2  0  0  0  0
 35 69  1  0  0  0  0
 35 82  1  0  0  0  0
 35 88  2  0  0  0  0
 36 76  1  0  0  0  0
 36 77  1  0  0  0  0
 36 89  2  0  0  0  0
 37 40  1  0  0  0  0
 38 55  1  0  0  0  0
 39 75  1  0  0  0  0
 40 42  1  0  0  0  0
 41 45  1  0  0  0  0
 41 48  1  0  0  0  0
 42 52  1  0  0  0  0
 43 44  1  0  0  0  0
 43 54  1  0  0  0  0
 44 54  1  0  0  0  0
 45 57  1  0  0  0  0
 46 49  1  0  0  0  0
 46 56  1  0  0  0  0
 47 53  1  0  0  0  0
 47 58  1  0  0  0  0
 48 76  1  0  0  0  0
 49 77  1  0  0  0  0
 50 56  1  0  0  0  0
 50 77  1  0  0  0  0
 51 57  1  0  0  0  0
 51 76  1  0  0  0  0
 52 81  1  0  0  0  0
 53 58  1  0  0  0  0
 55 75  1  0  0  0  0
 56 64  1  0  0  0  0
 57 74  1  0  0  0  0
 58 83  1  0  0  0  0
 59 69  1  0  0  0  0
 60 70  1  0  0  0  0
 61 70  1  0  0  0  0
 62 70  1  0  0  0  0
 63 84  1  0  0  0  0
 64 65  1  0  0  0  0
 65 80  1  0  0  0  0
 66 67  1  0  0  0  0
 66 83  1  0  0  0  0
 67 91  1  0  0  0  0
 68 70  1  0  0  0  0
 68 82  1  0  0  0  0
 69 84  1  0  0  0  0
 72 74  1  0  0  0  0
M  CHG  2  83   1  84   1
M  ISO  4  36 100  67 101  77 100  91 101
M  END
> <Batch ID>
0197

> <Smiles>
CNC(C)C(=O)NC(C(=O)N1Cc2cc([101O:1][101CH2:1]CNC3CC3c3cnc(NCCC4CC[100N:0]([100C:0](=O)N5CCCC(n6nc(-c7ccc(Oc8ccc(F)cc8F)cc7)c(C(N)=O)c6N)C5)C4)c(C4CC4)n3)ccc2CC1C(=O)NC1CCCc2ccccc21)C(C)(C)C

> <Shape>
0.270

> <Color>
0.106

> <Negative vol penalty>
0.000

$$$$

  -OEChem-04052323453D

 85 94  0     1  0  0  0  0  0999 V2000
  -16.8562  -28.2429   23.8637 C   0  0  0  0  0  0  0  0  0  0  0  0
  -17.8138  -27.5462   23.1336 C   0  0  0  0  0  0  0  0  0  0  0  0
  -25.3238  -12.1807   21.6151 C   0  0  0  0  0  0  0  0  0  0  0  0
  -26.0120  -13.5702   19.7623 C   0  0  0  0  0  0  0  0  0  0  0  0
  -16.9926  -29.6168   24.0575 C   0  0  0  0  0  0  0  0  0  0  0  0
  -18.9078  -28.2233   22.5959 C   0  0  0  0  0  0  0  0  0  0  0  0
  -23.3476  -25.7372   23.3704 C   0  0  0  0  0  0  0  0  0  0  0  0
  -24.0461  -12.7371   21.5579 C   0  0  0  0  0  0  0  0  0  0  0  0
  -24.7342  -14.1266   19.7050 C   0  0  0  0  0  0  0  0  0  0  0  0
  -23.6477  -24.6475   22.5542 C   0  0  0  0  0  0  0  0  0  0  0  0
  -22.5248  -15.5882   22.5487 C   0  0  0  0  0  0  0  0  0  0  0  0
  -21.9301  -15.9689   23.7515 C   0  0  0  0  0  0  0  0  0  0  0  0
  -25.0331  -26.0657   21.1803 C   0  0  0  0  0  0  0  0  0  0  0  0
  -20.1105  -14.4343   23.3375 C   0  0  0  0  0  0  0  0  0  0  0  0
  -29.3997  -18.7401   19.6211 C   0  0  0  0  0  0  0  0  0  0  0  0
  -26.3068  -12.5972   20.7173 C   0  0  0  0  0  0  0  0  0  0  0  0
  -27.9724  -10.6675   20.6192 C   0  0  0  0  0  0  0  0  0  0  0  0
  -18.0938  -30.3095   23.5301 C   0  0  0  0  0  0  0  0  0  0  0  0
  -23.8804  -27.0041   23.0915 C   0  0  0  0  0  0  0  0  0  0  0  0
  -19.0583  -29.6081   22.7817 C   0  0  0  0  0  0  0  0  0  0  0  0
  -24.7420  -27.1688   21.9973 C   0  0  0  0  0  0  0  0  0  0  0  0
  -23.7512  -13.7101   20.6028 C   0  0  0  0  0  0  0  0  0  0  0  0
  -24.4888  -24.8121   21.4577 C   0  0  0  0  0  0  0  0  0  0  0  0
  -21.9124  -14.6306   21.7401 C   0  0  0  0  0  0  0  0  0  0  0  0
  -20.7229  -15.3919   24.1460 C   0  0  0  0  0  0  0  0  0  0  0  0
  -20.7052  -14.0537   22.1346 C   0  0  0  0  0  0  0  0  0  0  0  0
  -27.6271  -12.0231   20.7763 C   0  0  0  0  0  0  0  0  0  0  0  0
  -29.2973  -19.5936   18.5062 C   0  0  0  0  0  0  0  0  0  0  0  0
  -30.2006  -17.7099   19.1924 C   0  0  0  0  0  0  0  0  0  0  0  0
  -29.3382  -10.6423   20.7614 C   0  0  0  0  0  0  0  0  0  0  0  0
  -27.1335   -9.5324   20.3671 C   0  0  0  0  0  0  0  0  0  0  0  0
  -22.7208  -29.9046   22.3926 C   0  0  0  0  0  0  0  0  0  0  0  0
  -25.9451  -30.6793   22.6314 C   0  0  0  0  0  0  0  0  0  0  0  0
  -25.0961  -33.9834   22.6753 C   0  0  0  0  0  0  0  0  0  0  0  0
  -30.3871  -16.1804   21.1852 C   0  0  0  0  0  0  0  0  0  0  0  0
  -18.1736  -31.8028   23.7257 C   0  0  0  0  0  0  0  0  0  0  0  0
  -23.5682  -28.1605   24.0024 C   0  0  0  0  0  0  0  0  0  0  0  0
  -25.3421  -28.5065   21.6581 C   0  0  0  0  0  0  0  0  0  0  0  0
  -19.5572  -32.3814   23.4408 C   0  0  0  0  0  0  0  0  0  0  0  0
  -30.9866  -13.4422   23.5486 C   0  0  0  0  0  0  0  0  0  0  0  0
  -20.1089  -31.8260   22.1316 C   0  0  0  0  0  0  0  0  0  0  0  0
  -31.5467  -12.3196   22.6841 C   0  0  0  0  0  0  0  0  0  0  0  0
  -28.9713  -21.9609   19.4044 C   0  0  0  0  0  0  0  0  0  0  0  0
  -31.3743  -14.8028   22.9896 C   0  0  0  0  0  0  0  0  0  0  0  0
  -31.4012  -13.8786   20.6736 C   0  0  0  0  0  0  0  0  0  0  0  0
  -27.8351  -22.9596   19.3340 C   0  0  0  0  0  0  0  0  0  0  0  0
  -27.0271  -20.7508   18.6584 C   0  0  0  0  0  0  0  0  0  0  0  0
  -20.2720  -30.3030   22.2037 C   0  0  1  0  0  0  0  0  0  0  0  0
  -28.5307  -20.8898   18.4088 C   0  0  2  0  0  0  0  0  0  0  0  0
  -23.8064  -29.5253   23.3595 C   0  0  1  0  0  0  0  0  0  0  0  0
  -31.1271  -12.4579   21.2127 C   0  0  2  0  0  0  0  0  0  0  0  0
  -26.0738  -36.2635   23.0529 C   0  0  0  0  0  0  0  0  0  0  0  0
  -23.8555  -24.7317   18.6632 C   0  0  0  0  0  0  0  0  0  0  0  0
  -25.9714  -30.1664   25.6384 C   0  0  0  0  0  0  0  0  0  0  0  0
  -26.0118  -32.6449   25.9895 C   0  0  0  0  0  0  0  0  0  0  0  0
  -27.8938  -31.5254   24.7947 C   0  0  0  0  0  0  0  0  0  0  0  0
  -31.3415  -17.2129   17.0073 C   0  0  0  0  0  0  0  0  0  0  0  0
  -24.4129  -34.8580   19.9317 C   0  0  0  0  0  0  0  0  0  0  0  0
  -25.4406  -22.7252   18.5879 C   0  0  0  0  0  0  0  0  0  0  0  0
  -25.6594  -31.7669   23.6366 C   0  0  1  0  0  0  0  0  0  0  0  0
  -25.7351  -35.1965   22.0236 C   0  0  2  0  0  0  0  0  0  0  0  0
  -25.0527  -24.0250   19.2855 C   0  0  2  0  0  0  0  0  0  1  0  0
  -26.3633  -31.5138   24.9997 C   0  0  0  0  0  0  0  0  0  0  0  0
  -28.6880  -12.8027   21.0013 N   0  0  0  0  0  0  0  0  0  0  0  0
  -29.9789  -19.1448   17.4489 N   0  0  0  0  0  0  0  0  0  0  0  0
  -29.7134  -11.9341   20.9867 N   0  0  0  0  0  0  0  0  0  0  0  0
  -30.5172  -17.9980   17.8974 N   0  0  0  0  0  0  0  0  0  0  0  0
  -25.0757  -29.5811   22.6232 N   0  0  0  0  0  0  0  0  0  0  0  0
  -30.9887  -14.9616   21.5854 N   0  0  0  0  0  0  0  0  0  0  0  0
  -30.2429   -9.6415   20.7146 N   0  0  0  0  0  0  0  0  0  0  0  0
  -25.7518   -9.7358   20.2485 N   0  0  0  0  0  0  0  0  0  0  0  0
  -30.6591  -16.5523   19.8684 N   0  0  0  0  0  0  0  0  0  0  0  0
  -21.4596  -29.9568   22.9549 N   0  0  0  0  0  0  0  0  0  0  0  0
  -26.0325  -33.0233   22.9957 N   0  0  0  0  0  0  0  0  0  0  0  0
  -26.6076  -22.0807   19.2635 N   0  3  2  0  0  0  0  0  0  0  0  0
  -24.8105  -35.7910   21.0172 N   0  3  0  0  0  0  0  0  0  0  0  0
  -27.5936   -8.3698   20.2667 O   0  0  0  0  0  0  0  0  0  0  0  0
  -23.0064  -30.1343   21.2232 O   0  0  0  0  0  0  0  0  0  0  0  0
  -26.9160  -30.7943   21.8783 O   0  0  0  0  0  0  0  0  0  0  0  0
  -23.8878  -33.8978   22.8830 O   0  0  0  0  0  0  0  0  0  0  0  0
  -29.7009  -16.8527   21.9592 O   0  0  0  0  0  0  0  0  0  0  0  0
  -22.5045  -14.2532   20.5466 O   0  0  0  0  0  0  0  0  0  0  0  0
  -24.7839  -23.7500   20.6597 O   0  0  0  0  0  0  0  0  0  1  0  0
  -20.1527  -15.7565   25.3019 F   0  0  0  0  0  0  0  0  0  0  0  0
  -20.1127  -13.1324   21.3626 F   0  0  0  0  0  0  0  0  0  0  0  0
  1  2  1  0  0  0  0
  1  5  2  0  0  0  0
  2  6  2  0  0  0  0
  3  8  2  0  0  0  0
  3 16  1  0  0  0  0
  4  9  1  0  0  0  0
  4 16  2  0  0  0  0
  5 18  1  0  0  0  0
  6 20  1  0  0  0  0
  7 10  2  0  0  0  0
  7 19  1  0  0  0  0
  8 22  1  0  0  0  0
  9 22  2  0  0  0  0
 10 23  1  0  0  0  0
 11 12  2  0  0  0  0
 11 24  1  0  0  0  0
 12 25  1  0  0  0  0
 13 21  1  0  0  0  0
 13 23  2  0  0  0  0
 14 25  2  0  0  0  0
 14 26  1  0  0  0  0
 15 28  1  0  0  0  0
 15 29  2  0  0  0  0
 16 27  1  0  0  0  0
 17 27  1  0  0  0  0
 17 30  2  0  0  0  0
 17 31  1  0  0  0  0
 18 20  2  0  0  0  0
 18 36  1  0  0  0  0
 19 21  2  0  0  0  0
 19 37  1  0  0  0  0
 20 48  1  0  0  0  0
 21 38  1  0  0  0  0
 22 82  1  0  0  0  0
 23 83  1  0  0  0  0
 24 26  2  0  0  0  0
 24 82  1  0  0  0  0
 25 84  1  0  0  0  0
 26 85  1  0  0  0  0
 27 64  2  0  0  0  0
 28 49  1  0  0  0  0
 28 65  2  0  0  0  0
 29 67  1  0  0  0  0
 29 72  1  0  0  0  0
 30 66  1  0  0  0  0
 30 70  1  0  0  0  0
 31 71  1  0  0  0  0
 31 77  2  0  0  0  0
 32 50  1  0  0  0  0
 32 73  1  0  0  0  0
 32 78  2  0  0  0  0
 33 60  1  0  0  0  0
 33 68  1  0  0  0  0
 33 79  2  0  0  0  0
 34 61  1  0  0  0  0
 34 74  1  0  0  0  0
 34 80  2  0  0  0  0
 35 69  1  0  0  0  0
 35 72  1  0  0  0  0
 35 81  2  0  0  0  0
 36 39  1  0  0  0  0
 37 50  1  0  0  0  0
 38 68  1  0  0  0  0
 39 41  1  0  0  0  0
 40 42  1  0  0  0  0
 40 44  1  0  0  0  0
 41 48  1  0  0  0  0
 42 51  1  0  0  0  0
 43 46  1  0  0  0  0
 43 49  1  0  0  0  0
 44 69  1  0  0  0  0
 45 51  1  0  0  0  0
 45 69  1  0  0  0  0
 46 75  1  0  0  0  0
 47 49  1  0  0  0  0
 47 75  1  0  0  0  0
 48 73  1  0  0  0  0
 50 68  1  0  0  0  0
 51 66  1  0  0  0  0
 52 61  1  0  0  0  0
 53 62  1  0  0  0  0
 54 63  1  0  0  0  0
 55 63  1  0  0  0  0
 56 63  1  0  0  0  0
 57 67  1  0  0  0  0
 58 76  1  0  0  0  0
 59 62  1  0  0  0  0
 59 75  1  0  0  0  0
 60 63  1  0  0  0  0
 60 74  1  0  0  0  0
 61 76  1  0  0  0  0
 62 83  1  0  0  0  0
 64 66  1  0  0  0  0
 65 67  1  0  0  0  0
M  CHG  2  75   1  76   1
M  ISO  4  35 100  62 101  72 100  83 101
M  END
> <Batch ID>
0197

> <Smiles>
CNC(C)C(=O)NC(C(=O)N1Cc2cc([101O:1][101CH:1](C)CN3CCC(c4cc([100NH:0][100C:0](=O)N5CCCC(n6nc(-c7ccc(Oc8ccc(F)cc8F)cc7)c(C(N)=O)c6N)C5)n(C)n4)C3)ccc2CC1C(=O)NC1CCCc2ccccc21)C(C)(C)C

> <Shape>
0.276

> <Color>
0.075

> <Negative vol penalty>
0.000

$$$$

  -OEChem-04052323453D

 90100  0     1  0  0  0  0  0999 V2000
  -21.1892  -27.1349   22.2822 C   0  0  0  0  0  0  0  0  0  0  0  0
  -21.1317  -25.7903   21.9295 C   0  0  0  0  0  0  0  0  0  0  0  0
  -26.3931  -28.5737   18.7553 C   0  0  0  0  0  0  0  0  0  0  0  0
  -25.9650  -27.7453   20.9841 C   0  0  0  0  0  0  0  0  0  0  0  0
  -22.0567  -27.5534   23.2903 C   0  0  0  0  0  0  0  0  0  0  0  0
  -21.9426  -24.8637   22.5840 C   0  0  0  0  0  0  0  0  0  0  0  0
  -20.5496  -19.0533   23.9271 C   0  0  0  0  0  0  0  0  0  0  0  0
  -25.4496  -29.5825   18.9490 C   0  0  0  0  0  0  0  0  0  0  0  0
  -25.0215  -28.7542   21.1779 C   0  0  0  0  0  0  0  0  0  0  0  0
  -20.8570  -17.8462   23.3009 C   0  0  0  0  0  0  0  0  0  0  0  0
  -25.0193  -32.0512   21.9197 C   0  0  0  0  0  0  0  0  0  0  0  0
  -25.0525  -32.7436   23.1301 C   0  0  0  0  0  0  0  0  0  0  0  0
  -22.7263  -17.5530   24.7971 C   0  0  0  0  0  0  0  0  0  0  0  0
  -22.7955  -32.0235   23.6039 C   0  0  0  0  0  0  0  0  0  0  0  0
  -28.4983  -11.7499   19.0954 C   0  0  0  0  0  0  0  0  0  0  0  0
  -29.6271  -13.5380   18.2249 C   0  0  0  0  0  0  0  0  0  0  0  0
  -26.6508  -27.6550   19.7728 C   0  0  0  0  0  0  0  0  0  0  0  0
  -29.0022  -26.6695   19.8591 C   0  0  0  0  0  0  0  0  0  0  0  0
  -22.8716  -26.6301   23.9640 C   0  0  0  0  0  0  0  0  0  0  0  0
  -21.3360  -19.5254   24.9877 C   0  0  0  0  0  0  0  0  0  0  0  0
  -22.8228  -25.2705   23.6011 C   0  0  0  0  0  0  0  0  0  0  0  0
  -22.4253  -18.7651   25.4368 C   0  0  0  0  0  0  0  0  0  0  0  0
  -24.7638  -29.6728   20.1603 C   0  0  0  0  0  0  0  0  0  0  0  0
  -21.9472  -17.0972   23.7339 C   0  0  0  0  0  0  0  0  0  0  0  0
  -23.8742  -31.3449   21.5514 C   0  0  0  0  0  0  0  0  0  0  0  0
  -23.9405  -32.7298   23.9722 C   0  0  0  0  0  0  0  0  0  0  0  0
  -22.7623  -31.3310   22.3934 C   0  0  0  0  0  0  0  0  0  0  0  0
  -27.6250  -26.6123   19.5731 C   0  0  0  0  0  0  0  0  0  0  0  0
  -28.1983  -12.4867   20.2200 C   0  0  0  0  0  0  0  0  0  0  0  0
  -29.3266  -14.2752   19.3491 C   0  0  0  0  0  0  0  0  0  0  0  0
  -29.4804  -25.4350   19.4931 C   0  0  0  0  0  0  0  0  0  0  0  0
  -29.7797  -27.7424   20.4068 C   0  0  0  0  0  0  0  0  0  0  0  0
  -23.1360  -22.1000   25.4726 C   0  0  0  0  0  0  0  0  0  0  0  0
  -23.3741  -20.8893   28.4726 C   0  0  0  0  0  0  0  0  0  0  0  0
  -23.2216  -18.1602   30.5160 C   0  0  0  0  0  0  0  0  0  0  0  0
  -29.0938  -19.9842   19.5299 C   0  0  0  0  0  0  0  0  0  0  0  0
  -23.8278  -27.1368   25.0145 C   0  0  0  0  0  0  0  0  0  0  0  0
  -20.9752  -20.8164   25.6701 C   0  0  0  0  0  0  0  0  0  0  0  0
  -23.2890  -19.2179   26.5846 C   0  0  0  0  0  0  0  0  0  0  0  0
  -24.3813  -26.0363   25.9161 C   0  0  0  0  0  0  0  0  0  0  0  0
  -27.2849  -21.6878   16.9001 C   0  0  0  0  0  0  0  0  0  0  0  0
  -24.8397  -24.8437   25.0828 C   0  0  0  0  0  0  0  0  0  0  0  0
  -27.3296  -23.1356   17.3915 C   0  0  0  0  0  0  0  0  0  0  0  0
  -23.8037  -11.2579   21.7804 C   0  0  0  0  0  0  0  0  0  0  0  0
  -27.1137  -20.7134   18.0622 C   0  0  0  0  0  0  0  0  0  0  0  0
  -25.2665  -10.8142   21.8263 C   0  0  0  0  0  0  0  0  0  0  0  0
  -28.1893  -22.2872   19.6224 C   0  0  0  0  0  0  0  0  0  0  0  0
  -30.0099  -16.4713   18.3289 C   0  0  0  0  0  0  0  0  0  0  0  0
  -29.3402  -16.5973   20.3177 C   0  0  0  0  0  0  0  0  0  0  0  0
  -25.2746  -13.0612   21.1822 C   0  0  0  0  0  0  0  0  0  0  0  0
  -23.6686  -24.2316   24.3048 C   0  0  1  0  0  0  0  0  0  0  0  0
  -22.1511  -21.4529   26.4047 C   0  0  1  0  0  0  0  0  0  0  0  0
  -28.3858  -23.3192   18.4971 C   0  0  2  0  0  0  0  0  0  0  0  0
  -29.9298  -17.6237   19.3400 C   0  0  0  0  0  0  0  0  0  0  0  0
  -23.8375  -12.5964   21.0569 C   0  0  2  0  0  0  0  0  0  0  0  0
  -23.4993  -17.4774   32.9147 C   0  0  0  0  0  0  0  0  0  0  0  0
  -26.4048  -21.0736   28.1717 C   0  0  0  0  0  0  0  0  0  0  0  0
  -26.6234  -19.5380   30.1370 C   0  0  0  0  0  0  0  0  0  0  0  0
  -25.5349  -21.7656   30.4120 C   0  0  0  0  0  0  0  0  0  0  0  0
  -20.4198  -17.2238   30.6946 C   0  0  0  0  0  0  0  0  0  0  0  0
  -27.3935  -11.8826   21.3342 C   0  0  0  0  0  0  0  0  0  0  0  0
  -22.9309  -14.9115   21.0495 C   0  0  0  0  0  0  0  0  0  0  0  0
  -21.9149  -15.7981   21.7422 C   0  0  0  0  0  0  0  0  0  1  0  0
  -24.3134  -19.9342   29.1686 C   0  0  1  0  0  0  0  0  0  0  0  0
  -22.5210  -17.9337   31.8435 C   0  0  2  0  0  0  0  0  0  0  0  0
  -25.7042  -20.5700   29.4494 C   0  0  0  0  0  0  0  0  0  0  0  0
  -29.2181  -12.2623   18.0777 N   0  0  0  0  0  0  0  0  0  0  0  0
  -27.2524  -25.4348   19.0645 N   0  0  0  0  0  0  0  0  0  0  0  0
  -28.6071  -13.7626   20.3670 N   0  0  0  0  0  0  0  0  0  0  0  0
  -28.4026  -24.7407   19.0279 N   0  0  0  0  0  0  0  0  0  0  0  0
  -29.7944  -15.6063   19.4224 N   0  0  0  0  0  0  0  0  0  0  0  0
  -22.8994  -20.4900   27.2152 N   0  0  0  0  0  0  0  0  0  0  0  0
  -28.1618  -20.9283   19.0703 N   0  0  0  0  0  0  0  0  0  0  0  0
  -25.9809  -11.7911   20.9979 N   0  0  1  0  0  0  0  0  0  0  0  0
  -30.7135  -24.8867   19.5269 N   0  0  0  0  0  0  0  0  0  0  0  0
  -29.1301  -28.9423   20.7272 N   0  0  0  0  0  0  0  0  0  0  0  0
  -22.8500  -23.4198   25.1796 N   0  0  0  0  0  0  0  0  0  0  0  0
  -23.6150  -19.4730   30.3635 N   0  0  0  0  0  0  0  0  0  0  0  0
  -29.0118  -18.7177   18.9609 N   0  0  0  0  0  0  0  0  0  0  0  0
  -22.9067  -13.5622   21.6686 N   0  3  0  0  0  0  0  0  0  0  0  0
  -21.4628  -16.8942   31.6999 N   0  3  0  0  0  0  0  0  0  0  0  0
  -31.0167  -27.6459   20.5908 O   0  0  0  0  0  0  0  0  0  0  0  0
  -24.0861  -21.4505   25.0516 O   0  0  0  0  0  0  0  0  0  0  0  0
  -23.0670  -21.9474   29.0273 O   0  0  0  0  0  0  0  0  0  0  0  0
  -23.4052  -17.2616   29.6978 O   0  0  0  0  0  0  0  0  0  0  0  0
  -29.9475  -20.2462   20.3845 O   0  0  0  0  0  0  0  0  0  0  0  0
  -23.8432  -30.6573   20.3497 O   0  0  0  0  0  0  0  0  0  0  0  0
  -22.2499  -15.9190   23.1240 O   0  0  0  0  0  0  0  0  0  1  0  0
  -23.9730  -33.3935   25.1352 F   0  0  0  0  0  0  0  0  0  0  0  0
  -21.6599  -30.6533   22.0455 F   0  0  0  0  0  0  0  0  0  0  0  0
  1  2  1  0  0  0  0
  1  5  2  0  0  0  0
  2  6  2  0  0  0  0
  3  8  2  0  0  0  0
  3 17  1  0  0  0  0
  4  9  1  0  0  0  0
  4 17  2  0  0  0  0
  5 19  1  0  0  0  0
  6 21  1  0  0  0  0
  7 10  2  0  0  0  0
  7 20  1  0  0  0  0
  8 23  1  0  0  0  0
  9 23  2  0  0  0  0
 10 24  1  0  0  0  0
 11 12  2  0  0  0  0
 11 25  1  0  0  0  0
 12 26  1  0  0  0  0
 13 22  1  0  0  0  0
 13 24  2  0  0  0  0
 14 26  2  0  0  0  0
 14 27  1  0  0  0  0
 15 29  1  0  0  0  0
 15 67  2  0  0  0  0
 16 30  2  0  0  0  0
 16 67  1  0  0  0  0
 17 28  1  0  0  0  0
 18 28  1  0  0  0  0
 18 31  2  0  0  0  0
 18 32  1  0  0  0  0
 19 21  2  0  0  0  0
 19 37  1  0  0  0  0
 20 22  2  0  0  0  0
 20 38  1  0  0  0  0
 21 51  1  0  0  0  0
 22 39  1  0  0  0  0
 23 87  1  0  0  0  0
 24 88  1  0  0  0  0
 25 27  2  0  0  0  0
 25 87  1  0  0  0  0
 26 89  1  0  0  0  0
 27 90  1  0  0  0  0
 28 68  2  0  0  0  0
 29 61  1  0  0  0  0
 29 69  2  0  0  0  0
 30 69  1  0  0  0  0
 30 71  1  0  0  0  0
 31 70  1  0  0  0  0
 31 75  1  0  0  0  0
 32 76  1  0  0  0  0
 32 82  2  0  0  0  0
 33 52  1  0  0  0  0
 33 77  1  0  0  0  0
 33 83  2  0  0  0  0
 34 64  1  0  0  0  0
 34 72  1  0  0  0  0
 34 84  2  0  0  0  0
 35 65  1  0  0  0  0
 35 78  1  0  0  0  0
 35 85  2  0  0  0  0
 36 73  1  0  0  0  0
 36 79  1  0  0  0  0
 36 86  2  0  0  0  0
 37 40  1  0  0  0  0
 38 52  1  0  0  0  0
 39 72  1  0  0  0  0
 40 42  1  0  0  0  0
 41 43  1  0  0  0  0
 41 45  1  0  0  0  0
 42 51  1  0  0  0  0
 43 53  1  0  0  0  0
 44 46  1  0  0  0  0
 44 55  1  0  0  0  0
 45 73  1  0  0  0  0
 46 74  1  0  0  0  0
 47 53  1  0  0  0  0
 47 73  1  0  0  0  0
 48 54  1  0  0  0  0
 48 71  1  0  0  0  0
 49 54  1  0  0  0  0
 49 71  1  0  0  0  0
 50 55  1  0  0  0  0
 50 74  1  0  0  0  0
 51 77  1  0  0  0  0
 52 72  1  0  0  0  0
 53 70  1  0  0  0  0
 54 79  1  0  0  0  0
 55 80  1  0  0  0  0
 56 65  1  0  0  0  0
 57 66  1  0  0  0  0
 58 66  1  0  0  0  0
 59 66  1  0  0  0  0
 60 81  1  0  0  0  0
 61 74  1  0  0  0  0
 62 63  1  0  0  0  0
 62 80  1  0  0  0  0
 63 88  1  0  0  0  0
 64 66  1  0  0  0  0
 64 78  1  0  0  0  0
 65 81  1  0  0  0  0
 68 70  1  0  0  0  0
M  CHG  2  80   1  81   1
M  ISO  4  36 100  63 101  79 100  88 101
M  END
> <Batch ID>
0197

> <Smiles>
CNC(C)C(=O)NC(C(=O)N1Cc2cc([101O:1][101CH2:1]CNC3CCN(Cc4cncc(N5CC([100NH:0][100C:0](=O)N6CCCC(n7nc(-c8ccc(Oc9ccc(F)cc9F)cc8)c(C(N)=O)c7N)C6)C5)n4)C3)ccc2CC1C(=O)NC1CCCc2ccccc21)C(C)(C)C

> <Shape>
0.238

> <Color>
0.061

> <Negative vol penalty>
0.000

$$$$

  -OEChem-04052323453D

 89100  0     1  0  0  0  0  0999 V2000
  -23.5600   -7.9913   22.0670 C   0  0  0  0  0  0  0  0  0  0  0  0
  -24.3025   -8.9362   21.3662 C   0  0  0  0  0  0  0  0  0  0  0  0
  -22.4199  -31.4292   21.4253 C   0  0  0  0  0  0  0  0  0  0  0  0
  -22.3722  -29.4686   22.8363 C   0  0  0  0  0  0  0  0  0  0  0  0
  -22.2383   -8.2647   22.4168 C   0  0  0  0  0  0  0  0  0  0  0  0
  -23.7234  -10.1548   21.0138 C   0  0  0  0  0  0  0  0  0  0  0  0
  -26.7788  -14.0911   21.9165 C   0  0  0  0  0  0  0  0  0  0  0  0
  -21.1961  -31.8395   21.9541 C   0  0  0  0  0  0  0  0  0  0  0  0
  -21.1484  -29.8790   23.3651 C   0  0  0  0  0  0  0  0  0  0  0  0
  -27.8055  -14.3229   21.0022 C   0  0  0  0  0  0  0  0  0  0  0  0
  -17.8968  -29.8430   22.4396 C   0  0  0  0  0  0  0  0  0  0  0  0
  -16.8917  -28.8843   22.5669 C   0  0  0  0  0  0  0  0  0  0  0  0
  -26.4859  -16.0581   19.9693 C   0  0  0  0  0  0  0  0  0  0  0  0
  -16.8307  -29.2649   24.9520 C   0  0  0  0  0  0  0  0  0  0  0  0
  -31.8865  -22.0233   21.4263 C   0  0  0  0  0  0  0  0  0  0  0  0
  -23.0079  -30.2437   21.8664 C   0  0  0  0  0  0  0  0  0  0  0  0
  -25.5558  -30.1349   21.8029 C   0  0  0  0  0  0  0  0  0  0  0  0
  -21.6457   -9.4911   22.0770 C   0  0  0  0  0  0  0  0  0  0  0  0
  -25.5914  -14.8349   21.8570 C   0  0  0  0  0  0  0  0  0  0  0  0
  -22.3921  -10.4443   21.3582 C   0  0  0  0  0  0  0  0  0  0  0  0
  -25.4466  -15.8355   20.8855 C   0  0  0  0  0  0  0  0  0  0  0  0
  -20.5604  -31.0644   22.9240 C   0  0  0  0  0  0  0  0  0  0  0  0
  -27.6580  -15.3045   20.0267 C   0  0  0  0  0  0  0  0  0  0  0  0
  -18.3690  -30.5126   23.5685 C   0  0  0  0  0  0  0  0  0  0  0  0
  -16.3586  -28.5953   23.8231 C   0  0  0  0  0  0  0  0  0  0  0  0
  -17.8359  -30.2236   24.8247 C   0  0  0  0  0  0  0  0  0  0  0  0
  -24.2717  -29.8189   21.3201 C   0  0  0  0  0  0  0  0  0  0  0  0
  -32.7929  -20.9835   21.3885 C   0  0  0  0  0  0  0  0  0  0  0  0
  -30.8334  -21.9299   20.5394 C   0  0  0  0  0  0  0  0  0  0  0  0
  -26.4134  -29.4939   20.9427 C   0  0  0  0  0  0  0  0  0  0  0  0
  -31.6184  -19.9531   19.7374 C   0  0  0  0  0  0  0  0  0  0  0  0
  -25.9390  -30.9362   22.9284 C   0  0  0  0  0  0  0  0  0  0  0  0
  -22.5294  -14.1367   21.3672 C   0  0  0  0  0  0  0  0  0  0  0  0
  -22.1052  -17.2764   22.0633 C   0  0  0  0  0  0  0  0  0  0  0  0
  -23.4284  -20.4195   22.1939 C   0  0  0  0  0  0  0  0  0  0  0  0
  -27.8397  -24.9711   18.0089 C   0  0  0  0  0  0  0  0  0  0  0  0
  -20.1992   -9.7224   22.4355 C   0  0  0  0  0  0  0  0  0  0  0  0
  -24.5041  -14.5909   22.8673 C   0  0  0  0  0  0  0  0  0  0  0  0
  -24.1999  -16.6754   20.7919 C   0  0  0  0  0  0  0  0  0  0  0  0
  -19.7775  -11.1871   22.3516 C   0  0  0  0  0  0  0  0  0  0  0  0
  -25.5827  -27.2399   16.5118 C   0  0  0  0  0  0  0  0  0  0  0  0
  -20.2754  -11.8124   21.0524 C   0  0  0  0  0  0  0  0  0  0  0  0
  -34.1915  -19.8370   23.2333 C   0  0  0  0  0  0  0  0  0  0  0  0
  -33.7184  -21.1406   23.7962 C   0  0  0  0  0  0  0  0  0  0  0  0
  -25.1144  -28.1216   17.6661 C   0  0  0  0  0  0  0  0  0  0  0  0
  -28.3325  -22.5974   20.7615 C   0  0  0  0  0  0  0  0  0  0  0  0
  -25.7576  -25.7980   16.9690 C   0  0  0  0  0  0  0  0  0  0  0  0
  -27.5334  -23.7945   20.2642 C   0  0  0  0  0  0  0  0  0  0  0  0
  -29.6564  -23.7385   19.1543 C   0  0  0  0  0  0  0  0  0  0  0  0
  -26.2865  -26.5335   19.2776 C   0  0  0  0  0  0  0  0  0  0  0  0
  -30.0612  -17.3604   20.1854 C   0  0  0  0  0  0  0  0  0  0  0  0
  -30.9653  -16.4217   18.5533 C   0  0  0  0  0  0  0  0  0  0  0  0
  -21.8069  -11.7875   20.9796 C   0  0  1  0  0  0  0  0  0  0  0  0
  -33.9611  -21.0087   22.3157 C   0  0  0  0  0  0  0  0  0  0  0  0
  -29.7876  -23.0224   20.5059 C   0  0  2  0  0  0  0  0  0  0  0  0
  -23.1313  -15.0563   22.3917 C   0  0  1  0  0  0  0  0  0  0  0  0
  -26.0727  -28.0036   18.8614 C   0  0  2  0  0  0  0  0  0  0  0  0
  -29.9599  -15.9358   19.6120 C   0  0  0  0  0  0  0  0  0  1  0  0
  -22.8278  -22.7874   22.7680 C   0  0  0  0  0  0  0  0  0  0  0  0
  -20.5806  -17.5251   19.4320 C   0  0  0  0  0  0  0  0  0  0  0  0
  -20.8391  -20.0098   19.5976 C   0  0  0  0  0  0  0  0  0  0  0  0
  -19.5649  -18.7708   21.3480 C   0  0  0  0  0  0  0  0  0  0  0  0
  -25.4642  -20.5384   24.3388 C   0  0  0  0  0  0  0  0  0  0  0  0
  -31.4696  -18.8036   18.7995 C   0  0  0  0  0  0  0  0  0  0  0  0
  -22.0825  -18.5556   21.2619 C   0  0  1  0  0  0  0  0  0  0  0  0
  -23.4052  -21.4778   23.2820 C   0  0  2  0  0  0  0  0  0  0  0  0
  -20.7896  -18.6984   20.4102 C   0  0  0  0  0  0  0  0  0  0  0  0
  -24.3059  -29.0380   20.2370 N   0  0  0  0  0  0  0  0  0  0  0  0
  -32.6892  -19.9287   20.5536 N   0  0  0  0  0  0  0  0  0  0  0  0
  -30.6678  -20.9052   19.6776 N   0  0  0  0  0  0  0  0  0  0  0  0
  -25.6218  -28.8580   20.0321 N   0  0  0  0  0  0  0  0  0  0  0  0
  -23.1626  -16.3947   21.7983 N   0  0  0  0  0  0  0  0  0  0  0  0
  -26.6500  -25.6984   18.1254 N   0  0  0  0  0  0  0  0  0  0  0  0
  -28.3139  -24.3107   19.1417 N   0  0  0  0  0  0  0  0  0  0  0  0
  -27.7600  -29.4179   20.8838 N   0  0  0  0  0  0  0  0  0  0  0  0
  -24.9307  -31.5214   23.7063 N   0  0  0  0  0  0  0  0  0  0  0  0
  -22.3692  -12.8356   21.8041 N   0  0  0  0  0  0  0  0  0  0  0  0
  -22.2920  -19.6390   22.2163 N   0  0  0  0  0  0  0  0  0  0  0  0
  -31.3512  -17.4979   19.4847 N   0  3  0  0  0  0  0  0  0  0  0  0
  -24.7849  -21.7367   23.7823 N   0  3  0  0  0  0  0  0  0  0  0  0
  -27.1404  -31.1410   23.2256 O   0  0  0  0  0  0  0  0  0  0  0  0
  -22.2309  -14.5755   20.2626 O   0  0  0  0  0  0  0  0  0  0  0  0
  -21.2215  -17.0706   22.8990 O   0  0  0  0  0  0  0  0  0  0  0  0
  -24.3597  -20.2998   21.4009 O   0  0  0  0  0  0  0  0  0  0  0  0
  -28.4340  -24.8800   16.9261 O   0  0  0  0  0  0  0  0  0  0  0  0
  -19.3664  -31.4647   23.4404 O   0  0  0  0  0  0  0  0  0  0  0  0
  -28.6701  -15.5351   19.1222 O   0  0  0  0  0  0  0  0  0  1  0  0
  -15.3923  -27.6758   23.9450 F   0  0  0  0  0  0  0  0  0  0  0  0
  -18.2846  -30.8645   25.9127 F   0  0  0  0  0  0  0  0  0  0  0  0
  1  2  1  0  0  0  0
  1  5  2  0  0  0  0
  2  6  2  0  0  0  0
  3  8  2  0  0  0  0
  3 16  1  0  0  0  0
  4  9  1  0  0  0  0
  4 16  2  0  0  0  0
  5 18  1  0  0  0  0
  6 20  1  0  0  0  0
  7 10  2  0  0  0  0
  7 19  1  0  0  0  0
  8 22  1  0  0  0  0
  9 22  2  0  0  0  0
 10 23  1  0  0  0  0
 11 12  2  0  0  0  0
 11 24  1  0  0  0  0
 12 25  1  0  0  0  0
 13 21  1  0  0  0  0
 13 23  2  0  0  0  0
 14 25  2  0  0  0  0
 14 26  1  0  0  0  0
 15 28  1  0  0  0  0
 15 29  2  0  0  0  0
 16 27  1  0  0  0  0
 17 27  1  0  0  0  0
 17 30  2  0  0  0  0
 17 32  1  0  0  0  0
 18 20  2  0  0  0  0
 18 37  1  0  0  0  0
 19 21  2  0  0  0  0
 19 38  1  0  0  0  0
 20 53  1  0  0  0  0
 21 39  1  0  0  0  0
 22 86  1  0  0  0  0
 23 87  1  0  0  0  0
 24 26  2  0  0  0  0
 24 86  1  0  0  0  0
 25 88  1  0  0  0  0
 26 89  1  0  0  0  0
 27 68  2  0  0  0  0
 28 54  1  0  0  0  0
 28 69  2  0  0  0  0
 29 55  1  0  0  0  0
 29 70  1  0  0  0  0
 30 71  1  0  0  0  0
 30 75  1  0  0  0  0
 31 64  1  0  0  0  0
 31 69  1  0  0  0  0
 31 70  2  0  0  0  0
 32 76  1  0  0  0  0
 32 81  2  0  0  0  0
 33 56  1  0  0  0  0
 33 77  1  0  0  0  0
 33 82  2  0  0  0  0
 34 65  1  0  0  0  0
 34 72  1  0  0  0  0
 34 83  2  0  0  0  0
 35 66  1  0  0  0  0
 35 78  1  0  0  0  0
 35 84  2  0  0  0  0
 36 73  1  0  0  0  0
 36 74  1  0  0  0  0
 36 85  2  0  0  0  0
 37 40  1  0  0  0  0
 38 56  1  0  0  0  0
 39 72  1  0  0  0  0
 40 42  1  0  0  0  0
 41 45  1  0  0  0  0
 41 47  1  0  0  0  0
 42 53  1  0  0  0  0
 43 44  1  0  0  0  0
 43 54  1  0  0  0  0
 44 54  1  0  0  0  0
 45 57  1  0  0  0  0
 46 48  1  0  0  0  0
 46 55  1  0  0  0  0
 47 73  1  0  0  0  0
 48 74  1  0  0  0  0
 49 55  1  0  0  0  0
 49 74  1  0  0  0  0
 50 57  1  0  0  0  0
 50 73  1  0  0  0  0
 51 58  1  0  0  0  0
 51 79  1  0  0  0  0
 52 58  1  0  0  0  0
 52 79  1  0  0  0  0
 53 77  1  0  0  0  0
 56 72  1  0  0  0  0
 57 71  1  0  0  0  0
 58 87  1  0  0  0  0
 59 66  1  0  0  0  0
 60 67  1  0  0  0  0
 61 67  1  0  0  0  0
 62 67  1  0  0  0  0
 63 80  1  0  0  0  0
 64 79  1  0  0  0  0
 65 67  1  0  0  0  0
 65 78  1  0  0  0  0
 66 80  1  0  0  0  0
 68 71  1  0  0  0  0
M  CHG  2  79   1  80   1
M  ISO  4  36 100  58 101  74 100  87 101
M  END
> <Batch ID>
0197

> <Smiles>
CNC(C)C(=O)NC(C(=O)N1Cc2cc([101O:1][101CH:1]3CN(Cc4nc(C5CC5)cc(C5CC[100N:0]([100C:0](=O)N6CCCC(n7nc(-c8ccc(Oc9ccc(F)cc9F)cc8)c(C(N)=O)c7N)C6)C5)n4)C3)ccc2CC1C(=O)NC1CCCc2ccccc21)C(C)(C)C

> <Shape>
0.236

> <Color>
0.071

> <Negative vol penalty>
0.000

$$$$

  -OEChem-04052323453D

 92103  0     1  0  0  0  0  0999 V2000
  -17.6682  -28.2654   28.5807 C   0  0  0  0  0  0  0  0  0  0  0  0
  -17.7162  -27.0006   28.0032 C   0  0  0  0  0  0  0  0  0  0  0  0
  -23.3859   -9.7449   20.0069 C   0  0  0  0  0  0  0  0  0  0  0  0
  -23.6202  -10.1182   22.3824 C   0  0  0  0  0  0  0  0  0  0  0  0
  -17.9481  -29.3932   27.8103 C   0  0  0  0  0  0  0  0  0  0  0  0
  -18.0430  -26.8630   26.6546 C   0  0  0  0  0  0  0  0  0  0  0  0
  -21.3566  -22.3950   22.1409 C   0  0  0  0  0  0  0  0  0  0  0  0
  -22.6602   -8.5812   20.2613 C   0  0  0  0  0  0  0  0  0  0  0  0
  -22.8944   -8.9545   22.6368 C   0  0  0  0  0  0  0  0  0  0  0  0
  -21.1413  -21.7237   20.9381 C   0  0  0  0  0  0  0  0  0  0  0  0
  -19.6539   -7.9955   22.6538 C   0  0  0  0  0  0  0  0  0  0  0  0
  -18.6602   -8.0540   23.6308 C   0  0  0  0  0  0  0  0  0  0  0  0
  -21.6832  -23.7368   19.7245 C   0  0  0  0  0  0  0  0  0  0  0  0
  -19.7981   -6.3353   24.8911 C   0  0  0  0  0  0  0  0  0  0  0  0
  -23.8660  -10.5133   21.0674 C   0  0  0  0  0  0  0  0  0  0  0  0
  -24.1070  -13.0185   20.6508 C   0  0  0  0  0  0  0  0  0  0  0  0
  -18.2880  -29.2687   26.4539 C   0  0  0  0  0  0  0  0  0  0  0  0
  -21.7268  -23.7476   22.1447 C   0  0  0  0  0  0  0  0  0  0  0  0
  -18.3264  -27.9904   25.8650 C   0  0  0  0  0  0  0  0  0  0  0  0
  -21.9050  -24.4223   20.9286 C   0  0  0  0  0  0  0  0  0  0  0  0
  -22.4144   -8.1860   21.5763 C   0  0  0  0  0  0  0  0  0  0  0  0
  -21.3018  -22.3953   19.7297 C   0  0  0  0  0  0  0  0  0  0  0  0
  -20.7198   -7.1069   22.7954 C   0  0  0  0  0  0  0  0  0  0  0  0
  -18.7323   -7.2239   24.7495 C   0  0  0  0  0  0  0  0  0  0  0  0
  -20.7919   -6.2768   23.9140 C   0  0  0  0  0  0  0  0  0  0  0  0
  -24.6162  -11.7152   20.8052 C   0  0  0  0  0  0  0  0  0  0  0  0
  -25.2160  -13.7954   20.4202 C   0  0  0  0  0  0  0  0  0  0  0  0
  -26.9904  -21.2284   15.3501 C   0  0  0  0  0  0  0  0  0  0  0  0
  -28.8676  -22.0519   14.4367 C   0  0  0  0  0  0  0  0  0  0  0  0
  -28.8653  -19.9949   15.3341 C   0  0  0  0  0  0  0  0  0  0  0  0
  -22.7526  -13.4853   20.7106 C   0  0  0  0  0  0  0  0  0  0  0  0
  -20.4268  -26.4258   23.2586 C   0  0  0  0  0  0  0  0  0  0  0  0
  -23.2451  -27.7254   22.3150 C   0  0  0  0  0  0  0  0  0  0  0  0
  -25.9866  -27.5419   20.2908 C   0  0  0  0  0  0  0  0  0  0  0  0
  -30.0495  -14.4131   17.5685 C   0  0  0  0  0  0  0  0  0  0  0  0
  -18.5362  -30.5203   25.6499 C   0  0  0  0  0  0  0  0  0  0  0  0
  -21.9812  -24.4502   23.4501 C   0  0  0  0  0  0  0  0  0  0  0  0
  -22.3211  -25.8689   20.8779 C   0  0  0  0  0  0  0  0  0  0  0  0
  -19.2402  -30.2607   24.3205 C   0  0  0  0  0  0  0  0  0  0  0  0
  -30.1421  -12.7316   20.8299 C   0  0  0  0  0  0  0  0  0  0  0  0
  -18.5893  -29.0895   23.5916 C   0  0  0  0  0  0  0  0  0  0  0  0
  -28.6729  -12.3839   21.0736 C   0  0  0  0  0  0  0  0  0  0  0  0
  -28.8893  -17.8918   17.8311 C   0  0  0  0  0  0  0  0  0  0  0  0
  -25.3078  -21.1937   17.2274 C   0  0  0  0  0  0  0  0  0  0  0  0
  -24.7397  -19.1497   16.1534 C   0  0  0  0  0  0  0  0  0  0  0  0
  -30.4853  -12.7534   19.3422 C   0  0  0  0  0  0  0  0  0  0  0  0
  -28.7111  -16.4620   18.3309 C   0  0  0  0  0  0  0  0  0  0  0  0
  -28.1425  -13.2591   18.7688 C   0  0  0  0  0  0  0  0  0  0  0  0
  -29.7355  -16.4275   16.1597 C   0  0  0  0  0  0  0  0  0  0  0  0
  -23.2001  -20.6562   15.1965 C   0  0  0  0  0  0  0  0  0  0  0  0
  -18.7012  -27.7984   24.4115 C   0  0  1  0  0  0  0  0  0  0  0  0
  -25.5516  -21.3856   15.7066 C   0  0  2  0  0  0  0  0  0  0  0  0
  -21.8549  -25.9670   23.3468 C   0  0  1  0  0  0  0  0  0  0  0  0
  -24.6781  -20.2513   15.0945 C   0  0  1  0  0  0  0  0  0  0  0  0
  -27.7429  -13.2945   20.2504 C   0  0  1  0  0  0  0  0  0  0  0  0
  -28.9215  -17.7029   16.3184 C   0  0  2  0  0  0  0  0  0  0  0  0
  -24.2695  -20.0642   17.2751 C   0  0  2  0  0  0  0  0  0  0  0  0
  -29.5885  -23.1565   13.7422 C   0  0  0  0  0  0  0  0  0  0  0  0
  -28.0997  -28.7693   19.7203 C   0  0  0  0  0  0  0  0  0  0  0  0
  -21.6281  -29.7632   20.7204 C   0  0  0  0  0  0  0  0  0  0  0  0
  -23.7152  -30.3278   19.4581 C   0  0  0  0  0  0  0  0  0  0  0  0
  -23.6070  -30.7107   21.9207 C   0  0  0  0  0  0  0  0  0  0  0  0
  -27.6754  -25.2613   21.1310 C   0  0  0  0  0  0  0  0  0  0  0  0
  -21.7375  -19.9126   17.1279 C   0  0  0  0  0  0  0  0  0  0  0  0
  -21.3575  -20.3418   18.5313 C   0  0  0  0  0  0  0  0  0  1  0  0
  -23.7625  -28.3460   21.0397 C   0  0  1  0  0  0  0  0  0  0  0  0
  -27.4683  -27.6901   20.5859 C   0  0  2  0  0  0  0  0  0  0  0  0
  -23.1684  -29.7602   20.7854 C   0  0  0  0  0  0  0  0  0  0  0  0
  -25.9452  -11.6630   20.6829 N   0  0  0  0  0  0  0  0  0  0  0  0
  -27.5739  -22.2645   14.7261 N   0  0  0  0  0  0  0  0  0  0  0  0
  -27.5713  -20.0650   15.6856 N   0  0  0  0  0  0  0  0  0  0  0  0
  -29.5783  -20.9457   14.7091 N   0  0  0  0  0  0  0  0  0  0  0  0
  -26.2805  -12.9433   20.4491 N   0  0  0  0  0  0  0  0  0  0  0  0
  -22.5519  -26.5141   22.1810 N   0  0  0  0  0  0  0  0  0  0  0  0
  -29.5572  -13.6088   18.6022 N   0  0  0  0  0  0  0  0  0  0  0  0
  -29.4233  -15.6395   17.3496 N   0  0  0  0  0  0  0  0  0  0  0  0
  -25.3746  -15.1174   20.1976 N   0  0  0  0  0  0  0  0  0  0  0  0
  -21.7351  -12.5534   20.9567 N   0  0  0  0  0  0  0  0  0  0  0  0
  -29.5341  -18.8197   15.6488 N   0  0  0  0  0  0  0  0  0  0  0  0
  -20.0331  -27.2433   24.3008 N   0  0  0  0  0  0  0  0  0  0  0  0
  -25.2181  -28.3173   21.1331 N   0  0  0  0  0  0  0  0  0  0  0  0
  -22.9715  -20.6453   16.7044 N   0  3  2  0  0  0  0  0  0  0  0  0
  -28.1787  -26.4056   20.3283 N   0  3  0  0  0  0  0  0  0  0  0  0
  -22.4521  -14.6903   20.5343 O   0  0  0  0  0  0  0  0  0  0  0  0
  -19.7338  -26.0661   22.3141 O   0  0  0  0  0  0  0  0  0  0  0  0
  -23.4548  -28.2908   23.3911 O   0  0  0  0  0  0  0  0  0  0  0  0
  -25.5544  -26.8142   19.3996 O   0  0  0  0  0  0  0  0  0  0  0  0
  -31.0350  -14.0723   16.9009 O   0  0  0  0  0  0  0  0  0  0  0  0
  -21.7061   -7.0507   21.8249 O   0  0  0  0  0  0  0  0  0  0  0  0
  -21.0902  -21.7379   18.5458 O   0  0  0  0  0  0  0  0  0  1  0  0
  -17.7787   -7.2812   25.6884 F   0  0  0  0  0  0  0  0  0  0  0  0
  -21.8141   -5.4220   24.0561 F   0  0  0  0  0  0  0  0  0  0  0  0
  1  2  1  0  0  0  0
  1  5  2  0  0  0  0
  2  6  2  0  0  0  0
  3  8  2  0  0  0  0
  3 15  1  0  0  0  0
  4  9  1  0  0  0  0
  4 15  2  0  0  0  0
  5 17  1  0  0  0  0
  6 19  1  0  0  0  0
  7 10  2  0  0  0  0
  7 18  1  0  0  0  0
  8 21  1  0  0  0  0
  9 21  2  0  0  0  0
 10 22  1  0  0  0  0
 11 12  2  0  0  0  0
 11 23  1  0  0  0  0
 12 24  1  0  0  0  0
 13 20  1  0  0  0  0
 13 22  2  0  0  0  0
 14 24  2  0  0  0  0
 14 25  1  0  0  0  0
 15 26  1  0  0  0  0
 16 26  1  0  0  0  0
 16 27  2  0  0  0  0
 16 31  1  0  0  0  0
 17 19  2  0  0  0  0
 17 36  1  0  0  0  0
 18 20  2  0  0  0  0
 18 37  1  0  0  0  0
 19 51  1  0  0  0  0
 20 38  1  0  0  0  0
 21 89  1  0  0  0  0
 22 90  1  0  0  0  0
 23 25  2  0  0  0  0
 23 89  1  0  0  0  0
 24 91  1  0  0  0  0
 25 92  1  0  0  0  0
 26 69  2  0  0  0  0
 27 73  1  0  0  0  0
 27 77  1  0  0  0  0
 28 52  1  0  0  0  0
 28 70  1  0  0  0  0
 28 71  2  0  0  0  0
 29 58  1  0  0  0  0
 29 70  2  0  0  0  0
 29 72  1  0  0  0  0
 30 71  1  0  0  0  0
 30 72  2  0  0  0  0
 30 79  1  0  0  0  0
 31 78  1  0  0  0  0
 31 84  2  0  0  0  0
 32 53  1  0  0  0  0
 32 80  1  0  0  0  0
 32 85  2  0  0  0  0
 33 66  1  0  0  0  0
 33 74  1  0  0  0  0
 33 86  2  0  0  0  0
 34 67  1  0  0  0  0
 34 81  1  0  0  0  0
 34 87  2  0  0  0  0
 35 75  1  0  0  0  0
 35 76  1  0  0  0  0
 35 88  2  0  0  0  0
 36 39  1  0  0  0  0
 37 53  1  0  0  0  0
 38 74  1  0  0  0  0
 39 41  1  0  0  0  0
 40 42  1  0  0  0  0
 40 46  1  0  0  0  0
 41 51  1  0  0  0  0
 42 55  1  0  0  0  0
 43 47  1  0  0  0  0
 43 56  1  0  0  0  0
 44 52  1  0  0  0  0
 44 57  1  0  0  0  0
 45 54  1  0  0  0  0
 45 57  1  0  0  0  0
 46 75  1  0  0  0  0
 47 76  1  0  0  0  0
 48 55  1  0  0  0  0
 48 75  1  0  0  0  0
 49 56  1  0  0  0  0
 49 76  1  0  0  0  0
 50 54  1  0  0  0  0
 50 82  1  0  0  0  0
 51 80  1  0  0  0  0
 52 54  1  0  0  0  0
 53 74  1  0  0  0  0
 55 73  1  0  0  0  0
 56 79  1  0  0  0  0
 57 82  1  0  0  0  0
 59 67  1  0  0  0  0
 60 68  1  0  0  0  0
 61 68  1  0  0  0  0
 62 68  1  0  0  0  0
 63 83  1  0  0  0  0
 64 65  1  0  0  0  0
 64 82  1  0  0  0  0
 65 90  1  0  0  0  0
 66 68  1  0  0  0  0
 66 81  1  0  0  0  0
 67 83  1  0  0  0  0
 69 73  1  0  0  0  0
M  CHG  2  82   1  83   1
M  ISO  4  35 100  65 101  76 100  90 101
M  END
> <Batch ID>
0197

> <Smiles>
CNC(C)C(=O)NC(C(=O)N1Cc2cc([101O:1][101CH2:1]CN3CC4CC3CC4c3nc(C)nc(NC4CC[100N:0]([100C:0](=O)N5CCCC(n6nc(-c7ccc(Oc8ccc(F)cc8F)cc7)c(C(N)=O)c6N)C5)C4)n3)ccc2CC1C(=O)NC1CCCc2ccccc21)C(C)(C)C

> <Shape>
0.237

> <Color>
0.149

> <Negative vol penalty>
0.000

$$$$

  -OEChem-04052323453D

 84 93  0     1  0  0  0  0  0999 V2000
  -16.5653  -29.1778   23.1702 C   0  0  0  0  0  0  0  0  0  0  0  0
  -17.4807  -29.0641   22.1288 C   0  0  0  0  0  0  0  0  0  0  0  0
  -26.6784  -12.3057   21.4639 C   0  0  0  0  0  0  0  0  0  0  0  0
  -24.5824  -12.2034   20.2667 C   0  0  0  0  0  0  0  0  0  0  0  0
  -17.0154  -29.3937   24.4720 C   0  0  0  0  0  0  0  0  0  0  0  0
  -18.8469  -29.1673   22.3885 C   0  0  0  0  0  0  0  0  0  0  0  0
  -25.1639  -26.6515   20.1342 C   0  0  0  0  0  0  0  0  0  0  0  0
  -26.4297  -11.0452   22.0070 C   0  0  0  0  0  0  0  0  0  0  0  0
  -24.3338  -10.9428   20.8096 C   0  0  0  0  0  0  0  0  0  0  0  0
  -26.4137  -27.1019   19.7112 C   0  0  0  0  0  0  0  0  0  0  0  0
  -23.2368   -9.6653   23.7415 C   0  0  0  0  0  0  0  0  0  0  0  0
  -21.9586   -9.4153   24.2406 C   0  0  0  0  0  0  0  0  0  0  0  0
  -27.0793  -27.3963   22.0111 C   0  0  0  0  0  0  0  0  0  0  0  0
  -21.6969   -7.6039   22.6635 C   0  0  0  0  0  0  0  0  0  0  0  0
  -25.7546  -12.8849   20.5938 C   0  0  0  0  0  0  0  0  0  0  0  0
  -27.0998  -14.5659   19.2256 C   0  0  0  0  0  0  0  0  0  0  0  0
  -18.3882  -29.4900   24.7493 C   0  0  0  0  0  0  0  0  0  0  0  0
  -24.8581  -26.5803   21.5009 C   0  0  0  0  0  0  0  0  0  0  0  0
  -19.3157  -29.3861   23.6951 C   0  0  0  0  0  0  0  0  0  0  0  0
  -25.8258  -26.9422   22.4489 C   0  0  0  0  0  0  0  0  0  0  0  0
  -25.2575  -10.3637   21.6798 C   0  0  0  0  0  0  0  0  0  0  0  0
  -27.3706  -27.4771   20.6496 C   0  0  0  0  0  0  0  0  0  0  0  0
  -23.7451   -8.8847   22.7032 C   0  0  0  0  0  0  0  0  0  0  0  0
  -21.1886   -8.3846   23.7017 C   0  0  0  0  0  0  0  0  0  0  0  0
  -22.9752   -7.8539   22.1643 C   0  0  0  0  0  0  0  0  0  0  0  0
  -26.0106  -14.1872   20.0330 C   0  0  0  0  0  0  0  0  0  0  0  0
  -26.8823  -15.8952   18.9570 C   0  0  0  0  0  0  0  0  0  0  0  0
  -31.0521  -23.3751   21.3553 C   0  0  0  0  0  0  0  0  0  0  0  0
  -31.5209  -24.5558   20.9333 C   0  0  0  0  0  0  0  0  0  0  0  0
  -29.5980  -24.1468   19.7756 C   0  0  0  0  0  0  0  0  0  0  0  0
  -28.2090  -13.7859   18.7599 C   0  0  0  0  0  0  0  0  0  0  0  0
  -22.7132  -27.9650   23.3946 C   0  0  0  0  0  0  0  0  0  0  0  0
  -23.9222  -25.9225   25.6056 C   0  0  0  0  0  0  0  0  0  0  0  0
  -26.5422  -23.9994   26.6470 C   0  0  0  0  0  0  0  0  0  0  0  0
  -25.5241  -20.9755   21.0100 C   0  0  0  0  0  0  0  0  0  0  0  0
  -18.8249  -29.7710   26.1652 C   0  0  0  0  0  0  0  0  0  0  0  0
  -23.5146  -26.0670   21.9415 C   0  0  0  0  0  0  0  0  0  0  0  0
  -25.5543  -26.8651   23.9284 C   0  0  0  0  0  0  0  0  0  0  0  0
  -20.3057  -29.4945   26.4122 C   0  0  0  0  0  0  0  0  0  0  0  0
  -22.8323  -18.8136   19.7639 C   0  0  0  0  0  0  0  0  0  0  0  0
  -21.1543  -30.0949   25.2959 C   0  0  0  0  0  0  0  0  0  0  0  0
  -23.5014  -17.4396   19.7042 C   0  0  0  0  0  0  0  0  0  0  0  0
  -28.9187  -21.0763   19.6025 C   0  0  0  0  0  0  0  0  0  0  0  0
  -23.4226  -19.6894   20.8668 C   0  0  0  0  0  0  0  0  0  0  0  0
  -27.7246  -20.1950   19.9522 C   0  0  0  0  0  0  0  0  0  0  0  0
  -25.5535  -18.4561   20.7602 C   0  0  0  0  0  0  0  0  0  0  0  0
  -27.6696  -22.1804   21.3016 C   0  0  0  0  0  0  0  0  0  0  0  0
  -20.8068  -29.4677   23.9405 C   0  0  1  0  0  0  0  0  0  0  0  0
  -23.1322  -26.5228   23.3462 C   0  0  1  0  0  0  0  0  0  0  0  0
  -25.0335  -17.5712   19.6188 C   0  0  1  0  0  0  0  0  0  0  0  0
  -29.1035  -21.8928   20.8782 C   0  0  2  0  0  0  0  0  0  0  0  0
  -27.8017  -22.3423   28.0489 C   0  0  0  0  0  0  0  0  0  0  0  0
  -24.3788  -28.3418   27.4080 C   0  0  0  0  0  0  0  0  0  0  0  0
  -25.9099  -26.9301   28.7976 C   0  0  0  0  0  0  0  0  0  0  0  0
  -23.5016  -26.3160   28.5833 C   0  0  0  0  0  0  0  0  0  0  0  0
  -25.5946  -21.7213   25.0126 C   0  0  0  0  0  0  0  0  0  0  0  0
  -30.9559  -27.4899   20.2654 C   0  0  0  0  0  0  0  0  0  0  0  0
  -30.8601  -26.3185   19.2973 C   0  0  0  0  0  0  0  0  0  0  0  0
  -29.6969  -27.6697   21.1050 C   0  0  0  0  0  0  0  0  0  1  0  0
  -25.0470  -25.9787   26.6110 C   0  0  1  0  0  0  0  0  0  0  0  0
  -26.6061  -22.5634   27.1354 C   0  0  2  0  0  0  0  0  0  0  0  0
  -24.7141  -26.8950   27.8221 C   0  0  0  0  0  0  0  0  0  0  0  0
  -25.1641  -15.1945   20.2626 N   0  0  0  0  0  0  0  0  0  0  0  0
  -25.7214  -16.2194   19.5954 N   0  0  0  0  0  0  0  0  0  0  0  0
  -29.8829  -23.0796   20.6824 N   0  0  0  0  0  0  0  0  0  0  0  0
  -30.6718  -25.0612   19.9749 N   0  0  0  0  0  0  0  0  0  0  0  0
  -24.2238  -26.3628   24.3091 N   0  0  0  0  0  0  0  0  0  0  0  0
  -24.8800  -19.7593   20.7577 N   0  0  0  0  0  0  0  0  0  0  0  0
  -26.9081  -21.0202   20.8458 N   0  0  0  0  0  0  0  0  0  0  0  0
  -27.5728  -16.8068   18.2396 N   0  0  0  0  0  0  0  0  0  0  0  0
  -28.0864  -13.1144   17.5358 N   0  0  0  0  0  0  0  0  0  0  0  0
  -21.4126  -28.1590   23.8189 N   0  0  0  0  0  0  0  0  0  0  0  0
  -25.3421  -24.5960   26.9711 N   0  0  0  0  0  0  0  0  0  0  0  0
  -26.7177  -21.6281   25.9806 N   0  3  0  0  0  0  0  0  0  0  0  0
  -28.6521  -24.2484   19.0092 O   0  0  0  0  0  0  0  0  0  0  0  0
  -29.2711  -13.6739   19.4178 O   0  0  0  0  0  0  0  0  0  0  0  0
  -23.5114  -28.8372   23.0722 O   0  0  0  0  0  0  0  0  0  0  0  0
  -22.8188  -25.4966   25.9559 O   0  0  0  0  0  0  0  0  0  0  0  0
  -27.4659  -24.5390   26.0421 O   0  0  0  0  0  0  0  0  0  0  0  0
  -24.8862  -21.9895   21.3226 O   0  0  0  0  0  0  0  0  0  0  0  0
  -25.0147   -9.1336   22.2093 O   0  0  0  0  0  0  0  0  0  0  0  0
  -28.5998  -27.9208   20.2366 O   0  0  0  0  0  0  0  0  0  1  0  0
  -19.9618   -8.1437   24.1822 F   0  0  0  0  0  0  0  0  0  0  0  0
  -23.4586   -7.0998   21.1676 F   0  0  0  0  0  0  0  0  0  0  0  0
  1  2  1  0  0  0  0
  1  5  2  0  0  0  0
  2  6  2  0  0  0  0
  3  8  2  0  0  0  0
  3 15  1  0  0  0  0
  4  9  1  0  0  0  0
  4 15  2  0  0  0  0
  5 17  1  0  0  0  0
  6 19  1  0  0  0  0
  7 10  2  0  0  0  0
  7 18  1  0  0  0  0
  8 21  1  0  0  0  0
  9 21  2  0  0  0  0
 10 22  1  0  0  0  0
 11 12  2  0  0  0  0
 11 23  1  0  0  0  0
 12 24  1  0  0  0  0
 13 20  1  0  0  0  0
 13 22  2  0  0  0  0
 14 24  2  0  0  0  0
 14 25  1  0  0  0  0
 15 26  1  0  0  0  0
 16 26  1  0  0  0  0
 16 27  2  0  0  0  0
 16 31  1  0  0  0  0
 17 19  2  0  0  0  0
 17 36  1  0  0  0  0
 18 20  2  0  0  0  0
 18 37  1  0  0  0  0
 19 48  1  0  0  0  0
 20 38  1  0  0  0  0
 21 81  1  0  0  0  0
 22 82  1  0  0  0  0
 23 25  2  0  0  0  0
 23 81  1  0  0  0  0
 24 83  1  0  0  0  0
 25 84  1  0  0  0  0
 26 63  2  0  0  0  0
 27 64  1  0  0  0  0
 27 70  1  0  0  0  0
 28 29  2  0  0  0  0
 28 65  1  0  0  0  0
 29 66  1  0  0  0  0
 30 65  1  0  0  0  0
 30 66  1  0  0  0  0
 30 75  2  0  0  0  0
 31 71  1  0  0  0  0
 31 76  2  0  0  0  0
 32 49  1  0  0  0  0
 32 72  1  0  0  0  0
 32 77  2  0  0  0  0
 33 60  1  0  0  0  0
 33 67  1  0  0  0  0
 33 78  2  0  0  0  0
 34 61  1  0  0  0  0
 34 73  1  0  0  0  0
 34 79  2  0  0  0  0
 35 68  1  0  0  0  0
 35 69  1  0  0  0  0
 35 80  2  0  0  0  0
 36 39  1  0  0  0  0
 37 49  1  0  0  0  0
 38 67  1  0  0  0  0
 39 41  1  0  0  0  0
 40 42  1  0  0  0  0
 40 44  1  0  0  0  0
 41 48  1  0  0  0  0
 42 50  1  0  0  0  0
 43 45  1  0  0  0  0
 43 51  1  0  0  0  0
 44 68  1  0  0  0  0
 45 69  1  0  0  0  0
 46 50  1  0  0  0  0
 46 68  1  0  0  0  0
 47 51  1  0  0  0  0
 47 69  1  0  0  0  0
 48 72  1  0  0  0  0
 49 67  1  0  0  0  0
 50 64  1  0  0  0  0
 51 65  1  0  0  0  0
 52 61  1  0  0  0  0
 53 62  1  0  0  0  0
 54 62  1  0  0  0  0
 55 62  1  0  0  0  0
 56 74  1  0  0  0  0
 57 58  1  0  0  0  0
 57 59  1  0  0  0  0
 58 66  1  0  0  0  0
 59 82  1  0  0  0  0
 60 62  1  0  0  0  0
 60 73  1  0  0  0  0
 61 74  1  0  0  0  0
 63 64  1  0  0  0  0
M  CHG  1  74   1
M  ISO  4  35 100  59 101  69 100  82 101
M  END
> <Batch ID>
0197

> <Smiles>
CNC(C)C(=O)NC(C(=O)N1Cc2cc([101O:1][101CH2:1]CCn3ccn(C4CC[100N:0]([100C:0](=O)N5CCCC(n6nc(-c7ccc(Oc8ccc(F)cc8F)cc7)c(C(N)=O)c6N)C5)C4)c3=O)ccc2CC1C(=O)NC1CCCc2ccccc21)C(C)(C)C

> <Shape>
0.226

> <Color>
0.070

> <Negative vol penalty>
0.000

$$$$

  -OEChem-04052323453D

 85 94  0     1  0  0  0  0  0999 V2000
  -29.5092  -33.5698   25.2601 C   0  0  0  0  0  0  0  0  0  0  0  0
  -29.3094  -32.3052   24.7157 C   0  0  0  0  0  0  0  0  0  0  0  0
  -23.1929  -10.4546   21.8095 C   0  0  0  0  0  0  0  0  0  0  0  0
  -24.4683   -8.6134   20.9037 C   0  0  0  0  0  0  0  0  0  0  0  0
  -28.4212  -34.3068   25.7259 C   0  0  0  0  0  0  0  0  0  0  0  0
  -28.0215  -31.7765   24.6377 C   0  0  0  0  0  0  0  0  0  0  0  0
  -27.0743  -29.6213   20.1541 C   0  0  0  0  0  0  0  0  0  0  0  0
  -22.0124   -9.7446   21.5905 C   0  0  0  0  0  0  0  0  0  0  0  0
  -23.2878   -7.9034   20.6848 C   0  0  0  0  0  0  0  0  0  0  0  0
  -27.6019  -28.3496   19.9347 C   0  0  0  0  0  0  0  0  0  0  0  0
  -20.6361   -5.4599   20.2200 C   0  0  0  0  0  0  0  0  0  0  0  0
  -20.6100   -4.1145   20.5874 C   0  0  0  0  0  0  0  0  0  0  0  0
  -25.4527  -27.3774   20.4399 C   0  0  0  0  0  0  0  0  0  0  0  0
  -21.0782   -4.7304   22.8762 C   0  0  0  0  0  0  0  0  0  0  0  0
  -24.4209   -9.8890   21.4660 C   0  0  0  0  0  0  0  0  0  0  0  0
  -26.4405  -10.6061   22.8498 C   0  0  0  0  0  0  0  0  0  0  0  0
  -27.1182  -33.7907   25.6448 C   0  0  0  0  0  0  0  0  0  0  0  0
  -25.7325  -29.7802   20.5293 C   0  0  0  0  0  0  0  0  0  0  0  0
  -26.9152  -32.5067   25.1041 C   0  0  0  0  0  0  0  0  0  0  0  0
  -24.9099  -28.6524   20.6609 C   0  0  0  0  0  0  0  0  0  0  0  0
  -22.0599   -8.4690   21.0282 C   0  0  0  0  0  0  0  0  0  0  0  0
  -26.7919  -27.2272   20.0805 C   0  0  0  0  0  0  0  0  0  0  0  0
  -20.8833   -6.4405   21.1808 C   0  0  0  0  0  0  0  0  0  0  0  0
  -20.8310   -3.7498   21.9154 C   0  0  0  0  0  0  0  0  0  0  0  0
  -21.1043   -6.0758   22.5088 C   0  0  0  0  0  0  0  0  0  0  0  0
  -25.6407  -10.6221   21.6914 C   0  0  0  0  0  0  0  0  0  0  0  0
  -29.3064  -23.8262   18.0730 C   0  0  0  0  0  0  0  0  0  0  0  0
  -29.0718  -24.5124   19.2412 C   0  0  0  0  0  0  0  0  0  0  0  0
  -27.4756  -11.4625   22.5642 C   0  0  0  0  0  0  0  0  0  0  0  0
  -29.6190  -22.4142   19.6348 C   0  0  0  0  0  0  0  0  0  0  0  0
  -26.2636   -9.8817   24.0744 C   0  0  0  0  0  0  0  0  0  0  0  0
  -24.2398  -30.9700   23.0709 C   0  0  0  0  0  0  0  0  0  0  0  0
  -21.5906  -30.4517   21.2722 C   0  0  0  0  0  0  0  0  0  0  0  0
  -20.1091  -28.7288   18.7259 C   0  0  0  0  0  0  0  0  0  0  0  0
  -29.4884  -16.0603   20.6632 C   0  0  0  0  0  0  0  0  0  0  0  0
  -25.9788  -34.6050   26.2047 C   0  0  0  0  0  0  0  0  0  0  0  0
  -25.1716  -31.1605   20.7361 C   0  0  0  0  0  0  0  0  0  0  0  0
  -23.4576  -28.7703   21.0422 C   0  0  0  0  0  0  0  0  0  0  0  0
  -24.6044  -34.1275   25.7428 C   0  0  0  0  0  0  0  0  0  0  0  0
  -28.8771  -13.6179   18.2158 C   0  0  0  0  0  0  0  0  0  0  0  0
  -24.4962  -32.6112   25.8679 C   0  0  0  0  0  0  0  0  0  0  0  0
  -28.0371  -12.6085   18.9978 C   0  0  0  0  0  0  0  0  0  0  0  0
  -28.9975  -19.2958   19.3674 C   0  0  0  0  0  0  0  0  0  0  0  0
  -30.9605  -19.1839   20.9491 C   0  0  0  0  0  0  0  0  0  0  0  0
  -28.5001  -15.0614   18.5540 C   0  0  0  0  0  0  0  0  0  0  0  0
  -29.3157  -17.8727   18.8991 C   0  0  0  0  0  0  0  0  0  0  0  0
  -31.2558  -17.7790   20.4310 C   0  0  0  0  0  0  0  0  0  0  0  0
  -27.6939  -14.3573   20.7840 C   0  0  0  0  0  0  0  0  0  0  0  0
  -25.5304  -31.9091   24.9797 C   0  0  1  0  0  0  0  0  0  0  0  0
  -23.9253  -31.1733   21.6158 C   0  0  1  0  0  0  0  0  0  0  0  0
  -28.0898  -12.8985   20.5084 C   0  0  1  0  0  0  0  0  0  0  0  0
  -30.2497  -20.0134   19.8766 C   0  0  0  0  0  0  0  0  0  0  0  0
  -29.2324  -24.3218   16.6892 C   0  0  0  0  0  0  0  0  0  0  0  0
  -17.9241  -28.4974   17.5136 C   0  0  0  0  0  0  0  0  0  0  0  0
  -20.4570  -28.8700   23.6223 C   0  0  0  0  0  0  0  0  0  0  0  0
  -18.7628  -27.8943   22.0583 C   0  0  0  0  0  0  0  0  0  0  0  0
  -18.8062  -30.3542   22.4705 C   0  0  0  0  0  0  0  0  0  0  0  0
  -29.1495  -23.8407   21.6528 C   0  0  0  0  0  0  0  0  0  0  0  0
  -21.3172  -29.5505   16.1522 C   0  0  0  0  0  0  0  0  0  0  0  0
  -28.6849  -25.9114   19.4966 C   0  0  0  0  0  0  0  0  0  1  0  0
  -20.6362  -29.2975   21.0824 C   0  0  1  0  0  0  0  0  0  0  0  0
  -19.2753  -29.1945   17.5459 C   0  0  2  0  0  0  0  0  0  0  0  0
  -19.6934  -29.1013   22.3031 C   0  0  0  0  0  0  0  0  0  0  0  0
  -26.1259  -11.4253   20.7409 N   0  0  0  0  0  0  0  0  0  0  0  0
  -29.6463  -22.5206   18.3249 N   0  0  0  0  0  0  0  0  0  0  0  0
  -29.2755  -23.5947   20.2329 N   0  0  0  0  0  0  0  0  0  0  0  0
  -27.2418  -11.9218   21.3015 N   0  0  0  0  0  0  0  0  0  0  0  0
  -22.9574  -30.1408   21.2398 N   0  0  0  0  0  0  0  0  0  0  0  0
  -28.5255  -15.2790   20.0072 N   0  0  0  0  0  0  0  0  0  0  0  0
  -30.0383  -17.1308   19.9423 N   0  0  0  0  0  0  0  0  0  0  0  0
  -28.5538  -11.8599   23.2726 N   0  0  0  0  0  0  0  0  0  0  0  0
  -25.1456   -9.0460   24.2008 N   0  0  0  0  0  0  0  0  0  0  0  0
  -29.8830  -21.3039   20.4170 N   0  0  0  0  0  0  0  0  0  0  0  0
  -25.0981  -31.9157   23.5985 N   0  0  0  0  0  0  0  0  0  0  0  0
  -19.9409  -29.5455   19.8241 N   0  0  0  0  0  0  0  0  0  0  0  0
  -19.9830  -28.9073   16.2662 N   0  3  0  0  0  0  0  0  0  0  0  0
  -27.0642   -9.9854   25.0345 O   0  0  0  0  0  0  0  0  0  0  0  0
  -23.7396  -30.0259   23.6710 O   0  0  0  0  0  0  0  0  0  0  0  0
  -21.1401  -31.5883   21.4357 O   0  0  0  0  0  0  0  0  0  0  0  0
  -20.8340  -27.7374   18.6794 O   0  0  0  0  0  0  0  0  0  0  0  0
  -29.8365  -15.8162   21.8253 O   0  0  0  0  0  0  0  0  0  0  0  0
  -20.9082   -7.7758   20.8147 O   0  0  0  0  0  0  0  0  0  0  0  0
  -27.3070  -25.9786   19.8666 O   0  0  0  0  0  0  0  0  0  1  0  0
  -20.8043   -2.4579   22.2683 F   0  0  0  0  0  0  0  0  0  0  0  0
  -21.3411   -7.0134   23.4365 F   0  0  0  0  0  0  0  0  0  0  0  0
  1  2  1  0  0  0  0
  1  5  2  0  0  0  0
  2  6  2  0  0  0  0
  3  8  2  0  0  0  0
  3 15  1  0  0  0  0
  4  9  1  0  0  0  0
  4 15  2  0  0  0  0
  5 17  1  0  0  0  0
  6 19  1  0  0  0  0
  7 10  2  0  0  0  0
  7 18  1  0  0  0  0
  8 21  1  0  0  0  0
  9 21  2  0  0  0  0
 10 22  1  0  0  0  0
 11 12  2  0  0  0  0
 11 23  1  0  0  0  0
 12 24  1  0  0  0  0
 13 20  1  0  0  0  0
 13 22  2  0  0  0  0
 14 24  2  0  0  0  0
 14 25  1  0  0  0  0
 15 26  1  0  0  0  0
 16 26  1  0  0  0  0
 16 29  2  0  0  0  0
 16 31  1  0  0  0  0
 17 19  2  0  0  0  0
 17 36  1  0  0  0  0
 18 20  2  0  0  0  0
 18 37  1  0  0  0  0
 19 49  1  0  0  0  0
 20 38  1  0  0  0  0
 21 82  1  0  0  0  0
 22 83  1  0  0  0  0
 23 25  2  0  0  0  0
 23 82  1  0  0  0  0
 24 84  1  0  0  0  0
 25 85  1  0  0  0  0
 26 64  2  0  0  0  0
 27 28  2  0  0  0  0
 27 53  1  0  0  0  0
 27 65  1  0  0  0  0
 28 60  1  0  0  0  0
 28 66  1  0  0  0  0
 29 67  1  0  0  0  0
 29 71  1  0  0  0  0
 30 65  2  0  0  0  0
 30 66  1  0  0  0  0
 30 73  1  0  0  0  0
 31 72  1  0  0  0  0
 31 77  2  0  0  0  0
 32 50  1  0  0  0  0
 32 74  1  0  0  0  0
 32 78  2  0  0  0  0
 33 61  1  0  0  0  0
 33 68  1  0  0  0  0
 33 79  2  0  0  0  0
 34 62  1  0  0  0  0
 34 75  1  0  0  0  0
 34 80  2  0  0  0  0
 35 69  1  0  0  0  0
 35 70  1  0  0  0  0
 35 81  2  0  0  0  0
 36 39  1  0  0  0  0
 37 50  1  0  0  0  0
 38 68  1  0  0  0  0
 39 41  1  0  0  0  0
 40 42  1  0  0  0  0
 40 45  1  0  0  0  0
 41 49  1  0  0  0  0
 42 51  1  0  0  0  0
 43 46  1  0  0  0  0
 43 52  1  0  0  0  0
 44 47  1  0  0  0  0
 44 52  1  0  0  0  0
 45 69  1  0  0  0  0
 46 70  1  0  0  0  0
 47 70  1  0  0  0  0
 48 51  1  0  0  0  0
 48 69  1  0  0  0  0
 49 74  1  0  0  0  0
 50 68  1  0  0  0  0
 51 67  1  0  0  0  0
 52 73  1  0  0  0  0
 54 62  1  0  0  0  0
 55 63  1  0  0  0  0
 56 63  1  0  0  0  0
 57 63  1  0  0  0  0
 58 66  1  0  0  0  0
 59 76  1  0  0  0  0
 60 83  1  0  0  0  0
 61 63  1  0  0  0  0
 61 75  1  0  0  0  0
 62 76  1  0  0  0  0
 64 67  1  0  0  0  0
M  CHG  1  76   1
M  ISO  4  35 100  60 101  70 100  83 101
M  END
> <Batch ID>
0197

> <Smiles>
CNC(C)C(=O)NC(C(=O)N1Cc2cc([101O:1][101CH2:1]c3c(C)nc(NC4CC[100N:0]([100C:0](=O)N5CCCC(n6nc(-c7ccc(Oc8ccc(F)cc8F)cc7)c(C(N)=O)c6N)C5)CC4)n3C)ccc2CC1C(=O)NC1CCCc2ccccc21)C(C)(C)C

> <Shape>
0.346

> <Color>
0.089

> <Negative vol penalty>
0.000

$$$$

  -OEChem-04052323453D

 90100  0     1  0  0  0  0  0999 V2000
  -29.3561  -24.0318   25.5658 C   0  0  0  0  0  0  0  0  0  0  0  0
  -29.0328  -23.3845   24.3776 C   0  0  0  0  0  0  0  0  0  0  0  0
  -26.0031  -27.6744   19.0562 C   0  0  0  0  0  0  0  0  0  0  0  0
  -26.4180  -27.4549   21.4261 C   0  0  0  0  0  0  0  0  0  0  0  0
  -29.0057  -23.4592   26.7878 C   0  0  0  0  0  0  0  0  0  0  0  0
  -28.3599  -22.1637   24.4107 C   0  0  0  0  0  0  0  0  0  0  0  0
  -23.5633  -18.3309   20.7203 C   0  0  0  0  0  0  0  0  0  0  0  0
  -24.9380  -28.5347   19.3223 C   0  0  0  0  0  0  0  0  0  0  0  0
  -25.3529  -28.3154   21.6923 C   0  0  0  0  0  0  0  0  0  0  0  0
  -23.3941  -17.0626   20.1668 C   0  0  0  0  0  0  0  0  0  0  0  0
  -21.9786  -28.1403   21.8110 C   0  0  0  0  0  0  0  0  0  0  0  0
  -21.0891  -27.7770   22.8222 C   0  0  0  0  0  0  0  0  0  0  0  0
  -22.7693  -16.2068   22.3339 C   0  0  0  0  0  0  0  0  0  0  0  0
  -21.6257  -29.8041   24.0223 C   0  0  0  0  0  0  0  0  0  0  0  0
  -28.6106  -11.7857   19.5303 C   0  0  0  0  0  0  0  0  0  0  0  0
  -26.7431  -27.1344   20.1081 C   0  0  0  0  0  0  0  0  0  0  0  0
  -29.1909  -26.5975   19.6307 C   0  0  0  0  0  0  0  0  0  0  0  0
  -28.3197  -22.2354   26.8357 C   0  0  0  0  0  0  0  0  0  0  0  0
  -23.3470  -18.5448   22.0891 C   0  0  0  0  0  0  0  0  0  0  0  0
  -28.0013  -21.5735   25.6345 C   0  0  0  0  0  0  0  0  0  0  0  0
  -22.9340  -17.4794   22.9018 C   0  0  0  0  0  0  0  0  0  0  0  0
  -24.6129  -28.8553   20.6403 C   0  0  0  0  0  0  0  0  0  0  0  0
  -22.9999  -15.9997   20.9742 C   0  0  0  0  0  0  0  0  0  0  0  0
  -22.6917  -29.3354   21.9055 C   0  0  0  0  0  0  0  0  0  0  0  0
  -20.9126  -28.6089   23.9278 C   0  0  0  0  0  0  0  0  0  0  0  0
  -22.5152  -30.1673   23.0111 C   0  0  0  0  0  0  0  0  0  0  0  0
  -27.8431  -26.2451   19.8339 C   0  0  0  0  0  0  0  0  0  0  0  0
  -29.5766  -12.3413   20.3442 C   0  0  0  0  0  0  0  0  0  0  0  0
  -27.6585  -12.6617   19.0502 C   0  0  0  0  0  0  0  0  0  0  0  0
  -29.8288  -25.4015   19.4092 C   0  0  0  0  0  0  0  0  0  0  0  0
  -28.6361  -14.4006   20.1399 C   0  0  0  0  0  0  0  0  0  0  0  0
  -29.8107  -27.8903   19.6415 C   0  0  0  0  0  0  0  0  0  0  0  0
  -25.1557  -19.4941   24.5245 C   0  0  0  0  0  0  0  0  0  0  0  0
  -22.3383  -19.4401   26.1313 C   0  0  0  0  0  0  0  0  0  0  0  0
  -19.1299  -18.0070   26.9494 C   0  0  0  0  0  0  0  0  0  0  0  0
  -28.8121  -19.9495   21.0431 C   0  0  0  0  0  0  0  0  0  0  0  0
  -28.0038  -21.6324   28.1815 C   0  0  0  0  0  0  0  0  0  0  0  0
  -23.5079  -19.9247   22.6657 C   0  0  0  0  0  0  0  0  0  0  0  0
  -22.6692  -17.6609   24.3734 C   0  0  0  0  0  0  0  0  0  0  0  0
  -26.9607  -20.5195   28.1207 C   0  0  0  0  0  0  0  0  0  0  0  0
  -29.0694  -21.0033   17.7021 C   0  0  0  0  0  0  0  0  0  0  0  0
  -27.2802  -19.5498   26.9874 C   0  0  0  0  0  0  0  0  0  0  0  0
  -32.0859  -11.8154   20.6617 C   0  0  0  0  0  0  0  0  0  0  0  0
  -31.4814  -10.6364   19.9654 C   0  0  0  0  0  0  0  0  0  0  0  0
  -28.9133  -22.5167   17.8480 C   0  0  0  0  0  0  0  0  0  0  0  0
  -28.1183  -20.2376   18.6233 C   0  0  0  0  0  0  0  0  0  0  0  0
  -29.9311  -16.4287   20.7214 C   0  0  0  0  0  0  0  0  0  0  0  0
  -27.5724  -16.6030   19.9138 C   0  0  0  0  0  0  0  0  0  0  0  0
  -29.7319  -17.7119   21.5236 C   0  0  0  0  0  0  0  0  0  0  0  0
  -27.4113  -17.8746   20.7393 C   0  0  0  0  0  0  0  0  0  0  0  0
  -28.0540  -22.1490   20.1919 C   0  0  0  0  0  0  0  0  0  0  0  0
  -27.2498  -20.2599   25.6286 C   0  0  1  0  0  0  0  0  0  0  0  0
  -30.6424  -11.4616   20.9054 C   0  0  0  0  0  0  0  0  0  0  0  0
  -23.7584  -19.9181   24.1705 C   0  0  1  0  0  0  0  0  0  0  0  0
  -29.0381  -22.9453   19.3208 C   0  0  2  0  0  0  0  0  0  0  0  0
  -17.3242  -18.8216   28.4899 C   0  0  0  0  0  0  0  0  0  0  0  0
  -23.6942  -17.6500   28.1970 C   0  0  0  0  0  0  0  0  0  0  0  0
  -21.4230  -17.0355   29.0527 C   0  0  0  0  0  0  0  0  0  0  0  0
  -22.1955  -19.4049   29.1606 C   0  0  0  0  0  0  0  0  0  0  0  0
  -17.0956  -17.9154   24.8018 C   0  0  0  0  0  0  0  0  0  0  0  0
  -26.5721  -12.1531   18.1632 C   0  0  0  0  0  0  0  0  0  0  0  0
  -25.3214  -11.6866   18.9093 C   0  0  0  0  0  0  0  0  0  0  0  0
  -23.5191  -12.4515   20.4601 C   0  0  0  0  0  0  0  0  0  0  0  0
  -23.0814  -13.6436   21.2880 C   0  0  0  0  0  0  0  0  0  1  0  0
  -21.5787  -18.4030   26.9228 C   0  0  1  0  0  0  0  0  0  0  0  0
  -17.8053  -18.7418   27.0495 C   0  0  2  0  0  0  0  0  0  0  0  0
  -22.2297  -18.1192   28.3059 C   0  0  0  0  0  0  0  0  0  0  0  0
  -27.6360  -24.9284   19.7487 N   0  0  0  0  0  0  0  0  0  0  0  0
  -29.6198  -13.6496   20.6709 N   0  0  0  0  0  0  0  0  0  0  0  0
  -27.6408  -13.9801   19.3361 N   0  0  0  0  0  0  0  0  0  0  0  0
  -28.8620  -24.4428   19.4896 N   0  0  0  0  0  0  0  0  0  0  0  0
  -28.6499  -15.7648   20.4574 N   0  0  0  0  0  0  0  0  0  0  0  0
  -22.8465  -19.0275   24.8913 N   0  0  0  0  0  0  0  0  0  0  0  0
  -28.2441  -20.7085   20.0091 N   0  0  0  0  0  0  0  0  0  0  0  0
  -28.6918  -18.5544   20.9457 N   0  0  0  0  0  0  0  0  0  0  0  0
  -31.1168  -25.0869   19.1553 N   0  0  0  0  0  0  0  0  0  0  0  0
  -29.0089  -29.0137   19.8851 N   0  0  0  0  0  0  0  0  0  0  0  0
  -25.8842  -20.4594   25.1930 N   0  0  0  0  0  0  0  0  0  0  0  0
  -20.2002  -18.8750   26.9967 N   0  0  0  0  0  0  0  0  0  0  0  0
  -16.7636  -18.0438   26.2441 N   0  3  0  0  0  0  0  0  0  0  0  0
  -24.7746  -12.7905   19.7363 N   0  3  0  0  0  0  0  0  0  0  0  0
  -31.0364  -28.0462   19.4247 O   0  0  0  0  0  0  0  0  0  0  0  0
  -25.5437  -18.3736   24.2154 O   0  0  0  0  0  0  0  0  0  0  0  0
  -22.4697  -20.5765   26.5929 O   0  0  0  0  0  0  0  0  0  0  0  0
  -19.2074  -16.7850   26.8438 O   0  0  0  0  0  0  0  0  0  0  0  0
  -29.3948  -20.4836   21.9951 O   0  0  0  0  0  0  0  0  0  0  0  0
  -23.5738  -29.6950   20.9004 O   0  0  0  0  0  0  0  0  0  0  0  0
  -22.8334  -14.7516   20.4327 O   0  0  0  0  0  0  0  0  0  1  0  0
  -20.0573  -28.2607   24.8980 F   0  0  0  0  0  0  0  0  0  0  0  0
  -23.1965  -31.3173   23.1069 F   0  0  0  0  0  0  0  0  0  0  0  0
  1  2  1  0  0  0  0
  1  5  2  0  0  0  0
  2  6  2  0  0  0  0
  3  8  2  0  0  0  0
  3 16  1  0  0  0  0
  4  9  1  0  0  0  0
  4 16  2  0  0  0  0
  5 18  1  0  0  0  0
  6 20  1  0  0  0  0
  7 10  2  0  0  0  0
  7 19  1  0  0  0  0
  8 22  1  0  0  0  0
  9 22  2  0  0  0  0
 10 23  1  0  0  0  0
 11 12  2  0  0  0  0
 11 24  1  0  0  0  0
 12 25  1  0  0  0  0
 13 21  1  0  0  0  0
 13 23  2  0  0  0  0
 14 25  2  0  0  0  0
 14 26  1  0  0  0  0
 15 28  2  0  0  0  0
 15 29  1  0  0  0  0
 16 27  1  0  0  0  0
 17 27  1  0  0  0  0
 17 30  2  0  0  0  0
 17 32  1  0  0  0  0
 18 20  2  0  0  0  0
 18 37  1  0  0  0  0
 19 21  2  0  0  0  0
 19 38  1  0  0  0  0
 20 52  1  0  0  0  0
 21 39  1  0  0  0  0
 22 87  1  0  0  0  0
 23 88  1  0  0  0  0
 24 26  2  0  0  0  0
 24 87  1  0  0  0  0
 25 89  1  0  0  0  0
 26 90  1  0  0  0  0
 27 68  2  0  0  0  0
 28 53  1  0  0  0  0
 28 69  1  0  0  0  0
 29 61  1  0  0  0  0
 29 70  2  0  0  0  0
 30 71  1  0  0  0  0
 30 76  1  0  0  0  0
 31 69  2  0  0  0  0
 31 70  1  0  0  0  0
 31 72  1  0  0  0  0
 32 77  1  0  0  0  0
 32 82  2  0  0  0  0
 33 54  1  0  0  0  0
 33 78  1  0  0  0  0
 33 83  2  0  0  0  0
 34 65  1  0  0  0  0
 34 73  1  0  0  0  0
 34 84  2  0  0  0  0
 35 66  1  0  0  0  0
 35 79  1  0  0  0  0
 35 85  2  0  0  0  0
 36 74  1  0  0  0  0
 36 75  1  0  0  0  0
 36 86  2  0  0  0  0
 37 40  1  0  0  0  0
 38 54  1  0  0  0  0
 39 73  1  0  0  0  0
 40 42  1  0  0  0  0
 41 45  1  0  0  0  0
 41 46  1  0  0  0  0
 42 52  1  0  0  0  0
 43 44  1  0  0  0  0
 43 53  1  0  0  0  0
 44 53  1  0  0  0  0
 45 55  1  0  0  0  0
 46 74  1  0  0  0  0
 47 49  1  0  0  0  0
 47 72  1  0  0  0  0
 48 50  1  0  0  0  0
 48 72  1  0  0  0  0
 49 75  1  0  0  0  0
 50 75  1  0  0  0  0
 51 55  1  0  0  0  0
 51 74  1  0  0  0  0
 52 78  1  0  0  0  0
 54 73  1  0  0  0  0
 55 71  1  0  0  0  0
 56 66  1  0  0  0  0
 57 67  1  0  0  0  0
 58 67  1  0  0  0  0
 59 67  1  0  0  0  0
 60 80  1  0  0  0  0
 61 62  1  0  0  0  0
 62 81  1  0  0  0  0
 63 64  1  0  0  0  0
 63 81  1  0  0  0  0
 64 88  1  0  0  0  0
 65 67  1  0  0  0  0
 65 79  1  0  0  0  0
 66 80  1  0  0  0  0
 68 71  1  0  0  0  0
M  CHG  2  80   1  81   1
M  ISO  4  36 100  64 101  75 100  88 101
M  END
> <Batch ID>
0197

> <Smiles>
CNC(C)C(=O)NC(C(=O)N1Cc2cc([101O:1][101CH2:1]CNCCc3cc(C4CC4)nc(N4CC[100N:0]([100C:0](=O)N5CCCC(n6nc(-c7ccc(Oc8ccc(F)cc8F)cc7)c(C(N)=O)c6N)C5)CC4)n3)ccc2CC1C(=O)NC1CCCc2ccccc21)C(C)(C)C

> <Shape>
0.228

> <Color>
0.055

> <Negative vol penalty>
0.000

$$$$

  -OEChem-04052323453D

 90100  0     1  0  0  0  0  0999 V2000
  -19.2988  -34.8296   22.2407 C   0  0  0  0  0  0  0  0  0  0  0  0
  -20.2913  -34.2553   21.4529 C   0  0  0  0  0  0  0  0  0  0  0  0
  -24.7916   -8.5441   21.8026 C   0  0  0  0  0  0  0  0  0  0  0  0
  -23.4906   -9.6810   20.1138 C   0  0  0  0  0  0  0  0  0  0  0  0
  -19.6111  -35.3133   23.5105 C   0  0  0  0  0  0  0  0  0  0  0  0
  -21.5970  -34.1655   21.9341 C   0  0  0  0  0  0  0  0  0  0  0  0
  -23.6801  -29.6323   21.0648 C   0  0  0  0  0  0  0  0  0  0  0  0
  -23.6687   -7.8019   22.1681 C   0  0  0  0  0  0  0  0  0  0  0  0
  -22.3676   -8.9387   20.4793 C   0  0  0  0  0  0  0  0  0  0  0  0
  -24.1461  -29.3825   19.7747 C   0  0  0  0  0  0  0  0  0  0  0  0
  -21.9795   -5.1090   21.0158 C   0  0  0  0  0  0  0  0  0  0  0  0
  -22.1446   -3.7381   21.2129 C   0  0  0  0  0  0  0  0  0  0  0  0
  -26.3955  -29.8655   20.5001 C   0  0  0  0  0  0  0  0  0  0  0  0
  -21.4005   -3.9772   23.4990 C   0  0  0  0  0  0  0  0  0  0  0  0
  -24.7026   -9.4837   20.7754 C   0  0  0  0  0  0  0  0  0  0  0  0
  -27.0906   -9.7563   19.9205 C   0  0  0  0  0  0  0  0  0  0  0  0
  -20.9193  -35.2206   24.0113 C   0  0  0  0  0  0  0  0  0  0  0  0
  -24.5684  -30.0118   22.0813 C   0  0  0  0  0  0  0  0  0  0  0  0
  -21.9274  -34.6496   23.2113 C   0  0  0  0  0  0  0  0  0  0  0  0
  -25.9386  -30.1170   21.8028 C   0  0  0  0  0  0  0  0  0  0  0  0
  -22.4567   -7.9991   21.5065 C   0  0  0  0  0  0  0  0  0  0  0  0
  -25.5035  -29.5019   19.4915 C   0  0  0  0  0  0  0  0  0  0  0  0
  -21.5249   -5.9141   22.0603 C   0  0  0  0  0  0  0  0  0  0  0  0
  -21.8551   -3.1722   22.4545 C   0  0  0  0  0  0  0  0  0  0  0  0
  -21.2354   -5.3482   23.3019 C   0  0  0  0  0  0  0  0  0  0  0  0
  -27.1312  -22.3035   18.0809 C   0  0  0  0  0  0  0  0  0  0  0  0
  -25.8621  -10.2512   20.3978 C   0  0  0  0  0  0  0  0  0  0  0  0
  -27.9755  -23.3916   18.1693 C   0  0  0  0  0  0  0  0  0  0  0  0
  -27.3921  -21.2725   18.9602 C   0  0  0  0  0  0  0  0  0  0  0  0
  -27.8536  -10.8784   19.7082 C   0  0  0  0  0  0  0  0  0  0  0  0
  -29.1496  -22.4077   19.8487 C   0  0  0  0  0  0  0  0  0  0  0  0
  -27.5049   -8.4032   19.6897 C   0  0  0  0  0  0  0  0  0  0  0  0
  -24.9061  -32.5818   23.9211 C   0  0  0  0  0  0  0  0  0  0  0  0
  -27.1818  -30.7725   25.3600 C   0  0  0  0  0  0  0  0  0  0  0  0
  -29.8250  -29.3626   26.9947 C   0  0  0  0  0  0  0  0  0  0  0  0
  -26.3793  -16.5423   18.7191 C   0  0  0  0  0  0  0  0  0  0  0  0
  -21.2188  -35.8002   25.3711 C   0  0  0  0  0  0  0  0  0  0  0  0
  -24.0536  -30.2517   23.4741 C   0  0  0  0  0  0  0  0  0  0  0  0
  -26.9362  -30.5017   22.8636 C   0  0  0  0  0  0  0  0  0  0  0  0
  -22.5476  -35.3278   25.9554 C   0  0  0  0  0  0  0  0  0  0  0  0
  -27.2776  -14.9068   22.0707 C   0  0  0  0  0  0  0  0  0  0  0  0
  -23.6530  -35.4169   24.9081 C   0  0  0  0  0  0  0  0  0  0  0  0
  -28.1237  -13.8922   21.3058 C   0  0  0  0  0  0  0  0  0  0  0  0
  -29.0506  -25.4109   16.9403 C   0  0  0  0  0  0  0  0  0  0  0  0
  -26.8888  -16.0866   21.1777 C   0  0  0  0  0  0  0  0  0  0  0  0
  -26.6285  -18.9264   17.8659 C   0  0  0  0  0  0  0  0  0  0  0  0
  -27.0620  -18.7788   19.9377 C   0  0  0  0  0  0  0  0  0  0  0  0
  -26.2035  -14.2618   19.6501 C   0  0  0  0  0  0  0  0  0  0  0  0
  -28.4779  -26.6662   16.3171 C   0  0  0  0  0  0  0  0  0  0  0  0
  -26.8469  -25.6521   17.8259 C   0  0  0  0  0  0  0  0  0  0  0  0
  -23.3502  -34.5117   23.7079 C   0  0  1  0  0  0  0  0  0  0  0  0
  -27.8005  -24.5909   17.2628 C   0  0  2  0  0  0  0  0  0  0  0  0
  -26.5535  -19.9290   19.0361 C   0  0  0  0  0  0  0  0  0  0  0  0
  -24.9780  -31.1321   24.3094 C   0  0  1  0  0  0  0  0  0  0  0  0
  -27.4332  -13.4096   20.0111 C   0  0  2  0  0  0  0  0  0  0  0  0
  -29.7880  -22.7761   22.2452 C   0  0  0  0  0  0  0  0  0  0  0  0
  -31.8447  -29.9617   28.3582 C   0  0  0  0  0  0  0  0  0  0  0  0
  -28.6269  -31.6620   22.8242 C   0  0  0  0  0  0  0  0  0  0  0  0
  -30.7970  -31.3282   24.0273 C   0  0  0  0  0  0  0  0  0  0  0  0
  -29.1592  -33.0166   24.8579 C   0  0  0  0  0  0  0  0  0  0  0  0
  -28.8354  -27.8498   29.3380 C   0  0  0  0  0  0  0  0  0  0  0  0
  -30.2704  -22.4656   20.8305 C   0  0  0  0  0  0  0  0  0  0  0  0
  -26.1713  -27.6649   16.4452 C   0  0  0  0  0  0  0  0  0  0  0  0
  -25.2380  -28.3092   17.4512 C   0  0  0  0  0  0  0  0  0  1  0  0
  -28.6619  -30.5558   25.1568 C   0  0  1  0  0  0  0  0  0  0  0  0
  -30.3741  -29.5760   28.3938 C   0  0  2  0  0  0  0  0  0  0  0  0
  -29.2926  -31.6193   24.2141 C   0  0  0  0  0  0  0  0  0  0  0  0
  -25.8415  -11.5839   20.4839 N   0  0  0  0  0  0  0  0  0  0  0  0
  -28.9985  -23.4774   19.0447 N   0  0  0  0  0  0  0  0  0  0  0  0
  -28.3967  -21.2912   19.8606 N   0  0  0  0  0  0  0  0  0  0  0  0
  -27.0666  -11.9360   20.0579 N   0  0  0  0  0  0  0  0  0  0  0  0
  -26.3830  -30.7321   24.2084 N   0  0  0  0  0  0  0  0  0  0  0  0
  -26.4833  -15.6903   19.8247 N   0  0  0  0  0  0  0  0  0  0  0  0
  -26.6727  -17.8745   18.8752 N   0  0  0  0  0  0  0  0  0  0  0  0
  -29.1143  -11.0538   19.2585 N   0  0  0  0  0  0  0  0  0  0  0  0
  -27.2764   -7.8408   18.4264 N   0  0  0  0  0  0  0  0  0  0  0  0
  -23.6429  -33.1313   24.0294 N   0  0  0  0  0  0  0  0  0  0  0  0
  -29.2546  -30.5117   26.4891 N   0  0  0  0  0  0  0  0  0  0  0  0
  -27.2686  -26.9565   17.1731 N   0  3  2  0  0  0  0  0  0  0  0  0
  -30.2342  -28.3308   29.2006 N   0  3  0  0  0  0  0  0  0  0  0  0
  -28.0464   -7.7080   20.5824 O   0  0  0  0  0  0  0  0  0  0  0  0
  -25.9219  -33.1595   23.5520 O   0  0  0  0  0  0  0  0  0  0  0  0
  -26.7493  -30.9633   26.4994 O   0  0  0  0  0  0  0  0  0  0  0  0
  -29.8983  -28.2854   26.4074 O   0  0  0  0  0  0  0  0  0  0  0  0
  -26.0282  -16.1249   17.6064 O   0  0  0  0  0  0  0  0  0  0  0  0
  -21.3607   -7.2749   21.8627 O   0  0  0  0  0  0  0  0  0  0  0  0
  -25.9608  -29.2593   18.2330 O   0  0  0  0  0  0  0  0  0  1  0  0
  -22.0122   -1.8554   22.6432 F   0  0  0  0  0  0  0  0  0  0  0  0
  -20.7972   -6.1163   24.3087 F   0  0  0  0  0  0  0  0  0  0  0  0
  -25.8369  -22.2227   16.9561 Cl  0  0  0  0  0  0  0  0  0  0  0  0
  1  2  1  0  0  0  0
  1  5  2  0  0  0  0
  2  6  2  0  0  0  0
  3  8  2  0  0  0  0
  3 15  1  0  0  0  0
  4  9  1  0  0  0  0
  4 15  2  0  0  0  0
  5 17  1  0  0  0  0
  6 19  1  0  0  0  0
  7 10  2  0  0  0  0
  7 18  1  0  0  0  0
  8 21  1  0  0  0  0
  9 21  2  0  0  0  0
 10 22  1  0  0  0  0
 11 12  2  0  0  0  0
 11 23  1  0  0  0  0
 12 24  1  0  0  0  0
 13 20  1  0  0  0  0
 13 22  2  0  0  0  0
 14 24  2  0  0  0  0
 14 25  1  0  0  0  0
 15 27  1  0  0  0  0
 16 27  1  0  0  0  0
 16 30  2  0  0  0  0
 16 32  1  0  0  0  0
 17 19  2  0  0  0  0
 17 37  1  0  0  0  0
 18 20  2  0  0  0  0
 18 38  1  0  0  0  0
 19 51  1  0  0  0  0
 20 39  1  0  0  0  0
 21 86  1  0  0  0  0
 22 87  1  0  0  0  0
 23 25  2  0  0  0  0
 23 86  1  0  0  0  0
 24 88  1  0  0  0  0
 25 89  1  0  0  0  0
 26 28  1  0  0  0  0
 26 29  2  0  0  0  0
 26 90  1  0  0  0  0
 27 68  2  0  0  0  0
 28 52  1  0  0  0  0
 28 69  2  0  0  0  0
 29 53  1  0  0  0  0
 29 70  1  0  0  0  0
 30 71  1  0  0  0  0
 30 75  1  0  0  0  0
 31 62  1  0  0  0  0
 31 69  1  0  0  0  0
 31 70  2  0  0  0  0
 32 76  1  0  0  0  0
 32 81  2  0  0  0  0
 33 54  1  0  0  0  0
 33 77  1  0  0  0  0
 33 82  2  0  0  0  0
 34 65  1  0  0  0  0
 34 72  1  0  0  0  0
 34 83  2  0  0  0  0
 35 66  1  0  0  0  0
 35 78  1  0  0  0  0
 35 84  2  0  0  0  0
 36 73  1  0  0  0  0
 36 74  1  0  0  0  0
 36 85  2  0  0  0  0
 37 40  1  0  0  0  0
 38 54  1  0  0  0  0
 39 72  1  0  0  0  0
 40 42  1  0  0  0  0
 41 43  1  0  0  0  0
 41 45  1  0  0  0  0
 42 51  1  0  0  0  0
 43 55  1  0  0  0  0
 44 49  1  0  0  0  0
 44 52  1  0  0  0  0
 45 73  1  0  0  0  0
 46 53  1  0  0  0  0
 46 74  1  0  0  0  0
 47 53  1  0  0  0  0
 47 74  1  0  0  0  0
 48 55  1  0  0  0  0
 48 73  1  0  0  0  0
 49 79  1  0  0  0  0
 50 52  1  0  0  0  0
 50 79  1  0  0  0  0
 51 77  1  0  0  0  0
 54 72  1  0  0  0  0
 55 71  1  0  0  0  0
 56 62  1  0  0  0  0
 57 66  1  0  0  0  0
 58 67  1  0  0  0  0
 59 67  1  0  0  0  0
 60 67  1  0  0  0  0
 61 80  1  0  0  0  0
 63 64  1  0  0  0  0
 63 79  1  0  0  0  0
 64 87  1  0  0  0  0
 65 67  1  0  0  0  0
 65 78  1  0  0  0  0
 66 80  1  0  0  0  0
 68 71  1  0  0  0  0
M  CHG  2  79   1  80   1
M  ISO  4  36 100  64 101  74 100  87 101
M  END
> <Batch ID>
0197

> <Smiles>
CCc1nc(C2CCN(C[101CH2:1][101O:1]c3ccc4c(c3)CN(C(=O)C(NC(=O)C(C)NC)C(C)(C)C)C(C(=O)NC3CCCc5ccccc53)C4)C2)c(Cl)c(C2C[100N:0]([100C:0](=O)N3CCCC(n4nc(-c5ccc(Oc6ccc(F)cc6F)cc5)c(C(N)=O)c4N)C3)C2)n1

> <Shape>
0.254

> <Color>
0.075

> <Negative vol penalty>
0.000

$$$$

  -OEChem-04052323453D

 89 99  0     1  0  0  0  0  0999 V2000
  -17.7754  -31.7285   25.1073 C   0  0  0  0  0  0  0  0  0  0  0  0
  -19.1188  -31.7649   25.4671 C   0  0  0  0  0  0  0  0  0  0  0  0
  -28.3251  -12.9872   18.4127 C   0  0  0  0  0  0  0  0  0  0  0  0
  -29.0813  -13.6715   20.6029 C   0  0  0  0  0  0  0  0  0  0  0  0
  -17.3244  -30.7737   24.1969 C   0  0  0  0  0  0  0  0  0  0  0  0
  -20.0118  -30.8458   24.9175 C   0  0  0  0  0  0  0  0  0  0  0  0
  -26.8458  -30.2500   22.8541 C   0  0  0  0  0  0  0  0  0  0  0  0
  -29.2116  -11.9107   18.4429 C   0  0  0  0  0  0  0  0  0  0  0  0
  -29.9678  -12.5949   20.6331 C   0  0  0  0  0  0  0  0  0  0  0  0
  -27.9596  -29.4323   23.0399 C   0  0  0  0  0  0  0  0  0  0  0  0
  -29.3525   -8.8386   19.8482 C   0  0  0  0  0  0  0  0  0  0  0  0
  -28.8742   -7.5933   19.4408 C   0  0  0  0  0  0  0  0  0  0  0  0
  -27.0823  -27.8784   21.4167 C   0  0  0  0  0  0  0  0  0  0  0  0
  -30.5383   -7.5269   17.6905 C   0  0  0  0  0  0  0  0  0  0  0  0
  -26.8749  -23.9137   21.1313 C   0  0  0  0  0  0  0  0  0  0  0  0
  -28.2600  -13.8676   19.4926 C   0  0  0  0  0  0  0  0  0  0  0  0
  -26.0126  -14.9979   19.9164 C   0  0  0  0  0  0  0  0  0  0  0  0
  -18.2142  -29.8485   23.6285 C   0  0  0  0  0  0  0  0  0  0  0  0
  -25.8349  -29.8820   21.9546 C   0  0  0  0  0  0  0  0  0  0  0  0
  -19.5721  -29.8768   23.9996 C   0  0  0  0  0  0  0  0  0  0  0  0
  -25.9579  -28.6944   21.2194 C   0  0  0  0  0  0  0  0  0  0  0  0
  -30.0329  -11.7146   19.5531 C   0  0  0  0  0  0  0  0  0  0  0  0
  -28.0766  -28.2449   22.3234 C   0  0  0  0  0  0  0  0  0  0  0  0
  -30.4237   -9.4281   19.1768 C   0  0  0  0  0  0  0  0  0  0  0  0
  -29.4671   -6.9374   18.3619 C   0  0  0  0  0  0  0  0  0  0  0  0
  -31.0166   -8.7722   18.0979 C   0  0  0  0  0  0  0  0  0  0  0  0
  -27.3448  -14.9801   19.4618 C   0  0  0  0  0  0  0  0  0  0  0  0
  -28.2168  -24.0980   20.8805 C   0  0  0  0  0  0  0  0  0  0  0  0
  -27.2111  -24.4547   23.3276 C   0  0  0  0  0  0  0  0  0  0  0  0
  -28.5532  -24.6382   23.0771 C   0  0  0  0  0  0  0  0  0  0  0  0
  -25.5815  -16.2777   19.6663 C   0  0  0  0  0  0  0  0  0  0  0  0
  -25.2344  -13.9511   20.5116 C   0  0  0  0  0  0  0  0  0  0  0  0
  -22.7373  -29.2163   22.2114 C   0  0  0  0  0  0  0  0  0  0  0  0
  -22.8903  -29.1093   18.9730 C   0  0  0  0  0  0  0  0  0  0  0  0
  -24.7926  -28.6580   16.1757 C   0  0  0  0  0  0  0  0  0  0  0  0
  -28.5618  -21.3715   19.1769 C   0  0  0  0  0  0  0  0  0  0  0  0
  -17.6713  -28.8048   22.6847 C   0  0  0  0  0  0  0  0  0  0  0  0
  -24.6526  -30.7882   21.7458 C   0  0  0  0  0  0  0  0  0  0  0  0
  -24.9101  -28.2642   20.2267 C   0  0  0  0  0  0  0  0  0  0  0  0
  -18.7514  -28.1059   21.8630 C   0  0  0  0  0  0  0  0  0  0  0  0
  -26.3107  -19.9609   16.6962 C   0  0  0  0  0  0  0  0  0  0  0  0
  -19.9164  -27.6905   22.7558 C   0  0  0  0  0  0  0  0  0  0  0  0
  -26.1959  -18.5138   17.1802 C   0  0  0  0  0  0  0  0  0  0  0  0
  -28.2522  -24.6387   18.2583 C   0  0  0  0  0  0  0  0  0  0  0  0
  -30.9345  -24.5258   25.8185 C   0  0  0  0  0  0  0  0  0  0  0  0
  -27.7206  -20.4966   16.9158 C   0  0  0  0  0  0  0  0  0  0  0  0
  -28.3831  -23.3479   17.4518 C   0  0  0  0  0  0  0  0  0  0  0  0
  -29.5433  -24.1723   25.3001 C   0  0  0  0  0  0  0  0  0  0  0  0
  -28.0961  -18.9766   18.8046 C   0  0  0  0  0  0  0  0  0  0  0  0
  -20.5761  -28.9125   23.4062 C   0  0  1  0  0  0  0  0  0  0  0  0
  -28.8898  -23.9085   19.4567 C   0  0  2  0  0  0  0  0  0  0  0  0
  -23.4348  -30.0616   21.1834 C   0  0  1  0  0  0  0  0  0  0  0  0
  -26.6922  -18.3661   18.6311 C   0  0  2  0  0  0  0  0  0  0  0  0
  -31.0999  -25.9901   25.4389 C   0  0  1  0  0  0  0  0  0  0  0  0
  -30.3910  -26.0928   24.0693 C   0  0  2  0  0  0  0  0  0  0  0  0
  -25.1939  -25.1600   24.6391 C   0  0  0  0  0  0  0  0  0  0  0  0
  -24.6299  -28.5921   13.6724 C   0  0  0  0  0  0  0  0  0  0  0  0
  -21.6326  -26.3338   19.1301 C   0  0  0  0  0  0  0  0  0  0  0  0
  -22.3618  -25.9458   16.7666 C   0  0  0  0  0  0  0  0  0  0  0  0
  -20.7495  -27.7765   17.2881 C   0  0  0  0  0  0  0  0  0  0  0  0
  -26.6565  -30.9375   15.8787 C   0  0  0  0  0  0  0  0  0  0  0  0
  -26.6316  -24.6491   24.6880 C   0  0  0  0  0  0  0  0  0  0  0  0
  -29.7767  -27.4632   23.7913 C   0  0  0  0  0  0  0  0  0  1  0  0
  -23.1755  -28.0353   17.9510 C   0  0  1  0  0  0  0  0  0  0  0  0
  -24.9014  -29.4600   14.8914 C   0  0  2  0  0  0  0  0  0  0  0  0
  -21.9988  -27.0297   17.8040 C   0  0  0  0  0  0  0  0  0  0  0  0
  -26.3480  -24.0888   22.3594 N   0  0  0  0  0  0  0  0  0  0  0  0
  -27.7343  -16.1553   18.9607 N   0  0  0  0  0  0  0  0  0  0  0  0
  -29.0800  -24.4635   21.8489 N   0  0  0  0  0  0  0  0  0  0  0  0
  -26.6403  -16.9235   19.0989 N   0  0  0  0  0  0  0  0  0  0  0  0
  -29.3887  -25.0132   24.1116 N   0  0  3  0  0  0  0  0  0  0  0  0
  -23.7698  -29.1809   20.0625 N   0  0  0  0  0  0  0  0  0  0  0  0
  -28.1096  -20.3632   18.3224 N   0  0  0  0  0  0  0  0  0  0  0  0
  -28.6338  -22.6629   18.7067 N   0  0  0  0  0  0  0  0  0  0  0  0
  -24.4037  -16.9025   19.8785 N   0  0  0  0  0  0  0  0  0  0  0  0
  -25.8319  -12.6968   20.6964 N   0  0  0  0  0  0  0  0  0  0  0  0
  -21.4301  -29.5917   22.4555 N   0  0  0  0  0  0  0  0  0  0  0  0
  -23.5262  -28.7293   16.7166 N   0  0  0  0  0  0  0  0  0  0  0  0
  -30.4476  -26.8310   26.4787 N   0  3  0  0  0  0  0  0  0  0  0  0
  -26.2665  -30.0428   14.7588 N   0  3  0  0  0  0  0  0  0  0  0  0
  -24.0393  -14.1181   20.8540 O   0  0  0  0  0  0  0  0  0  0  0  0
  -23.3401  -28.2910   22.7426 O   0  0  0  0  0  0  0  0  0  0  0  0
  -21.9270  -29.8616   18.8068 O   0  0  0  0  0  0  0  0  0  0  0  0
  -25.7355  -28.0281   16.6496 O   0  0  0  0  0  0  0  0  0  0  0  0
  -28.8606  -21.1255   20.3540 O   0  0  0  0  0  0  0  0  0  0  0  0
  -30.8979  -10.6641   19.5830 O   0  0  0  0  0  0  0  0  0  0  0  0
  -29.1624  -27.4446   22.5034 O   0  0  0  0  0  0  0  0  0  1  0  0
  -29.0087   -5.7409   17.9717 F   0  0  0  0  0  0  0  0  0  0  0  0
  -32.0467   -9.3330   17.4497 F   0  0  0  0  0  0  0  0  0  0  0  0
  1  2  1  0  0  0  0
  1  5  2  0  0  0  0
  2  6  2  0  0  0  0
  3  8  2  0  0  0  0
  3 16  1  0  0  0  0
  4  9  1  0  0  0  0
  4 16  2  0  0  0  0
  5 18  1  0  0  0  0
  6 20  1  0  0  0  0
  7 10  2  0  0  0  0
  7 19  1  0  0  0  0
  8 22  1  0  0  0  0
  9 22  2  0  0  0  0
 10 23  1  0  0  0  0
 11 12  2  0  0  0  0
 11 24  1  0  0  0  0
 12 25  1  0  0  0  0
 13 21  1  0  0  0  0
 13 23  2  0  0  0  0
 14 25  2  0  0  0  0
 14 26  1  0  0  0  0
 15 28  1  0  0  0  0
 15 67  2  0  0  0  0
 16 27  1  0  0  0  0
 17 27  1  0  0  0  0
 17 31  2  0  0  0  0
 17 32  1  0  0  0  0
 18 20  2  0  0  0  0
 18 37  1  0  0  0  0
 19 21  2  0  0  0  0
 19 38  1  0  0  0  0
 20 50  1  0  0  0  0
 21 39  1  0  0  0  0
 22 86  1  0  0  0  0
 23 87  1  0  0  0  0
 24 26  2  0  0  0  0
 24 86  1  0  0  0  0
 25 88  1  0  0  0  0
 26 89  1  0  0  0  0
 27 68  2  0  0  0  0
 28 51  1  0  0  0  0
 28 69  2  0  0  0  0
 29 30  2  0  0  0  0
 29 62  1  0  0  0  0
 29 67  1  0  0  0  0
 30 69  1  0  0  0  0
 30 71  1  0  0  0  0
 31 70  1  0  0  0  0
 31 75  1  0  0  0  0
 32 76  1  0  0  0  0
 32 81  2  0  0  0  0
 33 52  1  0  0  0  0
 33 77  1  0  0  0  0
 33 82  2  0  0  0  0
 34 64  1  0  0  0  0
 34 72  1  0  0  0  0
 34 83  2  0  0  0  0
 35 65  1  0  0  0  0
 35 78  1  0  0  0  0
 35 84  2  0  0  0  0
 36 73  1  0  0  0  0
 36 74  1  0  0  0  0
 36 85  2  0  0  0  0
 37 40  1  0  0  0  0
 38 52  1  0  0  0  0
 39 72  1  0  0  0  0
 40 42  1  0  0  0  0
 41 43  1  0  0  0  0
 41 46  1  0  0  0  0
 42 50  1  0  0  0  0
 43 53  1  0  0  0  0
 44 47  1  0  0  0  0
 44 51  1  0  0  0  0
 45 48  1  0  0  0  0
 45 54  1  0  0  0  0
 46 73  1  0  0  0  0
 47 74  1  0  0  0  0
 48 71  1  0  0  0  0
 49 53  1  0  0  0  0
 49 73  1  0  0  0  0
 50 77  1  0  0  0  0
 51 74  1  0  0  0  0
 52 72  1  0  0  0  0
 53 70  1  0  0  0  0
 54 55  1  0  0  0  0
 54 79  1  0  0  0  0
 55 63  1  0  0  0  0
 55 71  1  0  0  0  0
 56 62  1  0  0  0  0
 57 65  1  0  0  0  0
 58 66  1  0  0  0  0
 59 66  1  0  0  0  0
 60 66  1  0  0  0  0
 61 80  1  0  0  0  0
 63 87  1  0  0  0  0
 64 66  1  0  0  0  0
 64 78  1  0  0  0  0
 65 80  1  0  0  0  0
 68 70  1  0  0  0  0
M  CHG  2  79   1  80   1
M  ISO  4  36 100  63 101  74 100  87 101
M  END
> <Batch ID>
0197

> <Smiles>
CCc1ncc(C2CC[100N:0]2[100C:0](=O)N2CCCC(n3nc(-c4ccc(Oc5ccc(F)cc5F)cc4)c(C(N)=O)c3N)C2)nc1N1CCC(N)C1[101CH2:1][101O:1]c1ccc2c(c1)CN(C(=O)C(NC(=O)C(C)NC)C(C)(C)C)C(C(=O)NC1CCCc3ccccc31)C2

> <Shape>
0.232

> <Color>
0.071

> <Negative vol penalty>
0.000

$$$$

  -OEChem-04052323453D

 84 94  0     1  0  0  0  0  0999 V2000
  -20.1314  -10.4546   22.4454 C   0  0  0  0  0  0  0  0  0  0  0  0
  -20.8824  -11.4375   23.0819 C   0  0  0  0  0  0  0  0  0  0  0  0
  -25.8563  -27.1610   22.1566 C   0  0  0  0  0  0  0  0  0  0  0  0
  -25.2453  -28.2486   20.0875 C   0  0  0  0  0  0  0  0  0  0  0  0
  -20.7514   -9.5602   21.5738 C   0  0  0  0  0  0  0  0  0  0  0  0
  -22.2543  -11.5259   22.8482 C   0  0  0  0  0  0  0  0  0  0  0  0
  -23.7926  -16.2906   22.0893 C   0  0  0  0  0  0  0  0  0  0  0  0
  -26.5657  -26.1970   21.4405 C   0  0  0  0  0  0  0  0  0  0  0  0
  -25.9548  -27.2845   19.3714 C   0  0  0  0  0  0  0  0  0  0  0  0
  -23.9398  -17.0992   23.2155 C   0  0  0  0  0  0  0  0  0  0  0  0
  -25.8749  -23.4096   19.6580 C   0  0  0  0  0  0  0  0  0  0  0  0
  -25.7052  -22.0749   20.0258 C   0  0  0  0  0  0  0  0  0  0  0  0
  -26.3209  -16.7152   23.1727 C   0  0  0  0  0  0  0  0  0  0  0  0
  -28.0672  -21.9067   20.5050 C   0  0  0  0  0  0  0  0  0  0  0  0
  -21.8959  -21.5672   22.4647 C   0  0  0  0  0  0  0  0  0  0  0  0
  -25.1960  -28.1868   21.4801 C   0  0  0  0  0  0  0  0  0  0  0  0
  -24.9531  -30.4049   22.7166 C   0  0  0  0  0  0  0  0  0  0  0  0
  -22.1299   -9.6438   21.3218 C   0  0  0  0  0  0  0  0  0  0  0  0
  -24.9091  -15.6784   21.5018 C   0  0  0  0  0  0  0  0  0  0  0  0
  -22.8936  -10.6310   21.9735 C   0  0  0  0  0  0  0  0  0  0  0  0
  -26.1856  -15.9014   22.0376 C   0  0  0  0  0  0  0  0  0  0  0  0
  -26.6150  -26.2587   20.0479 C   0  0  0  0  0  0  0  0  0  0  0  0
  -25.2037  -17.3093   23.7591 C   0  0  0  0  0  0  0  0  0  0  0  0
  -27.1407  -23.9929   19.7135 C   0  0  0  0  0  0  0  0  0  0  0  0
  -26.8013  -21.3234   20.4494 C   0  0  0  0  0  0  0  0  0  0  0  0
  -28.2369  -23.2414   20.1371 C   0  0  0  0  0  0  0  0  0  0  0  0
  -24.4625  -29.1827   22.2193 C   0  0  0  0  0  0  0  0  0  0  0  0
  -21.7737  -22.8687   22.8787 C   0  0  0  0  0  0  0  0  0  0  0  0
  -23.8723  -30.9814   23.3378 C   0  0  0  0  0  0  0  0  0  0  0  0
  -23.6791  -21.3336   23.8306 C   0  0  0  0  0  0  0  0  0  0  0  0
  -26.2682  -30.9686   22.6252 C   0  0  0  0  0  0  0  0  0  0  0  0
  -25.8162  -12.6730   21.0034 C   0  0  0  0  0  0  0  0  0  0  0  0
  -28.2356  -14.0852   19.3679 C   0  0  0  0  0  0  0  0  0  0  0  0
  -30.1732  -16.8511   18.8762 C   0  0  0  0  0  0  0  0  0  0  0  0
  -19.9214  -27.4091   21.7930 C   0  0  0  0  0  0  0  0  0  0  0  0
  -22.7639   -8.6250   20.4082 C   0  0  0  0  0  0  0  0  0  0  0  0
  -24.7368  -14.8306   20.2714 C   0  0  0  0  0  0  0  0  0  0  0  0
  -27.4186  -15.2835   21.4323 C   0  0  0  0  0  0  0  0  0  0  0  0
  -24.1567   -9.0224   19.9261 C   0  0  0  0  0  0  0  0  0  0  0  0
  -19.9986  -28.9329   25.3224 C   0  0  0  0  0  0  0  0  0  0  0  0
  -25.0020   -9.5248   21.0922 C   0  0  0  0  0  0  0  0  0  0  0  0
  -21.2525  -29.7773   25.1378 C   0  0  0  0  0  0  0  0  0  0  0  0
  -20.7288  -23.9805   20.8270 C   0  0  0  0  0  0  0  0  0  0  0  0
  -24.8913  -20.3376   25.8835 C   0  0  0  0  0  0  0  0  0  0  0  0
  -19.9830  -27.7795   24.3232 C   0  0  0  0  0  0  0  0  0  0  0  0
  -19.8775  -25.2264   20.6483 C   0  0  0  0  0  0  0  0  0  0  0  0
  -20.6927  -25.1902   22.8994 C   0  0  0  0  0  0  0  0  0  0  0  0
  -20.3877  -29.6374   22.7182 C   0  0  0  0  0  0  0  0  0  0  0  0
  -24.3797  -10.7745   21.7265 C   0  0  1  0  0  0  0  0  0  0  0  0
  -20.6840  -23.7609   22.3392 C   0  0  2  0  0  0  0  0  0  0  0  0
  -24.7706  -20.4859   24.3888 C   0  0  1  0  0  0  0  0  0  0  0  0
  -25.8800  -13.8423   20.0619 C   0  0  1  0  0  0  0  0  0  0  0  0
  -21.4137  -30.2613   23.6844 C   0  0  2  0  0  0  0  0  0  0  0  0
  -24.4139  -19.1816   25.0587 C   0  0  1  0  0  0  0  0  0  1  0  0
  -32.0933  -17.6912   17.4959 C   0  0  0  0  0  0  0  0  0  0  0  0
  -30.1720  -12.4615   21.0778 C   0  0  0  0  0  0  0  0  0  0  0  0
  -32.0031  -14.0034   20.3443 C   0  0  0  0  0  0  0  0  0  0  0  0
  -30.7932  -12.6168   18.6603 C   0  0  0  0  0  0  0  0  0  0  0  0
  -28.5269  -19.0031   17.6856 C   0  0  0  0  0  0  0  0  0  0  0  0
  -29.6151  -14.5863   19.7209 C   0  0  1  0  0  0  0  0  0  0  0  0
  -30.5807  -17.5835   17.6104 C   0  0  2  0  0  0  0  0  0  0  0  0
  -30.6226  -13.4272   19.9636 C   0  0  0  0  0  0  0  0  0  0  0  0
  -22.8602  -20.7617   22.9353 N   0  0  0  0  0  0  0  0  0  0  0  0
  -23.1706  -28.9929   22.5004 N   0  0  0  0  0  0  0  0  0  0  0  0
  -22.6261  -23.3883   23.7806 N   0  0  0  0  0  0  0  0  0  0  0  0
  -23.6076  -22.6044   24.2734 N   0  0  0  0  0  0  0  0  0  0  0  0
  -22.8403  -30.1036   23.1812 N   0  0  0  0  0  0  0  0  0  0  0  0
  -27.1976  -14.4575   20.2338 N   0  0  0  0  0  0  0  0  0  0  0  0
  -20.1622  -28.2000   22.9286 N   0  0  0  0  0  0  0  0  0  0  0  0
  -20.1088  -26.0290   21.8493 N   0  0  0  0  0  0  0  0  0  0  0  0
  -23.7135  -32.1486   23.9973 N   0  0  0  0  0  0  0  0  0  0  0  0
  -27.2607  -30.2434   21.9519 N   0  0  0  0  0  0  0  0  0  0  0  0
  -24.6476  -11.9411   20.9130 N   0  0  0  0  0  0  0  0  0  0  0  0
  -30.0029  -15.5012   18.6527 N   0  0  0  0  0  0  0  0  0  0  0  0
  -30.0095  -18.9600   17.6019 N   0  3  0  0  0  0  0  0  0  0  0  0
  -26.5589  -32.0750   23.1399 O   0  0  0  0  0  0  0  0  0  0  0  0
  -26.7581  -12.4504   21.7550 O   0  0  0  0  0  0  0  0  0  0  0  0
  -28.0833  -13.3949   18.3570 O   0  0  0  0  0  0  0  0  0  0  0  0
  -30.0249  -17.4191   19.9560 O   0  0  0  0  0  0  0  0  0  0  0  0
  -19.5620  -27.9369   20.7283 O   0  0  0  0  0  0  0  0  0  0  0  0
  -27.3074  -25.3183   19.3487 O   0  0  0  0  0  0  0  0  0  0  0  0
  -25.3521  -18.1089   24.8746 O   0  0  0  0  0  0  0  0  0  1  0  0
  -26.6380  -20.0421   20.8041 F   0  0  0  0  0  0  0  0  0  0  0  0
  -29.4552  -23.7966   20.1938 F   0  0  0  0  0  0  0  0  0  0  0  0
  1  2  1  0  0  0  0
  1  5  2  0  0  0  0
  2  6  2  0  0  0  0
  3  8  2  0  0  0  0
  3 16  1  0  0  0  0
  4  9  1  0  0  0  0
  4 16  2  0  0  0  0
  5 18  1  0  0  0  0
  6 20  1  0  0  0  0
  7 10  2  0  0  0  0
  7 19  1  0  0  0  0
  8 22  1  0  0  0  0
  9 22  2  0  0  0  0
 10 23  1  0  0  0  0
 11 12  2  0  0  0  0
 11 24  1  0  0  0  0
 12 25  1  0  0  0  0
 13 21  1  0  0  0  0
 13 23  2  0  0  0  0
 14 25  2  0  0  0  0
 14 26  1  0  0  0  0
 15 28  1  0  0  0  0
 15 63  2  0  0  0  0
 16 27  1  0  0  0  0
 17 27  1  0  0  0  0
 17 29  2  0  0  0  0
 17 31  1  0  0  0  0
 18 20  2  0  0  0  0
 18 36  1  0  0  0  0
 19 21  2  0  0  0  0
 19 37  1  0  0  0  0
 20 49  1  0  0  0  0
 21 38  1  0  0  0  0
 22 81  1  0  0  0  0
 23 82  1  0  0  0  0
 24 26  2  0  0  0  0
 24 81  1  0  0  0  0
 25 83  1  0  0  0  0
 26 84  1  0  0  0  0
 27 64  2  0  0  0  0
 28 50  1  0  0  0  0
 28 65  2  0  0  0  0
 29 67  1  0  0  0  0
 29 71  1  0  0  0  0
 30 51  1  0  0  0  0
 30 63  1  0  0  0  0
 30 66  2  0  0  0  0
 31 72  1  0  0  0  0
 31 76  2  0  0  0  0
 32 52  1  0  0  0  0
 32 73  1  0  0  0  0
 32 77  2  0  0  0  0
 33 60  1  0  0  0  0
 33 68  1  0  0  0  0
 33 78  2  0  0  0  0
 34 61  1  0  0  0  0
 34 74  1  0  0  0  0
 34 79  2  0  0  0  0
 35 69  1  0  0  0  0
 35 70  1  0  0  0  0
 35 80  2  0  0  0  0
 36 39  1  0  0  0  0
 37 52  1  0  0  0  0
 38 68  1  0  0  0  0
 39 41  1  0  0  0  0
 40 42  1  0  0  0  0
 40 45  1  0  0  0  0
 41 49  1  0  0  0  0
 42 53  1  0  0  0  0
 43 46  1  0  0  0  0
 43 50  1  0  0  0  0
 44 51  1  0  0  0  0
 44 54  1  0  0  0  0
 45 69  1  0  0  0  0
 46 70  1  0  0  0  0
 47 50  1  0  0  0  0
 47 70  1  0  0  0  0
 48 53  1  0  0  0  0
 48 69  1  0  0  0  0
 49 73  1  0  0  0  0
 51 54  1  0  0  0  0
 52 68  1  0  0  0  0
 53 67  1  0  0  0  0
 54 82  1  0  0  0  0
 55 61  1  0  0  0  0
 56 62  1  0  0  0  0
 57 62  1  0  0  0  0
 58 62  1  0  0  0  0
 59 75  1  0  0  0  0
 60 62  1  0  0  0  0
 60 74  1  0  0  0  0
 61 75  1  0  0  0  0
 64 67  1  0  0  0  0
 65 66  1  0  0  0  0
M  CHG  1  75   1
M  ISO  4  35 100  54 101  70 100  82 101
M  END
> <Batch ID>
0197

> <Smiles>
CNC(C)C(=O)NC(C(=O)N1Cc2cc([101O:1][101CH:1]3CC3c3ncc(C4CC[100N:0]([100C:0](=O)N5CCCC(n6nc(-c7ccc(Oc8ccc(F)cc8F)cc7)c(C(N)=O)c6N)C5)C4)nn3)ccc2CC1C(=O)NC1CCCc2ccccc21)C(C)(C)C

> <Shape>
0.260

> <Color>
0.061

> <Negative vol penalty>
0.000

$$$$

  -OEChem-04052323453D

 91101  0     1  0  0  0  0  0999 V2000
  -26.7786  -22.4895   25.3422 C   0  0  0  0  0  0  0  0  0  0  0  0
  -25.5515  -23.1196   25.5162 C   0  0  0  0  0  0  0  0  0  0  0  0
  -26.8719  -17.5308   20.7039 C   0  0  0  0  0  0  0  0  0  0  0  0
  -28.5565  -17.2969   18.9879 C   0  0  0  0  0  0  0  0  0  0  0  0
  -26.8314  -21.1062   25.1847 C   0  0  0  0  0  0  0  0  0  0  0  0
  -24.3780  -22.3653   25.5447 C   0  0  0  0  0  0  0  0  0  0  0  0
  -20.2239  -24.7377   26.6932 C   0  0  0  0  0  0  0  0  0  0  0  0
  -26.2566  -16.3606   20.2594 C   0  0  0  0  0  0  0  0  0  0  0  0
  -27.9412  -16.1267   18.5434 C   0  0  0  0  0  0  0  0  0  0  0  0
  -19.6027  -25.6337   25.8242 C   0  0  0  0  0  0  0  0  0  0  0  0
  -24.4483  -13.2399   19.8055 C   0  0  0  0  0  0  0  0  0  0  0  0
  -24.0454  -12.3135   20.7672 C   0  0  0  0  0  0  0  0  0  0  0  0
  -17.9483  -23.9608   25.2916 C   0  0  0  0  0  0  0  0  0  0  0  0
  -18.4222  -28.2055   23.2587 C   0  0  0  0  0  0  0  0  0  0  0  0
  -26.3316  -12.0992   21.5186 C   0  0  0  0  0  0  0  0  0  0  0  0
  -28.0219  -17.9990   20.0681 C   0  0  0  0  0  0  0  0  0  0  0  0
  -29.6668  -19.3209   21.5014 C   0  0  0  0  0  0  0  0  0  0  0  0
  -25.6563  -20.3367   25.1990 C   0  0  0  0  0  0  0  0  0  0  0  0
  -19.7174  -23.4407   26.8599 C   0  0  0  0  0  0  0  0  0  0  0  0
  -24.4126  -20.9654   25.4115 C   0  0  0  0  0  0  0  0  0  0  0  0
  -18.5634  -23.0511   26.1652 C   0  0  0  0  0  0  0  0  0  0  0  0
  -19.2510  -28.9122   22.3944 C   0  0  0  0  0  0  0  0  0  0  0  0
  -20.2711  -28.2493   21.7210 C   0  0  0  0  0  0  0  0  0  0  0  0
  -26.7912  -15.6585   19.1792 C   0  0  0  0  0  0  0  0  0  0  0  0
  -18.4665  -25.2444   25.1211 C   0  0  0  0  0  0  0  0  0  0  0  0
  -25.7929  -13.5960   19.7002 C   0  0  0  0  0  0  0  0  0  0  0  0
  -24.9870  -11.7431   21.6238 C   0  0  0  0  0  0  0  0  0  0  0  0
  -26.7345  -13.0257   20.5568 C   0  0  0  0  0  0  0  0  0  0  0  0
  -28.6576  -19.2081   20.5264 C   0  0  0  0  0  0  0  0  0  0  0  0
  -18.6531  -26.8481   23.4135 C   0  0  0  0  0  0  0  0  0  1  0  0
  -20.4193  -26.8900   21.9446 C   0  0  0  0  0  0  0  0  0  0  0  0
  -29.9269  -20.6677   21.5721 C   0  0  0  0  0  0  0  0  0  0  0  0
  -30.3115  -18.2997   22.2741 C   0  0  0  0  0  0  0  0  0  0  0  0
  -20.8333  -20.5117   26.3312 C   0  0  0  0  0  0  0  0  0  0  0  0
  -18.0721  -19.6195   27.7810 C   0  0  0  0  0  0  0  0  0  0  0  0
  -14.8563  -20.3977   28.6176 C   0  0  0  0  0  0  0  0  0  0  0  0
  -26.3444  -25.2919   20.0564 C   0  0  0  0  0  0  0  0  0  0  0  0
  -25.7720  -18.8421   25.0318 C   0  0  0  0  0  0  0  0  0  0  0  0
  -20.3836  -22.4950   27.8213 C   0  0  0  0  0  0  0  0  0  0  0  0
  -17.9682  -21.6768   26.3243 C   0  0  0  0  0  0  0  0  0  0  0  0
  -24.4547  -18.1849   24.6329 C   0  0  0  0  0  0  0  0  0  0  0  0
  -29.8197  -24.6522   18.9303 C   0  0  0  0  0  0  0  0  0  0  0  0
  -24.2640  -32.0986   21.3481 C   0  0  0  0  0  0  0  0  0  0  0  0
  -23.3388  -18.6568   25.5529 C   0  0  0  0  0  0  0  0  0  0  0  0
  -29.9763  -23.1688   19.2680 C   0  0  0  0  0  0  0  0  0  0  0  0
  -23.2318  -31.5101   20.4049 C   0  0  0  0  0  0  0  0  0  0  0  0
  -27.1616  -28.8186   20.6940 C   0  0  0  0  0  0  0  0  0  0  0  0
  -28.3746  -24.9816   18.5796 C   0  0  0  0  0  0  0  0  0  0  0  0
  -27.6380  -27.5056   20.0806 C   0  0  0  0  0  0  0  0  0  0  0  0
  -27.5368  -23.1321   19.9777 C   0  0  0  0  0  0  0  0  0  0  0  0
  -25.2366  -27.5056   20.1922 C   0  0  0  0  0  0  0  0  0  0  0  0
  -25.4852  -31.2488   21.0766 C   0  0  0  0  0  0  0  0  0  0  0  0
  -23.1203  -20.1689   25.4154 C   0  0  1  0  0  0  0  0  0  0  0  0
  -20.0809  -21.0296   27.5243 C   0  0  1  0  0  0  0  0  0  0  0  0
  -28.9754  -22.7366   20.3551 C   0  0  1  0  0  0  0  0  0  0  0  0
  -25.7534  -28.9312   20.1293 C   0  0  1  0  0  0  0  0  0  0  0  0
  -23.4733  -30.0014   20.4512 C   0  0  2  0  0  0  0  0  0  0  0  0
  -17.8352  -30.6679   21.2991 C   0  0  0  0  0  0  0  0  0  0  0  0
  -12.8367  -19.4529   29.7691 C   0  0  0  0  0  0  0  0  0  0  0  0
  -17.5063  -17.8686   25.3469 C   0  0  0  0  0  0  0  0  0  0  0  0
  -15.1230  -17.7152   26.0983 C   0  0  0  0  0  0  0  0  0  0  0  0
  -16.9451  -16.8137   27.5439 C   0  0  0  0  0  0  0  0  0  0  0  0
  -14.8647  -22.5494   30.6496 C   0  0  0  0  0  0  0  0  0  0  0  0
  -19.0257  -30.3764   22.2080 C   0  0  0  0  0  0  0  0  0  0  0  0
  -21.1797  -28.9996   20.7801 C   0  0  0  0  0  0  0  0  0  0  0  0
  -22.5461  -29.2741   21.4143 C   0  0  0  0  0  0  0  0  0  0  0  0
  -16.6689  -19.3163   27.3139 C   0  0  1  0  0  0  0  0  0  0  0  0
  -14.1008  -20.2830   29.9293 C   0  0  2  0  0  0  0  0  0  0  0  0
  -16.5729  -17.9538   26.5711 C   0  0  0  0  0  0  0  0  0  0  0  0
  -28.3008  -20.3891   20.0145 N   0  0  0  0  0  0  0  0  0  0  0  0
  -19.6338  -26.1697   22.7765 N   0  0  0  0  0  0  0  0  0  0  0  0
  -29.0901  -21.2568   20.6705 N   0  0  0  0  0  0  0  0  0  0  0  0
  -18.6593  -20.7861   27.2711 N   0  0  0  0  0  0  0  0  0  0  0  0
  -27.4608  -24.5560   19.6435 N   0  0  0  0  0  0  0  0  0  0  0  0
  -26.4277  -26.6820   19.9909 N   0  0  0  0  0  0  0  0  0  0  0  0
  -30.7875  -21.3937   22.3169 N   0  0  0  0  0  0  0  0  0  0  0  0
  -29.9239  -16.9674   22.0763 N   0  0  0  0  0  0  0  0  0  0  0  0
  -22.2068  -20.6097   26.4464 N   0  0  0  0  0  0  0  0  0  0  0  0
  -15.8158  -19.4153   28.4933 N   0  0  0  0  0  0  0  0  0  0  0  0
  -24.9104  -29.8569   20.9478 N   0  3  2  0  0  0  0  0  0  0  0  0
  -13.7158  -21.6346   30.4252 N   0  3  0  0  0  0  0  0  0  0  0  0
  -31.1932  -18.5624   23.1268 O   0  0  0  0  0  0  0  0  0  0  0  0
  -20.2136  -20.0557   25.3774 O   0  0  0  0  0  0  0  0  0  0  0  0
  -18.6240  -18.8533   28.5746 O   0  0  0  0  0  0  0  0  0  0  0  0
  -14.6165  -21.2691   27.7848 O   0  0  0  0  0  0  0  0  0  0  0  0
  -25.3362  -24.7340   20.5094 O   0  0  0  0  0  0  0  0  0  0  0  0
  -26.1912  -14.5165   18.7454 O   0  0  0  0  0  0  0  0  0  0  0  0
  -17.8498  -26.1294   24.2595 O   0  0  0  0  0  0  0  0  0  1  0  0
  -24.5997  -10.8547   22.5483 F   0  0  0  0  0  0  0  0  0  0  0  0
  -28.0275  -13.3647   20.4612 F   0  0  0  0  0  0  0  0  0  0  0  0
  -21.6418  -25.9573   21.1729 Cl  0  0  0  0  0  0  0  0  0  0  0  0
  1  2  1  0  0  0  0
  1  5  2  0  0  0  0
  2  6  2  0  0  0  0
  3  8  2  0  0  0  0
  3 16  1  0  0  0  0
  4  9  1  0  0  0  0
  4 16  2  0  0  0  0
  5 18  1  0  0  0  0
  6 20  1  0  0  0  0
  7 10  2  0  0  0  0
  7 19  1  0  0  0  0
  8 24  1  0  0  0  0
  9 24  2  0  0  0  0
 10 25  1  0  0  0  0
 11 12  2  0  0  0  0
 11 26  1  0  0  0  0
 12 27  1  0  0  0  0
 13 21  1  0  0  0  0
 13 25  2  0  0  0  0
 14 22  1  0  0  0  0
 14 30  2  0  0  0  0
 15 27  2  0  0  0  0
 15 28  1  0  0  0  0
 16 29  1  0  0  0  0
 17 29  1  0  0  0  0
 17 32  2  0  0  0  0
 17 33  1  0  0  0  0
 18 20  2  0  0  0  0
 18 38  1  0  0  0  0
 19 21  2  0  0  0  0
 19 39  1  0  0  0  0
 20 53  1  0  0  0  0
 21 40  1  0  0  0  0
 22 23  2  0  0  0  0
 22 64  1  0  0  0  0
 23 31  1  0  0  0  0
 23 65  1  0  0  0  0
 24 87  1  0  0  0  0
 25 88  1  0  0  0  0
 26 28  2  0  0  0  0
 26 87  1  0  0  0  0
 27 89  1  0  0  0  0
 28 90  1  0  0  0  0
 29 70  2  0  0  0  0
 30 71  1  0  0  0  0
 30 88  1  0  0  0  0
 31 71  2  0  0  0  0
 31 91  1  0  0  0  0
 32 72  1  0  0  0  0
 32 76  1  0  0  0  0
 33 77  1  0  0  0  0
 33 82  2  0  0  0  0
 34 54  1  0  0  0  0
 34 78  1  0  0  0  0
 34 83  2  0  0  0  0
 35 67  1  0  0  0  0
 35 73  1  0  0  0  0
 35 84  2  0  0  0  0
 36 68  1  0  0  0  0
 36 79  1  0  0  0  0
 36 85  2  0  0  0  0
 37 74  1  0  0  0  0
 37 75  1  0  0  0  0
 37 86  2  0  0  0  0
 38 41  1  0  0  0  0
 39 54  1  0  0  0  0
 40 73  1  0  0  0  0
 41 44  1  0  0  0  0
 42 45  1  0  0  0  0
 42 48  1  0  0  0  0
 43 46  1  0  0  0  0
 43 52  1  0  0  0  0
 44 53  1  0  0  0  0
 45 55  1  0  0  0  0
 46 57  1  0  0  0  0
 47 49  1  0  0  0  0
 47 56  1  0  0  0  0
 48 74  1  0  0  0  0
 49 75  1  0  0  0  0
 50 55  1  0  0  0  0
 50 74  1  0  0  0  0
 51 56  1  0  0  0  0
 51 75  1  0  0  0  0
 52 80  1  0  0  0  0
 53 78  1  0  0  0  0
 54 73  1  0  0  0  0
 55 72  1  0  0  0  0
 56 80  1  0  0  0  0
 57 66  1  0  0  0  0
 57 80  1  0  0  0  0
 58 64  1  0  0  0  0
 59 68  1  0  0  0  0
 60 69  1  0  0  0  0
 61 69  1  0  0  0  0
 62 69  1  0  0  0  0
 63 81  1  0  0  0  0
 65 66  1  0  0  0  0
 67 69  1  0  0  0  0
 67 79  1  0  0  0  0
 68 81  1  0  0  0  0
 70 72  1  0  0  0  0
M  CHG  2  80   1  81   1
M  ISO  4  30 101  37 100  75 100  88 101
M  END
> <Batch ID>
0197

> <Smiles>
CCc1c[101c:1]([101O:1]c2ccc3c(c2)CN(C(=O)C(NC(=O)C(C)NC)C(C)(C)C)C(C(=O)NC2CCCc4ccccc42)C3)nc(Cl)c1CCC1CCCN1C1CC[100N:0]([100C:0](=O)N2CCCC(n3nc(-c4ccc(Oc5ccc(F)cc5F)cc4)c(C(N)=O)c3N)C2)C1

> <Shape>
0.222

> <Color>
0.062

> <Negative vol penalty>
0.000

$$$$

  -OEChem-04052323453D

 90100  0     1  0  0  0  0  0999 V2000
  -18.1445  -25.9165   23.6460 C   0  0  0  0  0  0  0  0  0  0  0  0
  -19.5199  -25.7870   23.4812 C   0  0  0  0  0  0  0  0  0  0  0  0
  -24.5781  -14.9611   23.7765 C   0  0  0  0  0  0  0  0  0  0  0  0
  -22.7835  -14.9345   22.1592 C   0  0  0  0  0  0  0  0  0  0  0  0
  -17.4688  -26.9786   23.0467 C   0  0  0  0  0  0  0  0  0  0  0  0
  -20.2201  -26.7190   22.7160 C   0  0  0  0  0  0  0  0  0  0  0  0
  -25.9202  -28.7385   23.6833 C   0  0  0  0  0  0  0  0  0  0  0  0
  -23.6452  -15.0418   24.8103 C   0  0  0  0  0  0  0  0  0  0  0  0
  -21.8506  -15.0152   23.1930 C   0  0  0  0  0  0  0  0  0  0  0  0
  -27.1479  -28.3855   23.1247 C   0  0  0  0  0  0  0  0  0  0  0  0
  -21.5779  -12.9428   26.4696 C   0  0  0  0  0  0  0  0  0  0  0  0
  -21.7652  -12.1166   27.5777 C   0  0  0  0  0  0  0  0  0  0  0  0
  -26.9583  -30.2165   21.5657 C   0  0  0  0  0  0  0  0  0  0  0  0
  -21.9120  -14.0618   29.0031 C   0  0  0  0  0  0  0  0  0  0  0  0
  -31.7990  -28.4405   21.4064 C   0  0  0  0  0  0  0  0  0  0  0  0
  -24.1472  -14.9074   22.4509 C   0  0  0  0  0  0  0  0  0  0  0  0
  -25.6448  -13.6556   20.8084 C   0  0  0  0  0  0  0  0  0  0  0  0
  -18.1625  -27.9295   22.2818 C   0  0  0  0  0  0  0  0  0  0  0  0
  -25.1960  -29.8284   23.1793 C   0  0  0  0  0  0  0  0  0  0  0  0
  -19.5528  -27.7941   22.1048 C   0  0  0  0  0  0  0  0  0  0  0  0
  -25.7229  -30.5829   22.1213 C   0  0  0  0  0  0  0  0  0  0  0  0
  -22.2815  -15.0688   24.5186 C   0  0  0  0  0  0  0  0  0  0  0  0
  -27.6657  -29.1227   22.0638 C   0  0  0  0  0  0  0  0  0  0  0  0
  -21.5577  -14.3285   26.6282 C   0  0  0  0  0  0  0  0  0  0  0  0
  -21.9322  -12.6761   28.8445 C   0  0  0  0  0  0  0  0  0  0  0  0
  -21.7247  -14.8880   27.8950 C   0  0  0  0  0  0  0  0  0  0  0  0
  -25.1104  -14.8246   21.3825 C   0  0  0  0  0  0  0  0  0  0  0  0
  -32.2321  -26.1231   20.1536 C   0  0  0  0  0  0  0  0  0  0  0  0
  -33.1896  -27.1133   20.1677 C   0  0  0  0  0  0  0  0  0  0  0  0
  -30.8411  -27.4506   21.3917 C   0  0  0  0  0  0  0  0  0  0  0  0
  -26.5079  -14.1112   19.8420 C   0  0  0  0  0  0  0  0  0  0  0  0
  -25.3843  -12.2807   21.1208 C   0  0  0  0  0  0  0  0  0  0  0  0
  -32.4345  -24.8347   19.4721 C   0  0  0  0  0  0  0  0  0  0  0  0
  -22.3497  -30.1907   21.8114 C   0  0  0  0  0  0  0  0  0  0  0  0
  -23.0776  -33.3439   22.0341 C   0  0  0  0  0  0  0  0  0  0  0  0
  -25.4839  -35.7517   22.2777 C   0  0  0  0  0  0  0  0  0  0  0  0
  -29.6101  -18.9445   19.1952 C   0  0  0  0  0  0  0  0  0  0  0  0
  -17.3818  -29.0339   21.6143 C   0  0  0  0  0  0  0  0  0  0  0  0
  -23.8859  -30.2127   23.8104 C   0  0  0  0  0  0  0  0  0  0  0  0
  -24.9944  -31.7742   21.5570 C   0  0  0  0  0  0  0  0  0  0  0  0
  -18.2539  -30.1889   21.1289 C   0  0  0  0  0  0  0  0  0  0  0  0
  -27.2240  -17.7996   16.8865 C   0  0  0  0  0  0  0  0  0  0  0  0
  -19.4752  -29.6593   20.3842 C   0  0  0  0  0  0  0  0  0  0  0  0
  -35.2653  -28.1321   19.0156 C   0  0  0  0  0  0  0  0  0  0  0  0
  -34.6129  -27.2313   18.0140 C   0  0  0  0  0  0  0  0  0  0  0  0
  -26.4527  -16.7819   17.7264 C   0  0  0  0  0  0  0  0  0  0  0  0
  -29.8754  -22.4510   19.1006 C   0  0  0  0  0  0  0  0  0  0  0  0
  -32.1118  -21.3278   19.4298 C   0  0  0  0  0  0  0  0  0  0  0  0
  -27.5759  -19.0544   17.6876 C   0  0  0  0  0  0  0  0  0  0  0  0
  -29.4361  -21.2778   18.2200 C   0  0  0  0  0  0  0  0  0  0  0  0
  -31.6385  -20.1954   18.5231 C   0  0  0  0  0  0  0  0  0  0  0  0
  -27.5197  -17.7586   19.7940 C   0  0  0  0  0  0  0  0  0  0  0  0
  -20.3511  -28.7987   21.3027 C   0  0  1  0  0  0  0  0  0  0  0  0
  -34.5015  -26.9216   19.4834 C   0  0  0  0  0  0  0  0  0  0  0  0
  -22.9915  -31.0279   22.8814 C   0  0  1  0  0  0  0  0  0  0  0  0
  -27.2018  -16.4626   19.0324 C   0  0  1  0  0  0  0  0  0  0  0  0
  -31.3951  -22.6355   19.0812 C   0  0  0  0  0  0  0  0  0  0  0  0
  -25.7740  -38.2412   22.4028 C   0  0  0  0  0  0  0  0  0  0  0  0
  -22.5099  -33.5579   19.0438 C   0  0  0  0  0  0  0  0  0  0  0  0
  -23.7053  -35.7577   19.0451 C   0  0  0  0  0  0  0  0  0  0  0  0
  -21.6383  -35.4627   20.4100 C   0  0  0  0  0  0  0  0  0  0  0  0
  -31.4806  -23.4860   21.3972 C   0  0  0  0  0  0  0  0  0  0  0  0
  -26.7734  -35.5844   24.9363 C   0  0  0  0  0  0  0  0  0  0  0  0
  -29.5356  -27.6533   22.0785 C   0  0  0  0  0  0  0  0  0  1  0  0
  -23.7817  -34.3437   21.1488 C   0  0  1  0  0  0  0  0  0  0  0  0
  -25.6173  -36.9531   23.1960 C   0  0  2  0  0  0  0  0  0  0  0  0
  -22.9218  -34.7569   19.9210 C   0  0  0  0  0  0  0  0  0  0  0  0
  -32.9904  -28.2896   20.7946 N   0  0  0  0  0  0  0  0  0  0  0  0
  -25.5937  -15.9391   20.8272 N   0  0  0  0  0  0  0  0  0  0  0  0
  -31.0405  -26.2741   20.7650 N   0  0  0  0  0  0  0  0  0  0  0  0
  -26.4408  -15.4724   19.8941 N   0  0  0  0  0  0  0  0  0  0  0  0
  -23.7142  -32.1063   22.2038 N   0  0  0  0  0  0  0  0  0  0  0  0
  -28.2524  -18.6980   18.9425 N   0  0  0  0  0  0  0  0  0  0  0  0
  -30.1824  -20.0599   18.5654 N   0  0  0  0  0  0  0  0  0  0  0  0
  -27.3101  -13.4762   18.9613 N   0  0  0  0  0  0  0  0  0  0  0  0
  -24.4694  -11.9893   22.1418 N   0  0  0  0  0  0  0  0  0  0  0  0
  -21.1388  -29.6371   22.1809 N   0  0  0  0  0  0  0  0  0  0  0  0
  -24.1635  -35.4558   22.0124 N   0  0  0  0  0  0  0  0  0  0  0  0
  -31.7907  -23.6930   19.9784 N   0  0  0  0  0  0  0  0  0  0  0  0
  -26.8061  -36.7989   24.0814 N   0  3  0  0  0  0  0  0  0  0  0  0
  -25.9584  -11.3387   20.5236 O   0  0  0  0  0  0  0  0  0  0  0  0
  -33.1581  -24.8529   18.4770 O   0  0  0  0  0  0  0  0  0  0  0  0
  -22.9109  -30.0581   20.7301 O   0  0  0  0  0  0  0  0  0  0  0  0
  -22.0060  -33.6524   22.5615 O   0  0  0  0  0  0  0  0  0  0  0  0
  -26.4540  -35.1394   21.8367 O   0  0  0  0  0  0  0  0  0  0  0  0
  -30.2725  -18.2114   19.9403 O   0  0  0  0  0  0  0  0  0  0  0  0
  -21.3709  -15.1474   25.5272 O   0  0  0  0  0  0  0  0  0  0  0  0
  -28.8714  -28.7776   21.5127 O   0  0  0  0  0  0  0  0  0  1  0  0
  -22.1105  -11.8825   29.9087 F   0  0  0  0  0  0  0  0  0  0  0  0
  -21.7051  -16.2184   28.0538 F   0  0  0  0  0  0  0  0  0  0  0  0
  1  2  1  0  0  0  0
  1  5  2  0  0  0  0
  2  6  2  0  0  0  0
  3  8  2  0  0  0  0
  3 16  1  0  0  0  0
  4  9  1  0  0  0  0
  4 16  2  0  0  0  0
  5 18  1  0  0  0  0
  6 20  1  0  0  0  0
  7 10  2  0  0  0  0
  7 19  1  0  0  0  0
  8 22  1  0  0  0  0
  9 22  2  0  0  0  0
 10 23  1  0  0  0  0
 11 12  2  0  0  0  0
 11 24  1  0  0  0  0
 12 25  1  0  0  0  0
 13 21  1  0  0  0  0
 13 23  2  0  0  0  0
 14 25  2  0  0  0  0
 14 26  1  0  0  0  0
 15 30  1  0  0  0  0
 15 68  2  0  0  0  0
 16 27  1  0  0  0  0
 17 27  1  0  0  0  0
 17 31  2  0  0  0  0
 17 32  1  0  0  0  0
 18 20  2  0  0  0  0
 18 38  1  0  0  0  0
 19 21  2  0  0  0  0
 19 39  1  0  0  0  0
 20 53  1  0  0  0  0
 21 40  1  0  0  0  0
 22 87  1  0  0  0  0
 23 88  1  0  0  0  0
 24 26  2  0  0  0  0
 24 87  1  0  0  0  0
 25 89  1  0  0  0  0
 26 90  1  0  0  0  0
 27 69  2  0  0  0  0
 28 29  2  0  0  0  0
 28 33  1  0  0  0  0
 28 70  1  0  0  0  0
 29 54  1  0  0  0  0
 29 68  1  0  0  0  0
 30 64  1  0  0  0  0
 30 70  2  0  0  0  0
 31 71  1  0  0  0  0
 31 75  1  0  0  0  0
 32 76  1  0  0  0  0
 32 81  2  0  0  0  0
 33 79  1  0  0  0  0
 33 82  2  0  0  0  0
 34 55  1  0  0  0  0
 34 77  1  0  0  0  0
 34 83  2  0  0  0  0
 35 65  1  0  0  0  0
 35 72  1  0  0  0  0
 35 84  2  0  0  0  0
 36 66  1  0  0  0  0
 36 78  1  0  0  0  0
 36 85  2  0  0  0  0
 37 73  1  0  0  0  0
 37 74  1  0  0  0  0
 37 86  2  0  0  0  0
 38 41  1  0  0  0  0
 39 55  1  0  0  0  0
 40 72  1  0  0  0  0
 41 43  1  0  0  0  0
 42 46  1  0  0  0  0
 42 49  1  0  0  0  0
 43 53  1  0  0  0  0
 44 45  1  0  0  0  0
 44 54  1  0  0  0  0
 45 54  1  0  0  0  0
 46 56  1  0  0  0  0
 47 50  1  0  0  0  0
 47 57  1  0  0  0  0
 48 51  1  0  0  0  0
 48 57  1  0  0  0  0
 49 73  1  0  0  0  0
 50 74  1  0  0  0  0
 51 74  1  0  0  0  0
 52 56  1  0  0  0  0
 52 73  1  0  0  0  0
 53 77  1  0  0  0  0
 55 72  1  0  0  0  0
 56 71  1  0  0  0  0
 57 79  1  0  0  0  0
 58 66  1  0  0  0  0
 59 67  1  0  0  0  0
 60 67  1  0  0  0  0
 61 67  1  0  0  0  0
 62 79  1  0  0  0  0
 63 80  1  0  0  0  0
 64 88  1  0  0  0  0
 65 67  1  0  0  0  0
 65 78  1  0  0  0  0
 66 80  1  0  0  0  0
 69 71  1  0  0  0  0
M  CHG  1  80   1
M  ISO  4  37 100  64 101  74 100  88 101
M  END
> <Batch ID>
0197

> <Smiles>
CNC(C)C(=O)NC(C(=O)N1Cc2cc([101O:1][101CH2:1]c3cnc(C4CC4)c(C(=O)N(C)C4CC[100N:0]([100C:0](=O)N5CCCC(n6nc(-c7ccc(Oc8ccc(F)cc8F)cc7)c(C(N)=O)c6N)C5)CC4)n3)ccc2CC1C(=O)NC1CCCc2ccccc21)C(C)(C)C

> <Shape>
0.232

> <Color>
0.104

> <Negative vol penalty>
0.000

$$$$

  -OEChem-04052323453D

 90101  0     1  0  0  0  0  0999 V2000
  -27.8639  -34.6130   25.3154 C   0  0  0  0  0  0  0  0  0  0  0  0
  -28.0630  -33.3270   24.8234 C   0  0  0  0  0  0  0  0  0  0  0  0
  -23.1246  -13.1012   23.2074 C   0  0  0  0  0  0  0  0  0  0  0  0
  -23.0865  -14.8433   21.5339 C   0  0  0  0  0  0  0  0  0  0  0  0
  -26.5767  -35.0458   25.6313 C   0  0  0  0  0  0  0  0  0  0  0  0
  -26.9749  -32.4726   24.6481 C   0  0  0  0  0  0  0  0  0  0  0  0
  -27.1205  -30.0260   20.2166 C   0  0  0  0  0  0  0  0  0  0  0  0
  -22.1913  -13.8086   23.9651 C   0  0  0  0  0  0  0  0  0  0  0  0
  -22.1532  -15.5508   22.2916 C   0  0  0  0  0  0  0  0  0  0  0  0
  -27.9835  -28.9352   20.1195 C   0  0  0  0  0  0  0  0  0  0  0  0
  -18.8516  -14.3367   23.9440 C   0  0  0  0  0  0  0  0  0  0  0  0
  -17.7816  -13.6239   24.4849 C   0  0  0  0  0  0  0  0  0  0  0  0
  -26.1221  -27.4398   20.4630 C   0  0  0  0  0  0  0  0  0  0  0  0
  -18.4749  -14.2697   26.7074 C   0  0  0  0  0  0  0  0  0  0  0  0
  -30.1945  -19.4959   18.1782 C   0  0  0  0  0  0  0  0  0  0  0  0
  -23.5723  -13.6186   21.9918 C   0  0  0  0  0  0  0  0  0  0  0  0
  -24.2724  -11.9278   20.2145 C   0  0  0  0  0  0  0  0  0  0  0  0
  -25.4713  -34.1996   25.4506 C   0  0  0  0  0  0  0  0  0  0  0  0
  -25.7513  -29.8319   20.4489 C   0  0  0  0  0  0  0  0  0  0  0  0
  -25.6719  -32.8941   24.9631 C   0  0  0  0  0  0  0  0  0  0  0  0
  -25.2435  -28.5296   20.5601 C   0  0  0  0  0  0  0  0  0  0  0  0
  -30.1019  -19.1026   19.4977 C   0  0  0  0  0  0  0  0  0  0  0  0
  -21.7056  -15.0334   23.5072 C   0  0  0  0  0  0  0  0  0  0  0  0
  -27.4848  -27.6420   20.2456 C   0  0  0  0  0  0  0  0  0  0  0  0
  -19.7333  -15.0160   24.7848 C   0  0  0  0  0  0  0  0  0  0  0  0
  -17.5932  -13.5904   25.8666 C   0  0  0  0  0  0  0  0  0  0  0  0
  -19.5449  -14.9825   26.1665 C   0  0  0  0  0  0  0  0  0  0  0  0
  -24.5368  -12.8886   21.2090 C   0  0  0  0  0  0  0  0  0  0  0  0
  -29.5116  -20.0118   20.3516 C   0  0  0  0  0  0  0  0  0  0  0  0
  -25.5139  -11.5359   19.7771 C   0  0  0  0  0  0  0  0  0  0  0  0
  -29.1927  -21.4816   18.6472 C   0  0  0  0  0  0  0  0  0  0  0  0
  -23.0168  -11.4339   19.7296 C   0  0  0  0  0  0  0  0  0  0  0  0
  -23.7309  -30.6478   22.7632 C   0  0  0  0  0  0  0  0  0  0  0  0
  -21.5227  -29.3960   20.7435 C   0  0  0  0  0  0  0  0  0  0  0  0
  -20.8312  -27.2746   18.1612 C   0  0  0  0  0  0  0  0  0  0  0  0
  -30.8789  -14.3546   19.9602 C   0  0  0  0  0  0  0  0  0  0  0  0
  -24.1044  -34.6957   25.8507 C   0  0  0  0  0  0  0  0  0  0  0  0
  -24.8294  -31.0180   20.5244 C   0  0  0  0  0  0  0  0  0  0  0  0
  -23.7784  -28.2667   20.7897 C   0  0  0  0  0  0  0  0  0  0  0  0
  -22.9619  -33.8577   25.2825 C   0  0  0  0  0  0  0  0  0  0  0  0
  -30.0356  -11.0896   21.2099 C   0  0  0  0  0  0  0  0  0  0  0  0
  -23.2416  -32.3710   25.4786 C   0  0  0  0  0  0  0  0  0  0  0  0
  -29.2797  -20.8017   22.8003 C   0  0  0  0  0  0  0  0  0  0  0  0
  -30.5149  -19.9592   22.7326 C   0  0  0  0  0  0  0  0  0  0  0  0
  -28.5144  -11.1080   21.3170 C   0  0  0  0  0  0  0  0  0  0  0  0
  -29.5388  -23.6673   17.1847 C   0  0  0  0  0  0  0  0  0  0  0  0
  -30.6194  -12.4613   21.5210 C   0  0  0  0  0  0  0  0  0  0  0  0
  -29.6371  -16.6116   20.4332 C   0  0  0  0  0  0  0  0  0  0  0  0
  -31.1110  -16.6702   18.9108 C   0  0  0  0  0  0  0  0  0  0  0  0
  -28.5614  -13.5779   20.7015 C   0  0  0  0  0  0  0  0  0  0  0  0
  -29.1978  -24.8668   18.0824 C   0  0  0  0  0  0  0  0  0  0  0  0
  -30.6461  -17.6919   19.9740 C   0  0  0  0  0  0  0  0  0  0  0  0
  -24.5142  -31.9464   24.7357 C   0  0  1  0  0  0  0  0  0  0  0  0
  -29.3665  -19.6800   21.8002 C   0  0  0  0  0  0  0  0  0  0  0  0
  -28.6792  -22.8328   18.1657 C   0  0  2  0  0  0  0  0  0  0  0  0
  -23.5349  -30.7218   21.2753 C   0  0  1  0  0  0  0  0  0  0  0  0
  -27.9258  -12.2028   20.4156 C   0  0  2  0  0  0  0  0  0  0  0  0
  -18.9290  -26.4382   16.7543 C   0  0  0  0  0  0  0  0  0  0  0  0
  -29.0544  -25.1097   21.9263 C   0  0  0  0  0  0  0  0  0  0  0  0
  -20.5933  -27.6321   23.0532 C   0  0  0  0  0  0  0  0  0  0  0  0
  -19.3951  -26.1998   21.3855 C   0  0  0  0  0  0  0  0  0  0  0  0
  -18.7475  -28.5925   21.6657 C   0  0  0  0  0  0  0  0  0  0  0  0
  -22.0555  -28.3202   15.6779 C   0  0  0  0  0  0  0  0  0  0  0  0
  -27.7055  -24.2614   19.9251 C   0  0  0  0  0  0  0  0  0  0  0  0
  -20.9305  -28.0249   20.5237 C   0  0  1  0  0  0  0  0  0  0  0  0
  -20.0386  -27.4703   16.8814 C   0  0  2  0  0  0  0  0  0  0  0  0
  -27.9730  -25.4071   20.8957 C   0  0  2  0  0  0  0  0  0  1  0  0
  -19.9445  -27.6170   21.6546 C   0  0  0  0  0  0  0  0  0  0  0  0
  -29.7486  -20.6826   17.7167 N   0  0  0  0  0  0  0  0  0  0  0  0
  -25.8436  -13.0943   21.3927 N   0  0  0  0  0  0  0  0  0  0  0  0
  -29.0443  -21.2150   19.9589 N   0  0  0  0  0  0  0  0  0  0  0  0
  -26.4115  -12.2573   20.5078 N   0  0  0  0  0  0  0  0  0  0  0  0
  -22.9183  -29.4594   20.8626 N   0  0  0  0  0  0  0  0  0  0  0  0
  -30.0295  -13.5140   20.6884 N   0  0  0  0  0  0  0  0  0  0  0  0
  -30.4784  -15.6512   19.7396 N   0  0  0  0  0  0  0  0  0  0  0  0
  -25.9145  -10.6479   18.8425 N   0  0  0  0  0  0  0  0  0  0  0  0
  -21.8372  -11.9442   20.2886 N   0  0  0  0  0  0  0  0  0  0  0  0
  -24.2487  -31.8014   23.3205 N   0  0  0  0  0  0  0  0  0  0  0  0
  -20.3362  -28.0456   19.1915 N   0  0  0  0  0  0  0  0  0  0  0  0
  -28.9292  -23.9058   19.1713 N   0  3  2  0  0  0  0  0  0  0  0  0
  -20.9321  -27.3483   15.6949 N   0  3  0  0  0  0  0  0  0  0  0  0
  -22.9433  -10.5539   18.8387 O   0  0  0  0  0  0  0  0  0  0  0  0
  -23.4330  -29.6207   23.3615 O   0  0  0  0  0  0  0  0  0  0  0  0
  -20.7752  -30.3756   20.8000 O   0  0  0  0  0  0  0  0  0  0  0  0
  -21.7910  -26.5110   18.2400 O   0  0  0  0  0  0  0  0  0  0  0  0
  -31.9790  -13.9688   19.5430 O   0  0  0  0  0  0  0  0  0  0  0  0
  -20.7947  -15.7239   24.2462 O   0  0  0  0  0  0  0  0  0  0  0  0
  -28.3298  -26.5694   20.1514 O   0  0  0  0  0  0  0  0  0  1  0  0
  -16.5648  -12.9071   26.3858 F   0  0  0  0  0  0  0  0  0  0  0  0
  -20.3880  -15.6341   26.9792 F   0  0  0  0  0  0  0  0  0  0  0  0
  1  2  1  0  0  0  0
  1  5  2  0  0  0  0
  2  6  2  0  0  0  0
  3  8  2  0  0  0  0
  3 16  1  0  0  0  0
  4  9  1  0  0  0  0
  4 16  2  0  0  0  0
  5 18  1  0  0  0  0
  6 20  1  0  0  0  0
  7 10  2  0  0  0  0
  7 19  1  0  0  0  0
  8 23  1  0  0  0  0
  9 23  2  0  0  0  0
 10 24  1  0  0  0  0
 11 12  2  0  0  0  0
 11 25  1  0  0  0  0
 12 26  1  0  0  0  0
 13 21  1  0  0  0  0
 13 24  2  0  0  0  0
 14 26  2  0  0  0  0
 14 27  1  0  0  0  0
 15 22  1  0  0  0  0
 15 69  2  0  0  0  0
 16 28  1  0  0  0  0
 17 28  1  0  0  0  0
 17 30  2  0  0  0  0
 17 32  1  0  0  0  0
 18 20  2  0  0  0  0
 18 37  1  0  0  0  0
 19 21  2  0  0  0  0
 19 38  1  0  0  0  0
 20 53  1  0  0  0  0
 21 39  1  0  0  0  0
 22 29  2  0  0  0  0
 22 52  1  0  0  0  0
 23 87  1  0  0  0  0
 24 88  1  0  0  0  0
 25 27  2  0  0  0  0
 25 87  1  0  0  0  0
 26 89  1  0  0  0  0
 27 90  1  0  0  0  0
 28 70  2  0  0  0  0
 29 54  1  0  0  0  0
 29 71  1  0  0  0  0
 30 72  1  0  0  0  0
 30 76  1  0  0  0  0
 31 55  1  0  0  0  0
 31 69  1  0  0  0  0
 31 71  2  0  0  0  0
 32 77  1  0  0  0  0
 32 82  2  0  0  0  0
 33 56  1  0  0  0  0
 33 78  1  0  0  0  0
 33 83  2  0  0  0  0
 34 65  1  0  0  0  0
 34 73  1  0  0  0  0
 34 84  2  0  0  0  0
 35 66  1  0  0  0  0
 35 79  1  0  0  0  0
 35 85  2  0  0  0  0
 36 74  1  0  0  0  0
 36 75  1  0  0  0  0
 36 86  2  0  0  0  0
 37 40  1  0  0  0  0
 38 56  1  0  0  0  0
 39 73  1  0  0  0  0
 40 42  1  0  0  0  0
 41 45  1  0  0  0  0
 41 47  1  0  0  0  0
 42 53  1  0  0  0  0
 43 44  1  0  0  0  0
 43 54  1  0  0  0  0
 44 54  1  0  0  0  0
 45 57  1  0  0  0  0
 46 51  1  0  0  0  0
 46 55  1  0  0  0  0
 47 74  1  0  0  0  0
 48 52  1  0  0  0  0
 48 75  1  0  0  0  0
 49 52  1  0  0  0  0
 49 75  1  0  0  0  0
 50 57  1  0  0  0  0
 50 74  1  0  0  0  0
 51 80  1  0  0  0  0
 53 78  1  0  0  0  0
 55 80  1  0  0  0  0
 56 73  1  0  0  0  0
 57 72  1  0  0  0  0
 58 66  1  0  0  0  0
 59 67  1  0  0  0  0
 60 68  1  0  0  0  0
 61 68  1  0  0  0  0
 62 68  1  0  0  0  0
 63 81  1  0  0  0  0
 64 67  1  0  0  0  0
 64 80  1  0  0  0  0
 65 68  1  0  0  0  0
 65 79  1  0  0  0  0
 66 81  1  0  0  0  0
 67 88  1  0  0  0  0
 70 72  1  0  0  0  0
M  CHG  2  80   1  81   1
M  ISO  4  36 100  67 101  75 100  88 101
M  END
> <Batch ID>
0197

> <Smiles>
CNC(C)C(=O)NC(C(=O)N1Cc2cc([101O:1][101CH:1](C)CN3CCC3c3ncc(C4C[100N:0]([100C:0](=O)N5CCCC(n6nc(-c7ccc(Oc8ccc(F)cc8F)cc7)c(C(N)=O)c6N)C5)C4)c(C4CC4)n3)ccc2CC1C(=O)NC1CCCc2ccccc21)C(C)(C)C

> <Shape>
0.298

> <Color>
0.088

> <Negative vol penalty>
0.000

$$$$

  -OEChem-04052323453D

 82 91  0     1  0  0  0  0  0999 V2000
  -28.8382  -31.7163   26.7943 C   0  0  0  0  0  0  0  0  0  0  0  0
  -28.7669  -30.4513   26.2196 C   0  0  0  0  0  0  0  0  0  0  0  0
  -23.3032  -10.0061   22.1710 C   0  0  0  0  0  0  0  0  0  0  0  0
  -23.9454  -11.4786   23.9755 C   0  0  0  0  0  0  0  0  0  0  0  0
  -27.7115  -32.5373   26.8116 C   0  0  0  0  0  0  0  0  0  0  0  0
  -27.5685  -30.0062   25.6629 C   0  0  0  0  0  0  0  0  0  0  0  0
  -28.2257  -27.7800   21.1621 C   0  0  0  0  0  0  0  0  0  0  0  0
  -22.6198   -9.1945   23.0765 C   0  0  0  0  0  0  0  0  0  0  0  0
  -23.2619  -10.6670   24.8810 C   0  0  0  0  0  0  0  0  0  0  0  0
  -28.7032  -26.4702   21.1633 C   0  0  0  0  0  0  0  0  0  0  0  0
  -23.3791   -6.8108   25.3493 C   0  0  0  0  0  0  0  0  0  0  0  0
  -23.5559   -5.4313   25.2434 C   0  0  0  0  0  0  0  0  0  0  0  0
  -26.4576  -25.6576   20.8228 C   0  0  0  0  0  0  0  0  0  0  0  0
  -21.1863   -5.1571   24.8600 C   0  0  0  0  0  0  0  0  0  0  0  0
  -29.3168  -20.1921   19.9121 C   0  0  0  0  0  0  0  0  0  0  0  0
  -23.9660  -11.1481   22.6206 C   0  0  0  0  0  0  0  0  0  0  0  0
  -24.1580  -13.0857   20.9723 C   0  0  0  0  0  0  0  0  0  0  0  0
  -26.5012  -32.1058   26.2461 C   0  0  0  0  0  0  0  0  0  0  0  0
  -26.8568  -28.0384   21.0018 C   0  0  0  0  0  0  0  0  0  0  0  0
  -26.4241  -30.8217   25.6738 C   0  0  0  0  0  0  0  0  0  0  0  0
  -25.9656  -26.9717   20.8173 C   0  0  0  0  0  0  0  0  0  0  0  0
  -29.2150  -19.3726   21.0178 C   0  0  0  0  0  0  0  0  0  0  0  0
  -22.5991   -9.5250   24.4315 C   0  0  0  0  0  0  0  0  0  0  0  0
  -27.8188  -25.4085   20.9965 C   0  0  0  0  0  0  0  0  0  0  0  0
  -22.1059   -7.3635   25.2107 C   0  0  0  0  0  0  0  0  0  0  0  0
  -22.4595   -4.6044   24.9988 C   0  0  0  0  0  0  0  0  0  0  0  0
  -21.0096   -6.5366   24.9660 C   0  0  0  0  0  0  0  0  0  0  0  0
  -24.6726  -11.9866   21.6858 C   0  0  0  0  0  0  0  0  0  0  0  0
  -28.4464  -19.8614   22.0544 C   0  0  0  0  0  0  0  0  0  0  0  0
  -25.2190  -13.5381   20.2266 C   0  0  0  0  0  0  0  0  0  0  0  0
  -27.9967  -21.7621   20.8917 C   0  0  0  0  0  0  0  0  0  0  0  0
  -22.8389  -13.6474   20.9827 C   0  0  0  0  0  0  0  0  0  0  0  0
  -24.6074  -29.4020   22.7864 C   0  0  0  0  0  0  0  0  0  0  0  0
  -22.8006  -29.0035   20.1221 C   0  0  0  0  0  0  0  0  0  0  0  0
  -22.2662  -27.3036   17.2115 C   0  0  0  0  0  0  0  0  0  0  0  0
  -30.6934  -14.8900   19.9775 C   0  0  0  0  0  0  0  0  0  0  0  0
  -25.2972  -33.0102   26.3308 C   0  0  0  0  0  0  0  0  0  0  0  0
  -26.3611  -29.4583   20.9761 C   0  0  0  0  0  0  0  0  0  0  0  0
  -24.4893  -27.1966   20.6211 C   0  0  0  0  0  0  0  0  0  0  0  0
  -24.1672  -32.6101   25.3857 C   0  0  0  0  0  0  0  0  0  0  0  0
  -29.7274  -11.4925   19.3019 C   0  0  0  0  0  0  0  0  0  0  0  0
  -23.9101  -31.1087   25.4665 C   0  0  0  0  0  0  0  0  0  0  0  0
  -28.3082  -11.3877   19.8502 C   0  0  0  0  0  0  0  0  0  0  0  0
  -30.5714  -12.4319   20.1529 C   0  0  0  0  0  0  0  0  0  0  0  0
  -29.0947  -16.6742   21.0362 C   0  0  0  0  0  0  0  0  0  0  0  0
  -30.6170  -17.4334   19.7715 C   0  0  0  0  0  0  0  0  0  0  0  0
  -28.5621  -13.7403   20.7894 C   0  0  0  0  0  0  0  0  0  0  0  0
  -29.9462  -17.9667   21.0584 C   0  0  0  0  0  0  0  0  0  0  0  0
  -25.1487  -30.3129   25.0377 C   0  0  1  0  0  0  0  0  0  0  0  0
  -24.8797  -29.5803   21.3196 C   0  0  1  0  0  0  0  0  0  0  0  0
  -27.6750  -12.7812   19.9711 C   0  0  2  0  0  0  0  0  0  0  0  0
  -20.6880  -27.1789   15.2643 C   0  0  0  0  0  0  0  0  0  0  0  0
  -20.7538  -27.5734   21.8758 C   0  0  0  0  0  0  0  0  0  0  0  0
  -19.7073  -26.6632   19.7914 C   0  0  0  0  0  0  0  0  0  0  0  0
  -19.7708  -29.1265   20.1798 C   0  0  0  0  0  0  0  0  0  0  0  0
  -24.4109  -27.9638   15.2819 C   0  0  0  0  0  0  0  0  0  0  0  0
  -27.3210  -23.0896   20.8221 C   0  0  0  0  0  0  0  0  0  1  0  0
  -21.9069  -27.9092   19.5902 C   0  0  1  0  0  0  0  0  0  0  0  0
  -21.9744  -27.7862   15.8021 C   0  0  2  0  0  0  0  0  0  0  0  0
  -20.5622  -27.8134   20.3649 C   0  0  0  0  0  0  0  0  0  0  0  0
  -28.7186  -21.3975   19.8149 N   0  0  0  0  0  0  0  0  0  0  0  0
  -25.9603  -11.7548   21.4173 N   0  0  0  0  0  0  0  0  0  0  0  0
  -27.8208  -21.0564   22.0251 N   0  0  0  0  0  0  0  0  0  0  0  0
  -26.2638  -12.7145   20.5268 N   0  0  0  0  0  0  0  0  0  0  0  0
  -24.0525  -28.6025   20.6098 N   0  0  0  0  0  0  0  0  0  0  0  0
  -29.9486  -13.7507   20.3024 N   0  0  0  0  0  0  0  0  0  0  0  0
  -30.1086  -16.1218   20.1542 N   0  0  0  0  0  0  0  0  0  0  0  0
  -25.3508  -14.5562   19.3499 N   0  0  0  0  0  0  0  0  0  0  0  0
  -21.8690  -13.0599   21.8064 N   0  0  0  0  0  0  0  0  0  0  0  0
  -25.2701  -30.3051   23.5956 N   0  0  0  0  0  0  0  0  0  0  0  0
  -21.7566  -28.1633   18.1615 N   0  0  0  0  0  0  0  0  0  0  0  0
  -23.0890  -27.4136   14.8858 N   0  3  0  0  0  0  0  0  0  0  0  0
  -22.5251  -14.6308   20.2701 O   0  0  0  0  0  0  0  0  0  0  0  0
  -23.8509  -28.5118   23.1567 O   0  0  0  0  0  0  0  0  0  0  0  0
  -22.4055  -30.1718   20.0989 O   0  0  0  0  0  0  0  0  0  0  0  0
  -22.8812  -26.2657   17.4462 O   0  0  0  0  0  0  0  0  0  0  0  0
  -31.8597  -14.8133   19.5688 O   0  0  0  0  0  0  0  0  0  0  0  0
  -21.9322   -8.7334   25.3153 O   0  0  0  0  0  0  0  0  0  0  0  0
  -28.2853  -24.1203   20.9980 O   0  0  0  0  0  0  0  0  0  1  0  0
  -22.6297   -3.2798   24.8955 F   0  0  0  0  0  0  0  0  0  0  0  0
  -19.7842   -7.0619   24.8306 F   0  0  0  0  0  0  0  0  0  0  0  0
  -28.2059  -18.9800   23.5101 Cl  0  0  0  0  0  0  0  0  0  0  0  0
  1  2  1  0  0  0  0
  1  5  2  0  0  0  0
  2  6  2  0  0  0  0
  3  8  2  0  0  0  0
  3 16  1  0  0  0  0
  4  9  1  0  0  0  0
  4 16  2  0  0  0  0
  5 18  1  0  0  0  0
  6 20  1  0  0  0  0
  7 10  2  0  0  0  0
  7 19  1  0  0  0  0
  8 23  1  0  0  0  0
  9 23  2  0  0  0  0
 10 24  1  0  0  0  0
 11 12  2  0  0  0  0
 11 25  1  0  0  0  0
 12 26  1  0  0  0  0
 13 21  1  0  0  0  0
 13 24  2  0  0  0  0
 14 26  2  0  0  0  0
 14 27  1  0  0  0  0
 15 22  1  0  0  0  0
 15 61  2  0  0  0  0
 16 28  1  0  0  0  0
 17 28  1  0  0  0  0
 17 30  2  0  0  0  0
 17 32  1  0  0  0  0
 18 20  2  0  0  0  0
 18 37  1  0  0  0  0
 19 21  2  0  0  0  0
 19 38  1  0  0  0  0
 20 49  1  0  0  0  0
 21 39  1  0  0  0  0
 22 29  2  0  0  0  0
 22 48  1  0  0  0  0
 23 78  1  0  0  0  0
 24 79  1  0  0  0  0
 25 27  2  0  0  0  0
 25 78  1  0  0  0  0
 26 80  1  0  0  0  0
 27 81  1  0  0  0  0
 28 62  2  0  0  0  0
 29 63  1  0  0  0  0
 29 82  1  0  0  0  0
 30 64  1  0  0  0  0
 30 68  1  0  0  0  0
 31 57  1  0  0  0  0
 31 61  1  0  0  0  0
 31 63  2  0  0  0  0
 32 69  1  0  0  0  0
 32 73  2  0  0  0  0
 33 50  1  0  0  0  0
 33 70  1  0  0  0  0
 33 74  2  0  0  0  0
 34 58  1  0  0  0  0
 34 65  1  0  0  0  0
 34 75  2  0  0  0  0
 35 59  1  0  0  0  0
 35 71  1  0  0  0  0
 35 76  2  0  0  0  0
 36 66  1  0  0  0  0
 36 67  1  0  0  0  0
 36 77  2  0  0  0  0
 37 40  1  0  0  0  0
 38 50  1  0  0  0  0
 39 65  1  0  0  0  0
 40 42  1  0  0  0  0
 41 43  1  0  0  0  0
 41 44  1  0  0  0  0
 42 49  1  0  0  0  0
 43 51  1  0  0  0  0
 44 66  1  0  0  0  0
 45 48  1  0  0  0  0
 45 67  1  0  0  0  0
 46 48  1  0  0  0  0
 46 67  1  0  0  0  0
 47 51  1  0  0  0  0
 47 66  1  0  0  0  0
 49 70  1  0  0  0  0
 50 65  1  0  0  0  0
 51 64  1  0  0  0  0
 52 59  1  0  0  0  0
 53 60  1  0  0  0  0
 54 60  1  0  0  0  0
 55 60  1  0  0  0  0
 56 72  1  0  0  0  0
 57 79  1  0  0  0  0
 58 60  1  0  0  0  0
 58 71  1  0  0  0  0
 59 72  1  0  0  0  0
 62 64  1  0  0  0  0
M  CHG  1  72   1
M  ISO  4  36 100  57 101  67 100  79 101
M  END
> <Batch ID>
0197

> <Smiles>
CNC(C)C(=O)NC(C(=O)N1Cc2cc([101O:1][101CH2:1]c3ncc(C4C[100N:0]([100C:0](=O)N5CCCC(n6nc(-c7ccc(Oc8ccc(F)cc8F)cc7)c(C(N)=O)c6N)C5)C4)c(Cl)n3)ccc2CC1C(=O)NC1CCCc2ccccc21)C(C)(C)C

> <Shape>
0.311

> <Color>
0.133

> <Negative vol penalty>
0.000

$$$$

  -OEChem-04052323453D

 83 92  0     1  0  0  0  0  0999 V2000
  -29.7591  -27.3463   26.3869 C   0  0  0  0  0  0  0  0  0  0  0  0
  -30.4032  -26.6341   25.3803 C   0  0  0  0  0  0  0  0  0  0  0  0
  -23.1565   -9.8640   19.8843 C   0  0  0  0  0  0  0  0  0  0  0  0
  -23.8331   -9.8795   22.2035 C   0  0  0  0  0  0  0  0  0  0  0  0
  -28.3866  -27.1931   26.5788 C   0  0  0  0  0  0  0  0  0  0  0  0
  -29.6755  -25.7673   24.5658 C   0  0  0  0  0  0  0  0  0  0  0  0
  -30.8648  -26.2471   19.6668 C   0  0  0  0  0  0  0  0  0  0  0  0
  -22.4271   -8.6957   20.1049 C   0  0  0  0  0  0  0  0  0  0  0  0
  -23.1036   -8.7113   22.4242 C   0  0  0  0  0  0  0  0  0  0  0  0
  -32.0474  -25.6466   19.2369 C   0  0  0  0  0  0  0  0  0  0  0  0
  -19.8723   -7.8483   22.9083 C   0  0  0  0  0  0  0  0  0  0  0  0
  -19.0747   -7.7902   24.0511 C   0  0  0  0  0  0  0  0  0  0  0  0
  -30.7799  -23.7878   18.3663 C   0  0  0  0  0  0  0  0  0  0  0  0
  -20.3269   -5.8755   24.8278 C   0  0  0  0  0  0  0  0  0  0  0  0
  -23.8595  -10.4559   20.9336 C   0  0  0  0  0  0  0  0  0  0  0  0
  -24.1554  -12.9876   20.8312 C   0  0  0  0  0  0  0  0  0  0  0  0
  -27.6399  -26.3313   25.7600 C   0  0  0  0  0  0  0  0  0  0  0  0
  -29.6298  -25.6162   19.4590 C   0  0  0  0  0  0  0  0  0  0  0  0
  -28.2920  -25.6014   24.7478 C   0  0  0  0  0  0  0  0  0  0  0  0
  -29.5829  -24.3836   18.7922 C   0  0  0  0  0  0  0  0  0  0  0  0
  -22.4006   -8.1194   21.3748 C   0  0  0  0  0  0  0  0  0  0  0  0
  -32.0053  -24.4154   18.5891 C   0  0  0  0  0  0  0  0  0  0  0  0
  -20.8972   -6.9200   22.7252 C   0  0  0  0  0  0  0  0  0  0  0  0
  -19.3020   -6.8038   25.0109 C   0  0  0  0  0  0  0  0  0  0  0  0
  -21.1245   -5.9336   23.6849 C   0  0  0  0  0  0  0  0  0  0  0  0
  -24.6137  -11.6624   20.7062 C   0  0  0  0  0  0  0  0  0  0  0  0
  -25.2448  -13.7595   20.5091 C   0  0  0  0  0  0  0  0  0  0  0  0
  -22.8607  -13.4771   21.2052 C   0  0  0  0  0  0  0  0  0  0  0  0
  -27.3345  -24.4996   21.3534 C   0  0  0  0  0  0  0  0  0  0  0  0
  -25.7829  -24.0282   18.5440 C   0  0  0  0  0  0  0  0  0  0  0  0
  -25.9790  -23.5526   15.1703 C   0  0  0  0  0  0  0  0  0  0  0  0
  -30.6124  -14.8289   21.1945 C   0  0  0  0  0  0  0  0  0  0  0  0
  -26.1669  -26.1628   26.0361 C   0  0  0  0  0  0  0  0  0  0  0  0
  -28.3610  -26.2897   19.9050 C   0  0  0  0  0  0  0  0  0  0  0  0
  -28.2809  -23.6747   18.5267 C   0  0  0  0  0  0  0  0  0  0  0  0
  -25.4029  -25.5081   24.8880 C   0  0  0  0  0  0  0  0  0  0  0  0
  -29.6773  -12.5289   18.4534 C   0  0  0  0  0  0  0  0  0  0  0  0
  -26.1543  -24.2829   24.3770 C   0  0  0  0  0  0  0  0  0  0  0  0
  -28.2503  -12.1659   18.8517 C   0  0  0  0  0  0  0  0  0  0  0  0
  -35.6922  -18.5065   19.2396 C   0  0  0  0  0  0  0  0  0  0  0  0
  -30.5716  -12.7668   19.6695 C   0  0  0  0  0  0  0  0  0  0  0  0
  -35.9488  -19.8950   18.6524 C   0  0  0  0  0  0  0  0  0  0  0  0
  -28.5926  -13.4126   21.0192 C   0  0  0  0  0  0  0  0  0  0  0  0
  -33.7561  -19.9120   19.4623 C   0  0  0  0  0  0  0  0  0  0  0  0
  -32.3936  -17.5137   20.8285 C   0  0  0  0  0  0  0  0  0  0  0  0
  -34.1091  -16.3356   20.6713 C   0  0  0  0  0  0  0  0  0  0  0  0
  -27.5326  -24.6703   23.8278 C   0  0  1  0  0  0  0  0  0  0  0  0
  -27.2033  -25.3152   20.0983 C   0  0  1  0  0  0  0  0  0  0  0  0
  -27.6705  -13.2208   19.8057 C   0  0  2  0  0  0  0  0  0  0  0  0
  -32.7580  -16.1226   21.3769 C   0  0  0  0  0  0  0  0  0  0  0  0
  -34.1858  -18.4586   19.4520 C   0  0  2  0  0  0  0  0  0  0  0  0
  -24.5437  -23.1598   13.1496 C   0  0  0  0  0  0  0  0  0  0  0  0
  -35.5688  -22.4032   17.2834 C   0  0  0  0  0  0  0  0  0  0  0  0
  -25.3791  -21.1268   19.3978 C   0  0  0  0  0  0  0  0  0  0  0  0
  -24.8196  -20.5780   17.0200 C   0  0  0  0  0  0  0  0  0  0  0  0
  -23.3935  -22.1766   18.2980 C   0  0  0  0  0  0  0  0  0  0  0  0
  -26.9101  -26.0482   13.8803 C   0  0  0  0  0  0  0  0  0  0  0  0
  -33.1833  -22.4004   18.1330 C   0  0  0  0  0  0  0  0  0  1  0  0
  -25.6971  -22.8983   17.5466 C   0  0  1  0  0  0  0  0  0  0  0  0
  -25.2348  -24.2006   14.0167 C   0  0  2  0  0  0  0  0  0  0  0  0
  -34.6110  -21.9040   18.3655 C   0  0  1  0  0  0  0  0  0  0  0  0
  -24.8472  -21.7071   18.0722 C   0  0  0  0  0  0  0  0  0  0  0  0
  -25.8944  -11.5927   20.3336 N   0  0  0  0  0  0  0  0  0  0  0  0
  -26.2502  -12.8838   20.2216 N   0  0  0  0  0  0  0  0  0  0  0  0
  -27.0681  -24.3707   18.9875 N   0  0  0  0  0  0  0  0  0  0  0  0
  -29.9681  -13.7233   20.6110 N   0  0  0  0  0  0  0  0  0  0  0  0
  -34.6140  -20.4496   18.4035 N   0  0  1  0  0  0  0  0  0  0  0  0
  -25.4313  -15.0951   20.4465 N   0  0  0  0  0  0  0  0  0  0  0  0
  -21.8555  -12.5472   21.5039 N   0  0  0  0  0  0  0  0  0  0  0  0
  -27.4056  -25.2535   22.5093 N   0  0  0  0  0  0  0  0  0  0  0  0
  -25.2008  -23.4852   16.3066 N   0  0  0  0  0  0  0  0  0  0  0  0
  -31.9457  -15.0116   20.8404 N   0  0  0  0  0  0  0  0  0  0  0  0
  -33.8423  -17.7893   20.7198 N   0  3  0  0  0  0  0  0  0  0  0  0
  -26.1783  -24.9740   13.1608 N   0  3  0  0  0  0  0  0  0  0  0  0
  -22.5982  -14.7027   21.2565 O   0  0  0  0  0  0  0  0  0  0  0  0
  -27.3673  -23.2769   21.2787 O   0  0  0  0  0  0  0  0  0  0  0  0
  -24.7483  -24.5912   18.9106 O   0  0  0  0  0  0  0  0  0  0  0  0
  -27.1337  -23.1434   15.0720 O   0  0  0  0  0  0  0  0  0  0  0  0
  -30.0485  -15.5976   21.9808 O   0  0  0  0  0  0  0  0  0  0  0  0
  -21.6888   -6.9795   21.5905 O   0  0  0  0  0  0  0  0  0  0  0  0
  -33.1581  -23.8268   18.1691 O   0  0  0  0  0  0  0  0  0  1  0  0
  -18.5369   -6.7491   26.1090 F   0  0  0  0  0  0  0  0  0  0  0  0
  -22.1084   -5.0398   23.5151 F   0  0  0  0  0  0  0  0  0  0  0  0
  1  2  1  0  0  0  0
  1  5  2  0  0  0  0
  2  6  2  0  0  0  0
  3  8  2  0  0  0  0
  3 15  1  0  0  0  0
  4  9  1  0  0  0  0
  4 15  2  0  0  0  0
  5 17  1  0  0  0  0
  6 19  1  0  0  0  0
  7 10  2  0  0  0  0
  7 18  1  0  0  0  0
  8 21  1  0  0  0  0
  9 21  2  0  0  0  0
 10 22  1  0  0  0  0
 11 12  2  0  0  0  0
 11 23  1  0  0  0  0
 12 24  1  0  0  0  0
 13 20  1  0  0  0  0
 13 22  2  0  0  0  0
 14 24  2  0  0  0  0
 14 25  1  0  0  0  0
 15 26  1  0  0  0  0
 16 26  1  0  0  0  0
 16 27  2  0  0  0  0
 16 28  1  0  0  0  0
 17 19  2  0  0  0  0
 17 33  1  0  0  0  0
 18 20  2  0  0  0  0
 18 34  1  0  0  0  0
 19 47  1  0  0  0  0
 20 35  1  0  0  0  0
 21 80  1  0  0  0  0
 22 81  1  0  0  0  0
 23 25  2  0  0  0  0
 23 80  1  0  0  0  0
 24 82  1  0  0  0  0
 25 83  1  0  0  0  0
 26 63  2  0  0  0  0
 27 64  1  0  0  0  0
 27 68  1  0  0  0  0
 28 69  1  0  0  0  0
 28 75  2  0  0  0  0
 29 48  1  0  0  0  0
 29 70  1  0  0  0  0
 29 76  2  0  0  0  0
 30 59  1  0  0  0  0
 30 65  1  0  0  0  0
 30 77  2  0  0  0  0
 31 60  1  0  0  0  0
 31 71  1  0  0  0  0
 31 78  2  0  0  0  0
 32 66  1  0  0  0  0
 32 72  1  0  0  0  0
 32 79  2  0  0  0  0
 33 36  1  0  0  0  0
 34 48  1  0  0  0  0
 35 65  1  0  0  0  0
 36 38  1  0  0  0  0
 37 39  1  0  0  0  0
 37 41  1  0  0  0  0
 38 47  1  0  0  0  0
 39 49  1  0  0  0  0
 40 42  1  0  0  0  0
 40 51  1  0  0  0  0
 41 66  1  0  0  0  0
 42 67  1  0  0  0  0
 43 49  1  0  0  0  0
 43 66  1  0  0  0  0
 44 51  1  0  0  0  0
 44 67  1  0  0  0  0
 45 50  1  0  0  0  0
 45 73  1  0  0  0  0
 46 50  1  0  0  0  0
 46 73  1  0  0  0  0
 47 70  1  0  0  0  0
 48 65  1  0  0  0  0
 49 64  1  0  0  0  0
 50 72  1  0  0  0  0
 51 73  1  0  0  0  0
 52 60  1  0  0  0  0
 53 61  1  0  0  0  0
 54 62  1  0  0  0  0
 55 62  1  0  0  0  0
 56 62  1  0  0  0  0
 57 74  1  0  0  0  0
 58 61  1  0  0  0  0
 58 81  1  0  0  0  0
 59 62  1  0  0  0  0
 59 71  1  0  0  0  0
 60 74  1  0  0  0  0
 61 67  1  0  0  0  0
 63 64  1  0  0  0  0
M  CHG  2  73   1  74   1
M  ISO  4  32 100  58 101  72 100  81 101
M  END
> <Batch ID>
0197

> <Smiles>
CNC(C)C(=O)NC(C(=O)N1Cc2cc([101O:1][101CH2:1]C(C)N3CCC(N4CC([100NH:0][100C:0](=O)N5CCCC(n6nc(-c7ccc(Oc8ccc(F)cc8F)cc7)c(C(N)=O)c6N)C5)C4)C3)ccc2CC1C(=O)NC1CCCc2ccccc21)C(C)(C)C

> <Shape>
0.205

> <Color>
0.163

> <Negative vol penalty>
0.000

$$$$

  -OEChem-04052323453D

 89 99  0     1  0  0  0  0  0999 V2000
  -26.4507  -23.2017   28.7093 C   0  0  0  0  0  0  0  0  0  0  0  0
  -27.7207  -22.9832   28.1850 C   0  0  0  0  0  0  0  0  0  0  0  0
  -23.0916   -9.8790   19.9307 C   0  0  0  0  0  0  0  0  0  0  0  0
  -23.7772   -9.9017   22.2473 C   0  0  0  0  0  0  0  0  0  0  0  0
  -25.3222  -22.8995   27.9484 C   0  0  0  0  0  0  0  0  0  0  0  0
  -27.8628  -22.4614   26.8997 C   0  0  0  0  0  0  0  0  0  0  0  0
  -31.3811  -24.8975   24.1920 C   0  0  0  0  0  0  0  0  0  0  0  0
  -22.3158   -8.7451   20.1714 C   0  0  0  0  0  0  0  0  0  0  0  0
  -23.0013   -8.7678   22.4880 C   0  0  0  0  0  0  0  0  0  0  0  0
  -32.7147  -24.5893   24.4567 C   0  0  0  0  0  0  0  0  0  0  0  0
  -19.7392   -8.0456   22.9957 C   0  0  0  0  0  0  0  0  0  0  0  0
  -18.9443   -8.0376   24.1418 C   0  0  0  0  0  0  0  0  0  0  0  0
  -32.3727  -17.5795   25.8800 C   0  0  0  0  0  0  0  0  0  0  0  0
  -32.7582  -23.1452   22.5249 C   0  0  0  0  0  0  0  0  0  0  0  0
  -20.1199   -6.0850   24.9435 C   0  0  0  0  0  0  0  0  0  0  0  0
  -32.5778  -18.7077   23.7963 C   0  0  0  0  0  0  0  0  0  0  0  0
  -23.8224  -10.4573   20.9687 C   0  0  0  0  0  0  0  0  0  0  0  0
  -24.2214  -12.9729   20.8268 C   0  0  0  0  0  0  0  0  0  0  0  0
  -25.4506  -22.3828   26.6495 C   0  0  0  0  0  0  0  0  0  0  0  0
  -30.7216  -24.3225   23.0961 C   0  0  0  0  0  0  0  0  0  0  0  0
  -26.7349  -22.1508   26.1212 C   0  0  0  0  0  0  0  0  0  0  0  0
  -32.0241  -17.6762   24.5374 C   0  0  0  0  0  0  0  0  0  0  0  0
  -33.2519  -18.5042   26.4326 C   0  0  0  0  0  0  0  0  0  0  0  0
  -31.4169  -23.4498   22.2469 C   0  0  0  0  0  0  0  0  0  0  0  0
  -22.2706   -8.1895   21.4501 C   0  0  0  0  0  0  0  0  0  0  0  0
  -33.4027  -23.7108   23.6248 C   0  0  0  0  0  0  0  0  0  0  0  0
  -20.7245   -7.0734   22.8234 C   0  0  0  0  0  0  0  0  0  0  0  0
  -19.1347   -7.0573   25.1157 C   0  0  0  0  0  0  0  0  0  0  0  0
  -20.9149   -6.0931   23.7973 C   0  0  0  0  0  0  0  0  0  0  0  0
  -24.6245  -11.6283   20.7205 C   0  0  0  0  0  0  0  0  0  0  0  0
  -33.7508  -19.4985   25.6065 C   0  0  0  0  0  0  0  0  0  0  0  0
  -25.3404  -13.6944   20.4895 C   0  0  0  0  0  0  0  0  0  0  0  0
  -22.9493  -13.5207   21.1975 C   0  0  0  0  0  0  0  0  0  0  0  0
  -28.2070  -22.4106   22.7421 C   0  0  0  0  0  0  0  0  0  0  0  0
  -28.7072  -22.9822   19.5885 C   0  0  0  0  0  0  0  0  0  0  0  0
  -30.8813  -23.8809   17.1161 C   0  0  0  0  0  0  0  0  0  0  0  0
  -30.8368  -14.5578   20.8659 C   0  0  0  0  0  0  0  0  0  0  0  0
  -24.2013  -22.0273   25.8829 C   0  0  0  0  0  0  0  0  0  0  0  0
  -29.2907  -24.6860   22.8087 C   0  0  0  0  0  0  0  0  0  0  0  0
  -30.7605  -22.8214   21.0458 C   0  0  0  0  0  0  0  0  0  0  0  0
  -24.4396  -21.8287   24.3883 C   0  0  0  0  0  0  0  0  0  0  0  0
  -29.7117  -12.2531   18.4358 C   0  0  0  0  0  0  0  0  0  0  0  0
  -32.5427  -18.3939   28.9142 C   0  0  0  0  0  0  0  0  0  0  0  0
  -33.4173  -19.5996   28.7673 C   0  0  0  0  0  0  0  0  0  0  0  0
  -25.6659  -20.9518   24.1551 C   0  0  0  0  0  0  0  0  0  0  0  0
  -28.2668  -11.9630   18.8328 C   0  0  0  0  0  0  0  0  0  0  0  0
  -31.0936  -15.2519   24.4584 C   0  0  0  0  0  0  0  0  0  0  0  0
  -30.5903  -12.4111   19.6695 C   0  0  0  0  0  0  0  0  0  0  0  0
  -30.3650  -14.4583   23.3822 C   0  0  0  0  0  0  0  0  0  0  0  0
  -31.3105  -16.4342   22.4107 C   0  0  0  0  0  0  0  0  0  0  0  0
  -28.6690  -13.2367   21.0027 C   0  0  0  0  0  0  0  0  0  0  0  0
  -31.0704  -16.6863   23.9059 C   0  0  2  0  0  0  0  0  0  0  0  0
  -33.6295  -18.4073   27.8705 C   0  0  0  0  0  0  0  0  0  0  0  0
  -26.9301  -21.6094   24.7216 C   0  0  1  0  0  0  0  0  0  0  0  0
  -28.5677  -23.6430   21.9619 C   0  0  1  0  0  0  0  0  0  0  0  0
  -27.7393  -13.0461   19.7865 C   0  0  2  0  0  0  0  0  0  0  0  0
  -31.0088  -24.2227   14.6333 C   0  0  0  0  0  0  0  0  0  0  0  0
  -28.7633  -19.9592   19.1777 C   0  0  0  0  0  0  0  0  0  0  0  0
  -29.8159  -20.3528   16.9404 C   0  0  0  0  0  0  0  0  0  0  0  0
  -27.5285  -21.2292   17.4122 C   0  0  0  0  0  0  0  0  0  0  0  0
  -31.5967  -26.7356   17.4289 C   0  0  0  0  0  0  0  0  0  0  0  0
  -36.7642  -20.0533   24.8323 C   0  0  0  0  0  0  0  0  0  0  0  0
  -34.6994  -20.5197   26.1437 C   0  0  0  0  0  0  0  0  0  0  0  0
  -36.1981  -22.3921   25.4739 C   0  0  0  0  0  0  0  0  0  0  0  0
  -35.1223  -23.4352   25.2443 C   0  0  0  0  0  0  0  0  0  1  0  0
  -29.5269  -22.3309   18.5008 C   0  0  1  0  0  0  0  0  0  0  0  0
  -30.7580  -24.8812   15.9809 C   0  0  2  0  0  0  0  0  0  0  0  0
  -28.9207  -20.9782   18.0315 C   0  0  0  0  0  0  0  0  0  0  0  0
  -33.4352  -19.6246   24.2980 N   0  0  0  0  0  0  0  0  0  0  0  0
  -25.8998  -11.5004   20.3448 N   0  0  0  0  0  0  0  0  0  0  0  0
  -26.3078  -12.7740   20.2121 N   0  0  0  0  0  0  0  0  0  0  0  0
  -29.3582  -23.2033   20.8104 N   0  0  0  0  0  0  0  0  0  0  0  0
  -30.0645  -13.4252   20.5854 N   0  0  0  0  0  0  0  0  0  0  0  0
  -30.7223  -15.1277   22.1333 N   0  0  0  0  0  0  0  0  0  0  0  0
  -25.5812  -15.0201   20.4059 N   0  0  0  0  0  0  0  0  0  0  0  0
  -21.9080  -12.6375   21.5135 N   0  0  0  0  0  0  0  0  0  0  0  0
  -27.3972  -22.6536   23.8351 N   0  0  0  0  0  0  0  0  0  0  0  0
  -29.6623  -23.3246   17.4413 N   0  0  0  0  0  0  0  0  0  0  0  0
  -31.7431  -25.9859   16.1548 N   0  3  0  0  0  0  0  0  0  0  0  0
  -35.6541  -21.0308   25.1231 N   0  3  1  0  0  0  0  0  0  0  0  0
  -22.7375  -14.7567   21.2310 O   0  0  0  0  0  0  0  0  0  0  0  0
  -28.6308  -21.3198   22.3785 O   0  0  0  0  0  0  0  0  0  0  0  0
  -27.5348  -23.2901   19.3599 O   0  0  0  0  0  0  0  0  0  0  0  0
  -31.9525  -23.6165   17.6576 O   0  0  0  0  0  0  0  0  0  0  0  0
  -31.6286  -15.0184   20.0324 O   0  0  0  0  0  0  0  0  0  0  0  0
  -21.5135   -7.0832   21.6854 O   0  0  0  0  0  0  0  0  0  0  0  0
  -34.7136  -23.4056   23.8832 O   0  0  0  0  0  0  0  0  0  1  0  0
  -18.3722   -7.0506   26.2170 F   0  0  0  0  0  0  0  0  0  0  0  0
  -21.8606   -5.1572   23.6379 F   0  0  0  0  0  0  0  0  0  0  0  0
  1  2  1  0  0  0  0
  1  5  2  0  0  0  0
  2  6  2  0  0  0  0
  3  8  2  0  0  0  0
  3 17  1  0  0  0  0
  4  9  1  0  0  0  0
  4 17  2  0  0  0  0
  5 19  1  0  0  0  0
  6 21  1  0  0  0  0
  7 10  2  0  0  0  0
  7 20  1  0  0  0  0
  8 25  1  0  0  0  0
  9 25  2  0  0  0  0
 10 26  1  0  0  0  0
 11 12  2  0  0  0  0
 11 27  1  0  0  0  0
 12 28  1  0  0  0  0
 13 22  2  0  0  0  0
 13 23  1  0  0  0  0
 14 24  1  0  0  0  0
 14 26  2  0  0  0  0
 15 28  2  0  0  0  0
 15 29  1  0  0  0  0
 16 22  1  0  0  0  0
 16 69  2  0  0  0  0
 17 30  1  0  0  0  0
 18 30  1  0  0  0  0
 18 32  2  0  0  0  0
 18 33  1  0  0  0  0
 19 21  2  0  0  0  0
 19 38  1  0  0  0  0
 20 24  2  0  0  0  0
 20 39  1  0  0  0  0
 21 54  1  0  0  0  0
 22 52  1  0  0  0  0
 23 31  2  0  0  0  0
 23 53  1  0  0  0  0
 24 40  1  0  0  0  0
 25 86  1  0  0  0  0
 26 87  1  0  0  0  0
 27 29  2  0  0  0  0
 27 86  1  0  0  0  0
 28 88  1  0  0  0  0
 29 89  1  0  0  0  0
 30 70  2  0  0  0  0
 31 63  1  0  0  0  0
 31 69  1  0  0  0  0
 32 71  1  0  0  0  0
 32 75  1  0  0  0  0
 33 76  1  0  0  0  0
 33 81  2  0  0  0  0
 34 55  1  0  0  0  0
 34 77  1  0  0  0  0
 34 82  2  0  0  0  0
 35 66  1  0  0  0  0
 35 72  1  0  0  0  0
 35 83  2  0  0  0  0
 36 67  1  0  0  0  0
 36 78  1  0  0  0  0
 36 84  2  0  0  0  0
 37 73  1  0  0  0  0
 37 74  1  0  0  0  0
 37 85  2  0  0  0  0
 38 41  1  0  0  0  0
 39 55  1  0  0  0  0
 40 72  1  0  0  0  0
 41 45  1  0  0  0  0
 42 46  1  0  0  0  0
 42 48  1  0  0  0  0
 43 44  1  0  0  0  0
 43 53  1  0  0  0  0
 44 53  1  0  0  0  0
 45 54  1  0  0  0  0
 46 56  1  0  0  0  0
 47 49  1  0  0  0  0
 47 52  1  0  0  0  0
 48 73  1  0  0  0  0
 49 74  1  0  0  0  0
 50 52  1  0  0  0  0
 50 74  1  0  0  0  0
 51 56  1  0  0  0  0
 51 73  1  0  0  0  0
 54 77  1  0  0  0  0
 55 72  1  0  0  0  0
 56 71  1  0  0  0  0
 57 67  1  0  0  0  0
 58 68  1  0  0  0  0
 59 68  1  0  0  0  0
 60 68  1  0  0  0  0
 61 79  1  0  0  0  0
 62 80  1  0  0  0  0
 63 80  1  0  0  0  0
 64 65  1  0  0  0  0
 64 80  1  0  0  0  0
 65 87  1  0  0  0  0
 66 68  1  0  0  0  0
 66 78  1  0  0  0  0
 67 79  1  0  0  0  0
 70 71  1  0  0  0  0
M  CHG  2  79   1  80   1
M  ISO  4  37 100  65 101  74 100  87 101
M  END
> <Batch ID>
0197

> <Smiles>
CNC(C)C(=O)NC(C(=O)N1Cc2cc([101O:1][101CH2:1]CN(C)Cc3ncc(C4CC[100N:0]([100C:0](=O)N5CCCC(n6nc(-c7ccc(Oc8ccc(F)cc8F)cc7)c(C(N)=O)c6N)C5)C4)cc3C3CC3)ccc2CC1C(=O)NC1CCCc2ccccc21)C(C)(C)C

> <Shape>
0.214

> <Color>
0.186

> <Negative vol penalty>
0.000

$$$$

  -OEChem-04052323453D

 85 94  0     1  0  0  0  0  0999 V2000
  -28.8824  -11.1254   19.2843 C   0  0  0  0  0  0  0  0  0  0  0  0
  -28.9585  -12.4899   19.0237 C   0  0  0  0  0  0  0  0  0  0  0  0
  -19.7840  -24.5031   22.0217 C   0  0  0  0  0  0  0  0  0  0  0  0
  -18.2990  -25.6300   23.5585 C   0  0  0  0  0  0  0  0  0  0  0  0
  -27.7240  -10.5872   19.8432 C   0  0  0  0  0  0  0  0  0  0  0  0
  -27.8757  -13.3167   19.3208 C   0  0  0  0  0  0  0  0  0  0  0  0
  -29.2789  -17.6034   21.6231 C   0  0  0  0  0  0  0  0  0  0  0  0
  -18.9335  -23.3976   22.0104 C   0  0  0  0  0  0  0  0  0  0  0  0
  -17.4485  -24.5245   23.5472 C   0  0  0  0  0  0  0  0  0  0  0  0
  -29.8180  -18.6092   20.8222 C   0  0  0  0  0  0  0  0  0  0  0  0
  -16.0173  -22.5133   20.5453 C   0  0  0  0  0  0  0  0  0  0  0  0
  -15.7201  -21.9366   19.3106 C   0  0  0  0  0  0  0  0  0  0  0  0
  -27.6882  -19.7420   20.8218 C   0  0  0  0  0  0  0  0  0  0  0  0
  -16.6718  -19.8455   20.0582 C   0  0  0  0  0  0  0  0  0  0  0  0
  -30.2096  -27.5824   20.7121 C   0  0  0  0  0  0  0  0  0  0  0  0
  -19.4668  -25.6193   22.7958 C   0  0  0  0  0  0  0  0  0  0  0  0
  -20.3025  -27.8762   21.9498 C   0  0  0  0  0  0  0  0  0  0  0  0
  -26.6301  -11.4093   20.1562 C   0  0  0  0  0  0  0  0  0  0  0  0
  -27.9352  -17.6537   22.0210 C   0  0  0  0  0  0  0  0  0  0  0  0
  -26.7011  -12.7887   19.8832 C   0  0  0  0  0  0  0  0  0  0  0  0
  -27.1351  -18.7368   21.6298 C   0  0  0  0  0  0  0  0  0  0  0  0
  -17.7657  -23.4083   22.7731 C   0  0  0  0  0  0  0  0  0  0  0  0
  -29.0218  -19.6773   20.4190 C   0  0  0  0  0  0  0  0  0  0  0  0
  -16.6418  -21.7561   21.5365 C   0  0  0  0  0  0  0  0  0  0  0  0
  -16.0474  -20.6027   19.0670 C   0  0  0  0  0  0  0  0  0  0  0  0
  -16.9690  -20.4222   21.2930 C   0  0  0  0  0  0  0  0  0  0  0  0
  -20.3453  -26.7613   22.8083 C   0  0  0  0  0  0  0  0  0  0  0  0
  -29.3051  -28.3511   21.4068 C   0  0  0  0  0  0  0  0  0  0  0  0
  -29.4502  -26.4997   20.2211 C   0  0  0  0  0  0  0  0  0  0  0  0
  -21.3398  -28.6727   22.3694 C   0  0  0  0  0  0  0  0  0  0  0  0
  -19.4052  -28.1660   20.8697 C   0  0  0  0  0  0  0  0  0  0  0  0
  -25.3882  -15.8091   21.5585 C   0  0  0  0  0  0  0  0  0  0  0  0
  -24.0010  -17.8707   23.6436 C   0  0  0  0  0  0  0  0  0  0  0  0
  -23.9733  -20.9734   25.0647 C   0  0  0  0  0  0  0  0  0  0  0  0
  -26.5397  -29.3835   24.0668 C   0  0  0  0  0  0  0  0  0  0  0  0
  -25.3815  -10.7745   20.7155 C   0  0  0  0  0  0  0  0  0  0  0  0
  -27.3760  -16.5746   22.9070 C   0  0  0  0  0  0  0  0  0  0  0  0
  -25.6921  -18.8481   22.0467 C   0  0  0  0  0  0  0  0  0  0  0  0
  -29.4176  -29.6199   22.1770 C   0  0  0  0  0  0  0  0  0  0  0  0
  -24.4192  -11.7769   21.3475 C   0  0  0  0  0  0  0  0  0  0  0  0
  -24.2311  -28.4311   26.4997 C   0  0  0  0  0  0  0  0  0  0  0  0
  -24.2306  -12.9844   20.4347 C   0  0  0  0  0  0  0  0  0  0  0  0
  -23.0085  -27.9900   25.6968 C   0  0  0  0  0  0  0  0  0  0  0  0
  -28.0483  -30.2926   22.3185 C   0  0  0  0  0  0  0  0  0  0  0  0
  -25.5188  -27.9729   25.8258 C   0  0  0  0  0  0  0  0  0  0  0  0
  -24.4447  -28.0253   23.5960 C   0  0  0  0  0  0  0  0  0  0  0  0
  -26.8532  -28.1727   21.8560 C   0  0  0  0  0  0  0  0  0  0  0  0
  -25.5568  -13.7220   20.2144 C   0  0  1  0  0  0  0  0  0  0  0  0
  -25.8566  -16.4636   22.8273 C   0  0  1  0  0  0  0  0  0  0  0  0
  -23.1113  -28.4622   24.2365 C   0  0  1  0  0  0  0  0  0  0  0  0
  -22.6963  -22.3764   26.7073 C   0  0  0  0  0  0  0  0  0  0  0  0
  -21.8019  -18.2914   21.5708 C   0  0  0  0  0  0  0  0  0  0  0  0
  -21.1103  -20.3457   22.8237 C   0  0  0  0  0  0  0  0  0  0  0  0
  -20.9914  -18.1131   23.9300 C   0  0  0  0  0  0  0  0  0  0  0  0
  -26.3337  -21.2667   26.8259 C   0  0  0  0  0  0  0  0  0  0  0  0
  -31.3095  -21.6786   18.3510 C   0  0  0  0  0  0  0  0  0  0  0  0
  -31.5089  -24.1674   18.2832 C   0  0  0  0  0  0  0  0  0  0  0  0
  -30.9163  -20.5353   19.2655 C   0  0  0  0  0  0  0  0  0  1  0  0
  -31.2491  -25.4118   19.1091 C   0  0  0  0  0  0  0  0  0  0  0  0
  -23.2492  -19.1738   23.5183 C   0  0  1  0  0  0  0  0  0  0  0  0
  -23.8603  -21.4174   26.5120 C   0  0  2  0  0  0  0  0  0  0  0  0
  -21.8148  -18.9782   22.9510 C   0  0  0  0  0  0  0  0  0  0  0  0
  -21.3318  -26.8389   23.7054 N   0  0  0  0  0  0  0  0  0  0  0  0
  -28.1619  -26.5665   20.5720 N   0  0  0  0  0  0  0  0  0  0  0  0
  -28.1081  -27.6970   21.2945 N   0  0  0  0  0  0  0  0  0  0  0  0
  -21.9185  -28.0121   23.4128 N   0  0  0  0  0  0  0  0  0  0  0  0
  -25.1898  -17.7648   22.9079 N   0  0  0  0  0  0  0  0  0  0  0  0
  -25.5831  -28.4267   24.4361 N   0  0  0  0  0  0  0  0  0  0  0  0
  -27.0330  -29.3249   22.7550 N   0  0  0  0  0  0  0  0  0  0  0  0
  -21.8042  -29.8667   21.9438 N   0  0  0  0  0  0  0  0  0  0  0  0
  -18.3962  -27.2398   20.5725 N   0  0  0  0  0  0  0  0  0  0  0  0
  -25.8820  -14.5326   21.3684 N   0  0  0  0  0  0  0  0  0  0  0  0
  -23.2905  -19.7974   24.8365 N   0  0  0  0  0  0  0  0  0  0  0  0
  -25.1115  -22.1031   26.9426 N   0  3  0  0  0  0  0  0  0  0  0  0
  -31.1267  -22.9681   19.0704 N   0  3  0  0  0  0  0  0  0  0  0  0
  -19.5059  -29.2074   20.1776 O   0  0  0  0  0  0  0  0  0  0  0  0
  -24.6334  -16.4167   20.8082 O   0  0  0  0  0  0  0  0  0  0  0  0
  -23.5538  -16.9823   24.3732 O   0  0  0  0  0  0  0  0  0  0  0  0
  -24.6012  -21.6083   24.2202 O   0  0  0  0  0  0  0  0  0  0  0  0
  -26.9420  -30.2357   24.8691 O   0  0  0  0  0  0  0  0  0  0  0  0
  -16.9354  -22.3299   22.7622 O   0  0  0  0  0  0  0  0  0  0  0  0
  -29.5491  -20.6671   19.6312 O   0  0  0  0  0  0  0  0  0  1  0  0
  -29.8614  -25.4640   19.4767 O   0  0  0  0  0  0  0  0  0  0  0  0
  -15.7605  -20.0486   17.8817 F   0  0  0  0  0  0  0  0  0  0  0  0
  -17.5679  -19.6895   22.2417 F   0  0  0  0  0  0  0  0  0  0  0  0
  1  2  1  0  0  0  0
  1  5  2  0  0  0  0
  2  6  2  0  0  0  0
  3  8  2  0  0  0  0
  3 16  1  0  0  0  0
  4  9  1  0  0  0  0
  4 16  2  0  0  0  0
  5 18  1  0  0  0  0
  6 20  1  0  0  0  0
  7 10  2  0  0  0  0
  7 19  1  0  0  0  0
  8 22  1  0  0  0  0
  9 22  2  0  0  0  0
 10 23  1  0  0  0  0
 11 12  2  0  0  0  0
 11 24  1  0  0  0  0
 12 25  1  0  0  0  0
 13 21  1  0  0  0  0
 13 23  2  0  0  0  0
 14 25  2  0  0  0  0
 14 26  1  0  0  0  0
 15 28  2  0  0  0  0
 15 29  1  0  0  0  0
 16 27  1  0  0  0  0
 17 27  1  0  0  0  0
 17 30  2  0  0  0  0
 17 31  1  0  0  0  0
 18 20  2  0  0  0  0
 18 36  1  0  0  0  0
 19 21  2  0  0  0  0
 19 37  1  0  0  0  0
 20 48  1  0  0  0  0
 21 38  1  0  0  0  0
 22 81  1  0  0  0  0
 23 82  1  0  0  0  0
 24 26  2  0  0  0  0
 24 81  1  0  0  0  0
 25 84  1  0  0  0  0
 26 85  1  0  0  0  0
 27 63  2  0  0  0  0
 28 39  1  0  0  0  0
 28 65  1  0  0  0  0
 29 64  2  0  0  0  0
 29 83  1  0  0  0  0
 30 66  1  0  0  0  0
 30 70  1  0  0  0  0
 31 71  1  0  0  0  0
 31 76  2  0  0  0  0
 32 49  1  0  0  0  0
 32 72  1  0  0  0  0
 32 77  2  0  0  0  0
 33 60  1  0  0  0  0
 33 67  1  0  0  0  0
 33 78  2  0  0  0  0
 34 61  1  0  0  0  0
 34 73  1  0  0  0  0
 34 79  2  0  0  0  0
 35 68  1  0  0  0  0
 35 69  1  0  0  0  0
 35 80  2  0  0  0  0
 36 40  1  0  0  0  0
 37 49  1  0  0  0  0
 38 67  1  0  0  0  0
 39 44  1  0  0  0  0
 40 42  1  0  0  0  0
 41 43  1  0  0  0  0
 41 45  1  0  0  0  0
 42 48  1  0  0  0  0
 43 50  1  0  0  0  0
 44 69  1  0  0  0  0
 45 68  1  0  0  0  0
 46 50  1  0  0  0  0
 46 68  1  0  0  0  0
 47 65  1  0  0  0  0
 47 69  1  0  0  0  0
 48 72  1  0  0  0  0
 49 67  1  0  0  0  0
 50 66  1  0  0  0  0
 51 61  1  0  0  0  0
 52 62  1  0  0  0  0
 53 62  1  0  0  0  0
 54 62  1  0  0  0  0
 55 74  1  0  0  0  0
 56 58  1  0  0  0  0
 56 75  1  0  0  0  0
 57 59  1  0  0  0  0
 57 75  1  0  0  0  0
 58 82  1  0  0  0  0
 59 83  1  0  0  0  0
 60 62  1  0  0  0  0
 60 73  1  0  0  0  0
 61 74  1  0  0  0  0
 63 66  1  0  0  0  0
 64 65  1  0  0  0  0
M  CHG  2  74   1  75   1
M  ISO  4  35 100  58 101  69 100  82 101
M  END
> <Batch ID>
0197

> <Smiles>
CNC(C)C(=O)NC(C(=O)N1Cc2cc([101O:1][101CH2:1]CNCCOc3cc4n(n3)C[100N:0]([100C:0](=O)N3CCCC(n5nc(-c6ccc(Oc7ccc(F)cc7F)cc6)c(C(N)=O)c5N)C3)CC4)ccc2CC1C(=O)NC1CCCc2ccccc21)C(C)(C)C

> <Shape>
0.217

> <Color>
0.069

> <Negative vol penalty>
0.000

$$$$

  -OEChem-04052323453D

 83 92  0     1  0  0  0  0  0999 V2000
  -24.1068  -24.1198   21.0529 C   0  0  0  0  0  0  0  0  0  0  0  0
  -24.9747  -23.0806   20.7374 C   0  0  0  0  0  0  0  0  0  0  0  0
  -22.6397  -29.2904   19.6737 C   0  0  0  0  0  0  0  0  0  0  0  0
  -22.6998  -27.8983   21.6473 C   0  0  0  0  0  0  0  0  0  0  0  0
  -22.9647  -23.8639   21.8088 C   0  0  0  0  0  0  0  0  0  0  0  0
  -24.6949  -21.7831   21.1675 C   0  0  0  0  0  0  0  0  0  0  0  0
  -27.6161  -18.1952   19.4953 C   0  0  0  0  0  0  0  0  0  0  0  0
  -21.2467  -29.3203   19.7371 C   0  0  0  0  0  0  0  0  0  0  0  0
  -21.3067  -27.9282   21.7108 C   0  0  0  0  0  0  0  0  0  0  0  0
  -28.9320  -18.0323   19.9261 C   0  0  0  0  0  0  0  0  0  0  0  0
  -18.9076  -30.0700   22.7489 C   0  0  0  0  0  0  0  0  0  0  0  0
  -18.3219  -30.2952   23.9946 C   0  0  0  0  0  0  0  0  0  0  0  0
  -28.2422  -16.1845   21.3150 C   0  0  0  0  0  0  0  0  0  0  0  0
  -17.1966  -28.1621   23.8511 C   0  0  0  0  0  0  0  0  0  0  0  0
  -23.3663  -28.5794   20.6288 C   0  0  0  0  0  0  0  0  0  0  0  0
  -25.7039  -29.4459   21.1698 C   0  0  0  0  0  0  0  0  0  0  0  0
  -22.6780  -22.5645   22.2586 C   0  0  0  0  0  0  0  0  0  0  0  0
  -26.5998  -17.3595   19.9802 C   0  0  0  0  0  0  0  0  0  0  0  0
  -23.5348  -21.5003   21.9112 C   0  0  0  0  0  0  0  0  0  0  0  0
  -26.9146  -16.3372   20.8867 C   0  0  0  0  0  0  0  0  0  0  0  0
  -20.5801  -28.6392   20.7557 C   0  0  0  0  0  0  0  0  0  0  0  0
  -29.2447  -17.0287   20.8383 C   0  0  0  0  0  0  0  0  0  0  0  0
  -18.6378  -28.8909   22.0543 C   0  0  0  0  0  0  0  0  0  0  0  0
  -17.4664  -29.3413   24.5457 C   0  0  0  0  0  0  0  0  0  0  0  0
  -17.7823  -27.9369   22.6054 C   0  0  0  0  0  0  0  0  0  0  0  0
  -24.8054  -28.5477   20.5634 C   0  0  0  0  0  0  0  0  0  0  0  0
  -26.9463  -28.9853   20.8082 C   0  0  0  0  0  0  0  0  0  0  0  0
  -25.4391  -30.5938   21.9870 C   0  0  0  0  0  0  0  0  0  0  0  0
  -23.9352  -17.8075   21.6543 C   0  0  0  0  0  0  0  0  0  0  0  0
  -23.4837  -14.6541   21.0424 C   0  0  0  0  0  0  0  0  0  0  0  0
  -24.8573  -11.6271   20.2698 C   0  0  0  0  0  0  0  0  0  0  0  0
  -28.6397  -23.4028   19.0757 C   0  0  0  0  0  0  0  0  0  0  0  0
  -21.4240  -22.3424   23.0670 C   0  0  0  0  0  0  0  0  0  0  0  0
  -25.1898  -17.5311   19.4851 C   0  0  0  0  0  0  0  0  0  0  0  0
  -25.8636  -15.4006   21.4220 C   0  0  0  0  0  0  0  0  0  0  0  0
  -21.4439  -21.0321   23.8473 C   0  0  0  0  0  0  0  0  0  0  0  0
  -29.1909  -26.5873   17.3265 C   0  0  0  0  0  0  0  0  0  0  0  0
  -21.8433  -19.8865   22.9294 C   0  0  0  0  0  0  0  0  0  0  0  0
  -28.1687  -27.5138   17.9868 C   0  0  0  0  0  0  0  0  0  0  0  0
  -28.7241  -25.1336   17.3185 C   0  0  0  0  0  0  0  0  0  0  0  0
  -29.3141  -21.8868   20.9237 C   0  0  0  0  0  0  0  0  0  0  0  0
  -29.1634  -24.2587   21.4359 C   0  0  0  0  0  0  0  0  0  0  0  0
  -27.3040  -25.5366   19.2911 C   0  0  0  0  0  0  0  0  0  0  0  0
  -23.2668  -20.0863   22.3941 C   0  0  1  0  0  0  0  0  0  0  0  0
  -24.1477  -16.9524   20.4372 C   0  0  1  0  0  0  0  0  0  0  0  0
  -30.0672  -22.1447   22.1868 C   0  0  2  0  0  0  0  0  0  0  0  0
  -29.9901  -23.6001   22.4946 C   0  0  1  0  0  0  0  0  0  0  0  0
  -31.3258  -22.9759   22.1793 C   0  0  0  0  0  0  0  0  0  0  0  0
  -27.7677  -26.9968   19.3814 C   0  0  2  0  0  0  0  0  0  0  0  0
  -24.2400   -9.2274   19.8726 C   0  0  0  0  0  0  0  0  0  0  0  0
  -23.1323  -14.2498   24.0463 C   0  0  0  0  0  0  0  0  0  0  0  0
  -23.4712  -11.7956   23.6851 C   0  0  0  0  0  0  0  0  0  0  0  0
  -21.5331  -12.9546   22.6252 C   0  0  0  0  0  0  0  0  0  0  0  0
  -25.8930  -11.6986   17.4983 C   0  0  0  0  0  0  0  0  0  0  0  0
  -32.3385  -22.8011   23.2572 C   0  0  0  0  0  0  0  0  0  0  0  0
  -33.2606  -21.6053   22.9995 C   0  0  0  0  0  0  0  0  0  0  0  0
  -33.2650  -19.1436   22.5765 C   0  0  0  0  0  0  0  0  0  0  0  0
  -31.3472  -18.0368   21.3065 C   0  0  0  0  0  0  0  0  0  1  0  0
  -23.8625  -13.3662   21.7328 C   0  0  1  0  0  0  0  0  0  0  0  0
  -24.4806  -10.5855   19.2318 C   0  0  2  0  0  0  0  0  0  0  0  0
  -32.3572  -17.9198   22.4522 C   0  0  1  0  0  0  0  0  0  0  0  0
  -23.0195  -13.1103   23.0139 C   0  0  0  0  0  0  0  0  0  0  0  0
  -25.4243  -27.5891   19.8691 N   0  0  0  0  0  0  0  0  0  0  0  0
  -26.7251  -27.8824   20.0369 N   0  0  0  0  0  0  0  0  0  0  0  0
  -24.4986  -15.6127   20.9127 N   0  0  0  0  0  0  0  0  0  0  0  0
  -28.3327  -24.7034   18.6604 N   0  0  0  0  0  0  0  0  0  0  0  0
  -28.9235  -23.2114   20.4307 N   0  0  0  0  0  0  0  0  0  0  0  0
  -28.1955  -29.4203   21.0779 N   0  0  0  0  0  0  0  0  0  0  0  0
  -24.1053  -30.9257   22.2608 N   0  0  0  0  0  0  0  0  0  0  0  0
  -33.2066  -16.7458   22.2184 N   0  0  0  0  0  0  0  0  0  0  0  0
  -23.5297  -19.0979   21.3714 N   0  0  0  0  0  0  0  0  0  0  0  0
  -23.7535  -12.3160   20.7260 N   0  0  0  0  0  0  0  0  0  0  0  0
  -25.5680  -10.4429   18.2227 N   0  3  0  0  0  0  0  0  0  0  0  0
  -32.4640  -20.3601   22.8849 N   0  3  0  0  0  0  0  0  0  0  0  0
  -26.3577  -31.3137   22.4469 O   0  0  0  0  0  0  0  0  0  0  0  0
  -24.1235  -17.3314   22.7676 O   0  0  0  0  0  0  0  0  0  0  0  0
  -22.3315  -14.8013   20.6270 O   0  0  0  0  0  0  0  0  0  0  0  0
  -26.0146  -11.8088   20.6416 O   0  0  0  0  0  0  0  0  0  0  0  0
  -28.7097  -22.4703   18.2647 O   0  0  0  0  0  0  0  0  0  0  0  0
  -19.2208  -28.6684   20.8180 O   0  0  0  0  0  0  0  0  0  0  0  0
  -30.5363  -16.8669   21.2637 O   0  0  0  0  0  0  0  0  0  1  0  0
  -16.9051  -29.5570   25.7427 F   0  0  0  0  0  0  0  0  0  0  0  0
  -17.5203  -26.8017   21.9433 F   0  0  0  0  0  0  0  0  0  0  0  0
  1  2  1  0  0  0  0
  1  5  2  0  0  0  0
  2  6  2  0  0  0  0
  3  8  2  0  0  0  0
  3 15  1  0  0  0  0
  4  9  1  0  0  0  0
  4 15  2  0  0  0  0
  5 17  1  0  0  0  0
  6 19  1  0  0  0  0
  7 10  2  0  0  0  0
  7 18  1  0  0  0  0
  8 21  1  0  0  0  0
  9 21  2  0  0  0  0
 10 22  1  0  0  0  0
 11 12  2  0  0  0  0
 11 23  1  0  0  0  0
 12 24  1  0  0  0  0
 13 20  1  0  0  0  0
 13 22  2  0  0  0  0
 14 24  2  0  0  0  0
 14 25  1  0  0  0  0
 15 26  1  0  0  0  0
 16 26  1  0  0  0  0
 16 27  2  0  0  0  0
 16 28  1  0  0  0  0
 17 19  2  0  0  0  0
 17 33  1  0  0  0  0
 18 20  2  0  0  0  0
 18 34  1  0  0  0  0
 19 44  1  0  0  0  0
 20 35  1  0  0  0  0
 21 80  1  0  0  0  0
 22 81  1  0  0  0  0
 23 25  2  0  0  0  0
 23 80  1  0  0  0  0
 24 82  1  0  0  0  0
 25 83  1  0  0  0  0
 26 63  2  0  0  0  0
 27 64  1  0  0  0  0
 27 68  1  0  0  0  0
 28 69  1  0  0  0  0
 28 75  2  0  0  0  0
 29 45  1  0  0  0  0
 29 71  1  0  0  0  0
 29 76  2  0  0  0  0
 30 59  1  0  0  0  0
 30 65  1  0  0  0  0
 30 77  2  0  0  0  0
 31 60  1  0  0  0  0
 31 72  1  0  0  0  0
 31 78  2  0  0  0  0
 32 66  1  0  0  0  0
 32 67  1  0  0  0  0
 32 79  2  0  0  0  0
 33 36  1  0  0  0  0
 34 45  1  0  0  0  0
 35 65  1  0  0  0  0
 36 38  1  0  0  0  0
 37 39  1  0  0  0  0
 37 40  1  0  0  0  0
 38 44  1  0  0  0  0
 39 49  1  0  0  0  0
 40 66  1  0  0  0  0
 41 46  1  0  0  0  0
 41 67  1  0  0  0  0
 42 47  1  0  0  0  0
 42 67  1  0  0  0  0
 43 49  1  0  0  0  0
 43 66  1  0  0  0  0
 44 71  1  0  0  0  0
 45 65  1  0  0  0  0
 46 47  1  0  0  0  0
 46 48  1  0  0  0  0
 47 48  1  0  0  0  0
 48 55  1  0  0  0  0
 49 64  1  0  0  0  0
 50 60  1  0  0  0  0
 51 62  1  0  0  0  0
 52 62  1  0  0  0  0
 53 62  1  0  0  0  0
 54 73  1  0  0  0  0
 55 56  1  0  0  0  0
 56 74  1  0  0  0  0
 57 61  1  0  0  0  0
 57 74  1  0  0  0  0
 58 61  1  0  0  0  0
 58 81  1  0  0  0  0
 59 62  1  0  0  0  0
 59 72  1  0  0  0  0
 60 73  1  0  0  0  0
 61 70  1  0  0  0  0
 63 64  1  0  0  0  0
M  CHG  2  73   1  74   1
M  ISO  4  32 100  58 101  67 100  81 101
M  END
> <Batch ID>
0197

> <Smiles>
CNC(C)C(=O)NC(C(=O)N1Cc2cc([101O:1][101CH2:1]C(N)CNCCC3C4C[100N:0]([100C:0](=O)N5CCCC(n6nc(-c7ccc(Oc8ccc(F)cc8F)cc7)c(C(N)=O)c6N)C5)CC34)ccc2CC1C(=O)NC1CCCc2ccccc21)C(C)(C)C

> <Shape>
0.242

> <Color>
0.076

> <Negative vol penalty>
0.000

$$$$

  -OEChem-04052323453D

 90100  0     1  0  0  0  0  0999 V2000
  -21.1584  -25.8213   25.7381 C   0  0  0  0  0  0  0  0  0  0  0  0
  -22.1500  -26.0717   24.7950 C   0  0  0  0  0  0  0  0  0  0  0  0
  -23.4141  -10.2709   21.3618 C   0  0  0  0  0  0  0  0  0  0  0  0
  -24.8560   -8.4513   22.0307 C   0  0  0  0  0  0  0  0  0  0  0  0
  -19.8313  -26.1408   25.4543 C   0  0  0  0  0  0  0  0  0  0  0  0
  -21.8148  -26.6408   23.5669 C   0  0  0  0  0  0  0  0  0  0  0  0
  -24.9904  -30.3450   22.2107 C   0  0  0  0  0  0  0  0  0  0  0  0
  -22.3416   -9.3846   21.2629 C   0  0  0  0  0  0  0  0  0  0  0  0
  -23.7834   -7.5651   21.9319 C   0  0  0  0  0  0  0  0  0  0  0  0
  -26.2263  -29.9649   21.6891 C   0  0  0  0  0  0  0  0  0  0  0  0
  -21.0893   -6.7015   23.7803 C   0  0  0  0  0  0  0  0  0  0  0  0
  -20.9128   -5.7823   24.8144 C   0  0  0  0  0  0  0  0  0  0  0  0
  -25.3994  -30.3606   19.4578 C   0  0  0  0  0  0  0  0  0  0  0  0
  -21.1655   -3.9653   23.2422 C   0  0  0  0  0  0  0  0  0  0  0  0
  -24.6713   -9.8042   21.7457 C   0  0  0  0  0  0  0  0  0  0  0  0
  -26.1767  -11.4508   22.9828 C   0  0  0  0  0  0  0  0  0  0  0  0
  -19.4810  -26.7229   24.2258 C   0  0  0  0  0  0  0  0  0  0  0  0
  -23.9446  -30.7258   21.3577 C   0  0  0  0  0  0  0  0  0  0  0  0
  -20.4815  -26.9671   23.2658 C   0  0  0  0  0  0  0  0  0  0  0  0
  -24.1521  -30.7474   19.9711 C   0  0  0  0  0  0  0  0  0  0  0  0
  -22.5262   -8.0317   21.5479 C   0  0  0  0  0  0  0  0  0  0  0  0
  -26.4300  -29.9699   20.3123 C   0  0  0  0  0  0  0  0  0  0  0  0
  -21.3039   -6.2527   22.4771 C   0  0  0  0  0  0  0  0  0  0  0  0
  -20.9509   -4.4141   24.5454 C   0  0  0  0  0  0  0  0  0  0  0  0
  -21.3420   -4.8846   22.2081 C   0  0  0  0  0  0  0  0  0  0  0  0
  -25.7798  -10.7191   21.8475 C   0  0  0  0  0  0  0  0  0  0  0  0
  -31.2239  -21.3344   21.9231 C   0  0  0  0  0  0  0  0  0  0  0  0
  -30.3335  -20.4707   21.2701 C   0  0  0  0  0  0  0  0  0  0  0  0
  -27.2730  -12.1649   22.5651 C   0  0  0  0  0  0  0  0  0  0  0  0
  -25.6054  -11.4820   24.2975 C   0  0  0  0  0  0  0  0  0  0  0  0
  -21.0311  -29.6124   20.7452 C   0  0  0  0  0  0  0  0  0  0  0  0
  -20.8115  -32.2929   18.9316 C   0  0  0  0  0  0  0  0  0  0  0  0
  -22.4128  -34.7387   17.1708 C   0  0  0  0  0  0  0  0  0  0  0  0
  -29.5323  -15.4636   18.5787 C   0  0  0  0  0  0  0  0  0  0  0  0
  -18.0265  -27.0073   23.9458 C   0  0  0  0  0  0  0  0  0  0  0  0
  -22.6259  -31.1586   21.9374 C   0  0  0  0  0  0  0  0  0  0  0  0
  -23.0681  -31.1675   19.0135 C   0  0  0  0  0  0  0  0  0  0  0  0
  -17.8066  -27.9529   22.7677 C   0  0  0  0  0  0  0  0  0  0  0  0
  -30.0189  -11.8338   18.3323 C   0  0  0  0  0  0  0  0  0  0  0  0
  -18.6698  -27.5368   21.5809 C   0  0  0  0  0  0  0  0  0  0  0  0
  -28.9561  -11.2841   19.2847 C   0  0  0  0  0  0  0  0  0  0  0  0
  -28.9103  -17.0311   21.8456 C   0  0  0  0  0  0  0  0  0  0  0  0
  -28.4799  -23.7996   19.2575 C   0  0  0  0  0  0  0  0  0  0  0  0
  -29.5920  -13.1574   17.7020 C   0  0  0  0  0  0  0  0  0  0  0  0
  -28.4055  -16.0318   20.8099 C   0  0  0  0  0  0  0  0  0  0  0  0
  -28.1170  -13.6390   19.6165 C   0  0  0  0  0  0  0  0  0  0  0  0
  -29.8477  -17.6281   19.7435 C   0  0  0  0  0  0  0  0  0  0  0  0
  -20.1609  -27.6061   21.9320 C   0  0  1  0  0  0  0  0  0  0  0  0
  -21.4696  -31.0348   20.9500 C   0  0  1  0  0  0  0  0  0  0  0  0
  -29.4151  -24.7294   19.9717 C   0  0  1  0  0  0  0  0  0  0  0  0
  -28.5394  -12.3431   20.3225 C   0  0  1  0  0  0  0  0  0  0  0  0
  -29.9264  -23.4009   19.4545 C   0  0  1  0  0  0  0  0  0  0  0  0
  -29.2317  -18.2500   20.9877 C   0  0  2  0  0  0  0  0  0  0  0  0
  -32.1051  -21.0828   23.0738 C   0  0  0  0  0  0  0  0  0  0  0  0
  -21.9648  -36.7693   15.7660 C   0  0  0  0  0  0  0  0  0  0  0  0
  -31.0756  -26.6311   19.9888 C   0  0  0  0  0  0  0  0  0  0  0  0
  -20.0023  -30.4985   16.6003 C   0  0  0  0  0  0  0  0  0  0  0  0
  -20.4940  -32.4046   15.0533 C   0  0  0  0  0  0  0  0  0  0  0  0
  -18.7042  -32.6288   16.7765 C   0  0  0  0  0  0  0  0  0  0  0  0
  -23.8734  -36.5015   19.0464 C   0  0  0  0  0  0  0  0  0  0  0  0
  -28.8274  -28.0706   18.3712 C   0  0  0  0  0  0  0  0  0  0  0  0
  -27.6357  -28.9976   18.5077 C   0  0  0  0  0  0  0  0  0  1  0  0
  -21.1275  -32.6421   17.4973 C   0  0  1  0  0  0  0  0  0  0  0  0
  -22.2491  -36.2479   17.1660 C   0  0  2  0  0  0  0  0  0  0  0  0
  -29.8475  -25.9998   19.3251 C   0  0  2  0  0  0  0  0  0  0  0  0
  -20.1020  -32.0337   16.4995 C   0  0  0  0  0  0  0  0  0  0  0  0
  -26.5604  -10.9476   20.7880 N   0  0  0  0  0  0  0  0  0  0  0  0
  -31.1971  -22.5370   21.3418 N   0  0  0  0  0  0  0  0  0  0  0  0
  -29.7301  -21.1156   20.2676 N   0  0  0  0  0  0  0  0  0  0  0  0
  -27.4588  -11.8309   21.2559 N   0  0  0  0  0  0  0  0  0  0  0  0
  -30.2915  -22.3308   20.3721 N   0  0  0  0  0  0  0  0  0  0  0  0
  -21.7944  -31.5759   19.6286 N   0  0  0  0  0  0  0  0  0  0  0  0
  -29.1800  -14.1176   18.7262 N   0  0  0  0  0  0  0  0  0  0  0  0
  -29.1695  -16.3421   19.5988 N   0  0  0  0  0  0  0  0  0  0  0  0
  -28.0866  -13.0398   23.1937 N   0  0  0  0  0  0  0  0  0  0  0  0
  -24.4806  -10.6868   24.5563 N   0  0  0  0  0  0  0  0  0  0  0  0
  -30.1416  -19.1486   21.6476 N   0  0  0  0  0  0  0  0  0  0  0  0
  -20.6238  -28.9770   21.9027 N   0  0  0  0  0  0  0  0  0  0  0  0
  -21.2232  -34.0969   17.4430 N   0  0  0  0  0  0  0  0  0  0  0  0
  -23.4884  -36.9049   17.6695 N   0  3  0  0  0  0  0  0  0  0  0  0
  -28.7365  -27.0029   19.3953 N   0  3  0  0  0  0  0  0  0  0  0  0
  -26.0684  -12.2064   25.2109 O   0  0  0  0  0  0  0  0  0  0  0  0
  -21.0586  -29.1276   19.6200 O   0  0  0  0  0  0  0  0  0  0  0  0
  -19.7354  -32.6494   19.4179 O   0  0  0  0  0  0  0  0  0  0  0  0
  -23.4876  -34.1846   16.9511 O   0  0  0  0  0  0  0  0  0  0  0  0
  -30.1836  -15.8555   17.6014 O   0  0  0  0  0  0  0  0  0  0  0  0
  -21.4798   -7.1667   21.4517 O   0  0  0  0  0  0  0  0  0  0  0  0
  -27.6438  -29.5962   19.7969 O   0  0  0  0  0  0  0  0  0  1  0  0
  -20.7829   -3.5314   25.5387 F   0  0  0  0  0  0  0  0  0  0  0  0
  -21.5490   -4.4474   20.9584 F   0  0  0  0  0  0  0  0  0  0  0  0
  1  2  1  0  0  0  0
  1  5  2  0  0  0  0
  2  6  2  0  0  0  0
  3  8  2  0  0  0  0
  3 15  1  0  0  0  0
  4  9  1  0  0  0  0
  4 15  2  0  0  0  0
  5 17  1  0  0  0  0
  6 19  1  0  0  0  0
  7 10  2  0  0  0  0
  7 18  1  0  0  0  0
  8 21  1  0  0  0  0
  9 21  2  0  0  0  0
 10 22  1  0  0  0  0
 11 12  2  0  0  0  0
 11 23  1  0  0  0  0
 12 24  1  0  0  0  0
 13 20  1  0  0  0  0
 13 22  2  0  0  0  0
 14 24  2  0  0  0  0
 14 25  1  0  0  0  0
 15 26  1  0  0  0  0
 16 26  1  0  0  0  0
 16 29  2  0  0  0  0
 16 30  1  0  0  0  0
 17 19  2  0  0  0  0
 17 35  1  0  0  0  0
 18 20  2  0  0  0  0
 18 36  1  0  0  0  0
 19 48  1  0  0  0  0
 20 37  1  0  0  0  0
 21 87  1  0  0  0  0
 22 88  1  0  0  0  0
 23 25  2  0  0  0  0
 23 87  1  0  0  0  0
 24 89  1  0  0  0  0
 25 90  1  0  0  0  0
 26 67  2  0  0  0  0
 27 28  1  0  0  0  0
 27 54  1  0  0  0  0
 27 68  2  0  0  0  0
 28 69  2  0  0  0  0
 28 77  1  0  0  0  0
 29 70  1  0  0  0  0
 29 75  1  0  0  0  0
 30 76  1  0  0  0  0
 30 82  2  0  0  0  0
 31 49  1  0  0  0  0
 31 78  1  0  0  0  0
 31 83  2  0  0  0  0
 32 63  1  0  0  0  0
 32 72  1  0  0  0  0
 32 84  2  0  0  0  0
 33 64  1  0  0  0  0
 33 79  1  0  0  0  0
 33 85  2  0  0  0  0
 34 73  1  0  0  0  0
 34 74  1  0  0  0  0
 34 86  2  0  0  0  0
 35 38  1  0  0  0  0
 36 49  1  0  0  0  0
 37 72  1  0  0  0  0
 38 40  1  0  0  0  0
 39 41  1  0  0  0  0
 39 44  1  0  0  0  0
 40 48  1  0  0  0  0
 41 51  1  0  0  0  0
 42 45  1  0  0  0  0
 42 53  1  0  0  0  0
 43 50  1  0  0  0  0
 43 52  1  0  0  0  0
 44 73  1  0  0  0  0
 45 74  1  0  0  0  0
 46 51  1  0  0  0  0
 46 73  1  0  0  0  0
 47 53  1  0  0  0  0
 47 74  1  0  0  0  0
 48 78  1  0  0  0  0
 49 72  1  0  0  0  0
 50 52  1  0  0  0  0
 50 65  1  0  0  0  0
 51 70  1  0  0  0  0
 52 71  1  0  0  0  0
 53 77  1  0  0  0  0
 55 64  1  0  0  0  0
 56 65  1  0  0  0  0
 57 66  1  0  0  0  0
 58 66  1  0  0  0  0
 59 66  1  0  0  0  0
 60 80  1  0  0  0  0
 61 62  1  0  0  0  0
 61 81  1  0  0  0  0
 62 88  1  0  0  0  0
 63 66  1  0  0  0  0
 63 79  1  0  0  0  0
 64 80  1  0  0  0  0
 65 81  1  0  0  0  0
 67 70  1  0  0  0  0
 68 71  1  0  0  0  0
 69 71  1  0  0  0  0
M  CHG  2  80   1  81   1
M  ISO  4  34 100  62 101  74 100  88 101
M  END
> <Batch ID>
0197

> <Smiles>
CNC(C)C(=O)NC(C(=O)N1Cc2cc([101O:1][101CH2:1]CNC(C)C3CC3n3nc(C)c(NC4CC[100N:0]([100C:0](=O)N5CCCC(n6nc(-c7ccc(Oc8ccc(F)cc8F)cc7)c(C(N)=O)c6N)C5)C4)n3)ccc2CC1C(=O)NC1CCCc2ccccc21)C(C)(C)C

> <Shape>
0.293

> <Color>
0.107

> <Negative vol penalty>
0.000

$$$$

  -OEChem-04052323453D

 86 95  0     1  0  0  0  0  0999 V2000
  -19.6929  -23.8069   23.1463 C   0  0  0  0  0  0  0  0  0  0  0  0
  -21.0407  -24.0264   22.8802 C   0  0  0  0  0  0  0  0  0  0  0  0
  -25.3406  -10.1171   22.9521 C   0  0  0  0  0  0  0  0  0  0  0  0
  -23.1266  -10.1107   21.9850 C   0  0  0  0  0  0  0  0  0  0  0  0
  -18.7803  -24.8541   23.0261 C   0  0  0  0  0  0  0  0  0  0  0  0
  -21.4764  -25.2930   22.4926 C   0  0  0  0  0  0  0  0  0  0  0  0
  -25.6942  -26.7192   24.9051 C   0  0  0  0  0  0  0  0  0  0  0  0
  -30.0173  -24.4126   20.3311 C   0  0  0  0  0  0  0  0  0  0  0  0
  -24.9422   -9.1460   23.8707 C   0  0  0  0  0  0  0  0  0  0  0  0
  -22.7282   -9.1395   22.9036 C   0  0  0  0  0  0  0  0  0  0  0  0
  -26.8980  -26.1762   24.4581 C   0  0  0  0  0  0  0  0  0  0  0  0
  -23.0543   -5.7984   23.2927 C   0  0  0  0  0  0  0  0  0  0  0  0
  -22.3146   -4.7182   22.8116 C   0  0  0  0  0  0  0  0  0  0  0  0
  -30.0700  -25.1245   21.5244 C   0  0  0  0  0  0  0  0  0  0  0  0
  -27.3529  -28.2058   23.2364 C   0  0  0  0  0  0  0  0  0  0  0  0
  -20.4895   -5.3148   24.2779 C   0  0  0  0  0  0  0  0  0  0  0  0
  -24.4328  -10.5995   22.0093 C   0  0  0  0  0  0  0  0  0  0  0  0
  -25.4010  -11.3899   19.7854 C   0  0  0  0  0  0  0  0  0  0  0  0
  -19.2065  -26.1365   22.6461 C   0  0  0  0  0  0  0  0  0  0  0  0
  -25.3050  -28.0076   24.5117 C   0  0  0  0  0  0  0  0  0  0  0  0
  -20.5684  -26.3579   22.3658 C   0  0  0  0  0  0  0  0  0  0  0  0
  -26.1449  -28.7639   23.6818 C   0  0  0  0  0  0  0  0  0  0  0  0
  -28.8064  -24.2781   19.6611 C   0  0  0  0  0  0  0  0  0  0  0  0
  -23.6360   -8.6572   23.8465 C   0  0  0  0  0  0  0  0  0  0  0  0
  -27.7262  -26.9184   23.6213 C   0  0  0  0  0  0  0  0  0  0  0  0
  -22.5116   -6.6369   24.2665 C   0  0  0  0  0  0  0  0  0  0  0  0
  -21.0322   -4.4764   23.3042 C   0  0  0  0  0  0  0  0  0  0  0  0
  -21.2292   -6.3951   24.7591 C   0  0  0  0  0  0  0  0  0  0  0  0
  -24.8436  -11.6030   21.0604 C   0  0  0  0  0  0  0  0  0  0  0  0
  -27.6858  -24.8696   20.2219 C   0  0  0  0  0  0  0  0  0  0  0  0
  -28.8930  -25.6780   22.0018 C   0  0  0  0  0  0  0  0  0  1  0  0
  -25.6136  -12.6524   19.2882 C   0  0  0  0  0  0  0  0  0  0  0  0
  -25.6998  -10.1605   19.1107 C   0  0  0  0  0  0  0  0  0  0  0  0
  -22.8632  -29.2097   22.8696 C   0  0  0  0  0  0  0  0  0  0  0  0
  -24.1790  -32.0442   23.7396 C   0  0  0  0  0  0  0  0  0  0  0  0
  -26.9557  -33.7707   24.7174 C   0  0  0  0  0  0  0  0  0  0  0  0
  -27.6664  -17.7605   20.2812 C   0  0  0  0  0  0  0  0  0  0  0  0
  -18.1758  -27.2255   22.4837 C   0  0  0  0  0  0  0  0  0  0  0  0
  -24.0160  -28.5892   25.0242 C   0  0  0  0  0  0  0  0  0  0  0  0
  -25.7824  -30.1596   23.2469 C   0  0  0  0  0  0  0  0  0  0  0  0
  -18.7752  -28.6285   22.4310 C   0  0  0  0  0  0  0  0  0  0  0  0
  -24.0709  -17.1638   20.9678 C   0  0  0  0  0  0  0  0  0  0  0  0
  -19.9710  -28.6628   21.4846 C   0  0  0  0  0  0  0  0  0  0  0  0
  -24.0186  -15.6354   20.9867 C   0  0  0  0  0  0  0  0  0  0  0  0
  -26.8642  -20.9662   18.6714 C   0  0  0  0  0  0  0  0  0  0  0  0
  -25.4247  -17.6687   21.4496 C   0  0  0  0  0  0  0  0  0  0  0  0
  -26.3300  -19.8072   19.5071 C   0  0  0  0  0  0  0  0  0  0  0  0
  -26.5433  -15.6031   20.7020 C   0  0  0  0  0  0  0  0  0  0  0  0
  -28.7142  -19.9505   19.7792 C   0  0  0  0  0  0  0  0  0  0  0  0
  -21.0834  -27.7238   21.9668 C   0  0  1  0  0  0  0  0  0  0  0  0
  -23.4767  -29.7136   24.1453 C   0  0  1  0  0  0  0  0  0  0  0  0
  -25.2025  -15.0282   20.2120 C   0  0  1  0  0  0  0  0  0  0  0  0
  -28.1517  -21.3097   19.4056 C   0  0  1  0  0  0  0  0  0  0  0  0
  -25.3290  -25.7201   20.1293 C   0  0  0  0  0  0  0  0  0  0  0  0
  -29.6609  -24.0763   17.2901 C   0  0  0  0  0  0  0  0  0  0  0  0
  -27.7287  -36.0815   25.3176 C   0  0  0  0  0  0  0  0  0  0  0  0
  -24.1738  -32.8105   20.7862 C   0  0  0  0  0  0  0  0  0  0  0  0
  -25.7803  -34.6513   21.3326 C   0  0  0  0  0  0  0  0  0  0  0  0
  -23.4992  -34.6486   22.3421 C   0  0  0  0  0  0  0  0  0  0  0  0
  -27.7217  -32.9302   27.4498 C   0  0  0  0  0  0  0  0  0  0  0  0
  -26.3585  -24.7568   19.5463 C   0  0  0  0  0  0  0  0  0  0  0  0
  -28.7419  -23.5025   18.3657 C   0  0  1  0  0  0  0  0  0  0  0  0
  -25.2117  -32.9708   23.1448 C   0  0  1  0  0  0  0  0  0  0  0  0
  -27.1795  -34.7642   25.8431 C   0  0  2  0  0  0  0  0  0  0  0  0
  -24.6724  -33.7433   21.9079 C   0  0  0  0  0  0  0  0  0  0  0  0
  -24.7106  -12.8990   21.3550 N   0  0  0  0  0  0  0  0  0  0  0  0
  -27.6980  -25.5685   21.3790 N   0  0  0  0  0  0  0  0  0  0  0  0
  -25.1876  -13.5116   20.2580 N   0  0  0  0  0  0  0  0  0  0  0  0
  -24.5089  -30.6818   23.7694 N   0  0  0  0  0  0  0  0  0  0  0  0
  -26.5185  -17.0673   20.6817 N   0  0  0  0  0  0  0  0  0  0  0  0
  -27.5315  -19.1166   19.9873 N   0  0  0  0  0  0  0  0  0  0  0  0
  -26.1216  -13.1004   18.1205 N   0  0  0  0  0  0  0  0  0  0  0  0
  -25.4181   -8.9536   19.7653 N   0  0  0  0  0  0  0  0  0  0  0  0
  -21.8165  -28.3277   23.0587 N   0  0  0  0  0  0  0  0  0  0  0  0
  -25.6658  -33.8289   24.2338 N   0  0  0  0  0  0  0  0  0  0  0  0
  -29.0786  -22.0585   18.5413 N   0  3  0  0  0  0  0  0  0  0  0  0
  -28.1464  -34.2142   26.8348 N   0  3  0  0  0  0  0  0  0  0  0  0
  -26.2168  -10.1332   17.9682 O   0  0  0  0  0  0  0  0  0  0  0  0
  -23.3057  -29.5940   21.7934 O   0  0  0  0  0  0  0  0  0  0  0  0
  -23.1217  -32.5128   24.1687 O   0  0  0  0  0  0  0  0  0  0  0  0
  -27.8380  -33.0208   24.3056 O   0  0  0  0  0  0  0  0  0  0  0  0
  -28.7533  -17.1833   20.1450 O   0  0  0  0  0  0  0  0  0  0  0  0
  -23.2469   -7.7094   24.7425 O   0  0  0  0  0  0  0  0  0  0  0  0
  -28.9184  -26.3828   23.1766 O   0  0  0  0  0  0  0  0  0  1  0  0
  -20.3214   -3.4398   22.8410 F   0  0  0  0  0  0  0  0  0  0  0  0
  -20.7021   -7.1978   25.6937 F   0  0  0  0  0  0  0  0  0  0  0  0
  1  2  1  0  0  0  0
  1  5  2  0  0  0  0
  2  6  2  0  0  0  0
  3  9  2  0  0  0  0
  3 17  1  0  0  0  0
  4 10  1  0  0  0  0
  4 17  2  0  0  0  0
  5 19  1  0  0  0  0
  6 21  1  0  0  0  0
  7 11  2  0  0  0  0
  7 20  1  0  0  0  0
  8 14  2  0  0  0  0
  8 23  1  0  0  0  0
  9 24  1  0  0  0  0
 10 24  2  0  0  0  0
 11 25  1  0  0  0  0
 12 13  2  0  0  0  0
 12 26  1  0  0  0  0
 13 27  1  0  0  0  0
 14 31  1  0  0  0  0
 15 22  1  0  0  0  0
 15 25  2  0  0  0  0
 16 27  2  0  0  0  0
 16 28  1  0  0  0  0
 17 29  1  0  0  0  0
 18 29  1  0  0  0  0
 18 32  2  0  0  0  0
 18 33  1  0  0  0  0
 19 21  2  0  0  0  0
 19 38  1  0  0  0  0
 20 22  2  0  0  0  0
 20 39  1  0  0  0  0
 21 50  1  0  0  0  0
 22 40  1  0  0  0  0
 23 30  2  0  0  0  0
 23 62  1  0  0  0  0
 24 83  1  0  0  0  0
 25 84  1  0  0  0  0
 26 28  2  0  0  0  0
 26 83  1  0  0  0  0
 27 85  1  0  0  0  0
 28 86  1  0  0  0  0
 29 66  2  0  0  0  0
 30 61  1  0  0  0  0
 30 67  1  0  0  0  0
 31 67  2  0  0  0  0
 31 84  1  0  0  0  0
 32 68  1  0  0  0  0
 32 72  1  0  0  0  0
 33 73  1  0  0  0  0
 33 78  2  0  0  0  0
 34 51  1  0  0  0  0
 34 74  1  0  0  0  0
 34 79  2  0  0  0  0
 35 63  1  0  0  0  0
 35 69  1  0  0  0  0
 35 80  2  0  0  0  0
 36 64  1  0  0  0  0
 36 75  1  0  0  0  0
 36 81  2  0  0  0  0
 37 70  1  0  0  0  0
 37 71  1  0  0  0  0
 37 82  2  0  0  0  0
 38 41  1  0  0  0  0
 39 51  1  0  0  0  0
 40 69  1  0  0  0  0
 41 43  1  0  0  0  0
 42 44  1  0  0  0  0
 42 46  1  0  0  0  0
 43 50  1  0  0  0  0
 44 52  1  0  0  0  0
 45 47  1  0  0  0  0
 45 53  1  0  0  0  0
 46 70  1  0  0  0  0
 47 71  1  0  0  0  0
 48 52  1  0  0  0  0
 48 70  1  0  0  0  0
 49 53  1  0  0  0  0
 49 71  1  0  0  0  0
 50 74  1  0  0  0  0
 51 69  1  0  0  0  0
 52 68  1  0  0  0  0
 53 76  1  0  0  0  0
 54 61  1  0  0  0  0
 55 62  1  0  0  0  0
 56 64  1  0  0  0  0
 57 65  1  0  0  0  0
 58 65  1  0  0  0  0
 59 65  1  0  0  0  0
 60 77  1  0  0  0  0
 62 76  1  0  0  0  0
 63 65  1  0  0  0  0
 63 75  1  0  0  0  0
 64 77  1  0  0  0  0
 66 68  1  0  0  0  0
M  CHG  2  76   1  77   1
M  ISO  4  31 101  37 100  71 100  84 101
M  END
> <Batch ID>
0197

> <Smiles>
CCc1n[101c:1]([101O:1]c2ccc3c(c2)CN(C(=O)C(NC(=O)C(C)NC)C(C)(C)C)C(C(=O)NC2CCCc4ccccc42)C3)ccc1C(C)NC1CC[100N:0]([100C:0](=O)N2CCCC(n3nc(-c4ccc(Oc5ccc(F)cc5F)cc4)c(C(N)=O)c3N)C2)C1

> <Shape>
0.279

> <Color>
0.084

> <Negative vol penalty>
0.000

$$$$

  -OEChem-04052323453D

 89 99  0     1  0  0  0  0  0999 V2000
  -16.6413  -30.9143   21.0953 C   0  0  0  0  0  0  0  0  0  0  0  0
  -17.7087  -31.4318   20.3684 C   0  0  0  0  0  0  0  0  0  0  0  0
  -23.4976  -10.4040   23.3447 C   0  0  0  0  0  0  0  0  0  0  0  0
  -22.9016   -9.2429   21.3115 C   0  0  0  0  0  0  0  0  0  0  0  0
  -16.7786  -30.6817   22.4632 C   0  0  0  0  0  0  0  0  0  0  0  0
  -18.9136  -31.7180   21.0093 C   0  0  0  0  0  0  0  0  0  0  0  0
  -25.0570  -28.5859   18.9259 C   0  0  0  0  0  0  0  0  0  0  0  0
  -22.7876   -9.4629   24.0902 C   0  0  0  0  0  0  0  0  0  0  0  0
  -22.1917   -8.3018   22.0571 C   0  0  0  0  0  0  0  0  0  0  0  0
  -26.3070  -28.1887   18.4506 C   0  0  0  0  0  0  0  0  0  0  0  0
  -20.5225   -5.3893   23.4532 C   0  0  0  0  0  0  0  0  0  0  0  0
  -20.6956   -4.0428   23.1331 C   0  0  0  0  0  0  0  0  0  0  0  0
  -27.3830  -29.3496   20.2789 C   0  0  0  0  0  0  0  0  0  0  0  0
  -23.0550   -4.2310   23.6177 C   0  0  0  0  0  0  0  0  0  0  0  0
  -23.5546  -10.2940   21.9553 C   0  0  0  0  0  0  0  0  0  0  0  0
  -25.6454  -11.2115   20.8174 C   0  0  0  0  0  0  0  0  0  0  0  0
  -17.9889  -30.9561   23.1192 C   0  0  0  0  0  0  0  0  0  0  0  0
  -24.9644  -29.3545   20.0896 C   0  0  0  0  0  0  0  0  0  0  0  0
  -19.0667  -31.4901   22.3874 C   0  0  0  0  0  0  0  0  0  0  0  0
  -26.1330  -29.7399   20.7667 C   0  0  0  0  0  0  0  0  0  0  0  0
  -22.1347   -8.4118   23.4465 C   0  0  0  0  0  0  0  0  0  0  0  0
  -27.4671  -28.5698   19.1253 C   0  0  0  0  0  0  0  0  0  0  0  0
  -21.6156   -6.1567   23.8555 C   0  0  0  0  0  0  0  0  0  0  0  0
  -21.9619   -3.4636   23.2154 C   0  0  0  0  0  0  0  0  0  0  0  0
  -22.8819   -5.5775   23.9377 C   0  0  0  0  0  0  0  0  0  0  0  0
  -24.2874  -11.2662   21.1845 C   0  0  0  0  0  0  0  0  0  0  0  0
  -25.8532  -12.3629   20.0980 C   0  0  0  0  0  0  0  0  0  0  0  0
  -26.6308  -10.2094   21.1013 C   0  0  0  0  0  0  0  0  0  0  0  0
  -22.7360  -31.0900   22.5590 C   0  0  0  0  0  0  0  0  0  0  0  0
  -24.9775  -29.7507   24.1692 C   0  0  0  0  0  0  0  0  0  0  0  0
  -27.3680  -27.7815   25.5991 C   0  0  0  0  0  0  0  0  0  0  0  0
  -25.1000  -17.9497   19.7891 C   0  0  0  0  0  0  0  0  0  0  0  0
  -18.0744  -30.7325   24.6083 C   0  0  0  0  0  0  0  0  0  0  0  0
  -23.6424  -29.8566   20.6036 C   0  0  0  0  0  0  0  0  0  0  0  0
  -25.9869  -30.5960   21.9950 C   0  0  0  0  0  0  0  0  0  0  0  0
  -19.5053  -30.7111   25.1398 C   0  0  0  0  0  0  0  0  0  0  0  0
  -22.5811  -15.7552   18.2679 C   0  0  0  0  0  0  0  0  0  0  0  0
  -20.3039  -31.8792   24.5700 C   0  0  0  0  0  0  0  0  0  0  0  0
  -22.8870  -14.3978   18.9025 C   0  0  0  0  0  0  0  0  0  0  0  0
  -28.4061  -17.5559   18.2317 C   0  0  0  0  0  0  0  0  0  0  0  0
  -29.8441  -21.5557   17.8288 C   0  0  0  0  0  0  0  0  0  0  0  0
  -29.0566  -25.9243   19.7592 C   0  0  0  0  0  0  0  0  0  0  0  0
  -30.7905  -26.7536   18.8323 C   0  0  0  0  0  0  0  0  0  0  0  0
  -22.9399  -16.9140   19.1954 C   0  0  0  0  0  0  0  0  0  0  0  0
  -27.1451  -16.8435   18.7091 C   0  0  0  0  0  0  0  0  0  0  0  0
  -29.3193  -20.1219   17.7761 C   0  0  0  0  0  0  0  0  0  0  0  0
  -24.6219  -15.5260   20.3432 C   0  0  0  0  0  0  0  0  0  0  0  0
  -27.3742  -18.9305   19.8757 C   0  0  0  0  0  0  0  0  0  0  0  0
  -20.3977  -31.7901   23.0420 C   0  0  1  0  0  0  0  0  0  0  0  0
  -23.5772  -29.9203   22.1401 C   0  0  1  0  0  0  0  0  0  0  0  0
  -30.5375  -25.4807   19.6761 C   0  0  0  0  0  0  0  0  0  0  0  0
  -24.3387  -14.3382   19.4131 C   0  0  1  0  0  0  0  0  0  0  0  0
  -28.7471  -18.4445   19.4267 C   0  0  2  0  0  0  0  0  0  0  0  0
  -30.3808  -21.7051   19.2430 C   0  0  2  0  0  0  0  0  0  0  0  0
  -29.5392  -27.3706   19.5006 C   0  0  0  0  0  0  0  0  0  1  0  0
  -29.6305  -20.6478   20.0448 C   0  0  2  0  0  0  0  0  0  0  0  0
  -28.2888  -27.1107   27.8351 C   0  0  0  0  0  0  0  0  0  0  0  0
  -29.3325  -19.6974   22.3495 C   0  0  0  0  0  0  0  0  0  0  0  0
  -31.5064  -19.3831   21.1332 C   0  0  0  0  0  0  0  0  0  0  0  0
  -26.3993  -32.4405   24.3864 C   0  0  0  0  0  0  0  0  0  0  0  0
  -27.9734  -31.3956   26.0291 C   0  0  0  0  0  0  0  0  0  0  0  0
  -25.5388  -31.5370   26.5538 C   0  0  0  0  0  0  0  0  0  0  0  0
  -26.6907  -24.9351   25.1539 C   0  0  0  0  0  0  0  0  0  0  0  0
  -30.8108  -24.1535   18.9994 C   0  0  0  0  0  0  0  0  0  0  0  0
  -26.3367  -29.8937   24.8058 C   0  0  1  0  0  0  0  0  0  0  0  0
  -27.2977  -26.7735   26.7320 C   0  0  2  0  0  0  0  0  0  0  0  0
  -30.3208  -20.3189   21.3637 C   0  0  0  0  0  0  0  0  0  0  0  0
  -26.5589  -31.3057   25.4177 C   0  0  0  0  0  0  0  0  0  0  0  0
  -23.6758  -12.3654   20.7355 N   0  0  0  0  0  0  0  0  0  0  0  0
  -24.6539  -13.0121   20.0789 N   0  0  0  0  0  0  0  0  0  0  0  0
  -24.8709  -30.1060   22.8190 N   0  0  0  0  0  0  0  0  0  0  0  0
  -24.3172  -16.7956   19.6744 N   0  0  0  0  0  0  0  0  0  0  0  0
  -26.4700  -17.8267   19.5610 N   0  0  0  0  0  0  0  0  0  0  0  0
  -29.6474  -19.5297   19.0834 N   0  0  2  0  0  0  0  0  0  0  0  0
  -26.9430  -12.8732   19.4862 N   0  0  0  0  0  0  0  0  0  0  0  0
  -26.2483   -9.0904   21.8534 N   0  0  0  0  0  0  0  0  0  0  0  0
  -21.3866  -30.8076   22.6529 N   0  0  0  0  0  0  0  0  0  0  0  0
  -26.4549  -28.8013   25.7655 N   0  0  0  0  0  0  0  0  0  0  0  0
  -30.1337  -23.0649   19.7617 N   0  3  0  0  0  0  0  0  0  0  0  0
  -27.6037  -25.4050   26.2275 N   0  3  0  0  0  0  0  0  0  0  0  0
  -27.8195  -10.3117   20.7139 O   0  0  0  0  0  0  0  0  0  0  0  0
  -23.2709  -32.1696   22.7826 O   0  0  0  0  0  0  0  0  0  0  0  0
  -24.0329  -29.3408   24.8496 O   0  0  0  0  0  0  0  0  0  0  0  0
  -28.1567  -27.6768   24.6624 O   0  0  0  0  0  0  0  0  0  0  0  0
  -24.5915  -19.0509   20.0378 O   0  0  0  0  0  0  0  0  0  0  0  0
  -21.4420   -7.4932   24.1737 O   0  0  0  0  0  0  0  0  0  0  0  0
  -28.6979  -28.1702   18.6530 O   0  0  0  0  0  0  0  0  0  1  0  0
  -22.1277   -2.1701   22.9095 F   0  0  0  0  0  0  0  0  0  0  0  0
  -23.9356   -6.3094   24.3247 F   0  0  0  0  0  0  0  0  0  0  0  0
  1  2  1  0  0  0  0
  1  5  2  0  0  0  0
  2  6  2  0  0  0  0
  3  8  2  0  0  0  0
  3 15  1  0  0  0  0
  4  9  1  0  0  0  0
  4 15  2  0  0  0  0
  5 17  1  0  0  0  0
  6 19  1  0  0  0  0
  7 10  2  0  0  0  0
  7 18  1  0  0  0  0
  8 21  1  0  0  0  0
  9 21  2  0  0  0  0
 10 22  1  0  0  0  0
 11 12  2  0  0  0  0
 11 23  1  0  0  0  0
 12 24  1  0  0  0  0
 13 20  1  0  0  0  0
 13 22  2  0  0  0  0
 14 24  2  0  0  0  0
 14 25  1  0  0  0  0
 15 26  1  0  0  0  0
 16 26  1  0  0  0  0
 16 27  2  0  0  0  0
 16 28  1  0  0  0  0
 17 19  2  0  0  0  0
 17 33  1  0  0  0  0
 18 20  2  0  0  0  0
 18 34  1  0  0  0  0
 19 49  1  0  0  0  0
 20 35  1  0  0  0  0
 21 86  1  0  0  0  0
 22 87  1  0  0  0  0
 23 25  2  0  0  0  0
 23 86  1  0  0  0  0
 24 88  1  0  0  0  0
 25 89  1  0  0  0  0
 26 69  2  0  0  0  0
 27 70  1  0  0  0  0
 27 75  1  0  0  0  0
 28 76  1  0  0  0  0
 28 81  2  0  0  0  0
 29 50  1  0  0  0  0
 29 77  1  0  0  0  0
 29 82  2  0  0  0  0
 30 65  1  0  0  0  0
 30 71  1  0  0  0  0
 30 83  2  0  0  0  0
 31 66  1  0  0  0  0
 31 78  1  0  0  0  0
 31 84  2  0  0  0  0
 32 72  1  0  0  0  0
 32 73  1  0  0  0  0
 32 85  2  0  0  0  0
 33 36  1  0  0  0  0
 34 50  1  0  0  0  0
 35 71  1  0  0  0  0
 36 38  1  0  0  0  0
 37 39  1  0  0  0  0
 37 44  1  0  0  0  0
 38 49  1  0  0  0  0
 39 52  1  0  0  0  0
 40 45  1  0  0  0  0
 40 53  1  0  0  0  0
 41 46  1  0  0  0  0
 41 54  1  0  0  0  0
 42 51  1  0  0  0  0
 42 55  1  0  0  0  0
 43 51  1  0  0  0  0
 43 55  1  0  0  0  0
 44 72  1  0  0  0  0
 45 73  1  0  0  0  0
 46 74  1  0  0  0  0
 47 52  1  0  0  0  0
 47 72  1  0  0  0  0
 48 53  1  0  0  0  0
 48 73  1  0  0  0  0
 49 77  1  0  0  0  0
 50 71  1  0  0  0  0
 51 64  1  0  0  0  0
 52 70  1  0  0  0  0
 53 74  1  0  0  0  0
 54 56  1  0  0  0  0
 54 79  1  0  0  0  0
 55 87  1  0  0  0  0
 56 67  1  0  0  0  0
 56 74  1  0  0  0  0
 57 66  1  0  0  0  0
 58 67  1  0  0  0  0
 59 67  1  0  0  0  0
 60 68  1  0  0  0  0
 61 68  1  0  0  0  0
 62 68  1  0  0  0  0
 63 80  1  0  0  0  0
 64 79  1  0  0  0  0
 65 68  1  0  0  0  0
 65 78  1  0  0  0  0
 66 80  1  0  0  0  0
 69 70  1  0  0  0  0
M  CHG  2  79   1  80   1
M  ISO  4  32 100  55 101  73 100  87 101
M  END
> <Batch ID>
0197

> <Smiles>
CNC(C)C(=O)NC(C(=O)N1Cc2cc([101O:1][101CH:1]3CC(CNC4CCN(C5CC[100N:0]([100C:0](=O)N6CCCC(n7nc(-c8ccc(Oc9ccc(F)cc9F)cc8)c(C(N)=O)c7N)C6)C5)C4C(C)C)C3)ccc2CC1C(=O)NC1CCCc2ccccc21)C(C)(C)C

> <Shape>
0.306

> <Color>
0.077

> <Negative vol penalty>
0.000

$$$$

  -OEChem-04052323453D

 88 97  0     1  0  0  0  0  0999 V2000
  -26.2333  -34.8919   20.4608 C   0  0  0  0  0  0  0  0  0  0  0  0
  -26.1448  -33.6112   19.9249 C   0  0  0  0  0  0  0  0  0  0  0  0
  -23.2777   -9.8077   19.8578 C   0  0  0  0  0  0  0  0  0  0  0  0
  -23.7944   -9.8422   22.2177 C   0  0  0  0  0  0  0  0  0  0  0  0
  -25.9069  -35.1107   21.7986 C   0  0  0  0  0  0  0  0  0  0  0  0
  -25.7308  -32.5481   20.7268 C   0  0  0  0  0  0  0  0  0  0  0  0
  -22.3981  -27.7107   18.9953 C   0  0  0  0  0  0  0  0  0  0  0  0
  -22.5825   -8.6105   20.0275 C   0  0  0  0  0  0  0  0  0  0  0  0
  -23.0991   -8.6449   22.3874 C   0  0  0  0  0  0  0  0  0  0  0  0
  -22.7483  -26.4079   18.6436 C   0  0  0  0  0  0  0  0  0  0  0  0
  -23.6449   -5.3505   21.8582 C   0  0  0  0  0  0  0  0  0  0  0  0
  -24.2432   -4.3582   22.6346 C   0  0  0  0  0  0  0  0  0  0  0  0
  -22.2948  -25.6835   20.8994 C   0  0  0  0  0  0  0  0  0  0  0  0
  -22.3670   -4.4170   24.1556 C   0  0  0  0  0  0  0  0  0  0  0  0
  -23.8837  -10.4236   20.9529 C   0  0  0  0  0  0  0  0  0  0  0  0
  -24.0840  -12.9655   20.8728 C   0  0  0  0  0  0  0  0  0  0  0  0
  -25.4794  -34.0516   22.6147 C   0  0  0  0  0  0  0  0  0  0  0  0
  -22.0035  -28.0123   20.3067 C   0  0  0  0  0  0  0  0  0  0  0  0
  -25.3996  -32.7527   22.0771 C   0  0  0  0  0  0  0  0  0  0  0  0
  -21.9377  -26.9905   21.2646 C   0  0  0  0  0  0  0  0  0  0  0  0
  -22.4932   -8.0291   21.2922 C   0  0  0  0  0  0  0  0  0  0  0  0
  -22.6995  -25.3945   19.5964 C   0  0  0  0  0  0  0  0  0  0  0  0
  -22.4077   -5.8762   22.2305 C   0  0  0  0  0  0  0  0  0  0  0  0
  -23.6042   -3.8913   23.7833 C   0  0  0  0  0  0  0  0  0  0  0  0
  -21.7687   -5.4094   23.3792 C   0  0  0  0  0  0  0  0  0  0  0  0
  -24.6025  -11.6601   20.7782 C   0  0  0  0  0  0  0  0  0  0  0  0
  -25.1609  -13.7814   20.6260 C   0  0  0  0  0  0  0  0  0  0  0  0
  -22.7483  -13.4015   21.1584 C   0  0  0  0  0  0  0  0  0  0  0  0
  -30.4948  -17.6578   20.1328 C   0  0  0  0  0  0  0  0  0  0  0  0
  -23.1306  -29.8862   22.6135 C   0  0  0  0  0  0  0  0  0  0  0  0
  -20.3992  -29.0077   24.1268 C   0  0  0  0  0  0  0  0  0  0  0  0
  -17.8835  -26.7277   24.4727 C   0  0  0  0  0  0  0  0  0  0  0  0
  -29.6594  -15.0221   17.5449 C   0  0  0  0  0  0  0  0  0  0  0  0
  -25.1826  -34.3285   24.0673 C   0  0  0  0  0  0  0  0  0  0  0  0
  -21.6032  -29.4177   20.6633 C   0  0  0  0  0  0  0  0  0  0  0  0
  -21.5011  -27.2582   22.6810 C   0  0  0  0  0  0  0  0  0  0  0  0
  -24.3932  -33.2149   24.7507 C   0  0  0  0  0  0  0  0  0  0  0  0
  -30.0981  -12.7338   20.2921 C   0  0  0  0  0  0  0  0  0  0  0  0
  -24.9925  -31.8527   24.4159 C   0  0  0  0  0  0  0  0  0  0  0  0
  -28.6665  -12.3375   20.6586 C   0  0  0  0  0  0  0  0  0  0  0  0
  -30.2573  -12.9751   18.7918 C   0  0  0  0  0  0  0  0  0  0  0  0
  -29.2187  -19.7966   19.9550 C   0  0  0  0  0  0  0  0  0  0  0  0
  -27.8683  -13.5219   18.5792 C   0  0  0  0  0  0  0  0  0  0  0  0
  -29.1901  -17.4681   16.9825 C   0  0  0  0  0  0  0  0  0  0  0  0
  -28.0531  -16.7784   18.6370 C   0  0  0  0  0  0  0  0  0  0  0  0
  -27.7596  -19.3172   18.1950 C   0  0  0  0  0  0  0  0  0  0  0  0
  -24.9308  -31.5783   22.9084 C   0  0  1  0  0  0  0  0  0  0  0  0
  -29.8816  -18.6482   19.1991 C   0  0  2  0  0  0  0  0  0  0  0  0
  -21.7101  -29.7085   22.1571 C   0  0  1  0  0  0  0  0  0  0  0  0
  -27.6473  -13.3423   20.0887 C   0  0  1  0  0  0  0  0  0  0  0  0
  -28.7369  -18.1366   18.3060 C   0  0  0  0  0  0  0  0  0  0  0  0
  -15.8166  -26.2639   25.8181 C   0  0  0  0  0  0  0  0  0  0  0  0
  -27.4009  -22.7675   17.2711 C   0  0  0  0  0  0  0  0  0  0  0  0
  -22.1314  -28.1471   26.4866 C   0  0  0  0  0  0  0  0  0  0  0  0
  -20.1740  -26.8549   27.3625 C   0  0  0  0  0  0  0  0  0  0  0  0
  -20.0221  -29.3328   27.1185 C   0  0  0  0  0  0  0  0  0  0  0  0
  -32.3563  -16.0252   20.3597 C   0  0  0  0  0  0  0  0  0  0  0  0
  -16.1618  -26.7940   22.0664 C   0  0  0  0  0  0  0  0  0  0  0  0
  -27.4700  -21.3961   19.4274 C   0  0  0  0  0  0  0  0  0  0  0  0
  -24.5123  -22.2589   19.6622 C   0  0  0  0  0  0  0  0  0  0  0  0
  -23.6033  -23.3034   20.2792 C   0  0  0  0  0  0  0  0  0  1  0  0
  -20.0033  -27.8802   25.0493 C   0  0  1  0  0  0  0  0  0  0  0  0
  -16.3768  -26.8947   24.5528 C   0  0  2  0  0  0  0  0  0  0  0  0
  -26.6067  -22.0072   18.3248 C   0  0  1  0  0  0  0  0  0  0  0  0
  -20.5928  -28.0488   26.4781 C   0  0  0  0  0  0  0  0  0  0  0  0
  -25.9073  -11.6429   20.4933 N   0  0  0  0  0  0  0  0  0  0  0  0
  -26.2178  -12.9476   20.4067 N   0  0  0  0  0  0  0  0  0  0  0  0
  -21.1258  -28.6495   22.9824 N   0  0  0  0  0  0  0  0  0  0  0  0
  -29.2530  -13.9274   18.3114 N   0  0  0  0  0  0  0  0  0  0  0  0
  -28.9437  -16.1915   17.6483 N   0  0  0  0  0  0  0  0  0  0  0  0
  -28.4173  -20.4248   18.9017 N   0  0  1  0  0  0  0  0  0  0  0  0
  -25.2975  -15.1235   20.5772 N   0  0  0  0  0  0  0  0  0  0  0  0
  -21.7633  -12.4311   21.3875 N   0  0  0  0  0  0  0  0  0  0  0  0
  -23.5931  -31.1850   22.5206 N   0  0  0  0  0  0  0  0  0  0  0  0
  -31.6088  -17.0188   19.6229 N   0  0  0  0  0  0  0  0  0  0  0  0
  -18.5466  -27.8116   25.0082 N   0  0  0  0  0  0  0  0  0  0  0  0
  -15.7213  -26.2533   23.3781 N   0  3  0  0  0  0  0  0  0  0  0  0
  -25.6140  -22.9374   18.9318 N   0  3  0  0  0  0  0  0  0  0  0  0
  -22.4340  -14.6154   21.1928 O   0  0  0  0  0  0  0  0  0  0  0  0
  -29.9979  -17.4825   21.2392 O   0  0  0  0  0  0  0  0  0  0  0  0
  -23.7599  -28.9170   23.0213 O   0  0  0  0  0  0  0  0  0  0  0  0
  -20.0696  -30.1628   24.4074 O   0  0  0  0  0  0  0  0  0  0  0  0
  -18.4186  -25.7335   23.9872 O   0  0  0  0  0  0  0  0  0  0  0  0
  -30.6548  -14.9698   16.8103 O   0  0  0  0  0  0  0  0  0  0  0  0
  -21.8146   -6.8609   21.4582 O   0  0  0  0  0  0  0  0  0  0  0  0
  -23.0438  -24.1130   19.2535 O   0  0  0  0  0  0  0  0  0  1  0  0
  -24.1782   -2.9373   24.5279 F   0  0  0  0  0  0  0  0  0  0  0  0
  -20.5794   -5.9098   23.7413 F   0  0  0  0  0  0  0  0  0  0  0  0
  1  2  1  0  0  0  0
  1  5  2  0  0  0  0
  2  6  2  0  0  0  0
  3  8  2  0  0  0  0
  3 15  1  0  0  0  0
  4  9  1  0  0  0  0
  4 15  2  0  0  0  0
  5 17  1  0  0  0  0
  6 19  1  0  0  0  0
  7 10  2  0  0  0  0
  7 18  1  0  0  0  0
  8 21  1  0  0  0  0
  9 21  2  0  0  0  0
 10 22  1  0  0  0  0
 11 12  2  0  0  0  0
 11 23  1  0  0  0  0
 12 24  1  0  0  0  0
 13 20  1  0  0  0  0
 13 22  2  0  0  0  0
 14 24  2  0  0  0  0
 14 25  1  0  0  0  0
 15 26  1  0  0  0  0
 16 26  1  0  0  0  0
 16 27  2  0  0  0  0
 16 28  1  0  0  0  0
 17 19  2  0  0  0  0
 17 34  1  0  0  0  0
 18 20  2  0  0  0  0
 18 35  1  0  0  0  0
 19 47  1  0  0  0  0
 20 36  1  0  0  0  0
 21 85  1  0  0  0  0
 22 86  1  0  0  0  0
 23 25  2  0  0  0  0
 23 85  1  0  0  0  0
 24 87  1  0  0  0  0
 25 88  1  0  0  0  0
 26 66  2  0  0  0  0
 27 67  1  0  0  0  0
 27 72  1  0  0  0  0
 28 73  1  0  0  0  0
 28 79  2  0  0  0  0
 29 48  1  0  0  0  0
 29 75  1  0  0  0  0
 29 80  2  0  0  0  0
 30 49  1  0  0  0  0
 30 74  1  0  0  0  0
 30 81  2  0  0  0  0
 31 62  1  0  0  0  0
 31 68  1  0  0  0  0
 31 82  2  0  0  0  0
 32 63  1  0  0  0  0
 32 76  1  0  0  0  0
 32 83  2  0  0  0  0
 33 69  1  0  0  0  0
 33 70  1  0  0  0  0
 33 84  2  0  0  0  0
 34 37  1  0  0  0  0
 35 49  1  0  0  0  0
 36 68  1  0  0  0  0
 37 39  1  0  0  0  0
 38 40  1  0  0  0  0
 38 41  1  0  0  0  0
 39 47  1  0  0  0  0
 40 50  1  0  0  0  0
 41 69  1  0  0  0  0
 42 48  1  0  0  0  0
 42 71  1  0  0  0  0
 43 50  1  0  0  0  0
 43 69  1  0  0  0  0
 44 51  1  0  0  0  0
 44 70  1  0  0  0  0
 45 51  1  0  0  0  0
 45 70  1  0  0  0  0
 46 51  1  0  0  0  0
 46 71  1  0  0  0  0
 47 74  1  0  0  0  0
 48 51  1  0  0  0  0
 49 68  1  0  0  0  0
 50 67  1  0  0  0  0
 52 63  1  0  0  0  0
 53 64  1  0  0  0  0
 54 65  1  0  0  0  0
 55 65  1  0  0  0  0
 56 65  1  0  0  0  0
 57 75  1  0  0  0  0
 58 77  1  0  0  0  0
 59 64  1  0  0  0  0
 59 71  1  0  0  0  0
 60 61  1  0  0  0  0
 60 78  1  0  0  0  0
 61 86  1  0  0  0  0
 62 65  1  0  0  0  0
 62 76  1  0  0  0  0
 63 77  1  0  0  0  0
 64 78  1  0  0  0  0
 66 67  1  0  0  0  0
M  CHG  2  77   1  78   1
M  ISO  4  33 100  61 101  70 100  86 101
M  END
> <Batch ID>
0197

> <Smiles>
CNC(=O)C1CN(CC(C)NC[101CH2:1][101O:1]c2ccc3c(c2)CN(C(=O)C(NC(=O)C(C)NC)C(C)(C)C)C(C(=O)NC2CCCc4ccccc42)C3)CC12C[100N:0]([100C:0](=O)N1CCCC(n3nc(-c4ccc(Oc5ccc(F)cc5F)cc4)c(C(N)=O)c3N)C1)C2

> <Shape>
0.312

> <Color>
0.182

> <Negative vol penalty>
0.000

$$$$

  -OEChem-04052323453D

 84 93  0     1  0  0  0  0  0999 V2000
  -19.3945  -33.7562   20.3828 C   0  0  0  0  0  0  0  0  0  0  0  0
  -20.7484  -33.4392   20.3386 C   0  0  0  0  0  0  0  0  0  0  0  0
  -26.4090  -12.4988   21.5125 C   0  0  0  0  0  0  0  0  0  0  0  0
  -26.0424  -13.1895   19.2265 C   0  0  0  0  0  0  0  0  0  0  0  0
  -18.5612  -33.1226   21.3038 C   0  0  0  0  0  0  0  0  0  0  0  0
  -21.2700  -32.4893   21.2161 C   0  0  0  0  0  0  0  0  0  0  0  0
  -24.3867  -29.2259   18.9181 C   0  0  0  0  0  0  0  0  0  0  0  0
  -25.1579  -11.8823   21.5269 C   0  0  0  0  0  0  0  0  0  0  0  0
  -24.7912  -12.5730   19.2409 C   0  0  0  0  0  0  0  0  0  0  0  0
  -25.6793  -29.6681   18.6400 C   0  0  0  0  0  0  0  0  0  0  0  0
  -23.7867   -9.0030   20.4032 C   0  0  0  0  0  0  0  0  0  0  0  0
  -23.7009   -7.7234   20.9517 C   0  0  0  0  0  0  0  0  0  0  0  0
  -33.2823  -24.6854   18.0879 C   0  0  0  0  0  0  0  0  0  0  0  0
  -33.0009  -25.9680   17.6514 C   0  0  0  0  0  0  0  0  0  0  0  0
  -26.4915  -28.5002   20.5882 C   0  0  0  0  0  0  0  0  0  0  0  0
  -22.1265   -8.5337   22.5955 C   0  0  0  0  0  0  0  0  0  0  0  0
  -26.8512  -13.1525   20.3623 C   0  0  0  0  0  0  0  0  0  0  0  0
  -29.3720  -13.2123   19.9752 C   0  0  0  0  0  0  0  0  0  0  0  0
  -19.0709  -32.1575   22.1865 C   0  0  0  0  0  0  0  0  0  0  0  0
  -24.1346  -28.4251   20.0413 C   0  0  0  0  0  0  0  0  0  0  0  0
  -20.4429  -31.8432   22.1507 C   0  0  0  0  0  0  0  0  0  0  0  0
  -25.1952  -28.0470   20.8769 C   0  0  0  0  0  0  0  0  0  0  0  0
  -24.3490  -11.9193   20.3911 C   0  0  0  0  0  0  0  0  0  0  0  0
  -26.7315  -29.3077   19.4767 C   0  0  0  0  0  0  0  0  0  0  0  0
  -23.0425  -10.0480   20.9509 C   0  0  0  0  0  0  0  0  0  0  0  0
  -22.8708   -7.4887   22.0479 C   0  0  0  0  0  0  0  0  0  0  0  0
  -22.2124   -9.8133   22.0470 C   0  0  0  0  0  0  0  0  0  0  0  0
  -28.1433  -13.7901   20.3470 C   0  0  0  0  0  0  0  0  0  0  0  0
  -32.5122  -24.1672   19.1096 C   0  0  0  0  0  0  0  0  0  0  0  0
  -31.9678  -26.6474   18.2652 C   0  0  0  0  0  0  0  0  0  0  0  0
  -30.2884  -14.2231   20.1328 C   0  0  0  0  0  0  0  0  0  0  0  0
  -29.6593  -11.8809   19.5273 C   0  0  0  0  0  0  0  0  0  0  0  0
  -22.3816  -28.7415   22.6739 C   0  0  0  0  0  0  0  0  0  0  0  0
  -23.2755  -25.6631   23.1704 C   0  0  0  0  0  0  0  0  0  0  0  0
  -25.5231  -23.1661   22.5703 C   0  0  0  0  0  0  0  0  0  0  0  0
  -31.7127  -19.4600   19.2324 C   0  0  0  0  0  0  0  0  0  0  0  0
  -18.1404  -31.5338   23.1964 C   0  0  0  0  0  0  0  0  0  0  0  0
  -22.7389  -27.9341   20.3125 C   0  0  0  0  0  0  0  0  0  0  0  0
  -24.9808  -27.1722   22.0840 C   0  0  0  0  0  0  0  0  0  0  0  0
  -18.6992  -30.2666   23.8384 C   0  0  0  0  0  0  0  0  0  0  0  0
  -29.9050  -18.7259   22.3482 C   0  0  0  0  0  0  0  0  0  0  0  0
  -20.1456  -30.4813   24.2726 C   0  0  0  0  0  0  0  0  0  0  0  0
  -29.3261  -17.3511   22.0334 C   0  0  0  0  0  0  0  0  0  0  0  0
  -30.0053  -19.6151   21.1085 C   0  0  0  0  0  0  0  0  0  0  0  0
  -31.4720  -21.8903   20.1184 C   0  0  0  0  0  0  0  0  0  0  0  0
  -33.0765  -21.5515   18.7674 C   0  0  0  0  0  0  0  0  0  0  0  0
  -30.1533  -17.5938   19.6679 C   0  0  0  0  0  0  0  0  0  0  0  0
  -21.0413  -30.8002   23.0694 C   0  0  1  0  0  0  0  0  0  0  0  0
  -32.7163  -22.7152   19.7140 C   0  0  0  0  0  0  0  0  0  0  0  0
  -22.5143  -27.5478   21.7711 C   0  0  1  0  0  0  0  0  0  0  0  0
  -30.1204  -16.6824   20.9021 C   0  0  2  0  0  0  0  0  0  0  0  0
  -26.0075  -20.7717   23.1444 C   0  0  0  0  0  0  0  0  0  0  0  0
  -24.2670  -26.5264   25.9238 C   0  0  0  0  0  0  0  0  0  0  0  0
  -25.5606  -24.3867   26.0520 C   0  0  0  0  0  0  0  0  0  0  0  0
  -23.0722  -24.3297   25.8868 C   0  0  0  0  0  0  0  0  0  0  0  0
  -25.3232  -22.3258   19.7396 C   0  0  0  0  0  0  0  0  0  0  0  0
  -31.6216  -28.0406   17.8292 C   0  0  0  0  0  0  0  0  0  0  0  0
  -29.8184  -29.7587   17.6415 C   0  0  0  0  0  0  0  0  0  0  0  0
  -28.3282  -29.9560   17.8378 C   0  0  0  0  0  0  0  0  0  1  0  0
  -24.4343  -24.9843   23.8599 C   0  0  1  0  0  0  0  0  0  0  0  0
  -25.3331  -21.7165   22.1619 C   0  0  2  0  0  0  0  0  0  0  0  0
  -24.3376  -25.0749   25.4091 C   0  0  0  0  0  0  0  0  0  0  0  0
  -28.2647  -15.0687   20.7134 N   0  0  0  0  0  0  0  0  0  0  0  0
  -31.5073  -24.8548   19.6922 N   0  0  0  0  0  0  0  0  0  0  0  0
  -31.2305  -26.1153   19.2628 N   0  0  0  0  0  0  0  0  0  0  0  0
  -29.5805  -15.3028   20.5726 N   0  0  0  0  0  0  0  0  0  0  0  0
  -23.5972  -26.7228   22.3105 N   0  0  0  0  0  0  0  0  0  0  0  0
  -30.6601  -18.9325   19.9879 N   0  0  0  0  0  0  0  0  0  0  0  0
  -32.1464  -20.7339   19.5409 N   0  0  0  0  0  0  0  0  0  0  0  0
  -31.6226  -14.2849   19.9367 N   0  0  0  0  0  0  0  0  0  0  0  0
  -28.6007  -10.9684   19.4221 N   0  0  0  0  0  0  0  0  0  0  0  0
  -21.3475  -29.5924   22.3332 N   0  0  0  0  0  0  0  0  0  0  0  0
  -24.4752  -23.6208   23.3425 N   0  0  0  0  0  0  0  0  0  0  0  0
  -25.9118  -21.4793   20.8092 N   0  3  0  0  0  0  0  0  0  0  0  0
  -30.1810  -28.3665   18.0085 N   0  3  0  0  0  0  0  0  0  0  0  0
  -30.8227  -11.5067   19.2449 O   0  0  0  0  0  0  0  0  0  0  0  0
  -23.1589  -28.8796   23.6112 O   0  0  0  0  0  0  0  0  0  0  0  0
  -22.1278  -25.2631   23.3813 O   0  0  0  0  0  0  0  0  0  0  0  0
  -26.5050  -23.8278   22.2406 O   0  0  0  0  0  0  0  0  0  0  0  0
  -32.2266  -18.8354   18.2957 O   0  0  0  0  0  0  0  0  0  0  0  0
  -23.1282  -11.3176   20.4047 O   0  0  0  0  0  0  0  0  0  0  0  0
  -27.9940  -29.7386   19.2080 O   0  0  0  0  0  0  0  0  0  1  0  0
  -22.7873   -6.2595   22.5735 F   0  0  0  0  0  0  0  0  0  0  0  0
  -21.4942  -10.8129   22.5767 F   0  0  0  0  0  0  0  0  0  0  0  0
  1  2  1  0  0  0  0
  1  5  2  0  0  0  0
  2  6  2  0  0  0  0
  3  8  2  0  0  0  0
  3 17  1  0  0  0  0
  4  9  1  0  0  0  0
  4 17  2  0  0  0  0
  5 19  1  0  0  0  0
  6 21  1  0  0  0  0
  7 10  2  0  0  0  0
  7 20  1  0  0  0  0
  8 23  1  0  0  0  0
  9 23  2  0  0  0  0
 10 24  1  0  0  0  0
 11 12  2  0  0  0  0
 11 25  1  0  0  0  0
 12 26  1  0  0  0  0
 13 14  2  0  0  0  0
 13 29  1  0  0  0  0
 14 30  1  0  0  0  0
 15 22  1  0  0  0  0
 15 24  2  0  0  0  0
 16 26  2  0  0  0  0
 16 27  1  0  0  0  0
 17 28  1  0  0  0  0
 18 28  1  0  0  0  0
 18 31  2  0  0  0  0
 18 32  1  0  0  0  0
 19 21  2  0  0  0  0
 19 37  1  0  0  0  0
 20 22  2  0  0  0  0
 20 38  1  0  0  0  0
 21 48  1  0  0  0  0
 22 39  1  0  0  0  0
 23 81  1  0  0  0  0
 24 82  1  0  0  0  0
 25 27  2  0  0  0  0
 25 81  1  0  0  0  0
 26 83  1  0  0  0  0
 27 84  1  0  0  0  0
 28 63  2  0  0  0  0
 29 49  1  0  0  0  0
 29 64  2  0  0  0  0
 30 57  1  0  0  0  0
 30 65  2  0  0  0  0
 31 66  1  0  0  0  0
 31 70  1  0  0  0  0
 32 71  1  0  0  0  0
 32 76  2  0  0  0  0
 33 50  1  0  0  0  0
 33 72  1  0  0  0  0
 33 77  2  0  0  0  0
 34 60  1  0  0  0  0
 34 67  1  0  0  0  0
 34 78  2  0  0  0  0
 35 61  1  0  0  0  0
 35 73  1  0  0  0  0
 35 79  2  0  0  0  0
 36 68  1  0  0  0  0
 36 69  1  0  0  0  0
 36 80  2  0  0  0  0
 37 40  1  0  0  0  0
 38 50  1  0  0  0  0
 39 67  1  0  0  0  0
 40 42  1  0  0  0  0
 41 43  1  0  0  0  0
 41 44  1  0  0  0  0
 42 48  1  0  0  0  0
 43 51  1  0  0  0  0
 44 68  1  0  0  0  0
 45 49  1  0  0  0  0
 45 69  1  0  0  0  0
 46 49  1  0  0  0  0
 46 69  1  0  0  0  0
 47 51  1  0  0  0  0
 47 68  1  0  0  0  0
 48 72  1  0  0  0  0
 50 67  1  0  0  0  0
 51 66  1  0  0  0  0
 52 61  1  0  0  0  0
 53 62  1  0  0  0  0
 54 62  1  0  0  0  0
 55 62  1  0  0  0  0
 56 74  1  0  0  0  0
 57 75  1  0  0  0  0
 58 59  1  0  0  0  0
 58 75  1  0  0  0  0
 59 82  1  0  0  0  0
 60 62  1  0  0  0  0
 60 73  1  0  0  0  0
 61 74  1  0  0  0  0
 63 66  1  0  0  0  0
 64 65  1  0  0  0  0
M  CHG  2  74   1  75   1
M  ISO  4  36 100  59 101  69 100  82 101
M  END
> <Batch ID>
0197

> <Smiles>
CNC(C)C(=O)NC(C(=O)N1Cc2cc([101O:1][101CH2:1]CNCc3ccc(C4C[100N:0]([100C:0](=O)N5CCCC(n6nc(-c7ccc(Oc8ccc(F)cc8F)cc7)c(C(N)=O)c6N)C5)C4)nn3)ccc2CC1C(=O)NC1CCCc2ccccc21)C(C)(C)C

> <Shape>
0.220

> <Color>
0.103

> <Negative vol penalty>
0.000

$$$$

  -OEChem-04052323453D

 83 93  0     1  0  0  0  0  0999 V2000
  -16.3519  -27.6942   23.1413 C   0  0  0  0  0  0  0  0  0  0  0  0
  -16.1379  -26.3914   22.7029 C   0  0  0  0  0  0  0  0  0  0  0  0
  -27.8439  -25.3556   20.5335 C   0  0  0  0  0  0  0  0  0  0  0  0
  -29.8527  -25.8665   19.2922 C   0  0  0  0  0  0  0  0  0  0  0  0
  -17.6490  -28.2006   23.2116 C   0  0  0  0  0  0  0  0  0  0  0  0
  -17.2209  -25.5945   22.3335 C   0  0  0  0  0  0  0  0  0  0  0  0
  -19.3951  -18.7689   22.3582 C   0  0  0  0  0  0  0  0  0  0  0  0
  -28.0970  -26.4305   21.3856 C   0  0  0  0  0  0  0  0  0  0  0  0
  -30.1058  -26.9414   20.1443 C   0  0  0  0  0  0  0  0  0  0  0  0
  -19.9051  -17.7978   21.4975 C   0  0  0  0  0  0  0  0  0  0  0  0
  -27.7443  -29.7928   21.3265 C   0  0  0  0  0  0  0  0  0  0  0  0
  -26.6777  -30.6339   21.6434 C   0  0  0  0  0  0  0  0  0  0  0  0
  -22.1076  -18.7525   21.7351 C   0  0  0  0  0  0  0  0  0  0  0  0
  -26.9545  -30.1029   23.9841 C   0  0  0  0  0  0  0  0  0  0  0  0
  -28.7218  -25.0735   19.4868 C   0  0  0  0  0  0  0  0  0  0  0  0
  -27.7179  -23.9819   17.4112 C   0  0  0  0  0  0  0  0  0  0  0  0
  -18.7492  -27.4063   22.8520 C   0  0  0  0  0  0  0  0  0  0  0  0
  -20.2371  -19.7473   22.9061 C   0  0  0  0  0  0  0  0  0  0  0  0
  -18.5339  -26.0912   22.3977 C   0  0  0  0  0  0  0  0  0  0  0  0
  -21.6064  -19.7333   22.6045 C   0  0  0  0  0  0  0  0  0  0  0  0
  -29.2280  -27.2234   21.1910 C   0  0  0  0  0  0  0  0  0  0  0  0
  -21.2610  -17.7912   21.1836 C   0  0  0  0  0  0  0  0  0  0  0  0
  -28.4160  -29.1066   22.3383 C   0  0  0  0  0  0  0  0  0  0  0  0
  -26.2828  -30.7890   22.9722 C   0  0  0  0  0  0  0  0  0  0  0  0
  -28.0211  -29.2618   23.6671 C   0  0  0  0  0  0  0  0  0  0  0  0
  -28.4611  -23.9629   18.6066 C   0  0  0  0  0  0  0  0  0  0  0  0
  -27.7668  -22.6870   16.9559 C   0  0  0  0  0  0  0  0  0  0  0  0
  -24.3644  -13.4766   20.7828 C   0  0  0  0  0  0  0  0  0  0  0  0
  -27.0436  -25.0725   16.7697 C   0  0  0  0  0  0  0  0  0  0  0  0
  -20.3949  -22.9178   22.7431 C   0  0  0  0  0  0  0  0  0  0  0  0
  -22.7257  -22.5269   24.9649 C   0  0  0  0  0  0  0  0  0  0  0  0
  -25.0784  -20.4917   26.3686 C   0  0  0  0  0  0  0  0  0  0  0  0
  -28.5487  -17.5904   19.9413 C   0  0  0  0  0  0  0  0  0  0  0  0
  -20.1292  -28.0132   22.8996 C   0  0  0  0  0  0  0  0  0  0  0  0
  -19.6763  -20.7718   23.8540 C   0  0  0  0  0  0  0  0  0  0  0  0
  -22.5562  -20.7494   23.1825 C   0  0  0  0  0  0  0  0  0  0  0  0
  -21.2513  -26.9796   22.8464 C   0  0  0  0  0  0  0  0  0  0  0  0
  -30.4949  -18.7779   17.0404 C   0  0  0  0  0  0  0  0  0  0  0  0
  -20.9840  -25.9577   21.7459 C   0  0  0  0  0  0  0  0  0  0  0  0
  -30.1558  -20.2656   17.0488 C   0  0  0  0  0  0  0  0  0  0  0  0
  -21.8106  -13.0822   20.3330 C   0  0  0  0  0  0  0  0  0  0  0  0
  -28.8693  -13.8402   20.7222 C   0  0  0  0  0  0  0  0  0  0  0  0
  -30.5491  -18.1941   18.4516 C   0  0  0  0  0  0  0  0  0  0  0  0
  -28.9710  -19.9295   19.2530 C   0  0  0  0  0  0  0  0  0  0  0  0
  -19.6848  -25.1876   22.0118 C   0  0  1  0  0  0  0  0  0  0  0  0
  -22.8961  -13.8349   21.0717 C   0  0  2  0  0  0  0  0  0  0  0  0
  -20.5327  -22.0308   23.9480 C   0  0  1  0  0  0  0  0  0  0  0  0
  -22.0920  -14.5129   19.9820 C   0  0  2  0  0  0  0  0  0  0  0  0
  -28.8642  -20.5230   17.8399 C   0  0  1  0  0  0  0  0  0  0  0  0
  -27.6394  -14.0877   19.8829 C   0  0  2  0  0  0  0  0  0  0  0  0
  -28.3012  -15.2258   20.6337 C   0  0  2  0  0  0  0  0  0  0  0  0
  -26.8551  -20.4644   28.1406 C   0  0  0  0  0  0  0  0  0  0  0  0
  -24.5535  -24.1670   23.1541 C   0  0  0  0  0  0  0  0  0  0  0  0
  -26.5057  -23.3152   24.4700 C   0  0  0  0  0  0  0  0  0  0  0  0
  -24.7541  -24.6930   25.5908 C   0  0  0  0  0  0  0  0  0  0  0  0
  -23.7319  -18.3111   27.8487 C   0  0  0  0  0  0  0  0  0  0  0  0
  -21.1084  -15.5760   20.3318 C   0  0  0  0  0  0  0  0  0  1  0  0
  -24.2197  -22.3144   24.9211 C   0  0  1  0  0  0  0  0  0  0  0  0
  -25.3981  -20.1716   27.8176 C   0  0  2  0  0  0  0  0  0  0  0  0
  -24.9903  -23.6043   24.5215 C   0  0  0  0  0  0  0  0  0  0  0  0
  -28.9466  -22.7520   18.8928 N   0  0  0  0  0  0  0  0  0  0  0  0
  -24.8554  -12.2096   20.8930 N   0  0  0  0  0  0  0  0  0  0  0  0
  -25.2699  -14.3808   20.4008 N   0  0  0  0  0  0  0  0  0  0  0  0
  -26.1403  -12.2860   20.5691 N   0  0  0  0  0  0  0  0  0  0  0  0
  -28.5073  -21.9979   17.8708 N   0  0  0  0  0  0  0  0  0  0  0  0
  -26.3397  -13.5812   20.2876 N   0  0  0  0  0  0  0  0  0  0  0  0
  -21.9587  -21.7344   24.0991 N   0  0  0  0  0  0  0  0  0  0  0  0
  -29.3298  -18.5064   19.2136 N   0  0  0  0  0  0  0  0  0  0  0  0
  -27.2482  -22.0819   15.8662 N   0  0  0  0  0  0  0  0  0  0  0  0
  -27.0938  -26.3367   17.3728 N   0  0  0  0  0  0  0  0  0  0  0  0
  -19.8956  -24.1752   23.0243 N   0  0  0  0  0  0  0  0  0  0  0  0
  -24.5936  -21.7744   26.2239 N   0  0  0  0  0  0  0  0  0  0  0  0
  -28.9926  -16.2729   19.9302 N   0  0  0  0  0  0  0  0  0  0  0  0
  -25.1340  -18.7325   28.1006 N   0  3  0  0  0  0  0  0  0  0  0  0
  -26.4013  -24.9267   15.7021 O   0  0  0  0  0  0  0  0  0  0  0  0
  -20.7190  -22.4934   21.6401 O   0  0  0  0  0  0  0  0  0  0  0  0
  -22.2560  -23.3600   25.7439 O   0  0  0  0  0  0  0  0  0  0  0  0
  -25.2457  -19.6859   25.4558 O   0  0  0  0  0  0  0  0  0  0  0  0
  -27.5321  -17.9213   20.5615 O   0  0  0  0  0  0  0  0  0  0  0  0
  -29.4752  -28.2726   22.0222 O   0  0  0  0  0  0  0  0  0  0  0  0
  -21.7612  -16.8449   20.3432 O   0  0  0  0  0  0  0  0  0  1  0  0
  -25.2595  -31.5980   23.2765 F   0  0  0  0  0  0  0  0  0  0  0  0
  -28.6633  -28.6061   24.6436 F   0  0  0  0  0  0  0  0  0  0  0  0
  1  2  1  0  0  0  0
  1  5  2  0  0  0  0
  2  6  2  0  0  0  0
  3  8  2  0  0  0  0
  3 15  1  0  0  0  0
  4  9  1  0  0  0  0
  4 15  2  0  0  0  0
  5 17  1  0  0  0  0
  6 19  1  0  0  0  0
  7 10  2  0  0  0  0
  7 18  1  0  0  0  0
  8 21  1  0  0  0  0
  9 21  2  0  0  0  0
 10 22  1  0  0  0  0
 11 12  2  0  0  0  0
 11 23  1  0  0  0  0
 12 24  1  0  0  0  0
 13 20  1  0  0  0  0
 13 22  2  0  0  0  0
 14 24  2  0  0  0  0
 14 25  1  0  0  0  0
 15 26  1  0  0  0  0
 16 26  1  0  0  0  0
 16 27  2  0  0  0  0
 16 29  1  0  0  0  0
 17 19  2  0  0  0  0
 17 34  1  0  0  0  0
 18 20  2  0  0  0  0
 18 35  1  0  0  0  0
 19 45  1  0  0  0  0
 20 36  1  0  0  0  0
 21 80  1  0  0  0  0
 22 81  1  0  0  0  0
 23 25  2  0  0  0  0
 23 80  1  0  0  0  0
 24 82  1  0  0  0  0
 25 83  1  0  0  0  0
 26 61  2  0  0  0  0
 27 65  1  0  0  0  0
 27 69  1  0  0  0  0
 28 46  1  0  0  0  0
 28 62  1  0  0  0  0
 28 63  2  0  0  0  0
 29 70  1  0  0  0  0
 29 75  2  0  0  0  0
 30 47  1  0  0  0  0
 30 71  1  0  0  0  0
 30 76  2  0  0  0  0
 31 58  1  0  0  0  0
 31 67  1  0  0  0  0
 31 77  2  0  0  0  0
 32 59  1  0  0  0  0
 32 72  1  0  0  0  0
 32 78  2  0  0  0  0
 33 68  1  0  0  0  0
 33 73  1  0  0  0  0
 33 79  2  0  0  0  0
 34 37  1  0  0  0  0
 35 47  1  0  0  0  0
 36 67  1  0  0  0  0
 37 39  1  0  0  0  0
 38 40  1  0  0  0  0
 38 43  1  0  0  0  0
 39 45  1  0  0  0  0
 40 49  1  0  0  0  0
 41 46  1  0  0  0  0
 41 48  1  0  0  0  0
 42 50  1  0  0  0  0
 42 51  1  0  0  0  0
 43 68  1  0  0  0  0
 44 49  1  0  0  0  0
 44 68  1  0  0  0  0
 45 71  1  0  0  0  0
 46 48  1  0  0  0  0
 47 67  1  0  0  0  0
 48 57  1  0  0  0  0
 49 65  1  0  0  0  0
 50 51  1  0  0  0  0
 50 66  1  0  0  0  0
 51 73  1  0  0  0  0
 52 59  1  0  0  0  0
 53 60  1  0  0  0  0
 54 60  1  0  0  0  0
 55 60  1  0  0  0  0
 56 74  1  0  0  0  0
 57 81  1  0  0  0  0
 58 60  1  0  0  0  0
 58 72  1  0  0  0  0
 59 74  1  0  0  0  0
 61 65  1  0  0  0  0
 62 64  2  0  0  0  0
 63 66  1  0  0  0  0
 64 66  1  0  0  0  0
M  CHG  1  74   1
M  ISO  4  33 100  57 101  73 100  81 101
M  END
> <Batch ID>
0197

> <Smiles>
CNC(C)C(=O)NC(C(=O)N1Cc2cc([101O:1][101CH2:1]C3CC3c3nnn(C4CC4[100NH:0][100C:0](=O)N4CCCC(n5nc(-c6ccc(Oc7ccc(F)cc7F)cc6)c(C(N)=O)c5N)C4)n3)ccc2CC1C(=O)NC1CCCc2ccccc21)C(C)(C)C

> <Shape>
0.212

> <Color>
0.062

> <Negative vol penalty>
0.000

$$$$

  -OEChem-04052323453D

 87 97  0     1  0  0  0  0  0999 V2000
  -30.5015  -23.2194   18.6430 C   0  0  0  0  0  0  0  0  0  0  0  0
  -29.1925  -23.3572   19.0933 C   0  0  0  0  0  0  0  0  0  0  0  0
  -23.8339   -9.9423   22.1552 C   0  0  0  0  0  0  0  0  0  0  0  0
  -22.3720  -10.2263   20.2527 C   0  0  0  0  0  0  0  0  0  0  0  0
  -31.5239  -23.9560   19.2397 C   0  0  0  0  0  0  0  0  0  0  0  0
  -28.9052  -24.2309   20.1414 C   0  0  0  0  0  0  0  0  0  0  0  0
  -24.8028  -27.0606   19.2428 C   0  0  0  0  0  0  0  0  0  0  0  0
  -23.4738   -8.5969   22.2311 C   0  0  0  0  0  0  0  0  0  0  0  0
  -22.0119   -8.8809   20.3286 C   0  0  0  0  0  0  0  0  0  0  0  0
  -23.5599  -26.4537   19.4177 C   0  0  0  0  0  0  0  0  0  0  0  0
  -20.8727   -6.7767   23.3910 C   0  0  0  0  0  0  0  0  0  0  0  0
  -20.5752   -6.2562   24.6504 C   0  0  0  0  0  0  0  0  0  0  0  0
  -23.3571  -27.5055   21.5791 C   0  0  0  0  0  0  0  0  0  0  0  0
  -22.3662   -4.6524   24.4106 C   0  0  0  0  0  0  0  0  0  0  0  0
  -23.2829  -10.7571   21.1660 C   0  0  0  0  0  0  0  0  0  0  0  0
  -24.7184  -12.7026   20.3523 C   0  0  0  0  0  0  0  0  0  0  0  0
  -31.2476  -24.8464   20.2892 C   0  0  0  0  0  0  0  0  0  0  0  0
  -25.3380  -27.8873   20.2411 C   0  0  0  0  0  0  0  0  0  0  0  0
  -29.9251  -24.9791   20.7536 C   0  0  0  0  0  0  0  0  0  0  0  0
  -24.6059  -28.1238   21.4133 C   0  0  0  0  0  0  0  0  0  0  0  0
  -22.5628   -8.0662   21.3178 C   0  0  0  0  0  0  0  0  0  0  0  0
  -22.8381  -26.6738   20.5872 C   0  0  0  0  0  0  0  0  0  0  0  0
  -21.9168   -6.2350   22.6413 C   0  0  0  0  0  0  0  0  0  0  0  0
  -21.3220   -5.1941   25.1603 C   0  0  0  0  0  0  0  0  0  0  0  0
  -22.6636   -5.1729   23.1511 C   0  0  0  0  0  0  0  0  0  0  0  0
  -23.6541  -12.1471   21.0875 C   0  0  0  0  0  0  0  0  0  0  0  0
  -24.6459  -14.0501   20.6081 C   0  0  0  0  0  0  0  0  0  0  0  0
  -21.6163  -23.3726   24.8382 C   0  0  0  0  0  0  0  0  0  0  0  0
  -22.2226  -22.6040   23.9238 C   0  0  0  0  0  0  0  0  0  0  0  0
  -21.8332  -22.7849   22.4952 C   0  0  0  0  0  0  0  0  0  0  0  0
  -20.3207  -24.4808   23.3524 C   0  0  0  0  0  0  0  0  0  0  0  0
  -25.6860  -12.0581   19.5132 C   0  0  0  0  0  0  0  0  0  0  0  0
  -27.9366  -27.8017   22.0696 C   0  0  0  0  0  0  0  0  0  0  0  0
  -26.9096  -30.7373   22.9915 C   0  0  0  0  0  0  0  0  0  0  0  0
  -24.3093  -32.9201   23.3383 C   0  0  0  0  0  0  0  0  0  0  0  0
  -24.1295  -18.0253   24.5094 C   0  0  0  0  0  0  0  0  0  0  0  0
  -32.3929  -25.5859   20.9343 C   0  0  0  0  0  0  0  0  0  0  0  0
  -26.6680  -28.5559   20.0257 C   0  0  0  0  0  0  0  0  0  0  0  0
  -25.1270  -29.0189   22.5067 C   0  0  0  0  0  0  0  0  0  0  0  0
  -31.9488  -26.7694   21.7901 C   0  0  0  0  0  0  0  0  0  0  0  0
  -21.0450  -16.7933   22.8577 C   0  0  0  0  0  0  0  0  0  0  0  0
  -30.7887  -26.3679   22.6955 C   0  0  0  0  0  0  0  0  0  0  0  0
  -17.8539  -25.0871   22.9911 C   0  0  0  0  0  0  0  0  0  0  0  0
  -18.3288  -25.8691   24.1786 C   0  0  0  0  0  0  0  0  0  0  0  0
  -21.5428  -15.4928   22.2253 C   0  0  0  0  0  0  0  0  0  0  0  0
  -23.5368  -21.4600   25.7513 C   0  0  0  0  0  0  0  0  0  0  0  0
  -21.8040  -17.1004   24.1421 C   0  0  0  0  0  0  0  0  0  0  0  0
  -24.2095  -20.1003   25.8583 C   0  0  0  0  0  0  0  0  0  0  0  0
  -22.8498  -20.1560   23.8815 C   0  0  0  0  0  0  0  0  0  0  0  0
  -23.7895  -15.8735   23.3491 C   0  0  0  0  0  0  0  0  0  0  0  0
  -29.5700  -25.9352   21.8716 C   0  0  1  0  0  0  0  0  0  0  0  0
  -23.2584  -21.5836   24.2512 C   0  0  1  0  0  0  0  0  0  0  0  0
  -19.2809  -25.5157   23.0844 C   0  0  0  0  0  0  0  0  0  0  0  0
  -27.3474  -28.9680   21.3279 C   0  0  1  0  0  0  0  0  0  0  0  0
  -23.0705  -15.5146   22.0364 C   0  0  1  0  0  0  0  0  0  0  0  0
  -23.7729  -35.2309   24.1568 C   0  0  0  0  0  0  0  0  0  0  0  0
  -27.0742  -29.7517   25.8745 C   0  0  0  0  0  0  0  0  0  0  0  0
  -25.6603  -31.7046   26.5494 C   0  0  0  0  0  0  0  0  0  0  0  0
  -27.9009  -32.0854   25.5210 C   0  0  0  0  0  0  0  0  0  0  0  0
  -23.3864  -33.7797   20.6609 C   0  0  0  0  0  0  0  0  0  0  0  0
  -20.4057  -24.0112   20.9142 C   0  0  0  0  0  0  0  0  0  0  0  0
  -21.4196  -24.8214   20.1264 C   0  0  0  0  0  0  0  0  0  1  0  0
  -25.9981  -31.2592   24.0758 C   0  0  1  0  0  0  0  0  0  0  0  0
  -24.1638  -34.3822   22.9569 C   0  0  2  0  0  0  0  0  0  0  0  0
  -26.6492  -31.1818   25.4856 C   0  0  0  0  0  0  0  0  0  0  0  0
  -22.9567  -13.0666   21.7600 N   0  0  0  0  0  0  0  0  0  0  0  0
  -20.6628  -24.3204   24.5919 N   0  0  0  0  0  0  0  0  0  0  0  0
  -23.5842  -14.2135   21.4485 N   0  0  0  0  0  0  0  0  0  0  0  0
  -20.8551  -23.7607   22.2816 N   0  0  0  0  0  0  0  0  0  0  0  0
  -26.4350  -29.6448   22.2519 N   0  0  0  0  0  0  0  0  0  0  0  0
  -23.2514  -17.1135   23.9126 N   0  0  0  0  0  0  0  0  0  0  0  0
  -23.6500  -19.3084   24.7684 N   0  0  0  0  0  0  0  0  0  0  0  0
  -25.3876  -15.0993   20.1939 N   0  0  0  0  0  0  0  0  0  0  0  0
  -25.6163  -10.6667   19.3599 N   0  0  0  0  0  0  0  0  0  0  0  0
  -28.8775  -27.0928   21.3473 N   0  0  0  0  0  0  0  0  0  0  0  0
  -25.6103  -32.6058   23.6699 N   0  0  0  0  0  0  0  0  0  0  0  0
  -23.1179  -34.5422   21.9074 N   0  3  0  0  0  0  0  0  0  0  0  0
  -22.3647  -22.1023   21.6217 O   0  0  0  0  0  0  0  0  0  0  0  0
  -26.5956  -12.6952   18.9300 O   0  0  0  0  0  0  0  0  0  0  0  0
  -27.5661  -27.5634   23.2132 O   0  0  0  0  0  0  0  0  0  0  0  0
  -27.9995  -31.2834   22.8029 O   0  0  0  0  0  0  0  0  0  0  0  0
  -23.3628  -32.1361   23.3453 O   0  0  0  0  0  0  0  0  0  0  0  0
  -25.3046  -17.7218   24.7548 O   0  0  0  0  0  0  0  0  0  0  0  0
  -22.2114   -6.7533   21.3914 O   0  0  0  0  0  0  0  0  0  0  0  0
  -21.6165  -26.0779   20.7619 O   0  0  0  0  0  0  0  0  0  1  0  0
  -21.0372   -4.6954   26.3704 F   0  0  0  0  0  0  0  0  0  0  0  0
  -23.6686   -4.6491   22.4361 F   0  0  0  0  0  0  0  0  0  0  0  0
  1  2  1  0  0  0  0
  1  5  2  0  0  0  0
  2  6  2  0  0  0  0
  3  8  2  0  0  0  0
  3 15  1  0  0  0  0
  4  9  1  0  0  0  0
  4 15  2  0  0  0  0
  5 17  1  0  0  0  0
  6 19  1  0  0  0  0
  7 10  2  0  0  0  0
  7 18  1  0  0  0  0
  8 21  1  0  0  0  0
  9 21  2  0  0  0  0
 10 22  1  0  0  0  0
 11 12  2  0  0  0  0
 11 23  1  0  0  0  0
 12 24  1  0  0  0  0
 13 20  1  0  0  0  0
 13 22  2  0  0  0  0
 14 24  2  0  0  0  0
 14 25  1  0  0  0  0
 15 26  1  0  0  0  0
 16 26  1  0  0  0  0
 16 27  2  0  0  0  0
 16 32  1  0  0  0  0
 17 19  2  0  0  0  0
 17 37  1  0  0  0  0
 18 20  2  0  0  0  0
 18 38  1  0  0  0  0
 19 51  1  0  0  0  0
 20 39  1  0  0  0  0
 21 84  1  0  0  0  0
 22 85  1  0  0  0  0
 23 25  2  0  0  0  0
 23 84  1  0  0  0  0
 24 86  1  0  0  0  0
 25 87  1  0  0  0  0
 26 66  2  0  0  0  0
 27 68  1  0  0  0  0
 27 73  1  0  0  0  0
 28 29  2  0  0  0  0
 28 67  1  0  0  0  0
 29 30  1  0  0  0  0
 29 52  1  0  0  0  0
 30 69  1  0  0  0  0
 30 78  2  0  0  0  0
 31 53  1  0  0  0  0
 31 67  2  0  0  0  0
 31 69  1  0  0  0  0
 32 74  1  0  0  0  0
 32 79  2  0  0  0  0
 33 54  1  0  0  0  0
 33 75  1  0  0  0  0
 33 80  2  0  0  0  0
 34 63  1  0  0  0  0
 34 70  1  0  0  0  0
 34 81  2  0  0  0  0
 35 64  1  0  0  0  0
 35 76  1  0  0  0  0
 35 82  2  0  0  0  0
 36 71  1  0  0  0  0
 36 72  1  0  0  0  0
 36 83  2  0  0  0  0
 37 40  1  0  0  0  0
 38 54  1  0  0  0  0
 39 70  1  0  0  0  0
 40 42  1  0  0  0  0
 41 45  1  0  0  0  0
 41 47  1  0  0  0  0
 42 51  1  0  0  0  0
 43 44  1  0  0  0  0
 43 53  1  0  0  0  0
 44 53  1  0  0  0  0
 45 55  1  0  0  0  0
 46 48  1  0  0  0  0
 46 52  1  0  0  0  0
 47 71  1  0  0  0  0
 48 72  1  0  0  0  0
 49 52  1  0  0  0  0
 49 72  1  0  0  0  0
 50 55  1  0  0  0  0
 50 71  1  0  0  0  0
 51 75  1  0  0  0  0
 54 70  1  0  0  0  0
 55 68  1  0  0  0  0
 56 64  1  0  0  0  0
 57 65  1  0  0  0  0
 58 65  1  0  0  0  0
 59 65  1  0  0  0  0
 60 77  1  0  0  0  0
 61 62  1  0  0  0  0
 61 69  1  0  0  0  0
 62 85  1  0  0  0  0
 63 65  1  0  0  0  0
 63 76  1  0  0  0  0
 64 77  1  0  0  0  0
 66 68  1  0  0  0  0
M  CHG  1  77   1
M  ISO  4  36 100  62 101  72 100  85 101
M  END
> <Batch ID>
0197

> <Smiles>
CNC(C)C(=O)NC(C(=O)N1Cc2cc([101O:1][101CH2:1]Cn3c(C4CC4)ncc(C4CC[100N:0]([100C:0](=O)N5CCCC(n6nc(-c7ccc(Oc8ccc(F)cc8F)cc7)c(C(N)=O)c6N)C5)C4)c3=O)ccc2CC1C(=O)NC1CCCc2ccccc21)C(C)(C)C

> <Shape>
0.269

> <Color>
0.126

> <Negative vol penalty>
0.000

$$$$

  -OEChem-04052323453D

 87 97  0     1  0  0  0  0  0999 V2000
  -30.2314  -30.8738   25.9940 C   0  0  0  0  0  0  0  0  0  0  0  0
  -29.7444  -29.9717   25.0536 C   0  0  0  0  0  0  0  0  0  0  0  0
  -25.0671   -7.7518   21.2732 C   0  0  0  0  0  0  0  0  0  0  0  0
  -24.0111   -9.8747   21.7372 C   0  0  0  0  0  0  0  0  0  0  0  0
  -29.3435  -31.6322   26.7558 C   0  0  0  0  0  0  0  0  0  0  0  0
  -28.3690  -29.8267   24.8752 C   0  0  0  0  0  0  0  0  0  0  0  0
  -27.0468  -29.6981   19.9884 C   0  0  0  0  0  0  0  0  0  0  0  0
  -24.3284   -7.1603   22.2979 C   0  0  0  0  0  0  0  0  0  0  0  0
  -23.2723   -9.2832   22.7620 C   0  0  0  0  0  0  0  0  0  0  0  0
  -27.2544  -28.5014   19.3039 C   0  0  0  0  0  0  0  0  0  0  0  0
  -21.1834   -6.0058   22.7551 C   0  0  0  0  0  0  0  0  0  0  0  0
  -20.5851   -4.7730   22.4946 C   0  0  0  0  0  0  0  0  0  0  0  0
  -24.9203  -27.9523   19.5681 C   0  0  0  0  0  0  0  0  0  0  0  0
  -21.8548   -3.7771   24.2927 C   0  0  0  0  0  0  0  0  0  0  0  0
  -28.0538  -18.2834   20.8156 C   0  0  0  0  0  0  0  0  0  0  0  0
  -24.9085   -9.1090   20.9928 C   0  0  0  0  0  0  0  0  0  0  0  0
  -25.3065   -9.8354   18.5801 C   0  0  0  0  0  0  0  0  0  0  0  0
  -27.9567  -31.5035   26.5798 C   0  0  0  0  0  0  0  0  0  0  0  0
  -25.7745  -30.0264   20.4783 C   0  0  0  0  0  0  0  0  0  0  0  0
  -27.4617  -30.5832   25.6363 C   0  0  0  0  0  0  0  0  0  0  0  0
  -24.6986  -29.1550   20.2563 C   0  0  0  0  0  0  0  0  0  0  0  0
  -29.1678  -19.0719   20.6998 C   0  0  0  0  0  0  0  0  0  0  0  0
  -23.4310   -7.9260   23.0423 C   0  0  0  0  0  0  0  0  0  0  0  0
  -26.1917  -27.6270   19.0961 C   0  0  0  0  0  0  0  0  0  0  0  0
  -22.1174   -6.1243   23.7843 C   0  0  0  0  0  0  0  0  0  0  0  0
  -20.9208   -3.6586   23.2634 C   0  0  0  0  0  0  0  0  0  0  0  0
  -22.4531   -5.0099   24.5531 C   0  0  0  0  0  0  0  0  0  0  0  0
  -25.6717   -9.7207   19.9348 C   0  0  0  0  0  0  0  0  0  0  0  0
  -30.3541  -18.4044   20.4555 C   0  0  0  0  0  0  0  0  0  0  0  0
  -26.3624  -10.4897   17.9941 C   0  0  0  0  0  0  0  0  0  0  0  0
  -29.3291  -16.4109   20.4611 C   0  0  0  0  0  0  0  0  0  0  0  0
  -24.1190   -9.3904   17.9112 C   0  0  0  0  0  0  0  0  0  0  0  0
  -24.5485  -30.5515   23.3636 C   0  0  0  0  0  0  0  0  0  0  0  0
  -21.9024  -31.3509   21.6660 C   0  0  0  0  0  0  0  0  0  0  0  0
  -20.1151  -31.0505   18.7743 C   0  0  0  0  0  0  0  0  0  0  0  0
  -30.5258  -14.2241   20.0979 C   0  0  0  0  0  0  0  0  0  0  0  0
  -27.0353  -32.3105   27.4598 C   0  0  0  0  0  0  0  0  0  0  0  0
  -25.5614  -31.3335   21.1913 C   0  0  0  0  0  0  0  0  0  0  0  0
  -23.3090  -29.4702   20.7442 C   0  0  0  0  0  0  0  0  0  0  0  0
  -31.4683  -19.4033   20.3302 C   0  0  0  0  0  0  0  0  0  0  0  0
  -25.5990  -32.3690   26.9462 C   0  0  0  0  0  0  0  0  0  0  0  0
  -31.0883  -11.1235   18.4403 C   0  0  0  0  0  0  0  0  0  0  0  0
  -25.1213  -30.9793   26.5370 C   0  0  0  0  0  0  0  0  0  0  0  0
  -29.7282  -10.4249   18.5068 C   0  0  0  0  0  0  0  0  0  0  0  0
  -30.7693  -20.6918   20.8190 C   0  0  0  0  0  0  0  0  0  0  0  0
  -31.3782  -11.9224   19.7098 C   0  0  0  0  0  0  0  0  0  0  0  0
  -28.9701  -12.1769   20.1630 C   0  0  0  0  0  0  0  0  0  0  0  0
  -28.2573  -22.7438   19.1263 C   0  0  0  0  0  0  0  0  0  0  0  0
  -27.2294  -23.6140   20.7232 C   0  0  0  0  0  0  0  0  0  0  0  0
  -25.9770  -30.4155   25.3962 C   0  0  1  0  0  0  0  0  0  0  0  0
  -24.3324  -31.3276   22.0952 C   0  0  1  0  0  0  0  0  0  0  0  0
  -28.4697  -22.6980   20.6543 C   0  0  0  0  0  0  0  0  0  0  0  0
  -28.6052  -11.4123   18.8800 C   0  0  2  0  0  0  0  0  0  0  0  0
  -17.9732  -31.7906   17.6965 C   0  0  0  0  0  0  0  0  0  0  0  0
  -20.3546  -29.3538   23.3764 C   0  0  0  0  0  0  0  0  0  0  0  0
  -18.5167  -29.4297   21.6780 C   0  0  0  0  0  0  0  0  0  0  0  0
  -19.1468  -31.4965   22.9245 C   0  0  0  0  0  0  0  0  0  0  0  0
  -21.5561  -32.4226   16.5834 C   0  0  0  0  0  0  0  0  0  0  0  0
  -28.3569  -21.3432   21.3202 C   0  0  0  0  0  0  0  0  0  0  0  0
  -26.2845  -24.0569   18.5073 C   0  0  0  0  0  0  0  0  0  0  0  0
  -25.5551  -25.3572   18.7819 C   0  0  0  0  0  0  0  0  0  1  0  0
  -20.7011  -30.6013   21.1427 C   0  0  1  0  0  0  0  0  0  0  0  0
  -19.4521  -32.0890   17.8875 C   0  0  2  0  0  0  0  0  0  0  0  0
  -19.7063  -30.2132   22.2728 C   0  0  0  0  0  0  0  0  0  0  0  0
  -28.1037  -16.9364   20.7020 N   0  0  0  0  0  0  0  0  0  0  0  0
  -26.8663  -10.2588   20.1942 N   0  0  0  0  0  0  0  0  0  0  0  0
  -30.4919  -17.0781   20.3235 N   0  0  0  0  0  0  0  0  0  0  0  0
  -27.2610  -10.7179   18.9944 N   0  0  0  0  0  0  0  0  0  0  0  0
  -29.3305  -20.4351   20.7724 N   0  0  2  0  0  0  0  0  0  0  0  0
  -23.1527  -30.7574   21.4415 N   0  0  0  0  0  0  0  0  0  0  0  0
  -30.2734  -12.8394   19.9984 N   0  0  0  0  0  0  0  0  0  0  0  0
  -26.6007  -10.8862   16.7259 N   0  0  0  0  0  0  0  0  0  0  0  0
  -23.1342   -8.7353   18.6631 N   0  0  0  0  0  0  0  0  0  0  0  0
  -29.3936  -15.0004   20.3427 N   0  0  0  0  0  0  0  0  0  0  0  0
  -25.5968  -31.0153   24.1353 N   0  0  0  0  0  0  0  0  0  0  0  0
  -20.1214  -31.4380   20.0976 N   0  0  0  0  0  0  0  0  0  0  0  0
  -27.5190  -24.0043   19.3305 N   0  3  0  0  0  0  0  0  0  0  0  0
  -20.1028  -32.1169   16.5470 N   0  3  0  0  0  0  0  0  0  0  0  0
  -23.9438   -9.5538   16.6799 O   0  0  0  0  0  0  0  0  0  0  0  0
  -23.8173  -29.6031   23.6236 O   0  0  0  0  0  0  0  0  0  0  0  0
  -21.7382  -32.4271   22.2462 O   0  0  0  0  0  0  0  0  0  0  0  0
  -20.5777  -29.9990   18.3374 O   0  0  0  0  0  0  0  0  0  0  0  0
  -31.6584  -14.6897   19.9479 O   0  0  0  0  0  0  0  0  0  0  0  0
  -22.7099   -7.3491   24.0421 O   0  0  0  0  0  0  0  0  0  0  0  0
  -26.3918  -26.4580   18.4289 O   0  0  0  0  0  0  0  0  0  1  0  0
  -20.3451   -2.4752   23.0142 F   0  0  0  0  0  0  0  0  0  0  0  0
  -23.3488   -5.1178   25.5440 F   0  0  0  0  0  0  0  0  0  0  0  0
  1  2  1  0  0  0  0
  1  5  2  0  0  0  0
  2  6  2  0  0  0  0
  3  8  2  0  0  0  0
  3 16  1  0  0  0  0
  4  9  1  0  0  0  0
  4 16  2  0  0  0  0
  5 18  1  0  0  0  0
  6 20  1  0  0  0  0
  7 10  2  0  0  0  0
  7 19  1  0  0  0  0
  8 23  1  0  0  0  0
  9 23  2  0  0  0  0
 10 24  1  0  0  0  0
 11 12  2  0  0  0  0
 11 25  1  0  0  0  0
 12 26  1  0  0  0  0
 13 21  1  0  0  0  0
 13 24  2  0  0  0  0
 14 26  2  0  0  0  0
 14 27  1  0  0  0  0
 15 22  1  0  0  0  0
 15 65  2  0  0  0  0
 16 28  1  0  0  0  0
 17 28  1  0  0  0  0
 17 30  2  0  0  0  0
 17 32  1  0  0  0  0
 18 20  2  0  0  0  0
 18 37  1  0  0  0  0
 19 21  2  0  0  0  0
 19 38  1  0  0  0  0
 20 50  1  0  0  0  0
 21 39  1  0  0  0  0
 22 29  2  0  0  0  0
 22 69  1  0  0  0  0
 23 84  1  0  0  0  0
 24 85  1  0  0  0  0
 25 27  2  0  0  0  0
 25 84  1  0  0  0  0
 26 86  1  0  0  0  0
 27 87  1  0  0  0  0
 28 66  2  0  0  0  0
 29 40  1  0  0  0  0
 29 67  1  0  0  0  0
 30 68  1  0  0  0  0
 30 72  1  0  0  0  0
 31 65  1  0  0  0  0
 31 67  2  0  0  0  0
 31 74  1  0  0  0  0
 32 73  1  0  0  0  0
 32 79  2  0  0  0  0
 33 51  1  0  0  0  0
 33 75  1  0  0  0  0
 33 80  2  0  0  0  0
 34 62  1  0  0  0  0
 34 70  1  0  0  0  0
 34 81  2  0  0  0  0
 35 63  1  0  0  0  0
 35 76  1  0  0  0  0
 35 82  2  0  0  0  0
 36 71  1  0  0  0  0
 36 74  1  0  0  0  0
 36 83  2  0  0  0  0
 37 41  1  0  0  0  0
 38 51  1  0  0  0  0
 39 70  1  0  0  0  0
 40 45  1  0  0  0  0
 41 43  1  0  0  0  0
 42 44  1  0  0  0  0
 42 46  1  0  0  0  0
 43 50  1  0  0  0  0
 44 53  1  0  0  0  0
 45 69  1  0  0  0  0
 46 71  1  0  0  0  0
 47 53  1  0  0  0  0
 47 71  1  0  0  0  0
 48 52  1  0  0  0  0
 48 77  1  0  0  0  0
 49 52  1  0  0  0  0
 49 77  1  0  0  0  0
 50 75  1  0  0  0  0
 51 70  1  0  0  0  0
 52 59  1  0  0  0  0
 53 68  1  0  0  0  0
 54 63  1  0  0  0  0
 55 64  1  0  0  0  0
 56 64  1  0  0  0  0
 57 64  1  0  0  0  0
 58 78  1  0  0  0  0
 59 69  1  0  0  0  0
 60 61  1  0  0  0  0
 60 77  1  0  0  0  0
 61 85  1  0  0  0  0
 62 64  1  0  0  0  0
 62 76  1  0  0  0  0
 63 78  1  0  0  0  0
 66 68  1  0  0  0  0
M  CHG  2  77   1  78   1
M  ISO  4  36 100  61 101  74 100  85 101
M  END
> <Batch ID>
0197

> <Smiles>
CNC(C)C(=O)NC(C(=O)N1Cc2cc([101O:1][101CH2:1]CN3CC(CN4CCc5nc([100NH:0][100C:0](=O)N6CCCC(n7nc(-c8ccc(Oc9ccc(F)cc9F)cc8)c(C(N)=O)c7N)C6)ncc54)C3)ccc2CC1C(=O)NC1CCCc2ccccc21)C(C)(C)C

> <Shape>
0.300

> <Color>
0.084

> <Negative vol penalty>
0.000

$$$$

  -OEChem-04052323453D

 87 97  0     1  0  0  0  0  0999 V2000
  -25.5292  -20.1421   15.4253 C   0  0  0  0  0  0  0  0  0  0  0  0
  -26.5803  -19.4375   16.0032 C   0  0  0  0  0  0  0  0  0  0  0  0
  -26.4039  -27.6163   21.7214 C   0  0  0  0  0  0  0  0  0  0  0  0
  -27.9266  -29.0864   20.5563 C   0  0  0  0  0  0  0  0  0  0  0  0
  -24.2397  -20.0149   15.9401 C   0  0  0  0  0  0  0  0  0  0  0  0
  -26.3428  -18.6060   17.0971 C   0  0  0  0  0  0  0  0  0  0  0  0
  -29.1495  -13.3158   18.3784 C   0  0  0  0  0  0  0  0  0  0  0  0
  -26.1857  -28.6037   22.6822 C   0  0  0  0  0  0  0  0  0  0  0  0
  -27.7083  -30.0739   21.5171 C   0  0  0  0  0  0  0  0  0  0  0  0
  -30.1991  -12.9951   19.2382 C   0  0  0  0  0  0  0  0  0  0  0  0
  -27.7820  -29.8345   25.3954 C   0  0  0  0  0  0  0  0  0  0  0  0
  -27.7955  -29.4480   26.7355 C   0  0  0  0  0  0  0  0  0  0  0  0
  -28.6067  -12.3507   20.9319 C   0  0  0  0  0  0  0  0  0  0  0  0
  -25.5193  -30.2197   26.9811 C   0  0  0  0  0  0  0  0  0  0  0  0
  -33.7378  -13.9264   22.1933 C   0  0  0  0  0  0  0  0  0  0  0  0
  -27.2744  -27.8577   20.6585 C   0  0  0  0  0  0  0  0  0  0  0  0
  -26.7808  -26.6383   18.4729 C   0  0  0  0  0  0  0  0  0  0  0  0
  -23.9846  -19.1740   17.0349 C   0  0  0  0  0  0  0  0  0  0  0  0
  -27.8184  -13.1665   18.7934 C   0  0  0  0  0  0  0  0  0  0  0  0
  -25.0489  -18.4685   17.6279 C   0  0  0  0  0  0  0  0  0  0  0  0
  -27.5421  -12.6679   20.0745 C   0  0  0  0  0  0  0  0  0  0  0  0
  -33.9907  -15.2678   22.0414 C   0  0  0  0  0  0  0  0  0  0  0  0
  -26.8379  -29.8325   22.5800 C   0  0  0  0  0  0  0  0  0  0  0  0
  -29.9278  -12.5152   20.5162 C   0  0  0  0  0  0  0  0  0  0  0  0
  -26.6371  -30.4137   24.8481 C   0  0  0  0  0  0  0  0  0  0  0  0
  -26.6642  -29.6405   27.5284 C   0  0  0  0  0  0  0  0  0  0  0  0
  -25.5058  -30.6063   25.6409 C   0  0  0  0  0  0  0  0  0  0  0  0
  -27.5007  -26.8379   19.6660 C   0  0  0  0  0  0  0  0  0  0  0  0
  -33.0084  -15.9021   22.8254 C   0  0  0  0  0  0  0  0  0  0  0  0
  -27.3825  -25.5517   17.8865 C   0  0  0  0  0  0  0  0  0  0  0  0
  -25.6677  -27.3696   17.9420 C   0  0  0  0  0  0  0  0  0  0  0  0
  -25.3620  -15.1415   19.2046 C   0  0  0  0  0  0  0  0  0  0  0  0
  -23.7412  -12.3861   19.7551 C   0  0  0  0  0  0  0  0  0  0  0  0
  -23.8353   -9.1101   20.7068 C   0  0  0  0  0  0  0  0  0  0  0  0
  -30.2931  -20.9942   19.9277 C   0  0  0  0  0  0  0  0  0  0  0  0
  -22.5824  -19.1054   17.5862 C   0  0  0  0  0  0  0  0  0  0  0  0
  -26.6976  -13.4916   17.8445 C   0  0  0  0  0  0  0  0  0  0  0  0
  -26.1305  -12.4702   20.5610 C   0  0  0  0  0  0  0  0  0  0  0  0
  -22.3497  -17.9143   18.5122 C   0  0  0  0  0  0  0  0  0  0  0  0
  -31.5821  -23.2885   17.6000 C   0  0  0  0  0  0  0  0  0  0  0  0
  -36.5342  -15.5124   21.4563 C   0  0  0  0  0  0  0  0  0  0  0  0
  -36.0597  -16.8694   21.8730 C   0  0  0  0  0  0  0  0  0  0  0  0
  -23.4927  -17.7857   19.5141 C   0  0  0  0  0  0  0  0  0  0  0  0
  -30.6040  -24.4534   17.7489 C   0  0  0  0  0  0  0  0  0  0  0  0
  -31.9345  -22.6595   18.9492 C   0  0  0  0  0  0  0  0  0  0  0  0
  -32.6474  -20.2661   20.5207 C   0  0  0  0  0  0  0  0  0  0  0  0
  -30.9223  -18.5997   19.9416 C   0  0  0  0  0  0  0  0  0  0  0  0
  -29.7783  -23.4167   19.8960 C   0  0  0  0  0  0  0  0  0  0  0  0
  -32.8750  -19.5780   21.8628 C   0  0  0  0  0  0  0  0  0  0  0  0
  -31.1048  -17.9035   21.2804 C   0  0  0  0  0  0  0  0  0  0  0  0
  -35.0863  -15.9072   21.2093 C   0  0  0  0  0  0  0  0  0  0  0  0
  -24.8269  -17.5375   18.8002 C   0  0  1  0  0  0  0  0  0  0  0  0
  -25.3801  -13.7869   18.5547 C   0  0  1  0  0  0  0  0  0  0  0  0
  -29.3603  -24.0311   18.5511 C   0  0  1  0  0  0  0  0  0  0  0  0
  -22.3459   -7.1283   21.0963 C   0  0  0  0  0  0  0  0  0  0  0  0
  -22.8099  -13.6074   22.3916 C   0  0  0  0  0  0  0  0  0  0  0  0
  -22.1510  -11.3115   23.1420 C   0  0  0  0  0  0  0  0  0  0  0  0
  -21.0495  -12.3353   21.1517 C   0  0  0  0  0  0  0  0  0  0  0  0
  -25.2083   -7.5217   18.6209 C   0  0  0  0  0  0  0  0  0  0  0  0
  -32.8035  -17.3742   23.0301 C   0  0  0  0  0  0  0  0  0  0  0  0
  -32.0242  -12.6298   23.4824 C   0  0  0  0  0  0  0  0  0  0  0  0
  -30.7122  -12.3551   22.7556 C   0  0  0  0  0  0  0  0  0  1  0  0
  -23.4445  -11.5454   20.9734 C   0  0  1  0  0  0  0  0  0  0  0  0
  -23.2204   -7.8650   20.0936 C   0  0  2  0  0  0  0  0  0  0  0  0
  -22.3904  -12.2053   21.9065 C   0  0  0  0  0  0  0  0  0  0  0  0
  -28.4844  -25.9494   19.8295 N   0  0  0  0  0  0  0  0  0  0  0  0
  -32.1922  -15.0349   23.4302 N   0  0  0  0  0  0  0  0  0  0  0  0
  -32.6611  -13.8420   23.0262 N   0  0  0  0  0  0  0  0  0  0  0  0
  -28.3869  -25.1808   18.7314 N   0  0  0  0  0  0  0  0  0  0  0  0
  -25.0690  -12.8083   19.5985 N   0  0  0  0  0  0  0  0  0  0  0  0
  -30.7172  -22.3110   19.6951 N   0  0  0  0  0  0  0  0  0  0  0  0
  -31.2897  -20.0117   20.0241 N   0  0  0  0  0  0  0  0  0  0  0  0
  -27.1451  -24.8869   16.7358 N   0  0  0  0  0  0  0  0  0  0  0  0
  -25.1741  -28.4589   18.6730 N   0  0  0  0  0  0  0  0  0  0  0  0
  -24.9242  -16.1572   18.3763 N   0  0  0  0  0  0  0  0  0  0  0  0
  -23.0617  -10.2281   20.4769 N   0  0  0  0  0  0  0  0  0  0  0  0
  -32.5250  -18.1136   21.7514 N   0  3  0  0  0  0  0  0  0  0  0  0
  -24.2881   -6.9350   19.6288 N   0  3  0  0  0  0  0  0  0  0  0  0
  -25.1163  -27.0561   16.8597 O   0  0  0  0  0  0  0  0  0  0  0  0
  -25.7175  -15.2564   20.3717 O   0  0  0  0  0  0  0  0  0  0  0  0
  -22.8298  -12.6523   18.9675 O   0  0  0  0  0  0  0  0  0  0  0  0
  -24.8940   -9.0920   21.3307 O   0  0  0  0  0  0  0  0  0  0  0  0
  -29.0936  -20.7127   20.0432 O   0  0  0  0  0  0  0  0  0  0  0  0
  -26.6250  -30.7963   23.5172 O   0  0  0  0  0  0  0  0  0  0  0  0
  -30.9575  -12.1998   21.3636 O   0  0  0  0  0  0  0  0  0  1  0  0
  -26.6768  -29.2678   28.8149 F   0  0  0  0  0  0  0  0  0  0  0  0
  -24.4026  -31.1612   25.1205 F   0  0  0  0  0  0  0  0  0  0  0  0
  1  2  1  0  0  0  0
  1  5  2  0  0  0  0
  2  6  2  0  0  0  0
  3  8  2  0  0  0  0
  3 16  1  0  0  0  0
  4  9  1  0  0  0  0
  4 16  2  0  0  0  0
  5 18  1  0  0  0  0
  6 20  1  0  0  0  0
  7 10  2  0  0  0  0
  7 19  1  0  0  0  0
  8 23  1  0  0  0  0
  9 23  2  0  0  0  0
 10 24  1  0  0  0  0
 11 12  2  0  0  0  0
 11 25  1  0  0  0  0
 12 26  1  0  0  0  0
 13 21  1  0  0  0  0
 13 24  2  0  0  0  0
 14 26  2  0  0  0  0
 14 27  1  0  0  0  0
 15 22  2  0  0  0  0
 15 68  1  0  0  0  0
 16 28  1  0  0  0  0
 17 28  1  0  0  0  0
 17 30  2  0  0  0  0
 17 31  1  0  0  0  0
 18 20  2  0  0  0  0
 18 36  1  0  0  0  0
 19 21  2  0  0  0  0
 19 37  1  0  0  0  0
 20 52  1  0  0  0  0
 21 38  1  0  0  0  0
 22 29  1  0  0  0  0
 22 51  1  0  0  0  0
 23 84  1  0  0  0  0
 24 85  1  0  0  0  0
 25 27  2  0  0  0  0
 25 84  1  0  0  0  0
 26 86  1  0  0  0  0
 27 87  1  0  0  0  0
 28 66  2  0  0  0  0
 29 60  1  0  0  0  0
 29 67  2  0  0  0  0
 30 69  1  0  0  0  0
 30 73  1  0  0  0  0
 31 74  1  0  0  0  0
 31 79  2  0  0  0  0
 32 53  1  0  0  0  0
 32 75  1  0  0  0  0
 32 80  2  0  0  0  0
 33 63  1  0  0  0  0
 33 70  1  0  0  0  0
 33 81  2  0  0  0  0
 34 64  1  0  0  0  0
 34 76  1  0  0  0  0
 34 82  2  0  0  0  0
 35 71  1  0  0  0  0
 35 72  1  0  0  0  0
 35 83  2  0  0  0  0
 36 39  1  0  0  0  0
 37 53  1  0  0  0  0
 38 70  1  0  0  0  0
 39 43  1  0  0  0  0
 40 44  1  0  0  0  0
 40 45  1  0  0  0  0
 41 42  1  0  0  0  0
 41 51  1  0  0  0  0
 42 51  1  0  0  0  0
 43 52  1  0  0  0  0
 44 54  1  0  0  0  0
 45 71  1  0  0  0  0
 46 49  1  0  0  0  0
 46 72  1  0  0  0  0
 47 50  1  0  0  0  0
 47 72  1  0  0  0  0
 48 54  1  0  0  0  0
 48 71  1  0  0  0  0
 49 77  1  0  0  0  0
 50 77  1  0  0  0  0
 52 75  1  0  0  0  0
 53 70  1  0  0  0  0
 54 69  1  0  0  0  0
 55 64  1  0  0  0  0
 56 65  1  0  0  0  0
 57 65  1  0  0  0  0
 58 65  1  0  0  0  0
 59 78  1  0  0  0  0
 60 77  1  0  0  0  0
 61 62  1  0  0  0  0
 61 68  1  0  0  0  0
 62 85  1  0  0  0  0
 63 65  1  0  0  0  0
 63 76  1  0  0  0  0
 64 78  1  0  0  0  0
 66 69  1  0  0  0  0
 67 68  1  0  0  0  0
M  CHG  2  77   1  78   1
M  ISO  4  35 100  62 101  72 100  85 101
M  END
> <Batch ID>
0197

> <Smiles>
CNC(C)C(=O)NC(C(=O)N1Cc2cc([101O:1][101CH2:1]Cn3cc(C4CC4)c(CN4CC[100N:0]([100C:0](=O)N5CCCC(n6nc(-c7ccc(Oc8ccc(F)cc8F)cc7)c(C(N)=O)c6N)C5)CC4)n3)ccc2CC1C(=O)NC1CCCc2ccccc21)C(C)(C)C

> <Shape>
0.243

> <Color>
0.061

> <Negative vol penalty>
0.000

$$$$

  -OEChem-04052323453D

 83 92  0     1  0  0  0  0  0999 V2000
  -26.9483  -37.6753   21.5374 C   0  0  0  0  0  0  0  0  0  0  0  0
  -27.5039  -36.4854   21.0781 C   0  0  0  0  0  0  0  0  0  0  0  0
  -26.2007   -7.4376   21.0818 C   0  0  0  0  0  0  0  0  0  0  0  0
  -24.3049   -8.8334   21.6247 C   0  0  0  0  0  0  0  0  0  0  0  0
  -26.0795  -37.6624   22.6277 C   0  0  0  0  0  0  0  0  0  0  0  0
  -27.1918  -35.2820   21.7097 C   0  0  0  0  0  0  0  0  0  0  0  0
  -26.5959  -29.7867   19.0729 C   0  0  0  0  0  0  0  0  0  0  0  0
  -25.7611   -6.4836   21.9996 C   0  0  0  0  0  0  0  0  0  0  0  0
  -23.8653   -7.8794   22.5424 C   0  0  0  0  0  0  0  0  0  0  0  0
  -27.4656  -28.7035   18.9554 C   0  0  0  0  0  0  0  0  0  0  0  0
  -22.2338   -4.9208   22.4687 C   0  0  0  0  0  0  0  0  0  0  0  0
  -20.8779   -4.5936   22.4617 C   0  0  0  0  0  0  0  0  0  0  0  0
  -26.4473  -27.6838   20.8899 C   0  0  0  0  0  0  0  0  0  0  0  0
  -20.6903   -5.3219   24.7577 C   0  0  0  0  0  0  0  0  0  0  0  0
  -25.4726   -8.6126   20.8944 C   0  0  0  0  0  0  0  0  0  0  0  0
  -25.5956   -9.6807   18.5811 C   0  0  0  0  0  0  0  0  0  0  0  0
  -25.7490  -36.4571   23.2669 C   0  0  0  0  0  0  0  0  0  0  0  0
  -25.6510  -29.8319   20.1080 C   0  0  0  0  0  0  0  0  0  0  0  0
  -26.3188  -35.2532   22.8105 C   0  0  0  0  0  0  0  0  0  0  0  0
  -25.5650  -28.7675   21.0169 C   0  0  0  0  0  0  0  0  0  0  0  0
  -24.5934   -6.7045   22.7299 C   0  0  0  0  0  0  0  0  0  0  0  0
  -27.3934  -27.6531   19.8657 C   0  0  0  0  0  0  0  0  0  0  0  0
  -22.8180   -5.4486   23.6202 C   0  0  0  0  0  0  0  0  0  0  0  0
  -20.1062   -4.7941   23.6062 C   0  0  0  0  0  0  0  0  0  0  0  0
  -22.0462   -5.6492   24.7647 C   0  0  0  0  0  0  0  0  0  0  0  0
  -25.9265   -9.5986   19.9469 C   0  0  0  0  0  0  0  0  0  0  0  0
  -26.2771  -10.7839   18.1283 C   0  0  0  0  0  0  0  0  0  0  0  0
  -24.7478   -8.8354   17.7921 C   0  0  0  0  0  0  0  0  0  0  0  0
  -25.1108  -31.7696   22.5692 C   0  0  0  0  0  0  0  0  0  0  0  0
  -22.4682  -29.9253   22.9398 C   0  0  0  0  0  0  0  0  0  0  0  0
  -20.9263  -26.9297   22.3960 C   0  0  0  0  0  0  0  0  0  0  0  0
  -28.1718  -15.5999   21.0976 C   0  0  0  0  0  0  0  0  0  0  0  0
  -24.8423  -36.4990   24.4714 C   0  0  0  0  0  0  0  0  0  0  0  0
  -24.7022  -30.9949   20.2051 C   0  0  0  0  0  0  0  0  0  0  0  0
  -24.5549  -28.7583   22.1340 C   0  0  0  0  0  0  0  0  0  0  0  0
  -24.2693  -35.1357   24.8502 C   0  0  0  0  0  0  0  0  0  0  0  0
  -30.1928  -13.3748   18.9429 C   0  0  0  0  0  0  0  0  0  0  0  0
  -25.3668  -34.0763   24.8486 C   0  0  0  0  0  0  0  0  0  0  0  0
  -29.3056  -12.1351   18.8909 C   0  0  0  0  0  0  0  0  0  0  0  0
  -28.0397  -21.9808   19.5888 C   0  0  0  0  0  0  0  0  0  0  0  0
  -30.0880  -14.1019   20.2830 C   0  0  0  0  0  0  0  0  0  0  0  0
  -27.7983  -13.2043   20.6096 C   0  0  0  0  0  0  0  0  0  0  0  0
  -27.8624  -18.7764   20.6637 C   0  0  0  0  0  0  0  0  0  0  0  0
  -29.7703  -19.0557   21.4532 C   0  0  0  0  0  0  0  0  0  0  0  0
  -25.9852  -33.9246   23.4536 C   0  0  1  0  0  0  0  0  0  0  0  0
  -24.1225  -31.1780   21.6043 C   0  0  1  0  0  0  0  0  0  0  0  0
  -29.3612  -22.2968   20.2372 C   0  0  1  0  0  0  0  0  0  0  0  0
  -27.8556  -12.4928   19.2495 C   0  0  2  0  0  0  0  0  0  0  0  0
  -28.7054  -17.9667   21.6625 C   0  0  0  0  0  0  0  0  0  0  0  0
  -29.0124  -20.8735   19.8921 C   0  0  1  0  0  0  0  0  0  0  0  0
  -18.7826  -25.7065   22.8500 C   0  0  0  0  0  0  0  0  0  0  0  0
  -31.8058  -22.9148   20.1116 C   0  0  0  0  0  0  0  0  0  0  0  0
  -23.3370  -29.4805   25.8307 C   0  0  0  0  0  0  0  0  0  0  0  0
  -21.7437  -27.5524   25.9397 C   0  0  0  0  0  0  0  0  0  0  0  0
  -20.8836  -29.8570   25.5249 C   0  0  0  0  0  0  0  0  0  0  0  0
  -20.3483  -26.6339   19.5086 C   0  0  0  0  0  0  0  0  0  0  0  0
  -29.0169  -24.7790   18.3811 C   0  0  0  0  0  0  0  0  0  0  0  0
  -28.6902  -26.2581   18.4416 C   0  0  0  0  0  0  0  0  0  1  0  0
  -22.1467  -28.6570   23.6928 C   0  0  1  0  0  0  0  0  0  0  0  0
  -19.5426  -26.5894   21.8724 C   0  0  2  0  0  0  0  0  0  0  0  0
  -30.4395  -23.0292   19.4550 C   0  0  2  0  0  0  0  0  0  0  0  0
  -22.0482  -28.8875   25.2272 C   0  0  0  0  0  0  0  0  0  0  0  0
  -26.7541  -10.5720   20.3364 N   0  0  0  0  0  0  0  0  0  0  0  0
  -26.9490  -11.2762   19.2084 N   0  0  0  0  0  0  0  0  0  0  0  0
  -23.6534  -29.9209   22.1907 N   0  0  0  0  0  0  0  0  0  0  0  0
  -28.6883  -14.3712   20.6489 N   0  0  0  0  0  0  0  0  0  0  0  0
  -26.3614  -11.3712   16.9157 N   0  0  0  0  0  0  0  0  0  0  0  0
  -24.1247   -7.7455   18.4152 N   0  0  0  0  0  0  0  0  0  0  0  0
  -25.1134  -33.1512   22.5956 N   0  0  0  0  0  0  0  0  0  0  0  0
  -20.9310  -28.1213   23.0898 N   0  0  0  0  0  0  0  0  0  0  0  0
  -29.0884  -16.6413   21.2051 N   0  0  0  0  0  0  0  0  0  0  0  0
  -28.6835  -19.9568   21.0112 N   0  3  0  0  0  0  0  0  0  0  0  0
  -19.6436  -25.8708   20.5707 N   0  3  0  0  0  0  0  0  0  0  0  0
  -30.0715  -24.4689   19.3791 N   0  3  0  0  0  0  0  0  0  0  0  0
  -24.5618   -9.0309   16.5671 O   0  0  0  0  0  0  0  0  0  0  0  0
  -25.8177  -31.0275   23.2410 O   0  0  0  0  0  0  0  0  0  0  0  0
  -21.6926  -30.8821   23.0079 O   0  0  0  0  0  0  0  0  0  0  0  0
  -21.9042  -26.2086   22.2115 O   0  0  0  0  0  0  0  0  0  0  0  0
  -26.9821  -15.7624   21.3901 O   0  0  0  0  0  0  0  0  0  0  0  0
  -24.1641   -5.7737   23.6253 O   0  0  0  0  0  0  0  0  0  0  0  0
  -28.2416  -26.5949   19.7537 O   0  0  0  0  0  0  0  0  0  1  0  0
  -18.8038   -4.4812   23.5988 F   0  0  0  0  0  0  0  0  0  0  0  0
  -22.6016   -6.1569   25.8735 F   0  0  0  0  0  0  0  0  0  0  0  0
  1  2  1  0  0  0  0
  1  5  2  0  0  0  0
  2  6  2  0  0  0  0
  3  8  2  0  0  0  0
  3 15  1  0  0  0  0
  4  9  1  0  0  0  0
  4 15  2  0  0  0  0
  5 17  1  0  0  0  0
  6 19  1  0  0  0  0
  7 10  2  0  0  0  0
  7 18  1  0  0  0  0
  8 21  1  0  0  0  0
  9 21  2  0  0  0  0
 10 22  1  0  0  0  0
 11 12  2  0  0  0  0
 11 23  1  0  0  0  0
 12 24  1  0  0  0  0
 13 20  1  0  0  0  0
 13 22  2  0  0  0  0
 14 24  2  0  0  0  0
 14 25  1  0  0  0  0
 15 26  1  0  0  0  0
 16 26  1  0  0  0  0
 16 27  2  0  0  0  0
 16 28  1  0  0  0  0
 17 19  2  0  0  0  0
 17 33  1  0  0  0  0
 18 20  2  0  0  0  0
 18 34  1  0  0  0  0
 19 45  1  0  0  0  0
 20 35  1  0  0  0  0
 21 80  1  0  0  0  0
 22 81  1  0  0  0  0
 23 25  2  0  0  0  0
 23 80  1  0  0  0  0
 24 82  1  0  0  0  0
 25 83  1  0  0  0  0
 26 63  2  0  0  0  0
 27 64  1  0  0  0  0
 27 67  1  0  0  0  0
 28 68  1  0  0  0  0
 28 75  2  0  0  0  0
 29 46  1  0  0  0  0
 29 69  1  0  0  0  0
 29 76  2  0  0  0  0
 30 59  1  0  0  0  0
 30 65  1  0  0  0  0
 30 77  2  0  0  0  0
 31 60  1  0  0  0  0
 31 70  1  0  0  0  0
 31 78  2  0  0  0  0
 32 66  1  0  0  0  0
 32 71  1  0  0  0  0
 32 79  2  0  0  0  0
 33 36  1  0  0  0  0
 34 46  1  0  0  0  0
 35 65  1  0  0  0  0
 36 38  1  0  0  0  0
 37 39  1  0  0  0  0
 37 41  1  0  0  0  0
 38 45  1  0  0  0  0
 39 48  1  0  0  0  0
 40 47  1  0  0  0  0
 40 50  1  0  0  0  0
 41 66  1  0  0  0  0
 42 48  1  0  0  0  0
 42 66  1  0  0  0  0
 43 49  1  0  0  0  0
 43 72  1  0  0  0  0
 44 49  1  0  0  0  0
 44 72  1  0  0  0  0
 45 69  1  0  0  0  0
 46 65  1  0  0  0  0
 47 50  1  0  0  0  0
 47 61  1  0  0  0  0
 48 64  1  0  0  0  0
 49 71  1  0  0  0  0
 50 72  1  0  0  0  0
 51 60  1  0  0  0  0
 52 61  1  0  0  0  0
 53 62  1  0  0  0  0
 54 62  1  0  0  0  0
 55 62  1  0  0  0  0
 56 73  1  0  0  0  0
 57 58  1  0  0  0  0
 57 74  1  0  0  0  0
 58 81  1  0  0  0  0
 59 62  1  0  0  0  0
 59 70  1  0  0  0  0
 60 73  1  0  0  0  0
 61 74  1  0  0  0  0
 63 64  1  0  0  0  0
M  CHG  3  72   1  73   1  74   1
M  ISO  4  32 100  58 101  71 100  81 101
M  END
> <Batch ID>
0197

> <Smiles>
CNC(C)C(=O)NC(C(=O)N1Cc2cc([101O:1][101CH2:1]CNC(C)C3CC3N3CC([100NH:0][100C:0](=O)N4CCCC(n5nc(-c6ccc(Oc7ccc(F)cc7F)cc6)c(C(N)=O)c5N)C4)C3)ccc2CC1C(=O)NC1CCCc2ccccc21)C(C)(C)C

> <Shape>
0.335

> <Color>
0.083

> <Negative vol penalty>
0.000

$$$$

  -OEChem-04052323453D

 84 93  0     1  0  0  0  0  0999 V2000
  -32.5073   -7.0972   17.9422 C   0  0  0  0  0  0  0  0  0  0  0  0
  -31.1980   -7.4519   17.6336 C   0  0  0  0  0  0  0  0  0  0  0  0
  -25.6334  -31.1032   22.2133 C   0  0  0  0  0  0  0  0  0  0  0  0
  -26.8409  -31.7661   20.2285 C   0  0  0  0  0  0  0  0  0  0  0  0
  -33.1132   -7.6037   19.0912 C   0  0  0  0  0  0  0  0  0  0  0  0
  -30.4934   -8.3127   18.4745 C   0  0  0  0  0  0  0  0  0  0  0  0
  -25.4981  -13.4440   18.2942 C   0  0  0  0  0  0  0  0  0  0  0  0
  -25.7827  -32.3887   22.7336 C   0  0  0  0  0  0  0  0  0  0  0  0
  -26.9903  -33.0517   20.7488 C   0  0  0  0  0  0  0  0  0  0  0  0
  -24.2802  -13.7827   18.8822 C   0  0  0  0  0  0  0  0  0  0  0  0
  -24.3463  -35.4226   22.3276 C   0  0  0  0  0  0  0  0  0  0  0  0
  -23.2281  -36.0209   22.9083 C   0  0  0  0  0  0  0  0  0  0  0  0
  -25.4556  -14.6588   20.7980 C   0  0  0  0  0  0  0  0  0  0  0  0
  -24.4117  -36.1959   25.0073 C   0  0  0  0  0  0  0  0  0  0  0  0
  -26.1625  -30.7918   20.9608 C   0  0  0  0  0  0  0  0  0  0  0  0
  -24.9539  -28.9879   19.6218 C   0  0  0  0  0  0  0  0  0  0  0  0
  -32.4190   -8.4788   19.9415 C   0  0  0  0  0  0  0  0  0  0  0  0
  -26.7055  -13.7008   18.9596 C   0  0  0  0  0  0  0  0  0  0  0  0
  -31.0901   -8.8303   19.6367 C   0  0  0  0  0  0  0  0  0  0  0  0
  -26.6876  -14.3248   20.2151 C   0  0  0  0  0  0  0  0  0  0  0  0
  -26.4612  -33.3629   22.0013 C   0  0  0  0  0  0  0  0  0  0  0  0
  -24.2586  -14.3875   20.1355 C   0  0  0  0  0  0  0  0  0  0  0  0
  -25.4972  -35.2109   23.0868 C   0  0  0  0  0  0  0  0  0  0  0  0
  -23.2608  -36.4075   24.2481 C   0  0  0  0  0  0  0  0  0  0  0  0
  -25.5299  -35.5976   24.4265 C   0  0  0  0  0  0  0  0  0  0  0  0
  -26.0091  -29.4639   20.4230 C   0  0  0  0  0  0  0  0  0  0  0  0
  -25.2741  -27.6748   19.3770 C   0  0  0  0  0  0  0  0  0  0  0  0
  -22.0939  -17.7361   22.0744 C   0  0  0  0  0  0  0  0  0  0  0  0
  -22.5262  -19.2687   20.7249 C   0  0  0  0  0  0  0  0  0  0  0  0
  -23.7887  -29.6715   19.1418 C   0  0  0  0  0  0  0  0  0  0  0  0
  -29.0850  -11.9047   20.0621 C   0  0  0  0  0  0  0  0  0  0  0  0
  -30.4582  -14.7810   20.6647 C   0  0  0  0  0  0  0  0  0  0  0  0
  -30.0538  -18.1186   21.2514 C   0  0  0  0  0  0  0  0  0  0  0  0
  -27.0195  -22.7520   21.5210 C   0  0  0  0  0  0  0  0  0  0  0  0
  -33.0996   -8.9632   21.1971 C   0  0  0  0  0  0  0  0  0  0  0  0
  -28.0120  -13.3537   18.3000 C   0  0  0  0  0  0  0  0  0  0  0  0
  -27.9568  -14.6403   20.9620 C   0  0  0  0  0  0  0  0  0  0  0  0
  -32.4117  -10.1661   21.8375 C   0  0  0  0  0  0  0  0  0  0  0  0
  -29.5367  -25.0947   20.2369 C   0  0  0  0  0  0  0  0  0  0  0  0
  -30.9047   -9.9423   21.9115 C   0  0  0  0  0  0  0  0  0  0  0  0
  -28.7627  -26.4110   20.1529 C   0  0  0  0  0  0  0  0  0  0  0  0
  -23.5727  -22.8553   20.2462 C   0  0  0  0  0  0  0  0  0  0  0  0
  -29.0147  -24.1950   21.3548 C   0  0  0  0  0  0  0  0  0  0  0  0
  -24.6724  -23.6237   20.9716 C   0  0  0  0  0  0  0  0  0  0  0  0
  -26.7944  -25.2563   21.2261 C   0  0  0  0  0  0  0  0  0  0  0  0
  -25.0634  -21.2654   21.1969 C   0  0  0  0  0  0  0  0  0  0  0  0
  -30.3015   -9.7811   20.5109 C   0  0  1  0  0  0  0  0  0  0  0  0
  -29.1588  -13.1936   19.2933 C   0  0  1  0  0  0  0  0  0  0  0  0
  -27.2457  -26.1588   20.0694 C   0  0  1  0  0  0  0  0  0  0  0  0
  -23.5794  -21.5167   20.9762 C   0  0  2  0  0  0  0  0  0  0  0  0
  -21.9842  -16.9640   23.3339 C   0  0  0  0  0  0  0  0  0  0  0  0
  -31.3589  -20.2041   21.7457 C   0  0  0  0  0  0  0  0  0  0  0  0
  -30.8519  -13.8495   23.5435 C   0  0  0  0  0  0  0  0  0  0  0  0
  -31.2588  -16.2348   24.1861 C   0  0  0  0  0  0  0  0  0  0  0  0
  -32.7904  -15.0997   22.5773 C   0  0  0  0  0  0  0  0  0  0  0  0
  -29.0997  -19.4402   18.7812 C   0  0  0  0  0  0  0  0  0  0  0  0
  -21.0256  -15.9976   20.5381 C   0  0  0  0  0  0  0  0  0  0  0  0
  -21.9942  -15.0507   19.8379 C   0  0  0  0  0  0  0  0  0  1  0  0
  -30.4618  -15.7409   21.8299 C   0  0  1  0  0  0  0  0  0  0  0  0
  -30.7418  -19.3358   20.6604 C   0  0  2  0  0  0  0  0  0  0  0  0
  -31.3166  -15.2236   23.0212 C   0  0  0  0  0  0  0  0  0  0  0  0
  -26.9305  -28.5293   20.6709 N   0  0  0  0  0  0  0  0  0  0  0  0
  -22.6400  -18.9856   22.0017 N   0  0  0  0  0  0  0  0  0  0  0  0
  -21.9378  -18.2283   20.0760 N   0  0  0  0  0  0  0  0  0  0  0  0
  -26.4553  -27.4528   20.0217 N   0  0  0  0  0  0  0  0  0  0  0  0
  -21.6494  -17.2284   20.9229 N   0  0  0  0  0  0  0  0  0  0  0  0
  -29.2087  -14.2760   20.2783 N   0  0  0  0  0  0  0  0  0  0  0  0
  -27.5674  -24.0099   21.2468 N   0  0  0  0  0  0  0  0  0  0  0  0
  -25.6437  -22.5967   21.3571 N   0  0  0  0  0  0  0  0  0  0  0  0
  -24.6576  -26.7001   18.6755 N   0  0  0  0  0  0  0  0  0  0  0  0
  -23.6148  -31.0187   19.4868 N   0  0  0  0  0  0  0  0  0  0  0  0
  -22.9668  -20.4742   20.1957 N   0  0  0  0  0  0  0  0  0  0  0  0
  -30.1688  -11.0700   19.8663 N   0  0  0  0  0  0  0  0  0  0  0  0
  -30.8960  -17.0278   21.2973 N   0  0  0  0  0  0  0  0  0  0  0  0
  -29.7655  -20.1624   19.8957 N   0  3  0  0  0  0  0  0  0  0  0  0
  -22.9189  -29.0999   18.4415 O   0  0  0  0  0  0  0  0  0  0  0  0
  -28.1173  -11.6845   20.7809 O   0  0  0  0  0  0  0  0  0  0  0  0
  -31.5240  -14.4956   20.1131 O   0  0  0  0  0  0  0  0  0  0  0  0
  -28.8870  -18.1348   21.6374 O   0  0  0  0  0  0  0  0  0  0  0  0
  -27.7341  -21.7966   21.8521 O   0  0  0  0  0  0  0  0  0  0  0  0
  -26.6069  -34.6175   22.5086 O   0  0  0  0  0  0  0  0  0  0  0  0
  -23.0629  -14.7208   20.7161 O   0  0  0  0  0  0  0  0  0  1  0  0
  -22.1874  -36.9834   24.8052 F   0  0  0  0  0  0  0  0  0  0  0  0
  -26.6332  -35.3979   25.1606 F   0  0  0  0  0  0  0  0  0  0  0  0
  1  2  1  0  0  0  0
  1  5  2  0  0  0  0
  2  6  2  0  0  0  0
  3  8  2  0  0  0  0
  3 15  1  0  0  0  0
  4  9  1  0  0  0  0
  4 15  2  0  0  0  0
  5 17  1  0  0  0  0
  6 19  1  0  0  0  0
  7 10  2  0  0  0  0
  7 18  1  0  0  0  0
  8 21  1  0  0  0  0
  9 21  2  0  0  0  0
 10 22  1  0  0  0  0
 11 12  2  0  0  0  0
 11 23  1  0  0  0  0
 12 24  1  0  0  0  0
 13 20  1  0  0  0  0
 13 22  2  0  0  0  0
 14 24  2  0  0  0  0
 14 25  1  0  0  0  0
 15 26  1  0  0  0  0
 16 26  1  0  0  0  0
 16 27  2  0  0  0  0
 16 30  1  0  0  0  0
 17 19  2  0  0  0  0
 17 35  1  0  0  0  0
 18 20  2  0  0  0  0
 18 36  1  0  0  0  0
 19 47  1  0  0  0  0
 20 37  1  0  0  0  0
 21 81  1  0  0  0  0
 22 82  1  0  0  0  0
 23 25  2  0  0  0  0
 23 81  1  0  0  0  0
 24 83  1  0  0  0  0
 25 84  1  0  0  0  0
 26 62  2  0  0  0  0
 27 65  1  0  0  0  0
 27 70  1  0  0  0  0
 28 51  1  0  0  0  0
 28 63  2  0  0  0  0
 28 66  1  0  0  0  0
 29 63  1  0  0  0  0
 29 64  2  0  0  0  0
 29 72  1  0  0  0  0
 30 71  1  0  0  0  0
 30 76  2  0  0  0  0
 31 48  1  0  0  0  0
 31 73  1  0  0  0  0
 31 77  2  0  0  0  0
 32 59  1  0  0  0  0
 32 67  1  0  0  0  0
 32 78  2  0  0  0  0
 33 60  1  0  0  0  0
 33 74  1  0  0  0  0
 33 79  2  0  0  0  0
 34 68  1  0  0  0  0
 34 69  1  0  0  0  0
 34 80  2  0  0  0  0
 35 38  1  0  0  0  0
 36 48  1  0  0  0  0
 37 67  1  0  0  0  0
 38 40  1  0  0  0  0
 39 41  1  0  0  0  0
 39 43  1  0  0  0  0
 40 47  1  0  0  0  0
 41 49  1  0  0  0  0
 42 44  1  0  0  0  0
 42 50  1  0  0  0  0
 43 68  1  0  0  0  0
 44 69  1  0  0  0  0
 45 49  1  0  0  0  0
 45 68  1  0  0  0  0
 46 50  1  0  0  0  0
 46 69  1  0  0  0  0
 47 73  1  0  0  0  0
 48 67  1  0  0  0  0
 49 65  1  0  0  0  0
 50 72  1  0  0  0  0
 52 60  1  0  0  0  0
 53 61  1  0  0  0  0
 54 61  1  0  0  0  0
 55 61  1  0  0  0  0
 56 75  1  0  0  0  0
 57 58  1  0  0  0  0
 57 66  1  0  0  0  0
 58 82  1  0  0  0  0
 59 61  1  0  0  0  0
 59 74  1  0  0  0  0
 60 75  1  0  0  0  0
 62 65  1  0  0  0  0
 64 66  1  0  0  0  0
M  CHG  1  75   1
M  ISO  4  34 100  58 101  69 100  82 101
M  END
> <Batch ID>
0197

> <Smiles>
CNC(C)C(=O)NC(C(=O)N1Cc2cc([101O:1][101CH2:1]Cn3nc(NC4CC[100N:0]([100C:0](=O)N5CCCC(n6nc(-c7ccc(Oc8ccc(F)cc8F)cc7)c(C(N)=O)c6N)C5)C4)nc3C)ccc2CC1C(=O)NC1CCCc2ccccc21)C(C)(C)C

> <Shape>
0.246

> <Color>
0.066

> <Negative vol penalty>
0.000

$$$$

  -OEChem-04052323453D

 83 92  0     1  0  0  0  0  0999 V2000
  -26.7781  -37.8322   24.5356 C   0  0  0  0  0  0  0  0  0  0  0  0
  -27.4606  -37.0362   23.6212 C   0  0  0  0  0  0  0  0  0  0  0  0
  -24.7889  -10.6795   23.2950 C   0  0  0  0  0  0  0  0  0  0  0  0
  -23.4997   -9.9411   21.3898 C   0  0  0  0  0  0  0  0  0  0  0  0
  -25.9712  -37.2410   25.5068 C   0  0  0  0  0  0  0  0  0  0  0  0
  -27.3373  -35.6484   23.6783 C   0  0  0  0  0  0  0  0  0  0  0  0
  -27.2572  -29.8717   19.4427 C   0  0  0  0  0  0  0  0  0  0  0  0
  -24.0082   -9.8825   24.1322 C   0  0  0  0  0  0  0  0  0  0  0  0
  -22.7190   -9.1440   22.2270 C   0  0  0  0  0  0  0  0  0  0  0  0
  -27.8704  -28.6270   19.3071 C   0  0  0  0  0  0  0  0  0  0  0  0
  -22.9852   -6.1505   23.7724 C   0  0  0  0  0  0  0  0  0  0  0  0
  -22.7119   -4.8480   23.3547 C   0  0  0  0  0  0  0  0  0  0  0  0
  -26.3858  -27.7202   20.9782 C   0  0  0  0  0  0  0  0  0  0  0  0
  -20.3452   -5.3320   23.3941 C   0  0  0  0  0  0  0  0  0  0  0  0
  -24.5346  -10.7089   21.9237 C   0  0  0  0  0  0  0  0  0  0  0  0
  -26.5275  -11.1640   20.3977 C   0  0  0  0  0  0  0  0  0  0  0  0
  -25.8304  -35.8457   25.5698 C   0  0  0  0  0  0  0  0  0  0  0  0
  -26.2091  -30.0530   20.3565 C   0  0  0  0  0  0  0  0  0  0  0  0
  -26.5288  -35.0379   24.6522 C   0  0  0  0  0  0  0  0  0  0  0  0
  -25.7592  -28.9675   21.1217 C   0  0  0  0  0  0  0  0  0  0  0  0
  -22.9733   -9.1148   23.5982 C   0  0  0  0  0  0  0  0  0  0  0  0
  -27.4367  -27.5517   20.0770 C   0  0  0  0  0  0  0  0  0  0  0  0
  -21.9385   -7.0437   24.0010 C   0  0  0  0  0  0  0  0  0  0  0  0
  -21.3919   -4.4387   23.1656 C   0  0  0  0  0  0  0  0  0  0  0  0
  -20.6185   -6.6345   23.8118 C   0  0  0  0  0  0  0  0  0  0  0  0
  -25.3403  -11.5324   21.0585 C   0  0  0  0  0  0  0  0  0  0  0  0
  -26.9002  -12.2914   19.7074 C   0  0  0  0  0  0  0  0  0  0  0  0
  -27.2304   -9.9144   20.4069 C   0  0  0  0  0  0  0  0  0  0  0  0
  -25.7718  -31.8522   22.9402 C   0  0  0  0  0  0  0  0  0  0  0  0
  -22.7587  -30.6613   22.7819 C   0  0  0  0  0  0  0  0  0  0  0  0
  -20.6794  -28.1715   21.7215 C   0  0  0  0  0  0  0  0  0  0  0  0
  -27.7148  -17.8217   19.9195 C   0  0  0  0  0  0  0  0  0  0  0  0
  -24.9842  -35.2503   26.6671 C   0  0  0  0  0  0  0  0  0  0  0  0
  -25.5403  -31.3954   20.4717 C   0  0  0  0  0  0  0  0  0  0  0  0
  -24.6244  -29.1048   22.1024 C   0  0  0  0  0  0  0  0  0  0  0  0
  -24.6112  -33.7901   26.4244 C   0  0  0  0  0  0  0  0  0  0  0  0
  -24.3969  -16.5904   18.8101 C   0  0  0  0  0  0  0  0  0  0  0  0
  -25.8353  -32.9922   25.9863 C   0  0  0  0  0  0  0  0  0  0  0  0
  -24.4411  -15.1379   19.2869 C   0  0  0  0  0  0  0  0  0  0  0  0
  -27.0460  -21.1706   18.5597 C   0  0  0  0  0  0  0  0  0  0  0  0
  -25.2143  -17.4902   19.7277 C   0  0  0  0  0  0  0  0  0  0  0  0
  -26.4310  -19.8622   19.0464 C   0  0  0  0  0  0  0  0  0  0  0  0
  -26.6894  -15.6215   20.3674 C   0  0  0  0  0  0  0  0  0  0  0  0
  -28.6077  -20.1317   20.0306 C   0  0  0  0  0  0  0  0  0  0  0  0
  -30.1098  -22.7519   20.2875 C   0  0  0  0  0  0  0  0  0  0  0  0
  -28.5229  -23.7363   18.7047 C   0  0  0  0  0  0  0  0  0  0  0  0
  -26.4010  -33.5301   24.6664 C   0  0  1  0  0  0  0  0  0  0  0  0
  -24.8236  -31.5935   21.8037 C   0  0  1  0  0  0  0  0  0  0  0  0
  -30.0430  -24.2683   20.4437 C   0  0  2  0  0  0  0  0  0  0  0  0
  -29.6118  -24.7403   19.0541 C   0  0  2  0  0  0  0  0  0  0  0  0
  -25.8917  -14.6566   19.4722 C   0  0  1  0  0  0  0  0  0  0  0  0
  -28.0246  -21.4885   19.6803 C   0  0  1  0  0  0  0  0  0  0  0  0
  -18.2745  -27.4569   21.7753 C   0  0  0  0  0  0  0  0  0  0  0  0
  -23.0865  -29.7851   25.6861 C   0  0  0  0  0  0  0  0  0  0  0  0
  -21.1036  -28.2865   25.3849 C   0  0  0  0  0  0  0  0  0  0  0  0
  -20.8483  -30.7554   25.1355 C   0  0  0  0  0  0  0  0  0  0  0  0
  -20.4660  -28.2617   18.7710 C   0  0  0  0  0  0  0  0  0  0  0  0
  -31.3619  -24.8584   20.9185 C   0  0  0  0  0  0  0  0  0  0  0  0
  -29.1081  -26.1746   19.0147 C   0  0  0  0  0  0  0  0  0  1  0  0
  -22.0582  -29.4471   23.3421 C   0  0  1  0  0  0  0  0  0  0  0  0
  -19.3435  -28.2130   21.0018 C   0  0  2  0  0  0  0  0  0  0  0  0
  -21.7968  -29.5661   24.8702 C   0  0  0  0  0  0  0  0  0  0  0  0
  -24.9826  -12.7952   20.8104 N   0  0  0  0  0  0  0  0  0  0  0  0
  -25.9509  -13.2301   19.9861 N   0  0  0  0  0  0  0  0  0  0  0  0
  -24.0069  -30.4389   22.1834 N   0  0  0  0  0  0  0  0  0  0  0  0
  -26.5865  -16.9953   19.8704 N   0  0  0  0  0  0  0  0  0  0  0  0
  -27.5167  -19.1937   19.7714 N   0  0  0  0  0  0  0  0  0  0  0  0
  -27.9443  -12.5615   18.8953 N   0  0  0  0  0  0  0  0  0  0  0  0
  -26.7090   -8.8602   21.1693 N   0  0  0  0  0  0  0  0  0  0  0  0
  -25.5967  -33.0794   23.5508 N   0  0  0  0  0  0  0  0  0  0  0  0
  -20.8518  -29.2663   22.5419 N   0  0  0  0  0  0  0  0  0  0  0  0
  -29.0681  -22.4249   19.2317 N   0  3  2  0  0  0  0  0  0  0  0  0
  -31.6851  -24.3019   22.2501 N   0  3  0  0  0  0  0  0  0  0  0  0
  -19.4651  -27.6015   19.6482 N   0  3  0  0  0  0  0  0  0  0  0  0
  -28.2982   -9.7430   19.7715 O   0  0  0  0  0  0  0  0  0  0  0  0
  -26.6000  -31.0008   23.2418 O   0  0  0  0  0  0  0  0  0  0  0  0
  -22.2150  -31.7654   22.8656 O   0  0  0  0  0  0  0  0  0  0  0  0
  -21.4875  -27.2573   21.5738 O   0  0  0  0  0  0  0  0  0  0  0  0
  -28.8535  -17.3511   20.0411 O   0  0  0  0  0  0  0  0  0  0  0  0
  -22.2115   -8.3367   24.4148 O   0  0  0  0  0  0  0  0  0  0  0  0
  -28.0466  -26.3101   19.9442 O   0  0  0  0  0  0  0  0  0  1  0  0
  -21.1297   -3.1884   22.7630 F   0  0  0  0  0  0  0  0  0  0  0  0
  -19.6088   -7.4885   24.0286 F   0  0  0  0  0  0  0  0  0  0  0  0
  1  2  1  0  0  0  0
  1  5  2  0  0  0  0
  2  6  2  0  0  0  0
  3  8  2  0  0  0  0
  3 15  1  0  0  0  0
  4  9  1  0  0  0  0
  4 15  2  0  0  0  0
  5 17  1  0  0  0  0
  6 19  1  0  0  0  0
  7 10  2  0  0  0  0
  7 18  1  0  0  0  0
  8 21  1  0  0  0  0
  9 21  2  0  0  0  0
 10 22  1  0  0  0  0
 11 12  2  0  0  0  0
 11 23  1  0  0  0  0
 12 24  1  0  0  0  0
 13 20  1  0  0  0  0
 13 22  2  0  0  0  0
 14 24  2  0  0  0  0
 14 25  1  0  0  0  0
 15 26  1  0  0  0  0
 16 26  1  0  0  0  0
 16 27  2  0  0  0  0
 16 28  1  0  0  0  0
 17 19  2  0  0  0  0
 17 33  1  0  0  0  0
 18 20  2  0  0  0  0
 18 34  1  0  0  0  0
 19 47  1  0  0  0  0
 20 35  1  0  0  0  0
 21 80  1  0  0  0  0
 22 81  1  0  0  0  0
 23 25  2  0  0  0  0
 23 80  1  0  0  0  0
 24 82  1  0  0  0  0
 25 83  1  0  0  0  0
 26 63  2  0  0  0  0
 27 64  1  0  0  0  0
 27 68  1  0  0  0  0
 28 69  1  0  0  0  0
 28 75  2  0  0  0  0
 29 48  1  0  0  0  0
 29 70  1  0  0  0  0
 29 76  2  0  0  0  0
 30 60  1  0  0  0  0
 30 65  1  0  0  0  0
 30 77  2  0  0  0  0
 31 61  1  0  0  0  0
 31 71  1  0  0  0  0
 31 78  2  0  0  0  0
 32 66  1  0  0  0  0
 32 67  1  0  0  0  0
 32 79  2  0  0  0  0
 33 36  1  0  0  0  0
 34 48  1  0  0  0  0
 35 65  1  0  0  0  0
 36 38  1  0  0  0  0
 37 39  1  0  0  0  0
 37 41  1  0  0  0  0
 38 47  1  0  0  0  0
 39 51  1  0  0  0  0
 40 42  1  0  0  0  0
 40 52  1  0  0  0  0
 41 66  1  0  0  0  0
 42 67  1  0  0  0  0
 43 51  1  0  0  0  0
 43 66  1  0  0  0  0
 44 52  1  0  0  0  0
 44 67  1  0  0  0  0
 45 49  1  0  0  0  0
 45 72  1  0  0  0  0
 46 50  1  0  0  0  0
 46 72  1  0  0  0  0
 47 70  1  0  0  0  0
 48 65  1  0  0  0  0
 49 50  1  0  0  0  0
 49 58  1  0  0  0  0
 50 59  1  0  0  0  0
 51 64  1  0  0  0  0
 52 72  1  0  0  0  0
 53 61  1  0  0  0  0
 54 62  1  0  0  0  0
 55 62  1  0  0  0  0
 56 62  1  0  0  0  0
 57 74  1  0  0  0  0
 58 73  1  0  0  0  0
 59 81  1  0  0  0  0
 60 62  1  0  0  0  0
 60 71  1  0  0  0  0
 61 74  1  0  0  0  0
 63 64  1  0  0  0  0
M  CHG  3  72   1  73   1  74   1
M  ISO  4  32 100  59 101  67 100  81 101
M  END
> <Batch ID>
0197

> <Smiles>
CNC(C)C(=O)NC(C(=O)N1Cc2cc([101O:1][101CH2:1]C3CN(C4CC[100N:0]([100C:0](=O)N5CCCC(n6nc(-c7ccc(Oc8ccc(F)cc8F)cc7)c(C(N)=O)c6N)C5)C4)CC3CN)ccc2CC1C(=O)NC1CCCc2ccccc21)C(C)(C)C

> <Shape>
0.343

> <Color>
0.083

> <Negative vol penalty>
0.000

$$$$

  -OEChem-04052323453D

 82 90  0     1  0  0  0  0  0999 V2000
  -21.0528  -21.3372   17.5922 C   0  0  0  0  0  0  0  0  0  0  0  0
  -21.3765  -20.0453   17.1903 C   0  0  0  0  0  0  0  0  0  0  0  0
  -25.5878  -27.1026   20.7944 C   0  0  0  0  0  0  0  0  0  0  0  0
  -26.9209  -28.1391   19.0666 C   0  0  0  0  0  0  0  0  0  0  0  0
  -21.7409  -21.9299   18.6501 C   0  0  0  0  0  0  0  0  0  0  0  0
  -22.3893  -19.3457   17.8455 C   0  0  0  0  0  0  0  0  0  0  0  0
  -24.2409  -12.6975   19.7663 C   0  0  0  0  0  0  0  0  0  0  0  0
  -25.1729  -28.3612   21.2294 C   0  0  0  0  0  0  0  0  0  0  0  0
  -26.5059  -29.3978   19.5015 C   0  0  0  0  0  0  0  0  0  0  0  0
  -25.3101  -11.8076   19.6727 C   0  0  0  0  0  0  0  0  0  0  0  0
  -26.4246  -30.8912   23.0886 C   0  0  0  0  0  0  0  0  0  0  0  0
  -26.4316  -31.1364   24.4617 C   0  0  0  0  0  0  0  0  0  0  0  0
  -26.3771  -12.9028   21.5386 C   0  0  0  0  0  0  0  0  0  0  0  0
  -24.0542  -31.5622   24.3978 C   0  0  0  0  0  0  0  0  0  0  0  0
  -26.4619  -26.9915   19.7131 C   0  0  0  0  0  0  0  0  0  0  0  0
  -26.2706  -24.8786   18.2966 C   0  0  0  0  0  0  0  0  0  0  0  0
  -22.7561  -21.2336   19.3248 C   0  0  0  0  0  0  0  0  0  0  0  0
  -24.2368  -13.7052   20.7415 C   0  0  0  0  0  0  0  0  0  0  0  0
  -23.0925  -19.9301   18.9125 C   0  0  0  0  0  0  0  0  0  0  0  0
  -25.3054  -13.8025   21.6441 C   0  0  0  0  0  0  0  0  0  0  0  0
  -25.6319  -29.5088   20.5830 C   0  0  0  0  0  0  0  0  0  0  0  0
  -26.3798  -11.9120   20.5570 C   0  0  0  0  0  0  0  0  0  0  0  0
  -25.2324  -30.9816   22.3700 C   0  0  0  0  0  0  0  0  0  0  0  0
  -25.2464  -31.4719   25.1163 C   0  0  0  0  0  0  0  0  0  0  0  0
  -24.0473  -31.3171   23.0246 C   0  0  0  0  0  0  0  0  0  0  0  0
  -26.8914  -25.6916   19.2636 C   0  0  0  0  0  0  0  0  0  0  0  0
  -27.0608  -23.7571   18.2323 C   0  0  0  0  0  0  0  0  0  0  0  0
  -25.0855  -25.1159   17.5252 C   0  0  0  0  0  0  0  0  0  0  0  0
  -24.2034  -16.8831   20.6830 C   0  0  0  0  0  0  0  0  0  0  0  0
  -23.8860  -16.5505   23.8940 C   0  0  0  0  0  0  0  0  0  0  0  0
  -24.3637  -14.6210   26.6682 C   0  0  0  0  0  0  0  0  0  0  0  0
  -29.7457  -19.7303   20.8045 C   0  0  0  0  0  0  0  0  0  0  0  0
  -23.5040  -21.9334   20.4319 C   0  0  0  0  0  0  0  0  0  0  0  0
  -23.0635  -14.6404   20.8464 C   0  0  0  0  0  0  0  0  0  0  0  0
  -25.3397  -14.8539   22.7220 C   0  0  0  0  0  0  0  0  0  0  0  0
  -24.3093  -20.9854   21.3168 C   0  0  0  0  0  0  0  0  0  0  0  0
  -31.6224  -22.8098   20.1458 C   0  0  0  0  0  0  0  0  0  0  0  0
  -25.1023  -20.0017   20.4622 C   0  0  0  0  0  0  0  0  0  0  0  0
  -30.4893  -23.7824   19.8363 C   0  0  0  0  0  0  0  0  0  0  0  0
  -30.7421  -17.6301   23.2285 C   0  0  0  0  0  0  0  0  0  0  0  0
  -31.2265  -21.7707   21.1954 C   0  0  0  0  0  0  0  0  0  0  0  0
  -31.0792  -19.1007   22.9639 C   0  0  0  0  0  0  0  0  0  0  0  0
  -28.8435  -22.0150   20.5511 C   0  0  0  0  0  0  0  0  0  0  0  0
  -24.1682  -19.1298   19.6144 C   0  0  1  0  0  0  0  0  0  0  0  0
  -23.4048  -15.9507   21.5492 C   0  0  1  0  0  0  0  0  0  0  0  0
  -29.2148  -23.0177   19.4496 C   0  0  1  0  0  0  0  0  0  0  0  0
  -30.4831  -17.4626   21.7234 C   0  0  2  0  0  0  0  0  0  0  0  0
  -24.0377  -14.6334   29.1563 C   0  0  0  0  0  0  0  0  0  0  0  0
  -26.2927  -18.4014   24.1977 C   0  0  0  0  0  0  0  0  0  0  0  0
  -26.5012  -17.6268   26.5693 C   0  0  0  0  0  0  0  0  0  0  0  0
  -24.4415  -18.8216   25.8258 C   0  0  0  0  0  0  0  0  0  0  0  0
  -22.5541  -12.2817   26.5593 C   0  0  0  0  0  0  0  0  0  0  0  0
  -31.5959  -16.8692   20.8822 C   0  0  0  0  0  0  0  0  0  0  0  0
  -29.8013  -10.8090   20.0986 C   0  0  0  0  0  0  0  0  0  0  0  0
  -32.6337  -14.6871   20.2496 C   0  0  0  0  0  0  0  0  0  0  0  0
  -28.7051  -11.5251   20.8718 C   0  0  0  0  0  0  0  0  0  1  0  0
  -31.1860  -11.3077   20.4810 C   0  0  0  0  0  0  0  0  0  0  0  0
  -32.5726  -13.2036   20.5555 C   0  0  0  0  0  0  0  0  0  0  0  0
  -24.8421  -16.4464   25.0577 C   0  0  1  0  0  0  0  0  0  0  0  0
  -23.4356  -14.2545   27.8122 C   0  0  2  0  0  0  0  0  0  0  0  0
  -25.5199  -17.8054   25.3912 C   0  0  0  0  0  0  0  0  0  0  0  0
  -27.9912  -25.1340   19.7770 N   0  0  0  0  0  0  0  0  0  0  0  0
  -28.0676  -23.9586   19.1301 N   0  0  0  0  0  0  0  0  0  0  0  0
  -24.1721  -15.7488   22.7800 N   0  0  0  0  0  0  0  0  0  0  0  0
  -29.9576  -21.1120   20.8632 N   0  0  0  0  0  0  0  0  0  0  0  0
  -30.4750  -18.9254   21.6512 N   0  0  0  0  0  0  0  0  0  0  0  0
  -26.9858  -22.6280   17.4960 N   0  0  0  0  0  0  0  0  0  0  0  0
  -24.3944  -26.3203   17.7156 N   0  0  0  0  0  0  0  0  0  0  0  0
  -23.5763  -18.0870   20.4247 N   0  0  0  0  0  0  0  0  0  0  0  0
  -24.0805  -15.8718   26.1615 N   0  0  0  0  0  0  0  0  0  0  0  0
  -23.1688  -12.7883   27.8133 N   0  3  0  0  0  0  0  0  0  0  0  0
  -31.6158  -15.4007   21.0703 N   0  3  0  0  0  0  0  0  0  0  0  0
  -24.6431  -24.2775   16.7037 O   0  0  0  0  0  0  0  0  0  0  0  0
  -25.3076  -16.5365   20.2800 O   0  0  0  0  0  0  0  0  0  0  0  0
  -22.9171  -17.3097   23.9735 O   0  0  0  0  0  0  0  0  0  0  0  0
  -25.2534  -13.8741   26.2668 O   0  0  0  0  0  0  0  0  0  0  0  0
  -28.9089  -19.2290   20.0420 O   0  0  0  0  0  0  0  0  0  0  0  0
  -25.2270  -30.7372   21.0070 O   0  0  0  0  0  0  0  0  0  0  0  0
  -27.4325  -11.0389   20.4667 O   0  0  0  0  0  0  0  0  0  1  0  0
  -31.2893  -12.6990   20.2105 O   0  0  0  0  0  0  0  0  0  0  0  0
  -25.2530  -31.7058   26.4351 F   0  0  0  0  0  0  0  0  0  0  0  0
  -22.8986  -31.4043   22.3399 F   0  0  0  0  0  0  0  0  0  0  0  0
  1  2  1  0  0  0  0
  1  5  2  0  0  0  0
  2  6  2  0  0  0  0
  3  8  2  0  0  0  0
  3 15  1  0  0  0  0
  4  9  1  0  0  0  0
  4 15  2  0  0  0  0
  5 17  1  0  0  0  0
  6 19  1  0  0  0  0
  7 10  2  0  0  0  0
  7 18  1  0  0  0  0
  8 21  1  0  0  0  0
  9 21  2  0  0  0  0
 10 22  1  0  0  0  0
 11 12  2  0  0  0  0
 11 23  1  0  0  0  0
 12 24  1  0  0  0  0
 13 20  1  0  0  0  0
 13 22  2  0  0  0  0
 14 24  2  0  0  0  0
 14 25  1  0  0  0  0
 15 26  1  0  0  0  0
 16 26  1  0  0  0  0
 16 27  2  0  0  0  0
 16 28  1  0  0  0  0
 17 19  2  0  0  0  0
 17 33  1  0  0  0  0
 18 20  2  0  0  0  0
 18 34  1  0  0  0  0
 19 44  1  0  0  0  0
 20 35  1  0  0  0  0
 21 78  1  0  0  0  0
 22 79  1  0  0  0  0
 23 25  2  0  0  0  0
 23 78  1  0  0  0  0
 24 81  1  0  0  0  0
 25 82  1  0  0  0  0
 26 62  2  0  0  0  0
 27 63  1  0  0  0  0
 27 67  1  0  0  0  0
 28 68  1  0  0  0  0
 28 73  2  0  0  0  0
 29 45  1  0  0  0  0
 29 69  1  0  0  0  0
 29 74  2  0  0  0  0
 30 59  1  0  0  0  0
 30 64  1  0  0  0  0
 30 75  2  0  0  0  0
 31 60  1  0  0  0  0
 31 70  1  0  0  0  0
 31 76  2  0  0  0  0
 32 65  1  0  0  0  0
 32 66  1  0  0  0  0
 32 77  2  0  0  0  0
 33 36  1  0  0  0  0
 34 45  1  0  0  0  0
 35 64  1  0  0  0  0
 36 38  1  0  0  0  0
 37 39  1  0  0  0  0
 37 41  1  0  0  0  0
 38 44  1  0  0  0  0
 39 46  1  0  0  0  0
 40 42  1  0  0  0  0
 40 47  1  0  0  0  0
 41 65  1  0  0  0  0
 42 66  1  0  0  0  0
 43 46  1  0  0  0  0
 43 65  1  0  0  0  0
 44 69  1  0  0  0  0
 45 64  1  0  0  0  0
 46 63  1  0  0  0  0
 47 53  1  0  0  0  0
 47 66  1  0  0  0  0
 48 60  1  0  0  0  0
 49 61  1  0  0  0  0
 50 61  1  0  0  0  0
 51 61  1  0  0  0  0
 52 71  1  0  0  0  0
 53 72  1  0  0  0  0
 54 56  1  0  0  0  0
 54 57  1  0  0  0  0
 55 58  1  0  0  0  0
 55 72  1  0  0  0  0
 56 79  1  0  0  0  0
 57 80  1  0  0  0  0
 58 80  1  0  0  0  0
 59 61  1  0  0  0  0
 59 70  1  0  0  0  0
 60 71  1  0  0  0  0
 62 63  1  0  0  0  0
M  CHG  2  71   1  72   1
M  ISO  4  32 100  56 101  66 100  79 101
M  END
> <Batch ID>
0197

> <Smiles>
CNC(C)C(=O)NC(C(=O)N1Cc2cc([101O:1][101CH2:1]CCOCCNCC3CC[100N:0]3[100C:0](=O)N3CCCC(n4nc(-c5ccc(Oc6ccc(F)cc6F)cc5)c(C(N)=O)c4N)C3)ccc2CC1C(=O)NC1CCCc2ccccc21)C(C)(C)C

> <Shape>
0.206

> <Color>
0.046

> <Negative vol penalty>
0.000

$$$$

  -OEChem-04052323453D

 84 93  0     1  0  0  0  0  0999 V2000
  -33.6400  -20.0346   26.8429 C   0  0  0  0  0  0  0  0  0  0  0  0
  -32.4471  -19.7063   26.2067 C   0  0  0  0  0  0  0  0  0  0  0  0
  -23.2911   -9.7939   19.9079 C   0  0  0  0  0  0  0  0  0  0  0  0
  -23.7082   -9.9421   22.2830 C   0  0  0  0  0  0  0  0  0  0  0  0
  -33.7012  -21.1533   27.6727 C   0  0  0  0  0  0  0  0  0  0  0  0
  -31.3144  -20.4960   26.4010 C   0  0  0  0  0  0  0  0  0  0  0  0
  -28.8613  -21.4706   22.0792 C   0  0  0  0  0  0  0  0  0  0  0  0
  -22.5566   -8.6254   20.1098 C   0  0  0  0  0  0  0  0  0  0  0  0
  -22.9736   -8.7736   22.4849 C   0  0  0  0  0  0  0  0  0  0  0  0
  -28.0567  -20.4566   21.5612 C   0  0  0  0  0  0  0  0  0  0  0  0
  -20.2685   -5.8014   20.0406 C   0  0  0  0  0  0  0  0  0  0  0  0
  -19.0501   -5.6778   19.3729 C   0  0  0  0  0  0  0  0  0  0  0  0
  -26.1080  -21.5417   22.4802 C   0  0  0  0  0  0  0  0  0  0  0  0
  -18.2358   -7.6581   20.4920 C   0  0  0  0  0  0  0  0  0  0  0  0
  -23.8669  -10.4522   20.9945 C   0  0  0  0  0  0  0  0  0  0  0  0
  -24.1403  -12.9803   20.7896 C   0  0  0  0  0  0  0  0  0  0  0  0
  -32.5712  -21.9627   27.8696 C   0  0  0  0  0  0  0  0  0  0  0  0
  -28.2955  -22.5237   22.8122 C   0  0  0  0  0  0  0  0  0  0  0  0
  -31.3602  -21.6259   27.2353 C   0  0  0  0  0  0  0  0  0  0  0  0
  -26.9073  -22.5691   23.0043 C   0  0  0  0  0  0  0  0  0  0  0  0
  -22.3978   -8.1153   21.3983 C   0  0  0  0  0  0  0  0  0  0  0  0
  -26.6802  -20.4905   21.7641 C   0  0  0  0  0  0  0  0  0  0  0  0
  -20.4706   -6.8534   20.9341 C   0  0  0  0  0  0  0  0  0  0  0  0
  -18.0338   -6.6061   19.5986 C   0  0  0  0  0  0  0  0  0  0  0  0
  -19.4542   -7.7817   21.1598 C   0  0  0  0  0  0  0  0  0  0  0  0
  -24.6262  -11.6590   20.7866 C   0  0  0  0  0  0  0  0  0  0  0  0
  -25.2488  -13.7543   20.5475 C   0  0  0  0  0  0  0  0  0  0  0  0
  -22.8063  -13.4646   20.9932 C   0  0  0  0  0  0  0  0  0  0  0  0
  -28.5838  -23.5912   25.7924 C   0  0  0  0  0  0  0  0  0  0  0  0
  -26.6910  -25.9894   24.7023 C   0  0  0  0  0  0  0  0  0  0  0  0
  -24.3750  -27.0474   22.4300 C   0  0  0  0  0  0  0  0  0  0  0  0
  -29.9221  -14.8596   17.9217 C   0  0  0  0  0  0  0  0  0  0  0  0
  -32.6734  -23.1348   28.8131 C   0  0  0  0  0  0  0  0  0  0  0  0
  -29.1741  -23.6238   23.3416 C   0  0  0  0  0  0  0  0  0  0  0  0
  -26.2484  -23.6885   23.7668 C   0  0  0  0  0  0  0  0  0  0  0  0
  -31.5277  -24.1335   28.6700 C   0  0  0  0  0  0  0  0  0  0  0  0
  -30.1600  -12.5729   20.5038 C   0  0  0  0  0  0  0  0  0  0  0  0
  -30.1884  -23.4053   28.6159 C   0  0  0  0  0  0  0  0  0  0  0  0
  -28.7042  -12.2303   20.8196 C   0  0  0  0  0  0  0  0  0  0  0  0
  -25.6884  -19.7219   15.9028 C   0  0  0  0  0  0  0  0  0  0  0  0
  -25.0163  -18.6293   15.1235 C   0  0  0  0  0  0  0  0  0  0  0  0
  -30.3823  -12.6779   18.9993 C   0  0  0  0  0  0  0  0  0  0  0  0
  -29.1838  -17.1690   17.4593 C   0  0  0  0  0  0  0  0  0  0  0  0
  -28.0516  -15.3261   16.2913 C   0  0  0  0  0  0  0  0  0  0  0  0
  -27.8528  -17.9175   17.5188 C   0  0  0  0  0  0  0  0  0  0  0  0
  -26.7354  -16.0943   16.3804 C   0  0  0  0  0  0  0  0  0  0  0  0
  -28.0263  -13.3350   18.6314 C   0  0  0  0  0  0  0  0  0  0  0  0
  -30.1166  -22.4720   27.4013 C   0  0  1  0  0  0  0  0  0  0  0  0
  -28.5491  -24.3767   24.5120 C   0  0  1  0  0  0  0  0  0  0  0  0
  -27.7435  -13.2245   20.1432 C   0  0  1  0  0  0  0  0  0  0  0  0
  -25.6980  -18.3059   16.4345 C   0  0  0  0  0  0  0  0  0  0  0  0
  -22.9876  -29.0464   21.8162 C   0  0  0  0  0  0  0  0  0  0  0  0
  -22.6119  -19.2895   19.3916 C   0  0  0  0  0  0  0  0  0  0  0  0
  -24.8149  -25.4006   27.0354 C   0  0  0  0  0  0  0  0  0  0  0  0
  -23.0469  -26.7250   25.8572 C   0  0  0  0  0  0  0  0  0  0  0  0
  -25.1665  -27.8320   26.5674 C   0  0  0  0  0  0  0  0  0  0  0  0
  -25.6402  -27.2516   19.7623 C   0  0  0  0  0  0  0  0  0  0  0  0
  -24.8229  -18.0005   17.6198 C   0  0  0  0  0  0  0  0  0  0  0  0
  -24.5568  -19.8538   20.9029 C   0  0  0  0  0  0  0  0  0  1  0  0
  -25.2018  -26.2220   24.6185 C   0  0  1  0  0  0  0  0  0  0  0  0
  -24.2953  -28.3055   21.5842 C   0  0  2  0  0  0  0  0  0  0  0  0
  -24.0369  -18.9459   19.7940 C   0  0  2  0  0  0  0  0  0  0  0  0
  -24.5698  -26.5226   26.0069 C   0  0  0  0  0  0  0  0  0  0  0  0
  -25.9410  -11.5936   20.5603 N   0  0  0  0  0  0  0  0  0  0  0  0
  -26.2906  -12.8835   20.4188 N   0  0  0  0  0  0  0  0  0  0  0  0
  -27.1507  -24.7373   24.2700 N   0  0  0  0  0  0  0  0  0  0  0  0
  -29.4481  -13.6263   18.3932 N   0  0  0  0  0  0  0  0  0  0  0  0
  -28.9754  -15.7277   17.3572 N   0  0  0  0  0  0  0  0  0  0  0  0
  -26.9732  -17.5448   16.4021 N   0  0  0  0  0  0  0  0  0  0  0  0
  -25.4242  -15.0880   20.4342 N   0  0  0  0  0  0  0  0  0  0  0  0
  -21.7861  -12.5331   21.2297 N   0  0  0  0  0  0  0  0  0  0  0  0
  -29.8548  -23.2298   26.1965 N   0  0  0  0  0  0  0  0  0  0  0  0
  -25.0087  -27.2797   23.6324 N   0  0  0  0  0  0  0  0  0  0  0  0
  -24.3912  -27.9635   20.1368 N   0  3  0  0  0  0  0  0  0  0  0  0
  -24.9092  -19.1119   18.5999 N   0  3  0  0  0  0  0  0  0  0  0  0
  -22.5244  -14.6861   20.9499 O   0  0  0  0  0  0  0  0  0  0  0  0
  -27.5351  -23.3333   26.3716 O   0  0  0  0  0  0  0  0  0  0  0  0
  -27.4204  -26.8882   25.1287 O   0  0  0  0  0  0  0  0  0  0  0  0
  -23.9174  -25.9676   22.0625 O   0  0  0  0  0  0  0  0  0  0  0  0
  -31.1166  -15.1712   18.0041 O   0  0  0  0  0  0  0  0  0  0  0  0
  -21.6810   -6.9752   21.5957 O   0  0  0  0  0  0  0  0  0  0  0  0
  -25.8873  -19.4951   21.2567 O   0  0  0  0  0  0  0  0  0  1  0  0
  -16.8644   -6.4881   18.9561 F   0  0  0  0  0  0  0  0  0  0  0  0
  -19.6429   -8.7951   22.0161 F   0  0  0  0  0  0  0  0  0  0  0  0
  1  2  1  0  0  0  0
  1  5  2  0  0  0  0
  2  6  2  0  0  0  0
  3  8  2  0  0  0  0
  3 15  1  0  0  0  0
  4  9  1  0  0  0  0
  4 15  2  0  0  0  0
  5 17  1  0  0  0  0
  6 19  1  0  0  0  0
  7 10  2  0  0  0  0
  7 18  1  0  0  0  0
  8 21  1  0  0  0  0
  9 21  2  0  0  0  0
 10 22  1  0  0  0  0
 11 12  2  0  0  0  0
 11 23  1  0  0  0  0
 12 24  1  0  0  0  0
 13 20  1  0  0  0  0
 13 22  2  0  0  0  0
 14 24  2  0  0  0  0
 14 25  1  0  0  0  0
 15 26  1  0  0  0  0
 16 26  1  0  0  0  0
 16 27  2  0  0  0  0
 16 28  1  0  0  0  0
 17 19  2  0  0  0  0
 17 33  1  0  0  0  0
 18 20  2  0  0  0  0
 18 34  1  0  0  0  0
 19 48  1  0  0  0  0
 20 35  1  0  0  0  0
 21 81  1  0  0  0  0
 22 82  1  0  0  0  0
 23 25  2  0  0  0  0
 23 81  1  0  0  0  0
 24 83  1  0  0  0  0
 25 84  1  0  0  0  0
 26 64  2  0  0  0  0
 27 65  1  0  0  0  0
 27 70  1  0  0  0  0
 28 71  1  0  0  0  0
 28 76  2  0  0  0  0
 29 49  1  0  0  0  0
 29 72  1  0  0  0  0
 29 77  2  0  0  0  0
 30 60  1  0  0  0  0
 30 66  1  0  0  0  0
 30 78  2  0  0  0  0
 31 61  1  0  0  0  0
 31 73  1  0  0  0  0
 31 79  2  0  0  0  0
 32 67  1  0  0  0  0
 32 68  1  0  0  0  0
 32 80  2  0  0  0  0
 33 36  1  0  0  0  0
 34 49  1  0  0  0  0
 35 66  1  0  0  0  0
 36 38  1  0  0  0  0
 37 39  1  0  0  0  0
 37 42  1  0  0  0  0
 38 48  1  0  0  0  0
 39 50  1  0  0  0  0
 40 41  1  0  0  0  0
 40 51  1  0  0  0  0
 41 51  1  0  0  0  0
 42 67  1  0  0  0  0
 43 45  1  0  0  0  0
 43 68  1  0  0  0  0
 44 46  1  0  0  0  0
 44 68  1  0  0  0  0
 45 69  1  0  0  0  0
 46 69  1  0  0  0  0
 47 50  1  0  0  0  0
 47 67  1  0  0  0  0
 48 72  1  0  0  0  0
 49 66  1  0  0  0  0
 50 65  1  0  0  0  0
 51 58  1  0  0  0  0
 51 69  1  0  0  0  0
 52 61  1  0  0  0  0
 53 62  1  0  0  0  0
 54 63  1  0  0  0  0
 55 63  1  0  0  0  0
 56 63  1  0  0  0  0
 57 74  1  0  0  0  0
 58 75  1  0  0  0  0
 59 62  1  0  0  0  0
 59 82  1  0  0  0  0
 60 63  1  0  0  0  0
 60 73  1  0  0  0  0
 61 74  1  0  0  0  0
 62 75  1  0  0  0  0
 64 65  1  0  0  0  0
M  CHG  2  74   1  75   1
M  ISO  4  32 100  59 101  68 100  82 101
M  END
> <Batch ID>
0197

> <Smiles>
CNC(C)C(=O)NC(C(=O)N1Cc2cc([101O:1][101CH2:1]C(C)NCC3(N4CC[100N:0]([100C:0](=O)N5CCCC(n6nc(-c7ccc(Oc8ccc(F)cc8F)cc7)c(C(N)=O)c6N)C5)CC4)CC3)ccc2CC1C(=O)NC1CCCc2ccccc21)C(C)(C)C

> <Shape>
0.151

> <Color>
0.173

> <Negative vol penalty>
0.000

$$$$

  -OEChem-04052323453D

 94104  0     1  0  0  0  0  0999 V2000
  -18.2611  -27.0543   23.9362 C   0  0  0  0  0  0  0  0  0  0  0  0
  -19.6350  -26.8399   23.9769 C   0  0  0  0  0  0  0  0  0  0  0  0
  -22.8393   -5.1027   23.4363 C   0  0  0  0  0  0  0  0  0  0  0  0
  -20.5232   -5.1423   22.7498 C   0  0  0  0  0  0  0  0  0  0  0  0
  -17.6852  -27.6689   22.8251 C   0  0  0  0  0  0  0  0  0  0  0  0
  -20.4339  -27.2391   22.9059 C   0  0  0  0  0  0  0  0  0  0  0  0
  -26.1607  -29.3910   23.1862 C   0  0  0  0  0  0  0  0  0  0  0  0
  -22.4849   -4.4062   24.5917 C   0  0  0  0  0  0  0  0  0  0  0  0
  -20.1688   -4.4458   23.9052 C   0  0  0  0  0  0  0  0  0  0  0  0
  -27.4010  -28.7850   22.9910 C   0  0  0  0  0  0  0  0  0  0  0  0
  -21.1366   -5.1114   27.6098 C   0  0  0  0  0  0  0  0  0  0  0  0
  -21.6968   -5.5313   28.8162 C   0  0  0  0  0  0  0  0  0  0  0  0
  -27.4145  -29.5621   20.7073 C   0  0  0  0  0  0  0  0  0  0  0  0
  -22.7037   -3.3543   29.1063 C   0  0  0  0  0  0  0  0  0  0  0  0
  -29.1775  -18.8000   19.2347 C   0  0  0  0  0  0  0  0  0  0  0  0
  -21.8584   -5.4708   22.5154 C   0  0  0  0  0  0  0  0  0  0  0  0
  -22.5835   -5.6438   20.0757 C   0  0  0  0  0  0  0  0  0  0  0  0
  -18.4786  -28.0845   21.7441 C   0  0  0  0  0  0  0  0  0  0  0  0
  -25.5319  -30.0790   22.1385 C   0  0  0  0  0  0  0  0  0  0  0  0
  -19.8679  -27.8586   21.7787 C   0  0  0  0  0  0  0  0  0  0  0  0
  -26.1674  -30.1781   20.8925 C   0  0  0  0  0  0  0  0  0  0  0  0
  -27.8911  -18.4831   19.6209 C   0  0  0  0  0  0  0  0  0  0  0  0
  -21.1497   -4.0777   24.8262 C   0  0  0  0  0  0  0  0  0  0  0  0
  -28.0268  -28.8680   21.7506 C   0  0  0  0  0  0  0  0  0  0  0  0
  -21.3599   -3.8129   27.1517 C   0  0  0  0  0  0  0  0  0  0  0  0
  -22.4804   -4.6528   29.5645 C   0  0  0  0  0  0  0  0  0  0  0  0
  -22.1434   -2.9344   27.8999 C   0  0  0  0  0  0  0  0  0  0  0  0
  -22.2237   -6.1908   21.3220 C   0  0  0  0  0  0  0  0  0  0  0  0
  -27.2915  -19.3737   20.4878 C   0  0  0  0  0  0  0  0  0  0  0  0
  -22.8366   -6.7356   19.2818 C   0  0  0  0  0  0  0  0  0  0  0  0
  -29.1454  -20.6890   20.4987 C   0  0  0  0  0  0  0  0  0  0  0  0
  -22.6802   -4.2715   19.6719 C   0  0  0  0  0  0  0  0  0  0  0  0
  -22.8053  -29.7286   20.5426 C   0  0  0  0  0  0  0  0  0  0  0  0
  -23.6889  -32.5409   19.1889 C   0  0  0  0  0  0  0  0  0  0  0  0
  -26.2024  -34.7008   18.3742 C   0  0  0  0  0  0  0  0  0  0  0  0
  -24.5615  -12.2247   20.7037 C   0  0  0  0  0  0  0  0  0  0  0  0
  -17.8049  -28.7019   20.5443 C   0  0  0  0  0  0  0  0  0  0  0  0
  -24.2063  -30.7500   22.3730 C   0  0  0  0  0  0  0  0  0  0  0  0
  -25.5437  -30.9223   19.7412 C   0  0  0  0  0  0  0  0  0  0  0  0
  -18.7689  -29.4336   19.6139 C   0  0  0  0  0  0  0  0  0  0  0  0
  -21.6391  -11.3082   18.6889 C   0  0  0  0  0  0  0  0  0  0  0  0
  -20.0055  -28.5807   19.3486 C   0  0  0  0  0  0  0  0  0  0  0  0
  -21.4626   -9.8444   19.0784 C   0  0  0  0  0  0  0  0  0  0  0  0
  -24.7470  -15.2605   22.1281 C   0  0  0  0  0  0  0  0  0  0  0  0
  -28.2038  -23.7059   21.1335 C   0  0  0  0  0  0  0  0  0  0  0  0
  -30.2499  -23.6059   22.6114 C   0  0  0  0  0  0  0  0  0  0  0  0
  -22.1590  -12.1597   19.8478 C   0  0  0  0  0  0  0  0  0  0  0  0
  -23.5563  -14.4811   21.5615 C   0  0  0  0  0  0  0  0  0  0  0  0
  -23.2204  -10.1567   20.8550 C   0  0  0  0  0  0  0  0  0  0  0  0
  -28.8945  -24.7485   20.2619 C   0  0  0  0  0  0  0  0  0  0  0  0
  -30.9293  -24.6404   21.7223 C   0  0  0  0  0  0  0  0  0  0  0  0
  -20.7709  -28.2999   20.6474 C   0  0  1  0  0  0  0  0  0  0  0  0
  -23.4206  -30.9867   21.0868 C   0  0  1  0  0  0  0  0  0  0  0  0
  -22.7628   -9.2864   19.6761 C   0  0  1  0  0  0  0  0  0  0  0  0
  -29.1902  -22.7926   21.8656 C   0  0  0  0  0  0  0  0  0  0  0  0
  -25.6585  -14.4865   21.1634 C   0  0  2  0  0  0  0  0  0  0  0  0
  -25.8988  -19.1352   20.9707 C   0  0  0  0  0  0  0  0  0  0  0  0
  -26.6198  -36.8990   17.2381 C   0  0  0  0  0  0  0  0  0  0  0  0
  -23.3305  -31.2014   16.4710 C   0  0  0  0  0  0  0  0  0  0  0  0
  -24.6421  -33.0751   15.4525 C   0  0  0  0  0  0  0  0  0  0  0  0
  -22.4772  -33.5488   16.5977 C   0  0  0  0  0  0  0  0  0  0  0  0
  -27.3041  -35.9007   20.8452 C   0  0  0  0  0  0  0  0  0  0  0  0
  -28.4789  -15.4907   20.3474 C   0  0  0  0  0  0  0  0  0  0  0  0
  -27.2113  -17.2447   19.1156 C   0  0  0  0  0  0  0  0  0  0  0  0
  -26.0553  -15.1726   19.8711 C   0  0  0  0  0  0  0  0  0  0  0  0
  -30.5041  -26.6512   20.3113 C   0  0  0  0  0  0  0  0  0  0  0  0
  -29.5315  -27.8119   20.2418 C   0  0  0  0  0  0  0  0  0  1  0  0
  -24.5031  -32.9367   17.9809 C   0  0  1  0  0  0  0  0  0  0  0  0
  -26.3412  -36.2010   18.5601 C   0  0  2  0  0  0  0  0  0  0  0  0
  -23.7493  -32.6748   16.6465 C   0  0  0  0  0  0  0  0  0  0  0  0
  -29.8373  -19.8989   19.6557 N   0  0  0  0  0  0  0  0  0  0  0  0
  -22.2453   -7.5263   21.3245 N   0  0  0  0  0  0  0  0  0  0  0  0
  -27.8917  -20.4907   20.9486 N   0  0  0  0  0  0  0  0  0  0  0  0
  -22.6218   -7.8276   20.0701 N   0  0  0  0  0  0  0  0  0  0  0  0
  -24.2441  -31.5561   20.0182 N   0  0  0  0  0  0  0  0  0  0  0  0
  -23.3479  -11.5678   20.4725 N   0  0  0  0  0  0  0  0  0  0  0  0
  -24.5282  -13.5765   20.9648 N   0  0  0  0  0  0  0  0  0  0  0  0
  -23.2199   -6.8584   17.9932 N   0  0  0  0  0  0  0  0  0  0  0  0
  -22.3850   -3.2757   20.6130 N   0  0  0  0  0  0  0  0  0  0  0  0
  -29.8050  -21.8495   20.9596 N   0  0  0  0  0  0  0  0  0  0  0  0
  -21.5442  -29.4588   21.0390 N   0  0  0  0  0  0  0  0  0  0  0  0
  -24.8880  -34.3288   18.1864 N   0  0  0  0  0  0  0  0  0  0  0  0
  -29.8820  -25.5284   21.0952 N   0  3  0  0  0  0  0  0  0  0  0  0
  -27.4593  -36.5056   19.4972 N   0  3  0  0  0  0  0  0  0  0  0  0
  -27.1334  -16.1480   20.1511 N   0  3  1  0  0  0  0  0  0  0  0  0
  -23.0342   -3.9379   18.5157 O   0  0  0  0  0  0  0  0  0  0  0  0
  -23.4279  -29.0534   19.7313 O   0  0  0  0  0  0  0  0  0  0  0  0
  -22.6036  -33.0905   19.3932 O   0  0  0  0  0  0  0  0  0  0  0  0
  -27.1643  -33.9358   18.3901 O   0  0  0  0  0  0  0  0  0  0  0  0
  -25.6417  -11.6198   20.7083 O   0  0  0  0  0  0  0  0  0  0  0  0
  -20.8036   -3.3978   25.9534 O   0  0  0  0  0  0  0  0  0  0  0  0
  -29.2459  -28.2726   21.5558 O   0  0  0  0  0  0  0  0  0  1  0  0
  -23.0196   -5.0566   30.7222 F   0  0  0  0  0  0  0  0  0  0  0  0
  -22.3624   -1.6862   27.4643 F   0  0  0  0  0  0  0  0  0  0  0  0
  1  2  1  0  0  0  0
  1  5  2  0  0  0  0
  2  6  2  0  0  0  0
  3  8  2  0  0  0  0
  3 16  1  0  0  0  0
  4  9  1  0  0  0  0
  4 16  2  0  0  0  0
  5 18  1  0  0  0  0
  6 20  1  0  0  0  0
  7 10  2  0  0  0  0
  7 19  1  0  0  0  0
  8 23  1  0  0  0  0
  9 23  2  0  0  0  0
 10 24  1  0  0  0  0
 11 12  2  0  0  0  0
 11 25  1  0  0  0  0
 12 26  1  0  0  0  0
 13 21  1  0  0  0  0
 13 24  2  0  0  0  0
 14 26  2  0  0  0  0
 14 27  1  0  0  0  0
 15 22  1  0  0  0  0
 15 71  2  0  0  0  0
 16 28  1  0  0  0  0
 17 28  1  0  0  0  0
 17 30  2  0  0  0  0
 17 32  1  0  0  0  0
 18 20  2  0  0  0  0
 18 37  1  0  0  0  0
 19 21  2  0  0  0  0
 19 38  1  0  0  0  0
 20 52  1  0  0  0  0
 21 39  1  0  0  0  0
 22 29  2  0  0  0  0
 22 64  1  0  0  0  0
 23 91  1  0  0  0  0
 24 92  1  0  0  0  0
 25 27  2  0  0  0  0
 25 91  1  0  0  0  0
 26 93  1  0  0  0  0
 27 94  1  0  0  0  0
 28 72  2  0  0  0  0
 29 57  1  0  0  0  0
 29 73  1  0  0  0  0
 30 74  1  0  0  0  0
 30 78  1  0  0  0  0
 31 71  1  0  0  0  0
 31 73  2  0  0  0  0
 31 80  1  0  0  0  0
 32 79  1  0  0  0  0
 32 86  2  0  0  0  0
 33 53  1  0  0  0  0
 33 81  1  0  0  0  0
 33 87  2  0  0  0  0
 34 68  1  0  0  0  0
 34 75  1  0  0  0  0
 34 88  2  0  0  0  0
 35 69  1  0  0  0  0
 35 82  1  0  0  0  0
 35 89  2  0  0  0  0
 36 76  1  0  0  0  0
 36 77  1  0  0  0  0
 36 90  2  0  0  0  0
 37 40  1  0  0  0  0
 38 53  1  0  0  0  0
 39 75  1  0  0  0  0
 40 42  1  0  0  0  0
 41 43  1  0  0  0  0
 41 47  1  0  0  0  0
 42 52  1  0  0  0  0
 43 54  1  0  0  0  0
 44 48  1  0  0  0  0
 44 56  1  0  0  0  0
 45 50  1  0  0  0  0
 45 55  1  0  0  0  0
 46 51  1  0  0  0  0
 46 55  1  0  0  0  0
 47 76  1  0  0  0  0
 48 77  1  0  0  0  0
 49 54  1  0  0  0  0
 49 76  1  0  0  0  0
 50 83  1  0  0  0  0
 51 83  1  0  0  0  0
 52 81  1  0  0  0  0
 53 75  1  0  0  0  0
 54 74  1  0  0  0  0
 55 80  1  0  0  0  0
 56 65  1  0  0  0  0
 56 77  1  0  0  0  0
 58 69  1  0  0  0  0
 59 70  1  0  0  0  0
 60 70  1  0  0  0  0
 61 70  1  0  0  0  0
 62 84  1  0  0  0  0
 63 85  1  0  0  0  0
 64 85  1  0  0  0  0
 65 85  1  0  0  0  0
 66 67  1  0  0  0  0
 66 83  1  0  0  0  0
 67 92  1  0  0  0  0
 68 70  1  0  0  0  0
 68 82  1  0  0  0  0
 69 84  1  0  0  0  0
 72 74  1  0  0  0  0
M  CHG  3  83   1  84   1  85   1
M  ISO  4  36 100  67 101  77 100  92 101
M  END
> <Batch ID>
0197

> <Smiles>
CNC(C)C(=O)NC(C(=O)N1Cc2cc([101O:1][101CH2:1]CN3CCC(Nc4ncc(CN(C)CC5CC[100N:0]5[100C:0](=O)N5CCCC(n6nc(-c7ccc(Oc8ccc(F)cc8F)cc7)c(C(N)=O)c6N)C5)c(C)n4)CC3)ccc2CC1C(=O)NC1CCCc2ccccc21)C(C)(C)C

> <Shape>
0.270

> <Color>
0.079

> <Negative vol penalty>
0.000

$$$$

  -OEChem-04052323453D

 86 95  0     1  0  0  0  0  0999 V2000
  -26.3479  -23.1945   15.3159 C   0  0  0  0  0  0  0  0  0  0  0  0
  -26.5317  -22.0468   16.0804 C   0  0  0  0  0  0  0  0  0  0  0  0
  -26.4911  -28.9889   19.0847 C   0  0  0  0  0  0  0  0  0  0  0  0
  -26.4905  -28.6792   21.4808 C   0  0  0  0  0  0  0  0  0  0  0  0
  -25.7740  -24.3283   15.8894 C   0  0  0  0  0  0  0  0  0  0  0  0
  -26.1426  -22.0327   17.4193 C   0  0  0  0  0  0  0  0  0  0  0  0
  -23.6548  -17.8043   18.6750 C   0  0  0  0  0  0  0  0  0  0  0  0
  -25.3006  -29.7098   19.1776 C   0  0  0  0  0  0  0  0  0  0  0  0
  -25.3000  -29.4001   21.5737 C   0  0  0  0  0  0  0  0  0  0  0  0
  -24.4174  -16.6575   18.8919 C   0  0  0  0  0  0  0  0  0  0  0  0
  -22.0723  -30.8505   22.4033 C   0  0  0  0  0  0  0  0  0  0  0  0
  -21.0644  -30.3355   23.2184 C   0  0  0  0  0  0  0  0  0  0  0  0
  -24.2642  -17.0134   21.2729 C   0  0  0  0  0  0  0  0  0  0  0  0
  -20.9964  -28.3326   21.8689 C   0  0  0  0  0  0  0  0  0  0  0  0
  -27.0860  -28.4735   20.2363 C   0  0  0  0  0  0  0  0  0  0  0  0
  -29.6260  -28.2382   20.2074 C   0  0  0  0  0  0  0  0  0  0  0  0
  -25.3689  -24.3249   17.2335 C   0  0  0  0  0  0  0  0  0  0  0  0
  -23.1996  -18.5716   19.7568 C   0  0  0  0  0  0  0  0  0  0  0  0
  -25.5640  -23.1680   18.0118 C   0  0  0  0  0  0  0  0  0  0  0  0
  -23.4938  -18.1681   21.0671 C   0  0  0  0  0  0  0  0  0  0  0  0
  -24.7050  -29.9154   20.4220 C   0  0  0  0  0  0  0  0  0  0  0  0
  -24.7246  -16.2635   20.1910 C   0  0  0  0  0  0  0  0  0  0  0  0
  -22.5422  -30.1067   21.3209 C   0  0  0  0  0  0  0  0  0  0  0  0
  -20.5264  -29.0765   22.9513 C   0  0  0  0  0  0  0  0  0  0  0  0
  -22.0043  -28.8477   21.0537 C   0  0  0  0  0  0  0  0  0  0  0  0
  -28.3155  -27.7283   20.1410 C   0  0  0  0  0  0  0  0  0  0  0  0
  -30.4314  -27.1347   20.0658 C   0  0  0  0  0  0  0  0  0  0  0  0
  -30.0751  -29.5886   20.3816 C   0  0  0  0  0  0  0  0  0  0  0  0
  -23.6632  -21.5583   20.7411 C   0  0  0  0  0  0  0  0  0  0  0  0
  -21.4062  -20.7725   22.9345 C   0  0  0  0  0  0  0  0  0  0  0  0
  -19.8072  -18.3269   24.6977 C   0  0  0  0  0  0  0  0  0  0  0  0
  -29.3272  -21.4033   21.3039 C   0  0  0  0  0  0  0  0  0  0  0  0
  -24.7965  -25.5900   17.8223 C   0  0  0  0  0  0  0  0  0  0  0  0
  -22.3555  -19.7912   19.5068 C   0  0  0  0  0  0  0  0  0  0  0  0
  -23.0120  -18.9459   22.2635 C   0  0  0  0  0  0  0  0  0  0  0  0
  -24.0680  -25.3705   19.1458 C   0  0  0  0  0  0  0  0  0  0  0  0
  -30.5442  -22.7948   18.1006 C   0  0  0  0  0  0  0  0  0  0  0  0
  -24.9006  -24.4919   20.0741 C   0  0  0  0  0  0  0  0  0  0  0  0
  -30.1651  -24.2639   18.2584 C   0  0  0  0  0  0  0  0  0  0  0  0
  -31.1893  -14.7731   22.3288 C   0  0  0  0  0  0  0  0  0  0  0  0
  -29.5461  -21.8655   18.7904 C   0  0  0  0  0  0  0  0  0  0  0  0
  -28.9454  -23.6679   20.3859 C   0  0  0  0  0  0  0  0  0  0  0  0
  -30.8500  -18.1284   22.0427 C   0  0  0  0  0  0  0  0  0  0  0  0
  -28.8097  -17.7863   21.7951 C   0  0  0  0  0  0  0  0  0  0  0  0
  -25.1321  -23.1056   19.4609 C   0  0  1  0  0  0  0  0  0  0  0  0
  -22.3788  -20.7820   20.6666 C   0  0  1  0  0  0  0  0  0  0  0  0
  -29.7183  -14.4565   22.2824 C   0  0  1  0  0  0  0  0  0  0  0  0
  -29.9681  -24.6151   19.7406 C   0  0  2  0  0  0  0  0  0  0  0  0
  -29.6253  -19.0569   22.0852 C   0  0  0  0  0  0  0  0  0  0  0  0
  -30.2367  -15.7224   21.6540 C   0  0  1  0  0  0  0  0  0  0  0  0
  -18.0346  -17.9951   26.4427 C   0  0  0  0  0  0  0  0  0  0  0  0
  -23.3587  -21.6958   25.0898 C   0  0  0  0  0  0  0  0  0  0  0  0
  -21.9610  -20.4838   26.7768 C   0  0  0  0  0  0  0  0  0  0  0  0
  -20.9824  -22.3735   25.4753 C   0  0  0  0  0  0  0  0  0  0  0  0
  -25.3586  -11.9453   17.8670 C   0  0  0  0  0  0  0  0  0  0  0  0
  -23.6582  -11.5445   19.5165 C   0  0  0  0  0  0  0  0  0  0  0  0
  -18.1308  -16.7270   22.8568 C   0  0  0  0  0  0  0  0  0  0  0  0
  -29.2111  -13.3285   21.4107 C   0  0  0  0  0  0  0  0  0  0  0  0
  -27.1421  -12.4812   20.2971 C   0  0  0  0  0  0  0  0  0  0  0  0
  -25.3622  -14.0984   19.4413 C   0  0  0  0  0  0  0  0  0  1  0  0
  -21.4245  -20.1694   24.3183 C   0  0  1  0  0  0  0  0  0  0  0  0
  -18.3332  -18.0694   24.9534 C   0  0  2  0  0  0  0  0  0  0  0  0
  -25.6488  -12.7512   20.1117 C   0  0  1  0  0  0  0  0  0  0  0  0
  -21.9425  -21.1668   25.3927 C   0  0  0  0  0  0  0  0  0  0  0  0
  -28.2855  -26.4039   19.9703 N   0  0  0  0  0  0  0  0  0  0  0  0
  -29.5872  -26.0723   19.9282 N   0  0  0  0  0  0  0  0  0  0  0  0
  -22.1953  -20.1344   21.9670 N   0  0  0  0  0  0  0  0  0  0  0  0
  -29.3108  -22.2597   20.1885 N   0  0  0  0  0  0  0  0  0  0  0  0
  -31.7722  -26.9791   20.0468 N   0  0  0  0  0  0  0  0  0  0  0  0
  -29.1144  -30.6008   20.5115 N   0  0  0  0  0  0  0  0  0  0  0  0
  -23.9474  -22.2864   19.6015 N   0  0  0  0  0  0  0  0  0  0  0  0
  -20.0750  -19.6730   24.5651 N   0  0  0  0  0  0  0  0  0  0  0  0
  -29.5843  -20.0622   21.0364 N   0  0  0  0  0  0  0  0  0  0  0  0
  -25.0930  -11.6784   19.2783 N   0  0  0  0  0  0  0  0  0  0  0  0
  -29.9386  -17.0023   22.3423 N   0  3  0  0  0  0  0  0  0  0  0  0
  -17.9154  -16.7840   24.3256 N   0  3  0  0  0  0  0  0  0  0  0  0
  -27.7488  -13.4979   21.1917 N   0  3  0  0  0  0  0  0  0  0  0  0
  -31.2923  -29.8909   20.4046 O   0  0  0  0  0  0  0  0  0  0  0  0
  -24.3450  -21.5020   21.7577 O   0  0  0  0  0  0  0  0  0  0  0  0
  -20.7117  -21.7687   22.7181 O   0  0  0  0  0  0  0  0  0  0  0  0
  -20.6385  -17.4245   24.6267 O   0  0  0  0  0  0  0  0  0  0  0  0
  -29.1211  -21.7974   22.4569 O   0  0  0  0  0  0  0  0  0  0  0  0
  -23.5435  -30.6190   20.5131 O   0  0  0  0  0  0  0  0  0  0  0  0
  -25.4694  -15.1449   20.4055 O   0  0  0  0  0  0  0  0  0  1  0  0
  -19.5596  -28.5814   23.7350 F   0  0  0  0  0  0  0  0  0  0  0  0
  -22.4525  -28.1280   20.0160 F   0  0  0  0  0  0  0  0  0  0  0  0
  1  2  1  0  0  0  0
  1  5  2  0  0  0  0
  2  6  2  0  0  0  0
  3  8  2  0  0  0  0
  3 15  1  0  0  0  0
  4  9  1  0  0  0  0
  4 15  2  0  0  0  0
  5 17  1  0  0  0  0
  6 19  1  0  0  0  0
  7 10  2  0  0  0  0
  7 18  1  0  0  0  0
  8 21  1  0  0  0  0
  9 21  2  0  0  0  0
 10 22  1  0  0  0  0
 11 12  2  0  0  0  0
 11 23  1  0  0  0  0
 12 24  1  0  0  0  0
 13 20  1  0  0  0  0
 13 22  2  0  0  0  0
 14 24  2  0  0  0  0
 14 25  1  0  0  0  0
 15 26  1  0  0  0  0
 16 26  1  0  0  0  0
 16 27  2  0  0  0  0
 16 28  1  0  0  0  0
 17 19  2  0  0  0  0
 17 33  1  0  0  0  0
 18 20  2  0  0  0  0
 18 34  1  0  0  0  0
 19 45  1  0  0  0  0
 20 35  1  0  0  0  0
 21 83  1  0  0  0  0
 22 84  1  0  0  0  0
 23 25  2  0  0  0  0
 23 83  1  0  0  0  0
 24 85  1  0  0  0  0
 25 86  1  0  0  0  0
 26 65  2  0  0  0  0
 27 66  1  0  0  0  0
 27 69  1  0  0  0  0
 28 70  1  0  0  0  0
 28 78  2  0  0  0  0
 29 46  1  0  0  0  0
 29 71  1  0  0  0  0
 29 79  2  0  0  0  0
 30 61  1  0  0  0  0
 30 67  1  0  0  0  0
 30 80  2  0  0  0  0
 31 62  1  0  0  0  0
 31 72  1  0  0  0  0
 31 81  2  0  0  0  0
 32 68  1  0  0  0  0
 32 73  1  0  0  0  0
 32 82  2  0  0  0  0
 33 36  1  0  0  0  0
 34 46  1  0  0  0  0
 35 67  1  0  0  0  0
 36 38  1  0  0  0  0
 37 39  1  0  0  0  0
 37 41  1  0  0  0  0
 38 45  1  0  0  0  0
 39 48  1  0  0  0  0
 40 47  1  0  0  0  0
 40 50  1  0  0  0  0
 41 68  1  0  0  0  0
 42 48  1  0  0  0  0
 42 68  1  0  0  0  0
 43 49  1  0  0  0  0
 43 75  1  0  0  0  0
 44 49  1  0  0  0  0
 44 75  1  0  0  0  0
 45 71  1  0  0  0  0
 46 67  1  0  0  0  0
 47 50  1  0  0  0  0
 47 58  1  0  0  0  0
 48 66  1  0  0  0  0
 49 73  1  0  0  0  0
 50 75  1  0  0  0  0
 51 62  1  0  0  0  0
 52 64  1  0  0  0  0
 53 64  1  0  0  0  0
 54 64  1  0  0  0  0
 55 74  1  0  0  0  0
 56 74  1  0  0  0  0
 57 76  1  0  0  0  0
 58 77  1  0  0  0  0
 59 63  1  0  0  0  0
 59 77  1  0  0  0  0
 60 63  1  0  0  0  0
 60 84  1  0  0  0  0
 61 64  1  0  0  0  0
 61 72  1  0  0  0  0
 62 76  1  0  0  0  0
 63 74  1  0  0  0  0
 65 66  1  0  0  0  0
M  CHG  3  75   1  76   1  77   1
M  ISO  4  32 100  60 101  73 100  84 101
M  END
> <Batch ID>
0197

> <Smiles>
CNC(C)C(=O)NC(C(=O)N1Cc2cc([101O:1][101CH2:1]C(CNCC3CC3N3CC([100NH:0][100C:0](=O)N4CCCC(n5nc(-c6ccc(Oc7ccc(F)cc7F)cc6)c(C(N)=O)c5N)C4)C3)N(C)C)ccc2CC1C(=O)NC1CCCc2ccccc21)C(C)(C)C

> <Shape>
0.228

> <Color>
0.041

> <Negative vol penalty>
0.000

$$$$

  -OEChem-04052323453D

 93104  0     1  0  0  0  0  0999 V2000
  -18.6426  -32.0559   25.7289 C   0  0  0  0  0  0  0  0  0  0  0  0
  -20.0321  -32.1179   25.6988 C   0  0  0  0  0  0  0  0  0  0  0  0
  -28.5096  -14.6028   18.6323 C   0  0  0  0  0  0  0  0  0  0  0  0
  -28.8118  -14.3063   21.0109 C   0  0  0  0  0  0  0  0  0  0  0  0
  -17.9815  -30.9736   25.1498 C   0  0  0  0  0  0  0  0  0  0  0  0
  -20.7614  -31.0968   25.0904 C   0  0  0  0  0  0  0  0  0  0  0  0
  -26.0075  -31.6677   21.9827 C   0  0  0  0  0  0  0  0  0  0  0  0
  -28.6508  -13.2281   18.4430 C   0  0  0  0  0  0  0  0  0  0  0  0
  -28.9530  -12.9316   20.8216 C   0  0  0  0  0  0  0  0  0  0  0  0
  -27.3387  -31.4649   22.3442 C   0  0  0  0  0  0  0  0  0  0  0  0
  -29.2905   -9.8377   17.2941 C   0  0  0  0  0  0  0  0  0  0  0  0
  -30.1075   -9.4059   16.2493 C   0  0  0  0  0  0  0  0  0  0  0  0
  -27.2444  -29.2390   21.4191 C   0  0  0  0  0  0  0  0  0  0  0  0
  -31.9884  -10.5460   17.2491 C   0  0  0  0  0  0  0  0  0  0  0  0
  -35.3385  -29.6631   17.8990 C   0  0  0  0  0  0  0  0  0  0  0  0
  -28.5902  -15.1419   19.9163 C   0  0  0  0  0  0  0  0  0  0  0  0
  -27.2517  -17.2694   20.3523 C   0  0  0  0  0  0  0  0  0  0  0  0
  -18.7026  -29.9436   24.5255 C   0  0  0  0  0  0  0  0  0  0  0  0
  -25.2803  -30.6521   21.3454 C   0  0  0  0  0  0  0  0  0  0  0  0
  -20.1093  -29.9991   24.5035 C   0  0  0  0  0  0  0  0  0  0  0  0
  -25.9049  -29.4324   21.0483 C   0  0  0  0  0  0  0  0  0  0  0  0
  -28.8725  -12.3925   19.5377 C   0  0  0  0  0  0  0  0  0  0  0  0
  -27.9565  -30.2493   22.0649 C   0  0  0  0  0  0  0  0  0  0  0  0
  -29.8223  -10.6237   18.3164 C   0  0  0  0  0  0  0  0  0  0  0  0
  -31.4565   -9.7600   16.2268 C   0  0  0  0  0  0  0  0  0  0  0  0
  -31.1713  -10.9778   18.2939 C   0  0  0  0  0  0  0  0  0  0  0  0
  -28.4450  -16.5620   20.1124 C   0  0  0  0  0  0  0  0  0  0  0  0
  -35.5773  -28.0178   16.3288 C   0  0  0  0  0  0  0  0  0  0  0  0
  -33.9778  -29.6699   17.6851 C   0  0  0  0  0  0  0  0  0  0  0  0
  -34.2164  -28.0240   16.1153 C   0  0  0  0  0  0  0  0  0  0  0  0
  -27.6466  -18.5800   20.4664 C   0  0  0  0  0  0  0  0  0  0  0  0
  -25.9067  -16.7851   20.4624 C   0  0  0  0  0  0  0  0  0  0  0  0
  -22.6821  -28.9665   22.0608 C   0  0  0  0  0  0  0  0  0  0  0  0
  -23.0677  -27.8260   19.0486 C   0  0  0  0  0  0  0  0  0  0  0  0
  -25.1661  -27.2220   16.4259 C   0  0  0  0  0  0  0  0  0  0  0  0
  -30.4407  -22.8838   18.8884 C   0  0  0  0  0  0  0  0  0  0  0  0
  -17.9459  -28.7704   23.9548 C   0  0  0  0  0  0  0  0  0  0  0  0
  -23.8531  -30.8963   20.9380 C   0  0  0  0  0  0  0  0  0  0  0  0
  -25.1741  -28.3173   20.3476 C   0  0  0  0  0  0  0  0  0  0  0  0
  -18.7764  -27.9160   23.0006 C   0  0  0  0  0  0  0  0  0  0  0  0
  -32.2494  -20.6202   20.8755 C   0  0  0  0  0  0  0  0  0  0  0  0
  -20.1489  -27.6267   23.6001 C   0  0  0  0  0  0  0  0  0  0  0  0
  -36.6667  -25.6889   16.0772 C   0  0  0  0  0  0  0  0  0  0  0  0
  -37.7834  -26.6810   16.1725 C   0  0  0  0  0  0  0  0  0  0  0  0
  -31.3202  -19.4068   20.8750 C   0  0  0  0  0  0  0  0  0  0  0  0
  -31.7058  -30.5738   22.0533 C   0  0  0  0  0  0  0  0  0  0  0  0
  -30.4768  -30.7798   20.3201 C   0  0  0  0  0  0  0  0  0  0  0  0
  -32.3155  -21.2924   19.5030 C   0  0  0  0  0  0  0  0  0  0  0  0
  -32.6062  -23.7499   17.8959 C   0  0  0  0  0  0  0  0  0  0  0  0
  -30.9358  -25.3088   18.8273 C   0  0  0  0  0  0  0  0  0  0  0  0
  -30.0627  -20.4366   18.9451 C   0  0  0  0  0  0  0  0  0  0  0  0
  -32.5483  -24.4741   16.5548 C   0  0  0  0  0  0  0  0  0  0  0  0
  -30.8337  -26.0387   17.4979 C   0  0  0  0  0  0  0  0  0  0  0  0
  -20.9344  -28.9233   23.8311 C   0  0  1  0  0  0  0  0  0  0  0  0
  -36.4664  -27.0922   15.5686 C   0  0  0  0  0  0  0  0  0  0  0  0
  -23.0555  -29.6088   20.7548 C   0  0  1  0  0  0  0  0  0  0  0  0
  -29.9306  -19.7755   20.3258 C   0  0  1  0  0  0  0  0  0  0  0  0
  -31.9672  -31.0506   20.6099 C   0  0  0  0  0  0  0  0  0  0  0  0
  -30.2193  -30.9450   21.8373 C   0  0  0  0  0  0  0  0  0  1  0  0
  -25.1998  -26.2457   14.1144 C   0  0  0  0  0  0  0  0  0  0  0  0
  -22.9915  -25.0166   20.2368 C   0  0  0  0  0  0  0  0  0  0  0  0
  -23.9611  -24.1593   18.0936 C   0  0  0  0  0  0  0  0  0  0  0  0
  -21.7310  -25.2770   18.0925 C   0  0  0  0  0  0  0  0  0  0  0  0
  -26.0021  -29.7949   15.2258 C   0  0  0  0  0  0  0  0  0  0  0  0
  -33.5733  -27.1080   15.1146 C   0  0  0  0  0  0  0  0  0  0  0  0
  -33.0975  -30.5972   18.4480 C   0  0  0  0  0  0  0  0  0  0  0  0
  -32.1528  -26.6921   15.4829 C   0  0  0  0  0  0  0  0  0  0  0  0
  -23.8146  -26.6684   18.4312 C   0  0  1  0  0  0  0  0  0  0  0  0
  -25.0323  -27.5108   14.9416 C   0  0  2  0  0  0  0  0  0  0  0  0
  -23.1380  -25.3005   18.7285 C   0  0  0  0  0  0  0  0  0  0  0  0
  -36.1627  -28.8370   17.2246 N   0  0  0  0  0  0  0  0  0  0  0  0
  -29.5174  -17.3573   20.0757 N   0  0  0  0  0  0  0  0  0  0  0  0
  -33.3923  -28.8504   16.7894 N   0  0  0  0  0  0  0  0  0  0  0  0
  -28.9995  -18.5780   20.2941 N   0  0  0  0  0  0  0  0  0  0  0  0
  -23.7785  -28.6021   19.9750 N   0  0  0  0  0  0  0  0  0  0  0  0
  -30.9659  -21.5879   19.0023 N   0  0  0  0  0  0  0  0  0  0  0  0
  -31.3520  -23.9207   18.6392 N   0  0  0  0  0  0  0  0  0  0  0  0
  -26.9649  -19.7223   20.6961 N   0  0  0  0  0  0  0  0  0  0  0  0
  -25.6780  -15.4098   20.3193 N   0  0  0  0  0  0  0  0  0  0  0  0
  -21.4829  -29.4110   22.5838 N   0  0  0  0  0  0  0  0  0  0  0  0
  -23.9420  -26.9759   17.0108 N   0  0  0  0  0  0  0  0  0  0  0  0
  -32.1518  -25.9151   16.7696 N   0  3  0  0  0  0  0  0  0  0  0  0
  -32.8771  -30.1785   19.8609 N   0  3  0  0  0  0  0  0  0  0  0  0
  -26.0651  -28.4947   14.5101 N   0  3  0  0  0  0  0  0  0  0  0  0
  -24.9344  -17.5514   20.6649 O   0  0  0  0  0  0  0  0  0  0  0  0
  -23.4263  -28.1284   22.5564 O   0  0  0  0  0  0  0  0  0  0  0  0
  -21.8991  -28.0382   18.7157 O   0  0  0  0  0  0  0  0  0  0  0  0
  -26.2488  -27.2119   17.0075 O   0  0  0  0  0  0  0  0  0  0  0  0
  -29.2278  -23.1016   19.0020 O   0  0  0  0  0  0  0  0  0  0  0  0
  -29.0100  -11.0509   19.3533 O   0  0  0  0  0  0  0  0  0  0  0  0
  -29.2581  -30.0480   22.4180 O   0  0  0  0  0  0  0  0  0  1  0  0
  -32.2413   -9.3440   15.2243 F   0  0  0  0  0  0  0  0  0  0  0  0
  -31.6883  -11.7317   19.2738 F   0  0  0  0  0  0  0  0  0  0  0  0
  1  2  1  0  0  0  0
  1  5  2  0  0  0  0
  2  6  2  0  0  0  0
  3  8  2  0  0  0  0
  3 16  1  0  0  0  0
  4  9  1  0  0  0  0
  4 16  2  0  0  0  0
  5 18  1  0  0  0  0
  6 20  1  0  0  0  0
  7 10  2  0  0  0  0
  7 19  1  0  0  0  0
  8 22  1  0  0  0  0
  9 22  2  0  0  0  0
 10 23  1  0  0  0  0
 11 12  2  0  0  0  0
 11 24  1  0  0  0  0
 12 25  1  0  0  0  0
 13 21  1  0  0  0  0
 13 23  2  0  0  0  0
 14 25  2  0  0  0  0
 14 26  1  0  0  0  0
 15 29  1  0  0  0  0
 15 71  2  0  0  0  0
 16 27  1  0  0  0  0
 17 27  1  0  0  0  0
 17 31  2  0  0  0  0
 17 32  1  0  0  0  0
 18 20  2  0  0  0  0
 18 37  1  0  0  0  0
 19 21  2  0  0  0  0
 19 38  1  0  0  0  0
 20 54  1  0  0  0  0
 21 39  1  0  0  0  0
 22 90  1  0  0  0  0
 23 91  1  0  0  0  0
 24 26  2  0  0  0  0
 24 90  1  0  0  0  0
 25 92  1  0  0  0  0
 26 93  1  0  0  0  0
 27 72  2  0  0  0  0
 28 30  2  0  0  0  0
 28 55  1  0  0  0  0
 28 71  1  0  0  0  0
 29 66  1  0  0  0  0
 29 73  2  0  0  0  0
 30 65  1  0  0  0  0
 30 73  1  0  0  0  0
 31 74  1  0  0  0  0
 31 78  1  0  0  0  0
 32 79  1  0  0  0  0
 32 85  2  0  0  0  0
 33 56  1  0  0  0  0
 33 80  1  0  0  0  0
 33 86  2  0  0  0  0
 34 68  1  0  0  0  0
 34 75  1  0  0  0  0
 34 87  2  0  0  0  0
 35 69  1  0  0  0  0
 35 81  1  0  0  0  0
 35 88  2  0  0  0  0
 36 76  1  0  0  0  0
 36 77  1  0  0  0  0
 36 89  2  0  0  0  0
 37 40  1  0  0  0  0
 38 56  1  0  0  0  0
 39 75  1  0  0  0  0
 40 42  1  0  0  0  0
 41 45  1  0  0  0  0
 41 48  1  0  0  0  0
 42 54  1  0  0  0  0
 43 44  1  0  0  0  0
 43 55  1  0  0  0  0
 44 55  1  0  0  0  0
 45 57  1  0  0  0  0
 46 58  1  0  0  0  0
 46 59  1  0  0  0  0
 47 58  1  0  0  0  0
 47 59  1  0  0  0  0
 48 76  1  0  0  0  0
 49 52  1  0  0  0  0
 49 77  1  0  0  0  0
 50 53  1  0  0  0  0
 50 77  1  0  0  0  0
 51 57  1  0  0  0  0
 51 76  1  0  0  0  0
 52 82  1  0  0  0  0
 53 82  1  0  0  0  0
 54 80  1  0  0  0  0
 56 75  1  0  0  0  0
 57 74  1  0  0  0  0
 58 83  1  0  0  0  0
 59 91  1  0  0  0  0
 60 69  1  0  0  0  0
 61 70  1  0  0  0  0
 62 70  1  0  0  0  0
 63 70  1  0  0  0  0
 64 84  1  0  0  0  0
 65 67  1  0  0  0  0
 66 83  1  0  0  0  0
 67 82  1  0  0  0  0
 68 70  1  0  0  0  0
 68 81  1  0  0  0  0
 69 84  1  0  0  0  0
 72 74  1  0  0  0  0
M  CHG  3  82   1  83   1  84   1
M  ISO  4  36 100  59 101  77 100  91 101
M  END
> <Batch ID>
0197

> <Smiles>
CNC(C)C(=O)NC(C(=O)N1Cc2cc([101O:1][101CH:1]3CC(NCc4cnc(C5CC5)c(CCN5CC[100N:0]([100C:0](=O)N6CCCC(n7nc(-c8ccc(Oc9ccc(F)cc9F)cc8)c(C(N)=O)c7N)C6)CC5)n4)C3)ccc2CC1C(=O)NC1CCCc2ccccc21)C(C)(C)C

> <Shape>
0.224

> <Color>
0.082

> <Negative vol penalty>
0.000

$$$$

  -OEChem-04052323453D

 86 95  0     1  0  0  0  0  0999 V2000
  -22.5815   -5.6042   23.6662 C   0  0  0  0  0  0  0  0  0  0  0  0
  -23.9483   -5.8480   23.7545 C   0  0  0  0  0  0  0  0  0  0  0  0
  -24.6133  -29.2014   22.4460 C   0  0  0  0  0  0  0  0  0  0  0  0
  -25.1286  -30.9896   20.9053 C   0  0  0  0  0  0  0  0  0  0  0  0
  -21.7999   -6.3376   22.7745 C   0  0  0  0  0  0  0  0  0  0  0  0
  -24.5346   -6.8246   22.9501 C   0  0  0  0  0  0  0  0  0  0  0  0
  -28.0750  -12.3856   25.8539 C   0  0  0  0  0  0  0  0  0  0  0  0
  -24.0413  -30.1223   23.3237 C   0  0  0  0  0  0  0  0  0  0  0  0
  -24.5565  -31.9106   21.7830 C   0  0  0  0  0  0  0  0  0  0  0  0
  -28.9483  -13.3651   26.3272 C   0  0  0  0  0  0  0  0  0  0  0  0
  -25.4271  -33.5099   24.6317 C   0  0  0  0  0  0  0  0  0  0  0  0
  -26.1229  -34.6947   24.8719 C   0  0  0  0  0  0  0  0  0  0  0  0
  -29.2529  -14.1962   24.0767 C   0  0  0  0  0  0  0  0  0  0  0  0
  -24.2532  -35.9655   24.0198 C   0  0  0  0  0  0  0  0  0  0  0  0
  -28.0467  -21.8032   24.9713 C   0  0  0  0  0  0  0  0  0  0  0  0
  -25.1570  -29.6350   21.2368 C   0  0  0  0  0  0  0  0  0  0  0  0
  -25.1027  -27.9800   19.2963 C   0  0  0  0  0  0  0  0  0  0  0  0
  -22.3753   -7.3304   21.9657 C   0  0  0  0  0  0  0  0  0  0  0  0
  -27.7750  -12.3173   24.4905 C   0  0  0  0  0  0  0  0  0  0  0  0
  -23.7602   -7.5710   22.0458 C   0  0  0  0  0  0  0  0  0  0  0  0
  -28.3691  -13.2251   23.5985 C   0  0  0  0  0  0  0  0  0  0  0  0
  -24.0129  -31.4769   22.9922 C   0  0  0  0  0  0  0  0  0  0  0  0
  -29.5359  -14.2680   25.4408 C   0  0  0  0  0  0  0  0  0  0  0  0
  -24.1444  -33.5529   24.0854 C   0  0  0  0  0  0  0  0  0  0  0  0
  -25.5360  -35.9225   24.5660 C   0  0  0  0  0  0  0  0  0  0  0  0
  -23.5574  -34.7807   23.7795 C   0  0  0  0  0  0  0  0  0  0  0  0
  -25.7486  -28.6843   20.3301 C   0  0  0  0  0  0  0  0  0  0  0  0
  -26.0924  -27.2115   18.7339 C   0  0  0  0  0  0  0  0  0  0  0  0
  -29.6164  -20.2771   25.4651 C   0  0  0  0  0  0  0  0  0  0  0  0
  -29.3419  -20.9588   23.3445 C   0  0  0  0  0  0  0  0  0  0  0  0
  -23.7307  -28.0173   18.8815 C   0  0  0  0  0  0  0  0  0  0  0  0
  -25.8617  -10.5967   21.7601 C   0  0  0  0  0  0  0  0  0  0  0  0
  -25.7508  -13.6044   21.1670 C   0  0  0  0  0  0  0  0  0  0  0  0
  -25.5090  -17.0065   21.1018 C   0  0  0  0  0  0  0  0  0  0  0  0
  -30.4848  -23.8191   19.2833 C   0  0  0  0  0  0  0  0  0  0  0  0
  -21.4980   -8.0646   20.9829 C   0  0  0  0  0  0  0  0  0  0  0  0
  -26.8879  -11.2401   23.9281 C   0  0  0  0  0  0  0  0  0  0  0  0
  -28.0441  -13.0921   22.1357 C   0  0  0  0  0  0  0  0  0  0  0  0
  -22.1325   -9.3404   20.4350 C   0  0  0  0  0  0  0  0  0  0  0  0
  -31.0956  -27.2964   19.3437 C   0  0  0  0  0  0  0  0  0  0  0  0
  -23.5750   -9.0803   20.0127 C   0  0  0  0  0  0  0  0  0  0  0  0
  -29.7175  -27.9180   19.5521 C   0  0  0  0  0  0  0  0  0  0  0  0
  -28.9961  -20.4611   19.7489 C   0  0  0  0  0  0  0  0  0  0  0  0
  -31.2342  -26.0089   20.1448 C   0  0  0  0  0  0  0  0  0  0  0  0
  -30.0015  -21.3999   19.0975 C   0  0  0  0  0  0  0  0  0  0  0  0
  -28.7962  -25.5826   19.9915 C   0  0  0  0  0  0  0  0  0  0  0  0
  -28.6984  -22.6337   20.6961 C   0  0  0  0  0  0  0  0  0  0  0  0
  -24.4287   -8.6392   21.2077 C   0  0  1  0  0  0  0  0  0  0  0  0
  -26.0351  -11.7199   22.7399 C   0  0  1  0  0  0  0  0  0  0  0  0
  -28.6103  -26.9056   19.2201 C   0  0  1  0  0  0  0  0  0  0  0  0
  -28.6802  -21.1561   21.0688 C   0  0  2  0  0  0  0  0  0  0  0  0
  -24.5368  -18.8868   19.7539 C   0  0  0  0  0  0  0  0  0  0  0  0
  -27.9601  -13.2551   19.0931 C   0  0  0  0  0  0  0  0  0  0  0  0
  -27.5469  -15.6131   18.3598 C   0  0  0  0  0  0  0  0  0  0  0  0
  -25.7377  -13.9085   18.1504 C   0  0  0  0  0  0  0  0  0  0  0  0
  -23.8312  -17.9152   23.3642 C   0  0  0  0  0  0  0  0  0  0  0  0
  -30.3228  -19.4294   26.4680 C   0  0  0  0  0  0  0  0  0  0  0  0
  -30.6648  -17.1234   27.3648 C   0  0  0  0  0  0  0  0  0  0  0  0
  -30.1586  -15.7003   27.2353 C   0  0  0  0  0  0  0  0  0  1  0  0
  -26.3660  -14.7741   20.4413 C   0  0  1  0  0  0  0  0  0  0  0  0
  -24.3177  -17.9286   20.9143 C   0  0  2  0  0  0  0  0  0  0  0  0
  -26.9092  -14.3819   19.0383 C   0  0  0  0  0  0  0  0  0  0  0  0
  -28.6380  -21.0709   25.9292 N   0  0  0  0  0  0  0  0  0  0  0  0
  -28.3445  -21.7999   23.6619 N   0  0  0  0  0  0  0  0  0  0  0  0
  -27.0480  -28.3892   20.4214 N   0  0  0  0  0  0  0  0  0  0  0  0
  -30.0225  -20.1682   24.1899 N   0  0  0  0  0  0  0  0  0  0  0  0
  -27.2266  -27.4909   19.4379 N   0  0  0  0  0  0  0  0  0  0  0  0
  -26.6064  -12.8324   21.9622 N   0  0  0  0  0  0  0  0  0  0  0  0
  -30.1608  -25.0611   19.8402 N   0  0  0  0  0  0  0  0  0  0  0  0
  -29.6808  -22.7274   19.6103 N   0  0  0  0  0  0  0  0  0  0  0  0
  -26.0943  -26.3305   17.7110 N   0  0  0  0  0  0  0  0  0  0  0  0
  -22.8479  -28.8621   19.5679 N   0  0  0  0  0  0  0  0  0  0  0  0
  -24.7797   -9.7796   22.0266 N   0  0  0  0  0  0  0  0  0  0  0  0
  -25.3494  -15.8202   20.4174 N   0  0  0  0  0  0  0  0  0  0  0  0
  -24.0842  -18.7307   22.1485 N   0  3  0  0  0  0  0  0  0  0  0  0
  -29.9296  -17.9942   26.4110 N   0  3  0  0  0  0  0  0  0  0  0  0
  -23.2970  -27.3098   17.9408 O   0  0  0  0  0  0  0  0  0  0  0  0
  -26.6502  -10.4798   20.8294 O   0  0  0  0  0  0  0  0  0  0  0  0
  -24.5457  -13.3757   21.0298 O   0  0  0  0  0  0  0  0  0  0  0  0
  -26.4853  -17.3100   21.7839 O   0  0  0  0  0  0  0  0  0  0  0  0
  -31.4781  -23.6802   18.5566 O   0  0  0  0  0  0  0  0  0  0  0  0
  -23.4546  -32.3758   23.8482 O   0  0  0  0  0  0  0  0  0  0  0  0
  -30.3901  -15.2315   25.9135 O   0  0  0  0  0  0  0  0  0  1  0  0
  -29.7024  -20.9005   22.0238 O   0  0  0  0  0  0  0  0  0  0  0  0
  -26.2037  -37.0602   24.7982 F   0  0  0  0  0  0  0  0  0  0  0  0
  -22.3249  -34.8284   23.2556 F   0  0  0  0  0  0  0  0  0  0  0  0
  1  2  1  0  0  0  0
  1  5  2  0  0  0  0
  2  6  2  0  0  0  0
  3  8  2  0  0  0  0
  3 16  1  0  0  0  0
  4  9  1  0  0  0  0
  4 16  2  0  0  0  0
  5 18  1  0  0  0  0
  6 20  1  0  0  0  0
  7 10  2  0  0  0  0
  7 19  1  0  0  0  0
  8 22  1  0  0  0  0
  9 22  2  0  0  0  0
 10 23  1  0  0  0  0
 11 12  2  0  0  0  0
 11 24  1  0  0  0  0
 12 25  1  0  0  0  0
 13 21  1  0  0  0  0
 13 23  2  0  0  0  0
 14 25  2  0  0  0  0
 14 26  1  0  0  0  0
 15 63  2  0  0  0  0
 15 64  1  0  0  0  0
 16 27  1  0  0  0  0
 17 27  1  0  0  0  0
 17 28  2  0  0  0  0
 17 31  1  0  0  0  0
 18 20  2  0  0  0  0
 18 36  1  0  0  0  0
 19 21  2  0  0  0  0
 19 37  1  0  0  0  0
 20 48  1  0  0  0  0
 21 38  1  0  0  0  0
 22 82  1  0  0  0  0
 23 83  1  0  0  0  0
 24 26  2  0  0  0  0
 24 82  1  0  0  0  0
 25 85  1  0  0  0  0
 26 86  1  0  0  0  0
 27 65  2  0  0  0  0
 28 67  1  0  0  0  0
 28 71  1  0  0  0  0
 29 57  1  0  0  0  0
 29 63  1  0  0  0  0
 29 66  2  0  0  0  0
 30 64  2  0  0  0  0
 30 66  1  0  0  0  0
 30 84  1  0  0  0  0
 31 72  1  0  0  0  0
 31 77  2  0  0  0  0
 32 49  1  0  0  0  0
 32 73  1  0  0  0  0
 32 78  2  0  0  0  0
 33 60  1  0  0  0  0
 33 68  1  0  0  0  0
 33 79  2  0  0  0  0
 34 61  1  0  0  0  0
 34 74  1  0  0  0  0
 34 80  2  0  0  0  0
 35 69  1  0  0  0  0
 35 70  1  0  0  0  0
 35 81  2  0  0  0  0
 36 39  1  0  0  0  0
 37 49  1  0  0  0  0
 38 68  1  0  0  0  0
 39 41  1  0  0  0  0
 40 42  1  0  0  0  0
 40 44  1  0  0  0  0
 41 48  1  0  0  0  0
 42 50  1  0  0  0  0
 43 45  1  0  0  0  0
 43 51  1  0  0  0  0
 44 69  1  0  0  0  0
 45 70  1  0  0  0  0
 46 50  1  0  0  0  0
 46 69  1  0  0  0  0
 47 51  1  0  0  0  0
 47 70  1  0  0  0  0
 48 73  1  0  0  0  0
 49 68  1  0  0  0  0
 50 67  1  0  0  0  0
 51 84  1  0  0  0  0
 52 61  1  0  0  0  0
 53 62  1  0  0  0  0
 54 62  1  0  0  0  0
 55 62  1  0  0  0  0
 56 75  1  0  0  0  0
 57 76  1  0  0  0  0
 58 59  1  0  0  0  0
 58 76  1  0  0  0  0
 59 83  1  0  0  0  0
 60 62  1  0  0  0  0
 60 74  1  0  0  0  0
 61 75  1  0  0  0  0
 65 67  1  0  0  0  0
M  CHG  2  75   1  76   1
M  ISO  4  35 100  59 101  70 100  83 101
M  END
> <Batch ID>
0197

> <Smiles>
CNC(C)C(=O)NC(C(=O)N1Cc2cc([101O:1][101CH2:1]CNCc3ncnc(OC4CC[100N:0]([100C:0](=O)N5CCCC(n6nc(-c7ccc(Oc8ccc(F)cc8F)cc7)c(C(N)=O)c6N)C5)C4)n3)ccc2CC1C(=O)NC1CCCc2ccccc21)C(C)(C)C

> <Shape>
0.281

> <Color>
0.056

> <Negative vol penalty>
0.000

$$$$

  -OEChem-04052323453D

 89 98  0     1  0  0  0  0  0999 V2000
  -25.4036   -7.6329   25.4896 C   0  0  0  0  0  0  0  0  0  0  0  0
  -26.3042   -8.2909   24.6581 C   0  0  0  0  0  0  0  0  0  0  0  0
  -22.8261  -31.0728   22.6235 C   0  0  0  0  0  0  0  0  0  0  0  0
  -23.5014  -31.3395   24.9278 C   0  0  0  0  0  0  0  0  0  0  0  0
  -24.0408   -7.6556   25.1959 C   0  0  0  0  0  0  0  0  0  0  0  0
  -25.8426   -8.9711   23.5318 C   0  0  0  0  0  0  0  0  0  0  0  0
  -27.9730  -13.5356   23.0104 C   0  0  0  0  0  0  0  0  0  0  0  0
  -32.3646  -19.4069   19.6537 C   0  0  0  0  0  0  0  0  0  0  0  0
  -21.4935  -30.9789   23.0248 C   0  0  0  0  0  0  0  0  0  0  0  0
  -22.1688  -31.2456   25.3292 C   0  0  0  0  0  0  0  0  0  0  0  0
  -29.2684  -13.5788   22.4967 C   0  0  0  0  0  0  0  0  0  0  0  0
  -19.4543  -28.6381   24.3615 C   0  0  0  0  0  0  0  0  0  0  0  0
  -18.6758  -27.6312   23.7910 C   0  0  0  0  0  0  0  0  0  0  0  0
  -31.8565  -20.5456   19.0384 C   0  0  0  0  0  0  0  0  0  0  0  0
  -28.3825  -14.1532   20.3277 C   0  0  0  0  0  0  0  0  0  0  0  0
  -17.1694  -29.2986   22.9036 C   0  0  0  0  0  0  0  0  0  0  0  0
  -23.8300  -31.2530   23.5750 C   0  0  0  0  0  0  0  0  0  0  0  0
  -25.9117  -32.5192   22.8193 C   0  0  0  0  0  0  0  0  0  0  0  0
  -23.5613   -8.3446   24.0708 C   0  0  0  0  0  0  0  0  0  0  0  0
  -26.8702  -13.7907   22.1827 C   0  0  0  0  0  0  0  0  0  0  0  0
  -24.4723   -9.0020   23.2221 C   0  0  0  0  0  0  0  0  0  0  0  0
  -27.0744  -14.1152   20.8339 C   0  0  0  0  0  0  0  0  0  0  0  0
  -31.5377  -18.6302   20.4576 C   0  0  0  0  0  0  0  0  0  0  0  0
  -21.1649  -31.0653   24.3777 C   0  0  0  0  0  0  0  0  0  0  0  0
  -29.4731  -13.8847   21.1545 C   0  0  0  0  0  0  0  0  0  0  0  0
  -19.0903  -29.9754   24.2032 C   0  0  0  0  0  0  0  0  0  0  0  0
  -17.5334  -27.9614   23.0620 C   0  0  0  0  0  0  0  0  0  0  0  0
  -17.9479  -30.3056   23.4742 C   0  0  0  0  0  0  0  0  0  0  0  0
  -25.2068  -31.3496   23.1611 C   0  0  0  0  0  0  0  0  0  0  0  0
  -30.5254  -20.8618   19.2573 C   0  0  0  0  0  0  0  0  0  0  0  0
  -30.2209  -19.0323   20.6131 C   0  0  0  0  0  0  0  0  0  0  0  0
  -27.1734  -32.0792   22.5014 C   0  0  0  0  0  0  0  0  0  0  0  0
  -25.4660  -33.8816   22.7918 C   0  0  0  0  0  0  0  0  0  0  0  0
  -24.3429  -12.1131   21.2327 C   0  0  0  0  0  0  0  0  0  0  0  0
  -23.4564  -14.9364   19.9042 C   0  0  0  0  0  0  0  0  0  0  0  0
  -24.3897  -17.9834   18.6829 C   0  0  0  0  0  0  0  0  0  0  0  0
  -29.2851  -27.1087   20.4413 C   0  0  0  0  0  0  0  0  0  0  0  0
  -22.0844   -8.3014   23.7681 C   0  0  0  0  0  0  0  0  0  0  0  0
  -25.4808  -13.7664   22.7584 C   0  0  0  0  0  0  0  0  0  0  0  0
  -25.9253  -14.4170   19.9081 C   0  0  0  0  0  0  0  0  0  0  0  0
  -21.6375   -9.3595   22.7626 C   0  0  0  0  0  0  0  0  0  0  0  0
  -30.2831  -28.5818   23.4708 C   0  0  0  0  0  0  0  0  0  0  0  0
  -22.5863   -9.3958   21.5687 C   0  0  0  0  0  0  0  0  0  0  0  0
  -29.1531  -29.5833   23.7075 C   0  0  0  0  0  0  0  0  0  0  0  0
  -29.7640  -27.2497   22.9264 C   0  0  0  0  0  0  0  0  0  0  0  0
  -30.1778  -24.8713   21.2299 C   0  0  0  0  0  0  0  0  0  0  0  0
  -30.8201  -25.7774   19.0266 C   0  0  0  0  0  0  0  0  0  0  0  0
  -27.7938  -28.3846   21.9521 C   0  0  0  0  0  0  0  0  0  0  0  0
  -29.6462  -23.6057   20.5650 C   0  0  0  0  0  0  0  0  0  0  0  0
  -30.2774  -24.5413   18.3282 C   0  0  0  0  0  0  0  0  0  0  0  0
  -24.0076   -9.7716   22.0047 C   0  0  1  0  0  0  0  0  0  0  0  0
  -24.4013  -13.5383   21.7048 C   0  0  1  0  0  0  0  0  0  0  0  0
  -28.2914  -29.7527   22.4437 C   0  0  1  0  0  0  0  0  0  0  0  0
  -23.4460  -20.0572   17.6312 C   0  0  0  0  0  0  0  0  0  0  0  0
  -33.5158  -14.2250   19.7103 C   0  0  0  0  0  0  0  0  0  0  0  0
  -23.1490  -13.4510   17.2568 C   0  0  0  0  0  0  0  0  0  0  0  0
  -23.1465  -15.6679   16.0933 C   0  0  0  0  0  0  0  0  0  0  0  0
  -21.3476  -15.1194   17.7322 C   0  0  0  0  0  0  0  0  0  0  0  0
  -25.3379  -19.6848   20.9111 C   0  0  0  0  0  0  0  0  0  0  0  0
  -32.0871  -17.4113   21.1156 C   0  0  0  0  0  0  0  0  0  0  0  0
  -29.9443  -22.0843   18.6102 C   0  0  0  0  0  0  0  0  0  0  0  0
  -31.7811  -14.3042   21.5460 C   0  0  0  0  0  0  0  0  0  1  0  0
  -23.6819  -15.6083   18.5713 C   0  0  1  0  0  0  0  0  0  0  0  0
  -23.8451  -19.3783   18.9321 C   0  0  2  0  0  0  0  0  0  0  0  0
  -32.8783  -15.0623   20.8072 C   0  0  2  0  0  0  0  0  0  0  0  0
  -22.8530  -14.9541   17.4301 C   0  0  0  0  0  0  0  0  0  0  0  0
  -25.9581  -30.2491   23.0687 N   0  0  0  0  0  0  0  0  0  0  0  0
  -29.6915  -20.1319   20.0315 N   0  0  0  0  0  0  0  0  0  0  0  0
  -27.1483  -30.7254   22.6653 N   0  0  0  0  0  0  0  0  0  0  0  0
  -24.5854  -14.3744   20.5168 N   0  0  0  0  0  0  0  0  0  0  0  0
  -28.9146  -27.4648   21.7466 N   0  0  0  0  0  0  0  0  0  0  0  0
  -30.1421  -26.0070   20.3006 N   0  0  0  0  0  0  0  0  0  0  0  0
  -28.2906  -32.7220   22.1004 N   0  0  0  0  0  0  0  0  0  0  0  0
  -24.1389  -34.1578   23.1480 N   0  0  0  0  0  0  0  0  0  0  0  0
  -24.1043  -11.1965   22.2389 N   0  0  0  0  0  0  0  0  0  0  0  0
  -23.4023  -17.0255   18.7761 N   0  0  0  0  0  0  0  0  0  0  0  0
  -30.3809  -23.3631   19.2685 N   0  3  0  0  0  0  0  0  0  0  0  0
  -24.8715  -20.2222   19.6070 N   0  3  0  0  0  0  0  0  0  0  0  0
  -32.2779  -16.2682   20.1799 N   0  3  0  0  0  0  0  0  0  0  0  0
  -26.2175  -34.8244   22.4454 O   0  0  0  0  0  0  0  0  0  0  0  0
  -24.5011  -11.8635   20.0434 O   0  0  0  0  0  0  0  0  0  0  0  0
  -22.3217  -14.9174   20.3876 O   0  0  0  0  0  0  0  0  0  0  0  0
  -25.5719  -17.7658   18.4272 O   0  0  0  0  0  0  0  0  0  0  0  0
  -28.8736  -27.7381   19.4585 O   0  0  0  0  0  0  0  0  0  0  0  0
  -19.8647  -30.9740   24.7696 O   0  0  0  0  0  0  0  0  0  0  0  0
  -30.7450  -13.9272   20.6469 O   0  0  0  0  0  0  0  0  0  1  0  0
  -16.7868  -26.9944   22.5128 F   0  0  0  0  0  0  0  0  0  0  0  0
  -17.5938  -31.5885   23.3177 F   0  0  0  0  0  0  0  0  0  0  0  0
  -29.1009  -18.1578   21.5823 Cl  0  0  0  0  0  0  0  0  0  0  0  0
  1  2  1  0  0  0  0
  1  5  2  0  0  0  0
  2  6  2  0  0  0  0
  3  9  2  0  0  0  0
  3 17  1  0  0  0  0
  4 10  1  0  0  0  0
  4 17  2  0  0  0  0
  5 19  1  0  0  0  0
  6 21  1  0  0  0  0
  7 11  2  0  0  0  0
  7 20  1  0  0  0  0
  8 14  2  0  0  0  0
  8 23  1  0  0  0  0
  9 24  1  0  0  0  0
 10 24  2  0  0  0  0
 11 25  1  0  0  0  0
 12 13  2  0  0  0  0
 12 26  1  0  0  0  0
 13 27  1  0  0  0  0
 14 30  1  0  0  0  0
 15 22  1  0  0  0  0
 15 25  2  0  0  0  0
 16 27  2  0  0  0  0
 16 28  1  0  0  0  0
 17 29  1  0  0  0  0
 18 29  1  0  0  0  0
 18 32  2  0  0  0  0
 18 33  1  0  0  0  0
 19 21  2  0  0  0  0
 19 38  1  0  0  0  0
 20 22  2  0  0  0  0
 20 39  1  0  0  0  0
 21 51  1  0  0  0  0
 22 40  1  0  0  0  0
 23 31  2  0  0  0  0
 23 60  1  0  0  0  0
 24 85  1  0  0  0  0
 25 86  1  0  0  0  0
 26 28  2  0  0  0  0
 26 85  1  0  0  0  0
 27 87  1  0  0  0  0
 28 88  1  0  0  0  0
 29 67  2  0  0  0  0
 30 61  1  0  0  0  0
 30 68  2  0  0  0  0
 31 68  1  0  0  0  0
 31 89  1  0  0  0  0
 32 69  1  0  0  0  0
 32 73  1  0  0  0  0
 33 74  1  0  0  0  0
 33 80  2  0  0  0  0
 34 52  1  0  0  0  0
 34 75  1  0  0  0  0
 34 81  2  0  0  0  0
 35 63  1  0  0  0  0
 35 70  1  0  0  0  0
 35 82  2  0  0  0  0
 36 64  1  0  0  0  0
 36 76  1  0  0  0  0
 36 83  2  0  0  0  0
 37 71  1  0  0  0  0
 37 72  1  0  0  0  0
 37 84  2  0  0  0  0
 38 41  1  0  0  0  0
 39 52  1  0  0  0  0
 40 70  1  0  0  0  0
 41 43  1  0  0  0  0
 42 44  1  0  0  0  0
 42 45  1  0  0  0  0
 43 51  1  0  0  0  0
 44 53  1  0  0  0  0
 45 71  1  0  0  0  0
 46 49  1  0  0  0  0
 46 72  1  0  0  0  0
 47 50  1  0  0  0  0
 47 72  1  0  0  0  0
 48 53  1  0  0  0  0
 48 71  1  0  0  0  0
 49 77  1  0  0  0  0
 50 77  1  0  0  0  0
 51 75  1  0  0  0  0
 52 70  1  0  0  0  0
 53 69  1  0  0  0  0
 54 64  1  0  0  0  0
 55 65  1  0  0  0  0
 56 66  1  0  0  0  0
 57 66  1  0  0  0  0
 58 66  1  0  0  0  0
 59 78  1  0  0  0  0
 60 79  1  0  0  0  0
 61 77  1  0  0  0  0
 62 65  1  0  0  0  0
 62 86  1  0  0  0  0
 63 66  1  0  0  0  0
 63 76  1  0  0  0  0
 64 78  1  0  0  0  0
 65 79  1  0  0  0  0
 67 69  1  0  0  0  0
M  CHG  3  77   1  78   1  79   1
M  ISO  4  37 100  62 101  72 100  86 101
M  END
> <Batch ID>
0197

> <Smiles>
CNC(C)C(=O)NC(C(=O)N1Cc2cc([101O:1][101CH2:1]C(C)NCc3ccc(CN4CC[100N:0]([100C:0](=O)N5CCCC(n6nc(-c7ccc(Oc8ccc(F)cc8F)cc7)c(C(N)=O)c6N)C5)CC4)nc3Cl)ccc2CC1C(=O)NC1CCCc2ccccc21)C(C)(C)C

> <Shape>
0.276

> <Color>
0.068

> <Negative vol penalty>
0.000

$$$$

  -OEChem-04052323453D

 90101  0     1  0  0  0  0  0999 V2000
  -19.3952  -33.3124   19.5861 C   0  0  0  0  0  0  0  0  0  0  0  0
  -20.7562  -33.1680   19.8356 C   0  0  0  0  0  0  0  0  0  0  0  0
  -22.5387  -10.2085   20.6941 C   0  0  0  0  0  0  0  0  0  0  0  0
  -24.0348   -9.9016   22.5662 C   0  0  0  0  0  0  0  0  0  0  0  0
  -18.4649  -32.7058   20.4290 C   0  0  0  0  0  0  0  0  0  0  0  0
  -21.1877  -32.4178   20.9290 C   0  0  0  0  0  0  0  0  0  0  0  0
  -25.4840  -26.7041   20.0424 C   0  0  0  0  0  0  0  0  0  0  0  0
  -21.7494   -9.1536   21.1520 C   0  0  0  0  0  0  0  0  0  0  0  0
  -23.2454   -8.8467   23.0241 C   0  0  0  0  0  0  0  0  0  0  0  0
  -26.4758  -25.7254   19.9745 C   0  0  0  0  0  0  0  0  0  0  0  0
  -22.7787   -5.5808   22.2846 C   0  0  0  0  0  0  0  0  0  0  0  0
  -23.4280   -4.4186   22.7007 C   0  0  0  0  0  0  0  0  0  0  0  0
  -26.3099  -25.3763   22.3617 C   0  0  0  0  0  0  0  0  0  0  0  0
  -22.4742   -4.6750   24.9056 C   0  0  0  0  0  0  0  0  0  0  0  0
  -26.5090  -20.5532   20.7313 C   0  0  0  0  0  0  0  0  0  0  0  0
  -23.6815  -10.5825   21.4012 C   0  0  0  0  0  0  0  0  0  0  0  0
  -24.1031  -13.0098   20.7393 C   0  0  0  0  0  0  0  0  0  0  0  0
  -18.8854  -31.9397   21.5276 C   0  0  0  0  0  0  0  0  0  0  0  0
  -24.8898  -27.0121   21.2694 C   0  0  0  0  0  0  0  0  0  0  0  0
  -20.2621  -31.8015   21.7882 C   0  0  0  0  0  0  0  0  0  0  0  0
  -25.3071  -26.3469   22.4339 C   0  0  0  0  0  0  0  0  0  0  0  0
  -22.1026   -8.4727   22.3170 C   0  0  0  0  0  0  0  0  0  0  0  0
  -26.8878  -25.0634   21.1313 C   0  0  0  0  0  0  0  0  0  0  0  0
  -21.9771   -6.2902   23.1791 C   0  0  0  0  0  0  0  0  0  0  0  0
  -23.2758   -3.9657   24.0112 C   0  0  0  0  0  0  0  0  0  0  0  0
  -21.8249   -5.8373   24.4895 C   0  0  0  0  0  0  0  0  0  0  0  0
  -24.4977  -11.6717   20.9284 C   0  0  0  0  0  0  0  0  0  0  0  0
  -27.9061  -20.9338   22.3926 C   0  0  0  0  0  0  0  0  0  0  0  0
  -26.8457  -20.1566   22.7952 C   0  0  0  0  0  0  0  0  0  0  0  0
  -25.2344  -13.6398   20.2812 C   0  0  0  0  0  0  0  0  0  0  0  0
  -30.0184  -20.7334   23.5864 C   0  0  0  0  0  0  0  0  0  0  0  0
  -29.0452  -21.4546   23.0267 C   0  0  0  0  0  0  0  0  0  0  0  0
  -22.8281  -13.6279   20.9582 C   0  0  0  0  0  0  0  0  0  0  0  0
  -22.3611  -29.0705   23.1255 C   0  0  0  0  0  0  0  0  0  0  0  0
  -22.2350  -26.2371   24.2945 C   0  0  0  0  0  0  0  0  0  0  0  0
  -22.1120  -22.9047   25.0137 C   0  0  0  0  0  0  0  0  0  0  0  0
  -30.7282  -14.5827   20.5528 C   0  0  0  0  0  0  0  0  0  0  0  0
  -17.8418  -31.3422   22.4380 C   0  0  0  0  0  0  0  0  0  0  0  0
  -23.8613  -28.1026   21.3994 C   0  0  0  0  0  0  0  0  0  0  0  0
  -24.6643  -26.7355   23.7372 C   0  0  0  0  0  0  0  0  0  0  0  0
  -31.2963  -21.1137   24.3009 C   0  0  0  0  0  0  0  0  0  0  0  0
  -18.3877  -30.2536   23.3583 C   0  0  0  0  0  0  0  0  0  0  0  0
  -31.2946  -19.6505   24.7918 C   0  0  0  0  0  0  0  0  0  0  0  0
  -29.6479  -11.7418   18.6984 C   0  0  0  0  0  0  0  0  0  0  0  0
  -19.6917  -30.7073   24.0070 C   0  0  0  0  0  0  0  0  0  0  0  0
  -25.2304  -19.2972   24.6724 C   0  0  0  0  0  0  0  0  0  0  0  0
  -25.9458  -20.4851   25.2358 C   0  0  0  0  0  0  0  0  0  0  0  0
  -28.1817  -11.5772   19.1024 C   0  0  0  0  0  0  0  0  0  0  0  0
  -30.5068  -12.2117   19.8703 C   0  0  0  0  0  0  0  0  0  0  0  0
  -28.5573  -13.2679   20.9461 C   0  0  0  0  0  0  0  0  0  0  0  0
  -31.3196  -17.2431   22.6937 C   0  0  0  0  0  0  0  0  0  0  0  0
  -29.8670  -18.1599   21.5146 C   0  0  0  0  0  0  0  0  0  0  0  0
  -20.7697  -30.9751   22.9498 C   0  0  1  0  0  0  0  0  0  0  0  0
  -26.6384  -19.6127   24.2072 C   0  0  0  0  0  0  0  0  0  0  0  0
  -30.2424  -19.2453   23.7374 C   0  0  2  0  0  0  0  0  0  0  0  0
  -22.7870  -27.7958   22.4582 C   0  0  1  0  0  0  0  0  0  0  0  0
  -27.6415  -12.8492   19.7832 C   0  0  2  0  0  0  0  0  0  0  0  0
  -30.7922  -16.9551   21.2789 C   0  0  0  0  0  0  0  0  0  0  0  0
  -20.9385  -21.2505   26.4914 C   0  0  0  0  0  0  0  0  0  0  0  0
  -23.9207  -27.1622   26.6624 C   0  0  0  0  0  0  0  0  0  0  0  0
  -23.4450  -24.9667   27.7677 C   0  0  0  0  0  0  0  0  0  0  0  0
  -21.5716  -26.5266   27.2387 C   0  0  0  0  0  0  0  0  0  0  0  0
  -21.0067  -21.4393   22.6920 C   0  0  0  0  0  0  0  0  0  0  0  0
  -28.5281  -21.9858   20.1177 C   0  0  0  0  0  0  0  0  0  0  0  0
  -27.9401  -23.3651   19.8404 C   0  0  0  0  0  0  0  0  0  1  0  0
  -22.7192  -25.2852   25.3588 C   0  0  1  0  0  0  0  0  0  0  0  0
  -20.9438  -21.9432   25.1376 C   0  0  2  0  0  0  0  0  0  0  0  0
  -22.9262  -25.9861   26.7312 C   0  0  0  0  0  0  0  0  0  0  0  0
  -25.9798  -19.9230   21.7564 N   0  0  0  0  0  0  0  0  0  0  0  0
  -25.7794  -11.4630   20.6158 N   0  0  0  0  0  0  0  0  0  0  0  0
  -27.6768  -21.1794   21.0681 N   0  0  0  0  0  0  0  0  0  0  0  0
  -26.2000  -12.6782   20.2256 N   0  0  0  0  0  0  0  0  0  0  0  0
  -23.2148  -26.9063   23.5512 N   0  0  0  0  0  0  0  0  0  0  0  0
  -29.9410  -13.4223   20.4705 N   0  0  0  0  0  0  0  0  0  0  0  0
  -25.4873  -14.9170   19.9244 N   0  0  0  0  0  0  0  0  0  0  0  0
  -21.7737  -12.8351   21.4313 N   0  0  0  0  0  0  0  0  0  0  0  0
  -21.3342  -29.7292   22.4767 N   0  0  0  0  0  0  0  0  0  0  0  0
  -21.7619  -24.1847   25.3883 N   0  0  0  0  0  0  0  0  0  0  0  0
  -30.1132  -15.6872   21.1297 N   0  0  0  0  0  0  0  0  0  0  0  0
  -30.8320  -18.6337   22.5350 N   0  3  0  0  0  0  0  0  0  0  0  0
  -21.0169  -20.8997   24.0761 N   0  3  0  0  0  0  0  0  0  0  0  0
  -22.6254  -14.8437   20.7250 O   0  0  0  0  0  0  0  0  0  0  0  0
  -22.9212  -29.4302   24.1543 O   0  0  0  0  0  0  0  0  0  0  0  0
  -21.0215  -26.3895   24.1284 O   0  0  0  0  0  0  0  0  0  0  0  0
  -23.2248  -22.5545   24.6270 O   0  0  0  0  0  0  0  0  0  0  0  0
  -31.8910  -14.6325   20.1377 O   0  0  0  0  0  0  0  0  0  0  0  0
  -21.3325   -7.4435   22.7642 O   0  0  0  0  0  0  0  0  0  0  0  0
  -27.8534  -24.1058   21.0571 O   0  0  0  0  0  0  0  0  0  1  0  0
  -23.8982   -2.8487   24.4102 F   0  0  0  0  0  0  0  0  0  0  0  0
  -21.0552   -6.5139   25.3530 F   0  0  0  0  0  0  0  0  0  0  0  0
  1  2  1  0  0  0  0
  1  5  2  0  0  0  0
  2  6  2  0  0  0  0
  3  8  2  0  0  0  0
  3 16  1  0  0  0  0
  4  9  1  0  0  0  0
  4 16  2  0  0  0  0
  5 18  1  0  0  0  0
  6 20  1  0  0  0  0
  7 10  2  0  0  0  0
  7 19  1  0  0  0  0
  8 22  1  0  0  0  0
  9 22  2  0  0  0  0
 10 23  1  0  0  0  0
 11 12  2  0  0  0  0
 11 24  1  0  0  0  0
 12 25  1  0  0  0  0
 13 21  1  0  0  0  0
 13 23  2  0  0  0  0
 14 25  2  0  0  0  0
 14 26  1  0  0  0  0
 15 69  2  0  0  0  0
 15 71  1  0  0  0  0
 16 27  1  0  0  0  0
 17 27  1  0  0  0  0
 17 30  2  0  0  0  0
 17 33  1  0  0  0  0
 18 20  2  0  0  0  0
 18 38  1  0  0  0  0
 19 21  2  0  0  0  0
 19 39  1  0  0  0  0
 20 53  1  0  0  0  0
 21 40  1  0  0  0  0
 22 87  1  0  0  0  0
 23 88  1  0  0  0  0
 24 26  2  0  0  0  0
 24 87  1  0  0  0  0
 25 89  1  0  0  0  0
 26 90  1  0  0  0  0
 27 70  2  0  0  0  0
 28 29  2  0  0  0  0
 28 32  1  0  0  0  0
 28 71  1  0  0  0  0
 29 54  1  0  0  0  0
 29 69  1  0  0  0  0
 30 72  1  0  0  0  0
 30 75  1  0  0  0  0
 31 32  2  0  0  0  0
 31 41  1  0  0  0  0
 31 55  1  0  0  0  0
 33 76  1  0  0  0  0
 33 82  2  0  0  0  0
 34 56  1  0  0  0  0
 34 77  1  0  0  0  0
 34 83  2  0  0  0  0
 35 66  1  0  0  0  0
 35 73  1  0  0  0  0
 35 84  2  0  0  0  0
 36 67  1  0  0  0  0
 36 78  1  0  0  0  0
 36 85  2  0  0  0  0
 37 74  1  0  0  0  0
 37 79  1  0  0  0  0
 37 86  2  0  0  0  0
 38 42  1  0  0  0  0
 39 56  1  0  0  0  0
 40 73  1  0  0  0  0
 41 43  1  0  0  0  0
 42 45  1  0  0  0  0
 43 55  1  0  0  0  0
 44 48  1  0  0  0  0
 44 49  1  0  0  0  0
 45 53  1  0  0  0  0
 46 47  1  0  0  0  0
 46 54  1  0  0  0  0
 47 54  1  0  0  0  0
 48 57  1  0  0  0  0
 49 74  1  0  0  0  0
 50 57  1  0  0  0  0
 50 74  1  0  0  0  0
 51 58  1  0  0  0  0
 51 80  1  0  0  0  0
 52 58  1  0  0  0  0
 52 80  1  0  0  0  0
 53 77  1  0  0  0  0
 55 80  1  0  0  0  0
 56 73  1  0  0  0  0
 57 72  1  0  0  0  0
 58 79  1  0  0  0  0
 59 67  1  0  0  0  0
 60 68  1  0  0  0  0
 61 68  1  0  0  0  0
 62 68  1  0  0  0  0
 63 81  1  0  0  0  0
 64 65  1  0  0  0  0
 64 71  1  0  0  0  0
 65 88  1  0  0  0  0
 66 68  1  0  0  0  0
 66 78  1  0  0  0  0
 67 81  1  0  0  0  0
 70 72  1  0  0  0  0
M  CHG  2  80   1  81   1
M  ISO  4  37 100  65 101  79 100  88 101
M  END
> <Batch ID>
0197

> <Smiles>
CNC(C)C(=O)NC(C(=O)N1Cc2cc([101O:1][101CH2:1]Cn3cnc(C4CC4)c3C=C3CCC3N3CC([100NH:0][100C:0](=O)N4CCCC(n5nc(-c6ccc(Oc7ccc(F)cc7F)cc6)c(C(N)=O)c5N)C4)C3)ccc2CC1C(=O)NC1CCCc2ccccc21)C(C)(C)C

> <Shape>
0.251

> <Color>
0.174

> <Negative vol penalty>
0.000

$$$$

  -OEChem-04052323453D

 85 94  0     1  0  0  0  0  0999 V2000
  -23.5124  -23.8408   22.4277 C   0  0  0  0  0  0  0  0  0  0  0  0
  -24.6449  -23.0384   22.3325 C   0  0  0  0  0  0  0  0  0  0  0  0
  -25.0798  -28.9330   21.9241 C   0  0  0  0  0  0  0  0  0  0  0  0
  -25.1794  -30.3728   19.9865 C   0  0  0  0  0  0  0  0  0  0  0  0
  -22.2989  -23.2868   22.8332 C   0  0  0  0  0  0  0  0  0  0  0  0
  -24.5647  -21.6815   22.6438 C   0  0  0  0  0  0  0  0  0  0  0  0
  -26.9436  -18.7668   19.2541 C   0  0  0  0  0  0  0  0  0  0  0  0
  -24.2594  -29.8582   22.5694 C   0  0  0  0  0  0  0  0  0  0  0  0
  -24.3589  -31.2980   20.6318 C   0  0  0  0  0  0  0  0  0  0  0  0
  -28.3335  -18.6967   19.3386 C   0  0  0  0  0  0  0  0  0  0  0  0
  -24.6231  -32.7907   24.2103 C   0  0  0  0  0  0  0  0  0  0  0  0
  -24.9126  -33.0957   25.5403 C   0  0  0  0  0  0  0  0  0  0  0  0
  -28.1512  -16.5797   20.4806 C   0  0  0  0  0  0  0  0  0  0  0  0
  -22.7234  -32.3121   26.1964 C   0  0  0  0  0  0  0  0  0  0  0  0
  -33.1311  -22.6770   23.9775 C   0  0  0  0  0  0  0  0  0  0  0  0
  -33.0516  -21.8543   21.4389 C   0  0  0  0  0  0  0  0  0  0  0  0
  -25.5399  -29.1903   20.6326 C   0  0  0  0  0  0  0  0  0  0  0  0
  -25.9822  -27.1634   19.1481 C   0  0  0  0  0  0  0  0  0  0  0  0
  -22.2017  -21.9204   23.1403 C   0  0  0  0  0  0  0  0  0  0  0  0
  -26.1455  -17.7474   19.7928 C   0  0  0  0  0  0  0  0  0  0  0  0
  -23.3491  -21.1089   23.0551 C   0  0  0  0  0  0  0  0  0  0  0  0
  -26.7516  -16.6380   20.3994 C   0  0  0  0  0  0  0  0  0  0  0  0
  -23.8989  -31.0407   21.9233 C   0  0  0  0  0  0  0  0  0  0  0  0
  -28.9374  -17.6044   19.9544 C   0  0  0  0  0  0  0  0  0  0  0  0
  -23.3837  -32.2465   23.8734 C   0  0  0  0  0  0  0  0  0  0  0  0
  -23.9628  -32.8564   26.5333 C   0  0  0  0  0  0  0  0  0  0  0  0
  -22.4339  -32.0072   24.8665 C   0  0  0  0  0  0  0  0  0  0  0  0
  -26.3879  -28.2352   19.9657 C   0  0  0  0  0  0  0  0  0  0  0  0
  -32.9590  -23.5726   22.9451 C   0  0  0  0  0  0  0  0  0  0  0  0
  -33.2245  -20.9587   22.4712 C   0  0  0  0  0  0  0  0  0  0  0  0
  -27.1555  -26.5633   18.7614 C   0  0  0  0  0  0  0  0  0  0  0  0
  -24.6627  -26.7475   18.7719 C   0  0  0  0  0  0  0  0  0  0  0  0
  -23.9425  -17.5949   22.0791 C   0  0  0  0  0  0  0  0  0  0  0  0
  -23.6062  -14.5501   21.0121 C   0  0  0  0  0  0  0  0  0  0  0  0
  -24.9849  -11.8754   19.4023 C   0  0  0  0  0  0  0  0  0  0  0  0
  -32.5901  -26.3048   21.1235 C   0  0  0  0  0  0  0  0  0  0  0  0
  -20.8792  -21.3765   23.6197 C   0  0  0  0  0  0  0  0  0  0  0  0
  -24.6484  -17.8251   19.6698 C   0  0  0  0  0  0  0  0  0  0  0  0
  -25.9402  -15.5074   20.9755 C   0  0  0  0  0  0  0  0  0  0  0  0
  -20.7933  -19.8532   23.5707 C   0  0  0  0  0  0  0  0  0  0  0  0
  -31.7627  -27.5026   17.9448 C   0  0  0  0  0  0  0  0  0  0  0  0
  -22.0525  -19.2282   24.1630 C   0  0  0  0  0  0  0  0  0  0  0  0
  -30.2560  -27.7419   18.0169 C   0  0  0  0  0  0  0  0  0  0  0  0
  -29.4500  -25.2417   22.0413 C   0  0  0  0  0  0  0  0  0  0  0  0
  -29.8359  -24.9653   23.4637 C   0  0  0  0  0  0  0  0  0  0  0  0
  -32.4400  -27.9104   19.2471 C   0  0  0  0  0  0  0  0  0  0  0  0
  -30.3843  -27.4267   20.5406 C   0  0  0  0  0  0  0  0  0  0  0  0
  -23.2966  -19.6277   23.3604 C   0  0  1  0  0  0  0  0  0  0  0  0
  -23.9189  -16.9790   20.7088 C   0  0  1  0  0  0  0  0  0  0  0  0
  -29.6480  -27.0386   19.2418 C   0  0  1  0  0  0  0  0  0  0  0  0
  -30.6138  -25.9688   22.6573 C   0  0  0  0  0  0  0  0  0  0  0  0
  -24.4810   -9.5143   18.7176 C   0  0  0  0  0  0  0  0  0  0  0  0
  -24.0307  -13.6277   23.8894 C   0  0  0  0  0  0  0  0  0  0  0  0
  -24.4642  -11.3229   23.0130 C   0  0  0  0  0  0  0  0  0  0  0  0
  -22.2409  -12.3949   22.6521 C   0  0  0  0  0  0  0  0  0  0  0  0
  -25.3048  -12.5169   16.5308 C   0  0  0  0  0  0  0  0  0  0  0  0
  -32.8119  -25.0276   23.2233 C   0  0  0  0  0  0  0  0  0  0  0  0
  -33.3723  -19.4923   22.1908 C   0  0  0  0  0  0  0  0  0  0  0  0
  -32.2118  -17.3969   21.4828 C   0  0  0  0  0  0  0  0  0  0  0  0
  -30.8396  -16.8395   21.1597 C   0  0  0  0  0  0  0  0  0  1  0  0
  -24.2425  -13.2231   21.3483 C   0  0  1  0  0  0  0  0  0  0  0  0
  -24.4501  -10.9768   18.3018 C   0  0  2  0  0  0  0  0  0  0  0  0
  -23.7601  -12.6642   22.7167 C   0  0  0  0  0  0  0  0  0  0  0  0
  -32.9158  -23.1773   21.6573 N   0  0  0  0  0  0  0  0  0  0  0  0
  -33.2673  -21.3540   23.7590 N   0  0  0  0  0  0  0  0  0  0  0  0
  -27.7153  -28.3139   20.0917 N   0  0  0  0  0  0  0  0  0  0  0  0
  -28.1538  -27.2838   19.3482 N   0  0  0  0  0  0  0  0  0  0  0  0
  -24.4799  -15.6325   20.8361 N   0  0  0  0  0  0  0  0  0  0  0  0
  -31.8354  -27.2379   20.3978 N   0  0  0  0  0  0  0  0  0  0  0  0
  -27.4204  -25.4947   17.9801 N   0  0  0  0  0  0  0  0  0  0  0  0
  -23.5684  -27.4760   19.2579 N   0  0  0  0  0  0  0  0  0  0  0  0
  -23.3796  -18.8555   22.1392 N   0  0  0  0  0  0  0  0  0  0  0  0
  -23.9747  -12.3434   20.2157 N   0  0  0  0  0  0  0  0  0  0  0  0
  -31.9770  -25.7019   22.2353 N   0  0  0  0  0  0  0  0  0  0  0  0
  -25.2664  -11.1311   17.0646 N   0  3  0  0  0  0  0  0  0  0  0  0
  -32.0880  -18.8364   21.8244 N   0  3  0  0  0  0  0  0  0  0  0  0
  -24.4593  -25.7492   18.0400 O   0  0  0  0  0  0  0  0  0  0  0  0
  -24.4336  -16.9719   23.0131 O   0  0  0  0  0  0  0  0  0  0  0  0
  -22.3796  -14.6221   20.9025 O   0  0  0  0  0  0  0  0  0  0  0  0
  -26.1798  -12.1331   19.5299 O   0  0  0  0  0  0  0  0  0  0  0  0
  -33.7579  -26.0373   20.8116 O   0  0  0  0  0  0  0  0  0  0  0  0
  -23.0981  -31.9436   22.5527 O   0  0  0  0  0  0  0  0  0  0  0  0
  -30.2938  -17.5338   20.0388 O   0  0  0  0  0  0  0  0  0  1  0  0
  -24.2415  -33.1478   27.8106 F   0  0  0  0  0  0  0  0  0  0  0  0
  -21.2419  -31.4835   24.5490 F   0  0  0  0  0  0  0  0  0  0  0  0
  1  2  1  0  0  0  0
  1  5  2  0  0  0  0
  2  6  2  0  0  0  0
  3  8  2  0  0  0  0
  3 17  1  0  0  0  0
  4  9  1  0  0  0  0
  4 17  2  0  0  0  0
  5 19  1  0  0  0  0
  6 21  1  0  0  0  0
  7 10  2  0  0  0  0
  7 20  1  0  0  0  0
  8 23  1  0  0  0  0
  9 23  2  0  0  0  0
 10 24  1  0  0  0  0
 11 12  2  0  0  0  0
 11 25  1  0  0  0  0
 12 26  1  0  0  0  0
 13 22  1  0  0  0  0
 13 24  2  0  0  0  0
 14 26  2  0  0  0  0
 14 27  1  0  0  0  0
 15 29  2  0  0  0  0
 15 65  1  0  0  0  0
 16 30  1  0  0  0  0
 16 64  2  0  0  0  0
 17 28  1  0  0  0  0
 18 28  1  0  0  0  0
 18 31  2  0  0  0  0
 18 32  1  0  0  0  0
 19 21  2  0  0  0  0
 19 37  1  0  0  0  0
 20 22  2  0  0  0  0
 20 38  1  0  0  0  0
 21 48  1  0  0  0  0
 22 39  1  0  0  0  0
 23 82  1  0  0  0  0
 24 83  1  0  0  0  0
 25 27  2  0  0  0  0
 25 82  1  0  0  0  0
 26 84  1  0  0  0  0
 27 85  1  0  0  0  0
 28 66  2  0  0  0  0
 29 57  1  0  0  0  0
 29 64  1  0  0  0  0
 30 58  1  0  0  0  0
 30 65  2  0  0  0  0
 31 67  1  0  0  0  0
 31 70  1  0  0  0  0
 32 71  1  0  0  0  0
 32 77  2  0  0  0  0
 33 49  1  0  0  0  0
 33 72  1  0  0  0  0
 33 78  2  0  0  0  0
 34 61  1  0  0  0  0
 34 68  1  0  0  0  0
 34 79  2  0  0  0  0
 35 62  1  0  0  0  0
 35 73  1  0  0  0  0
 35 80  2  0  0  0  0
 36 69  1  0  0  0  0
 36 74  1  0  0  0  0
 36 81  2  0  0  0  0
 37 40  1  0  0  0  0
 38 49  1  0  0  0  0
 39 68  1  0  0  0  0
 40 42  1  0  0  0  0
 41 43  1  0  0  0  0
 41 46  1  0  0  0  0
 42 48  1  0  0  0  0
 43 50  1  0  0  0  0
 44 45  1  0  0  0  0
 44 51  1  0  0  0  0
 45 51  1  0  0  0  0
 46 69  1  0  0  0  0
 47 50  1  0  0  0  0
 47 69  1  0  0  0  0
 48 72  1  0  0  0  0
 49 68  1  0  0  0  0
 50 67  1  0  0  0  0
 51 74  1  0  0  0  0
 52 62  1  0  0  0  0
 53 63  1  0  0  0  0
 54 63  1  0  0  0  0
 55 63  1  0  0  0  0
 56 75  1  0  0  0  0
 57 74  1  0  0  0  0
 58 76  1  0  0  0  0
 59 60  1  0  0  0  0
 59 76  1  0  0  0  0
 60 83  1  0  0  0  0
 61 63  1  0  0  0  0
 61 73  1  0  0  0  0
 62 75  1  0  0  0  0
 66 67  1  0  0  0  0
M  CHG  2  75   1  76   1
M  ISO  4  36 100  60 101  74 100  83 101
M  END
> <Batch ID>
0197

> <Smiles>
CNC(C)C(=O)NC(C(=O)N1Cc2cc([101O:1][101CH2:1]CNCc3cnc(C[100N:0](C4CC4)[100C:0](=O)N4CCCC(n5nc(-c6ccc(Oc7ccc(F)cc7F)cc6)c(C(N)=O)c5N)C4)cn3)ccc2CC1C(=O)NC1CCCc2ccccc21)C(C)(C)C

> <Shape>
0.188

> <Color>
0.064

> <Negative vol penalty>
0.000

$$$$

  -OEChem-04052323453D

 86 95  0     1  0  0  0  0  0999 V2000
  -22.6015  -33.3366   25.1323 C   0  0  0  0  0  0  0  0  0  0  0  0
  -23.5500  -32.3836   24.7752 C   0  0  0  0  0  0  0  0  0  0  0  0
  -25.9837  -13.8031   20.3878 C   0  0  0  0  0  0  0  0  0  0  0  0
  -23.9647  -13.4544   21.6680 C   0  0  0  0  0  0  0  0  0  0  0  0
  -21.2432  -33.0453   25.0132 C   0  0  0  0  0  0  0  0  0  0  0  0
  -23.1407  -31.1382   24.2998 C   0  0  0  0  0  0  0  0  0  0  0  0
  -25.7639  -29.6542   20.2302 C   0  0  0  0  0  0  0  0  0  0  0  0
  -26.2412  -12.4326   20.4205 C   0  0  0  0  0  0  0  0  0  0  0  0
  -24.2222  -12.0839   21.7008 C   0  0  0  0  0  0  0  0  0  0  0  0
  -27.0423  -29.1427   20.4485 C   0  0  0  0  0  0  0  0  0  0  0  0
  -23.8944   -9.4393   19.6225 C   0  0  0  0  0  0  0  0  0  0  0  0
  -22.8316   -8.5753   19.3590 C   0  0  0  0  0  0  0  0  0  0  0  0
  -26.1734  -26.9013   20.2473 C   0  0  0  0  0  0  0  0  0  0  0  0
  -23.0932   -7.5860   21.5477 C   0  0  0  0  0  0  0  0  0  0  0  0
  -30.7291  -26.5340   17.5014 C   0  0  0  0  0  0  0  0  0  0  0  0
  -24.8455  -14.3140   21.0116 C   0  0  0  0  0  0  0  0  0  0  0  0
  -23.8419  -16.4336   20.0077 C   0  0  0  0  0  0  0  0  0  0  0  0
  -20.8171  -31.7992   24.5271 C   0  0  0  0  0  0  0  0  0  0  0  0
  -24.6768  -28.7914   20.0293 C   0  0  0  0  0  0  0  0  0  0  0  0
  -21.7754  -30.8294   24.1755 C   0  0  0  0  0  0  0  0  0  0  0  0
  -24.8826  -27.4044   20.0241 C   0  0  0  0  0  0  0  0  0  0  0  0
  -25.3604  -11.5730   21.0770 C   0  0  0  0  0  0  0  0  0  0  0  0
  -27.2467  -27.7660   20.4599 C   0  0  0  0  0  0  0  0  0  0  0  0
  -24.5567   -9.3766   20.8486 C   0  0  0  0  0  0  0  0  0  0  0  0
  -22.4309   -7.6487   20.3216 C   0  0  0  0  0  0  0  0  0  0  0  0
  -24.1561   -8.4500   21.8111 C   0  0  0  0  0  0  0  0  0  0  0  0
  -24.5793  -15.7297   20.9786 C   0  0  0  0  0  0  0  0  0  0  0  0
  -30.4892  -26.1803   18.8136 C   0  0  0  0  0  0  0  0  0  0  0  0
  -30.4247  -25.5731   16.5589 C   0  0  0  0  0  0  0  0  0  0  0  0
  -23.8814  -17.7408   20.4276 C   0  0  0  0  0  0  0  0  0  0  0  0
  -29.7347  -24.1329   18.1766 C   0  0  0  0  0  0  0  0  0  0  0  0
  -23.1802  -15.9492   18.8316 C   0  0  0  0  0  0  0  0  0  0  0  0
  -21.9516  -28.2221   21.5632 C   0  0  0  0  0  0  0  0  0  0  0  0
  -21.3596  -26.3221   19.0016 C   0  0  0  0  0  0  0  0  0  0  0  0
  -22.6031  -24.4784   16.4130 C   0  0  0  0  0  0  0  0  0  0  0  0
  -26.9103  -22.0563   22.4446 C   0  0  0  0  0  0  0  0  0  0  0  0
  -19.3378  -31.5131   24.4606 C   0  0  0  0  0  0  0  0  0  0  0  0
  -23.3087  -29.3595   19.7686 C   0  0  0  0  0  0  0  0  0  0  0  0
  -23.7524  -26.4359   19.7932 C   0  0  0  0  0  0  0  0  0  0  0  0
  -18.9893  -30.3051   23.5949 C   0  0  0  0  0  0  0  0  0  0  0  0
  -25.3966  -19.7763   24.7774 C   0  0  0  0  0  0  0  0  0  0  0  0
  -19.9056  -29.1307   23.9234 C   0  0  0  0  0  0  0  0  0  0  0  0
  -25.0393  -18.5565   23.9345 C   0  0  0  0  0  0  0  0  0  0  0  0
  -26.6824  -20.4230   24.2800 C   0  0  0  0  0  0  0  0  0  0  0  0
  -26.2415  -19.6383   21.9680 C   0  0  0  0  0  0  0  0  0  0  0  0
  -27.9132  -23.4872   20.5871 C   0  0  0  0  0  0  0  0  0  0  0  0
  -28.2587  -21.4077   20.2983 C   0  0  0  0  0  0  0  0  0  0  0  0
  -21.3710  -29.4761   23.6324 C   0  0  1  0  0  0  0  0  0  0  0  0
  -22.1840  -28.3792   20.0871 C   0  0  1  0  0  0  0  0  0  0  0  0
  -24.9560  -18.9362   22.4491 C   0  0  1  0  0  0  0  0  0  0  0  0
  -29.0363  -22.6791   19.9242 C   0  0  0  0  0  0  0  0  0  0  0  0
  -21.8759  -23.0087   14.5134 C   0  0  0  0  0  0  0  0  0  0  0  0
  -20.8181  -24.0526   20.9680 C   0  0  0  0  0  0  0  0  0  0  0  0
  -21.0390  -22.4429   19.0632 C   0  0  0  0  0  0  0  0  0  0  0  0
  -19.2313  -24.1616   19.0381 C   0  0  0  0  0  0  0  0  0  0  0  0
  -23.7951  -26.2920   14.4007 C   0  0  0  0  0  0  0  0  0  0  0  0
  -30.7870  -27.1537   19.9044 C   0  0  0  0  0  0  0  0  0  0  0  0
  -29.5968  -28.0572   20.2401 C   0  0  0  0  0  0  0  0  0  1  0  0
  -30.6532  -25.8625   15.1133 C   0  0  0  0  0  0  0  0  0  0  0  0
  -21.6265  -24.8764   18.6585 C   0  0  1  0  0  0  0  0  0  0  0  0
  -22.2277  -24.4244   14.9431 C   0  0  2  0  0  0  0  0  0  0  0  0
  -20.6999  -23.9013   19.4382 C   0  0  0  0  0  0  0  0  0  0  0  0
  -25.0527  -16.5239   21.9425 N   0  0  0  0  0  0  0  0  0  0  0  0
  -29.9907  -24.9839   19.1883 N   0  0  0  0  0  0  0  0  0  0  0  0
  -29.9244  -24.3574   16.8623 N   0  0  0  0  0  0  0  0  0  0  0  0
  -24.6119  -17.7404   21.5794 N   0  0  0  0  0  0  0  0  0  0  0  0
  -22.4322  -27.0401   19.5491 N   0  0  0  0  0  0  0  0  0  0  0  0
  -26.6196  -20.7495   22.8521 N   0  0  0  0  0  0  0  0  0  0  0  0
  -27.4913  -22.2387   21.2107 N   0  0  0  0  0  0  0  0  0  0  0  0
  -23.3622  -18.8789   19.9203 N   0  0  0  0  0  0  0  0  0  0  0  0
  -23.2388  -14.5777   18.5490 N   0  0  0  0  0  0  0  0  0  0  0  0
  -21.6354  -29.4008   22.2115 N   0  0  0  0  0  0  0  0  0  0  0  0
  -21.5156  -24.7741   17.2074 N   0  0  0  0  0  0  0  0  0  0  0  0
  -23.3603  -24.9034   14.1012 N   0  3  0  0  0  0  0  0  0  0  0  0
  -22.5695  -16.7125   18.0455 O   0  0  0  0  0  0  0  0  0  0  0  0
  -22.0502  -27.1134   22.0758 O   0  0  0  0  0  0  0  0  0  0  0  0
  -20.2426  -26.7987   18.7851 O   0  0  0  0  0  0  0  0  0  0  0  0
  -23.7460  -24.2746   16.8164 O   0  0  0  0  0  0  0  0  0  0  0  0
  -26.6877  -23.0325   23.1731 O   0  0  0  0  0  0  0  0  0  0  0  0
  -25.6112  -10.2356   21.1089 O   0  0  0  0  0  0  0  0  0  0  0  0
  -28.5022  -27.2605   20.6749 O   0  0  0  0  0  0  0  0  0  1  0  0
  -29.2329  -22.9126   18.5192 O   0  0  0  0  0  0  0  0  0  0  0  0
  -21.4092   -6.8201   20.0690 F   0  0  0  0  0  0  0  0  0  0  0  0
  -24.7877   -8.3859   22.9913 F   0  0  0  0  0  0  0  0  0  0  0  0
  -29.9058  -26.9227   14.7088 F   0  0  0  0  0  0  0  0  0  0  0  0
  -30.2744  -24.8081   14.3445 F   0  0  0  0  0  0  0  0  0  0  0  0
  1  2  1  0  0  0  0
  1  5  2  0  0  0  0
  2  6  2  0  0  0  0
  3  8  2  0  0  0  0
  3 16  1  0  0  0  0
  4  9  1  0  0  0  0
  4 16  2  0  0  0  0
  5 18  1  0  0  0  0
  6 20  1  0  0  0  0
  7 10  2  0  0  0  0
  7 19  1  0  0  0  0
  8 22  1  0  0  0  0
  9 22  2  0  0  0  0
 10 23  1  0  0  0  0
 11 12  2  0  0  0  0
 11 24  1  0  0  0  0
 12 25  1  0  0  0  0
 13 21  1  0  0  0  0
 13 23  2  0  0  0  0
 14 25  2  0  0  0  0
 14 26  1  0  0  0  0
 15 28  1  0  0  0  0
 15 29  2  0  0  0  0
 16 27  1  0  0  0  0
 17 27  1  0  0  0  0
 17 30  2  0  0  0  0
 17 32  1  0  0  0  0
 18 20  2  0  0  0  0
 18 37  1  0  0  0  0
 19 21  2  0  0  0  0
 19 38  1  0  0  0  0
 20 48  1  0  0  0  0
 21 39  1  0  0  0  0
 22 80  1  0  0  0  0
 23 81  1  0  0  0  0
 24 26  2  0  0  0  0
 24 80  1  0  0  0  0
 25 83  1  0  0  0  0
 26 84  1  0  0  0  0
 27 63  2  0  0  0  0
 28 57  1  0  0  0  0
 28 64  2  0  0  0  0
 29 59  1  0  0  0  0
 29 65  1  0  0  0  0
 30 66  1  0  0  0  0
 30 70  1  0  0  0  0
 31 64  1  0  0  0  0
 31 65  2  0  0  0  0
 31 82  1  0  0  0  0
 32 71  1  0  0  0  0
 32 75  2  0  0  0  0
 33 49  1  0  0  0  0
 33 72  1  0  0  0  0
 33 76  2  0  0  0  0
 34 60  1  0  0  0  0
 34 67  1  0  0  0  0
 34 77  2  0  0  0  0
 35 61  1  0  0  0  0
 35 73  1  0  0  0  0
 35 78  2  0  0  0  0
 36 68  1  0  0  0  0
 36 69  1  0  0  0  0
 36 79  2  0  0  0  0
 37 40  1  0  0  0  0
 38 49  1  0  0  0  0
 39 67  1  0  0  0  0
 40 42  1  0  0  0  0
 41 43  1  0  0  0  0
 41 44  1  0  0  0  0
 42 48  1  0  0  0  0
 43 50  1  0  0  0  0
 44 68  1  0  0  0  0
 45 50  1  0  0  0  0
 45 68  1  0  0  0  0
 46 51  1  0  0  0  0
 46 69  1  0  0  0  0
 47 51  1  0  0  0  0
 47 69  1  0  0  0  0
 48 72  1  0  0  0  0
 49 67  1  0  0  0  0
 50 66  1  0  0  0  0
 51 82  1  0  0  0  0
 52 61  1  0  0  0  0
 53 62  1  0  0  0  0
 54 62  1  0  0  0  0
 55 62  1  0  0  0  0
 56 74  1  0  0  0  0
 57 58  1  0  0  0  0
 58 81  1  0  0  0  0
 59 85  1  0  0  0  0
 59 86  1  0  0  0  0
 60 62  1  0  0  0  0
 60 73  1  0  0  0  0
 61 74  1  0  0  0  0
 63 66  1  0  0  0  0
M  CHG  1  74   1
M  ISO  4  36 100  58 101  69 100  81 101
M  END
> <Batch ID>
0197

> <Smiles>
CNC(C)C(=O)NC(C(=O)N1Cc2cc([101O:1][101CH2:1]Cc3cc(C(F)F)nc(OC4C[100N:0]([100C:0](=O)N5CCCC(n6nc(-c7ccc(Oc8ccc(F)cc8F)cc7)c(C(N)=O)c6N)C5)C4)n3)ccc2CC1C(=O)NC1CCCc2ccccc21)C(C)(C)C

> <Shape>
0.232

> <Color>
0.095

> <Negative vol penalty>
0.000

$$$$

  -OEChem-04052323453D

 82 90  0     1  0  0  0  0  0999 V2000
  -32.4751  -29.7465   16.0374 C   0  0  0  0  0  0  0  0  0  0  0  0
  -32.1410  -28.8003   17.0009 C   0  0  0  0  0  0  0  0  0  0  0  0
  -23.0754   -9.8670   19.9399 C   0  0  0  0  0  0  0  0  0  0  0  0
  -23.8361   -9.8738   22.2330 C   0  0  0  0  0  0  0  0  0  0  0  0
  -31.7698  -29.7951   14.8356 C   0  0  0  0  0  0  0  0  0  0  0  0
  -31.1006  -27.9026   16.7636 C   0  0  0  0  0  0  0  0  0  0  0  0
  -32.2908  -23.1585   18.0755 C   0  0  0  0  0  0  0  0  0  0  0  0
  -22.3324   -8.7133   20.1898 C   0  0  0  0  0  0  0  0  0  0  0  0
  -23.0930   -8.7201   22.4830 C   0  0  0  0  0  0  0  0  0  0  0  0
  -32.2444  -22.8424   19.4326 C   0  0  0  0  0  0  0  0  0  0  0  0
  -19.8656   -7.9201   23.0864 C   0  0  0  0  0  0  0  0  0  0  0  0
  -19.1091   -7.8794   24.2575 C   0  0  0  0  0  0  0  0  0  0  0  0
  -30.0833  -21.8189   19.1141 C   0  0  0  0  0  0  0  0  0  0  0  0
  -20.3520   -5.9426   24.9930 C   0  0  0  0  0  0  0  0  0  0  0  0
  -32.2370  -18.4971   21.9085 C   0  0  0  0  0  0  0  0  0  0  0  0
  -23.8274  -10.4472   20.9615 C   0  0  0  0  0  0  0  0  0  0  0  0
  -24.1675  -12.9726   20.8420 C   0  0  0  0  0  0  0  0  0  0  0  0
  -30.7266  -28.8913   14.5796 C   0  0  0  0  0  0  0  0  0  0  0  0
  -31.2272  -22.8162   17.2282 C   0  0  0  0  0  0  0  0  0  0  0  0
  -30.3798  -27.9400   15.5579 C   0  0  0  0  0  0  0  0  0  0  0  0
  -30.1198  -22.1294   17.7461 C   0  0  0  0  0  0  0  0  0  0  0  0
  -31.5014  -19.3335   22.7232 C   0  0  0  0  0  0  0  0  0  0  0  0
  -22.3411   -8.1399   21.4613 C   0  0  0  0  0  0  0  0  0  0  0  0
  -31.1392  -22.1751   19.9527 C   0  0  0  0  0  0  0  0  0  0  0  0
  -20.8653   -6.9720   22.8685 C   0  0  0  0  0  0  0  0  0  0  0  0
  -19.3523   -6.8907   25.2109 C   0  0  0  0  0  0  0  0  0  0  0  0
  -21.1085   -5.9833   23.8218 C   0  0  0  0  0  0  0  0  0  0  0  0
  -24.5956  -11.6387   20.7038 C   0  0  0  0  0  0  0  0  0  0  0  0
  -30.2554  -18.8665   23.0889 C   0  0  0  0  0  0  0  0  0  0  0  0
  -25.2591  -13.7229   20.4786 C   0  0  0  0  0  0  0  0  0  0  0  0
  -30.5692  -16.9526   21.9034 C   0  0  0  0  0  0  0  0  0  0  0  0
  -22.8969  -13.4875   21.2615 C   0  0  0  0  0  0  0  0  0  0  0  0
  -29.1750  -24.4492   15.4322 C   0  0  0  0  0  0  0  0  0  0  0  0
  -28.2731  -21.4893   14.4585 C   0  0  0  0  0  0  0  0  0  0  0  0
  -28.1051  -18.1464   15.1243 C   0  0  0  0  0  0  0  0  0  0  0  0
  -30.7247  -14.7719   20.6516 C   0  0  0  0  0  0  0  0  0  0  0  0
  -29.9620  -29.0131   13.2853 C   0  0  0  0  0  0  0  0  0  0  0  0
  -31.3045  -23.1405   15.7614 C   0  0  0  0  0  0  0  0  0  0  0  0
  -28.9610  -21.7217   16.8748 C   0  0  0  0  0  0  0  0  0  0  0  0
  -29.1191  -27.7832   12.9577 C   0  0  0  0  0  0  0  0  0  0  0  0
  -29.6110  -12.3580   18.2831 C   0  0  0  0  0  0  0  0  0  0  0  0
  -28.3325  -27.3329   14.1847 C   0  0  0  0  0  0  0  0  0  0  0  0
  -28.1716  -12.0654   18.7131 C   0  0  0  0  0  0  0  0  0  0  0  0
  -30.5264  -12.5871   19.4845 C   0  0  0  0  0  0  0  0  0  0  0  0
  -28.6194  -13.3100   20.8666 C   0  0  0  0  0  0  0  0  0  0  0  0
  -29.2738  -26.9332   15.3273 C   0  0  1  0  0  0  0  0  0  0  0  0
  -29.9361  -23.1998   15.0897 C   0  0  1  0  0  0  0  0  0  0  0  0
  -27.6463  -13.1364   19.6891 C   0  0  2  0  0  0  0  0  0  0  0  0
  -29.7992  -19.6368   25.4309 C   0  0  0  0  0  0  0  0  0  0  0  0
  -33.3135  -20.4980   24.0239 C   0  0  0  0  0  0  0  0  0  0  0  0
  -27.2783  -15.9840   14.1558 C   0  0  0  0  0  0  0  0  0  0  0  0
  -25.4137  -22.2533   15.2001 C   0  0  0  0  0  0  0  0  0  0  0  0
  -24.8182  -19.8227   15.1222 C   0  0  0  0  0  0  0  0  0  0  0  0
  -25.6305  -20.9727   13.0630 C   0  0  0  0  0  0  0  0  0  0  0  0
  -30.8314  -16.9962   15.0655 C   0  0  0  0  0  0  0  0  0  0  0  0
  -29.3704  -19.6878   23.9674 C   0  0  0  0  0  0  0  0  0  0  0  0
  -32.3248  -21.6135   21.9893 C   0  0  0  0  0  0  0  0  0  1  0  0
  -32.0521  -20.6772   23.1744 C   0  0  1  0  0  0  0  0  0  0  0  0
  -27.2621  -20.4713   14.9280 C   0  0  1  0  0  0  0  0  0  0  0  0
  -28.4598  -16.9329   14.2841 C   0  0  2  0  0  0  0  0  0  0  0  0
  -25.8019  -20.8893   14.5954 C   0  0  0  0  0  0  0  0  0  0  0  0
  -31.8001  -17.2954   21.4781 N   0  0  0  0  0  0  0  0  0  0  0  0
  -25.8604  -11.5437   20.2850 N   0  0  0  0  0  0  0  0  0  0  0  0
  -29.7557  -17.6766   22.6956 N   0  0  0  0  0  0  0  0  0  0  0  0
  -26.2364  -12.8276   20.1569 N   0  0  0  0  0  0  0  0  0  0  0  0
  -29.0807  -22.0668   15.4486 N   0  0  0  0  0  0  0  0  0  0  0  0
  -29.9670  -13.6173   20.3623 N   0  0  0  0  0  0  0  0  0  0  0  0
  -25.4686  -15.0545   20.4058 N   0  0  0  0  0  0  0  0  0  0  0  0
  -21.8857  -12.5776   21.5989 N   0  0  0  0  0  0  0  0  0  0  0  0
  -30.0770  -15.6963   21.4705 N   0  0  0  0  0  0  0  0  0  0  0  0
  -29.8279  -25.6177   15.0889 N   0  0  0  0  0  0  0  0  0  0  0  0
  -27.6661  -19.1962   14.3456 N   0  0  0  0  0  0  0  0  0  0  0  0
  -29.5947  -16.1896   14.9009 N   0  3  0  0  0  0  0  0  0  0  0  0
  -22.6599  -14.7180   21.3193 O   0  0  0  0  0  0  0  0  0  0  0  0
  -28.0761  -24.3598   15.9670 O   0  0  0  0  0  0  0  0  0  0  0  0
  -28.3486  -21.7569   13.2567 O   0  0  0  0  0  0  0  0  0  0  0  0
  -28.2037  -18.1603   16.3493 O   0  0  0  0  0  0  0  0  0  0  0  0
  -31.8535  -14.9415   20.1836 O   0  0  0  0  0  0  0  0  0  0  0  0
  -21.6160   -7.0142   21.7056 O   0  0  0  0  0  0  0  0  0  0  0  0
  -31.0911  -21.8660   21.2770 O   0  0  0  0  0  0  0  0  0  1  0  0
  -18.6267   -6.8526   26.3362 F   0  0  0  0  0  0  0  0  0  0  0  0
  -22.0683   -5.0704   23.6186 F   0  0  0  0  0  0  0  0  0  0  0  0
  1  2  1  0  0  0  0
  1  5  2  0  0  0  0
  2  6  2  0  0  0  0
  3  8  2  0  0  0  0
  3 16  1  0  0  0  0
  4  9  1  0  0  0  0
  4 16  2  0  0  0  0
  5 18  1  0  0  0  0
  6 20  1  0  0  0  0
  7 10  2  0  0  0  0
  7 19  1  0  0  0  0
  8 23  1  0  0  0  0
  9 23  2  0  0  0  0
 10 24  1  0  0  0  0
 11 12  2  0  0  0  0
 11 25  1  0  0  0  0
 12 26  1  0  0  0  0
 13 21  1  0  0  0  0
 13 24  2  0  0  0  0
 14 26  2  0  0  0  0
 14 27  1  0  0  0  0
 15 22  1  0  0  0  0
 15 62  2  0  0  0  0
 16 28  1  0  0  0  0
 17 28  1  0  0  0  0
 17 30  2  0  0  0  0
 17 32  1  0  0  0  0
 18 20  2  0  0  0  0
 18 37  1  0  0  0  0
 19 21  2  0  0  0  0
 19 38  1  0  0  0  0
 20 46  1  0  0  0  0
 21 39  1  0  0  0  0
 22 29  2  0  0  0  0
 22 58  1  0  0  0  0
 23 79  1  0  0  0  0
 24 80  1  0  0  0  0
 25 27  2  0  0  0  0
 25 79  1  0  0  0  0
 26 81  1  0  0  0  0
 27 82  1  0  0  0  0
 28 63  2  0  0  0  0
 29 56  1  0  0  0  0
 29 64  1  0  0  0  0
 30 65  1  0  0  0  0
 30 68  1  0  0  0  0
 31 62  1  0  0  0  0
 31 64  2  0  0  0  0
 31 70  1  0  0  0  0
 32 69  1  0  0  0  0
 32 74  2  0  0  0  0
 33 47  1  0  0  0  0
 33 71  1  0  0  0  0
 33 75  2  0  0  0  0
 34 59  1  0  0  0  0
 34 66  1  0  0  0  0
 34 76  2  0  0  0  0
 35 60  1  0  0  0  0
 35 72  1  0  0  0  0
 35 77  2  0  0  0  0
 36 67  1  0  0  0  0
 36 70  1  0  0  0  0
 36 78  2  0  0  0  0
 37 40  1  0  0  0  0
 38 47  1  0  0  0  0
 39 66  1  0  0  0  0
 40 42  1  0  0  0  0
 41 43  1  0  0  0  0
 41 44  1  0  0  0  0
 42 46  1  0  0  0  0
 43 48  1  0  0  0  0
 44 67  1  0  0  0  0
 45 48  1  0  0  0  0
 45 67  1  0  0  0  0
 46 71  1  0  0  0  0
 47 66  1  0  0  0  0
 48 65  1  0  0  0  0
 49 56  1  0  0  0  0
 50 58  1  0  0  0  0
 51 60  1  0  0  0  0
 52 61  1  0  0  0  0
 53 61  1  0  0  0  0
 54 61  1  0  0  0  0
 55 73  1  0  0  0  0
 57 58  1  0  0  0  0
 57 80  1  0  0  0  0
 59 61  1  0  0  0  0
 59 72  1  0  0  0  0
 60 73  1  0  0  0  0
 63 65  1  0  0  0  0
M  CHG  1  73   1
M  ISO  4  36 100  57 101  70 100  80 101
M  END
> <Batch ID>
0197

> <Smiles>
CCc1nc([100NH:0][100C:0](=O)N2CCCC(n3nc(-c4ccc(Oc5ccc(F)cc5F)cc4)c(C(N)=O)c3N)C2)ncc1C(C)[101CH2:1][101O:1]c1ccc2c(c1)CN(C(=O)C(NC(=O)C(C)NC)C(C)(C)C)C(C(=O)NC1CCCc3ccccc31)C2

> <Shape>
0.197

> <Color>
0.184

> <Negative vol penalty>
0.000

$$$$

  -OEChem-04052323453D

 90100  0     1  0  0  0  0  0999 V2000
  -30.1423  -26.7555   23.5672 C   0  0  0  0  0  0  0  0  0  0  0  0
  -28.9140  -26.2252   23.1857 C   0  0  0  0  0  0  0  0  0  0  0  0
  -29.1304  -30.0146   20.1696 C   0  0  0  0  0  0  0  0  0  0  0  0
  -29.6919  -27.7399   19.5800 C   0  0  0  0  0  0  0  0  0  0  0  0
  -31.3171  -26.2755   22.9899 C   0  0  0  0  0  0  0  0  0  0  0  0
  -28.8598  -25.2153   22.2257 C   0  0  0  0  0  0  0  0  0  0  0  0
  -25.7145  -21.4656   23.5260 C   0  0  0  0  0  0  0  0  0  0  0  0
  -30.4806  -30.3611   20.1189 C   0  0  0  0  0  0  0  0  0  0  0  0
  -31.0421  -28.0864   19.5293 C   0  0  0  0  0  0  0  0  0  0  0  0
  -24.3494  -21.6914   23.3550 C   0  0  0  0  0  0  0  0  0  0  0  0
  -33.1354  -29.6349   17.3750 C   0  0  0  0  0  0  0  0  0  0  0  0
  -33.8812  -29.1725   16.2908 C   0  0  0  0  0  0  0  0  0  0  0  0
  -24.4051  -20.4335   21.2974 C   0  0  0  0  0  0  0  0  0  0  0  0
  -35.3483  -27.9912   17.8039 C   0  0  0  0  0  0  0  0  0  0  0  0
  -28.7361  -28.7040   19.9002 C   0  0  0  0  0  0  0  0  0  0  0  0
  -26.4119  -28.3894   18.8967 C   0  0  0  0  0  0  0  0  0  0  0  0
  -31.2780  -25.2525   22.0294 C   0  0  0  0  0  0  0  0  0  0  0  0
  -26.4386  -20.7300   22.5768 C   0  0  0  0  0  0  0  0  0  0  0  0
  -30.0352  -24.7222   21.6340 C   0  0  0  0  0  0  0  0  0  0  0  0
  -25.7788  -20.1976   21.4600 C   0  0  0  0  0  0  0  0  0  0  0  0
  -31.4364  -29.3970   19.7987 C   0  0  0  0  0  0  0  0  0  0  0  0
  -23.6951  -21.1779   22.2391 C   0  0  0  0  0  0  0  0  0  0  0  0
  -33.4960  -29.2756   18.6737 C   0  0  0  0  0  0  0  0  0  0  0  0
  -34.9877  -28.3507   16.5052 C   0  0  0  0  0  0  0  0  0  0  0  0
  -34.6024  -28.4537   18.8881 C   0  0  0  0  0  0  0  0  0  0  0  0
  -27.3415  -28.3453   19.9530 C   0  0  0  0  0  0  0  0  0  0  0  0
  -25.2358  -27.9532   19.4561 C   0  0  0  0  0  0  0  0  0  0  0  0
  -17.6756  -26.6633   22.0342 C   0  0  0  0  0  0  0  0  0  0  0  0
  -17.0306  -30.3162   22.7422 C   0  0  0  0  0  0  0  0  0  0  0  0
  -18.8031  -25.9926   21.7139 C   0  0  0  0  0  0  0  0  0  0  0  0
  -17.6461  -27.9119   22.8565 C   0  0  0  0  0  0  0  0  0  0  0  0
  -26.5951  -28.7889   17.5320 C   0  0  0  0  0  0  0  0  0  0  0  0
  -28.8788  -21.3569   20.6387 C   0  0  0  0  0  0  0  0  0  0  0  0
  -28.6849  -18.1816   20.0043 C   0  0  0  0  0  0  0  0  0  0  0  0
  -27.7856  -14.9202   19.5559 C   0  0  0  0  0  0  0  0  0  0  0  0
  -21.8064  -28.5600   23.9425 C   0  0  0  0  0  0  0  0  0  0  0  0
  -32.5708  -24.7990   21.3989 C   0  0  0  0  0  0  0  0  0  0  0  0
  -27.9052  -20.4725   22.7895 C   0  0  0  0  0  0  0  0  0  0  0  0
  -26.5066  -19.3840   20.4222 C   0  0  0  0  0  0  0  0  0  0  0  0
  -20.1947  -26.4359   22.1634 C   0  0  0  0  0  0  0  0  0  0  0  0
  -32.4549  -23.4670   20.6624 C   0  0  0  0  0  0  0  0  0  0  0  0
  -24.2999  -25.7952   23.9296 C   0  0  0  0  0  0  0  0  0  0  0  0
  -31.2127  -23.4527   19.7772 C   0  0  0  0  0  0  0  0  0  0  0  0
  -25.2735  -26.2679   22.8495 C   0  0  0  0  0  0  0  0  0  0  0  0
  -19.5634  -24.8292   19.5817 C   0  0  0  0  0  0  0  0  0  0  0  0
  -18.0648  -24.8776   19.5480 C   0  0  0  0  0  0  0  0  0  0  0  0
  -20.5924  -27.8771   21.7820 C   0  0  0  0  0  0  0  0  0  0  0  0
  -23.5648  -26.9643   24.5765 C   0  0  0  0  0  0  0  0  0  0  0  0
  -20.0766  -30.0342   22.9841 C   0  0  0  0  0  0  0  0  0  0  0  0
  -23.8356  -28.3203   22.5360 C   0  0  0  0  0  0  0  0  0  0  0  0
  -18.5303  -28.9896   24.8893 C   0  0  0  0  0  0  0  0  0  0  0  0
  -29.9372  -23.6085   20.6140 C   0  0  1  0  0  0  0  0  0  0  0  0
  -28.6480  -20.1458   21.4976 C   0  0  1  0  0  0  0  0  0  0  0  0
  -18.9984  -30.1959   24.0899 C   0  0  2  0  0  0  0  0  0  0  0  0
  -24.5662  -27.1734   21.8243 C   0  0  1  0  0  0  0  0  0  0  0  0
  -18.7821  -24.7692   20.8675 C   0  0  0  0  0  0  0  0  0  0  0  0
  -28.3996  -12.8697   18.2458 C   0  0  0  0  0  0  0  0  0  0  0  0
  -27.3613  -19.3716   17.5261 C   0  0  0  0  0  0  0  0  0  0  0  0
  -27.1455  -17.0507   16.6123 C   0  0  0  0  0  0  0  0  0  0  0  0
  -29.4050  -18.0066   17.0634 C   0  0  0  0  0  0  0  0  0  0  0  0
  -28.3908  -13.3887   22.0150 C   0  0  0  0  0  0  0  0  0  0  0  0
  -18.7228  -23.4706   21.6117 C   0  0  0  0  0  0  0  0  0  0  0  0
  -20.1339  -21.8383   22.8699 C   0  0  0  0  0  0  0  0  0  0  0  0
  -21.5718  -21.5410   23.2470 C   0  0  0  0  0  0  0  0  0  1  0  0
  -27.9330  -17.3348   19.0061 C   0  0  1  0  0  0  0  0  0  0  0  0
  -28.6052  -13.6425   19.5394 C   0  0  2  0  0  0  0  0  0  0  0  0
  -27.9500  -17.9476   17.5772 C   0  0  0  0  0  0  0  0  0  0  0  0
  -26.8024  -27.9152   21.0968 N   0  0  0  0  0  0  0  0  0  0  0  0
  -17.8394  -30.9127   23.5406 N   0  0  0  0  0  0  0  0  0  0  0  0
  -25.5212  -27.6851   20.7626 N   0  0  0  0  0  0  0  0  0  0  0  0
  -17.0243  -28.9510   22.3013 N   0  0  0  0  0  0  0  0  0  0  0  0
  -27.9409  -19.1650   20.6716 N   0  0  0  0  0  0  0  0  0  0  0  0
  -20.8444  -28.7815   22.9344 N   0  0  0  0  0  0  0  0  0  0  0  0
  -22.9303  -27.8105   23.5700 N   0  0  0  0  0  0  0  0  0  0  0  0
  -18.2921  -27.8515   24.0164 N   0  3  0  0  0  0  0  0  0  0  0  0
  -23.9956  -27.7767   18.9530 N   0  0  0  0  0  0  0  0  0  0  0  0
  -27.8683  -29.2097   17.1242 N   0  0  0  0  0  0  0  0  0  0  0  0
  -29.6007  -22.3580   21.2600 N   0  0  0  0  0  0  0  0  0  0  0  0
  -28.5094  -15.9971   19.0894 N   0  0  0  0  0  0  0  0  0  0  0  0
  -28.2171  -12.7635   20.6786 N   0  3  0  0  0  0  0  0  0  0  0  0
  -20.0856  -23.0895   22.0676 N   0  3  0  0  0  0  0  0  0  0  0  0
  -25.6538  -28.7887   16.7029 O   0  0  0  0  0  0  0  0  0  0  0  0
  -28.4360  -21.3806   19.4963 O   0  0  0  0  0  0  0  0  0  0  0  0
  -29.8864  -17.9734   20.1905 O   0  0  0  0  0  0  0  0  0  0  0  0
  -26.6189  -14.9583   19.9403 O   0  0  0  0  0  0  0  0  0  0  0  0
  -21.6614  -28.9661   25.1011 O   0  0  0  0  0  0  0  0  0  0  0  0
  -32.7540  -29.7348   19.7489 O   0  0  0  0  0  0  0  0  0  0  0  0
  -22.3533  -21.3990   22.0682 O   0  0  0  0  0  0  0  0  0  1  0  0
  -35.7029  -27.9055   15.4639 F   0  0  0  0  0  0  0  0  0  0  0  0
  -34.9530  -28.1041   20.1334 F   0  0  0  0  0  0  0  0  0  0  0  0
  1  2  1  0  0  0  0
  1  5  2  0  0  0  0
  2  6  2  0  0  0  0
  3  8  2  0  0  0  0
  3 15  1  0  0  0  0
  4  9  1  0  0  0  0
  4 15  2  0  0  0  0
  5 17  1  0  0  0  0
  6 19  1  0  0  0  0
  7 10  2  0  0  0  0
  7 18  1  0  0  0  0
  8 21  1  0  0  0  0
  9 21  2  0  0  0  0
 10 22  1  0  0  0  0
 11 12  2  0  0  0  0
 11 23  1  0  0  0  0
 12 24  1  0  0  0  0
 13 20  1  0  0  0  0
 13 22  2  0  0  0  0
 14 24  2  0  0  0  0
 14 25  1  0  0  0  0
 15 26  1  0  0  0  0
 16 26  1  0  0  0  0
 16 27  2  0  0  0  0
 16 32  1  0  0  0  0
 17 19  2  0  0  0  0
 17 37  1  0  0  0  0
 18 20  2  0  0  0  0
 18 38  1  0  0  0  0
 19 52  1  0  0  0  0
 20 39  1  0  0  0  0
 21 87  1  0  0  0  0
 22 88  1  0  0  0  0
 23 25  2  0  0  0  0
 23 87  1  0  0  0  0
 24 89  1  0  0  0  0
 25 90  1  0  0  0  0
 26 68  2  0  0  0  0
 27 70  1  0  0  0  0
 27 76  1  0  0  0  0
 28 30  2  0  0  0  0
 28 31  1  0  0  0  0
 29 69  2  0  0  0  0
 29 71  1  0  0  0  0
 30 40  1  0  0  0  0
 30 56  1  0  0  0  0
 31 71  1  0  0  0  0
 31 75  2  0  0  0  0
 32 77  1  0  0  0  0
 32 82  2  0  0  0  0
 33 53  1  0  0  0  0
 33 78  1  0  0  0  0
 33 83  2  0  0  0  0
 34 65  1  0  0  0  0
 34 72  1  0  0  0  0
 34 84  2  0  0  0  0
 35 66  1  0  0  0  0
 35 79  1  0  0  0  0
 35 85  2  0  0  0  0
 36 73  1  0  0  0  0
 36 74  1  0  0  0  0
 36 86  2  0  0  0  0
 37 41  1  0  0  0  0
 38 53  1  0  0  0  0
 39 72  1  0  0  0  0
 40 47  1  0  0  0  0
 41 43  1  0  0  0  0
 42 44  1  0  0  0  0
 42 48  1  0  0  0  0
 43 52  1  0  0  0  0
 44 55  1  0  0  0  0
 45 46  1  0  0  0  0
 45 56  1  0  0  0  0
 46 56  1  0  0  0  0
 47 73  1  0  0  0  0
 48 74  1  0  0  0  0
 49 54  1  0  0  0  0
 49 73  1  0  0  0  0
 50 55  1  0  0  0  0
 50 74  1  0  0  0  0
 51 54  1  0  0  0  0
 51 75  1  0  0  0  0
 52 78  1  0  0  0  0
 53 72  1  0  0  0  0
 54 69  1  0  0  0  0
 55 70  1  0  0  0  0
 56 62  1  0  0  0  0
 57 66  1  0  0  0  0
 58 67  1  0  0  0  0
 59 67  1  0  0  0  0
 60 67  1  0  0  0  0
 61 80  1  0  0  0  0
 62 81  1  0  0  0  0
 63 64  1  0  0  0  0
 63 81  1  0  0  0  0
 64 88  1  0  0  0  0
 65 67  1  0  0  0  0
 65 79  1  0  0  0  0
 66 80  1  0  0  0  0
 68 70  1  0  0  0  0
M  CHG  3  75   1  80   1  81   1
M  ISO  4  36 100  64 101  73 100  88 101
M  END
> <Batch ID>
0197

> <Smiles>
CNC(C)C(=O)NC(C(=O)N1Cc2cc([101O:1][101CH2:1]CNCC3(C4=CC5=NC=NC(CN5)C[100N:0]([100C:0](=O)N5CCCC(n6nc(-c7ccc(Oc8ccc(F)cc8F)cc7)c(C(N)=O)c6N)C5)CC4)CC3)ccc2CC1C(=O)NC1CCCc2ccccc21)C(C)(C)C

> <Shape>
0.217

> <Color>
0.053

> <Negative vol penalty>
0.000

$$$$

  -OEChem-04052323453D

 87 96  0     1  0  0  0  0  0999 V2000
  -20.6803  -23.9432   32.2395 C   0  0  0  0  0  0  0  0  0  0  0  0
  -21.9800  -23.9628   31.7437 C   0  0  0  0  0  0  0  0  0  0  0  0
  -27.2626  -14.9550   21.8017 C   0  0  0  0  0  0  0  0  0  0  0  0
  -26.2915  -15.2736   19.6125 C   0  0  0  0  0  0  0  0  0  0  0  0
  -19.6012  -23.8624   31.3604 C   0  0  0  0  0  0  0  0  0  0  0  0
  -22.2013  -23.9006   30.3684 C   0  0  0  0  0  0  0  0  0  0  0  0
  -26.6700  -26.6727   27.2295 C   0  0  0  0  0  0  0  0  0  0  0  0
  -26.8144  -13.6342   21.8083 C   0  0  0  0  0  0  0  0  0  0  0  0
  -25.8433  -13.9528   19.6191 C   0  0  0  0  0  0  0  0  0  0  0  0
  -27.8994  -26.2216   26.7513 C   0  0  0  0  0  0  0  0  0  0  0  0
  -24.1315  -10.7725   19.2118 C   0  0  0  0  0  0  0  0  0  0  0  0
  -22.8240  -10.5294   18.7911 C   0  0  0  0  0  0  0  0  0  0  0  0
  -26.8989  -25.7962   24.5979 C   0  0  0  0  0  0  0  0  0  0  0  0
  -21.9910  -11.9477   20.5608 C   0  0  0  0  0  0  0  0  0  0  0  0
  -27.0011  -15.7748   20.7038 C   0  0  0  0  0  0  0  0  0  0  0  0
  -28.6984  -17.6162   20.2179 C   0  0  0  0  0  0  0  0  0  0  0  0
  -19.8091  -23.8089   29.9731 C   0  0  0  0  0  0  0  0  0  0  0  0
  -25.5414  -26.6788   26.3973 C   0  0  0  0  0  0  0  0  0  0  0  0
  -21.1241  -23.8176   29.4699 C   0  0  0  0  0  0  0  0  0  0  0  0
  -25.6569  -26.2504   25.0672 C   0  0  0  0  0  0  0  0  0  0  0  0
  -26.1047  -13.1330   20.7170 C   0  0  0  0  0  0  0  0  0  0  0  0
  -28.0134  -25.7805   25.4362 C   0  0  0  0  0  0  0  0  0  0  0  0
  -24.3688  -11.6031   20.3070 C   0  0  0  0  0  0  0  0  0  0  0  0
  -21.7538  -11.1170   19.4655 C   0  0  0  0  0  0  0  0  0  0  0  0
  -23.2985  -12.1907   20.9815 C   0  0  0  0  0  0  0  0  0  0  0  0
  -27.4633  -17.1395   20.6966 C   0  0  0  0  0  0  0  0  0  0  0  0
  -29.2170  -27.3516   20.5473 C   0  0  0  0  0  0  0  0  0  0  0  0
  -30.4889  -26.8459   20.3919 C   0  0  0  0  0  0  0  0  0  0  0  0
  -29.6676  -25.1968   19.0369 C   0  0  0  0  0  0  0  0  0  0  0  0
  -28.3956  -25.7021   19.1930 C   0  0  0  0  0  0  0  0  0  0  0  0
  -28.6509  -18.9715   20.4353 C   0  0  0  0  0  0  0  0  0  0  0  0
  -29.7909  -16.8981   19.6293 C   0  0  0  0  0  0  0  0  0  0  0  0
  -22.7083  -25.2383   26.4492 C   0  0  0  0  0  0  0  0  0  0  0  0
  -22.1297  -27.1408   23.8864 C   0  0  0  0  0  0  0  0  0  0  0  0
  -23.3853  -28.9582   21.2850 C   0  0  0  0  0  0  0  0  0  0  0  0
  -25.9252  -23.8379   20.2486 C   0  0  0  0  0  0  0  0  0  0  0  0
  -18.6129  -23.6745   29.0644 C   0  0  0  0  0  0  0  0  0  0  0  0
  -24.2285  -27.1936   26.9204 C   0  0  0  0  0  0  0  0  0  0  0  0
  -24.4801  -26.2559   24.1272 C   0  0  0  0  0  0  0  0  0  0  0  0
  -18.9198  -23.9901   27.6027 C   0  0  0  0  0  0  0  0  0  0  0  0
  -25.3782  -21.7669   23.0927 C   0  0  0  0  0  0  0  0  0  0  0  0
  -20.2024  -23.2910   27.1636 C   0  0  0  0  0  0  0  0  0  0  0  0
  -27.7643  -29.4122   21.1106 C   0  0  0  0  0  0  0  0  0  0  0  0
  -29.1322  -29.9236   20.7830 C   0  0  0  0  0  0  0  0  0  0  0  0
  -25.9679  -20.4169   22.6809 C   0  0  0  0  0  0  0  0  0  0  0  0
  -24.7056  -22.4713   21.9164 C   0  0  0  0  0  0  0  0  0  0  0  0
  -26.1451  -21.2797   20.3097 C   0  0  0  0  0  0  0  0  0  0  0  0
  -21.4040  -23.7768   27.9832 C   0  0  1  0  0  0  0  0  0  0  0  0
  -28.9707  -28.5558   21.3923 C   0  0  0  0  0  0  0  0  0  0  0  0
  -23.0275  -26.6730   26.1368 C   0  0  1  0  0  0  0  0  0  0  0  0
  -26.8830  -20.5568   21.4495 C   0  0  2  0  0  0  0  0  0  0  0  0
  -29.9284  -23.9945   18.1953 C   0  0  0  0  0  0  0  0  0  0  0  0
  -22.6650  -30.3708   19.3399 C   0  0  0  0  0  0  0  0  0  0  0  0
  -21.3401  -24.6234   22.3537 C   0  0  0  0  0  0  0  0  0  0  0  0
  -21.5559  -25.9325   20.2305 C   0  0  0  0  0  0  0  0  0  0  0  0
  -19.8670  -26.6017   21.9401 C   0  0  0  0  0  0  0  0  0  0  0  0
  -24.7961  -31.3362   22.3403 C   0  0  0  0  0  0  0  0  0  0  0  0
  -31.6740  -27.4797   21.0612 C   0  0  0  0  0  0  0  0  0  0  0  0
  -27.2210  -25.0701   18.5276 C   0  0  0  0  0  0  0  0  0  0  0  0
  -32.1823  -26.7081   22.2749 C   0  0  0  0  0  0  0  0  0  0  0  0
  -31.5169  -25.8692   24.5315 C   0  0  0  0  0  0  0  0  0  0  0  0
  -30.3856  -25.9149   25.5396 C   0  0  0  0  0  0  0  0  0  1  0  0
  -22.3201  -27.0117   22.3944 C   0  0  1  0  0  0  0  0  0  0  0  0
  -23.0847  -30.3655   20.8016 C   0  0  2  0  0  0  0  0  0  0  0  0
  -21.2927  -26.0403   21.7477 C   0  0  0  0  0  0  0  0  0  0  0  0
  -26.6879  -18.1129   21.1817 N   0  0  0  0  0  0  0  0  0  0  0  0
  -28.1475  -26.7887   19.9507 N   0  0  0  0  0  0  0  0  0  0  0  0
  -30.7370  -25.7595   19.6338 N   0  0  0  0  0  0  0  0  0  0  0  0
  -27.4377  -19.2147   21.0090 N   0  0  0  0  0  0  0  0  0  0  0  0
  -23.2164  -26.7626   24.6875 N   0  0  0  0  0  0  0  0  0  0  0  0
  -25.6271  -22.5732   20.7822 N   0  0  0  0  0  0  0  0  0  0  0  0
  -29.5290  -19.9671   20.1899 N   0  0  0  0  0  0  0  0  0  0  0  0
  -29.6743  -15.5094   19.4797 N   0  0  0  0  0  0  0  0  0  0  0  0
  -21.8443  -25.0734   27.5149 N   0  0  0  0  0  0  0  0  0  0  0  0
  -22.2791  -28.3681   21.8587 N   0  0  0  0  0  0  0  0  0  0  0  0
  -26.8123  -23.8456   19.1791 N   0  0  0  0  0  0  0  0  0  0  0  0
  -24.2886  -31.2317   20.9480 N   0  3  0  0  0  0  0  0  0  0  0  0
  -31.1349  -26.6536   23.3303 N   0  3  0  0  0  0  0  0  0  0  0  0
  -30.8460  -17.4687   19.2623 O   0  0  0  0  0  0  0  0  0  0  0  0
  -23.2078  -24.3471   25.7725 O   0  0  0  0  0  0  0  0  0  0  0  0
  -21.0589  -27.5685   24.3246 O   0  0  0  0  0  0  0  0  0  0  0  0
  -24.4899  -28.4334   21.1622 O   0  0  0  0  0  0  0  0  0  0  0  0
  -25.4411  -24.8831   20.6958 O   0  0  0  0  0  0  0  0  0  0  0  0
  -25.6674  -11.8441   20.7230 O   0  0  0  0  0  0  0  0  0  0  0  0
  -29.2121  -25.3391   24.9670 O   0  0  0  0  0  0  0  0  0  1  0  0
  -20.4983  -10.8847   19.0605 F   0  0  0  0  0  0  0  0  0  0  0  0
  -23.5202  -12.9906   22.0336 F   0  0  0  0  0  0  0  0  0  0  0  0
  1  2  1  0  0  0  0
  1  5  2  0  0  0  0
  2  6  2  0  0  0  0
  3  8  2  0  0  0  0
  3 15  1  0  0  0  0
  4  9  1  0  0  0  0
  4 15  2  0  0  0  0
  5 17  1  0  0  0  0
  6 19  1  0  0  0  0
  7 10  2  0  0  0  0
  7 18  1  0  0  0  0
  8 21  1  0  0  0  0
  9 21  2  0  0  0  0
 10 22  1  0  0  0  0
 11 12  2  0  0  0  0
 11 23  1  0  0  0  0
 12 24  1  0  0  0  0
 13 20  1  0  0  0  0
 13 22  2  0  0  0  0
 14 24  2  0  0  0  0
 14 25  1  0  0  0  0
 15 26  1  0  0  0  0
 16 26  1  0  0  0  0
 16 31  2  0  0  0  0
 16 32  1  0  0  0  0
 17 19  2  0  0  0  0
 17 37  1  0  0  0  0
 18 20  2  0  0  0  0
 18 38  1  0  0  0  0
 19 48  1  0  0  0  0
 20 39  1  0  0  0  0
 21 84  1  0  0  0  0
 22 85  1  0  0  0  0
 23 25  2  0  0  0  0
 23 84  1  0  0  0  0
 24 86  1  0  0  0  0
 25 87  1  0  0  0  0
 26 66  2  0  0  0  0
 27 28  2  0  0  0  0
 27 49  1  0  0  0  0
 27 67  1  0  0  0  0
 28 58  1  0  0  0  0
 28 68  1  0  0  0  0
 29 30  1  0  0  0  0
 29 52  1  0  0  0  0
 29 68  2  0  0  0  0
 30 59  1  0  0  0  0
 30 67  2  0  0  0  0
 31 69  1  0  0  0  0
 31 72  1  0  0  0  0
 32 73  1  0  0  0  0
 32 79  2  0  0  0  0
 33 50  1  0  0  0  0
 33 74  1  0  0  0  0
 33 80  2  0  0  0  0
 34 63  1  0  0  0  0
 34 70  1  0  0  0  0
 34 81  2  0  0  0  0
 35 64  1  0  0  0  0
 35 75  1  0  0  0  0
 35 82  2  0  0  0  0
 36 71  1  0  0  0  0
 36 76  1  0  0  0  0
 36 83  2  0  0  0  0
 37 40  1  0  0  0  0
 38 50  1  0  0  0  0
 39 70  1  0  0  0  0
 40 42  1  0  0  0  0
 41 45  1  0  0  0  0
 41 46  1  0  0  0  0
 42 48  1  0  0  0  0
 43 44  1  0  0  0  0
 43 49  1  0  0  0  0
 44 49  1  0  0  0  0
 45 51  1  0  0  0  0
 46 71  1  0  0  0  0
 47 51  1  0  0  0  0
 47 71  1  0  0  0  0
 48 74  1  0  0  0  0
 50 70  1  0  0  0  0
 51 69  1  0  0  0  0
 53 64  1  0  0  0  0
 54 65  1  0  0  0  0
 55 65  1  0  0  0  0
 56 65  1  0  0  0  0
 57 77  1  0  0  0  0
 58 60  1  0  0  0  0
 59 76  1  0  0  0  0
 60 78  1  0  0  0  0
 61 62  1  0  0  0  0
 61 78  1  0  0  0  0
 62 85  1  0  0  0  0
 63 65  1  0  0  0  0
 63 75  1  0  0  0  0
 64 77  1  0  0  0  0
 66 69  1  0  0  0  0
M  CHG  2  77   1  78   1
M  ISO  4  36 100  62 101  76 100  85 101
M  END
> <Batch ID>
0197

> <Smiles>
CNC(C)C(=O)NC(C(=O)N1Cc2cc([101O:1][101CH2:1]CNCCc3nc(C)c(C[100NH:0][100C:0](=O)N4CCCC(n5nc(-c6ccc(Oc7ccc(F)cc7F)cc6)c(C(N)=O)c5N)C4)nc3C3CC3)ccc2CC1C(=O)NC1CCCc2ccccc21)C(C)(C)C

> <Shape>
0.202

> <Color>
0.074

> <Negative vol penalty>
0.000

$$$$

  -OEChem-04052323453D

 86 95  0     1  0  0  0  0  0999 V2000
  -18.4135  -31.2753   22.0656 C   0  0  0  0  0  0  0  0  0  0  0  0
  -19.7937  -31.2530   21.8930 C   0  0  0  0  0  0  0  0  0  0  0  0
  -25.1642   -9.8151   23.0480 C   0  0  0  0  0  0  0  0  0  0  0  0
  -23.3964   -9.4211   21.4491 C   0  0  0  0  0  0  0  0  0  0  0  0
  -17.7332  -30.1015   22.3869 C   0  0  0  0  0  0  0  0  0  0  0  0
  -20.4947  -30.0569   22.0427 C   0  0  0  0  0  0  0  0  0  0  0  0
  -25.4494  -28.2772   18.9140 C   0  0  0  0  0  0  0  0  0  0  0  0
  -31.8347  -22.5708   22.3833 C   0  0  0  0  0  0  0  0  0  0  0  0
  -24.5228   -8.9802   23.9630 C   0  0  0  0  0  0  0  0  0  0  0  0
  -22.7550   -8.5861   22.3640 C   0  0  0  0  0  0  0  0  0  0  0  0
  -26.8106  -28.3115   19.2139 C   0  0  0  0  0  0  0  0  0  0  0  0
  -23.0643   -5.4106   23.4780 C   0  0  0  0  0  0  0  0  0  0  0  0
  -22.5681   -4.1953   23.0067 C   0  0  0  0  0  0  0  0  0  0  0  0
  -31.4242  -21.5456   21.5384 C   0  0  0  0  0  0  0  0  0  0  0  0
  -26.6942  -26.0255   19.9755 C   0  0  0  0  0  0  0  0  0  0  0  0
  -20.3390   -4.8472   23.6727 C   0  0  0  0  0  0  0  0  0  0  0  0
  -24.6010  -10.0356   21.7911 C   0  0  0  0  0  0  0  0  0  0  0  0
  -26.2182  -10.5276   19.8805 C   0  0  0  0  0  0  0  0  0  0  0  0
  -18.4250  -28.8885   22.5312 C   0  0  0  0  0  0  0  0  0  0  0  0
  -24.6969  -27.1183   19.1531 C   0  0  0  0  0  0  0  0  0  0  0  0
  -19.8233  -28.8660   22.3676 C   0  0  0  0  0  0  0  0  0  0  0  0
  -25.3243  -25.9782   19.6753 C   0  0  0  0  0  0  0  0  0  0  0  0
  -31.2047  -23.8087   22.3223 C   0  0  0  0  0  0  0  0  0  0  0  0
  -23.3182   -8.3657   23.6210 C   0  0  0  0  0  0  0  0  0  0  0  0
  -27.4325  -27.1865   19.7474 C   0  0  0  0  0  0  0  0  0  0  0  0
  -22.1980   -6.3443   24.0467 C   0  0  0  0  0  0  0  0  0  0  0  0
  -21.2054   -3.9135   23.1040 C   0  0  0  0  0  0  0  0  0  0  0  0
  -20.8353   -6.0626   24.1440 C   0  0  0  0  0  0  0  0  0  0  0  0
  -25.2628  -10.8983   20.8457 C   0  0  0  0  0  0  0  0  0  0  0  0
  -30.1775  -23.9693   21.4063 C   0  0  0  0  0  0  0  0  0  0  0  0
  -30.3871  -21.8074   20.6577 C   0  0  0  0  0  0  0  0  0  0  0  0
  -26.5337  -11.7015   19.2411 C   0  0  0  0  0  0  0  0  0  0  0  0
  -26.7709   -9.2374   19.5880 C   0  0  0  0  0  0  0  0  0  0  0  0
  -29.4511  -25.2654   21.2786 C   0  0  0  0  0  0  0  0  0  0  0  0
  -22.2090  -26.4000   20.9965 C   0  0  0  0  0  0  0  0  0  0  0  0
  -22.3711  -23.5593   19.4388 C   0  0  0  0  0  0  0  0  0  0  0  0
  -24.2588  -21.3177   17.6899 C   0  0  0  0  0  0  0  0  0  0  0  0
  -27.9630  -17.0111   19.5848 C   0  0  0  0  0  0  0  0  0  0  0  0
  -17.6525  -27.6547   22.9256 C   0  0  0  0  0  0  0  0  0  0  0  0
  -23.2353  -27.0888   18.7992 C   0  0  0  0  0  0  0  0  0  0  0  0
  -24.5654  -24.7028   19.9318 C   0  0  0  0  0  0  0  0  0  0  0  0
  -18.4216  -26.3558   22.6980 C   0  0  0  0  0  0  0  0  0  0  0  0
  -24.3581  -16.2453   19.4091 C   0  0  0  0  0  0  0  0  0  0  0  0
  -19.8457  -26.4784   23.2305 C   0  0  0  0  0  0  0  0  0  0  0  0
  -24.3578  -14.7566   19.7436 C   0  0  0  0  0  0  0  0  0  0  0  0
  -25.4602  -16.9997   20.1515 C   0  0  0  0  0  0  0  0  0  0  0  0
  -26.8187  -14.9304   20.2810 C   0  0  0  0  0  0  0  0  0  0  0  0
  -30.0521  -19.3773   20.0980 C   0  0  0  0  0  0  0  0  0  0  0  0
  -28.7763  -20.6982   19.0747 C   0  0  0  0  0  0  0  0  0  0  0  0
  -20.6157  -27.5833   22.4972 C   0  0  1  0  0  0  0  0  0  0  0  0
  -22.4569  -26.0223   19.5635 C   0  0  1  0  0  0  0  0  0  0  0  0
  -25.7479  -14.1470   19.5063 C   0  0  1  0  0  0  0  0  0  0  0  0
  -29.0004  -19.1814   18.9969 C   0  0  0  0  0  0  0  0  0  0  0  0
  -24.1244  -19.0704   16.5812 C   0  0  0  0  0  0  0  0  0  0  0  0
  -22.4624  -22.2076   22.1728 C   0  0  0  0  0  0  0  0  0  0  0  0
  -23.2715  -20.1269   21.0397 C   0  0  0  0  0  0  0  0  0  0  0  0
  -21.0224  -21.0526   20.4856 C   0  0  0  0  0  0  0  0  0  0  0  0
  -24.9291  -22.4553   15.0412 C   0  0  0  0  0  0  0  0  0  0  0  0
  -31.6408  -24.9101   23.2258 C   0  0  0  0  0  0  0  0  0  0  0  0
  -29.4763  -25.9866   19.9453 C   0  0  0  0  0  0  0  0  0  1  0  0
  -23.0922  -22.2532   19.6694 C   0  0  1  0  0  0  0  0  0  0  0  0
  -23.9952  -20.5740   16.3930 C   0  0  2  0  0  0  0  0  0  0  0  0
  -22.4763  -21.4346   20.8390 C   0  0  0  0  0  0  0  0  0  0  0  0
  -24.9895  -12.2056   20.8251 N   0  0  0  0  0  0  0  0  0  0  0  0
  -29.7510  -22.9970   20.5694 N   0  0  0  0  0  0  0  0  0  0  0  0
  -25.7779  -12.6665   19.8391 N   0  0  0  0  0  0  0  0  0  0  0  0
  -29.9801  -20.7526   19.8034 N   0  0  0  0  0  0  0  0  0  0  0  0
  -23.1371  -24.7256   19.5752 N   0  0  0  0  0  0  0  0  0  0  0  0
  -26.7733  -16.3630   19.9631 N   0  0  0  0  0  0  0  0  0  0  0  0
  -27.3813  -11.9921   18.2314 N   0  0  0  0  0  0  0  0  0  0  0  0
  -26.3362   -8.1380   20.3408 N   0  0  0  0  0  0  0  0  0  0  0  0
  -21.0468  -27.1204   21.1955 N   0  0  0  0  0  0  0  0  0  0  0  0
  -23.0938  -21.5560   18.3879 N   0  0  0  0  0  0  0  0  0  0  0  0
  -27.8670  -18.3830   19.3806 N   0  0  0  0  0  0  0  0  0  0  0  0
  -30.9115  -24.9350   24.5245 N   0  3  0  0  0  0  0  0  0  0  0  0
  -24.9643  -21.0014   15.3446 N   0  3  0  0  0  0  0  0  0  0  0  0
  -27.6372   -9.0673   18.6969 O   0  0  0  0  0  0  0  0  0  0  0  0
  -28.8491  -25.7216   22.2479 O   0  0  0  0  0  0  0  0  0  0  0  0
  -23.0120  -26.0615   21.8581 O   0  0  0  0  0  0  0  0  0  0  0  0
  -21.1740  -23.5448   19.1415 O   0  0  0  0  0  0  0  0  0  0  0  0
  -25.3859  -21.6504   18.0497 O   0  0  0  0  0  0  0  0  0  0  0  0
  -29.0357  -16.4135   19.4440 O   0  0  0  0  0  0  0  0  0  0  0  0
  -22.6921   -7.5508   24.5135 O   0  0  0  0  0  0  0  0  0  0  0  0
  -28.7608  -27.2175   20.0417 O   0  0  0  0  0  0  0  0  0  1  0  0
  -20.7287   -2.7470   22.6499 F   0  0  0  0  0  0  0  0  0  0  0  0
  -19.9980   -6.9561   24.6883 F   0  0  0  0  0  0  0  0  0  0  0  0
  1  2  1  0  0  0  0
  1  5  2  0  0  0  0
  2  6  2  0  0  0  0
  3  9  2  0  0  0  0
  3 17  1  0  0  0  0
  4 10  1  0  0  0  0
  4 17  2  0  0  0  0
  5 19  1  0  0  0  0
  6 21  1  0  0  0  0
  7 11  2  0  0  0  0
  7 20  1  0  0  0  0
  8 14  2  0  0  0  0
  8 23  1  0  0  0  0
  9 24  1  0  0  0  0
 10 24  2  0  0  0  0
 11 25  1  0  0  0  0
 12 13  2  0  0  0  0
 12 26  1  0  0  0  0
 13 27  1  0  0  0  0
 14 31  1  0  0  0  0
 15 22  1  0  0  0  0
 15 25  2  0  0  0  0
 16 27  2  0  0  0  0
 16 28  1  0  0  0  0
 17 29  1  0  0  0  0
 18 29  1  0  0  0  0
 18 32  2  0  0  0  0
 18 33  1  0  0  0  0
 19 21  2  0  0  0  0
 19 39  1  0  0  0  0
 20 22  2  0  0  0  0
 20 40  1  0  0  0  0
 21 50  1  0  0  0  0
 22 41  1  0  0  0  0
 23 30  2  0  0  0  0
 23 59  1  0  0  0  0
 24 83  1  0  0  0  0
 25 84  1  0  0  0  0
 26 28  2  0  0  0  0
 26 83  1  0  0  0  0
 27 85  1  0  0  0  0
 28 86  1  0  0  0  0
 29 64  2  0  0  0  0
 30 34  1  0  0  0  0
 30 65  1  0  0  0  0
 31 65  2  0  0  0  0
 31 67  1  0  0  0  0
 32 66  1  0  0  0  0
 32 70  1  0  0  0  0
 33 71  1  0  0  0  0
 33 77  2  0  0  0  0
 34 60  1  0  0  0  0
 34 78  2  0  0  0  0
 35 51  1  0  0  0  0
 35 72  1  0  0  0  0
 35 79  2  0  0  0  0
 36 61  1  0  0  0  0
 36 68  1  0  0  0  0
 36 80  2  0  0  0  0
 37 62  1  0  0  0  0
 37 73  1  0  0  0  0
 37 81  2  0  0  0  0
 38 69  1  0  0  0  0
 38 74  1  0  0  0  0
 38 82  2  0  0  0  0
 39 42  1  0  0  0  0
 40 51  1  0  0  0  0
 41 68  1  0  0  0  0
 42 44  1  0  0  0  0
 43 45  1  0  0  0  0
 43 46  1  0  0  0  0
 44 50  1  0  0  0  0
 45 52  1  0  0  0  0
 46 69  1  0  0  0  0
 47 52  1  0  0  0  0
 47 69  1  0  0  0  0
 48 53  1  0  0  0  0
 48 67  1  0  0  0  0
 49 53  1  0  0  0  0
 49 67  1  0  0  0  0
 50 72  1  0  0  0  0
 51 68  1  0  0  0  0
 52 66  1  0  0  0  0
 53 74  1  0  0  0  0
 54 62  1  0  0  0  0
 55 63  1  0  0  0  0
 56 63  1  0  0  0  0
 57 63  1  0  0  0  0
 58 76  1  0  0  0  0
 59 75  1  0  0  0  0
 60 84  1  0  0  0  0
 61 63  1  0  0  0  0
 61 73  1  0  0  0  0
 62 76  1  0  0  0  0
 64 66  1  0  0  0  0
M  CHG  2  75   1  76   1
M  ISO  4  38 100  60 101  74 100  84 101
M  END
> <Batch ID>
0197

> <Smiles>
CNC(C)C(=O)NC(C(=O)N1Cc2cc([101O:1][101CH2:1]C(=O)c3nc(N4CC([100NH:0][100C:0](=O)N5CCCC(n6nc(-c7ccc(Oc8ccc(F)cc8F)cc7)c(C(N)=O)c6N)C5)C4)ccc3CN)ccc2CC1C(=O)NC1CCCc2ccccc21)C(C)(C)C

> <Shape>
0.239

> <Color>
0.062

> <Negative vol penalty>
0.000

$$$$

  -OEChem-04052323453D

 89 98  0     1  0  0  0  0  0999 V2000
  -31.4527  -21.0968   24.1238 C   0  0  0  0  0  0  0  0  0  0  0  0
  -30.7216  -21.0437   22.9414 C   0  0  0  0  0  0  0  0  0  0  0  0
  -23.2841   -9.8049   19.9580 C   0  0  0  0  0  0  0  0  0  0  0  0
  -23.7005  -10.0102   22.3290 C   0  0  0  0  0  0  0  0  0  0  0  0
  -31.3975  -22.2360   24.9257 C   0  0  0  0  0  0  0  0  0  0  0  0
  -29.9340  -22.1296   22.5607 C   0  0  0  0  0  0  0  0  0  0  0  0
  -30.4552  -23.2832   17.6574 C   0  0  0  0  0  0  0  0  0  0  0  0
  -22.5390   -8.6486   20.1890 C   0  0  0  0  0  0  0  0  0  0  0  0
  -22.9553   -8.8539   22.5600 C   0  0  0  0  0  0  0  0  0  0  0  0
  -29.7797  -22.4806   16.7391 C   0  0  0  0  0  0  0  0  0  0  0  0
  -19.6934   -7.9920   22.7533 C   0  0  0  0  0  0  0  0  0  0  0  0
  -18.7747   -8.0137   23.8026 C   0  0  0  0  0  0  0  0  0  0  0  0
  -28.0451  -24.1481   16.5666 C   0  0  0  0  0  0  0  0  0  0  0  0
  -25.7357  -18.9365   13.3319 C   0  0  0  0  0  0  0  0  0  0  0  0
  -19.9403   -6.1812   24.8611 C   0  0  0  0  0  0  0  0  0  0  0  0
  -27.3951  -19.5630   11.7474 C   0  0  0  0  0  0  0  0  0  0  0  0
  -23.8649  -10.4857   21.0280 C   0  0  0  0  0  0  0  0  0  0  0  0
  -24.1613  -13.0050   20.7587 C   0  0  0  0  0  0  0  0  0  0  0  0
  -30.6164  -23.3402   24.5498 C   0  0  0  0  0  0  0  0  0  0  0  0
  -29.9244  -24.5216   18.0460 C   0  0  0  0  0  0  0  0  0  0  0  0
  -29.8672  -23.2842   23.3590 C   0  0  0  0  0  0  0  0  0  0  0  0
  -28.7171  -24.9658   17.4880 C   0  0  0  0  0  0  0  0  0  0  0  0
  -26.4803  -19.5738   14.3182 C   0  0  0  0  0  0  0  0  0  0  0  0
  -22.3745   -8.1731   21.4899 C   0  0  0  0  0  0  0  0  0  0  0  0
  -28.5730  -22.9117   16.1958 C   0  0  0  0  0  0  0  0  0  0  0  0
  -20.7355   -7.0648   22.7578 C   0  0  0  0  0  0  0  0  0  0  0  0
  -18.8981   -7.1084   24.8566 C   0  0  0  0  0  0  0  0  0  0  0  0
  -20.8590   -6.1595   23.8117 C   0  0  0  0  0  0  0  0  0  0  0  0
  -26.1948  -18.9264   12.0195 C   0  0  0  0  0  0  0  0  0  0  0  0
  -24.6353  -11.6798   20.7900 C   0  0  0  0  0  0  0  0  0  0  0  0
  -27.6678  -20.1813   13.9432 C   0  0  0  0  0  0  0  0  0  0  0  0
  -25.2770  -13.7626   20.4980 C   0  0  0  0  0  0  0  0  0  0  0  0
  -22.8315  -13.5064   20.9483 C   0  0  0  0  0  0  0  0  0  0  0  0
  -28.9320  -25.7739   20.7939 C   0  0  0  0  0  0  0  0  0  0  0  0
  -28.6539  -28.4720   19.0148 C   0  0  0  0  0  0  0  0  0  0  0  0
  -28.2559  -29.8816   15.9323 C   0  0  0  0  0  0  0  0  0  0  0  0
  -29.9616  -14.7615   17.8566 C   0  0  0  0  0  0  0  0  0  0  0  0
  -30.5511  -24.5312   25.4728 C   0  0  0  0  0  0  0  0  0  0  0  0
  -30.6787  -25.3876   19.0174 C   0  0  0  0  0  0  0  0  0  0  0  0
  -28.1150  -26.2961   17.8569 C   0  0  0  0  0  0  0  0  0  0  0  0
  -29.9866  -25.7851   24.8101 C   0  0  0  0  0  0  0  0  0  0  0  0
  -30.1773  -12.5362   20.4902 C   0  0  0  0  0  0  0  0  0  0  0  0
  -28.7228  -25.4507   24.0241 C   0  0  0  0  0  0  0  0  0  0  0  0
  -28.7180  -12.2155   20.8132 C   0  0  0  0  0  0  0  0  0  0  0  0
  -30.4018  -12.6009   18.9837 C   0  0  0  0  0  0  0  0  0  0  0  0
  -29.2412  -17.0656   17.3419 C   0  0  0  0  0  0  0  0  0  0  0  0
  -28.0996  -15.2048   16.2104 C   0  0  0  0  0  0  0  0  0  0  0  0
  -27.9145  -17.8241   17.3805 C   0  0  0  0  0  0  0  0  0  0  0  0
  -26.7886  -15.9855   16.2771 C   0  0  0  0  0  0  0  0  0  0  0  0
  -28.0525  -13.2687   18.5963 C   0  0  0  0  0  0  0  0  0  0  0  0
  -29.0207  -24.4515   22.8996 C   0  0  1  0  0  0  0  0  0  0  0  0
  -29.7886  -26.4009   19.7305 C   0  0  1  0  0  0  0  0  0  0  0  0
  -27.7670  -13.2002   20.1100 C   0  0  1  0  0  0  0  0  0  0  0  0
  -23.1616  -21.6268   17.2932 C   0  0  0  0  0  0  0  0  0  0  0  0
  -28.0262  -32.1090   14.7996 C   0  0  0  0  0  0  0  0  0  0  0  0
  -25.7689  -28.6670   19.9888 C   0  0  0  0  0  0  0  0  0  0  0  0
  -25.3277  -30.2951   18.1387 C   0  0  0  0  0  0  0  0  0  0  0  0
  -26.9935  -30.8462   19.9118 C   0  0  0  0  0  0  0  0  0  0  0  0
  -30.7087  -29.4515   14.3329 C   0  0  0  0  0  0  0  0  0  0  0  0
  -28.5089  -20.8804   14.9605 C   0  0  0  0  0  0  0  0  0  1  0  0
  -25.7849  -18.1769   16.3075 C   0  0  0  0  0  0  0  0  0  0  0  0
  -24.4541  -20.8404   17.2723 C   0  0  0  0  0  0  0  0  0  0  0  0
  -25.9863  -19.5885   15.7479 C   0  0  2  0  0  0  0  0  0  0  0  0
  -27.5608  -29.0940   18.1797 C   0  0  1  0  0  0  0  0  0  0  0  0
  -28.9886  -31.0179   15.2421 C   0  0  2  0  0  0  0  0  0  0  0  0
  -26.4228  -29.6996   19.0491 C   0  0  0  0  0  0  0  0  0  0  0  0
  -28.1461  -20.1924   12.6788 N   0  0  0  0  0  0  0  0  0  0  0  0
  -25.9496  -11.5968   20.5669 N   0  0  0  0  0  0  0  0  0  0  0  0
  -26.3110  -12.8795   20.3928 N   0  0  0  0  0  0  0  0  0  0  0  0
  -28.8871  -27.1039   18.8155 N   0  0  0  0  0  0  0  0  0  0  0  0
  -29.4769  -13.5423   18.3533 N   0  0  0  0  0  0  0  0  0  0  0  0
  -29.0231  -15.6238   17.2700 N   0  0  0  0  0  0  0  0  0  0  0  0
  -27.0429  -17.4331   16.2641 N   0  0  0  0  0  0  0  0  0  0  0  0
  -25.4645  -15.0913   20.3507 N   0  0  0  0  0  0  0  0  0  0  0  0
  -21.8028  -12.5905   21.2076 N   0  0  0  0  0  0  0  0  0  0  0  0
  -29.6470  -25.1220   21.7804 N   0  0  0  0  0  0  0  0  0  0  0  0
  -28.2164  -30.0552   17.2996 N   0  0  0  0  0  0  0  0  0  0  0  0
  -29.7120  -30.5137   14.0407 N   0  3  0  0  0  0  0  0  0  0  0  0
  -24.7041  -20.3485   15.8963 N   0  3  0  0  0  0  0  0  0  0  0  0
  -22.5607  -14.7289   20.8734 O   0  0  0  0  0  0  0  0  0  0  0  0
  -27.7127  -25.8755   20.7253 O   0  0  0  0  0  0  0  0  0  0  0  0
  -29.2826  -29.1757   19.8092 O   0  0  0  0  0  0  0  0  0  0  0  0
  -27.7643  -28.9364   15.3194 O   0  0  0  0  0  0  0  0  0  0  0  0
  -31.1580  -15.0665   17.9368 O   0  0  0  0  0  0  0  0  0  0  0  0
  -21.6473   -7.0450   21.7157 O   0  0  0  0  0  0  0  0  0  0  0  0
  -27.9066  -22.1243   15.2934 O   0  0  0  0  0  0  0  0  0  1  0  0
  -18.0167   -7.1304   25.8649 F   0  0  0  0  0  0  0  0  0  0  0  0
  -21.8588   -5.2672   23.8222 F   0  0  0  0  0  0  0  0  0  0  0  0
  -25.3034  -18.1509   10.7765 Cl  0  0  0  0  0  0  0  0  0  0  0  0
  1  2  1  0  0  0  0
  1  5  2  0  0  0  0
  2  6  2  0  0  0  0
  3  8  2  0  0  0  0
  3 17  1  0  0  0  0
  4  9  1  0  0  0  0
  4 17  2  0  0  0  0
  5 19  1  0  0  0  0
  6 21  1  0  0  0  0
  7 10  2  0  0  0  0
  7 20  1  0  0  0  0
  8 24  1  0  0  0  0
  9 24  2  0  0  0  0
 10 25  1  0  0  0  0
 11 12  2  0  0  0  0
 11 26  1  0  0  0  0
 12 27  1  0  0  0  0
 13 22  1  0  0  0  0
 13 25  2  0  0  0  0
 14 23  1  0  0  0  0
 14 29  2  0  0  0  0
 15 27  2  0  0  0  0
 15 28  1  0  0  0  0
 16 29  1  0  0  0  0
 16 67  2  0  0  0  0
 17 30  1  0  0  0  0
 18 30  1  0  0  0  0
 18 32  2  0  0  0  0
 18 33  1  0  0  0  0
 19 21  2  0  0  0  0
 19 38  1  0  0  0  0
 20 22  2  0  0  0  0
 20 39  1  0  0  0  0
 21 51  1  0  0  0  0
 22 40  1  0  0  0  0
 23 31  2  0  0  0  0
 23 63  1  0  0  0  0
 24 85  1  0  0  0  0
 25 86  1  0  0  0  0
 26 28  2  0  0  0  0
 26 85  1  0  0  0  0
 27 87  1  0  0  0  0
 28 88  1  0  0  0  0
 29 89  1  0  0  0  0
 30 68  2  0  0  0  0
 31 60  1  0  0  0  0
 31 67  1  0  0  0  0
 32 69  1  0  0  0  0
 32 74  1  0  0  0  0
 33 75  1  0  0  0  0
 33 80  2  0  0  0  0
 34 52  1  0  0  0  0
 34 76  1  0  0  0  0
 34 81  2  0  0  0  0
 35 64  1  0  0  0  0
 35 70  1  0  0  0  0
 35 82  2  0  0  0  0
 36 65  1  0  0  0  0
 36 77  1  0  0  0  0
 36 83  2  0  0  0  0
 37 71  1  0  0  0  0
 37 72  1  0  0  0  0
 37 84  2  0  0  0  0
 38 41  1  0  0  0  0
 39 52  1  0  0  0  0
 40 70  1  0  0  0  0
 41 43  1  0  0  0  0
 42 44  1  0  0  0  0
 42 45  1  0  0  0  0
 43 51  1  0  0  0  0
 44 53  1  0  0  0  0
 45 71  1  0  0  0  0
 46 48  1  0  0  0  0
 46 72  1  0  0  0  0
 47 49  1  0  0  0  0
 47 72  1  0  0  0  0
 48 73  1  0  0  0  0
 49 73  1  0  0  0  0
 50 53  1  0  0  0  0
 50 71  1  0  0  0  0
 51 76  1  0  0  0  0
 52 70  1  0  0  0  0
 53 69  1  0  0  0  0
 54 62  1  0  0  0  0
 55 65  1  0  0  0  0
 56 66  1  0  0  0  0
 57 66  1  0  0  0  0
 58 66  1  0  0  0  0
 59 78  1  0  0  0  0
 60 86  1  0  0  0  0
 61 63  1  0  0  0  0
 61 73  1  0  0  0  0
 62 79  1  0  0  0  0
 63 79  1  0  0  0  0
 64 66  1  0  0  0  0
 64 77  1  0  0  0  0
 65 78  1  0  0  0  0
 68 69  1  0  0  0  0
M  CHG  2  78   1  79   1
M  ISO  4  37 100  60 101  72 100  86 101
M  END
> <Batch ID>
0197

> <Smiles>
CCNC(CN1CC[100N:0]([100C:0](=O)N2CCCC(n3nc(-c4ccc(Oc5ccc(F)cc5F)cc4)c(C(N)=O)c3N)C2)CC1)c1cc(Cl)cnc1[101CH2:1][101O:1]c1ccc2c(c1)CN(C(=O)C(NC(=O)C(C)NC)C(C)(C)C)C(C(=O)NC1CCCc3ccccc31)C2

> <Shape>
0.202

> <Color>
0.169

> <Negative vol penalty>
0.000

$$$$

  -OEChem-04052323453D

 84 93  0     1  0  0  0  0  0999 V2000
  -29.6300  -33.5390   24.9596 C   0  0  0  0  0  0  0  0  0  0  0  0
  -29.4377  -32.2532   24.4645 C   0  0  0  0  0  0  0  0  0  0  0  0
  -25.6610   -9.4057   23.9429 C   0  0  0  0  0  0  0  0  0  0  0  0
  -25.1889   -8.3519   21.8207 C   0  0  0  0  0  0  0  0  0  0  0  0
  -28.5399  -34.2802   25.4137 C   0  0  0  0  0  0  0  0  0  0  0  0
  -28.1552  -31.7074   24.4243 C   0  0  0  0  0  0  0  0  0  0  0  0
  -27.1715  -29.3789   20.0362 C   0  0  0  0  0  0  0  0  0  0  0  0
  -24.4174   -8.9956   24.4232 C   0  0  0  0  0  0  0  0  0  0  0  0
  -23.9452   -7.9417   22.3010 C   0  0  0  0  0  0  0  0  0  0  0  0
  -27.7110  -28.1061   19.8559 C   0  0  0  0  0  0  0  0  0  0  0  0
  -22.7288   -5.4976   24.2927 C   0  0  0  0  0  0  0  0  0  0  0  0
  -22.3390   -4.1827   24.0382 C   0  0  0  0  0  0  0  0  0  0  0  0
  -25.5808  -27.1287   20.4268 C   0  0  0  0  0  0  0  0  0  0  0  0
  -20.4059   -4.9890   22.8338 C   0  0  0  0  0  0  0  0  0  0  0  0
  -26.0468   -9.0839   22.6416 C   0  0  0  0  0  0  0  0  0  0  0  0
  -28.5476   -8.8038   22.2233 C   0  0  0  0  0  0  0  0  0  0  0  0
  -27.2421  -33.7468   25.3701 C   0  0  0  0  0  0  0  0  0  0  0  0
  -25.8332  -29.5362   20.4245 C   0  0  0  0  0  0  0  0  0  0  0  0
  -27.0468  -32.4416   24.8796 C   0  0  0  0  0  0  0  0  0  0  0  0
  -25.0259  -28.4047   20.6090 C   0  0  0  0  0  0  0  0  0  0  0  0
  -23.5595   -8.2636   23.6023 C   0  0  0  0  0  0  0  0  0  0  0  0
  -26.9165  -26.9807   20.0540 C   0  0  0  0  0  0  0  0  0  0  0  0
  -21.9572   -6.5582   23.8179 C   0  0  0  0  0  0  0  0  0  0  0  0
  -21.1776   -3.9285   23.3087 C   0  0  0  0  0  0  0  0  0  0  0  0
  -20.7958   -6.3039   23.0884 C   0  0  0  0  0  0  0  0  0  0  0  0
  -27.3311   -9.5078   22.1446 C   0  0  0  0  0  0  0  0  0  0  0  0
  -29.4608   -9.6267   21.6106 C   0  0  0  0  0  0  0  0  0  0  0  0
  -27.3029  -23.3564   19.9219 C   0  0  0  0  0  0  0  0  0  0  0  0
  -28.3010  -21.5724   20.3439 C   0  0  0  0  0  0  0  0  0  0  0  0
  -28.8272   -7.5207   22.7988 C   0  0  0  0  0  0  0  0  0  0  0  0
  -24.3619  -30.8012   22.9422 C   0  0  0  0  0  0  0  0  0  0  0  0
  -21.6944  -30.1874   21.2016 C   0  0  0  0  0  0  0  0  0  0  0  0
  -20.1982  -28.3557   18.7412 C   0  0  0  0  0  0  0  0  0  0  0  0
  -29.8455  -15.3450   20.8744 C   0  0  0  0  0  0  0  0  0  0  0  0
  -26.1010  -34.5680   25.9161 C   0  0  0  0  0  0  0  0  0  0  0  0
  -25.2589  -30.9166   20.5889 C   0  0  0  0  0  0  0  0  0  0  0  0
  -23.5777  -28.5200   21.0064 C   0  0  0  0  0  0  0  0  0  0  0  0
  -24.7261  -34.0584   25.4916 C   0  0  0  0  0  0  0  0  0  0  0  0
  -29.8026  -13.0104   18.2521 C   0  0  0  0  0  0  0  0  0  0  0  0
  -24.6376  -32.5465   25.6735 C   0  0  0  0  0  0  0  0  0  0  0  0
  -29.2774  -11.7640   18.9641 C   0  0  0  0  0  0  0  0  0  0  0  0
  -28.4950  -18.4270   19.8421 C   0  0  0  0  0  0  0  0  0  0  0  0
  -30.4722  -18.7145   21.3835 C   0  0  0  0  0  0  0  0  0  0  0  0
  -29.0781  -14.2785   18.7072 C   0  0  0  0  0  0  0  0  0  0  0  0
  -29.1532  -17.1727   19.2598 C   0  0  0  0  0  0  0  0  0  0  0  0
  -31.1019  -17.4753   20.7533 C   0  0  0  0  0  0  0  0  0  0  0  0
  -28.5551  -13.2308   20.8861 C   0  0  0  0  0  0  0  0  0  0  0  0
  -25.6677  -31.8242   24.7968 C   0  0  1  0  0  0  0  0  0  0  0  0
  -24.0249  -30.9476   21.4853 C   0  0  1  0  0  0  0  0  0  0  0  0
  -29.3040  -11.9483   20.4919 C   0  0  1  0  0  0  0  0  0  0  0  0
  -29.5364  -19.4063   20.3889 C   0  0  0  0  0  0  0  0  0  0  0  0
  -17.9995  -28.0553   17.5695 C   0  0  0  0  0  0  0  0  0  0  0  0
  -20.6123  -28.6801   23.6238 C   0  0  0  0  0  0  0  0  0  0  0  0
  -18.9083  -27.6286   22.1208 C   0  0  0  0  0  0  0  0  0  0  0  0
  -18.9282  -30.1022   22.4423 C   0  0  0  0  0  0  0  0  0  0  0  0
  -27.4153  -23.4059   17.3706 C   0  0  0  0  0  0  0  0  0  0  0  0
  -21.3607  -29.0963   16.1223 C   0  0  0  0  0  0  0  0  0  0  0  0
  -26.5658  -24.6289   20.1004 C   0  0  0  0  0  0  0  0  0  1  0  0
  -20.7512  -29.0163   21.0677 C   0  0  1  0  0  0  0  0  0  0  0  0
  -19.3427  -28.7684   17.5571 C   0  0  2  0  0  0  0  0  0  0  0  0
  -19.8278  -28.8543   22.3080 C   0  0  0  0  0  0  0  0  0  0  0  0
  -27.4567  -10.6872   21.5304 N   0  0  0  0  0  0  0  0  0  0  0  0
  -27.6996  -22.5633   20.9602 N   0  0  0  0  0  0  0  0  0  0  0  0
  -28.2585  -21.7762   18.9999 N   0  0  0  0  0  0  0  0  0  0  0  0
  -28.7630  -10.7307   21.2177 N   0  0  0  0  0  0  0  0  0  0  0  0
  -27.6210  -22.9185   18.7018 N   0  0  0  0  0  0  0  0  0  0  0  0
  -23.0642  -29.8911   21.1610 N   0  0  0  0  0  0  0  0  0  0  0  0
  -29.0950  -14.3900   20.1724 N   0  0  0  0  0  0  0  0  0  0  0  0
  -30.0768  -16.5705   20.2319 N   0  0  0  0  0  0  0  0  0  0  0  0
  -30.7846   -9.5064   21.3750 N   0  0  0  0  0  0  0  0  0  0  0  0
  -27.7734   -6.8086   23.3877 N   0  0  0  0  0  0  0  0  0  0  0  0
  -28.8680  -20.5152   21.0334 N   0  0  0  0  0  0  0  0  0  0  0  0
  -25.2162  -31.7753   23.4226 N   0  0  0  0  0  0  0  0  0  0  0  0
  -20.0356  -29.2101   19.8112 N   0  0  0  0  0  0  0  0  0  0  0  0
  -20.0359  -28.4426   16.2787 N   0  3  0  0  0  0  0  0  0  0  0  0
  -29.9806   -7.0277   22.8056 O   0  0  0  0  0  0  0  0  0  0  0  0
  -23.8813  -29.8741   23.5834 O   0  0  0  0  0  0  0  0  0  0  0  0
  -21.2327  -31.3241   21.3300 O   0  0  0  0  0  0  0  0  0  0  0  0
  -20.9341  -27.3716   18.7205 O   0  0  0  0  0  0  0  0  0  0  0  0
  -30.2833  -15.1165   22.0090 O   0  0  0  0  0  0  0  0  0  0  0  0
  -22.3460   -7.8630   24.0708 O   0  0  0  0  0  0  0  0  0  0  0  0
  -27.4438  -25.7299   19.8783 O   0  0  0  0  0  0  0  0  0  1  0  0
  -20.8041   -2.6658   23.0630 F   0  0  0  0  0  0  0  0  0  0  0  0
  -20.0510   -7.3187   22.6287 F   0  0  0  0  0  0  0  0  0  0  0  0
  1  2  1  0  0  0  0
  1  5  2  0  0  0  0
  2  6  2  0  0  0  0
  3  8  2  0  0  0  0
  3 15  1  0  0  0  0
  4  9  1  0  0  0  0
  4 15  2  0  0  0  0
  5 17  1  0  0  0  0
  6 19  1  0  0  0  0
  7 10  2  0  0  0  0
  7 18  1  0  0  0  0
  8 21  1  0  0  0  0
  9 21  2  0  0  0  0
 10 22  1  0  0  0  0
 11 12  2  0  0  0  0
 11 23  1  0  0  0  0
 12 24  1  0  0  0  0
 13 20  1  0  0  0  0
 13 22  2  0  0  0  0
 14 24  2  0  0  0  0
 14 25  1  0  0  0  0
 15 26  1  0  0  0  0
 16 26  1  0  0  0  0
 16 27  2  0  0  0  0
 16 30  1  0  0  0  0
 17 19  2  0  0  0  0
 17 35  1  0  0  0  0
 18 20  2  0  0  0  0
 18 36  1  0  0  0  0
 19 48  1  0  0  0  0
 20 37  1  0  0  0  0
 21 81  1  0  0  0  0
 22 82  1  0  0  0  0
 23 25  2  0  0  0  0
 23 81  1  0  0  0  0
 24 83  1  0  0  0  0
 25 84  1  0  0  0  0
 26 62  2  0  0  0  0
 27 65  1  0  0  0  0
 27 70  1  0  0  0  0
 28 58  1  0  0  0  0
 28 63  2  0  0  0  0
 28 66  1  0  0  0  0
 29 63  1  0  0  0  0
 29 64  2  0  0  0  0
 29 72  1  0  0  0  0
 30 71  1  0  0  0  0
 30 76  2  0  0  0  0
 31 49  1  0  0  0  0
 31 73  1  0  0  0  0
 31 77  2  0  0  0  0
 32 59  1  0  0  0  0
 32 67  1  0  0  0  0
 32 78  2  0  0  0  0
 33 60  1  0  0  0  0
 33 74  1  0  0  0  0
 33 79  2  0  0  0  0
 34 68  1  0  0  0  0
 34 69  1  0  0  0  0
 34 80  2  0  0  0  0
 35 38  1  0  0  0  0
 36 49  1  0  0  0  0
 37 67  1  0  0  0  0
 38 40  1  0  0  0  0
 39 41  1  0  0  0  0
 39 44  1  0  0  0  0
 40 48  1  0  0  0  0
 41 50  1  0  0  0  0
 42 45  1  0  0  0  0
 42 51  1  0  0  0  0
 43 46  1  0  0  0  0
 43 51  1  0  0  0  0
 44 68  1  0  0  0  0
 45 69  1  0  0  0  0
 46 69  1  0  0  0  0
 47 50  1  0  0  0  0
 47 68  1  0  0  0  0
 48 73  1  0  0  0  0
 49 67  1  0  0  0  0
 50 65  1  0  0  0  0
 51 72  1  0  0  0  0
 52 60  1  0  0  0  0
 53 61  1  0  0  0  0
 54 61  1  0  0  0  0
 55 61  1  0  0  0  0
 56 66  1  0  0  0  0
 57 75  1  0  0  0  0
 58 82  1  0  0  0  0
 59 61  1  0  0  0  0
 59 74  1  0  0  0  0
 60 75  1  0  0  0  0
 62 65  1  0  0  0  0
 64 66  1  0  0  0  0
M  CHG  1  75   1
M  ISO  4  34 100  58 101  69 100  82 101
M  END
> <Batch ID>
0197

> <Smiles>
CNC(C)C(=O)NC(C(=O)N1Cc2cc([101O:1][101CH2:1]c3nc(NC4CC[100N:0]([100C:0](=O)N5CCCC(n6nc(-c7ccc(Oc8ccc(F)cc8F)cc7)c(C(N)=O)c6N)C5)CC4)nn3C)ccc2CC1C(=O)NC1CCCc2ccccc21)C(C)(C)C

> <Shape>
0.310

> <Color>
0.077

> <Negative vol penalty>
0.000

$$$$

  -OEChem-04052323453D

 87 96  0     1  0  0  0  0  0999 V2000
  -28.6592  -23.5288   15.0405 C   0  0  0  0  0  0  0  0  0  0  0  0
  -28.0187  -23.0477   16.1779 C   0  0  0  0  0  0  0  0  0  0  0  0
  -27.2003  -17.2377   19.0769 C   0  0  0  0  0  0  0  0  0  0  0  0
  -27.8285  -17.0993   21.4057 C   0  0  0  0  0  0  0  0  0  0  0  0
  -28.9902  -24.8799   14.9471 C   0  0  0  0  0  0  0  0  0  0  0  0
  -27.7099  -23.9175   17.2232 C   0  0  0  0  0  0  0  0  0  0  0  0
  -23.0174  -23.2314   18.9993 C   0  0  0  0  0  0  0  0  0  0  0  0
  -27.7864  -18.5007   18.9938 C   0  0  0  0  0  0  0  0  0  0  0  0
  -28.4147  -18.3623   21.3226 C   0  0  0  0  0  0  0  0  0  0  0  0
  -22.8110  -22.1467   19.8505 C   0  0  0  0  0  0  0  0  0  0  0  0
  -29.7604  -21.7017   21.8196 C   0  0  0  0  0  0  0  0  0  0  0  0
  -29.5024  -22.6053   22.8504 C   0  0  0  0  0  0  0  0  0  0  0  0
  -22.1071  -18.7056   27.6918 C   0  0  0  0  0  0  0  0  0  0  0  0
  -22.9169  -23.6267   21.7525 C   0  0  0  0  0  0  0  0  0  0  0  0
  -27.1396  -22.4912   22.3588 C   0  0  0  0  0  0  0  0  0  0  0  0
  -22.6992  -19.9296   27.4562 C   0  0  0  0  0  0  0  0  0  0  0  0
  -27.2213  -16.5370   20.2829 C   0  0  0  0  0  0  0  0  0  0  0  0
  -27.2333  -13.9907   20.1292 C   0  0  0  0  0  0  0  0  0  0  0  0
  -28.6766  -25.7685   15.9876 C   0  0  0  0  0  0  0  0  0  0  0  0
  -23.1862  -24.5225   19.5198 C   0  0  0  0  0  0  0  0  0  0  0  0
  -28.0383  -25.2815   17.1442 C   0  0  0  0  0  0  0  0  0  0  0  0
  -23.1227  -24.7265   20.9056 C   0  0  0  0  0  0  0  0  0  0  0  0
  -28.3936  -19.0630   20.1167 C   0  0  0  0  0  0  0  0  0  0  0  0
  -22.7636  -22.3438   21.2275 C   0  0  0  0  0  0  0  0  0  0  0  0
  -28.7081  -21.1929   21.0584 C   0  0  0  0  0  0  0  0  0  0  0  0
  -28.1920  -23.0000   23.1200 C   0  0  0  0  0  0  0  0  0  0  0  0
  -27.3977  -21.5876   21.3280 C   0  0  0  0  0  0  0  0  0  0  0  0
  -26.6154  -15.2326   20.3695 C   0  0  0  0  0  0  0  0  0  0  0  0
  -22.5493  -17.6660   26.8993 C   0  0  0  0  0  0  0  0  0  0  0  0
  -26.2404  -13.0661   20.3430 C   0  0  0  0  0  0  0  0  0  0  0  0
  -23.9966  -19.0424   25.8139 C   0  0  0  0  0  0  0  0  0  0  0  0
  -28.5840  -13.6989   19.7470 C   0  0  0  0  0  0  0  0  0  0  0  0
  -25.5266  -26.6729   19.4699 C   0  0  0  0  0  0  0  0  0  0  0  0
  -23.3084  -28.5467   20.9159 C   0  0  0  0  0  0  0  0  0  0  0  0
  -20.4672  -28.7482   22.7957 C   0  0  0  0  0  0  0  0  0  0  0  0
  -21.3293  -13.0059   23.5569 C   0  0  0  0  0  0  0  0  0  0  0  0
  -29.0968  -27.2115   15.8614 C   0  0  0  0  0  0  0  0  0  0  0  0
  -23.3813  -25.6860   18.5868 C   0  0  0  0  0  0  0  0  0  0  0  0
  -23.2779  -26.0957   21.5136 C   0  0  0  0  0  0  0  0  0  0  0  0
  -28.3987  -28.1381   16.8535 C   0  0  0  0  0  0  0  0  0  0  0  0
  -21.5030  -12.5257   20.1375 C   0  0  0  0  0  0  0  0  0  0  0  0
  -28.4184  -27.5333   18.2537 C   0  0  0  0  0  0  0  0  0  0  0  0
  -22.8886  -13.0514   19.7679 C   0  0  0  0  0  0  0  0  0  0  0  0
  -21.9247  -13.9604   27.0815 C   0  0  0  0  0  0  0  0  0  0  0  0
  -20.8405  -13.4269   21.1717 C   0  0  0  0  0  0  0  0  0  0  0  0
  -21.9187  -12.9274   25.9630 C   0  0  0  0  0  0  0  0  0  0  0  0
  -23.0430  -14.1093   22.0800 C   0  0  0  0  0  0  0  0  0  0  0  0
  -27.6645  -26.1984   18.2887 C   0  0  1  0  0  0  0  0  0  0  0  0
  -24.0542  -26.8812   19.2547 C   0  0  1  0  0  0  0  0  0  0  0  0
  -23.7555  -13.2387   21.0242 C   0  0  2  0  0  0  0  0  0  0  0  0
  -22.3337  -15.2396   26.3594 C   0  0  1  0  0  0  0  0  0  0  0  0
  -21.6257  -15.1277   25.0021 C   0  0  2  0  0  0  0  0  0  0  0  0
  -20.1712  -15.6108   24.9972 C   0  0  0  0  0  0  0  0  0  0  0  0
  -18.9164  -30.4162   23.8492 C   0  0  0  0  0  0  0  0  0  0  0  0
  -25.3576  -29.0572   23.1182 C   0  0  0  0  0  0  0  0  0  0  0  0
  -23.4944  -29.9061   24.5589 C   0  0  0  0  0  0  0  0  0  0  0  0
  -24.0482  -31.0718   22.4242 C   0  0  0  0  0  0  0  0  0  0  0  0
  -18.1658  -27.7898   21.2008 C   0  0  0  0  0  0  0  0  0  0  0  0
  -25.0464  -19.2295   24.7718 C   0  0  0  0  0  0  0  0  0  0  0  0
  -23.4836  -19.1963   22.8237 C   0  0  0  0  0  0  0  0  0  0  0  0
  -23.0433  -20.0161   21.6269 C   0  0  0  0  0  0  0  0  0  1  0  0
  -22.9058  -28.8177   22.3454 C   0  0  1  0  0  0  0  0  0  0  0  0
  -19.1998  -29.5652   22.6211 C   0  0  2  0  0  0  0  0  0  0  0  0
  -23.9505  -29.6870   23.1006 C   0  0  0  0  0  0  0  0  0  0  0  0
  -23.6507  -20.1345   26.5218 N   0  0  0  0  0  0  0  0  0  0  0  0
  -25.3295  -15.1115   20.7097 N   0  0  0  0  0  0  0  0  0  0  0  0
  -23.4958  -17.7994   25.9471 N   0  0  0  0  0  0  0  0  0  0  0  0
  -25.1312  -13.7825   20.6847 N   0  0  0  0  0  0  0  0  0  0  0  0
  -23.4728  -27.2005   20.5602 N   0  0  0  0  0  0  0  0  0  0  0  0
  -21.6893  -13.6089   22.3479 N   0  0  0  0  0  0  0  0  0  0  0  0
  -21.6798  -13.6750   24.7305 N   0  0  0  0  0  0  0  0  0  0  0  0
  -26.2165  -11.7183   20.2700 N   0  0  0  0  0  0  0  0  0  0  0  0
  -29.4738  -14.7672   19.5696 N   0  0  0  0  0  0  0  0  0  0  0  0
  -21.9786  -16.4178   27.1065 N   0  0  0  0  0  0  0  0  0  0  0  0
  -26.2353  -26.4256   18.3097 N   0  0  0  0  0  0  0  0  0  0  0  0
  -21.5704  -29.4024   22.2895 N   0  0  0  0  0  0  0  0  0  0  0  0
  -18.0324  -28.6677   22.3918 N   0  3  0  0  0  0  0  0  0  0  0  0
  -24.5520  -19.9278   23.5530 N   0  3  0  0  0  0  0  0  0  0  0  0
  -28.9856  -12.5266   19.5520 O   0  0  0  0  0  0  0  0  0  0  0  0
  -25.9859  -26.7335   20.6044 O   0  0  0  0  0  0  0  0  0  0  0  0
  -23.4642  -29.4941   20.1415 O   0  0  0  0  0  0  0  0  0  0  0  0
  -20.4782  -27.6420   23.3311 O   0  0  0  0  0  0  0  0  0  0  0  0
  -20.6957  -11.9434   23.5838 O   0  0  0  0  0  0  0  0  0  0  0  0
  -28.9659  -20.2953   20.0359 O   0  0  0  0  0  0  0  0  0  0  0  0
  -22.5616  -21.2790   22.0665 O   0  0  0  0  0  0  0  0  0  1  0  0
  -27.9442  -23.8666   24.1109 F   0  0  0  0  0  0  0  0  0  0  0  0
  -26.3825  -21.1012   20.6009 F   0  0  0  0  0  0  0  0  0  0  0  0
  1  2  1  0  0  0  0
  1  5  2  0  0  0  0
  2  6  2  0  0  0  0
  3  8  2  0  0  0  0
  3 17  1  0  0  0  0
  4  9  1  0  0  0  0
  4 17  2  0  0  0  0
  5 19  1  0  0  0  0
  6 21  1  0  0  0  0
  7 10  2  0  0  0  0
  7 20  1  0  0  0  0
  8 23  1  0  0  0  0
  9 23  2  0  0  0  0
 10 24  1  0  0  0  0
 11 12  2  0  0  0  0
 11 25  1  0  0  0  0
 12 26  1  0  0  0  0
 13 16  1  0  0  0  0
 13 29  2  0  0  0  0
 14 22  1  0  0  0  0
 14 24  2  0  0  0  0
 15 26  2  0  0  0  0
 15 27  1  0  0  0  0
 16 65  2  0  0  0  0
 17 28  1  0  0  0  0
 18 28  1  0  0  0  0
 18 30  2  0  0  0  0
 18 32  1  0  0  0  0
 19 21  2  0  0  0  0
 19 37  1  0  0  0  0
 20 22  2  0  0  0  0
 20 38  1  0  0  0  0
 21 48  1  0  0  0  0
 22 39  1  0  0  0  0
 23 84  1  0  0  0  0
 24 85  1  0  0  0  0
 25 27  2  0  0  0  0
 25 84  1  0  0  0  0
 26 86  1  0  0  0  0
 27 87  1  0  0  0  0
 28 66  2  0  0  0  0
 29 67  1  0  0  0  0
 29 74  1  0  0  0  0
 30 68  1  0  0  0  0
 30 72  1  0  0  0  0
 31 59  1  0  0  0  0
 31 65  1  0  0  0  0
 31 67  2  0  0  0  0
 32 73  1  0  0  0  0
 32 79  2  0  0  0  0
 33 49  1  0  0  0  0
 33 75  1  0  0  0  0
 33 80  2  0  0  0  0
 34 62  1  0  0  0  0
 34 69  1  0  0  0  0
 34 81  2  0  0  0  0
 35 63  1  0  0  0  0
 35 76  1  0  0  0  0
 35 82  2  0  0  0  0
 36 70  1  0  0  0  0
 36 71  1  0  0  0  0
 36 83  2  0  0  0  0
 37 40  1  0  0  0  0
 38 49  1  0  0  0  0
 39 69  1  0  0  0  0
 40 42  1  0  0  0  0
 41 43  1  0  0  0  0
 41 45  1  0  0  0  0
 42 48  1  0  0  0  0
 43 50  1  0  0  0  0
 44 46  1  0  0  0  0
 44 51  1  0  0  0  0
 45 70  1  0  0  0  0
 46 71  1  0  0  0  0
 47 50  1  0  0  0  0
 47 70  1  0  0  0  0
 48 75  1  0  0  0  0
 49 69  1  0  0  0  0
 50 68  1  0  0  0  0
 51 52  1  0  0  0  0
 51 74  1  0  0  0  0
 52 53  1  0  0  0  0
 52 71  1  0  0  0  0
 54 63  1  0  0  0  0
 55 64  1  0  0  0  0
 56 64  1  0  0  0  0
 57 64  1  0  0  0  0
 58 77  1  0  0  0  0
 59 78  1  0  0  0  0
 60 61  1  0  0  0  0
 60 78  1  0  0  0  0
 61 85  1  0  0  0  0
 62 64  1  0  0  0  0
 62 76  1  0  0  0  0
 63 77  1  0  0  0  0
 66 68  1  0  0  0  0
M  CHG  2  77   1  78   1
M  ISO  4  36 100  61 101  71 100  85 101
M  END
> <Batch ID>
0197

> <Smiles>
CNC(C)C(=O)NC(C(=O)N1Cc2cc([101O:1][101CH2:1]CNCc3nccc(NC4CC[100N:0]([100C:0](=O)N5CCCC(n6nc(-c7ccc(Oc8ccc(F)cc8F)cc7)c(C(N)=O)c6N)C5)C4C)n3)ccc2CC1C(=O)NC1CCCc2ccccc21)C(C)(C)C

> <Shape>
0.207

> <Color>
0.064

> <Negative vol penalty>
0.000

$$$$

  -OEChem-04052323453D

 87 96  0     1  0  0  0  0  0999 V2000
  -25.0581  -38.4366   20.2639 C   0  0  0  0  0  0  0  0  0  0  0  0
  -25.7797  -37.4488   19.6014 C   0  0  0  0  0  0  0  0  0  0  0  0
  -24.9036  -10.2028   23.3231 C   0  0  0  0  0  0  0  0  0  0  0  0
  -23.9577   -9.3106   21.2868 C   0  0  0  0  0  0  0  0  0  0  0  0
  -24.5355  -38.1847   21.5318 C   0  0  0  0  0  0  0  0  0  0  0  0
  -25.9801  -36.2088   20.2069 C   0  0  0  0  0  0  0  0  0  0  0  0
  -26.6617  -29.2595   18.6070 C   0  0  0  0  0  0  0  0  0  0  0  0
  -23.9916   -9.4596   24.0724 C   0  0  0  0  0  0  0  0  0  0  0  0
  -23.0457   -8.5673   22.0361 C   0  0  0  0  0  0  0  0  0  0  0  0
  -27.5168  -28.1815   18.8313 C   0  0  0  0  0  0  0  0  0  0  0  0
  -23.0442   -5.6986   23.8226 C   0  0  0  0  0  0  0  0  0  0  0  0
  -22.8459   -4.3657   23.4626 C   0  0  0  0  0  0  0  0  0  0  0  0
  -26.5000  -27.8322   20.9908 C   0  0  0  0  0  0  0  0  0  0  0  0
  -20.5071   -4.8217   23.0632 C   0  0  0  0  0  0  0  0  0  0  0  0
  -24.8867  -10.1283   21.9303 C   0  0  0  0  0  0  0  0  0  0  0  0
  -27.1105  -10.4953   20.7354 C   0  0  0  0  0  0  0  0  0  0  0  0
  -24.7214  -36.9377   22.1491 C   0  0  0  0  0  0  0  0  0  0  0  0
  -25.7251  -29.6395   19.5790 C   0  0  0  0  0  0  0  0  0  0  0  0
  -25.4607  -35.9405   21.4848 C   0  0  0  0  0  0  0  0  0  0  0  0
  -25.6324  -28.9138   20.7753 C   0  0  0  0  0  0  0  0  0  0  0  0
  -23.0627   -8.6418   23.4289 C   0  0  0  0  0  0  0  0  0  0  0  0
  -27.4380  -27.4694   20.0246 C   0  0  0  0  0  0  0  0  0  0  0  0
  -21.9740   -6.5931   23.8029 C   0  0  0  0  0  0  0  0  0  0  0  0
  -21.5773   -3.9273   23.0829 C   0  0  0  0  0  0  0  0  0  0  0  0
  -20.7055   -6.1546   23.4232 C   0  0  0  0  0  0  0  0  0  0  0  0
  -25.8281  -10.8962   21.1556 C   0  0  0  0  0  0  0  0  0  0  0  0
  -29.1383  -24.6697   21.6168 C   0  0  0  0  0  0  0  0  0  0  0  0
  -30.2839  -24.6574   22.3770 C   0  0  0  0  0  0  0  0  0  0  0  0
  -27.5956  -11.5736   20.0366 C   0  0  0  0  0  0  0  0  0  0  0  0
  -30.0491  -22.7826   21.2427 C   0  0  0  0  0  0  0  0  0  0  0  0
  -27.8013   -9.2586   20.9569 C   0  0  0  0  0  0  0  0  0  0  0  0
  -25.2277  -32.2568   21.3127 C   0  0  0  0  0  0  0  0  0  0  0  0
  -22.5648  -30.6588   22.2494 C   0  0  0  0  0  0  0  0  0  0  0  0
  -20.9811  -27.6657   22.6741 C   0  0  0  0  0  0  0  0  0  0  0  0
  -28.4984  -16.8219   19.3688 C   0  0  0  0  0  0  0  0  0  0  0  0
  -24.1781  -36.7283   23.5403 C   0  0  0  0  0  0  0  0  0  0  0  0
  -24.7918  -30.7881   19.3105 C   0  0  0  0  0  0  0  0  0  0  0  0
  -24.6305  -29.2687   21.8424 C   0  0  0  0  0  0  0  0  0  0  0  0
  -24.1153  -35.2605   23.9551 C   0  0  0  0  0  0  0  0  0  0  0  0
  -25.2912  -15.7637   18.4081 C   0  0  0  0  0  0  0  0  0  0  0  0
  -25.4213  -34.5519   23.6099 C   0  0  0  0  0  0  0  0  0  0  0  0
  -25.2432  -14.3584   19.0073 C   0  0  0  0  0  0  0  0  0  0  0  0
  -28.4197  -20.1103   20.6210 C   0  0  0  0  0  0  0  0  0  0  0  0
  -30.4793  -19.6614   19.2339 C   0  0  0  0  0  0  0  0  0  0  0  0
  -25.9647  -16.7649   19.3483 C   0  0  0  0  0  0  0  0  0  0  0  0
  -27.6214  -19.1763   19.7068 C   0  0  0  0  0  0  0  0  0  0  0  0
  -29.6369  -18.7619   18.3337 C   0  0  0  0  0  0  0  0  0  0  0  0
  -27.2614  -14.9425   20.4046 C   0  0  0  0  0  0  0  0  0  0  0  0
  -25.6783  -34.5743   22.0983 C   0  0  1  0  0  0  0  0  0  0  0  0
  -24.2249  -31.4076   20.5842 C   0  0  1  0  0  0  0  0  0  0  0  0
  -26.6422  -13.9022   19.4584 C   0  0  1  0  0  0  0  0  0  0  0  0
  -29.6069  -20.7371   19.8861 C   0  0  0  0  0  0  0  0  0  0  0  0
  -31.5634  -26.8067   22.5495 C   0  0  0  0  0  0  0  0  0  0  0  0
  -31.8541  -21.9511   23.8140 C   0  0  0  0  0  0  0  0  0  0  0  0
  -18.8256  -26.6765   23.4943 C   0  0  0  0  0  0  0  0  0  0  0  0
  -23.4493  -31.1275   25.1318 C   0  0  0  0  0  0  0  0  0  0  0  0
  -21.8326  -29.3531   25.8430 C   0  0  0  0  0  0  0  0  0  0  0  0
  -20.9986  -31.4246   24.7312 C   0  0  0  0  0  0  0  0  0  0  0  0
  -20.3781  -26.4906   20.0256 C   0  0  0  0  0  0  0  0  0  0  0  0
  -28.1299  -25.7350   21.4973 C   0  0  0  0  0  0  0  0  0  1  0  0
  -30.8673  -25.6577   23.2886 C   0  0  0  0  0  0  0  0  0  0  0  0
  -32.0926  -22.9551   22.6994 C   0  0  0  0  0  0  0  0  0  0  0  0
  -22.2328  -29.6941   23.3621 C   0  0  1  0  0  0  0  0  0  0  0  0
  -19.5894  -27.1987   22.2874 C   0  0  2  0  0  0  0  0  0  0  0  0
  -22.1486  -30.3941   24.7479 C   0  0  0  0  0  0  0  0  0  0  0  0
  -25.5182  -12.1328   20.7572 N   0  0  0  0  0  0  0  0  0  0  0  0
  -28.9978  -23.4996   20.9133 N   0  0  0  0  0  0  0  0  0  0  0  0
  -30.8565  -23.4421   22.1273 N   0  0  0  0  0  0  0  0  0  0  0  0
  -26.6128  -12.5182   20.0794 N   0  0  0  0  0  0  0  0  0  0  0  0
  -23.7443  -30.4036   21.5356 N   0  0  0  0  0  0  0  0  0  0  0  0
  -27.2777  -16.2684   19.7831 N   0  0  0  0  0  0  0  0  0  0  0  0
  -28.5064  -18.1920   19.0675 N   0  0  0  0  0  0  0  0  0  0  0  0
  -28.7628  -11.7964   19.3959 N   0  0  0  0  0  0  0  0  0  0  0  0
  -27.1576   -8.2566   21.6958 N   0  0  0  0  0  0  0  0  0  0  0  0
  -30.3975  -21.5136   20.8156 N   0  0  0  0  0  0  0  0  0  0  0  0
  -24.8604  -33.5836   21.4319 N   0  0  0  0  0  0  0  0  0  0  0  0
  -21.0060  -29.0143   22.9606 N   0  0  0  0  0  0  0  0  0  0  0  0
  -19.6717  -26.1079   21.2753 N   0  3  0  0  0  0  0  0  0  0  0  0
  -28.9618   -9.0544   20.5266 O   0  0  0  0  0  0  0  0  0  0  0  0
  -26.2577  -31.7459   21.7366 O   0  0  0  0  0  0  0  0  0  0  0  0
  -21.8019  -31.6000   22.0173 O   0  0  0  0  0  0  0  0  0  0  0  0
  -21.9485  -26.9091   22.7212 O   0  0  0  0  0  0  0  0  0  0  0  0
  -29.5215  -16.1325   19.2736 O   0  0  0  0  0  0  0  0  0  0  0  0
  -22.1728   -7.9163   24.1598 O   0  0  0  0  0  0  0  0  0  0  0  0
  -28.2758  -26.4122   20.2475 O   0  0  0  0  0  0  0  0  0  1  0  0
  -21.3873   -2.6476   22.7357 F   0  0  0  0  0  0  0  0  0  0  0  0
  -19.6738   -7.0095   23.4012 F   0  0  0  0  0  0  0  0  0  0  0  0
  1  2  1  0  0  0  0
  1  5  2  0  0  0  0
  2  6  2  0  0  0  0
  3  8  2  0  0  0  0
  3 15  1  0  0  0  0
  4  9  1  0  0  0  0
  4 15  2  0  0  0  0
  5 17  1  0  0  0  0
  6 19  1  0  0  0  0
  7 10  2  0  0  0  0
  7 18  1  0  0  0  0
  8 21  1  0  0  0  0
  9 21  2  0  0  0  0
 10 22  1  0  0  0  0
 11 12  2  0  0  0  0
 11 23  1  0  0  0  0
 12 24  1  0  0  0  0
 13 20  1  0  0  0  0
 13 22  2  0  0  0  0
 14 24  2  0  0  0  0
 14 25  1  0  0  0  0
 15 26  1  0  0  0  0
 16 26  1  0  0  0  0
 16 29  2  0  0  0  0
 16 31  1  0  0  0  0
 17 19  2  0  0  0  0
 17 36  1  0  0  0  0
 18 20  2  0  0  0  0
 18 37  1  0  0  0  0
 19 49  1  0  0  0  0
 20 38  1  0  0  0  0
 21 84  1  0  0  0  0
 22 85  1  0  0  0  0
 23 25  2  0  0  0  0
 23 84  1  0  0  0  0
 24 86  1  0  0  0  0
 25 87  1  0  0  0  0
 26 66  2  0  0  0  0
 27 28  2  0  0  0  0
 27 60  1  0  0  0  0
 27 67  1  0  0  0  0
 28 61  1  0  0  0  0
 28 68  1  0  0  0  0
 29 69  1  0  0  0  0
 29 73  1  0  0  0  0
 30 67  2  0  0  0  0
 30 68  1  0  0  0  0
 30 75  1  0  0  0  0
 31 74  1  0  0  0  0
 31 79  2  0  0  0  0
 32 50  1  0  0  0  0
 32 76  1  0  0  0  0
 32 80  2  0  0  0  0
 33 63  1  0  0  0  0
 33 70  1  0  0  0  0
 33 81  2  0  0  0  0
 34 64  1  0  0  0  0
 34 77  1  0  0  0  0
 34 82  2  0  0  0  0
 35 71  1  0  0  0  0
 35 72  1  0  0  0  0
 35 83  2  0  0  0  0
 36 39  1  0  0  0  0
 37 50  1  0  0  0  0
 38 70  1  0  0  0  0
 39 41  1  0  0  0  0
 40 42  1  0  0  0  0
 40 45  1  0  0  0  0
 41 49  1  0  0  0  0
 42 51  1  0  0  0  0
 43 46  1  0  0  0  0
 43 52  1  0  0  0  0
 44 47  1  0  0  0  0
 44 52  1  0  0  0  0
 45 71  1  0  0  0  0
 46 72  1  0  0  0  0
 47 72  1  0  0  0  0
 48 51  1  0  0  0  0
 48 71  1  0  0  0  0
 49 76  1  0  0  0  0
 50 70  1  0  0  0  0
 51 69  1  0  0  0  0
 52 75  1  0  0  0  0
 53 61  1  0  0  0  0
 54 62  1  0  0  0  0
 55 64  1  0  0  0  0
 56 65  1  0  0  0  0
 57 65  1  0  0  0  0
 58 65  1  0  0  0  0
 59 78  1  0  0  0  0
 60 85  1  0  0  0  0
 62 68  1  0  0  0  0
 63 65  1  0  0  0  0
 63 77  1  0  0  0  0
 64 78  1  0  0  0  0
 66 69  1  0  0  0  0
M  CHG  1  78   1
M  ISO  4  35 100  60 101  72 100  85 101
M  END
> <Batch ID>
0197

> <Smiles>
CCc1c([101CH2:1][101O:1]c2ccc3c(c2)CN(C(=O)C(NC(=O)C(C)NC)C(C)(C)C)C(C(=O)NC2CCCc4ccccc42)C3)nc(NC2CC[100N:0]([100C:0](=O)N3CCCC(n4nc(-c5ccc(Oc6ccc(F)cc6F)cc5)c(C(N)=O)c4N)C3)CC2)n1CC

> <Shape>
0.308

> <Color>
0.086

> <Negative vol penalty>
0.000

$$$$

  -OEChem-04052323453D

 83 92  0     1  0  0  0  0  0999 V2000
  -38.3474  -21.5286   36.1838 C   0  0  0  0  0  0  0  0  0  0  0  0
  -37.6842  -20.6607   35.3222 C   0  0  0  0  0  0  0  0  0  0  0  0
  -22.9974   -9.8986   19.9807 C   0  0  0  0  0  0  0  0  0  0  0  0
  -23.6978   -9.9525   22.2923 C   0  0  0  0  0  0  0  0  0  0  0  0
  -39.2247  -22.4831   35.6709 C   0  0  0  0  0  0  0  0  0  0  0  0
  -37.8971  -20.7477   33.9469 C   0  0  0  0  0  0  0  0  0  0  0  0
  -37.9776  -16.1218   29.9343 C   0  0  0  0  0  0  0  0  0  0  0  0
  -22.2178   -8.7722   20.2431 C   0  0  0  0  0  0  0  0  0  0  0  0
  -22.9180   -8.8261   22.5548 C   0  0  0  0  0  0  0  0  0  0  0  0
  -37.0150  -15.6240   29.0573 C   0  0  0  0  0  0  0  0  0  0  0  0
  -23.1372   -5.4831   22.0990 C   0  0  0  0  0  0  0  0  0  0  0  0
  -23.7072   -4.4638   22.8616 C   0  0  0  0  0  0  0  0  0  0  0  0
  -37.9630  -16.9458   27.2760 C   0  0  0  0  0  0  0  0  0  0  0  0
  -21.9673   -4.7292   24.5168 C   0  0  0  0  0  0  0  0  0  0  0  0
  -33.5715  -12.5759   24.8272 C   0  0  0  0  0  0  0  0  0  0  0  0
  -23.7375  -10.4887   21.0053 C   0  0  0  0  0  0  0  0  0  0  0  0
  -24.1476  -13.0000   20.8234 C   0  0  0  0  0  0  0  0  0  0  0  0
  -39.4558  -22.5754   34.2893 C   0  0  0  0  0  0  0  0  0  0  0  0
  -38.9351  -17.0452   29.4906 C   0  0  0  0  0  0  0  0  0  0  0  0
  -38.7773  -21.7052   33.4148 C   0  0  0  0  0  0  0  0  0  0  0  0
  -38.9383  -17.4519   28.1487 C   0  0  0  0  0  0  0  0  0  0  0  0
  -33.2034  -15.0332   25.8452 C   0  0  0  0  0  0  0  0  0  0  0  0
  -22.1780   -8.2359   21.5301 C   0  0  0  0  0  0  0  0  0  0  0  0
  -37.0057  -16.0382   27.7286 C   0  0  0  0  0  0  0  0  0  0  0  0
  -21.9823   -6.1256   22.5453 C   0  0  0  0  0  0  0  0  0  0  0  0
  -23.1223   -4.0868   24.0705 C   0  0  0  0  0  0  0  0  0  0  0  0
  -21.3973   -5.7486   23.7542 C   0  0  0  0  0  0  0  0  0  0  0  0
  -24.5435  -11.6520   20.7346 C   0  0  0  0  0  0  0  0  0  0  0  0
  -32.4119  -14.5310   24.8324 C   0  0  0  0  0  0  0  0  0  0  0  0
  -34.1963  -14.1900   26.3008 C   0  0  0  0  0  0  0  0  0  0  0  0
  -25.2678  -13.7110   20.4683 C   0  0  0  0  0  0  0  0  0  0  0  0
  -22.8804  -13.5594   21.1937 C   0  0  0  0  0  0  0  0  0  0  0  0
  -39.6723  -20.0457   30.2371 C   0  0  0  0  0  0  0  0  0  0  0  0
  -42.1474  -19.5320   28.2042 C   0  0  0  0  0  0  0  0  0  0  0  0
  -43.4142  -17.7736   25.5680 C   0  0  0  0  0  0  0  0  0  0  0  0
  -30.8385  -14.4676   20.9314 C   0  0  0  0  0  0  0  0  0  0  0  0
  -40.3770  -23.6546   33.7779 C   0  0  0  0  0  0  0  0  0  0  0  0
  -39.9834  -17.5523   30.4427 C   0  0  0  0  0  0  0  0  0  0  0  0
  -39.9570  -18.4259   27.6177 C   0  0  0  0  0  0  0  0  0  0  0  0
  -40.8328  -23.4343   32.3378 C   0  0  0  0  0  0  0  0  0  0  0  0
  -29.6154  -12.2240   18.4076 C   0  0  0  0  0  0  0  0  0  0  0  0
  -39.6468  -23.0627   31.4534 C   0  0  0  0  0  0  0  0  0  0  0  0
  -28.1749  -11.9407   18.8210 C   0  0  0  0  0  0  0  0  0  0  0  0
  -30.5077  -12.3976   19.6292 C   0  0  0  0  0  0  0  0  0  0  0  0
  -31.4421  -16.0672   22.8220 C   0  0  0  0  0  0  0  0  0  0  0  0
  -30.0902  -14.5429   23.4343 C   0  0  0  0  0  0  0  0  0  0  0  0
  -28.5976  -13.2446   20.9663 C   0  0  0  0  0  0  0  0  0  0  0  0
  -39.0008  -21.7521   31.9188 C   0  0  1  0  0  0  0  0  0  0  0  0
  -31.2040  -15.3347   24.1639 C   0  0  0  0  0  0  0  0  0  0  0  0
  -40.5934  -18.8811   30.0073 C   0  0  1  0  0  0  0  0  0  0  0  0
  -27.6592  -13.0407   19.7601 C   0  0  2  0  0  0  0  0  0  0  0  0
  -45.4476  -17.6058   24.1070 C   0  0  0  0  0  0  0  0  0  0  0  0
  -41.2774  -22.0454   26.7088 C   0  0  0  0  0  0  0  0  0  0  0  0
  -42.6968  -21.3068   24.7832 C   0  0  0  0  0  0  0  0  0  0  0  0
  -43.7506  -21.8019   26.9894 C   0  0  0  0  0  0  0  0  0  0  0  0
  -33.0913  -17.5120   25.5837 C   0  0  0  0  0  0  0  0  0  0  0  0
  -43.9296  -14.9828   26.4073 C   0  0  0  0  0  0  0  0  0  0  0  0
  -35.1213  -14.6253   27.3991 C   0  0  0  0  0  0  0  0  0  1  0  0
  -42.3655  -19.7040   26.7203 C   0  0  1  0  0  0  0  0  0  0  0  0
  -44.7564  -17.0950   25.3616 C   0  0  2  0  0  0  0  0  0  0  0  0
  -42.5020  -21.1976   26.3106 C   0  0  0  0  0  0  0  0  0  0  0  0
  -32.5686  -13.3022   24.2979 N   0  0  0  0  0  0  0  0  0  0  0  0
  -34.4094  -12.9503   25.8128 N   0  0  0  0  0  0  0  0  0  0  0  0
  -25.8159  -11.5124   20.3530 N   0  0  0  0  0  0  0  0  0  0  0  0
  -26.2291  -12.7818   20.1986 N   0  0  0  0  0  0  0  0  0  0  0  0
  -40.9575  -18.8980   28.5890 N   0  0  0  0  0  0  0  0  0  0  0  0
  -29.9945  -13.4205   20.5453 N   0  0  0  0  0  0  0  0  0  0  0  0
  -30.6735  -15.0054   22.1875 N   0  0  0  0  0  0  0  0  0  0  0  0
  -25.5144  -15.0341   20.3635 N   0  0  0  0  0  0  0  0  0  0  0  0
  -21.8370  -12.6860   21.5294 N   0  0  0  0  0  0  0  0  0  0  0  0
  -33.0045  -16.3159   26.3723 N   0  0  0  0  0  0  0  0  0  0  0  0
  -39.7912  -20.6185   31.4890 N   0  0  0  0  0  0  0  0  0  0  0  0
  -43.5222  -18.8828   26.3799 N   0  0  0  0  0  0  0  0  0  0  0  0
  -44.5773  -15.6212   25.2326 N   0  3  0  0  0  0  0  0  0  0  0  0
  -22.6747  -14.7967   21.2101 O   0  0  0  0  0  0  0  0  0  0  0  0
  -38.9112  -20.3995   29.3442 O   0  0  0  0  0  0  0  0  0  0  0  0
  -43.0046  -19.9387   28.9925 O   0  0  0  0  0  0  0  0  0  0  0  0
  -42.3747  -17.3631   25.0568 O   0  0  0  0  0  0  0  0  0  0  0  0
  -31.7350  -14.8911   20.1898 O   0  0  0  0  0  0  0  0  0  0  0  0
  -21.4171   -7.1369   21.7867 O   0  0  0  0  0  0  0  0  0  0  0  0
  -36.0668  -15.5543   26.8706 O   0  0  0  0  0  0  0  0  0  1  0  0
  -23.6689   -3.1068   24.8019 F   0  0  0  0  0  0  0  0  0  0  0  0
  -20.2871   -6.3613   24.1875 F   0  0  0  0  0  0  0  0  0  0  0  0
  1  2  1  0  0  0  0
  1  5  2  0  0  0  0
  2  6  2  0  0  0  0
  3  8  2  0  0  0  0
  3 16  1  0  0  0  0
  4  9  1  0  0  0  0
  4 16  2  0  0  0  0
  5 18  1  0  0  0  0
  6 20  1  0  0  0  0
  7 10  2  0  0  0  0
  7 19  1  0  0  0  0
  8 23  1  0  0  0  0
  9 23  2  0  0  0  0
 10 24  1  0  0  0  0
 11 12  2  0  0  0  0
 11 25  1  0  0  0  0
 12 26  1  0  0  0  0
 13 21  1  0  0  0  0
 13 24  2  0  0  0  0
 14 26  2  0  0  0  0
 14 27  1  0  0  0  0
 15 62  1  0  0  0  0
 15 63  2  0  0  0  0
 16 28  1  0  0  0  0
 17 28  1  0  0  0  0
 17 31  2  0  0  0  0
 17 32  1  0  0  0  0
 18 20  2  0  0  0  0
 18 37  1  0  0  0  0
 19 21  2  0  0  0  0
 19 38  1  0  0  0  0
 20 48  1  0  0  0  0
 21 39  1  0  0  0  0
 22 29  1  0  0  0  0
 22 30  2  0  0  0  0
 22 71  1  0  0  0  0
 23 80  1  0  0  0  0
 24 81  1  0  0  0  0
 25 27  2  0  0  0  0
 25 80  1  0  0  0  0
 26 82  1  0  0  0  0
 27 83  1  0  0  0  0
 28 64  2  0  0  0  0
 29 49  1  0  0  0  0
 29 62  2  0  0  0  0
 30 58  1  0  0  0  0
 30 63  1  0  0  0  0
 31 65  1  0  0  0  0
 31 69  1  0  0  0  0
 32 70  1  0  0  0  0
 32 75  2  0  0  0  0
 33 50  1  0  0  0  0
 33 72  1  0  0  0  0
 33 76  2  0  0  0  0
 34 59  1  0  0  0  0
 34 66  1  0  0  0  0
 34 77  2  0  0  0  0
 35 60  1  0  0  0  0
 35 73  1  0  0  0  0
 35 78  2  0  0  0  0
 36 67  1  0  0  0  0
 36 68  1  0  0  0  0
 36 79  2  0  0  0  0
 37 40  1  0  0  0  0
 38 50  1  0  0  0  0
 39 66  1  0  0  0  0
 40 42  1  0  0  0  0
 41 43  1  0  0  0  0
 41 44  1  0  0  0  0
 42 48  1  0  0  0  0
 43 51  1  0  0  0  0
 44 67  1  0  0  0  0
 45 49  1  0  0  0  0
 45 68  1  0  0  0  0
 46 49  1  0  0  0  0
 46 68  1  0  0  0  0
 47 51  1  0  0  0  0
 47 67  1  0  0  0  0
 48 72  1  0  0  0  0
 50 66  1  0  0  0  0
 51 65  1  0  0  0  0
 52 60  1  0  0  0  0
 53 61  1  0  0  0  0
 54 61  1  0  0  0  0
 55 61  1  0  0  0  0
 56 71  1  0  0  0  0
 57 74  1  0  0  0  0
 58 81  1  0  0  0  0
 59 61  1  0  0  0  0
 59 73  1  0  0  0  0
 60 74  1  0  0  0  0
 64 65  1  0  0  0  0
M  CHG  1  74   1
M  ISO  4  36 100  58 101  68 100  81 101
M  END
> <Batch ID>
0197

> <Smiles>
CNc1c(C2C[100N:0]([100C:0](=O)N3CCCC(n4nc(-c5ccc(Oc6ccc(F)cc6F)cc5)c(C(N)=O)c4N)C3)C2)ncnc1[101CH2:1][101O:1]c1ccc2c(c1)CN(C(=O)C(NC(=O)C(C)NC)C(C)(C)C)C(C(=O)NC1CCCc3ccccc31)C2

> <Shape>
0.162

> <Color>
0.193

> <Negative vol penalty>
0.000

$$$$

  -OEChem-04052323453D

 90100  0     1  0  0  0  0  0999 V2000
  -15.4011  -26.8272   23.8849 C   0  0  0  0  0  0  0  0  0  0  0  0
  -16.2871  -25.9694   23.2410 C   0  0  0  0  0  0  0  0  0  0  0  0
  -30.3929  -21.0880   19.9758 C   0  0  0  0  0  0  0  0  0  0  0  0
  -28.1287  -20.2819   20.2220 C   0  0  0  0  0  0  0  0  0  0  0  0
  -15.7775  -28.1423   24.1546 C   0  0  0  0  0  0  0  0  0  0  0  0
  -17.5498  -26.4266   22.8654 C   0  0  0  0  0  0  0  0  0  0  0  0
  -21.2904  -23.0920   24.0402 C   0  0  0  0  0  0  0  0  0  0  0  0
  -29.9131  -22.2534   19.3782 C   0  0  0  0  0  0  0  0  0  0  0  0
  -27.6488  -21.4473   19.6244 C   0  0  0  0  0  0  0  0  0  0  0  0
  -21.4708  -21.9816   23.2166 C   0  0  0  0  0  0  0  0  0  0  0  0
  -28.5066  -25.1641   20.3695 C   0  0  0  0  0  0  0  0  0  0  0  0
  -29.0501  -26.3785   20.7883 C   0  0  0  0  0  0  0  0  0  0  0  0
  -23.2643  -23.1246   22.0786 C   0  0  0  0  0  0  0  0  0  0  0  0
  -25.5767  -12.8480   18.7859 C   0  0  0  0  0  0  0  0  0  0  0  0
  -29.8066  -26.8167   18.5360 C   0  0  0  0  0  0  0  0  0  0  0  0
  -29.5007  -20.1022   20.3977 C   0  0  0  0  0  0  0  0  0  0  0  0
  -30.2234  -18.6770   22.3862 C   0  0  0  0  0  0  0  0  0  0  0  0
  -17.0490  -28.6130   23.7908 C   0  0  0  0  0  0  0  0  0  0  0  0
  -22.0900  -24.2333   23.8825 C   0  0  0  0  0  0  0  0  0  0  0  0
  -17.9431  -27.7497   23.1294 C   0  0  0  0  0  0  0  0  0  0  0  0
  -23.0952  -24.2462   22.9047 C   0  0  0  0  0  0  0  0  0  0  0  0
  -23.9203  -12.7924   20.4886 C   0  0  0  0  0  0  0  0  0  0  0  0
  -24.3095  -13.2143   19.2337 C   0  0  0  0  0  0  0  0  0  0  0  0
  -28.5411  -22.4331   19.2025 C   0  0  0  0  0  0  0  0  0  0  0  0
  -22.4563  -21.9987   22.2342 C   0  0  0  0  0  0  0  0  0  0  0  0
  -28.6132  -24.7759   19.0339 C   0  0  0  0  0  0  0  0  0  0  0  0
  -29.7000  -27.2048   19.8716 C   0  0  0  0  0  0  0  0  0  0  0  0
  -29.2631  -25.6022   18.1172 C   0  0  0  0  0  0  0  0  0  0  0  0
  -29.9958  -18.8979   21.0147 C   0  0  0  0  0  0  0  0  0  0  0  0
  -24.7933  -12.0148   21.2417 C   0  0  0  0  0  0  0  0  0  0  0  0
  -26.3807  -12.0683   19.6178 C   0  0  0  0  0  0  0  0  0  0  0  0
  -30.6892  -17.3867   22.4536 C   0  0  0  0  0  0  0  0  0  0  0  0
  -30.0309  -19.5593   23.4999 C   0  0  0  0  0  0  0  0  0  0  0  0
  -21.6126  -27.3203   23.1837 C   0  0  0  0  0  0  0  0  0  0  0  0
  -24.8716  -27.4335   23.8315 C   0  0  0  0  0  0  0  0  0  0  0  0
  -24.7671  -30.5490   23.3983 C   0  0  0  0  0  0  0  0  0  0  0  0
  -30.0244  -12.6207   18.8907 C   0  0  0  0  0  0  0  0  0  0  0  0
  -17.3934  -30.0563   24.0611 C   0  0  0  0  0  0  0  0  0  0  0  0
  -21.8992  -25.4094   24.8016 C   0  0  0  0  0  0  0  0  0  0  0  0
  -22.6271  -13.0044   21.2012 C   0  0  0  0  0  0  0  0  0  0  0  0
  -23.9815  -25.4447   22.6981 C   0  0  0  0  0  0  0  0  0  0  0  0
  -24.1614  -11.6175   22.5449 C   0  0  0  0  0  0  0  0  0  0  0  0
  -18.8875  -30.3541   23.9658 C   0  0  0  0  0  0  0  0  0  0  0  0
  -23.0243  -12.6455   22.6427 C   0  0  0  0  0  0  0  0  0  0  0  0
  -33.0876  -14.1332   19.8935 C   0  0  0  0  0  0  0  0  0  0  0  0
  -19.4774  -29.7276   22.7063 C   0  0  0  0  0  0  0  0  0  0  0  0
  -32.6631  -15.5059   20.4183 C   0  0  0  0  0  0  0  0  0  0  0  0
  -23.2803  -17.6316   17.5948 C   0  0  0  0  0  0  0  0  0  0  0  0
  -32.2447  -13.7017   18.6955 C   0  0  0  0  0  0  0  0  0  0  0  0
  -23.2771  -16.1603   17.1774 C   0  0  0  0  0  0  0  0  0  0  0  0
  -30.3629  -15.1055   19.4450 C   0  0  0  0  0  0  0  0  0  0  0  0
  -23.3675  -16.1873   19.5130 C   0  0  0  0  0  0  0  0  0  0  0  0
  -19.3306  -28.2014   22.7285 C   0  0  1  0  0  0  0  0  0  0  0  0
  -22.4760  -26.7127   24.2527 C   0  0  1  0  0  0  0  0  0  0  0  0
  -31.1473  -15.5589   20.6882 C   0  0  2  0  0  0  0  0  0  0  0  0
  -23.6627  -17.6056   19.0677 C   0  0  2  0  0  0  0  0  0  0  0  0
  -25.0408  -33.0407   23.2795 C   0  0  0  0  0  0  0  0  0  0  0  0
  -24.4269  -26.8629   26.7949 C   0  0  0  0  0  0  0  0  0  0  0  0
  -24.9057  -29.2761   27.2591 C   0  0  0  0  0  0  0  0  0  0  0  0
  -26.6662  -27.8301   26.2430 C   0  0  0  0  0  0  0  0  0  0  0  0
  -26.6626  -30.3493   21.1342 C   0  0  0  0  0  0  0  0  0  0  0  0
  -23.4073  -14.0452   18.3678 C   0  0  0  0  0  0  0  0  0  0  0  0
  -27.7433  -11.6777   19.1485 C   0  0  0  0  0  0  0  0  0  0  0  0
  -23.1592  -18.5727   21.3021 C   0  0  0  0  0  0  0  0  0  0  0  0
  -22.3209  -19.6379   21.9807 C   0  0  0  0  0  0  0  0  0  1  0  0
  -24.6817  -28.5350   24.8442 C   0  0  1  0  0  0  0  0  0  0  0  0
  -25.6840  -31.6913   22.9997 C   0  0  2  0  0  0  0  0  0  0  0  0
  -25.1494  -28.1186   26.2673 C   0  0  0  0  0  0  0  0  0  0  0  0
  -30.2928  -17.8333   20.2647 N   0  0  0  0  0  0  0  0  0  0  0  0
  -26.0185  -11.6305   20.8477 N   0  0  0  0  0  0  0  0  0  0  0  0
  -30.7118  -16.9310   21.1682 N   0  0  0  0  0  0  0  0  0  0  0  0
  -23.8127  -26.5304   23.6727 N   0  0  0  0  0  0  0  0  0  0  0  0
  -30.8174  -13.7730   19.0177 N   0  0  0  0  0  0  0  0  0  0  0  0
  -23.8173  -15.4407   18.3356 N   0  0  1  0  0  0  0  0  0  0  0  0
  -31.0777  -16.6088   23.4862 N   0  0  0  0  0  0  0  0  0  0  0  0
  -29.5452  -20.8506   23.2531 N   0  0  0  0  0  0  0  0  0  0  0  0
  -20.3263  -27.6105   23.5968 N   0  0  0  0  0  0  0  0  0  0  0  0
  -25.3683  -29.7052   24.3081 N   0  0  0  0  0  0  0  0  0  0  0  0
  -28.6837  -12.7736   19.2222 N   0  0  0  0  0  0  0  0  0  0  0  0
  -22.8804  -18.5847   19.8439 N   0  3  0  0  0  0  0  0  0  0  0  0
  -26.0040  -31.6156   21.5461 N   0  3  0  0  0  0  0  0  0  0  0  0
  -30.2977  -19.2183   24.6772 O   0  0  0  0  0  0  0  0  0  0  0  0
  -22.0793  -27.5131   22.0671 O   0  0  0  0  0  0  0  0  0  0  0  0
  -25.9316  -27.3689   23.2026 O   0  0  0  0  0  0  0  0  0  0  0  0
  -23.6299  -30.4203   22.9504 O   0  0  0  0  0  0  0  0  0  0  0  0
  -30.4786  -11.5346   18.5150 O   0  0  0  0  0  0  0  0  0  0  0  0
  -28.0725  -23.5702   18.6195 O   0  0  0  0  0  0  0  0  0  0  0  0
  -22.6348  -20.9160   21.4293 O   0  0  0  0  0  0  0  0  0  1  0  0
  -30.2205  -28.3717   20.2736 F   0  0  0  0  0  0  0  0  0  0  0  0
  -29.3676  -25.2352   16.8326 F   0  0  0  0  0  0  0  0  0  0  0  0
  1  2  1  0  0  0  0
  1  5  2  0  0  0  0
  2  6  2  0  0  0  0
  3  8  2  0  0  0  0
  3 16  1  0  0  0  0
  4  9  1  0  0  0  0
  4 16  2  0  0  0  0
  5 18  1  0  0  0  0
  6 20  1  0  0  0  0
  7 10  2  0  0  0  0
  7 19  1  0  0  0  0
  8 24  1  0  0  0  0
  9 24  2  0  0  0  0
 10 25  1  0  0  0  0
 11 12  2  0  0  0  0
 11 26  1  0  0  0  0
 12 27  1  0  0  0  0
 13 21  1  0  0  0  0
 13 25  2  0  0  0  0
 14 23  1  0  0  0  0
 14 31  2  0  0  0  0
 15 27  2  0  0  0  0
 15 28  1  0  0  0  0
 16 29  1  0  0  0  0
 17 29  1  0  0  0  0
 17 32  2  0  0  0  0
 17 33  1  0  0  0  0
 18 20  2  0  0  0  0
 18 38  1  0  0  0  0
 19 21  2  0  0  0  0
 19 39  1  0  0  0  0
 20 53  1  0  0  0  0
 21 41  1  0  0  0  0
 22 23  2  0  0  0  0
 22 30  1  0  0  0  0
 22 40  1  0  0  0  0
 23 62  1  0  0  0  0
 24 87  1  0  0  0  0
 25 88  1  0  0  0  0
 26 28  2  0  0  0  0
 26 87  1  0  0  0  0
 27 89  1  0  0  0  0
 28 90  1  0  0  0  0
 29 69  2  0  0  0  0
 30 42  1  0  0  0  0
 30 70  2  0  0  0  0
 31 63  1  0  0  0  0
 31 70  1  0  0  0  0
 32 71  1  0  0  0  0
 32 75  1  0  0  0  0
 33 76  1  0  0  0  0
 33 82  2  0  0  0  0
 34 54  1  0  0  0  0
 34 77  1  0  0  0  0
 34 83  2  0  0  0  0
 35 66  1  0  0  0  0
 35 72  1  0  0  0  0
 35 84  2  0  0  0  0
 36 67  1  0  0  0  0
 36 78  1  0  0  0  0
 36 85  2  0  0  0  0
 37 73  1  0  0  0  0
 37 79  1  0  0  0  0
 37 86  2  0  0  0  0
 38 43  1  0  0  0  0
 39 54  1  0  0  0  0
 40 44  1  0  0  0  0
 41 72  1  0  0  0  0
 42 44  1  0  0  0  0
 43 46  1  0  0  0  0
 45 47  1  0  0  0  0
 45 49  1  0  0  0  0
 46 53  1  0  0  0  0
 47 55  1  0  0  0  0
 48 50  1  0  0  0  0
 48 56  1  0  0  0  0
 49 73  1  0  0  0  0
 50 74  1  0  0  0  0
 51 55  1  0  0  0  0
 51 73  1  0  0  0  0
 52 56  1  0  0  0  0
 52 74  1  0  0  0  0
 53 77  1  0  0  0  0
 54 72  1  0  0  0  0
 55 71  1  0  0  0  0
 56 80  1  0  0  0  0
 57 67  1  0  0  0  0
 58 68  1  0  0  0  0
 59 68  1  0  0  0  0
 60 68  1  0  0  0  0
 61 81  1  0  0  0  0
 62 74  1  0  0  0  0
 63 79  1  0  0  0  0
 64 65  1  0  0  0  0
 64 80  1  0  0  0  0
 65 88  1  0  0  0  0
 66 68  1  0  0  0  0
 66 78  1  0  0  0  0
 67 81  1  0  0  0  0
 69 71  1  0  0  0  0
M  CHG  2  80   1  81   1
M  ISO  4  37 100  65 101  79 100  88 101
M  END
> <Batch ID>
0197

> <Smiles>
CNC(C)C(=O)NC(C(=O)N1Cc2cc([101O:1][101CH2:1]CNC3CCN(Cc4cc(C[100NH:0][100C:0](=O)N5CCCC(n6nc(-c7ccc(Oc8ccc(F)cc8F)cc7)c(C(N)=O)c6N)C5)nc5c4CCC5)C3)ccc2CC1C(=O)NC1CCCc2ccccc21)C(C)(C)C

> <Shape>
0.283

> <Color>
0.064

> <Negative vol penalty>
0.000

$$$$

  -OEChem-04052323453D

 91101  0     1  0  0  0  0  0999 V2000
  -23.8247   -7.5580   25.1283 C   0  0  0  0  0  0  0  0  0  0  0  0
  -25.0543   -8.1502   24.8581 C   0  0  0  0  0  0  0  0  0  0  0  0
  -22.7223  -31.5134   22.6448 C   0  0  0  0  0  0  0  0  0  0  0  0
  -23.4388  -31.6291   24.9492 C   0  0  0  0  0  0  0  0  0  0  0  0
  -22.8051   -7.6067   24.1787 C   0  0  0  0  0  0  0  0  0  0  0  0
  -25.2652   -8.7906   23.6375 C   0  0  0  0  0  0  0  0  0  0  0  0
  -28.6776  -13.7766   22.6372 C   0  0  0  0  0  0  0  0  0  0  0  0
  -21.3904  -31.5118   23.0590 C   0  0  0  0  0  0  0  0  0  0  0  0
  -22.1068  -31.6275   25.3634 C   0  0  0  0  0  0  0  0  0  0  0  0
  -29.9786  -13.9435   22.1648 C   0  0  0  0  0  0  0  0  0  0  0  0
  -19.1791  -29.2917   24.3261 C   0  0  0  0  0  0  0  0  0  0  0  0
  -18.3155  -28.3759   23.7254 C   0  0  0  0  0  0  0  0  0  0  0  0
  -29.1179  -14.3090   19.9411 C   0  0  0  0  0  0  0  0  0  0  0  0
  -16.9423  -30.1955   22.9252 C   0  0  0  0  0  0  0  0  0  0  0  0
  -28.8047  -20.1906   19.7476 C   0  0  0  0  0  0  0  0  0  0  0  0
  -23.7466  -31.5720   23.5899 C   0  0  0  0  0  0  0  0  0  0  0  0
  -25.9177  -32.6945   22.8595 C   0  0  0  0  0  0  0  0  0  0  0  0
  -23.0005   -8.2563   22.9496 C   0  0  0  0  0  0  0  0  0  0  0  0
  -27.5857  -13.8640   21.7616 C   0  0  0  0  0  0  0  0  0  0  0  0
  -24.2477   -8.8468   22.6699 C   0  0  0  0  0  0  0  0  0  0  0  0
  -27.8038  -14.1453   20.4054 C   0  0  0  0  0  0  0  0  0  0  0  0
  -29.5368  -20.8525   18.7831 C   0  0  0  0  0  0  0  0  0  0  0  0
  -21.0826  -31.5689   24.4183 C   0  0  0  0  0  0  0  0  0  0  0  0
  -30.1991  -14.2069   20.8160 C   0  0  0  0  0  0  0  0  0  0  0  0
  -18.9243  -30.6596   24.2264 C   0  0  0  0  0  0  0  0  0  0  0  0
  -17.1971  -28.8277   23.0249 C   0  0  0  0  0  0  0  0  0  0  0  0
  -17.8059  -31.1114   23.5260 C   0  0  0  0  0  0  0  0  0  0  0  0
  -25.1226  -31.5731   23.1628 C   0  0  0  0  0  0  0  0  0  0  0  0
  -30.7255  -20.2530   18.4198 C   0  0  0  0  0  0  0  0  0  0  0  0
  -27.1361  -32.1667   22.5081 C   0  0  0  0  0  0  0  0  0  0  0  0
  -30.3707  -18.5484   19.8811 C   0  0  0  0  0  0  0  0  0  0  0  0
  -25.5847  -34.0887   22.8926 C   0  0  0  0  0  0  0  0  0  0  0  0
  -25.3024  -11.8645   20.8169 C   0  0  0  0  0  0  0  0  0  0  0  0
  -24.1548  -14.5014   19.3161 C   0  0  0  0  0  0  0  0  0  0  0  0
  -24.7846  -17.5738   17.9706 C   0  0  0  0  0  0  0  0  0  0  0  0
  -28.8145  -27.1300   20.2226 C   0  0  0  0  0  0  0  0  0  0  0  0
  -21.8842   -8.2421   21.9355 C   0  0  0  0  0  0  0  0  0  0  0  0
  -26.1868  -13.7080   22.2918 C   0  0  0  0  0  0  0  0  0  0  0  0
  -26.6646  -14.2691   19.4280 C   0  0  0  0  0  0  0  0  0  0  0  0
  -22.0646   -9.2648   20.8167 C   0  0  0  0  0  0  0  0  0  0  0  0
  -29.9580  -28.3909   23.2961 C   0  0  0  0  0  0  0  0  0  0  0  0
  -23.4900   -9.2180   20.2754 C   0  0  0  0  0  0  0  0  0  0  0  0
  -33.0694  -20.6033   17.3915 C   0  0  0  0  0  0  0  0  0  0  0  0
  -32.5707  -21.9536   17.8020 C   0  0  0  0  0  0  0  0  0  0  0  0
  -28.9161  -29.4705   23.5874 C   0  0  0  0  0  0  0  0  0  0  0  0
  -29.3266  -27.1291   22.7051 C   0  0  0  0  0  0  0  0  0  0  0  0
  -29.5284  -24.7968   20.9091 C   0  0  0  0  0  0  0  0  0  0  0  0
  -30.2219  -25.7376   18.7361 C   0  0  0  0  0  0  0  0  0  0  0  0
  -27.4468  -28.4597   21.8025 C   0  0  0  0  0  0  0  0  0  0  0  0
  -28.8887  -23.6071   20.2005 C   0  0  0  0  0  0  0  0  0  0  0  0
  -29.5733  -24.5795   17.9954 C   0  0  0  0  0  0  0  0  0  0  0  0
  -24.5067   -9.5722   21.3673 C   0  0  1  0  0  0  0  0  0  0  0  0
  -31.5920  -20.8899   17.3828 C   0  0  0  0  0  0  0  0  0  0  0  0
  -25.1814  -13.3079   21.2165 C   0  0  1  0  0  0  0  0  0  0  0  0
  -28.0593  -29.7613   22.3424 C   0  0  1  0  0  0  0  0  0  0  0  0
  -27.5198  -22.2507   18.1752 C   0  0  0  0  0  0  0  0  0  0  0  0
  -24.2973  -19.7988   16.9174 C   0  0  0  0  0  0  0  0  0  0  0  0
  -33.6927  -15.0064   20.9356 C   0  0  0  0  0  0  0  0  0  0  0  0
  -24.1192  -12.8665   16.7401 C   0  0  0  0  0  0  0  0  0  0  0  0
  -23.9113  -15.0106   15.4644 C   0  0  0  0  0  0  0  0  0  0  0  0
  -22.1241  -14.3380   17.0694 C   0  0  0  0  0  0  0  0  0  0  0  0
  -24.4076  -18.8687   20.6051 C   0  0  0  0  0  0  0  0  0  0  0  0
  -32.0374  -16.7038   20.0932 C   0  0  0  0  0  0  0  0  0  0  0  0
  -29.0429  -22.1483   18.1824 C   0  0  1  0  0  0  0  0  0  0  0  0
  -24.3542  -15.1306   17.9585 C   0  0  1  0  0  0  0  0  0  0  0  0
  -24.0769  -18.9073   18.1296 C   0  0  2  0  0  0  0  0  0  0  0  0
  -32.2328  -15.4354   20.9206 C   0  0  1  0  0  0  0  0  0  1  0  0
  -23.6490  -14.3322   16.8259 C   0  0  0  0  0  0  0  0  0  0  0  0
  -29.1931  -19.0323   20.3200 N   0  0  0  0  0  0  0  0  0  0  0  0
  -25.7805  -30.4199   23.0166 N   0  0  0  0  0  0  0  0  0  0  0  0
  -31.1748  -19.0968   18.9504 N   0  0  0  0  0  0  0  0  0  0  0  0
  -27.0018  -30.8139   22.6176 N   0  0  0  0  0  0  0  0  0  0  0  0
  -25.3156  -14.1022   19.9936 N   0  0  0  0  0  0  0  0  0  0  0  0
  -28.4866  -27.4610   21.5459 N   0  0  0  0  0  0  0  0  0  0  0  0
  -29.5770  -25.9690   20.0268 N   0  0  0  0  0  0  0  0  0  0  0  0
  -28.2984  -32.7325   22.1190 N   0  0  0  0  0  0  0  0  0  0  0  0
  -24.2881  -34.4570   23.2764 N   0  0  0  0  0  0  0  0  0  0  0  0
  -30.8092  -17.3371   20.4587 N   0  0  0  0  0  0  0  0  0  0  0  0
  -24.5398  -11.0030   21.5822 N   0  0  0  0  0  0  0  0  0  0  0  0
  -23.9088  -16.5145   18.0806 N   0  0  0  0  0  0  0  0  0  0  0  0
  -29.5890  -23.3591   18.8861 N   0  3  0  0  0  0  0  0  0  0  0  0
  -24.5822  -19.6213   19.3362 N   0  3  0  0  0  0  0  0  0  0  0  0
  -26.4076  -34.9806   22.5749 O   0  0  0  0  0  0  0  0  0  0  0  0
  -26.0325  -11.5555   19.8824 O   0  0  0  0  0  0  0  0  0  0  0  0
  -23.0117  -14.3754   19.7623 O   0  0  0  0  0  0  0  0  0  0  0  0
  -25.9928  -17.4812   17.7655 O   0  0  0  0  0  0  0  0  0  0  0  0
  -28.4466  -27.8307   19.2713 O   0  0  0  0  0  0  0  0  0  0  0  0
  -19.7831  -31.5676   24.8227 O   0  0  0  0  0  0  0  0  0  0  0  0
  -31.4752  -14.3705   20.3496 O   0  0  0  0  0  0  0  0  0  1  0  0
  -16.3687  -27.9481   22.4467 F   0  0  0  0  0  0  0  0  0  0  0  0
  -17.5566  -32.4243   23.4258 F   0  0  0  0  0  0  0  0  0  0  0  0
  1  2  1  0  0  0  0
  1  5  2  0  0  0  0
  2  6  2  0  0  0  0
  3  8  2  0  0  0  0
  3 16  1  0  0  0  0
  4  9  1  0  0  0  0
  4 16  2  0  0  0  0
  5 18  1  0  0  0  0
  6 20  1  0  0  0  0
  7 10  2  0  0  0  0
  7 19  1  0  0  0  0
  8 23  1  0  0  0  0
  9 23  2  0  0  0  0
 10 24  1  0  0  0  0
 11 12  2  0  0  0  0
 11 25  1  0  0  0  0
 12 26  1  0  0  0  0
 13 21  1  0  0  0  0
 13 24  2  0  0  0  0
 14 26  2  0  0  0  0
 14 27  1  0  0  0  0
 15 22  1  0  0  0  0
 15 69  2  0  0  0  0
 16 28  1  0  0  0  0
 17 28  1  0  0  0  0
 17 30  2  0  0  0  0
 17 32  1  0  0  0  0
 18 20  2  0  0  0  0
 18 37  1  0  0  0  0
 19 21  2  0  0  0  0
 19 38  1  0  0  0  0
 20 52  1  0  0  0  0
 21 39  1  0  0  0  0
 22 29  2  0  0  0  0
 22 64  1  0  0  0  0
 23 88  1  0  0  0  0
 24 89  1  0  0  0  0
 25 27  2  0  0  0  0
 25 88  1  0  0  0  0
 26 90  1  0  0  0  0
 27 91  1  0  0  0  0
 28 70  2  0  0  0  0
 29 53  1  0  0  0  0
 29 71  1  0  0  0  0
 30 72  1  0  0  0  0
 30 76  1  0  0  0  0
 31 69  1  0  0  0  0
 31 71  2  0  0  0  0
 31 78  1  0  0  0  0
 32 77  1  0  0  0  0
 32 83  2  0  0  0  0
 33 54  1  0  0  0  0
 33 79  1  0  0  0  0
 33 84  2  0  0  0  0
 34 65  1  0  0  0  0
 34 73  1  0  0  0  0
 34 85  2  0  0  0  0
 35 66  1  0  0  0  0
 35 80  1  0  0  0  0
 35 86  2  0  0  0  0
 36 74  1  0  0  0  0
 36 75  1  0  0  0  0
 36 87  2  0  0  0  0
 37 40  1  0  0  0  0
 38 54  1  0  0  0  0
 39 73  1  0  0  0  0
 40 42  1  0  0  0  0
 41 45  1  0  0  0  0
 41 46  1  0  0  0  0
 42 52  1  0  0  0  0
 43 44  1  0  0  0  0
 43 53  1  0  0  0  0
 44 53  1  0  0  0  0
 45 55  1  0  0  0  0
 46 74  1  0  0  0  0
 47 50  1  0  0  0  0
 47 75  1  0  0  0  0
 48 51  1  0  0  0  0
 48 75  1  0  0  0  0
 49 55  1  0  0  0  0
 49 74  1  0  0  0  0
 50 81  1  0  0  0  0
 51 81  1  0  0  0  0
 52 79  1  0  0  0  0
 54 73  1  0  0  0  0
 55 72  1  0  0  0  0
 56 64  1  0  0  0  0
 57 66  1  0  0  0  0
 58 67  1  0  0  0  0
 59 68  1  0  0  0  0
 60 68  1  0  0  0  0
 61 68  1  0  0  0  0
 62 82  1  0  0  0  0
 63 67  1  0  0  0  0
 63 78  1  0  0  0  0
 64 81  1  0  0  0  0
 65 68  1  0  0  0  0
 65 80  1  0  0  0  0
 66 82  1  0  0  0  0
 67 89  1  0  0  0  0
 70 72  1  0  0  0  0
M  CHG  2  81   1  82   1
M  ISO  4  36 100  67 101  75 100  89 101
M  END
> <Batch ID>
0197

> <Smiles>
CNC(C)C(=O)NC(C(=O)N1Cc2cc([101O:1][101CH:1](C)CNc3ncc(C(C)N4CC[100N:0]([100C:0](=O)N5CCCC(n6nc(-c7ccc(Oc8ccc(F)cc8F)cc7)c(C(N)=O)c6N)C5)CC4)c(C4CC4)n3)ccc2CC1C(=O)NC1CCCc2ccccc21)C(C)(C)C

> <Shape>
0.298

> <Color>
0.085

> <Negative vol penalty>
0.000

$$$$

  -OEChem-04052323453D

 86 95  0     1  0  0  0  0  0999 V2000
  -24.6293  -19.5394   21.3147 C   0  0  0  0  0  0  0  0  0  0  0  0
  -25.8239  -19.0142   21.7970 C   0  0  0  0  0  0  0  0  0  0  0  0
  -23.1734   -9.9054   19.9085 C   0  0  0  0  0  0  0  0  0  0  0  0
  -23.8536   -9.9383   22.2265 C   0  0  0  0  0  0  0  0  0  0  0  0
  -24.6145  -20.2446   20.1121 C   0  0  0  0  0  0  0  0  0  0  0  0
  -27.0042  -19.1930   21.0764 C   0  0  0  0  0  0  0  0  0  0  0  0
  -34.0497  -20.0688   22.0303 C   0  0  0  0  0  0  0  0  0  0  0  0
  -22.4425   -8.7400   20.1394 C   0  0  0  0  0  0  0  0  0  0  0  0
  -23.1226   -8.7730   22.4575 C   0  0  0  0  0  0  0  0  0  0  0  0
  -35.2678  -19.5353   21.6116 C   0  0  0  0  0  0  0  0  0  0  0  0
  -19.8907   -7.9189   22.9534 C   0  0  0  0  0  0  0  0  0  0  0  0
  -19.0947   -7.8712   24.0978 C   0  0  0  0  0  0  0  0  0  0  0  0
  -35.1357  -20.8391   19.5862 C   0  0  0  0  0  0  0  0  0  0  0  0
  -20.3451   -5.9608   24.8877 C   0  0  0  0  0  0  0  0  0  0  0  0
  -37.9848  -14.5327   19.4011 C   0  0  0  0  0  0  0  0  0  0  0  0
  -23.8790  -10.5045   20.9520 C   0  0  0  0  0  0  0  0  0  0  0  0
  -24.1786  -13.0349   20.8291 C   0  0  0  0  0  0  0  0  0  0  0  0
  -25.7968  -20.4405   19.3812 C   0  0  0  0  0  0  0  0  0  0  0  0
  -33.3590  -20.9847   21.2238 C   0  0  0  0  0  0  0  0  0  0  0  0
  -27.0049  -19.9004   19.8621 C   0  0  0  0  0  0  0  0  0  0  0  0
  -33.9103  -21.3847   19.9982 C   0  0  0  0  0  0  0  0  0  0  0  0
  -38.5576  -15.6936   18.9230 C   0  0  0  0  0  0  0  0  0  0  0  0
  -22.4171   -8.1738   21.4139 C   0  0  0  0  0  0  0  0  0  0  0  0
  -35.8096  -19.9182   20.3881 C   0  0  0  0  0  0  0  0  0  0  0  0
  -20.9139   -6.9876   22.7761 C   0  0  0  0  0  0  0  0  0  0  0  0
  -19.3219   -6.8921   25.0650 C   0  0  0  0  0  0  0  0  0  0  0  0
  -21.1411   -6.0085   23.7433 C   0  0  0  0  0  0  0  0  0  0  0  0
  -24.6347  -11.7080   20.7139 C   0  0  0  0  0  0  0  0  0  0  0  0
  -37.7130  -16.7807   18.8277 C   0  0  0  0  0  0  0  0  0  0  0  0
  -25.2688  -13.8024   20.4992 C   0  0  0  0  0  0  0  0  0  0  0  0
  -35.9686  -15.5590   19.6224 C   0  0  0  0  0  0  0  0  0  0  0  0
  -22.8853  -13.5294   21.2011 C   0  0  0  0  0  0  0  0  0  0  0  0
  -30.5278  -21.0117   19.7790 C   0  0  0  0  0  0  0  0  0  0  0  0
  -31.3472  -24.0725   19.0846 C   0  0  0  0  0  0  0  0  0  0  0  0
  -33.8223  -26.3806   18.6449 C   0  0  0  0  0  0  0  0  0  0  0  0
  -30.4827  -15.0638   20.7609 C   0  0  0  0  0  0  0  0  0  0  0  0
  -25.7229  -21.1690   18.0627 C   0  0  0  0  0  0  0  0  0  0  0  0
  -32.0591  -21.5713   21.7020 C   0  0  0  0  0  0  0  0  0  0  0  0
  -33.2183  -22.3802   19.1045 C   0  0  0  0  0  0  0  0  0  0  0  0
  -27.0819  -21.6363   17.5479 C   0  0  0  0  0  0  0  0  0  0  0  0
  -29.7091  -12.5285   18.4559 C   0  0  0  0  0  0  0  0  0  0  0  0
  -28.1098  -20.5148   17.6604 C   0  0  0  0  0  0  0  0  0  0  0  0
  -28.2714  -12.1895   18.8484 C   0  0  0  0  0  0  0  0  0  0  0  0
  -30.5939  -12.7754   19.6789 C   0  0  0  0  0  0  0  0  0  0  0  0
  -33.6434  -16.3473   19.3068 C   0  0  0  0  0  0  0  0  0  0  0  0
  -34.1187  -14.2098   20.5113 C   0  0  0  0  0  0  0  0  0  0  0  0
  -32.3782  -16.5164   20.1437 C   0  0  0  0  0  0  0  0  0  0  0  0
  -32.8533  -14.4229   21.3348 C   0  0  0  0  0  0  0  0  0  0  0  0
  -28.6190  -13.4503   21.0064 C   0  0  0  0  0  0  0  0  0  0  0  0
  -28.3102  -20.0947   19.1215 C   0  0  1  0  0  0  0  0  0  0  0  0
  -31.1912  -22.1057   20.5668 C   0  0  1  0  0  0  0  0  0  0  0  0
  -27.6920  -13.2542   19.7967 C   0  0  2  0  0  0  0  0  0  0  0  0
  -34.1850  -28.7901   18.0451 C   0  0  0  0  0  0  0  0  0  0  0  0
  -30.7932  -23.4241   16.1550 C   0  0  0  0  0  0  0  0  0  0  0  0
  -32.0525  -25.4960   15.5306 C   0  0  0  0  0  0  0  0  0  0  0  0
  -29.9744  -25.6667   16.9000 C   0  0  0  0  0  0  0  0  0  0  0  0
  -35.0999  -26.9575   21.2514 C   0  0  0  0  0  0  0  0  0  0  0  0
  -39.9925  -15.7433   18.5436 C   0  0  0  0  0  0  0  0  0  0  0  0
  -38.2237  -18.0913   18.3264 C   0  0  0  0  0  0  0  0  0  0  0  0
  -37.2473  -19.2448   18.5721 C   0  0  0  0  0  0  0  0  0  1  0  0
  -32.0824  -24.7524   17.9549 C   0  0  1  0  0  0  0  0  0  0  0  0
  -33.9887  -27.7928   19.1762 C   0  0  2  0  0  0  0  0  0  0  0  0
  -31.2380  -24.8146   16.6508 C   0  0  0  0  0  0  0  0  0  0  0  0
  -36.6887  -14.4295   19.7614 N   0  0  0  0  0  0  0  0  0  0  0  0
  -25.9147  -11.6333   20.3399 N   0  0  0  0  0  0  0  0  0  0  0  0
  -36.4083  -16.7487   19.1697 N   0  0  0  0  0  0  0  0  0  0  0  0
  -26.2724  -12.9229   20.2172 N   0  0  0  0  0  0  0  0  0  0  0  0
  -34.6183  -15.4886   19.9879 N   0  0  0  0  0  0  0  0  0  0  0  0
  -31.9468  -22.9206   19.6132 N   0  0  0  0  0  0  0  0  0  0  0  0
  -29.9815  -13.7671   20.5730 N   0  0  0  0  0  0  0  0  0  0  0  0
  -31.8685  -15.2352   20.6174 N   0  0  0  0  0  0  0  0  0  0  0  0
  -25.4573  -15.1372   20.4257 N   0  0  0  0  0  0  0  0  0  0  0  0
  -21.8791  -12.6035   21.5087 N   0  0  0  0  0  0  0  0  0  0  0  0
  -29.1470  -21.0522   19.8125 N   0  0  0  0  0  0  0  0  0  0  0  0
  -32.4945  -26.0566   18.4626 N   0  0  0  0  0  0  0  0  0  0  0  0
  -40.8945  -16.1285   19.6673 N   0  3  0  0  0  0  0  0  0  0  0  0
  -35.1703  -27.8699   20.0811 N   0  3  0  0  0  0  0  0  0  0  0  0
  -22.6248  -14.7557   21.2431 O   0  0  0  0  0  0  0  0  0  0  0  0
  -31.2176  -20.1923   19.1835 O   0  0  0  0  0  0  0  0  0  0  0  0
  -30.2838  -24.5501   19.4881 O   0  0  0  0  0  0  0  0  0  0  0  0
  -34.7752  -25.6403   18.4111 O   0  0  0  0  0  0  0  0  0  0  0  0
  -29.7387  -16.0131   21.0371 O   0  0  0  0  0  0  0  0  0  0  0  0
  -21.7038   -7.0368   21.6397 O   0  0  0  0  0  0  0  0  0  0  0  0
  -37.0215  -19.3883   19.9686 O   0  0  0  0  0  0  0  0  0  1  0  0
  -18.5584   -6.8473   26.1646 F   0  0  0  0  0  0  0  0  0  0  0  0
  -22.1233   -5.1118   23.5791 F   0  0  0  0  0  0  0  0  0  0  0  0
  1  2  1  0  0  0  0
  1  5  2  0  0  0  0
  2  6  2  0  0  0  0
  3  8  2  0  0  0  0
  3 16  1  0  0  0  0
  4  9  1  0  0  0  0
  4 16  2  0  0  0  0
  5 18  1  0  0  0  0
  6 20  1  0  0  0  0
  7 10  2  0  0  0  0
  7 19  1  0  0  0  0
  8 23  1  0  0  0  0
  9 23  2  0  0  0  0
 10 24  1  0  0  0  0
 11 12  2  0  0  0  0
 11 25  1  0  0  0  0
 12 26  1  0  0  0  0
 13 21  1  0  0  0  0
 13 24  2  0  0  0  0
 14 26  2  0  0  0  0
 14 27  1  0  0  0  0
 15 22  1  0  0  0  0
 15 64  2  0  0  0  0
 16 28  1  0  0  0  0
 17 28  1  0  0  0  0
 17 30  2  0  0  0  0
 17 32  1  0  0  0  0
 18 20  2  0  0  0  0
 18 37  1  0  0  0  0
 19 21  2  0  0  0  0
 19 38  1  0  0  0  0
 20 50  1  0  0  0  0
 21 39  1  0  0  0  0
 22 29  2  0  0  0  0
 22 58  1  0  0  0  0
 23 83  1  0  0  0  0
 24 84  1  0  0  0  0
 25 27  2  0  0  0  0
 25 83  1  0  0  0  0
 26 85  1  0  0  0  0
 27 86  1  0  0  0  0
 28 65  2  0  0  0  0
 29 59  1  0  0  0  0
 29 66  1  0  0  0  0
 30 67  1  0  0  0  0
 30 72  1  0  0  0  0
 31 64  1  0  0  0  0
 31 66  2  0  0  0  0
 31 68  1  0  0  0  0
 32 73  1  0  0  0  0
 32 78  2  0  0  0  0
 33 51  1  0  0  0  0
 33 74  1  0  0  0  0
 33 79  2  0  0  0  0
 34 61  1  0  0  0  0
 34 69  1  0  0  0  0
 34 80  2  0  0  0  0
 35 62  1  0  0  0  0
 35 75  1  0  0  0  0
 35 81  2  0  0  0  0
 36 70  1  0  0  0  0
 36 71  1  0  0  0  0
 36 82  2  0  0  0  0
 37 40  1  0  0  0  0
 38 51  1  0  0  0  0
 39 69  1  0  0  0  0
 40 42  1  0  0  0  0
 41 43  1  0  0  0  0
 41 44  1  0  0  0  0
 42 50  1  0  0  0  0
 43 52  1  0  0  0  0
 44 70  1  0  0  0  0
 45 47  1  0  0  0  0
 45 68  1  0  0  0  0
 46 48  1  0  0  0  0
 46 68  1  0  0  0  0
 47 71  1  0  0  0  0
 48 71  1  0  0  0  0
 49 52  1  0  0  0  0
 49 70  1  0  0  0  0
 50 74  1  0  0  0  0
 51 69  1  0  0  0  0
 52 67  1  0  0  0  0
 53 62  1  0  0  0  0
 54 63  1  0  0  0  0
 55 63  1  0  0  0  0
 56 63  1  0  0  0  0
 57 77  1  0  0  0  0
 58 76  1  0  0  0  0
 59 60  1  0  0  0  0
 60 84  1  0  0  0  0
 61 63  1  0  0  0  0
 61 75  1  0  0  0  0
 62 77  1  0  0  0  0
 65 67  1  0  0  0  0
M  CHG  2  76   1  77   1
M  ISO  4  36 100  60 101  71 100  84 101
M  END
> <Batch ID>
0197

> <Smiles>
CNC(C)C(=O)NC(C(=O)N1Cc2cc([101O:1][101CH2:1]Cc3nc(N4CC[100N:0]([100C:0](=O)N5CCCC(n6nc(-c7ccc(Oc8ccc(F)cc8F)cc7)c(C(N)=O)c6N)C5)CC4)ncc3CN)ccc2CC1C(=O)NC1CCCc2ccccc21)C(C)(C)C

> <Shape>
0.206

> <Color>
0.175

> <Negative vol penalty>
0.000

$$$$

  -OEChem-04052323453D

 85 94  0     1  0  0  0  0  0999 V2000
  -29.8306  -25.2760   17.4486 C   0  0  0  0  0  0  0  0  0  0  0  0
  -28.4486  -25.3824   17.5684 C   0  0  0  0  0  0  0  0  0  0  0  0
  -26.7014  -19.8100   20.3224 C   0  0  0  0  0  0  0  0  0  0  0  0
  -24.5997  -19.3388   19.2280 C   0  0  0  0  0  0  0  0  0  0  0  0
  -30.6544  -25.7065   18.4878 C   0  0  0  0  0  0  0  0  0  0  0  0
  -27.8897  -25.9184   18.7280 C   0  0  0  0  0  0  0  0  0  0  0  0
  -22.8192  -29.3290   19.1343 C   0  0  0  0  0  0  0  0  0  0  0  0
  -27.3595  -18.9776   19.4171 C   0  0  0  0  0  0  0  0  0  0  0  0
  -25.2578  -18.5064   18.3226 C   0  0  0  0  0  0  0  0  0  0  0  0
  -21.5028  -29.0161   19.4705 C   0  0  0  0  0  0  0  0  0  0  0  0
  -27.8238  -15.6599   18.9681 C   0  0  0  0  0  0  0  0  0  0  0  0
  -28.7629  -14.7633   19.4777 C   0  0  0  0  0  0  0  0  0  0  0  0
  -21.9271  -29.7012   21.7442 C   0  0  0  0  0  0  0  0  0  0  0  0
  -30.4804  -15.7944   18.1271 C   0  0  0  0  0  0  0  0  0  0  0  0
  -17.1977  -21.7618   21.8612 C   0  0  0  0  0  0  0  0  0  0  0  0
  -18.1756  -22.2474   23.7698 C   0  0  0  0  0  0  0  0  0  0  0  0
  -25.3215  -19.9905   20.2279 C   0  0  0  0  0  0  0  0  0  0  0  0
  -24.4008  -22.2305   21.0296 C   0  0  0  0  0  0  0  0  0  0  0  0
  -30.1056  -26.2570   19.6567 C   0  0  0  0  0  0  0  0  0  0  0  0
  -23.7040  -29.8208   20.1047 C   0  0  0  0  0  0  0  0  0  0  0  0
  -28.7069  -26.3555   19.7843 C   0  0  0  0  0  0  0  0  0  0  0  0
  -23.2535  -30.0219   21.4172 C   0  0  0  0  0  0  0  0  0  0  0  0
  -18.0482  -22.6983   22.4787 C   0  0  0  0  0  0  0  0  0  0  0  0
  -26.6377  -18.3258   18.4172 C   0  0  0  0  0  0  0  0  0  0  0  0
  -21.0574  -29.1995   20.7763 C   0  0  0  0  0  0  0  0  0  0  0  0
  -28.2129  -16.6238   18.0379 C   0  0  0  0  0  0  0  0  0  0  0  0
  -30.0912  -14.8306   19.0572 C   0  0  0  0  0  0  0  0  0  0  0  0
  -29.5412  -16.6910   17.6174 C   0  0  0  0  0  0  0  0  0  0  0  0
  -24.6410  -20.8498   21.1632 C   0  0  0  0  0  0  0  0  0  0  0  0
  -23.7261  -22.5741   22.1755 C   0  0  0  0  0  0  0  0  0  0  0  0
  -24.7558  -23.1226   19.9648 C   0  0  0  0  0  0  0  0  0  0  0  0
  -26.4388  -28.8056   21.3673 C   0  0  0  0  0  0  0  0  0  0  0  0
  -26.3862  -31.6999   22.8310 C   0  0  0  0  0  0  0  0  0  0  0  0
  -24.5469  -34.3490   23.9473 C   0  0  0  0  0  0  0  0  0  0  0  0
  -20.3128  -19.4624   25.9859 C   0  0  0  0  0  0  0  0  0  0  0  0
  -31.0347  -26.6651   20.7725 C   0  0  0  0  0  0  0  0  0  0  0  0
  -25.1133  -30.1787   19.7199 C   0  0  0  0  0  0  0  0  0  0  0  0
  -24.1579  -30.5663   22.4915 C   0  0  0  0  0  0  0  0  0  0  0  0
  -30.3768  -27.5668   21.8138 C   0  0  0  0  0  0  0  0  0  0  0  0
  -23.2554  -21.3090   26.7656 C   0  0  0  0  0  0  0  0  0  0  0  0
  -29.0150  -27.0107   22.2177 C   0  0  0  0  0  0  0  0  0  0  0  0
  -23.9225  -21.5253   25.4062 C   0  0  0  0  0  0  0  0  0  0  0  0
  -20.2567  -27.1613   22.7265 C   0  0  0  0  0  0  0  0  0  0  0  0
  -22.5834  -19.9405   26.8532 C   0  0  0  0  0  0  0  0  0  0  0  0
  -22.2980  -19.8639   24.4065 C   0  0  0  0  0  0  0  0  0  0  0  0
  -18.0659  -28.1112   22.5994 C   0  0  0  0  0  0  0  0  0  0  0  0
  -28.0637  -26.9543   21.0164 C   0  0  1  0  0  0  0  0  0  0  0  0
  -26.0726  -30.1880   20.9061 C   0  0  1  0  0  0  0  0  0  0  0  0
  -22.9413  -21.2524   24.2503 C   0  0  2  0  0  0  0  0  0  0  0  0
  -19.5327  -28.4676   22.4427 C   0  0  2  0  0  0  0  0  0  1  0  0
  -19.3826  -26.1238   22.0340 C   0  0  1  0  0  0  0  0  0  0  0  0
  -24.7787  -36.5464   25.1368 C   0  0  0  0  0  0  0  0  0  0  0  0
  -26.7309  -30.2265   25.4806 C   0  0  0  0  0  0  0  0  0  0  0  0
  -26.0104  -32.3161   26.6564 C   0  0  0  0  0  0  0  0  0  0  0  0
  -28.0825  -32.3199   25.2675 C   0  0  0  0  0  0  0  0  0  0  0  0
  -23.4795  -35.8482   21.6296 C   0  0  0  0  0  0  0  0  0  0  0  0
  -19.4891  -24.7304   22.6202 C   0  0  0  0  0  0  0  0  0  0  0  0
  -17.2458  -20.2762   25.0072 C   0  0  0  0  0  0  0  0  0  0  0  0
  -18.0960  -19.0092   24.9663 C   0  0  0  0  0  0  0  0  0  0  0  0
  -25.8271  -32.2318   24.1285 C   0  0  1  0  0  0  0  0  0  0  0  0
  -24.7376  -35.8465   23.7873 C   0  0  2  0  0  0  0  0  0  0  0  0
  -26.6460  -31.7615   25.3637 C   0  0  0  0  0  0  0  0  0  0  0  0
  -16.8121  -20.7893   22.6916 N   0  0  0  0  0  0  0  0  0  0  0  0
  -24.1583  -20.3505   22.3041 N   0  0  0  0  0  0  0  0  0  0  0  0
  -17.4232  -21.1122   23.8441 N   0  0  0  0  0  0  0  0  0  0  0  0
  -23.6081  -21.4232   22.8979 N   0  0  0  0  0  0  0  0  0  0  0  0
  -25.5288  -30.8953   22.0672 N   0  0  0  0  0  0  0  0  0  0  0  0
  -21.6645  -19.7453   25.7292 N   0  0  0  0  0  0  0  0  0  0  0  0
  -23.2282  -23.7453   22.6257 N   0  0  0  0  0  0  0  0  0  0  0  0
  -25.4474  -22.6043   18.8615 N   0  0  0  0  0  0  0  0  0  0  0  0
  -18.6338  -23.8308   21.9139 N   0  0  0  0  0  0  0  0  0  0  0  0
  -27.5393  -28.2713   20.7247 N   0  0  0  0  0  0  0  0  0  0  0  0
  -25.7527  -33.6809   23.9774 N   0  0  0  0  0  0  0  0  0  0  0  0
  -19.5092  -19.2980   24.8643 N   0  0  0  0  0  0  0  0  0  0  0  0
  -17.9863  -26.6568   22.2130 N   0  3  0  0  0  0  0  0  0  0  0  0
  -23.6213  -36.4285   22.9898 N   0  3  0  0  0  0  0  0  0  0  0  0
  -24.4826  -24.3464   19.9985 O   0  0  0  0  0  0  0  0  0  0  0  0
  -25.7731  -28.2645   22.2423 O   0  0  0  0  0  0  0  0  0  0  0  0
  -27.5387  -31.9936   22.5037 O   0  0  0  0  0  0  0  0  0  0  0  0
  -23.4392  -33.8248   24.0403 O   0  0  0  0  0  0  0  0  0  0  0  0
  -19.8550  -19.3689   27.1298 O   0  0  0  0  0  0  0  0  0  0  0  0
  -27.2796  -17.5137   17.5334 O   0  0  0  0  0  0  0  0  0  0  0  0
  -19.7732  -28.8944   21.1072 O   0  0  0  0  0  0  0  0  0  1  0  0
  -30.9932  -13.9705   19.5479 F   0  0  0  0  0  0  0  0  0  0  0  0
  -29.9213  -17.6156   16.7249 F   0  0  0  0  0  0  0  0  0  0  0  0
  1  2  1  0  0  0  0
  1  5  2  0  0  0  0
  2  6  2  0  0  0  0
  3  8  2  0  0  0  0
  3 17  1  0  0  0  0
  4  9  1  0  0  0  0
  4 17  2  0  0  0  0
  5 19  1  0  0  0  0
  6 21  1  0  0  0  0
  7 10  2  0  0  0  0
  7 20  1  0  0  0  0
  8 24  1  0  0  0  0
  9 24  2  0  0  0  0
 10 25  1  0  0  0  0
 11 12  2  0  0  0  0
 11 26  1  0  0  0  0
 12 27  1  0  0  0  0
 13 22  1  0  0  0  0
 13 25  2  0  0  0  0
 14 27  2  0  0  0  0
 14 28  1  0  0  0  0
 15 23  1  0  0  0  0
 15 63  2  0  0  0  0
 16 23  2  0  0  0  0
 16 65  1  0  0  0  0
 17 29  1  0  0  0  0
 18 29  1  0  0  0  0
 18 30  2  0  0  0  0
 18 31  1  0  0  0  0
 19 21  2  0  0  0  0
 19 36  1  0  0  0  0
 20 22  2  0  0  0  0
 20 37  1  0  0  0  0
 21 47  1  0  0  0  0
 22 38  1  0  0  0  0
 23 71  1  0  0  0  0
 24 82  1  0  0  0  0
 25 83  1  0  0  0  0
 26 28  2  0  0  0  0
 26 82  1  0  0  0  0
 27 84  1  0  0  0  0
 28 85  1  0  0  0  0
 29 64  2  0  0  0  0
 30 66  1  0  0  0  0
 30 69  1  0  0  0  0
 31 70  1  0  0  0  0
 31 77  2  0  0  0  0
 32 48  1  0  0  0  0
 32 72  1  0  0  0  0
 32 78  2  0  0  0  0
 33 60  1  0  0  0  0
 33 67  1  0  0  0  0
 33 79  2  0  0  0  0
 34 61  1  0  0  0  0
 34 73  1  0  0  0  0
 34 80  2  0  0  0  0
 35 68  1  0  0  0  0
 35 74  1  0  0  0  0
 35 81  2  0  0  0  0
 36 39  1  0  0  0  0
 37 48  1  0  0  0  0
 38 67  1  0  0  0  0
 39 41  1  0  0  0  0
 40 42  1  0  0  0  0
 40 44  1  0  0  0  0
 41 47  1  0  0  0  0
 42 49  1  0  0  0  0
 43 50  1  0  0  0  0
 43 51  1  0  0  0  0
 44 68  1  0  0  0  0
 45 49  1  0  0  0  0
 45 68  1  0  0  0  0
 46 50  1  0  0  0  0
 46 75  1  0  0  0  0
 47 72  1  0  0  0  0
 48 67  1  0  0  0  0
 49 66  1  0  0  0  0
 50 83  1  0  0  0  0
 51 57  1  0  0  0  0
 51 75  1  0  0  0  0
 52 61  1  0  0  0  0
 53 62  1  0  0  0  0
 54 62  1  0  0  0  0
 55 62  1  0  0  0  0
 56 76  1  0  0  0  0
 57 71  1  0  0  0  0
 58 59  1  0  0  0  0
 58 65  1  0  0  0  0
 59 74  1  0  0  0  0
 60 62  1  0  0  0  0
 60 73  1  0  0  0  0
 61 76  1  0  0  0  0
 63 65  1  0  0  0  0
 64 66  1  0  0  0  0
M  CHG  2  75   1  76   1
M  ISO  4  35 100  50 101  74 100  83 101
M  END
> <Batch ID>
0197

> <Smiles>
CNC(C)C(=O)NC(C(=O)N1Cc2cc([101O:1][101CH:1]3CNC(CNc4cnn(CC[100NH:0][100C:0](=O)N5CCCC(n6nc(-c7ccc(Oc8ccc(F)cc8F)cc7)c(C(N)=O)c6N)C5)c4)C3)ccc2CC1C(=O)NC1CCCc2ccccc21)C(C)(C)C

> <Shape>
0.246

> <Color>
0.063

> <Negative vol penalty>
0.000

$$$$

  -OEChem-04052323453D

 85 94  0     1  0  0  0  0  0999 V2000
  -26.9332  -37.8207   25.9569 C   0  0  0  0  0  0  0  0  0  0  0  0
  -27.6449  -37.1714   24.9532 C   0  0  0  0  0  0  0  0  0  0  0  0
  -25.0434   -9.3780   23.3785 C   0  0  0  0  0  0  0  0  0  0  0  0
  -23.3929   -8.9737   21.6611 C   0  0  0  0  0  0  0  0  0  0  0  0
  -26.0965  -37.0909   26.8003 C   0  0  0  0  0  0  0  0  0  0  0  0
  -27.5211  -35.7918   24.7931 C   0  0  0  0  0  0  0  0  0  0  0  0
  -27.5800  -30.7326   19.7218 C   0  0  0  0  0  0  0  0  0  0  0  0
  -24.3569   -8.5221   24.2398 C   0  0  0  0  0  0  0  0  0  0  0  0
  -22.7064   -8.1177   22.5224 C   0  0  0  0  0  0  0  0  0  0  0  0
  -28.1984  -29.5210   19.4163 C   0  0  0  0  0  0  0  0  0  0  0  0
  -22.9954   -4.9349   23.6208 C   0  0  0  0  0  0  0  0  0  0  0  0
  -22.5525   -3.7172   23.1046 C   0  0  0  0  0  0  0  0  0  0  0  0
  -26.6625  -28.3747   20.8813 C   0  0  0  0  0  0  0  0  0  0  0  0
  -20.2733   -4.3246   23.6273 C   0  0  0  0  0  0  0  0  0  0  0  0
  -28.5939  -24.1074   18.7500 C   0  0  0  0  0  0  0  0  0  0  0  0
  -24.5613   -9.6039   22.0892 C   0  0  0  0  0  0  0  0  0  0  0  0
  -26.2933  -10.1447   20.2961 C   0  0  0  0  0  0  0  0  0  0  0  0
  -25.9550  -35.7030   26.6442 C   0  0  0  0  0  0  0  0  0  0  0  0
  -26.5034  -30.7759   20.6192 C   0  0  0  0  0  0  0  0  0  0  0  0
  -26.6828  -35.0426   25.6360 C   0  0  0  0  0  0  0  0  0  0  0  0
  -26.0306  -29.5878   21.1945 C   0  0  0  0  0  0  0  0  0  0  0  0
  -28.6096  -24.8048   19.9728 C   0  0  0  0  0  0  0  0  0  0  0  0
  -23.1884   -7.8919   23.8117 C   0  0  0  0  0  0  0  0  0  0  0  0
  -27.7415  -28.3422   19.9983 C   0  0  0  0  0  0  0  0  0  0  0  0
  -22.0773   -5.8475   24.1403 C   0  0  0  0  0  0  0  0  0  0  0  0
  -21.1915   -3.4120   23.1078 C   0  0  0  0  0  0  0  0  0  0  0  0
  -20.7162   -5.5424   24.1435 C   0  0  0  0  0  0  0  0  0  0  0  0
  -25.2697  -10.4884   21.1993 C   0  0  0  0  0  0  0  0  0  0  0  0
  -29.5280  -24.1313   20.7405 C   0  0  0  0  0  0  0  0  0  0  0  0
  -26.6305  -11.3310   19.6916 C   0  0  0  0  0  0  0  0  0  0  0  0
  -26.8864   -8.8672   20.0275 C   0  0  0  0  0  0  0  0  0  0  0  0
  -25.9831  -32.1597   23.4331 C   0  0  0  0  0  0  0  0  0  0  0  0
  -22.9775  -31.0191   22.9997 C   0  0  0  0  0  0  0  0  0  0  0  0
  -20.9351  -28.7294   21.5056 C   0  0  0  0  0  0  0  0  0  0  0  0
  -27.8037  -16.5692   19.7678 C   0  0  0  0  0  0  0  0  0  0  0  0
  -25.0751  -34.9498   27.6103 C   0  0  0  0  0  0  0  0  0  0  0  0
  -25.8302  -32.0874   20.9177 C   0  0  0  0  0  0  0  0  0  0  0  0
  -24.8652  -29.5777   22.1486 C   0  0  0  0  0  0  0  0  0  0  0  0
  -24.7113  -33.5456   27.1350 C   0  0  0  0  0  0  0  0  0  0  0  0
  -24.3658  -15.8454   19.7810 C   0  0  0  0  0  0  0  0  0  0  0  0
  -25.9493  -32.8194   26.6184 C   0  0  0  0  0  0  0  0  0  0  0  0
  -24.3726  -14.3469   20.0819 C   0  0  0  0  0  0  0  0  0  0  0  0
  -25.4111  -16.6003   20.6041 C   0  0  0  0  0  0  0  0  0  0  0  0
  -27.3378  -18.8239   20.8279 C   0  0  0  0  0  0  0  0  0  0  0  0
  -28.7334  -18.6499   18.8006 C   0  0  0  0  0  0  0  0  0  0  0  0
  -26.7871  -14.5526   20.7850 C   0  0  0  0  0  0  0  0  0  0  0  0
  -28.4752  -19.5266   21.5621 C   0  0  0  0  0  0  0  0  0  0  0  0
  -29.8967  -19.3248   19.5089 C   0  0  0  0  0  0  0  0  0  0  0  0
  -26.5559  -33.5509   25.4149 C   0  0  1  0  0  0  0  0  0  0  0  0
  -25.0715  -32.0820   22.2413 C   0  0  1  0  0  0  0  0  0  0  0  0
  -25.7870  -13.7595   19.9297 C   0  0  1  0  0  0  0  0  0  0  0  0
  -29.9998  -24.3607   22.1193 C   0  0  0  0  0  0  0  0  0  0  0  0
  -18.5303  -28.0245   21.3738 C   0  0  0  0  0  0  0  0  0  0  0  0
  -23.2143  -29.7070   25.7442 C   0  0  0  0  0  0  0  0  0  0  0  0
  -21.2432  -28.2801   25.1549 C   0  0  0  0  0  0  0  0  0  0  0  0
  -20.9937  -30.7591   25.2789 C   0  0  0  0  0  0  0  0  0  0  0  0
  -20.8149  -29.2714   18.5986 C   0  0  0  0  0  0  0  0  0  0  0  0
  -27.8170  -25.9899   20.3405 C   0  0  0  0  0  0  0  0  0  1  0  0
  -30.9834  -22.1084   20.3271 C   0  0  0  0  0  0  0  0  0  0  0  0
  -30.4467  -21.0238   21.2519 C   0  0  0  0  0  0  0  0  0  0  0  0
  -22.2608  -29.7362   23.3450 C   0  0  1  0  0  0  0  0  0  0  0  0
  -19.6225  -28.8860   20.7593 C   0  0  2  0  0  0  0  0  0  0  0  0
  -21.9512  -29.6207   24.8643 C   0  0  0  0  0  0  0  0  0  0  0  0
  -29.4357  -23.0704   18.7371 N   0  0  0  0  0  0  0  0  0  0  0  0
  -24.9759  -11.7911   21.1742 N   0  0  0  0  0  0  0  0  0  0  0  0
  -29.9889  -23.1113   19.9612 N   0  0  0  0  0  0  0  0  0  0  0  0
  -25.8201  -12.2764   20.2481 N   0  0  0  0  0  0  0  0  0  0  0  0
  -24.2443  -30.8860   22.4137 N   0  0  0  0  0  0  0  0  0  0  0  0
  -26.7352  -15.9795   20.4597 N   0  0  0  0  0  0  0  0  0  0  0  0
  -27.8559  -17.9709   19.7514 N   0  0  0  0  0  0  0  0  0  0  0  0
  -27.5383  -11.6473   18.7438 N   0  0  0  0  0  0  0  0  0  0  0  0
  -26.4214   -7.7521   20.7379 N   0  0  0  0  0  0  0  0  0  0  0  0
  -25.7878  -33.2796   24.2188 N   0  0  0  0  0  0  0  0  0  0  0  0
  -21.0805  -29.6849   22.4891 N   0  0  0  0  0  0  0  0  0  0  0  0
  -29.3517  -20.2524   20.5698 N   0  3  0  0  0  0  0  0  0  0  0  0
  -19.7874  -28.4886   19.3324 N   0  3  0  0  0  0  0  0  0  0  0  0
  -27.8128   -8.7218   19.1944 O   0  0  0  0  0  0  0  0  0  0  0  0
  -26.8021  -31.2689   23.6265 O   0  0  0  0  0  0  0  0  0  0  0  0
  -22.4305  -32.0995   23.2346 O   0  0  0  0  0  0  0  0  0  0  0  0
  -21.7483  -27.8455   21.2450 O   0  0  0  0  0  0  0  0  0  0  0  0
  -28.6618  -15.8830   19.1983 O   0  0  0  0  0  0  0  0  0  0  0  0
  -22.5185   -7.0564   24.6517 O   0  0  0  0  0  0  0  0  0  0  0  0
  -28.3465  -27.1526   19.7009 O   0  0  0  0  0  0  0  0  0  1  0  0
  -20.7661   -2.2432   22.6107 F   0  0  0  0  0  0  0  0  0  0  0  0
  -19.8293   -6.4156   24.6401 F   0  0  0  0  0  0  0  0  0  0  0  0
  1  2  1  0  0  0  0
  1  5  2  0  0  0  0
  2  6  2  0  0  0  0
  3  8  2  0  0  0  0
  3 16  1  0  0  0  0
  4  9  1  0  0  0  0
  4 16  2  0  0  0  0
  5 18  1  0  0  0  0
  6 20  1  0  0  0  0
  7 10  2  0  0  0  0
  7 19  1  0  0  0  0
  8 23  1  0  0  0  0
  9 23  2  0  0  0  0
 10 24  1  0  0  0  0
 11 12  2  0  0  0  0
 11 25  1  0  0  0  0
 12 26  1  0  0  0  0
 13 21  1  0  0  0  0
 13 24  2  0  0  0  0
 14 26  2  0  0  0  0
 14 27  1  0  0  0  0
 15 22  1  0  0  0  0
 15 64  2  0  0  0  0
 16 28  1  0  0  0  0
 17 28  1  0  0  0  0
 17 30  2  0  0  0  0
 17 31  1  0  0  0  0
 18 20  2  0  0  0  0
 18 36  1  0  0  0  0
 19 21  2  0  0  0  0
 19 37  1  0  0  0  0
 20 49  1  0  0  0  0
 21 38  1  0  0  0  0
 22 29  2  0  0  0  0
 22 58  1  0  0  0  0
 23 82  1  0  0  0  0
 24 83  1  0  0  0  0
 25 27  2  0  0  0  0
 25 82  1  0  0  0  0
 26 84  1  0  0  0  0
 27 85  1  0  0  0  0
 28 65  2  0  0  0  0
 29 52  1  0  0  0  0
 29 66  1  0  0  0  0
 30 67  1  0  0  0  0
 30 71  1  0  0  0  0
 31 72  1  0  0  0  0
 31 77  2  0  0  0  0
 32 50  1  0  0  0  0
 32 73  1  0  0  0  0
 32 78  2  0  0  0  0
 33 61  1  0  0  0  0
 33 68  1  0  0  0  0
 33 79  2  0  0  0  0
 34 62  1  0  0  0  0
 34 74  1  0  0  0  0
 34 80  2  0  0  0  0
 35 69  1  0  0  0  0
 35 70  1  0  0  0  0
 35 81  2  0  0  0  0
 36 39  1  0  0  0  0
 37 50  1  0  0  0  0
 38 68  1  0  0  0  0
 39 41  1  0  0  0  0
 40 42  1  0  0  0  0
 40 43  1  0  0  0  0
 41 49  1  0  0  0  0
 42 51  1  0  0  0  0
 43 69  1  0  0  0  0
 44 47  1  0  0  0  0
 44 70  1  0  0  0  0
 45 48  1  0  0  0  0
 45 70  1  0  0  0  0
 46 51  1  0  0  0  0
 46 69  1  0  0  0  0
 47 75  1  0  0  0  0
 48 75  1  0  0  0  0
 49 73  1  0  0  0  0
 50 68  1  0  0  0  0
 51 67  1  0  0  0  0
 53 62  1  0  0  0  0
 54 63  1  0  0  0  0
 55 63  1  0  0  0  0
 56 63  1  0  0  0  0
 57 76  1  0  0  0  0
 58 83  1  0  0  0  0
 59 60  1  0  0  0  0
 59 66  1  0  0  0  0
 60 75  1  0  0  0  0
 61 63  1  0  0  0  0
 61 74  1  0  0  0  0
 62 76  1  0  0  0  0
 64 66  1  0  0  0  0
 65 67  1  0  0  0  0
M  CHG  2  75   1  76   1
M  ISO  4  35 100  58 101  70 100  83 101
M  END
> <Batch ID>
0197

> <Smiles>
CNC(C)C(=O)NC(C(=O)N1Cc2cc([101O:1][101CH2:1]c3cnn(CCN4CC[100N:0]([100C:0](=O)N5CCCC(n6nc(-c7ccc(Oc8ccc(F)cc8F)cc7)c(C(N)=O)c6N)C5)CC4)c3C)ccc2CC1C(=O)NC1CCCc2ccccc21)C(C)(C)C

> <Shape>
0.327

> <Color>
0.090

> <Negative vol penalty>
0.000

$$$$

  -OEChem-04052323453D

 82 91  0     1  0  0  0  0  0999 V2000
  -27.7204  -33.1580   25.7558 C   0  0  0  0  0  0  0  0  0  0  0  0
  -27.3806  -31.8180   25.6001 C   0  0  0  0  0  0  0  0  0  0  0  0
  -22.3857  -11.4887   20.1862 C   0  0  0  0  0  0  0  0  0  0  0  0
  -23.0245  -13.7202   20.8565 C   0  0  0  0  0  0  0  0  0  0  0  0
  -27.1352  -34.1239   24.9382 C   0  0  0  0  0  0  0  0  0  0  0  0
  -26.4544  -31.4432   24.6274 C   0  0  0  0  0  0  0  0  0  0  0  0
  -27.9360  -27.3763   21.9986 C   0  0  0  0  0  0  0  0  0  0  0  0
  -21.1115  -11.9518   19.8585 C   0  0  0  0  0  0  0  0  0  0  0  0
  -21.7502  -14.1834   20.5288 C   0  0  0  0  0  0  0  0  0  0  0  0
  -27.7853  -26.1328   22.6108 C   0  0  0  0  0  0  0  0  0  0  0  0
  -18.6632  -14.1687   21.9075 C   0  0  0  0  0  0  0  0  0  0  0  0
  -18.0314  -15.0221   22.8120 C   0  0  0  0  0  0  0  0  0  0  0  0
  -25.7679  -25.7593   21.3420 C   0  0  0  0  0  0  0  0  0  0  0  0
  -17.9207  -16.7385   21.1152 C   0  0  0  0  0  0  0  0  0  0  0  0
  -23.3422  -12.3729   20.6853 C   0  0  0  0  0  0  0  0  0  0  0  0
  -24.9863  -10.9090   21.9743 C   0  0  0  0  0  0  0  0  0  0  0  0
  -26.2086  -33.7597   23.9485 C   0  0  0  0  0  0  0  0  0  0  0  0
  -26.9963  -27.8260   21.0599 C   0  0  0  0  0  0  0  0  0  0  0  0
  -25.8552  -32.4053   23.7967 C   0  0  0  0  0  0  0  0  0  0  0  0
  -25.9103  -27.0078   20.7174 C   0  0  0  0  0  0  0  0  0  0  0  0
  -20.7937  -13.2992   20.0298 C   0  0  0  0  0  0  0  0  0  0  0  0
  -26.6996  -25.3254   22.2847 C   0  0  0  0  0  0  0  0  0  0  0  0
  -18.9239  -14.6002   20.6069 C   0  0  0  0  0  0  0  0  0  0  0  0
  -17.6601  -16.3070   22.4159 C   0  0  0  0  0  0  0  0  0  0  0  0
  -18.5526  -15.8851   20.2108 C   0  0  0  0  0  0  0  0  0  0  0  0
  -24.6585  -11.8950   21.0245 C   0  0  0  0  0  0  0  0  0  0  0  0
  -26.3558  -10.8206   21.9189 C   0  0  0  0  0  0  0  0  0  0  0  0
  -24.1294  -10.1416   22.8302 C   0  0  0  0  0  0  0  0  0  0  0  0
  -24.9907  -30.2866   20.8956 C   0  0  0  0  0  0  0  0  0  0  0  0
  -24.4614  -29.1537   17.9024 C   0  0  0  0  0  0  0  0  0  0  0  0
  -24.0369  -25.9271   16.3449 C   0  0  0  0  0  0  0  0  0  0  0  0
  -30.5394  -14.8051   20.0790 C   0  0  0  0  0  0  0  0  0  0  0  0
  -25.5670  -34.8446   23.1203 C   0  0  0  0  0  0  0  0  0  0  0  0
  -27.1876  -29.1584   20.3887 C   0  0  0  0  0  0  0  0  0  0  0  0
  -24.8846  -27.4356   19.7009 C   0  0  0  0  0  0  0  0  0  0  0  0
  -24.8756  -34.3229   21.8633 C   0  0  0  0  0  0  0  0  0  0  0  0
  -30.0449  -11.4214   18.9666 C   0  0  0  0  0  0  0  0  0  0  0  0
  -24.0164  -33.1063   22.1926 C   0  0  0  0  0  0  0  0  0  0  0  0
  -28.6215  -11.0863   19.3997 C   0  0  0  0  0  0  0  0  0  0  0  0
  -27.9928  -20.7306   19.8136 C   0  0  0  0  0  0  0  0  0  0  0  0
  -30.1624  -12.8876   18.5726 C   0  0  0  0  0  0  0  0  0  0  0  0
  -28.3416  -13.5063   20.1402 C   0  0  0  0  0  0  0  0  0  0  0  0
  -30.6358  -17.1838   20.9933 C   0  0  0  0  0  0  0  0  0  0  0  0
  -28.6918  -16.6421   20.3190 C   0  0  0  0  0  0  0  0  0  0  0  0
  -28.1862  -21.8164   20.8537 C   0  0  0  0  0  0  0  0  0  0  0  0
  -26.7972  -20.0171   21.7703 C   0  0  0  0  0  0  0  0  0  0  0  0
  -24.8733  -31.9566   22.7362 C   0  0  1  0  0  0  0  0  0  0  0  0
  -25.8921  -29.7360   19.8269 C   0  0  1  0  0  0  0  0  0  0  0  0
  -28.1689  -12.0241   20.5281 C   0  0  1  0  0  0  0  0  0  0  0  0
  -27.6950  -19.5031   20.6559 C   0  0  2  0  0  0  0  0  0  0  0  0
  -29.4641  -17.9685   20.3891 C   0  0  0  0  0  0  0  0  0  0  0  0
  -24.4988  -25.1761   13.9954 C   0  0  0  0  0  0  0  0  0  0  0  0
  -21.5180  -29.8008   17.4252 C   0  0  0  0  0  0  0  0  0  0  0  0
  -21.3851  -27.7817   15.9509 C   0  0  0  0  0  0  0  0  0  0  0  0
  -22.9062  -29.6651   15.3494 C   0  0  0  0  0  0  0  0  0  0  0  0
  -25.7929  -23.7312   17.2686 C   0  0  0  0  0  0  0  0  0  0  0  0
  -27.5004  -21.9338   23.2743 C   0  0  0  0  0  0  0  0  0  0  0  0
  -27.7379  -23.4311   23.2794 C   0  0  0  0  0  0  0  0  0  1  0  0
  -23.5058  -28.1588   17.2894 C   0  0  1  0  0  0  0  0  0  0  0  0
  -25.0190  -25.2264   15.4236 C   0  0  2  0  0  0  0  0  0  0  0  0
  -22.3374  -28.8492   16.5307 C   0  0  0  0  0  0  0  0  0  0  0  0
  -25.7333  -12.3971   20.4107 N   0  0  0  0  0  0  0  0  0  0  0  0
  -26.7498  -11.7241   20.9762 N   0  0  0  0  0  0  0  0  0  0  0  0
  -25.1120  -28.7495   19.0768 N   0  0  0  0  0  0  0  0  0  0  0  0
  -29.6929  -13.7837   19.6337 N   0  0  0  0  0  0  0  0  0  0  0  0
  -29.9688  -15.9774   20.5186 N   0  0  0  0  0  0  0  0  0  0  0  0
  -27.2495  -10.0591   22.5852 N   0  0  0  0  0  0  0  0  0  0  0  0
  -23.8212  -10.6520   24.0986 N   0  0  0  0  0  0  0  0  0  0  0  0
  -25.5653  -31.2873   21.6557 N   0  0  0  0  0  0  0  0  0  0  0  0
  -24.3156  -27.2725   16.4603 N   0  0  0  0  0  0  0  0  0  0  0  0
  -27.1343  -21.4970   21.8920 N   0  3  1  0  0  0  0  0  0  0  0  0
  -25.2576  -23.8300   15.8863 N   0  3  0  0  0  0  0  0  0  0  0  0
  -23.6645   -9.0282   22.4868 O   0  0  0  0  0  0  0  0  0  0  0  0
  -23.8572  -29.8378   21.0202 O   0  0  0  0  0  0  0  0  0  0  0  0
  -24.6300  -30.2464   17.3554 O   0  0  0  0  0  0  0  0  0  0  0  0
  -23.1125  -25.3403   16.9032 O   0  0  0  0  0  0  0  0  0  0  0  0
  -31.7719  -14.6884   20.0562 O   0  0  0  0  0  0  0  0  0  0  0  0
  -19.5505  -13.7515   19.7099 O   0  0  0  0  0  0  0  0  0  0  0  0
  -26.5487  -24.1028   22.8856 O   0  0  0  0  0  0  0  0  0  1  0  0
  -28.8953  -18.9908   21.2250 O   0  0  0  0  0  0  0  0  0  0  0  0
  -17.0520  -17.1258   23.2841 F   0  0  0  0  0  0  0  0  0  0  0  0
  -18.7993  -16.3048   18.9622 F   0  0  0  0  0  0  0  0  0  0  0  0
  1  2  1  0  0  0  0
  1  5  2  0  0  0  0
  2  6  2  0  0  0  0
  3  8  2  0  0  0  0
  3 15  1  0  0  0  0
  4  9  1  0  0  0  0
  4 15  2  0  0  0  0
  5 17  1  0  0  0  0
  6 19  1  0  0  0  0
  7 10  2  0  0  0  0
  7 18  1  0  0  0  0
  8 21  1  0  0  0  0
  9 21  2  0  0  0  0
 10 22  1  0  0  0  0
 11 12  2  0  0  0  0
 11 23  1  0  0  0  0
 12 24  1  0  0  0  0
 13 20  1  0  0  0  0
 13 22  2  0  0  0  0
 14 24  2  0  0  0  0
 14 25  1  0  0  0  0
 15 26  1  0  0  0  0
 16 26  1  0  0  0  0
 16 27  2  0  0  0  0
 16 28  1  0  0  0  0
 17 19  2  0  0  0  0
 17 33  1  0  0  0  0
 18 20  2  0  0  0  0
 18 34  1  0  0  0  0
 19 47  1  0  0  0  0
 20 35  1  0  0  0  0
 21 78  1  0  0  0  0
 22 79  1  0  0  0  0
 23 25  2  0  0  0  0
 23 78  1  0  0  0  0
 24 81  1  0  0  0  0
 25 82  1  0  0  0  0
 26 62  2  0  0  0  0
 27 63  1  0  0  0  0
 27 67  1  0  0  0  0
 28 68  1  0  0  0  0
 28 73  2  0  0  0  0
 29 48  1  0  0  0  0
 29 69  1  0  0  0  0
 29 74  2  0  0  0  0
 30 59  1  0  0  0  0
 30 64  1  0  0  0  0
 30 75  2  0  0  0  0
 31 60  1  0  0  0  0
 31 70  1  0  0  0  0
 31 76  2  0  0  0  0
 32 65  1  0  0  0  0
 32 66  1  0  0  0  0
 32 77  2  0  0  0  0
 33 36  1  0  0  0  0
 34 48  1  0  0  0  0
 35 64  1  0  0  0  0
 36 38  1  0  0  0  0
 37 39  1  0  0  0  0
 37 41  1  0  0  0  0
 38 47  1  0  0  0  0
 39 49  1  0  0  0  0
 40 45  1  0  0  0  0
 40 50  1  0  0  0  0
 41 65  1  0  0  0  0
 42 49  1  0  0  0  0
 42 65  1  0  0  0  0
 43 51  1  0  0  0  0
 43 66  1  0  0  0  0
 44 51  1  0  0  0  0
 44 66  1  0  0  0  0
 45 71  1  0  0  0  0
 46 50  1  0  0  0  0
 46 71  1  0  0  0  0
 47 69  1  0  0  0  0
 48 64  1  0  0  0  0
 49 63  1  0  0  0  0
 50 80  1  0  0  0  0
 51 80  1  0  0  0  0
 52 60  1  0  0  0  0
 53 61  1  0  0  0  0
 54 61  1  0  0  0  0
 55 61  1  0  0  0  0
 56 72  1  0  0  0  0
 57 58  1  0  0  0  0
 57 71  1  0  0  0  0
 58 79  1  0  0  0  0
 59 61  1  0  0  0  0
 59 70  1  0  0  0  0
 60 72  1  0  0  0  0
 62 63  1  0  0  0  0
M  CHG  2  71   1  72   1
M  ISO  4  32 100  58 101  66 100  79 101
M  END
> <Batch ID>
0197

> <Smiles>
CNC(C)C(=O)NC(C(=O)N1Cc2cc([101O:1][101CH2:1]CN3CCC(OC4C[100N:0]([100C:0](=O)N5CCCC(n6nc(-c7ccc(Oc8ccc(F)cc8F)cc7)c(C(N)=O)c6N)C5)C4)C3)ccc2CC1C(=O)NC1CCCc2ccccc21)C(C)(C)C

> <Shape>
0.250

> <Color>
0.068

> <Negative vol penalty>
0.000

$$$$

  -OEChem-04052323453D

 86 95  0     1  0  0  0  0  0999 V2000
  -23.1446  -18.7155   26.2074 C   0  0  0  0  0  0  0  0  0  0  0  0
  -24.1789  -19.3512   25.5280 C   0  0  0  0  0  0  0  0  0  0  0  0
  -24.0686  -13.2120   19.4765 C   0  0  0  0  0  0  0  0  0  0  0  0
  -25.2149  -14.0283   21.4403 C   0  0  0  0  0  0  0  0  0  0  0  0
  -21.8195  -19.0323   25.9114 C   0  0  0  0  0  0  0  0  0  0  0  0
  -23.8887  -20.3033   24.5515 C   0  0  0  0  0  0  0  0  0  0  0  0
  -27.1096  -25.3484   23.2560 C   0  0  0  0  0  0  0  0  0  0  0  0
  -24.9611  -12.1428   19.3999 C   0  0  0  0  0  0  0  0  0  0  0  0
  -26.1074  -12.9591   21.3638 C   0  0  0  0  0  0  0  0  0  0  0  0
  -28.0538  -25.6310   22.2700 C   0  0  0  0  0  0  0  0  0  0  0  0
  -28.9074  -10.6444   21.4761 C   0  0  0  0  0  0  0  0  0  0  0  0
  -30.2643  -10.9192   21.6459 C   0  0  0  0  0  0  0  0  0  0  0  0
  -26.3230  -26.6041   20.9000 C   0  0  0  0  0  0  0  0  0  0  0  0
  -30.2040  -12.3975   19.7359 C   0  0  0  0  0  0  0  0  0  0  0  0
  -29.7036  -22.9107   19.4929 C   0  0  0  0  0  0  0  0  0  0  0  0
  -29.3122  -22.4721   17.3689 C   0  0  0  0  0  0  0  0  0  0  0  0
  -24.1956  -14.1548   20.4966 C   0  0  0  0  0  0  0  0  0  0  0  0
  -22.0520  -15.2992   21.2732 C   0  0  0  0  0  0  0  0  0  0  0  0
  -21.5130  -19.9957   24.9375 C   0  0  0  0  0  0  0  0  0  0  0  0
  -25.7608  -25.6823   23.0666 C   0  0  0  0  0  0  0  0  0  0  0  0
  -22.5582  -20.6322   24.2412 C   0  0  0  0  0  0  0  0  0  0  0  0
  -25.3641  -26.3270   21.8863 C   0  0  0  0  0  0  0  0  0  0  0  0
  -25.9805  -12.0163   20.3436 C   0  0  0  0  0  0  0  0  0  0  0  0
  -27.6601  -26.2563   21.0905 C   0  0  0  0  0  0  0  0  0  0  0  0
  -28.1988  -11.2462   20.4361 C   0  0  0  0  0  0  0  0  0  0  0  0
  -30.9126  -11.7957   20.7759 C   0  0  0  0  0  0  0  0  0  0  0  0
  -28.8471  -12.1227   19.5661 C   0  0  0  0  0  0  0  0  0  0  0  0
  -23.2743  -15.2598   20.5759 C   0  0  0  0  0  0  0  0  0  0  0  0
  -28.5290  -22.2144   19.3312 C   0  0  0  0  0  0  0  0  0  0  0  0
  -21.5619  -16.5602   21.0361 C   0  0  0  0  0  0  0  0  0  0  0  0
  -21.4165  -14.2865   22.0646 C   0  0  0  0  0  0  0  0  0  0  0  0
  -23.0459  -24.0382   22.8941 C   0  0  0  0  0  0  0  0  0  0  0  0
  -21.7147  -26.9952   22.8158 C   0  0  0  0  0  0  0  0  0  0  0  0
  -22.0726  -30.3159   22.1145 C   0  0  0  0  0  0  0  0  0  0  0  0
  -24.3558  -21.7111   19.5000 C   0  0  0  0  0  0  0  0  0  0  0  0
  -20.0647  -20.2705   24.6187 C   0  0  0  0  0  0  0  0  0  0  0  0
  -24.7592  -25.3948   24.1512 C   0  0  0  0  0  0  0  0  0  0  0  0
  -23.9319  -26.7243   21.6427 C   0  0  0  0  0  0  0  0  0  0  0  0
  -19.8480  -21.5620   23.8342 C   0  0  0  0  0  0  0  0  0  0  0  0
  -21.6307  -20.0770   17.8256 C   0  0  0  0  0  0  0  0  0  0  0  0
  -20.8395  -21.6575   22.6789 C   0  0  0  0  0  0  0  0  0  0  0  0
  -21.6636  -18.6481   18.3580 C   0  0  0  0  0  0  0  0  0  0  0  0
  -23.0384  -20.6453   17.7059 C   0  0  0  0  0  0  0  0  0  0  0  0
  -26.3178  -22.6342   20.8401 C   0  0  0  0  0  0  0  0  0  0  0  0
  -26.5811  -20.5948   20.2946 C   0  0  0  0  0  0  0  0  0  0  0  0
  -23.8290  -19.2139   19.5713 C   0  0  0  0  0  0  0  0  0  0  0  0
  -22.2840  -21.6884   23.1927 C   0  0  1  0  0  0  0  0  0  0  0  0
  -27.5625  -21.7714   20.5235 C   0  0  0  0  0  0  0  0  0  0  0  0
  -23.3258  -25.3151   23.6349 C   0  0  1  0  0  0  0  0  0  0  0  0
  -22.4249  -18.5884   19.6902 C   0  0  2  0  0  0  0  0  0  0  0  0
  -20.7984  -32.4778   22.1150 C   0  0  0  0  0  0  0  0  0  0  0  0
  -29.4850  -29.7311   18.3884 C   0  0  0  0  0  0  0  0  0  0  0  0
  -20.2649  -26.1384   20.2714 C   0  0  0  0  0  0  0  0  0  0  0  0
  -19.7920  -28.5535   19.8109 C   0  0  0  0  0  0  0  0  0  0  0  0
  -18.8750  -27.4744   21.8646 C   0  0  0  0  0  0  0  0  0  0  0  0
  -23.9209  -31.5390   24.0757 C   0  0  0  0  0  0  0  0  0  0  0  0
  -31.4323  -23.7455   17.8577 C   0  0  0  0  0  0  0  0  0  0  0  0
  -31.2174  -25.1322   17.2656 C   0  0  0  0  0  0  0  0  0  0  0  0
  -30.3794  -27.4223   17.8059 C   0  0  0  0  0  0  0  0  0  0  0  0
  -28.3362  -27.6739   19.3046 C   0  0  0  0  0  0  0  0  0  1  0  0
  -21.3495  -27.9747   21.7267 C   0  0  1  0  0  0  0  0  0  0  0  0
  -21.7122  -31.5578   22.9096 C   0  0  2  0  0  0  0  0  0  0  0  0
  -29.6707  -28.2837   18.8575 C   0  0  2  0  0  0  0  0  0  0  0  0
  -20.0971  -27.5261   20.9219 C   0  0  0  0  0  0  0  0  0  0  0  0
  -28.2912  -21.9442   18.0068 N   0  0  0  0  0  0  0  0  0  0  0  0
  -23.5440  -16.4047   19.9431 N   0  0  0  0  0  0  0  0  0  0  0  0
  -30.1941  -23.0679   18.2272 N   0  0  0  0  0  0  0  0  0  0  0  0
  -22.4844  -17.1754   20.2419 N   0  0  0  0  0  0  0  0  0  0  0  0
  -22.9888  -26.4162   22.7304 N   0  0  0  0  0  0  0  0  0  0  0  0
  -23.7789  -20.5527   18.9676 N   0  0  0  0  0  0  0  0  0  0  0  0
  -25.5205  -21.5838   20.2222 N   0  0  0  0  0  0  0  0  0  0  0  0
  -20.4362  -17.1917   21.4316 N   0  0  0  0  0  0  0  0  0  0  0  0
  -22.0572  -13.0479   22.2045 N   0  0  0  0  0  0  0  0  0  0  0  0
  -22.6117  -23.0034   23.7005 N   0  0  0  0  0  0  0  0  0  0  0  0
  -21.2087  -29.2735   22.3761 N   0  0  0  0  0  0  0  0  0  0  0  0
  -22.9429  -32.3162   23.2717 N   0  3  0  0  0  0  0  0  0  0  0  0
  -30.5745  -26.0271   18.2668 N   0  3  0  0  0  0  0  0  0  0  0  0
  -20.3053  -14.4688   22.6173 O   0  0  0  0  0  0  0  0  0  0  0  0
  -23.2102  -23.9953   21.6805 O   0  0  0  0  0  0  0  0  0  0  0  0
  -20.9024  -26.7582   23.7133 O   0  0  0  0  0  0  0  0  0  0  0  0
  -23.0229  -30.2757   21.3362 O   0  0  0  0  0  0  0  0  0  0  0  0
  -23.8642  -22.8317   19.3109 O   0  0  0  0  0  0  0  0  0  0  0  0
  -26.8515  -10.9730   20.2693 O   0  0  0  0  0  0  0  0  0  0  0  0
  -28.5796  -26.5327   20.1261 O   0  0  0  0  0  0  0  0  0  1  0  0
  -32.2153  -12.0606   20.9400 F   0  0  0  0  0  0  0  0  0  0  0  0
  -28.1713  -12.7048   18.5659 F   0  0  0  0  0  0  0  0  0  0  0  0
  1  2  1  0  0  0  0
  1  5  2  0  0  0  0
  2  6  2  0  0  0  0
  3  8  2  0  0  0  0
  3 17  1  0  0  0  0
  4  9  1  0  0  0  0
  4 17  2  0  0  0  0
  5 19  1  0  0  0  0
  6 21  1  0  0  0  0
  7 10  2  0  0  0  0
  7 20  1  0  0  0  0
  8 23  1  0  0  0  0
  9 23  2  0  0  0  0
 10 24  1  0  0  0  0
 11 12  2  0  0  0  0
 11 25  1  0  0  0  0
 12 26  1  0  0  0  0
 13 22  1  0  0  0  0
 13 24  2  0  0  0  0
 14 26  2  0  0  0  0
 14 27  1  0  0  0  0
 15 29  2  0  0  0  0
 15 67  1  0  0  0  0
 16 65  2  0  0  0  0
 16 67  1  0  0  0  0
 17 28  1  0  0  0  0
 18 28  1  0  0  0  0
 18 30  2  0  0  0  0
 18 31  1  0  0  0  0
 19 21  2  0  0  0  0
 19 36  1  0  0  0  0
 20 22  2  0  0  0  0
 20 37  1  0  0  0  0
 21 47  1  0  0  0  0
 22 38  1  0  0  0  0
 23 83  1  0  0  0  0
 24 84  1  0  0  0  0
 25 27  2  0  0  0  0
 25 83  1  0  0  0  0
 26 85  1  0  0  0  0
 27 86  1  0  0  0  0
 28 66  2  0  0  0  0
 29 48  1  0  0  0  0
 29 65  1  0  0  0  0
 30 68  1  0  0  0  0
 30 72  1  0  0  0  0
 31 73  1  0  0  0  0
 31 78  2  0  0  0  0
 32 49  1  0  0  0  0
 32 74  1  0  0  0  0
 32 79  2  0  0  0  0
 33 61  1  0  0  0  0
 33 69  1  0  0  0  0
 33 80  2  0  0  0  0
 34 62  1  0  0  0  0
 34 75  1  0  0  0  0
 34 81  2  0  0  0  0
 35 70  1  0  0  0  0
 35 71  1  0  0  0  0
 35 82  2  0  0  0  0
 36 39  1  0  0  0  0
 37 49  1  0  0  0  0
 38 69  1  0  0  0  0
 39 41  1  0  0  0  0
 40 42  1  0  0  0  0
 40 43  1  0  0  0  0
 41 47  1  0  0  0  0
 42 50  1  0  0  0  0
 43 70  1  0  0  0  0
 44 48  1  0  0  0  0
 44 71  1  0  0  0  0
 45 48  1  0  0  0  0
 45 71  1  0  0  0  0
 46 50  1  0  0  0  0
 46 70  1  0  0  0  0
 47 74  1  0  0  0  0
 49 69  1  0  0  0  0
 50 68  1  0  0  0  0
 51 62  1  0  0  0  0
 52 63  1  0  0  0  0
 53 64  1  0  0  0  0
 54 64  1  0  0  0  0
 55 64  1  0  0  0  0
 56 76  1  0  0  0  0
 57 58  1  0  0  0  0
 57 67  1  0  0  0  0
 58 77  1  0  0  0  0
 59 63  1  0  0  0  0
 59 77  1  0  0  0  0
 60 63  1  0  0  0  0
 60 84  1  0  0  0  0
 61 64  1  0  0  0  0
 61 75  1  0  0  0  0
 62 76  1  0  0  0  0
 66 68  1  0  0  0  0
M  CHG  2  76   1  77   1
M  ISO  4  35 100  60 101  71 100  84 101
M  END
> <Batch ID>
0197

> <Smiles>
CNC(C)C(=O)NC(C(=O)N1Cc2cc([101O:1][101CH2:1]C(C)CNCCn3cnc(C4C[100N:0]([100C:0](=O)N5CCCC(n6nc(-c7ccc(Oc8ccc(F)cc8F)cc7)c(C(N)=O)c6N)C5)C4)c3)ccc2CC1C(=O)NC1CCCc2ccccc21)C(C)(C)C

> <Shape>
0.194

> <Color>
0.071

> <Negative vol penalty>
0.000

$$$$

  -OEChem-04052323453D

 90 99  0     1  0  0  0  0  0999 V2000
  -34.5928  -12.4083   17.0909 C   0  0  0  0  0  0  0  0  0  0  0  0
  -33.8772  -13.5394   17.4704 C   0  0  0  0  0  0  0  0  0  0  0  0
  -21.9384  -31.0115   25.2557 C   0  0  0  0  0  0  0  0  0  0  0  0
  -21.6680  -32.4889   23.3633 C   0  0  0  0  0  0  0  0  0  0  0  0
  -33.9146  -11.2556   16.6966 C   0  0  0  0  0  0  0  0  0  0  0  0
  -32.4830  -13.5188   17.4548 C   0  0  0  0  0  0  0  0  0  0  0  0
  -30.4629  -15.5795   21.6162 C   0  0  0  0  0  0  0  0  0  0  0  0
  -22.7402  -31.9639   25.8847 C   0  0  0  0  0  0  0  0  0  0  0  0
  -22.4697  -33.4414   23.9923 C   0  0  0  0  0  0  0  0  0  0  0  0
  -30.4344  -16.9716   21.6878 C   0  0  0  0  0  0  0  0  0  0  0  0
  -24.7390  -36.1167   24.9426 C   0  0  0  0  0  0  0  0  0  0  0  0
  -25.7205  -36.7458   24.1768 C   0  0  0  0  0  0  0  0  0  0  0  0
  -28.1163  -16.9524   21.0204 C   0  0  0  0  0  0  0  0  0  0  0  0
  -26.7510  -34.6049   23.7390 C   0  0  0  0  0  0  0  0  0  0  0  0
  -28.6112  -24.6436   18.9135 C   0  0  0  0  0  0  0  0  0  0  0  0
  -21.4023  -31.2740   23.9949 C   0  0  0  0  0  0  0  0  0  0  0  0
  -19.3609  -29.7547   23.8157 C   0  0  0  0  0  0  0  0  0  0  0  0
  -32.5114  -11.2178   16.6854 C   0  0  0  0  0  0  0  0  0  0  0  0
  -29.3195  -14.8628   21.2349 C   0  0  0  0  0  0  0  0  0  0  0  0
  -31.7855  -12.3650   17.0587 C   0  0  0  0  0  0  0  0  0  0  0  0
  -28.1322  -15.5511   20.9472 C   0  0  0  0  0  0  0  0  0  0  0  0
  -28.6408  -25.6034   19.9046 C   0  0  0  0  0  0  0  0  0  0  0  0
  -23.0058  -33.1789   25.2531 C   0  0  0  0  0  0  0  0  0  0  0  0
  -29.2618  -17.6584   21.3871 C   0  0  0  0  0  0  0  0  0  0  0  0
  -24.7635  -34.7317   25.1067 C   0  0  0  0  0  0  0  0  0  0  0  0
  -26.7265  -35.9899   23.5749 C   0  0  0  0  0  0  0  0  0  0  0  0
  -25.7695  -33.9758   24.5048 C   0  0  0  0  0  0  0  0  0  0  0  0
  -20.5745  -30.2903   23.3444 C   0  0  0  0  0  0  0  0  0  0  0  0
  -29.0446  -25.1644   21.1490 C   0  0  0  0  0  0  0  0  0  0  0  0
  -18.9749  -28.8685   22.8400 C   0  0  0  0  0  0  0  0  0  0  0  0
  -29.3245  -23.0484   20.3673 C   0  0  0  0  0  0  0  0  0  0  0  0
  -18.6465  -30.0335   25.0271 C   0  0  0  0  0  0  0  0  0  0  0  0
  -28.5896  -12.9186   18.8285 C   0  0  0  0  0  0  0  0  0  0  0  0
  -25.8323  -12.5293   20.4922 C   0  0  0  0  0  0  0  0  0  0  0  0
  -23.6238  -13.7803   22.7736 C   0  0  0  0  0  0  0  0  0  0  0  0
  -23.3151  -29.3953   19.6703 C   0  0  0  0  0  0  0  0  0  0  0  0
  -31.8228   -9.9644   16.2063 C   0  0  0  0  0  0  0  0  0  0  0  0
  -29.3591  -13.3600   21.1884 C   0  0  0  0  0  0  0  0  0  0  0  0
  -26.8717  -14.8274   20.5525 C   0  0  0  0  0  0  0  0  0  0  0  0
  -30.3430   -9.9031   16.5761 C   0  0  0  0  0  0  0  0  0  0  0  0
  -19.9717  -29.8718   18.6961 C   0  0  0  0  0  0  0  0  0  0  0  0
  -29.6589  -11.2298   16.2621 C   0  0  0  0  0  0  0  0  0  0  0  0
  -19.1876  -28.8065   19.4576 C   0  0  0  0  0  0  0  0  0  0  0  0
  -21.3108  -29.3260   18.2220 C   0  0  0  0  0  0  0  0  0  0  0  0
  -24.4432  -27.1467   19.9431 C   0  0  0  0  0  0  0  0  0  0  0  0
  -21.4265  -27.7498   20.1327 C   0  0  0  0  0  0  0  0  0  0  0  0
  -25.7903  -26.8367   19.3038 C   0  0  0  0  0  0  0  0  0  0  0  0
  -26.7584  -28.8751   20.3654 C   0  0  0  0  0  0  0  0  0  0  0  0
  -30.2724  -12.3736   17.0786 C   0  0  1  0  0  0  0  0  0  0  0  0
  -28.2807  -12.7613   20.2905 C   0  0  1  0  0  0  0  0  0  0  0  0
  -19.9983  -28.1348   20.5798 C   0  0  1  0  0  0  0  0  0  0  0  0
  -25.4048  -29.1982   20.9997 C   0  0  2  0  0  0  0  0  0  0  0  0
  -29.1183  -26.1159   22.2975 C   0  0  0  0  0  0  0  0  0  0  0  0
  -21.4450  -13.2519   23.9009 C   0  0  0  0  0  0  0  0  0  0  0  0
  -26.3589  -29.5598   23.3041 C   0  0  0  0  0  0  0  0  0  0  0  0
  -24.3341  -13.2749   17.9408 C   0  0  0  0  0  0  0  0  0  0  0  0
  -22.2903  -13.6569   19.3355 C   0  0  0  0  0  0  0  0  0  0  0  0
  -23.3210  -11.3877   19.2318 C   0  0  0  0  0  0  0  0  0  0  0  0
  -24.8776  -13.7808   25.4544 C   0  0  0  0  0  0  0  0  0  0  0  0
  -28.2549  -27.0252   19.6207 C   0  0  0  0  0  0  0  0  0  0  0  0
  -30.1051  -21.2348   21.8929 C   0  0  0  0  0  0  0  0  0  0  0  0
  -30.4051  -19.7463   21.8372 C   0  0  0  0  0  0  0  0  0  1  0  0
  -24.4917  -13.2231   20.5173 C   0  0  1  0  0  0  0  0  0  0  0  0
  -22.9600  -13.1489   23.9840 C   0  0  2  0  0  0  0  0  0  0  0  0
  -25.3345  -28.8045   22.4782 C   0  0  1  0  0  0  0  0  0  0  0  0
  -23.6334  -12.8997   19.2619 C   0  0  0  0  0  0  0  0  0  0  0  0
  -28.9478  -23.3520   19.1106 N   0  0  0  0  0  0  0  0  0  0  0  0
  -20.9357  -29.7863   22.1613 N   0  0  0  0  0  0  0  0  0  0  0  0
  -29.3947  -23.8893   21.4169 N   0  0  0  0  0  0  0  0  0  0  0  0
  -19.9431  -28.9246   21.8811 N   0  0  0  0  0  0  0  0  0  0  0  0
  -26.9627  -13.3584   20.5152 N   0  0  0  0  0  0  0  0  0  0  0  0
  -22.0933  -28.7894   19.3342 N   0  0  0  0  0  0  0  0  0  0  0  0
  -24.3008  -28.5782   20.2464 N   0  0  0  0  0  0  0  0  0  0  0  0
  -17.9050  -28.0543   22.7173 N   0  0  0  0  0  0  0  0  0  0  0  0
  -17.6947  -31.0623   25.0198 N   0  0  0  0  0  0  0  0  0  0  0  0
  -29.6848  -21.7047   20.6103 N   0  0  0  0  0  0  0  0  0  0  0  0
  -29.7835  -12.3413   18.4404 N   0  0  0  0  0  0  0  0  0  0  0  0
  -23.8644  -12.8534   21.7815 N   0  0  0  0  0  0  0  0  0  0  0  0
  -26.8994  -27.3872   20.1622 N   0  3  2  0  0  0  0  0  0  0  0  0
  -23.4092  -13.8260   25.2333 N   0  3  0  0  0  0  0  0  0  0  0  0
  -18.8578  -29.4002   26.0891 O   0  0  0  0  0  0  0  0  0  0  0  0
  -27.8022  -13.5180   18.1057 O   0  0  0  0  0  0  0  0  0  0  0  0
  -25.8748  -11.2969   20.4609 O   0  0  0  0  0  0  0  0  0  0  0  0
  -23.8979  -14.9768   22.7127 O   0  0  0  0  0  0  0  0  0  0  0  0
  -23.5079  -30.6033   19.4821 O   0  0  0  0  0  0  0  0  0  0  0  0
  -24.0292  -29.0836   22.9651 O   0  0  0  0  0  0  0  0  0  0  0  0
  -23.7879  -34.1086   25.8667 O   0  0  0  0  0  0  0  0  0  0  0  0
  -29.2309  -19.0402   21.4568 O   0  0  0  0  0  0  0  0  0  1  0  0
  -27.6681  -36.5939   22.8382 F   0  0  0  0  0  0  0  0  0  0  0  0
  -25.7976  -32.6448   24.6579 F   0  0  0  0  0  0  0  0  0  0  0  0
  1  2  1  0  0  0  0
  1  5  2  0  0  0  0
  2  6  2  0  0  0  0
  3  8  2  0  0  0  0
  3 16  1  0  0  0  0
  4  9  1  0  0  0  0
  4 16  2  0  0  0  0
  5 18  1  0  0  0  0
  6 20  1  0  0  0  0
  7 10  2  0  0  0  0
  7 19  1  0  0  0  0
  8 23  1  0  0  0  0
  9 23  2  0  0  0  0
 10 24  1  0  0  0  0
 11 12  2  0  0  0  0
 11 25  1  0  0  0  0
 12 26  1  0  0  0  0
 13 21  1  0  0  0  0
 13 24  2  0  0  0  0
 14 26  2  0  0  0  0
 14 27  1  0  0  0  0
 15 22  1  0  0  0  0
 15 67  2  0  0  0  0
 16 28  1  0  0  0  0
 17 28  1  0  0  0  0
 17 30  2  0  0  0  0
 17 32  1  0  0  0  0
 18 20  2  0  0  0  0
 18 37  1  0  0  0  0
 19 21  2  0  0  0  0
 19 38  1  0  0  0  0
 20 49  1  0  0  0  0
 21 39  1  0  0  0  0
 22 29  2  0  0  0  0
 22 60  1  0  0  0  0
 23 87  1  0  0  0  0
 24 88  1  0  0  0  0
 25 27  2  0  0  0  0
 25 87  1  0  0  0  0
 26 89  1  0  0  0  0
 27 90  1  0  0  0  0
 28 68  2  0  0  0  0
 29 53  1  0  0  0  0
 29 69  1  0  0  0  0
 30 70  1  0  0  0  0
 30 74  1  0  0  0  0
 31 67  1  0  0  0  0
 31 69  2  0  0  0  0
 31 76  1  0  0  0  0
 32 75  1  0  0  0  0
 32 81  2  0  0  0  0
 33 50  1  0  0  0  0
 33 77  1  0  0  0  0
 33 82  2  0  0  0  0
 34 63  1  0  0  0  0
 34 71  1  0  0  0  0
 34 83  2  0  0  0  0
 35 64  1  0  0  0  0
 35 78  1  0  0  0  0
 35 84  2  0  0  0  0
 36 72  1  0  0  0  0
 36 73  1  0  0  0  0
 36 85  2  0  0  0  0
 37 40  1  0  0  0  0
 38 50  1  0  0  0  0
 39 71  1  0  0  0  0
 40 42  1  0  0  0  0
 41 43  1  0  0  0  0
 41 44  1  0  0  0  0
 42 49  1  0  0  0  0
 43 51  1  0  0  0  0
 44 72  1  0  0  0  0
 45 47  1  0  0  0  0
 45 73  1  0  0  0  0
 46 51  1  0  0  0  0
 46 72  1  0  0  0  0
 47 79  1  0  0  0  0
 48 52  1  0  0  0  0
 48 79  1  0  0  0  0
 49 77  1  0  0  0  0
 50 71  1  0  0  0  0
 51 70  1  0  0  0  0
 52 65  1  0  0  0  0
 52 73  1  0  0  0  0
 54 64  1  0  0  0  0
 55 65  1  0  0  0  0
 56 66  1  0  0  0  0
 57 66  1  0  0  0  0
 58 66  1  0  0  0  0
 59 80  1  0  0  0  0
 60 79  1  0  0  0  0
 61 62  1  0  0  0  0
 61 76  1  0  0  0  0
 62 88  1  0  0  0  0
 63 66  1  0  0  0  0
 63 78  1  0  0  0  0
 64 80  1  0  0  0  0
 65 86  1  0  0  0  0
 68 70  1  0  0  0  0
M  CHG  2  79   1  80   1
M  ISO  4  36 100  62 101  73 100  88 101
M  END
> <Batch ID>
0197

> <Smiles>
CNC(C)C(=O)NC(C(=O)N1Cc2cc([101O:1][101CH2:1]CNc3ncc(CN4CC[100N:0]([100C:0](=O)N5CCCC(n6nc(-c7ccc(Oc8ccc(F)cc8F)cc7)c(C(N)=O)c6N)C5)C(C(C)O)C4)c(C)n3)ccc2CC1C(=O)NC1CCCc2ccccc21)C(C)(C)C

> <Shape>
0.321

> <Color>
0.054

> <Negative vol penalty>
0.000

$$$$

  -OEChem-04052323453D

 87 97  0     1  0  0  0  0  0999 V2000
  -27.3889  -27.2385   11.1834 C   0  0  0  0  0  0  0  0  0  0  0  0
  -26.9240  -27.9563   12.2807 C   0  0  0  0  0  0  0  0  0  0  0  0
  -23.3267  -16.9477   19.3483 C   0  0  0  0  0  0  0  0  0  0  0  0
  -23.2041  -17.7013   21.6405 C   0  0  0  0  0  0  0  0  0  0  0  0
  -27.4509  -25.8467   11.2377 C   0  0  0  0  0  0  0  0  0  0  0  0
  -26.5198  -27.2825   13.4327 C   0  0  0  0  0  0  0  0  0  0  0  0
  -27.1540  -29.1797   19.2210 C   0  0  0  0  0  0  0  0  0  0  0  0
  -24.2542  -15.9738   19.7181 C   0  0  0  0  0  0  0  0  0  0  0  0
  -24.1316  -16.7273   22.0103 C   0  0  0  0  0  0  0  0  0  0  0  0
  -26.2738  -29.8001   20.1065 C   0  0  0  0  0  0  0  0  0  0  0  0
  -24.2173  -12.9296   21.1892 C   0  0  0  0  0  0  0  0  0  0  0  0
  -24.0407  -11.6413   20.6844 C   0  0  0  0  0  0  0  0  0  0  0  0
  -25.7307  -27.6525   21.0616 C   0  0  0  0  0  0  0  0  0  0  0  0
  -26.2046  -11.7631   19.6168 C   0  0  0  0  0  0  0  0  0  0  0  0
  -22.8016  -17.8115   20.3095 C   0  0  0  0  0  0  0  0  0  0  0  0
  -20.4424  -18.6892   19.8957 C   0  0  0  0  0  0  0  0  0  0  0  0
  -27.0564  -25.1561   12.3945 C   0  0  0  0  0  0  0  0  0  0  0  0
  -27.3213  -27.7876   19.2418 C   0  0  0  0  0  0  0  0  0  0  0  0
  -26.5753  -25.8801   13.5021 C   0  0  0  0  0  0  0  0  0  0  0  0
  -26.6155  -27.0172   20.1770 C   0  0  0  0  0  0  0  0  0  0  0  0
  -24.6567  -15.8636   21.0491 C   0  0  0  0  0  0  0  0  0  0  0  0
  -25.5598  -29.0362   21.0250 C   0  0  0  0  0  0  0  0  0  0  0  0
  -25.3875  -13.6346   20.9077 C   0  0  0  0  0  0  0  0  0  0  0  0
  -25.0344  -11.0581   19.8982 C   0  0  0  0  0  0  0  0  0  0  0  0
  -26.3812  -13.0514   20.1216 C   0  0  0  0  0  0  0  0  0  0  0  0
  -21.8439  -18.8181   19.9281 C   0  0  0  0  0  0  0  0  0  0  0  0
  -19.9945  -19.9157   19.4694 C   0  0  0  0  0  0  0  0  0  0  0  0
  -19.6190  -17.5617   20.2219 C   0  0  0  0  0  0  0  0  0  0  0  0
  -26.8193  -25.4366   17.1622 C   0  0  0  0  0  0  0  0  0  0  0  0
  -28.2422  -23.6324   19.4519 C   0  0  0  0  0  0  0  0  0  0  0  0
  -29.0388  -23.2324   22.7462 C   0  0  0  0  0  0  0  0  0  0  0  0
  -20.1462  -25.4469   19.5903 C   0  0  0  0  0  0  0  0  0  0  0  0
  -27.0968  -23.6484   12.3891 C   0  0  0  0  0  0  0  0  0  0  0  0
  -28.2947  -27.1365   18.2979 C   0  0  0  0  0  0  0  0  0  0  0  0
  -26.7745  -25.5215   20.2537 C   0  0  0  0  0  0  0  0  0  0  0  0
  -27.0026  -23.0316   13.7823 C   0  0  0  0  0  0  0  0  0  0  0  0
  -22.4810  -23.8543   17.5319 C   0  0  0  0  0  0  0  0  0  0  0  0
  -25.8832  -23.6895   14.5828 C   0  0  0  0  0  0  0  0  0  0  0  0
  -22.4317  -22.3926   17.9711 C   0  0  0  0  0  0  0  0  0  0  0  0
  -18.8982  -28.4621   23.7190 C   0  0  0  0  0  0  0  0  0  0  0  0
  -22.3659  -24.7847   18.7325 C   0  0  0  0  0  0  0  0  0  0  0  0
  -19.8378  -25.1788   22.1213 C   0  0  0  0  0  0  0  0  0  0  0  0
  -21.0480  -23.1055   19.9873 C   0  0  0  0  0  0  0  0  0  0  0  0
  -18.1112  -26.1935   20.8097 C   0  0  0  0  0  0  0  0  0  0  0  0
  -19.5002  -28.7759   21.4769 C   0  0  0  0  0  0  0  0  0  0  0  0
  -26.1512  -25.1866   14.7785 C   0  0  1  0  0  0  0  0  0  0  0  0
  -28.0013  -25.6580   18.0631 C   0  0  1  0  0  0  0  0  0  0  0  0
  -18.2896  -28.3438   22.3145 C   0  0  1  0  0  0  0  0  0  0  0  0
  -19.1696  -26.2022   23.0302 C   0  0  1  0  0  0  0  0  0  0  0  0
  -21.1726  -22.1169   18.8094 C   0  0  2  0  0  0  0  0  0  0  0  0
  -19.9976  -27.4466   23.4245 C   0  0  1  0  0  0  0  0  0  0  0  0
  -17.9945  -26.8123   22.2103 C   0  0  2  0  0  0  0  0  0  0  0  0
  -30.1721  -21.6393   24.3194 C   0  0  0  0  0  0  0  0  0  0  0  0
  -23.2724  -31.5440   22.2360 C   0  0  0  0  0  0  0  0  0  0  0  0
  -25.8104  -21.7931   19.3371 C   0  0  0  0  0  0  0  0  0  0  0  0
  -26.5356  -20.8129   21.5238 C   0  0  0  0  0  0  0  0  0  0  0  0
  -28.0060  -20.6095   19.5190 C   0  0  0  0  0  0  0  0  0  0  0  0
  -14.1861  -26.8572   22.4685 C   0  0  0  0  0  0  0  0  0  0  0  0
  -31.0603  -25.2512   23.5187 C   0  0  0  0  0  0  0  0  0  0  0  0
  -16.6287  -26.4729   22.8216 C   0  0  0  0  0  0  0  0  0  0  0  0
  -22.4142  -29.4447   21.1365 C   0  0  0  0  0  0  0  0  0  0  0  0
  -21.8410  -28.8916   22.4384 C   0  0  0  0  0  0  0  0  0  0  0  0
  -27.7608  -22.8556   20.6535 C   0  0  1  0  0  0  0  0  0  0  0  0
  -30.3425  -22.8605   23.4293 C   0  0  2  0  0  0  0  0  0  0  0  0
  -23.6176  -30.3768   21.3195 C   0  0  2  0  0  0  0  0  0  1  0  0
  -27.0235  -21.5457   20.2559 C   0  0  0  0  0  0  0  0  0  0  0  0
  -22.2590  -20.0307   19.5522 N   0  0  0  0  0  0  0  0  0  0  0  0
  -21.1115  -20.6749   19.2795 N   0  0  0  0  0  0  0  0  0  0  0  0
  -27.7333  -24.9307   19.3055 N   0  0  0  0  0  0  0  0  0  0  0  0
  -21.1698  -24.4945   19.5244 N   0  0  0  0  0  0  0  0  0  0  0  0
  -19.4067  -25.5246   20.7696 N   0  0  0  0  0  0  0  0  0  0  0  0
  -18.7582  -20.4079   19.2422 N   0  0  0  0  0  0  0  0  0  0  0  0
  -20.2420  -16.3790   20.6433 N   0  0  0  0  0  0  0  0  0  0  0  0
  -27.1369  -25.3919   15.8181 N   0  0  0  0  0  0  0  0  0  0  0  0
  -28.9300  -22.6494   21.5014 N   0  0  0  0  0  0  0  0  0  0  0  0
  -20.6412  -28.0396   22.1662 N   0  3  2  0  0  0  0  0  0  0  0  0
  -15.5775  -27.0566   21.9679 N   0  3  0  0  0  0  0  0  0  0  0  0
  -30.8274  -23.9911   24.2703 N   0  3  0  0  0  0  0  0  0  0  0  0
  -18.3687  -17.5966   20.1264 O   0  0  0  0  0  0  0  0  0  0  0  0
  -25.7021  -25.3140   17.6505 O   0  0  0  0  0  0  0  0  0  0  0  0
  -29.0457  -23.1093   18.6758 O   0  0  0  0  0  0  0  0  0  0  0  0
  -28.1991  -23.9637   23.2665 O   0  0  0  0  0  0  0  0  0  0  0  0
  -19.9336  -26.2230   18.6492 O   0  0  0  0  0  0  0  0  0  0  0  0
  -25.5616  -14.9132   21.4103 O   0  0  0  0  0  0  0  0  0  0  0  0
  -24.6942  -29.6427   21.8954 O   0  0  0  0  0  0  0  0  0  1  0  0
  -24.8653   -9.8204   19.4148 F   0  0  0  0  0  0  0  0  0  0  0  0
  -27.5080  -13.7233   19.8488 F   0  0  0  0  0  0  0  0  0  0  0  0
  1  2  1  0  0  0  0
  1  5  2  0  0  0  0
  2  6  2  0  0  0  0
  3  8  2  0  0  0  0
  3 15  1  0  0  0  0
  4  9  1  0  0  0  0
  4 15  2  0  0  0  0
  5 17  1  0  0  0  0
  6 19  1  0  0  0  0
  7 10  2  0  0  0  0
  7 18  1  0  0  0  0
  8 21  1  0  0  0  0
  9 21  2  0  0  0  0
 10 22  1  0  0  0  0
 11 12  2  0  0  0  0
 11 23  1  0  0  0  0
 12 24  1  0  0  0  0
 13 20  1  0  0  0  0
 13 22  2  0  0  0  0
 14 24  2  0  0  0  0
 14 25  1  0  0  0  0
 15 26  1  0  0  0  0
 16 26  1  0  0  0  0
 16 27  2  0  0  0  0
 16 28  1  0  0  0  0
 17 19  2  0  0  0  0
 17 33  1  0  0  0  0
 18 20  2  0  0  0  0
 18 34  1  0  0  0  0
 19 46  1  0  0  0  0
 20 35  1  0  0  0  0
 21 84  1  0  0  0  0
 22 85  1  0  0  0  0
 23 25  2  0  0  0  0
 23 84  1  0  0  0  0
 24 86  1  0  0  0  0
 25 87  1  0  0  0  0
 26 67  2  0  0  0  0
 27 68  1  0  0  0  0
 27 72  1  0  0  0  0
 28 73  1  0  0  0  0
 28 79  2  0  0  0  0
 29 47  1  0  0  0  0
 29 74  1  0  0  0  0
 29 80  2  0  0  0  0
 30 63  1  0  0  0  0
 30 69  1  0  0  0  0
 30 81  2  0  0  0  0
 31 64  1  0  0  0  0
 31 75  1  0  0  0  0
 31 82  2  0  0  0  0
 32 70  1  0  0  0  0
 32 71  1  0  0  0  0
 32 83  2  0  0  0  0
 33 36  1  0  0  0  0
 34 47  1  0  0  0  0
 35 69  1  0  0  0  0
 36 38  1  0  0  0  0
 37 39  1  0  0  0  0
 37 41  1  0  0  0  0
 38 46  1  0  0  0  0
 39 50  1  0  0  0  0
 40 48  1  0  0  0  0
 40 51  1  0  0  0  0
 41 70  1  0  0  0  0
 42 49  1  0  0  0  0
 42 71  1  0  0  0  0
 43 50  1  0  0  0  0
 43 70  1  0  0  0  0
 44 52  1  0  0  0  0
 44 71  1  0  0  0  0
 45 48  1  0  0  0  0
 45 76  1  0  0  0  0
 46 74  1  0  0  0  0
 47 69  1  0  0  0  0
 48 52  1  0  0  0  0
 49 51  1  0  0  0  0
 49 52  1  0  0  0  0
 50 68  1  0  0  0  0
 51 76  1  0  0  0  0
 52 60  1  0  0  0  0
 53 64  1  0  0  0  0
 54 65  1  0  0  0  0
 55 66  1  0  0  0  0
 56 66  1  0  0  0  0
 57 66  1  0  0  0  0
 58 77  1  0  0  0  0
 59 78  1  0  0  0  0
 60 77  1  0  0  0  0
 61 62  1  0  0  0  0
 61 65  1  0  0  0  0
 62 76  1  0  0  0  0
 63 66  1  0  0  0  0
 63 75  1  0  0  0  0
 64 78  1  0  0  0  0
 65 85  1  0  0  0  0
 67 68  1  0  0  0  0
M  CHG  3  76   1  77   1  78   1
M  ISO  4  32 100  65 101  71 100  85 101
M  END
> <Batch ID>
0197

> <Smiles>
CNCC12C[100N:0]([100C:0](=O)N3CCCC(n4nc(-c5ccc(Oc6ccc(F)cc6F)cc5)c(C(N)=O)c4N)C3)CC1C1CC2CN1CC[101CH:1](C)[101O:1]c1ccc2c(c1)CN(C(=O)C(NC(=O)C(C)NC)C(C)(C)C)C(C(=O)NC1CCCc3ccccc31)C2

> <Shape>
0.190

> <Color>
0.094

> <Negative vol penalty>
0.000

$$$$

  -OEChem-04052323453D

 88 98  0     1  0  0  0  0  0999 V2000
  -24.7997  -22.5606   27.7419 C   0  0  0  0  0  0  0  0  0  0  0  0
  -25.1626  -22.9804   26.4662 C   0  0  0  0  0  0  0  0  0  0  0  0
  -22.6262  -15.2070   19.9899 C   0  0  0  0  0  0  0  0  0  0  0  0
  -22.4746  -13.2243   18.6178 C   0  0  0  0  0  0  0  0  0  0  0  0
  -23.9503  -23.3478   28.5183 C   0  0  0  0  0  0  0  0  0  0  0  0
  -24.6754  -24.1872   25.9656 C   0  0  0  0  0  0  0  0  0  0  0  0
  -28.2685  -26.9410   23.6959 C   0  0  0  0  0  0  0  0  0  0  0  0
  -21.5010  -15.7325   19.3550 C   0  0  0  0  0  0  0  0  0  0  0  0
  -21.3493  -13.7498   17.9828 C   0  0  0  0  0  0  0  0  0  0  0  0
  -28.6398  -26.5642   22.4060 C   0  0  0  0  0  0  0  0  0  0  0  0
  -20.7807  -17.2672   16.4309 C   0  0  0  0  0  0  0  0  0  0  0  0
  -20.8271  -18.6031   16.0324 C   0  0  0  0  0  0  0  0  0  0  0  0
  -27.2467  -28.3132   21.5006 C   0  0  0  0  0  0  0  0  0  0  0  0
  -18.9290  -19.0904   17.4456 C   0  0  0  0  0  0  0  0  0  0  0  0
  -28.6381  -21.7436   18.7292 C   0  0  0  0  0  0  0  0  0  0  0  0
  -23.1131  -13.9529   19.6213 C   0  0  0  0  0  0  0  0  0  0  0  0
  -24.3028  -12.6071   21.4327 C   0  0  0  0  0  0  0  0  0  0  0  0
  -23.4602  -24.5695   28.0307 C   0  0  0  0  0  0  0  0  0  0  0  0
  -27.3734  -28.0015   23.8978 C   0  0  0  0  0  0  0  0  0  0  0  0
  -23.8176  -24.9909   26.7357 C   0  0  0  0  0  0  0  0  0  0  0  0
  -26.8676  -28.7031   22.7942 C   0  0  0  0  0  0  0  0  0  0  0  0
  -20.8625  -15.0039   18.3515 C   0  0  0  0  0  0  0  0  0  0  0  0
  -28.1267  -27.2485   21.3080 C   0  0  0  0  0  0  0  0  0  0  0  0
  -19.8085  -16.8428   17.3366 C   0  0  0  0  0  0  0  0  0  0  0  0
  -19.9012  -19.5147   16.5398 C   0  0  0  0  0  0  0  0  0  0  0  0
  -18.8826  -17.7544   17.8440 C   0  0  0  0  0  0  0  0  0  0  0  0
  -24.2758  -13.4097   20.2764 C   0  0  0  0  0  0  0  0  0  0  0  0
  -27.6015  -22.2698   17.9855 C   0  0  0  0  0  0  0  0  0  0  0  0
  -28.4361  -20.4685   19.2164 C   0  0  0  0  0  0  0  0  0  0  0  0
  -25.6364  -12.3567   21.6457 C   0  0  0  0  0  0  0  0  0  0  0  0
  -26.3757  -20.3753   18.2607 C   0  0  0  0  0  0  0  0  0  0  0  0
  -23.2194  -12.1306   22.2418 C   0  0  0  0  0  0  0  0  0  0  0  0
  -24.4877  -28.2842   25.2001 C   0  0  0  0  0  0  0  0  0  0  0  0
  -24.9945  -31.4471   24.6889 C   0  0  0  0  0  0  0  0  0  0  0  0
  -26.6219  -33.8723   22.9234 C   0  0  0  0  0  0  0  0  0  0  0  0
  -30.5919  -15.3900   19.9121 C   0  0  0  0  0  0  0  0  0  0  0  0
  -22.5068  -25.3634   28.8884 C   0  0  0  0  0  0  0  0  0  0  0  0
  -27.0037  -28.4128   25.2965 C   0  0  0  0  0  0  0  0  0  0  0  0
  -25.9194  -29.8618   22.9578 C   0  0  0  0  0  0  0  0  0  0  0  0
  -22.3340  -26.8090   28.4293 C   0  0  0  0  0  0  0  0  0  0  0  0
  -29.7925  -11.9278   19.3591 C   0  0  0  0  0  0  0  0  0  0  0  0
  -22.1178  -26.8677   26.9204 C   0  0  0  0  0  0  0  0  0  0  0  0
  -23.7990  -20.2338   18.3806 C   0  0  0  0  0  0  0  0  0  0  0  0
  -24.3330  -19.0785   19.1684 C   0  0  0  0  0  0  0  0  0  0  0  0
  -28.2852  -11.8493   19.5778 C   0  0  0  0  0  0  0  0  0  0  0  0
  -30.1826  -13.2607   18.7344 C   0  0  0  0  0  0  0  0  0  0  0  0
  -28.2468  -14.3851   19.8042 C   0  0  0  0  0  0  0  0  0  0  0  0
  -30.8875  -17.8790   20.3827 C   0  0  0  0  0  0  0  0  0  0  0  0
  -29.0164  -17.4324   19.4735 C   0  0  0  0  0  0  0  0  0  0  0  0
  -23.3296  -26.3057   26.1672 C   0  0  1  0  0  0  0  0  0  0  0  0
  -25.1184  -19.6152   18.0009 C   0  0  0  0  0  0  0  0  0  0  0  0
  -25.6850  -29.1768   25.3658 C   0  0  1  0  0  0  0  0  0  0  0  0
  -27.8015  -13.0416   20.4156 C   0  0  1  0  0  0  0  0  0  0  0  0
  -29.9525  -18.6505   19.4424 C   0  0  0  0  0  0  0  0  0  0  0  0
  -26.8011  -36.3659   22.7061 C   0  0  0  0  0  0  0  0  0  0  0  0
  -22.3276  -31.5072   23.2076 C   0  0  0  0  0  0  0  0  0  0  0  0
  -23.0028  -33.7083   22.2241 C   0  0  0  0  0  0  0  0  0  0  0  0
  -22.7400  -33.4758   24.6938 C   0  0  0  0  0  0  0  0  0  0  0  0
  -29.4941  -33.8445   23.6367 C   0  0  0  0  0  0  0  0  0  0  0  0
  -27.7283  -23.6429   17.4164 C   0  0  0  0  0  0  0  0  0  0  0  0
  -27.7489  -26.0943   17.8950 C   0  0  0  0  0  0  0  0  0  0  0  0
  -27.5338  -27.0990   19.0097 C   0  0  0  0  0  0  0  0  0  1  0  0
  -24.7244  -32.4031   23.5521 C   0  0  1  0  0  0  0  0  0  0  0  0
  -27.3625  -35.1192   23.3719 C   0  0  2  0  0  0  0  0  0  0  0  0
  -23.2150  -32.7506   23.4159 C   0  0  0  0  0  0  0  0  0  0  0  0
  -25.4953  -13.6531   19.7891 N   0  0  0  0  0  0  0  0  0  0  0  0
  -26.4520  -21.6110   17.7308 N   0  0  0  0  0  0  0  0  0  0  0  0
  -27.3129  -19.7527   19.0007 N   0  0  0  0  0  0  0  0  0  0  0  0
  -26.3012  -12.9997   20.6433 N   0  0  0  0  0  0  0  0  0  0  0  0
  -25.5829  -30.2218   24.3452 N   0  0  0  0  0  0  0  0  0  0  0  0
  -29.6868  -14.4007   19.5117 N   0  0  0  0  0  0  0  0  0  0  0  0
  -30.1356  -16.6836   20.0203 N   0  0  0  0  0  0  0  0  0  0  0  0
  -26.2935  -11.6515   22.5908 N   0  0  0  0  0  0  0  0  0  0  0  0
  -21.9113  -12.4814   21.8809 N   0  0  0  0  0  0  0  0  0  0  0  0
  -24.4030  -27.2760   26.1413 N   0  0  0  0  0  0  0  0  0  0  0  0
  -25.5857  -33.5589   23.7774 N   0  0  0  0  0  0  0  0  0  0  0  0
  -28.8090  -35.0141   23.0288 N   0  3  0  0  0  0  0  0  0  0  0  0
  -27.5694  -24.7201   18.4319 N   0  3  0  0  0  0  0  0  0  0  0  0
  -23.4067  -11.4285   23.2643 O   0  0  0  0  0  0  0  0  0  0  0  0
  -23.6982  -28.4955   24.2870 O   0  0  0  0  0  0  0  0  0  0  0  0
  -24.7009  -31.7784   25.8403 O   0  0  0  0  0  0  0  0  0  0  0  0
  -26.9294  -33.2417   21.9143 O   0  0  0  0  0  0  0  0  0  0  0  0
  -31.7824  -15.1340   20.1366 O   0  0  0  0  0  0  0  0  0  0  0  0
  -19.7643  -15.5163   17.7318 O   0  0  0  0  0  0  0  0  0  0  0  0
  -28.4895  -26.8797   20.0388 O   0  0  0  0  0  0  0  0  0  1  0  0
  -29.4136  -19.8784   19.9611 O   0  0  0  0  0  0  0  0  0  0  0  0
  -19.9468  -20.7979   16.1583 F   0  0  0  0  0  0  0  0  0  0  0  0
  -17.9470  -17.3529   18.7153 F   0  0  0  0  0  0  0  0  0  0  0  0
  1  2  1  0  0  0  0
  1  5  2  0  0  0  0
  2  6  2  0  0  0  0
  3  8  2  0  0  0  0
  3 16  1  0  0  0  0
  4  9  1  0  0  0  0
  4 16  2  0  0  0  0
  5 18  1  0  0  0  0
  6 20  1  0  0  0  0
  7 10  2  0  0  0  0
  7 19  1  0  0  0  0
  8 22  1  0  0  0  0
  9 22  2  0  0  0  0
 10 23  1  0  0  0  0
 11 12  2  0  0  0  0
 11 24  1  0  0  0  0
 12 25  1  0  0  0  0
 13 21  1  0  0  0  0
 13 23  2  0  0  0  0
 14 25  2  0  0  0  0
 14 26  1  0  0  0  0
 15 28  1  0  0  0  0
 15 29  2  0  0  0  0
 16 27  1  0  0  0  0
 17 27  1  0  0  0  0
 17 30  2  0  0  0  0
 17 32  1  0  0  0  0
 18 20  2  0  0  0  0
 18 37  1  0  0  0  0
 19 21  2  0  0  0  0
 19 38  1  0  0  0  0
 20 50  1  0  0  0  0
 21 39  1  0  0  0  0
 22 84  1  0  0  0  0
 23 85  1  0  0  0  0
 24 26  2  0  0  0  0
 24 84  1  0  0  0  0
 25 87  1  0  0  0  0
 26 88  1  0  0  0  0
 27 66  2  0  0  0  0
 28 60  1  0  0  0  0
 28 67  2  0  0  0  0
 29 68  1  0  0  0  0
 29 86  1  0  0  0  0
 30 69  1  0  0  0  0
 30 73  1  0  0  0  0
 31 51  1  0  0  0  0
 31 67  1  0  0  0  0
 31 68  2  0  0  0  0
 32 74  1  0  0  0  0
 32 79  2  0  0  0  0
 33 52  1  0  0  0  0
 33 75  1  0  0  0  0
 33 80  2  0  0  0  0
 34 63  1  0  0  0  0
 34 70  1  0  0  0  0
 34 81  2  0  0  0  0
 35 64  1  0  0  0  0
 35 76  1  0  0  0  0
 35 82  2  0  0  0  0
 36 71  1  0  0  0  0
 36 72  1  0  0  0  0
 36 83  2  0  0  0  0
 37 40  1  0  0  0  0
 38 52  1  0  0  0  0
 39 70  1  0  0  0  0
 40 42  1  0  0  0  0
 41 45  1  0  0  0  0
 41 46  1  0  0  0  0
 42 50  1  0  0  0  0
 43 44  1  0  0  0  0
 43 51  1  0  0  0  0
 44 51  1  0  0  0  0
 45 53  1  0  0  0  0
 46 71  1  0  0  0  0
 47 53  1  0  0  0  0
 47 71  1  0  0  0  0
 48 54  1  0  0  0  0
 48 72  1  0  0  0  0
 49 54  1  0  0  0  0
 49 72  1  0  0  0  0
 50 75  1  0  0  0  0
 52 70  1  0  0  0  0
 53 69  1  0  0  0  0
 54 86  1  0  0  0  0
 55 64  1  0  0  0  0
 56 65  1  0  0  0  0
 57 65  1  0  0  0  0
 58 65  1  0  0  0  0
 59 77  1  0  0  0  0
 60 78  1  0  0  0  0
 61 62  1  0  0  0  0
 61 78  1  0  0  0  0
 62 85  1  0  0  0  0
 63 65  1  0  0  0  0
 63 76  1  0  0  0  0
 64 77  1  0  0  0  0
 66 69  1  0  0  0  0
M  CHG  2  77   1  78   1
M  ISO  4  36 100  62 101  72 100  85 101
M  END
> <Batch ID>
0197

> <Smiles>
CNC(C)C(=O)NC(C(=O)N1Cc2cc([101O:1][101CH2:1]CNCc3cc(OC4C[100N:0]([100C:0](=O)N5CCCC(n6nc(-c7ccc(Oc8ccc(F)cc8F)cc7)c(C(N)=O)c6N)C5)C4)nc(C4CC4)n3)ccc2CC1C(=O)NC1CCCc2ccccc21)C(C)(C)C

> <Shape>
0.209

> <Color>
0.120

> <Negative vol penalty>
0.000

$$$$

  -OEChem-04052323453D

 82 91  0     1  0  0  0  0  0999 V2000
  -28.2468  -35.4768   16.3577 C   0  0  0  0  0  0  0  0  0  0  0  0
  -28.1823  -34.1195   16.0593 C   0  0  0  0  0  0  0  0  0  0  0  0
  -22.8374   -9.7833   19.9697 C   0  0  0  0  0  0  0  0  0  0  0  0
  -24.3841   -9.2515   21.7480 C   0  0  0  0  0  0  0  0  0  0  0  0
  -28.5139  -35.8907   17.6620 C   0  0  0  0  0  0  0  0  0  0  0  0
  -28.3859  -33.1753   17.0650 C   0  0  0  0  0  0  0  0  0  0  0  0
  -26.2892  -26.6301   19.0851 C   0  0  0  0  0  0  0  0  0  0  0  0
  -22.1935   -8.5613   20.1643 C   0  0  0  0  0  0  0  0  0  0  0  0
  -23.7402   -8.0295   21.9426 C   0  0  0  0  0  0  0  0  0  0  0  0
  -26.8204  -25.3944   19.4522 C   0  0  0  0  0  0  0  0  0  0  0  0
  -20.9291   -6.9090   23.4469 C   0  0  0  0  0  0  0  0  0  0  0  0
  -20.6526   -6.5257   24.7592 C   0  0  0  0  0  0  0  0  0  0  0  0
  -27.1961  -26.2261   21.6852 C   0  0  0  0  0  0  0  0  0  0  0  0
  -22.0029   -4.5439   24.4648 C   0  0  0  0  0  0  0  0  0  0  0  0
  -23.9328  -10.1283   20.7615 C   0  0  0  0  0  0  0  0  0  0  0  0
  -24.0359  -12.6757   20.6726 C   0  0  0  0  0  0  0  0  0  0  0  0
  -28.7113  -34.9511   18.6861 C   0  0  0  0  0  0  0  0  0  0  0  0
  -26.2174  -27.6782   20.0139 C   0  0  0  0  0  0  0  0  0  0  0  0
  -28.6572  -33.5770   18.3840 C   0  0  0  0  0  0  0  0  0  0  0  0
  -26.6613  -27.4733   21.3281 C   0  0  0  0  0  0  0  0  0  0  0  0
  -22.6449   -7.6845   21.1507 C   0  0  0  0  0  0  0  0  0  0  0  0
  -27.2766  -25.1932   20.7516 C   0  0  0  0  0  0  0  0  0  0  0  0
  -21.7424   -6.1098   22.6435 C   0  0  0  0  0  0  0  0  0  0  0  0
  -21.1895   -5.3432   25.2682 C   0  0  0  0  0  0  0  0  0  0  0  0
  -22.2794   -4.9273   23.1525 C   0  0  0  0  0  0  0  0  0  0  0  0
  -24.5987  -11.3902   20.5606 C   0  0  0  0  0  0  0  0  0  0  0  0
  -25.0725  -13.5304   20.3873 C   0  0  0  0  0  0  0  0  0  0  0  0
  -22.6959  -13.0626   21.0049 C   0  0  0  0  0  0  0  0  0  0  0  0
  -27.4756  -30.5906   20.2111 C   0  0  0  0  0  0  0  0  0  0  0  0
  -25.5577  -30.8189   22.8172 C   0  0  0  0  0  0  0  0  0  0  0  0
  -23.8409  -29.2259   25.2995 C   0  0  0  0  0  0  0  0  0  0  0  0
  -30.4063  -15.0714   20.9544 C   0  0  0  0  0  0  0  0  0  0  0  0
  -29.0441  -35.4463   20.0713 C   0  0  0  0  0  0  0  0  0  0  0  0
  -25.6171  -28.9968   19.6095 C   0  0  0  0  0  0  0  0  0  0  0  0
  -26.5877  -28.5599   22.3685 C   0  0  0  0  0  0  0  0  0  0  0  0
  -28.8768  -34.3838   21.1545 C   0  0  0  0  0  0  0  0  0  0  0  0
  -29.6698  -12.6112   18.4883 C   0  0  0  0  0  0  0  0  0  0  0  0
  -29.5187  -33.0707   20.7179 C   0  0  0  0  0  0  0  0  0  0  0  0
  -28.2415  -12.1762   18.8207 C   0  0  0  0  0  0  0  0  0  0  0  0
  -30.4775  -12.9079   19.7499 C   0  0  0  0  0  0  0  0  0  0  0  0
  -28.4240  -13.4391   21.0048 C   0  0  0  0  0  0  0  0  0  0  0  0
  -25.8607  -20.5437   22.9512 C   0  0  0  0  0  0  0  0  0  0  0  0
  -27.7007  -18.8459   22.4292 C   0  0  0  0  0  0  0  0  0  0  0  0
  -27.9261  -19.5011   20.0802 C   0  0  0  0  0  0  0  0  0  0  0  0
  -28.8478  -32.5226   19.4526 C   0  0  1  0  0  0  0  0  0  0  0  0
  -26.0661  -30.1546   20.4956 C   0  0  1  0  0  0  0  0  0  0  0  0
  -26.4214  -19.5278   21.9751 C   0  0  2  0  0  0  0  0  0  0  0  0
  -26.8556  -20.3399   20.7637 C   0  0  1  0  0  0  0  0  0  0  0  0
  -27.5537  -13.1826   19.7626 C   0  0  2  0  0  0  0  0  0  0  0  0
  -27.3795  -21.6412   21.3706 C   0  0  1  0  0  0  0  0  0  0  0  0
  -22.3988  -29.6806   27.3022 C   0  0  0  0  0  0  0  0  0  0  0  0
  -28.0304  -31.6288   24.4108 C   0  0  0  0  0  0  0  0  0  0  0  0
  -26.7520  -31.1438   26.5081 C   0  0  0  0  0  0  0  0  0  0  0  0
  -25.9659  -32.9309   24.9553 C   0  0  0  0  0  0  0  0  0  0  0  0
  -21.5498  -27.7654   24.1262 C   0  0  0  0  0  0  0  0  0  0  0  0
  -27.2917  -22.8356   20.4391 C   0  0  0  0  0  0  0  0  0  1  0  0
  -30.1794  -17.2064   22.1991 C   0  0  0  0  0  0  0  0  0  0  0  0
  -29.8537  -18.3260   21.2283 C   0  0  0  0  0  0  0  0  0  0  0  0
  -25.7087  -30.5063   24.2864 C   0  0  1  0  0  0  0  0  0  0  0  0
  -22.4207  -29.3926   25.8091 C   0  0  2  0  0  0  0  0  0  0  0  0
  -26.6175  -31.5324   25.0203 C   0  0  0  0  0  0  0  0  0  0  0  0
  -25.8924  -11.4207   20.2298 N   0  0  0  0  0  0  0  0  0  0  0  0
  -26.1511  -12.7358   20.1314 N   0  0  0  0  0  0  0  0  0  0  0  0
  -25.9984  -29.8333   21.9227 N   0  0  0  0  0  0  0  0  0  0  0  0
  -29.7710  -13.8701   20.5990 N   0  0  0  0  0  0  0  0  0  0  0  0
  -25.1575  -14.8766   20.3327 N   0  0  0  0  0  0  0  0  0  0  0  0
  -22.3759  -13.2723   22.3532 N   0  0  0  0  0  0  0  0  0  0  0  0
  -27.5836  -31.8992   19.7805 N   0  0  0  0  0  0  0  0  0  0  0  0
  -24.3560  -30.4137   24.8251 N   0  0  0  0  0  0  0  0  0  0  0  0
  -29.6642  -15.9301   21.7560 N   0  0  0  0  0  0  0  0  0  0  0  0
  -26.4872  -21.8555   22.5632 N   0  3  0  0  0  0  0  0  0  0  0  0
  -28.3719  -18.4891   21.1232 N   0  3  1  0  0  0  0  0  0  0  0  0
  -21.6314  -28.1538   25.5578 N   0  3  0  0  0  0  0  0  0  0  0  0
  -21.8044  -13.2019   20.1334 O   0  0  0  0  0  0  0  0  0  0  0  0
  -28.3970  -29.7989   20.3718 O   0  0  0  0  0  0  0  0  0  0  0  0
  -25.0602  -31.8949   22.4759 O   0  0  0  0  0  0  0  0  0  0  0  0
  -24.4352  -28.1504   25.3235 O   0  0  0  0  0  0  0  0  0  0  0  0
  -31.5481  -15.3598   20.5803 O   0  0  0  0  0  0  0  0  0  0  0  0
  -22.0166   -6.4921   21.3411 O   0  0  0  0  0  0  0  0  0  0  0  0
  -27.7961  -23.9883   21.1124 O   0  0  0  0  0  0  0  0  0  1  0  0
  -20.9252   -4.9759   26.5289 F   0  0  0  0  0  0  0  0  0  0  0  0
  -23.0624   -4.1560   22.3858 F   0  0  0  0  0  0  0  0  0  0  0  0
  1  2  1  0  0  0  0
  1  5  2  0  0  0  0
  2  6  2  0  0  0  0
  3  8  2  0  0  0  0
  3 15  1  0  0  0  0
  4  9  1  0  0  0  0
  4 15  2  0  0  0  0
  5 17  1  0  0  0  0
  6 19  1  0  0  0  0
  7 10  2  0  0  0  0
  7 18  1  0  0  0  0
  8 21  1  0  0  0  0
  9 21  2  0  0  0  0
 10 22  1  0  0  0  0
 11 12  2  0  0  0  0
 11 23  1  0  0  0  0
 12 24  1  0  0  0  0
 13 20  1  0  0  0  0
 13 22  2  0  0  0  0
 14 24  2  0  0  0  0
 14 25  1  0  0  0  0
 15 26  1  0  0  0  0
 16 26  1  0  0  0  0
 16 27  2  0  0  0  0
 16 28  1  0  0  0  0
 17 19  2  0  0  0  0
 17 33  1  0  0  0  0
 18 20  2  0  0  0  0
 18 34  1  0  0  0  0
 19 45  1  0  0  0  0
 20 35  1  0  0  0  0
 21 79  1  0  0  0  0
 22 80  1  0  0  0  0
 23 25  2  0  0  0  0
 23 79  1  0  0  0  0
 24 81  1  0  0  0  0
 25 82  1  0  0  0  0
 26 62  2  0  0  0  0
 27 63  1  0  0  0  0
 27 66  1  0  0  0  0
 28 67  1  0  0  0  0
 28 74  2  0  0  0  0
 29 46  1  0  0  0  0
 29 68  1  0  0  0  0
 29 75  2  0  0  0  0
 30 59  1  0  0  0  0
 30 64  1  0  0  0  0
 30 76  2  0  0  0  0
 31 60  1  0  0  0  0
 31 69  1  0  0  0  0
 31 77  2  0  0  0  0
 32 65  1  0  0  0  0
 32 70  1  0  0  0  0
 32 78  2  0  0  0  0
 33 36  1  0  0  0  0
 34 46  1  0  0  0  0
 35 64  1  0  0  0  0
 36 38  1  0  0  0  0
 37 39  1  0  0  0  0
 37 40  1  0  0  0  0
 38 45  1  0  0  0  0
 39 49  1  0  0  0  0
 40 65  1  0  0  0  0
 41 49  1  0  0  0  0
 41 65  1  0  0  0  0
 42 47  1  0  0  0  0
 42 71  1  0  0  0  0
 43 47  1  0  0  0  0
 43 72  1  0  0  0  0
 44 48  1  0  0  0  0
 44 72  1  0  0  0  0
 45 68  1  0  0  0  0
 46 64  1  0  0  0  0
 47 48  1  0  0  0  0
 48 50  1  0  0  0  0
 49 63  1  0  0  0  0
 50 56  1  0  0  0  0
 50 71  1  0  0  0  0
 51 60  1  0  0  0  0
 52 61  1  0  0  0  0
 53 61  1  0  0  0  0
 54 61  1  0  0  0  0
 55 73  1  0  0  0  0
 56 80  1  0  0  0  0
 57 58  1  0  0  0  0
 57 70  1  0  0  0  0
 58 72  1  0  0  0  0
 59 61  1  0  0  0  0
 59 69  1  0  0  0  0
 60 73  1  0  0  0  0
 62 63  1  0  0  0  0
M  CHG  3  71   1  72   1  73   1
M  ISO  4  32 100  56 101  70 100  80 101
M  END
> <Batch ID>
0197

> <Smiles>
CNC(C)C(=O)NC(C(=O)N1Cc2cc([101O:1][101CH2:1]C3NCC4CN(CC[100NH:0][100C:0](=O)N5CCCC(n6nc(-c7ccc(Oc8ccc(F)cc8F)cc7)c(C(N)=O)c6N)C5)CC43)ccc2CC1C(=O)NC1CCCc2ccccc21)C(C)(C)C

> <Shape>
0.329

> <Color>
0.178

> <Negative vol penalty>
0.000

$$$$

  -OEChem-04052323453D

 82 91  0     1  0  0  0  0  0999 V2000
  -20.2739  -32.3993   18.6951 C   0  0  0  0  0  0  0  0  0  0  0  0
  -20.8854  -31.1710   18.4658 C   0  0  0  0  0  0  0  0  0  0  0  0
  -23.0912   -9.9088   19.9070 C   0  0  0  0  0  0  0  0  0  0  0  0
  -23.8939   -9.8362   22.1846 C   0  0  0  0  0  0  0  0  0  0  0  0
  -20.3625  -32.9971   19.9516 C   0  0  0  0  0  0  0  0  0  0  0  0
  -21.5868  -30.5401   19.4927 C   0  0  0  0  0  0  0  0  0  0  0  0
  -21.9966  -24.5149   20.5103 C   0  0  0  0  0  0  0  0  0  0  0  0
  -22.3758   -8.7308   20.1216 C   0  0  0  0  0  0  0  0  0  0  0  0
  -23.1784   -8.6582   22.3993 C   0  0  0  0  0  0  0  0  0  0  0  0
  -22.9773  -23.5752   20.1960 C   0  0  0  0  0  0  0  0  0  0  0  0
  -19.9791   -7.7681   23.0257 C   0  0  0  0  0  0  0  0  0  0  0  0
  -19.2453   -7.6635   24.2073 C   0  0  0  0  0  0  0  0  0  0  0  0
  -23.9182  -23.8278   22.4028 C   0  0  0  0  0  0  0  0  0  0  0  0
  -20.5395   -5.7236   24.8392 C   0  0  0  0  0  0  0  0  0  0  0  0
  -29.5338  -21.1036   20.5214 C   0  0  0  0  0  0  0  0  0  0  0  0
  -23.8503  -10.4615   20.9385 C   0  0  0  0  0  0  0  0  0  0  0  0
  -24.1385  -12.9961   20.9186 C   0  0  0  0  0  0  0  0  0  0  0  0
  -21.0572  -32.3686   20.9972 C   0  0  0  0  0  0  0  0  0  0  0  0
  -21.9758  -25.1273   21.7717 C   0  0  0  0  0  0  0  0  0  0  0  0
  -21.6859  -31.1306   20.7640 C   0  0  0  0  0  0  0  0  0  0  0  0
  -22.9346  -24.7731   22.7316 C   0  0  0  0  0  0  0  0  0  0  0  0
  -22.4194   -8.1055   21.3677 C   0  0  0  0  0  0  0  0  0  0  0  0
  -23.9400  -23.2336   21.1413 C   0  0  0  0  0  0  0  0  0  0  0  0
  -20.9930   -6.8504   22.7507 C   0  0  0  0  0  0  0  0  0  0  0  0
  -19.5255   -6.6413   25.1140 C   0  0  0  0  0  0  0  0  0  0  0  0
  -21.2733   -5.8283   23.6575 C   0  0  0  0  0  0  0  0  0  0  0  0
  -24.5901  -11.6780   20.7173 C   0  0  0  0  0  0  0  0  0  0  0  0
  -29.6339  -20.2593   21.5806 C   0  0  0  0  0  0  0  0  0  0  0  0
  -25.2081  -13.7829   20.5676 C   0  0  0  0  0  0  0  0  0  0  0  0
  -22.8659  -13.4671   21.3817 C   0  0  0  0  0  0  0  0  0  0  0  0
  -22.2602  -28.1146   22.8199 C   0  0  0  0  0  0  0  0  0  0  0  0
  -21.5346  -26.7670   25.6799 C   0  0  0  0  0  0  0  0  0  0  0  0
  -21.4903  -23.9720   27.6377 C   0  0  0  0  0  0  0  0  0  0  0  0
  -30.6648  -14.9195   20.6831 C   0  0  0  0  0  0  0  0  0  0  0  0
  -21.1657  -33.0759   22.3248 C   0  0  0  0  0  0  0  0  0  0  0  0
  -20.8953  -26.1193   22.1043 C   0  0  0  0  0  0  0  0  0  0  0  0
  -22.9439  -25.3866   24.1071 C   0  0  0  0  0  0  0  0  0  0  0  0
  -21.6104  -32.1646   23.4659 C   0  0  0  0  0  0  0  0  0  0  0  0
  -29.5412  -12.6015   18.2384 C   0  0  0  0  0  0  0  0  0  0  0  0
  -22.8023  -31.3148   23.0368 C   0  0  0  0  0  0  0  0  0  0  0  0
  -28.1173  -12.2610   18.6816 C   0  0  0  0  0  0  0  0  0  0  0  0
  -30.4735  -12.7919   19.4329 C   0  0  0  0  0  0  0  0  0  0  0  0
  -28.5831  -13.4243   20.8794 C   0  0  0  0  0  0  0  0  0  0  0  0
  -29.8245  -18.0416   22.7538 C   0  0  0  0  0  0  0  0  0  0  0  0
  -30.8131  -18.1430   20.9012 C   0  0  0  0  0  0  0  0  0  0  0  0
  -22.4347  -30.4033   21.8596 C   0  0  1  0  0  0  0  0  0  0  0  0
  -21.2775  -27.0597   23.2432 C   0  0  1  0  0  0  0  0  0  0  0  0
  -27.5916  -13.2786   19.7122 C   0  0  2  0  0  0  0  0  0  0  0  0
  -30.7281  -17.0636   21.9896 C   0  0  0  0  0  0  0  0  0  0  0  0
  -20.8753  -23.1902   29.9416 C   0  0  0  0  0  0  0  0  0  0  0  0
  -24.0577  -28.0721   26.7936 C   0  0  0  0  0  0  0  0  0  0  0  0
  -23.9078  -26.5249   28.7563 C   0  0  0  0  0  0  0  0  0  0  0  0
  -22.0771  -28.1617   28.3179 C   0  0  0  0  0  0  0  0  0  0  0  0
  -29.3274  -21.6806   23.4414 C   0  0  0  0  0  0  0  0  0  0  0  0
  -19.4864  -22.0668   26.5823 C   0  0  0  0  0  0  0  0  0  0  0  0
  -27.2593  -21.8616   20.6080 C   0  0  0  0  0  0  0  0  0  0  0  0
  -26.1633  -22.4610   21.4824 C   0  0  0  0  0  0  0  0  0  1  0  0
  -22.3316  -26.1521   26.8050 C   0  0  1  0  0  0  0  0  0  0  0  0
  -20.4022  -23.3684   28.5073 C   0  0  2  0  0  0  0  0  0  0  0  0
  -23.0948  -27.2174   27.6417 C   0  0  0  0  0  0  0  0  0  0  0  0
  -25.8485  -11.6264   20.2727 N   0  0  0  0  0  0  0  0  0  0  0  0
  -28.6228  -21.9615   21.2477 N   0  0  0  0  0  0  0  0  0  0  0  0
  -28.6585  -21.0245   22.3265 N   0  0  0  0  0  0  0  0  0  0  0  0
  -26.1968  -12.9219   20.1917 N   0  0  0  0  0  0  0  0  0  0  0  0
  -30.2516  -19.0800   21.8456 N   0  0  0  0  0  0  0  0  0  0  0  0
  -21.8706  -26.3561   24.3822 N   0  0  0  0  0  0  0  0  0  0  0  0
  -29.9176  -13.7738   20.3674 N   0  0  0  0  0  0  0  0  0  0  0  0
  -25.3900  -15.1204   20.5469 N   0  0  0  0  0  0  0  0  0  0  0  0
  -21.8792  -12.5235   21.6985 N   0  0  0  0  0  0  0  0  0  0  0  0
  -21.6737  -29.2625   22.3222 N   0  0  0  0  0  0  0  0  0  0  0  0
  -21.3925  -25.3460   27.5774 N   0  0  0  0  0  0  0  0  0  0  0  0
  -30.0686  -15.8101   21.5698 N   0  0  0  0  0  0  0  0  0  0  0  0
  -19.9951  -22.0362   27.9777 N   0  3  0  0  0  0  0  0  0  0  0  0
  -22.6058  -14.6890   21.4949 O   0  0  0  0  0  0  0  0  0  0  0  0
  -23.4615  -27.9033   22.9376 O   0  0  0  0  0  0  0  0  0  0  0  0
  -20.6419  -27.5765   25.9433 O   0  0  0  0  0  0  0  0  0  0  0  0
  -22.3439  -23.2927   27.0716 O   0  0  0  0  0  0  0  0  0  0  0  0
  -31.7825  -15.1439   20.2058 O   0  0  0  0  0  0  0  0  0  0  0  0
  -21.7212   -6.9561   21.5776 O   0  0  0  0  0  0  0  0  0  0  0  0
  -24.8988  -22.3170   20.8369 O   0  0  0  0  0  0  0  0  0  1  0  0
  -18.8218   -6.5418   26.2494 F   0  0  0  0  0  0  0  0  0  0  0  0
  -22.2469   -4.9444   23.3994 F   0  0  0  0  0  0  0  0  0  0  0  0
  1  2  1  0  0  0  0
  1  5  2  0  0  0  0
  2  6  2  0  0  0  0
  3  8  2  0  0  0  0
  3 16  1  0  0  0  0
  4  9  1  0  0  0  0
  4 16  2  0  0  0  0
  5 18  1  0  0  0  0
  6 20  1  0  0  0  0
  7 10  2  0  0  0  0
  7 19  1  0  0  0  0
  8 22  1  0  0  0  0
  9 22  2  0  0  0  0
 10 23  1  0  0  0  0
 11 12  2  0  0  0  0
 11 24  1  0  0  0  0
 12 25  1  0  0  0  0
 13 21  1  0  0  0  0
 13 23  2  0  0  0  0
 14 25  2  0  0  0  0
 14 26  1  0  0  0  0
 15 28  2  0  0  0  0
 15 62  1  0  0  0  0
 16 27  1  0  0  0  0
 17 27  1  0  0  0  0
 17 29  2  0  0  0  0
 17 30  1  0  0  0  0
 18 20  2  0  0  0  0
 18 35  1  0  0  0  0
 19 21  2  0  0  0  0
 19 36  1  0  0  0  0
 20 46  1  0  0  0  0
 21 37  1  0  0  0  0
 22 79  1  0  0  0  0
 23 80  1  0  0  0  0
 24 26  2  0  0  0  0
 24 79  1  0  0  0  0
 25 81  1  0  0  0  0
 26 82  1  0  0  0  0
 27 61  2  0  0  0  0
 28 63  1  0  0  0  0
 28 65  1  0  0  0  0
 29 64  1  0  0  0  0
 29 68  1  0  0  0  0
 30 69  1  0  0  0  0
 30 74  2  0  0  0  0
 31 47  1  0  0  0  0
 31 70  1  0  0  0  0
 31 75  2  0  0  0  0
 32 58  1  0  0  0  0
 32 66  1  0  0  0  0
 32 76  2  0  0  0  0
 33 59  1  0  0  0  0
 33 71  1  0  0  0  0
 33 77  2  0  0  0  0
 34 67  1  0  0  0  0
 34 72  1  0  0  0  0
 34 78  2  0  0  0  0
 35 38  1  0  0  0  0
 36 47  1  0  0  0  0
 37 66  1  0  0  0  0
 38 40  1  0  0  0  0
 39 41  1  0  0  0  0
 39 42  1  0  0  0  0
 40 46  1  0  0  0  0
 41 48  1  0  0  0  0
 42 67  1  0  0  0  0
 43 48  1  0  0  0  0
 43 67  1  0  0  0  0
 44 49  1  0  0  0  0
 44 65  1  0  0  0  0
 45 49  1  0  0  0  0
 45 65  1  0  0  0  0
 46 70  1  0  0  0  0
 47 66  1  0  0  0  0
 48 64  1  0  0  0  0
 49 72  1  0  0  0  0
 50 59  1  0  0  0  0
 51 60  1  0  0  0  0
 52 60  1  0  0  0  0
 53 60  1  0  0  0  0
 54 63  1  0  0  0  0
 55 73  1  0  0  0  0
 56 57  1  0  0  0  0
 56 62  1  0  0  0  0
 57 80  1  0  0  0  0
 58 60  1  0  0  0  0
 58 71  1  0  0  0  0
 59 73  1  0  0  0  0
 61 64  1  0  0  0  0
 62 63  1  0  0  0  0
M  CHG  1  73   1
M  ISO  4  34 100  57 101  72 100  80 101
M  END
> <Batch ID>
0197

> <Smiles>
CNC(C)C(=O)NC(C(=O)N1Cc2cc([101O:1][101CH2:1]Cn3cc(N4CC([100NH:0][100C:0](=O)N5CCCC(n6nc(-c7ccc(Oc8ccc(F)cc8F)cc7)c(C(N)=O)c6N)C5)C4)n3C)ccc2CC1C(=O)NC1CCCc2ccccc21)C(C)(C)C

> <Shape>
0.254

> <Color>
0.225

> <Negative vol penalty>
0.000

$$$$

  -OEChem-04052323453D

 87 96  0     1  0  0  0  0  0999 V2000
  -18.2272  -27.7658   22.3739 C   0  0  0  0  0  0  0  0  0  0  0  0
  -19.1064  -28.3154   21.4464 C   0  0  0  0  0  0  0  0  0  0  0  0
  -22.9444   -9.5307   20.1630 C   0  0  0  0  0  0  0  0  0  0  0  0
  -24.3149   -9.3908   22.1478 C   0  0  0  0  0  0  0  0  0  0  0  0
  -18.6205  -27.6185   23.7034 C   0  0  0  0  0  0  0  0  0  0  0  0
  -20.3793  -28.7190   21.8482 C   0  0  0  0  0  0  0  0  0  0  0  0
  -27.3893  -26.5961   19.1318 C   0  0  0  0  0  0  0  0  0  0  0  0
  -22.3291   -8.3260   20.5030 C   0  0  0  0  0  0  0  0  0  0  0  0
  -23.6995   -8.1861   22.4878 C   0  0  0  0  0  0  0  0  0  0  0  0
  -28.6888  -26.1790   18.8427 C   0  0  0  0  0  0  0  0  0  0  0  0
  -19.9251   -7.2712   22.6339 C   0  0  0  0  0  0  0  0  0  0  0  0
  -18.5362   -7.1998   22.5267 C   0  0  0  0  0  0  0  0  0  0  0  0
  -29.3845  -26.7562   21.0856 C   0  0  0  0  0  0  0  0  0  0  0  0
  -18.7521   -5.3991   20.9304 C   0  0  0  0  0  0  0  0  0  0  0  0
  -23.9373  -10.0631   20.9854 C   0  0  0  0  0  0  0  0  0  0  0  0
  -23.9554  -12.5608   20.4670 C   0  0  0  0  0  0  0  0  0  0  0  0
  -19.9022  -28.0116   24.1197 C   0  0  0  0  0  0  0  0  0  0  0  0
  -27.0786  -27.0810   20.4053 C   0  0  0  0  0  0  0  0  0  0  0  0
  -20.7896  -28.5781   23.1848 C   0  0  0  0  0  0  0  0  0  0  0  0
  -28.0818  -27.1638   21.3849 C   0  0  0  0  0  0  0  0  0  0  0  0
  -22.7066   -7.6537   21.6654 C   0  0  0  0  0  0  0  0  0  0  0  0
  -29.6840  -26.2592   19.8171 C   0  0  0  0  0  0  0  0  0  0  0  0
  -20.7275   -6.4066   21.8894 C   0  0  0  0  0  0  0  0  0  0  0  0
  -17.9497   -6.2637   21.6750 C   0  0  0  0  0  0  0  0  0  0  0  0
  -20.1410   -5.4705   21.0376 C   0  0  0  0  0  0  0  0  0  0  0  0
  -24.5738  -11.3073   20.6344 C   0  0  0  0  0  0  0  0  0  0  0  0
  -24.9841  -13.4101   20.1398 C   0  0  0  0  0  0  0  0  0  0  0  0
  -22.5747  -12.9250   20.5959 C   0  0  0  0  0  0  0  0  0  0  0  0
  -24.4517  -28.4432   22.7117 C   0  0  0  0  0  0  0  0  0  0  0  0
  -26.1794  -26.5216   24.3649 C   0  0  0  0  0  0  0  0  0  0  0  0
  -27.5922  -23.8883   25.3513 C   0  0  0  0  0  0  0  0  0  0  0  0
  -30.1688  -15.3114   20.9453 C   0  0  0  0  0  0  0  0  0  0  0  0
  -20.2654  -27.8764   25.5772 C   0  0  0  0  0  0  0  0  0  0  0  0
  -25.7067  -27.5987   20.7423 C   0  0  0  0  0  0  0  0  0  0  0  0
  -27.7096  -27.7244   22.7303 C   0  0  0  0  0  0  0  0  0  0  0  0
  -21.7646  -27.9833   25.8438 C   0  0  0  0  0  0  0  0  0  0  0  0
  -29.7857  -12.4345   18.8830 C   0  0  0  0  0  0  0  0  0  0  0  0
  -22.3571  -29.1709   25.0919 C   0  0  0  0  0  0  0  0  0  0  0  0
  -28.3473  -11.9850   19.1458 C   0  0  0  0  0  0  0  0  0  0  0  0
  -29.7574  -21.0441   19.1194 C   0  0  0  0  0  0  0  0  0  0  0  0
  -28.6880  -22.1951   21.0973 C   0  0  0  0  0  0  0  0  0  0  0  0
  -30.4453  -12.9830   20.1463 C   0  0  0  0  0  0  0  0  0  0  0  0
  -28.2536  -13.6059   21.0855 C   0  0  0  0  0  0  0  0  0  0  0  0
  -29.4808  -18.5325   20.5887 C   0  0  0  0  0  0  0  0  0  0  0  0
  -28.5322  -19.6212   22.4084 C   0  0  0  0  0  0  0  0  0  0  0  0
  -31.0711  -21.7534   19.4275 C   0  0  0  0  0  0  0  0  0  0  0  0
  -30.0125  -22.8866   21.3973 C   0  0  0  0  0  0  0  0  0  0  0  0
  -22.1875  -29.0050   23.5769 C   0  0  1  0  0  0  0  0  0  0  0  0
  -25.2947  -27.3134   22.1977 C   0  0  1  0  0  0  0  0  0  0  0  0
  -27.5281  -13.0970   19.8281 C   0  0  2  0  0  0  0  0  0  0  0  0
  -28.8698  -20.8702   20.3543 C   0  0  0  0  0  0  0  0  0  0  0  0
  -29.7315  -17.6007   21.7717 C   0  0  1  0  0  0  0  0  0  0  0  0
  -29.0478  -18.2943   22.9565 C   0  0  2  0  0  0  0  0  0  0  0  0
  -28.5798  -21.9002   26.5214 C   0  0  0  0  0  0  0  0  0  0  0  0
  -32.9520  -26.2033   20.8233 C   0  0  0  0  0  0  0  0  0  0  0  0
  -27.6726  -28.9082   25.5389 C   0  0  0  0  0  0  0  0  0  0  0  0
  -28.7621  -27.3397   27.1579 C   0  0  0  0  0  0  0  0  0  0  0  0
  -26.2851  -27.6335   27.1835 C   0  0  0  0  0  0  0  0  0  0  0  0
  -27.2176  -18.1691   24.6515 C   0  0  0  0  0  0  0  0  0  0  0  0
  -25.0246  -22.4187   25.2693 C   0  0  0  0  0  0  0  0  0  0  0  0
  -32.0437  -23.8629   20.3316 C   0  0  0  0  0  0  0  0  0  0  0  0
  -27.3624  -26.3576   25.2852 C   0  0  1  0  0  0  0  0  0  0  0  0
  -27.3108  -22.6890   26.2383 C   0  0  2  0  0  0  0  0  0  0  0  0
  -31.7238  -25.3280   20.6104 C   0  0  2  0  0  0  0  0  0  1  0  0
  -27.5228  -27.5555   26.2634 C   0  0  0  0  0  0  0  0  0  0  0  0
  -25.8930  -11.3516   20.4302 N   0  0  0  0  0  0  0  0  0  0  0  0
  -26.1120  -12.6434   20.1310 N   0  0  0  0  0  0  0  0  0  0  0  0
  -26.4069  -27.1884   23.1550 N   0  0  0  0  0  0  0  0  0  0  0  0
  -29.6188  -14.0348   20.7435 N   0  0  0  0  0  0  0  0  0  0  0  0
  -29.3935  -19.8424   21.2423 N   0  0  2  0  0  0  0  0  0  0  0  0
  -25.0247  -14.7304   19.8614 N   0  0  0  0  0  0  0  0  0  0  0  0
  -22.1078  -13.3413   21.8501 N   0  0  0  0  0  0  0  0  0  0  0  0
  -23.1660  -28.0736   23.0578 N   0  0  0  0  0  0  0  0  0  0  0  0
  -27.1914  -25.0671   25.9438 N   0  0  0  0  0  0  0  0  0  0  0  0
  -29.3157  -16.2514   21.5104 N   0  0  0  0  0  0  0  0  0  0  0  0
  -30.7862  -23.0670   20.1138 N   0  3  0  0  0  0  0  0  0  0  0  0
  -27.9270  -17.5105   23.5183 N   0  3  0  0  0  0  0  0  0  0  0  0
  -26.3283  -21.7796   25.5835 N   0  3  0  0  0  0  0  0  0  0  0  0
  -21.7748  -12.8669   19.6313 O   0  0  0  0  0  0  0  0  0  0  0  0
  -24.9318  -29.5679   22.7906 O   0  0  0  0  0  0  0  0  0  0  0  0
  -25.0810  -26.0765   24.7094 O   0  0  0  0  0  0  0  0  0  0  0  0
  -28.1185  -23.7897   24.2450 O   0  0  0  0  0  0  0  0  0  0  0  0
  -31.3322  -15.5941   20.6393 O   0  0  0  0  0  0  0  0  0  0  0  0
  -22.1062   -6.4782   21.9975 O   0  0  0  0  0  0  0  0  0  0  0  0
  -30.9494  -25.8461   19.5296 O   0  0  0  0  0  0  0  0  0  1  0  0
  -16.6159   -6.1942   21.5732 F   0  0  0  0  0  0  0  0  0  0  0  0
  -20.9066   -4.6365   20.3207 F   0  0  0  0  0  0  0  0  0  0  0  0
  1  2  1  0  0  0  0
  1  5  2  0  0  0  0
  2  6  2  0  0  0  0
  3  8  2  0  0  0  0
  3 15  1  0  0  0  0
  4  9  1  0  0  0  0
  4 15  2  0  0  0  0
  5 17  1  0  0  0  0
  6 19  1  0  0  0  0
  7 10  2  0  0  0  0
  7 18  1  0  0  0  0
  8 21  1  0  0  0  0
  9 21  2  0  0  0  0
 10 22  1  0  0  0  0
 11 12  2  0  0  0  0
 11 23  1  0  0  0  0
 12 24  1  0  0  0  0
 13 20  1  0  0  0  0
 13 22  2  0  0  0  0
 14 24  2  0  0  0  0
 14 25  1  0  0  0  0
 15 26  1  0  0  0  0
 16 26  1  0  0  0  0
 16 27  2  0  0  0  0
 16 28  1  0  0  0  0
 17 19  2  0  0  0  0
 17 33  1  0  0  0  0
 18 20  2  0  0  0  0
 18 34  1  0  0  0  0
 19 48  1  0  0  0  0
 20 35  1  0  0  0  0
 21 84  1  0  0  0  0
 22 85  1  0  0  0  0
 23 25  2  0  0  0  0
 23 84  1  0  0  0  0
 24 86  1  0  0  0  0
 25 87  1  0  0  0  0
 26 66  2  0  0  0  0
 27 67  1  0  0  0  0
 27 71  1  0  0  0  0
 28 72  1  0  0  0  0
 28 79  2  0  0  0  0
 29 49  1  0  0  0  0
 29 73  1  0  0  0  0
 29 80  2  0  0  0  0
 30 62  1  0  0  0  0
 30 68  1  0  0  0  0
 30 81  2  0  0  0  0
 31 63  1  0  0  0  0
 31 74  1  0  0  0  0
 31 82  2  0  0  0  0
 32 69  1  0  0  0  0
 32 75  1  0  0  0  0
 32 83  2  0  0  0  0
 33 36  1  0  0  0  0
 34 49  1  0  0  0  0
 35 68  1  0  0  0  0
 36 38  1  0  0  0  0
 37 39  1  0  0  0  0
 37 42  1  0  0  0  0
 38 48  1  0  0  0  0
 39 50  1  0  0  0  0
 40 46  1  0  0  0  0
 40 51  1  0  0  0  0
 41 47  1  0  0  0  0
 41 51  1  0  0  0  0
 42 69  1  0  0  0  0
 43 50  1  0  0  0  0
 43 69  1  0  0  0  0
 44 52  1  0  0  0  0
 44 70  1  0  0  0  0
 45 53  1  0  0  0  0
 45 70  1  0  0  0  0
 46 76  1  0  0  0  0
 47 76  1  0  0  0  0
 48 73  1  0  0  0  0
 49 68  1  0  0  0  0
 50 67  1  0  0  0  0
 51 70  1  0  0  0  0
 52 53  1  0  0  0  0
 52 75  1  0  0  0  0
 53 77  1  0  0  0  0
 54 63  1  0  0  0  0
 55 64  1  0  0  0  0
 56 65  1  0  0  0  0
 57 65  1  0  0  0  0
 58 65  1  0  0  0  0
 59 77  1  0  0  0  0
 60 78  1  0  0  0  0
 61 64  1  0  0  0  0
 61 76  1  0  0  0  0
 62 65  1  0  0  0  0
 62 74  1  0  0  0  0
 63 78  1  0  0  0  0
 64 85  1  0  0  0  0
 66 67  1  0  0  0  0
M  CHG  3  76   1  77   1  78   1
M  ISO  4  32 100  64 101  75 100  85 101
M  END
> <Batch ID>
0197

> <Smiles>
CNC(C)C(=O)NC(C(=O)N1Cc2cc([101O:1][101CH:1](C)CN3CCC(N4CC(NC)C([100NH:0][100C:0](=O)N5CCCC(n6nc(-c7ccc(Oc8ccc(F)cc8F)cc7)c(C(N)=O)c6N)C5)C4)CC3)ccc2CC1C(=O)NC1CCCc2ccccc21)C(C)(C)C

> <Shape>
0.295

> <Color>
0.139

> <Negative vol penalty>
0.000

$$$$

  -OEChem-04052323453D

 84 93  0     1  0  0  0  0  0999 V2000
  -27.2115  -32.3104   21.8645 C   0  0  0  0  0  0  0  0  0  0  0  0
  -27.8003  -31.2302   22.5139 C   0  0  0  0  0  0  0  0  0  0  0  0
  -23.3771  -16.1857   21.2072 C   0  0  0  0  0  0  0  0  0  0  0  0
  -22.7527  -15.0567   19.1645 C   0  0  0  0  0  0  0  0  0  0  0  0
  -26.0279  -32.1318   21.1497 C   0  0  0  0  0  0  0  0  0  0  0  0
  -27.2051  -29.9708   22.4498 C   0  0  0  0  0  0  0  0  0  0  0  0
  -30.5530  -26.2845   21.5292 C   0  0  0  0  0  0  0  0  0  0  0  0
  -22.4446  -17.1877   20.9384 C   0  0  0  0  0  0  0  0  0  0  0  0
  -21.8202  -16.0586   18.8958 C   0  0  0  0  0  0  0  0  0  0  0  0
  -31.3348  -25.8525   22.5997 C   0  0  0  0  0  0  0  0  0  0  0  0
  -19.9746  -19.8546   20.9717 C   0  0  0  0  0  0  0  0  0  0  0  0
  -19.1588  -20.2796   22.0203 C   0  0  0  0  0  0  0  0  0  0  0  0
  -29.8783  -23.9514   22.8885 C   0  0  0  0  0  0  0  0  0  0  0  0
  -18.2839  -18.0390   22.2476 C   0  0  0  0  0  0  0  0  0  0  0  0
  -23.5312  -15.1202   20.3202 C   0  0  0  0  0  0  0  0  0  0  0  0
  -24.2809  -12.8961   21.3194 C   0  0  0  0  0  0  0  0  0  0  0  0
  -25.4230  -30.8676   21.0687 C   0  0  0  0  0  0  0  0  0  0  0  0
  -29.4198  -25.5578   21.1366 C   0  0  0  0  0  0  0  0  0  0  0  0
  -26.0115  -29.7754   21.7343 C   0  0  0  0  0  0  0  0  0  0  0  0
  -29.0852  -24.3749   21.8111 C   0  0  0  0  0  0  0  0  0  0  0  0
  -21.6661  -17.1241   19.7827 C   0  0  0  0  0  0  0  0  0  0  0  0
  -30.9959  -24.6873   23.2813 C   0  0  0  0  0  0  0  0  0  0  0  0
  -19.9449  -18.5219   20.5610 C   0  0  0  0  0  0  0  0  0  0  0  0
  -18.3135  -19.3718   22.6583 C   0  0  0  0  0  0  0  0  0  0  0  0
  -19.0996  -17.6141   21.1989 C   0  0  0  0  0  0  0  0  0  0  0  0
  -24.4946  -14.0853   20.5970 C   0  0  0  0  0  0  0  0  0  0  0  0
  -25.4974  -12.2586   21.2990 C   0  0  0  0  0  0  0  0  0  0  0  0
  -23.0894  -12.4110   21.9523 C   0  0  0  0  0  0  0  0  0  0  0  0
  -26.3038  -26.1682   20.9888 C   0  0  0  0  0  0  0  0  0  0  0  0
  -26.1962  -23.2532   19.5697 C   0  0  0  0  0  0  0  0  0  0  0  0
  -27.6438  -20.1961   19.1170 C   0  0  0  0  0  0  0  0  0  0  0  0
  -31.0670  -14.5722   20.5036 C   0  0  0  0  0  0  0  0  0  0  0  0
  -24.1187  -30.7333   20.3235 C   0  0  0  0  0  0  0  0  0  0  0  0
  -28.6021  -26.0227   19.9628 C   0  0  0  0  0  0  0  0  0  0  0  0
  -27.8902  -23.5476   21.4160 C   0  0  0  0  0  0  0  0  0  0  0  0
  -23.7521  -29.2888   19.9928 C   0  0  0  0  0  0  0  0  0  0  0  0
  -29.4668  -11.8312   18.6594 C   0  0  0  0  0  0  0  0  0  0  0  0
  -23.9443  -28.3961   21.2146 C   0  0  0  0  0  0  0  0  0  0  0  0
  -27.9840  -12.0298   18.9769 C   0  0  0  0  0  0  0  0  0  0  0  0
  -30.4319  -15.3359   24.0426 C   0  0  0  0  0  0  0  0  0  0  0  0
  -30.2346  -13.1512   18.6654 C   0  0  0  0  0  0  0  0  0  0  0  0
  -29.8226  -14.8672   22.7256 C   0  0  0  0  0  0  0  0  0  0  0  0
  -28.5890  -14.1467   20.2061 C   0  0  0  0  0  0  0  0  0  0  0  0
  -31.8161  -16.1304   22.2791 C   0  0  0  0  0  0  0  0  0  0  0  0
  -32.9722  -18.1652   24.1174 C   0  0  0  0  0  0  0  0  0  0  0  0
  -31.6329  -17.7849   25.6658 C   0  0  0  0  0  0  0  0  0  0  0  0
  -25.4094  -28.3886   21.6674 C   0  0  1  0  0  0  0  0  0  0  0  0
  -27.1759  -25.4813   19.9762 C   0  0  1  0  0  0  0  0  0  0  0  0
  -27.7975  -12.8335   20.2774 C   0  0  1  0  0  0  0  0  0  0  0  0
  -31.2219  -16.5705   23.6117 C   0  0  2  0  0  0  0  0  0  0  0  0
  -32.8637  -18.7081   25.5570 C   0  0  0  0  0  0  0  0  0  0  0  0
  -27.3025  -18.0111   17.9309 C   0  0  0  0  0  0  0  0  0  0  0  0
  -24.0881  -22.4665   21.6305 C   0  0  0  0  0  0  0  0  0  0  0  0
  -24.4846  -20.0713   21.0190 C   0  0  0  0  0  0  0  0  0  0  0  0
  -23.6240  -21.6679   19.3065 C   0  0  0  0  0  0  0  0  0  0  0  0
  -30.1442  -20.5147   17.5661 C   0  0  0  0  0  0  0  0  0  0  0  0
  -33.5599  -21.0459   25.0197 C   0  0  0  0  0  0  0  0  0  0  0  0
  -31.8134  -22.8554   24.5587 C   0  0  0  0  0  0  0  0  0  1  0  0
  -26.0332  -21.8332   20.0553 C   0  0  1  0  0  0  0  0  0  0  0  0
  -27.9316  -19.3939   17.8608 C   0  0  2  0  0  0  0  0  0  0  0  0
  -33.1576  -22.5082   25.1904 C   0  0  1  0  0  0  0  0  0  0  0  0
  -24.5790  -21.5261   20.5117 C   0  0  0  0  0  0  0  0  0  0  0  0
  -25.7483  -14.1990   20.1503 N   0  0  0  0  0  0  0  0  0  0  0  0
  -26.3333  -13.0731   20.5933 N   0  0  0  0  0  0  0  0  0  0  0  0
  -27.1185  -24.0471   20.2660 N   0  0  0  0  0  0  0  0  0  0  0  0
  -30.0017  -13.8880   19.9078 N   0  0  0  0  0  0  0  0  0  0  0  0
  -30.8228  -15.2199   21.7139 N   0  0  0  0  0  0  0  0  0  0  0  0
  -32.2353  -16.9626   24.5847 N   0  0  0  0  0  0  0  0  0  0  0  0
  -25.9228  -11.0864   21.8160 N   0  0  0  0  0  0  0  0  0  0  0  0
  -21.9277  -13.1914   21.8769 N   0  0  0  0  0  0  0  0  0  0  0  0
  -26.1997  -27.5341   20.8074 N   0  0  0  0  0  0  0  0  0  0  0  0
  -26.5149  -20.9755   18.9779 N   0  0  0  0  0  0  0  0  0  0  0  0
  -32.5403  -20.1359   25.6279 N   0  3  0  0  0  0  0  0  0  0  0  0
  -29.4014  -19.2327   17.6744 N   0  3  0  0  0  0  0  0  0  0  0  0
  -23.0601  -11.3256   22.5805 O   0  0  0  0  0  0  0  0  0  0  0  0
  -25.7641  -25.5076   21.8685 O   0  0  0  0  0  0  0  0  0  0  0  0
  -25.5349  -23.6416   18.6035 O   0  0  0  0  0  0  0  0  0  0  0  0
  -28.3477  -20.1344   20.1226 O   0  0  0  0  0  0  0  0  0  0  0  0
  -32.1985  -14.5656   20.0010 O   0  0  0  0  0  0  0  0  0  0  0  0
  -33.0994  -22.8280   26.5814 O   0  0  0  0  0  0  0  0  0  0  0  0
  -20.7560  -18.1014   19.5203 O   0  0  0  0  0  0  0  0  0  0  0  0
  -31.7615  -24.2612   24.3334 O   0  0  0  0  0  0  0  0  0  1  0  0
  -17.5313  -19.7796   23.6663 F   0  0  0  0  0  0  0  0  0  0  0  0
  -19.0676  -16.3323   20.8095 F   0  0  0  0  0  0  0  0  0  0  0  0
  1  2  1  0  0  0  0
  1  5  2  0  0  0  0
  2  6  2  0  0  0  0
  3  8  2  0  0  0  0
  3 15  1  0  0  0  0
  4  9  1  0  0  0  0
  4 15  2  0  0  0  0
  5 17  1  0  0  0  0
  6 19  1  0  0  0  0
  7 10  2  0  0  0  0
  7 18  1  0  0  0  0
  8 21  1  0  0  0  0
  9 21  2  0  0  0  0
 10 22  1  0  0  0  0
 11 12  2  0  0  0  0
 11 23  1  0  0  0  0
 12 24  1  0  0  0  0
 13 20  1  0  0  0  0
 13 22  2  0  0  0  0
 14 24  2  0  0  0  0
 14 25  1  0  0  0  0
 15 26  1  0  0  0  0
 16 26  1  0  0  0  0
 16 27  2  0  0  0  0
 16 28  1  0  0  0  0
 17 19  2  0  0  0  0
 17 33  1  0  0  0  0
 18 20  2  0  0  0  0
 18 34  1  0  0  0  0
 19 47  1  0  0  0  0
 20 35  1  0  0  0  0
 21 81  1  0  0  0  0
 22 82  1  0  0  0  0
 23 25  2  0  0  0  0
 23 81  1  0  0  0  0
 24 83  1  0  0  0  0
 25 84  1  0  0  0  0
 26 63  2  0  0  0  0
 27 64  1  0  0  0  0
 27 69  1  0  0  0  0
 28 70  1  0  0  0  0
 28 75  2  0  0  0  0
 29 48  1  0  0  0  0
 29 71  1  0  0  0  0
 29 76  2  0  0  0  0
 30 59  1  0  0  0  0
 30 65  1  0  0  0  0
 30 77  2  0  0  0  0
 31 60  1  0  0  0  0
 31 72  1  0  0  0  0
 31 78  2  0  0  0  0
 32 66  1  0  0  0  0
 32 67  1  0  0  0  0
 32 79  2  0  0  0  0
 33 36  1  0  0  0  0
 34 48  1  0  0  0  0
 35 65  1  0  0  0  0
 36 38  1  0  0  0  0
 37 39  1  0  0  0  0
 37 41  1  0  0  0  0
 38 47  1  0  0  0  0
 39 49  1  0  0  0  0
 40 42  1  0  0  0  0
 40 50  1  0  0  0  0
 41 66  1  0  0  0  0
 42 67  1  0  0  0  0
 43 49  1  0  0  0  0
 43 66  1  0  0  0  0
 44 50  1  0  0  0  0
 44 67  1  0  0  0  0
 45 51  1  0  0  0  0
 45 68  1  0  0  0  0
 46 51  1  0  0  0  0
 46 68  1  0  0  0  0
 47 71  1  0  0  0  0
 48 65  1  0  0  0  0
 49 64  1  0  0  0  0
 50 68  1  0  0  0  0
 51 73  1  0  0  0  0
 52 60  1  0  0  0  0
 53 62  1  0  0  0  0
 54 62  1  0  0  0  0
 55 62  1  0  0  0  0
 56 74  1  0  0  0  0
 57 61  1  0  0  0  0
 57 73  1  0  0  0  0
 58 61  1  0  0  0  0
 58 82  1  0  0  0  0
 59 62  1  0  0  0  0
 59 72  1  0  0  0  0
 60 74  1  0  0  0  0
 61 80  1  0  0  0  0
 63 64  1  0  0  0  0
M  CHG  2  73   1  74   1
M  ISO  4  32 100  58 101  67 100  82 101
M  END
> <Batch ID>
0197

> <Smiles>
CNC(C)C(=O)NC(C(=O)N1Cc2cc([101O:1][101CH2:1]C(O)CNC3CN(C4CC[100N:0]([100C:0](=O)N5CCCC(n6nc(-c7ccc(Oc8ccc(F)cc8F)cc7)c(C(N)=O)c6N)C5)C4)C3)ccc2CC1C(=O)NC1CCCc2ccccc21)C(C)(C)C

> <Shape>
0.202

> <Color>
0.088

> <Negative vol penalty>
0.000

$$$$

  -OEChem-04052323453D

 84 93  0     1  0  0  0  0  0999 V2000
  -20.7938  -28.2677   15.4000 C   0  0  0  0  0  0  0  0  0  0  0  0
  -21.4581  -27.3835   16.2440 C   0  0  0  0  0  0  0  0  0  0  0  0
  -22.8440  -10.2742   19.9881 C   0  0  0  0  0  0  0  0  0  0  0  0
  -23.8742   -9.9147   22.1437 C   0  0  0  0  0  0  0  0  0  0  0  0
  -20.9558  -29.6426   15.5657 C   0  0  0  0  0  0  0  0  0  0  0  0
  -22.2856  -27.8736   17.2536 C   0  0  0  0  0  0  0  0  0  0  0  0
  -21.5765  -25.4999   21.6703 C   0  0  0  0  0  0  0  0  0  0  0  0
  -22.0452   -9.1473   20.1818 C   0  0  0  0  0  0  0  0  0  0  0  0
  -23.0754   -8.7877   22.3374 C   0  0  0  0  0  0  0  0  0  0  0  0
  -22.1562  -24.2404   21.8166 C   0  0  0  0  0  0  0  0  0  0  0  0
  -23.0275   -5.5634   21.3213 C   0  0  0  0  0  0  0  0  0  0  0  0
  -23.6407   -4.4114   21.8136 C   0  0  0  0  0  0  0  0  0  0  0  0
  -27.2966  -17.7901   24.0542 C   0  0  0  0  0  0  0  0  0  0  0  0
  -26.2416  -18.6843   24.0067 C   0  0  0  0  0  0  0  0  0  0  0  0
  -23.9720  -25.2273   23.0609 C   0  0  0  0  0  0  0  0  0  0  0  0
  -22.1782   -4.4545   23.7361 C   0  0  0  0  0  0  0  0  0  0  0  0
  -23.7585  -10.6579   20.9690 C   0  0  0  0  0  0  0  0  0  0  0  0
  -24.2860  -13.1484   21.1333 C   0  0  0  0  0  0  0  0  0  0  0  0
  -21.7782  -30.1500   16.5840 C   0  0  0  0  0  0  0  0  0  0  0  0
  -22.1968  -26.6360   22.2098 C   0  0  0  0  0  0  0  0  0  0  0  0
  -22.4598  -29.2565   17.4323 C   0  0  0  0  0  0  0  0  0  0  0  0
  -23.3968  -26.4997   22.9223 C   0  0  0  0  0  0  0  0  0  0  0  0
  -22.1609   -8.4040   21.3565 C   0  0  0  0  0  0  0  0  0  0  0  0
  -23.3556  -24.1043   22.5094 C   0  0  0  0  0  0  0  0  0  0  0  0
  -21.9897   -6.1611   22.0364 C   0  0  0  0  0  0  0  0  0  0  0  0
  -23.2160   -3.8569   23.0210 C   0  0  0  0  0  0  0  0  0  0  0  0
  -21.5650   -5.6066   23.2438 C   0  0  0  0  0  0  0  0  0  0  0  0
  -24.5843  -11.8217   20.7692 C   0  0  0  0  0  0  0  0  0  0  0  0
  -28.0876  -17.6639   22.9300 C   0  0  0  0  0  0  0  0  0  0  0  0
  -26.0476  -19.3934   22.8383 C   0  0  0  0  0  0  0  0  0  0  0  0
  -25.3830  -13.8700   20.7303 C   0  0  0  0  0  0  0  0  0  0  0  0
  -23.1214  -13.6809   21.7782 C   0  0  0  0  0  0  0  0  0  0  0  0
  -23.4010  -29.3195   21.0048 C   0  0  0  0  0  0  0  0  0  0  0  0
  -23.7400  -30.1118   24.1321 C   0  0  0  0  0  0  0  0  0  0  0  0
  -24.0568  -29.0707   27.3667 C   0  0  0  0  0  0  0  0  0  0  0  0
  -30.9825  -14.2815   20.6353 C   0  0  0  0  0  0  0  0  0  0  0  0
  -21.9595  -31.6432   16.6944 C   0  0  0  0  0  0  0  0  0  0  0  0
  -21.5450  -27.9839   22.0664 C   0  0  0  0  0  0  0  0  0  0  0  0
  -24.0925  -27.6852   23.5381 C   0  0  0  0  0  0  0  0  0  0  0  0
  -22.5595  -32.0872   18.0259 C   0  0  0  0  0  0  0  0  0  0  0  0
  -29.3267  -12.5737   17.8357 C   0  0  0  0  0  0  0  0  0  0  0  0
  -23.7594  -31.2174   18.3872 C   0  0  0  0  0  0  0  0  0  0  0  0
  -27.9326  -12.2925   18.4024 C   0  0  0  0  0  0  0  0  0  0  0  0
  -30.6424  -17.2899   22.6460 C   0  0  0  0  0  0  0  0  0  0  0  0
  -30.3964  -12.5962   18.9262 C   0  0  0  0  0  0  0  0  0  0  0  0
  -31.4749  -16.0698   22.2856 C   0  0  0  0  0  0  0  0  0  0  0  0
  -29.1629  -15.5906   21.8678 C   0  0  0  0  0  0  0  0  0  0  0  0
  -28.7125  -13.1903   20.6230 C   0  0  0  0  0  0  0  0  0  0  0  0
  -23.3467  -29.7501   18.5548 C   0  0  1  0  0  0  0  0  0  0  0  0
  -29.2539  -16.6998   22.9291 C   0  0  2  0  0  0  0  0  0  0  0  0
  -22.5275  -29.1415   22.2143 C   0  0  1  0  0  0  0  0  0  0  0  0
  -27.6008  -13.2459   19.5670 C   0  0  2  0  0  0  0  0  0  0  0  0
  -24.3543  -29.9488   29.6986 C   0  0  0  0  0  0  0  0  0  0  0  0
  -26.6783  -30.6825   23.5397 C   0  0  0  0  0  0  0  0  0  0  0  0
  -27.1149  -30.6217   26.0043 C   0  0  0  0  0  0  0  0  0  0  0  0
  -25.5780  -32.3413   25.0537 C   0  0  0  0  0  0  0  0  0  0  0  0
  -21.5035  -27.8753   28.2670 C   0  0  0  0  0  0  0  0  0  0  0  0
  -23.6879  -21.9257   21.6155 C   0  0  0  0  0  0  0  0  0  1  0  0
  -24.8727  -20.9843   21.5176 C   0  0  0  0  0  0  0  0  0  0  0  0
  -24.8219  -29.9315   25.1694 C   0  0  1  0  0  0  0  0  0  0  0  0
  -23.3553  -29.5095   28.6394 C   0  0  2  0  0  0  0  0  0  0  0  0
  -26.0364  -30.8720   24.9286 C   0  0  0  0  0  0  0  0  0  0  0  0
  -25.7772  -11.7045   20.1801 N   0  0  0  0  0  0  0  0  0  0  0  0
  -27.8745  -18.3707   21.7998 N   0  0  0  0  0  0  0  0  0  0  0  0
  -26.8378  -19.2498   21.7534 N   0  0  0  0  0  0  0  0  0  0  0  0
  -26.2382  -12.9668   20.1708 N   0  0  0  0  0  0  0  0  0  0  0  0
  -23.4188  -28.9828   23.3652 N   0  0  0  0  0  0  0  0  0  0  0  0
  -30.0093  -13.4945   20.0120 N   0  0  0  0  0  0  0  0  0  0  0  0
  -30.5440  -15.1654   21.6244 N   0  0  0  0  0  0  0  0  0  0  0  0
  -25.6898  -15.1826   20.8035 N   0  0  0  0  0  0  0  0  0  0  0  0
  -22.0877  -12.8000   22.1245 N   0  0  0  0  0  0  0  0  0  0  0  0
  -22.7023  -29.5494   19.8350 N   0  0  0  0  0  0  0  0  0  0  0  0
  -24.1774  -30.1080   26.4663 N   0  0  0  0  0  0  0  0  0  0  0  0
  -22.5426  -28.3907   29.1951 N   0  3  0  0  0  0  0  0  0  0  0  0
  -22.9939  -14.9042   22.0249 O   0  0  0  0  0  0  0  0  0  0  0  0
  -24.6189  -29.2547   21.1243 O   0  0  0  0  0  0  0  0  0  0  0  0
  -23.1949  -31.2118   24.0117 O   0  0  0  0  0  0  0  0  0  0  0  0
  -24.4609  -27.9234   27.1905 O   0  0  0  0  0  0  0  0  0  0  0  0
  -32.1684  -14.2332   20.2858 O   0  0  0  0  0  0  0  0  0  0  0  0
  -21.3815   -7.3044   21.5460 O   0  0  0  0  0  0  0  0  0  0  0  0
  -23.9278  -22.8679   22.6540 O   0  0  0  0  0  0  0  0  0  1  0  0
  -25.0158  -20.2870   22.7506 O   0  0  0  0  0  0  0  0  0  0  0  0
  -23.8039   -2.7497   23.4928 F   0  0  0  0  0  0  0  0  0  0  0  0
  -20.5677   -6.1757   23.9348 F   0  0  0  0  0  0  0  0  0  0  0  0
  1  2  1  0  0  0  0
  1  5  2  0  0  0  0
  2  6  2  0  0  0  0
  3  8  2  0  0  0  0
  3 17  1  0  0  0  0
  4  9  1  0  0  0  0
  4 17  2  0  0  0  0
  5 19  1  0  0  0  0
  6 21  1  0  0  0  0
  7 10  2  0  0  0  0
  7 20  1  0  0  0  0
  8 23  1  0  0  0  0
  9 23  2  0  0  0  0
 10 24  1  0  0  0  0
 11 12  2  0  0  0  0
 11 25  1  0  0  0  0
 12 26  1  0  0  0  0
 13 14  2  0  0  0  0
 13 29  1  0  0  0  0
 14 30  1  0  0  0  0
 15 22  1  0  0  0  0
 15 24  2  0  0  0  0
 16 26  2  0  0  0  0
 16 27  1  0  0  0  0
 17 28  1  0  0  0  0
 18 28  1  0  0  0  0
 18 31  2  0  0  0  0
 18 32  1  0  0  0  0
 19 21  2  0  0  0  0
 19 37  1  0  0  0  0
 20 22  2  0  0  0  0
 20 38  1  0  0  0  0
 21 49  1  0  0  0  0
 22 39  1  0  0  0  0
 23 80  1  0  0  0  0
 24 81  1  0  0  0  0
 25 27  2  0  0  0  0
 25 80  1  0  0  0  0
 26 83  1  0  0  0  0
 27 84  1  0  0  0  0
 28 63  2  0  0  0  0
 29 50  1  0  0  0  0
 29 64  2  0  0  0  0
 30 65  2  0  0  0  0
 30 82  1  0  0  0  0
 31 66  1  0  0  0  0
 31 70  1  0  0  0  0
 32 71  1  0  0  0  0
 32 75  2  0  0  0  0
 33 51  1  0  0  0  0
 33 72  1  0  0  0  0
 33 76  2  0  0  0  0
 34 60  1  0  0  0  0
 34 67  1  0  0  0  0
 34 77  2  0  0  0  0
 35 61  1  0  0  0  0
 35 73  1  0  0  0  0
 35 78  2  0  0  0  0
 36 68  1  0  0  0  0
 36 69  1  0  0  0  0
 36 79  2  0  0  0  0
 37 40  1  0  0  0  0
 38 51  1  0  0  0  0
 39 67  1  0  0  0  0
 40 42  1  0  0  0  0
 41 43  1  0  0  0  0
 41 45  1  0  0  0  0
 42 49  1  0  0  0  0
 43 52  1  0  0  0  0
 44 46  1  0  0  0  0
 44 50  1  0  0  0  0
 45 68  1  0  0  0  0
 46 69  1  0  0  0  0
 47 50  1  0  0  0  0
 47 69  1  0  0  0  0
 48 52  1  0  0  0  0
 48 68  1  0  0  0  0
 49 72  1  0  0  0  0
 51 67  1  0  0  0  0
 52 66  1  0  0  0  0
 53 61  1  0  0  0  0
 54 62  1  0  0  0  0
 55 62  1  0  0  0  0
 56 62  1  0  0  0  0
 57 74  1  0  0  0  0
 58 59  1  0  0  0  0
 58 81  1  0  0  0  0
 59 82  1  0  0  0  0
 60 62  1  0  0  0  0
 60 73  1  0  0  0  0
 61 74  1  0  0  0  0
 63 66  1  0  0  0  0
 64 65  1  0  0  0  0
M  CHG  1  74   1
M  ISO  4  36 100  58 101  69 100  81 101
M  END
> <Batch ID>
0197

> <Smiles>
CNC(C)C(=O)NC(C(=O)N1Cc2cc([101O:1][101CH2:1]COc3ccc(C4CC[100N:0]([100C:0](=O)N5CCCC(n6nc(-c7ccc(Oc8ccc(F)cc8F)cc7)c(C(N)=O)c6N)C5)C4)nn3)ccc2CC1C(=O)NC1CCCc2ccccc21)C(C)(C)C

> <Shape>
0.277

> <Color>
0.181

> <Negative vol penalty>
0.000

$$$$

  -OEChem-04052323453D

 90 98  0     1  0  0  0  0  0999 V2000
  -26.6652  -38.0769   22.2496 C   0  0  0  0  0  0  0  0  0  0  0  0
  -27.2802  -37.1027   21.4697 C   0  0  0  0  0  0  0  0  0  0  0  0
  -25.1168  -13.3324   23.5069 C   0  0  0  0  0  0  0  0  0  0  0  0
  -24.1081  -11.1780   23.0849 C   0  0  0  0  0  0  0  0  0  0  0  0
  -25.9630  -37.7092   23.3966 C   0  0  0  0  0  0  0  0  0  0  0  0
  -27.1942  -35.7603   21.8370 C   0  0  0  0  0  0  0  0  0  0  0  0
  -26.8629  -29.2003   18.9781 C   0  0  0  0  0  0  0  0  0  0  0  0
  -24.1394  -13.6025   24.4647 C   0  0  0  0  0  0  0  0  0  0  0  0
  -23.1307  -11.4480   24.0427 C   0  0  0  0  0  0  0  0  0  0  0  0
  -27.4896  -27.9575   19.0586 C   0  0  0  0  0  0  0  0  0  0  0  0
  -23.5040  -12.7679   27.6791 C   0  0  0  0  0  0  0  0  0  0  0  0
  -23.9199  -13.3129   28.8938 C   0  0  0  0  0  0  0  0  0  0  0  0
  -26.1830  -27.4322   21.0172 C   0  0  0  0  0  0  0  0  0  0  0  0
  -22.5380  -15.2543   28.4959 C   0  0  0  0  0  0  0  0  0  0  0  0
  -25.1011  -12.1202   22.8169 C   0  0  0  0  0  0  0  0  0  0  0  0
  -27.3550  -11.2172   22.0345 C   0  0  0  0  0  0  0  0  0  0  0  0
  -25.8602  -36.3607   23.7729 C   0  0  0  0  0  0  0  0  0  0  0  0
  -25.8979  -29.5734   19.9246 C   0  0  0  0  0  0  0  0  0  0  0  0
  -26.4910  -35.3744   22.9908 C   0  0  0  0  0  0  0  0  0  0  0  0
  -25.5438  -28.6793   20.9451 C   0  0  0  0  0  0  0  0  0  0  0  0
  -23.1464  -12.6603   24.7326 C   0  0  0  0  0  0  0  0  0  0  0  0
  -27.1517  -27.0743   20.0799 C   0  0  0  0  0  0  0  0  0  0  0  0
  -22.6052  -13.4661   26.8727 C   0  0  0  0  0  0  0  0  0  0  0  0
  -23.4369  -14.5561   29.3023 C   0  0  0  0  0  0  0  0  0  0  0  0
  -22.1221  -14.7093   27.2811 C   0  0  0  0  0  0  0  0  0  0  0  0
  -26.1101  -11.8409   21.8270 C   0  0  0  0  0  0  0  0  0  0  0  0
  -27.9360  -11.1879   20.7903 C   0  0  0  0  0  0  0  0  0  0  0  0
  -27.9343  -10.7096   23.2438 C   0  0  0  0  0  0  0  0  0  0  0  0
  -25.6551  -31.8905   22.0870 C   0  0  0  0  0  0  0  0  0  0  0  0
  -22.6678  -30.6861   22.4714 C   0  0  0  0  0  0  0  0  0  0  0  0
  -20.5584  -28.0200   22.1734 C   0  0  0  0  0  0  0  0  0  0  0  0
  -26.7055  -14.7363   15.9444 C   0  0  0  0  0  0  0  0  0  0  0  0
  -25.1304  -36.0161   25.0470 C   0  0  0  0  0  0  0  0  0  0  0  0
  -25.2119  -30.9069   19.8083 C   0  0  0  0  0  0  0  0  0  0  0  0
  -24.4994  -29.0238   21.9742 C   0  0  0  0  0  0  0  0  0  0  0  0
  -24.7703  -34.5372   25.1618 C   0  0  0  0  0  0  0  0  0  0  0  0
  -26.8549  -11.0390   16.1400 C   0  0  0  0  0  0  0  0  0  0  0  0
  -25.9676  -33.6662   24.7947 C   0  0  0  0  0  0  0  0  0  0  0  0
  -26.7078  -10.7812   17.6385 C   0  0  0  0  0  0  0  0  0  0  0  0
  -26.1733  -12.3371   15.7193 C   0  0  0  0  0  0  0  0  0  0  0  0
  -27.2646  -17.1336   16.2040 C   0  0  0  0  0  0  0  0  0  0  0  0
  -26.4795  -13.2730   17.9893 C   0  0  0  0  0  0  0  0  0  0  0  0
  -27.7972  -15.6041   18.0625 C   0  0  0  0  0  0  0  0  0  0  0  0
  -28.7194  -17.5563   16.0806 C   0  0  0  0  0  0  0  0  0  0  0  0
  -26.3993  -33.9054   23.3428 C   0  0  1  0  0  0  0  0  0  0  0  0
  -24.6141  -31.3884   21.1268 C   0  0  1  0  0  0  0  0  0  0  0  0
  -27.1922  -11.9933   18.4526 C   0  0  1  0  0  0  0  0  0  0  0  0
  -29.2844  -15.9836   18.0004 C   0  0  1  0  0  0  0  0  0  0  0  0
  -18.1850  -27.3280   22.6043 C   0  0  0  0  0  0  0  0  0  0  0  0
  -32.2062  -20.0614   17.5459 C   0  0  0  0  0  0  0  0  0  0  0  0
  -27.5385  -20.8709   20.0731 C   0  0  0  0  0  0  0  0  0  0  0  0
  -23.2765  -30.4636   25.4530 C   0  0  0  0  0  0  0  0  0  0  0  0
  -21.3091  -28.9304   25.6693 C   0  0  0  0  0  0  0  0  0  0  0  0
  -20.9762  -31.2852   24.9164 C   0  0  0  0  0  0  0  0  0  0  0  0
  -32.5613  -13.3586   16.8579 C   0  0  0  0  0  0  0  0  0  0  0  0
  -20.0772  -27.4655   19.3063 C   0  0  0  0  0  0  0  0  0  0  0  0
  -30.1094  -14.9680   17.2103 C   0  0  0  0  0  0  0  0  0  0  0  0
  -29.5003  -21.2351   18.4751 C   0  0  0  0  0  0  0  0  0  0  0  0
  -30.8023  -17.9335   17.4131 C   0  0  0  0  0  0  0  0  0  0  0  0
  -30.3975  -13.7356   18.0473 C   0  0  0  0  0  0  0  0  0  0  0  0
  -29.3436  -24.1467   19.4978 C   0  0  0  0  0  0  0  0  0  0  0  0
  -28.7525  -25.5073   19.1854 C   0  0  0  0  0  0  0  0  0  1  0  0
  -22.0486  -29.6211   23.3439 C   0  0  1  0  0  0  0  0  0  0  0  0
  -19.1622  -27.9005   21.5894 C   0  0  2  0  0  0  0  0  0  0  0  0
  -30.8053  -19.4575   17.5276 C   0  0  1  0  0  0  0  0  0  0  0  0
  -28.7387  -21.7320   19.7029 C   0  0  1  0  0  0  0  0  0  0  0  0
  -21.9237  -30.0690   24.8276 C   0  0  0  0  0  0  0  0  0  0  0  0
  -25.9112  -12.1833   20.5513 N   0  0  0  0  0  0  0  0  0  0  0  0
  -27.0389  -11.7734   19.9461 N   0  0  0  0  0  0  0  0  0  0  0  0
  -23.8616  -30.3419   21.8217 N   0  0  0  0  0  0  0  0  0  0  0  0
  -26.6156  -13.4663   16.5375 N   0  0  0  0  0  0  0  0  0  0  0  0
  -27.1415  -15.7896   16.7621 N   0  0  0  0  0  0  0  0  0  0  0  0
  -29.1216  -10.7188   20.3469 N   0  0  0  0  0  0  0  0  0  0  0  0
  -27.2017  -10.8204   24.4334 N   0  0  0  0  0  0  0  0  0  0  0  0
  -25.5080  -33.2207   22.4311 N   0  0  0  0  0  0  0  0  0  0  0  0
  -20.7792  -29.2674   22.7177 N   0  0  0  0  0  0  0  0  0  0  0  0
  -30.0484  -19.8958   18.6769 N   0  0  0  0  0  0  0  0  0  0  0  0
  -29.4006  -17.3870   17.4203 N   0  3  1  0  0  0  0  0  0  0  0  0
  -31.2376  -12.8053   17.2556 N   0  3  0  0  0  0  0  0  0  0  0  0
  -19.1749  -27.0095   20.3949 N   0  3  0  0  0  0  0  0  0  0  0  0
  -28.2662  -23.1241   19.4622 N   0  3  0  0  0  0  0  0  0  0  0  0
  -29.0750  -10.1884   23.2715 O   0  0  0  0  0  0  0  0  0  0  0  0
  -26.5262  -31.1272   22.4872 O   0  0  0  0  0  0  0  0  0  0  0  0
  -22.1089  -31.7806   22.3645 O   0  0  0  0  0  0  0  0  0  0  0  0
  -21.3704  -27.0976   22.1524 O   0  0  0  0  0  0  0  0  0  0  0  0
  -26.4199  -14.9153   14.7537 O   0  0  0  0  0  0  0  0  0  0  0  0
  -22.1926  -12.9233   25.6674 O   0  0  0  0  0  0  0  0  0  0  0  0
  -27.7744  -25.8369   20.1627 O   0  0  0  0  0  0  0  0  0  1  0  0
  -23.8352  -15.0787   30.4695 F   0  0  0  0  0  0  0  0  0  0  0  0
  -21.2575  -15.3842   26.5113 F   0  0  0  0  0  0  0  0  0  0  0  0
  1  2  1  0  0  0  0
  1  5  2  0  0  0  0
  2  6  2  0  0  0  0
  3  8  2  0  0  0  0
  3 15  1  0  0  0  0
  4  9  1  0  0  0  0
  4 15  2  0  0  0  0
  5 17  1  0  0  0  0
  6 19  1  0  0  0  0
  7 10  2  0  0  0  0
  7 18  1  0  0  0  0
  8 21  1  0  0  0  0
  9 21  2  0  0  0  0
 10 22  1  0  0  0  0
 11 12  2  0  0  0  0
 11 23  1  0  0  0  0
 12 24  1  0  0  0  0
 13 20  1  0  0  0  0
 13 22  2  0  0  0  0
 14 24  2  0  0  0  0
 14 25  1  0  0  0  0
 15 26  1  0  0  0  0
 16 26  1  0  0  0  0
 16 27  2  0  0  0  0
 16 28  1  0  0  0  0
 17 19  2  0  0  0  0
 17 33  1  0  0  0  0
 18 20  2  0  0  0  0
 18 34  1  0  0  0  0
 19 45  1  0  0  0  0
 20 35  1  0  0  0  0
 21 87  1  0  0  0  0
 22 88  1  0  0  0  0
 23 25  2  0  0  0  0
 23 87  1  0  0  0  0
 24 89  1  0  0  0  0
 25 90  1  0  0  0  0
 26 68  2  0  0  0  0
 27 69  1  0  0  0  0
 27 73  1  0  0  0  0
 28 74  1  0  0  0  0
 28 82  2  0  0  0  0
 29 46  1  0  0  0  0
 29 75  1  0  0  0  0
 29 83  2  0  0  0  0
 30 63  1  0  0  0  0
 30 70  1  0  0  0  0
 30 84  2  0  0  0  0
 31 64  1  0  0  0  0
 31 76  1  0  0  0  0
 31 85  2  0  0  0  0
 32 71  1  0  0  0  0
 32 72  1  0  0  0  0
 32 86  2  0  0  0  0
 33 36  1  0  0  0  0
 34 46  1  0  0  0  0
 35 70  1  0  0  0  0
 36 38  1  0  0  0  0
 37 39  1  0  0  0  0
 37 40  1  0  0  0  0
 38 45  1  0  0  0  0
 39 47  1  0  0  0  0
 40 71  1  0  0  0  0
 41 44  1  0  0  0  0
 41 72  1  0  0  0  0
 42 47  1  0  0  0  0
 42 71  1  0  0  0  0
 43 48  1  0  0  0  0
 43 72  1  0  0  0  0
 44 78  1  0  0  0  0
 45 75  1  0  0  0  0
 46 70  1  0  0  0  0
 47 69  1  0  0  0  0
 48 57  1  0  0  0  0
 48 78  1  0  0  0  0
 49 64  1  0  0  0  0
 50 65  1  0  0  0  0
 51 66  1  0  0  0  0
 52 67  1  0  0  0  0
 53 67  1  0  0  0  0
 54 67  1  0  0  0  0
 55 79  1  0  0  0  0
 56 80  1  0  0  0  0
 57 60  1  0  0  0  0
 58 66  1  0  0  0  0
 58 77  1  0  0  0  0
 59 65  1  0  0  0  0
 59 78  1  0  0  0  0
 60 79  1  0  0  0  0
 61 62  1  0  0  0  0
 61 81  1  0  0  0  0
 62 88  1  0  0  0  0
 63 67  1  0  0  0  0
 63 76  1  0  0  0  0
 64 80  1  0  0  0  0
 65 77  1  0  0  0  0
 66 81  1  0  0  0  0
 68 69  1  0  0  0  0
M  CHG  4  78   1  79   1  80   1  81   1
M  ISO  4  32 100  62 101  72 100  88 101
M  END
> <Batch ID>
0197

> <Smiles>
CNCCC1C[100N:0]([100C:0](=O)N2CCCC(n3nc(-c4ccc(Oc5ccc(F)cc5F)cc4)c(C(N)=O)c3N)C2)CCN1CC(C)NCC(C)NC[101CH2:1][101O:1]c1ccc2c(c1)CN(C(=O)C(NC(=O)C(C)NC)C(C)(C)C)C(C(=O)NC1CCCc3ccccc31)C2

> <Shape>
0.235

> <Color>
0.060

> <Negative vol penalty>
0.000

$$$$

  -OEChem-04052323453D

 90100  0     1  0  0  0  0  0999 V2000
  -19.6193  -27.0385   26.3790 C   0  0  0  0  0  0  0  0  0  0  0  0
  -20.9867  -26.9817   26.1287 C   0  0  0  0  0  0  0  0  0  0  0  0
  -24.1372   -8.6118   19.5214 C   0  0  0  0  0  0  0  0  0  0  0  0
  -24.3760   -9.3089   21.8223 C   0  0  0  0  0  0  0  0  0  0  0  0
  -18.7235  -27.1821   25.3204 C   0  0  0  0  0  0  0  0  0  0  0  0
  -21.4588  -27.0674   24.8195 C   0  0  0  0  0  0  0  0  0  0  0  0
  -26.6515  -29.7182   22.9447 C   0  0  0  0  0  0  0  0  0  0  0  0
  -22.9921   -7.8904   19.8588 C   0  0  0  0  0  0  0  0  0  0  0  0
  -23.2308   -8.5875   22.1597 C   0  0  0  0  0  0  0  0  0  0  0  0
  -27.9085  -29.2022   22.6326 C   0  0  0  0  0  0  0  0  0  0  0  0
  -20.5757   -6.6378   23.6955 C   0  0  0  0  0  0  0  0  0  0  0  0
  -20.6201   -5.8523   24.8473 C   0  0  0  0  0  0  0  0  0  0  0  0
  -27.3031  -29.1556   20.2980 C   0  0  0  0  0  0  0  0  0  0  0  0
  -22.4455   -4.5783   23.9081 C   0  0  0  0  0  0  0  0  0  0  0  0
  -29.8648  -22.0938   20.5437 C   0  0  0  0  0  0  0  0  0  0  0  0
  -24.8293   -9.3210   20.5032 C   0  0  0  0  0  0  0  0  0  0  0  0
  -27.2017   -9.5603   19.5966 C   0  0  0  0  0  0  0  0  0  0  0  0
  -19.1855  -27.2793   23.9983 C   0  0  0  0  0  0  0  0  0  0  0  0
  -25.7054  -29.9470   21.9353 C   0  0  0  0  0  0  0  0  0  0  0  0
  -20.5682  -27.2111   23.7421 C   0  0  0  0  0  0  0  0  0  0  0  0
  -26.0357  -29.6770   20.5996 C   0  0  0  0  0  0  0  0  0  0  0  0
  -22.5388   -7.8783   21.1779 C   0  0  0  0  0  0  0  0  0  0  0  0
  -28.2334  -28.9181   21.3094 C   0  0  0  0  0  0  0  0  0  0  0  0
  -21.4661   -6.3935   22.6500 C   0  0  0  0  0  0  0  0  0  0  0  0
  -21.5550   -4.8226   24.9537 C   0  0  0  0  0  0  0  0  0  0  0  0
  -22.4011   -5.3638   22.7563 C   0  0  0  0  0  0  0  0  0  0  0  0
  -26.0126  -10.0659   20.1554 C   0  0  0  0  0  0  0  0  0  0  0  0
  -28.0238  -21.0911   19.6301 C   0  0  0  0  0  0  0  0  0  0  0  0
  -29.6388  -23.2122   19.7720 C   0  0  0  0  0  0  0  0  0  0  0  0
  -27.7972  -22.2098   18.8588 C   0  0  0  0  0  0  0  0  0  0  0  0
  -28.0109  -10.6614   19.4574 C   0  0  0  0  0  0  0  0  0  0  0  0
  -27.5442   -8.2156   19.2357 C   0  0  0  0  0  0  0  0  0  0  0  0
  -22.8063  -28.8195   21.2810 C   0  0  0  0  0  0  0  0  0  0  0  0
  -22.8804  -31.0756   18.9515 C   0  0  0  0  0  0  0  0  0  0  0  0
  -24.7496  -33.0582   16.8968 C   0  0  0  0  0  0  0  0  0  0  0  0
  -26.7802  -16.4509   19.0129 C   0  0  0  0  0  0  0  0  0  0  0  0
  -18.1762  -27.3862   22.8827 C   0  0  0  0  0  0  0  0  0  0  0  0
  -24.3634  -30.5291   22.2854 C   0  0  0  0  0  0  0  0  0  0  0  0
  -25.0627  -29.9237   19.4767 C   0  0  0  0  0  0  0  0  0  0  0  0
  -18.7792  -27.8463   21.5579 C   0  0  0  0  0  0  0  0  0  0  0  0
  -27.6963  -14.4874   22.1783 C   0  0  0  0  0  0  0  0  0  0  0  0
  -20.0607  -27.0751   21.2582 C   0  0  0  0  0  0  0  0  0  0  0  0
  -28.4706  -13.5073   21.3008 C   0  0  0  0  0  0  0  0  0  0  0  0
  -27.3385  -15.7577   21.4045 C   0  0  0  0  0  0  0  0  0  0  0  0
  -27.1178  -18.8874   18.3621 C   0  0  0  0  0  0  0  0  0  0  0  0
  -27.6038  -18.5383   20.3977 C   0  0  0  0  0  0  0  0  0  0  0  0
  -26.5230  -14.1074   19.7477 C   0  0  0  0  0  0  0  0  0  0  0  0
  -31.0814  -26.4735   21.0463 C   0  0  0  0  0  0  0  0  0  0  0  0
  -29.0676  -25.9199   21.0721 C   0  0  0  0  0  0  0  0  0  0  0  0
  -21.1205  -27.3254   22.3378 C   0  0  1  0  0  0  0  0  0  0  0  0
  -27.1247  -19.7852   19.6167 C   0  0  0  0  0  0  0  0  0  0  0  0
  -23.2944  -30.2398   21.2361 C   0  0  1  0  0  0  0  0  0  0  0  0
  -27.7205  -13.1723   19.9925 C   0  0  2  0  0  0  0  0  0  0  0  0
  -29.8174  -27.1564   21.5980 C   0  0  0  0  0  0  0  0  0  1  0  0
  -24.5282  -34.7694   15.0746 C   0  0  0  0  0  0  0  0  0  0  0  0
  -22.1936  -28.8656   16.9629 C   0  0  0  0  0  0  0  0  0  0  0  0
  -22.9135  -30.3976   15.1182 C   0  0  0  0  0  0  0  0  0  0  0  0
  -20.9914  -31.0247   16.5793 C   0  0  0  0  0  0  0  0  0  0  0  0
  -24.4032  -24.9094   19.5712 C   0  0  0  0  0  0  0  0  0  0  0  0
  -26.1233  -35.1240   18.5106 C   0  0  0  0  0  0  0  0  0  0  0  0
  -30.5539  -24.3976   19.8631 C   0  0  0  0  0  0  0  0  0  0  0  0
  -25.3595  -22.8512   18.5283 C   0  0  0  0  0  0  0  0  0  0  0  0
  -26.6435  -22.2746   17.9186 C   0  0  1  0  0  0  0  0  0  0  0  0
  -23.3389  -31.1130   17.5136 C   0  0  1  0  0  0  0  0  0  0  0  0
  -24.6615  -34.5385   16.5718 C   0  0  2  0  0  0  0  0  0  0  0  0
  -22.3772  -30.3437   16.5646 C   0  0  0  0  0  0  0  0  0  0  0  0
  -29.0614  -21.0131   20.4865 N   0  0  0  0  0  0  0  0  0  0  0  0
  -26.0581  -11.3854   20.3575 N   0  0  0  0  0  0  0  0  0  0  0  0
  -28.6009  -23.2903   18.9157 N   0  0  0  0  0  0  0  0  0  0  0  0
  -27.2856  -11.7183   19.9234 N   0  0  0  0  0  0  0  0  0  0  0  0
  -23.7612  -30.4879   19.8705 N   0  0  0  0  0  0  0  0  0  0  0  0
  -26.8755  -15.5009   20.0364 N   0  0  0  0  0  0  0  0  0  0  0  0
  -27.1412  -17.7496   19.2743 N   0  0  0  0  0  0  0  0  0  0  0  0
  -29.2649  -10.8189   18.9831 N   0  0  0  0  0  0  0  0  0  0  0  0
  -28.1549   -7.4004   20.1983 N   0  0  0  0  0  0  0  0  0  0  0  0
  -21.7455  -28.6161   22.1428 N   0  0  0  0  0  0  0  0  0  0  0  0
  -23.5105  -32.5220   17.1765 N   0  0  0  0  0  0  0  0  0  0  0  0
  -30.3508  -25.1935   21.0933 N   0  3  0  0  0  0  0  0  0  0  0  0
  -25.6060  -24.2318   19.0168 N   0  3  0  0  0  0  0  0  0  0  0  0
  -25.8821  -35.2473   17.0499 N   0  3  0  0  0  0  0  0  0  0  0  0
  -27.3303   -7.7560   18.0883 O   0  0  0  0  0  0  0  0  0  0  0  0
  -23.3509  -27.9712   20.5842 O   0  0  0  0  0  0  0  0  0  0  0  0
  -21.7842  -31.5566   19.2493 O   0  0  0  0  0  0  0  0  0  0  0  0
  -25.8111  -32.4387   16.8984 O   0  0  0  0  0  0  0  0  0  0  0  0
  -26.3774  -16.1495   17.8804 O   0  0  0  0  0  0  0  0  0  0  0  0
  -21.4213   -7.1747   21.5074 O   0  0  0  0  0  0  0  0  0  0  0  0
  -29.4594  -28.4137   21.0021 O   0  0  0  0  0  0  0  0  0  1  0  0
  -21.5986   -4.0694   26.0604 F   0  0  0  0  0  0  0  0  0  0  0  0
  -23.2598   -5.1251   21.7556 F   0  0  0  0  0  0  0  0  0  0  0  0
  -26.9006  -22.9907   16.7730 F   0  0  0  0  0  0  0  0  0  0  0  0
  1  2  1  0  0  0  0
  1  5  2  0  0  0  0
  2  6  2  0  0  0  0
  3  8  2  0  0  0  0
  3 16  1  0  0  0  0
  4  9  1  0  0  0  0
  4 16  2  0  0  0  0
  5 18  1  0  0  0  0
  6 20  1  0  0  0  0
  7 10  2  0  0  0  0
  7 19  1  0  0  0  0
  8 22  1  0  0  0  0
  9 22  2  0  0  0  0
 10 23  1  0  0  0  0
 11 12  2  0  0  0  0
 11 24  1  0  0  0  0
 12 25  1  0  0  0  0
 13 21  1  0  0  0  0
 13 23  2  0  0  0  0
 14 25  2  0  0  0  0
 14 26  1  0  0  0  0
 15 29  1  0  0  0  0
 15 67  2  0  0  0  0
 16 27  1  0  0  0  0
 17 27  1  0  0  0  0
 17 31  2  0  0  0  0
 17 32  1  0  0  0  0
 18 20  2  0  0  0  0
 18 37  1  0  0  0  0
 19 21  2  0  0  0  0
 19 38  1  0  0  0  0
 20 50  1  0  0  0  0
 21 39  1  0  0  0  0
 22 86  1  0  0  0  0
 23 87  1  0  0  0  0
 24 26  2  0  0  0  0
 24 86  1  0  0  0  0
 25 88  1  0  0  0  0
 26 89  1  0  0  0  0
 27 68  2  0  0  0  0
 28 30  2  0  0  0  0
 28 51  1  0  0  0  0
 28 67  1  0  0  0  0
 29 61  1  0  0  0  0
 29 69  2  0  0  0  0
 30 63  1  0  0  0  0
 30 69  1  0  0  0  0
 31 70  1  0  0  0  0
 31 74  1  0  0  0  0
 32 75  1  0  0  0  0
 32 81  2  0  0  0  0
 33 52  1  0  0  0  0
 33 76  1  0  0  0  0
 33 82  2  0  0  0  0
 34 64  1  0  0  0  0
 34 71  1  0  0  0  0
 34 83  2  0  0  0  0
 35 65  1  0  0  0  0
 35 77  1  0  0  0  0
 35 84  2  0  0  0  0
 36 72  1  0  0  0  0
 36 73  1  0  0  0  0
 36 85  2  0  0  0  0
 37 40  1  0  0  0  0
 38 52  1  0  0  0  0
 39 71  1  0  0  0  0
 40 42  1  0  0  0  0
 41 43  1  0  0  0  0
 41 44  1  0  0  0  0
 42 50  1  0  0  0  0
 43 53  1  0  0  0  0
 44 72  1  0  0  0  0
 45 51  1  0  0  0  0
 45 73  1  0  0  0  0
 46 51  1  0  0  0  0
 46 73  1  0  0  0  0
 47 53  1  0  0  0  0
 47 72  1  0  0  0  0
 48 54  1  0  0  0  0
 48 78  1  0  0  0  0
 49 54  1  0  0  0  0
 49 78  1  0  0  0  0
 50 76  1  0  0  0  0
 52 71  1  0  0  0  0
 53 70  1  0  0  0  0
 54 87  1  0  0  0  0
 55 65  1  0  0  0  0
 56 66  1  0  0  0  0
 57 66  1  0  0  0  0
 58 66  1  0  0  0  0
 59 79  1  0  0  0  0
 60 80  1  0  0  0  0
 61 78  1  0  0  0  0
 62 63  1  0  0  0  0
 62 79  1  0  0  0  0
 63 90  1  0  0  0  0
 64 66  1  0  0  0  0
 64 77  1  0  0  0  0
 65 80  1  0  0  0  0
 68 70  1  0  0  0  0
M  CHG  3  78   1  79   1  80   1
M  ISO  4  36 100  54 101  73 100  87 101
M  END
> <Batch ID>
0197

> <Smiles>
CNCC(F)c1nc(CN2C[101CH:1]([101O:1]c3ccc4c(c3)CN(C(=O)C(NC(=O)C(C)NC)C(C)(C)C)C(C(=O)NC3CCCc5ccccc53)C4)C2)cnc1C1C[100N:0]([100C:0](=O)N2CCCC(n3nc(-c4ccc(Oc5ccc(F)cc5F)cc4)c(C(N)=O)c3N)C2)C1

> <Shape>
0.286

> <Color>
0.122

> <Negative vol penalty>
0.000

$$$$

  -OEChem-04052323452D

  0  0  0     0  0  0  0  0  0999 V2000
M  END
$$$$

  -OEChem-04052323453D

 88 98  0     1  0  0  0  0  0999 V2000
  -33.4895  -21.6605   21.8901 C   0  0  0  0  0  0  0  0  0  0  0  0
  -33.4714  -22.6020   22.9141 C   0  0  0  0  0  0  0  0  0  0  0  0
  -27.4884  -15.0692   21.3060 C   0  0  0  0  0  0  0  0  0  0  0  0
  -25.2790  -15.2932   20.3544 C   0  0  0  0  0  0  0  0  0  0  0  0
  -33.1470  -22.0372   20.5922 C   0  0  0  0  0  0  0  0  0  0  0  0
  -33.1118  -23.9212   22.6405 C   0  0  0  0  0  0  0  0  0  0  0  0
  -27.5083  -28.3401   25.8187 C   0  0  0  0  0  0  0  0  0  0  0  0
  -27.4001  -13.6825   21.1847 C   0  0  0  0  0  0  0  0  0  0  0  0
  -25.1908  -13.9064   20.2329 C   0  0  0  0  0  0  0  0  0  0  0  0
  -26.4492  -29.1672   26.1932 C   0  0  0  0  0  0  0  0  0  0  0  0
  -24.5461  -11.2655   22.2432 C   0  0  0  0  0  0  0  0  0  0  0  0
  -23.3580  -10.6543   22.6435 C   0  0  0  0  0  0  0  0  0  0  0  0
  -26.5451  -30.2793   24.0480 C   0  0  0  0  0  0  0  0  0  0  0  0
  -23.0472   -9.7939   20.4074 C   0  0  0  0  0  0  0  0  0  0  0  0
  -19.6085  -28.4591   21.8186 C   0  0  0  0  0  0  0  0  0  0  0  0
  -26.4278  -15.8746   20.8910 C   0  0  0  0  0  0  0  0  0  0  0  0
  -27.4730  -18.1540   20.4228 C   0  0  0  0  0  0  0  0  0  0  0  0
  -32.7737  -23.3595   20.3043 C   0  0  0  0  0  0  0  0  0  0  0  0
  -28.0803  -28.4692   24.5500 C   0  0  0  0  0  0  0  0  0  0  0  0
  -32.7653  -24.3163   21.3372 C   0  0  0  0  0  0  0  0  0  0  0  0
  -27.5979  -29.4452   23.6626 C   0  0  0  0  0  0  0  0  0  0  0  0
  -26.2513  -13.1011   20.6481 C   0  0  0  0  0  0  0  0  0  0  0  0
  -25.9690  -30.1346   25.3102 C   0  0  0  0  0  0  0  0  0  0  0  0
  -24.9848  -11.1411   20.9250 C   0  0  0  0  0  0  0  0  0  0  0  0
  -22.6086   -9.9184   21.7257 C   0  0  0  0  0  0  0  0  0  0  0  0
  -24.2354  -10.4052   20.0071 C   0  0  0  0  0  0  0  0  0  0  0  0
  -26.5181  -17.3071   21.0166 C   0  0  0  0  0  0  0  0  0  0  0  0
  -19.9137  -28.4381   23.1502 C   0  0  0  0  0  0  0  0  0  0  0  0
  -27.1270  -19.4133   20.8484 C   0  0  0  0  0  0  0  0  0  0  0  0
  -19.4671  -26.3639   22.5188 C   0  0  0  0  0  0  0  0  0  0  0  0
  -28.5743  -17.8313   19.5633 C   0  0  0  0  0  0  0  0  0  0  0  0
  -30.6506  -27.2473   22.1054 C   0  0  0  0  0  0  0  0  0  0  0  0
  -28.0920  -27.8006   20.5061 C   0  0  0  0  0  0  0  0  0  0  0  0
  -25.1119  -27.6392   19.5083 C   0  0  0  0  0  0  0  0  0  0  0  0
  -21.8368  -21.5447   22.6005 C   0  0  0  0  0  0  0  0  0  0  0  0
  -32.4574  -23.7301   18.8770 C   0  0  0  0  0  0  0  0  0  0  0  0
  -29.2632  -27.6412   24.1269 C   0  0  0  0  0  0  0  0  0  0  0  0
  -28.2668  -29.5714   22.3211 C   0  0  0  0  0  0  0  0  0  0  0  0
  -31.7261  -25.0632   18.7416 C   0  0  0  0  0  0  0  0  0  0  0  0
  -25.0311  -21.7142   24.4569 C   0  0  0  0  0  0  0  0  0  0  0  0
  -32.3984  -26.1305   19.5994 C   0  0  0  0  0  0  0  0  0  0  0  0
  -25.8348  -20.6252   23.7536 C   0  0  0  0  0  0  0  0  0  0  0  0
  -20.3553  -30.9322   23.4681 C   0  0  0  0  0  0  0  0  0  0  0  0
  -23.5398  -21.3844   24.5119 C   0  0  0  0  0  0  0  0  0  0  0  0
  -23.7561  -19.9904   22.4710 C   0  0  0  0  0  0  0  0  0  0  0  0
  -20.0422  -24.0898   21.7557 C   0  0  0  0  0  0  0  0  0  0  0  0
  -19.3572  -24.2373   23.7639 C   0  0  0  0  0  0  0  0  0  0  0  0
  -21.0923  -31.7392   24.5163 C   0  0  0  0  0  0  0  0  0  0  0  0
  -21.6723  -29.3731   24.7469 C   0  0  0  0  0  0  0  0  0  0  0  0
  -32.3569  -25.7514   21.0847 C   0  0  1  0  0  0  0  0  0  0  0  0
  -20.2944  -29.5446   24.1031 C   0  0  2  0  0  0  0  0  0  0  0  0
  -29.2453  -27.2841   22.6298 C   0  0  1  0  0  0  0  0  0  0  0  0
  -25.2495  -20.3336   22.3638 C   0  0  2  0  0  0  0  0  0  0  0  0
  -19.8672  -23.0755   22.8968 C   0  0  0  0  0  0  0  0  0  0  0  0
  -23.3094  -27.7369   17.7651 C   0  0  0  0  0  0  0  0  0  0  0  0
  -29.2695  -30.4585   19.5827 C   0  0  0  0  0  0  0  0  0  0  0  0
  -27.3557  -30.6694   17.9824 C   0  0  0  0  0  0  0  0  0  0  0  0
  -28.9565  -28.7685   17.7661 C   0  0  0  0  0  0  0  0  0  0  0  0
  -18.9665  -26.7296   20.1214 C   0  0  0  0  0  0  0  0  0  0  0  0
  -24.2591  -24.8610   20.0680 C   0  0  0  0  0  0  0  0  0  0  0  0
  -22.6353  -31.0499   26.3843 C   0  0  0  0  0  0  0  0  0  0  0  0
  -23.9825  -30.3870   26.5937 C   0  0  0  0  0  0  0  0  0  1  0  0
  -27.3048  -28.7863   19.6802 C   0  0  1  0  0  0  0  0  0  0  0  0
  -24.2591  -26.8379   18.5413 C   0  0  2  0  0  0  0  0  0  0  0  0
  -28.2169  -29.6675   18.7807 C   0  0  0  0  0  0  0  0  0  0  0  0
  -25.6321  -17.9722   21.7627 N   0  0  0  0  0  0  0  0  0  0  0  0
  -19.3369  -27.1624   21.4543 N   0  0  0  0  0  0  0  0  0  0  0  0
  -26.0289  -19.2503   21.6406 N   0  0  0  0  0  0  0  0  0  0  0  0
  -19.8181  -27.1292   23.5573 N   0  3  0  0  0  0  0  0  0  0  0  0
  -19.2804  -25.0174   22.5540 N   0  0  0  0  0  0  0  0  0  0  0  0
  -28.5294  -28.2357   21.7631 N   0  0  0  0  0  0  0  0  0  0  0  0
  -23.0099  -21.0341   23.1845 N   0  0  0  0  0  0  0  0  0  0  0  0
  -27.6581  -20.6329   20.6185 N   0  0  0  0  0  0  0  0  0  0  0  0
  -28.3582  -17.8133   18.1786 N   0  0  0  0  0  0  0  0  0  0  0  0
  -31.0435  -26.0087   21.6354 N   0  0  0  0  0  0  0  0  0  0  0  0
  -26.3161  -28.0050   18.9451 N   0  0  0  0  0  0  0  0  0  0  0  0
  -21.1231  -22.4584   23.3700 N   0  0  0  0  0  0  0  0  0  0  0  0
  -22.1689  -30.7893   24.9886 N   0  3  2  0  0  0  0  0  0  0  0  0
  -23.4510  -25.8262   19.2792 N   0  3  0  0  0  0  0  0  0  0  0  0
  -29.7121  -17.5508   20.0108 O   0  0  0  0  0  0  0  0  0  0  0  0
  -31.3293  -28.2675   22.1238 O   0  0  0  0  0  0  0  0  0  0  0  0
  -28.3192  -26.6767   20.0495 O   0  0  0  0  0  0  0  0  0  0  0  0
  -24.7447  -27.9164   20.6481 O   0  0  0  0  0  0  0  0  0  0  0  0
  -21.4439  -21.2094   21.4779 O   0  0  0  0  0  0  0  0  0  0  0  0
  -26.1650  -11.7479   20.5293 O   0  0  0  0  0  0  0  0  0  0  0  0
  -24.9319  -30.9358   25.6805 O   0  0  0  0  0  0  0  0  0  1  0  0
  -21.4684   -9.3302   22.1106 F   0  0  0  0  0  0  0  0  0  0  0  0
  -24.6523  -10.2811   18.7396 F   0  0  0  0  0  0  0  0  0  0  0  0
  1  2  1  0  0  0  0
  1  5  2  0  0  0  0
  2  6  2  0  0  0  0
  3  8  2  0  0  0  0
  3 16  1  0  0  0  0
  4  9  1  0  0  0  0
  4 16  2  0  0  0  0
  5 18  1  0  0  0  0
  6 20  1  0  0  0  0
  7 10  2  0  0  0  0
  7 19  1  0  0  0  0
  8 22  1  0  0  0  0
  9 22  2  0  0  0  0
 10 23  1  0  0  0  0
 11 12  2  0  0  0  0
 11 24  1  0  0  0  0
 12 25  1  0  0  0  0
 13 21  1  0  0  0  0
 13 23  2  0  0  0  0
 14 25  2  0  0  0  0
 14 26  1  0  0  0  0
 15 28  2  0  0  0  0
 15 67  1  0  0  0  0
 16 27  1  0  0  0  0
 17 27  1  0  0  0  0
 17 29  2  0  0  0  0
 17 31  1  0  0  0  0
 18 20  2  0  0  0  0
 18 36  1  0  0  0  0
 19 21  2  0  0  0  0
 19 37  1  0  0  0  0
 20 50  1  0  0  0  0
 21 38  1  0  0  0  0
 22 85  1  0  0  0  0
 23 86  1  0  0  0  0
 24 26  2  0  0  0  0
 24 85  1  0  0  0  0
 25 87  1  0  0  0  0
 26 88  1  0  0  0  0
 27 66  2  0  0  0  0
 28 51  1  0  0  0  0
 28 69  1  0  0  0  0
 29 68  1  0  0  0  0
 29 73  1  0  0  0  0
 30 67  1  0  0  0  0
 30 69  2  0  0  0  0
 30 70  1  0  0  0  0
 31 74  1  0  0  0  0
 31 80  2  0  0  0  0
 32 52  1  0  0  0  0
 32 75  1  0  0  0  0
 32 81  2  0  0  0  0
 33 63  1  0  0  0  0
 33 71  1  0  0  0  0
 33 82  2  0  0  0  0
 34 64  1  0  0  0  0
 34 76  1  0  0  0  0
 34 83  2  0  0  0  0
 35 72  1  0  0  0  0
 35 77  1  0  0  0  0
 35 84  2  0  0  0  0
 36 39  1  0  0  0  0
 37 52  1  0  0  0  0
 38 71  1  0  0  0  0
 39 41  1  0  0  0  0
 40 42  1  0  0  0  0
 40 44  1  0  0  0  0
 41 50  1  0  0  0  0
 42 53  1  0  0  0  0
 43 48  1  0  0  0  0
 43 51  1  0  0  0  0
 44 72  1  0  0  0  0
 45 53  1  0  0  0  0
 45 72  1  0  0  0  0
 46 54  1  0  0  0  0
 46 70  1  0  0  0  0
 47 54  1  0  0  0  0
 47 70  1  0  0  0  0
 48 78  1  0  0  0  0
 49 51  1  0  0  0  0
 49 78  1  0  0  0  0
 50 75  1  0  0  0  0
 52 71  1  0  0  0  0
 53 68  1  0  0  0  0
 54 77  1  0  0  0  0
 55 64  1  0  0  0  0
 56 65  1  0  0  0  0
 57 65  1  0  0  0  0
 58 65  1  0  0  0  0
 59 67  1  0  0  0  0
 60 79  1  0  0  0  0
 61 62  1  0  0  0  0
 61 78  1  0  0  0  0
 62 86  1  0  0  0  0
 63 65  1  0  0  0  0
 63 76  1  0  0  0  0
 64 79  1  0  0  0  0
 66 68  1  0  0  0  0
M  CHG  3  69   1  78   1  79   1
M  ISO  4  35 100  62 101  77 100  86 101
M  END
> <Batch ID>
0197

> <Smiles>
CNC(C)C(=O)NC(C(=O)N1Cc2cc([101O:1][101CH2:1]CN3CCC(c4cn(C)c(N5CC([100NH:0][100C:0](=O)N6CCCC(n7nc(-c8ccc(Oc9ccc(F)cc9F)cc8)c(C(N)=O)c7N)C6)C5)n4)C3)ccc2CC1C(=O)NC1CCCc2ccccc21)C(C)(C)C

> <Shape>
0.224

> <Color>
0.065

> <Negative vol penalty>
0.000

$$$$

  -OEChem-04052323453D

 85 94  0     1  0  0  0  0  0999 V2000
  -25.0081  -19.2155   17.3118 C   0  0  0  0  0  0  0  0  0  0  0  0
  -24.4329  -20.4675   17.5044 C   0  0  0  0  0  0  0  0  0  0  0  0
  -24.9654  -15.2870   19.3494 C   0  0  0  0  0  0  0  0  0  0  0  0
  -23.3041  -13.5898   19.7929 C   0  0  0  0  0  0  0  0  0  0  0  0
  -26.1401  -18.8504   18.0393 C   0  0  0  0  0  0  0  0  0  0  0  0
  -24.9887  -21.3547   18.4255 C   0  0  0  0  0  0  0  0  0  0  0  0
  -25.2254  -27.4579   17.9774 C   0  0  0  0  0  0  0  0  0  0  0  0
  -25.9582  -14.4469   19.8533 C   0  0  0  0  0  0  0  0  0  0  0  0
  -24.2970  -12.7496   20.2967 C   0  0  0  0  0  0  0  0  0  0  0  0
  -24.4345  -28.4696   18.5202 C   0  0  0  0  0  0  0  0  0  0  0  0
  -28.9823  -12.6109   20.6896 C   0  0  0  0  0  0  0  0  0  0  0  0
  -30.1700  -12.5040   19.9660 C   0  0  0  0  0  0  0  0  0  0  0  0
  -26.0105  -28.7230   20.3289 C   0  0  0  0  0  0  0  0  0  0  0  0
  -28.9353  -11.6760   18.0615 C   0  0  0  0  0  0  0  0  0  0  0  0
  -23.6383  -14.8585   19.3193 C   0  0  0  0  0  0  0  0  0  0  0  0
  -22.1672  -15.8132   17.4666 C   0  0  0  0  0  0  0  0  0  0  0  0
  -26.7157  -19.7372   18.9627 C   0  0  0  0  0  0  0  0  0  0  0  0
  -26.4113  -27.0630   18.6132 C   0  0  0  0  0  0  0  0  0  0  0  0
  -26.1286  -21.0005   19.1670 C   0  0  0  0  0  0  0  0  0  0  0  0
  -26.8160  -27.7078   19.7907 C   0  0  0  0  0  0  0  0  0  0  0  0
  -25.6241  -13.1781   20.3270 C   0  0  0  0  0  0  0  0  0  0  0  0
  -24.8255  -29.1004   19.6976 C   0  0  0  0  0  0  0  0  0  0  0  0
  -27.7711  -12.2504   20.0991 C   0  0  0  0  0  0  0  0  0  0  0  0
  -30.1465  -12.0365   18.6520 C   0  0  0  0  0  0  0  0  0  0  0  0
  -27.7476  -11.7830   18.7851 C   0  0  0  0  0  0  0  0  0  0  0  0
  -22.6121  -15.7262   18.7994 C   0  0  0  0  0  0  0  0  0  0  0  0
  -21.1887  -16.7767   17.4935 C   0  0  0  0  0  0  0  0  0  0  0  0
  -22.5996  -15.0878   16.3080 C   0  0  0  0  0  0  0  0  0  0  0  0
  -27.4654  -24.3625   19.9172 C   0  0  0  0  0  0  0  0  0  0  0  0
  -30.2311  -26.0343   20.1971 C   0  0  0  0  0  0  0  0  0  0  0  0
  -31.7717  -29.0725   20.4043 C   0  0  0  0  0  0  0  0  0  0  0  0
  -20.4004  -21.2502   21.4785 C   0  0  0  0  0  0  0  0  0  0  0  0
  -27.9114  -19.2798   19.7602 C   0  0  0  0  0  0  0  0  0  0  0  0
  -27.2669  -25.9883   18.0005 C   0  0  0  0  0  0  0  0  0  0  0  0
  -28.0906  -27.3348   20.5012 C   0  0  0  0  0  0  0  0  0  0  0  0
  -28.6597  -20.4208   20.4445 C   0  0  0  0  0  0  0  0  0  0  0  0
  -17.9169  -18.7203   20.3890 C   0  0  0  0  0  0  0  0  0  0  0  0
  -27.6803  -21.3576   21.1445 C   0  0  0  0  0  0  0  0  0  0  0  0
  -18.8249  -17.6531   19.7761 C   0  0  0  0  0  0  0  0  0  0  0  0
  -17.9004  -23.9188   21.1034 C   0  0  0  0  0  0  0  0  0  0  0  0
  -20.4779  -28.4842   24.5862 C   0  0  0  0  0  0  0  0  0  0  0  0
  -18.6233  -19.4505   21.5237 C   0  0  0  0  0  0  0  0  0  0  0  0
  -18.1428  -22.4128   21.1234 C   0  0  0  0  0  0  0  0  0  0  0  0
  -20.8348  -19.0152   20.5253 C   0  0  0  0  0  0  0  0  0  0  0  0
  -19.8931  -23.5159   22.3478 C   0  0  0  0  0  0  0  0  0  0  0  0
  -20.9490  -29.8336   24.0706 C   0  0  0  0  0  0  0  0  0  0  0  0
  -20.8058  -28.1941   22.2615 C   0  0  0  0  0  0  0  0  0  0  0  0
  -26.7170  -22.0000   20.1390 C   0  0  1  0  0  0  0  0  0  0  0  0
  -28.1919  -25.3137   19.0088 C   0  0  1  0  0  0  0  0  0  0  0  0
  -19.8316  -27.8352   23.3711 C   0  0  1  0  0  0  0  0  0  0  0  0
  -20.1826  -18.2486   19.3610 C   0  0  1  0  0  0  0  0  0  0  0  0
  -18.6369  -24.3676   22.3567 C   0  0  1  0  0  0  0  0  0  0  0  0
  -34.0379  -30.1183   20.6652 C   0  0  0  0  0  0  0  0  0  0  0  0
  -21.7418  -30.6608   19.7917 C   0  0  0  0  0  0  0  0  0  0  0  0
  -30.2169  -25.3193   23.1633 C   0  0  0  0  0  0  0  0  0  0  0  0
  -31.9103  -27.1255   23.5354 C   0  0  0  0  0  0  0  0  0  0  0  0
  -32.4614  -25.1846   22.0684 C   0  0  0  0  0  0  0  0  0  0  0  0
  -31.5595  -30.4597   17.7986 C   0  0  0  0  0  0  0  0  0  0  0  0
  -19.6327  -26.3378   23.5251 C   0  0  0  0  0  0  0  0  0  0  0  0
  -22.5590  -29.9993   22.1238 C   0  0  0  0  0  0  0  0  0  0  0  0
  -30.8336  -26.9361   21.2472 C   0  0  1  0  0  0  0  0  0  0  0  0
  -32.9804  -29.6403   19.6824 C   0  0  2  0  0  0  0  0  0  0  0  0
  -22.6999  -29.8115   20.6167 C   0  0  2  0  0  0  0  0  0  1  0  0
  -31.3305  -26.1473   22.4915 C   0  0  0  0  0  0  0  0  0  0  0  0
  -21.9692  -16.5675   19.6136 N   0  0  0  0  0  0  0  0  0  0  0  0
  -21.1104  -17.1923   18.7901 N   0  0  0  0  0  0  0  0  0  0  0  0
  -28.8899  -26.2739   19.8662 N   0  0  0  0  0  0  0  0  0  0  0  0
  -19.9067  -20.0026   21.0809 N   0  0  0  0  0  0  0  0  0  0  0  0
  -19.4738  -22.2633   21.7212 N   0  0  0  0  0  0  0  0  0  0  0  0
  -20.3965  -17.3005   16.5341 N   0  0  0  0  0  0  0  0  0  0  0  0
  -23.6153  -14.1337   16.4576 N   0  0  0  0  0  0  0  0  0  0  0  0
  -27.3736  -23.0744   19.4256 N   0  0  0  0  0  0  0  0  0  0  0  0
  -31.8731  -27.7080   20.5747 N   0  0  0  0  0  0  0  0  0  0  0  0
  -21.1881  -29.6231   22.5863 N   0  3  2  0  0  0  0  0  0  0  0  0
  -18.9579  -25.8033   22.3051 N   0  3  0  0  0  0  0  0  0  0  0  0
  -32.5786  -30.7926   18.8270 N   0  3  0  0  0  0  0  0  0  0  0  0
  -22.1115  -15.2916   15.1705 O   0  0  0  0  0  0  0  0  0  0  0  0
  -27.0222  -24.7671   20.9856 O   0  0  0  0  0  0  0  0  0  0  0  0
  -30.9270  -25.1545   19.6840 O   0  0  0  0  0  0  0  0  0  0  0  0
  -30.8334  -29.7702   20.7827 O   0  0  0  0  0  0  0  0  0  0  0  0
  -21.6168  -21.4641   21.5657 O   0  0  0  0  0  0  0  0  0  0  0  0
  -26.5927  -12.3580   20.8185 O   0  0  0  0  0  0  0  0  0  0  0  0
  -24.0430  -30.1032   20.2383 O   0  0  0  0  0  0  0  0  0  1  0  0
  -31.2870  -11.9353   17.9568 F   0  0  0  0  0  0  0  0  0  0  0  0
  -26.5869  -11.4363   18.2121 F   0  0  0  0  0  0  0  0  0  0  0  0
  1  2  1  0  0  0  0
  1  5  2  0  0  0  0
  2  6  2  0  0  0  0
  3  8  2  0  0  0  0
  3 15  1  0  0  0  0
  4  9  1  0  0  0  0
  4 15  2  0  0  0  0
  5 17  1  0  0  0  0
  6 19  1  0  0  0  0
  7 10  2  0  0  0  0
  7 18  1  0  0  0  0
  8 21  1  0  0  0  0
  9 21  2  0  0  0  0
 10 22  1  0  0  0  0
 11 12  2  0  0  0  0
 11 23  1  0  0  0  0
 12 24  1  0  0  0  0
 13 20  1  0  0  0  0
 13 22  2  0  0  0  0
 14 24  2  0  0  0  0
 14 25  1  0  0  0  0
 15 26  1  0  0  0  0
 16 26  1  0  0  0  0
 16 27  2  0  0  0  0
 16 28  1  0  0  0  0
 17 19  2  0  0  0  0
 17 33  1  0  0  0  0
 18 20  2  0  0  0  0
 18 34  1  0  0  0  0
 19 48  1  0  0  0  0
 20 35  1  0  0  0  0
 21 82  1  0  0  0  0
 22 83  1  0  0  0  0
 23 25  2  0  0  0  0
 23 82  1  0  0  0  0
 24 84  1  0  0  0  0
 25 85  1  0  0  0  0
 26 65  2  0  0  0  0
 27 66  1  0  0  0  0
 27 70  1  0  0  0  0
 28 71  1  0  0  0  0
 28 77  2  0  0  0  0
 29 49  1  0  0  0  0
 29 72  1  0  0  0  0
 29 78  2  0  0  0  0
 30 61  1  0  0  0  0
 30 67  1  0  0  0  0
 30 79  2  0  0  0  0
 31 62  1  0  0  0  0
 31 73  1  0  0  0  0
 31 80  2  0  0  0  0
 32 68  1  0  0  0  0
 32 69  1  0  0  0  0
 32 81  2  0  0  0  0
 33 36  1  0  0  0  0
 34 49  1  0  0  0  0
 35 67  1  0  0  0  0
 36 38  1  0  0  0  0
 37 39  1  0  0  0  0
 37 42  1  0  0  0  0
 38 48  1  0  0  0  0
 39 51  1  0  0  0  0
 40 43  1  0  0  0  0
 40 52  1  0  0  0  0
 41 46  1  0  0  0  0
 41 50  1  0  0  0  0
 42 68  1  0  0  0  0
 43 69  1  0  0  0  0
 44 51  1  0  0  0  0
 44 68  1  0  0  0  0
 45 52  1  0  0  0  0
 45 69  1  0  0  0  0
 46 74  1  0  0  0  0
 47 50  1  0  0  0  0
 47 74  1  0  0  0  0
 48 72  1  0  0  0  0
 49 67  1  0  0  0  0
 50 59  1  0  0  0  0
 51 66  1  0  0  0  0
 52 75  1  0  0  0  0
 53 62  1  0  0  0  0
 54 63  1  0  0  0  0
 55 64  1  0  0  0  0
 56 64  1  0  0  0  0
 57 64  1  0  0  0  0
 58 76  1  0  0  0  0
 59 75  1  0  0  0  0
 60 63  1  0  0  0  0
 60 74  1  0  0  0  0
 61 64  1  0  0  0  0
 61 73  1  0  0  0  0
 62 76  1  0  0  0  0
 63 83  1  0  0  0  0
 65 66  1  0  0  0  0
M  CHG  3  74   1  75   1  76   1
M  ISO  4  32 100  63 101  69 100  83 101
M  END
> <Batch ID>
0197

> <Smiles>
CNC(C)C(=O)NC(C(=O)N1Cc2cc([101O:1][101CH:1](C)CN3CCC(CNC4CC[100N:0]([100C:0](=O)N5CCCC(n6nc(-c7ccc(Oc8ccc(F)cc8F)cc7)c(C(N)=O)c6N)C5)C4)C3)ccc2CC1C(=O)NC1CCCc2ccccc21)C(C)(C)C

> <Shape>
0.220

> <Color>
0.058

> <Negative vol penalty>
0.000

$$$$

  -OEChem-04052323453D

 89 99  0     1  0  0  0  0  0999 V2000
  -19.8691  -25.6334   25.7373 C   0  0  0  0  0  0  0  0  0  0  0  0
  -21.1387  -25.5550   25.1739 C   0  0  0  0  0  0  0  0  0  0  0  0
  -24.5992   -8.9259   21.8994 C   0  0  0  0  0  0  0  0  0  0  0  0
  -23.2254   -9.5445   20.0108 C   0  0  0  0  0  0  0  0  0  0  0  0
  -18.8592  -26.3366   25.0821 C   0  0  0  0  0  0  0  0  0  0  0  0
  -21.3988  -26.1789   23.9543 C   0  0  0  0  0  0  0  0  0  0  0  0
  -26.6372  -28.8364   22.2216 C   0  0  0  0  0  0  0  0  0  0  0  0
  -23.4835   -8.3770   22.5313 C   0  0  0  0  0  0  0  0  0  0  0  0
  -22.1096   -8.9955   20.6427 C   0  0  0  0  0  0  0  0  0  0  0  0
  -27.6992  -28.3919   21.4352 C   0  0  0  0  0  0  0  0  0  0  0  0
  -21.6658   -5.5317   22.3485 C   0  0  0  0  0  0  0  0  0  0  0  0
  -21.8107   -4.2810   22.9486 C   0  0  0  0  0  0  0  0  0  0  0  0
  -26.7243  -29.4790   19.5150 C   0  0  0  0  0  0  0  0  0  0  0  0
  -21.2116   -5.2368   25.0851 C   0  0  0  0  0  0  0  0  0  0  0  0
  -24.4702   -9.5098   20.6392 C   0  0  0  0  0  0  0  0  0  0  0  0
  -26.5176   -9.4219   19.1199 C   0  0  0  0  0  0  0  0  0  0  0  0
  -19.1096  -26.9776   23.8586 C   0  0  0  0  0  0  0  0  0  0  0  0
  -25.6035  -29.5976   21.6574 C   0  0  0  0  0  0  0  0  0  0  0  0
  -20.3908  -26.8903   23.2814 C   0  0  0  0  0  0  0  0  0  0  0  0
  -25.6517  -29.9341   20.2970 C   0  0  0  0  0  0  0  0  0  0  0  0
  -22.2386   -8.4118   21.9029 C   0  0  0  0  0  0  0  0  0  0  0  0
  -27.7414  -28.7108   20.0811 C   0  0  0  0  0  0  0  0  0  0  0  0
  -21.2939   -6.6350   23.1166 C   0  0  0  0  0  0  0  0  0  0  0  0
  -21.5836   -4.1335   24.3170 C   0  0  0  0  0  0  0  0  0  0  0  0
  -21.0667   -6.4876   24.4849 C   0  0  0  0  0  0  0  0  0  0  0  0
  -25.6223  -10.0775   19.9862 C   0  0  0  0  0  0  0  0  0  0  0  0
  -30.4184  -23.0054   19.7341 C   0  0  0  0  0  0  0  0  0  0  0  0
  -29.9768  -23.3548   18.4797 C   0  0  0  0  0  0  0  0  0  0  0  0
  -27.4292  -10.3886   18.7724 C   0  0  0  0  0  0  0  0  0  0  0  0
  -29.3620  -21.3058   19.0090 C   0  0  0  0  0  0  0  0  0  0  0  0
  -26.5245   -8.0607   18.6696 C   0  0  0  0  0  0  0  0  0  0  0  0
  -22.4716  -29.2016   21.2862 C   0  0  0  0  0  0  0  0  0  0  0  0
  -22.6103  -32.2507   20.1877 C   0  0  0  0  0  0  0  0  0  0  0  0
  -24.4749  -34.7457   18.7931 C   0  0  0  0  0  0  0  0  0  0  0  0
  -27.2054  -16.1514   18.3622 C   0  0  0  0  0  0  0  0  0  0  0  0
  -17.9734  -27.6862   23.1644 C   0  0  0  0  0  0  0  0  0  0  0  0
  -24.4787  -30.0920   22.5250 C   0  0  0  0  0  0  0  0  0  0  0  0
  -24.5772  -30.7659   19.6473 C   0  0  0  0  0  0  0  0  0  0  0  0
  -18.4315  -28.6345   22.0594 C   0  0  0  0  0  0  0  0  0  0  0  0
  -29.4576  -14.3947   20.4069 C   0  0  0  0  0  0  0  0  0  0  0  0
  -19.4686  -27.9564   21.1698 C   0  0  0  0  0  0  0  0  0  0  0  0
  -31.1604  -23.6768   22.1570 C   0  0  0  0  0  0  0  0  0  0  0  0
  -30.5034  -24.8830   21.5621 C   0  0  0  0  0  0  0  0  0  0  0  0
  -28.8124  -13.0099   20.4497 C   0  0  0  0  0  0  0  0  0  0  0  0
  -28.4187  -15.5139   20.4933 C   0  0  0  0  0  0  0  0  0  0  0  0
  -29.1718  -19.2220   17.6863 C   0  0  0  0  0  0  0  0  0  0  0  0
  -28.2086  -19.3706   19.9876 C   0  0  0  0  0  0  0  0  0  0  0  0
  -28.0957  -18.2028   17.3215 C   0  0  0  0  0  0  0  0  0  0  0  0
  -27.1431  -18.3596   19.5787 C   0  0  0  0  0  0  0  0  0  0  0  0
  -26.6946  -14.0261   19.5280 C   0  0  0  0  0  0  0  0  0  0  0  0
  -20.7185  -27.5747   21.9721 C   0  0  1  0  0  0  0  0  0  0  0  0
  -31.2322  -23.9061   20.6597 C   0  0  0  0  0  0  0  0  0  0  0  0
  -23.2173  -30.4265   21.7348 C   0  0  1  0  0  0  0  0  0  0  0  0
  -27.7094  -12.8813   19.3841 C   0  0  2  0  0  0  0  0  0  0  0  0
  -24.3028  -37.1124   17.9767 C   0  0  0  0  0  0  0  0  0  0  0  0
  -21.1849  -31.2766   17.6719 C   0  0  0  0  0  0  0  0  0  0  0  0
  -21.8835  -33.3972   16.5392 C   0  0  0  0  0  0  0  0  0  0  0  0
  -20.3879  -33.4848   18.5337 C   0  0  0  0  0  0  0  0  0  0  0  0
  -28.6480  -22.1338   16.7432 C   0  0  0  0  0  0  0  0  0  0  0  0
  -26.4746  -35.6919   20.7590 C   0  0  0  0  0  0  0  0  0  0  0  0
  -30.1281  -24.5919   17.6923 C   0  0  0  0  0  0  0  0  0  0  0  0
  -29.4535  -26.9789   17.3992 C   0  0  0  0  0  0  0  0  0  0  0  0
  -28.5045  -28.0339   17.9327 C   0  0  0  0  0  0  0  0  0  1  0  0
  -22.8267  -32.8921   18.8384 C   0  0  1  0  0  0  0  0  0  0  0  0
  -24.6298  -36.2113   19.1573 C   0  0  2  0  0  0  0  0  0  0  0  0
  -21.5902  -32.7453   17.9073 C   0  0  0  0  0  0  0  0  0  0  0  0
  -25.9368  -11.3615   20.1773 N   0  0  0  0  0  0  0  0  0  0  0  0
  -30.0327  -21.7286   20.0575 N   0  0  0  0  0  0  0  0  0  0  0  0
  -29.3021  -22.2559   18.0276 N   0  0  0  0  0  0  0  0  0  0  0  0
  -27.0399  -11.5204   19.4264 N   0  0  0  0  0  0  0  0  0  0  0  0
  -28.7447  -20.0645   18.8086 N   0  0  0  0  0  0  0  0  0  0  0  0
  -23.4951  -31.2203   20.5361 N   0  0  0  0  0  0  0  0  0  0  0  0
  -27.3665  -15.3265   19.4854 N   0  0  0  0  0  0  0  0  0  0  0  0
  -27.6065  -17.4900   18.4954 N   0  0  0  0  0  0  0  0  0  0  0  0
  -28.5178  -10.3725   17.9743 N   0  0  0  0  0  0  0  0  0  0  0  0
  -25.5146   -7.2015   19.1238 N   0  0  0  0  0  0  0  0  0  0  0  0
  -21.5464  -28.7391   22.2024 N   0  0  0  0  0  0  0  0  0  0  0  0
  -23.2165  -34.2732   19.1008 N   0  0  0  0  0  0  0  0  0  0  0  0
  -26.0278  -36.4925   19.5901 N   0  3  0  0  0  0  0  0  0  0  0  0
  -29.2592  -25.7179   18.1558 N   0  3  0  0  0  0  0  0  0  0  0  0
  -27.4097   -7.6151   17.9006 O   0  0  0  0  0  0  0  0  0  0  0  0
  -22.7164  -28.7132   20.1893 O   0  0  0  0  0  0  0  0  0  0  0  0
  -21.6946  -32.6540   20.9092 O   0  0  0  0  0  0  0  0  0  0  0  0
  -25.3784  -34.0870   18.2831 O   0  0  0  0  0  0  0  0  0  0  0  0
  -26.7351  -15.7195   17.3024 O   0  0  0  0  0  0  0  0  0  0  0  0
  -21.1497   -7.8760   22.5191 O   0  0  0  0  0  0  0  0  0  0  0  0
  -28.7839  -28.2745   19.3055 O   0  0  0  0  0  0  0  0  0  1  0  0
  -21.7213   -2.9320   24.8929 F   0  0  0  0  0  0  0  0  0  0  0  0
  -20.7081   -7.5436   25.2278 F   0  0  0  0  0  0  0  0  0  0  0  0
  1  2  1  0  0  0  0
  1  5  2  0  0  0  0
  2  6  2  0  0  0  0
  3  8  2  0  0  0  0
  3 15  1  0  0  0  0
  4  9  1  0  0  0  0
  4 15  2  0  0  0  0
  5 17  1  0  0  0  0
  6 19  1  0  0  0  0
  7 10  2  0  0  0  0
  7 18  1  0  0  0  0
  8 21  1  0  0  0  0
  9 21  2  0  0  0  0
 10 22  1  0  0  0  0
 11 12  2  0  0  0  0
 11 23  1  0  0  0  0
 12 24  1  0  0  0  0
 13 20  1  0  0  0  0
 13 22  2  0  0  0  0
 14 24  2  0  0  0  0
 14 25  1  0  0  0  0
 15 26  1  0  0  0  0
 16 26  1  0  0  0  0
 16 29  2  0  0  0  0
 16 31  1  0  0  0  0
 17 19  2  0  0  0  0
 17 36  1  0  0  0  0
 18 20  2  0  0  0  0
 18 37  1  0  0  0  0
 19 51  1  0  0  0  0
 20 38  1  0  0  0  0
 21 86  1  0  0  0  0
 22 87  1  0  0  0  0
 23 25  2  0  0  0  0
 23 86  1  0  0  0  0
 24 88  1  0  0  0  0
 25 89  1  0  0  0  0
 26 67  2  0  0  0  0
 27 28  2  0  0  0  0
 27 52  1  0  0  0  0
 27 68  1  0  0  0  0
 28 61  1  0  0  0  0
 28 69  1  0  0  0  0
 29 70  1  0  0  0  0
 29 75  1  0  0  0  0
 30 68  2  0  0  0  0
 30 69  1  0  0  0  0
 30 71  1  0  0  0  0
 31 76  1  0  0  0  0
 31 81  2  0  0  0  0
 32 53  1  0  0  0  0
 32 77  1  0  0  0  0
 32 82  2  0  0  0  0
 33 64  1  0  0  0  0
 33 72  1  0  0  0  0
 33 83  2  0  0  0  0
 34 65  1  0  0  0  0
 34 78  1  0  0  0  0
 34 84  2  0  0  0  0
 35 73  1  0  0  0  0
 35 74  1  0  0  0  0
 35 85  2  0  0  0  0
 36 39  1  0  0  0  0
 37 53  1  0  0  0  0
 38 72  1  0  0  0  0
 39 41  1  0  0  0  0
 40 44  1  0  0  0  0
 40 45  1  0  0  0  0
 41 51  1  0  0  0  0
 42 43  1  0  0  0  0
 42 52  1  0  0  0  0
 43 52  1  0  0  0  0
 44 54  1  0  0  0  0
 45 73  1  0  0  0  0
 46 48  1  0  0  0  0
 46 71  1  0  0  0  0
 47 49  1  0  0  0  0
 47 71  1  0  0  0  0
 48 74  1  0  0  0  0
 49 74  1  0  0  0  0
 50 54  1  0  0  0  0
 50 73  1  0  0  0  0
 51 77  1  0  0  0  0
 53 72  1  0  0  0  0
 54 70  1  0  0  0  0
 55 65  1  0  0  0  0
 56 66  1  0  0  0  0
 57 66  1  0  0  0  0
 58 66  1  0  0  0  0
 59 69  1  0  0  0  0
 60 79  1  0  0  0  0
 61 80  1  0  0  0  0
 62 63  1  0  0  0  0
 62 80  1  0  0  0  0
 63 87  1  0  0  0  0
 64 66  1  0  0  0  0
 64 78  1  0  0  0  0
 65 79  1  0  0  0  0
 67 70  1  0  0  0  0
M  CHG  2  79   1  80   1
M  ISO  4  35 100  63 101  74 100  87 101
M  END
> <Batch ID>
0197

> <Smiles>
CNC(C)C(=O)NC(C(=O)N1Cc2cc([101O:1][101CH2:1]CNCc3c(C4CC4)nc(N4CC[100N:0]([100C:0](=O)N5CCCC(n6nc(-c7ccc(Oc8ccc(F)cc8F)cc7)c(C(N)=O)c6N)C5)CC4)n3C)ccc2CC1C(=O)NC1CCCc2ccccc21)C(C)(C)C

> <Shape>
0.294

> <Color>
0.108

> <Negative vol penalty>
0.000

$$$$

  -OEChem-04052323453D

 86 95  0     1  0  0  0  0  0999 V2000
  -21.7929  -24.8368   28.6775 C   0  0  0  0  0  0  0  0  0  0  0  0
  -22.8856  -24.9150   27.8201 C   0  0  0  0  0  0  0  0  0  0  0  0
  -24.1648  -10.8844   17.4379 C   0  0  0  0  0  0  0  0  0  0  0  0
  -24.2674   -9.8583   19.6228 C   0  0  0  0  0  0  0  0  0  0  0  0
  -20.6797  -25.6482   28.4620 C   0  0  0  0  0  0  0  0  0  0  0  0
  -22.8654  -25.8040   26.7460 C   0  0  0  0  0  0  0  0  0  0  0  0
  -27.6204  -28.8959   24.4361 C   0  0  0  0  0  0  0  0  0  0  0  0
  -23.6388   -9.7057   16.9091 C   0  0  0  0  0  0  0  0  0  0  0  0
  -23.7414   -8.6796   19.0940 C   0  0  0  0  0  0  0  0  0  0  0  0
  -28.4454  -28.6636   23.3364 C   0  0  0  0  0  0  0  0  0  0  0  0
  -20.7096   -7.4940   18.1868 C   0  0  0  0  0  0  0  0  0  0  0  0
  -19.6937   -6.8609   18.9028 C   0  0  0  0  0  0  0  0  0  0  0  0
  -27.0746  -30.1357   22.0048 C   0  0  0  0  0  0  0  0  0  0  0  0
  -21.0699   -4.8860   19.1093 C   0  0  0  0  0  0  0  0  0  0  0  0
  -24.4792  -10.9606   18.7948 C   0  0  0  0  0  0  0  0  0  0  0  0
  -24.3060  -13.2609   19.8842 C   0  0  0  0  0  0  0  0  0  0  0  0
  -20.6498  -26.5545   27.3904 C   0  0  0  0  0  0  0  0  0  0  0  0
  -26.5082  -29.7427   24.3253 C   0  0  0  0  0  0  0  0  0  0  0  0
  -21.7502  -26.6273   26.5152 C   0  0  0  0  0  0  0  0  0  0  0  0
  -26.2386  -30.3791   23.1053 C   0  0  0  0  0  0  0  0  0  0  0  0
  -23.4271   -8.6033   17.7371 C   0  0  0  0  0  0  0  0  0  0  0  0
  -28.1708  -29.2812   22.1198 C   0  0  0  0  0  0  0  0  0  0  0  0
  -21.9057   -6.8230   17.9318 C   0  0  0  0  0  0  0  0  0  0  0  0
  -19.8739   -5.5569   19.3641 C   0  0  0  0  0  0  0  0  0  0  0  0
  -22.0858   -5.5190   18.3931 C   0  0  0  0  0  0  0  0  0  0  0  0
  -25.0231  -12.1777   19.3416 C   0  0  0  0  0  0  0  0  0  0  0  0
  -25.2741  -14.1591   20.2615 C   0  0  0  0  0  0  0  0  0  0  0  0
  -22.8912  -13.4391   20.0338 C   0  0  0  0  0  0  0  0  0  0  0  0
  -23.3674  -29.3740   24.6461 C   0  0  0  0  0  0  0  0  0  0  0  0
  -23.3428  -32.5947   24.2602 C   0  0  0  0  0  0  0  0  0  0  0  0
  -24.9015  -35.3798   23.0516 C   0  0  0  0  0  0  0  0  0  0  0  0
  -30.0168  -16.8958   19.1871 C   0  0  0  0  0  0  0  0  0  0  0  0
  -19.4051  -27.3772   27.1701 C   0  0  0  0  0  0  0  0  0  0  0  0
  -25.6436  -30.0039   25.5280 C   0  0  0  0  0  0  0  0  0  0  0  0
  -25.0687  -31.3130   22.9395 C   0  0  0  0  0  0  0  0  0  0  0  0
  -19.6158  -28.5604   26.2289 C   0  0  0  0  0  0  0  0  0  0  0  0
  -30.2772  -13.6743   20.6237 C   0  0  0  0  0  0  0  0  0  0  0  0
  -20.3836  -28.1233   24.9854 C   0  0  0  0  0  0  0  0  0  0  0  0
  -28.8908  -13.0651   20.4350 C   0  0  0  0  0  0  0  0  0  0  0  0
  -28.9567  -18.7800   16.2189 C   0  0  0  0  0  0  0  0  0  0  0  0
  -27.8753  -24.2514   18.0176 C   0  0  0  0  0  0  0  0  0  0  0  0
  -30.6630  -14.5236   19.4202 C   0  0  0  0  0  0  0  0  0  0  0  0
  -28.8092  -17.4816   17.0017 C   0  0  0  0  0  0  0  0  0  0  0  0
  -29.5360  -19.2220   18.4862 C   0  0  0  0  0  0  0  0  0  0  0  0
  -28.2838  -15.0494   18.9566 C   0  0  0  0  0  0  0  0  0  0  0  0
  -27.6879  -22.7438   18.0442 C   0  0  0  0  0  0  0  0  0  0  0  0
  -30.0591  -23.3422   18.0179 C   0  0  0  0  0  0  0  0  0  0  0  0
  -21.7761  -27.5969   25.3536 C   0  0  1  0  0  0  0  0  0  0  0  0
  -24.2413  -30.4813   25.1635 C   0  0  1  0  0  0  0  0  0  0  0  0
  -28.7946  -19.8430   17.3060 C   0  0  1  0  0  0  0  0  0  0  0  0
  -29.2446  -24.4597   18.6478 C   0  0  1  0  0  0  0  0  0  0  0  0
  -27.8538  -14.1605   20.1416 C   0  0  1  0  0  0  0  0  0  0  0  0
  -24.6198  -37.8655   22.8541 C   0  0  0  0  0  0  0  0  0  0  0  0
  -31.3163  -25.9025   18.6679 C   0  0  0  0  0  0  0  0  0  0  0  0
  -21.3200  -32.1845   22.0130 C   0  0  0  0  0  0  0  0  0  0  0  0
  -21.7980  -34.5208   21.2505 C   0  0  0  0  0  0  0  0  0  0  0  0
  -20.8313  -34.1231   23.5155 C   0  0  0  0  0  0  0  0  0  0  0  0
  -27.3478  -35.8994   24.6341 C   0  0  0  0  0  0  0  0  0  0  0  0
  -29.3380  -21.2013   16.9007 C   0  0  0  0  0  0  0  0  0  0  0  0
  -29.1942  -28.2225   18.7800 C   0  0  0  0  0  0  0  0  0  0  0  0
  -28.4131  -29.1133   19.7257 C   0  0  0  0  0  0  0  0  0  1  0  0
  -23.2496  -33.5291   23.0782 C   0  0  1  0  0  0  0  0  0  0  0  0
  -25.1904  -36.7280   23.6867 C   0  0  2  0  0  0  0  0  0  0  0  0
  -29.8237  -25.8381   18.3832 C   0  0  2  0  0  0  0  0  0  0  0  0
  -21.8207  -33.5703   22.4665 C   0  0  0  0  0  0  0  0  0  0  0  0
  -26.3448  -12.3685   19.3697 N   0  0  0  0  0  0  0  0  0  0  0  0
  -26.4658  -13.5820   19.9344 N   0  0  0  0  0  0  0  0  0  0  0  0
  -24.2492  -31.5314   24.1430 N   0  0  0  0  0  0  0  0  0  0  0  0
  -29.6555  -15.5452   19.1287 N   0  0  0  0  0  0  0  0  0  0  0  0
  -29.3801  -17.7799   18.3168 N   0  0  0  0  0  0  0  0  0  0  0  0
  -25.2138  -15.3784   20.8377 N   0  0  0  0  0  0  0  0  0  0  0  0
  -22.0388  -12.4174   19.5932 N   0  0  0  0  0  0  0  0  0  0  0  0
  -22.6749  -28.6966   25.6315 N   0  0  0  0  0  0  0  0  0  0  0  0
  -23.7389  -34.8232   23.5412 N   0  0  0  0  0  0  0  0  0  0  0  0
  -29.0948  -22.1744   18.0092 N   0  3  2  0  0  0  0  0  0  0  0  0
  -26.6604  -36.9339   23.8190 N   0  3  0  0  0  0  0  0  0  0  0  0
  -29.1336  -26.8192   19.2655 N   0  3  0  0  0  0  0  0  0  0  0  0
  -22.3969  -14.4806   20.5281 O   0  0  0  0  0  0  0  0  0  0  0  0
  -23.3234  -29.1516   23.4418 O   0  0  0  0  0  0  0  0  0  0  0  0
  -22.6427  -32.8047   25.2538 O   0  0  0  0  0  0  0  0  0  0  0  0
  -25.6320  -34.8729   22.2031 O   0  0  0  0  0  0  0  0  0  0  0  0
  -30.9033  -17.2914   19.9562 O   0  0  0  0  0  0  0  0  0  0  0  0
  -22.9136   -7.4531   17.2214 O   0  0  0  0  0  0  0  0  0  0  0  0
  -28.9899  -29.0512   21.0233 O   0  0  0  0  0  0  0  0  0  1  0  0
  -18.8988   -4.9497   20.0531 F   0  0  0  0  0  0  0  0  0  0  0  0
  -23.2331   -4.8697   18.1524 F   0  0  0  0  0  0  0  0  0  0  0  0
  1  2  1  0  0  0  0
  1  5  2  0  0  0  0
  2  6  2  0  0  0  0
  3  8  2  0  0  0  0
  3 15  1  0  0  0  0
  4  9  1  0  0  0  0
  4 15  2  0  0  0  0
  5 17  1  0  0  0  0
  6 19  1  0  0  0  0
  7 10  2  0  0  0  0
  7 18  1  0  0  0  0
  8 21  1  0  0  0  0
  9 21  2  0  0  0  0
 10 22  1  0  0  0  0
 11 12  2  0  0  0  0
 11 23  1  0  0  0  0
 12 24  1  0  0  0  0
 13 20  1  0  0  0  0
 13 22  2  0  0  0  0
 14 24  2  0  0  0  0
 14 25  1  0  0  0  0
 15 26  1  0  0  0  0
 16 26  1  0  0  0  0
 16 27  2  0  0  0  0
 16 28  1  0  0  0  0
 17 19  2  0  0  0  0
 17 33  1  0  0  0  0
 18 20  2  0  0  0  0
 18 34  1  0  0  0  0
 19 48  1  0  0  0  0
 20 35  1  0  0  0  0
 21 83  1  0  0  0  0
 22 84  1  0  0  0  0
 23 25  2  0  0  0  0
 23 83  1  0  0  0  0
 24 85  1  0  0  0  0
 25 86  1  0  0  0  0
 26 66  2  0  0  0  0
 27 67  1  0  0  0  0
 27 71  1  0  0  0  0
 28 72  1  0  0  0  0
 28 78  2  0  0  0  0
 29 49  1  0  0  0  0
 29 73  1  0  0  0  0
 29 79  2  0  0  0  0
 30 62  1  0  0  0  0
 30 68  1  0  0  0  0
 30 80  2  0  0  0  0
 31 63  1  0  0  0  0
 31 74  1  0  0  0  0
 31 81  2  0  0  0  0
 32 69  1  0  0  0  0
 32 70  1  0  0  0  0
 32 82  2  0  0  0  0
 33 36  1  0  0  0  0
 34 49  1  0  0  0  0
 35 68  1  0  0  0  0
 36 38  1  0  0  0  0
 37 39  1  0  0  0  0
 37 42  1  0  0  0  0
 38 48  1  0  0  0  0
 39 52  1  0  0  0  0
 40 43  1  0  0  0  0
 40 50  1  0  0  0  0
 41 46  1  0  0  0  0
 41 51  1  0  0  0  0
 42 69  1  0  0  0  0
 43 70  1  0  0  0  0
 44 50  1  0  0  0  0
 44 70  1  0  0  0  0
 45 52  1  0  0  0  0
 45 69  1  0  0  0  0
 46 75  1  0  0  0  0
 47 51  1  0  0  0  0
 47 75  1  0  0  0  0
 48 73  1  0  0  0  0
 49 68  1  0  0  0  0
 50 59  1  0  0  0  0
 51 64  1  0  0  0  0
 52 67  1  0  0  0  0
 53 63  1  0  0  0  0
 54 64  1  0  0  0  0
 55 65  1  0  0  0  0
 56 65  1  0  0  0  0
 57 65  1  0  0  0  0
 58 76  1  0  0  0  0
 59 75  1  0  0  0  0
 60 61  1  0  0  0  0
 60 77  1  0  0  0  0
 61 84  1  0  0  0  0
 62 65  1  0  0  0  0
 62 74  1  0  0  0  0
 63 76  1  0  0  0  0
 64 77  1  0  0  0  0
 66 67  1  0  0  0  0
M  CHG  3  75   1  76   1  77   1
M  ISO  4  32 100  61 101  70 100  84 101
M  END
> <Batch ID>
0197

> <Smiles>
CNC(C)C(=O)NC(C(=O)N1Cc2cc([101O:1][101CH2:1]CNC(C)C3CCN(CC4CC[100N:0]([100C:0](=O)N5CCCC(n6nc(-c7ccc(Oc8ccc(F)cc8F)cc7)c(C(N)=O)c6N)C5)C4)C3)ccc2CC1C(=O)NC1CCCc2ccccc21)C(C)(C)C

> <Shape>
0.226

> <Color>
0.128

> <Negative vol penalty>
0.000

$$$$

  -OEChem-04052323453D

 85 94  0     1  0  0  0  0  0999 V2000
  -27.8351  -18.3359   17.7292 C   0  0  0  0  0  0  0  0  0  0  0  0
  -26.7802  -19.2269   17.5594 C   0  0  0  0  0  0  0  0  0  0  0  0
  -25.2713  -13.6023   23.1653 C   0  0  0  0  0  0  0  0  0  0  0  0
  -26.1076  -14.5825   21.1216 C   0  0  0  0  0  0  0  0  0  0  0  0
  -28.7470  -18.5265   18.7665 C   0  0  0  0  0  0  0  0  0  0  0  0
  -26.6360  -20.3085   18.4277 C   0  0  0  0  0  0  0  0  0  0  0  0
  -24.3791  -27.1061   18.5513 C   0  0  0  0  0  0  0  0  0  0  0  0
  -25.2541  -12.3475   22.5565 C   0  0  0  0  0  0  0  0  0  0  0  0
  -26.0904  -13.3277   20.5127 C   0  0  0  0  0  0  0  0  0  0  0  0
  -23.5177  -27.9422   19.2602 C   0  0  0  0  0  0  0  0  0  0  0  0
  -24.6496   -8.9440   21.4276 C   0  0  0  0  0  0  0  0  0  0  0  0
  -23.5214   -8.1457   21.6156 C   0  0  0  0  0  0  0  0  0  0  0  0
  -25.1991  -28.2162   20.9682 C   0  0  0  0  0  0  0  0  0  0  0  0
  -22.1460   -9.8487   20.5932 C   0  0  0  0  0  0  0  0  0  0  0  0
  -18.5143  -28.0729   22.7274 C   0  0  0  0  0  0  0  0  0  0  0  0
  -25.6980  -14.7199   22.4479 C   0  0  0  0  0  0  0  0  0  0  0  0
  -26.7784  -16.6005   23.7909 C   0  0  0  0  0  0  0  0  0  0  0  0
  -28.6195  -19.6164   19.6420 C   0  0  0  0  0  0  0  0  0  0  0  0
  -25.6551  -26.8095   19.0517 C   0  0  0  0  0  0  0  0  0  0  0  0
  -27.5463  -20.5131   19.4785 C   0  0  0  0  0  0  0  0  0  0  0  0
  -26.0757  -27.3781   20.2624 C   0  0  0  0  0  0  0  0  0  0  0  0
  -19.4206  -29.0521   23.0796 C   0  0  0  0  0  0  0  0  0  0  0  0
  -25.6637  -12.2102   21.2302 C   0  0  0  0  0  0  0  0  0  0  0  0
  -23.9265  -28.4951   20.4703 C   0  0  0  0  0  0  0  0  0  0  0  0
  -24.5261  -10.1948   20.8225 C   0  0  0  0  0  0  0  0  0  0  0  0
  -22.2696   -8.5980   21.1984 C   0  0  0  0  0  0  0  0  0  0  0  0
  -23.2743  -10.6471   20.4053 C   0  0  0  0  0  0  0  0  0  0  0  0
  -25.7155  -16.0165   23.0761 C   0  0  0  0  0  0  0  0  0  0  0  0
  -20.7473  -28.7461   22.8556 C   0  0  0  0  0  0  0  0  0  0  0  0
  -26.2972  -17.8264   24.1809 C   0  0  0  0  0  0  0  0  0  0  0  0
  -20.1887  -26.7046   22.0266 C   0  0  0  0  0  0  0  0  0  0  0  0
  -28.0839  -16.0814   24.0766 C   0  0  0  0  0  0  0  0  0  0  0  0
  -27.1456  -24.1541   19.9632 C   0  0  0  0  0  0  0  0  0  0  0  0
  -29.6950  -26.1419   20.2312 C   0  0  0  0  0  0  0  0  0  0  0  0
  -30.8568  -29.3207   20.6693 C   0  0  0  0  0  0  0  0  0  0  0  0
  -22.1616  -21.3415   21.8769 C   0  0  0  0  0  0  0  0  0  0  0  0
  -29.6026  -19.7543   20.7774 C   0  0  0  0  0  0  0  0  0  0  0  0
  -26.5823  -25.9271   18.2618 C   0  0  0  0  0  0  0  0  0  0  0  0
  -27.4431  -27.1073   20.8329 C   0  0  0  0  0  0  0  0  0  0  0  0
  -29.5948  -21.1365   21.4252 C   0  0  0  0  0  0  0  0  0  0  0  0
  -22.2136  -20.0740   25.2652 C   0  0  0  0  0  0  0  0  0  0  0  0
  -28.1640  -21.5932   21.6915 C   0  0  0  0  0  0  0  0  0  0  0  0
  -23.2303  -18.9373   25.1471 C   0  0  0  0  0  0  0  0  0  0  0  0
  -21.3442  -20.1717   24.0147 C   0  0  0  0  0  0  0  0  0  0  0  0
  -23.1230  -19.1857   22.6247 C   0  0  0  0  0  0  0  0  0  0  0  0
  -21.8116  -24.8057   21.7242 C   0  0  0  0  0  0  0  0  0  0  0  0
  -19.8003  -24.3068   21.3703 C   0  0  0  0  0  0  0  0  0  0  0  0
  -27.3706  -21.7123   20.3847 C   0  0  1  0  0  0  0  0  0  0  0  0
  -27.6673  -25.2818   19.1184 C   0  0  1  0  0  0  0  0  0  0  0  0
  -24.0485  -19.0509   23.8474 C   0  0  2  0  0  0  0  0  0  0  0  0
  -21.1169  -23.5305   21.2261 C   0  0  0  0  0  0  0  0  0  0  0  0
  -32.9888  -30.6269   20.8835 C   0  0  0  0  0  0  0  0  0  0  0  0
  -30.0245  -25.1304   23.0909 C   0  0  0  0  0  0  0  0  0  0  0  0
  -31.5050  -27.0983   23.5423 C   0  0  0  0  0  0  0  0  0  0  0  0
  -32.1660  -25.4092   21.8298 C   0  0  0  0  0  0  0  0  0  0  0  0
  -30.2506  -30.9276   18.2590 C   0  0  0  0  0  0  0  0  0  0  0  0
  -18.9708  -30.3431   23.6596 C   0  0  0  0  0  0  0  0  0  0  0  0
  -21.8283  -29.7421   23.1988 C   0  0  0  0  0  0  0  0  0  0  0  0
  -23.1802  -29.3573   22.6077 C   0  0  0  0  0  0  0  0  0  1  0  0
  -30.2682  -27.0032   21.3305 C   0  0  1  0  0  0  0  0  0  0  0  0
  -31.9188  -30.1157   19.9313 C   0  0  2  0  0  0  0  0  0  0  0  0
  -30.9644  -26.1640   22.4388 C   0  0  0  0  0  0  0  0  0  0  0  0
  -18.8648  -26.8831   22.1964 N   0  0  0  0  0  0  0  0  0  0  0  0
  -24.6401  -16.8063   23.0143 N   0  0  0  0  0  0  0  0  0  0  0  0
  -21.1686  -27.5776   22.3289 N   0  0  0  0  0  0  0  0  0  0  0  0
  -25.0248  -17.8991   23.6953 N   0  0  0  0  0  0  0  0  0  0  0  0
  -20.5924  -25.4702   21.4721 N   0  0  0  0  0  0  0  0  0  0  0  0
  -28.3110  -26.2333   20.0265 N   0  0  0  0  0  0  0  0  0  0  0  0
  -22.1841  -20.2970   22.8148 N   0  0  0  0  0  0  0  0  0  0  0  0
  -26.8426  -18.8384   24.8886 N   0  0  0  0  0  0  0  0  0  0  0  0
  -28.4144  -14.8052   23.6007 N   0  0  0  0  0  0  0  0  0  0  0  0
  -27.7247  -22.9301   19.6876 N   0  0  0  0  0  0  0  0  0  0  0  0
  -31.1418  -27.9717   20.6768 N   0  0  0  0  0  0  0  0  0  0  0  0
  -21.2496  -22.3627   22.1215 N   0  0  0  0  0  0  0  0  0  0  0  0
  -18.7017  -31.3956   22.6376 N   0  3  0  0  0  0  0  0  0  0  0  0
  -31.3046  -31.2860   19.2426 N   0  3  0  0  0  0  0  0  0  0  0  0
  -28.9266  -16.7232   24.7486 O   0  0  0  0  0  0  0  0  0  0  0  0
  -26.2827  -24.3782   20.8040 O   0  0  0  0  0  0  0  0  0  0  0  0
  -30.4486  -25.4200   19.5734 O   0  0  0  0  0  0  0  0  0  0  0  0
  -29.8747  -29.8446   21.1904 O   0  0  0  0  0  0  0  0  0  0  0  0
  -22.9046  -21.3721   20.8896 O   0  0  0  0  0  0  0  0  0  0  0  0
  -25.6472  -10.9858   20.6359 O   0  0  0  0  0  0  0  0  0  0  0  0
  -23.0875  -29.3111   21.1646 O   0  0  0  0  0  0  0  0  0  1  0  0
  -21.1864   -7.8306   21.3776 F   0  0  0  0  0  0  0  0  0  0  0  0
  -23.1495  -11.8472   19.8223 F   0  0  0  0  0  0  0  0  0  0  0  0
  1  2  1  0  0  0  0
  1  5  2  0  0  0  0
  2  6  2  0  0  0  0
  3  8  2  0  0  0  0
  3 16  1  0  0  0  0
  4  9  1  0  0  0  0
  4 16  2  0  0  0  0
  5 18  1  0  0  0  0
  6 20  1  0  0  0  0
  7 10  2  0  0  0  0
  7 19  1  0  0  0  0
  8 23  1  0  0  0  0
  9 23  2  0  0  0  0
 10 24  1  0  0  0  0
 11 12  2  0  0  0  0
 11 25  1  0  0  0  0
 12 26  1  0  0  0  0
 13 21  1  0  0  0  0
 13 24  2  0  0  0  0
 14 26  2  0  0  0  0
 14 27  1  0  0  0  0
 15 22  1  0  0  0  0
 15 63  2  0  0  0  0
 16 28  1  0  0  0  0
 17 28  1  0  0  0  0
 17 30  2  0  0  0  0
 17 32  1  0  0  0  0
 18 20  2  0  0  0  0
 18 37  1  0  0  0  0
 19 21  2  0  0  0  0
 19 38  1  0  0  0  0
 20 48  1  0  0  0  0
 21 39  1  0  0  0  0
 22 29  2  0  0  0  0
 22 57  1  0  0  0  0
 23 82  1  0  0  0  0
 24 83  1  0  0  0  0
 25 27  2  0  0  0  0
 25 82  1  0  0  0  0
 26 84  1  0  0  0  0
 27 85  1  0  0  0  0
 28 64  2  0  0  0  0
 29 58  1  0  0  0  0
 29 65  1  0  0  0  0
 30 66  1  0  0  0  0
 30 70  1  0  0  0  0
 31 63  1  0  0  0  0
 31 65  2  0  0  0  0
 31 67  1  0  0  0  0
 32 71  1  0  0  0  0
 32 77  2  0  0  0  0
 33 49  1  0  0  0  0
 33 72  1  0  0  0  0
 33 78  2  0  0  0  0
 34 60  1  0  0  0  0
 34 68  1  0  0  0  0
 34 79  2  0  0  0  0
 35 61  1  0  0  0  0
 35 73  1  0  0  0  0
 35 80  2  0  0  0  0
 36 69  1  0  0  0  0
 36 74  1  0  0  0  0
 36 81  2  0  0  0  0
 37 40  1  0  0  0  0
 38 49  1  0  0  0  0
 39 68  1  0  0  0  0
 40 42  1  0  0  0  0
 41 43  1  0  0  0  0
 41 44  1  0  0  0  0
 42 48  1  0  0  0  0
 43 50  1  0  0  0  0
 44 69  1  0  0  0  0
 45 50  1  0  0  0  0
 45 69  1  0  0  0  0
 46 51  1  0  0  0  0
 46 67  1  0  0  0  0
 47 51  1  0  0  0  0
 47 67  1  0  0  0  0
 48 72  1  0  0  0  0
 49 68  1  0  0  0  0
 50 66  1  0  0  0  0
 51 74  1  0  0  0  0
 52 61  1  0  0  0  0
 53 62  1  0  0  0  0
 54 62  1  0  0  0  0
 55 62  1  0  0  0  0
 56 76  1  0  0  0  0
 57 75  1  0  0  0  0
 58 59  1  0  0  0  0
 59 83  1  0  0  0  0
 60 62  1  0  0  0  0
 60 73  1  0  0  0  0
 61 76  1  0  0  0  0
 64 66  1  0  0  0  0
M  CHG  2  75   1  76   1
M  ISO  4  36 100  59 101  74 100  83 101
M  END
> <Batch ID>
0197

> <Smiles>
CNC(C)C(=O)NC(C(=O)N1Cc2cc([101O:1][101CH2:1]Cc3nc(N4CC([100NH:0][100C:0](=O)N5CCCC(n6nc(-c7ccc(Oc8ccc(F)cc8F)cc7)c(C(N)=O)c6N)C5)C4)ncc3CN)ccc2CC1C(=O)NC1CCCc2ccccc21)C(C)(C)C

> <Shape>
0.243

> <Color>
0.061

> <Negative vol penalty>
0.000

$$$$

  -OEChem-04052323453D

 89 98  0     1  0  0  0  0  0999 V2000
  -17.4437  -10.8592   22.3351 C   0  0  0  0  0  0  0  0  0  0  0  0
  -17.7366  -12.1290   21.8480 C   0  0  0  0  0  0  0  0  0  0  0  0
  -29.0103  -25.1407   20.8160 C   0  0  0  0  0  0  0  0  0  0  0  0
  -28.0832  -25.1540   18.5850 C   0  0  0  0  0  0  0  0  0  0  0  0
  -18.3973  -10.1603   23.0742 C   0  0  0  0  0  0  0  0  0  0  0  0
  -18.9830  -12.7010   22.1006 C   0  0  0  0  0  0  0  0  0  0  0  0
  -22.1651  -16.3832   18.3829 C   0  0  0  0  0  0  0  0  0  0  0  0
  -29.2170  -23.7645   20.7220 C   0  0  0  0  0  0  0  0  0  0  0  0
  -28.2899  -23.7777   18.4910 C   0  0  0  0  0  0  0  0  0  0  0  0
  -22.3078  -17.7692   18.3325 C   0  0  0  0  0  0  0  0  0  0  0  0
  -29.6575  -20.1874   21.2055 C   0  0  0  0  0  0  0  0  0  0  0  0
  -29.2943  -19.3994   22.2976 C   0  0  0  0  0  0  0  0  0  0  0  0
  -24.3463  -17.5997   19.6112 C   0  0  0  0  0  0  0  0  0  0  0  0
  -27.0094  -20.1542   22.0823 C   0  0  0  0  0  0  0  0  0  0  0  0
  -24.9961  -24.1635   24.0689 C   0  0  0  0  0  0  0  0  0  0  0  0
  -28.4433  -25.8355   19.7476 C   0  0  0  0  0  0  0  0  0  0  0  0
  -29.1254  -28.2788   19.4777 C   0  0  0  0  0  0  0  0  0  0  0  0
  -19.6594  -10.7201   23.3277 C   0  0  0  0  0  0  0  0  0  0  0  0
  -23.1078  -15.5947   19.0582 C   0  0  0  0  0  0  0  0  0  0  0  0
  -19.9538  -12.0095   22.8448 C   0  0  0  0  0  0  0  0  0  0  0  0
  -24.2147  -16.2037   19.6664 C   0  0  0  0  0  0  0  0  0  0  0  0
  -23.7669  -23.5386   24.1238 C   0  0  0  0  0  0  0  0  0  0  0  0
  -28.8569  -23.0830   19.5595 C   0  0  0  0  0  0  0  0  0  0  0  0
  -23.3969  -18.3779   18.9492 C   0  0  0  0  0  0  0  0  0  0  0  0
  -28.6967  -20.9589   20.5518 C   0  0  0  0  0  0  0  0  0  0  0  0
  -27.9703  -19.3827   22.7360 C   0  0  0  0  0  0  0  0  0  0  0  0
  -27.3726  -20.9423   20.9902 C   0  0  0  0  0  0  0  0  0  0  0  0
  -28.2290  -27.2570   19.8443 C   0  0  0  0  0  0  0  0  0  0  0  0
  -22.8766  -24.0525   25.0444 C   0  0  0  0  0  0  0  0  0  0  0  0
  -28.4543  -29.4428   19.7626 C   0  0  0  0  0  0  0  0  0  0  0  0
  -24.3857  -25.6188   25.7049 C   0  0  0  0  0  0  0  0  0  0  0  0
  -30.4464  -28.1841   18.9286 C   0  0  0  0  0  0  0  0  0  0  0  0
  -23.0132  -13.6330   21.5575 C   0  0  0  0  0  0  0  0  0  0  0  0
  -26.0880  -13.0376   20.7127 C   0  0  0  0  0  0  0  0  0  0  0  0
  -28.9187  -14.1088   19.1358 C   0  0  0  0  0  0  0  0  0  0  0  0
  -24.0343  -30.7396   23.5803 C   0  0  0  0  0  0  0  0  0  0  0  0
  -20.6407   -9.9458   24.1716 C   0  0  0  0  0  0  0  0  0  0  0  0
  -22.9537  -14.0986   19.0805 C   0  0  0  0  0  0  0  0  0  0  0  0
  -25.2654  -15.4004   20.3868 C   0  0  0  0  0  0  0  0  0  0  0  0
  -22.0717  -10.4690   24.0762 C   0  0  0  0  0  0  0  0  0  0  0  0
  -24.0616  -31.2655   20.0874 C   0  0  0  0  0  0  0  0  0  0  0  0
  -22.0946  -11.9883   24.2095 C   0  0  0  0  0  0  0  0  0  0  0  0
  -25.1901  -30.3717   19.5807 C   0  0  0  0  0  0  0  0  0  0  0  0
  -24.4666  -29.2911   26.9586 C   0  0  0  0  0  0  0  0  0  0  0  0
  -23.3067  -30.5908   21.2249 C   0  0  0  0  0  0  0  0  0  0  0  0
  -24.1426  -30.4571   26.0376 C   0  0  0  0  0  0  0  0  0  0  0  0
  -24.5663  -28.4999   24.7149 C   0  0  0  0  0  0  0  0  0  0  0  0
  -25.3357  -29.3379   21.9052 C   0  0  0  0  0  0  0  0  0  0  0  0
  -21.3035  -12.6535   23.0768 C   0  0  1  0  0  0  0  0  0  0  0  0
  -23.7002  -13.4383   20.2355 C   0  0  1  0  0  0  0  0  0  0  0  0
  -24.0957  -28.0768   26.1064 C   0  0  1  0  0  0  0  0  0  0  0  0
  -26.1200  -29.9668   20.7350 C   0  0  1  0  0  0  0  0  0  0  0  0
  -31.2817  -13.4202   18.6467 C   0  0  0  0  0  0  0  0  0  0  0  0
  -26.8751  -13.7086   23.5832 C   0  0  0  0  0  0  0  0  0  0  0  0
  -29.2446  -13.9344   22.8069 C   0  0  0  0  0  0  0  0  0  0  0  0
  -28.0717  -11.7420   22.6059 C   0  0  0  0  0  0  0  0  0  0  0  0
  -28.4526  -14.1640   16.2137 C   0  0  0  0  0  0  0  0  0  0  0  0
  -23.4484  -22.3893   23.2389 C   0  0  0  0  0  0  0  0  0  0  0  0
  -21.5156  -23.4563   25.1919 C   0  0  0  0  0  0  0  0  0  0  0  0
  -24.7326  -26.7870   26.5920 C   0  0  0  0  0  0  0  0  0  0  0  0
  -23.1506  -22.7728   21.7858 C   0  0  0  0  0  0  0  0  0  0  0  0
  -22.5442  -21.8242   19.5562 C   0  0  0  0  0  0  0  0  0  0  0  0
  -22.3446  -20.5074   18.8321 C   0  0  0  0  0  0  0  0  0  1  0  0
  -27.4282  -13.6381   21.0623 C   0  0  1  0  0  0  0  0  0  0  0  0
  -29.8444  -13.4197   18.1496 C   0  0  2  0  0  0  0  0  0  0  0  0
  -27.8843  -13.2714   22.5028 C   0  0  0  0  0  0  0  0  0  0  0  0
  -25.3404  -25.2101   24.8476 N   0  0  0  0  0  0  0  0  0  0  0  0
  -27.0765  -27.7304   20.3256 N   0  0  0  0  0  0  0  0  0  0  0  0
  -23.1539  -25.0955   25.8541 N   0  0  0  0  0  0  0  0  0  0  0  0
  -27.2440  -29.0623   20.2634 N   0  0  0  0  0  0  0  0  0  0  0  0
  -25.0671  -13.9415   20.3864 N   0  0  0  0  0  0  0  0  0  0  0  0
  -24.2045  -30.1839   22.3074 N   0  0  0  0  0  0  0  0  0  0  0  0
  -24.3463  -29.9480   24.6849 N   0  0  0  0  0  0  0  0  0  0  0  0
  -28.7873  -30.7444   19.6312 N   0  0  0  0  0  0  0  0  0  0  0  0
  -30.9846  -26.9107   18.6983 N   0  0  0  0  0  0  0  0  0  0  0  0
  -22.0787  -12.6595   21.8547 N   0  0  0  0  0  0  0  0  0  0  0  0
  -28.3517  -13.2119   20.0164 N   0  0  0  0  0  0  0  0  0  0  0  0
  -21.4587  -22.3589   26.1958 N   0  3  0  0  0  0  0  0  0  0  0  0
  -29.8032  -14.1115   16.8303 N   0  3  0  0  0  0  0  0  0  0  0  0
  -22.9003  -21.5550   20.9760 N   0  3  0  0  0  0  0  0  0  0  0  0
  -31.1358  -29.1986   18.6659 O   0  0  0  0  0  0  0  0  0  0  0  0
  -23.3102  -14.5945   22.2569 O   0  0  0  0  0  0  0  0  0  0  0  0
  -25.9538  -11.8114   20.7216 O   0  0  0  0  0  0  0  0  0  0  0  0
  -28.7213  -15.3218   19.1283 O   0  0  0  0  0  0  0  0  0  0  0  0
  -23.5812  -31.8828   23.7272 O   0  0  0  0  0  0  0  0  0  0  0  0
  -29.0587  -21.7401   19.4672 O   0  0  0  0  0  0  0  0  0  0  0  0
  -23.5393  -19.7403   18.9018 O   0  0  0  0  0  0  0  0  0  1  0  0
  -27.6214  -18.6248   23.7838 F   0  0  0  0  0  0  0  0  0  0  0  0
  -26.4448  -21.6804   20.3656 F   0  0  0  0  0  0  0  0  0  0  0  0
  1  2  1  0  0  0  0
  1  5  2  0  0  0  0
  2  6  2  0  0  0  0
  3  8  2  0  0  0  0
  3 16  1  0  0  0  0
  4  9  1  0  0  0  0
  4 16  2  0  0  0  0
  5 18  1  0  0  0  0
  6 20  1  0  0  0  0
  7 10  2  0  0  0  0
  7 19  1  0  0  0  0
  8 23  1  0  0  0  0
  9 23  2  0  0  0  0
 10 24  1  0  0  0  0
 11 12  2  0  0  0  0
 11 25  1  0  0  0  0
 12 26  1  0  0  0  0
 13 21  1  0  0  0  0
 13 24  2  0  0  0  0
 14 26  2  0  0  0  0
 14 27  1  0  0  0  0
 15 22  1  0  0  0  0
 15 67  2  0  0  0  0
 16 28  1  0  0  0  0
 17 28  1  0  0  0  0
 17 30  2  0  0  0  0
 17 32  1  0  0  0  0
 18 20  2  0  0  0  0
 18 37  1  0  0  0  0
 19 21  2  0  0  0  0
 19 38  1  0  0  0  0
 20 49  1  0  0  0  0
 21 39  1  0  0  0  0
 22 29  2  0  0  0  0
 22 58  1  0  0  0  0
 23 86  1  0  0  0  0
 24 87  1  0  0  0  0
 25 27  2  0  0  0  0
 25 86  1  0  0  0  0
 26 88  1  0  0  0  0
 27 89  1  0  0  0  0
 28 68  2  0  0  0  0
 29 59  1  0  0  0  0
 29 69  1  0  0  0  0
 30 70  1  0  0  0  0
 30 74  1  0  0  0  0
 31 60  1  0  0  0  0
 31 67  1  0  0  0  0
 31 69  2  0  0  0  0
 32 75  1  0  0  0  0
 32 81  2  0  0  0  0
 33 50  1  0  0  0  0
 33 76  1  0  0  0  0
 33 82  2  0  0  0  0
 34 64  1  0  0  0  0
 34 71  1  0  0  0  0
 34 83  2  0  0  0  0
 35 65  1  0  0  0  0
 35 77  1  0  0  0  0
 35 84  2  0  0  0  0
 36 72  1  0  0  0  0
 36 73  1  0  0  0  0
 36 85  2  0  0  0  0
 37 40  1  0  0  0  0
 38 50  1  0  0  0  0
 39 71  1  0  0  0  0
 40 42  1  0  0  0  0
 41 43  1  0  0  0  0
 41 45  1  0  0  0  0
 42 49  1  0  0  0  0
 43 52  1  0  0  0  0
 44 46  1  0  0  0  0
 44 51  1  0  0  0  0
 45 72  1  0  0  0  0
 46 73  1  0  0  0  0
 47 51  1  0  0  0  0
 47 73  1  0  0  0  0
 48 52  1  0  0  0  0
 48 72  1  0  0  0  0
 49 76  1  0  0  0  0
 50 71  1  0  0  0  0
 51 60  1  0  0  0  0
 52 70  1  0  0  0  0
 53 65  1  0  0  0  0
 54 66  1  0  0  0  0
 55 66  1  0  0  0  0
 56 66  1  0  0  0  0
 57 79  1  0  0  0  0
 58 61  1  0  0  0  0
 59 78  1  0  0  0  0
 61 80  1  0  0  0  0
 62 63  1  0  0  0  0
 62 80  1  0  0  0  0
 63 87  1  0  0  0  0
 64 66  1  0  0  0  0
 64 77  1  0  0  0  0
 65 79  1  0  0  0  0
 68 70  1  0  0  0  0
M  CHG  3  78   1  79   1  80   1
M  ISO  4  36 100  63 101  73 100  87 101
M  END
> <Batch ID>
0197

> <Smiles>
CNC(C)C(=O)NC(C(=O)N1Cc2cc([101O:1][101CH2:1]CNCCc3cnc(CC4CC[100N:0]([100C:0](=O)N5CCCC(n6nc(-c7ccc(Oc8ccc(F)cc8F)cc7)c(C(N)=O)c6N)C5)C4)nc3CN)ccc2CC1C(=O)NC1CCCc2ccccc21)C(C)(C)C

> <Shape>
0.209

> <Color>
0.076

> <Negative vol penalty>
0.000

$$$$

  -OEChem-04052323453D

 93103  0     1  0  0  0  0  0999 V2000
  -26.3940  -34.1541   20.8393 C   0  0  0  0  0  0  0  0  0  0  0  0
  -26.7141  -32.8087   20.6881 C   0  0  0  0  0  0  0  0  0  0  0  0
  -24.4190   -9.5591   22.2855 C   0  0  0  0  0  0  0  0  0  0  0  0
  -22.9857  -10.3356   20.5023 C   0  0  0  0  0  0  0  0  0  0  0  0
  -25.3748  -34.5332   21.7119 C   0  0  0  0  0  0  0  0  0  0  0  0
  -26.0159  -31.8416   21.4104 C   0  0  0  0  0  0  0  0  0  0  0  0
  -24.6962  -27.8669   18.5634 C   0  0  0  0  0  0  0  0  0  0  0  0
  -23.3857   -8.7548   22.7659 C   0  0  0  0  0  0  0  0  0  0  0  0
  -21.9523   -9.5312   20.9827 C   0  0  0  0  0  0  0  0  0  0  0  0
  -25.6882  -26.9290   18.2805 C   0  0  0  0  0  0  0  0  0  0  0  0
  -21.9806   -5.7782   21.9923 C   0  0  0  0  0  0  0  0  0  0  0  0
  -22.2931   -4.4672   22.3514 C   0  0  0  0  0  0  0  0  0  0  0  0
  -24.8247  -25.4995   20.0212 C   0  0  0  0  0  0  0  0  0  0  0  0
  -21.5530   -4.9090   24.6084 C   0  0  0  0  0  0  0  0  0  0  0  0
  -33.2951  -24.2549   21.8567 C   0  0  0  0  0  0  0  0  0  0  0  0
  -33.0477  -22.2479   22.9244 C   0  0  0  0  0  0  0  0  0  0  0  0
  -24.2190  -10.3496   21.1537 C   0  0  0  0  0  0  0  0  0  0  0  0
  -26.5548  -10.7619   20.2146 C   0  0  0  0  0  0  0  0  0  0  0  0
  -24.6573  -33.5696   22.4380 C   0  0  0  0  0  0  0  0  0  0  0  0
  -23.7661  -27.6326   19.5864 C   0  0  0  0  0  0  0  0  0  0  0  0
  -24.9871  -32.2083   22.2945 C   0  0  0  0  0  0  0  0  0  0  0  0
  -23.8203  -26.4348   20.3134 C   0  0  0  0  0  0  0  0  0  0  0  0
  -22.1524   -8.7408   22.1146 C   0  0  0  0  0  0  0  0  0  0  0  0
  -25.7543  -25.7464   19.0113 C   0  0  0  0  0  0  0  0  0  0  0  0
  -21.4543   -6.6547   22.9412 C   0  0  0  0  0  0  0  0  0  0  0  0
  -22.0793   -4.0325   23.6594 C   0  0  0  0  0  0  0  0  0  0  0  0
  -21.2405   -6.2201   24.2493 C   0  0  0  0  0  0  0  0  0  0  0  0
  -25.2859  -11.1811   20.6573 C   0  0  0  0  0  0  0  0  0  0  0  0
  -31.9319  -24.3243   21.6712 C   0  0  0  0  0  0  0  0  0  0  0  0
  -31.6844  -22.3175   22.7397 C   0  0  0  0  0  0  0  0  0  0  0  0
  -27.1915  -11.9225   19.8484 C   0  0  0  0  0  0  0  0  0  0  0  0
  -27.1084   -9.4414   20.1409 C   0  0  0  0  0  0  0  0  0  0  0  0
  -23.0288  -29.0750   22.3213 C   0  0  0  0  0  0  0  0  0  0  0  0
  -20.6318  -26.8901   22.3761 C   0  0  0  0  0  0  0  0  0  0  0  0
  -20.2486  -23.3821   21.6249 C   0  0  0  0  0  0  0  0  0  0  0  0
  -28.6265  -17.0365   20.6281 C   0  0  0  0  0  0  0  0  0  0  0  0
  -23.5957  -34.0310   23.4048 C   0  0  0  0  0  0  0  0  0  0  0  0
  -22.6858  -28.6424   19.8614 C   0  0  0  0  0  0  0  0  0  0  0  0
  -22.8330  -26.1264   21.4082 C   0  0  0  0  0  0  0  0  0  0  0  0
  -22.6527  -32.9167   23.8514 C   0  0  0  0  0  0  0  0  0  0  0  0
  -25.4209  -16.6158   19.2531 C   0  0  0  0  0  0  0  0  0  0  0  0
  -23.4437  -31.6708   24.2374 C   0  0  0  0  0  0  0  0  0  0  0  0
  -25.1959  -15.1185   19.4611 C   0  0  0  0  0  0  0  0  0  0  0  0
  -26.1080  -17.2650   20.4558 C   0  0  0  0  0  0  0  0  0  0  0  0
  -27.9487  -19.3083   21.5247 C   0  0  0  0  0  0  0  0  0  0  0  0
  -30.0160  -19.0414   20.2044 C   0  0  0  0  0  0  0  0  0  0  0  0
  -27.1425  -15.1026   21.0665 C   0  0  0  0  0  0  0  0  0  0  0  0
  -28.7514  -19.8987   22.6796 C   0  0  0  0  0  0  0  0  0  0  0  0
  -30.8505  -19.6021   21.3444 C   0  0  0  0  0  0  0  0  0  0  0  0
  -30.8077  -24.5458   18.8011 C   0  0  0  0  0  0  0  0  0  0  0  0
  -29.7573  -25.5019   20.7936 C   0  0  0  0  0  0  0  0  0  0  0  0
  -24.2359  -31.1279   23.0420 C   0  0  1  0  0  0  0  0  0  0  0  0
  -22.1064  -28.5294   21.2681 C   0  0  1  0  0  0  0  0  0  0  0  0
  -31.7502  -25.5589   19.4495 C   0  0  2  0  0  0  0  0  0  0  0  0
  -26.5067  -14.4119   19.8501 C   0  0  1  0  0  0  0  0  0  0  0  0
  -31.2991  -25.5324   20.9440 C   0  0  2  0  0  0  0  0  0  0  0  0
  -31.6430  -26.9252   18.7610 C   0  0  0  0  0  0  0  0  0  0  0  0
  -31.1885  -26.7350   23.1404 C   0  0  0  0  0  0  0  0  0  0  0  0
  -18.2311  -22.0810   20.8940 C   0  0  0  0  0  0  0  0  0  0  0  0
  -20.2813  -26.3181   25.3527 C   0  0  0  0  0  0  0  0  0  0  0  0
  -19.5575  -23.9982   24.7505 C   0  0  0  0  0  0  0  0  0  0  0  0
  -18.2268  -25.9595   23.9725 C   0  0  0  0  0  0  0  0  0  0  0  0
  -21.6414  -22.3461   19.2278 C   0  0  0  0  0  0  0  0  0  0  0  0
  -30.7904  -21.2221   23.2415 C   0  0  0  0  0  0  0  0  0  0  0  0
  -31.6897  -26.7962   21.7376 C   0  0  0  0  0  0  0  0  0  0  0  0
  -28.6092  -23.5883   19.5732 C   0  0  0  0  0  0  0  0  0  0  0  0
  -27.1776  -24.0213   19.8204 C   0  0  0  0  0  0  0  0  0  1  0  0
  -20.4747  -25.4888   22.9153 C   0  0  1  0  0  0  0  0  0  0  0  0
  -19.5046  -22.7812   20.4460 C   0  0  2  0  0  0  0  0  0  0  0  0
  -19.6604  -25.4511   24.2393 C   0  0  0  0  0  0  0  0  0  0  0  0
  -33.8774  -23.2154   22.4866 N   0  0  0  0  0  0  0  0  0  0  0  0
  -25.1243  -12.5048   20.5804 N   0  0  0  0  0  0  0  0  0  0  0  0
  -31.1020  -23.3569   22.1094 N   0  0  0  0  0  0  0  0  0  0  0  0
  -26.3001  -12.9273   20.0852 N   0  0  0  0  0  0  0  0  0  0  0  0
  -21.7992  -27.1478   21.6436 N   0  0  0  0  0  0  0  0  0  0  0  0
  -27.3305  -16.5330   20.8149 N   0  0  0  0  0  0  0  0  0  0  0  0
  -28.7855  -18.4284   20.6999 N   0  0  0  0  0  0  0  0  0  0  0  0
  -28.4212  -12.1714   19.3504 N   0  0  0  0  0  0  0  0  0  0  0  0
  -26.3182   -8.3614   20.5573 N   0  0  0  0  0  0  0  0  0  0  0  0
  -23.3622  -30.4041   22.1434 N   0  0  0  0  0  0  0  0  0  0  0  0
  -19.8952  -24.6983   21.8347 N   0  0  0  0  0  0  0  0  0  0  0  0
  -30.0008  -20.5589   22.1478 N   0  3  0  0  0  0  0  0  0  0  0  0
  -29.4808  -24.7988   19.4745 N   0  3  2  0  0  0  0  0  0  0  0  0
  -20.3646  -21.7878   19.7427 N   0  3  0  0  0  0  0  0  0  0  0  0
  -28.2754   -9.2272   19.7336 O   0  0  0  0  0  0  0  0  0  0  0  0
  -23.4087  -28.3445   23.2289 O   0  0  0  0  0  0  0  0  0  0  0  0
  -19.7479  -27.7233   22.5907 O   0  0  0  0  0  0  0  0  0  0  0  0
  -21.0592  -22.7463   22.2952 O   0  0  0  0  0  0  0  0  0  0  0  0
  -29.5861  -16.2860   20.4104 O   0  0  0  0  0  0  0  0  0  0  0  0
  -21.1439   -7.9559   22.5829 O   0  0  0  0  0  0  0  0  0  0  0  0
  -26.7289  -24.8229   18.7357 O   0  0  0  0  0  0  0  0  0  1  0  0
  -22.3779   -2.7730   24.0038 F   0  0  0  0  0  0  0  0  0  0  0  0
  -20.7341   -7.0572   25.1650 F   0  0  0  0  0  0  0  0  0  0  0  0
  1  2  1  0  0  0  0
  1  5  2  0  0  0  0
  2  6  2  0  0  0  0
  3  8  2  0  0  0  0
  3 17  1  0  0  0  0
  4  9  1  0  0  0  0
  4 17  2  0  0  0  0
  5 19  1  0  0  0  0
  6 21  1  0  0  0  0
  7 10  2  0  0  0  0
  7 20  1  0  0  0  0
  8 23  1  0  0  0  0
  9 23  2  0  0  0  0
 10 24  1  0  0  0  0
 11 12  2  0  0  0  0
 11 25  1  0  0  0  0
 12 26  1  0  0  0  0
 13 22  1  0  0  0  0
 13 24  2  0  0  0  0
 14 26  2  0  0  0  0
 14 27  1  0  0  0  0
 15 29  1  0  0  0  0
 15 71  2  0  0  0  0
 16 30  2  0  0  0  0
 16 71  1  0  0  0  0
 17 28  1  0  0  0  0
 18 28  1  0  0  0  0
 18 31  2  0  0  0  0
 18 32  1  0  0  0  0
 19 21  2  0  0  0  0
 19 37  1  0  0  0  0
 20 22  2  0  0  0  0
 20 38  1  0  0  0  0
 21 52  1  0  0  0  0
 22 39  1  0  0  0  0
 23 90  1  0  0  0  0
 24 91  1  0  0  0  0
 25 27  2  0  0  0  0
 25 90  1  0  0  0  0
 26 92  1  0  0  0  0
 27 93  1  0  0  0  0
 28 72  2  0  0  0  0
 29 56  1  0  0  0  0
 29 73  2  0  0  0  0
 30 64  1  0  0  0  0
 30 73  1  0  0  0  0
 31 74  1  0  0  0  0
 31 78  1  0  0  0  0
 32 79  1  0  0  0  0
 32 85  2  0  0  0  0
 33 53  1  0  0  0  0
 33 80  1  0  0  0  0
 33 86  2  0  0  0  0
 34 68  1  0  0  0  0
 34 75  1  0  0  0  0
 34 87  2  0  0  0  0
 35 69  1  0  0  0  0
 35 81  1  0  0  0  0
 35 88  2  0  0  0  0
 36 76  1  0  0  0  0
 36 77  1  0  0  0  0
 36 89  2  0  0  0  0
 37 40  1  0  0  0  0
 38 53  1  0  0  0  0
 39 75  1  0  0  0  0
 40 42  1  0  0  0  0
 41 43  1  0  0  0  0
 41 44  1  0  0  0  0
 42 52  1  0  0  0  0
 43 55  1  0  0  0  0
 44 76  1  0  0  0  0
 45 48  1  0  0  0  0
 45 77  1  0  0  0  0
 46 49  1  0  0  0  0
 46 77  1  0  0  0  0
 47 55  1  0  0  0  0
 47 76  1  0  0  0  0
 48 82  1  0  0  0  0
 49 82  1  0  0  0  0
 50 54  1  0  0  0  0
 50 83  1  0  0  0  0
 51 56  1  0  0  0  0
 51 83  1  0  0  0  0
 52 80  1  0  0  0  0
 53 75  1  0  0  0  0
 54 56  1  0  0  0  0
 54 57  1  0  0  0  0
 55 74  1  0  0  0  0
 56 65  1  0  0  0  0
 58 65  1  0  0  0  0
 59 69  1  0  0  0  0
 60 70  1  0  0  0  0
 61 70  1  0  0  0  0
 62 70  1  0  0  0  0
 63 84  1  0  0  0  0
 64 82  1  0  0  0  0
 66 67  1  0  0  0  0
 66 83  1  0  0  0  0
 67 91  1  0  0  0  0
 68 70  1  0  0  0  0
 68 81  1  0  0  0  0
 69 84  1  0  0  0  0
 72 74  1  0  0  0  0
M  CHG  3  82   1  83   1  84   1
M  ISO  4  36 100  67 101  77 100  91 101
M  END
> <Batch ID>
0197

> <Smiles>
CCC1(c2cncc(CN3CC[100N:0]([100C:0](=O)N4CCCC(n5nc(-c6ccc(Oc7ccc(F)cc7F)cc6)c(C(N)=O)c5N)C4)CC3)n2)CN(C[101CH2:1][101O:1]c2ccc3c(c2)CN(C(=O)C(NC(=O)C(C)NC)C(C)(C)C)C(C(=O)NC2CCCc4ccccc42)C3)CC1C

> <Shape>
0.289

> <Color>
0.052

> <Negative vol penalty>
0.000

$$$$

  -OEChem-04052323453D

 86 95  0     1  0  0  0  0  0999 V2000
  -25.3436  -38.0154   23.1176 C   0  0  0  0  0  0  0  0  0  0  0  0
  -26.0882  -37.2155   22.2567 C   0  0  0  0  0  0  0  0  0  0  0  0
  -28.7926  -14.7288   15.8709 C   0  0  0  0  0  0  0  0  0  0  0  0
  -28.1426  -12.4643   16.4062 C   0  0  0  0  0  0  0  0  0  0  0  0
  -24.7082  -37.4469   24.2208 C   0  0  0  0  0  0  0  0  0  0  0  0
  -26.1987  -35.8468   22.4991 C   0  0  0  0  0  0  0  0  0  0  0  0
  -26.8008  -29.5969   19.0504 C   0  0  0  0  0  0  0  0  0  0  0  0
  -29.3111  -14.2918   14.6519 C   0  0  0  0  0  0  0  0  0  0  0  0
  -28.6610  -12.0273   15.1873 C   0  0  0  0  0  0  0  0  0  0  0  0
  -27.6005  -28.4553   19.0218 C   0  0  0  0  0  0  0  0  0  0  0  0
  -27.7142  -12.0076   11.9433 C   0  0  0  0  0  0  0  0  0  0  0  0
  -26.9425  -11.1202   11.1933 C   0  0  0  0  0  0  0  0  0  0  0  0
  -26.3944  -27.5702   20.9141 C   0  0  0  0  0  0  0  0  0  0  0  0
  -28.7147   -9.4821   11.3081 C   0  0  0  0  0  0  0  0  0  0  0  0
  -30.6954  -23.2274   20.7589 C   0  0  0  0  0  0  0  0  0  0  0  0
  -28.5907  -23.0324   20.1532 C   0  0  0  0  0  0  0  0  0  0  0  0
  -28.2084  -13.8150   16.7481 C   0  0  0  0  0  0  0  0  0  0  0  0
  -26.3602  -14.7034   18.2656 C   0  0  0  0  0  0  0  0  0  0  0  0
  -24.8030  -36.0690   24.4715 C   0  0  0  0  0  0  0  0  0  0  0  0
  -25.7974  -29.7389   20.0196 C   0  0  0  0  0  0  0  0  0  0  0  0
  -25.5651  -35.2596   23.6075 C   0  0  0  0  0  0  0  0  0  0  0  0
  -25.5816  -28.7135   20.9514 C   0  0  0  0  0  0  0  0  0  0  0  0
  -29.7764  -22.3394   20.1684 C   0  0  0  0  0  0  0  0  0  0  0  0
  -29.2453  -12.9411   14.3101 C   0  0  0  0  0  0  0  0  0  0  0  0
  -27.3993  -27.4430   19.9555 C   0  0  0  0  0  0  0  0  0  0  0  0
  -28.9862  -11.6324   12.3755 C   0  0  0  0  0  0  0  0  0  0  0  0
  -27.4427   -9.8574   10.8758 C   0  0  0  0  0  0  0  0  0  0  0  0
  -29.4865  -10.3697   12.0580 C   0  0  0  0  0  0  0  0  0  0  0  0
  -27.6731  -14.2657   18.0076 C   0  0  0  0  0  0  0  0  0  0  0  0
  -26.3598  -15.0187   19.6024 C   0  0  0  0  0  0  0  0  0  0  0  0
  -25.2411  -14.8149   17.3763 C   0  0  0  0  0  0  0  0  0  0  0  0
  -25.2351  -31.7891   22.3827 C   0  0  0  0  0  0  0  0  0  0  0  0
  -22.4549  -30.1367   22.6326 C   0  0  0  0  0  0  0  0  0  0  0  0
  -20.7504  -27.2330   22.0760 C   0  0  0  0  0  0  0  0  0  0  0  0
  -30.4473  -16.7157   23.4282 C   0  0  0  0  0  0  0  0  0  0  0  0
  -24.1377  -35.5077   25.7032 C   0  0  0  0  0  0  0  0  0  0  0  0
  -24.9256  -30.9647   20.0204 C   0  0  0  0  0  0  0  0  0  0  0  0
  -24.5043  -28.8083   21.9996 C   0  0  0  0  0  0  0  0  0  0  0  0
  -23.9953  -33.9880   25.6796 C   0  0  0  0  0  0  0  0  0  0  0  0
  -28.4931  -13.8870   23.7302 C   0  0  0  0  0  0  0  0  0  0  0  0
  -25.3035  -33.3359   25.2436 C   0  0  0  0  0  0  0  0  0  0  0  0
  -27.9198  -13.6932   22.3262 C   0  0  0  0  0  0  0  0  0  0  0  0
  -29.9598  -14.2994   23.6699 C   0  0  0  0  0  0  0  0  0  0  0  0
  -29.6427  -15.3460   21.4535 C   0  0  0  0  0  0  0  0  0  0  0  0
  -30.2562  -19.1486   23.0552 C   0  0  0  0  0  0  0  0  0  0  0  0
  -31.4710  -17.8041   21.3946 C   0  0  0  0  0  0  0  0  0  0  0  0
  -25.6881  -33.7668   23.8231 C   0  0  1  0  0  0  0  0  0  0  0  0
  -24.2721  -31.2322   21.3727 C   0  0  1  0  0  0  0  0  0  0  0  0
  -28.1554  -14.9408   21.4561 C   0  0  1  0  0  0  0  0  0  0  0  0
  -29.6063  -19.9938   21.9597 C   0  0  2  0  0  0  0  0  0  0  0  0
  -30.8995  -18.6202   20.2304 C   0  0  2  0  0  0  0  0  0  0  0  0
  -28.2039  -19.4981   21.6042 C   0  0  0  0  0  0  0  0  0  0  0  0
  -32.2831  -17.3741   18.5628 C   0  0  0  0  0  0  0  0  0  0  0  0
  -18.5040  -26.1699   22.4237 C   0  0  0  0  0  0  0  0  0  0  0  0
  -23.1062  -29.7323   25.5859 C   0  0  0  0  0  0  0  0  0  0  0  0
  -21.3816  -27.9184   25.6461 C   0  0  0  0  0  0  0  0  0  0  0  0
  -20.7084  -30.2595   25.1091 C   0  0  0  0  0  0  0  0  0  0  0  0
  -20.3381  -26.8798   19.1667 C   0  0  0  0  0  0  0  0  0  0  0  0
  -30.0326  -20.9494   19.6652 C   0  0  0  0  0  0  0  0  0  0  0  0
  -31.9384  -18.7183   19.1139 C   0  0  0  0  0  0  0  0  0  0  0  0
  -27.9226  -25.3237   20.9161 C   0  0  0  0  0  0  0  0  0  1  0  0
  -22.0007  -28.9183   23.3993 C   0  0  1  0  0  0  0  0  0  0  0  0
  -19.3828  -26.9676   21.4729 C   0  0  2  0  0  0  0  0  0  0  0  0
  -21.8209  -29.2059   24.9167 C   0  0  0  0  0  0  0  0  0  0  0  0
  -30.1411  -24.3954   21.0945 N   0  0  0  0  0  0  0  0  0  0  0  0
  -28.4503  -14.2988   19.0934 N   0  0  0  0  0  0  0  0  0  0  0  0
  -28.8610  -24.2461   20.7134 N   0  0  0  0  0  0  0  0  0  0  0  0
  -27.6233  -14.7611   20.0465 N   0  0  0  0  0  0  0  0  0  0  0  0
  -23.6822  -30.0291   21.9633 N   0  0  0  0  0  0  0  0  0  0  0  0
  -30.1388  -15.4841   22.8307 N   0  0  0  0  0  0  0  0  0  0  0  0
  -30.5977  -17.8164   22.5704 N   0  0  0  0  0  0  0  0  0  0  0  0
  -25.4019  -15.4884   20.4295 N   0  0  0  0  0  0  0  0  0  0  0  0
  -25.4147  -14.4486   16.0346 N   0  0  0  0  0  0  0  0  0  0  0  0
  -24.8998  -33.0471   22.8458 N   0  0  0  0  0  0  0  0  0  0  0  0
  -20.7921  -28.4442   22.7337 N   0  0  0  0  0  0  0  0  0  0  0  0
  -30.5301  -20.0131   20.7407 N   0  3  1  0  0  0  0  0  0  0  0  0
  -19.5171  -26.2008   20.2021 N   0  3  0  0  0  0  0  0  0  0  0  0
  -24.1248  -15.2426   17.7564 O   0  0  0  0  0  0  0  0  0  0  0  0
  -26.2095  -31.1260   22.7182 O   0  0  0  0  0  0  0  0  0  0  0  0
  -21.7435  -31.1444   22.6218 O   0  0  0  0  0  0  0  0  0  0  0  0
  -21.6867  -26.4432   21.9771 O   0  0  0  0  0  0  0  0  0  0  0  0
  -30.5730  -16.8285   24.6539 O   0  0  0  0  0  0  0  0  0  0  0  0
  -29.7509  -12.5144   13.1207 O   0  0  0  0  0  0  0  0  0  0  0  0
  -28.1840  -26.3207   19.9300 O   0  0  0  0  0  0  0  0  0  1  0  0
  -26.7009   -9.0047   10.1569 F   0  0  0  0  0  0  0  0  0  0  0  0
  -30.7073  -10.0031   12.4715 F   0  0  0  0  0  0  0  0  0  0  0  0
  1  2  1  0  0  0  0
  1  5  2  0  0  0  0
  2  6  2  0  0  0  0
  3  8  2  0  0  0  0
  3 17  1  0  0  0  0
  4  9  1  0  0  0  0
  4 17  2  0  0  0  0
  5 19  1  0  0  0  0
  6 21  1  0  0  0  0
  7 10  2  0  0  0  0
  7 20  1  0  0  0  0
  8 24  1  0  0  0  0
  9 24  2  0  0  0  0
 10 25  1  0  0  0  0
 11 12  2  0  0  0  0
 11 26  1  0  0  0  0
 12 27  1  0  0  0  0
 13 22  1  0  0  0  0
 13 25  2  0  0  0  0
 14 27  2  0  0  0  0
 14 28  1  0  0  0  0
 15 23  1  0  0  0  0
 15 65  2  0  0  0  0
 16 23  2  0  0  0  0
 16 67  1  0  0  0  0
 17 29  1  0  0  0  0
 18 29  1  0  0  0  0
 18 30  2  0  0  0  0
 18 31  1  0  0  0  0
 19 21  2  0  0  0  0
 19 36  1  0  0  0  0
 20 22  2  0  0  0  0
 20 37  1  0  0  0  0
 21 47  1  0  0  0  0
 22 38  1  0  0  0  0
 23 59  1  0  0  0  0
 24 83  1  0  0  0  0
 25 84  1  0  0  0  0
 26 28  2  0  0  0  0
 26 83  1  0  0  0  0
 27 85  1  0  0  0  0
 28 86  1  0  0  0  0
 29 66  2  0  0  0  0
 30 68  1  0  0  0  0
 30 72  1  0  0  0  0
 31 73  1  0  0  0  0
 31 78  2  0  0  0  0
 32 48  1  0  0  0  0
 32 74  1  0  0  0  0
 32 79  2  0  0  0  0
 33 62  1  0  0  0  0
 33 69  1  0  0  0  0
 33 80  2  0  0  0  0
 34 63  1  0  0  0  0
 34 75  1  0  0  0  0
 34 81  2  0  0  0  0
 35 70  1  0  0  0  0
 35 71  1  0  0  0  0
 35 82  2  0  0  0  0
 36 39  1  0  0  0  0
 37 48  1  0  0  0  0
 38 69  1  0  0  0  0
 39 41  1  0  0  0  0
 40 42  1  0  0  0  0
 40 43  1  0  0  0  0
 41 47  1  0  0  0  0
 42 49  1  0  0  0  0
 43 70  1  0  0  0  0
 44 49  1  0  0  0  0
 44 70  1  0  0  0  0
 45 50  1  0  0  0  0
 45 71  1  0  0  0  0
 46 51  1  0  0  0  0
 46 71  1  0  0  0  0
 47 74  1  0  0  0  0
 48 69  1  0  0  0  0
 49 68  1  0  0  0  0
 50 52  1  0  0  0  0
 50 76  1  0  0  0  0
 51 60  1  0  0  0  0
 51 76  1  0  0  0  0
 53 60  1  0  0  0  0
 54 63  1  0  0  0  0
 55 64  1  0  0  0  0
 56 64  1  0  0  0  0
 57 64  1  0  0  0  0
 58 77  1  0  0  0  0
 59 76  1  0  0  0  0
 61 67  1  0  0  0  0
 61 84  1  0  0  0  0
 62 64  1  0  0  0  0
 62 75  1  0  0  0  0
 63 77  1  0  0  0  0
 65 67  1  0  0  0  0
 66 68  1  0  0  0  0
M  CHG  2  76   1  77   1
M  ISO  4  35 100  61 101  71 100  84 101
M  END
> <Batch ID>
0197

> <Smiles>
CCC1C[100N:0]([100C:0](=O)N2CCCC(n3nc(-c4ccc(Oc5ccc(F)cc5F)cc4)c(C(N)=O)c3N)C2)CC(C)N1Cc1cnn([101CH2:1][101O:1]c2ccc3c(c2)CN(C(=O)C(NC(=O)C(C)NC)C(C)(C)C)C(C(=O)NC2CCCc4ccccc42)C3)c1

> <Shape>
0.264

> <Color>
0.085

> <Negative vol penalty>
0.000

$$$$

  -OEChem-04052323453D

 87 96  0     1  0  0  0  0  0999 V2000
  -18.8676  -30.5849   26.8774 C   0  0  0  0  0  0  0  0  0  0  0  0
  -20.2405  -30.3811   26.7823 C   0  0  0  0  0  0  0  0  0  0  0  0
  -24.4861  -10.1229   22.8096 C   0  0  0  0  0  0  0  0  0  0  0  0
  -24.3273  -11.7382   24.5992 C   0  0  0  0  0  0  0  0  0  0  0  0
  -18.0373  -30.2395   25.8119 C   0  0  0  0  0  0  0  0  0  0  0  0
  -20.7838  -29.8307   25.6220 C   0  0  0  0  0  0  0  0  0  0  0  0
  -26.2100  -31.1549   23.1103 C   0  0  0  0  0  0  0  0  0  0  0  0
  -24.0100   -9.1289   23.6645 C   0  0  0  0  0  0  0  0  0  0  0  0
  -23.8512  -10.7442   25.4541 C   0  0  0  0  0  0  0  0  0  0  0  0
  -27.4498  -30.5196   23.1666 C   0  0  0  0  0  0  0  0  0  0  0  0
  -21.0280   -8.1299   24.9064 C   0  0  0  0  0  0  0  0  0  0  0  0
  -20.0437   -7.2710   24.4173 C   0  0  0  0  0  0  0  0  0  0  0  0
  -26.9640  -29.4005   21.0855 C   0  0  0  0  0  0  0  0  0  0  0  0
  -21.5071   -5.3842   24.7858 C   0  0  0  0  0  0  0  0  0  0  0  0
  -29.8669  -22.7408   22.6396 C   0  0  0  0  0  0  0  0  0  0  0  0
  -24.6448  -11.4275   23.2770 C   0  0  0  0  0  0  0  0  0  0  0  0
  -24.3757  -13.2993   21.5648 C   0  0  0  0  0  0  0  0  0  0  0  0
  -18.5718  -29.6935   24.6342 C   0  0  0  0  0  0  0  0  0  0  0  0
  -25.3320  -30.9091   22.0450 C   0  0  0  0  0  0  0  0  0  0  0  0
  -19.9597  -29.4764   24.5403 C   0  0  0  0  0  0  0  0  0  0  0  0
  -25.7148  -30.0360   21.0167 C   0  0  0  0  0  0  0  0  0  0  0  0
  -23.6925   -9.4395   24.9867 C   0  0  0  0  0  0  0  0  0  0  0  0
  -27.8257  -29.6400   22.1556 C   0  0  0  0  0  0  0  0  0  0  0  0
  -22.2518   -7.6160   25.3351 C   0  0  0  0  0  0  0  0  0  0  0  0
  -20.2832   -5.8982   24.3570 C   0  0  0  0  0  0  0  0  0  0  0  0
  -22.4913   -6.2431   25.2748 C   0  0  0  0  0  0  0  0  0  0  0  0
  -25.1372  -12.4546   22.3945 C   0  0  0  0  0  0  0  0  0  0  0  0
  -28.9236  -22.0135   21.9557 C   0  0  0  0  0  0  0  0  0  0  0  0
  -29.7528  -24.0435   22.1182 C   0  0  0  0  0  0  0  0  0  0  0  0
  -25.3050  -14.0902   20.9345 C   0  0  0  0  0  0  0  0  0  0  0  0
  -22.9553  -13.3633   21.3803 C   0  0  0  0  0  0  0  0  0  0  0  0
  -22.4106  -29.6840   21.7829 C   0  0  0  0  0  0  0  0  0  0  0  0
  -22.7343  -30.5826   18.6829 C   0  0  0  0  0  0  0  0  0  0  0  0
  -24.8180  -31.3208   16.0829 C   0  0  0  0  0  0  0  0  0  0  0  0
  -29.9137  -17.2245   21.1185 C   0  0  0  0  0  0  0  0  0  0  0  0
  -17.6293  -29.2920   23.5273 C   0  0  0  0  0  0  0  0  0  0  0  0
  -24.0093  -31.6228   21.9853 C   0  0  0  0  0  0  0  0  0  0  0  0
  -24.8169  -29.7535   19.8409 C   0  0  0  0  0  0  0  0  0  0  0  0
  -18.3253  -29.0614   22.1884 C   0  0  0  0  0  0  0  0  0  0  0  0
  -30.3273  -13.7417   20.6927 C   0  0  0  0  0  0  0  0  0  0  0  0
  -19.5742  -28.2059   22.3762 C   0  0  0  0  0  0  0  0  0  0  0  0
  -28.9675  -13.1537   21.0594 C   0  0  0  0  0  0  0  0  0  0  0  0
  -28.7615  -19.8580   23.3969 C   0  0  0  0  0  0  0  0  0  0  0  0
  -30.6674  -14.9210   21.5939 C   0  0  0  0  0  0  0  0  0  0  0  0
  -28.6755  -18.3799   23.0411 C   0  0  0  0  0  0  0  0  0  0  0  0
  -29.3219  -19.6290   21.1009 C   0  0  0  0  0  0  0  0  0  0  0  0
  -28.2649  -15.4542   21.8998 C   0  0  0  0  0  0  0  0  0  0  0  0
  -20.5895  -28.9047   23.2886 C   0  0  1  0  0  0  0  0  0  0  0  0
  -28.5388  -20.5532   22.0440 C   0  0  2  0  0  0  0  0  0  0  0  0
  -22.9812  -30.9041   21.1171 C   0  0  1  0  0  0  0  0  0  0  0  0
  -27.8814  -14.2402   21.0287 C   0  0  2  0  0  0  0  0  0  0  0  0
  -25.9129  -23.0874   20.6567 C   0  0  0  0  0  0  0  0  0  0  0  0
  -24.7896  -31.9839   13.6627 C   0  0  0  0  0  0  0  0  0  0  0  0
  -31.0884  -27.2272   24.8306 C   0  0  0  0  0  0  0  0  0  0  0  0
  -22.0254  -27.7176   17.9088 C   0  0  0  0  0  0  0  0  0  0  0  0
  -22.9264  -28.1869   15.6205 C   0  0  0  0  0  0  0  0  0  0  0  0
  -20.9705  -29.4764   16.4776 C   0  0  0  0  0  0  0  0  0  0  0  0
  -26.2229  -33.8646   16.6434 C   0  0  0  0  0  0  0  0  0  0  0  0
  -30.5309  -25.2340   22.4998 C   0  0  0  0  0  0  0  0  0  0  0  0
  -27.2647  -22.6018   20.1623 C   0  0  0  0  0  0  0  0  0  0  0  0
  -29.5727  -28.7521   23.5030 C   0  0  0  0  0  0  0  0  0  1  0  0
  -23.2679  -29.9297   17.4307 C   0  0  1  0  0  0  0  0  0  0  0  0
  -24.8319  -32.4780   15.1004 C   0  0  2  0  0  0  0  0  0  0  0  0
  -30.4922  -27.5366   23.4669 C   0  0  2  0  0  0  0  0  0  0  0  0
  -22.3139  -28.8313   16.8824 C   0  0  0  0  0  0  0  0  0  0  0  0
  -26.4492  -12.6870   22.3018 N   0  0  0  0  0  0  0  0  0  0  0  0
  -28.8114  -24.1411   21.1757 N   0  0  0  0  0  0  0  0  0  0  0  0
  -28.3254  -22.8904   21.0994 N   0  0  0  0  0  0  0  0  0  0  0  0
  -26.5194  -13.6867   21.4063 N   0  0  0  0  0  0  0  0  0  0  0  0
  -23.5313  -30.4709   19.8310 N   0  0  0  0  0  0  0  0  0  0  0  0
  -29.6142  -15.9379   21.5798 N   0  0  0  0  0  0  0  0  0  0  0  0
  -29.2345  -18.2980   21.6933 N   0  0  0  0  0  0  0  0  0  0  0  0
  -25.1937  -15.0845   20.0282 N   0  0  0  0  0  0  0  0  0  0  0  0
  -22.1467  -12.4783   22.1064 N   0  0  0  0  0  0  0  0  0  0  0  0
  -21.2968  -29.9364   22.5607 N   0  0  0  0  0  0  0  0  0  0  0  0
  -23.5373  -31.0114   16.4894 N   0  0  0  0  0  0  0  0  0  0  0  0
  -26.0648  -33.2955   15.2803 N   0  3  0  0  0  0  0  0  0  0  0  0
  -29.7010  -26.3607   23.0305 N   0  3  0  0  0  0  0  0  0  0  0  0
  -22.4201  -14.1701   20.5827 O   0  0  0  0  0  0  0  0  0  0  0  0
  -22.9408  -28.5939   21.6030 O   0  0  0  0  0  0  0  0  0  0  0  0
  -21.6537  -31.1761   18.6420 O   0  0  0  0  0  0  0  0  0  0  0  0
  -25.8406  -30.7463   16.4498 O   0  0  0  0  0  0  0  0  0  0  0  0
  -30.7831  -17.4122   20.2565 O   0  0  0  0  0  0  0  0  0  0  0  0
  -23.2277   -8.4699   25.8212 O   0  0  0  0  0  0  0  0  0  0  0  0
  -29.0431  -29.0138   22.2087 O   0  0  0  0  0  0  0  0  0  1  0  0
  -19.3374   -5.0734   23.8888 F   0  0  0  0  0  0  0  0  0  0  0  0
  -23.6647   -5.7434   25.6864 F   0  0  0  0  0  0  0  0  0  0  0  0
  1  2  1  0  0  0  0
  1  5  2  0  0  0  0
  2  6  2  0  0  0  0
  3  8  2  0  0  0  0
  3 16  1  0  0  0  0
  4  9  1  0  0  0  0
  4 16  2  0  0  0  0
  5 18  1  0  0  0  0
  6 20  1  0  0  0  0
  7 10  2  0  0  0  0
  7 19  1  0  0  0  0
  8 22  1  0  0  0  0
  9 22  2  0  0  0  0
 10 23  1  0  0  0  0
 11 12  2  0  0  0  0
 11 24  1  0  0  0  0
 12 25  1  0  0  0  0
 13 21  1  0  0  0  0
 13 23  2  0  0  0  0
 14 25  2  0  0  0  0
 14 26  1  0  0  0  0
 15 28  2  0  0  0  0
 15 29  1  0  0  0  0
 16 27  1  0  0  0  0
 17 27  1  0  0  0  0
 17 30  2  0  0  0  0
 17 31  1  0  0  0  0
 18 20  2  0  0  0  0
 18 36  1  0  0  0  0
 19 21  2  0  0  0  0
 19 37  1  0  0  0  0
 20 48  1  0  0  0  0
 21 38  1  0  0  0  0
 22 84  1  0  0  0  0
 23 85  1  0  0  0  0
 24 26  2  0  0  0  0
 24 84  1  0  0  0  0
 25 86  1  0  0  0  0
 26 87  1  0  0  0  0
 27 66  2  0  0  0  0
 28 49  1  0  0  0  0
 28 68  1  0  0  0  0
 29 59  1  0  0  0  0
 29 67  2  0  0  0  0
 30 69  1  0  0  0  0
 30 73  1  0  0  0  0
 31 74  1  0  0  0  0
 31 79  2  0  0  0  0
 32 50  1  0  0  0  0
 32 75  1  0  0  0  0
 32 80  2  0  0  0  0
 33 62  1  0  0  0  0
 33 70  1  0  0  0  0
 33 81  2  0  0  0  0
 34 63  1  0  0  0  0
 34 76  1  0  0  0  0
 34 82  2  0  0  0  0
 35 71  1  0  0  0  0
 35 72  1  0  0  0  0
 35 83  2  0  0  0  0
 36 39  1  0  0  0  0
 37 50  1  0  0  0  0
 38 70  1  0  0  0  0
 39 41  1  0  0  0  0
 40 42  1  0  0  0  0
 40 44  1  0  0  0  0
 41 48  1  0  0  0  0
 42 51  1  0  0  0  0
 43 45  1  0  0  0  0
 43 49  1  0  0  0  0
 44 71  1  0  0  0  0
 45 72  1  0  0  0  0
 46 49  1  0  0  0  0
 46 72  1  0  0  0  0
 47 51  1  0  0  0  0
 47 71  1  0  0  0  0
 48 75  1  0  0  0  0
 50 70  1  0  0  0  0
 51 69  1  0  0  0  0
 52 60  1  0  0  0  0
 53 63  1  0  0  0  0
 54 64  1  0  0  0  0
 55 65  1  0  0  0  0
 56 65  1  0  0  0  0
 57 65  1  0  0  0  0
 58 77  1  0  0  0  0
 59 78  1  0  0  0  0
 60 68  1  0  0  0  0
 61 64  1  0  0  0  0
 61 85  1  0  0  0  0
 62 65  1  0  0  0  0
 62 76  1  0  0  0  0
 63 77  1  0  0  0  0
 64 78  1  0  0  0  0
 66 69  1  0  0  0  0
 67 68  1  0  0  0  0
M  CHG  2  77   1  78   1
M  ISO  4  35 100  61 101  72 100  85 101
M  END
> <Batch ID>
0197

> <Smiles>
CCn1nc(CNC(C)[101CH2:1][101O:1]c2ccc3c(c2)CN(C(=O)C(NC(=O)C(C)NC)C(C)(C)C)C(C(=O)NC2CCCc4ccccc42)C3)cc1C1CC[100N:0]([100C:0](=O)N2CCCC(n3nc(-c4ccc(Oc5ccc(F)cc5F)cc4)c(C(N)=O)c3N)C2)C1

> <Shape>
0.252

> <Color>
0.117

> <Negative vol penalty>
0.000

$$$$

  -OEChem-04052323453D

 90100  0     1  0  0  0  0  0999 V2000
  -37.6299  -16.4350   21.6839 C   0  0  0  0  0  0  0  0  0  0  0  0
  -36.5511  -17.1820   21.2219 C   0  0  0  0  0  0  0  0  0  0  0  0
  -15.6748  -30.6168   18.8965 C   0  0  0  0  0  0  0  0  0  0  0  0
  -17.8728  -31.5567   18.5467 C   0  0  0  0  0  0  0  0  0  0  0  0
  -37.6107  -15.0450   21.5770 C   0  0  0  0  0  0  0  0  0  0  0  0
  -35.4527  -16.5394   20.6517 C   0  0  0  0  0  0  0  0  0  0  0  0
  -31.0414  -18.3752   22.3294 C   0  0  0  0  0  0  0  0  0  0  0  0
  -15.1044  -31.8719   18.6846 C   0  0  0  0  0  0  0  0  0  0  0  0
  -17.3024  -32.8118   18.3348 C   0  0  0  0  0  0  0  0  0  0  0  0
  -30.6070  -19.5837   21.7867 C   0  0  0  0  0  0  0  0  0  0  0  0
  -15.7194  -34.4356   15.8292 C   0  0  0  0  0  0  0  0  0  0  0  0
  -16.1872  -35.1844   14.7494 C   0  0  0  0  0  0  0  0  0  0  0  0
  -29.1232  -18.3816   20.3128 C   0  0  0  0  0  0  0  0  0  0  0  0
  -16.8685  -36.9405   16.2624 C   0  0  0  0  0  0  0  0  0  0  0  0
  -28.6667  -24.3131   18.4582 C   0  0  0  0  0  0  0  0  0  0  0  0
  -28.4969  -24.1046   20.6406 C   0  0  0  0  0  0  0  0  0  0  0  0
  -17.0591  -30.4592   18.8276 C   0  0  0  0  0  0  0  0  0  0  0  0
  -17.9171  -28.1763   18.0794 C   0  0  0  0  0  0  0  0  0  0  0  0
  -36.5074  -14.3844   21.0140 C   0  0  0  0  0  0  0  0  0  0  0  0
  -30.5270  -17.1582   21.8595 C   0  0  0  0  0  0  0  0  0  0  0  0
  -35.4193  -15.1394   20.5360 C   0  0  0  0  0  0  0  0  0  0  0  0
  -29.5508  -17.1591   20.8530 C   0  0  0  0  0  0  0  0  0  0  0  0
  -28.1302  -24.9288   19.6049 C   0  0  0  0  0  0  0  0  0  0  0  0
  -15.9181  -32.9694   18.4037 C   0  0  0  0  0  0  0  0  0  0  0  0
  -29.6499  -19.5869   20.7762 C   0  0  0  0  0  0  0  0  0  0  0  0
  -15.8260  -34.9392   17.1256 C   0  0  0  0  0  0  0  0  0  0  0  0
  -16.7618  -36.4369   14.9660 C   0  0  0  0  0  0  0  0  0  0  0  0
  -16.4006  -36.1917   17.3422 C   0  0  0  0  0  0  0  0  0  0  0  0
  -17.6490  -29.1631   19.0470 C   0  0  0  0  0  0  0  0  0  0  0  0
  -18.4738  -27.1411   18.7899 C   0  0  0  0  0  0  0  0  0  0  0  0
  -17.6840  -28.1940   16.6648 C   0  0  0  0  0  0  0  0  0  0  0  0
  -31.7653  -14.5995   20.4370 C   0  0  0  0  0  0  0  0  0  0  0  0
  -28.7712  -13.4148   20.8293 C   0  0  0  0  0  0  0  0  0  0  0  0
  -25.4419  -14.0356   21.2505 C   0  0  0  0  0  0  0  0  0  0  0  0
  -22.2722  -28.5821   22.2475 C   0  0  0  0  0  0  0  0  0  0  0  0
  -36.5526  -12.8832   20.8767 C   0  0  0  0  0  0  0  0  0  0  0  0
  -30.9864  -15.8645   22.4740 C   0  0  0  0  0  0  0  0  0  0  0  0
  -28.9523  -15.8807   20.3276 C   0  0  0  0  0  0  0  0  0  0  0  0
  -35.1887  -12.2554   20.6012 C   0  0  0  0  0  0  0  0  0  0  0  0
  -18.6980  -28.2629   23.3590 C   0  0  0  0  0  0  0  0  0  0  0  0
  -22.6045  -30.5872   19.2424 C   0  0  0  0  0  0  0  0  0  0  0  0
  -34.4570  -13.0270   19.5075 C   0  0  0  0  0  0  0  0  0  0  0  0
  -18.2313  -27.0383   22.5799 C   0  0  0  0  0  0  0  0  0  0  0  0
  -23.9931  -29.9681   19.2223 C   0  0  0  0  0  0  0  0  0  0  0  0
  -20.2080  -28.2823   23.5468 C   0  0  0  0  0  0  0  0  0  0  0  0
  -21.8061  -29.5420   19.9940 C   0  0  0  0  0  0  0  0  0  0  0  0
  -20.5421  -26.9218   21.5050 C   0  0  0  0  0  0  0  0  0  0  0  0
  -24.7860  -30.3886   21.5651 C   0  0  0  0  0  0  0  0  0  0  0  0
  -26.4976  -28.9315   20.5668 C   0  0  0  0  0  0  0  0  0  0  0  0
  -34.1990  -14.4772   19.9339 C   0  0  1  0  0  0  0  0  0  0  0  0
  -30.7714  -14.6604   21.5622 C   0  0  1  0  0  0  0  0  0  0  0  0
  -19.0265  -26.7802   21.2890 C   0  0  2  0  0  0  0  0  0  0  0  0
  -24.1365  -29.3392   20.6447 C   0  0  2  0  0  0  0  0  0  0  0  0
  -25.1717  -28.1632   20.6936 C   0  0  2  0  0  0  0  0  0  0  0  0
  -25.1850  -27.3757   22.0231 C   0  0  0  0  0  0  0  0  0  0  0  0
  -23.2363  -12.8654   21.5022 C   0  0  0  0  0  0  0  0  0  0  0  0
  -28.7542  -12.8087   17.8389 C   0  0  0  0  0  0  0  0  0  0  0  0
  -26.2680  -12.5479   17.9767 C   0  0  0  0  0  0  0  0  0  0  0  0
  -27.7543  -11.0193   19.2717 C   0  0  0  0  0  0  0  0  0  0  0  0
  -24.9941  -15.2082   23.9307 C   0  0  0  0  0  0  0  0  0  0  0  0
  -25.4097  -24.6911   19.2312 C   0  0  0  0  0  0  0  0  0  0  0  0
  -27.3381  -26.2008   19.6815 C   0  0  0  0  0  0  0  0  0  0  0  0
  -25.0307  -27.1296   19.5659 C   0  0  0  0  0  0  0  0  0  0  0  0
  -29.7986  -21.9672   20.7654 C   0  0  0  0  0  0  0  0  0  1  0  0
  -27.5022  -13.4237   20.0115 C   0  0  1  0  0  0  0  0  0  0  0  0
  -24.4277  -13.4703   22.2284 C   0  0  2  0  0  0  0  0  0  0  0  0
  -27.5822  -12.4741   18.7830 C   0  0  0  0  0  0  0  0  0  0  0  0
  -29.3243  -23.1849   18.7387 N   0  0  0  0  0  0  0  0  0  0  0  0
  -18.0057  -28.7882   20.2783 N   0  0  0  0  0  0  0  0  0  0  0  0
  -29.2035  -23.0852   20.0734 N   0  0  0  0  0  0  0  0  0  0  0  0
  -18.5037  -27.5544   20.0893 N   0  0  0  0  0  0  0  0  0  0  0  0
  -29.4385  -14.6413   20.9560 N   0  0  0  0  0  0  0  0  0  0  0  0
  -20.9442  -28.0914   22.2968 N   0  0  0  0  0  0  0  0  0  0  0  0
  -22.7320  -29.0006   20.9910 N   0  0  0  0  0  0  0  0  0  0  0  0
  -18.9356  -25.9266   18.4236 N   0  0  0  0  0  0  0  0  0  0  0  0
  -17.1041  -29.3370   16.0975 N   0  0  0  0  0  0  0  0  0  0  0  0
  -33.0821  -14.5430   20.8519 N   0  0  0  0  0  0  0  0  0  0  0  0
  -26.4180  -13.1135   20.9370 N   0  0  0  0  0  0  0  0  0  0  0  0
  -26.2669  -30.2144   21.3219 N   0  3  0  0  0  0  0  0  0  0  0  0
  -23.9300  -14.5424   23.1361 N   0  3  0  0  0  0  0  0  0  0  0  0
  -25.8600  -25.9663   19.9126 N   0  3  1  0  0  0  0  0  0  0  0  0
  -17.9659  -27.2186   15.9282 O   0  0  0  0  0  0  0  0  0  0  0  0
  -31.3669  -14.6021   19.2781 O   0  0  0  0  0  0  0  0  0  0  0  0
  -29.1522  -12.3599   21.3428 O   0  0  0  0  0  0  0  0  0  0  0  0
  -25.3729  -15.1794   20.8061 O   0  0  0  0  0  0  0  0  0  0  0  0
  -22.9697  -28.6338   23.2656 O   0  0  0  0  0  0  0  0  0  0  0  0
  -15.3618  -34.1942   18.1967 O   0  0  0  0  0  0  0  0  0  0  0  0
  -29.2218  -20.7727   20.2408 O   0  0  0  0  0  0  0  0  0  1  0  0
  -17.2124  -37.1552   13.9291 F   0  0  0  0  0  0  0  0  0  0  0  0
  -16.5069  -36.6803   18.5855 F   0  0  0  0  0  0  0  0  0  0  0  0
  1  2  1  0  0  0  0
  1  5  2  0  0  0  0
  2  6  2  0  0  0  0
  3  8  2  0  0  0  0
  3 17  1  0  0  0  0
  4  9  1  0  0  0  0
  4 17  2  0  0  0  0
  5 19  1  0  0  0  0
  6 21  1  0  0  0  0
  7 10  2  0  0  0  0
  7 20  1  0  0  0  0
  8 24  1  0  0  0  0
  9 24  2  0  0  0  0
 10 25  1  0  0  0  0
 11 12  2  0  0  0  0
 11 26  1  0  0  0  0
 12 27  1  0  0  0  0
 13 22  1  0  0  0  0
 13 25  2  0  0  0  0
 14 27  2  0  0  0  0
 14 28  1  0  0  0  0
 15 23  1  0  0  0  0
 15 68  2  0  0  0  0
 16 23  2  0  0  0  0
 16 70  1  0  0  0  0
 17 29  1  0  0  0  0
 18 29  1  0  0  0  0
 18 30  2  0  0  0  0
 18 31  1  0  0  0  0
 19 21  2  0  0  0  0
 19 36  1  0  0  0  0
 20 22  2  0  0  0  0
 20 37  1  0  0  0  0
 21 50  1  0  0  0  0
 22 38  1  0  0  0  0
 23 62  1  0  0  0  0
 24 87  1  0  0  0  0
 25 88  1  0  0  0  0
 26 28  2  0  0  0  0
 26 87  1  0  0  0  0
 27 89  1  0  0  0  0
 28 90  1  0  0  0  0
 29 69  2  0  0  0  0
 30 71  1  0  0  0  0
 30 75  1  0  0  0  0
 31 76  1  0  0  0  0
 31 82  2  0  0  0  0
 32 51  1  0  0  0  0
 32 77  1  0  0  0  0
 32 83  2  0  0  0  0
 33 65  1  0  0  0  0
 33 72  1  0  0  0  0
 33 84  2  0  0  0  0
 34 66  1  0  0  0  0
 34 78  1  0  0  0  0
 34 85  2  0  0  0  0
 35 73  1  0  0  0  0
 35 74  1  0  0  0  0
 35 86  2  0  0  0  0
 36 39  1  0  0  0  0
 37 51  1  0  0  0  0
 38 72  1  0  0  0  0
 39 42  1  0  0  0  0
 40 43  1  0  0  0  0
 40 45  1  0  0  0  0
 41 44  1  0  0  0  0
 41 46  1  0  0  0  0
 42 50  1  0  0  0  0
 43 52  1  0  0  0  0
 44 53  1  0  0  0  0
 45 73  1  0  0  0  0
 46 74  1  0  0  0  0
 47 52  1  0  0  0  0
 47 73  1  0  0  0  0
 48 53  1  0  0  0  0
 48 79  1  0  0  0  0
 49 54  1  0  0  0  0
 49 79  1  0  0  0  0
 50 77  1  0  0  0  0
 51 72  1  0  0  0  0
 52 71  1  0  0  0  0
 53 54  1  0  0  0  0
 53 74  1  0  0  0  0
 54 55  1  0  0  0  0
 54 63  1  0  0  0  0
 56 66  1  0  0  0  0
 57 67  1  0  0  0  0
 58 67  1  0  0  0  0
 59 67  1  0  0  0  0
 60 80  1  0  0  0  0
 61 81  1  0  0  0  0
 62 81  1  0  0  0  0
 63 81  1  0  0  0  0
 64 70  1  0  0  0  0
 64 88  1  0  0  0  0
 65 67  1  0  0  0  0
 65 78  1  0  0  0  0
 66 80  1  0  0  0  0
 68 70  1  0  0  0  0
 69 71  1  0  0  0  0
M  CHG  3  79   1  80   1  81   1
M  ISO  4  35 100  64 101  74 100  88 101
M  END
> <Batch ID>
0197

> <Smiles>
CNC(C)C(=O)NC(C(=O)N1Cc2cc([101O:1][101CH2:1]n3cc(CN(C)CC4(C)CNCC45CCC[100N:0]5[100C:0](=O)N4CCCC(n5nc(-c6ccc(Oc7ccc(F)cc7F)cc6)c(C(N)=O)c5N)C4)cn3)ccc2CC1C(=O)NC1CCCc2ccccc21)C(C)(C)C

> <Shape>
0.264

> <Color>
0.094

> <Negative vol penalty>
0.000

$$$$

  -OEChem-04052323453D

 92103  0     1  0  0  0  0  0999 V2000
  -17.4931  -26.2051   21.4285 C   0  0  0  0  0  0  0  0  0  0  0  0
  -18.7585  -25.8685   20.9586 C   0  0  0  0  0  0  0  0  0  0  0  0
  -24.3591   -9.7977   21.5900 C   0  0  0  0  0  0  0  0  0  0  0  0
  -22.8034   -9.9100   23.4351 C   0  0  0  0  0  0  0  0  0  0  0  0
  -17.2110  -27.5230   21.7854 C   0  0  0  0  0  0  0  0  0  0  0  0
  -19.7424  -26.8501   20.8442 C   0  0  0  0  0  0  0  0  0  0  0  0
  -25.7585  -26.1560   21.7552 C   0  0  0  0  0  0  0  0  0  0  0  0
  -24.5115   -8.4275   21.8019 C   0  0  0  0  0  0  0  0  0  0  0  0
  -22.9557   -8.5397   23.6469 C   0  0  0  0  0  0  0  0  0  0  0  0
  -26.8239  -25.9618   20.8772 C   0  0  0  0  0  0  0  0  0  0  0  0
  -21.8170   -5.6675   22.2779 C   0  0  0  0  0  0  0  0  0  0  0  0
  -20.6630   -4.9145   22.4942 C   0  0  0  0  0  0  0  0  0  0  0  0
  -27.2764  -28.3310   20.9117 C   0  0  0  0  0  0  0  0  0  0  0  0
  -21.5015   -4.2518   24.6610 C   0  0  0  0  0  0  0  0  0  0  0  0
  -29.1574  -18.8892   19.6515 C   0  0  0  0  0  0  0  0  0  0  0  0
  -23.5051  -10.5390   22.4067 C   0  0  0  0  0  0  0  0  0  0  0  0
  -22.4052  -12.5867   21.3557 C   0  0  0  0  0  0  0  0  0  0  0  0
  -18.1948  -28.5194   21.6845 C   0  0  0  0  0  0  0  0  0  0  0  0
  -25.4367  -27.4427   22.2104 C   0  0  0  0  0  0  0  0  0  0  0  0
  -19.4728  -28.1828   21.1988 C   0  0  0  0  0  0  0  0  0  0  0  0
  -26.2080  -28.5385   21.7975 C   0  0  0  0  0  0  0  0  0  0  0  0
  -29.1044  -19.5656   18.4572 C   0  0  0  0  0  0  0  0  0  0  0  0
  -23.8098   -7.7985   22.8303 C   0  0  0  0  0  0  0  0  0  0  0  0
  -27.5812  -27.0497   20.4530 C   0  0  0  0  0  0  0  0  0  0  0  0
  -22.8133   -5.7127   23.2531 C   0  0  0  0  0  0  0  0  0  0  0  0
  -20.5052   -4.2067   23.6857 C   0  0  0  0  0  0  0  0  0  0  0  0
  -22.6556   -5.0049   24.4446 C   0  0  0  0  0  0  0  0  0  0  0  0
  -23.3477  -11.9545   22.1887 C   0  0  0  0  0  0  0  0  0  0  0  0
  -29.0211  -20.9220   18.8244 C   0  0  0  0  0  0  0  0  0  0  0  0
  -22.6675  -13.9276   21.4964 C   0  0  0  0  0  0  0  0  0  0  0  0
  -21.3839  -12.0132   20.5289 C   0  0  0  0  0  0  0  0  0  0  0  0
  -22.8976  -29.3390   21.9650 C   0  0  0  0  0  0  0  0  0  0  0  0
  -24.5908  -31.2182   23.9957 C   0  0  0  0  0  0  0  0  0  0  0  0
  -27.6337  -32.1268   25.2457 C   0  0  0  0  0  0  0  0  0  0  0  0
  -27.8993  -16.4925   23.1580 C   0  0  0  0  0  0  0  0  0  0  0  0
  -17.8288  -29.9393   22.0374 C   0  0  0  0  0  0  0  0  0  0  0  0
  -24.3011  -27.6320   23.1783 C   0  0  0  0  0  0  0  0  0  0  0  0
  -25.9164  -29.9376   22.2729 C   0  0  0  0  0  0  0  0  0  0  0  0
  -19.0388  -30.8475   22.2410 C   0  0  0  0  0  0  0  0  0  0  0  0
  -24.6135  -16.5910   25.0474 C   0  0  0  0  0  0  0  0  0  0  0  0
  -28.0037  -19.2975   16.0932 C   0  0  0  0  0  0  0  0  0  0  0  0
  -28.0943  -17.9237   16.6802 C   0  0  0  0  0  0  0  0  0  0  0  0
  -20.0470  -30.6544   21.1127 C   0  0  0  0  0  0  0  0  0  0  0  0
  -23.6676  -15.8646   24.0933 C   0  0  0  0  0  0  0  0  0  0  0  0
  -27.6248  -22.8704   18.1523 C   0  0  0  0  0  0  0  0  0  0  0  0
  -30.1467  -23.0310   18.1290 C   0  0  0  0  0  0  0  0  0  0  0  0
  -25.7697  -17.2664   24.3182 C   0  0  0  0  0  0  0  0  0  0  0  0
  -25.8885  -15.0705   23.1350 C   0  0  0  0  0  0  0  0  0  0  0  0
  -29.7369  -18.1740   22.6378 C   0  0  0  0  0  0  0  0  0  0  0  0
  -27.8231  -19.0986   22.8743 C   0  0  0  0  0  0  0  0  0  0  0  0
  -27.5472  -24.1119   17.2731 C   0  0  0  0  0  0  0  0  0  0  0  0
  -30.0499  -24.2711   17.2496 C   0  0  0  0  0  0  0  0  0  0  0  0
  -29.1298  -18.9705   17.0620 C   0  0  0  0  0  0  0  0  0  0  0  0
  -20.5739  -29.2146   21.0841 C   0  0  1  0  0  0  0  0  0  0  0  0
  -28.9378  -22.1027   17.9297 C   0  0  0  0  0  0  0  0  0  0  0  0
  -23.7425  -29.0516   23.1738 C   0  0  1  0  0  0  0  0  0  0  0  0
  -24.3902  -15.2762   22.8678 C   0  0  1  0  0  0  0  0  0  0  0  0
  -29.1382  -19.5187   22.1842 C   0  0  0  0  0  0  0  0  0  0  0  0
  -28.7026  -33.7175   26.8657 C   0  0  0  0  0  0  0  0  0  0  0  0
  -29.8590  -28.5037   16.4247 C   0  0  0  0  0  0  0  0  0  0  0  0
  -24.2085  -33.4988   22.0050 C   0  0  0  0  0  0  0  0  0  0  0  0
  -26.0453  -34.7346   23.1744 C   0  0  0  0  0  0  0  0  0  0  0  0
  -23.9541  -34.1552   24.4048 C   0  0  0  0  0  0  0  0  0  0  0  0
  -28.7239  -29.9128   26.8793 C   0  0  0  0  0  0  0  0  0  0  0  0
  -28.6612  -26.2886   16.7834 C   0  0  0  0  0  0  0  0  0  0  0  0
  -28.9307  -27.9356   18.7066 C   0  0  0  0  0  0  0  0  0  1  0  0
  -25.6035  -32.3261   23.8339 C   0  0  1  0  0  0  0  0  0  0  0  0
  -28.1184  -32.3270   26.6702 C   0  0  2  0  0  0  0  0  0  0  0  0
  -29.5376  -27.3773   17.4133 C   0  0  2  0  0  0  0  0  0  0  0  0
  -24.9574  -33.6527   23.3439 C   0  0  0  0  0  0  0  0  0  0  0  0
  -24.1490  -12.8224   22.8122 N   0  0  0  0  0  0  0  0  0  0  0  0
  -29.0206  -21.0988   20.1483 N   0  0  0  0  0  0  0  0  0  0  0  0
  -29.1042  -19.8444   20.6235 N   0  0  0  0  0  0  0  0  0  0  0  0
  -23.7107  -14.0136   22.3707 N   0  0  0  0  0  0  0  0  0  0  0  0
  -24.7919  -30.0721   23.2136 N   0  0  0  0  0  0  0  0  0  0  0  0
  -26.5520  -16.3286   23.5031 N   0  0  0  0  0  0  0  0  0  0  0  0
  -28.3868  -17.7692   23.0071 N   0  0  0  0  0  0  0  0  0  0  0  0
  -22.1052  -15.0296   20.9562 N   0  0  0  0  0  0  0  0  0  0  0  0
  -21.2516  -10.6182   20.5013 N   0  0  0  0  0  0  0  0  0  0  0  0
  -21.5629  -29.0176   22.1222 N   0  0  0  0  0  0  0  0  0  0  0  0
  -26.2964  -32.4357   25.1131 N   0  0  0  0  0  0  0  0  0  0  0  0
  -28.7492  -25.0056   17.5205 N   0  3  0  0  0  0  0  0  0  0  0  0
  -29.1689  -31.3245   27.0057 N   0  3  0  0  0  0  0  0  0  0  0  0
  -20.6221  -12.7162   19.8224 O   0  0  0  0  0  0  0  0  0  0  0  0
  -23.4177  -29.8184   20.9644 O   0  0  0  0  0  0  0  0  0  0  0  0
  -23.6598  -31.3616   24.7922 O   0  0  0  0  0  0  0  0  0  0  0  0
  -28.3687  -31.7389   24.3403 O   0  0  0  0  0  0  0  0  0  0  0  0
  -28.6449  -15.5209   22.9725 O   0  0  0  0  0  0  0  0  0  0  0  0
  -23.9581   -6.4614   23.0372 O   0  0  0  0  0  0  0  0  0  0  0  0
  -28.6212  -26.8630   19.5955 O   0  0  0  0  0  0  0  0  0  1  0  0
  -19.3963   -3.4848   23.8940 F   0  0  0  0  0  0  0  0  0  0  0  0
  -23.6088   -5.0454   25.3857 F   0  0  0  0  0  0  0  0  0  0  0  0
  1  2  1  0  0  0  0
  1  5  2  0  0  0  0
  2  6  2  0  0  0  0
  3  8  2  0  0  0  0
  3 16  1  0  0  0  0
  4  9  1  0  0  0  0
  4 16  2  0  0  0  0
  5 18  1  0  0  0  0
  6 20  1  0  0  0  0
  7 10  2  0  0  0  0
  7 19  1  0  0  0  0
  8 23  1  0  0  0  0
  9 23  2  0  0  0  0
 10 24  1  0  0  0  0
 11 12  2  0  0  0  0
 11 25  1  0  0  0  0
 12 26  1  0  0  0  0
 13 21  1  0  0  0  0
 13 24  2  0  0  0  0
 14 26  2  0  0  0  0
 14 27  1  0  0  0  0
 15 22  2  0  0  0  0
 15 73  1  0  0  0  0
 16 28  1  0  0  0  0
 17 28  1  0  0  0  0
 17 30  2  0  0  0  0
 17 31  1  0  0  0  0
 18 20  2  0  0  0  0
 18 36  1  0  0  0  0
 19 21  2  0  0  0  0
 19 37  1  0  0  0  0
 20 54  1  0  0  0  0
 21 38  1  0  0  0  0
 22 29  1  0  0  0  0
 22 53  1  0  0  0  0
 23 89  1  0  0  0  0
 24 90  1  0  0  0  0
 25 27  2  0  0  0  0
 25 89  1  0  0  0  0
 26 91  1  0  0  0  0
 27 92  1  0  0  0  0
 28 71  2  0  0  0  0
 29 55  1  0  0  0  0
 29 72  2  0  0  0  0
 30 74  1  0  0  0  0
 30 78  1  0  0  0  0
 31 79  1  0  0  0  0
 31 84  2  0  0  0  0
 32 56  1  0  0  0  0
 32 80  1  0  0  0  0
 32 85  2  0  0  0  0
 33 67  1  0  0  0  0
 33 75  1  0  0  0  0
 33 86  2  0  0  0  0
 34 68  1  0  0  0  0
 34 81  1  0  0  0  0
 34 87  2  0  0  0  0
 35 76  1  0  0  0  0
 35 77  1  0  0  0  0
 35 88  2  0  0  0  0
 36 39  1  0  0  0  0
 37 56  1  0  0  0  0
 38 75  1  0  0  0  0
 39 43  1  0  0  0  0
 40 44  1  0  0  0  0
 40 47  1  0  0  0  0
 41 42  1  0  0  0  0
 41 53  1  0  0  0  0
 42 53  1  0  0  0  0
 43 54  1  0  0  0  0
 44 57  1  0  0  0  0
 45 51  1  0  0  0  0
 45 55  1  0  0  0  0
 46 52  1  0  0  0  0
 46 55  1  0  0  0  0
 47 76  1  0  0  0  0
 48 57  1  0  0  0  0
 48 76  1  0  0  0  0
 49 58  1  0  0  0  0
 49 77  1  0  0  0  0
 50 58  1  0  0  0  0
 50 77  1  0  0  0  0
 51 82  1  0  0  0  0
 52 82  1  0  0  0  0
 54 80  1  0  0  0  0
 56 75  1  0  0  0  0
 57 74  1  0  0  0  0
 58 73  1  0  0  0  0
 59 68  1  0  0  0  0
 60 69  1  0  0  0  0
 61 70  1  0  0  0  0
 62 70  1  0  0  0  0
 63 70  1  0  0  0  0
 64 83  1  0  0  0  0
 65 69  1  0  0  0  0
 65 82  1  0  0  0  0
 66 69  1  0  0  0  0
 66 90  1  0  0  0  0
 67 70  1  0  0  0  0
 67 81  1  0  0  0  0
 68 83  1  0  0  0  0
 71 74  1  0  0  0  0
 72 73  1  0  0  0  0
M  CHG  2  82   1  83   1
M  ISO  4  35 100  66 101  77 100  90 101
M  END
> <Batch ID>
0197

> <Smiles>
CNC(C)C(=O)NC(C(=O)N1Cc2cc([101O:1][101CH2:1]C(C)CN3CCC(c4nn(C5C[100N:0]([100C:0](=O)N6CCCC(n7nc(-c8ccc(Oc9ccc(F)cc9F)cc8)c(C(N)=O)c7N)C6)C5)cc4C4CC4)CC3)ccc2CC1C(=O)NC1CCCc2ccccc21)C(C)(C)C

> <Shape>
0.297

> <Color>
0.078

> <Negative vol penalty>
0.000

$$$$

  -OEChem-04052323453D

 86 95  0     1  0  0  0  0  0999 V2000
  -29.7242  -18.6600   21.1182 C   0  0  0  0  0  0  0  0  0  0  0  0
  -28.6285  -19.3673   20.6339 C   0  0  0  0  0  0  0  0  0  0  0  0
  -25.8569  -16.5628   20.6028 C   0  0  0  0  0  0  0  0  0  0  0  0
  -24.9312  -15.5375   22.5850 C   0  0  0  0  0  0  0  0  0  0  0  0
  -30.5538  -19.2349   22.0800 C   0  0  0  0  0  0  0  0  0  0  0  0
  -28.3611  -20.6496   21.1120 C   0  0  0  0  0  0  0  0  0  0  0  0
  -25.6777  -26.9476   19.0024 C   0  0  0  0  0  0  0  0  0  0  0  0
  -26.9887  -15.7552   20.7137 C   0  0  0  0  0  0  0  0  0  0  0  0
  -26.0630  -14.7299   22.6958 C   0  0  0  0  0  0  0  0  0  0  0  0
  -24.7216  -27.8907   19.3768 C   0  0  0  0  0  0  0  0  0  0  0  0
  -29.9609  -13.7099   20.2683 C   0  0  0  0  0  0  0  0  0  0  0  0
  -30.4372  -13.0983   19.1088 C   0  0  0  0  0  0  0  0  0  0  0  0
  -26.2692  -28.8140   20.9804 C   0  0  0  0  0  0  0  0  0  0  0  0
  -28.3274  -11.9505   18.8474 C   0  0  0  0  0  0  0  0  0  0  0  0
  -24.8281  -16.4540   21.5385 C   0  0  0  0  0  0  0  0  0  0  0  0
  -22.4736  -16.9998   20.7222 C   0  0  0  0  0  0  0  0  0  0  0  0
  -30.3020  -20.5287   22.5631 C   0  0  0  0  0  0  0  0  0  0  0  0
  -26.9350  -26.9236   19.6229 C   0  0  0  0  0  0  0  0  0  0  0  0
  -29.1873  -21.2418   22.0822 C   0  0  0  0  0  0  0  0  0  0  0  0
  -27.2404  -27.8712   20.6103 C   0  0  0  0  0  0  0  0  0  0  0  0
  -27.0918  -14.8387   21.7601 C   0  0  0  0  0  0  0  0  0  0  0  0
  -25.0162  -28.8223   20.3680 C   0  0  0  0  0  0  0  0  0  0  0  0
  -28.6678  -13.4417   20.7175 C   0  0  0  0  0  0  0  0  0  0  0  0
  -29.6205  -12.2186   18.3983 C   0  0  0  0  0  0  0  0  0  0  0  0
  -27.8511  -12.5621   20.0070 C   0  0  0  0  0  0  0  0  0  0  0  0
  -23.6589  -17.2884   21.4248 C   0  0  0  0  0  0  0  0  0  0  0  0
  -18.8879  -28.1279   21.5838 C   0  0  0  0  0  0  0  0  0  0  0  0
  -19.4808  -28.6591   22.7378 C   0  0  0  0  0  0  0  0  0  0  0  0
  -21.6789  -18.1020   20.9222 C   0  0  0  0  0  0  0  0  0  0  0  0
  -22.1224  -15.8391   19.9573 C   0  0  0  0  0  0  0  0  0  0  0  0
  -28.5280  -24.8096   21.3826 C   0  0  0  0  0  0  0  0  0  0  0  0
  -30.9248  -26.9793   21.1183 C   0  0  0  0  0  0  0  0  0  0  0  0
  -31.8537  -30.2195   20.5842 C   0  0  0  0  0  0  0  0  0  0  0  0
  -19.5491  -21.7953   24.4500 C   0  0  0  0  0  0  0  0  0  0  0  0
  -31.1996  -21.0899   23.6374 C   0  0  0  0  0  0  0  0  0  0  0  0
  -27.9647  -25.9169   19.1889 C   0  0  0  0  0  0  0  0  0  0  0  0
  -28.5826  -27.9007   21.2930 C   0  0  0  0  0  0  0  0  0  0  0  0
  -31.0632  -22.5995   23.8178 C   0  0  0  0  0  0  0  0  0  0  0  0
  -22.7596  -22.6329   22.8893 C   0  0  0  0  0  0  0  0  0  0  0  0
  -29.5923  -23.0005   23.8679 C   0  0  0  0  0  0  0  0  0  0  0  0
  -23.1872  -21.2768   22.3258 C   0  0  0  0  0  0  0  0  0  0  0  0
  -21.9993  -22.4640   24.1992 C   0  0  0  0  0  0  0  0  0  0  0  0
  -17.7689  -23.5879   24.8171 C   0  0  0  0  0  0  0  0  0  0  0  0
  -19.4768  -24.3269   23.7866 C   0  0  0  0  0  0  0  0  0  0  0  0
  -21.2247  -20.2201   23.5467 C   0  0  0  0  0  0  0  0  0  0  0  0
  -28.8786  -22.6448   22.5581 C   0  0  1  0  0  0  0  0  0  0  0  0
  -29.0309  -25.6577   20.2489 C   0  0  1  0  0  0  0  0  0  0  0  0
  -17.9714  -24.6468   23.7196 C   0  0  0  0  0  0  0  0  0  0  0  0
  -21.9887  -20.3166   22.2132 C   0  0  2  0  0  0  0  0  0  0  0  0
  -19.0317  -28.5489   20.1833 C   0  0  0  0  0  0  0  0  0  0  0  0
  -33.8811  -31.6935   20.4656 C   0  0  0  0  0  0  0  0  0  0  0  0
  -16.0415  -26.2582   24.0100 C   0  0  0  0  0  0  0  0  0  0  0  0
  -31.1329  -26.9339   24.1621 C   0  0  0  0  0  0  0  0  0  0  0  0
  -32.4546  -29.0564   24.0338 C   0  0  0  0  0  0  0  0  0  0  0  0
  -33.3292  -26.9781   22.9668 C   0  0  0  0  0  0  0  0  0  0  0  0
  -31.3037  -30.9462   17.7685 C   0  0  0  0  0  0  0  0  0  0  0  0
  -20.4140  -29.7866   22.8727 C   0  0  0  0  0  0  0  0  0  0  0  0
  -22.7361  -30.6367   22.5201 C   0  0  0  0  0  0  0  0  0  0  0  0
  -24.1222  -30.2042   22.0847 C   0  0  0  0  0  0  0  0  0  1  0  0
  -31.3708  -28.1819   21.9144 C   0  0  1  0  0  0  0  0  0  0  0  0
  -32.9088  -30.8287   19.6786 C   0  0  2  0  0  0  0  0  0  0  0  0
  -17.5634  -26.0646   24.0656 C   0  0  2  0  0  0  0  0  0  0  0  0
  -32.0458  -27.7860   23.2580 C   0  0  0  0  0  0  0  0  0  0  0  0
  -23.6246  -18.4805   22.0261 N   0  0  0  0  0  0  0  0  0  0  0  0
  -18.1009  -27.0993   21.9112 N   0  0  0  0  0  0  0  0  0  0  0  0
  -19.0759  -27.9745   23.8112 N   0  0  0  0  0  0  0  0  0  0  0  0
  -22.4082  -18.9509   21.7018 N   0  0  0  0  0  0  0  0  0  0  0  0
  -18.2630  -27.0689   23.2439 N   0  0  0  0  0  0  0  0  0  0  0  0
  -29.5537  -26.8920   20.8382 N   0  0  0  0  0  0  0  0  0  0  0  0
  -20.8603  -21.5562   24.0296 N   0  0  0  0  0  0  0  0  0  0  0  0
  -19.0947  -23.0930   24.4566 N   0  0  0  0  0  0  0  0  0  0  0  0
  -20.4345  -18.4182   20.5055 N   0  0  0  0  0  0  0  0  0  0  0  0
  -23.0561  -14.7990   19.8545 N   0  0  0  0  0  0  0  0  0  0  0  0
  -29.1994  -23.6108   21.5293 N   0  0  0  0  0  0  0  0  0  0  0  0
  -32.2219  -28.9665   21.0265 N   0  0  0  0  0  0  0  0  0  0  0  0
  -32.2677  -31.6748   18.6326 N   0  3  0  0  0  0  0  0  0  0  0  0
  -21.8131  -29.4795   22.4352 N   0  3  0  0  0  0  0  0  0  0  0  0
  -21.0197  -15.7347   19.3684 O   0  0  0  0  0  0  0  0  0  0  0  0
  -27.6005  -25.2136   22.0742 O   0  0  0  0  0  0  0  0  0  0  0  0
  -31.7630  -26.1517   20.7521 O   0  0  0  0  0  0  0  0  0  0  0  0
  -30.8091  -30.7989   20.8735 O   0  0  0  0  0  0  0  0  0  0  0  0
  -18.7918  -20.8732   24.7809 O   0  0  0  0  0  0  0  0  0  0  0  0
  -28.1960  -14.0503   21.8685 O   0  0  0  0  0  0  0  0  0  0  0  0
  -24.0779  -29.7502   20.7384 O   0  0  0  0  0  0  0  0  0  1  0  0
  -30.0776  -11.6326   17.2839 F   0  0  0  0  0  0  0  0  0  0  0  0
  -26.6075  -12.3015   20.4330 F   0  0  0  0  0  0  0  0  0  0  0  0
  1  2  1  0  0  0  0
  1  5  2  0  0  0  0
  2  6  2  0  0  0  0
  3  8  2  0  0  0  0
  3 15  1  0  0  0  0
  4  9  1  0  0  0  0
  4 15  2  0  0  0  0
  5 17  1  0  0  0  0
  6 19  1  0  0  0  0
  7 10  2  0  0  0  0
  7 18  1  0  0  0  0
  8 21  1  0  0  0  0
  9 21  2  0  0  0  0
 10 22  1  0  0  0  0
 11 12  2  0  0  0  0
 11 23  1  0  0  0  0
 12 24  1  0  0  0  0
 13 20  1  0  0  0  0
 13 22  2  0  0  0  0
 14 24  2  0  0  0  0
 14 25  1  0  0  0  0
 15 26  1  0  0  0  0
 16 26  1  0  0  0  0
 16 29  2  0  0  0  0
 16 30  1  0  0  0  0
 17 19  2  0  0  0  0
 17 35  1  0  0  0  0
 18 20  2  0  0  0  0
 18 36  1  0  0  0  0
 19 46  1  0  0  0  0
 20 37  1  0  0  0  0
 21 83  1  0  0  0  0
 22 84  1  0  0  0  0
 23 25  2  0  0  0  0
 23 83  1  0  0  0  0
 24 85  1  0  0  0  0
 25 86  1  0  0  0  0
 26 64  2  0  0  0  0
 27 28  1  0  0  0  0
 27 50  1  0  0  0  0
 27 65  2  0  0  0  0
 28 57  1  0  0  0  0
 28 66  2  0  0  0  0
 29 67  1  0  0  0  0
 29 72  1  0  0  0  0
 30 73  1  0  0  0  0
 30 78  2  0  0  0  0
 31 47  1  0  0  0  0
 31 74  1  0  0  0  0
 31 79  2  0  0  0  0
 32 60  1  0  0  0  0
 32 69  1  0  0  0  0
 32 80  2  0  0  0  0
 33 61  1  0  0  0  0
 33 75  1  0  0  0  0
 33 81  2  0  0  0  0
 34 70  1  0  0  0  0
 34 71  1  0  0  0  0
 34 82  2  0  0  0  0
 35 38  1  0  0  0  0
 36 47  1  0  0  0  0
 37 69  1  0  0  0  0
 38 40  1  0  0  0  0
 39 41  1  0  0  0  0
 39 42  1  0  0  0  0
 40 46  1  0  0  0  0
 41 49  1  0  0  0  0
 42 70  1  0  0  0  0
 43 48  1  0  0  0  0
 43 71  1  0  0  0  0
 44 48  1  0  0  0  0
 44 71  1  0  0  0  0
 45 49  1  0  0  0  0
 45 70  1  0  0  0  0
 46 74  1  0  0  0  0
 47 69  1  0  0  0  0
 48 62  1  0  0  0  0
 49 67  1  0  0  0  0
 51 61  1  0  0  0  0
 52 62  1  0  0  0  0
 53 63  1  0  0  0  0
 54 63  1  0  0  0  0
 55 63  1  0  0  0  0
 56 76  1  0  0  0  0
 57 77  1  0  0  0  0
 58 59  1  0  0  0  0
 58 77  1  0  0  0  0
 59 84  1  0  0  0  0
 60 63  1  0  0  0  0
 60 75  1  0  0  0  0
 61 76  1  0  0  0  0
 62 68  1  0  0  0  0
 64 67  1  0  0  0  0
 65 68  1  0  0  0  0
 66 68  1  0  0  0  0
M  CHG  2  76   1  77   1
M  ISO  4  34 100  59 101  71 100  84 101
M  END
> <Batch ID>
0197

> <Smiles>
CNC(C)C(=O)NC(C(=O)N1Cc2cc([101O:1][101CH2:1]CNCc3nn(C(C)C4C[100N:0]([100C:0](=O)N5CCCC(n6nc(-c7ccc(Oc8ccc(F)cc8F)cc7)c(C(N)=O)c6N)C5)C4)nc3C)ccc2CC1C(=O)NC1CCCc2ccccc21)C(C)(C)C

> <Shape>
0.220

> <Color>
0.063

> <Negative vol penalty>
0.000

$$$$

  -OEChem-04052323453D

 84 93  0     1  0  0  0  0  0999 V2000
  -27.4820  -33.3761   26.4655 C   0  0  0  0  0  0  0  0  0  0  0  0
  -27.7465  -32.2307   25.7216 C   0  0  0  0  0  0  0  0  0  0  0  0
  -27.0786  -11.4697   21.1475 C   0  0  0  0  0  0  0  0  0  0  0  0
  -26.1123  -11.3917   23.3604 C   0  0  0  0  0  0  0  0  0  0  0  0
  -26.1718  -33.6802   26.8329 C   0  0  0  0  0  0  0  0  0  0  0  0
  -26.7010  -31.3880   25.3456 C   0  0  0  0  0  0  0  0  0  0  0  0
  -27.0255  -29.9298   20.5069 C   0  0  0  0  0  0  0  0  0  0  0  0
  -27.9292  -10.4160   21.4817 C   0  0  0  0  0  0  0  0  0  0  0  0
  -26.9628  -10.3379   23.6947 C   0  0  0  0  0  0  0  0  0  0  0  0
  -27.9382  -28.9198   20.2061 C   0  0  0  0  0  0  0  0  0  0  0  0
  -27.1248   -7.0048   23.1613 C   0  0  0  0  0  0  0  0  0  0  0  0
  -26.5713   -5.9158   23.8346 C   0  0  0  0  0  0  0  0  0  0  0  0
  -26.1412  -27.3105   20.1850 C   0  0  0  0  0  0  0  0  0  0  0  0
  -28.0739   -6.2978   25.6876 C   0  0  0  0  0  0  0  0  0  0  0  0
  -27.5230  -24.1354   16.2492 C   0  0  0  0  0  0  0  0  0  0  0  0
  -26.1702  -11.9577   22.0868 C   0  0  0  0  0  0  0  0  0  0  0  0
  -24.0054  -12.9551   21.1777 C   0  0  0  0  0  0  0  0  0  0  0  0
  -25.1087  -32.8460   26.4530 C   0  0  0  0  0  0  0  0  0  0  0  0
  -25.6630  -29.6355   20.6600 C   0  0  0  0  0  0  0  0  0  0  0  0
  -25.3756  -31.6805   25.7094 C   0  0  0  0  0  0  0  0  0  0  0  0
  -25.2128  -28.3191   20.4852 C   0  0  0  0  0  0  0  0  0  0  0  0
  -27.8712   -9.8500   22.7553 C   0  0  0  0  0  0  0  0  0  0  0  0
  -27.4965  -27.6094   20.0479 C   0  0  0  0  0  0  0  0  0  0  0  0
  -28.1529   -7.7402   23.7511 C   0  0  0  0  0  0  0  0  0  0  0  0
  -27.0458   -5.5623   25.0978 C   0  0  0  0  0  0  0  0  0  0  0  0
  -28.6274   -7.3867   25.0142 C   0  0  0  0  0  0  0  0  0  0  0  0
  -25.2917  -13.0466   21.7424 C   0  0  0  0  0  0  0  0  0  0  0  0
  -27.9238  -25.2611   15.5050 C   0  0  0  0  0  0  0  0  0  0  0  0
  -28.2856  -24.1890   17.3903 C   0  0  0  0  0  0  0  0  0  0  0  0
  -23.5950  -14.2591   21.0453 C   0  0  0  0  0  0  0  0  0  0  0  0
  -23.2492  -11.7951   20.8060 C   0  0  0  0  0  0  0  0  0  0  0  0
  -23.5723  -29.8662   23.0431 C   0  0  0  0  0  0  0  0  0  0  0  0
  -21.4543  -28.9748   20.7535 C   0  0  0  0  0  0  0  0  0  0  0  0
  -20.8994  -27.4136   17.7700 C   0  0  0  0  0  0  0  0  0  0  0  0
  -27.1480  -19.1754   20.6446 C   0  0  0  0  0  0  0  0  0  0  0  0
  -23.7147  -33.1910   26.9139 C   0  0  0  0  0  0  0  0  0  0  0  0
  -24.6874  -30.7409   20.9581 C   0  0  0  0  0  0  0  0  0  0  0  0
  -23.7577  -27.9542   20.6190 C   0  0  0  0  0  0  0  0  0  0  0  0
  -22.6202  -32.4442   26.1559 C   0  0  0  0  0  0  0  0  0  0  0  0
  -24.6950  -18.3489   23.3990 C   0  0  0  0  0  0  0  0  0  0  0  0
  -22.9637  -30.9622   26.0449 C   0  0  0  0  0  0  0  0  0  0  0  0
  -24.0439  -17.0604   22.9005 C   0  0  0  0  0  0  0  0  0  0  0  0
  -26.1673  -22.5048   19.2205 C   0  0  0  0  0  0  0  0  0  0  0  0
  -25.1758  -19.2376   22.2562 C   0  0  0  0  0  0  0  0  0  0  0  0
  -25.7334  -21.1920   19.8687 C   0  0  0  0  0  0  0  0  0  0  0  0
  -26.0980  -17.0845   21.3993 C   0  0  0  0  0  0  0  0  0  0  0  0
  -28.1252  -21.2670   19.7492 C   0  0  0  0  0  0  0  0  0  0  0  0
  -24.2655  -30.7548   25.2614 C   0  0  1  0  0  0  0  0  0  0  0  0
  -23.3961  -30.2415   21.5989 C   0  0  1  0  0  0  0  0  0  0  0  0
  -24.6774  -16.5371   21.5990 C   0  0  1  0  0  0  0  0  0  0  0  0
  -27.5527  -22.1839   18.6815 C   0  0  2  0  0  0  0  0  0  0  0  0
  -27.4243  -25.6897   14.1877 C   0  0  0  0  0  0  0  0  0  0  0  0
  -19.0588  -26.8125   16.1736 C   0  0  0  0  0  0  0  0  0  0  0  0
  -20.5700  -26.7305   22.6219 C   0  0  0  0  0  0  0  0  0  0  0  0
  -19.4636  -25.6307   20.6637 C   0  0  0  0  0  0  0  0  0  0  0  0
  -18.7043  -27.8833   21.4199 C   0  0  0  0  0  0  0  0  0  0  0  0
  -22.1134  -29.0045   15.5896 C   0  0  0  0  0  0  0  0  0  0  0  0
  -30.0476  -25.7904   18.2067 C   0  0  0  0  0  0  0  0  0  0  0  0
  -29.5403  -26.9880   19.0026 C   0  0  0  0  0  0  0  0  0  1  0  0
  -20.9282  -27.6569   20.2387 C   0  0  1  0  0  0  0  0  0  0  0  0
  -20.1186  -27.8399   16.5400 C   0  0  2  0  0  0  0  0  0  0  0  0
  -19.9443  -26.9815   21.2354 C   0  0  0  0  0  0  0  0  0  0  0  0
  -25.6733  -14.3089   21.9541 N   0  0  0  0  0  0  0  0  0  0  0  0
  -28.8675  -25.9776   16.1215 N   0  0  0  0  0  0  0  0  0  0  0  0
  -24.6206  -15.0227   21.5200 N   0  0  0  0  0  0  0  0  0  0  0  0
  -29.0661  -25.3005   17.2652 N   0  0  0  0  0  0  0  0  0  0  0  0
  -22.8436  -29.0690   20.9174 N   0  0  0  0  0  0  0  0  0  0  0  0
  -26.1147  -18.5533   21.3596 N   0  0  0  0  0  0  0  0  0  0  0  0
  -26.9745  -20.4886   20.2079 N   0  0  0  0  0  0  0  0  0  0  0  0
  -22.4605  -14.8157   20.5703 N   0  0  0  0  0  0  0  0  0  0  0  0
  -23.8203  -10.5315   21.0101 N   0  0  0  0  0  0  0  0  0  0  0  0
  -28.3552  -23.3652   18.5056 N   0  0  0  0  0  0  0  0  0  0  0  0
  -24.0287  -30.8980   23.8409 N   0  0  0  0  0  0  0  0  0  0  0  0
  -20.3541  -27.9313   18.9259 N   0  0  0  0  0  0  0  0  0  0  0  0
  -21.0349  -28.0053   15.3764 N   0  3  0  0  0  0  0  0  0  0  0  0
  -22.1076  -11.8771   20.2926 O   0  0  0  0  0  0  0  0  0  0  0  0
  -23.3118  -28.7254   23.4071 O   0  0  0  0  0  0  0  0  0  0  0  0
  -20.6625  -29.8895   20.9944 O   0  0  0  0  0  0  0  0  0  0  0  0
  -21.8914  -26.6904   17.7117 O   0  0  0  0  0  0  0  0  0  0  0  0
  -28.1870  -18.5539   20.3762 O   0  0  0  0  0  0  0  0  0  0  0  0
  -28.7009   -8.8216   23.0817 O   0  0  0  0  0  0  0  0  0  0  0  0
  -28.3916  -26.6146   19.7529 O   0  0  0  0  0  0  0  0  0  1  0  0
  -26.5131   -4.5175   25.7449 F   0  0  0  0  0  0  0  0  0  0  0  0
  -29.6141   -8.0902   25.5864 F   0  0  0  0  0  0  0  0  0  0  0  0
  1  2  1  0  0  0  0
  1  5  2  0  0  0  0
  2  6  2  0  0  0  0
  3  8  2  0  0  0  0
  3 16  1  0  0  0  0
  4  9  1  0  0  0  0
  4 16  2  0  0  0  0
  5 18  1  0  0  0  0
  6 20  1  0  0  0  0
  7 10  2  0  0  0  0
  7 19  1  0  0  0  0
  8 22  1  0  0  0  0
  9 22  2  0  0  0  0
 10 23  1  0  0  0  0
 11 12  2  0  0  0  0
 11 24  1  0  0  0  0
 12 25  1  0  0  0  0
 13 21  1  0  0  0  0
 13 23  2  0  0  0  0
 14 25  2  0  0  0  0
 14 26  1  0  0  0  0
 15 28  1  0  0  0  0
 15 29  2  0  0  0  0
 16 27  1  0  0  0  0
 17 27  1  0  0  0  0
 17 30  2  0  0  0  0
 17 31  1  0  0  0  0
 18 20  2  0  0  0  0
 18 36  1  0  0  0  0
 19 21  2  0  0  0  0
 19 37  1  0  0  0  0
 20 48  1  0  0  0  0
 21 38  1  0  0  0  0
 22 81  1  0  0  0  0
 23 82  1  0  0  0  0
 24 26  2  0  0  0  0
 24 81  1  0  0  0  0
 25 83  1  0  0  0  0
 26 84  1  0  0  0  0
 27 63  2  0  0  0  0
 28 52  1  0  0  0  0
 28 64  2  0  0  0  0
 29 66  1  0  0  0  0
 29 72  1  0  0  0  0
 30 65  1  0  0  0  0
 30 70  1  0  0  0  0
 31 71  1  0  0  0  0
 31 76  2  0  0  0  0
 32 49  1  0  0  0  0
 32 73  1  0  0  0  0
 32 77  2  0  0  0  0
 33 60  1  0  0  0  0
 33 67  1  0  0  0  0
 33 78  2  0  0  0  0
 34 61  1  0  0  0  0
 34 74  1  0  0  0  0
 34 79  2  0  0  0  0
 35 68  1  0  0  0  0
 35 69  1  0  0  0  0
 35 80  2  0  0  0  0
 36 39  1  0  0  0  0
 37 49  1  0  0  0  0
 38 67  1  0  0  0  0
 39 41  1  0  0  0  0
 40 42  1  0  0  0  0
 40 44  1  0  0  0  0
 41 48  1  0  0  0  0
 42 50  1  0  0  0  0
 43 45  1  0  0  0  0
 43 51  1  0  0  0  0
 44 68  1  0  0  0  0
 45 69  1  0  0  0  0
 46 50  1  0  0  0  0
 46 68  1  0  0  0  0
 47 51  1  0  0  0  0
 47 69  1  0  0  0  0
 48 73  1  0  0  0  0
 49 67  1  0  0  0  0
 50 65  1  0  0  0  0
 51 72  1  0  0  0  0
 53 61  1  0  0  0  0
 54 62  1  0  0  0  0
 55 62  1  0  0  0  0
 56 62  1  0  0  0  0
 57 75  1  0  0  0  0
 58 59  1  0  0  0  0
 58 66  1  0  0  0  0
 59 82  1  0  0  0  0
 60 62  1  0  0  0  0
 60 74  1  0  0  0  0
 61 75  1  0  0  0  0
 63 65  1  0  0  0  0
 64 66  1  0  0  0  0
M  CHG  1  75   1
M  ISO  4  35 100  59 101  69 100  82 101
M  END
> <Batch ID>
0197

> <Smiles>
CNC(C)C(=O)NC(C(=O)N1Cc2cc([101O:1][101CH2:1]Cn3nc(C)cc3NC3CC[100N:0]([100C:0](=O)N4CCCC(n5nc(-c6ccc(Oc7ccc(F)cc7F)cc6)c(C(N)=O)c5N)C4)C3)ccc2CC1C(=O)NC1CCCc2ccccc21)C(C)(C)C

> <Shape>
0.231

> <Color>
0.077

> <Negative vol penalty>
0.000

$$$$

  -OEChem-04052323453D

 85 94  0     1  0  0  0  0  0999 V2000
  -42.0434  -21.9425   27.9161 C   0  0  0  0  0  0  0  0  0  0  0  0
  -40.9177  -22.0714   27.1088 C   0  0  0  0  0  0  0  0  0  0  0  0
  -23.0868   -9.8377   19.9479 C   0  0  0  0  0  0  0  0  0  0  0  0
  -23.7019   -9.9485   22.2817 C   0  0  0  0  0  0  0  0  0  0  0  0
  -43.2308  -21.4457   27.3804 C   0  0  0  0  0  0  0  0  0  0  0  0
  -40.9792  -21.7044   25.7649 C   0  0  0  0  0  0  0  0  0  0  0  0
  -36.9581  -18.9942   24.3052 C   0  0  0  0  0  0  0  0  0  0  0  0
  -22.3373   -8.6887   20.1999 C   0  0  0  0  0  0  0  0  0  0  0  0
  -22.9523   -8.7995   22.5338 C   0  0  0  0  0  0  0  0  0  0  0  0
  -35.7776  -19.6917   24.0533 C   0  0  0  0  0  0  0  0  0  0  0  0
  -23.3019   -5.4601   22.1372 C   0  0  0  0  0  0  0  0  0  0  0  0
  -30.7654  -19.2373   19.4009 C   0  0  0  0  0  0  0  0  0  0  0  0
  -23.8789   -4.4720   22.9349 C   0  0  0  0  0  0  0  0  0  0  0  0
  -31.3091  -17.9636   19.5242 C   0  0  0  0  0  0  0  0  0  0  0  0
  -36.2351  -19.5992   21.6866 C   0  0  0  0  0  0  0  0  0  0  0  0
  -22.0730   -4.7000   24.5236 C   0  0  0  0  0  0  0  0  0  0  0  0
  -23.7692  -10.4676   20.9888 C   0  0  0  0  0  0  0  0  0  0  0  0
  -24.0993  -12.9888   20.7830 C   0  0  0  0  0  0  0  0  0  0  0  0
  -43.3042  -21.0634   26.0316 C   0  0  0  0  0  0  0  0  0  0  0  0
  -37.7929  -18.6028   23.2486 C   0  0  0  0  0  0  0  0  0  0  0  0
  -42.1691  -21.2032   25.2103 C   0  0  0  0  0  0  0  0  0  0  0  0
  -37.4244  -18.8945   21.9276 C   0  0  0  0  0  0  0  0  0  0  0  0
  -22.2700   -8.1696   21.4929 C   0  0  0  0  0  0  0  0  0  0  0  0
  -35.4173  -19.9968   22.7440 C   0  0  0  0  0  0  0  0  0  0  0  0
  -22.1105   -6.0683   22.5327 C   0  0  0  0  0  0  0  0  0  0  0  0
  -30.9311  -20.1602   20.4276 C   0  0  0  0  0  0  0  0  0  0  0  0
  -23.2644   -4.0920   24.1281 C   0  0  0  0  0  0  0  0  0  0  0  0
  -21.4960   -5.6882   23.7258 C   0  0  0  0  0  0  0  0  0  0  0  0
  -24.5441  -11.6542   20.7289 C   0  0  0  0  0  0  0  0  0  0  0  0
  -32.0044  -17.6647   20.6849 C   0  0  0  0  0  0  0  0  0  0  0  0
  -31.6431  -19.7630   21.5479 C   0  0  0  0  0  0  0  0  0  0  0  0
  -25.2064  -13.7332   20.4568 C   0  0  0  0  0  0  0  0  0  0  0  0
  -22.8013  -13.5090   21.0999 C   0  0  0  0  0  0  0  0  0  0  0  0
  -40.7832  -19.2569   22.3918 C   0  0  0  0  0  0  0  0  0  0  0  0
  -40.2192  -16.9945   20.1367 C   0  0  0  0  0  0  0  0  0  0  0  0
  -37.9437  -15.2844   18.2541 C   0  0  0  0  0  0  0  0  0  0  0  0
  -30.5467  -14.8094   21.1057 C   0  0  0  0  0  0  0  0  0  0  0  0
  -44.6230  -20.5760   25.4859 C   0  0  0  0  0  0  0  0  0  0  0  0
  -39.0496  -17.8276   23.5354 C   0  0  0  0  0  0  0  0  0  0  0  0
  -38.2757  -18.4790   20.7566 C   0  0  0  0  0  0  0  0  0  0  0  0
  -44.4992  -19.8580   24.1445 C   0  0  0  0  0  0  0  0  0  0  0  0
  -29.6954  -12.3194   18.5984 C   0  0  0  0  0  0  0  0  0  0  0  0
  -43.6099  -20.6529   23.1936 C   0  0  0  0  0  0  0  0  0  0  0  0
  -28.2298  -12.0383   18.9368 C   0  0  0  0  0  0  0  0  0  0  0  0
  -33.5975  -15.6773   19.8593 C   0  0  0  0  0  0  0  0  0  0  0  0
  -30.5079  -12.5634   19.8647 C   0  0  0  0  0  0  0  0  0  0  0  0
  -32.8969  -14.3303   20.0282 C   0  0  0  0  0  0  0  0  0  0  0  0
  -28.5359  -13.3787   21.0754 C   0  0  0  0  0  0  0  0  0  0  0  0
  -42.1893  -20.7926   23.7539 C   0  0  1  0  0  0  0  0  0  0  0  0
  -32.6727  -16.2510   20.9509 C   0  0  2  0  0  0  0  0  0  0  0  0
  -40.0821  -17.9282   22.4168 C   0  0  1  0  0  0  0  0  0  0  0  0
  -27.6425  -13.1364   19.8437 C   0  0  2  0  0  0  0  0  0  0  0  0
  -30.6900  -20.6729   23.6916 C   0  0  0  0  0  0  0  0  0  0  0  0
  -37.0744  -13.5681   16.6427 C   0  0  0  0  0  0  0  0  0  0  0  0
  -41.1090  -19.0332   18.0482 C   0  0  0  0  0  0  0  0  0  0  0  0
  -40.0491  -17.5951   16.2941 C   0  0  0  0  0  0  0  0  0  0  0  0
  -41.9409  -16.7075   17.6564 C   0  0  0  0  0  0  0  0  0  0  0  0
  -37.5873  -13.2795   20.4017 C   0  0  0  0  0  0  0  0  0  0  0  0
  -29.6884  -21.7087   19.1186 C   0  0  0  0  0  0  0  0  0  0  0  0
  -33.1906  -20.4938   23.4151 C   0  0  0  0  0  0  0  0  0  1  0  0
  -31.8544  -20.7338   22.6991 C   0  0  1  0  0  0  0  0  0  0  0  0
  -39.6708  -17.0004   18.7302 C   0  0  1  0  0  0  0  0  0  0  0  0
  -37.7842  -13.8022   17.9672 C   0  0  2  0  0  0  0  0  0  0  0  0
  -40.6772  -17.5937   17.7042 C   0  0  0  0  0  0  0  0  0  0  0  0
  -25.8333  -11.5536   20.3945 N   0  0  0  0  0  0  0  0  0  0  0  0
  -32.1860  -18.5347   21.7035 N   0  0  0  0  0  0  0  0  0  0  0  0
  -26.2080  -12.8344   20.2354 N   0  0  0  0  0  0  0  0  0  0  0  0
  -39.4980  -17.7286   21.0889 N   0  0  0  0  0  0  0  0  0  0  0  0
  -29.9170  -13.6465   20.6556 N   0  0  0  0  0  0  0  0  0  0  0  0
  -31.8613  -15.0319   20.7644 N   0  0  0  0  0  0  0  0  0  0  0  0
  -25.4112  -15.0625   20.3405 N   0  0  0  0  0  0  0  0  0  0  0  0
  -21.7770  -12.6047   21.4120 N   0  0  0  0  0  0  0  0  0  0  0  0
  -41.4480  -19.5643   23.5636 N   0  0  0  0  0  0  0  0  0  0  0  0
  -39.2653  -15.6284   18.4444 N   0  0  0  0  0  0  0  0  0  0  0  0
  -36.9922  -13.1480   19.0469 N   0  3  0  0  0  0  0  0  0  0  0  0
  -22.5529  -14.7385   21.0901 O   0  0  0  0  0  0  0  0  0  0  0  0
  -40.7266  -19.9511   21.3836 O   0  0  0  0  0  0  0  0  0  0  0  0
  -41.2455  -16.3561   20.3829 O   0  0  0  0  0  0  0  0  0  0  0  0
  -36.9915  -16.0600   18.3006 O   0  0  0  0  0  0  0  0  0  0  0  0
  -29.9303  -15.6534   21.7713 O   0  0  0  0  0  0  0  0  0  0  0  0
  -21.5385   -7.0485   21.7392 O   0  0  0  0  0  0  0  0  0  0  0  0
  -30.4038  -21.4061   20.3174 O   0  0  0  0  0  0  0  0  0  0  0  0
  -34.2659  -20.6782   22.4953 O   0  0  0  0  0  0  0  0  0  1  0  0
  -23.8178   -3.1420   24.8933 F   0  0  0  0  0  0  0  0  0  0  0  0
  -20.3507   -6.2680   24.1104 F   0  0  0  0  0  0  0  0  0  0  0  0
  1  2  1  0  0  0  0
  1  5  2  0  0  0  0
  2  6  2  0  0  0  0
  3  8  2  0  0  0  0
  3 17  1  0  0  0  0
  4  9  1  0  0  0  0
  4 17  2  0  0  0  0
  5 19  1  0  0  0  0
  6 21  1  0  0  0  0
  7 10  2  0  0  0  0
  7 20  1  0  0  0  0
  8 23  1  0  0  0  0
  9 23  2  0  0  0  0
 10 24  1  0  0  0  0
 11 13  2  0  0  0  0
 11 25  1  0  0  0  0
 12 14  2  0  0  0  0
 12 26  1  0  0  0  0
 13 27  1  0  0  0  0
 14 30  1  0  0  0  0
 15 22  1  0  0  0  0
 15 24  2  0  0  0  0
 16 27  2  0  0  0  0
 16 28  1  0  0  0  0
 17 29  1  0  0  0  0
 18 29  1  0  0  0  0
 18 32  2  0  0  0  0
 18 33  1  0  0  0  0
 19 21  2  0  0  0  0
 19 38  1  0  0  0  0
 20 22  2  0  0  0  0
 20 39  1  0  0  0  0
 21 49  1  0  0  0  0
 22 40  1  0  0  0  0
 23 81  1  0  0  0  0
 24 83  1  0  0  0  0
 25 28  2  0  0  0  0
 25 81  1  0  0  0  0
 26 31  2  0  0  0  0
 26 82  1  0  0  0  0
 27 84  1  0  0  0  0
 28 85  1  0  0  0  0
 29 65  2  0  0  0  0
 30 50  1  0  0  0  0
 30 66  2  0  0  0  0
 31 61  1  0  0  0  0
 31 66  1  0  0  0  0
 32 67  1  0  0  0  0
 32 71  1  0  0  0  0
 33 72  1  0  0  0  0
 33 76  2  0  0  0  0
 34 51  1  0  0  0  0
 34 73  1  0  0  0  0
 34 77  2  0  0  0  0
 35 62  1  0  0  0  0
 35 68  1  0  0  0  0
 35 78  2  0  0  0  0
 36 63  1  0  0  0  0
 36 74  1  0  0  0  0
 36 79  2  0  0  0  0
 37 69  1  0  0  0  0
 37 70  1  0  0  0  0
 37 80  2  0  0  0  0
 38 41  1  0  0  0  0
 39 51  1  0  0  0  0
 40 68  1  0  0  0  0
 41 43  1  0  0  0  0
 42 44  1  0  0  0  0
 42 46  1  0  0  0  0
 43 49  1  0  0  0  0
 44 52  1  0  0  0  0
 45 47  1  0  0  0  0
 45 50  1  0  0  0  0
 46 69  1  0  0  0  0
 47 70  1  0  0  0  0
 48 52  1  0  0  0  0
 48 69  1  0  0  0  0
 49 73  1  0  0  0  0
 50 70  1  0  0  0  0
 51 68  1  0  0  0  0
 52 67  1  0  0  0  0
 53 61  1  0  0  0  0
 54 63  1  0  0  0  0
 55 64  1  0  0  0  0
 56 64  1  0  0  0  0
 57 64  1  0  0  0  0
 58 75  1  0  0  0  0
 59 82  1  0  0  0  0
 60 61  1  0  0  0  0
 60 83  1  0  0  0  0
 62 64  1  0  0  0  0
 62 74  1  0  0  0  0
 63 75  1  0  0  0  0
 65 67  1  0  0  0  0
M  CHG  1  75   1
M  ISO  4  37 100  60 101  70 100  83 101
M  END
> <Batch ID>
0197

> <Smiles>
CNC(C)C(=O)NC(C(=O)N1Cc2cc([101O:1][101CH2:1]C(C)c3nc(C4CC[100N:0]4[100C:0](=O)N4CCCC(n5nc(-c6ccc(Oc7ccc(F)cc7F)cc6)c(C(N)=O)c5N)C4)ccc3OC)ccc2CC1C(=O)NC1CCCc2ccccc21)C(C)(C)C

> <Shape>
0.178

> <Color>
0.175

> <Negative vol penalty>
0.000

$$$$

  -OEChem-04052323453D

 88 97  0     1  0  0  0  0  0999 V2000
  -26.6010  -37.1887   22.8043 C   0  0  0  0  0  0  0  0  0  0  0  0
  -27.0784  -36.1378   22.0277 C   0  0  0  0  0  0  0  0  0  0  0  0
  -26.0130  -10.6432   20.7469 C   0  0  0  0  0  0  0  0  0  0  0  0
  -24.9897  -10.6940   22.9349 C   0  0  0  0  0  0  0  0  0  0  0  0
  -26.0872  -36.9370   24.0758 C   0  0  0  0  0  0  0  0  0  0  0  0
  -27.0433  -34.8346   22.5226 C   0  0  0  0  0  0  0  0  0  0  0  0
  -26.0794  -29.7048   19.3192 C   0  0  0  0  0  0  0  0  0  0  0  0
  -25.8722   -9.2559   20.7132 C   0  0  0  0  0  0  0  0  0  0  0  0
  -24.8488   -9.3066   22.9012 C   0  0  0  0  0  0  0  0  0  0  0  0
  -26.9484  -28.7479   18.7968 C   0  0  0  0  0  0  0  0  0  0  0  0
  -23.8919   -5.8153   23.2374 C   0  0  0  0  0  0  0  0  0  0  0  0
  -22.6711   -5.2765   23.6438 C   0  0  0  0  0  0  0  0  0  0  0  0
  -26.6031  -27.3763   20.7509 C   0  0  0  0  0  0  0  0  0  0  0  0
  -21.5458   -6.5079   21.8961 C   0  0  0  0  0  0  0  0  0  0  0  0
  -28.8641  -23.8523   18.0128 C   0  0  0  0  0  0  0  0  0  0  0  0
  -25.5718  -11.3623   21.8578 C   0  0  0  0  0  0  0  0  0  0  0  0
  -24.7933  -13.7553   21.4392 C   0  0  0  0  0  0  0  0  0  0  0  0
  -26.0369  -35.6288   24.5827 C   0  0  0  0  0  0  0  0  0  0  0  0
  -25.4731  -29.5093   20.5684 C   0  0  0  0  0  0  0  0  0  0  0  0
  -26.5296  -34.5653   23.8026 C   0  0  0  0  0  0  0  0  0  0  0  0
  -25.7247  -28.3310   21.2857 C   0  0  0  0  0  0  0  0  0  0  0  0
  -25.2901   -8.5876   21.7903 C   0  0  0  0  0  0  0  0  0  0  0  0
  -27.2127  -27.5847   19.5140 C   0  0  0  0  0  0  0  0  0  0  0  0
  -23.9396   -6.7005   22.1604 C   0  0  0  0  0  0  0  0  0  0  0  0
  -21.4981   -5.6228   22.9731 C   0  0  0  0  0  0  0  0  0  0  0  0
  -22.7666   -7.0467   21.4897 C   0  0  0  0  0  0  0  0  0  0  0  0
  -25.7174  -12.7953   21.8935 C   0  0  0  0  0  0  0  0  0  0  0  0
  -29.2675  -24.5927   19.1053 C   0  0  0  0  0  0  0  0  0  0  0  0
  -29.8355  -23.0585   17.4380 C   0  0  0  0  0  0  0  0  0  0  0  0
  -25.3979  -14.9618   21.6950 C   0  0  0  0  0  0  0  0  0  0  0  0
  -31.3753  -23.7544   18.9586 C   0  0  0  0  0  0  0  0  0  0  0  0
  -23.5037  -13.5727   20.8398 C   0  0  0  0  0  0  0  0  0  0  0  0
  -25.5390  -31.0336   23.3569 C   0  0  0  0  0  0  0  0  0  0  0  0
  -23.2456  -28.8796   24.1460 C   0  0  0  0  0  0  0  0  0  0  0  0
  -21.8160  -25.8323   23.5827 C   0  0  0  0  0  0  0  0  0  0  0  0
  -30.0732  -18.0050   21.2800 C   0  0  0  0  0  0  0  0  0  0  0  0
  -25.5162  -35.4119   25.9814 C   0  0  0  0  0  0  0  0  0  0  0  0
  -24.5173  -30.5388   21.1058 C   0  0  0  0  0  0  0  0  0  0  0  0
  -25.0835  -28.0639   22.6221 C   0  0  0  0  0  0  0  0  0  0  0  0
  -25.1695  -33.9562   26.2833 C   0  0  0  0  0  0  0  0  0  0  0  0
  -29.5181  -16.0806   24.4015 C   0  0  0  0  0  0  0  0  0  0  0  0
  -26.2880  -33.0323   25.8118 C   0  0  0  0  0  0  0  0  0  0  0  0
  -28.4255  -15.1047   23.9621 C   0  0  0  0  0  0  0  0  0  0  0  0
  -31.1523  -20.9276   23.2309 C   0  0  0  0  0  0  0  0  0  0  0  0
  -30.4292  -16.4396   23.2350 C   0  0  0  0  0  0  0  0  0  0  0  0
  -30.7982  -19.4444   23.2742 C   0  0  0  0  0  0  0  0  0  0  0  0
  -28.6250  -16.0327   21.6051 C   0  0  0  0  0  0  0  0  0  0  0  0
  -31.4774  -20.0345   21.0449 C   0  0  0  0  0  0  0  0  0  0  0  0
  -26.4856  -33.1349   24.2946 C   0  0  1  0  0  0  0  0  0  0  0  0
  -24.3558  -30.4708   22.6213 C   0  0  1  0  0  0  0  0  0  0  0  0
  -27.6603  -15.6401   22.7381 C   0  0  1  0  0  0  0  0  0  0  0  0
  -32.1074  -20.9834   22.0480 C   0  0  1  0  0  0  0  0  0  0  0  0
  -19.9818  -24.3335   24.4112 C   0  0  0  0  0  0  0  0  0  0  0  0
  -24.9404  -28.1534   26.5771 C   0  0  0  0  0  0  0  0  0  0  0  0
  -23.5791  -26.0658   26.8155 C   0  0  0  0  0  0  0  0  0  0  0  0
  -22.4839  -28.2973   27.0234 C   0  0  0  0  0  0  0  0  0  0  0  0
  -30.3759  -21.4242   15.6318 C   0  0  0  0  0  0  0  0  0  0  0  0
  -20.4494  -25.8601   20.9577 C   0  0  0  0  0  0  0  0  0  0  0  0
  -32.6436  -23.3640   22.5436 C   0  0  0  0  0  0  0  0  0  0  0  0
  -28.2869  -25.4815   19.7939 C   0  0  0  0  0  0  0  0  0  1  0  0
  -32.7793  -23.6994   19.4875 C   0  0  0  0  0  0  0  0  0  0  0  0
  -33.0913  -22.4328   20.2780 C   0  0  0  0  0  0  0  0  0  0  0  0
  -23.2408  -27.4953   24.7483 C   0  0  1  0  0  0  0  0  0  0  0  0
  -20.3661  -25.4156   23.4142 C   0  0  2  0  0  0  0  0  0  0  0  0
  -23.5748  -27.5086   26.2668 C   0  0  0  0  0  0  0  0  0  0  0  0
  -26.8249  -13.3446   22.3993 N   0  0  0  0  0  0  0  0  0  0  0  0
  -30.5198  -24.5677   19.6067 N   0  0  0  0  0  0  0  0  0  0  0  0
  -31.1059  -22.9851   17.8866 N   0  0  0  0  0  0  0  0  0  0  0  0
  -26.6006  -14.6627   22.2643 N   0  0  0  0  0  0  0  0  0  0  0  0
  -24.1613  -29.1036   23.1082 N   0  0  0  0  0  0  0  0  0  0  0  0
  -29.6579  -16.9472   22.0968 N   0  0  0  0  0  0  0  0  0  0  0  0
  -30.8253  -19.0195   21.8707 N   0  0  0  0  0  0  0  0  0  0  0  0
  -25.0127  -16.2386   21.4860 N   0  0  0  0  0  0  0  0  0  0  0  0
  -23.0342  -12.2659   20.6497 N   0  0  0  0  0  0  0  0  0  0  0  0
  -29.4621  -22.2821   16.3136 N   0  0  0  0  0  0  0  0  0  0  0  0
  -25.4567  -32.3915   23.5995 N   0  0  0  0  0  0  0  0  0  0  0  0
  -21.9414  -26.9149   24.4274 N   0  0  0  0  0  0  0  0  0  0  0  0
  -20.1344  -24.8909   22.0387 N   0  3  0  0  0  0  0  0  0  0  0  0
  -32.2124  -22.3486   21.5073 N   0  3  1  0  0  0  0  0  0  0  0  0
  -22.7959  -14.5395   20.4683 O   0  0  0  0  0  0  0  0  0  0  0  0
  -26.4578  -30.2906   23.6818 O   0  0  0  0  0  0  0  0  0  0  0  0
  -22.4606  -29.7287   24.5756 O   0  0  0  0  0  0  0  0  0  0  0  0
  -22.7449  -25.2529   23.0241 O   0  0  0  0  0  0  0  0  0  0  0  0
  -29.7457  -18.0655   20.0875 O   0  0  0  0  0  0  0  0  0  0  0  0
  -25.1524   -7.2339   21.7577 O   0  0  0  0  0  0  0  0  0  0  0  0
  -28.0669  -26.6429   19.0032 O   0  0  0  0  0  0  0  0  0  1  0  0
  -20.3262   -5.1041   23.3625 F   0  0  0  0  0  0  0  0  0  0  0  0
  -22.8063   -7.8957   20.4536 F   0  0  0  0  0  0  0  0  0  0  0  0
  1  2  1  0  0  0  0
  1  5  2  0  0  0  0
  2  6  2  0  0  0  0
  3  8  2  0  0  0  0
  3 16  1  0  0  0  0
  4  9  1  0  0  0  0
  4 16  2  0  0  0  0
  5 18  1  0  0  0  0
  6 20  1  0  0  0  0
  7 10  2  0  0  0  0
  7 19  1  0  0  0  0
  8 22  1  0  0  0  0
  9 22  2  0  0  0  0
 10 23  1  0  0  0  0
 11 12  2  0  0  0  0
 11 24  1  0  0  0  0
 12 25  1  0  0  0  0
 13 21  1  0  0  0  0
 13 23  2  0  0  0  0
 14 25  2  0  0  0  0
 14 26  1  0  0  0  0
 15 28  2  0  0  0  0
 15 29  1  0  0  0  0
 16 27  1  0  0  0  0
 17 27  1  0  0  0  0
 17 30  2  0  0  0  0
 17 32  1  0  0  0  0
 18 20  2  0  0  0  0
 18 37  1  0  0  0  0
 19 21  2  0  0  0  0
 19 38  1  0  0  0  0
 20 49  1  0  0  0  0
 21 39  1  0  0  0  0
 22 85  1  0  0  0  0
 23 86  1  0  0  0  0
 24 26  2  0  0  0  0
 24 85  1  0  0  0  0
 25 87  1  0  0  0  0
 26 88  1  0  0  0  0
 27 66  2  0  0  0  0
 28 60  1  0  0  0  0
 28 67  1  0  0  0  0
 29 68  2  0  0  0  0
 29 75  1  0  0  0  0
 30 69  1  0  0  0  0
 30 73  1  0  0  0  0
 31 61  1  0  0  0  0
 31 67  2  0  0  0  0
 31 68  1  0  0  0  0
 32 74  1  0  0  0  0
 32 80  2  0  0  0  0
 33 50  1  0  0  0  0
 33 76  1  0  0  0  0
 33 81  2  0  0  0  0
 34 63  1  0  0  0  0
 34 70  1  0  0  0  0
 34 82  2  0  0  0  0
 35 64  1  0  0  0  0
 35 77  1  0  0  0  0
 35 83  2  0  0  0  0
 36 71  1  0  0  0  0
 36 72  1  0  0  0  0
 36 84  2  0  0  0  0
 37 40  1  0  0  0  0
 38 50  1  0  0  0  0
 39 70  1  0  0  0  0
 40 42  1  0  0  0  0
 41 43  1  0  0  0  0
 41 45  1  0  0  0  0
 42 49  1  0  0  0  0
 43 51  1  0  0  0  0
 44 46  1  0  0  0  0
 44 52  1  0  0  0  0
 45 71  1  0  0  0  0
 46 72  1  0  0  0  0
 47 51  1  0  0  0  0
 47 71  1  0  0  0  0
 48 52  1  0  0  0  0
 48 72  1  0  0  0  0
 49 76  1  0  0  0  0
 50 70  1  0  0  0  0
 51 69  1  0  0  0  0
 52 79  1  0  0  0  0
 53 64  1  0  0  0  0
 54 65  1  0  0  0  0
 55 65  1  0  0  0  0
 56 65  1  0  0  0  0
 57 75  1  0  0  0  0
 58 78  1  0  0  0  0
 59 79  1  0  0  0  0
 60 86  1  0  0  0  0
 61 62  1  0  0  0  0
 62 79  1  0  0  0  0
 63 65  1  0  0  0  0
 63 77  1  0  0  0  0
 64 78  1  0  0  0  0
 66 69  1  0  0  0  0
M  CHG  2  78   1  79   1
M  ISO  4  36 100  60 101  72 100  86 101
M  END
> <Batch ID>
0197

> <Smiles>
CNc1cc([101CH2:1][101O:1]c2ccc3c(c2)CN(C(=O)C(NC(=O)C(C)NC)C(C)(C)C)C(C(=O)NC2CCCc4ccccc42)C3)nc(CCN(C)C2CC[100N:0]([100C:0](=O)N3CCCC(n4nc(-c5ccc(Oc6ccc(F)cc6F)cc5)c(C(N)=O)c4N)C3)C2)n1

> <Shape>
0.279

> <Color>
0.068

> <Negative vol penalty>
0.000

$$$$

  -OEChem-04052323453D

 87 96  0     1  0  0  0  0  0999 V2000
  -16.9471  -23.8676   27.8079 C   0  0  0  0  0  0  0  0  0  0  0  0
  -17.7690  -23.2363   26.8798 C   0  0  0  0  0  0  0  0  0  0  0  0
  -28.9352  -21.1026   18.7042 C   0  0  0  0  0  0  0  0  0  0  0  0
  -23.3401  -10.1594   22.2395 C   0  0  0  0  0  0  0  0  0  0  0  0
  -23.5772   -9.5480   19.9142 C   0  0  0  0  0  0  0  0  0  0  0  0
  -16.5146  -23.1760   28.9386 C   0  0  0  0  0  0  0  0  0  0  0  0
  -18.1598  -21.9132   27.0825 C   0  0  0  0  0  0  0  0  0  0  0  0
  -17.7796  -19.1100   22.8822 C   0  0  0  0  0  0  0  0  0  0  0  0
  -22.5961   -9.0020   22.4680 C   0  0  0  0  0  0  0  0  0  0  0  0
  -22.8332   -8.3905   20.1427 C   0  0  0  0  0  0  0  0  0  0  0  0
  -18.7857  -19.2533   21.9278 C   0  0  0  0  0  0  0  0  0  0  0  0
  -19.5773   -7.5510   20.4961 C   0  0  0  0  0  0  0  0  0  0  0  0
  -18.5824   -7.2274   19.5735 C   0  0  0  0  0  0  0  0  0  0  0  0
  -27.5660  -21.3429   18.7319 C   0  0  0  0  0  0  0  0  0  0  0  0
  -29.4711  -20.0765   19.4744 C   0  0  0  0  0  0  0  0  0  0  0  0
  -19.8315  -17.2352   22.7358 C   0  0  0  0  0  0  0  0  0  0  0  0
  -19.6935   -5.1327   19.1100 C   0  0  0  0  0  0  0  0  0  0  0  0
  -23.8306  -10.4325   20.9626 C   0  0  0  0  0  0  0  0  0  0  0  0
  -24.1804  -12.9590   20.9156 C   0  0  0  0  0  0  0  0  0  0  0  0
  -16.8925  -21.8407   29.1504 C   0  0  0  0  0  0  0  0  0  0  0  0
  -17.7978  -18.0323   23.7792 C   0  0  0  0  0  0  0  0  0  0  0  0
  -17.7331  -21.2035   28.2178 C   0  0  0  0  0  0  0  0  0  0  0  0
  -18.8230  -17.0791   23.6990 C   0  0  0  0  0  0  0  0  0  0  0  0
  -22.3426   -8.1175   21.4196 C   0  0  0  0  0  0  0  0  0  0  0  0
  -19.8134  -18.3175   21.8563 C   0  0  0  0  0  0  0  0  0  0  0  0
  -20.6303   -6.6654   20.7255 C   0  0  0  0  0  0  0  0  0  0  0  0
  -18.6404   -6.0183   18.8805 C   0  0  0  0  0  0  0  0  0  0  0  0
  -20.6884   -5.4563   20.0325 C   0  0  0  0  0  0  0  0  0  0  0  0
  -24.5988  -11.6283   20.7258 C   0  0  0  0  0  0  0  0  0  0  0  0
  -26.7820  -20.5352   19.5399 C   0  0  0  0  0  0  0  0  0  0  0  0
  -28.6019  -19.3256   20.2493 C   0  0  0  0  0  0  0  0  0  0  0  0
  -25.2673  -13.7159   20.5520 C   0  0  0  0  0  0  0  0  0  0  0  0
  -22.9218  -13.4656   21.3792 C   0  0  0  0  0  0  0  0  0  0  0  0
  -17.9951  -17.7468   26.9389 C   0  0  0  0  0  0  0  0  0  0  0  0
  -17.4908  -14.6076   26.2962 C   0  0  0  0  0  0  0  0  0  0  0  0
  -17.6864  -12.0413   24.0550 C   0  0  0  0  0  0  0  0  0  0  0  0
  -30.7581  -14.7091   20.6495 C   0  0  0  0  0  0  0  0  0  0  0  0
  -16.4386  -21.1491   30.4115 C   0  0  0  0  0  0  0  0  0  0  0  0
  -16.6906  -17.8772   24.7855 C   0  0  0  0  0  0  0  0  0  0  0  0
  -18.8774  -15.8929   24.6256 C   0  0  0  0  0  0  0  0  0  0  0  0
  -16.5921  -19.6311   30.3627 C   0  0  0  0  0  0  0  0  0  0  0  0
  -29.5575  -12.4062   18.2140 C   0  0  0  0  0  0  0  0  0  0  0  0
  -17.9673  -19.2507   29.8233 C   0  0  0  0  0  0  0  0  0  0  0  0
  -28.1288  -12.1039   18.6695 C   0  0  0  0  0  0  0  0  0  0  0  0
  -24.7553  -21.1017   20.9849 C   0  0  0  0  0  0  0  0  0  0  0  0
  -30.5021  -12.5853   19.4004 C   0  0  0  0  0  0  0  0  0  0  0  0
  -28.6349  -13.2783   20.8520 C   0  0  0  0  0  0  0  0  0  0  0  0
  -23.2622  -20.9175   20.8116 C   0  0  0  0  0  0  0  0  0  0  0  0
  -24.4519  -19.5669   19.1538 C   0  0  0  0  0  0  0  0  0  0  0  0
  -18.1583  -19.7614   28.3900 C   0  0  1  0  0  0  0  0  0  0  0  0
  -25.2921  -20.7679   19.5946 C   0  0  2  0  0  0  0  0  0  0  0  0
  -17.0884  -17.0222   25.9847 C   0  0  1  0  0  0  0  0  0  0  0  0
  -27.6340  -13.1449   19.6916 C   0  0  2  0  0  0  0  0  0  0  0  0
  -17.2353   -9.5829   23.8310 C   0  0  0  0  0  0  0  0  0  0  0  0
  -20.0052  -14.0011   27.9149 C   0  0  0  0  0  0  0  0  0  0  0  0
  -20.0360  -11.7207   26.8818 C   0  0  0  0  0  0  0  0  0  0  0  0
  -18.1079  -12.4184   28.3025 C   0  0  0  0  0  0  0  0  0  0  0  0
  -15.7219  -12.4815   21.8857 C   0  0  0  0  0  0  0  0  0  0  0  0
  -30.5604  -17.9948   21.0359 C   0  0  0  0  0  0  0  0  0  0  0  0
  -30.8607  -16.8188   21.9526 C   0  0  0  0  0  0  0  0  0  0  0  0
  -21.9184  -19.6029   19.1349 C   0  0  0  0  0  0  0  0  0  0  0  0
  -20.7139  -19.5827   20.0551 C   0  0  0  0  0  0  0  0  0  1  0  0
  -18.3761  -13.4218   25.9974 C   0  0  1  0  0  0  0  0  0  0  0  0
  -16.6772  -10.9850   23.6426 C   0  0  2  0  0  0  0  0  0  0  0  0
  -19.1316  -12.9138   27.2578 C   0  0  0  0  0  0  0  0  0  0  0  0
  -25.8536  -11.5415   20.2763 N   0  0  0  0  0  0  0  0  0  0  0  0
  -27.2664  -19.5292   20.3020 N   0  0  0  0  0  0  0  0  0  0  0  0
  -26.2330  -12.8272   20.1806 N   0  0  0  0  0  0  0  0  0  0  0  0
  -17.7754  -15.7887   25.5963 N   0  0  0  0  0  0  0  0  0  0  0  0
  -29.9758  -13.5869   20.3309 N   0  0  0  0  0  0  0  0  0  0  0  0
  -25.4817  -15.0483   20.5168 N   0  0  0  0  0  0  0  0  0  0  0  0
  -21.9222  -13.7373   20.4350 N   0  0  0  0  0  0  0  0  0  0  0  0
  -29.1635  -18.2833   21.0284 N   0  0  0  0  0  0  0  0  0  0  0  0
  -17.4564  -18.9109   27.4527 N   0  0  0  0  0  0  0  0  0  0  0  0
  -17.5199  -12.4209   25.3701 N   0  0  0  0  0  0  0  0  0  0  0  0
  -30.1819  -15.6126   21.5340 N   0  0  0  0  0  0  0  0  0  0  0  0
  -23.1652  -19.6756   19.9559 N   0  3  2  0  0  0  0  0  0  0  0  0
  -16.3063  -11.1545   22.2092 N   0  3  0  0  0  0  0  0  0  0  0  0
  -22.6960  -13.6868   22.5931 O   0  0  0  0  0  0  0  0  0  0  0  0
  -19.1010  -17.2833   27.1915 O   0  0  0  0  0  0  0  0  0  0  0  0
  -16.5759  -14.4881   27.1149 O   0  0  0  0  0  0  0  0  0  0  0  0
  -18.5397  -12.4825   23.2884 O   0  0  0  0  0  0  0  0  0  0  0  0
  -31.8844  -14.8950   20.1763 O   0  0  0  0  0  0  0  0  0  0  0  0
  -21.6169   -6.9878   21.6423 O   0  0  0  0  0  0  0  0  0  0  0  0
  -20.7971  -18.4554   20.9261 O   0  0  0  0  0  0  0  0  0  1  0  0
  -17.6841   -5.7070   17.9958 F   0  0  0  0  0  0  0  0  0  0  0  0
  -21.6970   -4.6010   20.2496 F   0  0  0  0  0  0  0  0  0  0  0  0
  1  2  1  0  0  0  0
  1  6  2  0  0  0  0
  2  7  2  0  0  0  0
  3 14  2  0  0  0  0
  3 15  1  0  0  0  0
  4  9  2  0  0  0  0
  4 18  1  0  0  0  0
  5 10  1  0  0  0  0
  5 18  2  0  0  0  0
  6 20  1  0  0  0  0
  7 22  1  0  0  0  0
  8 11  2  0  0  0  0
  8 21  1  0  0  0  0
  9 24  1  0  0  0  0
 10 24  2  0  0  0  0
 11 25  1  0  0  0  0
 12 13  2  0  0  0  0
 12 26  1  0  0  0  0
 13 27  1  0  0  0  0
 14 30  1  0  0  0  0
 15 31  2  0  0  0  0
 16 23  1  0  0  0  0
 16 25  2  0  0  0  0
 17 27  2  0  0  0  0
 17 28  1  0  0  0  0
 18 29  1  0  0  0  0
 19 29  1  0  0  0  0
 19 32  2  0  0  0  0
 19 33  1  0  0  0  0
 20 22  2  0  0  0  0
 20 38  1  0  0  0  0
 21 23  2  0  0  0  0
 21 39  1  0  0  0  0
 22 50  1  0  0  0  0
 23 40  1  0  0  0  0
 24 84  1  0  0  0  0
 25 85  1  0  0  0  0
 26 28  2  0  0  0  0
 26 84  1  0  0  0  0
 27 86  1  0  0  0  0
 28 87  1  0  0  0  0
 29 66  2  0  0  0  0
 30 51  1  0  0  0  0
 30 67  2  0  0  0  0
 31 67  1  0  0  0  0
 31 73  1  0  0  0  0
 32 68  1  0  0  0  0
 32 71  1  0  0  0  0
 33 72  1  0  0  0  0
 33 79  2  0  0  0  0
 34 52  1  0  0  0  0
 34 74  1  0  0  0  0
 34 80  2  0  0  0  0
 35 63  1  0  0  0  0
 35 69  1  0  0  0  0
 35 81  2  0  0  0  0
 36 64  1  0  0  0  0
 36 75  1  0  0  0  0
 36 82  2  0  0  0  0
 37 70  1  0  0  0  0
 37 76  1  0  0  0  0
 37 83  2  0  0  0  0
 38 41  1  0  0  0  0
 39 52  1  0  0  0  0
 40 69  1  0  0  0  0
 41 43  1  0  0  0  0
 42 44  1  0  0  0  0
 42 46  1  0  0  0  0
 43 50  1  0  0  0  0
 44 53  1  0  0  0  0
 45 48  1  0  0  0  0
 45 51  1  0  0  0  0
 46 70  1  0  0  0  0
 47 53  1  0  0  0  0
 47 70  1  0  0  0  0
 48 77  1  0  0  0  0
 49 51  1  0  0  0  0
 49 77  1  0  0  0  0
 50 74  1  0  0  0  0
 52 69  1  0  0  0  0
 53 68  1  0  0  0  0
 54 64  1  0  0  0  0
 55 65  1  0  0  0  0
 56 65  1  0  0  0  0
 57 65  1  0  0  0  0
 58 78  1  0  0  0  0
 59 60  1  0  0  0  0
 59 73  1  0  0  0  0
 60 76  1  0  0  0  0
 61 62  1  0  0  0  0
 61 77  1  0  0  0  0
 62 85  1  0  0  0  0
 63 65  1  0  0  0  0
 63 75  1  0  0  0  0
 64 78  1  0  0  0  0
 66 68  1  0  0  0  0
M  CHG  2  77   1  78   1
M  ISO  4  37 100  62 101  76 100  85 101
M  END
> <Batch ID>
0197

> <Smiles>
CNC(C)C(=O)NC(C(=O)N1Cc2cc([101O:1][101CH2:1]CN3CCC(c4cccc(NCC[100NH:0][100C:0](=O)N5CCCC(n6nc(-c7ccc(Oc8ccc(F)cc8F)cc7)c(C(N)=O)c6N)C5)n4)C3)ccc2CC1C(=O)NC1CCCc2ccccc21)C(C)(C)C

> <Shape>
0.170

> <Color>
0.150

> <Negative vol penalty>
0.000

$$$$

  -OEChem-04052323453D

 84 93  0     1  0  0  0  0  0999 V2000
  -18.3362  -24.6753   22.3065 C   0  0  0  0  0  0  0  0  0  0  0  0
  -19.7222  -24.6248   22.1975 C   0  0  0  0  0  0  0  0  0  0  0  0
  -25.5565  -14.6801   24.2811 C   0  0  0  0  0  0  0  0  0  0  0  0
  -25.5193  -16.3199   22.5072 C   0  0  0  0  0  0  0  0  0  0  0  0
  -17.6656  -25.8807   22.1036 C   0  0  0  0  0  0  0  0  0  0  0  0
  -20.4384  -25.7795   21.8843 C   0  0  0  0  0  0  0  0  0  0  0  0
  -24.5515  -26.3601   24.7809 C   0  0  0  0  0  0  0  0  0  0  0  0
  -25.4746  -15.7017   25.2272 C   0  0  0  0  0  0  0  0  0  0  0  0
  -25.4373  -17.3415   23.4533 C   0  0  0  0  0  0  0  0  0  0  0  0
  -25.6687  -25.5894   24.4621 C   0  0  0  0  0  0  0  0  0  0  0  0
  -23.0601  -18.7419   25.4048 C   0  0  0  0  0  0  0  0  0  0  0  0
  -22.1357  -19.7613   25.1771 C   0  0  0  0  0  0  0  0  0  0  0  0
  -26.6476  -27.4851   23.3364 C   0  0  0  0  0  0  0  0  0  0  0  0
  -23.9270  -21.3824   25.1618 C   0  0  0  0  0  0  0  0  0  0  0  0
  -25.5790  -14.9892   22.9210 C   0  0  0  0  0  0  0  0  0  0  0  0
  -24.7533  -12.8785   21.7501 C   0  0  0  0  0  0  0  0  0  0  0  0
  -18.3748  -27.0529   21.7973 C   0  0  0  0  0  0  0  0  0  0  0  0
  -24.4689  -27.6982   24.3698 C   0  0  0  0  0  0  0  0  0  0  0  0
  -19.7765  -27.0015   21.6758 C   0  0  0  0  0  0  0  0  0  0  0  0
  -25.5294  -28.2713   23.6534 C   0  0  0  0  0  0  0  0  0  0  0  0
  -25.4149  -17.0324   24.8134 C   0  0  0  0  0  0  0  0  0  0  0  0
  -26.7157  -26.1510   23.7372 C   0  0  0  0  0  0  0  0  0  0  0  0
  -24.4180  -19.0428   25.5111 C   0  0  0  0  0  0  0  0  0  0  0  0
  -22.5691  -21.0816   25.0556 C   0  0  0  0  0  0  0  0  0  0  0  0
  -24.8515  -20.3630   25.3896 C   0  0  0  0  0  0  0  0  0  0  0  0
  -25.6642  -13.9343   21.9432 C   0  0  0  0  0  0  0  0  0  0  0  0
  -25.2817  -12.1553   20.7089 C   0  0  0  0  0  0  0  0  0  0  0  0
  -23.5382  -12.5784   22.4494 C   0  0  0  0  0  0  0  0  0  0  0  0
  -22.5122  -29.3494   22.4860 C   0  0  0  0  0  0  0  0  0  0  0  0
  -24.2492  -31.8739   23.5498 C   0  0  0  0  0  0  0  0  0  0  0  0
  -27.1803  -33.0258   24.8645 C   0  0  0  0  0  0  0  0  0  0  0  0
  -29.5910  -15.3983   19.5372 C   0  0  0  0  0  0  0  0  0  0  0  0
  -17.6022  -28.3224   21.5400 C   0  0  0  0  0  0  0  0  0  0  0  0
  -23.2688  -28.5237   24.7447 C   0  0  0  0  0  0  0  0  0  0  0  0
  -25.4986  -29.7091   23.2060 C   0  0  0  0  0  0  0  0  0  0  0  0
  -18.4664  -29.5801   21.5805 C   0  0  0  0  0  0  0  0  0  0  0  0
  -29.5861  -11.9527   20.4834 C   0  0  0  0  0  0  0  0  0  0  0  0
  -29.3866  -17.5578   16.6313 C   0  0  0  0  0  0  0  0  0  0  0  0
  -19.7455  -29.3750   20.7752 C   0  0  0  0  0  0  0  0  0  0  0  0
  -28.4065  -11.3434   19.7338 C   0  0  0  0  0  0  0  0  0  0  0  0
  -28.9361  -18.5481   17.6960 C   0  0  0  0  0  0  0  0  0  0  0  0
  -30.2605  -13.0244   19.6409 C   0  0  0  0  0  0  0  0  0  0  0  0
  -28.9526  -16.2222   17.2150 C   0  0  0  0  0  0  0  0  0  0  0  0
  -29.6861  -21.4640   21.4694 C   0  0  0  0  0  0  0  0  0  0  0  0
  -27.3116  -21.7677   21.1276 C   0  0  0  0  0  0  0  0  0  0  0  0
  -28.1027  -13.5866   18.5392 C   0  0  0  0  0  0  0  0  0  0  0  0
  -29.5554  -19.9558   21.2851 C   0  0  0  0  0  0  0  0  0  0  0  0
  -27.1120  -20.2684   20.9334 C   0  0  0  0  0  0  0  0  0  0  0  0
  -20.5906  -28.2380   21.3621 C   0  0  1  0  0  0  0  0  0  0  0  0
  -23.0633  -29.7283   23.8315 C   0  0  1  0  0  0  0  0  0  0  0  0
  -27.4048  -12.4038   19.2495 C   0  0  2  0  0  0  0  0  0  0  0  0
  -29.2159  -17.8069   19.0063 C   0  0  1  0  0  0  0  0  0  0  0  0
  -28.3168  -35.1424   25.5897 C   0  0  0  0  0  0  0  0  0  0  0  0
  -24.7297  -32.6139   20.6289 C   0  0  0  0  0  0  0  0  0  0  0  0
  -26.5925  -34.1057   21.3857 C   0  0  0  0  0  0  0  0  0  0  0  0
  -24.2551  -34.5552   22.1323 C   0  0  0  0  0  0  0  0  0  0  0  0
  -27.4515  -32.0629   27.6498 C   0  0  0  0  0  0  0  0  0  0  0  0
  -28.2341  -18.1993   20.1028 C   0  0  0  0  0  0  0  0  0  0  0  0
  -28.6036  -23.4793   22.2259 C   0  0  0  0  0  0  0  0  0  0  0  0
  -27.6052  -24.0003   23.2483 C   0  0  0  0  0  0  0  0  0  1  0  0
  -25.5040  -32.5773   23.0916 C   0  0  1  0  0  0  0  0  0  0  0  0
  -27.4646  -33.9608   26.0261 C   0  0  2  0  0  0  0  0  0  0  0  0
  -25.2703  -33.4354   21.8163 C   0  0  0  0  0  0  0  0  0  0  0  0
  -26.6934  -13.8895   21.0930 N   0  0  0  0  0  0  0  0  0  0  0  0
  -26.4324  -12.7967   20.3556 N   0  0  0  0  0  0  0  0  0  0  0  0
  -24.3008  -30.4734   23.5916 N   0  0  0  0  0  0  0  0  0  0  0  0
  -29.3184  -14.0601   19.2164 N   0  0  0  0  0  0  0  0  0  0  0  0
  -29.1341  -16.3832   18.6585 N   0  0  0  0  0  0  0  0  0  0  0  0
  -28.4500  -22.0403   22.0148 N   0  0  0  0  0  0  0  0  0  0  0  0
  -24.8697  -11.0395   20.0702 N   0  0  0  0  0  0  0  0  0  0  0  0
  -22.3404  -13.1298   21.9745 N   0  0  0  0  0  0  0  0  0  0  0  0
  -21.2986  -28.6907   22.5403 N   0  0  0  0  0  0  0  0  0  0  0  0
  -25.9902  -33.3341   24.2402 N   0  0  0  0  0  0  0  0  0  0  0  0
  -28.3814  -19.6677   20.3838 N   0  3  0  0  0  0  0  0  0  0  0  0
  -28.1862  -33.2359   27.1100 N   0  3  0  0  0  0  0  0  0  0  0  0
  -23.5175  -11.8563   23.4749 O   0  0  0  0  0  0  0  0  0  0  0  0
  -23.1407  -29.6347   21.4735 O   0  0  0  0  0  0  0  0  0  0  0  0
  -23.2621  -32.5428   23.8659 O   0  0  0  0  0  0  0  0  0  0  0  0
  -27.9400  -32.1155   24.5408 O   0  0  0  0  0  0  0  0  0  0  0  0
  -30.2234  -15.6998   20.5581 O   0  0  0  0  0  0  0  0  0  0  0  0
  -25.3347  -18.0295   25.7363 O   0  0  0  0  0  0  0  0  0  0  0  0
  -27.8149  -25.3955   23.4219 O   0  0  0  0  0  0  0  0  0  1  0  0
  -21.6814  -22.0602   24.8355 F   0  0  0  0  0  0  0  0  0  0  0  0
  -26.1549  -20.6580   25.4895 F   0  0  0  0  0  0  0  0  0  0  0  0
  1  2  1  0  0  0  0
  1  5  2  0  0  0  0
  2  6  2  0  0  0  0
  3  8  2  0  0  0  0
  3 15  1  0  0  0  0
  4  9  1  0  0  0  0
  4 15  2  0  0  0  0
  5 17  1  0  0  0  0
  6 19  1  0  0  0  0
  7 10  2  0  0  0  0
  7 18  1  0  0  0  0
  8 21  1  0  0  0  0
  9 21  2  0  0  0  0
 10 22  1  0  0  0  0
 11 12  2  0  0  0  0
 11 23  1  0  0  0  0
 12 24  1  0  0  0  0
 13 20  1  0  0  0  0
 13 22  2  0  0  0  0
 14 24  2  0  0  0  0
 14 25  1  0  0  0  0
 15 26  1  0  0  0  0
 16 26  1  0  0  0  0
 16 27  2  0  0  0  0
 16 28  1  0  0  0  0
 17 19  2  0  0  0  0
 17 33  1  0  0  0  0
 18 20  2  0  0  0  0
 18 34  1  0  0  0  0
 19 49  1  0  0  0  0
 20 35  1  0  0  0  0
 21 81  1  0  0  0  0
 22 82  1  0  0  0  0
 23 25  2  0  0  0  0
 23 81  1  0  0  0  0
 24 83  1  0  0  0  0
 25 84  1  0  0  0  0
 26 64  2  0  0  0  0
 27 65  1  0  0  0  0
 27 70  1  0  0  0  0
 28 71  1  0  0  0  0
 28 76  2  0  0  0  0
 29 50  1  0  0  0  0
 29 72  1  0  0  0  0
 29 77  2  0  0  0  0
 30 61  1  0  0  0  0
 30 66  1  0  0  0  0
 30 78  2  0  0  0  0
 31 62  1  0  0  0  0
 31 73  1  0  0  0  0
 31 79  2  0  0  0  0
 32 67  1  0  0  0  0
 32 68  1  0  0  0  0
 32 80  2  0  0  0  0
 33 36  1  0  0  0  0
 34 50  1  0  0  0  0
 35 66  1  0  0  0  0
 36 39  1  0  0  0  0
 37 40  1  0  0  0  0
 37 42  1  0  0  0  0
 38 41  1  0  0  0  0
 38 43  1  0  0  0  0
 39 49  1  0  0  0  0
 40 51  1  0  0  0  0
 41 52  1  0  0  0  0
 42 67  1  0  0  0  0
 43 68  1  0  0  0  0
 44 47  1  0  0  0  0
 44 69  1  0  0  0  0
 45 48  1  0  0  0  0
 45 69  1  0  0  0  0
 46 51  1  0  0  0  0
 46 67  1  0  0  0  0
 47 74  1  0  0  0  0
 48 74  1  0  0  0  0
 49 72  1  0  0  0  0
 50 66  1  0  0  0  0
 51 65  1  0  0  0  0
 52 58  1  0  0  0  0
 52 68  1  0  0  0  0
 53 62  1  0  0  0  0
 54 63  1  0  0  0  0
 55 63  1  0  0  0  0
 56 63  1  0  0  0  0
 57 75  1  0  0  0  0
 58 74  1  0  0  0  0
 59 60  1  0  0  0  0
 59 69  1  0  0  0  0
 60 82  1  0  0  0  0
 61 63  1  0  0  0  0
 61 73  1  0  0  0  0
 62 75  1  0  0  0  0
 64 65  1  0  0  0  0
M  CHG  2  74   1  75   1
M  ISO  4  32 100  60 101  68 100  82 101
M  END
> <Batch ID>
0197

> <Smiles>
CNC(C)C(=O)NC(C(=O)N1Cc2cc([101O:1][101CH2:1]CN3CCN(CC4CCC[100N:0]4[100C:0](=O)N4CCCC(n5nc(-c6ccc(Oc7ccc(F)cc7F)cc6)c(C(N)=O)c5N)C4)CC3)ccc2CC1C(=O)NC1CCCc2ccccc21)C(C)(C)C

> <Shape>
0.251

> <Color>
0.090

> <Negative vol penalty>
0.000

$$$$

  -OEChem-04052323453D

 92103  0     1  0  0  0  0  0999 V2000
  -20.1914  -24.9978   23.7824 C   0  0  0  0  0  0  0  0  0  0  0  0
  -21.2443  -25.4752   23.0086 C   0  0  0  0  0  0  0  0  0  0  0  0
  -22.8991  -10.0473   20.5946 C   0  0  0  0  0  0  0  0  0  0  0  0
  -24.3803   -9.0273   22.2079 C   0  0  0  0  0  0  0  0  0  0  0  0
  -19.0730  -25.7996   24.0064 C   0  0  0  0  0  0  0  0  0  0  0  0
  -21.1790  -26.7544   22.4574 C   0  0  0  0  0  0  0  0  0  0  0  0
  -25.5033  -29.3311   23.0102 C   0  0  0  0  0  0  0  0  0  0  0  0
  -22.3099   -8.8067   20.3511 C   0  0  0  0  0  0  0  0  0  0  0  0
  -23.7910   -7.7867   21.9645 C   0  0  0  0  0  0  0  0  0  0  0  0
  -26.5470  -29.0175   22.1406 C   0  0  0  0  0  0  0  0  0  0  0  0
  -22.4339   -4.4145   22.0316 C   0  0  0  0  0  0  0  0  0  0  0  0
  -22.1131   -3.6208   23.1329 C   0  0  0  0  0  0  0  0  0  0  0  0
  -26.0006  -30.9464   20.7989 C   0  0  0  0  0  0  0  0  0  0  0  0
  -20.6485   -5.3564   23.9572 C   0  0  0  0  0  0  0  0  0  0  0  0
  -23.9344  -10.1576   21.5229 C   0  0  0  0  0  0  0  0  0  0  0  0
  -24.1543  -12.3916   22.7348 C   0  0  0  0  0  0  0  0  0  0  0  0
  -18.9982  -27.0929   23.4657 C   0  0  0  0  0  0  0  0  0  0  0  0
  -24.6922  -30.4504   22.7743 C   0  0  0  0  0  0  0  0  0  0  0  0
  -20.0580  -27.5737   22.6733 C   0  0  0  0  0  0  0  0  0  0  0  0
  -24.9489  -31.2735   21.6685 C   0  0  0  0  0  0  0  0  0  0  0  0
  -22.7558   -7.6764   21.0361 C   0  0  0  0  0  0  0  0  0  0  0  0
  -26.7939  -29.8236   21.0332 C   0  0  0  0  0  0  0  0  0  0  0  0
  -21.8620   -5.6792   21.8932 C   0  0  0  0  0  0  0  0  0  0  0  0
  -21.2204   -4.0917   24.0956 C   0  0  0  0  0  0  0  0  0  0  0  0
  -20.9693   -6.1502   22.8559 C   0  0  0  0  0  0  0  0  0  0  0  0
  -24.5438  -11.4388   21.7745 C   0  0  0  0  0  0  0  0  0  0  0  0
  -25.0438  -13.4256   22.5731 C   0  0  0  0  0  0  0  0  0  0  0  0
  -25.0539  -23.7266   17.8737 C   0  0  0  0  0  0  0  0  0  0  0  0
  -25.1840  -21.8292   18.9189 C   0  0  0  0  0  0  0  0  0  0  0  0
  -23.0841  -12.3461   23.6879 C   0  0  0  0  0  0  0  0  0  0  0  0
  -21.6000  -30.8965   22.1889 C   0  0  0  0  0  0  0  0  0  0  0  0
  -22.4067  -34.0296   22.4230 C   0  0  0  0  0  0  0  0  0  0  0  0
  -24.8326  -36.4205   22.2094 C   0  0  0  0  0  0  0  0  0  0  0  0
  -27.6911  -16.8681   18.9650 C   0  0  0  0  0  0  0  0  0  0  0  0
  -17.7482  -27.9049   23.6961 C   0  0  0  0  0  0  0  0  0  0  0  0
  -23.5872  -30.7902   23.7366 C   0  0  0  0  0  0  0  0  0  0  0  0
  -24.1200  -32.4979   21.3819 C   0  0  0  0  0  0  0  0  0  0  0  0
  -17.9208  -29.3898   23.3870 C   0  0  0  0  0  0  0  0  0  0  0  0
  -29.3252  -13.7168   19.8989 C   0  0  0  0  0  0  0  0  0  0  0  0
  -18.6295  -29.5777   22.0494 C   0  0  0  0  0  0  0  0  0  0  0  0
  -28.1781  -12.9071   20.5050 C   0  0  0  0  0  0  0  0  0  0  0  0
  -25.5535  -18.8408   21.2135 C   0  0  0  0  0  0  0  0  0  0  0  0
  -27.6827  -25.3462   17.2730 C   0  0  0  0  0  0  0  0  0  0  0  0
  -25.3566  -25.7126   16.1725 C   0  0  0  0  0  0  0  0  0  0  0  0
  -28.8358  -14.6862   18.8254 C   0  0  0  0  0  0  0  0  0  0  0  0
  -25.9729  -17.4402   20.7791 C   0  0  0  0  0  0  0  0  0  0  0  0
  -26.6008  -14.7660   19.8604 C   0  0  0  0  0  0  0  0  0  0  0  0
  -26.4189  -18.9944   19.0041 C   0  0  0  0  0  0  0  0  0  0  0  0
  -28.6400  -26.5342   17.2449 C   0  0  0  0  0  0  0  0  0  0  0  0
  -26.4677  -27.3838   17.8211 C   0  0  0  0  0  0  0  0  0  0  0  0
  -20.0350  -28.9652   22.0788 C   0  0  1  0  0  0  0  0  0  0  0  0
  -25.0300  -25.2049   17.5555 C   0  0  2  0  0  0  0  0  0  0  0  0
  -22.5011  -31.6629   23.1152 C   0  0  1  0  0  0  0  0  0  0  0  0
  -27.0445  -13.8288   20.9921 C   0  0  1  0  0  0  0  0  0  0  0  0
  -25.2936  -19.5284   19.8776 C   0  0  2  0  0  0  0  0  0  0  0  0
  -26.3155  -25.9813   17.3031 C   0  0  2  0  0  0  0  0  0  0  0  0
  -24.1799  -23.9278   21.1990 C   0  0  0  0  0  0  0  0  0  0  0  0
  -25.1814  -38.8970   22.4165 C   0  0  0  0  0  0  0  0  0  0  0  0
  -21.1125  -34.4380   19.6901 C   0  0  0  0  0  0  0  0  0  0  0  0
  -22.3025  -36.6351   19.5324 C   0  0  0  0  0  0  0  0  0  0  0  0
  -20.6383  -36.2477   21.3499 C   0  0  0  0  0  0  0  0  0  0  0  0
  -26.7432  -36.0817   24.4441 C   0  0  0  0  0  0  0  0  0  0  0  0
  -25.4356  -23.8918   20.3449 C   0  0  0  0  0  0  0  0  0  0  0  0
  -28.4477  -28.9605   17.9278 C   0  0  0  0  0  0  0  0  0  0  0  0
  -27.6524  -29.8964   18.8165 C   0  0  0  0  0  0  0  0  0  1  0  0
  -22.8817  -35.0865   21.4553 C   0  0  1  0  0  0  0  0  0  0  0  0
  -25.2090  -37.5595   23.1398 C   0  0  2  0  0  0  0  0  0  0  0  0
  -21.7483  -35.5777   20.5110 C   0  0  0  0  0  0  0  0  0  0  0  0
  -25.5985  -11.8325   21.0558 N   0  0  0  0  0  0  0  0  0  0  0  0
  -24.9024  -22.7735   16.9820 N   0  0  0  0  0  0  0  0  0  0  0  0
  -24.9852  -21.5664   17.6469 N   0  0  0  0  0  0  0  0  0  0  0  0
  -25.8793  -13.0442   21.5647 N   0  0  0  0  0  0  0  0  0  0  0  0
  -25.2340  -23.1772   19.1068 N   0  0  0  0  0  0  0  0  0  0  0  0
  -23.0472  -32.7846   22.3485 N   0  0  0  0  0  0  0  0  0  0  0  0
  -27.7424  -15.5180   19.3287 N   0  0  0  0  0  0  0  0  0  0  0  0
  -26.6663  -17.6443   19.5046 N   0  0  0  0  0  0  0  0  0  0  0  0
  -25.1850  -14.6147   23.1964 N   0  0  0  0  0  0  0  0  0  0  0  0
  -22.2654  -11.2090   23.7194 N   0  0  0  0  0  0  0  0  0  0  0  0
  -25.3350  -20.9622   19.9926 N   0  0  0  0  0  0  0  0  0  0  0  0
  -20.9502  -29.8340   22.7875 N   0  0  0  0  0  0  0  0  0  0  0  0
  -23.4836  -36.1403   22.2649 N   0  0  0  0  0  0  0  0  0  0  0  0
  -27.9443  -27.5673   18.1046 N   0  3  2  0  0  0  0  0  0  0  0  0
  -26.5790  -37.3496   23.6875 N   0  3  0  0  0  0  0  0  0  0  0  0
  -22.8503  -13.2930   24.4767 O   0  0  0  0  0  0  0  0  0  0  0  0
  -21.5003  -31.2443   21.0180 O   0  0  0  0  0  0  0  0  0  0  0  0
  -21.5056  -34.3010   23.2205 O   0  0  0  0  0  0  0  0  0  0  0  0
  -25.6525  -35.8401   21.5013 O   0  0  0  0  0  0  0  0  0  0  0  0
  -28.5504  -17.3698   18.2281 O   0  0  0  0  0  0  0  0  0  0  0  0
  -22.1809   -6.4657   20.7989 O   0  0  0  0  0  0  0  0  0  0  0  0
  -27.8189  -29.5173   20.1763 O   0  0  0  0  0  0  0  0  0  1  0  0
  -20.9112   -3.3288   25.1523 F   0  0  0  0  0  0  0  0  0  0  0  0
  -20.4158   -7.3638   22.7277 F   0  0  0  0  0  0  0  0  0  0  0  0
  1  2  1  0  0  0  0
  1  5  2  0  0  0  0
  2  6  2  0  0  0  0
  3  8  2  0  0  0  0
  3 15  1  0  0  0  0
  4  9  1  0  0  0  0
  4 15  2  0  0  0  0
  5 17  1  0  0  0  0
  6 19  1  0  0  0  0
  7 10  2  0  0  0  0
  7 18  1  0  0  0  0
  8 21  1  0  0  0  0
  9 21  2  0  0  0  0
 10 22  1  0  0  0  0
 11 12  2  0  0  0  0
 11 23  1  0  0  0  0
 12 24  1  0  0  0  0
 13 20  1  0  0  0  0
 13 22  2  0  0  0  0
 14 24  2  0  0  0  0
 14 25  1  0  0  0  0
 15 26  1  0  0  0  0
 16 26  1  0  0  0  0
 16 27  2  0  0  0  0
 16 30  1  0  0  0  0
 17 19  2  0  0  0  0
 17 35  1  0  0  0  0
 18 20  2  0  0  0  0
 18 36  1  0  0  0  0
 19 51  1  0  0  0  0
 20 37  1  0  0  0  0
 21 89  1  0  0  0  0
 22 90  1  0  0  0  0
 23 25  2  0  0  0  0
 23 89  1  0  0  0  0
 24 91  1  0  0  0  0
 25 92  1  0  0  0  0
 26 69  2  0  0  0  0
 27 72  1  0  0  0  0
 27 77  1  0  0  0  0
 28 52  1  0  0  0  0
 28 70  2  0  0  0  0
 28 73  1  0  0  0  0
 29 71  2  0  0  0  0
 29 73  1  0  0  0  0
 29 79  1  0  0  0  0
 30 78  1  0  0  0  0
 30 84  2  0  0  0  0
 31 53  1  0  0  0  0
 31 80  1  0  0  0  0
 31 85  2  0  0  0  0
 32 66  1  0  0  0  0
 32 74  1  0  0  0  0
 32 86  2  0  0  0  0
 33 67  1  0  0  0  0
 33 81  1  0  0  0  0
 33 87  2  0  0  0  0
 34 75  1  0  0  0  0
 34 76  1  0  0  0  0
 34 88  2  0  0  0  0
 35 38  1  0  0  0  0
 36 53  1  0  0  0  0
 37 74  1  0  0  0  0
 38 40  1  0  0  0  0
 39 41  1  0  0  0  0
 39 45  1  0  0  0  0
 40 51  1  0  0  0  0
 41 54  1  0  0  0  0
 42 46  1  0  0  0  0
 42 55  1  0  0  0  0
 43 49  1  0  0  0  0
 43 56  1  0  0  0  0
 44 52  1  0  0  0  0
 44 56  1  0  0  0  0
 45 75  1  0  0  0  0
 46 76  1  0  0  0  0
 47 54  1  0  0  0  0
 47 75  1  0  0  0  0
 48 55  1  0  0  0  0
 48 76  1  0  0  0  0
 49 82  1  0  0  0  0
 50 56  1  0  0  0  0
 50 82  1  0  0  0  0
 51 80  1  0  0  0  0
 52 56  1  0  0  0  0
 53 74  1  0  0  0  0
 54 72  1  0  0  0  0
 55 79  1  0  0  0  0
 57 63  1  0  0  0  0
 58 67  1  0  0  0  0
 59 68  1  0  0  0  0
 60 68  1  0  0  0  0
 61 68  1  0  0  0  0
 62 83  1  0  0  0  0
 63 73  1  0  0  0  0
 64 65  1  0  0  0  0
 64 82  1  0  0  0  0
 65 90  1  0  0  0  0
 66 68  1  0  0  0  0
 66 81  1  0  0  0  0
 67 83  1  0  0  0  0
 69 72  1  0  0  0  0
 70 71  1  0  0  0  0
M  CHG  2  82   1  83   1
M  ISO  4  34 100  65 101  76 100  90 101
M  END
> <Batch ID>
0197

> <Smiles>
CCn1c(NC2CC[100N:0]([100C:0](=O)N3CCCC(n4nc(-c5ccc(Oc6ccc(F)cc6F)cc5)c(C(N)=O)c4N)C3)C2)nnc1C1CC12CCN(C[101CH2:1][101O:1]c1ccc3c(c1)CN(C(=O)C(NC(=O)C(C)NC)C(C)(C)C)C(C(=O)NC1CCCc4ccccc41)C3)C2

> <Shape>
0.263

> <Color>
0.111

> <Negative vol penalty>
0.000

$$$$

  -OEChem-04052323453D

 83 92  0     1  0  0  0  0  0999 V2000
  -21.8259  -28.2742   24.9628 C   0  0  0  0  0  0  0  0  0  0  0  0
  -22.0053  -26.9071   24.7773 C   0  0  0  0  0  0  0  0  0  0  0  0
  -27.9056  -23.0349   20.3560 C   0  0  0  0  0  0  0  0  0  0  0  0
  -29.1092  -23.4427   18.3012 C   0  0  0  0  0  0  0  0  0  0  0  0
  -20.8311  -28.9479   24.2553 C   0  0  0  0  0  0  0  0  0  0  0  0
  -21.1893  -26.2127   23.8849 C   0  0  0  0  0  0  0  0  0  0  0  0
  -23.8032  -23.0393   20.9283 C   0  0  0  0  0  0  0  0  0  0  0  0
  -27.9063  -24.4029   20.6279 C   0  0  0  0  0  0  0  0  0  0  0  0
  -29.1098  -24.8108   18.5731 C   0  0  0  0  0  0  0  0  0  0  0  0
  -24.2047  -21.8290   21.4918 C   0  0  0  0  0  0  0  0  0  0  0  0
  -27.2750  -27.8233   21.6850 C   0  0  0  0  0  0  0  0  0  0  0  0
  -26.0835  -28.3968   22.1290 C   0  0  0  0  0  0  0  0  0  0  0  0
  -22.3532  -20.7200   20.4141 C   0  0  0  0  0  0  0  0  0  0  0  0
  -24.9931  -27.7147   20.0838 C   0  0  0  0  0  0  0  0  0  0  0  0
  -28.5071  -22.5547   19.1927 C   0  0  0  0  0  0  0  0  0  0  0  0
  -27.5343  -20.4167   18.1975 C   0  0  0  0  0  0  0  0  0  0  0  0
  -20.0088  -28.2632   23.3466 C   0  0  0  0  0  0  0  0  0  0  0  0
  -22.6654  -23.1012   20.1109 C   0  0  0  0  0  0  0  0  0  0  0  0
  -20.1817  -26.8776   23.1656 C   0  0  0  0  0  0  0  0  0  0  0  0
  -21.9408  -21.9319   19.8394 C   0  0  0  0  0  0  0  0  0  0  0  0
  -28.5083  -25.2909   19.7365 C   0  0  0  0  0  0  0  0  0  0  0  0
  -23.4780  -20.6696   21.2371 C   0  0  0  0  0  0  0  0  0  0  0  0
  -27.3255  -27.1956   20.4404 C   0  0  0  0  0  0  0  0  0  0  0  0
  -24.9426  -28.3425   21.3284 C   0  0  0  0  0  0  0  0  0  0  0  0
  -26.1846  -27.1412   19.6398 C   0  0  0  0  0  0  0  0  0  0  0  0
  -28.5073  -21.1415   18.9115 C   0  0  0  0  0  0  0  0  0  0  0  0
  -27.9936  -19.1223   18.2087 C   0  0  0  0  0  0  0  0  0  0  0  0
  -25.4279  -12.9150   20.8720 C   0  0  0  0  0  0  0  0  0  0  0  0
  -26.3237  -20.8727   17.5794 C   0  0  0  0  0  0  0  0  0  0  0  0
  -19.8709  -24.6080   20.2665 C   0  0  0  0  0  0  0  0  0  0  0  0
  -19.4837  -23.3781   17.2899 C   0  0  0  0  0  0  0  0  0  0  0  0
  -20.3176  -20.9714   15.0185 C   0  0  0  0  0  0  0  0  0  0  0  0
  -30.1278  -14.9528   21.4124 C   0  0  0  0  0  0  0  0  0  0  0  0
  -18.9159  -29.0253   22.6399 C   0  0  0  0  0  0  0  0  0  0  0  0
  -22.2610  -24.4097   19.4890 C   0  0  0  0  0  0  0  0  0  0  0  0
  -20.7237  -21.9412   18.9522 C   0  0  0  0  0  0  0  0  0  0  0  0
  -23.9582  -13.3587   20.7536 C   0  0  0  0  0  0  0  0  0  0  0  0
  -18.3398  -28.2867   21.4345 C   0  0  0  0  0  0  0  0  0  0  0  0
  -32.4509  -17.1930   19.5901 C   0  0  0  0  0  0  0  0  0  0  0  0
  -18.0491  -26.8318   21.7888 C   0  0  0  0  0  0  0  0  0  0  0  0
  -31.5627  -18.3927   19.2635 C   0  0  0  0  0  0  0  0  0  0  0  0
  -26.6805  -14.3744   22.6396 C   0  0  0  0  0  0  0  0  0  0  0  0
  -26.5858  -15.1482   20.2289 C   0  0  0  0  0  0  0  0  0  0  0  0
  -31.9916  -16.4746   20.8554 C   0  0  0  0  0  0  0  0  0  0  0  0
  -28.1194  -13.9204   22.4104 C   0  0  0  0  0  0  0  0  0  0  0  0
  -28.0209  -14.6622   20.0551 C   0  0  0  0  0  0  0  0  0  0  0  0
  -29.6737  -17.2621   20.5001 C   0  0  0  0  0  0  0  0  0  0  0  0
  -19.3328  -26.0941   22.1881 C   0  0  1  0  0  0  0  0  0  0  0  0
  -20.7896  -24.4511   19.0879 C   0  0  1  0  0  0  0  0  0  0  0  0
  -30.0825  -17.9773   19.2042 C   0  0  1  0  0  0  0  0  0  0  0  0
  -24.3430  -14.6122   21.5746 C   0  0  1  0  0  0  0  0  0  0  0  0
  -25.8785  -14.3475   21.3314 C   0  0  0  0  0  0  0  0  0  0  0  0
  -19.8085  -20.2052   12.6838 C   0  0  0  0  0  0  0  0  0  0  0  0
  -16.8362  -22.2070   18.2541 C   0  0  0  0  0  0  0  0  0  0  0  0
  -16.8492  -20.7077   16.2491 C   0  0  0  0  0  0  0  0  0  0  0  0
  -16.7685  -23.1833   15.9527 C   0  0  0  0  0  0  0  0  0  0  0  0
  -23.1198  -21.3683   14.1530 C   0  0  0  0  0  0  0  0  0  0  0  0
  -24.1282  -17.0922   21.7803 C   0  0  0  0  0  0  0  0  0  0  0  0
  -23.5719  -18.3004   21.0530 C   0  0  0  0  0  0  0  0  0  1  0  0
  -18.9159  -22.0971   16.7280 C   0  0  1  0  0  0  0  0  0  0  0  0
  -20.7140  -21.0608   13.5559 C   0  0  2  0  0  0  0  0  0  0  0  0
  -17.3642  -22.0486   16.8143 C   0  0  0  0  0  0  0  0  0  0  0  0
  -29.5090  -20.3715   19.3448 N   0  0  0  0  0  0  0  0  0  0  0  0
  -29.1678  -19.1494   18.9019 N   0  0  0  0  0  0  0  0  0  0  0  0
  -20.3646  -23.2461   18.3727 N   0  0  0  0  0  0  0  0  0  0  0  0
  -30.5700  -16.1348   20.7951 N   0  0  0  0  0  0  0  0  0  0  0  0
  -28.7537  -14.6717   21.3279 N   0  0  0  0  0  0  0  0  0  0  0  0
  -27.5035  -17.9750   17.6931 N   0  0  0  0  0  0  0  0  0  0  0  0
  -26.0028  -22.2345   17.6626 N   0  0  0  0  0  0  0  0  0  0  0  0
  -20.1029  -25.7476   21.0128 N   0  0  0  0  0  0  0  0  0  0  0  0
  -19.4431  -21.9768   15.3730 N   0  0  0  0  0  0  0  0  0  0  0  0
  -23.8292  -15.8603   20.9903 N   0  3  0  0  0  0  0  0  0  0  0  0
  -22.1186  -20.5984   13.3707 N   0  3  0  0  0  0  0  0  0  0  0  0
  -25.9959  -11.8620   20.6748 O   0  0  0  0  0  0  0  0  0  0  0  0
  -25.5411  -20.0928   16.9855 O   0  0  0  0  0  0  0  0  0  0  0  0
  -19.0140  -23.7589   20.4818 O   0  0  0  0  0  0  0  0  0  0  0  0
  -19.1631  -24.4556   16.7822 O   0  0  0  0  0  0  0  0  0  0  0  0
  -20.7385  -20.0950   15.7704 O   0  0  0  0  0  0  0  0  0  0  0  0
  -30.9097  -14.1971   22.0026 O   0  0  0  0  0  0  0  0  0  0  0  0
  -28.5089  -26.6260   20.0014 O   0  0  0  0  0  0  0  0  0  0  0  0
  -23.8701  -19.4785   21.7903 O   0  0  0  0  0  0  0  0  0  1  0  0
  -23.7981  -28.8919   21.7556 F   0  0  0  0  0  0  0  0  0  0  0  0
  -26.2267  -26.5385   18.4437 F   0  0  0  0  0  0  0  0  0  0  0  0
  1  2  1  0  0  0  0
  1  5  2  0  0  0  0
  2  6  2  0  0  0  0
  3  8  2  0  0  0  0
  3 15  1  0  0  0  0
  4  9  1  0  0  0  0
  4 15  2  0  0  0  0
  5 17  1  0  0  0  0
  6 19  1  0  0  0  0
  7 10  2  0  0  0  0
  7 18  1  0  0  0  0
  8 21  1  0  0  0  0
  9 21  2  0  0  0  0
 10 22  1  0  0  0  0
 11 12  2  0  0  0  0
 11 23  1  0  0  0  0
 12 24  1  0  0  0  0
 13 20  1  0  0  0  0
 13 22  2  0  0  0  0
 14 24  2  0  0  0  0
 14 25  1  0  0  0  0
 15 26  1  0  0  0  0
 16 26  1  0  0  0  0
 16 27  2  0  0  0  0
 16 29  1  0  0  0  0
 17 19  2  0  0  0  0
 17 34  1  0  0  0  0
 18 20  2  0  0  0  0
 18 35  1  0  0  0  0
 19 48  1  0  0  0  0
 20 36  1  0  0  0  0
 21 80  1  0  0  0  0
 22 81  1  0  0  0  0
 23 25  2  0  0  0  0
 23 80  1  0  0  0  0
 24 82  1  0  0  0  0
 25 83  1  0  0  0  0
 26 63  2  0  0  0  0
 27 64  1  0  0  0  0
 27 68  1  0  0  0  0
 28 37  1  0  0  0  0
 28 52  1  0  0  0  0
 28 74  2  0  0  0  0
 29 69  1  0  0  0  0
 29 75  2  0  0  0  0
 30 49  1  0  0  0  0
 30 70  1  0  0  0  0
 30 76  2  0  0  0  0
 31 60  1  0  0  0  0
 31 65  1  0  0  0  0
 31 77  2  0  0  0  0
 32 61  1  0  0  0  0
 32 71  1  0  0  0  0
 32 78  2  0  0  0  0
 33 66  1  0  0  0  0
 33 67  1  0  0  0  0
 33 79  2  0  0  0  0
 34 38  1  0  0  0  0
 35 49  1  0  0  0  0
 36 65  1  0  0  0  0
 37 51  1  0  0  0  0
 38 40  1  0  0  0  0
 39 41  1  0  0  0  0
 39 44  1  0  0  0  0
 40 48  1  0  0  0  0
 41 50  1  0  0  0  0
 42 45  1  0  0  0  0
 42 52  1  0  0  0  0
 43 46  1  0  0  0  0
 43 52  1  0  0  0  0
 44 66  1  0  0  0  0
 45 67  1  0  0  0  0
 46 67  1  0  0  0  0
 47 50  1  0  0  0  0
 47 66  1  0  0  0  0
 48 70  1  0  0  0  0
 49 65  1  0  0  0  0
 50 64  1  0  0  0  0
 51 52  1  0  0  0  0
 51 72  1  0  0  0  0
 53 61  1  0  0  0  0
 54 62  1  0  0  0  0
 55 62  1  0  0  0  0
 56 62  1  0  0  0  0
 57 73  1  0  0  0  0
 58 59  1  0  0  0  0
 58 72  1  0  0  0  0
 59 81  1  0  0  0  0
 60 62  1  0  0  0  0
 60 71  1  0  0  0  0
 61 73  1  0  0  0  0
 63 64  1  0  0  0  0
M  CHG  2  72   1  73   1
M  ISO  4  33 100  59 101  67 100  81 101
M  END
> <Batch ID>
0197

> <Smiles>
CNC(C)C(=O)NC(C(=O)N1Cc2cc([101O:1][101CH2:1]CNC3CC(=O)C34CC[100N:0]([100C:0](=O)N3CCCC(n5nc(-c6ccc(Oc7ccc(F)cc7F)cc6)c(C(N)=O)c5N)C3)CC4)ccc2CC1C(=O)NC1CCCc2ccccc21)C(C)(C)C

> <Shape>
0.207

> <Color>
0.080

> <Negative vol penalty>
0.000

$$$$

  -OEChem-04052323453D

 89 99  0     1  0  0  0  0  0999 V2000
  -16.1057  -30.7302   23.4108 C   0  0  0  0  0  0  0  0  0  0  0  0
  -16.3842  -29.9734   22.2771 C   0  0  0  0  0  0  0  0  0  0  0  0
  -22.6292  -10.4945   20.3630 C   0  0  0  0  0  0  0  0  0  0  0  0
  -24.3146   -9.3811   21.6885 C   0  0  0  0  0  0  0  0  0  0  0  0
  -17.1314  -31.4185   24.0573 C   0  0  0  0  0  0  0  0  0  0  0  0
  -17.6885  -29.9055   21.7887 C   0  0  0  0  0  0  0  0  0  0  0  0
  -21.0854  -23.5851   21.1520 C   0  0  0  0  0  0  0  0  0  0  0  0
  -21.8309   -9.3521   20.4185 C   0  0  0  0  0  0  0  0  0  0  0  0
  -23.5162   -8.2387   21.7441 C   0  0  0  0  0  0  0  0  0  0  0  0
  -21.7267  -22.3965   20.8027 C   0  0  0  0  0  0  0  0  0  0  0  0
  -22.7444   -5.6382   19.7260 C   0  0  0  0  0  0  0  0  0  0  0  0
  -23.3588   -4.4065   19.5000 C   0  0  0  0  0  0  0  0  0  0  0  0
  -23.6663  -23.6443   20.0754 C   0  0  0  0  0  0  0  0  0  0  0  0
  -22.6955   -3.6711   21.7037 C   0  0  0  0  0  0  0  0  0  0  0  0
  -23.8711  -10.5090   20.9980 C   0  0  0  0  0  0  0  0  0  0  0  0
  -24.3736  -12.9758   21.4101 C   0  0  0  0  0  0  0  0  0  0  0  0
  -18.4506  -31.3512   23.5821 C   0  0  0  0  0  0  0  0  0  0  0  0
  -21.7389  -24.8083   20.9785 C   0  0  0  0  0  0  0  0  0  0  0  0
  -18.7326  -30.5947   22.4286 C   0  0  0  0  0  0  0  0  0  0  0  0
  -23.0338  -24.8373   20.4352 C   0  0  0  0  0  0  0  0  0  0  0  0
  -22.2743   -8.2242   21.1090 C   0  0  0  0  0  0  0  0  0  0  0  0
  -23.0139  -22.4261   20.2655 C   0  0  0  0  0  0  0  0  0  0  0  0
  -22.1056   -5.8864   20.9410 C   0  0  0  0  0  0  0  0  0  0  0  0
  -23.3343   -3.4230   20.4888 C   0  0  0  0  0  0  0  0  0  0  0  0
  -22.0811   -4.9028   21.9298 C   0  0  0  0  0  0  0  0  0  0  0  0
  -24.6966  -11.6886   20.9405 C   0  0  0  0  0  0  0  0  0  0  0  0
  -25.4818  -13.7344   21.1222 C   0  0  0  0  0  0  0  0  0  0  0  0
  -23.1788  -13.4440   22.0495 C   0  0  0  0  0  0  0  0  0  0  0  0
  -21.6056  -28.5399   21.3440 C   0  0  0  0  0  0  0  0  0  0  0  0
  -24.4318  -27.6654   22.1553 C   0  0  0  0  0  0  0  0  0  0  0  0
  -27.5288  -27.3713   23.5551 C   0  0  0  0  0  0  0  0  0  0  0  0
  -29.2940  -15.2988   17.4653 C   0  0  0  0  0  0  0  0  0  0  0  0
  -19.5177  -32.1506   24.2870 C   0  0  0  0  0  0  0  0  0  0  0  0
  -21.0628  -26.1174   21.2835 C   0  0  0  0  0  0  0  0  0  0  0  0
  -23.6847  -26.1785   20.2341 C   0  0  0  0  0  0  0  0  0  0  0  0
  -20.9378  -31.7243   23.9238 C   0  0  0  0  0  0  0  0  0  0  0  0
  -30.0975  -12.3984   19.5995 C   0  0  0  0  0  0  0  0  0  0  0  0
  -21.0780  -31.5666   22.4131 C   0  0  0  0  0  0  0  0  0  0  0  0
  -28.7150  -12.0347   20.1329 C   0  0  0  0  0  0  0  0  0  0  0  0
  -28.9246  -18.4552   20.0945 C   0  0  0  0  0  0  0  0  0  0  0  0
  -31.6955  -21.0541   18.3115 C   0  0  0  0  0  0  0  0  0  0  0  0
  -32.2820  -16.8647   15.6117 C   0  0  0  0  0  0  0  0  0  0  0  0
  -30.0364  -12.9471   18.1746 C   0  0  0  0  0  0  0  0  0  0  0  0
  -27.5146  -18.4573   20.6867 C   0  0  0  0  0  0  0  0  0  0  0  0
  -32.8186  -21.1919   17.2911 C   0  0  0  0  0  0  0  0  0  0  0  0
  -27.7167  -13.7338   18.5543 C   0  0  0  0  0  0  0  0  0  0  0  0
  -27.5706  -20.1734   19.1006 C   0  0  0  0  0  0  0  0  0  0  0  0
  -20.1390  -30.4763   21.8828 C   0  0  1  0  0  0  0  0  0  0  0  0
  -22.0304  -27.1841   21.8267 C   0  0  1  0  0  0  0  0  0  0  0  0
  -32.0153  -17.6122   16.8875 C   0  0  1  0  0  0  0  0  0  0  0  0
  -27.7532  -13.2258   20.0039 C   0  0  1  0  0  0  0  0  0  0  0  0
  -31.8522  -19.1037   16.8688 C   0  0  1  0  0  0  0  0  0  0  0  0
  -30.9480  -16.7253   16.2984 C   0  0  2  0  0  0  0  0  0  0  0  0
  -29.0129  -19.7651   19.3246 C   0  0  2  0  0  0  0  0  0  0  0  0
  -31.2010  -19.6230   18.1504 C   0  0  2  0  0  0  0  0  0  0  0  0
  -29.6555  -28.6526   23.9195 C   0  0  0  0  0  0  0  0  0  0  0  0
  -24.9785  -19.3583   21.7190 C   0  0  0  0  0  0  0  0  0  0  0  0
  -25.1962  -27.2196   19.2363 C   0  0  0  0  0  0  0  0  0  0  0  0
  -27.5839  -27.6202   19.8742 C   0  0  0  0  0  0  0  0  0  0  0  0
  -25.8945  -29.4313   20.1718 C   0  0  0  0  0  0  0  0  0  0  0  0
  -33.8629  -19.7765   15.6365 C   0  0  0  0  0  0  0  0  0  0  0  0
  -27.2642  -27.2001   26.4978 C   0  0  0  0  0  0  0  0  0  0  0  0
  -25.0597  -21.2372   20.0232 C   0  0  0  0  0  0  0  0  0  1  0  0
  -25.8577  -27.4349   21.7227 C   0  0  1  0  0  0  0  0  0  0  0  0
  -28.2992  -28.2790   24.4969 C   0  0  2  0  0  0  0  0  0  0  0  0
  -25.5296  -19.8241   20.3711 C   0  0  1  0  0  0  0  0  0  0  0  0
  -26.1179  -27.9061   20.2640 C   0  0  0  0  0  0  0  0  0  0  0  0
  -25.9145  -11.6291   20.3955 N   0  0  0  0  0  0  0  0  0  0  0  0
  -26.3666  -12.8885   20.5207 N   0  0  0  0  0  0  0  0  0  0  0  0
  -23.4326  -27.0391   21.4005 N   0  0  0  0  0  0  0  0  0  0  0  0
  -29.0631  -14.0445   18.0585 N   0  0  0  0  0  0  0  0  0  0  0  0
  -26.9841  -19.7915   20.3875 N   0  0  1  0  0  0  0  0  0  0  0  0
  -33.1430  -19.8137   16.9047 N   0  0  1  0  0  0  0  0  0  0  0  0
  -25.7760  -15.0359   21.3272 N   0  0  0  0  0  0  0  0  0  0  0  0
  -22.1374  -12.5321   22.2693 N   0  0  0  0  0  0  0  0  0  0  0  0
  -20.6813  -29.1635   22.1602 N   0  0  0  0  0  0  0  0  0  0  0  0
  -26.6977  -28.0883   22.7206 N   0  0  0  0  0  0  0  0  0  0  0  0
  -30.5664  -15.4960   16.9409 N   0  0  0  0  0  0  0  0  0  0  0  0
  -29.7252  -19.5905   18.0458 N   0  3  0  0  0  0  0  0  0  0  0  0
  -28.5163  -27.6020   25.8067 N   0  3  0  0  0  0  0  0  0  0  0  0
  -23.0323  -14.6394   22.4003 O   0  0  0  0  0  0  0  0  0  0  0  0
  -22.0819  -28.9890   20.3081 O   0  0  0  0  0  0  0  0  0  0  0  0
  -24.2069  -28.3854   23.1322 O   0  0  0  0  0  0  0  0  0  0  0  0
  -27.6547  -26.1487   23.5568 O   0  0  0  0  0  0  0  0  0  0  0  0
  -28.4285  -16.1790   17.4013 O   0  0  0  0  0  0  0  0  0  0  0  0
  -21.4954   -7.1094   21.1636 O   0  0  0  0  0  0  0  0  0  0  0  0
  -23.6359  -21.2617   19.9308 O   0  0  0  0  0  0  0  0  0  1  0  0
  -23.9231   -2.2397   20.2709 F   0  0  0  0  0  0  0  0  0  0  0  0
  -21.4679   -5.1350   23.0985 F   0  0  0  0  0  0  0  0  0  0  0  0
  1  2  1  0  0  0  0
  1  5  2  0  0  0  0
  2  6  2  0  0  0  0
  3  8  2  0  0  0  0
  3 15  1  0  0  0  0
  4  9  1  0  0  0  0
  4 15  2  0  0  0  0
  5 17  1  0  0  0  0
  6 19  1  0  0  0  0
  7 10  2  0  0  0  0
  7 18  1  0  0  0  0
  8 21  1  0  0  0  0
  9 21  2  0  0  0  0
 10 22  1  0  0  0  0
 11 12  2  0  0  0  0
 11 23  1  0  0  0  0
 12 24  1  0  0  0  0
 13 20  1  0  0  0  0
 13 22  2  0  0  0  0
 14 24  2  0  0  0  0
 14 25  1  0  0  0  0
 15 26  1  0  0  0  0
 16 26  1  0  0  0  0
 16 27  2  0  0  0  0
 16 28  1  0  0  0  0
 17 19  2  0  0  0  0
 17 33  1  0  0  0  0
 18 20  2  0  0  0  0
 18 34  1  0  0  0  0
 19 48  1  0  0  0  0
 20 35  1  0  0  0  0
 21 86  1  0  0  0  0
 22 87  1  0  0  0  0
 23 25  2  0  0  0  0
 23 86  1  0  0  0  0
 24 88  1  0  0  0  0
 25 89  1  0  0  0  0
 26 68  2  0  0  0  0
 27 69  1  0  0  0  0
 27 74  1  0  0  0  0
 28 75  1  0  0  0  0
 28 81  2  0  0  0  0
 29 49  1  0  0  0  0
 29 76  1  0  0  0  0
 29 82  2  0  0  0  0
 30 64  1  0  0  0  0
 30 70  1  0  0  0  0
 30 83  2  0  0  0  0
 31 65  1  0  0  0  0
 31 77  1  0  0  0  0
 31 84  2  0  0  0  0
 32 71  1  0  0  0  0
 32 78  1  0  0  0  0
 32 85  2  0  0  0  0
 33 36  1  0  0  0  0
 34 49  1  0  0  0  0
 35 70  1  0  0  0  0
 36 38  1  0  0  0  0
 37 39  1  0  0  0  0
 37 43  1  0  0  0  0
 38 48  1  0  0  0  0
 39 51  1  0  0  0  0
 40 44  1  0  0  0  0
 40 54  1  0  0  0  0
 41 45  1  0  0  0  0
 41 55  1  0  0  0  0
 42 50  1  0  0  0  0
 42 53  1  0  0  0  0
 43 71  1  0  0  0  0
 44 72  1  0  0  0  0
 45 73  1  0  0  0  0
 46 51  1  0  0  0  0
 46 71  1  0  0  0  0
 47 54  1  0  0  0  0
 47 72  1  0  0  0  0
 48 76  1  0  0  0  0
 49 70  1  0  0  0  0
 50 52  1  0  0  0  0
 50 53  1  0  0  0  0
 51 69  1  0  0  0  0
 52 55  1  0  0  0  0
 52 73  1  0  0  0  0
 53 78  1  0  0  0  0
 54 79  1  0  0  0  0
 55 79  1  0  0  0  0
 56 65  1  0  0  0  0
 57 66  1  0  0  0  0
 58 67  1  0  0  0  0
 59 67  1  0  0  0  0
 60 67  1  0  0  0  0
 61 73  1  0  0  0  0
 62 80  1  0  0  0  0
 63 66  1  0  0  0  0
 63 87  1  0  0  0  0
 64 67  1  0  0  0  0
 64 77  1  0  0  0  0
 65 80  1  0  0  0  0
 66 72  1  0  0  0  0
 68 69  1  0  0  0  0
M  CHG  2  79   1  80   1
M  ISO  4  32 100  63 101  78 100  87 101
M  END
> <Batch ID>
0197

> <Smiles>
CNC(C)C(=O)NC(C(=O)N1Cc2cc([101O:1][101CH2:1]C(C)N3CCC(NC4CCN(C)C4C4CC4[100NH:0][100C:0](=O)N4CCCC(n5nc(-c6ccc(Oc7ccc(F)cc7F)cc6)c(C(N)=O)c5N)C4)C3)ccc2CC1C(=O)NC1CCCc2ccccc21)C(C)(C)C

> <Shape>
0.247

> <Color>
0.138

> <Negative vol penalty>
0.000

$$$$
