
  -OEChem-04052323483D

 85 94  0     1  0  0  0  0  0999 V2000
  -21.1870   -4.4157   24.6336 C   0  0  0  0  0  0  0  0  0  0  0  0
  -21.7983   -5.6162   24.9805 C   0  0  0  0  0  0  0  0  0  0  0  0
  -26.4869  -31.6506   23.5263 C   0  0  0  0  0  0  0  0  0  0  0  0
  -26.3851  -33.0056   21.5286 C   0  0  0  0  0  0  0  0  0  0  0  0
  -21.0519   -4.0660   23.2907 C   0  0  0  0  0  0  0  0  0  0  0  0
  -22.2760   -6.4674   23.9846 C   0  0  0  0  0  0  0  0  0  0  0  0
  -23.1881  -13.4270   22.5535 C   0  0  0  0  0  0  0  0  0  0  0  0
  -27.2430  -32.6382   24.1577 C   0  0  0  0  0  0  0  0  0  0  0  0
  -27.1412  -33.9932   22.1600 C   0  0  0  0  0  0  0  0  0  0  0  0
  -24.1746  -14.3213   22.1401 C   0  0  0  0  0  0  0  0  0  0  0  0
  -28.7387  -37.0279   23.3670 C   0  0  0  0  0  0  0  0  0  0  0  0
  -28.3219  -38.3518   23.2295 C   0  0  0  0  0  0  0  0  0  0  0  0
  -23.8151  -13.6504   19.8510 C   0  0  0  0  0  0  0  0  0  0  0  0
  -26.8980  -18.4063   20.6425 C   0  0  0  0  0  0  0  0  0  0  0  0
  -26.2117  -37.7951   24.2658 C   0  0  0  0  0  0  0  0  0  0  0  0
  -28.3017  -16.6826   20.2844 C   0  0  0  0  0  0  0  0  0  0  0  0
  -26.0580  -31.8343   22.2118 C   0  0  0  0  0  0  0  0  0  0  0  0
  -23.8750  -30.6934   21.5482 C   0  0  0  0  0  0  0  0  0  0  0  0
  -21.5195   -4.9178   22.2775 C   0  0  0  0  0  0  0  0  0  0  0  0
  -22.5143  -12.6284   21.6182 C   0  0  0  0  0  0  0  0  0  0  0  0
  -22.1483   -6.1282   22.6269 C   0  0  0  0  0  0  0  0  0  0  0  0
  -22.8188  -12.7486   20.2548 C   0  0  0  0  0  0  0  0  0  0  0  0
  -27.0662  -17.0084   20.7990 C   0  0  0  0  0  0  0  0  0  0  0  0
  -27.5701  -33.8095   23.4745 C   0  0  0  0  0  0  0  0  0  0  0  0
  -24.4902  -14.4311   20.7890 C   0  0  0  0  0  0  0  0  0  0  0  0
  -27.8920  -36.0874   23.9538 C   0  0  0  0  0  0  0  0  0  0  0  0
  -27.0584  -38.7355   23.6789 C   0  0  0  0  0  0  0  0  0  0  0  0
  -26.6285  -36.4711   24.4033 C   0  0  0  0  0  0  0  0  0  0  0  0
  -25.2775  -30.8142   21.5589 C   0  0  0  0  0  0  0  0  0  0  0  0
  -28.0357  -18.8923   20.0367 C   0  0  0  0  0  0  0  0  0  0  0  0
  -23.6328  -29.5693   20.7971 C   0  0  0  0  0  0  0  0  0  0  0  0
  -22.8800  -31.5233   22.1623 C   0  0  0  0  0  0  0  0  0  0  0  0
  -22.2440   -9.5007   21.1203 C   0  0  0  0  0  0  0  0  0  0  0  0
  -20.1027  -10.4384   18.8713 C   0  0  0  0  0  0  0  0  0  0  0  0
  -18.9961  -12.8865   16.7668 C   0  0  0  0  0  0  0  0  0  0  0  0
  -27.4561  -24.9452   19.8206 C   0  0  0  0  0  0  0  0  0  0  0  0
  -21.3935   -4.4751   20.8413 C   0  0  0  0  0  0  0  0  0  0  0  0
  -21.4340  -11.6879   22.0775 C   0  0  0  0  0  0  0  0  0  0  0  0
  -22.1103  -11.9286   19.2088 C   0  0  0  0  0  0  0  0  0  0  0  0
  -21.5903   -5.6066   19.8356 C   0  0  0  0  0  0  0  0  0  0  0  0
  -26.0743  -27.3476   17.2504 C   0  0  0  0  0  0  0  0  0  0  0  0
  -22.8191   -6.4348   20.1976 C   0  0  0  0  0  0  0  0  0  0  0  0
  -25.1122  -28.2063   18.0687 C   0  0  0  0  0  0  0  0  0  0  0  0
  -26.5072  -21.4770   18.7498 C   0  0  0  0  0  0  0  0  0  0  0  0
  -26.2297  -25.9420   17.8224 C   0  0  0  0  0  0  0  0  0  0  0  0
  -26.1564  -22.9626   18.7961 C   0  0  0  0  0  0  0  0  0  0  0  0
  -26.4662  -27.1906   19.9685 C   0  0  0  0  0  0  0  0  0  0  0  0
  -28.3282  -22.6287   19.7513 C   0  0  0  0  0  0  0  0  0  0  0  0
  -22.6570   -7.0895   21.5747 C   0  0  1  0  0  0  0  0  0  0  0  0
  -21.1716  -10.5528   21.0925 C   0  0  1  0  0  0  0  0  0  0  0  0
  -25.1519  -27.8785   19.5721 C   0  0  1  0  0  0  0  0  0  0  0  0
  -27.5440  -21.3313   19.8529 C   0  0  2  0  0  0  0  0  0  0  0  0
  -17.2494  -13.3453   15.0245 C   0  0  0  0  0  0  0  0  0  0  0  0
  -30.2511  -17.1005   17.9059 C   0  0  0  0  0  0  0  0  0  0  0  0
  -31.2987  -17.4816   20.1783 C   0  0  0  0  0  0  0  0  0  0  0  0
  -21.6780   -8.7737   16.8571 C   0  0  0  0  0  0  0  0  0  0  0  0
  -20.4960  -10.0015   15.0231 C   0  0  0  0  0  0  0  0  0  0  0  0
  -19.1929   -8.6083   16.6305 C   0  0  0  0  0  0  0  0  0  0  0  0
  -17.8233  -15.0903   18.3563 C   0  0  0  0  0  0  0  0  0  0  0  0
  -26.0978  -16.0730   21.4020 C   0  0  0  0  0  0  0  0  0  1  0  0
  -20.1792  -10.8024   17.4082 C   0  0  1  0  0  0  0  0  0  0  0  0
  -17.6051  -13.4330   16.5004 C   0  0  2  0  0  0  0  0  0  0  0  0
  -30.1909  -17.8993   19.2094 C   0  0  0  0  0  0  0  0  0  0  0  0
  -20.4014   -9.5607   16.4994 C   0  0  0  0  0  0  0  0  0  0  0  0
  -25.8838  -29.8441   20.8694 N   0  0  0  0  0  0  0  0  0  0  0  0
  -28.8818  -17.8355   19.8235 N   0  0  0  0  0  0  0  0  0  0  0  0
  -24.8573  -29.1030   20.4186 N   0  0  0  0  0  0  0  0  0  0  0  0
  -21.0663  -11.0187   19.7083 N   0  0  0  0  0  0  0  0  0  0  0  0
  -26.6745  -25.9428   19.2209 N   0  0  0  0  0  0  0  0  0  0  0  0
  -27.3236  -23.6270   19.3844 N   0  0  0  0  0  0  0  0  0  0  0  0
  -22.4940  -28.9440   20.4302 N   0  0  0  0  0  0  0  0  0  0  0  0
  -23.3019  -32.6389   22.8983 N   0  0  0  0  0  0  0  0  0  0  0  0
  -28.3867  -20.1813   19.6591 N   0  0  0  0  0  0  0  0  0  0  0  0
  -21.7926   -8.2468   21.4855 N   0  0  0  0  0  0  0  0  0  0  0  0
  -18.9633  -11.5514   17.1098 N   0  0  0  0  0  0  0  0  0  0  0  0
  -17.5202  -14.8604   16.9203 N   0  3  0  0  0  0  0  0  0  0  0  0
  -21.6538  -31.2733   22.0750 O   0  0  0  0  0  0  0  0  0  0  0  0
  -23.3954   -9.8037   20.8303 O   0  0  0  0  0  0  0  0  0  0  0  0
  -19.2160   -9.6731   19.2585 O   0  0  0  0  0  0  0  0  0  0  0  0
  -20.0107  -13.5742   16.6757 O   0  0  0  0  0  0  0  0  0  0  0  0
  -28.2290  -25.2275   20.7483 O   0  0  0  0  0  0  0  0  0  0  0  0
  -28.3076  -34.7736   24.0904 O   0  0  0  0  0  0  0  0  0  0  0  0
  -25.4580  -15.3072   20.3809 O   0  0  0  0  0  0  0  0  0  1  0  0
  -26.6588  -40.0072   23.5482 F   0  0  0  0  0  0  0  0  0  0  0  0
  -25.8111  -35.5724   24.9690 F   0  0  0  0  0  0  0  0  0  0  0  0
  1  2  1  0  0  0  0
  1  5  2  0  0  0  0
  2  6  2  0  0  0  0
  3  8  2  0  0  0  0
  3 17  1  0  0  0  0
  4  9  1  0  0  0  0
  4 17  2  0  0  0  0
  5 19  1  0  0  0  0
  6 21  1  0  0  0  0
  7 10  2  0  0  0  0
  7 20  1  0  0  0  0
  8 24  1  0  0  0  0
  9 24  2  0  0  0  0
 10 25  1  0  0  0  0
 11 12  2  0  0  0  0
 11 26  1  0  0  0  0
 12 27  1  0  0  0  0
 13 22  1  0  0  0  0
 13 25  2  0  0  0  0
 14 23  1  0  0  0  0
 14 30  2  0  0  0  0
 15 27  2  0  0  0  0
 15 28  1  0  0  0  0
 16 23  2  0  0  0  0
 16 66  1  0  0  0  0
 17 29  1  0  0  0  0
 18 29  1  0  0  0  0
 18 31  2  0  0  0  0
 18 32  1  0  0  0  0
 19 21  2  0  0  0  0
 19 37  1  0  0  0  0
 20 22  2  0  0  0  0
 20 38  1  0  0  0  0
 21 49  1  0  0  0  0
 22 39  1  0  0  0  0
 23 60  1  0  0  0  0
 24 82  1  0  0  0  0
 25 83  1  0  0  0  0
 26 28  2  0  0  0  0
 26 82  1  0  0  0  0
 27 84  1  0  0  0  0
 28 85  1  0  0  0  0
 29 65  2  0  0  0  0
 30 66  1  0  0  0  0
 30 73  1  0  0  0  0
 31 67  1  0  0  0  0
 31 71  1  0  0  0  0
 32 72  1  0  0  0  0
 32 77  2  0  0  0  0
 33 50  1  0  0  0  0
 33 74  1  0  0  0  0
 33 78  2  0  0  0  0
 34 61  1  0  0  0  0
 34 68  1  0  0  0  0
 34 79  2  0  0  0  0
 35 62  1  0  0  0  0
 35 75  1  0  0  0  0
 35 80  2  0  0  0  0
 36 69  1  0  0  0  0
 36 70  1  0  0  0  0
 36 81  2  0  0  0  0
 37 40  1  0  0  0  0
 38 50  1  0  0  0  0
 39 68  1  0  0  0  0
 40 42  1  0  0  0  0
 41 43  1  0  0  0  0
 41 45  1  0  0  0  0
 42 49  1  0  0  0  0
 43 51  1  0  0  0  0
 44 46  1  0  0  0  0
 44 52  1  0  0  0  0
 45 69  1  0  0  0  0
 46 70  1  0  0  0  0
 47 51  1  0  0  0  0
 47 69  1  0  0  0  0
 48 52  1  0  0  0  0
 48 70  1  0  0  0  0
 49 74  1  0  0  0  0
 50 68  1  0  0  0  0
 51 67  1  0  0  0  0
 52 73  1  0  0  0  0
 53 62  1  0  0  0  0
 54 63  1  0  0  0  0
 55 63  1  0  0  0  0
 56 64  1  0  0  0  0
 57 64  1  0  0  0  0
 58 64  1  0  0  0  0
 59 76  1  0  0  0  0
 60 83  1  0  0  0  0
 61 64  1  0  0  0  0
 61 75  1  0  0  0  0
 62 76  1  0  0  0  0
 63 66  1  0  0  0  0
 65 67  1  0  0  0  0
M  CHG  1  76   1
M  ISO  4  36 100  60 101  70 100  83 101
M  END
> <Batch ID>
0198

> <Smiles>
CNC(C)C(=O)NC(C(=O)N1Cc2cc([101O:1][101CH2:1]c3cc(NC4CC[100N:0]([100C:0](=O)N5CCCC(n6nc(-c7ccc(Oc8ccc(F)cc8F)cc7)c(C(N)=O)c6N)C5)C4)n(C(C)C)c3)ccc2CC1C(=O)NC1CCCc2ccccc21)C(C)(C)C

> <Shape>
0.283

> <Color>
0.058

> <Negative vol penalty>
0.000

$$$$

  -OEChem-04052323483D

 84 93  0     1  0  0  0  0  0999 V2000
  -19.7463  -29.3012   26.9965 C   0  0  0  0  0  0  0  0  0  0  0  0
  -20.9430  -28.7341   26.5703 C   0  0  0  0  0  0  0  0  0  0  0  0
  -22.3850  -14.7358   21.3986 C   0  0  0  0  0  0  0  0  0  0  0  0
  -22.0211  -13.5136   19.3466 C   0  0  0  0  0  0  0  0  0  0  0  0
  -18.7651  -29.6380   26.0649 C   0  0  0  0  0  0  0  0  0  0  0  0
  -21.1589  -28.5024   25.2123 C   0  0  0  0  0  0  0  0  0  0  0  0
  -26.4806  -28.9080   22.2088 C   0  0  0  0  0  0  0  0  0  0  0  0
  -21.1143  -15.3001   21.2879 C   0  0  0  0  0  0  0  0  0  0  0  0
  -20.7503  -14.0779   19.2359 C   0  0  0  0  0  0  0  0  0  0  0  0
  -27.4111  -27.9473   21.8152 C   0  0  0  0  0  0  0  0  0  0  0  0
  -19.6382  -17.7892   19.5415 C   0  0  0  0  0  0  0  0  0  0  0  0
  -19.5156  -19.1588   19.7753 C   0  0  0  0  0  0  0  0  0  0  0  0
  -26.3925  -27.8648   19.6301 C   0  0  0  0  0  0  0  0  0  0  0  0
  -17.9830  -18.7120   21.5888 C   0  0  0  0  0  0  0  0  0  0  0  0
  -22.8385  -13.8426   20.4279 C   0  0  0  0  0  0  0  0  0  0  0  0
  -24.4957  -12.0609   21.1941 C   0  0  0  0  0  0  0  0  0  0  0  0
  -18.9730  -29.4193   24.6939 C   0  0  0  0  0  0  0  0  0  0  0  0
  -25.4906  -29.3471   21.3180 C   0  0  0  0  0  0  0  0  0  0  0  0
  -20.1791  -28.8354   24.2616 C   0  0  0  0  0  0  0  0  0  0  0  0
  -25.4522  -28.8330   20.0140 C   0  0  0  0  0  0  0  0  0  0  0  0
  -20.2969  -14.9712   20.2066 C   0  0  0  0  0  0  0  0  0  0  0  0
  -27.3654  -27.4234   20.5266 C   0  0  0  0  0  0  0  0  0  0  0  0
  -18.9332  -16.8809   20.3313 C   0  0  0  0  0  0  0  0  0  0  0  0
  -18.6879  -19.6202   20.7989 C   0  0  0  0  0  0  0  0  0  0  0  0
  -18.1056  -17.3423   21.3549 C   0  0  0  0  0  0  0  0  0  0  0  0
  -24.1513  -13.2598   20.5414 C   0  0  0  0  0  0  0  0  0  0  0  0
  -25.8534  -11.9516   21.0174 C   0  0  0  0  0  0  0  0  0  0  0  0
  -23.6628  -11.1294   21.8971 C   0  0  0  0  0  0  0  0  0  0  0  0
  -22.3134  -29.2620   21.2758 C   0  0  0  0  0  0  0  0  0  0  0  0
  -22.6887  -31.0749   18.6121 C   0  0  0  0  0  0  0  0  0  0  0  0
  -24.6838  -32.0246   16.0113 C   0  0  0  0  0  0  0  0  0  0  0  0
  -30.1435  -15.9940   19.9944 C   0  0  0  0  0  0  0  0  0  0  0  0
  -17.8641  -29.7561   23.7287 C   0  0  0  0  0  0  0  0  0  0  0  0
  -24.5108  -30.4036   21.7494 C   0  0  0  0  0  0  0  0  0  0  0  0
  -24.4219  -29.2859   19.0131 C   0  0  0  0  0  0  0  0  0  0  0  0
  -18.3222  -29.8236   22.2741 C   0  0  0  0  0  0  0  0  0  0  0  0
  -29.3645  -13.1636   18.0297 C   0  0  0  0  0  0  0  0  0  0  0  0
  -19.1929  -28.6187   21.9322 C   0  0  0  0  0  0  0  0  0  0  0  0
  -27.9606  -12.7681   18.4790 C   0  0  0  0  0  0  0  0  0  0  0  0
  -29.9159  -19.0237   22.1079 C   0  0  0  0  0  0  0  0  0  0  0  0
  -27.8326  -24.5343   21.6961 C   0  0  0  0  0  0  0  0  0  0  0  0
  -29.6516  -24.3904   20.5882 C   0  0  0  0  0  0  0  0  0  0  0  0
  -29.5160  -14.6786   18.0005 C   0  0  0  0  0  0  0  0  0  0  0  0
  -30.7104  -17.8829   21.4912 C   0  0  0  0  0  0  0  0  0  0  0  0
  -28.4369  -17.7632   20.7317 C   0  0  0  0  0  0  0  0  0  0  0  0
  -27.8378  -14.9391   19.8074 C   0  0  0  0  0  0  0  0  0  0  0  0
  -20.4604  -28.5914   22.7949 C   0  0  1  0  0  0  0  0  0  0  0  0
  -23.2277  -30.4013   20.9241 C   0  0  1  0  0  0  0  0  0  0  0  0
  -28.7651  -19.2055   21.1175 C   0  0  1  0  0  0  0  0  0  0  0  0
  -27.6241  -13.4115   19.8332 C   0  0  1  0  0  0  0  0  0  0  0  0
  -28.9979  -23.5239   21.6838 C   0  0  0  0  0  0  0  0  0  0  0  0
  -28.8194  -25.5801   21.1245 C   0  0  0  0  0  0  0  0  0  1  0  0
  -25.1608  -20.6761   21.2017 C   0  0  0  0  0  0  0  0  0  0  0  0
  -24.7015  -33.4924   13.9760 C   0  0  0  0  0  0  0  0  0  0  0  0
  -20.9420  -29.0515   17.1407 C   0  0  0  0  0  0  0  0  0  0  0  0
  -21.7655  -30.0153   14.9817 C   0  0  0  0  0  0  0  0  0  0  0  0
  -20.4758  -31.4415   16.5708 C   0  0  0  0  0  0  0  0  0  0  0  0
  -26.9460  -33.6285   17.0452 C   0  0  0  0  0  0  0  0  0  0  0  0
  -26.4273  -20.0146   20.6781 C   0  0  0  0  0  0  0  0  0  0  0  0
  -27.9947  -21.3323   22.2618 C   0  0  0  0  0  0  0  0  0  0  0  0
  -22.8515  -30.7893   17.1387 C   0  0  1  0  0  0  0  0  0  0  0  0
  -25.0324  -33.3941   15.4571 C   0  0  2  0  0  0  0  0  0  0  0  0
  -27.5831  -19.9567   21.7037 C   0  0  2  0  0  0  0  0  0  0  0  0
  -21.5270  -30.3142   16.4772 C   0  0  0  0  0  0  0  0  0  0  0  0
  -25.2053  -13.8685   19.9913 N   0  0  0  0  0  0  0  0  0  0  0  0
  -26.2253  -13.0490   20.2980 N   0  0  0  0  0  0  0  0  0  0  0  0
  -23.4818  -30.3162   19.4845 N   0  0  0  0  0  0  0  0  0  0  0  0
  -29.1667  -15.2850   19.2865 N   0  0  0  0  0  0  0  0  0  0  0  0
  -29.7306  -17.0766   20.7698 N   0  0  0  0  0  0  0  0  0  0  0  0
  -26.7535  -11.0248   21.4090 N   0  0  0  0  0  0  0  0  0  0  0  0
  -22.2893  -11.3945   21.9837 N   0  0  0  0  0  0  0  0  0  0  0  0
  -21.4296  -29.5453   22.2995 N   0  0  0  0  0  0  0  0  0  0  0  0
  -23.4140  -31.9989   16.5482 N   0  0  0  0  0  0  0  0  0  0  0  0
  -28.6099  -22.1882   21.2200 N   0  3  0  0  0  0  0  0  0  0  0  0
  -26.4865  -33.6694   15.6330 N   0  3  0  0  0  0  0  0  0  0  0  0
  -24.1254  -10.1011   22.4467 O   0  0  0  0  0  0  0  0  0  0  0  0
  -22.4022  -28.2047   20.6626 O   0  0  0  0  0  0  0  0  0  0  0  0
  -21.8925  -31.9443   18.9752 O   0  0  0  0  0  0  0  0  0  0  0  0
  -25.4589  -31.0717   15.9686 O   0  0  0  0  0  0  0  0  0  0  0  0
  -31.3431  -15.6992   19.9048 O   0  0  0  0  0  0  0  0  0  0  0  0
  -19.0567  -15.5215   20.0984 O   0  0  0  0  0  0  0  0  0  0  0  0
  -28.2825  -26.4742   20.1356 O   0  0  0  0  0  0  0  0  0  1  0  0
  -18.5714  -20.9354   21.0244 F   0  0  0  0  0  0  0  0  0  0  0  0
  -17.4268  -16.4745   22.1177 F   0  0  0  0  0  0  0  0  0  0  0  0
  1  2  1  0  0  0  0
  1  5  2  0  0  0  0
  2  6  2  0  0  0  0
  3  8  2  0  0  0  0
  3 15  1  0  0  0  0
  4  9  1  0  0  0  0
  4 15  2  0  0  0  0
  5 17  1  0  0  0  0
  6 19  1  0  0  0  0
  7 10  2  0  0  0  0
  7 18  1  0  0  0  0
  8 21  1  0  0  0  0
  9 21  2  0  0  0  0
 10 22  1  0  0  0  0
 11 12  2  0  0  0  0
 11 23  1  0  0  0  0
 12 24  1  0  0  0  0
 13 20  1  0  0  0  0
 13 22  2  0  0  0  0
 14 24  2  0  0  0  0
 14 25  1  0  0  0  0
 15 26  1  0  0  0  0
 16 26  1  0  0  0  0
 16 27  2  0  0  0  0
 16 28  1  0  0  0  0
 17 19  2  0  0  0  0
 17 33  1  0  0  0  0
 18 20  2  0  0  0  0
 18 34  1  0  0  0  0
 19 47  1  0  0  0  0
 20 35  1  0  0  0  0
 21 81  1  0  0  0  0
 22 82  1  0  0  0  0
 23 25  2  0  0  0  0
 23 81  1  0  0  0  0
 24 83  1  0  0  0  0
 25 84  1  0  0  0  0
 26 65  2  0  0  0  0
 27 66  1  0  0  0  0
 27 70  1  0  0  0  0
 28 71  1  0  0  0  0
 28 76  2  0  0  0  0
 29 48  1  0  0  0  0
 29 72  1  0  0  0  0
 29 77  2  0  0  0  0
 30 61  1  0  0  0  0
 30 67  1  0  0  0  0
 30 78  2  0  0  0  0
 31 62  1  0  0  0  0
 31 73  1  0  0  0  0
 31 79  2  0  0  0  0
 32 68  1  0  0  0  0
 32 69  1  0  0  0  0
 32 80  2  0  0  0  0
 33 36  1  0  0  0  0
 34 48  1  0  0  0  0
 35 67  1  0  0  0  0
 36 38  1  0  0  0  0
 37 39  1  0  0  0  0
 37 43  1  0  0  0  0
 38 47  1  0  0  0  0
 39 50  1  0  0  0  0
 40 44  1  0  0  0  0
 40 49  1  0  0  0  0
 41 51  1  0  0  0  0
 41 52  1  0  0  0  0
 42 51  1  0  0  0  0
 42 52  1  0  0  0  0
 43 68  1  0  0  0  0
 44 69  1  0  0  0  0
 45 49  1  0  0  0  0
 45 69  1  0  0  0  0
 46 50  1  0  0  0  0
 46 68  1  0  0  0  0
 47 72  1  0  0  0  0
 48 67  1  0  0  0  0
 49 63  1  0  0  0  0
 50 66  1  0  0  0  0
 51 74  1  0  0  0  0
 52 82  1  0  0  0  0
 53 59  1  0  0  0  0
 54 62  1  0  0  0  0
 55 64  1  0  0  0  0
 56 64  1  0  0  0  0
 57 64  1  0  0  0  0
 58 75  1  0  0  0  0
 59 63  1  0  0  0  0
 60 63  1  0  0  0  0
 60 74  1  0  0  0  0
 61 64  1  0  0  0  0
 61 73  1  0  0  0  0
 62 75  1  0  0  0  0
 65 66  1  0  0  0  0
M  CHG  2  74   1  75   1
M  ISO  4  32 100  52 101  69 100  82 101
M  END
> <Batch ID>
0198

> <Smiles>
CCC(CNC1C[101CH:1]([101O:1]c2ccc3c(c2)CN(C(=O)C(NC(=O)C(C)NC)C(C)(C)C)C(C(=O)NC2CCCc4ccccc42)C3)C1)C1CC[100N:0]([100C:0](=O)N2CCCC(n3nc(-c4ccc(Oc5ccc(F)cc5F)cc4)c(C(N)=O)c3N)C2)C1

> <Shape>
0.240

> <Color>
0.094

> <Negative vol penalty>
0.000

$$$$

  -OEChem-04052323483D

 84 93  0     1  0  0  0  0  0999 V2000
  -20.5664  -18.5834   37.3478 C   0  0  0  0  0  0  0  0  0  0  0  0
  -21.9553  -18.5922   37.2686 C   0  0  0  0  0  0  0  0  0  0  0  0
  -23.1908   -9.8190   19.9314 C   0  0  0  0  0  0  0  0  0  0  0  0
  -23.5682   -9.9998   22.3109 C   0  0  0  0  0  0  0  0  0  0  0  0
  -19.8424  -17.5462   36.7612 C   0  0  0  0  0  0  0  0  0  0  0  0
  -22.6211  -17.5631   36.6038 C   0  0  0  0  0  0  0  0  0  0  0  0
  -28.4630  -16.3368   32.6433 C   0  0  0  0  0  0  0  0  0  0  0  0
  -22.4247   -8.6723   20.1400 C   0  0  0  0  0  0  0  0  0  0  0  0
  -22.8019   -8.8530   22.5195 C   0  0  0  0  0  0  0  0  0  0  0  0
  -29.5692  -15.4900   32.5891 C   0  0  0  0  0  0  0  0  0  0  0  0
  -23.2037   -5.5063   22.2560 C   0  0  0  0  0  0  0  0  0  0  0  0
  -23.7019   -4.5452   23.1355 C   0  0  0  0  0  0  0  0  0  0  0  0
  -28.2106  -13.7918   31.5454 C   0  0  0  0  0  0  0  0  0  0  0  0
  -21.7447   -4.8050   24.5280 C   0  0  0  0  0  0  0  0  0  0  0  0
  -32.4004  -13.4727   28.6639 C   0  0  0  0  0  0  0  0  0  0  0  0
  -31.7252  -11.5059   29.3934 C   0  0  0  0  0  0  0  0  0  0  0  0
  -23.7626  -10.4828   21.0169 C   0  0  0  0  0  0  0  0  0  0  0  0
  -24.1010  -12.9994   20.7730 C   0  0  0  0  0  0  0  0  0  0  0  0
  -20.4992  -16.5089   36.0805 C   0  0  0  0  0  0  0  0  0  0  0  0
  -27.2175  -15.9127   32.1581 C   0  0  0  0  0  0  0  0  0  0  0  0
  -21.9054  -16.5103   36.0088 C   0  0  0  0  0  0  0  0  0  0  0  0
  -27.0907  -14.6360   31.5922 C   0  0  0  0  0  0  0  0  0  0  0  0
  -22.2302   -8.1893   21.4340 C   0  0  0  0  0  0  0  0  0  0  0  0
  -29.4425  -14.2162   32.0427 C   0  0  0  0  0  0  0  0  0  0  0  0
  -21.9760   -6.1169   22.5125 C   0  0  0  0  0  0  0  0  0  0  0  0
  -22.9724   -4.1945   24.2715 C   0  0  0  0  0  0  0  0  0  0  0  0
  -21.2466   -5.7662   23.6485 C   0  0  0  0  0  0  0  0  0  0  0  0
  -24.5546  -11.6671   20.8020 C   0  0  0  0  0  0  0  0  0  0  0  0
  -31.8582  -12.7191   27.6496 C   0  0  0  0  0  0  0  0  0  0  0  0
  -25.2321  -13.7423   20.5380 C   0  0  0  0  0  0  0  0  0  0  0  0
  -22.7756  -13.5191   20.9432 C   0  0  0  0  0  0  0  0  0  0  0  0
  -24.3468  -15.4552   33.4438 C   0  0  0  0  0  0  0  0  0  0  0  0
  -23.4808  -14.9275   30.3626 C   0  0  0  0  0  0  0  0  0  0  0  0
  -24.4101  -14.0197   27.2068 C   0  0  0  0  0  0  0  0  0  0  0  0
  -31.0467  -12.7534   21.5696 C   0  0  0  0  0  0  0  0  0  0  0  0
  -19.6765  -15.3845   35.5032 C   0  0  0  0  0  0  0  0  0  0  0  0
  -26.0403  -16.8480   32.1995 C   0  0  0  0  0  0  0  0  0  0  0  0
  -25.7804  -14.1404   31.0391 C   0  0  0  0  0  0  0  0  0  0  0  0
  -20.4379  -14.5285   34.4942 C   0  0  0  0  0  0  0  0  0  0  0  0
  -29.5204  -13.4702   18.4338 C   0  0  0  0  0  0  0  0  0  0  0  0
  -21.8180  -14.1676   35.0342 C   0  0  0  0  0  0  0  0  0  0  0  0
  -28.0337  -13.2096   18.6825 C   0  0  0  0  0  0  0  0  0  0  0  0
  -30.4016  -12.4810   19.1934 C   0  0  0  0  0  0  0  0  0  0  0  0
  -28.6475  -12.1381   20.8903 C   0  0  0  0  0  0  0  0  0  0  0  0
  -31.1501  -12.2748   25.2802 C   0  0  0  0  0  0  0  0  0  0  0  0
  -32.1762  -14.4062   25.8155 C   0  0  0  0  0  0  0  0  0  0  0  0
  -22.6624  -15.4248   35.2749 C   0  0  1  0  0  0  0  0  0  0  0  0
  -24.6990  -16.1230   32.1447 C   0  0  1  0  0  0  0  0  0  0  0  0
  -27.7201  -13.1457   20.1894 C   0  0  2  0  0  0  0  0  0  0  0  0
  -31.5359  -13.0049   23.9896 C   0  0  2  0  0  0  0  0  0  0  0  0
  -31.5355  -14.4612   24.4306 C   0  0  2  0  0  0  0  0  0  0  0  0
  -23.4741  -13.6438   24.9090 C   0  0  0  0  0  0  0  0  0  0  0  0
  -22.3013  -12.2675   31.2808 C   0  0  0  0  0  0  0  0  0  0  0  0
  -22.2522  -11.5418   28.8852 C   0  0  0  0  0  0  0  0  0  0  0  0
  -20.9053  -13.5093   29.6184 C   0  0  0  0  0  0  0  0  0  0  0  0
  -26.1160  -16.1376   26.0391 C   0  0  0  0  0  0  0  0  0  0  0  0
  -32.7649  -13.0415   31.1678 C   0  0  0  0  0  0  0  0  0  0  0  0
  -31.8040  -13.9986   31.8648 C   0  0  0  0  0  0  0  0  0  1  0  0
  -23.4200  -13.7179   29.4613 C   0  0  1  0  0  0  0  0  0  0  0  0
  -24.1227  -14.6440   25.8532 C   0  0  2  0  0  0  0  0  0  0  0  0
  -22.2441  -12.7675   29.8235 C   0  0  0  0  0  0  0  0  0  0  0  0
  -31.4395  -11.4960   28.1104 N   0  0  0  0  0  0  0  0  0  0  0  0
  -25.8713  -11.5662   20.6014 N   0  0  0  0  0  0  0  0  0  0  0  0
  -32.3078  -12.6825   29.7748 N   0  0  0  0  0  0  0  0  0  0  0  0
  -26.2547  -12.8446   20.4440 N   0  0  0  0  0  0  0  0  0  0  0  0
  -31.7351  -13.1091   26.3333 N   0  0  3  0  0  0  0  0  0  0  0  0
  -24.6571  -15.0896   31.1082 N   0  0  0  0  0  0  0  0  0  0  0  0
  -30.0545  -12.4700   20.6166 N   0  0  0  0  0  0  0  0  0  0  0  0
  -25.4419  -15.0691   20.4047 N   0  0  0  0  0  0  0  0  0  0  0  0
  -21.7290  -12.6168   21.1770 N   0  0  0  0  0  0  0  0  0  0  0  0
  -23.1855  -15.9295   34.0234 N   0  0  0  0  0  0  0  0  0  0  0  0
  -23.3766  -14.2285   28.0953 N   0  0  0  0  0  0  0  0  0  0  0  0
  -30.6320  -12.7281   22.8955 N   0  0  0  0  0  0  0  0  0  0  0  0
  -32.3183  -15.3071   23.5124 N   0  3  0  0  0  0  0  0  0  0  0  0
  -25.3853  -15.1299   25.2282 N   0  3  0  0  0  0  0  0  0  0  0  0
  -22.5242  -14.7461   20.8733 O   0  0  0  0  0  0  0  0  0  0  0  0
  -25.0739  -14.5738   33.8867 O   0  0  0  0  0  0  0  0  0  0  0  0
  -22.5229  -15.7039   30.3981 O   0  0  0  0  0  0  0  0  0  0  0  0
  -25.4461  -13.4049   27.4502 O   0  0  0  0  0  0  0  0  0  0  0  0
  -32.2144  -13.0152   21.2613 O   0  0  0  0  0  0  0  0  0  0  0  0
  -21.4824   -7.0704   21.6379 O   0  0  0  0  0  0  0  0  0  0  0  0
  -30.5205  -13.3875   31.9892 O   0  0  0  0  0  0  0  0  0  1  0  0
  -23.4503   -3.2704   25.1152 F   0  0  0  0  0  0  0  0  0  0  0  0
  -20.0660   -6.3485   23.8996 F   0  0  0  0  0  0  0  0  0  0  0  0
  1  2  1  0  0  0  0
  1  5  2  0  0  0  0
  2  6  2  0  0  0  0
  3  8  2  0  0  0  0
  3 17  1  0  0  0  0
  4  9  1  0  0  0  0
  4 17  2  0  0  0  0
  5 19  1  0  0  0  0
  6 21  1  0  0  0  0
  7 10  2  0  0  0  0
  7 20  1  0  0  0  0
  8 23  1  0  0  0  0
  9 23  2  0  0  0  0
 10 24  1  0  0  0  0
 11 12  2  0  0  0  0
 11 25  1  0  0  0  0
 12 26  1  0  0  0  0
 13 22  1  0  0  0  0
 13 24  2  0  0  0  0
 14 26  2  0  0  0  0
 14 27  1  0  0  0  0
 15 29  2  0  0  0  0
 15 64  1  0  0  0  0
 16 62  2  0  0  0  0
 16 64  1  0  0  0  0
 17 28  1  0  0  0  0
 18 28  1  0  0  0  0
 18 30  2  0  0  0  0
 18 31  1  0  0  0  0
 19 21  2  0  0  0  0
 19 36  1  0  0  0  0
 20 22  2  0  0  0  0
 20 37  1  0  0  0  0
 21 47  1  0  0  0  0
 22 38  1  0  0  0  0
 23 81  1  0  0  0  0
 24 82  1  0  0  0  0
 25 27  2  0  0  0  0
 25 81  1  0  0  0  0
 26 83  1  0  0  0  0
 27 84  1  0  0  0  0
 28 63  2  0  0  0  0
 29 62  1  0  0  0  0
 29 66  1  0  0  0  0
 30 65  1  0  0  0  0
 30 69  1  0  0  0  0
 31 70  1  0  0  0  0
 31 76  2  0  0  0  0
 32 48  1  0  0  0  0
 32 71  1  0  0  0  0
 32 77  2  0  0  0  0
 33 59  1  0  0  0  0
 33 67  1  0  0  0  0
 33 78  2  0  0  0  0
 34 60  1  0  0  0  0
 34 72  1  0  0  0  0
 34 79  2  0  0  0  0
 35 68  1  0  0  0  0
 35 73  1  0  0  0  0
 35 80  2  0  0  0  0
 36 39  1  0  0  0  0
 37 48  1  0  0  0  0
 38 67  1  0  0  0  0
 39 41  1  0  0  0  0
 40 42  1  0  0  0  0
 40 43  1  0  0  0  0
 41 47  1  0  0  0  0
 42 49  1  0  0  0  0
 43 68  1  0  0  0  0
 44 49  1  0  0  0  0
 44 68  1  0  0  0  0
 45 50  1  0  0  0  0
 45 66  1  0  0  0  0
 46 51  1  0  0  0  0
 46 66  1  0  0  0  0
 47 71  1  0  0  0  0
 48 67  1  0  0  0  0
 49 65  1  0  0  0  0
 50 51  1  0  0  0  0
 50 73  1  0  0  0  0
 51 74  1  0  0  0  0
 52 60  1  0  0  0  0
 53 61  1  0  0  0  0
 54 61  1  0  0  0  0
 55 61  1  0  0  0  0
 56 75  1  0  0  0  0
 57 58  1  0  0  0  0
 57 64  1  0  0  0  0
 58 82  1  0  0  0  0
 59 61  1  0  0  0  0
 59 72  1  0  0  0  0
 60 75  1  0  0  0  0
 63 65  1  0  0  0  0
M  CHG  2  74   1  75   1
M  ISO  4  35 100  58 101  73 100  82 101
M  END
> <Batch ID>
0198

> <Smiles>
CNC(C)C(=O)NC(C(=O)N1Cc2cc([101O:1][101CH2:1]Cn3cnc(N4CC(N)C([100NH:0][100C:0](=O)N5CCCC(n6nc(-c7ccc(Oc8ccc(F)cc8F)cc7)c(C(N)=O)c6N)C5)C4)c3)ccc2CC1C(=O)NC1CCCc2ccccc21)C(C)(C)C

> <Shape>
0.141

> <Color>
0.171

> <Negative vol penalty>
0.000

$$$$

  -OEChem-04052323483D

 83 92  0     1  0  0  0  0  0999 V2000
  -25.8158  -10.5405   20.7445 C   0  0  0  0  0  0  0  0  0  0  0  0
  -26.6706  -11.4788   20.1749 C   0  0  0  0  0  0  0  0  0  0  0  0
  -21.0073  -26.7222   22.0616 C   0  0  0  0  0  0  0  0  0  0  0  0
  -19.9117  -28.6709   22.9779 C   0  0  0  0  0  0  0  0  0  0  0  0
  -24.4877  -10.8762   21.0043 C   0  0  0  0  0  0  0  0  0  0  0  0
  -26.1974  -12.7531   19.8638 C   0  0  0  0  0  0  0  0  0  0  0  0
  -29.3120  -18.0164   20.1836 C   0  0  0  0  0  0  0  0  0  0  0  0
  -19.8425  -25.9785   22.2507 C   0  0  0  0  0  0  0  0  0  0  0  0
  -18.7470  -27.9271   23.1670 C   0  0  0  0  0  0  0  0  0  0  0  0
  -29.9704  -18.7769   19.2182 C   0  0  0  0  0  0  0  0  0  0  0  0
  -16.8607  -25.5838   20.7062 C   0  0  0  0  0  0  0  0  0  0  0  0
  -16.4421  -24.7583   19.6627 C   0  0  0  0  0  0  0  0  0  0  0  0
  -30.0612  -26.5869   17.5269 C   0  0  0  0  0  0  0  0  0  0  0  0
  -28.0098  -20.1623   18.9813 C   0  0  0  0  0  0  0  0  0  0  0  0
  -16.6238  -22.8340   21.1122 C   0  0  0  0  0  0  0  0  0  0  0  0
  -29.6845  -27.3706   18.5902 C   0  0  0  0  0  0  0  0  0  0  0  0
  -21.0419  -28.0685   22.4252 C   0  0  0  0  0  0  0  0  0  0  0  0
  -22.6055  -29.5771   21.0886 C   0  0  0  0  0  0  0  0  0  0  0  0
  -24.0006  -12.1583   20.7051 C   0  0  0  0  0  0  0  0  0  0  0  0
  -27.9916  -18.3169   20.5479 C   0  0  0  0  0  0  0  0  0  0  0  0
  -24.8612  -13.1058   20.1186 C   0  0  0  0  0  0  0  0  0  0  0  0
  -27.3378  -19.4056   19.9535 C   0  0  0  0  0  0  0  0  0  0  0  0
  -18.7124  -26.5809   22.8034 C   0  0  0  0  0  0  0  0  0  0  0  0
  -29.3183  -19.8482   18.6148 C   0  0  0  0  0  0  0  0  0  0  0  0
  -17.1609  -25.0344   21.9527 C   0  0  0  0  0  0  0  0  0  0  0  0
  -16.3236  -23.3834   19.8657 C   0  0  0  0  0  0  0  0  0  0  0  0
  -17.0424  -23.6595   22.1557 C   0  0  0  0  0  0  0  0  0  0  0  0
  -22.2449  -28.8372   22.2306 C   0  0  0  0  0  0  0  0  0  0  0  0
  -30.9017  -25.6087   18.0912 C   0  0  0  0  0  0  0  0  0  0  0  0
  -23.8284  -30.1183   21.4021 C   0  0  0  0  0  0  0  0  0  0  0  0
  -21.8983  -29.7592   19.8547 C   0  0  0  0  0  0  0  0  0  0  0  0
  -25.2172  -16.7728   20.4000 C   0  0  0  0  0  0  0  0  0  0  0  0
  -24.1404  -19.3488   22.0514 C   0  0  0  0  0  0  0  0  0  0  0  0
  -24.5413  -22.6361   22.8760 C   0  0  0  0  0  0  0  0  0  0  0  0
  -28.9761  -29.4766   23.5077 C   0  0  0  0  0  0  0  0  0  0  0  0
  -22.5450  -12.4597   20.9605 C   0  0  0  0  0  0  0  0  0  0  0  0
  -27.3047  -17.5033   21.6102 C   0  0  0  0  0  0  0  0  0  0  0  0
  -25.9273  -19.7822   20.3239 C   0  0  0  0  0  0  0  0  0  0  0  0
  -22.2203  -13.9512   20.9465 C   0  0  0  0  0  0  0  0  0  0  0  0
  -26.3206  -30.3361   25.7983 C   0  0  0  0  0  0  0  0  0  0  0  0
  -22.8637  -14.6264   19.7395 C   0  0  0  0  0  0  0  0  0  0  0  0
  -25.0510  -30.0595   24.9906 C   0  0  0  0  0  0  0  0  0  0  0  0
  -27.4458  -29.3650   25.4443 C   0  0  0  0  0  0  0  0  0  0  0  0
  -26.4858  -28.9976   23.2084 C   0  0  0  0  0  0  0  0  0  0  0  0
  -28.7325  -27.6730   21.7175 C   0  0  0  0  0  0  0  0  0  0  0  0
  -30.4100  -28.9255   21.3881 C   0  0  0  0  0  0  0  0  0  0  0  0
  -24.3917  -14.5063   19.7897 C   0  0  1  0  0  0  0  0  0  0  0  0
  -25.7831  -17.5820   21.5326 C   0  0  1  0  0  0  0  0  0  0  0  0
  -25.3535  -29.9987   23.4815 C   0  0  1  0  0  0  0  0  0  0  0  0
  -30.1479  -27.4186   21.1500 C   0  0  0  0  0  0  0  0  0  0  0  0
  -23.4810  -24.4745   24.2151 C   0  0  0  0  0  0  0  0  0  0  0  0
  -21.9923  -19.6679   19.9080 C   0  0  0  0  0  0  0  0  0  0  0  0
  -21.5941  -21.9912   20.7519 C   0  0  0  0  0  0  0  0  0  0  0  0
  -21.1931  -20.0366   22.2489 C   0  0  0  0  0  0  0  0  0  0  0  0
  -26.9402  -22.9335   24.5835 C   0  0  0  0  0  0  0  0  0  0  0  0
  -31.6005  -24.4858   17.3828 C   0  0  0  0  0  0  0  0  0  0  0  0
  -31.8336  -22.0086   17.1635 C   0  0  0  0  0  0  0  0  0  0  0  0
  -31.3763  -20.7038   17.7853 C   0  0  0  0  0  0  0  0  0  1  0  0
  -23.5666  -20.6944   21.6783 C   0  0  1  0  0  0  0  0  0  0  0  0
  -24.5052  -23.3503   24.2150 C   0  0  2  0  0  0  0  0  0  0  0  0
  -22.1124  -20.5895   21.1382 C   0  0  0  0  0  0  0  0  0  0  0  0
  -23.1644  -28.9001   23.1973 N   0  0  0  0  0  0  0  0  0  0  0  0
  -31.0506  -25.7554   19.4104 N   0  0  0  0  0  0  0  0  0  0  0  0
  -30.2986  -26.8351   19.6839 N   0  0  0  0  0  0  0  0  0  0  0  0
  -24.1149  -29.6861   22.6635 N   0  0  0  0  0  0  0  0  0  0  0  0
  -25.2959  -18.9524   21.3633 N   0  0  0  0  0  0  0  0  0  0  0  0
  -27.6746  -29.3409   23.9974 N   0  0  0  0  0  0  0  0  0  0  0  0
  -29.2813  -28.8906   22.3023 N   0  0  0  0  0  0  0  0  0  0  0  0
  -24.6758  -30.9168   20.7189 N   0  0  0  0  0  0  0  0  0  0  0  0
  -20.6545  -29.1323   19.6988 N   0  0  0  0  0  0  0  0  0  0  0  0
  -24.9429  -15.4591   20.7293 N   0  0  0  0  0  0  0  0  0  0  0  0
  -23.7058  -21.5392   22.8595 N   0  0  0  0  0  0  0  0  0  0  0  0
  -25.8412  -23.9316   24.5282 N   0  3  0  0  0  0  0  0  0  0  0  0
  -31.2036  -23.1428   17.8854 N   0  3  0  0  0  0  0  0  0  0  0  0
  -22.3633  -30.4436   18.9120 O   0  0  0  0  0  0  0  0  0  0  0  0
  -25.0410  -17.3016   19.3087 O   0  0  0  0  0  0  0  0  0  0  0  0
  -23.5878  -18.6773   22.9263 O   0  0  0  0  0  0  0  0  0  0  0  0
  -25.2379  -23.0155   21.9372 O   0  0  0  0  0  0  0  0  0  0  0  0
  -29.8362  -30.1292   24.1139 O   0  0  0  0  0  0  0  0  0  0  0  0
  -17.5756  -25.8555   22.9879 O   0  0  0  0  0  0  0  0  0  0  0  0
  -29.9583  -20.5918   17.6717 O   0  0  0  0  0  0  0  0  0  1  0  0
  -15.9202  -22.5909   18.8640 F   0  0  0  0  0  0  0  0  0  0  0  0
  -17.3283  -23.1261   23.3514 F   0  0  0  0  0  0  0  0  0  0  0  0
  1  2  1  0  0  0  0
  1  5  2  0  0  0  0
  2  6  2  0  0  0  0
  3  8  2  0  0  0  0
  3 17  1  0  0  0  0
  4  9  1  0  0  0  0
  4 17  2  0  0  0  0
  5 19  1  0  0  0  0
  6 21  1  0  0  0  0
  7 10  2  0  0  0  0
  7 20  1  0  0  0  0
  8 23  1  0  0  0  0
  9 23  2  0  0  0  0
 10 24  1  0  0  0  0
 11 12  2  0  0  0  0
 11 25  1  0  0  0  0
 12 26  1  0  0  0  0
 13 16  2  0  0  0  0
 13 29  1  0  0  0  0
 14 22  1  0  0  0  0
 14 24  2  0  0  0  0
 15 26  2  0  0  0  0
 15 27  1  0  0  0  0
 16 64  1  0  0  0  0
 17 28  1  0  0  0  0
 18 28  1  0  0  0  0
 18 30  2  0  0  0  0
 18 31  1  0  0  0  0
 19 21  2  0  0  0  0
 19 36  1  0  0  0  0
 20 22  2  0  0  0  0
 20 37  1  0  0  0  0
 21 47  1  0  0  0  0
 22 38  1  0  0  0  0
 23 80  1  0  0  0  0
 24 81  1  0  0  0  0
 25 27  2  0  0  0  0
 25 80  1  0  0  0  0
 26 82  1  0  0  0  0
 27 83  1  0  0  0  0
 28 62  2  0  0  0  0
 29 56  1  0  0  0  0
 29 63  2  0  0  0  0
 30 65  1  0  0  0  0
 30 69  1  0  0  0  0
 31 70  1  0  0  0  0
 31 75  2  0  0  0  0
 32 48  1  0  0  0  0
 32 71  1  0  0  0  0
 32 76  2  0  0  0  0
 33 59  1  0  0  0  0
 33 66  1  0  0  0  0
 33 77  2  0  0  0  0
 34 60  1  0  0  0  0
 34 72  1  0  0  0  0
 34 78  2  0  0  0  0
 35 67  1  0  0  0  0
 35 68  1  0  0  0  0
 35 79  2  0  0  0  0
 36 39  1  0  0  0  0
 37 48  1  0  0  0  0
 38 66  1  0  0  0  0
 39 41  1  0  0  0  0
 40 42  1  0  0  0  0
 40 43  1  0  0  0  0
 41 47  1  0  0  0  0
 42 49  1  0  0  0  0
 43 67  1  0  0  0  0
 44 49  1  0  0  0  0
 44 67  1  0  0  0  0
 45 50  1  0  0  0  0
 45 68  1  0  0  0  0
 46 50  1  0  0  0  0
 46 68  1  0  0  0  0
 47 71  1  0  0  0  0
 48 66  1  0  0  0  0
 49 65  1  0  0  0  0
 50 64  1  0  0  0  0
 51 60  1  0  0  0  0
 52 61  1  0  0  0  0
 53 61  1  0  0  0  0
 54 61  1  0  0  0  0
 55 73  1  0  0  0  0
 56 74  1  0  0  0  0
 57 58  1  0  0  0  0
 57 74  1  0  0  0  0
 58 81  1  0  0  0  0
 59 61  1  0  0  0  0
 59 72  1  0  0  0  0
 60 73  1  0  0  0  0
 62 65  1  0  0  0  0
 63 64  1  0  0  0  0
M  CHG  2  73   1  74   1
M  ISO  4  35 100  58 101  68 100  81 101
M  END
> <Batch ID>
0198

> <Smiles>
CNC(C)C(=O)NC(C(=O)N1Cc2cc([101O:1][101CH2:1]CNCc3ccn(C4C[100N:0]([100C:0](=O)N5CCCC(n6nc(-c7ccc(Oc8ccc(F)cc8F)cc7)c(C(N)=O)c6N)C5)C4)n3)ccc2CC1C(=O)NC1CCCc2ccccc21)C(C)(C)C

> <Shape>
0.249

> <Color>
0.067

> <Negative vol penalty>
0.000

$$$$

  -OEChem-04052323483D

 86 96  0     1  0  0  0  0  0999 V2000
  -29.6759  -31.0177   27.6733 C   0  0  0  0  0  0  0  0  0  0  0  0
  -29.3924  -30.2747   26.5319 C   0  0  0  0  0  0  0  0  0  0  0  0
  -24.2080   -8.7045   21.8903 C   0  0  0  0  0  0  0  0  0  0  0  0
  -23.6145   -8.3000   19.5835 C   0  0  0  0  0  0  0  0  0  0  0  0
  -28.6354  -31.5481   28.4347 C   0  0  0  0  0  0  0  0  0  0  0  0
  -28.0679  -30.0606   26.1518 C   0  0  0  0  0  0  0  0  0  0  0  0
  -27.3342  -30.7557   21.1896 C   0  0  0  0  0  0  0  0  0  0  0  0
  -23.1087   -7.9527   22.3050 C   0  0  0  0  0  0  0  0  0  0  0  0
  -22.5152   -7.5481   19.9982 C   0  0  0  0  0  0  0  0  0  0  0  0
  -27.7373  -29.7293   20.3365 C   0  0  0  0  0  0  0  0  0  0  0  0
  -22.3010   -4.6841   22.6166 C   0  0  0  0  0  0  0  0  0  0  0  0
  -22.4980   -3.7585   23.6413 C   0  0  0  0  0  0  0  0  0  0  0  0
  -25.4548  -28.9624   20.1905 C   0  0  0  0  0  0  0  0  0  0  0  0
  -20.8625   -4.9103   24.9962 C   0  0  0  0  0  0  0  0  0  0  0  0
  -24.4609   -8.8782   20.5296 C   0  0  0  0  0  0  0  0  0  0  0  0
  -26.8993   -9.1875   19.8470 C   0  0  0  0  0  0  0  0  0  0  0  0
  -27.2977  -31.3487   28.0585 C   0  0  0  0  0  0  0  0  0  0  0  0
  -25.9878  -30.8867   21.5590 C   0  0  0  0  0  0  0  0  0  0  0  0
  -27.0084  -30.5877   26.9097 C   0  0  0  0  0  0  0  0  0  0  0  0
  -25.0368  -29.9928   21.0465 C   0  0  0  0  0  0  0  0  0  0  0  0
  -22.2623   -7.3745   21.3589 C   0  0  0  0  0  0  0  0  0  0  0  0
  -26.7980  -28.8307   19.8391 C   0  0  0  0  0  0  0  0  0  0  0  0
  -21.3848   -5.7229   22.7817 C   0  0  0  0  0  0  0  0  0  0  0  0
  -21.7788   -3.8715   24.8311 C   0  0  0  0  0  0  0  0  0  0  0  0
  -20.6655   -5.8359   23.9715 C   0  0  0  0  0  0  0  0  0  0  0  0
  -25.5959   -9.6552   20.1006 C   0  0  0  0  0  0  0  0  0  0  0  0
  -27.5987  -10.3078   19.4698 C   0  0  0  0  0  0  0  0  0  0  0  0
  -27.4304   -7.8593   19.9438 C   0  0  0  0  0  0  0  0  0  0  0  0
  -24.3928  -30.7618   24.3056 C   0  0  0  0  0  0  0  0  0  0  0  0
  -21.8924  -31.6614   22.4453 C   0  0  0  0  0  0  0  0  0  0  0  0
  -20.4874  -31.7758   19.3373 C   0  0  0  0  0  0  0  0  0  0  0  0
  -26.6509  -16.0464   20.7618 C   0  0  0  0  0  0  0  0  0  0  0  0
  -26.2056  -31.9017   28.9394 C   0  0  0  0  0  0  0  0  0  0  0  0
  -25.5650  -32.0154   22.4589 C   0  0  0  0  0  0  0  0  0  0  0  0
  -23.5760  -30.1024   21.3963 C   0  0  0  0  0  0  0  0  0  0  0  0
  -24.8390  -31.9455   28.2606 C   0  0  0  0  0  0  0  0  0  0  0  0
  -27.0349  -14.5673   17.4036 C   0  0  0  0  0  0  0  0  0  0  0  0
  -24.5525  -30.6255   27.5519 C   0  0  0  0  0  0  0  0  0  0  0  0
  -26.7713  -13.0940   17.7001 C   0  0  0  0  0  0  0  0  0  0  0  0
  -26.2058  -15.4893   18.2967 C   0  0  0  0  0  0  0  0  0  0  0  0
  -29.5958  -23.8102   19.4450 C   0  0  0  0  0  0  0  0  0  0  0  0
  -27.5943  -25.0011   19.6518 C   0  0  0  0  0  0  0  0  0  0  0  0
  -26.1092  -13.7394   20.0496 C   0  0  0  0  0  0  0  0  0  0  0  0
  -28.9108  -19.7963   22.6804 C   0  0  0  0  0  0  0  0  0  0  0  0
  -25.5852  -30.3547   26.4512 C   0  0  1  0  0  0  0  0  0  0  0  0
  -24.2472  -31.7444   23.1783 C   0  0  1  0  0  0  0  0  0  0  0  0
  -28.4921  -18.6971   21.7780 C   0  0  1  0  0  0  0  0  0  0  0  0
  -29.9221  -25.2266   18.9871 C   0  0  2  0  0  0  0  0  0  0  0  0
  -28.5344  -25.8585   18.7900 C   0  0  2  0  0  0  0  0  0  0  0  0
  -26.9703  -12.7973   19.1943 C   0  0  1  0  0  0  0  0  0  0  0  0
  -27.0855  -18.4130   21.3469 C   0  0  1  0  0  0  0  0  0  0  0  0
  -27.7568  -19.6890   20.9300 C   0  0  1  0  0  0  0  0  0  0  0  0
  -18.4200  -32.5391   18.1369 C   0  0  0  0  0  0  0  0  0  0  0  0
  -20.3657  -29.2642   23.5555 C   0  0  0  0  0  0  0  0  0  0  0  0
  -18.7363  -29.5178   21.6716 C   0  0  0  0  0  0  0  0  0  0  0  0
  -19.0100  -31.3544   23.3374 C   0  0  0  0  0  0  0  0  0  0  0  0
  -22.0260  -33.6435   17.6334 C   0  0  0  0  0  0  0  0  0  0  0  0
  -30.7869  -25.2591   17.7363 C   0  0  0  0  0  0  0  0  0  0  0  0
  -28.5126  -27.3222   19.1756 C   0  0  0  0  0  0  0  0  0  1  0  0
  -27.7904  -22.8380   20.7446 C   0  0  0  0  0  0  0  0  0  0  0  0
  -28.7353  -21.9284   21.5070 C   0  0  0  0  0  0  0  0  0  0  0  0
  -20.8398  -30.9339   21.6441 C   0  0  1  0  0  0  0  0  0  0  0  0
  -19.8301  -32.9088   18.5701 C   0  0  2  0  0  0  0  0  0  0  0  0
  -19.7657  -30.2641   22.5469 C   0  0  0  0  0  0  0  0  0  0  0  0
  -25.4720  -10.9701   19.9014 N   0  0  0  0  0  0  0  0  0  0  0  0
  -26.7066  -11.3383   19.5188 N   0  0  0  0  0  0  0  0  0  0  0  0
  -23.2131  -31.2189   22.2847 N   0  0  0  0  0  0  0  0  0  0  0  0
  -26.3609  -15.1475   19.7194 N   0  0  0  0  0  0  0  0  0  0  0  0
  -28.4752  -24.0599   20.3512 N   0  0  1  0  0  0  0  0  0  0  0  0
  -28.8837  -10.5021   19.1044 N   0  0  0  0  0  0  0  0  0  0  0  0
  -26.5742   -6.8251   20.3461 N   0  0  0  0  0  0  0  0  0  0  0  0
  -25.2942  -31.1508   25.2781 N   0  0  0  0  0  0  0  0  0  0  0  0
  -20.3032  -31.9058   20.6976 N   0  0  0  0  0  0  0  0  0  0  0  0
  -26.7945  -17.3785   20.3905 N   0  0  0  0  0  0  0  0  0  0  0  0
  -28.0114  -20.7107   21.9482 N   0  3  2  0  0  0  0  0  0  0  0  0
  -32.0781  -24.5997   18.0283 N   0  3  0  0  0  0  0  0  0  0  0  0
  -20.6242  -33.2393   17.3530 N   0  3  0  0  0  0  0  0  0  0  0  0
  -28.6326   -7.6000   19.6970 O   0  0  0  0  0  0  0  0  0  0  0  0
  -23.7349  -29.7280   24.2948 O   0  0  0  0  0  0  0  0  0  0  0  0
  -21.5561  -32.5928   23.1809 O   0  0  0  0  0  0  0  0  0  0  0  0
  -21.0995  -30.8644   18.7849 O   0  0  0  0  0  0  0  0  0  0  0  0
  -26.7682  -15.6909   21.9397 O   0  0  0  0  0  0  0  0  0  0  0  0
  -21.1897   -6.6406   21.7632 O   0  0  0  0  0  0  0  0  0  0  0  0
  -27.1889  -27.8276   19.0067 O   0  0  0  0  0  0  0  0  0  1  0  0
  -21.9670   -2.9817   25.8144 F   0  0  0  0  0  0  0  0  0  0  0  0
  -19.7831   -6.8310   24.1355 F   0  0  0  0  0  0  0  0  0  0  0  0
  1  2  1  0  0  0  0
  1  5  2  0  0  0  0
  2  6  2  0  0  0  0
  3  8  2  0  0  0  0
  3 15  1  0  0  0  0
  4  9  1  0  0  0  0
  4 15  2  0  0  0  0
  5 17  1  0  0  0  0
  6 19  1  0  0  0  0
  7 10  2  0  0  0  0
  7 18  1  0  0  0  0
  8 21  1  0  0  0  0
  9 21  2  0  0  0  0
 10 22  1  0  0  0  0
 11 12  2  0  0  0  0
 11 23  1  0  0  0  0
 12 24  1  0  0  0  0
 13 20  1  0  0  0  0
 13 22  2  0  0  0  0
 14 24  2  0  0  0  0
 14 25  1  0  0  0  0
 15 26  1  0  0  0  0
 16 26  1  0  0  0  0
 16 27  2  0  0  0  0
 16 28  1  0  0  0  0
 17 19  2  0  0  0  0
 17 33  1  0  0  0  0
 18 20  2  0  0  0  0
 18 34  1  0  0  0  0
 19 45  1  0  0  0  0
 20 35  1  0  0  0  0
 21 83  1  0  0  0  0
 22 84  1  0  0  0  0
 23 25  2  0  0  0  0
 23 83  1  0  0  0  0
 24 85  1  0  0  0  0
 25 86  1  0  0  0  0
 26 65  2  0  0  0  0
 27 66  1  0  0  0  0
 27 70  1  0  0  0  0
 28 71  1  0  0  0  0
 28 78  2  0  0  0  0
 29 46  1  0  0  0  0
 29 72  1  0  0  0  0
 29 79  2  0  0  0  0
 30 62  1  0  0  0  0
 30 67  1  0  0  0  0
 30 80  2  0  0  0  0
 31 63  1  0  0  0  0
 31 73  1  0  0  0  0
 31 81  2  0  0  0  0
 32 68  1  0  0  0  0
 32 74  1  0  0  0  0
 32 82  2  0  0  0  0
 33 36  1  0  0  0  0
 34 46  1  0  0  0  0
 35 67  1  0  0  0  0
 36 38  1  0  0  0  0
 37 39  1  0  0  0  0
 37 40  1  0  0  0  0
 38 45  1  0  0  0  0
 39 50  1  0  0  0  0
 40 68  1  0  0  0  0
 41 48  1  0  0  0  0
 41 69  1  0  0  0  0
 42 49  1  0  0  0  0
 42 69  1  0  0  0  0
 43 50  1  0  0  0  0
 43 68  1  0  0  0  0
 44 47  1  0  0  0  0
 44 75  1  0  0  0  0
 45 72  1  0  0  0  0
 46 67  1  0  0  0  0
 47 51  1  0  0  0  0
 47 52  1  0  0  0  0
 48 49  1  0  0  0  0
 48 58  1  0  0  0  0
 49 59  1  0  0  0  0
 50 66  1  0  0  0  0
 51 52  1  0  0  0  0
 51 74  1  0  0  0  0
 52 75  1  0  0  0  0
 53 63  1  0  0  0  0
 54 64  1  0  0  0  0
 55 64  1  0  0  0  0
 56 64  1  0  0  0  0
 57 77  1  0  0  0  0
 58 76  1  0  0  0  0
 59 84  1  0  0  0  0
 60 61  1  0  0  0  0
 60 69  1  0  0  0  0
 61 75  1  0  0  0  0
 62 64  1  0  0  0  0
 62 73  1  0  0  0  0
 63 77  1  0  0  0  0
 65 66  1  0  0  0  0
M  CHG  3  75   1  76   1  77   1
M  ISO  4  32 100  59 101  74 100  84 101
M  END
> <Batch ID>
0198

> <Smiles>
CNC(C)C(=O)NC(C(=O)N1Cc2cc([101O:1][101CH2:1]C3CN(CCN4CC5C([100NH:0][100C:0](=O)N6CCCC(n7nc(-c8ccc(Oc9ccc(F)cc9F)cc8)c(C(N)=O)c7N)C6)C54)CC3CN)ccc2CC1C(=O)NC1CCCc2ccccc21)C(C)(C)C

> <Shape>
0.275

> <Color>
0.043

> <Negative vol penalty>
0.000

$$$$

  -OEChem-04052323483D

 86 96  0     1  0  0  0  0  0999 V2000
  -28.3634  -37.2606   22.1244 C   0  0  0  0  0  0  0  0  0  0  0  0
  -28.8444  -36.1491   21.4399 C   0  0  0  0  0  0  0  0  0  0  0  0
  -23.3408  -13.9478   20.6684 C   0  0  0  0  0  0  0  0  0  0  0  0
  -22.8846  -11.5837   20.4687 C   0  0  0  0  0  0  0  0  0  0  0  0
  -27.5154  -37.0912   23.2180 C   0  0  0  0  0  0  0  0  0  0  0  0
  -28.4785  -34.8673   21.8493 C   0  0  0  0  0  0  0  0  0  0  0  0
  -27.1488  -28.3354   19.2259 C   0  0  0  0  0  0  0  0  0  0  0  0
  -22.0440  -14.2341   20.2419 C   0  0  0  0  0  0  0  0  0  0  0  0
  -21.5877  -11.8699   20.0423 C   0  0  0  0  0  0  0  0  0  0  0  0
  -27.5221  -27.0047   19.4090 C   0  0  0  0  0  0  0  0  0  0  0  0
  -18.9346  -14.2641   21.5700 C   0  0  0  0  0  0  0  0  0  0  0  0
  -18.2200  -15.2335   22.2736 C   0  0  0  0  0  0  0  0  0  0  0  0
  -29.2712  -22.6419   21.1459 C   0  0  0  0  0  0  0  0  0  0  0  0
  -29.4676  -21.2956   21.3987 C   0  0  0  0  0  0  0  0  0  0  0  0
  -25.9880  -26.8358   21.2631 C   0  0  0  0  0  0  0  0  0  0  0  0
  -18.0218  -16.5505   20.2578 C   0  0  0  0  0  0  0  0  0  0  0  0
  -23.7611  -12.6225   20.7817 C   0  0  0  0  0  0  0  0  0  0  0  0
  -25.5369  -12.1300   22.5458 C   0  0  0  0  0  0  0  0  0  0  0  0
  -27.1311  -35.8070   23.6351 C   0  0  0  0  0  0  0  0  0  0  0  0
  -26.1987  -28.9306   20.0683 C   0  0  0  0  0  0  0  0  0  0  0  0
  -27.6256  -34.6805   22.9504 C   0  0  0  0  0  0  0  0  0  0  0  0
  -25.6025  -28.1735   21.0869 C   0  0  0  0  0  0  0  0  0  0  0  0
  -21.1674  -13.1952   19.9289 C   0  0  0  0  0  0  0  0  0  0  0  0
  -26.9438  -26.2555   20.4295 C   0  0  0  0  0  0  0  0  0  0  0  0
  -19.1929  -14.4379   20.2103 C   0  0  0  0  0  0  0  0  0  0  0  0
  -17.7636  -16.3767   21.6176 C   0  0  0  0  0  0  0  0  0  0  0  0
  -18.7365  -15.5811   19.5542 C   0  0  0  0  0  0  0  0  0  0  0  0
  -25.1008  -12.3262   21.2217 C   0  0  0  0  0  0  0  0  0  0  0  0
  -28.5285  -22.9891   20.0354 C   0  0  0  0  0  0  0  0  0  0  0  0
  -28.9079  -20.3857   20.5244 C   0  0  0  0  0  0  0  0  0  0  0  0
  -26.8824  -11.8792   22.4305 C   0  0  0  0  0  0  0  0  0  0  0  0
  -24.7923  -12.1707   23.7703 C   0  0  0  0  0  0  0  0  0  0  0  0
  -26.2242  -31.3664   22.1103 C   0  0  0  0  0  0  0  0  0  0  0  0
  -23.0428  -30.7552   22.2748 C   0  0  0  0  0  0  0  0  0  0  0  0
  -20.5003  -28.5108   21.8937 C   0  0  0  0  0  0  0  0  0  0  0  0
  -30.1219  -15.0945   20.9604 C   0  0  0  0  0  0  0  0  0  0  0  0
  -26.2503  -35.6722   24.8519 C   0  0  0  0  0  0  0  0  0  0  0  0
  -25.7872  -30.3593   19.8407 C   0  0  0  0  0  0  0  0  0  0  0  0
  -24.5629  -28.7596   22.0056 C   0  0  0  0  0  0  0  0  0  0  0  0
  -25.6105  -34.2933   24.9910 C   0  0  0  0  0  0  0  0  0  0  0  0
  -28.3166  -13.1507   18.3170 C   0  0  0  0  0  0  0  0  0  0  0  0
  -26.6480  -33.1981   24.7649 C   0  0  0  0  0  0  0  0  0  0  0  0
  -26.2584  -18.4756   22.2990 C   0  0  0  0  0  0  0  0  0  0  0  0
  -25.9001  -17.1716   21.6425 C   0  0  0  0  0  0  0  0  0  0  0  0
  -28.3877  -11.7372   18.8900 C   0  0  0  0  0  0  0  0  0  0  0  0
  -29.5024  -13.9815   18.7846 C   0  0  0  0  0  0  0  0  0  0  0  0
  -30.3206  -18.5546   21.4510 C   0  0  0  0  0  0  0  0  0  0  0  0
  -30.9299  -17.4128   20.6499 C   0  0  0  0  0  0  0  0  0  0  0  0
  -29.6468  -12.6738   20.8834 C   0  0  0  0  0  0  0  0  0  0  0  0
  -28.7067  -16.8228   19.7452 C   0  0  0  0  0  0  0  0  0  0  0  0
  -27.2315  -33.2748   23.3489 C   0  0  1  0  0  0  0  0  0  0  0  0
  -25.1874  -31.0132   21.0817 C   0  0  1  0  0  0  0  0  0  0  0  0
  -27.3382  -17.6038   21.7203 C   0  0  0  0  0  0  0  0  0  0  0  0
  -28.5130  -11.7332   20.4259 C   0  0  1  0  0  0  0  0  0  0  0  0
  -28.0720  -18.0296   20.4721 C   0  0  1  0  0  0  0  0  0  0  0  0
  -18.0124  -28.2921   22.1391 C   0  0  0  0  0  0  0  0  0  0  0  0
  -23.3590  -30.5862   25.3048 C   0  0  0  0  0  0  0  0  0  0  0  0
  -21.1275  -29.4554   25.4048 C   0  0  0  0  0  0  0  0  0  0  0  0
  -21.3045  -31.7870   24.5358 C   0  0  0  0  0  0  0  0  0  0  0  0
  -20.1537  -27.9000   19.0186 C   0  0  0  0  0  0  0  0  0  0  0  0
  -28.2859  -24.4251   19.7193 C   0  0  0  0  0  0  0  0  0  1  0  0
  -22.1667  -29.8712   23.1292 C   0  0  1  0  0  0  0  0  0  0  0  0
  -19.1577  -28.6190   21.1935 C   0  0  2  0  0  0  0  0  0  0  0  0
  -22.0104  -30.4142   24.5777 C   0  0  0  0  0  0  0  0  0  0  0  0
  -26.0891  -12.2102   20.3308 N   0  0  0  0  0  0  0  0  0  0  0  0
  -27.9925  -22.0772   19.1968 N   0  0  0  0  0  0  0  0  0  0  0  0
  -28.1852  -20.7540   19.4455 N   0  0  0  0  0  0  0  0  0  0  0  0
  -27.1596  -11.9385   21.0964 N   0  0  0  0  0  0  0  0  0  0  0  0
  -29.1087  -19.0318   20.7776 N   0  0  3  0  0  0  0  0  0  0  0  0
  -24.1985  -30.1624   21.7469 N   0  0  0  0  0  0  0  0  0  0  0  0
  -29.6074  -13.9958   20.2483 N   0  0  0  0  0  0  0  0  0  0  0  0
  -29.9438  -16.3649   20.3938 N   0  0  0  0  0  0  0  0  0  0  0  0
  -27.8435  -11.6161   23.3412 N   0  0  0  0  0  0  0  0  0  0  0  0
  -23.4186  -12.4418   23.7084 N   0  0  0  0  0  0  0  0  0  0  0  0
  -26.3030  -32.7176   22.3888 N   0  0  0  0  0  0  0  0  0  0  0  0
  -20.9076  -29.7239   22.4072 N   0  0  0  0  0  0  0  0  0  0  0  0
  -19.0979  -27.6775   20.0398 N   0  3  0  0  0  0  0  0  0  0  0  0
  -25.3323  -11.9888   24.8878 O   0  0  0  0  0  0  0  0  0  0  0  0
  -26.9015  -30.4786   22.6150 O   0  0  0  0  0  0  0  0  0  0  0  0
  -22.7100  -31.9264   22.0769 O   0  0  0  0  0  0  0  0  0  0  0  0
  -21.1234  -27.4550   21.9799 O   0  0  0  0  0  0  0  0  0  0  0  0
  -30.7068  -14.9456   22.0409 O   0  0  0  0  0  0  0  0  0  0  0  0
  -19.9018  -13.4742   19.5129 O   0  0  0  0  0  0  0  0  0  0  0  0
  -27.3093  -24.9478   20.6121 O   0  0  0  0  0  0  0  0  0  1  0  0
  -17.0760  -17.3068   22.2931 F   0  0  0  0  0  0  0  0  0  0  0  0
  -18.9805  -15.7530   18.2478 F   0  0  0  0  0  0  0  0  0  0  0  0
  1  2  1  0  0  0  0
  1  5  2  0  0  0  0
  2  6  2  0  0  0  0
  3  8  2  0  0  0  0
  3 17  1  0  0  0  0
  4  9  1  0  0  0  0
  4 17  2  0  0  0  0
  5 19  1  0  0  0  0
  6 21  1  0  0  0  0
  7 10  2  0  0  0  0
  7 20  1  0  0  0  0
  8 23  1  0  0  0  0
  9 23  2  0  0  0  0
 10 24  1  0  0  0  0
 11 12  2  0  0  0  0
 11 25  1  0  0  0  0
 12 26  1  0  0  0  0
 13 14  2  0  0  0  0
 13 29  1  0  0  0  0
 14 30  1  0  0  0  0
 15 22  1  0  0  0  0
 15 24  2  0  0  0  0
 16 26  2  0  0  0  0
 16 27  1  0  0  0  0
 17 28  1  0  0  0  0
 18 28  1  0  0  0  0
 18 31  2  0  0  0  0
 18 32  1  0  0  0  0
 19 21  2  0  0  0  0
 19 37  1  0  0  0  0
 20 22  2  0  0  0  0
 20 38  1  0  0  0  0
 21 51  1  0  0  0  0
 22 39  1  0  0  0  0
 23 83  1  0  0  0  0
 24 84  1  0  0  0  0
 25 27  2  0  0  0  0
 25 83  1  0  0  0  0
 26 85  1  0  0  0  0
 27 86  1  0  0  0  0
 28 65  2  0  0  0  0
 29 61  1  0  0  0  0
 29 66  2  0  0  0  0
 30 67  2  0  0  0  0
 30 69  1  0  0  0  0
 31 68  1  0  0  0  0
 31 73  1  0  0  0  0
 32 74  1  0  0  0  0
 32 78  2  0  0  0  0
 33 52  1  0  0  0  0
 33 75  1  0  0  0  0
 33 79  2  0  0  0  0
 34 62  1  0  0  0  0
 34 70  1  0  0  0  0
 34 80  2  0  0  0  0
 35 63  1  0  0  0  0
 35 76  1  0  0  0  0
 35 81  2  0  0  0  0
 36 71  1  0  0  0  0
 36 72  1  0  0  0  0
 36 82  2  0  0  0  0
 37 40  1  0  0  0  0
 38 52  1  0  0  0  0
 39 70  1  0  0  0  0
 40 42  1  0  0  0  0
 41 45  1  0  0  0  0
 41 46  1  0  0  0  0
 42 51  1  0  0  0  0
 43 44  1  0  0  0  0
 43 53  1  0  0  0  0
 44 53  1  0  0  0  0
 45 54  1  0  0  0  0
 46 71  1  0  0  0  0
 47 48  1  0  0  0  0
 47 69  1  0  0  0  0
 48 72  1  0  0  0  0
 49 54  1  0  0  0  0
 49 71  1  0  0  0  0
 50 55  1  0  0  0  0
 50 72  1  0  0  0  0
 51 75  1  0  0  0  0
 52 70  1  0  0  0  0
 53 55  1  0  0  0  0
 54 68  1  0  0  0  0
 55 69  1  0  0  0  0
 56 63  1  0  0  0  0
 57 64  1  0  0  0  0
 58 64  1  0  0  0  0
 59 64  1  0  0  0  0
 60 77  1  0  0  0  0
 61 84  1  0  0  0  0
 62 64  1  0  0  0  0
 62 76  1  0  0  0  0
 63 77  1  0  0  0  0
 65 68  1  0  0  0  0
 66 67  1  0  0  0  0
M  CHG  1  77   1
M  ISO  4  36 100  61 101  72 100  84 101
M  END
> <Batch ID>
0198

> <Smiles>
CNC(C)C(=O)NC(C(=O)N1Cc2cc([101O:1][101CH2:1]c3ccc(N4CC[100N:0]([100C:0](=O)N5CCCC(n6nc(-c7ccc(Oc8ccc(F)cc8F)cc7)c(C(N)=O)c6N)C5)CC4C4CC4)nn3)ccc2CC1C(=O)NC1CCCc2ccccc21)C(C)(C)C

> <Shape>
0.306

> <Color>
0.076

> <Negative vol penalty>
0.000

$$$$

  -OEChem-04052323483D

 85 94  0     1  0  0  0  0  0999 V2000
  -22.8287   -7.8111   21.8994 C   0  0  0  0  0  0  0  0  0  0  0  0
  -24.0676   -8.3759   22.1847 C   0  0  0  0  0  0  0  0  0  0  0  0
  -25.0205  -30.5118   20.3091 C   0  0  0  0  0  0  0  0  0  0  0  0
  -24.1425  -28.8182   21.7917 C   0  0  0  0  0  0  0  0  0  0  0  0
  -22.0350   -8.3492   20.8872 C   0  0  0  0  0  0  0  0  0  0  0  0
  -24.5141   -9.4786   21.4573 C   0  0  0  0  0  0  0  0  0  0  0  0
  -28.4227  -15.4373   22.1871 C   0  0  0  0  0  0  0  0  0  0  0  0
  -24.6604  -31.5002   21.2250 C   0  0  0  0  0  0  0  0  0  0  0  0
  -23.7825  -29.8067   22.7076 C   0  0  0  0  0  0  0  0  0  0  0  0
  -29.4942  -16.1022   21.5924 C   0  0  0  0  0  0  0  0  0  0  0  0
  -22.9581  -31.8548   25.5962 C   0  0  0  0  0  0  0  0  0  0  0  0
  -23.2536  -31.6324   26.9411 C   0  0  0  0  0  0  0  0  0  0  0  0
  -28.0035  -16.9961   19.9198 C   0  0  0  0  0  0  0  0  0  0  0  0
  -25.6034  -31.4815   26.3998 C   0  0  0  0  0  0  0  0  0  0  0  0
  -28.4740  -21.5240   16.7976 C   0  0  0  0  0  0  0  0  0  0  0  0
  -28.1610  -22.0872   18.8999 C   0  0  0  0  0  0  0  0  0  0  0  0
  -24.7615  -29.1707   20.5924 C   0  0  0  0  0  0  0  0  0  0  0  0
  -26.3563  -27.4564   19.5799 C   0  0  0  0  0  0  0  0  0  0  0  0
  -22.4678   -9.4650   20.1535 C   0  0  0  0  0  0  0  0  0  0  0  0
  -27.1333  -15.5383   21.6453 C   0  0  0  0  0  0  0  0  0  0  0  0
  -23.7261  -10.0313   20.4335 C   0  0  0  0  0  0  0  0  0  0  0  0
  -26.9169  -16.3336   20.5109 C   0  0  0  0  0  0  0  0  0  0  0  0
  -27.4805  -21.6610   17.7856 C   0  0  0  0  0  0  0  0  0  0  0  0
  -24.0414  -31.1477   22.4242 C   0  0  0  0  0  0  0  0  0  0  0  0
  -29.2852  -16.8793   20.4569 C   0  0  0  0  0  0  0  0  0  0  0  0
  -23.9852  -31.8904   24.6530 C   0  0  0  0  0  0  0  0  0  0  0  0
  -24.5763  -31.4458   27.3429 C   0  0  0  0  0  0  0  0  0  0  0  0
  -25.3078  -31.7038   25.0548 C   0  0  0  0  0  0  0  0  0  0  0  0
  -25.1326  -28.1492   19.6465 C   0  0  0  0  0  0  0  0  0  0  0  0
  -26.2088  -26.6003   18.5161 C   0  0  0  0  0  0  0  0  0  0  0  0
  -27.5220  -27.5758   20.4060 C   0  0  0  0  0  0  0  0  0  0  0  0
  -25.0544  -13.4791   20.4035 C   0  0  0  0  0  0  0  0  0  0  0  0
  -23.1040  -16.0708   20.3651 C   0  0  0  0  0  0  0  0  0  0  0  0
  -22.8031  -19.4699   20.3138 C   0  0  0  0  0  0  0  0  0  0  0  0
  -22.9745  -22.8107   15.9252 C   0  0  0  0  0  0  0  0  0  0  0  0
  -21.5957   -9.9824   19.0371 C   0  0  0  0  0  0  0  0  0  0  0  0
  -25.9833  -14.8365   22.3142 C   0  0  0  0  0  0  0  0  0  0  0  0
  -25.5483  -16.4910   19.9021 C   0  0  0  0  0  0  0  0  0  0  0  0
  -21.9781  -11.3826   18.5644 C   0  0  0  0  0  0  0  0  0  0  0  0
  -22.6356  -26.3340   14.9420 C   0  0  0  0  0  0  0  0  0  0  0  0
  -23.4870  -11.4856   18.3661 C   0  0  0  0  0  0  0  0  0  0  0  0
  -23.3159  -27.0646   16.1026 C   0  0  0  0  0  0  0  0  0  0  0  0
  -25.5648  -20.3559   16.6132 C   0  0  0  0  0  0  0  0  0  0  0  0
  -22.0016  -25.0166   15.3849 C   0  0  0  0  0  0  0  0  0  0  0  0
  -24.0851  -20.6455   16.4179 C   0  0  0  0  0  0  0  0  0  0  0  0
  -25.1702  -22.6258   17.2246 C   0  0  0  0  0  0  0  0  0  0  0  0
  -23.5699  -24.8506   17.2771 C   0  0  0  0  0  0  0  0  0  0  0  0
  -25.9959  -21.4007   17.6518 C   0  0  2  0  0  0  0  0  0  0  0  0
  -24.2343  -11.2433   19.6831 C   0  0  1  0  0  0  0  0  0  0  0  0
  -24.8037  -14.5957   21.3773 C   0  0  1  0  0  0  0  0  0  0  0  0
  -24.2918  -26.1358   16.8514 C   0  0  2  0  0  0  0  0  0  0  0  0
  -21.0813  -21.2943   20.2475 C   0  0  0  0  0  0  0  0  0  0  0  0
  -22.6381  -15.5202   17.4003 C   0  0  0  0  0  0  0  0  0  0  0  0
  -21.7228  -17.8405   17.1846 C   0  0  0  0  0  0  0  0  0  0  0  0
  -20.5907  -16.1882   18.6716 C   0  0  0  0  0  0  0  0  0  0  0  0
  -23.7044  -20.5736   22.9077 C   0  0  0  0  0  0  0  0  0  0  0  0
  -30.5728  -22.5858   19.3619 C   0  0  0  0  0  0  0  0  0  0  0  0
  -31.6656  -21.5328   19.4913 C   0  0  0  0  0  0  0  0  0  0  0  0
  -32.0841  -19.1571   20.1388 C   0  0  0  0  0  0  0  0  0  0  0  0
  -31.3970  -17.9397   20.7254 C   0  0  0  0  0  0  0  0  0  1  0  0
  -22.8101  -17.1730   19.3763 C   0  0  1  0  0  0  0  0  0  0  0  0
  -21.9498  -20.4181   21.1368 C   0  0  2  0  0  0  0  0  0  0  0  0
  -21.9667  -16.6762   18.1683 C   0  0  0  0  0  0  0  0  0  0  0  0
  -29.6928  -21.8379   17.2448 N   0  0  0  0  0  0  0  0  0  0  0  0
  -24.2713  -27.7665   18.7001 N   0  0  0  0  0  0  0  0  0  0  0  0
  -29.4696  -22.1764   18.5261 N   0  0  0  0  0  0  0  0  0  0  0  0
  -24.9547  -26.8239   18.0288 N   0  0  0  0  0  0  0  0  0  0  0  0
  -24.4572  -15.7800   20.5889 N   0  0  0  0  0  0  0  0  0  0  0  0
  -22.9680  -24.1962   16.1122 N   0  0  0  0  0  0  0  0  0  0  0  0
  -23.9601  -22.0853   16.5995 N   0  0  0  0  0  0  0  0  0  0  0  0
  -27.0307  -25.6856   17.9592 N   0  0  0  0  0  0  0  0  0  0  0  0
  -27.5049  -28.5046   21.4555 N   0  0  0  0  0  0  0  0  0  0  0  0
  -24.1740  -12.4207   20.5224 N   0  0  0  0  0  0  0  0  0  0  0  0
  -22.1861  -18.2493   20.1383 N   0  0  0  0  0  0  0  0  0  0  0  0
  -22.8138  -21.3028   21.9685 N   0  3  0  0  0  0  0  0  0  0  0  0
  -31.1020  -20.2700   20.0284 N   0  3  0  0  0  0  0  0  0  0  0  0
  -28.5545  -26.8913   20.2089 O   0  0  0  0  0  0  0  0  0  0  0  0
  -25.9773  -13.5717   19.6027 O   0  0  0  0  0  0  0  0  0  0  0  0
  -22.1676  -15.4941   20.9238 O   0  0  0  0  0  0  0  0  0  0  0  0
  -23.9050  -19.7821   19.8678 O   0  0  0  0  0  0  0  0  0  0  0  0
  -22.1768  -22.2626   15.1543 O   0  0  0  0  0  0  0  0  0  0  0  0
  -23.6902  -32.1120   23.3183 O   0  0  0  0  0  0  0  0  0  0  0  0
  -30.3370  -17.5334   19.8699 O   0  0  0  0  0  0  0  0  0  1  0  0
  -24.8601  -31.2338   28.6347 F   0  0  0  0  0  0  0  0  0  0  0  0
  -26.2989  -31.7381   24.1535 F   0  0  0  0  0  0  0  0  0  0  0  0
  1  2  1  0  0  0  0
  1  5  2  0  0  0  0
  2  6  2  0  0  0  0
  3  8  2  0  0  0  0
  3 17  1  0  0  0  0
  4  9  1  0  0  0  0
  4 17  2  0  0  0  0
  5 19  1  0  0  0  0
  6 21  1  0  0  0  0
  7 10  2  0  0  0  0
  7 20  1  0  0  0  0
  8 24  1  0  0  0  0
  9 24  2  0  0  0  0
 10 25  1  0  0  0  0
 11 12  2  0  0  0  0
 11 26  1  0  0  0  0
 12 27  1  0  0  0  0
 13 22  1  0  0  0  0
 13 25  2  0  0  0  0
 14 27  2  0  0  0  0
 14 28  1  0  0  0  0
 15 23  1  0  0  0  0
 15 64  2  0  0  0  0
 16 23  2  0  0  0  0
 16 66  1  0  0  0  0
 17 29  1  0  0  0  0
 18 29  1  0  0  0  0
 18 30  2  0  0  0  0
 18 31  1  0  0  0  0
 19 21  2  0  0  0  0
 19 36  1  0  0  0  0
 20 22  2  0  0  0  0
 20 37  1  0  0  0  0
 21 49  1  0  0  0  0
 22 38  1  0  0  0  0
 23 48  1  0  0  0  0
 24 82  1  0  0  0  0
 25 83  1  0  0  0  0
 26 28  2  0  0  0  0
 26 82  1  0  0  0  0
 27 84  1  0  0  0  0
 28 85  1  0  0  0  0
 29 65  2  0  0  0  0
 30 67  1  0  0  0  0
 30 71  1  0  0  0  0
 31 72  1  0  0  0  0
 31 77  2  0  0  0  0
 32 50  1  0  0  0  0
 32 73  1  0  0  0  0
 32 78  2  0  0  0  0
 33 61  1  0  0  0  0
 33 68  1  0  0  0  0
 33 79  2  0  0  0  0
 34 62  1  0  0  0  0
 34 74  1  0  0  0  0
 34 80  2  0  0  0  0
 35 69  1  0  0  0  0
 35 70  1  0  0  0  0
 35 81  2  0  0  0  0
 36 39  1  0  0  0  0
 37 50  1  0  0  0  0
 38 68  1  0  0  0  0
 39 41  1  0  0  0  0
 40 42  1  0  0  0  0
 40 44  1  0  0  0  0
 41 49  1  0  0  0  0
 42 51  1  0  0  0  0
 43 45  1  0  0  0  0
 43 48  1  0  0  0  0
 44 69  1  0  0  0  0
 45 70  1  0  0  0  0
 46 48  1  0  0  0  0
 46 70  1  0  0  0  0
 47 51  1  0  0  0  0
 47 69  1  0  0  0  0
 49 73  1  0  0  0  0
 50 68  1  0  0  0  0
 51 67  1  0  0  0  0
 52 62  1  0  0  0  0
 53 63  1  0  0  0  0
 54 63  1  0  0  0  0
 55 63  1  0  0  0  0
 56 75  1  0  0  0  0
 57 58  1  0  0  0  0
 57 66  1  0  0  0  0
 58 76  1  0  0  0  0
 59 60  1  0  0  0  0
 59 76  1  0  0  0  0
 60 83  1  0  0  0  0
 61 63  1  0  0  0  0
 61 74  1  0  0  0  0
 62 75  1  0  0  0  0
 64 66  1  0  0  0  0
 65 67  1  0  0  0  0
M  CHG  2  75   1  76   1
M  ISO  4  35 100  60 101  70 100  83 101
M  END
> <Batch ID>
0198

> <Smiles>
CNC(C)C(=O)NC(C(=O)N1Cc2cc([101O:1][101CH2:1]CNCCn3cc(C4CC[100N:0]([100C:0](=O)N5CCCC(n6nc(-c7ccc(Oc8ccc(F)cc8F)cc7)c(C(N)=O)c6N)C5)C4)cn3)ccc2CC1C(=O)NC1CCCc2ccccc21)C(C)(C)C

> <Shape>
0.225

> <Color>
0.091

> <Negative vol penalty>
0.000

$$$$

  -OEChem-04052323483D

 83 92  0     1  0  0  0  0  0999 V2000
  -34.3735   -9.4121   17.0663 C   0  0  0  0  0  0  0  0  0  0  0  0
  -34.0117  -10.7526   17.1521 C   0  0  0  0  0  0  0  0  0  0  0  0
  -25.2645  -31.2763   23.8952 C   0  0  0  0  0  0  0  0  0  0  0  0
  -24.7401  -32.9671   22.2510 C   0  0  0  0  0  0  0  0  0  0  0  0
  -33.3897   -8.4324   16.9390 C   0  0  0  0  0  0  0  0  0  0  0  0
  -32.6657  -11.1144   17.1096 C   0  0  0  0  0  0  0  0  0  0  0  0
  -31.4687  -14.5615   20.6210 C   0  0  0  0  0  0  0  0  0  0  0  0
  -25.3817  -32.2638   24.8733 C   0  0  0  0  0  0  0  0  0  0  0  0
  -24.8572  -33.9546   23.2291 C   0  0  0  0  0  0  0  0  0  0  0  0
  -31.8250  -15.8843   20.3621 C   0  0  0  0  0  0  0  0  0  0  0  0
  -22.9827  -35.1918   25.7542 C   0  0  0  0  0  0  0  0  0  0  0  0
  -21.9968  -36.1775   25.7991 C   0  0  0  0  0  0  0  0  0  0  0  0
  -29.5633  -16.3506   19.6647 C   0  0  0  0  0  0  0  0  0  0  0  0
  -23.6746  -37.8730   25.4146 C   0  0  0  0  0  0  0  0  0  0  0  0
  -24.9438  -31.6279   22.5840 C   0  0  0  0  0  0  0  0  0  0  0  0
  -23.9288  -29.5212   21.5646 C   0  0  0  0  0  0  0  0  0  0  0  0
  -32.0304   -8.7816   16.9047 C   0  0  0  0  0  0  0  0  0  0  0  0
  -30.1575  -14.1199   20.3929 C   0  0  0  0  0  0  0  0  0  0  0  0
  -31.6628  -10.1386   16.9804 C   0  0  0  0  0  0  0  0  0  0  0  0
  -29.1923  -15.0224   19.9239 C   0  0  0  0  0  0  0  0  0  0  0  0
  -25.1780  -33.6030   24.5403 C   0  0  0  0  0  0  0  0  0  0  0  0
  -30.8729  -16.7784   19.8811 C   0  0  0  0  0  0  0  0  0  0  0  0
  -24.3145  -35.5467   25.5396 C   0  0  0  0  0  0  0  0  0  0  0  0
  -22.3427  -37.5181   25.6293 C   0  0  0  0  0  0  0  0  0  0  0  0
  -24.6604  -36.8872   25.3698 C   0  0  0  0  0  0  0  0  0  0  0  0
  -24.8232  -30.6084   21.5731 C   0  0  0  0  0  0  0  0  0  0  0  0
  -24.2110  -28.8536   20.3979 C   0  0  0  0  0  0  0  0  0  0  0  0
  -22.9320  -29.1483   22.5253 C   0  0  0  0  0  0  0  0  0  0  0  0
  -28.8200  -11.9482   18.4959 C   0  0  0  0  0  0  0  0  0  0  0  0
  -26.1363  -12.7328   20.1405 C   0  0  0  0  0  0  0  0  0  0  0  0
  -24.5924  -15.7509   21.3754 C   0  0  0  0  0  0  0  0  0  0  0  0
  -27.9163  -26.7637   16.7932 C   0  0  0  0  0  0  0  0  0  0  0  0
  -31.0053   -7.6912   16.7185 C   0  0  0  0  0  0  0  0  0  0  0  0
  -29.7827  -12.6965   20.7026 C   0  0  0  0  0  0  0  0  0  0  0  0
  -27.7660  -14.6033   19.6818 C   0  0  0  0  0  0  0  0  0  0  0  0
  -29.5826   -8.1282   17.0581 C   0  0  0  0  0  0  0  0  0  0  0  0
  -27.0348  -30.1655   16.4346 C   0  0  0  0  0  0  0  0  0  0  0  0
  -29.2743   -9.4812   16.4248 C   0  0  0  0  0  0  0  0  0  0  0  0
  -26.3373  -30.5141   17.7465 C   0  0  0  0  0  0  0  0  0  0  0  0
  -28.7732  -23.4432   18.1852 C   0  0  0  0  0  0  0  0  0  0  0  0
  -30.8006  -22.7497   22.2347 C   0  0  0  0  0  0  0  0  0  0  0  0
  -28.1991  -29.2144   16.6774 C   0  0  0  0  0  0  0  0  0  0  0  0
  -28.3857  -24.3436   17.0225 C   0  0  0  0  0  0  0  0  0  0  0  0
  -28.6260  -25.6737   19.0056 C   0  0  0  0  0  0  0  0  0  0  0  0
  -27.0770  -28.2578   18.6713 C   0  0  0  0  0  0  0  0  0  0  0  0
  -31.0757  -24.2273   22.4522 C   0  0  0  0  0  0  0  0  0  0  0  0
  -30.2120  -10.5687   16.9629 C   0  0  1  0  0  0  0  0  0  0  0  0
  -28.5437  -12.2268   19.9463 C   0  0  1  0  0  0  0  0  0  0  0  0
  -29.4756  -24.4100   19.1392 C   0  0  1  0  0  0  0  0  0  0  0  0
  -25.9009  -29.2384   18.4834 C   0  0  1  0  0  0  0  0  0  0  0  0
  -30.4719  -22.6780   20.7489 C   0  0  2  0  0  0  0  0  0  0  0  0
  -29.5625  -23.8902   20.5614 C   0  0  1  0  0  0  0  0  0  0  0  0
  -23.0398  -16.1142   23.3131 C   0  0  0  0  0  0  0  0  0  0  0  0
  -23.9294  -12.4253   18.0560 C   0  0  0  0  0  0  0  0  0  0  0  0
  -22.6580  -14.2297   19.2375 C   0  0  0  0  0  0  0  0  0  0  0  0
  -23.1840  -12.0976   20.4207 C   0  0  0  0  0  0  0  0  0  0  0  0
  -26.3692  -17.7969   22.5652 C   0  0  0  0  0  0  0  0  0  0  0  0
  -30.8420  -20.3663   20.2169 C   0  0  0  0  0  0  0  0  0  0  0  0
  -30.2013  -19.0576   19.7807 C   0  0  0  0  0  0  0  0  0  1  0  0
  -25.0389  -13.7555   19.9706 C   0  0  1  0  0  0  0  0  0  0  0  0
  -24.4785  -16.1857   22.8253 C   0  0  2  0  0  0  0  0  0  0  0  0
  -23.7290  -13.1318   19.4116 C   0  0  0  0  0  0  0  0  0  0  0  0
  -25.6144  -30.6336   20.4973 N   0  0  0  0  0  0  0  0  0  0  0  0
  -25.2182  -29.5539   19.8019 N   0  0  0  0  0  0  0  0  0  0  0  0
  -27.4502  -13.1995   19.9936 N   0  0  0  0  0  0  0  0  0  0  0  0
  -27.7790  -28.0149   17.4043 N   0  0  0  0  0  0  0  0  0  0  0  0
  -28.1843  -25.6650   17.6087 N   0  0  0  0  0  0  0  0  0  0  0  0
  -23.6934  -27.7416   19.8340 N   0  0  0  0  0  0  0  0  0  0  0  0
  -21.6366  -29.6627   22.3781 N   0  0  0  0  0  0  0  0  0  0  0  0
  -29.7926  -10.9901   18.2823 N   0  0  0  0  0  0  0  0  0  0  0  0
  -24.8846  -14.4077   21.2664 N   0  0  0  0  0  0  0  0  0  0  0  0
  -29.8463  -21.4188   20.3777 N   0  0  0  0  0  0  0  0  0  0  0  0
  -30.1922  -24.9288   21.4560 N   0  3  0  0  0  0  0  0  0  0  0  0
  -24.9598  -17.5870   22.9853 N   0  3  0  0  0  0  0  0  0  0  0  0
  -23.1867  -28.3947   23.4952 O   0  0  0  0  0  0  0  0  0  0  0  0
  -28.1958  -12.5563   17.6343 O   0  0  0  0  0  0  0  0  0  0  0  0
  -25.8389  -11.5643   20.4013 O   0  0  0  0  0  0  0  0  0  0  0  0
  -24.4341  -16.5245   20.4336 O   0  0  0  0  0  0  0  0  0  0  0  0
  -27.8448  -26.6378   15.5632 O   0  0  0  0  0  0  0  0  0  0  0  0
  -25.2920  -34.5668   25.4945 O   0  0  0  0  0  0  0  0  0  0  0  0
  -31.2206  -18.0792   19.6251 O   0  0  0  0  0  0  0  0  0  1  0  0
  -21.3957  -38.4645   25.6709 F   0  0  0  0  0  0  0  0  0  0  0  0
  -25.9381  -37.2341   25.1621 F   0  0  0  0  0  0  0  0  0  0  0  0
  1  2  1  0  0  0  0
  1  5  2  0  0  0  0
  2  6  2  0  0  0  0
  3  8  2  0  0  0  0
  3 15  1  0  0  0  0
  4  9  1  0  0  0  0
  4 15  2  0  0  0  0
  5 17  1  0  0  0  0
  6 19  1  0  0  0  0
  7 10  2  0  0  0  0
  7 18  1  0  0  0  0
  8 21  1  0  0  0  0
  9 21  2  0  0  0  0
 10 22  1  0  0  0  0
 11 12  2  0  0  0  0
 11 23  1  0  0  0  0
 12 24  1  0  0  0  0
 13 20  1  0  0  0  0
 13 22  2  0  0  0  0
 14 24  2  0  0  0  0
 14 25  1  0  0  0  0
 15 26  1  0  0  0  0
 16 26  1  0  0  0  0
 16 27  2  0  0  0  0
 16 28  1  0  0  0  0
 17 19  2  0  0  0  0
 17 33  1  0  0  0  0
 18 20  2  0  0  0  0
 18 34  1  0  0  0  0
 19 47  1  0  0  0  0
 20 35  1  0  0  0  0
 21 80  1  0  0  0  0
 22 81  1  0  0  0  0
 23 25  2  0  0  0  0
 23 80  1  0  0  0  0
 24 82  1  0  0  0  0
 25 83  1  0  0  0  0
 26 63  2  0  0  0  0
 27 64  1  0  0  0  0
 27 68  1  0  0  0  0
 28 69  1  0  0  0  0
 28 75  2  0  0  0  0
 29 48  1  0  0  0  0
 29 70  1  0  0  0  0
 29 76  2  0  0  0  0
 30 60  1  0  0  0  0
 30 65  1  0  0  0  0
 30 77  2  0  0  0  0
 31 61  1  0  0  0  0
 31 71  1  0  0  0  0
 31 78  2  0  0  0  0
 32 66  1  0  0  0  0
 32 67  1  0  0  0  0
 32 79  2  0  0  0  0
 33 36  1  0  0  0  0
 34 48  1  0  0  0  0
 35 65  1  0  0  0  0
 36 38  1  0  0  0  0
 37 39  1  0  0  0  0
 37 42  1  0  0  0  0
 38 47  1  0  0  0  0
 39 50  1  0  0  0  0
 40 43  1  0  0  0  0
 40 49  1  0  0  0  0
 41 46  1  0  0  0  0
 41 51  1  0  0  0  0
 42 66  1  0  0  0  0
 43 67  1  0  0  0  0
 44 49  1  0  0  0  0
 44 67  1  0  0  0  0
 45 50  1  0  0  0  0
 45 66  1  0  0  0  0
 46 73  1  0  0  0  0
 47 70  1  0  0  0  0
 48 65  1  0  0  0  0
 49 52  1  0  0  0  0
 50 64  1  0  0  0  0
 51 52  1  0  0  0  0
 51 72  1  0  0  0  0
 52 73  1  0  0  0  0
 53 61  1  0  0  0  0
 54 62  1  0  0  0  0
 55 62  1  0  0  0  0
 56 62  1  0  0  0  0
 57 74  1  0  0  0  0
 58 59  1  0  0  0  0
 58 72  1  0  0  0  0
 59 81  1  0  0  0  0
 60 62  1  0  0  0  0
 60 71  1  0  0  0  0
 61 74  1  0  0  0  0
 63 64  1  0  0  0  0
M  CHG  2  73   1  74   1
M  ISO  4  32 100  59 101  67 100  81 101
M  END
> <Batch ID>
0198

> <Smiles>
CNC(C)C(=O)NC(C(=O)N1Cc2cc([101O:1][101CH2:1]CNC3CCNC3C3CC[100N:0]([100C:0](=O)N4CCCC(n5nc(-c6ccc(Oc7ccc(F)cc7F)cc6)c(C(N)=O)c5N)C4)C3)ccc2CC1C(=O)NC1CCCc2ccccc21)C(C)(C)C

> <Shape>
0.251

> <Color>
0.082

> <Negative vol penalty>
0.000

$$$$

  -OEChem-04052323483D

 86 96  0     1  0  0  0  0  0999 V2000
  -30.2672  -32.8370   24.8774 C   0  0  0  0  0  0  0  0  0  0  0  0
  -29.9193  -31.6396   24.2604 C   0  0  0  0  0  0  0  0  0  0  0  0
  -24.3994   -9.6731   21.1439 C   0  0  0  0  0  0  0  0  0  0  0  0
  -21.9945   -9.5341   20.9589 C   0  0  0  0  0  0  0  0  0  0  0  0
  -29.2988  -33.5793   25.5521 C   0  0  0  0  0  0  0  0  0  0  0  0
  -28.6030  -31.1832   24.3188 C   0  0  0  0  0  0  0  0  0  0  0  0
  -26.9295  -29.5019   19.8447 C   0  0  0  0  0  0  0  0  0  0  0  0
  -24.3713   -8.7589   22.1970 C   0  0  0  0  0  0  0  0  0  0  0  0
  -21.9663   -8.6198   22.0120 C   0  0  0  0  0  0  0  0  0  0  0  0
  -27.3445  -28.2320   19.4460 C   0  0  0  0  0  0  0  0  0  0  0  0
  -22.5696   -5.3258   22.4654 C   0  0  0  0  0  0  0  0  0  0  0  0
  -21.7692   -4.1931   22.3171 C   0  0  0  0  0  0  0  0  0  0  0  0
  -25.2284  -27.3221   20.1624 C   0  0  0  0  0  0  0  0  0  0  0  0
  -20.4931   -4.8400   24.2640 C   0  0  0  0  0  0  0  0  0  0  0  0
  -23.2110  -10.0607   20.5249 C   0  0  0  0  0  0  0  0  0  0  0  0
  -23.3614  -10.7182   18.0646 C   0  0  0  0  0  0  0  0  0  0  0  0
  -27.9679  -33.1366   25.6105 C   0  0  0  0  0  0  0  0  0  0  0  0
  -25.6629  -29.6899   20.4162 C   0  0  0  0  0  0  0  0  0  0  0  0
  -27.6162  -31.9195   24.9961 C   0  0  0  0  0  0  0  0  0  0  0  0
  -24.7987  -28.5958   20.5652 C   0  0  0  0  0  0  0  0  0  0  0  0
  -23.1547   -8.2323   22.6310 C   0  0  0  0  0  0  0  0  0  0  0  0
  -26.4950  -27.1414   19.6075 C   0  0  0  0  0  0  0  0  0  0  0  0
  -22.3318   -6.2155   23.5130 C   0  0  0  0  0  0  0  0  0  0  0  0
  -20.7309   -3.9503   23.2163 C   0  0  0  0  0  0  0  0  0  0  0  0
  -21.2936   -5.9727   24.4123 C   0  0  0  0  0  0  0  0  0  0  0  0
  -23.2394  -11.0055   19.4373 C   0  0  0  0  0  0  0  0  0  0  0  0
  -27.9029  -23.7100   17.2534 C   0  0  0  0  0  0  0  0  0  0  0  0
  -28.4264  -22.4505   17.4041 C   0  0  0  0  0  0  0  0  0  0  0  0
  -23.3366  -11.9477   17.4529 C   0  0  0  0  0  0  0  0  0  0  0  0
  -23.4860   -9.4530   17.4017 C   0  0  0  0  0  0  0  0  0  0  0  0
  -24.6023  -30.7093   23.2340 C   0  0  0  0  0  0  0  0  0  0  0  0
  -21.7078  -30.4888   21.7864 C   0  0  0  0  0  0  0  0  0  0  0  0
  -19.7940  -29.0834   19.3351 C   0  0  0  0  0  0  0  0  0  0  0  0
  -24.8149  -17.0882   16.9951 C   0  0  0  0  0  0  0  0  0  0  0  0
  -26.9662  -33.9494   26.3918 C   0  0  0  0  0  0  0  0  0  0  0  0
  -25.2199  -31.0705   20.8165 C   0  0  0  0  0  0  0  0  0  0  0  0
  -23.4211  -28.7478   21.1547 C   0  0  0  0  0  0  0  0  0  0  0  0
  -25.5155  -33.5839   26.0879 C   0  0  0  0  0  0  0  0  0  0  0  0
  -22.2007  -16.5209   19.2727 C   0  0  0  0  0  0  0  0  0  0  0  0
  -25.3334  -32.0694   26.0971 C   0  0  0  0  0  0  0  0  0  0  0  0
  -27.3799  -24.0757   14.7109 C   0  0  0  0  0  0  0  0  0  0  0  0
  -27.3789  -25.4310   15.3462 C   0  0  0  0  0  0  0  0  0  0  0  0
  -22.2455  -14.9996   19.4129 C   0  0  0  0  0  0  0  0  0  0  0  0
  -23.6014  -17.1334   19.2201 C   0  0  0  0  0  0  0  0  0  0  0  0
  -25.4139  -19.2310   18.2093 C   0  0  0  0  0  0  0  0  0  0  0  0
  -25.0835  -19.2195   15.7642 C   0  0  0  0  0  0  0  0  0  0  0  0
  -24.5219  -15.0192   18.3247 C   0  0  0  0  0  0  0  0  0  0  0  0
  -26.8183  -19.7974   18.0264 C   0  0  0  0  0  0  0  0  0  0  0  0
  -26.4869  -19.7599   15.5433 C   0  0  0  0  0  0  0  0  0  0  0  0
  -26.1936  -31.4037   25.0162 C   0  0  1  0  0  0  0  0  0  0  0  0
  -26.9683  -24.2201   16.1654 C   0  0  0  0  0  0  0  0  0  0  0  0
  -24.1070  -31.0618   21.8600 C   0  0  1  0  0  0  0  0  0  0  0  0
  -23.1291  -14.3703   18.3212 C   0  0  1  0  0  0  0  0  0  0  0  0
  -17.4552  -29.0714   18.4255 C   0  0  0  0  0  0  0  0  0  0  0  0
  -20.8083  -28.7525   24.1286 C   0  0  0  0  0  0  0  0  0  0  0  0
  -18.8623  -28.0092   22.7398 C   0  0  0  0  0  0  0  0  0  0  0  0
  -19.1102  -30.4152   23.3500 C   0  0  0  0  0  0  0  0  0  0  0  0
  -20.6909  -30.0811   16.6971 C   0  0  0  0  0  0  0  0  0  0  0  0
  -28.2320  -21.2305   16.5527 C   0  0  0  0  0  0  0  0  0  0  0  0
  -28.2057  -25.7812   18.6528 C   0  0  0  0  0  0  0  0  0  1  0  0
  -20.6683  -29.4048   21.6344 C   0  0  1  0  0  0  0  0  0  0  0  0
  -18.8382  -29.6963   18.3275 C   0  0  2  0  0  0  0  0  0  0  0  0
  -19.8889  -29.1419   22.9538 C   0  0  0  0  0  0  0  0  0  0  0  0
  -23.1443  -12.3148   19.6836 N   0  0  0  0  0  0  0  0  0  0  0  0
  -29.2239  -22.4141   18.5141 N   0  0  0  0  0  0  0  0  0  0  0  0
  -29.2123  -23.6231   19.0649 N   0  0  0  0  0  0  0  0  0  0  0  0
  -28.4196  -24.3985   18.3076 N   0  0  0  0  0  0  0  0  0  0  0  0
  -23.2066  -12.8612   18.4573 N   0  0  0  0  0  0  0  0  0  0  0  0
  -23.0363  -30.1166   21.5365 N   0  0  0  0  0  0  0  0  0  0  0  0
  -24.4198  -16.4741   18.1929 N   0  0  0  0  0  0  0  0  0  0  0  0
  -24.9922  -18.4795   17.0209 N   0  0  0  0  0  0  0  0  0  0  0  0
  -23.4135  -12.3257   16.1593 N   0  0  0  0  0  0  0  0  0  0  0  0
  -23.4941   -8.2882   18.1811 N   0  0  0  0  0  0  0  0  0  0  0  0
  -25.5799  -31.5594   23.7149 N   0  0  0  0  0  0  0  0  0  0  0  0
  -19.8256  -29.8018   20.5116 N   0  0  0  0  0  0  0  0  0  0  0  0
  -26.8863  -20.5883   16.7421 N   0  3  0  0  0  0  0  0  0  0  0  0
  -19.3477  -29.4953   16.9416 N   0  3  0  0  0  0  0  0  0  0  0  0
  -23.6036   -9.3591   16.1563 O   0  0  0  0  0  0  0  0  0  0  0  0
  -24.1314  -29.7388   23.8155 O   0  0  0  0  0  0  0  0  0  0  0  0
  -21.3534  -31.6258   22.1077 O   0  0  0  0  0  0  0  0  0  0  0  0
  -20.4445  -28.0667   19.1032 O   0  0  0  0  0  0  0  0  0  0  0  0
  -24.9992  -16.4315   15.9625 O   0  0  0  0  0  0  0  0  0  0  0  0
  -23.1269   -7.3400   23.6585 O   0  0  0  0  0  0  0  0  0  0  0  0
  -26.9005  -25.8927   19.2173 O   0  0  0  0  0  0  0  0  0  1  0  0
  -19.9613   -2.8633   23.0729 F   0  0  0  0  0  0  0  0  0  0  0  0
  -21.0596   -6.8245   25.4200 F   0  0  0  0  0  0  0  0  0  0  0  0
  1  2  1  0  0  0  0
  1  5  2  0  0  0  0
  2  6  2  0  0  0  0
  3  8  2  0  0  0  0
  3 15  1  0  0  0  0
  4  9  1  0  0  0  0
  4 15  2  0  0  0  0
  5 17  1  0  0  0  0
  6 19  1  0  0  0  0
  7 10  2  0  0  0  0
  7 18  1  0  0  0  0
  8 21  1  0  0  0  0
  9 21  2  0  0  0  0
 10 22  1  0  0  0  0
 11 12  2  0  0  0  0
 11 23  1  0  0  0  0
 12 24  1  0  0  0  0
 13 20  1  0  0  0  0
 13 22  2  0  0  0  0
 14 24  2  0  0  0  0
 14 25  1  0  0  0  0
 15 26  1  0  0  0  0
 16 26  1  0  0  0  0
 16 29  2  0  0  0  0
 16 30  1  0  0  0  0
 17 19  2  0  0  0  0
 17 35  1  0  0  0  0
 18 20  2  0  0  0  0
 18 36  1  0  0  0  0
 19 50  1  0  0  0  0
 20 37  1  0  0  0  0
 21 83  1  0  0  0  0
 22 84  1  0  0  0  0
 23 25  2  0  0  0  0
 23 83  1  0  0  0  0
 24 85  1  0  0  0  0
 25 86  1  0  0  0  0
 26 64  2  0  0  0  0
 27 28  2  0  0  0  0
 27 51  1  0  0  0  0
 27 67  1  0  0  0  0
 28 59  1  0  0  0  0
 28 65  1  0  0  0  0
 29 68  1  0  0  0  0
 29 72  1  0  0  0  0
 30 73  1  0  0  0  0
 30 78  2  0  0  0  0
 31 52  1  0  0  0  0
 31 74  1  0  0  0  0
 31 79  2  0  0  0  0
 32 61  1  0  0  0  0
 32 69  1  0  0  0  0
 32 80  2  0  0  0  0
 33 62  1  0  0  0  0
 33 75  1  0  0  0  0
 33 81  2  0  0  0  0
 34 70  1  0  0  0  0
 34 71  1  0  0  0  0
 34 82  2  0  0  0  0
 35 38  1  0  0  0  0
 36 52  1  0  0  0  0
 37 69  1  0  0  0  0
 38 40  1  0  0  0  0
 39 43  1  0  0  0  0
 39 44  1  0  0  0  0
 40 50  1  0  0  0  0
 41 42  1  0  0  0  0
 41 51  1  0  0  0  0
 42 51  1  0  0  0  0
 43 53  1  0  0  0  0
 44 70  1  0  0  0  0
 45 48  1  0  0  0  0
 45 71  1  0  0  0  0
 46 49  1  0  0  0  0
 46 71  1  0  0  0  0
 47 53  1  0  0  0  0
 47 70  1  0  0  0  0
 48 76  1  0  0  0  0
 49 76  1  0  0  0  0
 50 74  1  0  0  0  0
 52 69  1  0  0  0  0
 53 68  1  0  0  0  0
 54 62  1  0  0  0  0
 55 63  1  0  0  0  0
 56 63  1  0  0  0  0
 57 63  1  0  0  0  0
 58 77  1  0  0  0  0
 59 76  1  0  0  0  0
 60 67  1  0  0  0  0
 60 84  1  0  0  0  0
 61 63  1  0  0  0  0
 61 75  1  0  0  0  0
 62 77  1  0  0  0  0
 64 68  1  0  0  0  0
 65 66  2  0  0  0  0
 66 67  1  0  0  0  0
M  CHG  2  76   1  77   1
M  ISO  4  34 100  60 101  71 100  84 101
M  END
> <Batch ID>
0198

> <Smiles>
CNC(C)C(=O)NC(C(=O)N1Cc2cc([101O:1][101CH2:1]n3nnc(CN4CC[100N:0]([100C:0](=O)N5CCCC(n6nc(-c7ccc(Oc8ccc(F)cc8F)cc7)c(C(N)=O)c6N)C5)CC4)c3C3CC3)ccc2CC1C(=O)NC1CCCc2ccccc21)C(C)(C)C

> <Shape>
0.246

> <Color>
0.094

> <Negative vol penalty>
0.000

$$$$

  -OEChem-04052323483D

 83 92  0     1  0  0  0  0  0999 V2000
  -30.8820  -32.3167   14.0014 C   0  0  0  0  0  0  0  0  0  0  0  0
  -30.4237  -31.1663   14.6354 C   0  0  0  0  0  0  0  0  0  0  0  0
  -23.2423   -9.7919   19.9013 C   0  0  0  0  0  0  0  0  0  0  0  0
  -23.9199   -9.8817   22.2186 C   0  0  0  0  0  0  0  0  0  0  0  0
  -31.2464  -33.4300   14.7575 C   0  0  0  0  0  0  0  0  0  0  0  0
  -30.3307  -31.1282   16.0262 C   0  0  0  0  0  0  0  0  0  0  0  0
  -26.1082  -28.1959   19.3545 C   0  0  0  0  0  0  0  0  0  0  0  0
  -22.5737   -8.5919   20.1433 C   0  0  0  0  0  0  0  0  0  0  0  0
  -23.2513   -8.6817   22.4606 C   0  0  0  0  0  0  0  0  0  0  0  0
  -26.1190  -26.9655   20.0102 C   0  0  0  0  0  0  0  0  0  0  0  0
  -20.0688   -7.6635   22.9661 C   0  0  0  0  0  0  0  0  0  0  0  0
  -19.2765   -7.5845   24.1113 C   0  0  0  0  0  0  0  0  0  0  0  0
  -26.7088  -28.0751   22.0694 C   0  0  0  0  0  0  0  0  0  0  0  0
  -20.6256   -5.7498   24.9180 C   0  0  0  0  0  0  0  0  0  0  0  0
  -23.9154  -10.4368   20.9389 C   0  0  0  0  0  0  0  0  0  0  0  0
  -24.0816  -12.9782   20.7927 C   0  0  0  0  0  0  0  0  0  0  0  0
  -31.1487  -33.4088   16.1578 C   0  0  0  0  0  0  0  0  0  0  0  0
  -26.4088  -29.3758   20.0500 C   0  0  0  0  0  0  0  0  0  0  0  0
  -30.6955  -32.2417   16.8019 C   0  0  0  0  0  0  0  0  0  0  0  0
  -26.6986  -29.3194   21.4207 C   0  0  0  0  0  0  0  0  0  0  0  0
  -22.5781   -8.0368   21.4229 C   0  0  0  0  0  0  0  0  0  0  0  0
  -26.4222  -26.9047   21.3672 C   0  0  0  0  0  0  0  0  0  0  0  0
  -21.1395   -6.7857   22.7967 C   0  0  0  0  0  0  0  0  0  0  0  0
  -19.5549   -6.6276   25.0873 C   0  0  0  0  0  0  0  0  0  0  0  0
  -21.4179   -5.8288   23.7727 C   0  0  0  0  0  0  0  0  0  0  0  0
  -24.6068  -11.6761   20.6894 C   0  0  0  0  0  0  0  0  0  0  0  0
  -25.1299  -13.7990   20.4552 C   0  0  0  0  0  0  0  0  0  0  0  0
  -22.7641  -13.4074   21.1609 C   0  0  0  0  0  0  0  0  0  0  0  0
  -28.6699  -31.5985   19.8245 C   0  0  0  0  0  0  0  0  0  0  0  0
  -26.8976  -33.0773   22.1036 C   0  0  0  0  0  0  0  0  0  0  0  0
  -24.6250  -32.8072   24.6352 C   0  0  0  0  0  0  0  0  0  0  0  0
  -30.5106  -15.2180   20.7948 C   0  0  0  0  0  0  0  0  0  0  0  0
  -31.5991  -34.6201   16.9353 C   0  0  0  0  0  0  0  0  0  0  0  0
  -26.3667  -30.6980   19.3342 C   0  0  0  0  0  0  0  0  0  0  0  0
  -27.0085  -30.5594   22.2175 C   0  0  0  0  0  0  0  0  0  0  0  0
  -31.1161  -34.6285   18.3834 C   0  0  0  0  0  0  0  0  0  0  0  0
  -29.6375  -12.7188   18.4276 C   0  0  0  0  0  0  0  0  0  0  0  0
  -31.3473  -33.2670   19.0312 C   0  0  0  0  0  0  0  0  0  0  0  0
  -28.2092  -12.3299   18.8134 C   0  0  0  0  0  0  0  0  0  0  0  0
  -29.5851  -21.2921   20.1712 C   0  0  0  0  0  0  0  0  0  0  0  0
  -30.4918  -13.0199   19.6571 C   0  0  0  0  0  0  0  0  0  0  0  0
  -28.8842  -22.6309   20.4054 C   0  0  0  0  0  0  0  0  0  0  0  0
  -28.4958  -13.6307   20.9643 C   0  0  0  0  0  0  0  0  0  0  0  0
  -28.3878  -21.2898   22.2543 C   0  0  0  0  0  0  0  0  0  0  0  0
  -29.4021  -18.4079   22.6285 C   0  0  0  0  0  0  0  0  0  0  0  0
  -30.4783  -18.4598   20.8411 C   0  0  0  0  0  0  0  0  0  0  0  0
  -30.5571  -32.1702   18.3072 C   0  0  1  0  0  0  0  0  0  0  0  0
  -27.1918  -31.7786   20.0261 C   0  0  1  0  0  0  0  0  0  0  0  0
  -27.5788  -13.3726   19.7563 C   0  0  2  0  0  0  0  0  0  0  0  0
  -30.3978  -17.4289   21.9811 C   0  0  0  0  0  0  0  0  0  0  0  0
  -28.9804  -20.3618   21.2129 C   0  0  2  0  0  0  0  0  0  0  0  0
  -23.3983  -34.1849   26.3366 C   0  0  0  0  0  0  0  0  0  0  0  0
  -29.4393  -33.2641   23.7814 C   0  0  0  0  0  0  0  0  0  0  0  0
  -28.0047  -33.7528   25.7742 C   0  0  0  0  0  0  0  0  0  0  0  0
  -28.0058  -35.3129   23.8277 C   0  0  0  0  0  0  0  0  0  0  0  0
  -21.9909  -32.0583   23.5130 C   0  0  0  0  0  0  0  0  0  0  0  0
  -26.7841  -24.5578   21.2364 C   0  0  0  0  0  0  0  0  0  1  0  0
  -26.8707  -33.0640   23.6130 C   0  0  1  0  0  0  0  0  0  0  0  0
  -23.3582  -33.5865   24.9390 C   0  0  2  0  0  0  0  0  0  0  0  0
  -27.4309  -23.5198   22.1391 C   0  0  2  0  0  0  0  0  0  0  0  0
  -28.0762  -33.8247   24.2339 C   0  0  0  0  0  0  0  0  0  0  0  0
  -25.8889  -11.6654   20.3154 N   0  0  0  0  0  0  0  0  0  0  0  0
  -26.1783  -12.9709   20.1807 N   0  0  0  0  0  0  0  0  0  0  0  0
  -26.9608  -31.8276   21.4712 N   0  0  0  0  0  0  0  0  0  0  0  0
  -29.8382  -14.0203   20.5047 N   0  0  0  0  0  0  0  0  0  0  0  0
  -27.8393  -22.3397   21.3925 N   0  0  1  0  0  0  0  0  0  0  0  0
  -25.2479  -15.1410   20.3694 N   0  0  0  0  0  0  0  0  0  0  0  0
  -21.8080  -12.4327   21.4775 N   0  0  0  0  0  0  0  0  0  0  0  0
  -29.1623  -32.2156   18.6904 N   0  0  0  0  0  0  0  0  0  0  0  0
  -25.5671  -33.5904   24.0027 N   0  0  0  0  0  0  0  0  0  0  0  0
  -29.8238  -16.1227   21.5977 N   0  0  0  0  0  0  0  0  0  0  0  0
  -30.0020  -19.4775   21.8023 N   0  3  0  0  0  0  0  0  0  0  0  0
  -22.1668  -32.6963   24.8429 N   0  3  0  0  0  0  0  0  0  0  0  0
  -22.4395  -14.6187   21.1918 O   0  0  0  0  0  0  0  0  0  0  0  0
  -29.3159  -30.9491   20.6384 O   0  0  0  0  0  0  0  0  0  0  0  0
  -26.8566  -34.1565   21.5076 O   0  0  0  0  0  0  0  0  0  0  0  0
  -24.7661  -31.6231   24.9328 O   0  0  0  0  0  0  0  0  0  0  0  0
  -31.6409  -15.4736   20.3654 O   0  0  0  0  0  0  0  0  0  0  0  0
  -21.9256   -6.8660   21.6595 O   0  0  0  0  0  0  0  0  0  0  0  0
  -26.4341  -25.7050   22.0095 O   0  0  0  0  0  0  0  0  0  1  0  0
  -18.7949   -6.5528   26.1877 F   0  0  0  0  0  0  0  0  0  0  0  0
  -22.4459   -4.9836   23.6161 F   0  0  0  0  0  0  0  0  0  0  0  0
  -26.5142  -23.1395   23.0733 F   0  0  0  0  0  0  0  0  0  0  0  0
  1  2  1  0  0  0  0
  1  5  2  0  0  0  0
  2  6  2  0  0  0  0
  3  8  2  0  0  0  0
  3 15  1  0  0  0  0
  4  9  1  0  0  0  0
  4 15  2  0  0  0  0
  5 17  1  0  0  0  0
  6 19  1  0  0  0  0
  7 10  2  0  0  0  0
  7 18  1  0  0  0  0
  8 21  1  0  0  0  0
  9 21  2  0  0  0  0
 10 22  1  0  0  0  0
 11 12  2  0  0  0  0
 11 23  1  0  0  0  0
 12 24  1  0  0  0  0
 13 20  1  0  0  0  0
 13 22  2  0  0  0  0
 14 24  2  0  0  0  0
 14 25  1  0  0  0  0
 15 26  1  0  0  0  0
 16 26  1  0  0  0  0
 16 27  2  0  0  0  0
 16 28  1  0  0  0  0
 17 19  2  0  0  0  0
 17 33  1  0  0  0  0
 18 20  2  0  0  0  0
 18 34  1  0  0  0  0
 19 47  1  0  0  0  0
 20 35  1  0  0  0  0
 21 79  1  0  0  0  0
 22 80  1  0  0  0  0
 23 25  2  0  0  0  0
 23 79  1  0  0  0  0
 24 81  1  0  0  0  0
 25 82  1  0  0  0  0
 26 62  2  0  0  0  0
 27 63  1  0  0  0  0
 27 67  1  0  0  0  0
 28 68  1  0  0  0  0
 28 74  2  0  0  0  0
 29 48  1  0  0  0  0
 29 69  1  0  0  0  0
 29 75  2  0  0  0  0
 30 58  1  0  0  0  0
 30 64  1  0  0  0  0
 30 76  2  0  0  0  0
 31 59  1  0  0  0  0
 31 70  1  0  0  0  0
 31 77  2  0  0  0  0
 32 65  1  0  0  0  0
 32 71  1  0  0  0  0
 32 78  2  0  0  0  0
 33 36  1  0  0  0  0
 34 48  1  0  0  0  0
 35 64  1  0  0  0  0
 36 38  1  0  0  0  0
 37 39  1  0  0  0  0
 37 41  1  0  0  0  0
 38 47  1  0  0  0  0
 39 49  1  0  0  0  0
 40 42  1  0  0  0  0
 40 51  1  0  0  0  0
 41 65  1  0  0  0  0
 42 66  1  0  0  0  0
 43 49  1  0  0  0  0
 43 65  1  0  0  0  0
 44 51  1  0  0  0  0
 44 66  1  0  0  0  0
 45 50  1  0  0  0  0
 45 72  1  0  0  0  0
 46 50  1  0  0  0  0
 46 72  1  0  0  0  0
 47 69  1  0  0  0  0
 48 64  1  0  0  0  0
 49 63  1  0  0  0  0
 50 71  1  0  0  0  0
 51 72  1  0  0  0  0
 52 59  1  0  0  0  0
 53 61  1  0  0  0  0
 54 61  1  0  0  0  0
 55 61  1  0  0  0  0
 56 73  1  0  0  0  0
 57 60  1  0  0  0  0
 57 80  1  0  0  0  0
 58 61  1  0  0  0  0
 58 70  1  0  0  0  0
 59 73  1  0  0  0  0
 60 66  1  0  0  0  0
 60 83  1  0  0  0  0
 62 63  1  0  0  0  0
M  CHG  2  72   1  73   1
M  ISO  4  32 100  57 101  71 100  80 101
M  END
> <Batch ID>
0198

> <Smiles>
CNC(C)C(=O)NC(C(=O)N1Cc2cc([101O:1][101CH2:1]C(F)N3CCC(N4CC([100NH:0][100C:0](=O)N5CCCC(n6nc(-c7ccc(Oc8ccc(F)cc8F)cc7)c(C(N)=O)c6N)C5)C4)C3)ccc2CC1C(=O)NC1CCCc2ccccc21)C(C)(C)C

> <Shape>
0.300

> <Color>
0.212

> <Negative vol penalty>
0.000

$$$$

  -OEChem-04052323483D

 86 95  0     1  0  0  0  0  0999 V2000
  -18.2450  -25.1009   21.9317 C   0  0  0  0  0  0  0  0  0  0  0  0
  -19.5811  -24.9795   22.2995 C   0  0  0  0  0  0  0  0  0  0  0  0
  -23.4305  -10.0908   22.0052 C   0  0  0  0  0  0  0  0  0  0  0  0
  -23.8568   -9.2036   19.7988 C   0  0  0  0  0  0  0  0  0  0  0  0
  -17.7999  -26.2610   21.2992 C   0  0  0  0  0  0  0  0  0  0  0  0
  -20.4733  -26.0178   22.0341 C   0  0  0  0  0  0  0  0  0  0  0  0
  -23.4907  -27.0404   25.9704 C   0  0  0  0  0  0  0  0  0  0  0  0
  -22.5641   -9.0289   22.2648 C   0  0  0  0  0  0  0  0  0  0  0  0
  -22.9905   -8.1417   20.0584 C   0  0  0  0  0  0  0  0  0  0  0  0
  -24.5668  -26.1810   26.1878 C   0  0  0  0  0  0  0  0  0  0  0  0
  -22.8081   -5.7698   23.1318 C   0  0  0  0  0  0  0  0  0  0  0  0
  -22.9197   -5.1289   24.3656 C   0  0  0  0  0  0  0  0  0  0  0  0
  -26.0400  -27.7655   25.1209 C   0  0  0  0  0  0  0  0  0  0  0  0
  -20.6318   -5.7136   24.8762 C   0  0  0  0  0  0  0  0  0  0  0  0
  -24.0768  -10.1782   20.7721 C   0  0  0  0  0  0  0  0  0  0  0  0
  -26.3564  -11.3231   20.7513 C   0  0  0  0  0  0  0  0  0  0  0  0
  -18.6849  -27.3180   21.0346 C   0  0  0  0  0  0  0  0  0  0  0  0
  -23.6796  -28.2660   25.3157 C   0  0  0  0  0  0  0  0  0  0  0  0
  -20.0399  -27.1926   21.3963 C   0  0  0  0  0  0  0  0  0  0  0  0
  -24.9651  -28.6398   24.8986 C   0  0  0  0  0  0  0  0  0  0  0  0
  -22.3441   -8.0543   21.2914 C   0  0  0  0  0  0  0  0  0  0  0  0
  -25.8412  -26.5422   25.7605 C   0  0  0  0  0  0  0  0  0  0  0  0
  -21.6084   -6.3827   22.7701 C   0  0  0  0  0  0  0  0  0  0  0  0
  -21.8315   -5.1008   25.2378 C   0  0  0  0  0  0  0  0  0  0  0  0
  -20.5202   -6.3546   23.6423 C   0  0  0  0  0  0  0  0  0  0  0  0
  -24.9715  -11.2752   20.5032 C   0  0  0  0  0  0  0  0  0  0  0  0
  -26.7389  -12.5707   20.3227 C   0  0  0  0  0  0  0  0  0  0  0  0
  -27.2198  -10.3289   21.3184 C   0  0  0  0  0  0  0  0  0  0  0  0
  -22.6009  -29.5586   22.6196 C   0  0  0  0  0  0  0  0  0  0  0  0
  -27.8644  -23.5699   25.5407 C   0  0  0  0  0  0  0  0  0  0  0  0
  -24.1578  -32.1856   23.7137 C   0  0  0  0  0  0  0  0  0  0  0  0
  -26.6212  -33.4802   25.6892 C   0  0  0  0  0  0  0  0  0  0  0  0
  -25.6578  -18.0583   20.4172 C   0  0  0  0  0  0  0  0  0  0  0  0
  -18.1675  -28.5331   20.3063 C   0  0  0  0  0  0  0  0  0  0  0  0
  -22.5132  -29.1936   25.1126 C   0  0  0  0  0  0  0  0  0  0  0  0
  -25.2245  -29.9535   24.2092 C   0  0  0  0  0  0  0  0  0  0  0  0
  -19.0974  -29.7402   20.3982 C   0  0  0  0  0  0  0  0  0  0  0  0
  -24.2372  -16.0501   17.6416 C   0  0  0  0  0  0  0  0  0  0  0  0
  -27.8863  -24.8109   19.0887 C   0  0  0  0  0  0  0  0  0  0  0  0
  -20.5381  -29.3269   20.1148 C   0  0  0  0  0  0  0  0  0  0  0  0
  -24.3845  -14.6309   18.1921 C   0  0  0  0  0  0  0  0  0  0  0  0
  -26.9496  -24.8985   20.2788 C   0  0  0  0  0  0  0  0  0  0  0  0
  -26.6563  -20.6885   18.0514 C   0  0  0  0  0  0  0  0  0  0  0  0
  -24.0241  -17.0523   18.7686 C   0  0  0  0  0  0  0  0  0  0  0  0
  -25.8607  -19.4010   18.2423 C   0  0  0  0  0  0  0  0  0  0  0  0
  -25.2437  -15.6255   20.3667 C   0  0  0  0  0  0  0  0  0  0  0  0
  -26.1293  -20.4917   20.3677 C   0  0  0  0  0  0  0  0  0  0  0  0
  -27.4355  -23.5401   18.4038 C   0  0  0  0  0  0  0  0  0  0  0  0
  -21.0329  -28.3072   21.1477 C   0  0  1  0  0  0  0  0  0  0  0  0
  -22.7319  -30.1889   23.9772 C   0  0  1  0  0  0  0  0  0  0  0  0
  -25.4758  -14.5647   19.2761 C   0  0  1  0  0  0  0  0  0  0  0  0
  -26.2030  -21.5127   19.2471 C   0  0  1  0  0  0  0  0  0  0  0  0
  -26.7995  -23.4577   20.7668 C   0  0  2  0  0  0  0  0  0  0  0  0
  -28.8787  -23.2171   26.6022 C   0  0  0  0  0  0  0  0  0  0  0  0
  -27.6779  -35.6594   26.3465 C   0  0  0  0  0  0  0  0  0  0  0  0
  -25.6133  -32.2852   21.0339 C   0  0  0  0  0  0  0  0  0  0  0  0
  -27.2811  -33.8344   22.0764 C   0  0  0  0  0  0  0  0  0  0  0  0
  -24.8862  -34.5121   21.9096 C   0  0  0  0  0  0  0  0  0  0  0  0
  -25.8947  -33.1077   28.5339 C   0  0  0  0  0  0  0  0  0  0  0  0
  -26.6273  -24.3106   26.0013 C   0  0  0  0  0  0  0  0  0  1  0  0
  -27.7279  -23.1155   21.9233 C   0  0  0  0  0  0  0  0  0  0  0  0
  -27.1980  -23.5995   23.2692 C   0  0  0  0  0  0  0  0  0  0  0  0
  -25.5578  -32.7333   23.5760 C   0  0  1  0  0  0  0  0  0  0  0  0
  -26.6156  -34.6254   26.6858 C   0  0  2  0  0  0  0  0  0  0  0  0
  -25.8297  -33.3156   22.1602 C   0  0  0  0  0  0  0  0  0  0  0  0
  -24.5057  -12.4027   19.9593 N   0  0  0  0  0  0  0  0  0  0  0  0
  -28.1433  -23.2467   24.3296 N   0  0  0  0  0  0  0  0  0  0  0  0
  -25.6041  -13.1709   19.8622 N   0  0  0  0  0  0  0  0  0  0  0  0
  -24.0506  -30.8233   24.0280 N   0  0  0  0  0  0  0  0  0  0  0  0
  -25.0875  -16.9549   19.7724 N   0  0  0  0  0  0  0  0  0  0  0  0
  -25.7532  -19.2482   19.6970 N   0  0  0  0  0  0  0  0  0  0  0  0
  -27.9320  -13.2019   20.2986 N   0  0  0  0  0  0  0  0  0  0  0  0
  -26.6628   -9.1022   21.7048 N   0  0  0  0  0  0  0  0  0  0  0  0
  -21.3724  -28.9693   22.3890 N   0  0  0  0  0  0  0  0  0  0  0  0
  -25.7287  -33.6944   24.6602 N   0  0  0  0  0  0  0  0  0  0  0  0
  -27.1797  -22.6014   19.5605 N   0  3  2  0  0  0  0  0  0  0  0  0
  -26.8781  -34.1160   28.0615 N   0  3  0  0  0  0  0  0  0  0  0  0
  -28.4458  -10.5286   21.4928 O   0  0  0  0  0  0  0  0  0  0  0  0
  -23.5439  -29.6049   21.8384 O   0  0  0  0  0  0  0  0  0  0  0  0
  -23.1949  -32.9402   23.5557 O   0  0  0  0  0  0  0  0  0  0  0  0
  -27.3475  -32.4961   25.8094 O   0  0  0  0  0  0  0  0  0  0  0  0
  -26.1063  -17.9716   21.5680 O   0  0  0  0  0  0  0  0  0  0  0  0
  -21.4990   -7.0179   21.5444 O   0  0  0  0  0  0  0  0  0  0  0  0
  -26.9034  -25.6968   25.9730 O   0  0  0  0  0  0  0  0  0  1  0  0
  -21.9383   -4.4840   26.4220 F   0  0  0  0  0  0  0  0  0  0  0  0
  -19.3647   -6.9406   23.2999 F   0  0  0  0  0  0  0  0  0  0  0  0
  1  2  1  0  0  0  0
  1  5  2  0  0  0  0
  2  6  2  0  0  0  0
  3  8  2  0  0  0  0
  3 15  1  0  0  0  0
  4  9  1  0  0  0  0
  4 15  2  0  0  0  0
  5 17  1  0  0  0  0
  6 19  1  0  0  0  0
  7 10  2  0  0  0  0
  7 18  1  0  0  0  0
  8 21  1  0  0  0  0
  9 21  2  0  0  0  0
 10 22  1  0  0  0  0
 11 12  2  0  0  0  0
 11 23  1  0  0  0  0
 12 24  1  0  0  0  0
 13 20  1  0  0  0  0
 13 22  2  0  0  0  0
 14 24  2  0  0  0  0
 14 25  1  0  0  0  0
 15 26  1  0  0  0  0
 16 26  1  0  0  0  0
 16 27  2  0  0  0  0
 16 28  1  0  0  0  0
 17 19  2  0  0  0  0
 17 34  1  0  0  0  0
 18 20  2  0  0  0  0
 18 35  1  0  0  0  0
 19 49  1  0  0  0  0
 20 36  1  0  0  0  0
 21 83  1  0  0  0  0
 22 84  1  0  0  0  0
 23 25  2  0  0  0  0
 23 83  1  0  0  0  0
 24 85  1  0  0  0  0
 25 86  1  0  0  0  0
 26 66  2  0  0  0  0
 27 68  1  0  0  0  0
 27 72  1  0  0  0  0
 28 73  1  0  0  0  0
 28 78  2  0  0  0  0
 29 50  1  0  0  0  0
 29 74  1  0  0  0  0
 29 79  2  0  0  0  0
 30 54  1  0  0  0  0
 30 60  1  0  0  0  0
 30 67  2  0  0  0  0
 31 63  1  0  0  0  0
 31 69  1  0  0  0  0
 31 80  2  0  0  0  0
 32 64  1  0  0  0  0
 32 75  1  0  0  0  0
 32 81  2  0  0  0  0
 33 70  1  0  0  0  0
 33 71  1  0  0  0  0
 33 82  2  0  0  0  0
 34 37  1  0  0  0  0
 35 50  1  0  0  0  0
 36 69  1  0  0  0  0
 37 40  1  0  0  0  0
 38 41  1  0  0  0  0
 38 44  1  0  0  0  0
 39 42  1  0  0  0  0
 39 48  1  0  0  0  0
 40 49  1  0  0  0  0
 41 51  1  0  0  0  0
 42 53  1  0  0  0  0
 43 45  1  0  0  0  0
 43 52  1  0  0  0  0
 44 70  1  0  0  0  0
 45 71  1  0  0  0  0
 46 51  1  0  0  0  0
 46 70  1  0  0  0  0
 47 52  1  0  0  0  0
 47 71  1  0  0  0  0
 48 76  1  0  0  0  0
 49 74  1  0  0  0  0
 50 69  1  0  0  0  0
 51 68  1  0  0  0  0
 52 76  1  0  0  0  0
 53 61  1  0  0  0  0
 53 76  1  0  0  0  0
 55 64  1  0  0  0  0
 56 65  1  0  0  0  0
 57 65  1  0  0  0  0
 58 65  1  0  0  0  0
 59 77  1  0  0  0  0
 60 84  1  0  0  0  0
 61 62  1  0  0  0  0
 62 67  1  0  0  0  0
 63 65  1  0  0  0  0
 63 75  1  0  0  0  0
 64 77  1  0  0  0  0
 66 68  1  0  0  0  0
M  CHG  2  76   1  77   1
M  ISO  4  33 100  60 101  71 100  84 101
M  END
> <Batch ID>
0198

> <Smiles>
C=C(NCCC1CCCN1C1CC[100N:0]([100C:0](=O)N2CCCC(n3nc(-c4ccc(Oc5ccc(F)cc5F)cc4)c(C(N)=O)c3N)C2)C1)[101CH2:1][101O:1]c1ccc2c(c1)CN(C(=O)C(NC(=O)C(C)NC)C(C)(C)C)C(C(=O)NC1CCCc3ccccc31)C2

> <Shape>
0.233

> <Color>
0.105

> <Negative vol penalty>
0.000

$$$$

  -OEChem-04052323483D

 84 94  0     1  0  0  0  0  0999 V2000
  -28.0033  -35.7435   24.5581 C   0  0  0  0  0  0  0  0  0  0  0  0
  -28.8156  -34.8564   23.8592 C   0  0  0  0  0  0  0  0  0  0  0  0
  -23.9735  -10.1011   22.9893 C   0  0  0  0  0  0  0  0  0  0  0  0
  -24.5177  -12.1470   24.1535 C   0  0  0  0  0  0  0  0  0  0  0  0
  -26.8033  -35.2995   25.1120 C   0  0  0  0  0  0  0  0  0  0  0  0
  -28.4289  -33.5245   23.7146 C   0  0  0  0  0  0  0  0  0  0  0  0
  -28.8534  -28.0565   19.1062 C   0  0  0  0  0  0  0  0  0  0  0  0
  -23.5481   -9.5314   24.1894 C   0  0  0  0  0  0  0  0  0  0  0  0
  -24.0922  -11.5773   25.3535 C   0  0  0  0  0  0  0  0  0  0  0  0
  -29.2354  -26.7166   19.0570 C   0  0  0  0  0  0  0  0  0  0  0  0
  -20.8146   -9.6574   26.1755 C   0  0  0  0  0  0  0  0  0  0  0  0
  -19.6110   -8.9524   26.1677 C   0  0  0  0  0  0  0  0  0  0  0  0
  -27.1030  -26.0807   19.9886 C   0  0  0  0  0  0  0  0  0  0  0  0
  -20.7747   -6.9578   26.8780 C   0  0  0  0  0  0  0  0  0  0  0  0
  -28.5003  -21.4671   18.5971 C   0  0  0  0  0  0  0  0  0  0  0  0
  -24.4583  -11.4089   22.9714 C   0  0  0  0  0  0  0  0  0  0  0  0
  -24.1198  -12.7275   20.8140 C   0  0  0  0  0  0  0  0  0  0  0  0
  -26.3970  -33.9638   24.9660 C   0  0  0  0  0  0  0  0  0  0  0  0
  -27.5954  -28.4200   19.6080 C   0  0  0  0  0  0  0  0  0  0  0  0
  -27.2230  -33.0619   24.2683 C   0  0  0  0  0  0  0  0  0  0  0  0
  -26.7065  -27.4257   20.0407 C   0  0  0  0  0  0  0  0  0  0  0  0
  -23.6075  -10.2695   25.3714 C   0  0  0  0  0  0  0  0  0  0  0  0
  -28.3613  -25.7286   19.5009 C   0  0  0  0  0  0  0  0  0  0  0  0
  -21.9983   -9.0125   26.5345 C   0  0  0  0  0  0  0  0  0  0  0  0
  -19.5911   -7.6027   26.5190 C   0  0  0  0  0  0  0  0  0  0  0  0
  -21.9783   -7.6628   26.8858 C   0  0  0  0  0  0  0  0  0  0  0  0
  -24.8984  -11.9978   21.7322 C   0  0  0  0  0  0  0  0  0  0  0  0
  -29.4527  -19.6506   19.6083 C   0  0  0  0  0  0  0  0  0  0  0  0
  -29.3408  -20.2731   20.8321 C   0  0  0  0  0  0  0  0  0  0  0  0
  -28.3877  -22.0894   19.8209 C   0  0  0  0  0  0  0  0  0  0  0  0
  -24.9968  -13.0652   19.8123 C   0  0  0  0  0  0  0  0  0  0  0  0
  -22.7283  -13.0696   20.8623 C   0  0  0  0  0  0  0  0  0  0  0  0
  -26.5782  -30.1731   22.0566 C   0  0  0  0  0  0  0  0  0  0  0  0
  -23.6697  -29.6498   20.7189 C   0  0  0  0  0  0  0  0  0  0  0  0
  -21.7067  -27.6947   18.7261 C   0  0  0  0  0  0  0  0  0  0  0  0
  -30.0743  -15.0321   18.3261 C   0  0  0  0  0  0  0  0  0  0  0  0
  -25.1142  -33.5191   25.6228 C   0  0  0  0  0  0  0  0  0  0  0  0
  -27.1881  -29.8678   19.6295 C   0  0  0  0  0  0  0  0  0  0  0  0
  -25.3368  -27.7620   20.5693 C   0  0  0  0  0  0  0  0  0  0  0  0
  -24.5964  -32.1803   25.1038 C   0  0  0  0  0  0  0  0  0  0  0  0
  -29.6838  -11.4952   18.8467 C   0  0  0  0  0  0  0  0  0  0  0  0
  -25.7280  -31.1596   25.0375 C   0  0  0  0  0  0  0  0  0  0  0  0
  -28.8894  -18.6429   22.7847 C   0  0  0  0  0  0  0  0  0  0  0  0
  -29.2034  -19.9729   23.3952 C   0  0  0  0  0  0  0  0  0  0  0  0
  -28.3724  -11.3695   19.6150 C   0  0  0  0  0  0  0  0  0  0  0  0
  -30.4244  -12.7667   19.2391 C   0  0  0  0  0  0  0  0  0  0  0  0
  -29.3065  -16.9705   19.9114 C   0  0  0  0  0  0  0  0  0  0  0  0
  -29.9515  -17.5583   17.9796 C   0  0  0  0  0  0  0  0  0  0  0  0
  -28.2860  -13.9096   19.7632 C   0  0  0  0  0  0  0  0  0  0  0  0
  -26.8260  -31.6153   24.0689 C   0  0  1  0  0  0  0  0  0  0  0  0
  -30.0680  -18.2080   19.3777 C   0  0  0  0  0  0  0  0  0  0  0  0
  -29.8147  -19.5941   22.0710 C   0  0  0  0  0  0  0  0  0  0  0  0
  -26.0822  -30.1624   20.6383 C   0  0  1  0  0  0  0  0  0  0  0  0
  -27.5101  -12.6240   19.4143 C   0  0  2  0  0  0  0  0  0  0  0  0
  -19.3624  -27.5007   17.8522 C   0  0  0  0  0  0  0  0  0  0  0  0
  -22.7447  -28.6162   23.4366 C   0  0  0  0  0  0  0  0  0  0  0  0
  -20.7724  -27.5809   22.2937 C   0  0  0  0  0  0  0  0  0  0  0  0
  -21.0814  -30.0558   22.2468 C   0  0  0  0  0  0  0  0  0  0  0  0
  -22.6096  -27.9380   15.9182 C   0  0  0  0  0  0  0  0  0  0  0  0
  -27.7868  -23.4603   19.9257 C   0  0  0  0  0  0  0  0  0  1  0  0
  -22.6037  -28.5901   20.8588 C   0  0  1  0  0  0  0  0  0  0  0  0
  -20.7591  -28.0433   17.5925 C   0  0  2  0  0  0  0  0  0  0  0  0
  -21.8270  -28.7042   22.2009 C   0  0  0  0  0  0  0  0  0  0  0  0
  -29.0347  -20.2365   18.4689 N   0  0  0  0  0  0  0  0  0  0  0  0
  -26.1720  -11.8783   21.3478 N   0  0  0  0  0  0  0  0  0  0  0  0
  -28.8060  -21.5036   20.9603 N   0  0  0  0  0  0  0  0  0  0  0  0
  -26.2004  -12.5375   20.1770 N   0  0  0  0  0  0  0  0  0  0  0  0
  -24.9873  -29.1921   20.5761 N   0  0  0  0  0  0  0  0  0  0  0  0
  -29.5890  -13.9617   19.0857 N   0  0  0  0  0  0  0  0  0  0  0  0
  -29.6943  -16.3054   18.6791 N   0  0  0  0  0  0  0  0  0  0  0  0
  -24.8481  -13.7591   18.6639 N   0  0  0  0  0  0  0  0  0  0  0  0
  -21.9732  -12.6431   21.9633 N   0  0  0  0  0  0  0  0  0  0  0  0
  -26.4187  -31.3859   22.6992 N   0  0  0  0  0  0  0  0  0  0  0  0
  -21.7632  -28.6972   19.6711 N   0  0  0  0  0  0  0  0  0  0  0  0
  -21.2545  -27.4709   16.3088 N   0  3  0  0  0  0  0  0  0  0  0  0
  -22.1673  -13.7198   19.9479 O   0  0  0  0  0  0  0  0  0  0  0  0
  -27.0678  -29.1558   22.5331 O   0  0  0  0  0  0  0  0  0  0  0  0
  -23.3445  -30.8397   20.7286 O   0  0  0  0  0  0  0  0  0  0  0  0
  -22.3313  -26.6371   18.7708 O   0  0  0  0  0  0  0  0  0  0  0  0
  -30.8500  -14.8603   17.3764 O   0  0  0  0  0  0  0  0  0  0  0  0
  -23.1922   -9.7140   26.5426 O   0  0  0  0  0  0  0  0  0  0  0  0
  -28.7319  -24.4201   19.4546 O   0  0  0  0  0  0  0  0  0  1  0  0
  -18.4350   -6.9262   26.5129 F   0  0  0  0  0  0  0  0  0  0  0  0
  -23.1120   -7.0382   27.2328 F   0  0  0  0  0  0  0  0  0  0  0  0
  1  2  1  0  0  0  0
  1  5  2  0  0  0  0
  2  6  2  0  0  0  0
  3  8  2  0  0  0  0
  3 16  1  0  0  0  0
  4  9  1  0  0  0  0
  4 16  2  0  0  0  0
  5 18  1  0  0  0  0
  6 20  1  0  0  0  0
  7 10  2  0  0  0  0
  7 19  1  0  0  0  0
  8 22  1  0  0  0  0
  9 22  2  0  0  0  0
 10 23  1  0  0  0  0
 11 12  2  0  0  0  0
 11 24  1  0  0  0  0
 12 25  1  0  0  0  0
 13 21  1  0  0  0  0
 13 23  2  0  0  0  0
 14 25  2  0  0  0  0
 14 26  1  0  0  0  0
 15 30  1  0  0  0  0
 15 64  2  0  0  0  0
 16 27  1  0  0  0  0
 17 27  1  0  0  0  0
 17 31  2  0  0  0  0
 17 32  1  0  0  0  0
 18 20  2  0  0  0  0
 18 37  1  0  0  0  0
 19 21  2  0  0  0  0
 19 38  1  0  0  0  0
 20 50  1  0  0  0  0
 21 39  1  0  0  0  0
 22 81  1  0  0  0  0
 23 82  1  0  0  0  0
 24 26  2  0  0  0  0
 24 81  1  0  0  0  0
 25 83  1  0  0  0  0
 26 84  1  0  0  0  0
 27 65  2  0  0  0  0
 28 29  2  0  0  0  0
 28 51  1  0  0  0  0
 28 64  1  0  0  0  0
 29 52  1  0  0  0  0
 29 66  1  0  0  0  0
 30 60  1  0  0  0  0
 30 66  2  0  0  0  0
 31 67  1  0  0  0  0
 31 71  1  0  0  0  0
 32 72  1  0  0  0  0
 32 76  2  0  0  0  0
 33 53  1  0  0  0  0
 33 73  1  0  0  0  0
 33 77  2  0  0  0  0
 34 61  1  0  0  0  0
 34 68  1  0  0  0  0
 34 78  2  0  0  0  0
 35 62  1  0  0  0  0
 35 74  1  0  0  0  0
 35 79  2  0  0  0  0
 36 69  1  0  0  0  0
 36 70  1  0  0  0  0
 36 80  2  0  0  0  0
 37 40  1  0  0  0  0
 38 53  1  0  0  0  0
 39 68  1  0  0  0  0
 40 42  1  0  0  0  0
 41 45  1  0  0  0  0
 41 46  1  0  0  0  0
 42 50  1  0  0  0  0
 43 44  1  0  0  0  0
 43 52  1  0  0  0  0
 44 52  1  0  0  0  0
 45 54  1  0  0  0  0
 46 69  1  0  0  0  0
 47 51  1  0  0  0  0
 47 70  1  0  0  0  0
 48 51  1  0  0  0  0
 48 70  1  0  0  0  0
 49 54  1  0  0  0  0
 49 69  1  0  0  0  0
 50 73  1  0  0  0  0
 53 68  1  0  0  0  0
 54 67  1  0  0  0  0
 55 62  1  0  0  0  0
 56 63  1  0  0  0  0
 57 63  1  0  0  0  0
 58 63  1  0  0  0  0
 59 75  1  0  0  0  0
 60 82  1  0  0  0  0
 61 63  1  0  0  0  0
 61 74  1  0  0  0  0
 62 75  1  0  0  0  0
 65 67  1  0  0  0  0
M  CHG  1  75   1
M  ISO  4  36 100  60 101  70 100  82 101
M  END
> <Batch ID>
0198

> <Smiles>
CNC(C)C(=O)NC(C(=O)N1Cc2cc([101O:1][101CH2:1]c3cnc(C4C[100N:0]([100C:0](=O)N5CCCC(n6nc(-c7ccc(Oc8ccc(F)cc8F)cc7)c(C(N)=O)c6N)C5)C4)c(C4CC4)n3)ccc2CC1C(=O)NC1CCCc2ccccc21)C(C)(C)C

> <Shape>
0.301

> <Color>
0.089

> <Negative vol penalty>
0.000

$$$$

  -OEChem-04052323483D

 84 93  0     1  0  0  0  0  0999 V2000
  -17.2372  -12.2548   21.7289 C   0  0  0  0  0  0  0  0  0  0  0  0
  -17.8766  -13.4795   21.8927 C   0  0  0  0  0  0  0  0  0  0  0  0
  -28.3914  -24.5794   22.2111 C   0  0  0  0  0  0  0  0  0  0  0  0
  -27.5573  -24.2754   19.9641 C   0  0  0  0  0  0  0  0  0  0  0  0
  -17.9151  -11.0715   22.0190 C   0  0  0  0  0  0  0  0  0  0  0  0
  -19.1940  -13.5215   22.3479 C   0  0  0  0  0  0  0  0  0  0  0  0
  -23.5241  -17.5359   20.7229 C   0  0  0  0  0  0  0  0  0  0  0  0
  -28.4548  -23.1956   22.3747 C   0  0  0  0  0  0  0  0  0  0  0  0
  -27.6207  -22.8917   20.1277 C   0  0  0  0  0  0  0  0  0  0  0  0
  -24.0042  -18.6951   21.3309 C   0  0  0  0  0  0  0  0  0  0  0  0
  -27.9041  -19.2796   19.8267 C   0  0  0  0  0  0  0  0  0  0  0  0
  -28.4494  -18.5271   18.7865 C   0  0  0  0  0  0  0  0  0  0  0  0
  -25.8053  -17.4264   22.3135 C   0  0  0  0  0  0  0  0  0  0  0  0
  -30.5345  -19.7267   19.0118 C   0  0  0  0  0  0  0  0  0  0  0  0
  -27.9426  -25.1193   21.0057 C   0  0  0  0  0  0  0  0  0  0  0  0
  -28.8893  -27.3943   20.3457 C   0  0  0  0  0  0  0  0  0  0  0  0
  -19.2446  -11.0986   22.4687 C   0  0  0  0  0  0  0  0  0  0  0  0
  -24.1758  -16.3092   20.9149 C   0  0  0  0  0  0  0  0  0  0  0  0
  -19.8898  -12.3375   22.6456 C   0  0  0  0  0  0  0  0  0  0  0  0
  -25.3329  -16.2537   21.7048 C   0  0  0  0  0  0  0  0  0  0  0  0
  -28.0694  -22.3518   21.3331 C   0  0  0  0  0  0  0  0  0  0  0  0
  -25.1433  -18.6400   22.1287 C   0  0  0  0  0  0  0  0  0  0  0  0
  -28.6739  -20.2557   20.4594 C   0  0  0  0  0  0  0  0  0  0  0  0
  -29.7646  -18.7506   18.3791 C   0  0  0  0  0  0  0  0  0  0  0  0
  -29.9891  -20.4792   20.0519 C   0  0  0  0  0  0  0  0  0  0  0  0
  -27.8765  -26.5486   20.8363 C   0  0  0  0  0  0  0  0  0  0  0  0
  -28.3348  -28.6504   20.3807 C   0  0  0  0  0  0  0  0  0  0  0  0
  -30.2131  -27.0732   19.8982 C   0  0  0  0  0  0  0  0  0  0  0  0
  -23.3630  -13.5125   22.1881 C   0  0  0  0  0  0  0  0  0  0  0  0
  -26.2674  -12.5999   21.0684 C   0  0  0  0  0  0  0  0  0  0  0  0
  -29.4137  -13.5015   20.1014 C   0  0  0  0  0  0  0  0  0  0  0  0
  -23.9335  -31.0451   23.6498 C   0  0  0  0  0  0  0  0  0  0  0  0
  -19.9207   -9.7956   22.8146 C   0  0  0  0  0  0  0  0  0  0  0  0
  -23.6606  -15.0729   20.2304 C   0  0  0  0  0  0  0  0  0  0  0  0
  -26.0809  -14.9653   21.9261 C   0  0  0  0  0  0  0  0  0  0  0  0
  -21.4382   -9.9098   22.9347 C   0  0  0  0  0  0  0  0  0  0  0  0
  -24.1505  -30.9199   20.1263 C   0  0  0  0  0  0  0  0  0  0  0  0
  -21.8173  -11.1277   23.7712 C   0  0  0  0  0  0  0  0  0  0  0  0
  -25.1967  -29.8432   19.8514 C   0  0  0  0  0  0  0  0  0  0  0  0
  -24.0800  -30.2023   27.2507 C   0  0  0  0  0  0  0  0  0  0  0  0
  -24.5573  -22.7041   27.2371 C   0  0  0  0  0  0  0  0  0  0  0  0
  -23.2853  -30.5406   21.3207 C   0  0  0  0  0  0  0  0  0  0  0  0
  -23.9169  -31.2066   26.1204 C   0  0  0  0  0  0  0  0  0  0  0  0
  -24.1815  -29.0091   25.1925 C   0  0  0  0  0  0  0  0  0  0  0  0
  -25.1427  -29.2417   22.3270 C   0  0  0  0  0  0  0  0  0  0  0  0
  -21.3264  -12.4231   23.1136 C   0  0  1  0  0  0  0  0  0  0  0  0
  -24.1075  -13.7829   20.9113 C   0  0  1  0  0  0  0  0  0  0  0  0
  -23.6157  -28.8948   26.6079 C   0  0  1  0  0  0  0  0  0  0  0  0
  -26.0335  -29.5674   21.1103 C   0  0  1  0  0  0  0  0  0  0  0  0
  -24.7069  -23.2905   25.8582 C   0  0  2  0  0  0  0  0  0  0  0  0
  -23.7366  -23.8973   26.8373 C   0  0  2  0  0  0  0  0  0  0  0  0
  -31.7259  -13.2391   19.1622 C   0  0  0  0  0  0  0  0  0  0  0  0
  -26.9104  -11.6289   23.8886 C   0  0  0  0  0  0  0  0  0  0  0  0
  -29.3277  -11.5633   23.2398 C   0  0  0  0  0  0  0  0  0  0  0  0
  -27.6815  -10.1069   22.0602 C   0  0  0  0  0  0  0  0  0  0  0  0
  -28.4781  -14.0254   17.3429 C   0  0  0  0  0  0  0  0  0  0  0  0
  -24.0934  -27.6595   27.3501 C   0  0  0  0  0  0  0  0  0  0  0  0
  -25.1380  -21.5124   24.3047 C   0  0  0  0  0  0  0  0  0  0  0  0
  -23.6412  -26.3863   26.6514 C   0  0  0  0  0  0  0  0  0  0  0  0
  -24.6579  -20.7708   23.0666 C   0  0  0  0  0  0  0  0  0  1  0  0
  -27.6729  -12.5964   21.6195 C   0  0  1  0  0  0  0  0  0  0  0  0
  -30.2354  -13.1353   18.8786 C   0  0  2  0  0  0  0  0  0  0  0  0
  -27.8831  -11.4980   22.6996 C   0  0  0  0  0  0  0  0  0  0  0  0
  -26.7628  -27.2115   21.1594 N   0  0  0  0  0  0  0  0  0  0  0  0
  -27.0727  -28.4871   20.8714 N   0  0  0  0  0  0  0  0  0  0  0  0
  -25.5343  -13.7825   21.2407 N   0  0  0  0  0  0  0  0  0  0  0  0
  -24.0928  -30.2527   22.5076 N   0  0  0  0  0  0  0  0  0  0  0  0
  -24.1173  -30.4419   24.8933 N   0  0  0  0  0  0  0  0  0  0  0  0
  -28.8085  -29.8676   20.0395 N   0  0  0  0  0  0  0  0  0  0  0  0
  -30.6219  -25.7329   19.9285 N   0  0  0  0  0  0  0  0  0  0  0  0
  -22.1951  -12.7940   22.0171 N   0  0  0  0  0  0  0  0  0  0  0  0
  -28.5623  -12.4811   20.4689 N   0  0  0  0  0  0  0  0  0  0  0  0
  -24.2047  -22.5566   24.6930 N   0  0  0  0  0  0  0  0  0  0  0  0
  -24.0929  -25.2127   27.4367 N   0  3  0  0  0  0  0  0  0  0  0  0
  -29.9085  -14.0442   17.7437 N   0  3  0  0  0  0  0  0  0  0  0  0
  -31.0155  -27.9509   19.4991 O   0  0  0  0  0  0  0  0  0  0  0  0
  -23.8155  -13.9239   23.2501 O   0  0  0  0  0  0  0  0  0  0  0  0
  -25.8385  -11.5929   20.4994 O   0  0  0  0  0  0  0  0  0  0  0  0
  -29.5194  -14.5831   20.6755 O   0  0  0  0  0  0  0  0  0  0  0  0
  -23.5987  -32.2345   23.5655 O   0  0  0  0  0  0  0  0  0  0  0  0
  -28.1313  -21.0014   21.4924 O   0  0  0  0  0  0  0  0  0  0  0  0
  -25.6170  -19.7779   22.7280 O   0  0  0  0  0  0  0  0  0  1  0  0
  -30.2887  -18.0268   17.3813 F   0  0  0  0  0  0  0  0  0  0  0  0
  -30.7339  -21.4148   20.6567 F   0  0  0  0  0  0  0  0  0  0  0  0
  1  2  1  0  0  0  0
  1  5  2  0  0  0  0
  2  6  2  0  0  0  0
  3  8  2  0  0  0  0
  3 15  1  0  0  0  0
  4  9  1  0  0  0  0
  4 15  2  0  0  0  0
  5 17  1  0  0  0  0
  6 19  1  0  0  0  0
  7 10  2  0  0  0  0
  7 18  1  0  0  0  0
  8 21  1  0  0  0  0
  9 21  2  0  0  0  0
 10 22  1  0  0  0  0
 11 12  2  0  0  0  0
 11 23  1  0  0  0  0
 12 24  1  0  0  0  0
 13 20  1  0  0  0  0
 13 22  2  0  0  0  0
 14 24  2  0  0  0  0
 14 25  1  0  0  0  0
 15 26  1  0  0  0  0
 16 26  1  0  0  0  0
 16 27  2  0  0  0  0
 16 28  1  0  0  0  0
 17 19  2  0  0  0  0
 17 33  1  0  0  0  0
 18 20  2  0  0  0  0
 18 34  1  0  0  0  0
 19 46  1  0  0  0  0
 20 35  1  0  0  0  0
 21 81  1  0  0  0  0
 22 82  1  0  0  0  0
 23 25  2  0  0  0  0
 23 81  1  0  0  0  0
 24 83  1  0  0  0  0
 25 84  1  0  0  0  0
 26 64  2  0  0  0  0
 27 65  1  0  0  0  0
 27 69  1  0  0  0  0
 28 70  1  0  0  0  0
 28 76  2  0  0  0  0
 29 47  1  0  0  0  0
 29 71  1  0  0  0  0
 29 77  2  0  0  0  0
 30 61  1  0  0  0  0
 30 66  1  0  0  0  0
 30 78  2  0  0  0  0
 31 62  1  0  0  0  0
 31 72  1  0  0  0  0
 31 79  2  0  0  0  0
 32 67  1  0  0  0  0
 32 68  1  0  0  0  0
 32 80  2  0  0  0  0
 33 36  1  0  0  0  0
 34 47  1  0  0  0  0
 35 66  1  0  0  0  0
 36 38  1  0  0  0  0
 37 39  1  0  0  0  0
 37 42  1  0  0  0  0
 38 46  1  0  0  0  0
 39 49  1  0  0  0  0
 40 43  1  0  0  0  0
 40 48  1  0  0  0  0
 41 50  1  0  0  0  0
 41 51  1  0  0  0  0
 42 67  1  0  0  0  0
 43 68  1  0  0  0  0
 44 48  1  0  0  0  0
 44 68  1  0  0  0  0
 45 49  1  0  0  0  0
 45 67  1  0  0  0  0
 46 71  1  0  0  0  0
 47 66  1  0  0  0  0
 48 57  1  0  0  0  0
 49 65  1  0  0  0  0
 50 51  1  0  0  0  0
 50 73  1  0  0  0  0
 51 74  1  0  0  0  0
 52 62  1  0  0  0  0
 53 63  1  0  0  0  0
 54 63  1  0  0  0  0
 55 63  1  0  0  0  0
 56 75  1  0  0  0  0
 57 59  1  0  0  0  0
 58 60  1  0  0  0  0
 58 73  1  0  0  0  0
 59 74  1  0  0  0  0
 60 82  1  0  0  0  0
 61 63  1  0  0  0  0
 61 72  1  0  0  0  0
 62 75  1  0  0  0  0
 64 65  1  0  0  0  0
M  CHG  2  74   1  75   1
M  ISO  4  32 100  60 101  68 100  82 101
M  END
> <Batch ID>
0198

> <Smiles>
CNC(C)C(=O)NC(C(=O)N1Cc2cc([101O:1][101CH2:1]CNC3CC3NCCC3CC[100N:0]([100C:0](=O)N4CCCC(n5nc(-c6ccc(Oc7ccc(F)cc7F)cc6)c(C(N)=O)c5N)C4)C3)ccc2CC1C(=O)NC1CCCc2ccccc21)C(C)(C)C

> <Shape>
0.235

> <Color>
0.074

> <Negative vol penalty>
0.000

$$$$

  -OEChem-04052323483D

 85 94  0     1  0  0  0  0  0999 V2000
  -19.6027   -9.5370   21.3015 C   0  0  0  0  0  0  0  0  0  0  0  0
  -20.0270  -10.6942   21.9466 C   0  0  0  0  0  0  0  0  0  0  0  0
  -24.3114  -30.3110   20.2449 C   0  0  0  0  0  0  0  0  0  0  0  0
  -24.5069  -28.3507   21.6435 C   0  0  0  0  0  0  0  0  0  0  0  0
  -20.5411   -8.6410   20.7909 C   0  0  0  0  0  0  0  0  0  0  0  0
  -21.3899  -10.9556   22.0826 C   0  0  0  0  0  0  0  0  0  0  0  0
  -22.5647  -15.7598   20.9939 C   0  0  0  0  0  0  0  0  0  0  0  0
  -22.9639  -30.0226   20.0289 C   0  0  0  0  0  0  0  0  0  0  0  0
  -23.1594  -28.0623   21.4276 C   0  0  0  0  0  0  0  0  0  0  0  0
  -22.2910  -16.7187   21.9682 C   0  0  0  0  0  0  0  0  0  0  0  0
  -20.1687  -29.1348   22.5791 C   0  0  0  0  0  0  0  0  0  0  0  0
  -19.4002  -28.7707   23.6847 C   0  0  0  0  0  0  0  0  0  0  0  0
  -24.6085  -16.6919   22.6370 C   0  0  0  0  0  0  0  0  0  0  0  0
  -18.9125  -26.6448   22.6457 C   0  0  0  0  0  0  0  0  0  0  0  0
  -25.0829  -29.4750   21.0521 C   0  0  0  0  0  0  0  0  0  0  0  0
  -27.0133  -30.9342   21.8597 C   0  0  0  0  0  0  0  0  0  0  0  0
  -21.9161   -8.8963   20.9121 C   0  0  0  0  0  0  0  0  0  0  0  0
  -23.8624  -15.2509   20.8408 C   0  0  0  0  0  0  0  0  0  0  0  0
  -22.3475  -10.0616   21.5743 C   0  0  0  0  0  0  0  0  0  0  0  0
  -24.8966  -15.7284   21.6583 C   0  0  0  0  0  0  0  0  0  0  0  0
  -22.3878  -28.8982   20.6203 C   0  0  0  0  0  0  0  0  0  0  0  0
  -23.3123  -17.1828   22.7919 C   0  0  0  0  0  0  0  0  0  0  0  0
  -20.3090  -28.2540   21.5067 C   0  0  0  0  0  0  0  0  0  0  0  0
  -18.7722  -27.5257   23.7181 C   0  0  0  0  0  0  0  0  0  0  0  0
  -19.6809  -27.0090   21.5400 C   0  0  0  0  0  0  0  0  0  0  0  0
  -26.4751  -29.7722   21.2750 C   0  0  0  0  0  0  0  0  0  0  0  0
  -28.3714  -30.7299   21.8422 C   0  0  0  0  0  0  0  0  0  0  0  0
  -26.3453  -32.0944   22.3728 C   0  0  0  0  0  0  0  0  0  0  0  0
  -25.1905  -12.3756   21.1103 C   0  0  0  0  0  0  0  0  0  0  0  0
  -27.8157  -13.9118   19.9828 C   0  0  0  0  0  0  0  0  0  0  0  0
  -29.5058  -16.8499   19.5857 C   0  0  0  0  0  0  0  0  0  0  0  0
  -28.6595  -25.3559   21.6974 C   0  0  0  0  0  0  0  0  0  0  0  0
  -22.8932   -7.8750   20.3860 C   0  0  0  0  0  0  0  0  0  0  0  0
  -24.1467  -14.2364   19.7673 C   0  0  0  0  0  0  0  0  0  0  0  0
  -26.3109  -15.2291   21.5209 C   0  0  0  0  0  0  0  0  0  0  0  0
  -24.3153   -8.4107   20.2412 C   0  0  0  0  0  0  0  0  0  0  0  0
  -29.4517  -27.4381   18.9039 C   0  0  0  0  0  0  0  0  0  0  0  0
  -29.1104  -25.2171   25.2929 C   0  0  0  0  0  0  0  0  0  0  0  0
  -24.7266   -9.1787   21.4933 C   0  0  0  0  0  0  0  0  0  0  0  0
  -30.1545  -28.6496   19.5064 C   0  0  0  0  0  0  0  0  0  0  0  0
  -27.6299  -24.8694   25.2250 C   0  0  0  0  0  0  0  0  0  0  0  0
  -22.8186  -23.2821   24.0266 C   0  0  0  0  0  0  0  0  0  0  0  0
  -29.8085  -26.1748   19.6717 C   0  0  0  0  0  0  0  0  0  0  0  0
  -29.3077  -26.0738   24.0519 C   0  0  0  0  0  0  0  0  0  0  0  0
  -23.6183  -24.5557   23.7343 C   0  0  0  0  0  0  0  0  0  0  0  0
  -30.0785  -27.4710   21.7772 C   0  0  0  0  0  0  0  0  0  0  0  0
  -25.1502  -22.7891   23.7474 C   0  0  0  0  0  0  0  0  0  0  0  0
  -23.8171  -10.3924   21.7197 C   0  0  1  0  0  0  0  0  0  0  0  0
  -25.4000  -13.4111   20.0419 C   0  0  1  0  0  0  0  0  0  0  0  0
  -29.8830  -28.8001   21.0118 C   0  0  2  0  0  0  0  0  0  0  0  0
  -27.3856  -24.6632   23.7276 C   0  0  1  0  0  0  0  0  0  0  0  0
  -23.8754  -22.2288   24.3690 C   0  0  1  0  0  0  0  0  0  0  0  0
  -23.9940  -22.0032   25.8790 C   0  0  0  0  0  0  0  0  0  0  0  0
  -31.6430  -17.7834   18.6592 C   0  0  0  0  0  0  0  0  0  0  0  0
  -29.3333  -12.8276   22.3976 C   0  0  0  0  0  0  0  0  0  0  0  0
  -31.1230  -14.5186   21.9444 C   0  0  0  0  0  0  0  0  0  0  0  0
  -30.6100  -12.7630   20.2481 C   0  0  0  0  0  0  0  0  0  0  0  0
  -28.0567  -18.5619   17.6548 C   0  0  0  0  0  0  0  0  0  0  0  0
  -25.9656  -25.0404   23.3255 C   0  0  0  0  0  0  0  0  0  0  0  0
  -22.2472  -20.3412   24.2105 C   0  0  0  0  0  0  0  0  0  0  0  0
  -21.9933  -19.0398   23.4758 C   0  0  0  0  0  0  0  0  0  1  0  0
  -28.9713  -14.6542   20.6092 C   0  0  1  0  0  0  0  0  0  0  0  0
  -30.1829  -17.4668   18.3751 C   0  0  2  0  0  0  0  0  0  0  0  0
  -29.9825  -13.6990   21.3040 C   0  0  0  0  0  0  0  0  0  0  0  0
  -27.4146  -28.8948   20.9124 N   0  0  0  0  0  0  0  0  0  0  0  0
  -28.5569  -29.5058   21.2701 N   0  0  0  0  0  0  0  0  0  0  0  0
  -26.5373  -14.2329   20.4608 N   0  0  0  0  0  0  0  0  0  0  0  0
  -29.5085  -26.2983   21.0983 N   0  0  0  0  0  0  0  0  0  0  0  0
  -28.3992  -25.4912   23.0630 N   0  0  0  0  0  0  0  0  0  0  0  0
  -25.0098  -24.2165   24.0490 N   0  0  1  0  0  0  0  0  0  0  0  0
  -29.4131  -31.4799   22.2604 N   0  0  0  0  0  0  0  0  0  0  0  0
  -25.9689  -32.1063   23.7228 N   0  0  0  0  0  0  0  0  0  0  0  0
  -24.1838  -11.4720   20.8284 N   0  0  0  0  0  0  0  0  0  0  0  0
  -29.5528  -15.4723   19.5504 N   0  0  0  0  0  0  0  0  0  0  0  0
  -23.5302  -20.9290   23.7393 N   0  3  0  0  0  0  0  0  0  0  0  0
  -29.4954  -18.7301   17.9848 N   0  3  0  0  0  0  0  0  0  0  0  0
  -26.0751  -33.0844   21.6514 O   0  0  0  0  0  0  0  0  0  0  0  0
  -25.8914  -12.3941   22.1153 O   0  0  0  0  0  0  0  0  0  0  0  0
  -28.0384  -13.0828   19.0969 O   0  0  0  0  0  0  0  0  0  0  0  0
  -28.9903  -17.5228   20.4756 O   0  0  0  0  0  0  0  0  0  0  0  0
  -28.1638  -24.4284   21.0438 O   0  0  0  0  0  0  0  0  0  0  0  0
  -21.0729  -28.6166   20.4100 O   0  0  0  0  0  0  0  0  0  0  0  0
  -23.0459  -18.1249   23.7510 O   0  0  0  0  0  0  0  0  0  1  0  0
  -18.0355  -27.1756   24.7806 F   0  0  0  0  0  0  0  0  0  0  0  0
  -19.8130  -26.1580   20.5132 F   0  0  0  0  0  0  0  0  0  0  0  0
  1  2  1  0  0  0  0
  1  5  2  0  0  0  0
  2  6  2  0  0  0  0
  3  8  2  0  0  0  0
  3 15  1  0  0  0  0
  4  9  1  0  0  0  0
  4 15  2  0  0  0  0
  5 17  1  0  0  0  0
  6 19  1  0  0  0  0
  7 10  2  0  0  0  0
  7 18  1  0  0  0  0
  8 21  1  0  0  0  0
  9 21  2  0  0  0  0
 10 22  1  0  0  0  0
 11 12  2  0  0  0  0
 11 23  1  0  0  0  0
 12 24  1  0  0  0  0
 13 20  1  0  0  0  0
 13 22  2  0  0  0  0
 14 24  2  0  0  0  0
 14 25  1  0  0  0  0
 15 26  1  0  0  0  0
 16 26  1  0  0  0  0
 16 27  2  0  0  0  0
 16 28  1  0  0  0  0
 17 19  2  0  0  0  0
 17 33  1  0  0  0  0
 18 20  2  0  0  0  0
 18 34  1  0  0  0  0
 19 48  1  0  0  0  0
 20 35  1  0  0  0  0
 21 82  1  0  0  0  0
 22 83  1  0  0  0  0
 23 25  2  0  0  0  0
 23 82  1  0  0  0  0
 24 84  1  0  0  0  0
 25 85  1  0  0  0  0
 26 65  2  0  0  0  0
 27 66  1  0  0  0  0
 27 71  1  0  0  0  0
 28 72  1  0  0  0  0
 28 77  2  0  0  0  0
 29 49  1  0  0  0  0
 29 73  1  0  0  0  0
 29 78  2  0  0  0  0
 30 62  1  0  0  0  0
 30 67  1  0  0  0  0
 30 79  2  0  0  0  0
 31 63  1  0  0  0  0
 31 74  1  0  0  0  0
 31 80  2  0  0  0  0
 32 68  1  0  0  0  0
 32 69  1  0  0  0  0
 32 81  2  0  0  0  0
 33 36  1  0  0  0  0
 34 49  1  0  0  0  0
 35 67  1  0  0  0  0
 36 39  1  0  0  0  0
 37 40  1  0  0  0  0
 37 43  1  0  0  0  0
 38 41  1  0  0  0  0
 38 44  1  0  0  0  0
 39 48  1  0  0  0  0
 40 50  1  0  0  0  0
 41 51  1  0  0  0  0
 42 45  1  0  0  0  0
 42 52  1  0  0  0  0
 43 68  1  0  0  0  0
 44 69  1  0  0  0  0
 45 70  1  0  0  0  0
 46 50  1  0  0  0  0
 46 68  1  0  0  0  0
 47 52  1  0  0  0  0
 47 70  1  0  0  0  0
 48 73  1  0  0  0  0
 49 67  1  0  0  0  0
 50 66  1  0  0  0  0
 51 59  1  0  0  0  0
 51 69  1  0  0  0  0
 52 53  1  0  0  0  0
 52 75  1  0  0  0  0
 54 63  1  0  0  0  0
 55 64  1  0  0  0  0
 56 64  1  0  0  0  0
 57 64  1  0  0  0  0
 58 76  1  0  0  0  0
 59 70  1  0  0  0  0
 60 61  1  0  0  0  0
 60 75  1  0  0  0  0
 61 83  1  0  0  0  0
 62 64  1  0  0  0  0
 62 74  1  0  0  0  0
 63 76  1  0  0  0  0
 65 66  1  0  0  0  0
M  CHG  2  75   1  76   1
M  ISO  4  32 100  61 101  69 100  83 101
M  END
> <Batch ID>
0198

> <Smiles>
CNC(C)C(=O)NC(C(=O)N1Cc2cc([101O:1][101CH2:1]CNC3(C)CCN(CC4CCC[100N:0]4[100C:0](=O)N4CCCC(n5nc(-c6ccc(Oc7ccc(F)cc7F)cc6)c(C(N)=O)c5N)C4)C3)ccc2CC1C(=O)NC1CCCc2ccccc21)C(C)(C)C

> <Shape>
0.275

> <Color>
0.041

> <Negative vol penalty>
0.000

$$$$

  -OEChem-04052323483D

 86 95  0     1  0  0  0  0  0999 V2000
  -17.9782  -30.0035   25.5279 C   0  0  0  0  0  0  0  0  0  0  0  0
  -19.3443  -29.9650   25.7878 C   0  0  0  0  0  0  0  0  0  0  0  0
  -26.3974  -13.6458   21.9146 C   0  0  0  0  0  0  0  0  0  0  0  0
  -24.6040  -13.7385   20.2984 C   0  0  0  0  0  0  0  0  0  0  0  0
  -17.4667  -29.3676   24.3974 C   0  0  0  0  0  0  0  0  0  0  0  0
  -20.1997  -29.2896   24.9180 C   0  0  0  0  0  0  0  0  0  0  0  0
  -25.9483  -30.8297   23.4732 C   0  0  0  0  0  0  0  0  0  0  0  0
  -25.7867  -12.5530   22.5296 C   0  0  0  0  0  0  0  0  0  0  0  0
  -23.9933  -12.6456   20.9134 C   0  0  0  0  0  0  0  0  0  0  0  0
  -27.1843  -30.3804   23.9361 C   0  0  0  0  0  0  0  0  0  0  0  0
  -24.3715   -9.2878   20.9675 C   0  0  0  0  0  0  0  0  0  0  0  0
  -23.8838   -8.2723   20.1450 C   0  0  0  0  0  0  0  0  0  0  0  0
  -27.3189  -28.8518   22.0748 C   0  0  0  0  0  0  0  0  0  0  0  0
  -21.6592   -8.6368   21.0141 C   0  0  0  0  0  0  0  0  0  0  0  0
  -25.8060  -14.2387   20.7990 C   0  0  0  0  0  0  0  0  0  0  0  0
  -27.3773  -15.3387   19.1171 C   0  0  0  0  0  0  0  0  0  0  0  0
  -18.3174  -28.6923   23.5081 C   0  0  0  0  0  0  0  0  0  0  0  0
  -25.3824  -30.2848   22.3117 C   0  0  0  0  0  0  0  0  0  0  0  0
  -19.6989  -28.6429   23.7753 C   0  0  0  0  0  0  0  0  0  0  0  0
  -26.0769  -29.2977   21.5978 C   0  0  0  0  0  0  0  0  0  0  0  0
  -24.5847  -12.0528   22.0290 C   0  0  0  0  0  0  0  0  0  0  0  0
  -27.8685  -29.3893   23.2385 C   0  0  0  0  0  0  0  0  0  0  0  0
  -23.5030   -9.9778   21.8133 C   0  0  0  0  0  0  0  0  0  0  0  0
  -22.5276   -7.9468   20.1683 C   0  0  0  0  0  0  0  0  0  0  0  0
  -22.1469   -9.6523   21.8366 C   0  0  0  0  0  0  0  0  0  0  0  0
  -26.4361  -15.3680   20.1635 C   0  0  0  0  0  0  0  0  0  0  0  0
  -27.6628  -16.6602   18.8749 C   0  0  0  0  0  0  0  0  0  0  0  0
  -31.2666  -26.1634   24.2928 C   0  0  0  0  0  0  0  0  0  0  0  0
  -30.3136  -27.0827   24.4847 C   0  0  0  0  0  0  0  0  0  0  0  0
  -27.9430  -14.2172   18.4258 C   0  0  0  0  0  0  0  0  0  0  0  0
  -22.7265  -28.6656   21.6572 C   0  0  0  0  0  0  0  0  0  0  0  0
  -23.7268  -29.0257   18.5926 C   0  0  0  0  0  0  0  0  0  0  0  0
  -26.3172  -29.5467   16.4327 C   0  0  0  0  0  0  0  0  0  0  0  0
  -28.8460  -21.6580   20.4379 C   0  0  0  0  0  0  0  0  0  0  0  0
  -17.7123  -27.9797   22.3246 C   0  0  0  0  0  0  0  0  0  0  0  0
  -24.0607  -30.7992   21.8107 C   0  0  0  0  0  0  0  0  0  0  0  0
  -25.5220  -28.6947   20.3341 C   0  0  0  0  0  0  0  0  0  0  0  0
  -32.1682  -25.6442   25.3809 C   0  0  0  0  0  0  0  0  0  0  0  0
  -18.7326  -27.6038   21.2531 C   0  0  0  0  0  0  0  0  0  0  0  0
  -25.4210  -20.8790   20.5158 C   0  0  0  0  0  0  0  0  0  0  0  0
  -19.9632  -26.9647   21.8886 C   0  0  0  0  0  0  0  0  0  0  0  0
  -25.4516  -19.3603   20.3468 C   0  0  0  0  0  0  0  0  0  0  0  0
  -32.5491  -24.3793   23.3792 C   0  0  0  0  0  0  0  0  0  0  0  0
  -26.5347  -21.3757   21.4395 C   0  0  0  0  0  0  0  0  0  0  0  0
  -28.4768  -23.4748   22.1663 C   0  0  0  0  0  0  0  0  0  0  0  0
  -29.6916  -23.9561   20.0734 C   0  0  0  0  0  0  0  0  0  0  0  0
  -27.9181  -19.4038   20.8765 C   0  0  0  0  0  0  0  0  0  0  0  0
  -29.6745  -23.9508   22.9821 C   0  0  0  0  0  0  0  0  0  0  0  0
  -30.9128  -24.4141   20.8540 C   0  0  0  0  0  0  0  0  0  0  0  0
  -20.6619  -27.9415   22.8422 C   0  0  1  0  0  0  0  0  0  0  0  0
  -31.6140  -25.5202   22.9781 C   0  0  1  0  0  0  0  0  0  0  0  0
  -23.3404  -29.8093   20.9005 C   0  0  1  0  0  0  0  0  0  0  0  0
  -33.2828  -24.9452   24.5970 C   0  0  2  0  0  0  0  0  0  0  0  0
  -26.8466  -18.8816   19.9070 C   0  0  1  0  0  0  0  0  0  0  0  0
  -26.8298  -29.7540   13.9850 C   0  0  0  0  0  0  0  0  0  0  0  0
  -23.4689  -26.0010   18.2850 C   0  0  0  0  0  0  0  0  0  0  0  0
  -24.8627  -26.1631   16.2115 C   0  0  0  0  0  0  0  0  0  0  0  0
  -22.6566  -27.3221   16.3230 C   0  0  0  0  0  0  0  0  0  0  0  0
  -35.4399  -23.5920   27.4307 C   0  0  0  0  0  0  0  0  0  0  0  0
  -27.3263  -32.3097   16.7595 C   0  0  0  0  0  0  0  0  0  0  0  0
  -29.4213  -27.5956   23.4037 C   0  0  0  0  0  0  0  0  0  1  0  0
  -34.0032  -23.8813   25.4081 C   0  0  0  0  0  0  0  0  0  0  0  0
  -24.6038  -28.2326   17.6541 C   0  0  1  0  0  0  0  0  0  0  0  0
  -26.4765  -30.5000   15.2622 C   0  0  2  0  0  0  0  0  0  0  0  0
  -23.9078  -26.9395   17.1432 C   0  0  0  0  0  0  0  0  0  0  0  0
  -26.1432  -16.6097   20.5590 N   0  0  0  0  0  0  0  0  0  0  0  0
  -26.9049  -17.3729   19.7569 N   0  0  0  0  0  0  0  0  0  0  0  0
  -24.2235  -29.2264   19.8883 N   0  0  0  0  0  0  0  0  0  0  0  0
  -27.8404  -20.8606   21.0045 N   0  0  0  0  0  0  0  0  0  0  0  0
  -28.8986  -22.9999   20.8429 N   0  0  0  0  0  0  0  0  0  0  0  0
  -28.4856  -17.2705   17.9958 N   0  0  0  0  0  0  0  0  0  0  0  0
  -27.5396  -12.9284   18.8007 N   0  0  0  0  0  0  0  0  0  0  0  0
  -21.4387  -28.9079   22.0958 N   0  0  0  0  0  0  0  0  0  0  0  0
  -25.0059  -29.1527   16.5957 N   0  0  0  0  0  0  0  0  0  0  0  0
  -30.4630  -24.9640   22.1875 N   0  3  0  0  0  0  0  0  0  0  0  0
  -34.6469  -24.5205   26.5768 N   0  3  0  0  0  0  0  0  0  0  0  0
  -27.5556  -31.4889   15.5426 N   0  3  0  0  0  0  0  0  0  0  0  0
  -28.7937  -14.3533   17.5140 O   0  0  0  0  0  0  0  0  0  0  0  0
  -23.3727  -27.6387   21.8292 O   0  0  0  0  0  0  0  0  0  0  0  0
  -22.6441  -29.4575   18.1888 O   0  0  0  0  0  0  0  0  0  0  0  0
  -27.2621  -29.1846   17.1303 O   0  0  0  0  0  0  0  0  0  0  0  0
  -29.6506  -21.1974   19.6182 O   0  0  0  0  0  0  0  0  0  0  0  0
  -23.9886  -10.9863   22.6287 O   0  0  0  0  0  0  0  0  0  0  0  0
  -29.0837  -28.9452   23.6918 O   0  0  0  0  0  0  0  0  0  1  0  0
  -22.0592   -6.9726   19.3773 F   0  0  0  0  0  0  0  0  0  0  0  0
  -21.3075  -10.3124   22.6463 F   0  0  0  0  0  0  0  0  0  0  0  0
  1  2  1  0  0  0  0
  1  5  2  0  0  0  0
  2  6  2  0  0  0  0
  3  8  2  0  0  0  0
  3 15  1  0  0  0  0
  4  9  1  0  0  0  0
  4 15  2  0  0  0  0
  5 17  1  0  0  0  0
  6 19  1  0  0  0  0
  7 10  2  0  0  0  0
  7 18  1  0  0  0  0
  8 21  1  0  0  0  0
  9 21  2  0  0  0  0
 10 22  1  0  0  0  0
 11 12  2  0  0  0  0
 11 23  1  0  0  0  0
 12 24  1  0  0  0  0
 13 20  1  0  0  0  0
 13 22  2  0  0  0  0
 14 24  2  0  0  0  0
 14 25  1  0  0  0  0
 15 26  1  0  0  0  0
 16 26  1  0  0  0  0
 16 27  2  0  0  0  0
 16 30  1  0  0  0  0
 17 19  2  0  0  0  0
 17 35  1  0  0  0  0
 18 20  2  0  0  0  0
 18 36  1  0  0  0  0
 19 50  1  0  0  0  0
 20 37  1  0  0  0  0
 21 83  1  0  0  0  0
 22 84  1  0  0  0  0
 23 25  2  0  0  0  0
 23 83  1  0  0  0  0
 24 85  1  0  0  0  0
 25 86  1  0  0  0  0
 26 66  2  0  0  0  0
 27 67  1  0  0  0  0
 27 71  1  0  0  0  0
 28 29  2  0  0  0  0
 28 38  1  0  0  0  0
 28 51  1  0  0  0  0
 29 61  1  0  0  0  0
 30 72  1  0  0  0  0
 30 78  2  0  0  0  0
 31 52  1  0  0  0  0
 31 73  1  0  0  0  0
 31 79  2  0  0  0  0
 32 63  1  0  0  0  0
 32 68  1  0  0  0  0
 32 80  2  0  0  0  0
 33 64  1  0  0  0  0
 33 74  1  0  0  0  0
 33 81  2  0  0  0  0
 34 69  1  0  0  0  0
 34 70  1  0  0  0  0
 34 82  2  0  0  0  0
 35 39  1  0  0  0  0
 36 52  1  0  0  0  0
 37 68  1  0  0  0  0
 38 53  1  0  0  0  0
 39 41  1  0  0  0  0
 40 42  1  0  0  0  0
 40 44  1  0  0  0  0
 41 50  1  0  0  0  0
 42 54  1  0  0  0  0
 43 51  1  0  0  0  0
 43 53  1  0  0  0  0
 44 69  1  0  0  0  0
 45 48  1  0  0  0  0
 45 70  1  0  0  0  0
 46 49  1  0  0  0  0
 46 70  1  0  0  0  0
 47 54  1  0  0  0  0
 47 69  1  0  0  0  0
 48 75  1  0  0  0  0
 49 75  1  0  0  0  0
 50 73  1  0  0  0  0
 51 75  1  0  0  0  0
 52 68  1  0  0  0  0
 53 62  1  0  0  0  0
 54 67  1  0  0  0  0
 55 64  1  0  0  0  0
 56 65  1  0  0  0  0
 57 65  1  0  0  0  0
 58 65  1  0  0  0  0
 59 76  1  0  0  0  0
 60 77  1  0  0  0  0
 61 84  1  0  0  0  0
 62 76  1  0  0  0  0
 63 65  1  0  0  0  0
 63 74  1  0  0  0  0
 64 77  1  0  0  0  0
 66 67  1  0  0  0  0
M  CHG  3  75   1  76   1  77   1
M  ISO  4  34 100  61 101  70 100  84 101
M  END
> <Batch ID>
0198

> <Smiles>
CNCC1CC(=C[101CH2:1][101O:1]c2ccc3c(c2)CN(C(=O)C(NC(=O)C(C)NC)C(C)(C)C)C(C(=O)NC2CCCc4ccccc42)C3)C(N2CC[100N:0]([100C:0](=O)N3CCCC(n4nc(-c5ccc(Oc6ccc(F)cc6F)cc5)c(C(N)=O)c4N)C3)CC2)C1

> <Shape>
0.248

> <Color>
0.083

> <Negative vol penalty>
0.000

$$$$

  -OEChem-04052323483D

 83 92  0     1  0  0  0  0  0999 V2000
  -29.7217  -37.4807   22.0840 C   0  0  0  0  0  0  0  0  0  0  0  0
  -29.9734  -36.2152   21.5639 C   0  0  0  0  0  0  0  0  0  0  0  0
  -23.0569   -9.8337   22.6080 C   0  0  0  0  0  0  0  0  0  0  0  0
  -24.3362   -9.3099   20.6266 C   0  0  0  0  0  0  0  0  0  0  0  0
  -28.8340  -37.6317   23.1485 C   0  0  0  0  0  0  0  0  0  0  0  0
  -29.3383  -35.0998   22.1086 C   0  0  0  0  0  0  0  0  0  0  0  0
  -27.4679  -30.0982   19.1100 C   0  0  0  0  0  0  0  0  0  0  0  0
  -22.3164   -8.6638   22.4393 C   0  0  0  0  0  0  0  0  0  0  0  0
  -23.5957   -8.1399   20.4578 C   0  0  0  0  0  0  0  0  0  0  0  0
  -28.0361  -28.8357   18.9457 C   0  0  0  0  0  0  0  0  0  0  0  0
  -22.7147   -5.3575   23.0243 C   0  0  0  0  0  0  0  0  0  0  0  0
  -22.4878   -4.5659   24.1501 C   0  0  0  0  0  0  0  0  0  0  0  0
  -26.7116  -28.0072   20.7838 C   0  0  0  0  0  0  0  0  0  0  0  0
  -20.1047   -4.8391   23.8618 C   0  0  0  0  0  0  0  0  0  0  0  0
  -24.0668  -10.1568   21.7016 C   0  0  0  0  0  0  0  0  0  0  0  0
  -26.0256  -11.5185   22.6052 C   0  0  0  0  0  0  0  0  0  0  0  0
  -28.1803  -36.5187   23.7003 C   0  0  0  0  0  0  0  0  0  0  0  0
  -26.5238  -30.3278   20.1211 C   0  0  0  0  0  0  0  0  0  0  0  0
  -28.4420  -35.2358   23.1823 C   0  0  0  0  0  0  0  0  0  0  0  0
  -26.1311  -29.2729   20.9572 C   0  0  0  0  0  0  0  0  0  0  0  0
  -30.0567  -22.7209   19.9352 C   0  0  0  0  0  0  0  0  0  0  0  0
  -22.5858   -7.8169   21.3642 C   0  0  0  0  0  0  0  0  0  0  0  0
  -27.6601  -27.7906   19.7846 C   0  0  0  0  0  0  0  0  0  0  0  0
  -21.6366   -5.8900   22.3173 C   0  0  0  0  0  0  0  0  0  0  0  0
  -21.1828   -4.3066   24.5689 C   0  0  0  0  0  0  0  0  0  0  0  0
  -20.3316   -5.6307   22.7360 C   0  0  0  0  0  0  0  0  0  0  0  0
  -24.8317  -11.3655   21.8751 C   0  0  0  0  0  0  0  0  0  0  0  0
  -29.8319  -23.9749   20.4483 C   0  0  0  0  0  0  0  0  0  0  0  0
  -28.8240  -22.3467   19.3676 C   0  0  0  0  0  0  0  0  0  0  0  0
  -26.3482  -12.8459   22.4615 C   0  0  0  0  0  0  0  0  0  0  0  0
  -26.7760  -10.5477   23.3469 C   0  0  0  0  0  0  0  0  0  0  0  0
  -26.3950  -32.1998   22.6867 C   0  0  0  0  0  0  0  0  0  0  0  0
  -23.3559  -31.0808   22.8697 C   0  0  0  0  0  0  0  0  0  0  0  0
  -21.1236  -28.6184   22.0950 C   0  0  0  0  0  0  0  0  0  0  0  0
  -27.0366  -17.1777   19.1170 C   0  0  0  0  0  0  0  0  0  0  0  0
  -27.2652  -36.7259   24.8811 C   0  0  0  0  0  0  0  0  0  0  0  0
  -25.9004  -31.6888   20.2680 C   0  0  0  0  0  0  0  0  0  0  0  0
  -25.1066  -29.4622   22.0449 C   0  0  0  0  0  0  0  0  0  0  0  0
  -26.3477  -35.5374   25.1566 C   0  0  0  0  0  0  0  0  0  0  0  0
  -23.6920  -16.7141   20.6262 C   0  0  0  0  0  0  0  0  0  0  0  0
  -27.1371  -34.2328   25.1154 C   0  0  0  0  0  0  0  0  0  0  0  0
  -23.7805  -15.2638   21.0906 C   0  0  0  0  0  0  0  0  0  0  0  0
  -24.4912  -16.9586   19.3467 C   0  0  0  0  0  0  0  0  0  0  0  0
  -26.0044  -15.0757   19.9125 C   0  0  0  0  0  0  0  0  0  0  0  0
  -28.8149  -19.8699   19.3416 C   0  0  0  0  0  0  0  0  0  0  0  0
  -27.5781  -20.7818   17.9069 C   0  0  0  0  0  0  0  0  0  0  0  0
  -27.7536  -34.0045   23.7300 C   0  0  1  0  0  0  0  0  0  0  0  0
  -25.3293  -31.9372   21.6607 C   0  0  1  0  0  0  0  0  0  0  0  0
  -25.2471  -14.8281   21.2257 C   0  0  2  0  0  0  0  0  0  0  0  0
  -27.9601  -19.3221   18.1901 C   0  0  0  0  0  0  0  0  0  0  0  0
  -31.3154  -21.9532   19.9781 C   0  0  0  0  0  0  0  0  0  0  0  0
  -30.7214  -24.9075   21.1665 C   0  0  0  0  0  0  0  0  0  0  0  0
  -18.7217  -27.9653   22.4139 C   0  0  0  0  0  0  0  0  0  0  0  0
  -23.9615  -30.2679   25.7476 C   0  0  0  0  0  0  0  0  0  0  0  0
  -21.9253  -28.8122   25.6913 C   0  0  0  0  0  0  0  0  0  0  0  0
  -21.7006  -31.2799   25.4032 C   0  0  0  0  0  0  0  0  0  0  0  0
  -20.6095  -28.6418   19.1806 C   0  0  0  0  0  0  0  0  0  0  0  0
  -27.7859  -25.5255   20.5202 C   0  0  0  0  0  0  0  0  0  1  0  0
  -22.6900  -29.8984   23.5311 C   0  0  1  0  0  0  0  0  0  0  0  0
  -19.7219  -28.6755   21.5150 C   0  0  2  0  0  0  0  0  0  0  0  0
  -22.5901  -30.0612   25.0742 C   0  0  0  0  0  0  0  0  0  0  0  0
  -24.4235  -12.5046   21.3097 N   0  0  0  0  0  0  0  0  0  0  0  0
  -27.8855  -23.2868   19.5071 N   0  0  0  0  0  0  0  0  0  0  0  0
  -28.5288  -24.2642   20.1682 N   0  0  0  0  0  0  0  0  0  0  0  0
  -25.3660  -13.3862   21.6846 N   0  0  0  0  0  0  0  0  0  0  0  0
  -28.6523  -21.1469   18.7530 N   0  0  0  0  0  0  0  0  0  0  0  0
  -24.5306  -30.8128   22.1528 N   0  0  0  0  0  0  0  0  0  0  0  0
  -25.8735  -16.4680   19.4655 N   0  0  0  0  0  0  0  0  0  0  0  0
  -27.3733  -13.5919   22.9252 N   0  0  0  0  0  0  0  0  0  0  0  0
  -26.3030   -9.2291   23.3911 N   0  0  0  0  0  0  0  0  0  0  0  0
  -26.7494  -33.5305   22.8019 N   0  0  0  0  0  0  0  0  0  0  0  0
  -21.4039  -29.7282   22.8637 N   0  0  0  0  0  0  0  0  0  0  0  0
  -26.8377  -18.4574   18.6080 N   0  0  0  0  0  0  0  0  0  0  0  0
  -19.6898  -28.0283   20.1730 N   0  3  0  0  0  0  0  0  0  0  0  0
  -27.8258  -10.8444   23.9661 O   0  0  0  0  0  0  0  0  0  0  0  0
  -26.8603  -31.2647   23.3276 O   0  0  0  0  0  0  0  0  0  0  0  0
  -22.8484  -32.1998   22.9790 O   0  0  0  0  0  0  0  0  0  0  0  0
  -21.8916  -27.6810   21.8899 O   0  0  0  0  0  0  0  0  0  0  0  0
  -28.1730  -16.7083   19.2410 O   0  0  0  0  0  0  0  0  0  0  0  0
  -21.8636   -6.6751   21.1993 O   0  0  0  0  0  0  0  0  0  0  0  0
  -28.2136  -26.5575   19.6268 O   0  0  0  0  0  0  0  0  0  1  0  0
  -20.9650   -3.5452   25.6491 F   0  0  0  0  0  0  0  0  0  0  0  0
  -19.2918   -6.1385   22.0602 F   0  0  0  0  0  0  0  0  0  0  0  0
  1  2  1  0  0  0  0
  1  5  2  0  0  0  0
  2  6  2  0  0  0  0
  3  8  2  0  0  0  0
  3 15  1  0  0  0  0
  4  9  1  0  0  0  0
  4 15  2  0  0  0  0
  5 17  1  0  0  0  0
  6 19  1  0  0  0  0
  7 10  2  0  0  0  0
  7 18  1  0  0  0  0
  8 22  1  0  0  0  0
  9 22  2  0  0  0  0
 10 23  1  0  0  0  0
 11 12  2  0  0  0  0
 11 24  1  0  0  0  0
 12 25  1  0  0  0  0
 13 20  1  0  0  0  0
 13 23  2  0  0  0  0
 14 25  2  0  0  0  0
 14 26  1  0  0  0  0
 15 27  1  0  0  0  0
 16 27  1  0  0  0  0
 16 30  2  0  0  0  0
 16 31  1  0  0  0  0
 17 19  2  0  0  0  0
 17 36  1  0  0  0  0
 18 20  2  0  0  0  0
 18 37  1  0  0  0  0
 19 47  1  0  0  0  0
 20 38  1  0  0  0  0
 21 28  2  0  0  0  0
 21 29  1  0  0  0  0
 21 51  1  0  0  0  0
 22 80  1  0  0  0  0
 23 81  1  0  0  0  0
 24 26  2  0  0  0  0
 24 80  1  0  0  0  0
 25 82  1  0  0  0  0
 26 83  1  0  0  0  0
 27 62  2  0  0  0  0
 28 52  1  0  0  0  0
 28 64  1  0  0  0  0
 29 63  2  0  0  0  0
 29 66  1  0  0  0  0
 30 65  1  0  0  0  0
 30 69  1  0  0  0  0
 31 70  1  0  0  0  0
 31 75  2  0  0  0  0
 32 48  1  0  0  0  0
 32 71  1  0  0  0  0
 32 76  2  0  0  0  0
 33 59  1  0  0  0  0
 33 67  1  0  0  0  0
 33 77  2  0  0  0  0
 34 60  1  0  0  0  0
 34 72  1  0  0  0  0
 34 78  2  0  0  0  0
 35 68  1  0  0  0  0
 35 73  1  0  0  0  0
 35 79  2  0  0  0  0
 36 39  1  0  0  0  0
 37 48  1  0  0  0  0
 38 67  1  0  0  0  0
 39 41  1  0  0  0  0
 40 42  1  0  0  0  0
 40 43  1  0  0  0  0
 41 47  1  0  0  0  0
 42 49  1  0  0  0  0
 43 68  1  0  0  0  0
 44 49  1  0  0  0  0
 44 68  1  0  0  0  0
 45 50  1  0  0  0  0
 45 66  1  0  0  0  0
 46 50  1  0  0  0  0
 46 66  1  0  0  0  0
 47 71  1  0  0  0  0
 48 67  1  0  0  0  0
 49 65  1  0  0  0  0
 50 73  1  0  0  0  0
 53 60  1  0  0  0  0
 54 61  1  0  0  0  0
 55 61  1  0  0  0  0
 56 61  1  0  0  0  0
 57 74  1  0  0  0  0
 58 64  1  0  0  0  0
 58 81  1  0  0  0  0
 59 61  1  0  0  0  0
 59 72  1  0  0  0  0
 60 74  1  0  0  0  0
 62 65  1  0  0  0  0
 63 64  1  0  0  0  0
M  CHG  1  74   1
M  ISO  4  35 100  58 101  73 100  81 101
M  END
> <Batch ID>
0198

> <Smiles>
CNC(C)C(=O)NC(C(=O)N1Cc2cc([101O:1][101CH2:1]n3nc(N4CC([100NH:0][100C:0](=O)N5CCCC(n6nc(-c7ccc(Oc8ccc(F)cc8F)cc7)c(C(N)=O)c6N)C5)C4)c(C)c3C)ccc2CC1C(=O)NC1CCCc2ccccc21)C(C)(C)C

> <Shape>
0.288

> <Color>
0.106

> <Negative vol penalty>
0.000

$$$$

  -OEChem-04052323483D

 80 89  0     1  0  0  0  0  0999 V2000
  -33.5764  -32.7412   16.8345 C   0  0  0  0  0  0  0  0  0  0  0  0
  -33.0099  -31.5380   17.2430 C   0  0  0  0  0  0  0  0  0  0  0  0
  -24.9672   -9.5456   18.8626 C   0  0  0  0  0  0  0  0  0  0  0  0
  -25.0975   -9.1934   21.2492 C   0  0  0  0  0  0  0  0  0  0  0  0
  -33.4619  -33.8733   17.6402 C   0  0  0  0  0  0  0  0  0  0  0  0
  -32.3296  -31.4660   18.4581 C   0  0  0  0  0  0  0  0  0  0  0  0
  -27.9503  -28.9504   18.0866 C   0  0  0  0  0  0  0  0  0  0  0  0
  -24.8008   -8.1743   18.6693 C   0  0  0  0  0  0  0  0  0  0  0  0
  -24.9311   -7.8221   21.0560 C   0  0  0  0  0  0  0  0  0  0  0  0
  -28.0169  -27.5582   18.0496 C   0  0  0  0  0  0  0  0  0  0  0  0
  -26.7498   -5.4135   18.6075 C   0  0  0  0  0  0  0  0  0  0  0  0
  -27.4924   -4.8079   17.5940 C   0  0  0  0  0  0  0  0  0  0  0  0
  -27.4403  -27.4745   20.3905 C   0  0  0  0  0  0  0  0  0  0  0  0
  -25.4474   -4.1192   16.5073 C   0  0  0  0  0  0  0  0  0  0  0  0
  -27.2017  -22.4326   17.6465 C   0  0  0  0  0  0  0  0  0  0  0  0
  -25.1156  -10.0552   20.1526 C   0  0  0  0  0  0  0  0  0  0  0  0
  -24.2773  -12.4316   20.5499 C   0  0  0  0  0  0  0  0  0  0  0  0
  -32.7716  -33.8175   18.8612 C   0  0  0  0  0  0  0  0  0  0  0  0
  -27.6384  -29.6165   19.2805 C   0  0  0  0  0  0  0  0  0  0  0  0
  -32.2070  -32.5981   19.2815 C   0  0  0  0  0  0  0  0  0  0  0  0
  -27.3680  -28.8750   20.4394 C   0  0  0  0  0  0  0  0  0  0  0  0
  -24.7828   -7.3125   19.7660 C   0  0  0  0  0  0  0  0  0  0  0  0
  -27.7647  -26.8202   19.2023 C   0  0  0  0  0  0  0  0  0  0  0  0
  -25.3560   -5.3719   18.5711 C   0  0  0  0  0  0  0  0  0  0  0  0
  -26.8412   -4.1607   16.5438 C   0  0  0  0  0  0  0  0  0  0  0  0
  -24.7048   -4.7248   17.5210 C   0  0  0  0  0  0  0  0  0  0  0  0
  -25.2880  -11.4716   20.3529 C   0  0  0  0  0  0  0  0  0  0  0  0
  -28.1543  -23.3654   18.0798 C   0  0  0  0  0  0  0  0  0  0  0  0
  -24.9538  -13.6188   20.6890 C   0  0  0  0  0  0  0  0  0  0  0  0
  -22.8543  -12.2650   20.6026 C   0  0  0  0  0  0  0  0  0  0  0  0
  -29.1522  -31.6922   21.1524 C   0  0  0  0  0  0  0  0  0  0  0  0
  -26.3099  -31.7619   22.7141 C   0  0  0  0  0  0  0  0  0  0  0  0
  -23.3753  -30.1882   23.4613 C   0  0  0  0  0  0  0  0  0  0  0  0
  -28.8082  -17.0859   18.8247 C   0  0  0  0  0  0  0  0  0  0  0  0
  -32.7148  -35.0559   19.7203 C   0  0  0  0  0  0  0  0  0  0  0  0
  -27.5444  -31.1176   19.2974 C   0  0  0  0  0  0  0  0  0  0  0  0
  -27.0089  -29.5414   21.7415 C   0  0  0  0  0  0  0  0  0  0  0  0
  -31.6555  -34.9880   20.8174 C   0  0  0  0  0  0  0  0  0  0  0  0
  -29.8644  -14.5721   21.3102 C   0  0  0  0  0  0  0  0  0  0  0  0
  -31.7226  -33.6474   21.5421 C   0  0  0  0  0  0  0  0  0  0  0  0
  -28.6960  -13.5924   21.2514 C   0  0  0  0  0  0  0  0  0  0  0  0
  -30.9931  -20.2104   18.8253 C   0  0  0  0  0  0  0  0  0  0  0  0
  -30.1479  -15.2089   19.9504 C   0  0  0  0  0  0  0  0  0  0  0  0
  -27.7845  -14.8794   19.2796 C   0  0  0  0  0  0  0  0  0  0  0  0
  -31.4400  -32.4862   20.5813 C   0  0  1  0  0  0  0  0  0  0  0  0
  -27.7223  -31.7118   20.6912 C   0  0  1  0  0  0  0  0  0  0  0  0
  -27.4535  -14.2656   20.6486 C   0  0  1  0  0  0  0  0  0  0  0  0
  -29.5387  -20.3829   19.1908 C   0  0  2  0  0  0  0  0  0  0  0  0
  -29.9854  -19.2101   18.3410 C   0  0  2  0  0  0  0  0  0  0  0  0
  -21.2683  -30.4778   24.7932 C   0  0  0  0  0  0  0  0  0  0  0  0
  -27.8428  -31.1222   25.2736 C   0  0  0  0  0  0  0  0  0  0  0  0
  -25.6654  -30.4942   26.3379 C   0  0  0  0  0  0  0  0  0  0  0  0
  -26.0340  -32.8286   25.5398 C   0  0  0  0  0  0  0  0  0  0  0  0
  -21.6859  -30.0592   21.0347 C   0  0  0  0  0  0  0  0  0  0  0  0
  -28.1616  -24.8573   17.9196 C   0  0  0  0  0  0  0  0  0  1  0  0
  -25.6942  -30.9798   23.8491 C   0  0  1  0  0  0  0  0  0  0  0  0
  -21.9377  -30.6755   23.4421 C   0  0  2  0  0  0  0  0  0  0  0  0
  -26.3178  -31.3434   25.2262 C   0  0  0  0  0  0  0  0  0  0  0  0
  -27.5823  -21.2006   17.9962 N   0  0  0  0  0  0  0  0  0  0  0  0
  -26.5133  -12.0031   20.3649 N   0  0  0  0  0  0  0  0  0  0  0  0
  -29.1498  -22.7364   18.7107 N   0  0  0  0  0  0  0  0  0  0  0  0
  -26.2770  -13.3099   20.5711 N   0  0  0  0  0  0  0  0  0  0  0  0
  -28.7420  -21.4603   18.6212 N   0  0  0  0  0  0  0  0  0  0  0  0
  -26.9358  -31.0115   21.7087 N   0  0  0  0  0  0  0  0  0  0  0  0
  -28.9319  -15.7917   19.3616 N   0  0  0  0  0  0  0  0  0  0  0  0
  -24.5400  -14.8864   20.8994 N   0  0  0  0  0  0  0  0  0  0  0  0
  -22.3259  -10.9770   20.4406 N   0  0  0  0  0  0  0  0  0  0  0  0
  -30.0200  -32.3774   20.3237 N   0  0  0  0  0  0  0  0  0  0  0  0
  -24.2552  -31.2050   23.7666 N   0  0  0  0  0  0  0  0  0  0  0  0
  -29.9570  -17.8682   18.8588 N   0  0  0  0  0  0  0  0  0  0  0  0
  -21.1528  -29.9331   22.4156 N   0  3  0  0  0  0  0  0  0  0  0  0
  -22.0734  -13.2321   20.7714 O   0  0  0  0  0  0  0  0  0  0  0  0
  -29.4461  -31.1004   22.1845 O   0  0  0  0  0  0  0  0  0  0  0  0
  -26.2319  -32.9930   22.7158 O   0  0  0  0  0  0  0  0  0  0  0  0
  -23.6862  -29.0215   23.2323 O   0  0  0  0  0  0  0  0  0  0  0  0
  -27.7529  -17.5136   18.3439 O   0  0  0  0  0  0  0  0  0  0  0  0
  -24.6202   -5.9743   19.5777 O   0  0  0  0  0  0  0  0  0  0  0  0
  -27.8296  -25.4613   19.1691 O   0  0  0  0  0  0  0  0  0  1  0  0
  -27.5544   -3.5805   15.5697 F   0  0  0  0  0  0  0  0  0  0  0  0
  -23.3660   -4.6826   17.4799 F   0  0  0  0  0  0  0  0  0  0  0  0
  1  2  1  0  0  0  0
  1  5  2  0  0  0  0
  2  6  2  0  0  0  0
  3  8  2  0  0  0  0
  3 16  1  0  0  0  0
  4  9  1  0  0  0  0
  4 16  2  0  0  0  0
  5 18  1  0  0  0  0
  6 20  1  0  0  0  0
  7 10  2  0  0  0  0
  7 19  1  0  0  0  0
  8 22  1  0  0  0  0
  9 22  2  0  0  0  0
 10 23  1  0  0  0  0
 11 12  2  0  0  0  0
 11 24  1  0  0  0  0
 12 25  1  0  0  0  0
 13 21  1  0  0  0  0
 13 23  2  0  0  0  0
 14 25  2  0  0  0  0
 14 26  1  0  0  0  0
 15 28  1  0  0  0  0
 15 59  2  0  0  0  0
 16 27  1  0  0  0  0
 17 27  1  0  0  0  0
 17 29  2  0  0  0  0
 17 30  1  0  0  0  0
 18 20  2  0  0  0  0
 18 35  1  0  0  0  0
 19 21  2  0  0  0  0
 19 36  1  0  0  0  0
 20 45  1  0  0  0  0
 21 37  1  0  0  0  0
 22 77  1  0  0  0  0
 23 78  1  0  0  0  0
 24 26  2  0  0  0  0
 24 77  1  0  0  0  0
 25 79  1  0  0  0  0
 26 80  1  0  0  0  0
 27 60  2  0  0  0  0
 28 55  1  0  0  0  0
 28 61  2  0  0  0  0
 29 62  1  0  0  0  0
 29 66  1  0  0  0  0
 30 67  1  0  0  0  0
 30 72  2  0  0  0  0
 31 46  1  0  0  0  0
 31 68  1  0  0  0  0
 31 73  2  0  0  0  0
 32 56  1  0  0  0  0
 32 64  1  0  0  0  0
 32 74  2  0  0  0  0
 33 57  1  0  0  0  0
 33 69  1  0  0  0  0
 33 75  2  0  0  0  0
 34 65  1  0  0  0  0
 34 70  1  0  0  0  0
 34 76  2  0  0  0  0
 35 38  1  0  0  0  0
 36 46  1  0  0  0  0
 37 64  1  0  0  0  0
 38 40  1  0  0  0  0
 39 41  1  0  0  0  0
 39 43  1  0  0  0  0
 40 45  1  0  0  0  0
 41 47  1  0  0  0  0
 42 48  1  0  0  0  0
 42 49  1  0  0  0  0
 43 65  1  0  0  0  0
 44 47  1  0  0  0  0
 44 65  1  0  0  0  0
 45 68  1  0  0  0  0
 46 64  1  0  0  0  0
 47 62  1  0  0  0  0
 48 49  1  0  0  0  0
 48 63  1  0  0  0  0
 49 70  1  0  0  0  0
 50 57  1  0  0  0  0
 51 58  1  0  0  0  0
 52 58  1  0  0  0  0
 53 58  1  0  0  0  0
 54 71  1  0  0  0  0
 55 78  1  0  0  0  0
 56 58  1  0  0  0  0
 56 69  1  0  0  0  0
 57 71  1  0  0  0  0
 59 63  1  0  0  0  0
 60 62  1  0  0  0  0
 61 63  1  0  0  0  0
M  CHG  1  71   1
M  ISO  4  34 100  55 101  70 100  78 101
M  END
> <Batch ID>
0198

> <Smiles>
CNC(C)C(=O)NC(C(=O)N1Cc2cc([101O:1][101CH2:1]c3cnn(C4CC4[100NH:0][100C:0](=O)N4CCCC(n5nc(-c6ccc(Oc7ccc(F)cc7F)cc6)c(C(N)=O)c5N)C4)n3)ccc2CC1C(=O)NC1CCCc2ccccc21)C(C)(C)C

> <Shape>
0.221

> <Color>
0.118

> <Negative vol penalty>
0.000

$$$$

  -OEChem-04052323483D

 82 91  0     1  0  0  0  0  0999 V2000
  -25.1261  -31.2380   25.6288 C   0  0  0  0  0  0  0  0  0  0  0  0
  -25.5191  -29.9729   25.2041 C   0  0  0  0  0  0  0  0  0  0  0  0
  -22.6483  -12.0835   18.8401 C   0  0  0  0  0  0  0  0  0  0  0  0
  -22.9570  -10.1956   20.3157 C   0  0  0  0  0  0  0  0  0  0  0  0
  -24.6815  -32.1773   24.6992 C   0  0  0  0  0  0  0  0  0  0  0  0
  -25.4666  -29.6459   23.8495 C   0  0  0  0  0  0  0  0  0  0  0  0
  -29.3277  -26.0091   20.7882 C   0  0  0  0  0  0  0  0  0  0  0  0
  -21.5383  -11.4583   18.2723 C   0  0  0  0  0  0  0  0  0  0  0  0
  -21.8469   -9.5703   19.7479 C   0  0  0  0  0  0  0  0  0  0  0  0
  -29.2522  -24.6701   20.4072 C   0  0  0  0  0  0  0  0  0  0  0  0
  -18.4821   -9.7759   19.9851 C   0  0  0  0  0  0  0  0  0  0  0  0
  -17.5615   -9.1833   20.8493 C   0  0  0  0  0  0  0  0  0  0  0  0
  -28.4476  -25.3402   18.2340 C   0  0  0  0  0  0  0  0  0  0  0  0
  -17.9566   -7.0422   19.8020 C   0  0  0  0  0  0  0  0  0  0  0  0
  -23.3578  -11.4521   19.8618 C   0  0  0  0  0  0  0  0  0  0  0  0
  -24.5178  -12.9653   21.5565 C   0  0  0  0  0  0  0  0  0  0  0  0
  -24.6328  -31.8648   23.3315 C   0  0  0  0  0  0  0  0  0  0  0  0
  -28.9528  -27.0249   19.8972 C   0  0  0  0  0  0  0  0  0  0  0  0
  -25.0197  -30.5814   22.9009 C   0  0  0  0  0  0  0  0  0  0  0  0
  -28.5217  -26.6914   18.6053 C   0  0  0  0  0  0  0  0  0  0  0  0
  -21.1375  -10.2017   18.7262 C   0  0  0  0  0  0  0  0  0  0  0  0
  -28.8093  -24.3354   19.1309 C   0  0  0  0  0  0  0  0  0  0  0  0
  -19.1399   -9.0017   19.0293 C   0  0  0  0  0  0  0  0  0  0  0  0
  -17.2987   -7.8165   20.7578 C   0  0  0  0  0  0  0  0  0  0  0  0
  -18.8772   -7.6349   18.9378 C   0  0  0  0  0  0  0  0  0  0  0  0
  -24.5049  -12.0973   20.4483 C   0  0  0  0  0  0  0  0  0  0  0  0
  -25.8400  -13.3027   21.7130 C   0  0  0  0  0  0  0  0  0  0  0  0
  -23.4318  -13.4254   22.3717 C   0  0  0  0  0  0  0  0  0  0  0  0
  -26.7211  -29.2884   19.8866 C   0  0  0  0  0  0  0  0  0  0  0  0
  -28.2417  -30.2297   17.1803 C   0  0  0  0  0  0  0  0  0  0  0  0
  -30.2387  -29.3986   14.5406 C   0  0  0  0  0  0  0  0  0  0  0  0
  -30.7440  -14.7610   19.7778 C   0  0  0  0  0  0  0  0  0  0  0  0
  -24.1003  -32.8972   22.3695 C   0  0  0  0  0  0  0  0  0  0  0  0
  -29.0654  -28.4656   20.3144 C   0  0  0  0  0  0  0  0  0  0  0  0
  -28.1269  -27.7453   17.6043 C   0  0  0  0  0  0  0  0  0  0  0  0
  -24.4296  -32.5966   20.9096 C   0  0  0  0  0  0  0  0  0  0  0  0
  -30.0104  -11.3922   19.5971 C   0  0  0  0  0  0  0  0  0  0  0  0
  -24.1360  -31.1351   20.5862 C   0  0  0  0  0  0  0  0  0  0  0  0
  -28.5124  -11.3314   19.8952 C   0  0  0  0  0  0  0  0  0  0  0  0
  -29.7076  -21.2609   20.2974 C   0  0  0  0  0  0  0  0  0  0  0  0
  -30.3394  -12.5731   18.6909 C   0  0  0  0  0  0  0  0  0  0  0  0
  -31.2727  -17.1263   20.2455 C   0  0  0  0  0  0  0  0  0  0  0  0
  -29.3819  -16.6241   18.7529 C   0  0  0  0  0  0  0  0  0  0  0  0
  -30.4970  -18.3293   20.7823 C   0  0  0  0  0  0  0  0  0  0  0  0
  -28.6318  -17.8268   19.3216 C   0  0  0  0  0  0  0  0  0  0  0  0
  -28.3938  -13.8461   19.5332 C   0  0  0  0  0  0  0  0  0  0  0  0
  -25.0006  -30.1972   21.4373 C   0  0  1  0  0  0  0  0  0  0  0  0
  -28.1695  -29.3950   19.5014 C   0  0  1  0  0  0  0  0  0  0  0  0
  -28.0051  -12.6724   20.4548 C   0  0  1  0  0  0  0  0  0  0  0  0
  -28.8266  -19.9942   20.3351 C   0  0  1  0  0  0  0  0  0  0  0  0
  -27.9595  -20.6472   19.2368 C   0  0  2  0  0  0  0  0  0  0  0  0
  -28.4685  -22.0199   19.7566 C   0  0  2  0  0  0  0  0  0  1  0  0
  -31.2773  -30.3708   12.4734 C   0  0  0  0  0  0  0  0  0  0  0  0
  -25.5384  -30.1130   15.7702 C   0  0  0  0  0  0  0  0  0  0  0  0
  -26.7560  -30.1514   13.5829 C   0  0  0  0  0  0  0  0  0  0  0  0
  -26.9532  -32.0804   15.1522 C   0  0  0  0  0  0  0  0  0  0  0  0
  -25.6394  -21.3229   18.6048 C   0  0  0  0  0  0  0  0  0  0  0  0
  -32.9777  -28.8487   15.5177 C   0  0  0  0  0  0  0  0  0  0  0  0
  -28.1111  -29.9037   15.7121 C   0  0  1  0  0  0  0  0  0  0  0  0
  -31.4647  -30.0741   13.9532 C   0  0  2  0  0  0  0  0  0  0  0  0
  -26.8452  -30.5419   15.0736 C   0  0  0  0  0  0  0  0  0  0  0  0
  -25.7222  -11.8959   19.9368 N   0  0  0  0  0  0  0  0  0  0  0  0
  -26.5124  -12.6422   20.7272 N   0  0  0  0  0  0  0  0  0  0  0  0
  -28.2484  -29.1393   18.0617 N   0  0  0  0  0  0  0  0  0  0  0  0
  -29.8380  -13.8256   19.2559 N   0  0  0  0  0  0  0  0  0  0  0  0
  -30.3691  -16.1113   19.7099 N   0  0  0  0  0  0  0  0  0  0  0  0
  -29.5761  -18.8603   19.7685 N   0  0  0  0  0  0  0  0  0  0  0  0
  -26.4815  -14.0970   22.5962 N   0  0  0  0  0  0  0  0  0  0  0  0
  -22.1368  -12.9808   22.0725 N   0  0  0  0  0  0  0  0  0  0  0  0
  -26.3478  -30.1360   20.9120 N   0  0  0  0  0  0  0  0  0  0  0  0
  -29.3654  -30.3134   15.0898 N   0  0  0  0  0  0  0  0  0  0  0  0
  -26.5179  -20.4542   19.4453 N   0  3  0  0  0  0  0  0  0  0  0  0
  -32.6622  -29.2008   14.1094 N   0  3  0  0  0  0  0  0  0  0  0  0
  -23.6026  -14.2207   23.3267 O   0  0  0  0  0  0  0  0  0  0  0  0
  -25.9955  -28.4968   19.2961 O   0  0  0  0  0  0  0  0  0  0  0  0
  -28.3415  -31.4079   17.5316 O   0  0  0  0  0  0  0  0  0  0  0  0
  -30.0708  -28.1814   14.5117 O   0  0  0  0  0  0  0  0  0  0  0  0
  -31.8200  -14.4133   20.2800 O   0  0  0  0  0  0  0  0  0  0  0  0
  -20.0542   -9.5914   18.1726 O   0  0  0  0  0  0  0  0  0  0  0  0
  -28.7331  -23.0145   18.7524 O   0  0  0  0  0  0  0  0  0  1  0  0
  -16.4157   -7.2472   21.5887 F   0  0  0  0  0  0  0  0  0  0  0  0
  -19.5069   -6.8857   18.0223 F   0  0  0  0  0  0  0  0  0  0  0  0
  1  2  1  0  0  0  0
  1  5  2  0  0  0  0
  2  6  2  0  0  0  0
  3  8  2  0  0  0  0
  3 15  1  0  0  0  0
  4  9  1  0  0  0  0
  4 15  2  0  0  0  0
  5 17  1  0  0  0  0
  6 19  1  0  0  0  0
  7 10  2  0  0  0  0
  7 18  1  0  0  0  0
  8 21  1  0  0  0  0
  9 21  2  0  0  0  0
 10 22  1  0  0  0  0
 11 12  2  0  0  0  0
 11 23  1  0  0  0  0
 12 24  1  0  0  0  0
 13 20  1  0  0  0  0
 13 22  2  0  0  0  0
 14 24  2  0  0  0  0
 14 25  1  0  0  0  0
 15 26  1  0  0  0  0
 16 26  1  0  0  0  0
 16 27  2  0  0  0  0
 16 28  1  0  0  0  0
 17 19  2  0  0  0  0
 17 33  1  0  0  0  0
 18 20  2  0  0  0  0
 18 34  1  0  0  0  0
 19 47  1  0  0  0  0
 20 35  1  0  0  0  0
 21 79  1  0  0  0  0
 22 80  1  0  0  0  0
 23 25  2  0  0  0  0
 23 79  1  0  0  0  0
 24 81  1  0  0  0  0
 25 82  1  0  0  0  0
 26 62  2  0  0  0  0
 27 63  1  0  0  0  0
 27 68  1  0  0  0  0
 28 69  1  0  0  0  0
 28 74  2  0  0  0  0
 29 48  1  0  0  0  0
 29 70  1  0  0  0  0
 29 75  2  0  0  0  0
 30 59  1  0  0  0  0
 30 64  1  0  0  0  0
 30 76  2  0  0  0  0
 31 60  1  0  0  0  0
 31 71  1  0  0  0  0
 31 77  2  0  0  0  0
 32 65  1  0  0  0  0
 32 66  1  0  0  0  0
 32 78  2  0  0  0  0
 33 36  1  0  0  0  0
 34 48  1  0  0  0  0
 35 64  1  0  0  0  0
 36 38  1  0  0  0  0
 37 39  1  0  0  0  0
 37 41  1  0  0  0  0
 38 47  1  0  0  0  0
 39 49  1  0  0  0  0
 40 50  1  0  0  0  0
 40 52  1  0  0  0  0
 41 65  1  0  0  0  0
 42 44  1  0  0  0  0
 42 66  1  0  0  0  0
 43 45  1  0  0  0  0
 43 66  1  0  0  0  0
 44 67  1  0  0  0  0
 45 67  1  0  0  0  0
 46 49  1  0  0  0  0
 46 65  1  0  0  0  0
 47 70  1  0  0  0  0
 48 64  1  0  0  0  0
 49 63  1  0  0  0  0
 50 51  1  0  0  0  0
 50 67  1  0  0  0  0
 51 52  1  0  0  0  0
 51 72  1  0  0  0  0
 52 80  1  0  0  0  0
 53 60  1  0  0  0  0
 54 61  1  0  0  0  0
 55 61  1  0  0  0  0
 56 61  1  0  0  0  0
 57 72  1  0  0  0  0
 58 73  1  0  0  0  0
 59 61  1  0  0  0  0
 59 71  1  0  0  0  0
 60 73  1  0  0  0  0
 62 63  1  0  0  0  0
M  CHG  2  72   1  73   1
M  ISO  4  32 100  52 101  66 100  80 101
M  END
> <Batch ID>
0198

> <Smiles>
CNC(C)C(=O)NC(C(=O)N1Cc2cc([101O:1][101CH:1]3CC(N4CC[100N:0]([100C:0](=O)N5CCCC(n6nc(-c7ccc(Oc8ccc(F)cc8F)cc7)c(C(N)=O)c6N)C5)CC4)C3NC)ccc2CC1C(=O)NC1CCCc2ccccc21)C(C)(C)C

> <Shape>
0.252

> <Color>
0.103

> <Negative vol penalty>
0.000

$$$$

  -OEChem-04052323483D

 84 93  0     1  0  0  0  0  0999 V2000
  -28.7132  -22.9688   21.2477 C   0  0  0  0  0  0  0  0  0  0  0  0
  -27.4256  -23.4886   21.3338 C   0  0  0  0  0  0  0  0  0  0  0  0
  -23.6805   -9.9709   22.3411 C   0  0  0  0  0  0  0  0  0  0  0  0
  -23.4617   -9.6551   19.9559 C   0  0  0  0  0  0  0  0  0  0  0  0
  -29.7329  -23.5018   22.0351 C   0  0  0  0  0  0  0  0  0  0  0  0
  -27.1567  -24.5410   22.2082 C   0  0  0  0  0  0  0  0  0  0  0  0
  -24.3135  -28.1535   20.0842 C   0  0  0  0  0  0  0  0  0  0  0  0
  -23.5207   -8.5992   22.5375 C   0  0  0  0  0  0  0  0  0  0  0  0
  -23.3018   -8.2833   20.1522 C   0  0  0  0  0  0  0  0  0  0  0  0
  -22.9460  -27.9051   19.9742 C   0  0  0  0  0  0  0  0  0  0  0  0
  -20.9777   -6.3740   22.6132 C   0  0  0  0  0  0  0  0  0  0  0  0
  -20.1176   -5.9616   23.6309 C   0  0  0  0  0  0  0  0  0  0  0  0
  -22.5488  -29.2592   21.9307 C   0  0  0  0  0  0  0  0  0  0  0  0
  -21.9477   -4.8135   24.7123 C   0  0  0  0  0  0  0  0  0  0  0  0
  -23.6510  -10.4988   21.0503 C   0  0  0  0  0  0  0  0  0  0  0  0
  -25.0227  -12.6109   20.6439 C   0  0  0  0  0  0  0  0  0  0  0  0
  -29.4785  -24.5677   22.9125 C   0  0  0  0  0  0  0  0  0  0  0  0
  -24.8108  -28.9490   21.1264 C   0  0  0  0  0  0  0  0  0  0  0  0
  -28.1737  -25.0879   23.0090 C   0  0  0  0  0  0  0  0  0  0  0  0
  -23.9228  -29.5183   22.0502 C   0  0  0  0  0  0  0  0  0  0  0  0
  -23.3314   -7.7555   21.4430 C   0  0  0  0  0  0  0  0  0  0  0  0
  -22.0637  -28.4556   20.8992 C   0  0  0  0  0  0  0  0  0  0  0  0
  -22.3228   -6.0060   22.6449 C   0  0  0  0  0  0  0  0  0  0  0  0
  -20.6026   -5.1814   24.6805 C   0  0  0  0  0  0  0  0  0  0  0  0
  -22.8078   -5.2258   23.6945 C   0  0  0  0  0  0  0  0  0  0  0  0
  -23.8155  -11.9158   20.8469 C   0  0  0  0  0  0  0  0  0  0  0  0
  -24.6436  -13.9236   20.5040 C   0  0  0  0  0  0  0  0  0  0  0  0
  -26.3665  -12.1144   20.5868 C   0  0  0  0  0  0  0  0  0  0  0  0
  -26.7918  -28.4692   23.5655 C   0  0  0  0  0  0  0  0  0  0  0  0
  -26.4293  -31.6656   23.9828 C   0  0  0  0  0  0  0  0  0  0  0  0
  -24.5233  -34.4536   23.4922 C   0  0  0  0  0  0  0  0  0  0  0  0
  -21.5672  -18.1228   22.5520 C   0  0  0  0  0  0  0  0  0  0  0  0
  -30.6026  -25.0795   23.7781 C   0  0  0  0  0  0  0  0  0  0  0  0
  -26.2859  -29.2293   21.2156 C   0  0  0  0  0  0  0  0  0  0  0  0
  -24.4039  -30.3960   23.1756 C   0  0  0  0  0  0  0  0  0  0  0  0
  -30.3169  -26.4417   24.4050 C   0  0  0  0  0  0  0  0  0  0  0  0
  -20.0697  -15.9927   19.9109 C   0  0  0  0  0  0  0  0  0  0  0  0
  -28.9151  -26.4694   25.0059 C   0  0  0  0  0  0  0  0  0  0  0  0
  -20.9996  -14.7788   19.9414 C   0  0  0  0  0  0  0  0  0  0  0  0
  -20.3096  -21.1445   20.8786 C   0  0  0  0  0  0  0  0  0  0  0  0
  -19.6464  -24.5676   24.0599 C   0  0  0  0  0  0  0  0  0  0  0  0
  -19.9612  -16.6307   21.2897 C   0  0  0  0  0  0  0  0  0  0  0  0
  -20.2704  -19.6201   20.9239 C   0  0  0  0  0  0  0  0  0  0  0  0
  -22.2032  -15.8230   21.9206 C   0  0  0  0  0  0  0  0  0  0  0  0
  -20.9354  -20.4623   23.0751 C   0  0  0  0  0  0  0  0  0  0  0  0
  -20.4514  -23.2792   24.0870 C   0  0  0  0  0  0  0  0  0  0  0  0
  -19.9045  -23.9349   21.7952 C   0  0  0  0  0  0  0  0  0  0  0  0
  -27.8481  -26.2457   23.9275 C   0  0  1  0  0  0  0  0  0  0  0  0
  -26.7338  -29.6330   22.6170 C   0  0  1  0  0  0  0  0  0  0  0  0
  -19.9532  -25.1603   22.6924 C   0  0  1  0  0  0  0  0  0  0  0  0
  -22.3664  -15.1397   20.5513 C   0  0  1  0  0  0  0  0  0  0  0  0
  -20.1079  -21.5031   22.3433 C   0  0  1  0  0  0  0  0  0  0  0  0
  -24.4704  -36.9146   23.9803 C   0  0  0  0  0  0  0  0  0  0  0  0
  -17.8984  -27.5688   20.4348 C   0  0  0  0  0  0  0  0  0  0  0  0
  -25.6479  -31.0733   26.8722 C   0  0  0  0  0  0  0  0  0  0  0  0
  -24.7105  -33.3901   27.0203 C   0  0  0  0  0  0  0  0  0  0  0  0
  -27.1434  -33.0566   26.5815 C   0  0  0  0  0  0  0  0  0  0  0  0
  -24.5149  -35.1422   20.6139 C   0  0  0  0  0  0  0  0  0  0  0  0
  -18.9733  -26.2420   22.2736 C   0  0  0  0  0  0  0  0  0  0  0  0
  -20.3344  -26.9713   20.2193 C   0  0  0  0  0  0  0  0  0  1  0  0
  -25.4725  -32.5412   24.7554 C   0  0  1  0  0  0  0  0  0  0  0  0
  -24.8778  -35.8397   22.9846 C   0  0  2  0  0  0  0  0  0  0  0  0
  -18.9696  -26.5204   20.7566 C   0  0  2  0  0  0  0  0  0  0  0  0
  -25.7344  -32.4972   26.2874 C   0  0  0  0  0  0  0  0  0  0  0  0
  -22.7493  -12.7203   20.8377 N   0  0  0  0  0  0  0  0  0  0  0  0
  -23.2854  -13.9346   20.6273 N   0  0  0  0  0  0  0  0  0  0  0  0
  -25.8558  -30.6354   23.2241 N   0  0  0  0  0  0  0  0  0  0  0  0
  -21.2845  -16.9596   21.8271 N   0  0  0  0  0  0  0  0  0  0  0  0
  -20.8564  -19.2764   22.2238 N   0  0  0  0  0  0  0  0  0  0  0  0
  -25.3430  -15.0581   20.2889 N   0  0  0  0  0  0  0  0  0  0  0  0
  -26.5780  -10.7386   20.7503 N   0  0  0  0  0  0  0  0  0  0  0  0
  -27.6411  -27.4565   23.1623 N   0  0  0  0  0  0  0  0  0  0  0  0
  -25.5747  -33.8734   24.1697 N   0  0  0  0  0  0  0  0  0  0  0  0
  -20.5792  -22.8676   22.6313 N   0  3  2  0  0  0  0  0  0  0  0  0
  -24.1873  -36.1103   21.6920 N   0  3  0  0  0  0  0  0  0  0  0  0
  -27.3521  -12.8707   20.4127 O   0  0  0  0  0  0  0  0  0  0  0  0
  -26.1171  -28.4892   24.5883 O   0  0  0  0  0  0  0  0  0  0  0  0
  -27.6403  -31.8919   24.0443 O   0  0  0  0  0  0  0  0  0  0  0  0
  -23.4224  -33.9388   23.3094 O   0  0  0  0  0  0  0  0  0  0  0  0
  -22.4494  -18.1426   23.4205 O   0  0  0  0  0  0  0  0  0  0  0  0
  -23.1756   -6.4169   21.6342 O   0  0  0  0  0  0  0  0  0  0  0  0
  -20.7186  -28.2124   20.7937 O   0  0  0  0  0  0  0  0  0  1  0  0
  -19.7768   -4.7868   25.6585 F   0  0  0  0  0  0  0  0  0  0  0  0
  -24.0993   -4.8702   23.7311 F   0  0  0  0  0  0  0  0  0  0  0  0
  1  2  1  0  0  0  0
  1  5  2  0  0  0  0
  2  6  2  0  0  0  0
  3  8  2  0  0  0  0
  3 15  1  0  0  0  0
  4  9  1  0  0  0  0
  4 15  2  0  0  0  0
  5 17  1  0  0  0  0
  6 19  1  0  0  0  0
  7 10  2  0  0  0  0
  7 18  1  0  0  0  0
  8 21  1  0  0  0  0
  9 21  2  0  0  0  0
 10 22  1  0  0  0  0
 11 12  2  0  0  0  0
 11 23  1  0  0  0  0
 12 24  1  0  0  0  0
 13 20  1  0  0  0  0
 13 22  2  0  0  0  0
 14 24  2  0  0  0  0
 14 25  1  0  0  0  0
 15 26  1  0  0  0  0
 16 26  1  0  0  0  0
 16 27  2  0  0  0  0
 16 28  1  0  0  0  0
 17 19  2  0  0  0  0
 17 33  1  0  0  0  0
 18 20  2  0  0  0  0
 18 34  1  0  0  0  0
 19 48  1  0  0  0  0
 20 35  1  0  0  0  0
 21 81  1  0  0  0  0
 22 82  1  0  0  0  0
 23 25  2  0  0  0  0
 23 81  1  0  0  0  0
 24 83  1  0  0  0  0
 25 84  1  0  0  0  0
 26 65  2  0  0  0  0
 27 66  1  0  0  0  0
 27 70  1  0  0  0  0
 28 71  1  0  0  0  0
 28 76  2  0  0  0  0
 29 49  1  0  0  0  0
 29 72  1  0  0  0  0
 29 77  2  0  0  0  0
 30 61  1  0  0  0  0
 30 67  1  0  0  0  0
 30 78  2  0  0  0  0
 31 62  1  0  0  0  0
 31 73  1  0  0  0  0
 31 79  2  0  0  0  0
 32 68  1  0  0  0  0
 32 69  1  0  0  0  0
 32 80  2  0  0  0  0
 33 36  1  0  0  0  0
 34 49  1  0  0  0  0
 35 67  1  0  0  0  0
 36 38  1  0  0  0  0
 37 39  1  0  0  0  0
 37 42  1  0  0  0  0
 38 48  1  0  0  0  0
 39 51  1  0  0  0  0
 40 43  1  0  0  0  0
 40 52  1  0  0  0  0
 41 46  1  0  0  0  0
 41 50  1  0  0  0  0
 42 68  1  0  0  0  0
 43 69  1  0  0  0  0
 44 51  1  0  0  0  0
 44 68  1  0  0  0  0
 45 52  1  0  0  0  0
 45 69  1  0  0  0  0
 46 74  1  0  0  0  0
 47 50  1  0  0  0  0
 47 74  1  0  0  0  0
 48 72  1  0  0  0  0
 49 67  1  0  0  0  0
 50 59  1  0  0  0  0
 51 66  1  0  0  0  0
 52 74  1  0  0  0  0
 53 62  1  0  0  0  0
 54 63  1  0  0  0  0
 55 64  1  0  0  0  0
 56 64  1  0  0  0  0
 57 64  1  0  0  0  0
 58 75  1  0  0  0  0
 59 63  1  0  0  0  0
 60 63  1  0  0  0  0
 60 82  1  0  0  0  0
 61 64  1  0  0  0  0
 61 73  1  0  0  0  0
 62 75  1  0  0  0  0
 65 66  1  0  0  0  0
M  CHG  2  74   1  75   1
M  ISO  4  32 100  60 101  69 100  82 101
M  END
> <Batch ID>
0198

> <Smiles>
CNC(C)C(=O)NC(C(=O)N1Cc2cc([101O:1][101CH2:1]C(C)CC3CCN(C4CC[100N:0]([100C:0](=O)N5CCCC(n6nc(-c7ccc(Oc8ccc(F)cc8F)cc7)c(C(N)=O)c6N)C5)C4)C3)ccc2CC1C(=O)NC1CCCc2ccccc21)C(C)(C)C

> <Shape>
0.267

> <Color>
0.099

> <Negative vol penalty>
0.000

$$$$

  -OEChem-04052323483D

 85 95  0     1  0  0  0  0  0999 V2000
  -24.2010  -35.9347   22.8204 C   0  0  0  0  0  0  0  0  0  0  0  0
  -25.0200  -34.8444   22.5452 C   0  0  0  0  0  0  0  0  0  0  0  0
  -24.5308   -8.8825   22.0152 C   0  0  0  0  0  0  0  0  0  0  0  0
  -23.4860   -9.1686   19.8556 C   0  0  0  0  0  0  0  0  0  0  0  0
  -22.9914  -35.7457   23.4875 C   0  0  0  0  0  0  0  0  0  0  0  0
  -24.6303  -33.5644   22.9380 C   0  0  0  0  0  0  0  0  0  0  0  0
  -25.3528  -30.1127   19.3036 C   0  0  0  0  0  0  0  0  0  0  0  0
  -23.4008   -8.2042   22.4720 C   0  0  0  0  0  0  0  0  0  0  0  0
  -22.3561   -8.4902   20.3124 C   0  0  0  0  0  0  0  0  0  0  0  0
  -26.6545  -29.6505   19.1141 C   0  0  0  0  0  0  0  0  0  0  0  0
  -20.9359   -6.0818   24.0951 C   0  0  0  0  0  0  0  0  0  0  0  0
  -21.1339   -4.9079   24.8219 C   0  0  0  0  0  0  0  0  0  0  0  0
  -27.3689  -23.8895   19.5370 C   0  0  0  0  0  0  0  0  0  0  0  0
  -26.9909  -22.5737   19.3355 C   0  0  0  0  0  0  0  0  0  0  0  0
  -26.1277  -27.6662   20.3806 C   0  0  0  0  0  0  0  0  0  0  0  0
  -22.2753   -3.9294   22.9307 C   0  0  0  0  0  0  0  0  0  0  0  0
  -24.5734   -9.3647   20.7070 C   0  0  0  0  0  0  0  0  0  0  0  0
  -26.8732   -9.5085   19.6125 C   0  0  0  0  0  0  0  0  0  0  0  0
  -22.5822  -34.4616   23.8801 C   0  0  0  0  0  0  0  0  0  0  0  0
  -24.4305  -29.3589   20.0434 C   0  0  0  0  0  0  0  0  0  0  0  0
  -23.4148  -33.3582   23.6122 C   0  0  0  0  0  0  0  0  0  0  0  0
  -24.8142  -28.1198   20.5758 C   0  0  0  0  0  0  0  0  0  0  0  0
  -22.3135   -8.0080   21.6206 C   0  0  0  0  0  0  0  0  0  0  0  0
  -27.0429  -28.4284   19.6551 C   0  0  0  0  0  0  0  0  0  0  0  0
  -21.4075   -6.1795   22.7860 C   0  0  0  0  0  0  0  0  0  0  0  0
  -21.8036   -3.8317   24.2398 C   0  0  0  0  0  0  0  0  0  0  0  0
  -22.0773   -5.1033   22.2038 C   0  0  0  0  0  0  0  0  0  0  0  0
  -25.7401  -10.0660   20.2347 C   0  0  0  0  0  0  0  0  0  0  0  0
  -28.7039  -24.2080   19.3892 C   0  0  0  0  0  0  0  0  0  0  0  0
  -27.9727  -21.6636   18.9992 C   0  0  0  0  0  0  0  0  0  0  0  0
  -27.6895  -10.5836   19.3590 C   0  0  0  0  0  0  0  0  0  0  0  0
  -27.1619   -8.1411   19.2922 C   0  0  0  0  0  0  0  0  0  0  0  0
  -22.7909  -29.8257   22.7263 C   0  0  0  0  0  0  0  0  0  0  0  0
  -21.4071  -27.0074   21.9109 C   0  0  0  0  0  0  0  0  0  0  0  0
  -21.6239  -24.0601   20.2041 C   0  0  0  0  0  0  0  0  0  0  0  0
  -26.7389  -16.2074   18.4121 C   0  0  0  0  0  0  0  0  0  0  0  0
  -21.2883  -34.3129   24.6407 C   0  0  0  0  0  0  0  0  0  0  0  0
  -23.0224  -29.8590   20.2161 C   0  0  0  0  0  0  0  0  0  0  0  0
  -23.8561  -27.2630   21.3608 C   0  0  0  0  0  0  0  0  0  0  0  0
  -20.7729  -32.8769   24.6909 C   0  0  0  0  0  0  0  0  0  0  0  0
  -28.7654  -14.9450   20.9887 C   0  0  0  0  0  0  0  0  0  0  0  0
  -21.9015  -31.9170   25.0539 C   0  0  0  0  0  0  0  0  0  0  0  0
  -28.3270  -13.4814   21.0305 C   0  0  0  0  0  0  0  0  0  0  0  0
  -29.9169  -26.3104   18.5034 C   0  0  0  0  0  0  0  0  0  0  0  0
  -27.5823  -15.8918   20.7805 C   0  0  0  0  0  0  0  0  0  0  0  0
  -28.3458  -19.5022   17.8515 C   0  0  0  0  0  0  0  0  0  0  0  0
  -26.9335  -19.6327   19.9093 C   0  0  0  0  0  0  0  0  0  0  0  0
  -27.5188  -18.3083   17.3818 C   0  0  0  0  0  0  0  0  0  0  0  0
  -26.1244  -18.4460   19.3976 C   0  0  0  0  0  0  0  0  0  0  0  0
  -26.3125  -14.0999   19.6425 C   0  0  0  0  0  0  0  0  0  0  0  0
  -23.0151  -31.9512   24.0002 C   0  0  1  0  0  0  0  0  0  0  0  0
  -29.1489  -25.6148   19.5977 C   0  0  1  0  0  0  0  0  0  0  0  0
  -22.3155  -29.2493   21.4227 C   0  0  1  0  0  0  0  0  0  0  0  0
  -27.4872  -13.1207   19.7922 C   0  0  2  0  0  0  0  0  0  0  0  0
  -28.5030  -26.7141   18.7903 C   0  0  1  0  0  0  0  0  0  1  0  0
  -20.3521  -21.9429   19.7597 C   0  0  0  0  0  0  0  0  0  0  0  0
  -22.1392  -25.9869   24.6916 C   0  0  0  0  0  0  0  0  0  0  0  0
  -21.7230  -23.6586   23.8705 C   0  0  0  0  0  0  0  0  0  0  0  0
  -19.8621  -25.3196   23.9015 C   0  0  0  0  0  0  0  0  0  0  0  0
  -21.5130  -24.6000   17.2963 C   0  0  0  0  0  0  0  0  0  0  0  0
  -21.7030  -25.5525   22.1842 C   0  0  1  0  0  0  0  0  0  0  0  0
  -20.6455  -23.3563   19.2811 C   0  0  2  0  0  0  0  0  0  0  0  0
  -21.3757  -25.1462   23.6489 C   0  0  0  0  0  0  0  0  0  0  0  0
  -25.8255  -11.3922   20.3685 N   0  0  0  0  0  0  0  0  0  0  0  0
  -29.6434  -23.2966   19.0594 N   0  0  0  0  0  0  0  0  0  0  0  0
  -29.2717  -22.0035   18.8610 N   0  0  0  0  0  0  0  0  0  0  0  0
  -27.0220  -11.6770   19.8269 N   0  0  0  0  0  0  0  0  0  0  0  0
  -27.5894  -20.3318   18.7957 N   0  0  0  0  0  0  0  0  0  0  0  0
  -22.4924  -27.7982   21.5076 N   0  0  0  0  0  0  0  0  0  0  0  0
  -26.7886  -15.4845   19.6133 N   0  0  0  0  0  0  0  0  0  0  0  0
  -26.9120  -17.5976   18.5008 N   0  0  0  0  0  0  0  0  0  0  0  0
  -28.9061  -10.6908   18.7838 N   0  0  0  0  0  0  0  0  0  0  0  0
  -26.2138   -7.1631   19.6221 N   0  0  0  0  0  0  0  0  0  0  0  0
  -22.6268  -31.1938   22.8297 N   0  0  0  0  0  0  0  0  0  0  0  0
  -20.9738  -24.7912   21.1758 N   0  0  0  0  0  0  0  0  0  0  0  0
  -21.2002  -23.2791   17.9001 N   0  3  0  0  0  0  0  0  0  0  0  0
  -28.2361   -7.7949   18.7448 O   0  0  0  0  0  0  0  0  0  0  0  0
  -23.2697  -29.0838   23.5761 O   0  0  0  0  0  0  0  0  0  0  0  0
  -20.2540  -27.4253   22.0432 O   0  0  0  0  0  0  0  0  0  0  0  0
  -22.8429  -23.9674   20.0782 O   0  0  0  0  0  0  0  0  0  0  0  0
  -26.5543  -15.6466   17.3248 O   0  0  0  0  0  0  0  0  0  0  0  0
  -21.2108   -7.3459   22.0659 O   0  0  0  0  0  0  0  0  0  0  0  0
  -28.3313  -27.9687   19.4696 O   0  0  0  0  0  0  0  0  0  1  0  0
  -21.9951   -2.7050   24.9384 F   0  0  0  0  0  0  0  0  0  0  0  0
  -22.5337   -5.1917   20.9470 F   0  0  0  0  0  0  0  0  0  0  0  0
  1  2  1  0  0  0  0
  1  5  2  0  0  0  0
  2  6  2  0  0  0  0
  3  8  2  0  0  0  0
  3 17  1  0  0  0  0
  4  9  1  0  0  0  0
  4 17  2  0  0  0  0
  5 19  1  0  0  0  0
  6 21  1  0  0  0  0
  7 10  2  0  0  0  0
  7 20  1  0  0  0  0
  8 23  1  0  0  0  0
  9 23  2  0  0  0  0
 10 24  1  0  0  0  0
 11 12  2  0  0  0  0
 11 25  1  0  0  0  0
 12 26  1  0  0  0  0
 13 14  2  0  0  0  0
 13 29  1  0  0  0  0
 14 30  1  0  0  0  0
 15 22  1  0  0  0  0
 15 24  2  0  0  0  0
 16 26  2  0  0  0  0
 16 27  1  0  0  0  0
 17 28  1  0  0  0  0
 18 28  1  0  0  0  0
 18 31  2  0  0  0  0
 18 32  1  0  0  0  0
 19 21  2  0  0  0  0
 19 37  1  0  0  0  0
 20 22  2  0  0  0  0
 20 38  1  0  0  0  0
 21 51  1  0  0  0  0
 22 39  1  0  0  0  0
 23 82  1  0  0  0  0
 24 83  1  0  0  0  0
 25 27  2  0  0  0  0
 25 82  1  0  0  0  0
 26 84  1  0  0  0  0
 27 85  1  0  0  0  0
 28 64  2  0  0  0  0
 29 52  1  0  0  0  0
 29 65  2  0  0  0  0
 30 66  2  0  0  0  0
 30 68  1  0  0  0  0
 31 67  1  0  0  0  0
 31 72  1  0  0  0  0
 32 73  1  0  0  0  0
 32 77  2  0  0  0  0
 33 53  1  0  0  0  0
 33 74  1  0  0  0  0
 33 78  2  0  0  0  0
 34 61  1  0  0  0  0
 34 69  1  0  0  0  0
 34 79  2  0  0  0  0
 35 62  1  0  0  0  0
 35 75  1  0  0  0  0
 35 80  2  0  0  0  0
 36 70  1  0  0  0  0
 36 71  1  0  0  0  0
 36 81  2  0  0  0  0
 37 40  1  0  0  0  0
 38 53  1  0  0  0  0
 39 69  1  0  0  0  0
 40 42  1  0  0  0  0
 41 43  1  0  0  0  0
 41 45  1  0  0  0  0
 42 51  1  0  0  0  0
 43 54  1  0  0  0  0
 44 52  1  0  0  0  0
 44 55  1  0  0  0  0
 45 70  1  0  0  0  0
 46 48  1  0  0  0  0
 46 68  1  0  0  0  0
 47 49  1  0  0  0  0
 47 68  1  0  0  0  0
 48 71  1  0  0  0  0
 49 71  1  0  0  0  0
 50 54  1  0  0  0  0
 50 70  1  0  0  0  0
 51 74  1  0  0  0  0
 52 55  1  0  0  0  0
 53 69  1  0  0  0  0
 54 67  1  0  0  0  0
 55 83  1  0  0  0  0
 56 62  1  0  0  0  0
 57 63  1  0  0  0  0
 58 63  1  0  0  0  0
 59 63  1  0  0  0  0
 60 76  1  0  0  0  0
 61 63  1  0  0  0  0
 61 75  1  0  0  0  0
 62 76  1  0  0  0  0
 64 67  1  0  0  0  0
 65 66  1  0  0  0  0
M  CHG  1  76   1
M  ISO  4  36 100  55 101  71 100  83 101
M  END
> <Batch ID>
0198

> <Smiles>
CNC(C)C(=O)NC(C(=O)N1Cc2cc([101O:1][101CH:1]3CC3c3ccc(N4CC[100N:0]([100C:0](=O)N5CCCC(n6nc(-c7ccc(Oc8ccc(F)cc8F)cc7)c(C(N)=O)c6N)C5)CC4)nn3)ccc2CC1C(=O)NC1CCCc2ccccc21)C(C)(C)C

> <Shape>
0.272

> <Color>
0.109

> <Negative vol penalty>
0.000

$$$$

  -OEChem-04052323483D

 81 90  0     1  0  0  0  0  0999 V2000
  -34.9728   -8.6428   17.7771 C   0  0  0  0  0  0  0  0  0  0  0  0
  -34.6850   -9.9387   18.1935 C   0  0  0  0  0  0  0  0  0  0  0  0
  -24.7048  -31.4478   24.1202 C   0  0  0  0  0  0  0  0  0  0  0  0
  -24.9849  -33.2662   22.5543 C   0  0  0  0  0  0  0  0  0  0  0  0
  -34.0630   -7.9498   16.9797 C   0  0  0  0  0  0  0  0  0  0  0  0
  -33.4876  -10.5427   17.8116 C   0  0  0  0  0  0  0  0  0  0  0  0
  -30.1277  -14.4630   21.1053 C   0  0  0  0  0  0  0  0  0  0  0  0
  -24.7954  -32.3481   25.1818 C   0  0  0  0  0  0  0  0  0  0  0  0
  -25.0754  -34.1665   23.6159 C   0  0  0  0  0  0  0  0  0  0  0  0
  -30.0322  -15.8539   21.0964 C   0  0  0  0  0  0  0  0  0  0  0  0
  -27.4068  -35.1459   25.8600 C   0  0  0  0  0  0  0  0  0  0  0  0
  -28.4168  -36.1066   25.8107 C   0  0  0  0  0  0  0  0  0  0  0  0
  -28.1093  -15.7064   19.6472 C   0  0  0  0  0  0  0  0  0  0  0  0
  -26.7538  -37.8581   25.8727 C   0  0  0  0  0  0  0  0  0  0  0  0
  -24.7996  -31.9069   22.8064 C   0  0  0  0  0  0  0  0  0  0  0  0
  -23.5398  -30.5748   21.0328 C   0  0  0  0  0  0  0  0  0  0  0  0
  -32.8495   -8.5421   16.5959 C   0  0  0  0  0  0  0  0  0  0  0  0
  -29.2199  -13.6825   20.3752 C   0  0  0  0  0  0  0  0  0  0  0  0
  -32.5613   -9.8574   17.0072 C   0  0  0  0  0  0  0  0  0  0  0  0
  -28.1939  -14.3058   19.6506 C   0  0  0  0  0  0  0  0  0  0  0  0
  -24.9806  -33.7074   24.9297 C   0  0  0  0  0  0  0  0  0  0  0  0
  -29.0246  -16.4759   20.3649 C   0  0  0  0  0  0  0  0  0  0  0  0
  -26.0703  -35.5412   25.9156 C   0  0  0  0  0  0  0  0  0  0  0  0
  -28.0903  -37.4627   25.8171 C   0  0  0  0  0  0  0  0  0  0  0  0
  -25.7438  -36.8973   25.9220 C   0  0  0  0  0  0  0  0  0  0  0  0
  -24.7068  -30.9774   21.7094 C   0  0  0  0  0  0  0  0  0  0  0  0
  -29.0331  -20.8964   21.9370 C   0  0  0  0  0  0  0  0  0  0  0  0
  -29.6069  -20.0263   20.9995 C   0  0  0  0  0  0  0  0  0  0  0  0
  -23.9828  -29.6885   20.0816 C   0  0  0  0  0  0  0  0  0  0  0  0
  -22.1771  -30.9668   21.2451 C   0  0  0  0  0  0  0  0  0  0  0  0
  -29.4621  -11.6288   17.9612 C   0  0  0  0  0  0  0  0  0  0  0  0
  -26.3051  -11.1682   18.5475 C   0  0  0  0  0  0  0  0  0  0  0  0
  -23.3878  -12.3908   19.8287 C   0  0  0  0  0  0  0  0  0  0  0  0
  -28.8542  -26.2590   19.9965 C   0  0  0  0  0  0  0  0  0  0  0  0
  -31.9186   -7.7709   15.6940 C   0  0  0  0  0  0  0  0  0  0  0  0
  -29.3202  -12.1823   20.4167 C   0  0  0  0  0  0  0  0  0  0  0  0
  -27.1819  -13.5123   18.8665 C   0  0  0  0  0  0  0  0  0  0  0  0
  -30.5050   -8.3450   15.6438 C   0  0  0  0  0  0  0  0  0  0  0  0
  -27.7844  -28.6501   17.3983 C   0  0  0  0  0  0  0  0  0  0  0  0
  -30.5497   -9.8584   15.4583 C   0  0  0  0  0  0  0  0  0  0  0  0
  -26.8005  -29.5140   18.1818 C   0  0  0  0  0  0  0  0  0  0  0  0
  -30.9268  -23.3705   18.6191 C   0  0  0  0  0  0  0  0  0  0  0  0
  -28.9372  -28.1576   18.2721 C   0  0  0  0  0  0  0  0  0  0  0  0
  -27.5030  -28.3115   20.2879 C   0  0  0  0  0  0  0  0  0  0  0  0
  -31.2618  -10.5375   16.6343 C   0  0  1  0  0  0  0  0  0  0  0  0
  -28.6546  -11.5056   19.2224 C   0  0  1  0  0  0  0  0  0  0  0  0
  -26.3109  -28.7759   19.4371 C   0  0  1  0  0  0  0  0  0  0  0  0
  -29.6028  -23.0291   19.2584 C   0  0  2  0  0  0  0  0  0  0  0  0
  -30.3309  -24.3053   19.6298 C   0  0  2  0  0  0  0  0  0  0  0  0
  -28.5571  -20.6168   23.2990 C   0  0  0  0  0  0  0  0  0  0  0  0
  -20.9672  -11.8004   20.1276 C   0  0  0  0  0  0  0  0  0  0  0  0
  -25.7989  -11.7600   15.5974 C   0  0  0  0  0  0  0  0  0  0  0  0
  -23.3802  -12.0935   16.1510 C   0  0  0  0  0  0  0  0  0  0  0  0
  -24.4495   -9.8718   16.5291 C   0  0  0  0  0  0  0  0  0  0  0  0
  -23.5964  -12.5370   22.7773 C   0  0  0  0  0  0  0  0  0  0  0  0
  -29.8953  -18.5583   21.1142 C   0  0  0  0  0  0  0  0  0  1  0  0
  -25.0238  -11.8002   18.0598 C   0  0  1  0  0  0  0  0  0  0  0  0
  -22.3541  -11.7698   20.7507 C   0  0  2  0  0  0  0  0  0  0  0  0
  -24.6832  -11.3967   16.5974 C   0  0  0  0  0  0  0  0  0  0  0  0
  -25.8084  -30.3947   21.2289 N   0  0  0  0  0  0  0  0  0  0  0  0
  -28.9554  -22.1277   21.4244 N   0  0  0  0  0  0  0  0  0  0  0  0
  -29.8988  -20.6950   19.8804 N   0  0  0  0  0  0  0  0  0  0  0  0
  -25.3355  -29.6168   20.2403 N   0  0  0  0  0  0  0  0  0  0  0  0
  -29.4858  -21.9302   20.2066 N   0  0  0  0  0  0  0  0  0  0  0  0
  -27.3258  -12.0487   18.9334 N   0  0  0  0  0  0  0  0  0  0  0  0
  -28.4477  -27.5106   19.4996 N   0  0  0  0  0  0  0  0  0  0  0  0
  -23.3433  -28.9714   19.1334 N   0  0  0  0  0  0  0  0  0  0  0  0
  -21.8977  -31.8869   22.2648 N   0  0  0  0  0  0  0  0  0  0  0  0
  -30.3828  -10.6142   17.7814 N   0  0  0  0  0  0  0  0  0  0  0  0
  -23.9967  -11.4439   19.0327 N   0  0  0  0  0  0  0  0  0  0  0  0
  -29.8137  -25.5911   19.2440 N   0  0  0  0  0  0  0  0  0  0  0  0
  -22.3043  -12.5075   22.0447 N   0  3  0  0  0  0  0  0  0  0  0  0
  -21.2332  -30.5022   20.5620 O   0  0  0  0  0  0  0  0  0  0  0  0
  -29.2634  -12.5735   17.2064 O   0  0  0  0  0  0  0  0  0  0  0  0
  -26.3944   -9.9387   18.5916 O   0  0  0  0  0  0  0  0  0  0  0  0
  -23.6281  -13.5960   19.8133 O   0  0  0  0  0  0  0  0  0  0  0  0
  -28.4006  -25.7725   21.0382 O   0  0  0  0  0  0  0  0  0  0  0  0
  -25.0687  -34.5861   25.9653 O   0  0  0  0  0  0  0  0  0  0  0  0
  -28.9295  -17.8334   20.3539 O   0  0  0  0  0  0  0  0  0  1  0  0
  -29.0604  -38.3852   25.7712 F   0  0  0  0  0  0  0  0  0  0  0  0
  -24.4616  -37.2831   25.9765 F   0  0  0  0  0  0  0  0  0  0  0  0
  1  2  1  0  0  0  0
  1  5  2  0  0  0  0
  2  6  2  0  0  0  0
  3  8  2  0  0  0  0
  3 15  1  0  0  0  0
  4  9  1  0  0  0  0
  4 15  2  0  0  0  0
  5 17  1  0  0  0  0
  6 19  1  0  0  0  0
  7 10  2  0  0  0  0
  7 18  1  0  0  0  0
  8 21  1  0  0  0  0
  9 21  2  0  0  0  0
 10 22  1  0  0  0  0
 11 12  2  0  0  0  0
 11 23  1  0  0  0  0
 12 24  1  0  0  0  0
 13 20  1  0  0  0  0
 13 22  2  0  0  0  0
 14 24  2  0  0  0  0
 14 25  1  0  0  0  0
 15 26  1  0  0  0  0
 16 26  1  0  0  0  0
 16 29  2  0  0  0  0
 16 30  1  0  0  0  0
 17 19  2  0  0  0  0
 17 35  1  0  0  0  0
 18 20  2  0  0  0  0
 18 36  1  0  0  0  0
 19 45  1  0  0  0  0
 20 37  1  0  0  0  0
 21 78  1  0  0  0  0
 22 79  1  0  0  0  0
 23 25  2  0  0  0  0
 23 78  1  0  0  0  0
 24 80  1  0  0  0  0
 25 81  1  0  0  0  0
 26 60  2  0  0  0  0
 27 28  1  0  0  0  0
 27 50  1  0  0  0  0
 27 61  2  0  0  0  0
 28 56  1  0  0  0  0
 28 62  2  0  0  0  0
 29 63  1  0  0  0  0
 29 67  1  0  0  0  0
 30 68  1  0  0  0  0
 30 73  2  0  0  0  0
 31 46  1  0  0  0  0
 31 69  1  0  0  0  0
 31 74  2  0  0  0  0
 32 57  1  0  0  0  0
 32 65  1  0  0  0  0
 32 75  2  0  0  0  0
 33 58  1  0  0  0  0
 33 70  1  0  0  0  0
 33 76  2  0  0  0  0
 34 66  1  0  0  0  0
 34 71  1  0  0  0  0
 34 77  2  0  0  0  0
 35 38  1  0  0  0  0
 36 46  1  0  0  0  0
 37 65  1  0  0  0  0
 38 40  1  0  0  0  0
 39 41  1  0  0  0  0
 39 43  1  0  0  0  0
 40 45  1  0  0  0  0
 41 47  1  0  0  0  0
 42 48  1  0  0  0  0
 42 49  1  0  0  0  0
 43 66  1  0  0  0  0
 44 47  1  0  0  0  0
 44 66  1  0  0  0  0
 45 69  1  0  0  0  0
 46 65  1  0  0  0  0
 47 63  1  0  0  0  0
 48 49  1  0  0  0  0
 48 64  1  0  0  0  0
 49 71  1  0  0  0  0
 51 58  1  0  0  0  0
 52 59  1  0  0  0  0
 53 59  1  0  0  0  0
 54 59  1  0  0  0  0
 55 72  1  0  0  0  0
 56 79  1  0  0  0  0
 57 59  1  0  0  0  0
 57 70  1  0  0  0  0
 58 72  1  0  0  0  0
 60 63  1  0  0  0  0
 61 64  1  0  0  0  0
 62 64  1  0  0  0  0
M  CHG  1  72   1
M  ISO  4  34 100  56 101  71 100  79 101
M  END
> <Batch ID>
0198

> <Smiles>
CNC(C)C(=O)NC(C(=O)N1Cc2cc([101O:1][101CH2:1]c3nn(C4CC4[100NH:0][100C:0](=O)N4CCCC(n5nc(-c6ccc(Oc7ccc(F)cc7F)cc6)c(C(N)=O)c5N)C4)nc3C)ccc2CC1C(=O)NC1CCCc2ccccc21)C(C)(C)C

> <Shape>
0.287

> <Color>
0.065

> <Negative vol penalty>
0.000

$$$$

  -OEChem-04052323483D

 80 89  0     1  0  0  0  0  0999 V2000
  -28.2470  -31.1309   24.7399 C   0  0  0  0  0  0  0  0  0  0  0  0
  -27.4461  -29.9937   24.7144 C   0  0  0  0  0  0  0  0  0  0  0  0
  -22.5191  -22.0436   11.8410 C   0  0  0  0  0  0  0  0  0  0  0  0
  -20.8836  -23.4700   12.9029 C   0  0  0  0  0  0  0  0  0  0  0  0
  -27.6627  -32.3952   24.6760 C   0  0  0  0  0  0  0  0  0  0  0  0
  -26.0602  -30.1201   24.6260 C   0  0  0  0  0  0  0  0  0  0  0  0
  -26.2656  -29.7504   19.6938 C   0  0  0  0  0  0  0  0  0  0  0  0
  -21.6872  -21.9179   10.7285 C   0  0  0  0  0  0  0  0  0  0  0  0
  -20.0517  -23.3444   11.7904 C   0  0  0  0  0  0  0  0  0  0  0  0
  -27.3801  -28.9290   19.5296 C   0  0  0  0  0  0  0  0  0  0  0  0
  -20.8653  -23.7565    8.0124 C   0  0  0  0  0  0  0  0  0  0  0  0
  -21.4462  -23.8851    6.7508 C   0  0  0  0  0  0  0  0  0  0  0  0
  -26.1051  -27.0476   20.3385 C   0  0  0  0  0  0  0  0  0  0  0  0
  -20.7332  -21.6448    6.1942 C   0  0  0  0  0  0  0  0  0  0  0  0
  -31.5320  -24.1553   19.5103 C   0  0  0  0  0  0  0  0  0  0  0  0
  -22.1173  -22.8196   12.9283 C   0  0  0  0  0  0  0  0  0  0  0  0
  -23.9670  -23.9257   14.2931 C   0  0  0  0  0  0  0  0  0  0  0  0
  -26.2696  -32.5370   24.5770 C   0  0  0  0  0  0  0  0  0  0  0  0
  -25.0637  -29.2280   20.1927 C   0  0  0  0  0  0  0  0  0  0  0  0
  -25.4567  -31.3875   24.5621 C   0  0  0  0  0  0  0  0  0  0  0  0
  -24.9761  -27.8640   20.5057 C   0  0  0  0  0  0  0  0  0  0  0  0
  -20.4535  -22.5684   10.7032 C   0  0  0  0  0  0  0  0  0  0  0  0
  -27.3008  -27.5780   19.8547 C   0  0  0  0  0  0  0  0  0  0  0  0
  -20.2184  -22.5720    8.3650 C   0  0  0  0  0  0  0  0  0  0  0  0
  -21.3801  -22.8293    5.8417 C   0  0  0  0  0  0  0  0  0  0  0  0
  -20.1524  -21.5162    7.4559 C   0  0  0  0  0  0  0  0  0  0  0  0
  -22.9760  -22.9492   14.0781 C   0  0  0  0  0  0  0  0  0  0  0  0
  -24.4936  -23.6153   15.5231 C   0  0  0  0  0  0  0  0  0  0  0  0
  -29.5406  -24.6919   19.8324 C   0  0  0  0  0  0  0  0  0  0  0  0
  -24.3750  -25.0158   13.4560 C   0  0  0  0  0  0  0  0  0  0  0  0
  -23.2788  -29.7712   22.7662 C   0  0  0  0  0  0  0  0  0  0  0  0
  -21.2390  -27.7145   21.3061 C   0  0  0  0  0  0  0  0  0  0  0  0
  -20.7956  -25.1612   19.0856 C   0  0  0  0  0  0  0  0  0  0  0  0
  -26.4790  -19.7699   19.0750 C   0  0  0  0  0  0  0  0  0  0  0  0
  -25.6808  -33.9254   24.5582 C   0  0  0  0  0  0  0  0  0  0  0  0
  -23.8627  -30.1217   20.3388 C   0  0  0  0  0  0  0  0  0  0  0  0
  -23.7029  -27.2498   21.0257 C   0  0  0  0  0  0  0  0  0  0  0  0
  -24.2289  -33.9649   24.0882 C   0  0  0  0  0  0  0  0  0  0  0  0
  -22.9193  -20.3747   19.0735 C   0  0  0  0  0  0  0  0  0  0  0  0
  -23.4135  -32.8784   24.7820 C   0  0  0  0  0  0  0  0  0  0  0  0
  -22.6921  -21.1568   17.7784 C   0  0  0  0  0  0  0  0  0  0  0  0
  -24.0476  -19.3539   18.9340 C   0  0  0  0  0  0  0  0  0  0  0  0
  -25.0847  -20.6790   17.1384 C   0  0  0  0  0  0  0  0  0  0  0  0
  -28.7291  -20.8042   19.6952 C   0  0  0  0  0  0  0  0  0  0  0  0
  -27.3880  -22.2151   18.8573 C   0  0  0  0  0  0  0  0  0  0  0  0
  -23.9512  -31.4832   24.4419 C   0  0  1  0  0  0  0  0  0  0  0  0
  -22.8413  -29.5910   21.3401 C   0  0  1  0  0  0  0  0  0  0  0  0
  -24.0075  -21.7670   17.2586 C   0  0  1  0  0  0  0  0  0  0  0  0
  -28.4681  -22.3043   19.9626 C   0  0  0  0  0  0  0  0  0  0  0  0
  -19.0206  -23.6646   18.1333 C   0  0  0  0  0  0  0  0  0  0  0  0
  -21.2273  -26.0894   23.8885 C   0  0  0  0  0  0  0  0  0  0  0  0
  -20.2486  -24.1790   22.5998 C   0  0  0  0  0  0  0  0  0  0  0  0
  -18.9911  -26.3246   22.7937 C   0  0  0  0  0  0  0  0  0  0  0  0
  -21.2660  -26.1573   16.3386 C   0  0  0  0  0  0  0  0  0  0  0  0
  -28.2355  -25.3998   20.0488 C   0  0  0  0  0  0  0  0  0  1  0  0
  -21.0402  -26.2181   21.3166 C   0  0  1  0  0  0  0  0  0  0  0  0
  -19.7916  -24.9645   17.9641 C   0  0  2  0  0  0  0  0  0  0  0  0
  -20.4015  -25.7145   22.6417 C   0  0  0  0  0  0  0  0  0  0  0  0
  -30.7191  -25.2428   19.6557 N   0  0  0  0  0  0  0  0  0  0  0  0
  -30.9307  -22.9661   19.5858 N   0  0  0  0  0  0  0  0  0  0  0  0
  -22.8771  -22.0833   15.0901 N   0  0  0  0  0  0  0  0  0  0  0  0
  -23.8128  -22.5145   15.9530 N   0  0  0  0  0  0  0  0  0  0  0  0
  -29.6580  -23.3375   19.7921 N   0  0  0  0  0  0  0  0  0  0  0  0
  -22.5580  -28.1661   21.1571 N   0  0  0  0  0  0  0  0  0  0  0  0
  -25.2636  -19.9910   18.4223 N   0  0  0  0  0  0  0  0  0  0  0  0
  -27.4141  -20.7775   19.0663 N   0  0  0  0  0  0  0  0  0  0  0  0
  -25.4681  -24.1792   16.2679 N   0  0  0  0  0  0  0  0  0  0  0  0
  -23.7290  -25.1907   12.2246 N   0  0  0  0  0  0  0  0  0  0  0  0
  -23.5223  -31.0851   23.1182 N   0  0  0  0  0  0  0  0  0  0  0  0
  -20.2657  -25.9008   20.1216 N   0  0  0  0  0  0  0  0  0  0  0  0
  -20.4869  -24.9304   16.6464 N   0  3  0  0  0  0  0  0  0  0  0  0
  -25.2966  -25.8015   13.7828 O   0  0  0  0  0  0  0  0  0  0  0  0
  -23.3859  -28.7910   23.4938 O   0  0  0  0  0  0  0  0  0  0  0  0
  -20.2593  -28.4556   21.4184 O   0  0  0  0  0  0  0  0  0  0  0  0
  -21.9348  -24.7014   19.0480 O   0  0  0  0  0  0  0  0  0  0  0  0
  -26.7134  -18.7133   19.6765 O   0  0  0  0  0  0  0  0  0  0  0  0
  -19.6416  -22.4462    9.6176 O   0  0  0  0  0  0  0  0  0  0  0  0
  -28.3873  -26.7741   19.6960 O   0  0  0  0  0  0  0  0  0  1  0  0
  -21.9366  -22.9534    4.6297 F   0  0  0  0  0  0  0  0  0  0  0  0
  -19.5312  -20.3763    7.7884 F   0  0  0  0  0  0  0  0  0  0  0  0
  1  2  1  0  0  0  0
  1  5  2  0  0  0  0
  2  6  2  0  0  0  0
  3  8  2  0  0  0  0
  3 16  1  0  0  0  0
  4  9  1  0  0  0  0
  4 16  2  0  0  0  0
  5 18  1  0  0  0  0
  6 20  1  0  0  0  0
  7 10  2  0  0  0  0
  7 19  1  0  0  0  0
  8 22  1  0  0  0  0
  9 22  2  0  0  0  0
 10 23  1  0  0  0  0
 11 12  2  0  0  0  0
 11 24  1  0  0  0  0
 12 25  1  0  0  0  0
 13 21  1  0  0  0  0
 13 23  2  0  0  0  0
 14 25  2  0  0  0  0
 14 26  1  0  0  0  0
 15 59  1  0  0  0  0
 15 60  2  0  0  0  0
 16 27  1  0  0  0  0
 17 27  1  0  0  0  0
 17 28  2  0  0  0  0
 17 30  1  0  0  0  0
 18 20  2  0  0  0  0
 18 35  1  0  0  0  0
 19 21  2  0  0  0  0
 19 36  1  0  0  0  0
 20 46  1  0  0  0  0
 21 37  1  0  0  0  0
 22 77  1  0  0  0  0
 23 78  1  0  0  0  0
 24 26  2  0  0  0  0
 24 77  1  0  0  0  0
 25 79  1  0  0  0  0
 26 80  1  0  0  0  0
 27 61  2  0  0  0  0
 28 62  1  0  0  0  0
 28 67  1  0  0  0  0
 29 55  1  0  0  0  0
 29 59  2  0  0  0  0
 29 63  1  0  0  0  0
 30 68  1  0  0  0  0
 30 72  2  0  0  0  0
 31 47  1  0  0  0  0
 31 69  1  0  0  0  0
 31 73  2  0  0  0  0
 32 56  1  0  0  0  0
 32 64  1  0  0  0  0
 32 74  2  0  0  0  0
 33 57  1  0  0  0  0
 33 70  1  0  0  0  0
 33 75  2  0  0  0  0
 34 65  1  0  0  0  0
 34 66  1  0  0  0  0
 34 76  2  0  0  0  0
 35 38  1  0  0  0  0
 36 47  1  0  0  0  0
 37 64  1  0  0  0  0
 38 40  1  0  0  0  0
 39 41  1  0  0  0  0
 39 42  1  0  0  0  0
 40 46  1  0  0  0  0
 41 48  1  0  0  0  0
 42 65  1  0  0  0  0
 43 48  1  0  0  0  0
 43 65  1  0  0  0  0
 44 49  1  0  0  0  0
 44 66  1  0  0  0  0
 45 49  1  0  0  0  0
 45 66  1  0  0  0  0
 46 69  1  0  0  0  0
 47 64  1  0  0  0  0
 48 62  1  0  0  0  0
 49 63  1  0  0  0  0
 50 57  1  0  0  0  0
 51 58  1  0  0  0  0
 52 58  1  0  0  0  0
 53 58  1  0  0  0  0
 54 71  1  0  0  0  0
 55 78  1  0  0  0  0
 56 58  1  0  0  0  0
 56 70  1  0  0  0  0
 57 71  1  0  0  0  0
 60 63  1  0  0  0  0
 61 62  1  0  0  0  0
M  CHG  1  71   1
M  ISO  4  34 100  55 101  66 100  78 101
M  END
> <Batch ID>
0198

> <Smiles>
CNC(C)C(=O)NC(C(=O)N1Cc2cc([101O:1][101CH2:1]c3ncnn3C3C[100N:0]([100C:0](=O)N4CCCC(n5nc(-c6ccc(Oc7ccc(F)cc7F)cc6)c(C(N)=O)c5N)C4)C3)ccc2CC1C(=O)NC1CCCc2ccccc21)C(C)(C)C

> <Shape>
0.189

> <Color>
0.074

> <Negative vol penalty>
0.000

$$$$

  -OEChem-04052323483D

 85 94  0     1  0  0  0  0  0999 V2000
  -18.8791   -9.6413   23.9369 C   0  0  0  0  0  0  0  0  0  0  0  0
  -18.6029  -10.5389   22.9106 C   0  0  0  0  0  0  0  0  0  0  0  0
  -28.5511  -18.4139   17.2890 C   0  0  0  0  0  0  0  0  0  0  0  0
  -24.3987  -30.5828   22.0246 C   0  0  0  0  0  0  0  0  0  0  0  0
  -24.0681  -28.7871   23.6067 C   0  0  0  0  0  0  0  0  0  0  0  0
  -20.0557   -9.7678   24.6742 C   0  0  0  0  0  0  0  0  0  0  0  0
  -19.5027  -11.5643   22.6217 C   0  0  0  0  0  0  0  0  0  0  0  0
  -29.2464  -19.3850   18.0095 C   0  0  0  0  0  0  0  0  0  0  0  0
  -21.9948  -15.4204   17.1230 C   0  0  0  0  0  0  0  0  0  0  0  0
  -27.9995  -18.7286   16.0470 C   0  0  0  0  0  0  0  0  0  0  0  0
  -23.0227  -30.8089   21.9936 C   0  0  0  0  0  0  0  0  0  0  0  0
  -22.6921  -29.0132   23.5758 C   0  0  0  0  0  0  0  0  0  0  0  0
  -22.1872  -16.7461   16.7367 C   0  0  0  0  0  0  0  0  0  0  0  0
  -20.0945  -28.2946   21.5345 C   0  0  0  0  0  0  0  0  0  0  0  0
  -19.2574  -27.1837   21.4305 C   0  0  0  0  0  0  0  0  0  0  0  0
  -28.8384  -20.9855   16.2462 C   0  0  0  0  0  0  0  0  0  0  0  0
  -24.2255  -16.8194   18.0248 C   0  0  0  0  0  0  0  0  0  0  0  0
  -18.2217  -27.7674   23.5338 C   0  0  0  0  0  0  0  0  0  0  0  0
  -24.9215  -29.5719   22.8311 C   0  0  0  0  0  0  0  0  0  0  0  0
  -27.2824  -29.9275   23.7294 C   0  0  0  0  0  0  0  0  0  0  0  0
  -29.3900  -20.6708   17.4882 C   0  0  0  0  0  0  0  0  0  0  0  0
  -20.9749  -10.7894   24.3879 C   0  0  0  0  0  0  0  0  0  0  0  0
  -22.9122  -14.7865   17.9733 C   0  0  0  0  0  0  0  0  0  0  0  0
  -20.6920  -11.7054   23.3568 C   0  0  0  0  0  0  0  0  0  0  0  0
  -24.0438  -15.4848   18.4184 C   0  0  0  0  0  0  0  0  0  0  0  0
  -28.1432  -20.0143   15.5256 C   0  0  0  0  0  0  0  0  0  0  0  0
  -22.1694  -30.0242   22.7692 C   0  0  0  0  0  0  0  0  0  0  0  0
  -23.3011  -17.4467   17.1899 C   0  0  0  0  0  0  0  0  0  0  0  0
  -19.9953  -29.1418   22.6381 C   0  0  0  0  0  0  0  0  0  0  0  0
  -18.3210  -26.9201   22.4302 C   0  0  0  0  0  0  0  0  0  0  0  0
  -19.0589  -28.8782   23.6378 C   0  0  0  0  0  0  0  0  0  0  0  0
  -26.3428  -29.3374   22.8630 C   0  0  0  0  0  0  0  0  0  0  0  0
  -28.4849  -29.3776   23.3578 C   0  0  0  0  0  0  0  0  0  0  0  0
  -27.0859  -30.8869   24.7766 C   0  0  0  0  0  0  0  0  0  0  0  0
  -22.7610  -13.4982   20.8752 C   0  0  0  0  0  0  0  0  0  0  0  0
  -25.8074  -12.6032   20.2113 C   0  0  0  0  0  0  0  0  0  0  0  0
  -28.6660  -13.1538   18.4303 C   0  0  0  0  0  0  0  0  0  0  0  0
  -29.6807  -24.1893   20.7048 C   0  0  0  0  0  0  0  0  0  0  0  0
  -22.2107  -10.9147   25.2433 C   0  0  0  0  0  0  0  0  0  0  0  0
  -22.7043  -13.3477   18.3592 C   0  0  0  0  0  0  0  0  0  0  0  0
  -25.0689  -14.8435   19.3164 C   0  0  0  0  0  0  0  0  0  0  0  0
  -23.2898  -11.8022   24.6283 C   0  0  0  0  0  0  0  0  0  0  0  0
  -30.7807  -27.5260   19.6227 C   0  0  0  0  0  0  0  0  0  0  0  0
  -22.6798  -13.0976   24.1024 C   0  0  0  0  0  0  0  0  0  0  0  0
  -29.7896  -28.4156   20.3648 C   0  0  0  0  0  0  0  0  0  0  0  0
  -30.1687  -26.1868   19.2111 C   0  0  0  0  0  0  0  0  0  0  0  0
  -29.6686  -23.2328   18.2894 C   0  0  0  0  0  0  0  0  0  0  0  0
  -30.0275  -21.8263   19.8409 C   0  0  0  0  0  0  0  0  0  0  0  0
  -28.5448  -26.3498   21.0871 C   0  0  0  0  0  0  0  0  0  0  0  0
  -30.1822  -21.7740   18.3069 C   0  0  0  0  0  0  0  0  0  0  0  0
  -21.6550  -12.8160   22.9970 C   0  0  1  0  0  0  0  0  0  0  0  0
  -23.4330  -12.9621   19.6429 C   0  0  1  0  0  0  0  0  0  0  0  0
  -29.1846  -27.6626   21.5585 C   0  0  2  0  0  0  0  0  0  0  0  0
  -30.9998  -12.2811   18.1317 C   0  0  0  0  0  0  0  0  0  0  0  0
  -26.6345  -13.9246   22.8342 C   0  0  0  0  0  0  0  0  0  0  0  0
  -29.0061  -13.8679   22.0342 C   0  0  0  0  0  0  0  0  0  0  0  0
  -27.7537  -11.7369   22.3700 C   0  0  0  0  0  0  0  0  0  0  0  0
  -28.1857  -12.5118   15.5814 C   0  0  0  0  0  0  0  0  0  0  0  0
  -27.5527  -20.3502   14.1980 C   0  0  0  0  0  0  0  0  0  0  0  0
  -26.1184  -20.8768   14.2652 C   0  0  0  0  0  0  0  0  0  0  0  0
  -23.8035  -20.2795   14.9886 C   0  0  0  0  0  0  0  0  0  0  0  0
  -22.9831  -19.1305   15.5408 C   0  0  0  0  0  0  0  0  0  1  0  0
  -27.1703  -13.2215   20.4084 C   0  0  1  0  0  0  0  0  0  0  0  0
  -29.5607  -12.2118   17.6450 C   0  0  2  0  0  0  0  0  0  0  0  0
  -27.6210  -13.2007   21.8964 C   0  0  0  0  0  0  0  0  0  0  0  0
  -26.9004  -28.4785   22.0055 N   0  0  0  0  0  0  0  0  0  0  0  0
  -28.2034  -28.5250   22.3311 N   0  0  0  0  0  0  0  0  0  0  0  0
  -24.8180  -13.4368   19.6710 N   0  0  0  0  0  0  0  0  0  0  0  0
  -29.4872  -25.5222   20.3268 N   0  0  0  0  0  0  0  0  0  0  0  0
  -29.9855  -23.2801   19.7117 N   0  0  0  0  0  0  0  0  0  0  0  0
  -29.7450  -29.5450   23.8122 N   0  0  0  0  0  0  0  0  0  0  0  0
  -25.7857  -31.3470   25.0259 N   0  0  0  0  0  0  0  0  0  0  0  0
  -22.3258  -12.5203   21.7493 N   0  0  0  0  0  0  0  0  0  0  0  0
  -28.0720  -12.5199   19.5011 N   0  0  0  0  0  0  0  0  0  0  0  0
  -29.5370  -12.5621   16.1966 N   0  3  0  0  0  0  0  0  0  0  0  0
  -25.2169  -19.8418   14.8290 N   0  3  0  0  0  0  0  0  0  0  0  0
  -28.0374  -31.3357   25.4598 O   0  0  0  0  0  0  0  0  0  0  0  0
  -22.6470  -14.7093   21.0229 O   0  0  0  0  0  0  0  0  0  0  0  0
  -25.6291  -11.4219   20.5186 O   0  0  0  0  0  0  0  0  0  0  0  0
  -28.5125  -14.3348   18.1266 O   0  0  0  0  0  0  0  0  0  0  0  0
  -29.5541  -23.8140   21.8773 O   0  0  0  0  0  0  0  0  0  0  0  0
  -20.8266  -30.2447   22.7395 O   0  0  0  0  0  0  0  0  0  0  0  0
  -23.4923  -18.7503   16.8123 O   0  0  0  0  0  0  0  0  0  1  0  0
  -17.5161  -25.8542   22.3295 F   0  0  0  0  0  0  0  0  0  0  0  0
  -18.9581  -29.6892   24.6998 F   0  0  0  0  0  0  0  0  0  0  0  0
  1  2  1  0  0  0  0
  1  6  2  0  0  0  0
  2  7  2  0  0  0  0
  3  8  1  0  0  0  0
  3 10  2  0  0  0  0
  4 11  2  0  0  0  0
  4 19  1  0  0  0  0
  5 12  1  0  0  0  0
  5 19  2  0  0  0  0
  6 22  1  0  0  0  0
  7 24  1  0  0  0  0
  8 21  2  0  0  0  0
  9 13  2  0  0  0  0
  9 23  1  0  0  0  0
 10 26  1  0  0  0  0
 11 27  1  0  0  0  0
 12 27  2  0  0  0  0
 13 28  1  0  0  0  0
 14 15  2  0  0  0  0
 14 29  1  0  0  0  0
 15 30  1  0  0  0  0
 16 21  1  0  0  0  0
 16 26  2  0  0  0  0
 17 25  1  0  0  0  0
 17 28  2  0  0  0  0
 18 30  2  0  0  0  0
 18 31  1  0  0  0  0
 19 32  1  0  0  0  0
 20 32  1  0  0  0  0
 20 33  2  0  0  0  0
 20 34  1  0  0  0  0
 21 50  1  0  0  0  0
 22 24  2  0  0  0  0
 22 39  1  0  0  0  0
 23 25  2  0  0  0  0
 23 40  1  0  0  0  0
 24 51  1  0  0  0  0
 25 41  1  0  0  0  0
 26 59  1  0  0  0  0
 27 82  1  0  0  0  0
 28 83  1  0  0  0  0
 29 31  2  0  0  0  0
 29 82  1  0  0  0  0
 30 84  1  0  0  0  0
 31 85  1  0  0  0  0
 32 66  2  0  0  0  0
 33 67  1  0  0  0  0
 33 71  1  0  0  0  0
 34 72  1  0  0  0  0
 34 77  2  0  0  0  0
 35 52  1  0  0  0  0
 35 73  1  0  0  0  0
 35 78  2  0  0  0  0
 36 63  1  0  0  0  0
 36 68  1  0  0  0  0
 36 79  2  0  0  0  0
 37 64  1  0  0  0  0
 37 74  1  0  0  0  0
 37 80  2  0  0  0  0
 38 69  1  0  0  0  0
 38 70  1  0  0  0  0
 38 81  2  0  0  0  0
 39 42  1  0  0  0  0
 40 52  1  0  0  0  0
 41 68  1  0  0  0  0
 42 44  1  0  0  0  0
 43 45  1  0  0  0  0
 43 46  1  0  0  0  0
 44 51  1  0  0  0  0
 45 53  1  0  0  0  0
 46 69  1  0  0  0  0
 47 50  1  0  0  0  0
 47 70  1  0  0  0  0
 48 50  1  0  0  0  0
 48 70  1  0  0  0  0
 49 53  1  0  0  0  0
 49 69  1  0  0  0  0
 51 73  1  0  0  0  0
 52 68  1  0  0  0  0
 53 67  1  0  0  0  0
 54 64  1  0  0  0  0
 55 65  1  0  0  0  0
 56 65  1  0  0  0  0
 57 65  1  0  0  0  0
 58 75  1  0  0  0  0
 59 60  1  0  0  0  0
 60 76  1  0  0  0  0
 61 62  1  0  0  0  0
 61 76  1  0  0  0  0
 62 83  1  0  0  0  0
 63 65  1  0  0  0  0
 63 74  1  0  0  0  0
 64 75  1  0  0  0  0
 66 67  1  0  0  0  0
M  CHG  2  75   1  76   1
M  ISO  4  38 100  62 101  70 100  83 101
M  END
> <Batch ID>
0198

> <Smiles>
CNC(C)C(=O)NC(C(=O)N1Cc2cc([101O:1][101CH2:1]CNCCc3cccc(C4C[100N:0]([100C:0](=O)N5CCCC(n6nc(-c7ccc(Oc8ccc(F)cc8F)cc7)c(C(N)=O)c6N)C5)C4)c3)ccc2CC1C(=O)NC1CCCc2ccccc21)C(C)(C)C

> <Shape>
0.273

> <Color>
0.063

> <Negative vol penalty>
0.000

$$$$

  -OEChem-04052323483D

 84 93  0     1  0  0  0  0  0999 V2000
  -22.3474  -37.8795   18.9395 C   0  0  0  0  0  0  0  0  0  0  0  0
  -22.8307  -36.7929   18.2176 C   0  0  0  0  0  0  0  0  0  0  0  0
  -23.6215   -9.7349   22.2171 C   0  0  0  0  0  0  0  0  0  0  0  0
  -24.5966   -8.2268   20.6010 C   0  0  0  0  0  0  0  0  0  0  0  0
  -22.7539  -38.0748   20.2588 C   0  0  0  0  0  0  0  0  0  0  0  0
  -23.7216  -35.9014   18.8143 C   0  0  0  0  0  0  0  0  0  0  0  0
  -25.5343  -28.9710   18.8007 C   0  0  0  0  0  0  0  0  0  0  0  0
  -22.4811   -8.9340   22.2764 C   0  0  0  0  0  0  0  0  0  0  0  0
  -23.4561   -7.4258   20.6604 C   0  0  0  0  0  0  0  0  0  0  0  0
  -26.6527  -28.1506   18.6603 C   0  0  0  0  0  0  0  0  0  0  0  0
  -20.9512   -4.7907   20.6564 C   0  0  0  0  0  0  0  0  0  0  0  0
  -21.1311   -3.4105   20.7468 C   0  0  0  0  0  0  0  0  0  0  0  0
  -27.2236  -28.5437   20.9709 C   0  0  0  0  0  0  0  0  0  0  0  0
  -22.3404   -3.7037   22.8177 C   0  0  0  0  0  0  0  0  0  0  0  0
  -24.6792   -9.3813   21.3793 C   0  0  0  0  0  0  0  0  0  0  0  0
  -27.0135  -10.1026   22.1133 C   0  0  0  0  0  0  0  0  0  0  0  0
  -23.6427  -37.1799   20.8751 C   0  0  0  0  0  0  0  0  0  0  0  0
  -25.2577  -29.5938   20.0263 C   0  0  0  0  0  0  0  0  0  0  0  0
  -24.1414  -36.0857   20.1426 C   0  0  0  0  0  0  0  0  0  0  0  0
  -26.0996  -29.3695   21.1249 C   0  0  0  0  0  0  0  0  0  0  0  0
  -22.3984   -7.7794   21.4981 C   0  0  0  0  0  0  0  0  0  0  0  0
  -27.4992  -27.9391   19.7447 C   0  0  0  0  0  0  0  0  0  0  0  0
  -21.4659   -5.6275   21.6467 C   0  0  0  0  0  0  0  0  0  0  0  0
  -21.8257   -2.8670   21.8274 C   0  0  0  0  0  0  0  0  0  0  0  0
  -22.1605   -5.0840   22.7273 C   0  0  0  0  0  0  0  0  0  0  0  0
  -25.8573  -10.2085   21.3171 C   0  0  0  0  0  0  0  0  0  0  0  0
  -27.8323  -11.1104   21.6656 C   0  0  0  0  0  0  0  0  0  0  0  0
  -27.3200   -9.1759   23.1636 C   0  0  0  0  0  0  0  0  0  0  0  0
  -25.0370  -32.6078   21.0116 C   0  0  0  0  0  0  0  0  0  0  0  0
  -24.0603  -31.2227   23.7774 C   0  0  0  0  0  0  0  0  0  0  0  0
  -24.0530  -28.4694   25.7939 C   0  0  0  0  0  0  0  0  0  0  0  0
  -28.7844  -16.1614   20.1160 C   0  0  0  0  0  0  0  0  0  0  0  0
  -24.0902  -37.4587   22.2881 C   0  0  0  0  0  0  0  0  0  0  0  0
  -24.0324  -30.4545   20.1687 C   0  0  0  0  0  0  0  0  0  0  0  0
  -25.8356  -29.9985   22.4677 C   0  0  0  0  0  0  0  0  0  0  0  0
  -24.7453  -36.2589   22.9675 C   0  0  0  0  0  0  0  0  0  0  0  0
  -27.4900  -14.0833   17.5961 C   0  0  0  0  0  0  0  0  0  0  0  0
  -25.7635  -35.6084   22.0364 C   0  0  0  0  0  0  0  0  0  0  0  0
  -27.0367  -12.8697   18.4070 C   0  0  0  0  0  0  0  0  0  0  0  0
  -30.1931  -22.2400   20.5467 C   0  0  0  0  0  0  0  0  0  0  0  0
  -27.7738  -22.3372   19.8152 C   0  0  0  0  0  0  0  0  0  0  0  0
  -27.1771  -15.3995   18.3101 C   0  0  0  0  0  0  0  0  0  0  0  0
  -27.9007  -18.1995   18.8955 C   0  0  0  0  0  0  0  0  0  0  0  0
  -30.2518  -18.0970   19.6371 C   0  0  0  0  0  0  0  0  0  0  0  0
  -27.2478  -14.2579   20.5034 C   0  0  0  0  0  0  0  0  0  0  0  0
  -30.0587  -23.6324   21.1495 C   0  0  0  0  0  0  0  0  0  0  0  0
  -27.6541  -23.7288   20.4230 C   0  0  0  0  0  0  0  0  0  0  0  0
  -27.6964  -19.4857   19.6896 C   0  0  0  0  0  0  0  0  0  0  0  0
  -30.0773  -19.3631   20.4599 C   0  0  0  0  0  0  0  0  0  0  0  0
  -25.0899  -35.0829   20.7631 C   0  0  1  0  0  0  0  0  0  0  0  0
  -24.1317  -31.4492   21.3212 C   0  0  1  0  0  0  0  0  0  0  0  0
  -27.6019  -12.9191   19.8377 C   0  0  1  0  0  0  0  0  0  0  0  0
  -28.8488  -21.5186   20.5238 C   0  0  0  0  0  0  0  0  0  0  0  0
  -23.2011  -27.6516   28.0081 C   0  0  0  0  0  0  0  0  0  0  0  0
  -26.2242  -32.8342   25.2024 C   0  0  0  0  0  0  0  0  0  0  0  0
  -25.9679  -31.3073   27.1698 C   0  0  0  0  0  0  0  0  0  0  0  0
  -24.0442  -32.7081   26.4215 C   0  0  0  0  0  0  0  0  0  0  0  0
  -22.4602  -26.3248   24.5200 C   0  0  0  0  0  0  0  0  0  0  0  0
  -29.4205  -24.9395   19.0860 C   0  0  0  0  0  0  0  0  0  0  0  0
  -28.5061  -26.0736   18.6667 C   0  0  0  0  0  0  0  0  0  1  0  0
  -24.7493  -30.7226   25.0241 C   0  0  1  0  0  0  0  0  0  0  0  0
  -22.9263  -27.7525   26.5158 C   0  0  2  0  0  0  0  0  0  0  0  0
  -25.2527  -31.8826   25.9288 C   0  0  0  0  0  0  0  0  0  0  0  0
  -25.9311  -11.2051   20.4309 N   0  0  0  0  0  0  0  0  0  0  0  0
  -27.1434  -11.7346   20.6676 N   0  0  0  0  0  0  0  0  0  0  0  0
  -24.6286  -30.8369   22.5550 N   0  0  0  0  0  0  0  0  0  0  0  0
  -27.6997  -15.3839   19.6835 N   0  0  0  0  0  0  0  0  0  0  0  0
  -28.9822  -17.3923   19.4731 N   0  0  0  0  0  0  0  0  0  0  0  0
  -29.0670  -11.5146   22.0322 N   0  0  0  0  0  0  0  0  0  0  0  0
  -26.3666   -8.2041   23.4964 N   0  0  0  0  0  0  0  0  0  0  0  0
  -24.4050  -33.8365   21.0311 N   0  0  0  0  0  0  0  0  0  0  0  0
  -23.8067  -29.8211   25.6777 N   0  0  0  0  0  0  0  0  0  0  0  0
  -29.0096  -20.2193   19.8196 N   0  3  0  0  0  0  0  0  0  0  0  0
  -28.9923  -24.4291   20.4355 N   0  3  0  0  0  0  0  0  0  0  0  0
  -22.7586  -26.3742   25.9745 N   0  3  0  0  0  0  0  0  0  0  0  0
  -28.4004   -9.2192   23.7995 O   0  0  0  0  0  0  0  0  0  0  0  0
  -26.2215  -32.4023   20.7740 O   0  0  0  0  0  0  0  0  0  0  0  0
  -23.0509  -31.9236   23.8841 O   0  0  0  0  0  0  0  0  0  0  0  0
  -25.0534  -27.8889   25.3782 O   0  0  0  0  0  0  0  0  0  0  0  0
  -29.5324  -15.7782   21.0244 O   0  0  0  0  0  0  0  0  0  0  0  0
  -21.2858   -6.9975   21.5560 O   0  0  0  0  0  0  0  0  0  0  0  0
  -28.5997  -27.1335   19.6093 O   0  0  0  0  0  0  0  0  0  1  0  0
  -21.9971   -1.5414   21.9148 F   0  0  0  0  0  0  0  0  0  0  0  0
  -22.6563   -5.8827   23.6824 F   0  0  0  0  0  0  0  0  0  0  0  0
  1  2  1  0  0  0  0
  1  5  2  0  0  0  0
  2  6  2  0  0  0  0
  3  8  2  0  0  0  0
  3 15  1  0  0  0  0
  4  9  1  0  0  0  0
  4 15  2  0  0  0  0
  5 17  1  0  0  0  0
  6 19  1  0  0  0  0
  7 10  2  0  0  0  0
  7 18  1  0  0  0  0
  8 21  1  0  0  0  0
  9 21  2  0  0  0  0
 10 22  1  0  0  0  0
 11 12  2  0  0  0  0
 11 23  1  0  0  0  0
 12 24  1  0  0  0  0
 13 20  1  0  0  0  0
 13 22  2  0  0  0  0
 14 24  2  0  0  0  0
 14 25  1  0  0  0  0
 15 26  1  0  0  0  0
 16 26  1  0  0  0  0
 16 27  2  0  0  0  0
 16 28  1  0  0  0  0
 17 19  2  0  0  0  0
 17 33  1  0  0  0  0
 18 20  2  0  0  0  0
 18 34  1  0  0  0  0
 19 50  1  0  0  0  0
 20 35  1  0  0  0  0
 21 81  1  0  0  0  0
 22 82  1  0  0  0  0
 23 25  2  0  0  0  0
 23 81  1  0  0  0  0
 24 83  1  0  0  0  0
 25 84  1  0  0  0  0
 26 64  2  0  0  0  0
 27 65  1  0  0  0  0
 27 69  1  0  0  0  0
 28 70  1  0  0  0  0
 28 76  2  0  0  0  0
 29 51  1  0  0  0  0
 29 71  1  0  0  0  0
 29 77  2  0  0  0  0
 30 61  1  0  0  0  0
 30 66  1  0  0  0  0
 30 78  2  0  0  0  0
 31 62  1  0  0  0  0
 31 72  1  0  0  0  0
 31 79  2  0  0  0  0
 32 67  1  0  0  0  0
 32 68  1  0  0  0  0
 32 80  2  0  0  0  0
 33 36  1  0  0  0  0
 34 51  1  0  0  0  0
 35 66  1  0  0  0  0
 36 38  1  0  0  0  0
 37 39  1  0  0  0  0
 37 42  1  0  0  0  0
 38 50  1  0  0  0  0
 39 52  1  0  0  0  0
 40 46  1  0  0  0  0
 40 53  1  0  0  0  0
 41 47  1  0  0  0  0
 41 53  1  0  0  0  0
 42 67  1  0  0  0  0
 43 48  1  0  0  0  0
 43 68  1  0  0  0  0
 44 49  1  0  0  0  0
 44 68  1  0  0  0  0
 45 52  1  0  0  0  0
 45 67  1  0  0  0  0
 46 74  1  0  0  0  0
 47 74  1  0  0  0  0
 48 73  1  0  0  0  0
 49 73  1  0  0  0  0
 50 71  1  0  0  0  0
 51 66  1  0  0  0  0
 52 65  1  0  0  0  0
 53 73  1  0  0  0  0
 54 62  1  0  0  0  0
 55 63  1  0  0  0  0
 56 63  1  0  0  0  0
 57 63  1  0  0  0  0
 58 75  1  0  0  0  0
 59 60  1  0  0  0  0
 59 74  1  0  0  0  0
 60 82  1  0  0  0  0
 61 63  1  0  0  0  0
 61 72  1  0  0  0  0
 62 75  1  0  0  0  0
 64 65  1  0  0  0  0
M  CHG  3  73   1  74   1  75   1
M  ISO  4  32 100  60 101  68 100  82 101
M  END
> <Batch ID>
0198

> <Smiles>
CNC(C)C(=O)NC(C(=O)N1Cc2cc([101O:1][101CH2:1]CN3CCC(N4CC[100N:0]([100C:0](=O)N5CCCC(n6nc(-c7ccc(Oc8ccc(F)cc8F)cc7)c(C(N)=O)c6N)C5)CC4)CC3)ccc2CC1C(=O)NC1CCCc2ccccc21)C(C)(C)C

> <Shape>
0.292

> <Color>
0.099

> <Negative vol penalty>
0.000

$$$$

  -OEChem-04052323483D

 87 97  0     1  0  0  0  0  0999 V2000
  -19.3239  -23.5956   19.1252 C   0  0  0  0  0  0  0  0  0  0  0  0
  -20.6995  -23.3966   19.1845 C   0  0  0  0  0  0  0  0  0  0  0  0
  -20.8518  -27.1825   21.7505 C   0  0  0  0  0  0  0  0  0  0  0  0
  -19.9665  -28.4162   23.6297 C   0  0  0  0  0  0  0  0  0  0  0  0
  -18.4644  -22.7156   19.7816 C   0  0  0  0  0  0  0  0  0  0  0  0
  -21.2165  -22.3179   19.9012 C   0  0  0  0  0  0  0  0  0  0  0  0
  -24.8655  -19.8777   17.3764 C   0  0  0  0  0  0  0  0  0  0  0  0
  -19.8435  -26.2304   21.9005 C   0  0  0  0  0  0  0  0  0  0  0  0
  -18.9581  -27.4641   23.7797 C   0  0  0  0  0  0  0  0  0  0  0  0
  -26.1303  -20.4641   17.3605 C   0  0  0  0  0  0  0  0  0  0  0  0
  -16.0088  -26.7097   22.3125 C   0  0  0  0  0  0  0  0  0  0  0  0
  -14.7091  -27.1716   22.5197 C   0  0  0  0  0  0  0  0  0  0  0  0
  -26.8432  -18.9594   19.1061 C   0  0  0  0  0  0  0  0  0  0  0  0
  -14.6353  -26.0136   24.6388 C   0  0  0  0  0  0  0  0  0  0  0  0
  -32.8626  -24.5854   18.5438 C   0  0  0  0  0  0  0  0  0  0  0  0
  -20.9133  -28.2754   22.6151 C   0  0  0  0  0  0  0  0  0  0  0  0
  -21.9126  -30.4261   21.6751 C   0  0  0  0  0  0  0  0  0  0  0  0
  -18.9707  -21.6201   20.4987 C   0  0  0  0  0  0  0  0  0  0  0  0
  -24.5763  -18.8333   18.2663 C   0  0  0  0  0  0  0  0  0  0  0  0
  -20.3631  -21.4232   20.5690 C   0  0  0  0  0  0  0  0  0  0  0  0
  -25.5748  -18.3598   19.1295 C   0  0  0  0  0  0  0  0  0  0  0  0
  -18.8967  -26.3712   22.9151 C   0  0  0  0  0  0  0  0  0  0  0  0
  -27.1185  -20.0069   18.2274 C   0  0  0  0  0  0  0  0  0  0  0  0
  -16.6218  -25.8996   23.2684 C   0  0  0  0  0  0  0  0  0  0  0  0
  -14.0224  -26.8236   23.6828 C   0  0  0  0  0  0  0  0  0  0  0  0
  -15.9351  -25.5516   24.4315 C   0  0  0  0  0  0  0  0  0  0  0  0
  -21.9550  -29.2589   22.4611 C   0  0  0  0  0  0  0  0  0  0  0  0
  -23.1387  -31.0144   21.8676 C   0  0  0  0  0  0  0  0  0  0  0  0
  -30.9055  -23.7889   19.3001 C   0  0  0  0  0  0  0  0  0  0  0  0
  -31.3168  -25.9945   19.3576 C   0  0  0  0  0  0  0  0  0  0  0  0
  -20.8590  -30.9331   20.8452 C   0  0  0  0  0  0  0  0  0  0  0  0
  -22.5321  -18.4335   20.6674 C   0  0  0  0  0  0  0  0  0  0  0  0
  -23.6679  -15.3955   20.6146 C   0  0  0  0  0  0  0  0  0  0  0  0
  -26.2018  -13.2637   19.7889 C   0  0  0  0  0  0  0  0  0  0  0  0
  -28.4009  -28.5114   23.6143 C   0  0  0  0  0  0  0  0  0  0  0  0
  -18.0047  -20.7231   21.2314 C   0  0  0  0  0  0  0  0  0  0  0  0
  -23.2151  -18.1935   18.2525 C   0  0  0  0  0  0  0  0  0  0  0  0
  -25.3212  -17.2277   20.0900 C   0  0  0  0  0  0  0  0  0  0  0  0
  -18.6148  -19.3903   21.6578 C   0  0  0  0  0  0  0  0  0  0  0  0
  -26.6586  -31.3855   25.0896 C   0  0  0  0  0  0  0  0  0  0  0  0
  -19.9789  -19.6101   22.3041 C   0  0  0  0  0  0  0  0  0  0  0  0
  -25.2368  -31.2348   24.5467 C   0  0  0  0  0  0  0  0  0  0  0  0
  -29.2915  -29.0838   20.0935 C   0  0  0  0  0  0  0  0  0  0  0  0
  -28.3390  -21.4185   20.4807 C   0  0  0  0  0  0  0  0  0  0  0  0
  -27.3556  -30.0362   25.2490 C   0  0  0  0  0  0  0  0  0  0  0  0
  -28.2369  -29.2866   21.1765 C   0  0  0  0  0  0  0  0  0  0  0  0
  -28.7346  -22.8542   20.1357 C   0  0  0  0  0  0  0  0  0  0  0  0
  -25.9296  -29.0482   23.4988 C   0  0  0  0  0  0  0  0  0  0  0  0
  -29.6337  -27.4230   21.7604 C   0  0  0  0  0  0  0  0  0  0  0  0
  -30.3994  -21.3305   19.2538 C   0  0  0  0  0  0  0  0  0  0  0  0
  -20.9609  -20.2506   21.3157 C   0  0  1  0  0  0  0  0  0  0  0  0
  -22.8767  -17.4805   19.5580 C   0  0  1  0  0  0  0  0  0  0  0  0
  -25.2205  -30.3885   23.2601 C   0  0  1  0  0  0  0  0  0  0  0  0
  -29.6345  -27.6064   20.2502 C   0  0  2  0  0  0  0  0  0  0  0  0
  -29.0786  -20.5858   19.4437 C   0  0  2  0  0  0  0  0  0  1  0  0
  -26.8565  -10.8439   19.9038 C   0  0  0  0  0  0  0  0  0  0  0  0
  -24.2726  -15.7030   23.5894 C   0  0  0  0  0  0  0  0  0  0  0  0
  -25.7502  -13.6884   23.4261 C   0  0  0  0  0  0  0  0  0  0  0  0
  -23.3110  -13.4864   22.9440 C   0  0  0  0  0  0  0  0  0  0  0  0
  -26.3862  -13.0538   16.8426 C   0  0  0  0  0  0  0  0  0  0  0  0
  -24.8085  -14.6688   21.2852 C   0  0  1  0  0  0  0  0  0  0  0  0
  -26.1999  -11.9293   19.0651 C   0  0  2  0  0  0  0  0  0  0  0  0
  -24.5401  -14.4093   22.7946 C   0  0  0  0  0  0  0  0  0  0  0  0
  -32.0991  -23.5014   18.7567 N   0  0  0  0  0  0  0  0  0  0  0  0
  -32.5390  -25.8595   18.8180 N   0  0  0  0  0  0  0  0  0  0  0  0
  -23.1161  -29.1126   23.1048 N   0  0  0  0  0  0  0  0  0  0  0  0
  -30.4467  -25.0079   19.6268 N   0  0  0  0  0  0  0  0  0  0  0  0
  -23.8147  -30.1955   22.7235 N   0  0  0  0  0  0  0  0  0  0  0  0
  -30.0654  -22.7242   19.5499 N   0  0  3  0  0  0  0  0  0  0  0  0
  -23.9726  -16.6390   20.0430 N   0  0  0  0  0  0  0  0  0  0  0  0
  -27.2878  -29.2611   24.0100 N   0  0  0  0  0  0  0  0  0  0  0  0
  -28.6290  -28.3657   22.2465 N   0  0  0  0  0  0  0  0  0  0  0  0
  -23.6937  -32.1470   21.3864 N   0  0  0  0  0  0  0  0  0  0  0  0
  -19.6652  -30.2037   20.7607 N   0  0  0  0  0  0  0  0  0  0  0  0
  -30.9113  -27.2851   19.6692 N   0  0  0  0  0  0  0  0  0  0  0  0
  -21.4610  -19.2601   20.3866 N   0  0  0  0  0  0  0  0  0  0  0  0
  -25.0383  -13.4592   20.5026 N   0  0  0  0  0  0  0  0  0  0  0  0
  -26.9390  -12.0385   17.7756 N   0  3  0  0  0  0  0  0  0  0  0  0
  -20.9790  -31.9930   20.1850 O   0  0  0  0  0  0  0  0  0  0  0  0
  -23.1884  -18.4189   21.7021 O   0  0  0  0  0  0  0  0  0  0  0  0
  -22.5495  -14.8757   20.5922 O   0  0  0  0  0  0  0  0  0  0  0  0
  -27.1429  -14.0520   19.7302 O   0  0  0  0  0  0  0  0  0  0  0  0
  -29.1837  -28.0326   24.4457 O   0  0  0  0  0  0  0  0  0  0  0  0
  -17.9125  -25.4425   23.0616 O   0  0  0  0  0  0  0  0  0  0  0  0
  -28.3619  -20.5818   18.2144 O   0  0  0  0  0  0  0  0  0  1  0  0
  -12.7748  -27.2685   23.8823 F   0  0  0  0  0  0  0  0  0  0  0  0
  -16.5192  -24.7747   25.3540 F   0  0  0  0  0  0  0  0  0  0  0  0
  1  2  1  0  0  0  0
  1  5  2  0  0  0  0
  2  6  2  0  0  0  0
  3  8  2  0  0  0  0
  3 16  1  0  0  0  0
  4  9  1  0  0  0  0
  4 16  2  0  0  0  0
  5 18  1  0  0  0  0
  6 20  1  0  0  0  0
  7 10  2  0  0  0  0
  7 19  1  0  0  0  0
  8 22  1  0  0  0  0
  9 22  2  0  0  0  0
 10 23  1  0  0  0  0
 11 12  2  0  0  0  0
 11 24  1  0  0  0  0
 12 25  1  0  0  0  0
 13 21  1  0  0  0  0
 13 23  2  0  0  0  0
 14 25  2  0  0  0  0
 14 26  1  0  0  0  0
 15 64  2  0  0  0  0
 15 65  1  0  0  0  0
 16 27  1  0  0  0  0
 17 27  1  0  0  0  0
 17 28  2  0  0  0  0
 17 31  1  0  0  0  0
 18 20  2  0  0  0  0
 18 36  1  0  0  0  0
 19 21  2  0  0  0  0
 19 37  1  0  0  0  0
 20 51  1  0  0  0  0
 21 38  1  0  0  0  0
 22 84  1  0  0  0  0
 23 85  1  0  0  0  0
 24 26  2  0  0  0  0
 24 84  1  0  0  0  0
 25 86  1  0  0  0  0
 26 87  1  0  0  0  0
 27 66  2  0  0  0  0
 28 68  1  0  0  0  0
 28 73  1  0  0  0  0
 29 64  1  0  0  0  0
 29 67  2  0  0  0  0
 29 69  1  0  0  0  0
 30 65  2  0  0  0  0
 30 67  1  0  0  0  0
 30 75  1  0  0  0  0
 31 74  1  0  0  0  0
 31 79  2  0  0  0  0
 32 52  1  0  0  0  0
 32 76  1  0  0  0  0
 32 80  2  0  0  0  0
 33 61  1  0  0  0  0
 33 70  1  0  0  0  0
 33 81  2  0  0  0  0
 34 62  1  0  0  0  0
 34 77  1  0  0  0  0
 34 82  2  0  0  0  0
 35 71  1  0  0  0  0
 35 72  1  0  0  0  0
 35 83  2  0  0  0  0
 36 39  1  0  0  0  0
 37 52  1  0  0  0  0
 38 70  1  0  0  0  0
 39 41  1  0  0  0  0
 40 42  1  0  0  0  0
 40 45  1  0  0  0  0
 41 51  1  0  0  0  0
 42 53  1  0  0  0  0
 43 46  1  0  0  0  0
 43 54  1  0  0  0  0
 44 47  1  0  0  0  0
 44 55  1  0  0  0  0
 45 71  1  0  0  0  0
 46 72  1  0  0  0  0
 47 69  1  0  0  0  0
 48 53  1  0  0  0  0
 48 71  1  0  0  0  0
 49 54  1  0  0  0  0
 49 72  1  0  0  0  0
 50 55  1  0  0  0  0
 50 69  1  0  0  0  0
 51 76  1  0  0  0  0
 52 70  1  0  0  0  0
 53 68  1  0  0  0  0
 54 75  1  0  0  0  0
 55 85  1  0  0  0  0
 56 62  1  0  0  0  0
 57 63  1  0  0  0  0
 58 63  1  0  0  0  0
 59 63  1  0  0  0  0
 60 78  1  0  0  0  0
 61 63  1  0  0  0  0
 61 77  1  0  0  0  0
 62 78  1  0  0  0  0
 66 68  1  0  0  0  0
M  CHG  1  78   1
M  ISO  4  35 100  55 101  72 100  85 101
M  END
> <Batch ID>
0198

> <Smiles>
CNC(C)C(=O)NC(C(=O)N1Cc2cc([101O:1][101CH:1]3CCN(c4ncnc(NC5CC[100N:0]([100C:0](=O)N6CCCC(n7nc(-c8ccc(Oc9ccc(F)cc9F)cc8)c(C(N)=O)c7N)C6)C5)n4)C3)ccc2CC1C(=O)NC1CCCc2ccccc21)C(C)(C)C

> <Shape>
0.233

> <Color>
0.058

> <Negative vol penalty>
0.000

$$$$

  -OEChem-04052323483D

 87 97  0     1  0  0  0  0  0999 V2000
  -25.1548  -20.6105   21.1267 C   0  0  0  0  0  0  0  0  0  0  0  0
  -25.8004  -19.3782   21.1277 C   0  0  0  0  0  0  0  0  0  0  0  0
  -25.7974  -29.6300   23.2842 C   0  0  0  0  0  0  0  0  0  0  0  0
  -26.8108  -31.1913   21.7440 C   0  0  0  0  0  0  0  0  0  0  0  0
  -24.0940  -20.8411   22.0016 C   0  0  0  0  0  0  0  0  0  0  0  0
  -25.3863  -18.3761   22.0045 C   0  0  0  0  0  0  0  0  0  0  0  0
  -25.0453  -13.8495   19.7599 C   0  0  0  0  0  0  0  0  0  0  0  0
  -25.9402  -30.5563   24.3172 C   0  0  0  0  0  0  0  0  0  0  0  0
  -26.9536  -32.1177   22.7770 C   0  0  0  0  0  0  0  0  0  0  0  0
  -26.2349  -13.1562   19.5408 C   0  0  0  0  0  0  0  0  0  0  0  0
  -27.2566  -35.0309   24.9309 C   0  0  0  0  0  0  0  0  0  0  0  0
  -26.9030  -36.3546   24.6694 C   0  0  0  0  0  0  0  0  0  0  0  0
  -25.8018  -11.8082   21.4939 C   0  0  0  0  0  0  0  0  0  0  0  0
  -24.6463  -35.6526   24.1675 C   0  0  0  0  0  0  0  0  0  0  0  0
  -29.5807  -15.2664   19.6344 C   0  0  0  0  0  0  0  0  0  0  0  0
  -26.2327  -29.9474   21.9976 C   0  0  0  0  0  0  0  0  0  0  0  0
  -24.9872  -28.8477   20.0619 C   0  0  0  0  0  0  0  0  0  0  0  0
  -23.6604  -19.8381   22.8828 C   0  0  0  0  0  0  0  0  0  0  0  0
  -24.2291  -13.5341   20.8557 C   0  0  0  0  0  0  0  0  0  0  0  0
  -24.3196  -18.5940   22.8930 C   0  0  0  0  0  0  0  0  0  0  0  0
  -24.6011  -12.4972   21.7232 C   0  0  0  0  0  0  0  0  0  0  0  0
  -30.4684  -16.2717   19.3379 C   0  0  0  0  0  0  0  0  0  0  0  0
  -26.5183  -31.8002   24.0636 C   0  0  0  0  0  0  0  0  0  0  0  0
  -26.6148  -12.1373   20.4095 C   0  0  0  0  0  0  0  0  0  0  0  0
  -26.3051  -34.0180   24.8106 C   0  0  0  0  0  0  0  0  0  0  0  0
  -25.5979  -36.6655   24.2877 C   0  0  0  0  0  0  0  0  0  0  0  0
  -25.0000  -34.3289   24.4289 C   0  0  0  0  0  0  0  0  0  0  0  0
  -26.0860  -28.9907   20.9302 C   0  0  0  0  0  0  0  0  0  0  0  0
  -31.7322  -15.7200   19.6210 C   0  0  0  0  0  0  0  0  0  0  0  0
  -25.3358  -27.8074   19.2355 C   0  0  0  0  0  0  0  0  0  0  0  0
  -23.7611  -29.5889   20.0072 C   0  0  0  0  0  0  0  0  0  0  0  0
  -23.2169  -15.1078   23.4252 C   0  0  0  0  0  0  0  0  0  0  0  0
  -21.4510  -12.4270   23.8912 C   0  0  0  0  0  0  0  0  0  0  0  0
  -21.0533   -9.0850   23.3256 C   0  0  0  0  0  0  0  0  0  0  0  0
  -29.0141  -23.2445   20.1167 C   0  0  0  0  0  0  0  0  0  0  0  0
  -22.5401  -20.1501   23.8431 C   0  0  0  0  0  0  0  0  0  0  0  0
  -22.9357  -14.2735   21.0629 C   0  0  0  0  0  0  0  0  0  0  0  0
  -23.7500  -12.1063   22.9027 C   0  0  0  0  0  0  0  0  0  0  0  0
  -21.9198  -18.9089   24.4794 C   0  0  0  0  0  0  0  0  0  0  0  0
  -29.1196  -25.6269   17.3324 C   0  0  0  0  0  0  0  0  0  0  0  0
  -23.0086  -17.9614   24.9731 C   0  0  0  0  0  0  0  0  0  0  0  0
  -28.2929  -26.7762   17.8992 C   0  0  0  0  0  0  0  0  0  0  0  0
  -31.7222  -21.4074   20.8723 C   0  0  0  0  0  0  0  0  0  0  0  0
  -30.2503  -11.6456   19.8505 C   0  0  0  0  0  0  0  0  0  0  0  0
  -29.9295  -24.9059   18.4107 C   0  0  0  0  0  0  0  0  0  0  0  0
  -31.5680  -22.6877   20.0456 C   0  0  0  0  0  0  0  0  0  0  0  0
  -28.2798  -25.6022   20.1275 C   0  0  0  0  0  0  0  0  0  0  0  0
  -23.8835  -17.4736   23.8120 C   0  0  1  0  0  0  0  0  0  0  0  0
  -22.4372  -14.2133   22.5034 C   0  0  1  0  0  0  0  0  0  0  0  0
  -27.4144  -26.2855   19.0595 C   0  0  1  0  0  0  0  0  0  0  0  0
  -29.7819  -12.9394   20.4742 C   0  0  2  0  0  0  0  0  0  0  0  0
  -28.8714  -12.1519   19.5576 C   0  0  2  0  0  0  0  0  0  1  0  0
  -30.2691  -21.0550   20.5194 C   0  0  2  0  0  0  0  0  0  0  0  0
  -33.6379  -16.8198   20.8232 C   0  0  0  0  0  0  0  0  0  0  0  0
  -19.5345   -7.1624   23.8677 C   0  0  0  0  0  0  0  0  0  0  0  0
  -22.6389  -12.2832   26.6980 C   0  0  0  0  0  0  0  0  0  0  0  0
  -21.8591   -9.9078   26.8309 C   0  0  0  0  0  0  0  0  0  0  0  0
  -20.1987  -11.7510   26.5694 C   0  0  0  0  0  0  0  0  0  0  0  0
  -20.4026   -8.6436   20.4724 C   0  0  0  0  0  0  0  0  0  0  0  0
  -30.1492  -17.6458   18.8272 C   0  0  0  0  0  0  0  0  0  0  0  0
  -33.0503  -16.3634   19.4823 C   0  0  0  0  0  0  0  0  0  0  0  0
  -30.0406  -20.0787   19.3824 C   0  0  0  0  0  0  0  0  0  0  0  0
  -21.6656  -11.1170   24.6103 C   0  0  1  0  0  0  0  0  0  0  0  0
  -19.8492   -8.2751   22.8800 C   0  0  2  0  0  0  0  0  0  0  0  0
  -21.6078  -11.2732   26.1561 C   0  0  0  0  0  0  0  0  0  0  0  0
  -27.0596  -28.1116   20.6789 N   0  0  0  0  0  0  0  0  0  0  0  0
  -31.6583  -14.4619   20.0634 N   0  0  0  0  0  0  0  0  0  0  0  0
  -30.3374  -14.2147   20.0607 N   0  0  0  0  0  0  0  0  0  0  0  0
  -26.5738  -27.4061   19.6434 N   0  0  0  0  0  0  0  0  0  0  0  0
  -22.4978  -12.8630   23.0666 N   0  0  0  0  0  0  0  0  0  0  0  0
  -29.0972  -24.5244   19.5579 N   0  0  0  0  0  0  0  0  0  0  0  0
  -30.1333  -22.4432   20.0725 N   0  0  0  0  0  0  0  0  0  0  0  0
  -24.7009  -27.2060   18.2071 N   0  0  0  0  0  0  0  0  0  0  0  0
  -23.5652  -30.6253   20.9301 N   0  0  0  0  0  0  0  0  0  0  0  0
  -23.1997  -16.4412   23.0630 N   0  0  0  0  0  0  0  0  0  0  0  0
  -20.6819  -10.1870   24.0664 N   0  0  0  0  0  0  0  0  0  0  0  0
  -20.1027   -7.6614   21.5458 N   0  3  0  0  0  0  0  0  0  0  0  0
  -30.2854  -18.7019   19.8689 N   0  3  0  0  0  0  0  0  0  0  0  0
  -22.8589  -29.3287   19.1754 O   0  0  0  0  0  0  0  0  0  0  0  0
  -23.7904  -14.6243   24.3943 O   0  0  0  0  0  0  0  0  0  0  0  0
  -20.3908  -13.0372   24.0496 O   0  0  0  0  0  0  0  0  0  0  0  0
  -22.2082   -8.7695   23.0476 O   0  0  0  0  0  0  0  0  0  0  0  0
  -27.9825  -22.8371   20.6670 O   0  0  0  0  0  0  0  0  0  0  0  0
  -26.6575  -32.7044   25.0713 O   0  0  0  0  0  0  0  0  0  0  0  0
  -27.7926  -11.4495   20.1952 O   0  0  0  0  0  0  0  0  0  1  0  0
  -25.2581  -37.9368   24.0381 F   0  0  0  0  0  0  0  0  0  0  0  0
  -24.0812  -33.3603   24.3128 F   0  0  0  0  0  0  0  0  0  0  0  0
  1  2  1  0  0  0  0
  1  5  2  0  0  0  0
  2  6  2  0  0  0  0
  3  8  2  0  0  0  0
  3 16  1  0  0  0  0
  4  9  1  0  0  0  0
  4 16  2  0  0  0  0
  5 18  1  0  0  0  0
  6 20  1  0  0  0  0
  7 10  2  0  0  0  0
  7 19  1  0  0  0  0
  8 23  1  0  0  0  0
  9 23  2  0  0  0  0
 10 24  1  0  0  0  0
 11 12  2  0  0  0  0
 11 25  1  0  0  0  0
 12 26  1  0  0  0  0
 13 21  1  0  0  0  0
 13 24  2  0  0  0  0
 14 26  2  0  0  0  0
 14 27  1  0  0  0  0
 15 22  2  0  0  0  0
 15 68  1  0  0  0  0
 16 28  1  0  0  0  0
 17 28  1  0  0  0  0
 17 30  2  0  0  0  0
 17 31  1  0  0  0  0
 18 20  2  0  0  0  0
 18 36  1  0  0  0  0
 19 21  2  0  0  0  0
 19 37  1  0  0  0  0
 20 48  1  0  0  0  0
 21 38  1  0  0  0  0
 22 29  1  0  0  0  0
 22 60  1  0  0  0  0
 23 84  1  0  0  0  0
 24 85  1  0  0  0  0
 25 27  2  0  0  0  0
 25 84  1  0  0  0  0
 26 86  1  0  0  0  0
 27 87  1  0  0  0  0
 28 66  2  0  0  0  0
 29 61  1  0  0  0  0
 29 67  2  0  0  0  0
 30 69  1  0  0  0  0
 30 73  1  0  0  0  0
 31 74  1  0  0  0  0
 31 79  2  0  0  0  0
 32 49  1  0  0  0  0
 32 75  1  0  0  0  0
 32 80  2  0  0  0  0
 33 63  1  0  0  0  0
 33 70  1  0  0  0  0
 33 81  2  0  0  0  0
 34 64  1  0  0  0  0
 34 76  1  0  0  0  0
 34 82  2  0  0  0  0
 35 71  1  0  0  0  0
 35 72  1  0  0  0  0
 35 83  2  0  0  0  0
 36 39  1  0  0  0  0
 37 49  1  0  0  0  0
 38 70  1  0  0  0  0
 39 41  1  0  0  0  0
 40 42  1  0  0  0  0
 40 45  1  0  0  0  0
 41 48  1  0  0  0  0
 42 50  1  0  0  0  0
 43 46  1  0  0  0  0
 43 53  1  0  0  0  0
 44 51  1  0  0  0  0
 44 52  1  0  0  0  0
 45 71  1  0  0  0  0
 46 72  1  0  0  0  0
 47 50  1  0  0  0  0
 47 71  1  0  0  0  0
 48 75  1  0  0  0  0
 49 70  1  0  0  0  0
 50 69  1  0  0  0  0
 51 52  1  0  0  0  0
 51 68  1  0  0  0  0
 52 85  1  0  0  0  0
 53 62  1  0  0  0  0
 53 72  1  0  0  0  0
 54 61  1  0  0  0  0
 55 64  1  0  0  0  0
 56 65  1  0  0  0  0
 57 65  1  0  0  0  0
 58 65  1  0  0  0  0
 59 77  1  0  0  0  0
 60 78  1  0  0  0  0
 62 78  1  0  0  0  0
 63 65  1  0  0  0  0
 63 76  1  0  0  0  0
 64 77  1  0  0  0  0
 66 69  1  0  0  0  0
 67 68  1  0  0  0  0
M  CHG  2  77   1  78   1
M  ISO  4  35 100  52 101  72 100  85 101
M  END
> <Batch ID>
0198

> <Smiles>
CCc1nn(C2C[101CH:1]2[101O:1]c2ccc3c(c2)CN(C(=O)C(NC(=O)C(C)NC)C(C)(C)C)C(C(=O)NC2CCCc4ccccc42)C3)cc1CNCC1CC[100N:0]1[100C:0](=O)N1CCCC(n2nc(-c3ccc(Oc4ccc(F)cc4F)cc3)c(C(N)=O)c2N)C1

> <Shape>
0.292

> <Color>
0.053

> <Negative vol penalty>
0.000

$$$$

  -OEChem-04052323483D

 88 98  0     1  0  0  0  0  0999 V2000
  -34.8433  -34.9758   18.1686 C   0  0  0  0  0  0  0  0  0  0  0  0
  -34.4179  -33.6611   18.3304 C   0  0  0  0  0  0  0  0  0  0  0  0
  -23.1488   -9.9229   19.8774 C   0  0  0  0  0  0  0  0  0  0  0  0
  -24.1584   -9.7632   22.0666 C   0  0  0  0  0  0  0  0  0  0  0  0
  -34.4801  -35.9447   19.1030 C   0  0  0  0  0  0  0  0  0  0  0  0
  -33.6300  -33.3144   19.4274 C   0  0  0  0  0  0  0  0  0  0  0  0
  -29.1535  -29.1376   19.5719 C   0  0  0  0  0  0  0  0  0  0  0  0
  -22.5275   -8.6897   20.0739 C   0  0  0  0  0  0  0  0  0  0  0  0
  -23.5370   -8.5299   22.2631 C   0  0  0  0  0  0  0  0  0  0  0  0
  -29.1210  -27.8121   20.0028 C   0  0  0  0  0  0  0  0  0  0  0  0
  -20.4668   -7.3955   23.1043 C   0  0  0  0  0  0  0  0  0  0  0  0
  -19.8512   -7.1706   24.3356 C   0  0  0  0  0  0  0  0  0  0  0  0
  -28.2682  -28.5344   22.1406 C   0  0  0  0  0  0  0  0  0  0  0  0
  -21.3110   -5.2845   24.7210 C   0  0  0  0  0  0  0  0  0  0  0  0
  -23.9643  -10.4597   20.8737 C   0  0  0  0  0  0  0  0  0  0  0  0
  -24.0976  -13.0041   20.9989 C   0  0  0  0  0  0  0  0  0  0  0  0
  -33.6793  -35.6117   20.2068 C   0  0  0  0  0  0  0  0  0  0  0  0
  -28.7533  -30.1742   20.4273 C   0  0  0  0  0  0  0  0  0  0  0  0
  -33.2569  -34.2796   20.3782 C   0  0  0  0  0  0  0  0  0  0  0  0
  -28.2942  -29.8720   21.7172 C   0  0  0  0  0  0  0  0  0  0  0  0
  -29.6668  -22.2581   22.8805 C   0  0  0  0  0  0  0  0  0  0  0  0
  -22.7215   -7.9932   21.2668 C   0  0  0  0  0  0  0  0  0  0  0  0
  -28.6810  -27.5106   21.2884 C   0  0  0  0  0  0  0  0  0  0  0  0
  -21.5045   -6.5648   22.6813 C   0  0  0  0  0  0  0  0  0  0  0  0
  -20.2733   -6.1151   25.1439 C   0  0  0  0  0  0  0  0  0  0  0  0
  -21.9266   -5.5093   23.4897 C   0  0  0  0  0  0  0  0  0  0  0  0
  -24.6069  -11.7333   20.6711 C   0  0  0  0  0  0  0  0  0  0  0  0
  -29.2859  -23.0976   21.8729 C   0  0  0  0  0  0  0  0  0  0  0  0
  -30.5020  -23.0774   23.6934 C   0  0  0  0  0  0  0  0  0  0  0  0
  -25.0819  -13.8794   20.6097 C   0  0  0  0  0  0  0  0  0  0  0  0
  -22.8466  -13.3615   21.6014 C   0  0  0  0  0  0  0  0  0  0  0  0
  -30.1851  -32.7097   21.7019 C   0  0  0  0  0  0  0  0  0  0  0  0
  -27.1917  -33.3847   22.7536 C   0  0  0  0  0  0  0  0  0  0  0  0
  -24.0814  -32.2420   23.5702 C   0  0  0  0  0  0  0  0  0  0  0  0
  -30.6591  -14.9927   20.7345 C   0  0  0  0  0  0  0  0  0  0  0  0
  -33.3518  -36.6838   21.2158 C   0  0  0  0  0  0  0  0  0  0  0  0
  -28.7690  -31.5965   19.9380 C   0  0  0  0  0  0  0  0  0  0  0  0
  -27.8345  -30.9465   22.6673 C   0  0  0  0  0  0  0  0  0  0  0  0
  -28.4903  -23.1725   20.6354 C   0  0  0  0  0  0  0  0  0  0  0  0
  -32.2031  -36.3110   22.1495 C   0  0  0  0  0  0  0  0  0  0  0  0
  -29.0124  -24.4974   20.0008 C   0  0  0  0  0  0  0  0  0  0  0  0
  -29.2396  -13.1670   17.8374 C   0  0  0  0  0  0  0  0  0  0  0  0
  -32.3872  -34.8938   22.6830 C   0  0  0  0  0  0  0  0  0  0  0  0
  -27.8994  -12.6758   18.3814 C   0  0  0  0  0  0  0  0  0  0  0  0
  -31.3114  -17.6101   22.9163 C   0  0  0  0  0  0  0  0  0  0  0  0
  -29.1638  -18.0458   21.6592 C   0  0  0  0  0  0  0  0  0  0  0  0
  -30.2736  -13.3359   18.9462 C   0  0  0  0  0  0  0  0  0  0  0  0
  -30.9708  -16.1222   22.9167 C   0  0  0  0  0  0  0  0  0  0  0  0
  -28.8780  -16.5412   21.6612 C   0  0  0  0  0  0  0  0  0  0  0  0
  -28.4797  -13.7234   20.6058 C   0  0  0  0  0  0  0  0  0  0  0  0
  -32.3805  -33.8696   21.5418 C   0  0  1  0  0  0  0  0  0  0  0  0
  -28.8249  -32.6172   21.0704 C   0  0  1  0  0  0  0  0  0  0  0  0
  -27.4034  -13.5856   19.5184 C   0  0  2  0  0  0  0  0  0  0  0  0
  -30.0326  -18.4427   22.8508 C   0  0  0  0  0  0  0  0  0  0  0  0
  -29.6062  -25.3242   21.1629 C   0  0  2  0  0  0  0  0  0  1  0  0
  -21.8593  -33.0247   24.4346 C   0  0  0  0  0  0  0  0  0  0  0  0
  -28.3610  -33.5925   25.5642 C   0  0  0  0  0  0  0  0  0  0  0  0
  -26.0331  -33.4235   26.4699 C   0  0  0  0  0  0  0  0  0  0  0  0
  -26.6644  -35.3437   25.0081 C   0  0  0  0  0  0  0  0  0  0  0  0
  -31.9582  -23.3654   25.6990 C   0  0  0  0  0  0  0  0  0  0  0  0
  -22.6847  -31.3594   21.1147 C   0  0  0  0  0  0  0  0  0  0  0  0
  -29.2906  -20.8178   23.0674 C   0  0  0  0  0  0  0  0  0  0  0  0
  -26.3905  -33.0468   23.9877 C   0  0  1  0  0  0  0  0  0  0  0  0
  -22.6960  -32.7382   23.1974 C   0  0  2  0  0  0  0  0  0  0  0  0
  -26.8727  -33.8313   25.2405 C   0  0  0  0  0  0  0  0  0  0  0  0
  -25.8204  -11.7916   20.1162 N   0  0  0  0  0  0  0  0  0  0  0  0
  -30.6327  -24.3326   23.2292 N   0  0  0  0  0  0  0  0  0  0  0  0
  -29.8728  -24.2890   22.1403 N   0  0  0  0  0  0  0  0  0  0  0  0
  -26.0819  -13.1096   20.0923 N   0  0  0  0  0  0  0  0  0  0  0  0
  -27.8745  -32.3223   22.1446 N   0  0  0  0  0  0  0  0  0  0  0  0
  -29.7625  -14.1654   20.0376 N   0  0  0  0  0  0  0  0  0  0  0  0
  -30.1272  -15.7734   21.7720 N   0  0  0  0  0  0  0  0  0  0  0  0
  -25.1810  -15.2246   20.6630 N   0  0  0  0  0  0  0  0  0  0  0  0
  -21.9509  -12.3376   21.9389 N   0  0  0  0  0  0  0  0  0  0  0  0
  -31.0908  -22.5913   24.8182 N   0  0  0  0  0  0  0  0  0  0  0  0
  -31.0271  -33.6210   21.0936 N   0  0  0  0  0  0  0  0  0  0  0  0
  -24.9918  -33.2750   23.6415 N   0  0  0  0  0  0  0  0  0  0  0  0
  -30.3942  -19.8788   22.7314 N   0  3  0  0  0  0  0  0  0  0  0  0
  -21.9848  -31.7192   22.3747 N   0  3  0  0  0  0  0  0  0  0  0  0
  -22.5254  -14.5544   21.8185 O   0  0  0  0  0  0  0  0  0  0  0  0
  -30.4506  -32.0073   22.6704 O   0  0  0  0  0  0  0  0  0  0  0  0
  -27.2052  -34.5471   22.3409 O   0  0  0  0  0  0  0  0  0  0  0  0
  -24.3301  -31.0569   23.7809 O   0  0  0  0  0  0  0  0  0  0  0  0
  -31.8614  -15.0320   20.4445 O   0  0  0  0  0  0  0  0  0  0  0  0
  -22.1152   -6.7898   21.4590 O   0  0  0  0  0  0  0  0  0  0  0  0
  -28.6486  -26.2057   21.7157 O   0  0  0  0  0  0  0  0  0  1  0  0
  -19.6831   -5.9003   26.3270 F   0  0  0  0  0  0  0  0  0  0  0  0
  -22.9238   -4.7087   23.0892 F   0  0  0  0  0  0  0  0  0  0  0  0
  1  2  1  0  0  0  0
  1  5  2  0  0  0  0
  2  6  2  0  0  0  0
  3  8  2  0  0  0  0
  3 15  1  0  0  0  0
  4  9  1  0  0  0  0
  4 15  2  0  0  0  0
  5 17  1  0  0  0  0
  6 19  1  0  0  0  0
  7 10  2  0  0  0  0
  7 18  1  0  0  0  0
  8 22  1  0  0  0  0
  9 22  2  0  0  0  0
 10 23  1  0  0  0  0
 11 12  2  0  0  0  0
 11 24  1  0  0  0  0
 12 25  1  0  0  0  0
 13 20  1  0  0  0  0
 13 23  2  0  0  0  0
 14 25  2  0  0  0  0
 14 26  1  0  0  0  0
 15 27  1  0  0  0  0
 16 27  1  0  0  0  0
 16 30  2  0  0  0  0
 16 31  1  0  0  0  0
 17 19  2  0  0  0  0
 17 36  1  0  0  0  0
 18 20  2  0  0  0  0
 18 37  1  0  0  0  0
 19 51  1  0  0  0  0
 20 38  1  0  0  0  0
 21 28  2  0  0  0  0
 21 29  1  0  0  0  0
 21 62  1  0  0  0  0
 22 85  1  0  0  0  0
 23 86  1  0  0  0  0
 24 26  2  0  0  0  0
 24 85  1  0  0  0  0
 25 87  1  0  0  0  0
 26 88  1  0  0  0  0
 27 66  2  0  0  0  0
 28 39  1  0  0  0  0
 28 68  1  0  0  0  0
 29 67  2  0  0  0  0
 29 75  1  0  0  0  0
 30 69  1  0  0  0  0
 30 73  1  0  0  0  0
 31 74  1  0  0  0  0
 31 80  2  0  0  0  0
 32 52  1  0  0  0  0
 32 76  1  0  0  0  0
 32 81  2  0  0  0  0
 33 63  1  0  0  0  0
 33 70  1  0  0  0  0
 33 82  2  0  0  0  0
 34 64  1  0  0  0  0
 34 77  1  0  0  0  0
 34 83  2  0  0  0  0
 35 71  1  0  0  0  0
 35 72  1  0  0  0  0
 35 84  2  0  0  0  0
 36 40  1  0  0  0  0
 37 52  1  0  0  0  0
 38 70  1  0  0  0  0
 39 41  1  0  0  0  0
 40 43  1  0  0  0  0
 41 55  1  0  0  0  0
 42 44  1  0  0  0  0
 42 47  1  0  0  0  0
 43 51  1  0  0  0  0
 44 53  1  0  0  0  0
 45 48  1  0  0  0  0
 45 54  1  0  0  0  0
 46 49  1  0  0  0  0
 46 54  1  0  0  0  0
 47 71  1  0  0  0  0
 48 72  1  0  0  0  0
 49 72  1  0  0  0  0
 50 53  1  0  0  0  0
 50 71  1  0  0  0  0
 51 76  1  0  0  0  0
 52 70  1  0  0  0  0
 53 69  1  0  0  0  0
 54 78  1  0  0  0  0
 55 68  1  0  0  0  0
 55 86  1  0  0  0  0
 56 64  1  0  0  0  0
 57 65  1  0  0  0  0
 58 65  1  0  0  0  0
 59 65  1  0  0  0  0
 60 75  1  0  0  0  0
 61 79  1  0  0  0  0
 62 78  1  0  0  0  0
 63 65  1  0  0  0  0
 63 77  1  0  0  0  0
 64 79  1  0  0  0  0
 66 69  1  0  0  0  0
 67 68  1  0  0  0  0
M  CHG  2  78   1  79   1
M  ISO  4  35 100  55 101  72 100  86 101
M  END
> <Batch ID>
0198

> <Smiles>
CNc1nn2c(c1CNC1CC[100N:0]([100C:0](=O)N3CCCC(n4nc(-c5ccc(Oc6ccc(F)cc6F)cc5)c(C(N)=O)c4N)C3)CC1)CC[101CH:1]2[101O:1]c1ccc2c(c1)CN(C(=O)C(NC(=O)C(C)NC)C(C)(C)C)C(C(=O)NC1CCCc3ccccc31)C2

> <Shape>
0.295

> <Color>
0.178

> <Negative vol penalty>
0.000

$$$$

  -OEChem-04052323483D

 84 93  0     1  0  0  0  0  0999 V2000
  -27.6920  -37.8731   21.3029 C   0  0  0  0  0  0  0  0  0  0  0  0
  -27.9031  -36.8225   20.4157 C   0  0  0  0  0  0  0  0  0  0  0  0
  -22.6964  -11.3252   19.2169 C   0  0  0  0  0  0  0  0  0  0  0  0
  -23.2734   -9.9181   21.0941 C   0  0  0  0  0  0  0  0  0  0  0  0
  -27.4728  -37.6094   22.6543 C   0  0  0  0  0  0  0  0  0  0  0  0
  -27.8962  -35.5075   20.8797 C   0  0  0  0  0  0  0  0  0  0  0  0
  -26.1348  -28.8733   18.8300 C   0  0  0  0  0  0  0  0  0  0  0  0
  -21.6847  -10.4339   18.8597 C   0  0  0  0  0  0  0  0  0  0  0  0
  -22.2617   -9.0267   20.7370 C   0  0  0  0  0  0  0  0  0  0  0  0
  -26.6770  -27.5915   18.7486 C   0  0  0  0  0  0  0  0  0  0  0  0
  -18.5373   -9.7078   19.8595 C   0  0  0  0  0  0  0  0  0  0  0  0
  -17.2941  -10.2408   19.5192 C   0  0  0  0  0  0  0  0  0  0  0  0
  -26.2092  -27.2515   21.0906 C   0  0  0  0  0  0  0  0  0  0  0  0
  -17.4685   -9.2465   17.3242 C   0  0  0  0  0  0  0  0  0  0  0  0
  -29.1849  -23.1932   21.2090 C   0  0  0  0  0  0  0  0  0  0  0  0
  -23.4909  -11.0673   20.3341 C   0  0  0  0  0  0  0  0  0  0  0  0
  -24.4292  -13.0943   21.5662 C   0  0  0  0  0  0  0  0  0  0  0  0
  -27.4536  -36.2900   23.1334 C   0  0  0  0  0  0  0  0  0  0  0  0
  -25.6348  -29.3587   20.0468 C   0  0  0  0  0  0  0  0  0  0  0  0
  -27.6778  -35.2260   22.2390 C   0  0  0  0  0  0  0  0  0  0  0  0
  -25.6588  -28.5389   21.1841 C   0  0  0  0  0  0  0  0  0  0  0  0
  -27.9068  -23.4437   20.7530 C   0  0  0  0  0  0  0  0  0  0  0  0
  -21.4673   -9.2847   19.6198 C   0  0  0  0  0  0  0  0  0  0  0  0
  -26.7170  -26.7814   19.8797 C   0  0  0  0  0  0  0  0  0  0  0  0
  -19.2462   -8.9441   18.9321 C   0  0  0  0  0  0  0  0  0  0  0  0
  -16.7597  -10.0102   18.2516 C   0  0  0  0  0  0  0  0  0  0  0  0
  -18.7118   -8.7134   17.6645 C   0  0  0  0  0  0  0  0  0  0  0  0
  -24.5365  -11.9873   20.7032 C   0  0  0  0  0  0  0  0  0  0  0  0
  -27.3038  -22.4088   20.0678 C   0  0  0  0  0  0  0  0  0  0  0  0
  -25.6906  -13.6373   21.5866 C   0  0  0  0  0  0  0  0  0  0  0  0
  -29.1399  -21.0954   20.3345 C   0  0  0  0  0  0  0  0  0  0  0  0
  -23.2911  -13.5876   22.2853 C   0  0  0  0  0  0  0  0  0  0  0  0
  -26.3742  -31.7791   21.9701 C   0  0  0  0  0  0  0  0  0  0  0  0
  -23.7126  -30.8209   23.5576 C   0  0  0  0  0  0  0  0  0  0  0  0
  -21.5162  -28.3107   24.2800 C   0  0  0  0  0  0  0  0  0  0  0  0
  -30.1687  -15.3136   18.5842 C   0  0  0  0  0  0  0  0  0  0  0  0
  -27.2596  -36.0569   24.6109 C   0  0  0  0  0  0  0  0  0  0  0  0
  -25.0288  -30.7339   20.1118 C   0  0  0  0  0  0  0  0  0  0  0  0
  -25.1165  -29.0054   22.5096 C   0  0  0  0  0  0  0  0  0  0  0  0
  -26.8952  -34.6156   24.9574 C   0  0  0  0  0  0  0  0  0  0  0  0
  -30.0847  -11.8604   19.8257 C   0  0  0  0  0  0  0  0  0  0  0  0
  -27.8079  -33.6419   24.2188 C   0  0  0  0  0  0  0  0  0  0  0  0
  -28.6119  -11.6668   20.1891 C   0  0  0  0  0  0  0  0  0  0  0  0
  -28.2717  -17.9484   20.3094 C   0  0  0  0  0  0  0  0  0  0  0  0
  -30.2647  -12.8493   18.6762 C   0  0  0  0  0  0  0  0  0  0  0  0
  -28.1917  -16.6257   19.5542 C   0  0  0  0  0  0  0  0  0  0  0  0
  -28.1362  -13.9550   19.2419 C   0  0  0  0  0  0  0  0  0  0  0  0
  -30.2223  -17.7622   18.9625 C   0  0  0  0  0  0  0  0  0  0  0  0
  -27.6531  -33.7848   22.6999 C   0  0  1  0  0  0  0  0  0  0  0  0
  -25.0169  -31.3156   21.5220 C   0  0  1  0  0  0  0  0  0  0  0  0
  -27.9192  -13.0195   20.4393 C   0  0  1  0  0  0  0  0  0  0  0  0
  -29.1825  -18.7780   19.4110 C   0  0  2  0  0  0  0  0  0  0  0  0
  -19.4643  -27.8188   25.6384 C   0  0  0  0  0  0  0  0  0  0  0  0
  -25.4202  -30.6826   26.0824 C   0  0  0  0  0  0  0  0  0  0  0  0
  -23.6140  -29.3127   27.1451 C   0  0  0  0  0  0  0  0  0  0  0  0
  -23.1390  -31.6511   26.4176 C   0  0  0  0  0  0  0  0  0  0  0  0
  -19.9296  -27.6703   21.8651 C   0  0  0  0  0  0  0  0  0  0  0  0
  -27.2544  -24.7551   21.0026 C   0  0  0  0  0  0  0  0  0  1  0  0
  -23.4263  -29.8443   24.6726 C   0  0  1  0  0  0  0  0  0  0  0  0
  -19.9987  -28.2715   24.2885 C   0  0  2  0  0  0  0  0  0  0  0  0
  -23.9119  -30.3643   26.0551 C   0  0  0  0  0  0  0  0  0  0  0  0
  -29.8340  -22.0261   21.0169 N   0  0  0  0  0  0  0  0  0  0  0  0
  -25.7687  -11.8349   20.2108 N   0  0  0  0  0  0  0  0  0  0  0  0
  -27.8934  -21.2169   19.8394 N   0  0  0  0  0  0  0  0  0  0  0  0
  -26.4472  -12.8533   20.7662 N   0  0  0  0  0  0  0  0  0  0  0  0
  -24.5399  -30.3599   22.5237 N   0  0  0  0  0  0  0  0  0  0  0  0
  -29.5659  -14.1052   18.9503 N   0  0  0  0  0  0  0  0  0  0  0  0
  -29.4998  -16.4935   18.9075 N   0  0  0  0  0  0  0  0  0  0  0  0
  -26.2153  -14.7042   22.2260 N   0  0  0  0  0  0  0  0  0  0  0  0
  -22.0713  -12.9103   22.1516 N   0  0  0  0  0  0  0  0  0  0  0  0
  -29.7772  -19.8812   20.1182 N   0  0  0  0  0  0  0  0  0  0  0  0
  -26.4427  -33.1303   22.2514 N   0  0  0  0  0  0  0  0  0  0  0  0
  -21.9966  -29.5604   24.6096 N   0  0  0  0  0  0  0  0  0  0  0  0
  -19.4990  -27.3311   23.2459 N   0  3  0  0  0  0  0  0  0  0  0  0
  -23.3499  -14.6087   23.0116 O   0  0  0  0  0  0  0  0  0  0  0  0
  -27.2909  -30.9705   22.0557 O   0  0  0  0  0  0  0  0  0  0  0  0
  -23.2145  -31.9486   23.5987 O   0  0  0  0  0  0  0  0  0  0  0  0
  -22.2064  -27.3298   24.0117 O   0  0  0  0  0  0  0  0  0  0  0  0
  -31.2780  -15.3396   18.0349 O   0  0  0  0  0  0  0  0  0  0  0  0
  -20.4800   -8.4149   19.2717 O   0  0  0  0  0  0  0  0  0  0  0  0
  -27.2496  -25.5223   19.8027 O   0  0  0  0  0  0  0  0  0  1  0  0
  -15.5651  -10.5209   17.9255 F   0  0  0  0  0  0  0  0  0  0  0  0
  -19.3876   -7.9796   16.7698 F   0  0  0  0  0  0  0  0  0  0  0  0
  -25.7145  -22.5344   19.4248 Cl  0  0  0  0  0  0  0  0  0  0  0  0
  1  2  1  0  0  0  0
  1  5  2  0  0  0  0
  2  6  2  0  0  0  0
  3  8  2  0  0  0  0
  3 16  1  0  0  0  0
  4  9  1  0  0  0  0
  4 16  2  0  0  0  0
  5 18  1  0  0  0  0
  6 20  1  0  0  0  0
  7 10  2  0  0  0  0
  7 19  1  0  0  0  0
  8 23  1  0  0  0  0
  9 23  2  0  0  0  0
 10 24  1  0  0  0  0
 11 12  2  0  0  0  0
 11 25  1  0  0  0  0
 12 26  1  0  0  0  0
 13 21  1  0  0  0  0
 13 24  2  0  0  0  0
 14 26  2  0  0  0  0
 14 27  1  0  0  0  0
 15 22  1  0  0  0  0
 15 62  2  0  0  0  0
 16 28  1  0  0  0  0
 17 28  1  0  0  0  0
 17 30  2  0  0  0  0
 17 32  1  0  0  0  0
 18 20  2  0  0  0  0
 18 37  1  0  0  0  0
 19 21  2  0  0  0  0
 19 38  1  0  0  0  0
 20 49  1  0  0  0  0
 21 39  1  0  0  0  0
 22 29  2  0  0  0  0
 22 58  1  0  0  0  0
 23 80  1  0  0  0  0
 24 81  1  0  0  0  0
 25 27  2  0  0  0  0
 25 80  1  0  0  0  0
 26 82  1  0  0  0  0
 27 83  1  0  0  0  0
 28 63  2  0  0  0  0
 29 64  1  0  0  0  0
 29 84  1  0  0  0  0
 30 65  1  0  0  0  0
 30 69  1  0  0  0  0
 31 62  1  0  0  0  0
 31 64  2  0  0  0  0
 31 71  1  0  0  0  0
 32 70  1  0  0  0  0
 32 75  2  0  0  0  0
 33 50  1  0  0  0  0
 33 72  1  0  0  0  0
 33 76  2  0  0  0  0
 34 59  1  0  0  0  0
 34 66  1  0  0  0  0
 34 77  2  0  0  0  0
 35 60  1  0  0  0  0
 35 73  1  0  0  0  0
 35 78  2  0  0  0  0
 36 67  1  0  0  0  0
 36 68  1  0  0  0  0
 36 79  2  0  0  0  0
 37 40  1  0  0  0  0
 38 50  1  0  0  0  0
 39 66  1  0  0  0  0
 40 42  1  0  0  0  0
 41 43  1  0  0  0  0
 41 45  1  0  0  0  0
 42 49  1  0  0  0  0
 43 51  1  0  0  0  0
 44 46  1  0  0  0  0
 44 52  1  0  0  0  0
 45 67  1  0  0  0  0
 46 68  1  0  0  0  0
 47 51  1  0  0  0  0
 47 67  1  0  0  0  0
 48 52  1  0  0  0  0
 48 68  1  0  0  0  0
 49 72  1  0  0  0  0
 50 66  1  0  0  0  0
 51 65  1  0  0  0  0
 52 71  1  0  0  0  0
 53 60  1  0  0  0  0
 54 61  1  0  0  0  0
 55 61  1  0  0  0  0
 56 61  1  0  0  0  0
 57 74  1  0  0  0  0
 58 81  1  0  0  0  0
 59 61  1  0  0  0  0
 59 73  1  0  0  0  0
 60 74  1  0  0  0  0
 63 65  1  0  0  0  0
M  CHG  1  74   1
M  ISO  4  36 100  58 101  68 100  81 101
M  END
> <Batch ID>
0198

> <Smiles>
CNC(C)C(=O)NC(C(=O)N1Cc2cc([101O:1][101CH2:1]c3cnc(NC4CC[100N:0]([100C:0](=O)N5CCCC(n6nc(-c7ccc(Oc8ccc(F)cc8F)cc7)c(C(N)=O)c6N)C5)C4)nc3Cl)ccc2CC1C(=O)NC1CCCc2ccccc21)C(C)(C)C

> <Shape>
0.302

> <Color>
0.127

> <Negative vol penalty>
0.000

$$$$

  -OEChem-04052323483D

 90101  0     1  0  0  0  0  0999 V2000
  -21.6922  -14.5057   17.8844 C   0  0  0  0  0  0  0  0  0  0  0  0
  -20.9328  -15.5814   18.3308 C   0  0  0  0  0  0  0  0  0  0  0  0
  -29.8763  -17.3603   18.2939 C   0  0  0  0  0  0  0  0  0  0  0  0
  -30.0423  -18.0635   20.5993 C   0  0  0  0  0  0  0  0  0  0  0  0
  -22.7232  -14.0081   18.6784 C   0  0  0  0  0  0  0  0  0  0  0  0
  -21.2120  -16.1674   19.5659 C   0  0  0  0  0  0  0  0  0  0  0  0
  -19.5922  -22.6705   21.4766 C   0  0  0  0  0  0  0  0  0  0  0  0
  -30.4923  -16.1516   18.6181 C   0  0  0  0  0  0  0  0  0  0  0  0
  -30.6583  -16.8548   20.9236 C   0  0  0  0  0  0  0  0  0  0  0  0
  -19.1730  -23.9214   21.9299 C   0  0  0  0  0  0  0  0  0  0  0  0
  -31.6949  -12.7333   18.9074 C   0  0  0  0  0  0  0  0  0  0  0  0
  -31.1410  -11.5633   18.3879 C   0  0  0  0  0  0  0  0  0  0  0  0
  -20.1844  -23.4916   24.0840 C   0  0  0  0  0  0  0  0  0  0  0  0
  -22.8878  -29.1206   21.6773 C   0  0  0  0  0  0  0  0  0  0  0  0
  -29.0635  -12.0421   19.5244 C   0  0  0  0  0  0  0  0  0  0  0  0
  -22.4350  -31.5601   20.4528 C   0  0  0  0  0  0  0  0  0  0  0  0
  -29.6514  -18.3163   19.2845 C   0  0  0  0  0  0  0  0  0  0  0  0
  -27.6365  -19.8476   18.9634 C   0  0  0  0  0  0  0  0  0  0  0  0
  -23.0064  -14.5809   19.9293 C   0  0  0  0  0  0  0  0  0  0  0  0
  -20.3232  -21.8306   22.3213 C   0  0  0  0  0  0  0  0  0  0  0  0
  -22.2639  -15.6948   20.3713 C   0  0  0  0  0  0  0  0  0  0  0  0
  -20.6177  -22.2425   23.6314 C   0  0  0  0  0  0  0  0  0  0  0  0
  -21.7582  -29.8542   21.9789 C   0  0  0  0  0  0  0  0  0  0  0  0
  -21.5246  -31.0868   21.3679 C   0  0  0  0  0  0  0  0  0  0  0  0
  -30.8833  -15.8988   19.9330 C   0  0  0  0  0  0  0  0  0  0  0  0
  -19.4682  -24.3308   23.2305 C   0  0  0  0  0  0  0  0  0  0  0  0
  -30.9331  -13.5577   19.7355 C   0  0  0  0  0  0  0  0  0  0  0  0
  -29.8254  -11.2177   18.6964 C   0  0  0  0  0  0  0  0  0  0  0  0
  -29.6174  -13.2122   20.0440 C   0  0  0  0  0  0  0  0  0  0  0  0
  -29.0156  -19.5654   18.9500 C   0  0  0  0  0  0  0  0  0  0  0  0
  -23.7551  -29.6832   20.7521 C   0  0  0  0  0  0  0  0  0  0  0  0
  -27.5510  -21.1608   18.5700 C   0  0  0  0  0  0  0  0  0  0  0  0
  -26.5316  -18.9988   19.3015 C   0  0  0  0  0  0  0  0  0  0  0  0
  -22.0916  -18.5502   22.7546 C   0  0  0  0  0  0  0  0  0  0  0  0
  -23.8141  -20.6802   24.1353 C   0  0  0  0  0  0  0  0  0  0  0  0
  -25.5987  -23.2329   24.5845 C   0  0  0  0  0  0  0  0  0  0  0  0
  -29.3292  -26.4444   18.8283 C   0  0  0  0  0  0  0  0  0  0  0  0
  -24.1387  -14.0076   20.7444 C   0  0  0  0  0  0  0  0  0  0  0  0
  -20.7420  -20.4495   21.8957 C   0  0  0  0  0  0  0  0  0  0  0  0
  -20.2274  -31.6783   21.8083 C   0  0  0  0  0  0  0  0  0  0  0  0
  -21.3766  -21.2917   24.5162 C   0  0  0  0  0  0  0  0  0  0  0  0
  -24.0712  -14.4024   22.2161 C   0  0  0  0  0  0  0  0  0  0  0  0
  -19.9583  -30.8704   23.0898 C   0  0  0  0  0  0  0  0  0  0  0  0
  -31.0508  -24.2474   16.6179 C   0  0  0  0  0  0  0  0  0  0  0  0
  -23.8681  -15.9048   22.3424 C   0  0  0  0  0  0  0  0  0  0  0  0
  -30.5659  -22.8572   17.0328 C   0  0  0  0  0  0  0  0  0  0  0  0
  -26.3648  -27.8596   18.7838 C   0  0  0  0  0  0  0  0  0  0  0  0
  -26.6810  -27.4249   21.2290 C   0  0  0  0  0  0  0  0  0  0  0  0
  -31.2029  -25.1746   17.8217 C   0  0  0  0  0  0  0  0  0  0  0  0
  -25.5093  -29.0829   19.1130 C   0  0  0  0  0  0  0  0  0  0  0  0
  -25.8303  -28.6518   21.5539 C   0  0  0  0  0  0  0  0  0  0  0  0
  -29.5186  -23.8962   19.0877 C   0  0  0  0  0  0  0  0  0  0  0  0
  -20.2501  -27.2013   22.1581 C   0  0  0  0  0  0  0  0  0  0  0  0
  -18.7207  -28.0327   23.3123 C   0  0  0  0  0  0  0  0  0  0  0  0
  -22.5295  -16.3288   21.7248 C   0  0  1  0  0  0  0  0  0  0  0  0
  -20.6362  -29.4998   22.9033 C   0  0  1  0  0  0  0  0  0  0  0  0
  -22.1020  -20.0250   22.4782 C   0  0  1  0  0  0  0  0  0  0  0  0
  -29.2965  -22.9422   17.9015 C   0  0  2  0  0  0  0  0  0  0  0  0
  -27.3868  -27.5738   19.8823 C   0  0  0  0  0  0  0  0  0  0  0  0
  -18.9360  -26.6294   22.7191 C   0  0  0  0  0  0  0  0  0  1  0  0
  -27.2789  -25.0077   25.1544 C   0  0  0  0  0  0  0  0  0  0  0  0
  -22.6896  -19.8097   26.8337 C   0  0  0  0  0  0  0  0  0  0  0  0
  -24.4027  -21.2644   27.9370 C   0  0  0  0  0  0  0  0  0  0  0  0
  -25.1265  -19.3438   26.5193 C   0  0  0  0  0  0  0  0  0  0  0  0
  -27.3368  -22.4813   22.3100 C   0  0  0  0  0  0  0  0  0  0  0  0
  -24.1503  -21.3991   25.4173 C   0  0  1  0  0  0  0  0  0  0  0  0
  -27.0543  -23.6550   24.4967 C   0  0  2  0  0  0  0  0  0  0  0  0
  -24.0740  -20.4652   26.6580 C   0  0  0  0  0  0  0  0  0  0  0  0
  -23.5598  -30.8796   20.1337 N   0  0  0  0  0  0  0  0  0  0  0  0
  -29.7531  -20.6147   18.5773 N   0  0  0  0  0  0  0  0  0  0  0  0
  -28.8340  -21.5692   18.3529 N   0  0  0  0  0  0  0  0  0  0  0  0
  -24.9143  -28.9585   20.4474 N   0  0  0  0  0  0  0  0  0  0  0  0
  -22.4664  -20.6596   23.7563 N   0  0  0  0  0  0  0  0  0  0  0  0
  -29.9640  -25.2119   18.6025 N   0  0  0  0  0  0  0  0  0  0  0  0
  -26.5041  -21.9944   18.3918 N   0  0  0  0  0  0  0  0  0  0  0  0
  -26.7972  -17.6771   19.6847 N   0  0  0  0  0  0  0  0  0  0  0  0
  -22.4685  -17.7730   21.6760 N   0  0  0  0  0  0  0  0  0  0  0  0
  -25.4577  -22.0125   25.2106 N   0  0  0  0  0  0  0  0  0  0  0  0
  -28.1569  -26.3899   19.5723 N   0  0  0  0  0  0  0  0  0  0  0  0
  -19.6710  -28.5488   22.3097 N   0  3  0  0  0  0  0  0  0  0  0  0
  -27.4815  -23.7484   23.0720 N   0  3  0  0  0  0  0  0  0  0  0  0
  -25.3427  -19.3957   19.2489 O   0  0  0  0  0  0  0  0  0  0  0  0
  -21.7672  -18.1458   23.8650 O   0  0  0  0  0  0  0  0  0  0  0  0
  -24.7192  -20.1457   23.4884 O   0  0  0  0  0  0  0  0  0  0  0  0
  -24.6786  -23.9191   24.1451 O   0  0  0  0  0  0  0  0  0  0  0  0
  -29.7712  -27.5135   18.3940 O   0  0  0  0  0  0  0  0  0  0  0  0
  -31.4842  -14.7194   20.2498 O   0  0  0  0  0  0  0  0  0  0  0  0
  -19.0598  -25.5552   23.6651 O   0  0  0  0  0  0  0  0  0  1  0  0
  -29.2931  -10.0949   18.1962 F   0  0  0  0  0  0  0  0  0  0  0  0
  -28.8802  -14.0008   20.8380 F   0  0  0  0  0  0  0  0  0  0  0  0
  1  2  1  0  0  0  0
  1  5  2  0  0  0  0
  2  6  2  0  0  0  0
  3  8  2  0  0  0  0
  3 17  1  0  0  0  0
  4  9  1  0  0  0  0
  4 17  2  0  0  0  0
  5 19  1  0  0  0  0
  6 21  1  0  0  0  0
  7 10  2  0  0  0  0
  7 20  1  0  0  0  0
  8 25  1  0  0  0  0
  9 25  2  0  0  0  0
 10 26  1  0  0  0  0
 11 12  2  0  0  0  0
 11 27  1  0  0  0  0
 12 28  1  0  0  0  0
 13 22  1  0  0  0  0
 13 26  2  0  0  0  0
 14 23  1  0  0  0  0
 14 31  2  0  0  0  0
 15 28  2  0  0  0  0
 15 29  1  0  0  0  0
 16 24  1  0  0  0  0
 16 69  2  0  0  0  0
 17 30  1  0  0  0  0
 18 30  1  0  0  0  0
 18 32  2  0  0  0  0
 18 33  1  0  0  0  0
 19 21  2  0  0  0  0
 19 38  1  0  0  0  0
 20 22  2  0  0  0  0
 20 39  1  0  0  0  0
 21 55  1  0  0  0  0
 22 41  1  0  0  0  0
 23 24  2  0  0  0  0
 23 56  1  0  0  0  0
 24 40  1  0  0  0  0
 25 87  1  0  0  0  0
 26 88  1  0  0  0  0
 27 29  2  0  0  0  0
 27 87  1  0  0  0  0
 28 89  1  0  0  0  0
 29 90  1  0  0  0  0
 30 70  2  0  0  0  0
 31 69  1  0  0  0  0
 31 72  1  0  0  0  0
 32 71  1  0  0  0  0
 32 75  1  0  0  0  0
 33 76  1  0  0  0  0
 33 82  2  0  0  0  0
 34 57  1  0  0  0  0
 34 77  1  0  0  0  0
 34 83  2  0  0  0  0
 35 66  1  0  0  0  0
 35 73  1  0  0  0  0
 35 84  2  0  0  0  0
 36 67  1  0  0  0  0
 36 78  1  0  0  0  0
 36 85  2  0  0  0  0
 37 74  1  0  0  0  0
 37 79  1  0  0  0  0
 37 86  2  0  0  0  0
 38 42  1  0  0  0  0
 39 57  1  0  0  0  0
 40 43  1  0  0  0  0
 41 73  1  0  0  0  0
 42 45  1  0  0  0  0
 43 56  1  0  0  0  0
 44 46  1  0  0  0  0
 44 49  1  0  0  0  0
 45 55  1  0  0  0  0
 46 58  1  0  0  0  0
 47 50  1  0  0  0  0
 47 59  1  0  0  0  0
 48 51  1  0  0  0  0
 48 59  1  0  0  0  0
 49 74  1  0  0  0  0
 50 72  1  0  0  0  0
 51 72  1  0  0  0  0
 52 58  1  0  0  0  0
 52 74  1  0  0  0  0
 53 60  1  0  0  0  0
 53 80  1  0  0  0  0
 54 60  1  0  0  0  0
 54 80  1  0  0  0  0
 55 77  1  0  0  0  0
 56 80  1  0  0  0  0
 57 73  1  0  0  0  0
 58 71  1  0  0  0  0
 59 79  1  0  0  0  0
 60 88  1  0  0  0  0
 61 67  1  0  0  0  0
 62 68  1  0  0  0  0
 63 68  1  0  0  0  0
 64 68  1  0  0  0  0
 65 81  1  0  0  0  0
 66 68  1  0  0  0  0
 66 78  1  0  0  0  0
 67 81  1  0  0  0  0
 70 71  1  0  0  0  0
M  CHG  2  80   1  81   1
M  ISO  4  37 100  60 101  79 100  88 101
M  END
> <Batch ID>
0198

> <Smiles>
CNC(C)C(=O)NC(C(=O)N1Cc2cc([101O:1][101CH:1]3CN(C4CCc5cnc(N6CCC([100NH:0][100C:0](=O)N7CCCC(n8nc(-c9ccc(Oc%10ccc(F)cc%10F)cc9)c(C(N)=O)c8N)C7)CC6)cc54)C3)ccc2CC1C(=O)NC1CCCc2ccccc21)C(C)(C)C

> <Shape>
0.238

> <Color>
0.056

> <Negative vol penalty>
0.000

$$$$

  -OEChem-04052323483D

 88 98  0     1  0  0  0  0  0999 V2000
  -21.8124  -17.2730   23.0413 C   0  0  0  0  0  0  0  0  0  0  0  0
  -22.4554  -18.4891   23.2489 C   0  0  0  0  0  0  0  0  0  0  0  0
  -24.3018  -13.4441   21.2453 C   0  0  0  0  0  0  0  0  0  0  0  0
  -26.3191  -13.0535   19.9745 C   0  0  0  0  0  0  0  0  0  0  0  0
  -20.7712  -17.1850   22.1181 C   0  0  0  0  0  0  0  0  0  0  0  0
  -22.0582  -19.6177   22.5328 C   0  0  0  0  0  0  0  0  0  0  0  0
  -21.9999  -25.4090   24.5236 C   0  0  0  0  0  0  0  0  0  0  0  0
  -23.8158  -12.1955   20.8576 C   0  0  0  0  0  0  0  0  0  0  0  0
  -25.8331  -11.8048   19.5868 C   0  0  0  0  0  0  0  0  0  0  0  0
  -22.8928  -26.4668   24.3579 C   0  0  0  0  0  0  0  0  0  0  0  0
  -24.2769   -8.9619   21.7317 C   0  0  0  0  0  0  0  0  0  0  0  0
  -23.6957   -8.1592   22.7133 C   0  0  0  0  0  0  0  0  0  0  0  0
  -21.5756  -27.2810   22.5082 C   0  0  0  0  0  0  0  0  0  0  0  0
  -21.6184   -8.1546   21.4795 C   0  0  0  0  0  0  0  0  0  0  0  0
  -28.0838  -26.8080   21.6497 C   0  0  0  0  0  0  0  0  0  0  0  0
  -25.5535  -13.8731   20.8037 C   0  0  0  0  0  0  0  0  0  0  0  0
  -26.8302  -15.4584   22.3414 C   0  0  0  0  0  0  0  0  0  0  0  0
  -20.3547  -18.3153   21.3973 C   0  0  0  0  0  0  0  0  0  0  0  0
  -20.8922  -25.2728   23.6744 C   0  0  0  0  0  0  0  0  0  0  0  0
  -21.0114  -19.5444   21.5982 C   0  0  0  0  0  0  0  0  0  0  0  0
  -20.6688  -26.2220   22.6668 C   0  0  0  0  0  0  0  0  0  0  0  0
  -24.5814  -11.3759   20.0284 C   0  0  0  0  0  0  0  0  0  0  0  0
  -22.6823  -27.4014   23.3483 C   0  0  0  0  0  0  0  0  0  0  0  0
  -23.5288   -9.3610   20.6241 C   0  0  0  0  0  0  0  0  0  0  0  0
  -22.3665   -7.7555   22.5872 C   0  0  0  0  0  0  0  0  0  0  0  0
  -22.1996   -8.9573   20.4980 C   0  0  0  0  0  0  0  0  0  0  0  0
  -26.0559  -15.1631   21.2034 C   0  0  0  0  0  0  0  0  0  0  0  0
  -28.1234  -28.2033   21.8321 C   0  0  0  0  0  0  0  0  0  0  0  0
  -28.9184  -26.5772   20.5835 C   0  0  0  0  0  0  0  0  0  0  0  0
  -27.0468  -16.8127   22.2672 C   0  0  0  0  0  0  0  0  0  0  0  0
  -27.3109  -14.5866   23.3731 C   0  0  0  0  0  0  0  0  0  0  0  0
  -19.9133  -23.0725   21.5999 C   0  0  0  0  0  0  0  0  0  0  0  0
  -17.2735  -24.9515   21.4474 C   0  0  0  0  0  0  0  0  0  0  0  0
  -15.8906  -28.0439   21.8618 C   0  0  0  0  0  0  0  0  0  0  0  0
  -28.4700  -21.2509   19.4143 C   0  0  0  0  0  0  0  0  0  0  0  0
  -19.2559  -18.1606   20.3758 C   0  0  0  0  0  0  0  0  0  0  0  0
  -19.9237  -24.1411   23.8832 C   0  0  0  0  0  0  0  0  0  0  0  0
  -19.4837  -26.1322   21.7416 C   0  0  0  0  0  0  0  0  0  0  0  0
  -18.6470  -19.4876   19.9304 C   0  0  0  0  0  0  0  0  0  0  0  0
  -24.9766  -20.3208   19.2683 C   0  0  0  0  0  0  0  0  0  0  0  0
  -19.7443  -20.4997   19.6163 C   0  0  0  0  0  0  0  0  0  0  0  0
  -25.0145  -18.9103   19.8589 C   0  0  0  0  0  0  0  0  0  0  0  0
  -26.2023  -20.5909   18.4000 C   0  0  0  0  0  0  0  0  0  0  0  0
  -27.5444  -18.9699   19.6805 C   0  0  0  0  0  0  0  0  0  0  0  0
  -29.3875  -24.1487   20.5164 C   0  0  0  0  0  0  0  0  0  0  0  0
  -28.8306  -25.0020   18.6775 C   0  0  0  0  0  0  0  0  0  0  0  0
  -27.3126  -30.4935   22.7593 C   0  0  0  0  0  0  0  0  0  0  0  0
  -20.5929  -20.7967   20.8586 C   0  0  1  0  0  0  0  0  0  0  0  0
  -27.3391  -28.9504   22.9230 C   0  0  1  0  0  0  0  0  0  0  0  0
  -19.1121  -23.8111   22.6343 C   0  0  1  0  0  0  0  0  0  0  0  0
  -26.3445  -18.6444   20.5883 C   0  0  2  0  0  0  0  0  0  0  0  0
  -29.2997  -23.5984   19.0858 C   0  0  0  0  0  0  0  0  0  0  0  0
  -25.8044  -29.0517   22.6664 C   0  0  1  0  0  0  0  0  0  0  0  0
  -29.5938  -28.6523   17.9067 C   0  0  0  0  0  0  0  0  0  0  0  0
  -13.7193  -29.2789   21.6223 C   0  0  0  0  0  0  0  0  0  0  0  0
  -17.6450  -25.0126   18.4195 C   0  0  0  0  0  0  0  0  0  0  0  0
  -16.0848  -26.9689   18.3375 C   0  0  0  0  0  0  0  0  0  0  0  0
  -15.2739  -24.7635   19.1749 C   0  0  0  0  0  0  0  0  0  0  0  0
  -25.0760  -31.3667   22.2864 C   0  0  0  0  0  0  0  0  0  0  0  0
  -15.8161  -28.7068   24.7452 C   0  0  0  0  0  0  0  0  0  0  0  0
  -24.9120  -28.2033   23.5515 C   0  0  0  0  0  0  0  0  0  1  0  0
  -30.3040  -28.0900   19.1260 C   0  0  0  0  0  0  0  0  0  0  0  0
  -16.8474  -26.1302   20.6060 C   0  0  1  0  0  0  0  0  0  0  0  0
  -14.6212  -28.4940   22.5621 C   0  0  2  0  0  0  0  0  0  0  0  0
  -16.4863  -25.7197   19.1505 C   0  0  0  0  0  0  0  0  0  0  0  0
  -25.7978  -16.2429   20.4608 N   0  0  0  0  0  0  0  0  0  0  0  0
  -28.9203  -28.8159   20.9524 N   0  0  0  0  0  0  0  0  0  0  0  0
  -29.3892  -27.8007   20.2071 N   0  0  0  0  0  0  0  0  0  0  0  0
  -26.4134  -17.2300   21.1337 N   0  0  0  0  0  0  0  0  0  0  0  0
  -29.2843  -25.4453   19.9475 N   0  0  0  0  0  0  0  0  0  0  0  0
  -18.5687  -25.0041   21.9818 N   0  0  0  0  0  0  0  0  0  0  0  0
  -27.4349  -20.3372   19.1598 N   0  0  0  0  0  0  0  0  0  0  0  0
  -27.7152  -17.6754   23.0618 N   0  0  0  0  0  0  0  0  0  0  0  0
  -26.9969  -13.2229   23.2954 N   0  0  0  0  0  0  0  0  0  0  0  0
  -19.8910  -21.6986   21.7464 N   0  0  0  0  0  0  0  0  0  0  0  0
  -15.7599  -26.7778   21.3315 N   0  0  0  0  0  0  0  0  0  0  0  0
  -28.2983  -22.5291   18.8936 N   0  0  0  0  0  0  0  0  0  0  0  0
  -25.8852  -30.4583   23.1294 N   0  3  2  0  0  0  0  0  0  0  0  0
  -14.9525  -29.3606   23.7284 N   0  3  0  0  0  0  0  0  0  0  0  0
  -27.9845  -15.0071   24.3441 O   0  0  0  0  0  0  0  0  0  0  0  0
  -20.5066  -23.7023   20.7321 O   0  0  0  0  0  0  0  0  0  0  0  0
  -16.4837  -24.0218   21.6299 O   0  0  0  0  0  0  0  0  0  0  0  0
  -16.8963  -28.7467   21.7889 O   0  0  0  0  0  0  0  0  0  0  0  0
  -29.4786  -20.9570   20.0654 O   0  0  0  0  0  0  0  0  0  0  0  0
  -24.1075  -10.1573   19.6500 O   0  0  0  0  0  0  0  0  0  0  0  0
  -23.5527  -28.4346   23.1840 O   0  0  0  0  0  0  0  0  0  1  0  0
  -21.8090   -6.9834   23.5291 F   0  0  0  0  0  0  0  0  0  0  0  0
  -21.4763   -9.3366   19.4355 F   0  0  0  0  0  0  0  0  0  0  0  0
  1  2  1  0  0  0  0
  1  5  2  0  0  0  0
  2  6  2  0  0  0  0
  3  8  2  0  0  0  0
  3 16  1  0  0  0  0
  4  9  1  0  0  0  0
  4 16  2  0  0  0  0
  5 18  1  0  0  0  0
  6 20  1  0  0  0  0
  7 10  2  0  0  0  0
  7 19  1  0  0  0  0
  8 22  1  0  0  0  0
  9 22  2  0  0  0  0
 10 23  1  0  0  0  0
 11 12  2  0  0  0  0
 11 24  1  0  0  0  0
 12 25  1  0  0  0  0
 13 21  1  0  0  0  0
 13 23  2  0  0  0  0
 14 25  2  0  0  0  0
 14 26  1  0  0  0  0
 15 28  1  0  0  0  0
 15 29  2  0  0  0  0
 16 27  1  0  0  0  0
 17 27  1  0  0  0  0
 17 30  2  0  0  0  0
 17 31  1  0  0  0  0
 18 20  2  0  0  0  0
 18 36  1  0  0  0  0
 19 21  2  0  0  0  0
 19 37  1  0  0  0  0
 20 48  1  0  0  0  0
 21 38  1  0  0  0  0
 22 85  1  0  0  0  0
 23 86  1  0  0  0  0
 24 26  2  0  0  0  0
 24 85  1  0  0  0  0
 25 87  1  0  0  0  0
 26 88  1  0  0  0  0
 27 66  2  0  0  0  0
 28 49  1  0  0  0  0
 28 67  2  0  0  0  0
 29 68  1  0  0  0  0
 29 70  1  0  0  0  0
 30 69  1  0  0  0  0
 30 73  1  0  0  0  0
 31 74  1  0  0  0  0
 31 80  2  0  0  0  0
 32 50  1  0  0  0  0
 32 75  1  0  0  0  0
 32 81  2  0  0  0  0
 33 63  1  0  0  0  0
 33 71  1  0  0  0  0
 33 82  2  0  0  0  0
 34 64  1  0  0  0  0
 34 76  1  0  0  0  0
 34 83  2  0  0  0  0
 35 72  1  0  0  0  0
 35 77  1  0  0  0  0
 35 84  2  0  0  0  0
 36 39  1  0  0  0  0
 37 50  1  0  0  0  0
 38 71  1  0  0  0  0
 39 41  1  0  0  0  0
 40 42  1  0  0  0  0
 40 43  1  0  0  0  0
 41 48  1  0  0  0  0
 42 51  1  0  0  0  0
 43 72  1  0  0  0  0
 44 51  1  0  0  0  0
 44 72  1  0  0  0  0
 45 52  1  0  0  0  0
 45 70  1  0  0  0  0
 46 52  1  0  0  0  0
 46 70  1  0  0  0  0
 47 49  1  0  0  0  0
 47 78  1  0  0  0  0
 48 75  1  0  0  0  0
 49 53  1  0  0  0  0
 50 71  1  0  0  0  0
 51 69  1  0  0  0  0
 52 77  1  0  0  0  0
 53 61  1  0  0  0  0
 53 78  1  0  0  0  0
 54 62  1  0  0  0  0
 55 64  1  0  0  0  0
 56 65  1  0  0  0  0
 57 65  1  0  0  0  0
 58 65  1  0  0  0  0
 59 78  1  0  0  0  0
 60 79  1  0  0  0  0
 61 86  1  0  0  0  0
 62 68  1  0  0  0  0
 63 65  1  0  0  0  0
 63 76  1  0  0  0  0
 64 79  1  0  0  0  0
 66 69  1  0  0  0  0
 67 68  1  0  0  0  0
M  CHG  2  78   1  79   1
M  ISO  4  35 100  61 101  77 100  86 101
M  END
> <Batch ID>
0198

> <Smiles>
CCn1nc(C2CN(C)C2[101CH2:1][101O:1]c2ccc3c(c2)CN(C(=O)C(NC(=O)C(C)NC)C(C)(C)C)C(C(=O)NC2CCCc4ccccc42)C3)cc1N1CC([100NH:0][100C:0](=O)N2CCCC(n3nc(-c4ccc(Oc5ccc(F)cc5F)cc4)c(C(N)=O)c3N)C2)C1

> <Shape>
0.222

> <Color>
0.059

> <Negative vol penalty>
0.000

$$$$

  -OEChem-04052323483D

 82 91  0     1  0  0  0  0  0999 V2000
  -28.0954   -9.1706   21.5781 C   0  0  0  0  0  0  0  0  0  0  0  0
  -28.6866  -10.3936   21.2778 C   0  0  0  0  0  0  0  0  0  0  0  0
  -20.2312  -28.2365   23.7938 C   0  0  0  0  0  0  0  0  0  0  0  0
  -20.4858  -26.7949   21.8718 C   0  0  0  0  0  0  0  0  0  0  0  0
  -26.7085   -9.0373   21.5289 C   0  0  0  0  0  0  0  0  0  0  0  0
  -27.8911  -11.4838   20.9270 C   0  0  0  0  0  0  0  0  0  0  0  0
  -28.9267  -17.3735   22.2481 C   0  0  0  0  0  0  0  0  0  0  0  0
  -18.8543  -28.2838   23.5759 C   0  0  0  0  0  0  0  0  0  0  0  0
  -19.1088  -26.8421   21.6540 C   0  0  0  0  0  0  0  0  0  0  0  0
  -29.4798  -18.4176   21.5080 C   0  0  0  0  0  0  0  0  0  0  0  0
  -16.3353  -25.3950   22.9323 C   0  0  0  0  0  0  0  0  0  0  0  0
  -15.6840  -24.1946   22.6487 C   0  0  0  0  0  0  0  0  0  0  0  0
  -27.2648  -19.1366   20.8785 C   0  0  0  0  0  0  0  0  0  0  0  0
  -14.9656  -25.0870   20.5216 C   0  0  0  0  0  0  0  0  0  0  0  0
  -21.0469  -27.4921   22.9417 C   0  0  0  0  0  0  0  0  0  0  0  0
  -23.1743  -26.5150   23.9553 C   0  0  0  0  0  0  0  0  0  0  0  0
  -25.8950  -10.1290   21.1866 C   0  0  0  0  0  0  0  0  0  0  0  0
  -27.5366  -17.1963   22.3002 C   0  0  0  0  0  0  0  0  0  0  0  0
  -26.4920  -11.3646   20.8718 C   0  0  0  0  0  0  0  0  0  0  0  0
  -26.6965  -18.0910   21.6220 C   0  0  0  0  0  0  0  0  0  0  0  0
  -18.2931  -27.5866   22.5061 C   0  0  0  0  0  0  0  0  0  0  0  0
  -28.6489  -19.2976   20.8207 C   0  0  0  0  0  0  0  0  0  0  0  0
  -16.3017  -26.4415   22.0106 C   0  0  0  0  0  0  0  0  0  0  0  0
  -14.9992  -24.0406   21.4433 C   0  0  0  0  0  0  0  0  0  0  0  0
  -15.6169  -26.2875   20.8052 C   0  0  0  0  0  0  0  0  0  0  0  0
  -22.4694  -27.4433   23.1659 C   0  0  0  0  0  0  0  0  0  0  0  0
  -24.4889  -26.8963   23.8423 C   0  0  0  0  0  0  0  0  0  0  0  0
  -29.5634  -24.3650   18.2651 C   0  0  0  0  0  0  0  0  0  0  0  0
  -30.5698  -22.7409   17.0878 C   0  0  0  0  0  0  0  0  0  0  0  0
  -29.0562  -22.2145   18.6591 C   0  0  0  0  0  0  0  0  0  0  0  0
  -22.6844  -25.4069   24.7221 C   0  0  0  0  0  0  0  0  0  0  0  0
  -25.5344  -14.8918   21.4146 C   0  0  0  0  0  0  0  0  0  0  0  0
  -23.3377  -16.7699   22.8876 C   0  0  0  0  0  0  0  0  0  0  0  0
  -22.4344  -19.8852   23.9486 C   0  0  0  0  0  0  0  0  0  0  0  0
  -28.7476  -28.5559   20.5306 C   0  0  0  0  0  0  0  0  0  0  0  0
  -24.4032   -9.9240   21.1008 C   0  0  0  0  0  0  0  0  0  0  0  0
  -26.9547  -16.0810   23.1247 C   0  0  0  0  0  0  0  0  0  0  0  0
  -25.1970  -17.9563   21.6624 C   0  0  0  0  0  0  0  0  0  0  0  0
  -23.6092  -11.2276   21.0846 C   0  0  0  0  0  0  0  0  0  0  0  0
  -26.5753  -31.0599   21.9248 C   0  0  0  0  0  0  0  0  0  0  0  0
  -24.2278  -12.2173   20.1024 C   0  0  0  0  0  0  0  0  0  0  0  0
  -25.3486  -30.2803   22.3868 C   0  0  0  0  0  0  0  0  0  0  0  0
  -27.1667  -30.4457   20.6630 C   0  0  0  0  0  0  0  0  0  0  0  0
  -28.0538  -26.3633   19.2771 C   0  0  0  0  0  0  0  0  0  0  0  0
  -30.1043  -26.5243   19.7896 C   0  0  0  0  0  0  0  0  0  0  0  0
  -26.3423  -28.1976   21.3114 C   0  0  0  0  0  0  0  0  0  0  0  0
  -25.6614  -12.5770   20.5110 C   0  0  1  0  0  0  0  0  0  0  0  0
  -29.3599  -25.9043   18.5847 C   0  0  0  0  0  0  0  0  0  0  0  0
  -25.5465  -15.6878   22.6890 C   0  0  1  0  0  0  0  0  0  0  0  0
  -25.6953  -28.7966   22.5760 C   0  0  2  0  0  0  0  0  0  0  0  0
  -31.5361  -22.3198   16.0336 C   0  0  0  0  0  0  0  0  0  0  0  0
  -20.5650  -21.1139   25.0857 C   0  0  0  0  0  0  0  0  0  0  0  0
  -21.7065  -16.6675   20.3110 C   0  0  0  0  0  0  0  0  0  0  0  0
  -20.3871  -18.6226   21.1508 C   0  0  0  0  0  0  0  0  0  0  0  0
  -20.3583  -16.4682   22.4079 C   0  0  0  0  0  0  0  0  0  0  0  0
  -24.1814  -20.7017   26.1937 C   0  0  0  0  0  0  0  0  0  0  0  0
  -28.2762  -21.1813   19.4176 C   0  0  0  0  0  0  0  0  0  1  0  0
  -22.4390  -17.9036   22.4562 C   0  0  1  0  0  0  0  0  0  0  0  0
  -21.8818  -20.3770   25.2743 C   0  0  2  0  0  0  0  0  0  0  0  0
  -21.2510  -17.4171   21.5789 C   0  0  0  0  0  0  0  0  0  0  0  0
  -23.2700  -28.3465   22.5938 N   0  0  0  0  0  0  0  0  0  0  0  0
  -30.4501  -24.0607   17.3035 N   0  0  0  0  0  0  0  0  0  0  0  0
  -28.8317  -23.4980   18.9835 N   0  0  0  0  0  0  0  0  0  0  0  0
  -29.9078  -21.7617   17.7249 N   0  0  0  0  0  0  0  0  0  0  0  0
  -24.4914  -27.9876   23.0243 N   0  0  0  0  0  0  0  0  0  0  0  0
  -24.6762  -16.8462   22.4772 N   0  0  0  0  0  0  0  0  0  0  0  0
  -27.4614  -29.0192   20.8294 N   0  0  0  0  0  0  0  0  0  0  0  0
  -28.8820  -27.2759   20.0468 N   0  0  0  0  0  0  0  0  0  0  0  0
  -25.6314  -26.4014   24.3641 N   0  0  0  0  0  0  0  0  0  0  0  0
  -21.3055  -25.1563   24.7284 N   0  0  0  0  0  0  0  0  0  0  0  0
  -25.6524  -13.5279   21.6020 N   0  0  0  0  0  0  0  0  0  0  0  0
  -22.0369  -18.5931   23.6774 N   0  0  0  0  0  0  0  0  0  0  0  0
  -22.8495  -21.3034   25.9272 N   0  3  0  0  0  0  0  0  0  0  0  0
  -23.4452  -24.6711   25.3954 O   0  0  0  0  0  0  0  0  0  0  0  0
  -25.4245  -15.4721   20.3409 O   0  0  0  0  0  0  0  0  0  0  0  0
  -22.8710  -15.8542   23.5697 O   0  0  0  0  0  0  0  0  0  0  0  0
  -23.1444  -20.5793   23.2243 O   0  0  0  0  0  0  0  0  0  0  0  0
  -29.7476  -29.2740   20.6629 O   0  0  0  0  0  0  0  0  0  0  0  0
  -16.9495  -27.6323   22.2933 O   0  0  0  0  0  0  0  0  0  0  0  0
  -29.1862  -20.3172   20.0970 O   0  0  0  0  0  0  0  0  0  1  0  0
  -14.3751  -22.8873   21.1704 F   0  0  0  0  0  0  0  0  0  0  0  0
  -15.5821  -27.2888   19.9153 F   0  0  0  0  0  0  0  0  0  0  0  0
  1  2  1  0  0  0  0
  1  5  2  0  0  0  0
  2  6  2  0  0  0  0
  3  8  2  0  0  0  0
  3 15  1  0  0  0  0
  4  9  1  0  0  0  0
  4 15  2  0  0  0  0
  5 17  1  0  0  0  0
  6 19  1  0  0  0  0
  7 10  2  0  0  0  0
  7 18  1  0  0  0  0
  8 21  1  0  0  0  0
  9 21  2  0  0  0  0
 10 22  1  0  0  0  0
 11 12  2  0  0  0  0
 11 23  1  0  0  0  0
 12 24  1  0  0  0  0
 13 20  1  0  0  0  0
 13 22  2  0  0  0  0
 14 24  2  0  0  0  0
 14 25  1  0  0  0  0
 15 26  1  0  0  0  0
 16 26  1  0  0  0  0
 16 27  2  0  0  0  0
 16 31  1  0  0  0  0
 17 19  2  0  0  0  0
 17 36  1  0  0  0  0
 18 20  2  0  0  0  0
 18 37  1  0  0  0  0
 19 47  1  0  0  0  0
 20 38  1  0  0  0  0
 21 79  1  0  0  0  0
 22 80  1  0  0  0  0
 23 25  2  0  0  0  0
 23 79  1  0  0  0  0
 24 81  1  0  0  0  0
 25 82  1  0  0  0  0
 26 61  2  0  0  0  0
 27 65  1  0  0  0  0
 27 69  1  0  0  0  0
 28 48  1  0  0  0  0
 28 62  2  0  0  0  0
 28 63  1  0  0  0  0
 29 51  1  0  0  0  0
 29 62  1  0  0  0  0
 29 64  2  0  0  0  0
 30 57  1  0  0  0  0
 30 63  2  0  0  0  0
 30 64  1  0  0  0  0
 31 70  1  0  0  0  0
 31 74  2  0  0  0  0
 32 49  1  0  0  0  0
 32 71  1  0  0  0  0
 32 75  2  0  0  0  0
 33 58  1  0  0  0  0
 33 66  1  0  0  0  0
 33 76  2  0  0  0  0
 34 59  1  0  0  0  0
 34 72  1  0  0  0  0
 34 77  2  0  0  0  0
 35 67  1  0  0  0  0
 35 68  1  0  0  0  0
 35 78  2  0  0  0  0
 36 39  1  0  0  0  0
 37 49  1  0  0  0  0
 38 66  1  0  0  0  0
 39 41  1  0  0  0  0
 40 42  1  0  0  0  0
 40 43  1  0  0  0  0
 41 47  1  0  0  0  0
 42 50  1  0  0  0  0
 43 67  1  0  0  0  0
 44 48  1  0  0  0  0
 44 68  1  0  0  0  0
 45 48  1  0  0  0  0
 45 68  1  0  0  0  0
 46 50  1  0  0  0  0
 46 67  1  0  0  0  0
 47 71  1  0  0  0  0
 49 66  1  0  0  0  0
 50 65  1  0  0  0  0
 52 59  1  0  0  0  0
 53 60  1  0  0  0  0
 54 60  1  0  0  0  0
 55 60  1  0  0  0  0
 56 73  1  0  0  0  0
 57 80  1  0  0  0  0
 58 60  1  0  0  0  0
 58 72  1  0  0  0  0
 59 73  1  0  0  0  0
 61 65  1  0  0  0  0
M  CHG  1  73   1
M  ISO  4  35 100  57 101  68 100  80 101
M  END
> <Batch ID>
0198

> <Smiles>
CNC(C)C(=O)NC(C(=O)N1Cc2cc([101O:1][101CH2:1]c3nc(C)nc(C4C[100N:0]([100C:0](=O)N5CCCC(n6nc(-c7ccc(Oc8ccc(F)cc8F)cc7)c(C(N)=O)c6N)C5)C4)n3)ccc2CC1C(=O)NC1CCCc2ccccc21)C(C)(C)C

> <Shape>
0.221

> <Color>
0.079

> <Negative vol penalty>
0.000

$$$$

  -OEChem-04052323483D

 88 97  0     1  0  0  0  0  0999 V2000
  -28.2275  -36.8658   19.0037 C   0  0  0  0  0  0  0  0  0  0  0  0
  -28.6291  -35.5338   19.0017 C   0  0  0  0  0  0  0  0  0  0  0  0
  -23.3737  -10.4815   22.1994 C   0  0  0  0  0  0  0  0  0  0  0  0
  -23.6666   -9.3361   20.0925 C   0  0  0  0  0  0  0  0  0  0  0  0
  -27.2859  -37.3074   19.9323 C   0  0  0  0  0  0  0  0  0  0  0  0
  -28.0900  -34.6429   19.9291 C   0  0  0  0  0  0  0  0  0  0  0  0
  -26.8684  -28.7063   19.0512 C   0  0  0  0  0  0  0  0  0  0  0  0
  -21.9953  -10.2850   22.1147 C   0  0  0  0  0  0  0  0  0  0  0  0
  -22.2883   -9.1395   20.0077 C   0  0  0  0  0  0  0  0  0  0  0  0
  -27.5696  -27.5462   19.3772 C   0  0  0  0  0  0  0  0  0  0  0  0
  -18.8810   -8.0192   19.4131 C   0  0  0  0  0  0  0  0  0  0  0  0
  -18.4274   -6.7555   19.0351 C   0  0  0  0  0  0  0  0  0  0  0  0
  -26.2627  -27.3301   21.3933 C   0  0  0  0  0  0  0  0  0  0  0  0
  -19.5294   -5.7860   20.9542 C   0  0  0  0  0  0  0  0  0  0  0  0
  -30.9287  -22.3266   17.6483 C   0  0  0  0  0  0  0  0  0  0  0  0
  -24.2093  -10.0071   21.1883 C   0  0  0  0  0  0  0  0  0  0  0  0
  -26.5792   -9.3552   21.8712 C   0  0  0  0  0  0  0  0  0  0  0  0
  -26.7278  -36.4193   20.8652 C   0  0  0  0  0  0  0  0  0  0  0  0
  -25.8649  -29.1939   19.9007 C   0  0  0  0  0  0  0  0  0  0  0  0
  -27.1410  -35.0733   20.8719 C   0  0  0  0  0  0  0  0  0  0  0  0
  -25.5486  -28.4952   21.0745 C   0  0  0  0  0  0  0  0  0  0  0  0
  -21.4526   -9.6140   21.0189 C   0  0  0  0  0  0  0  0  0  0  0  0
  -27.2688  -26.8595   20.5498 C   0  0  0  0  0  0  0  0  0  0  0  0
  -19.6589   -8.1664   20.5616 C   0  0  0  0  0  0  0  0  0  0  0  0
  -18.7516   -5.6389   19.8057 C   0  0  0  0  0  0  0  0  0  0  0  0
  -19.9830   -7.0498   21.3321 C   0  0  0  0  0  0  0  0  0  0  0  0
  -25.6331  -10.2104   21.2750 C   0  0  0  0  0  0  0  0  0  0  0  0
  -29.6600  -21.7828   19.4357 C   0  0  0  0  0  0  0  0  0  0  0  0
  -28.8082  -22.8098   19.1191 C   0  0  0  0  0  0  0  0  0  0  0  0
  -27.7816   -9.9939   21.6902 C   0  0  0  0  0  0  0  0  0  0  0  0
  -26.3881   -8.0960   22.5297 C   0  0  0  0  0  0  0  0  0  0  0  0
  -25.4390  -31.8679   21.5656 C   0  0  0  0  0  0  0  0  0  0  0  0
  -22.5259  -30.5714   22.1615 C   0  0  0  0  0  0  0  0  0  0  0  0
  -20.5922  -27.7678   22.3797 C   0  0  0  0  0  0  0  0  0  0  0  0
  -29.3310  -15.5312   21.1006 C   0  0  0  0  0  0  0  0  0  0  0  0
  -25.7484  -36.9535   21.8802 C   0  0  0  0  0  0  0  0  0  0  0  0
  -25.0995  -30.4319   19.5214 C   0  0  0  0  0  0  0  0  0  0  0  0
  -24.4662  -28.9658   22.0102 C   0  0  0  0  0  0  0  0  0  0  0  0
  -24.9473  -35.8627   22.5863 C   0  0  0  0  0  0  0  0  0  0  0  0
  -30.0173  -13.0191   18.7422 C   0  0  0  0  0  0  0  0  0  0  0  0
  -25.8676  -34.7347   23.0420 C   0  0  0  0  0  0  0  0  0  0  0  0
  -29.0541  -11.9176   19.1835 C   0  0  0  0  0  0  0  0  0  0  0  0
  -29.3799  -14.4070   18.8293 C   0  0  0  0  0  0  0  0  0  0  0  0
  -29.6689  -17.3023   19.3192 C   0  0  0  0  0  0  0  0  0  0  0  0
  -30.8377  -17.4573   21.4867 C   0  0  0  0  0  0  0  0  0  0  0  0
  -27.8399  -13.6186   20.5973 C   0  0  0  0  0  0  0  0  0  0  0  0
  -29.0522  -18.6794   19.5426 C   0  0  0  0  0  0  0  0  0  0  0  0
  -30.2213  -18.8208   21.7539 C   0  0  0  0  0  0  0  0  0  0  0  0
  -26.5608  -34.0710   21.8460 C   0  0  1  0  0  0  0  0  0  0  0  0
  -24.4490  -31.1218   20.7165 C   0  0  1  0  0  0  0  0  0  0  0  0
  -28.4720  -12.2183   20.5761 C   0  0  1  0  0  0  0  0  0  0  0  0
  -26.0622  -21.6304   18.8017 C   0  0  0  0  0  0  0  0  0  0  0  0
  -18.2590  -27.0215   22.9243 C   0  0  0  0  0  0  0  0  0  0  0  0
  -23.0928  -30.9749   25.1323 C   0  0  0  0  0  0  0  0  0  0  0  0
  -21.2210  -29.3896   25.6336 C   0  0  0  0  0  0  0  0  0  0  0  0
  -20.7560  -31.5257   24.4320 C   0  0  0  0  0  0  0  0  0  0  0  0
  -20.1989  -26.6344   19.6742 C   0  0  0  0  0  0  0  0  0  0  0  0
  -29.4232  -20.8973   20.6234 C   0  0  0  0  0  0  0  0  0  0  0  0
  -26.3435  -22.9874   19.3513 C   0  0  0  0  0  0  0  0  0  0  0  0
  -27.8246  -23.3645   21.3293 C   0  0  0  0  0  0  0  0  0  0  0  0
  -27.2561  -24.7411   21.6306 C   0  0  0  0  0  0  0  0  0  1  0  0
  -21.9583  -29.6594   23.2223 C   0  0  1  0  0  0  0  0  0  0  0  0
  -19.2171  -27.4467   21.8225 C   0  0  2  0  0  0  0  0  0  0  0  0
  -21.7788  -30.3793   24.5886 C   0  0  0  0  0  0  0  0  0  0  0  0
  -30.7502  -21.5148   18.7011 N   0  0  0  0  0  0  0  0  0  0  0  0
  -30.1271  -23.3486   17.2893 N   0  0  0  0  0  0  0  0  0  0  0  0
  -26.1868  -11.3087   20.7543 N   0  0  0  0  0  0  0  0  0  0  0  0
  -29.0390  -23.5919   18.0491 N   0  0  0  0  0  0  0  0  0  0  0  0
  -27.4938  -11.1480   21.0228 N   0  0  0  0  0  0  0  0  0  0  0  0
  -23.7505  -30.1848   21.5987 N   0  0  0  0  0  0  0  0  0  0  0  0
  -28.8029  -14.6323   20.1619 N   0  0  0  0  0  0  0  0  0  0  0  0
  -29.9953  -16.6598   20.5980 N   0  0  0  0  0  0  0  0  0  0  0  0
  -29.0463   -9.6753   22.0384 N   0  0  0  0  0  0  0  0  0  0  0  0
  -25.0872   -7.5840   22.6281 N   0  0  0  0  0  0  0  0  0  0  0  0
  -25.6497  -33.1743   21.1676 N   0  0  0  0  0  0  0  0  0  0  0  0
  -20.7251  -29.1091   22.6702 N   0  0  0  0  0  0  0  0  0  0  0  0
  -27.6745  -23.0551   19.9212 N   0  0  3  0  0  0  0  0  0  0  0  0
  -29.9513  -19.5029   20.4331 N   0  3  0  0  0  0  0  0  0  0  0  0
  -19.3071  -26.3423   20.8258 N   0  3  0  0  0  0  0  0  0  0  0  0
  -27.3408   -7.4521   23.0310 O   0  0  0  0  0  0  0  0  0  0  0  0
  -25.9711  -31.3008   22.5127 O   0  0  0  0  0  0  0  0  0  0  0  0
  -21.9021  -31.5855   21.8390 O   0  0  0  0  0  0  0  0  0  0  0  0
  -21.4603  -26.9135   22.5445 O   0  0  0  0  0  0  0  0  0  0  0  0
  -29.2151  -15.3369   22.3173 O   0  0  0  0  0  0  0  0  0  0  0  0
  -20.1077   -9.4218   20.9359 O   0  0  0  0  0  0  0  0  0  0  0  0
  -27.9568  -25.7193   20.8730 O   0  0  0  0  0  0  0  0  0  1  0  0
  -18.3147   -4.4256   19.4434 F   0  0  0  0  0  0  0  0  0  0  0  0
  -20.7290   -7.1850   22.4371 F   0  0  0  0  0  0  0  0  0  0  0  0
  1  2  1  0  0  0  0
  1  5  2  0  0  0  0
  2  6  2  0  0  0  0
  3  8  2  0  0  0  0
  3 16  1  0  0  0  0
  4  9  1  0  0  0  0
  4 16  2  0  0  0  0
  5 18  1  0  0  0  0
  6 20  1  0  0  0  0
  7 10  2  0  0  0  0
  7 19  1  0  0  0  0
  8 22  1  0  0  0  0
  9 22  2  0  0  0  0
 10 23  1  0  0  0  0
 11 12  2  0  0  0  0
 11 24  1  0  0  0  0
 12 25  1  0  0  0  0
 13 21  1  0  0  0  0
 13 23  2  0  0  0  0
 14 25  2  0  0  0  0
 14 26  1  0  0  0  0
 15 65  2  0  0  0  0
 15 66  1  0  0  0  0
 16 27  1  0  0  0  0
 17 27  1  0  0  0  0
 17 30  2  0  0  0  0
 17 31  1  0  0  0  0
 18 20  2  0  0  0  0
 18 36  1  0  0  0  0
 19 21  2  0  0  0  0
 19 37  1  0  0  0  0
 20 49  1  0  0  0  0
 21 38  1  0  0  0  0
 22 85  1  0  0  0  0
 23 86  1  0  0  0  0
 24 26  2  0  0  0  0
 24 85  1  0  0  0  0
 25 87  1  0  0  0  0
 26 88  1  0  0  0  0
 27 67  2  0  0  0  0
 28 29  2  0  0  0  0
 28 58  1  0  0  0  0
 28 65  1  0  0  0  0
 29 68  1  0  0  0  0
 29 77  1  0  0  0  0
 30 69  1  0  0  0  0
 30 73  1  0  0  0  0
 31 74  1  0  0  0  0
 31 80  2  0  0  0  0
 32 50  1  0  0  0  0
 32 75  1  0  0  0  0
 32 81  2  0  0  0  0
 33 62  1  0  0  0  0
 33 70  1  0  0  0  0
 33 82  2  0  0  0  0
 34 63  1  0  0  0  0
 34 76  1  0  0  0  0
 34 83  2  0  0  0  0
 35 71  1  0  0  0  0
 35 72  1  0  0  0  0
 35 84  2  0  0  0  0
 36 39  1  0  0  0  0
 37 50  1  0  0  0  0
 38 70  1  0  0  0  0
 39 41  1  0  0  0  0
 40 42  1  0  0  0  0
 40 43  1  0  0  0  0
 41 49  1  0  0  0  0
 42 51  1  0  0  0  0
 43 71  1  0  0  0  0
 44 47  1  0  0  0  0
 44 72  1  0  0  0  0
 45 48  1  0  0  0  0
 45 72  1  0  0  0  0
 46 51  1  0  0  0  0
 46 71  1  0  0  0  0
 47 78  1  0  0  0  0
 48 78  1  0  0  0  0
 49 75  1  0  0  0  0
 50 70  1  0  0  0  0
 51 69  1  0  0  0  0
 52 59  1  0  0  0  0
 53 63  1  0  0  0  0
 54 64  1  0  0  0  0
 55 64  1  0  0  0  0
 56 64  1  0  0  0  0
 57 79  1  0  0  0  0
 58 78  1  0  0  0  0
 59 77  1  0  0  0  0
 60 61  1  0  0  0  0
 60 77  1  0  0  0  0
 61 86  1  0  0  0  0
 62 64  1  0  0  0  0
 62 76  1  0  0  0  0
 63 79  1  0  0  0  0
 66 68  2  0  0  0  0
 67 69  1  0  0  0  0
M  CHG  2  78   1  79   1
M  ISO  4  35 100  61 101  72 100  86 101
M  END
> <Batch ID>
0198

> <Smiles>
CCN(C[101CH2:1][101O:1]c1ccc2c(c1)CN(C(=O)C(NC(=O)C(C)NC)C(C)(C)C)C(C(=O)NC1CCCc3ccccc31)C2)c1nncnc1CN1CC[100N:0]([100C:0](=O)N2CCCC(n3nc(-c4ccc(Oc5ccc(F)cc5F)cc4)c(C(N)=O)c3N)C2)CC1

> <Shape>
0.306

> <Color>
0.088

> <Negative vol penalty>
0.000

$$$$

  -OEChem-04052323483D

 86 96  0     1  0  0  0  0  0999 V2000
  -22.9982  -10.9540   18.8771 C   0  0  0  0  0  0  0  0  0  0  0  0
  -22.2964  -12.1073   19.2128 C   0  0  0  0  0  0  0  0  0  0  0  0
  -26.6378  -28.9904   17.2985 C   0  0  0  0  0  0  0  0  0  0  0  0
  -28.6166  -28.3744   18.5403 C   0  0  0  0  0  0  0  0  0  0  0  0
  -24.3268  -10.8075   19.2738 C   0  0  0  0  0  0  0  0  0  0  0  0
  -22.9224  -13.1144   19.9464 C   0  0  0  0  0  0  0  0  0  0  0  0
  -22.0217  -19.1498   19.4274 C   0  0  0  0  0  0  0  0  0  0  0  0
  -27.4380  -29.5174   16.2848 C   0  0  0  0  0  0  0  0  0  0  0  0
  -29.4168  -28.9014   17.5266 C   0  0  0  0  0  0  0  0  0  0  0  0
  -21.2476  -20.0490   20.1595 C   0  0  0  0  0  0  0  0  0  0  0  0
  -28.9628  -30.7003   13.2041 C   0  0  0  0  0  0  0  0  0  0  0  0
  -28.6265  -30.3920   11.8860 C   0  0  0  0  0  0  0  0  0  0  0  0
  -23.1829  -20.6347   21.4750 C   0  0  0  0  0  0  0  0  0  0  0  0
  -28.9158  -28.0411   12.3622 C   0  0  0  0  0  0  0  0  0  0  0  0
  -27.2271  -28.4190   18.4263 C   0  0  0  0  0  0  0  0  0  0  0  0
  -25.9233  -26.5551   19.5811 C   0  0  0  0  0  0  0  0  0  0  0  0
  -24.9724  -11.8175   20.0043 C   0  0  0  0  0  0  0  0  0  0  0  0
  -23.3820  -18.9780   19.7214 C   0  0  0  0  0  0  0  0  0  0  0  0
  -24.2605  -12.9807   20.3544 C   0  0  0  0  0  0  0  0  0  0  0  0
  -23.9727  -19.7346   20.7436 C   0  0  0  0  0  0  0  0  0  0  0  0
  -28.8275  -29.4729   16.3988 C   0  0  0  0  0  0  0  0  0  0  0  0
  -21.8274  -20.7895   21.1853 C   0  0  0  0  0  0  0  0  0  0  0  0
  -29.2757  -29.6791   14.1013 C   0  0  0  0  0  0  0  0  0  0  0  0
  -28.6029  -29.0624   11.4650 C   0  0  0  0  0  0  0  0  0  0  0  0
  -29.2521  -28.3495   13.6803 C   0  0  0  0  0  0  0  0  0  0  0  0
  -26.4011  -27.8749   19.4741 C   0  0  0  0  0  0  0  0  0  0  0  0
  -25.1923  -26.5478   20.7439 C   0  0  0  0  0  0  0  0  0  0  0  0
  -19.4805  -25.1195   23.6827 C   0  0  0  0  0  0  0  0  0  0  0  0
  -19.4656  -23.7072   25.4269 C   0  0  0  0  0  0  0  0  0  0  0  0
  -20.7516  -23.2702   23.6402 C   0  0  0  0  0  0  0  0  0  0  0  0
  -26.1224  -25.4357   18.7076 C   0  0  0  0  0  0  0  0  0  0  0  0
  -25.1749  -16.5438   20.7032 C   0  0  0  0  0  0  0  0  0  0  0  0
  -27.6006  -18.6426   20.2203 C   0  0  0  0  0  0  0  0  0  0  0  0
  -28.6179  -21.8922   19.9926 C   0  0  0  0  0  0  0  0  0  0  0  0
  -21.4772  -28.9048   24.1268 C   0  0  0  0  0  0  0  0  0  0  0  0
  -26.3952  -11.5935   20.4515 C   0  0  0  0  0  0  0  0  0  0  0  0
  -24.2095  -18.0236   18.9048 C   0  0  0  0  0  0  0  0  0  0  0  0
  -25.4335  -19.6021   21.0854 C   0  0  0  0  0  0  0  0  0  0  0  0
  -27.0996  -12.8700   20.9042 C   0  0  0  0  0  0  0  0  0  0  0  0
  -24.8253  -29.9428   24.4515 C   0  0  0  0  0  0  0  0  0  0  0  0
  -26.2004  -13.6731   21.8388 C   0  0  0  0  0  0  0  0  0  0  0  0
  -25.5000  -29.4255   23.1836 C   0  0  0  0  0  0  0  0  0  0  0  0
  -23.4162  -30.4355   24.1507 C   0  0  0  0  0  0  0  0  0  0  0  0
  -20.9796  -27.3988   22.1052 C   0  0  0  0  0  0  0  0  0  0  0  0
  -23.1964  -28.8298   22.2706 C   0  0  0  0  0  0  0  0  0  0  0  0
  -18.7317  -27.8963   21.0198 C   0  0  0  0  0  0  0  0  0  0  0  0
  -18.3742  -28.7936   23.3649 C   0  0  0  0  0  0  0  0  0  0  0  0
  -24.9125  -14.1062   21.1279 C   0  0  1  0  0  0  0  0  0  0  0  0
  -18.9889  -26.3958   23.0167 C   0  0  2  0  0  0  0  0  0  0  0  0
  -25.4671  -17.5528   19.6288 C   0  0  1  0  0  0  0  0  0  0  0  0
  -19.6217  -26.8191   21.6677 C   0  0  2  0  0  0  0  0  0  0  0  0
  -24.6387  -28.3417   22.5171 C   0  0  1  0  0  0  0  0  0  0  0  0
  -19.3210  -27.6709   23.8250 C   0  0  1  0  0  0  0  0  0  0  0  0
  -18.9668  -23.3331   26.7810 C   0  0  0  0  0  0  0  0  0  0  0  0
  -30.1639  -23.8243   19.5752 C   0  0  0  0  0  0  0  0  0  0  0  0
  -28.4923  -18.0780   23.0832 C   0  0  0  0  0  0  0  0  0  0  0  0
  -29.9017  -20.1446   22.9778 C   0  0  0  0  0  0  0  0  0  0  0  0
  -30.3560  -18.2466   21.4241 C   0  0  0  0  0  0  0  0  0  0  0  0
  -27.9393  -21.9633   17.1128 C   0  0  0  0  0  0  0  0  0  0  0  0
  -21.7323  -22.3934   22.9387 C   0  0  0  0  0  0  0  0  0  1  0  0
  -28.3029  -19.6777   21.0655 C   0  0  1  0  0  0  0  0  0  0  0  0
  -29.4808  -22.6082   18.9692 C   0  0  2  0  0  0  0  0  0  0  0  0
  -29.2352  -19.0380   22.1327 C   0  0  0  0  0  0  0  0  0  0  0  0
  -26.0067  -28.6499   20.4879 N   0  0  0  0  0  0  0  0  0  0  0  0
  -18.9879  -24.8470   24.9020 N   0  0  0  0  0  0  0  0  0  0  0  0
  -20.3630  -24.3799   22.9917 N   0  0  0  0  0  0  0  0  0  0  0  0
  -20.3468  -22.8700   24.8563 N   0  0  0  0  0  0  0  0  0  0  0  0
  -25.2732  -27.8145   21.2430 N   0  0  0  0  0  0  0  0  0  0  0  0
  -26.1992  -18.6513   20.2625 N   0  0  0  0  0  0  0  0  0  0  0  0
  -22.6119  -29.4107   23.4849 N   0  0  0  0  0  0  0  0  0  0  0  0
  -20.7108  -27.9683   23.4338 N   0  0  0  0  0  0  0  0  0  0  0  0
  -24.4945  -25.5815   21.3778 N   0  0  0  0  0  0  0  0  0  0  0  0
  -26.9006  -25.6170   17.5561 N   0  0  0  0  0  0  0  0  0  0  0  0
  -25.1697  -15.2351   20.2596 N   0  0  0  0  0  0  0  0  0  0  0  0
  -28.9846  -20.5706   20.1346 N   0  0  0  0  0  0  0  0  0  0  0  0
  -18.6129  -29.0957   21.9141 N   0  3  0  0  0  0  0  0  0  0  0  0
  -28.6505  -23.0608   17.8174 N   0  3  0  0  0  0  0  0  0  0  0  0
  -25.6115  -24.3124   18.9328 O   0  0  0  0  0  0  0  0  0  0  0  0
  -24.9707  -16.9243   21.8500 O   0  0  0  0  0  0  0  0  0  0  0  0
  -28.2706  -17.8599   19.5420 O   0  0  0  0  0  0  0  0  0  0  0  0
  -27.7119  -22.4505   20.6073 O   0  0  0  0  0  0  0  0  0  0  0  0
  -21.1407  -29.3078   25.2476 O   0  0  0  0  0  0  0  0  0  0  0  0
  -29.6086  -29.9868   15.4098 O   0  0  0  0  0  0  0  0  0  0  0  0
  -21.0688  -21.6734   21.9067 O   0  0  0  0  0  0  0  0  0  1  0  0
  -28.2784  -28.7664   10.1996 F   0  0  0  0  0  0  0  0  0  0  0  0
  -29.5506  -27.3640   14.5379 F   0  0  0  0  0  0  0  0  0  0  0  0
  1  2  1  0  0  0  0
  1  5  2  0  0  0  0
  2  6  2  0  0  0  0
  3  8  2  0  0  0  0
  3 15  1  0  0  0  0
  4  9  1  0  0  0  0
  4 15  2  0  0  0  0
  5 17  1  0  0  0  0
  6 19  1  0  0  0  0
  7 10  2  0  0  0  0
  7 18  1  0  0  0  0
  8 21  1  0  0  0  0
  9 21  2  0  0  0  0
 10 22  1  0  0  0  0
 11 12  2  0  0  0  0
 11 23  1  0  0  0  0
 12 24  1  0  0  0  0
 13 20  1  0  0  0  0
 13 22  2  0  0  0  0
 14 24  2  0  0  0  0
 14 25  1  0  0  0  0
 15 26  1  0  0  0  0
 16 26  1  0  0  0  0
 16 27  2  0  0  0  0
 16 31  1  0  0  0  0
 17 19  2  0  0  0  0
 17 36  1  0  0  0  0
 18 20  2  0  0  0  0
 18 37  1  0  0  0  0
 19 48  1  0  0  0  0
 20 38  1  0  0  0  0
 21 83  1  0  0  0  0
 22 84  1  0  0  0  0
 23 25  2  0  0  0  0
 23 83  1  0  0  0  0
 24 85  1  0  0  0  0
 25 86  1  0  0  0  0
 26 64  2  0  0  0  0
 27 68  1  0  0  0  0
 27 72  1  0  0  0  0
 28 49  1  0  0  0  0
 28 65  2  0  0  0  0
 28 66  1  0  0  0  0
 29 54  1  0  0  0  0
 29 65  1  0  0  0  0
 29 67  2  0  0  0  0
 30 60  1  0  0  0  0
 30 66  2  0  0  0  0
 30 67  1  0  0  0  0
 31 73  1  0  0  0  0
 31 78  2  0  0  0  0
 32 50  1  0  0  0  0
 32 74  1  0  0  0  0
 32 79  2  0  0  0  0
 33 61  1  0  0  0  0
 33 69  1  0  0  0  0
 33 80  2  0  0  0  0
 34 62  1  0  0  0  0
 34 75  1  0  0  0  0
 34 81  2  0  0  0  0
 35 70  1  0  0  0  0
 35 71  1  0  0  0  0
 35 82  2  0  0  0  0
 36 39  1  0  0  0  0
 37 50  1  0  0  0  0
 38 69  1  0  0  0  0
 39 41  1  0  0  0  0
 40 42  1  0  0  0  0
 40 43  1  0  0  0  0
 41 48  1  0  0  0  0
 42 52  1  0  0  0  0
 43 70  1  0  0  0  0
 44 51  1  0  0  0  0
 44 71  1  0  0  0  0
 45 52  1  0  0  0  0
 45 70  1  0  0  0  0
 46 51  1  0  0  0  0
 46 76  1  0  0  0  0
 47 53  1  0  0  0  0
 47 76  1  0  0  0  0
 48 74  1  0  0  0  0
 49 51  1  0  0  0  0
 49 53  1  0  0  0  0
 50 69  1  0  0  0  0
 52 68  1  0  0  0  0
 53 71  1  0  0  0  0
 55 62  1  0  0  0  0
 56 63  1  0  0  0  0
 57 63  1  0  0  0  0
 58 63  1  0  0  0  0
 59 77  1  0  0  0  0
 60 84  1  0  0  0  0
 61 63  1  0  0  0  0
 61 75  1  0  0  0  0
 62 77  1  0  0  0  0
 64 68  1  0  0  0  0
M  CHG  2  76   1  77   1
M  ISO  4  35 100  60 101  71 100  84 101
M  END
> <Batch ID>
0198

> <Smiles>
CNC(C)C(=O)NC(C(=O)N1Cc2cc([101O:1][101CH2:1]c3nc(C)nc(C4C5CNCC4[100N:0]([100C:0](=O)N4CCCC(n6nc(-c7ccc(Oc8ccc(F)cc8F)cc7)c(C(N)=O)c6N)C4)C5)n3)ccc2CC1C(=O)NC1CCCc2ccccc21)C(C)(C)C

> <Shape>
0.199

> <Color>
0.077

> <Negative vol penalty>
0.000

$$$$

  -OEChem-04052323483D

 87 96  0     1  0  0  0  0  0999 V2000
  -21.3079  -20.6555   33.7239 C   0  0  0  0  0  0  0  0  0  0  0  0
  -22.5315  -20.0247   33.9251 C   0  0  0  0  0  0  0  0  0  0  0  0
  -23.1898   -9.8196   19.9315 C   0  0  0  0  0  0  0  0  0  0  0  0
  -23.5689   -9.9995   22.3108 C   0  0  0  0  0  0  0  0  0  0  0  0
  -20.5118  -20.2991   32.6362 C   0  0  0  0  0  0  0  0  0  0  0  0
  -22.9591  -19.0364   33.0392 C   0  0  0  0  0  0  0  0  0  0  0  0
  -28.7189  -17.8934   31.3000 C   0  0  0  0  0  0  0  0  0  0  0  0
  -22.4234   -8.6731   20.1403 C   0  0  0  0  0  0  0  0  0  0  0  0
  -22.8024   -8.8529   22.5196 C   0  0  0  0  0  0  0  0  0  0  0  0
  -29.6567  -16.9519   31.7217 C   0  0  0  0  0  0  0  0  0  0  0  0
  -23.2028   -5.5062   22.2547 C   0  0  0  0  0  0  0  0  0  0  0  0
  -23.7012   -4.5446   23.1336 C   0  0  0  0  0  0  0  0  0  0  0  0
  -29.0127  -15.5045   29.9025 C   0  0  0  0  0  0  0  0  0  0  0  0
  -21.7452   -4.8047   24.5276 C   0  0  0  0  0  0  0  0  0  0  0  0
  -23.7626  -10.4828   21.0168 C   0  0  0  0  0  0  0  0  0  0  0  0
  -24.1017  -12.9995   20.7734 C   0  0  0  0  0  0  0  0  0  0  0  0
  -20.9343  -19.3128   31.7311 C   0  0  0  0  0  0  0  0  0  0  0  0
  -27.9120  -17.6424   30.1809 C   0  0  0  0  0  0  0  0  0  0  0  0
  -22.1673  -18.6656   31.9391 C   0  0  0  0  0  0  0  0  0  0  0  0
  -28.0672  -16.4455   29.4671 C   0  0  0  0  0  0  0  0  0  0  0  0
  -22.2296   -8.1897   21.4343 C   0  0  0  0  0  0  0  0  0  0  0  0
  -29.8017  -15.7560   31.0246 C   0  0  0  0  0  0  0  0  0  0  0  0
  -21.9755   -6.1172   22.5123 C   0  0  0  0  0  0  0  0  0  0  0  0
  -22.9725   -4.1938   24.2700 C   0  0  0  0  0  0  0  0  0  0  0  0
  -21.2467   -5.7664   23.6487 C   0  0  0  0  0  0  0  0  0  0  0  0
  -24.5549  -11.6669   20.8018 C   0  0  0  0  0  0  0  0  0  0  0  0
  -25.2330  -13.7419   20.5379 C   0  0  0  0  0  0  0  0  0  0  0  0
  -36.9704  -11.7720   28.3053 C   0  0  0  0  0  0  0  0  0  0  0  0
  -36.1035  -11.3834   27.1820 C   0  0  0  0  0  0  0  0  0  0  0  0
  -34.9064  -11.9842   29.5760 C   0  0  0  0  0  0  0  0  0  0  0  0
  -36.3180  -12.0506   29.4408 C   0  0  0  0  0  0  0  0  0  0  0  0
  -34.7496  -11.3290   27.3443 C   0  0  0  0  0  0  0  0  0  0  0  0
  -35.1580  -12.3663   30.8360 C   0  0  0  0  0  0  0  0  0  0  0  0
  -22.7767  -13.5196   20.9448 C   0  0  0  0  0  0  0  0  0  0  0  0
  -24.7854  -17.3444   29.6913 C   0  0  0  0  0  0  0  0  0  0  0  0
  -25.6810  -17.2069   26.5766 C   0  0  0  0  0  0  0  0  0  0  0  0
  -28.1221  -16.5248   24.2913 C   0  0  0  0  0  0  0  0  0  0  0  0
  -31.0479  -12.7506   21.5651 C   0  0  0  0  0  0  0  0  0  0  0  0
  -20.0178  -18.9280   30.5968 C   0  0  0  0  0  0  0  0  0  0  0  0
  -26.9237  -18.6797   29.7231 C   0  0  0  0  0  0  0  0  0  0  0  0
  -27.2395  -16.1367   28.2473 C   0  0  0  0  0  0  0  0  0  0  0  0
  -20.7139  -18.1352   29.4935 C   0  0  0  0  0  0  0  0  0  0  0  0
  -29.5197  -13.4690   18.4306 C   0  0  0  0  0  0  0  0  0  0  0  0
  -21.5730  -17.0267   30.0934 C   0  0  0  0  0  0  0  0  0  0  0  0
  -28.0331  -13.2088   18.6803 C   0  0  0  0  0  0  0  0  0  0  0  0
  -30.4010  -12.4792   19.1893 C   0  0  0  0  0  0  0  0  0  0  0  0
  -28.6480  -12.1365   20.8872 C   0  0  0  0  0  0  0  0  0  0  0  0
  -22.6770  -17.6063   30.9861 C   0  0  1  0  0  0  0  0  0  0  0  0
  -25.7969  -18.0981   28.8748 C   0  0  1  0  0  0  0  0  0  0  0  0
  -27.7205  -13.1446   20.1874 C   0  0  2  0  0  0  0  0  0  0  0  0
  -29.2362  -16.3799   22.0474 C   0  0  0  0  0  0  0  0  0  0  0  0
  -24.1120  -14.5981   26.3705 C   0  0  0  0  0  0  0  0  0  0  0  0
  -25.3263  -14.1179   24.2343 C   0  0  0  0  0  0  0  0  0  0  0  0
  -23.8573  -16.1266   24.4074 C   0  0  0  0  0  0  0  0  0  0  0  0
  -29.1745  -19.2826   24.5064 C   0  0  0  0  0  0  0  0  0  0  0  0
  -33.8361  -10.9370   26.2220 C   0  0  0  0  0  0  0  0  0  0  0  0
  -34.2929  -12.6405   32.0113 C   0  0  0  0  0  0  0  0  0  0  0  0
  -31.5389  -13.0012   23.9848 C   0  0  0  0  0  0  0  0  0  0  0  0
  -32.2239  -11.7470   24.4947 C   0  0  0  0  0  0  0  0  0  0  0  0
  -32.4063  -13.9980   32.9260 C   0  0  0  0  0  0  0  0  0  0  0  0
  -31.4930  -15.1593   32.5866 C   0  0  0  0  0  0  0  0  0  1  0  0
  -26.0731  -16.1028   25.6247 C   0  0  1  0  0  0  0  0  0  0  0  0
  -28.6206  -17.3033   23.0872 C   0  0  2  0  0  0  0  0  0  0  0  0
  -24.8566  -15.2410   25.1833 C   0  0  0  0  0  0  0  0  0  0  0  0
  -25.8714  -11.5656   20.6002 N   0  0  0  0  0  0  0  0  0  0  0  0
  -26.2551  -12.8440   20.4428 N   0  0  0  0  0  0  0  0  0  0  0  0
  -34.1401  -11.6397   28.5794 N   0  0  0  0  0  0  0  0  0  0  0  0
  -26.2825  -17.1798   27.8429 N   0  0  0  0  0  0  0  0  0  0  0  0
  -30.0549  -12.4679   20.6127 N   0  0  0  0  0  0  0  0  0  0  0  0
  -25.4432  -15.0688   20.4049 N   0  0  0  0  0  0  0  0  0  0  0  0
  -21.7299  -12.6175   21.1790 N   0  0  0  0  0  0  0  0  0  0  0  0
  -23.7577  -18.1294   30.1782 N   0  0  0  0  0  0  0  0  0  0  0  0
  -26.7810  -16.7459   24.5230 N   0  0  0  0  0  0  0  0  0  0  0  0
  -30.6341  -12.7251   22.8913 N   0  0  0  0  0  0  0  0  0  0  0  0
  -29.6510  -18.2964   23.5027 N   0  3  0  0  0  0  0  0  0  0  0  0
  -33.1008  -12.0861   25.6511 N   0  3  0  0  0  0  0  0  0  0  0  0
  -33.3224  -13.7454   31.7853 N   0  3  0  0  0  0  0  0  0  0  0  0
  -22.5257  -14.7467   20.8755 O   0  0  0  0  0  0  0  0  0  0  0  0
  -24.9262  -16.1396   29.8653 O   0  0  0  0  0  0  0  0  0  0  0  0
  -24.8764  -18.0660   26.2077 O   0  0  0  0  0  0  0  0  0  0  0  0
  -28.8489  -15.7909   24.9574 O   0  0  0  0  0  0  0  0  0  0  0  0
  -32.2155  -13.0121   21.2561 O   0  0  0  0  0  0  0  0  0  0  0  0
  -36.4422  -12.4111   30.6595 O   0  0  0  0  0  0  0  0  0  0  0  0
  -21.4816   -7.0711   21.6384 O   0  0  0  0  0  0  0  0  0  0  0  0
  -30.7159  -14.8350   31.4345 O   0  0  0  0  0  0  0  0  0  1  0  0
  -23.4505   -3.2693   25.1131 F   0  0  0  0  0  0  0  0  0  0  0  0
  -20.0665   -6.3490   23.9009 F   0  0  0  0  0  0  0  0  0  0  0  0
  1  2  1  0  0  0  0
  1  5  2  0  0  0  0
  2  6  2  0  0  0  0
  3  8  2  0  0  0  0
  3 15  1  0  0  0  0
  4  9  1  0  0  0  0
  4 15  2  0  0  0  0
  5 17  1  0  0  0  0
  6 19  1  0  0  0  0
  7 10  2  0  0  0  0
  7 18  1  0  0  0  0
  8 21  1  0  0  0  0
  9 21  2  0  0  0  0
 10 22  1  0  0  0  0
 11 12  2  0  0  0  0
 11 23  1  0  0  0  0
 12 24  1  0  0  0  0
 13 20  1  0  0  0  0
 13 22  2  0  0  0  0
 14 24  2  0  0  0  0
 14 25  1  0  0  0  0
 15 26  1  0  0  0  0
 16 26  1  0  0  0  0
 16 27  2  0  0  0  0
 16 34  1  0  0  0  0
 17 19  2  0  0  0  0
 17 39  1  0  0  0  0
 18 20  2  0  0  0  0
 18 40  1  0  0  0  0
 19 48  1  0  0  0  0
 20 41  1  0  0  0  0
 21 84  1  0  0  0  0
 22 85  1  0  0  0  0
 23 25  2  0  0  0  0
 23 84  1  0  0  0  0
 24 86  1  0  0  0  0
 25 87  1  0  0  0  0
 26 65  2  0  0  0  0
 27 66  1  0  0  0  0
 27 70  1  0  0  0  0
 28 29  1  0  0  0  0
 28 31  2  0  0  0  0
 29 32  2  0  0  0  0
 30 31  1  0  0  0  0
 30 33  2  0  0  0  0
 30 67  1  0  0  0  0
 31 83  1  0  0  0  0
 32 56  1  0  0  0  0
 32 67  1  0  0  0  0
 33 57  1  0  0  0  0
 33 83  1  0  0  0  0
 34 71  1  0  0  0  0
 34 78  2  0  0  0  0
 35 49  1  0  0  0  0
 35 72  1  0  0  0  0
 35 79  2  0  0  0  0
 36 62  1  0  0  0  0
 36 68  1  0  0  0  0
 36 80  2  0  0  0  0
 37 63  1  0  0  0  0
 37 73  1  0  0  0  0
 37 81  2  0  0  0  0
 38 69  1  0  0  0  0
 38 74  1  0  0  0  0
 38 82  2  0  0  0  0
 39 42  1  0  0  0  0
 40 49  1  0  0  0  0
 41 68  1  0  0  0  0
 42 44  1  0  0  0  0
 43 45  1  0  0  0  0
 43 46  1  0  0  0  0
 44 48  1  0  0  0  0
 45 50  1  0  0  0  0
 46 69  1  0  0  0  0
 47 50  1  0  0  0  0
 47 69  1  0  0  0  0
 48 72  1  0  0  0  0
 49 68  1  0  0  0  0
 50 66  1  0  0  0  0
 51 63  1  0  0  0  0
 52 64  1  0  0  0  0
 53 64  1  0  0  0  0
 54 64  1  0  0  0  0
 55 75  1  0  0  0  0
 56 76  1  0  0  0  0
 57 77  1  0  0  0  0
 58 59  1  0  0  0  0
 58 74  1  0  0  0  0
 59 76  1  0  0  0  0
 60 61  1  0  0  0  0
 60 77  1  0  0  0  0
 61 85  1  0  0  0  0
 62 64  1  0  0  0  0
 62 73  1  0  0  0  0
 63 75  1  0  0  0  0
 65 66  1  0  0  0  0
M  CHG  3  75   1  76   1  77   1
M  ISO  4  38 100  61 101  74 100  85 101
M  END
> <Batch ID>
0198

> <Smiles>
CNC(C)C(=O)NC(C(=O)N1Cc2cc([101O:1][101CH2:1]CNCC3Oc4ccc(CNCC[100NH:0][100C:0](=O)N5CCCC(n6nc(-c7ccc(Oc8ccc(F)cc8F)cc7)c(C(N)=O)c6N)C5)nc43)ccc2CC1C(=O)NC1CCCc2ccccc21)C(C)(C)C

> <Shape>
0.146

> <Color>
0.168

> <Negative vol penalty>
0.000

$$$$

  -OEChem-04052323483D

 86 96  0     1  0  0  0  0  0999 V2000
  -28.0667  -37.5251   21.2857 C   0  0  0  0  0  0  0  0  0  0  0  0
  -28.5107  -36.2790   20.8550 C   0  0  0  0  0  0  0  0  0  0  0  0
  -24.0881   -9.8106   19.6758 C   0  0  0  0  0  0  0  0  0  0  0  0
  -24.4403   -9.7187   22.0643 C   0  0  0  0  0  0  0  0  0  0  0  0
  -27.1669  -37.6146   22.3470 C   0  0  0  0  0  0  0  0  0  0  0  0
  -28.0561  -35.1217   21.4861 C   0  0  0  0  0  0  0  0  0  0  0  0
  -26.9800  -29.6863   18.8776 C   0  0  0  0  0  0  0  0  0  0  0  0
  -23.7045   -8.4696   19.6807 C   0  0  0  0  0  0  0  0  0  0  0  0
  -24.0566   -8.3776   22.0692 C   0  0  0  0  0  0  0  0  0  0  0  0
  -27.7365  -28.5179   18.7979 C   0  0  0  0  0  0  0  0  0  0  0  0
  -21.1765   -6.6122   21.9751 C   0  0  0  0  0  0  0  0  0  0  0  0
  -20.2949   -6.1956   22.9724 C   0  0  0  0  0  0  0  0  0  0  0  0
  -26.5573  -27.6313   20.7065 C   0  0  0  0  0  0  0  0  0  0  0  0
  -21.9395   -4.6133   23.7654 C   0  0  0  0  0  0  0  0  0  0  0  0
  -25.0407  -22.2203   18.9442 C   0  0  0  0  0  0  0  0  0  0  0  0
  -24.4560  -10.4352   20.8676 C   0  0  0  0  0  0  0  0  0  0  0  0
  -24.0209  -12.9436   21.0293 C   0  0  0  0  0  0  0  0  0  0  0  0
  -26.6936  -36.4573   22.9852 C   0  0  0  0  0  0  0  0  0  0  0  0
  -26.0123  -29.8406   19.8808 C   0  0  0  0  0  0  0  0  0  0  0  0
  -27.1502  -35.1958   22.5578 C   0  0  0  0  0  0  0  0  0  0  0  0
  -25.7880  -28.8016   20.7952 C   0  0  0  0  0  0  0  0  0  0  0  0
  -23.6887   -7.7531   20.8774 C   0  0  0  0  0  0  0  0  0  0  0  0
  -27.5272  -27.4914   19.7142 C   0  0  0  0  0  0  0  0  0  0  0  0
  -22.4397   -6.0293   21.8728 C   0  0  0  0  0  0  0  0  0  0  0  0
  -20.6764   -5.1962   23.8676 C   0  0  0  0  0  0  0  0  0  0  0  0
  -22.8212   -5.0299   22.7680 C   0  0  0  0  0  0  0  0  0  0  0  0
  -24.8530  -11.8203   20.8631 C   0  0  0  0  0  0  0  0  0  0  0  0
  -24.2149  -21.1408   19.3110 C   0  0  0  0  0  0  0  0  0  0  0  0
  -26.3020  -21.6807   18.8779 C   0  0  0  0  0  0  0  0  0  0  0  0
  -24.8731  -14.0175   20.9458 C   0  0  0  0  0  0  0  0  0  0  0  0
  -22.6043  -13.0103   21.2403 C   0  0  0  0  0  0  0  0  0  0  0  0
  -25.5972  -31.8525   22.3064 C   0  0  0  0  0  0  0  0  0  0  0  0
  -22.7678  -30.2946   22.6056 C   0  0  0  0  0  0  0  0  0  0  0  0
  -20.9428  -27.4674   22.0368 C   0  0  0  0  0  0  0  0  0  0  0  0
  -29.0949  -16.6184   18.3465 C   0  0  0  0  0  0  0  0  0  0  0  0
  -25.7582  -36.6065   24.1588 C   0  0  0  0  0  0  0  0  0  0  0  0
  -25.1861  -31.0962   19.9368 C   0  0  0  0  0  0  0  0  0  0  0  0
  -24.7473  -28.9095   21.8786 C   0  0  0  0  0  0  0  0  0  0  0  0
  -25.0357  -35.3140   24.5300 C   0  0  0  0  0  0  0  0  0  0  0  0
  -29.9265  -14.2372   20.9303 C   0  0  0  0  0  0  0  0  0  0  0  0
  -26.0174  -34.1473   24.5735 C   0  0  0  0  0  0  0  0  0  0  0  0
  -22.1674  -22.2691   20.4969 C   0  0  0  0  0  0  0  0  0  0  0  0
  -22.1072  -20.8123   20.8353 C   0  0  0  0  0  0  0  0  0  0  0  0
  -28.6198  -13.4696   21.1402 C   0  0  0  0  0  0  0  0  0  0  0  0
  -30.1083  -14.6684   19.4758 C   0  0  0  0  0  0  0  0  0  0  0  0
  -27.6740  -14.6413   19.1166 C   0  0  0  0  0  0  0  0  0  0  0  0
  -28.0652  -18.9187   17.9397 C   0  0  0  0  0  0  0  0  0  0  0  0
  -27.0418  -17.8220   19.4368 C   0  0  0  0  0  0  0  0  0  0  0  0
  -26.6609  -33.9163   23.2009 C   0  0  1  0  0  0  0  0  0  0  0  0
  -22.7047  -21.2493   19.5122 C   0  0  0  0  0  0  0  0  0  0  0  0
  -24.5843  -31.3545   21.3147 C   0  0  1  0  0  0  0  0  0  0  0  0
  -27.4177  -14.2533   20.5803 C   0  0  1  0  0  0  0  0  0  0  0  0
  -27.3588  -19.3260   19.2531 C   0  0  0  0  0  0  0  0  0  0  0  0
  -18.6710  -26.4768   22.4304 C   0  0  0  0  0  0  0  0  0  0  0  0
  -23.4937  -29.7968   25.5271 C   0  0  0  0  0  0  0  0  0  0  0  0
  -21.7071  -28.0444   25.6000 C   0  0  0  0  0  0  0  0  0  0  0  0
  -21.1033  -30.4202   25.1378 C   0  0  0  0  0  0  0  0  0  0  0  0
  -20.4294  -27.1987   19.1345 C   0  0  0  0  0  0  0  0  0  0  0  0
  -27.6215  -22.3100   18.5404 C   0  0  0  0  0  0  0  0  0  0  0  0
  -28.8916  -24.4481   18.3080 C   0  0  0  0  0  0  0  0  0  0  0  0
  -28.7176  -25.9536   18.3453 C   0  0  0  0  0  0  0  0  0  1  0  0
  -22.2932  -29.0750   23.3583 C   0  0  1  0  0  0  0  0  0  0  0  0
  -19.5487  -27.2653   21.4709 C   0  0  2  0  0  0  0  0  0  0  0  0
  -22.1703  -29.3326   24.8867 C   0  0  0  0  0  0  0  0  0  0  0  0
  -26.1353  -12.1500   20.6872 N   0  0  0  0  0  0  0  0  0  0  0  0
  -24.8945  -20.0015   19.4666 N   0  0  0  0  0  0  0  0  0  0  0  0
  -26.1605  -20.3621   19.1962 N   0  0  0  0  0  0  0  0  0  0  0  0
  -26.1153  -13.4926   20.7423 N   0  0  0  0  0  0  0  0  0  0  0  0
  -23.9694  -30.1594   21.8959 N   0  0  0  0  0  0  0  0  0  0  0  0
  -28.9284  -15.3936   18.9981 N   0  0  0  0  0  0  0  0  0  0  0  0
  -28.1105  -17.5677   18.4859 N   0  0  0  0  0  0  0  0  0  0  0  0
  -24.6734  -15.3502   21.0273 N   0  0  0  0  0  0  0  0  0  0  0  0
  -21.8805  -11.8116   21.3001 N   0  0  0  0  0  0  0  0  0  0  0  0
  -25.7416  -33.2267   22.3213 N   0  0  0  0  0  0  0  0  0  0  0  0
  -21.0485  -28.6603   22.7202 N   0  0  0  0  0  0  0  0  0  0  0  0
  -19.6163  -26.5248   20.1794 N   0  3  0  0  0  0  0  0  0  0  0  0
  -27.5852  -23.7969   18.5792 N   0  3  0  0  0  0  0  0  0  0  0  0
  -21.9959  -14.1012   21.3555 O   0  0  0  0  0  0  0  0  0  0  0  0
  -26.2019  -31.0496   23.0074 O   0  0  0  0  0  0  0  0  0  0  0  0
  -22.0934  -31.3269   22.6401 O   0  0  0  0  0  0  0  0  0  0  0  0
  -21.8464  -26.6474   21.8905 O   0  0  0  0  0  0  0  0  0  0  0  0
  -30.1090  -16.8713   17.6827 O   0  0  0  0  0  0  0  0  0  0  0  0
  -23.3142   -6.4446   20.8826 O   0  0  0  0  0  0  0  0  0  0  0  0
  -28.2647  -26.3502   19.6391 O   0  0  0  0  0  0  0  0  0  1  0  0
  -19.8302   -4.7973   24.8262 F   0  0  0  0  0  0  0  0  0  0  0  0
  -24.0338   -4.4671   22.6755 F   0  0  0  0  0  0  0  0  0  0  0  0
  1  2  1  0  0  0  0
  1  5  2  0  0  0  0
  2  6  2  0  0  0  0
  3  8  2  0  0  0  0
  3 16  1  0  0  0  0
  4  9  1  0  0  0  0
  4 16  2  0  0  0  0
  5 18  1  0  0  0  0
  6 20  1  0  0  0  0
  7 10  2  0  0  0  0
  7 19  1  0  0  0  0
  8 22  1  0  0  0  0
  9 22  2  0  0  0  0
 10 23  1  0  0  0  0
 11 12  2  0  0  0  0
 11 24  1  0  0  0  0
 12 25  1  0  0  0  0
 13 21  1  0  0  0  0
 13 23  2  0  0  0  0
 14 25  2  0  0  0  0
 14 26  1  0  0  0  0
 15 28  1  0  0  0  0
 15 29  2  0  0  0  0
 16 27  1  0  0  0  0
 17 27  1  0  0  0  0
 17 30  2  0  0  0  0
 17 31  1  0  0  0  0
 18 20  2  0  0  0  0
 18 36  1  0  0  0  0
 19 21  2  0  0  0  0
 19 37  1  0  0  0  0
 20 49  1  0  0  0  0
 21 38  1  0  0  0  0
 22 83  1  0  0  0  0
 23 84  1  0  0  0  0
 24 26  2  0  0  0  0
 24 83  1  0  0  0  0
 25 85  1  0  0  0  0
 26 86  1  0  0  0  0
 27 65  2  0  0  0  0
 28 50  1  0  0  0  0
 28 66  2  0  0  0  0
 29 59  1  0  0  0  0
 29 67  1  0  0  0  0
 30 68  1  0  0  0  0
 30 72  1  0  0  0  0
 31 73  1  0  0  0  0
 31 78  2  0  0  0  0
 32 51  1  0  0  0  0
 32 74  1  0  0  0  0
 32 79  2  0  0  0  0
 33 62  1  0  0  0  0
 33 69  1  0  0  0  0
 33 80  2  0  0  0  0
 34 63  1  0  0  0  0
 34 75  1  0  0  0  0
 34 81  2  0  0  0  0
 35 70  1  0  0  0  0
 35 71  1  0  0  0  0
 35 82  2  0  0  0  0
 36 39  1  0  0  0  0
 37 51  1  0  0  0  0
 38 69  1  0  0  0  0
 39 41  1  0  0  0  0
 40 44  1  0  0  0  0
 40 45  1  0  0  0  0
 41 49  1  0  0  0  0
 42 43  1  0  0  0  0
 42 50  1  0  0  0  0
 43 50  1  0  0  0  0
 44 52  1  0  0  0  0
 45 70  1  0  0  0  0
 46 52  1  0  0  0  0
 46 70  1  0  0  0  0
 47 53  1  0  0  0  0
 47 71  1  0  0  0  0
 48 53  1  0  0  0  0
 48 71  1  0  0  0  0
 49 74  1  0  0  0  0
 51 69  1  0  0  0  0
 52 68  1  0  0  0  0
 53 67  1  0  0  0  0
 54 63  1  0  0  0  0
 55 64  1  0  0  0  0
 56 64  1  0  0  0  0
 57 64  1  0  0  0  0
 58 76  1  0  0  0  0
 59 77  1  0  0  0  0
 60 61  1  0  0  0  0
 60 77  1  0  0  0  0
 61 84  1  0  0  0  0
 62 64  1  0  0  0  0
 62 75  1  0  0  0  0
 63 76  1  0  0  0  0
 65 68  1  0  0  0  0
 66 67  1  0  0  0  0
M  CHG  2  76   1  77   1
M  ISO  4  35 100  61 101  71 100  84 101
M  END
> <Batch ID>
0198

> <Smiles>
CNC(C)C(=O)NC(C(=O)N1Cc2cc([101O:1][101CH2:1]CNCc3cc(C4CC4)nn3C3C[100N:0]([100C:0](=O)N4CCCC(n5nc(-c6ccc(Oc7ccc(F)cc7F)cc6)c(C(N)=O)c5N)C4)C3)ccc2CC1C(=O)NC1CCCc2ccccc21)C(C)(C)C

> <Shape>
0.330

> <Color>
0.132

> <Negative vol penalty>
0.000

$$$$

  -OEChem-04052323483D

 83 92  0     1  0  0  0  0  0999 V2000
  -27.5358  -31.3610   28.1126 C   0  0  0  0  0  0  0  0  0  0  0  0
  -27.6705  -30.4079   27.1083 C   0  0  0  0  0  0  0  0  0  0  0  0
  -25.2989   -9.3660   23.9620 C   0  0  0  0  0  0  0  0  0  0  0  0
  -25.1563   -8.0758   21.9243 C   0  0  0  0  0  0  0  0  0  0  0  0
  -26.3028  -31.9752   28.3283 C   0  0  0  0  0  0  0  0  0  0  0  0
  -26.5720  -30.0676   26.3196 C   0  0  0  0  0  0  0  0  0  0  0  0
  -27.7239  -29.8003   21.3955 C   0  0  0  0  0  0  0  0  0  0  0  0
  -24.0629   -8.8626   24.3673 C   0  0  0  0  0  0  0  0  0  0  0  0
  -23.9202   -7.5724   22.3296 C   0  0  0  0  0  0  0  0  0  0  0  0
  -28.3845  -28.6534   20.9575 C   0  0  0  0  0  0  0  0  0  0  0  0
  -22.7710   -5.1979   24.4420 C   0  0  0  0  0  0  0  0  0  0  0  0
  -22.5484   -3.8295   24.2886 C   0  0  0  0  0  0  0  0  0  0  0  0
  -26.2948  -27.7701   20.1377 C   0  0  0  0  0  0  0  0  0  0  0  0
  -20.6733   -4.2971   22.8386 C   0  0  0  0  0  0  0  0  0  0  0  0
  -25.8456   -8.9727   22.7405 C   0  0  0  0  0  0  0  0  0  0  0  0
  -28.3914   -8.9420   22.5806 C   0  0  0  0  0  0  0  0  0  0  0  0
  -25.1911  -31.6493   27.5355 C   0  0  0  0  0  0  0  0  0  0  0  0
  -26.3396  -29.9362   21.2174 C   0  0  0  0  0  0  0  0  0  0  0  0
  -25.3227  -30.6770   26.5258 C   0  0  0  0  0  0  0  0  0  0  0  0
  -25.6194  -28.9208   20.5721 C   0  0  0  0  0  0  0  0  0  0  0  0
  -23.3735   -7.9658   23.5512 C   0  0  0  0  0  0  0  0  0  0  0  0
  -27.6695  -27.6368   20.3311 C   0  0  0  0  0  0  0  0  0  0  0  0
  -21.9447   -6.1160   23.7938 C   0  0  0  0  0  0  0  0  0  0  0  0
  -21.4996   -3.3791   23.4869 C   0  0  0  0  0  0  0  0  0  0  0  0
  -20.8958   -5.6655   22.9921 C   0  0  0  0  0  0  0  0  0  0  0  0
  -27.1222   -9.4928   22.3210 C   0  0  0  0  0  0  0  0  0  0  0  0
  -29.2708   -9.8040   21.9723 C   0  0  0  0  0  0  0  0  0  0  0  0
  -28.7440   -7.7570   23.3068 C   0  0  0  0  0  0  0  0  0  0  0  0
  -23.8473  -30.2486   23.1653 C   0  0  0  0  0  0  0  0  0  0  0  0
  -22.2256  -30.6750   20.3885 C   0  0  0  0  0  0  0  0  0  0  0  0
  -22.0592  -30.1497   17.0206 C   0  0  0  0  0  0  0  0  0  0  0  0
  -29.1247  -15.4393   20.6948 C   0  0  0  0  0  0  0  0  0  0  0  0
  -23.8670  -32.3055   27.8372 C   0  0  0  0  0  0  0  0  0  0  0  0
  -25.6462  -31.1913   21.6716 C   0  0  0  0  0  0  0  0  0  0  0  0
  -24.1353  -29.0269   20.3385 C   0  0  0  0  0  0  0  0  0  0  0  0
  -22.8454  -32.1613   26.7121 C   0  0  0  0  0  0  0  0  0  0  0  0
  -29.5950  -12.8827   18.3312 C   0  0  0  0  0  0  0  0  0  0  0  0
  -22.8040  -30.7215   26.2100 C   0  0  0  0  0  0  0  0  0  0  0  0
  -29.1333  -11.6554   19.1163 C   0  0  0  0  0  0  0  0  0  0  0  0
  -26.9547  -21.0645   18.8211 C   0  0  0  0  0  0  0  0  0  0  0  0
  -28.7003  -14.0969   18.5869 C   0  0  0  0  0  0  0  0  0  0  0  0
  -27.1162  -22.5849   18.8508 C   0  0  0  0  0  0  0  0  0  0  0  0
  -28.4110  -17.0217   18.8479 C   0  0  0  0  0  0  0  0  0  0  0  0
  -30.1505  -17.6812   20.4688 C   0  0  0  0  0  0  0  0  0  0  0  0
  -28.0713  -13.2003   20.8049 C   0  0  0  0  0  0  0  0  0  0  0  0
  -28.6803  -21.7220   20.3584 C   0  0  0  0  0  0  0  0  0  0  0  0
  -27.5826  -18.2458   19.2246 C   0  0  0  0  0  0  0  0  0  0  0  0
  -29.3401  -18.8973   20.8870 C   0  0  0  0  0  0  0  0  0  0  0  0
  -24.1606  -30.2991   25.6331 C   0  0  1  0  0  0  0  0  0  0  0  0
  -24.1500  -30.9985   21.8990 C   0  0  1  0  0  0  0  0  0  0  0  0
  -28.9860  -11.9807   20.6133 C   0  0  1  0  0  0  0  0  0  0  0  0
  -27.7438  -20.5771   20.0278 C   0  0  2  0  0  0  0  0  0  0  0  0
  -20.5953  -30.5837   15.0291 C   0  0  0  0  0  0  0  0  0  0  0  0
  -20.3368  -28.4574   21.2967 C   0  0  0  0  0  0  0  0  0  0  0  0
  -19.5173  -28.2847   18.9373 C   0  0  0  0  0  0  0  0  0  0  0  0
  -19.2098  -30.4078   20.2103 C   0  0  0  0  0  0  0  0  0  0  0  0
  -24.1627  -31.7383   15.6749 C   0  0  0  0  0  0  0  0  0  0  0  0
  -28.5113  -24.1320   20.1031 C   0  0  0  0  0  0  0  0  0  0  0  0
  -27.5635  -25.3022   19.8898 C   0  0  0  0  0  0  0  0  0  1  0  0
  -21.5208  -29.7652   19.4115 C   0  0  1  0  0  0  0  0  0  0  0  0
  -21.7581  -31.0906   15.8680 C   0  0  2  0  0  0  0  0  0  0  0  0
  -20.1738  -29.2256   19.9699 C   0  0  0  0  0  0  0  0  0  0  0  0
  -27.1852  -10.6177   21.6037 N   0  0  0  0  0  0  0  0  0  0  0  0
  -28.5047  -10.7809   21.4075 N   0  0  0  0  0  0  0  0  0  0  0  0
  -23.5015  -30.2707   20.8063 N   0  0  0  0  0  0  0  0  0  0  0  0
  -28.5564  -14.3433   20.0285 N   0  0  0  0  0  0  0  0  0  0  0  0
  -29.2871  -16.6200   19.9551 N   0  0  0  0  0  0  0  0  0  0  0  0
  -27.7959  -22.8652   20.1198 N   0  0  1  0  0  0  0  0  0  0  0  0
  -30.6169   -9.8142   21.8708 N   0  0  0  0  0  0  0  0  0  0  0  0
  -27.7164   -6.9864   23.8675 N   0  0  0  0  0  0  0  0  0  0  0  0
  -24.3399  -30.8508   24.3073 N   0  0  0  0  0  0  0  0  0  0  0  0
  -21.3933  -30.5202   18.1697 N   0  0  0  0  0  0  0  0  0  0  0  0
  -28.4919  -19.3449   19.7195 N   0  3  0  0  0  0  0  0  0  0  0  0
  -22.9508  -31.2262   14.9848 N   0  3  0  0  0  0  0  0  0  0  0  0
  -29.9361   -7.4012   23.4679 O   0  0  0  0  0  0  0  0  0  0  0  0
  -23.2125  -29.2018   23.1106 O   0  0  0  0  0  0  0  0  0  0  0  0
  -21.6677  -31.7100   20.7616 O   0  0  0  0  0  0  0  0  0  0  0  0
  -22.8072  -29.1806   16.9113 O   0  0  0  0  0  0  0  0  0  0  0  0
  -29.4666  -15.3672   21.8820 O   0  0  0  0  0  0  0  0  0  0  0  0
  -22.1674   -7.4742   23.9464 O   0  0  0  0  0  0  0  0  0  0  0  0
  -28.3164  -26.5079   19.9001 O   0  0  0  0  0  0  0  0  0  1  0  0
  -21.2869   -2.0650   23.3384 F   0  0  0  0  0  0  0  0  0  0  0  0
  -20.0994   -6.5427   22.3659 F   0  0  0  0  0  0  0  0  0  0  0  0
  1  2  1  0  0  0  0
  1  5  2  0  0  0  0
  2  6  2  0  0  0  0
  3  8  2  0  0  0  0
  3 15  1  0  0  0  0
  4  9  1  0  0  0  0
  4 15  2  0  0  0  0
  5 17  1  0  0  0  0
  6 19  1  0  0  0  0
  7 10  2  0  0  0  0
  7 18  1  0  0  0  0
  8 21  1  0  0  0  0
  9 21  2  0  0  0  0
 10 22  1  0  0  0  0
 11 12  2  0  0  0  0
 11 23  1  0  0  0  0
 12 24  1  0  0  0  0
 13 20  1  0  0  0  0
 13 22  2  0  0  0  0
 14 24  2  0  0  0  0
 14 25  1  0  0  0  0
 15 26  1  0  0  0  0
 16 26  1  0  0  0  0
 16 27  2  0  0  0  0
 16 28  1  0  0  0  0
 17 19  2  0  0  0  0
 17 33  1  0  0  0  0
 18 20  2  0  0  0  0
 18 34  1  0  0  0  0
 19 49  1  0  0  0  0
 20 35  1  0  0  0  0
 21 80  1  0  0  0  0
 22 81  1  0  0  0  0
 23 25  2  0  0  0  0
 23 80  1  0  0  0  0
 24 82  1  0  0  0  0
 25 83  1  0  0  0  0
 26 63  2  0  0  0  0
 27 64  1  0  0  0  0
 27 69  1  0  0  0  0
 28 70  1  0  0  0  0
 28 75  2  0  0  0  0
 29 50  1  0  0  0  0
 29 71  1  0  0  0  0
 29 76  2  0  0  0  0
 30 60  1  0  0  0  0
 30 65  1  0  0  0  0
 30 77  2  0  0  0  0
 31 61  1  0  0  0  0
 31 72  1  0  0  0  0
 31 78  2  0  0  0  0
 32 66  1  0  0  0  0
 32 67  1  0  0  0  0
 32 79  2  0  0  0  0
 33 36  1  0  0  0  0
 34 50  1  0  0  0  0
 35 65  1  0  0  0  0
 36 38  1  0  0  0  0
 37 39  1  0  0  0  0
 37 41  1  0  0  0  0
 38 49  1  0  0  0  0
 39 51  1  0  0  0  0
 40 42  1  0  0  0  0
 40 52  1  0  0  0  0
 41 66  1  0  0  0  0
 42 68  1  0  0  0  0
 43 47  1  0  0  0  0
 43 67  1  0  0  0  0
 44 48  1  0  0  0  0
 44 67  1  0  0  0  0
 45 51  1  0  0  0  0
 45 66  1  0  0  0  0
 46 52  1  0  0  0  0
 46 68  1  0  0  0  0
 47 73  1  0  0  0  0
 48 73  1  0  0  0  0
 49 71  1  0  0  0  0
 50 65  1  0  0  0  0
 51 64  1  0  0  0  0
 52 73  1  0  0  0  0
 53 61  1  0  0  0  0
 54 62  1  0  0  0  0
 55 62  1  0  0  0  0
 56 62  1  0  0  0  0
 57 74  1  0  0  0  0
 58 59  1  0  0  0  0
 58 68  1  0  0  0  0
 59 81  1  0  0  0  0
 60 62  1  0  0  0  0
 60 72  1  0  0  0  0
 61 74  1  0  0  0  0
 63 64  1  0  0  0  0
M  CHG  2  73   1  74   1
M  ISO  4  32 100  59 101  67 100  81 101
M  END
> <Batch ID>
0198

> <Smiles>
CNC(C)C(=O)NC(C(=O)N1Cc2cc([101O:1][101CH2:1]CN3CCC(N4CC[100N:0]([100C:0](=O)N5CCCC(n6nc(-c7ccc(Oc8ccc(F)cc8F)cc7)c(C(N)=O)c6N)C5)CC4)C3)ccc2CC1C(=O)NC1CCCc2ccccc21)C(C)(C)C

> <Shape>
0.272

> <Color>
0.088

> <Negative vol penalty>
0.000

$$$$

  -OEChem-04052323483D

 91102  0     1  0  0  0  0  0999 V2000
  -16.6643  -30.5589   23.3319 C   0  0  0  0  0  0  0  0  0  0  0  0
  -17.8269  -31.2373   23.6835 C   0  0  0  0  0  0  0  0  0  0  0  0
  -26.9154  -14.8697   23.0253 C   0  0  0  0  0  0  0  0  0  0  0  0
  -25.8289  -15.1636   20.8875 C   0  0  0  0  0  0  0  0  0  0  0  0
  -16.7237  -29.2098   22.9849 C   0  0  0  0  0  0  0  0  0  0  0  0
  -19.0494  -30.5667   23.6894 C   0  0  0  0  0  0  0  0  0  0  0  0
  -26.0223  -31.6593   22.4637 C   0  0  0  0  0  0  0  0  0  0  0  0
  -25.9772  -13.8962   23.3683 C   0  0  0  0  0  0  0  0  0  0  0  0
  -24.8907  -14.1901   21.2304 C   0  0  0  0  0  0  0  0  0  0  0  0
  -27.2641  -31.4769   23.0707 C   0  0  0  0  0  0  0  0  0  0  0  0
  -24.7343  -10.8164   21.3497 C   0  0  0  0  0  0  0  0  0  0  0  0
  -24.4206   -9.8541   20.3899 C   0  0  0  0  0  0  0  0  0  0  0  0
  -27.2572  -29.1666   22.3766 C   0  0  0  0  0  0  0  0  0  0  0  0
  -22.1108  -10.5610   20.4361 C   0  0  0  0  0  0  0  0  0  0  0  0
  -26.8412  -15.5034   21.7849 C   0  0  0  0  0  0  0  0  0  0  0  0
  -29.0410  -16.3115   20.7770 C   0  0  0  0  0  0  0  0  0  0  0  0
  -17.9490  -28.5248   22.9772 C   0  0  0  0  0  0  0  0  0  0  0  0
  -25.3826  -30.5921   21.8169 C   0  0  0  0  0  0  0  0  0  0  0  0
  -19.1251  -29.2068   23.3433 C   0  0  0  0  0  0  0  0  0  0  0  0
  -26.0086  -29.3387   21.7600 C   0  0  0  0  0  0  0  0  0  0  0  0
  -24.9648  -13.5563   22.4709 C   0  0  0  0  0  0  0  0  0  0  0  0
  -27.8804  -30.2297   23.0297 C   0  0  0  0  0  0  0  0  0  0  0  0
  -23.7362  -11.6509   21.8528 C   0  0  0  0  0  0  0  0  0  0  0  0
  -23.1089   -9.7264   19.9331 C   0  0  0  0  0  0  0  0  0  0  0  0
  -22.4244  -11.5232   21.3959 C   0  0  0  0  0  0  0  0  0  0  0  0
  -27.8098  -16.5095   21.4302 C   0  0  0  0  0  0  0  0  0  0  0  0
  -34.5765  -28.5751   20.5386 C   0  0  0  0  0  0  0  0  0  0  0  0
  -33.7555  -27.1413   18.9575 C   0  0  0  0  0  0  0  0  0  0  0  0
  -33.3397  -28.6160   21.1437 C   0  0  0  0  0  0  0  0  0  0  0  0
  -32.5189  -27.1816   19.5630 C   0  0  0  0  0  0  0  0  0  0  0  0
  -29.5816  -17.5699   20.6744 C   0  0  0  0  0  0  0  0  0  0  0  0
  -29.6422  -15.0984   20.3052 C   0  0  0  0  0  0  0  0  0  0  0  0
  -22.6462  -29.0302   22.2372 C   0  0  0  0  0  0  0  0  0  0  0  0
  -23.5064  -27.5694   19.4716 C   0  0  0  0  0  0  0  0  0  0  0  0
  -26.0035  -26.6586   17.3311 C   0  0  0  0  0  0  0  0  0  0  0  0
  -29.0928  -22.8669   19.4231 C   0  0  0  0  0  0  0  0  0  0  0  0
  -17.9567  -27.0546   22.6407 C   0  0  0  0  0  0  0  0  0  0  0  0
  -24.0555  -30.8120   21.1440 C   0  0  0  0  0  0  0  0  0  0  0  0
  -25.3730  -28.1659   21.0607 C   0  0  0  0  0  0  0  0  0  0  0  0
  -19.3448  -26.5128   22.3096 C   0  0  0  0  0  0  0  0  0  0  0  0
  -28.1799  -21.9409   22.7994 C   0  0  0  0  0  0  0  0  0  0  0  0
  -20.3640  -26.9908   23.3391 C   0  0  0  0  0  0  0  0  0  0  0  0
  -35.8877  -30.7964   20.6816 C   0  0  0  0  0  0  0  0  0  0  0  0
  -36.8399  -29.7643   20.1636 C   0  0  0  0  0  0  0  0  0  0  0  0
  -34.5459  -26.9836   16.5030 C   0  0  0  0  0  0  0  0  0  0  0  0
  -33.1188  -26.5330   16.5279 C   0  0  0  0  0  0  0  0  0  0  0  0
  -28.1056  -20.4174   22.6853 C   0  0  0  0  0  0  0  0  0  0  0  0
  -27.6522  -22.6173   21.5372 C   0  0  0  0  0  0  0  0  0  0  0  0
  -28.2477  -20.6607   20.1641 C   0  0  0  0  0  0  0  0  0  0  0  0
  -31.4284  -25.0283   18.8524 C   0  0  0  0  0  0  0  0  0  0  0  0
  -30.0879  -26.5743   19.3345 C   0  0  0  0  0  0  0  0  0  0  0  0
  -20.4737  -28.5203   23.3377 C   0  0  1  0  0  0  0  0  0  0  0  0
  -35.7230  -29.3554   21.0875 C   0  0  0  0  0  0  0  0  0  0  0  0
  -33.9927  -26.3180   17.7346 C   0  0  0  0  0  0  0  0  0  0  0  0
  -23.2594  -29.5241   20.9574 C   0  0  1  0  0  0  0  0  0  0  0  0
  -28.7897  -19.9183   21.3990 C   0  0  2  0  0  0  0  0  0  0  0  0
  -29.9003  -25.1557   18.7782 C   0  0  0  0  0  0  0  0  0  0  0  0
  -26.4021  -25.4408   15.1735 C   0  0  0  0  0  0  0  0  0  0  0  0
  -23.1348  -24.9043   20.9100 C   0  0  0  0  0  0  0  0  0  0  0  0
  -24.4299  -23.8092   19.0683 C   0  0  0  0  0  0  0  0  0  0  0  0
  -22.2711  -24.9526   18.5635 C   0  0  0  0  0  0  0  0  0  0  0  0
  -27.1173  -29.0764   16.0377 C   0  0  0  0  0  0  0  0  0  0  0  0
  -33.0938  -29.4414   22.3723 C   0  0  0  0  0  0  0  0  0  0  0  0
  -31.4038  -30.7059   23.7077 C   0  0  0  0  0  0  0  0  0  0  0  0
  -29.9634  -31.1776   23.6766 C   0  0  0  0  0  0  0  0  0  1  0  0
  -24.3099  -26.3418   19.1159 C   0  0  1  0  0  0  0  0  0  0  0  0
  -26.1364  -26.7893   15.8245 C   0  0  2  0  0  0  0  0  0  0  0  0
  -23.5478  -25.0234   19.4294 C   0  0  0  0  0  0  0  0  0  0  0  0
  -27.5815  -17.7928   21.7221 N   0  0  0  0  0  0  0  0  0  0  0  0
  -34.8066  -27.8370   19.4346 N   0  0  0  0  0  0  0  0  0  0  0  0
  -32.2887  -27.9199   20.6668 N   0  0  0  0  0  0  0  0  0  0  0  0
  -28.6767  -18.4124   21.2502 N   0  0  0  0  0  0  0  0  0  0  0  0
  -31.4546  -26.4290   19.0173 N   0  0  0  0  0  0  0  0  0  0  0  0
  -24.0723  -28.4295   20.4232 N   0  0  0  0  0  0  0  0  0  0  0  0
  -28.3582  -22.1117   20.3510 N   0  0  0  0  0  0  0  0  0  0  0  0
  -30.7379  -18.0270   20.1487 N   0  0  0  0  0  0  0  0  0  0  0  0
  -28.9510  -13.8935   20.4917 N   0  0  0  0  0  0  0  0  0  0  0  0
  -21.2659  -28.9691   22.2128 N   0  0  0  0  0  0  0  0  0  0  0  0
  -24.6896  -26.4941   17.7156 N   0  0  0  0  0  0  0  0  0  0  0  0
  -29.1581  -24.2352   19.6641 N   0  0  0  0  0  0  0  0  0  0  0  0
  -27.2597  -27.7064   15.4812 N   0  3  0  0  0  0  0  0  0  0  0  0
  -31.6940  -29.9356   22.4721 N   0  3  0  0  0  0  0  0  0  0  0  0
  -30.7668  -15.0813   19.7497 O   0  0  0  0  0  0  0  0  0  0  0  0
  -23.3717  -28.7256   23.1766 O   0  0  0  0  0  0  0  0  0  0  0  0
  -22.4200  -27.7618   18.9199 O   0  0  0  0  0  0  0  0  0  0  0  0
  -26.9691  -26.6949   18.0906 O   0  0  0  0  0  0  0  0  0  0  0  0
  -29.6596  -22.3628   18.4473 O   0  0  0  0  0  0  0  0  0  0  0  0
  -24.0493  -12.6063   22.8051 O   0  0  0  0  0  0  0  0  0  0  0  0
  -29.0922  -30.0488   23.6220 O   0  0  0  0  0  0  0  0  0  1  0  0
  -22.8082   -8.8033   19.0102 F   0  0  0  0  0  0  0  0  0  0  0  0
  -21.4615  -12.3229   21.8746 F   0  0  0  0  0  0  0  0  0  0  0  0
  1  2  1  0  0  0  0
  1  5  2  0  0  0  0
  2  6  2  0  0  0  0
  3  8  2  0  0  0  0
  3 15  1  0  0  0  0
  4  9  1  0  0  0  0
  4 15  2  0  0  0  0
  5 17  1  0  0  0  0
  6 19  1  0  0  0  0
  7 10  2  0  0  0  0
  7 18  1  0  0  0  0
  8 21  1  0  0  0  0
  9 21  2  0  0  0  0
 10 22  1  0  0  0  0
 11 12  2  0  0  0  0
 11 23  1  0  0  0  0
 12 24  1  0  0  0  0
 13 20  1  0  0  0  0
 13 22  2  0  0  0  0
 14 24  2  0  0  0  0
 14 25  1  0  0  0  0
 15 26  1  0  0  0  0
 16 26  1  0  0  0  0
 16 31  2  0  0  0  0
 16 32  1  0  0  0  0
 17 19  2  0  0  0  0
 17 37  1  0  0  0  0
 18 20  2  0  0  0  0
 18 38  1  0  0  0  0
 19 52  1  0  0  0  0
 20 39  1  0  0  0  0
 21 88  1  0  0  0  0
 22 89  1  0  0  0  0
 23 25  2  0  0  0  0
 23 88  1  0  0  0  0
 24 90  1  0  0  0  0
 25 91  1  0  0  0  0
 26 69  2  0  0  0  0
 27 29  2  0  0  0  0
 27 53  1  0  0  0  0
 27 70  1  0  0  0  0
 28 30  1  0  0  0  0
 28 54  1  0  0  0  0
 28 70  2  0  0  0  0
 29 63  1  0  0  0  0
 29 71  1  0  0  0  0
 30 71  2  0  0  0  0
 30 73  1  0  0  0  0
 31 72  1  0  0  0  0
 31 76  1  0  0  0  0
 32 77  1  0  0  0  0
 32 83  2  0  0  0  0
 33 55  1  0  0  0  0
 33 78  1  0  0  0  0
 33 84  2  0  0  0  0
 34 66  1  0  0  0  0
 34 74  1  0  0  0  0
 34 85  2  0  0  0  0
 35 67  1  0  0  0  0
 35 79  1  0  0  0  0
 35 86  2  0  0  0  0
 36 75  1  0  0  0  0
 36 80  1  0  0  0  0
 36 87  2  0  0  0  0
 37 40  1  0  0  0  0
 38 55  1  0  0  0  0
 39 74  1  0  0  0  0
 40 42  1  0  0  0  0
 41 47  1  0  0  0  0
 41 48  1  0  0  0  0
 42 52  1  0  0  0  0
 43 44  1  0  0  0  0
 43 53  1  0  0  0  0
 44 53  1  0  0  0  0
 45 46  1  0  0  0  0
 45 54  1  0  0  0  0
 46 54  1  0  0  0  0
 47 56  1  0  0  0  0
 48 75  1  0  0  0  0
 49 56  1  0  0  0  0
 49 75  1  0  0  0  0
 50 57  1  0  0  0  0
 50 73  1  0  0  0  0
 51 57  1  0  0  0  0
 51 73  1  0  0  0  0
 52 78  1  0  0  0  0
 55 74  1  0  0  0  0
 56 72  1  0  0  0  0
 57 80  1  0  0  0  0
 58 67  1  0  0  0  0
 59 68  1  0  0  0  0
 60 68  1  0  0  0  0
 61 68  1  0  0  0  0
 62 81  1  0  0  0  0
 63 82  1  0  0  0  0
 64 65  1  0  0  0  0
 64 82  1  0  0  0  0
 65 89  1  0  0  0  0
 66 68  1  0  0  0  0
 66 79  1  0  0  0  0
 67 81  1  0  0  0  0
 69 72  1  0  0  0  0
M  CHG  2  81   1  82   1
M  ISO  4  36 100  65 101  80 100  89 101
M  END
> <Batch ID>
0198

> <Smiles>
CNC(C)C(=O)NC(C(=O)N1Cc2cc([101O:1][101CH2:1]CNCc3nc(N4CC([100NH:0][100C:0](=O)N5CCCC(n6nc(-c7ccc(Oc8ccc(F)cc8F)cc7)c(C(N)=O)c6N)C5)C4)c(C4CC4)nc3C3CC3)ccc2CC1C(=O)NC1CCCc2ccccc21)C(C)(C)C

> <Shape>
0.301

> <Color>
0.103

> <Negative vol penalty>
0.000

$$$$

  -OEChem-04052323483D

 86 95  0     1  0  0  0  0  0999 V2000
  -22.4805  -36.2865   18.1742 C   0  0  0  0  0  0  0  0  0  0  0  0
  -23.4037  -35.2796   17.9115 C   0  0  0  0  0  0  0  0  0  0  0  0
  -24.5880   -9.1641   21.9306 C   0  0  0  0  0  0  0  0  0  0  0  0
  -23.1119   -9.9033   20.1666 C   0  0  0  0  0  0  0  0  0  0  0  0
  -22.0801  -36.5388   19.4857 C   0  0  0  0  0  0  0  0  0  0  0  0
  -23.9280  -34.5250   18.9604 C   0  0  0  0  0  0  0  0  0  0  0  0
  -25.4588  -28.5967   18.8246 C   0  0  0  0  0  0  0  0  0  0  0  0
  -23.5330   -8.4694   22.5223 C   0  0  0  0  0  0  0  0  0  0  0  0
  -22.0569   -9.2085   20.7582 C   0  0  0  0  0  0  0  0  0  0  0  0
  -26.6814  -27.9472   18.6595 C   0  0  0  0  0  0  0  0  0  0  0  0
  -21.8998   -5.5465   22.0505 C   0  0  0  0  0  0  0  0  0  0  0  0
  -22.1468   -4.2471   22.4934 C   0  0  0  0  0  0  0  0  0  0  0  0
  -26.8993  -27.7615   21.0548 C   0  0  0  0  0  0  0  0  0  0  0  0
  -21.5611   -4.9028   24.7438 C   0  0  0  0  0  0  0  0  0  0  0  0
  -24.3774   -9.8811   20.7528 C   0  0  0  0  0  0  0  0  0  0  0  0
  -26.3721  -10.1130   19.1796 C   0  0  0  0  0  0  0  0  0  0  0  0
  -22.5925  -35.7806   20.5502 C   0  0  0  0  0  0  0  0  0  0  0  0
  -24.9517  -28.8436   20.1085 C   0  0  0  0  0  0  0  0  0  0  0  0
  -23.5352  -34.7683   20.2875 C   0  0  0  0  0  0  0  0  0  0  0  0
  -25.6688  -28.4121   21.2334 C   0  0  0  0  0  0  0  0  0  0  0  0
  -22.2675   -8.4915   21.9361 C   0  0  0  0  0  0  0  0  0  0  0  0
  -27.4032  -27.5321   19.7748 C   0  0  0  0  0  0  0  0  0  0  0  0
  -21.4835   -6.5241   22.9543 C   0  0  0  0  0  0  0  0  0  0  0  0
  -21.9775   -3.9252   23.8400 C   0  0  0  0  0  0  0  0  0  0  0  0
  -21.3142   -6.2022   24.3009 C   0  0  0  0  0  0  0  0  0  0  0  0
  -25.4666  -10.5995   20.1414 C   0  0  0  0  0  0  0  0  0  0  0  0
  -27.2060  -11.1744   18.9254 C   0  0  0  0  0  0  0  0  0  0  0  0
  -29.0431  -23.6002   21.9570 C   0  0  0  0  0  0  0  0  0  0  0  0
  -29.3177  -24.0575   19.7770 C   0  0  0  0  0  0  0  0  0  0  0  0
  -28.4289  -22.0959   20.4088 C   0  0  0  0  0  0  0  0  0  0  0  0
  -26.4523   -8.8176   18.5704 C   0  0  0  0  0  0  0  0  0  0  0  0
  -24.2253  -31.4546   21.7695 C   0  0  0  0  0  0  0  0  0  0  0  0
  -23.0897  -29.3018   23.9138 C   0  0  0  0  0  0  0  0  0  0  0  0
  -23.1772  -26.1224   25.1510 C   0  0  0  0  0  0  0  0  0  0  0  0
  -26.5924  -16.9163   19.2106 C   0  0  0  0  0  0  0  0  0  0  0  0
  -22.1655  -36.1215   21.9559 C   0  0  0  0  0  0  0  0  0  0  0  0
  -23.6186  -29.5217   20.2690 C   0  0  0  0  0  0  0  0  0  0  0  0
  -25.1584  -28.6349   22.6328 C   0  0  0  0  0  0  0  0  0  0  0  0
  -22.4857  -35.0281   22.9719 C   0  0  0  0  0  0  0  0  0  0  0  0
  -29.0241  -15.0919   20.9706 C   0  0  0  0  0  0  0  0  0  0  0  0
  -23.9151  -34.5290   22.7863 C   0  0  0  0  0  0  0  0  0  0  0  0
  -28.4725  -13.6704   20.8654 C   0  0  0  0  0  0  0  0  0  0  0  0
  -27.9179  -16.1189   21.2174 C   0  0  0  0  0  0  0  0  0  0  0  0
  -28.3294  -20.1731   18.8528 C   0  0  0  0  0  0  0  0  0  0  0  0
  -27.4390  -19.9846   21.1805 C   0  0  0  0  0  0  0  0  0  0  0  0
  -27.3101  -19.1318   18.3982 C   0  0  0  0  0  0  0  0  0  0  0  0
  -26.4283  -18.9574   20.6827 C   0  0  0  0  0  0  0  0  0  0  0  0
  -26.2622  -14.6390   20.1282 C   0  0  0  0  0  0  0  0  0  0  0  0
  -24.1079  -33.9117   21.3959 C   0  0  1  0  0  0  0  0  0  0  0  0
  -23.4431  -30.1788   21.6345 C   0  0  1  0  0  0  0  0  0  0  0  0
  -27.3440  -13.5916   19.8219 C   0  0  2  0  0  0  0  0  0  0  0  0
  -27.8410  -24.4367   23.9921 C   0  0  0  0  0  0  0  0  0  0  0  0
  -22.1621  -24.6721   26.9296 C   0  0  0  0  0  0  0  0  0  0  0  0
  -24.8318  -30.6644   26.0158 C   0  0  0  0  0  0  0  0  0  0  0  0
  -24.5243  -28.6526   27.4740 C   0  0  0  0  0  0  0  0  0  0  0  0
  -22.5487  -30.0230   26.8096 C   0  0  0  0  0  0  0  0  0  0  0  0
  -22.0455  -24.2594   23.1490 C   0  0  0  0  0  0  0  0  0  0  0  0
  -29.1734  -24.0017   23.3866 C   0  0  0  0  0  0  0  0  0  0  0  0
  -29.7638  -24.9850   18.6987 C   0  0  0  0  0  0  0  0  0  0  0  0
  -28.7678  -26.1188   18.4345 C   0  0  0  0  0  0  0  0  0  1  0  0
  -23.6727  -28.5524   25.0875 C   0  0  1  0  0  0  0  0  0  0  0  0
  -22.0685  -25.1410   25.4859 C   0  0  2  0  0  0  0  0  0  0  0  0
  -23.9052  -29.4705   26.3206 C   0  0  0  0  0  0  0  0  0  0  0  0
  -25.7030  -11.8709   20.4757 N   0  0  0  0  0  0  0  0  0  0  0  0
  -29.4656  -24.4864   21.0407 N   0  0  0  0  0  0  0  0  0  0  0  0
  -28.5152  -22.3892   21.7162 N   0  0  0  0  0  0  0  0  0  0  0  0
  -28.8090  -22.8780   19.3857 N   0  0  0  0  0  0  0  0  0  0  0  0
  -26.7666  -12.1923   19.7197 N   0  0  0  0  0  0  0  0  0  0  0  0
  -27.8874  -20.8470   20.0785 N   0  0  0  0  0  0  0  0  0  0  0  0
  -23.8531  -29.3078   22.7379 N   0  0  0  0  0  0  0  0  0  0  0  0
  -26.8458  -15.9787   20.2229 N   0  0  0  0  0  0  0  0  0  0  0  0
  -26.9095  -18.2545   19.4916 N   0  0  0  0  0  0  0  0  0  0  0  0
  -28.2650  -11.3268   18.1022 N   0  0  0  0  0  0  0  0  0  0  0  0
  -25.5170   -7.8436   18.9459 N   0  0  0  0  0  0  0  0  0  0  0  0
  -23.5421  -32.5805   21.3511 N   0  0  0  0  0  0  0  0  0  0  0  0
  -22.7774  -27.4285   25.3396 N   0  0  0  0  0  0  0  0  0  0  0  0
  -22.1479  -23.9469   24.5978 N   0  3  0  0  0  0  0  0  0  0  0  0
  -27.3374   -8.5272   17.7304 O   0  0  0  0  0  0  0  0  0  0  0  0
  -25.3639  -31.4203   22.2213 O   0  0  0  0  0  0  0  0  0  0  0  0
  -21.9939  -29.8554   24.0338 O   0  0  0  0  0  0  0  0  0  0  0  0
  -24.2880  -25.7659   24.7644 O   0  0  0  0  0  0  0  0  0  0  0  0
  -26.1147  -16.5800   18.1199 O   0  0  0  0  0  0  0  0  0  0  0  0
  -21.2380   -7.8135   22.5130 O   0  0  0  0  0  0  0  0  0  0  0  0
  -28.6055  -26.8940   19.6154 O   0  0  0  0  0  0  0  0  0  1  0  0
  -22.2132   -2.6770   24.2648 F   0  0  0  0  0  0  0  0  0  0  0  0
  -20.9133   -7.1368   25.1737 F   0  0  0  0  0  0  0  0  0  0  0  0
  1  2  1  0  0  0  0
  1  5  2  0  0  0  0
  2  6  2  0  0  0  0
  3  8  2  0  0  0  0
  3 15  1  0  0  0  0
  4  9  1  0  0  0  0
  4 15  2  0  0  0  0
  5 17  1  0  0  0  0
  6 19  1  0  0  0  0
  7 10  2  0  0  0  0
  7 18  1  0  0  0  0
  8 21  1  0  0  0  0
  9 21  2  0  0  0  0
 10 22  1  0  0  0  0
 11 12  2  0  0  0  0
 11 23  1  0  0  0  0
 12 24  1  0  0  0  0
 13 20  1  0  0  0  0
 13 22  2  0  0  0  0
 14 24  2  0  0  0  0
 14 25  1  0  0  0  0
 15 26  1  0  0  0  0
 16 26  1  0  0  0  0
 16 27  2  0  0  0  0
 16 31  1  0  0  0  0
 17 19  2  0  0  0  0
 17 36  1  0  0  0  0
 18 20  2  0  0  0  0
 18 37  1  0  0  0  0
 19 49  1  0  0  0  0
 20 38  1  0  0  0  0
 21 83  1  0  0  0  0
 22 84  1  0  0  0  0
 23 25  2  0  0  0  0
 23 83  1  0  0  0  0
 24 85  1  0  0  0  0
 25 86  1  0  0  0  0
 26 64  2  0  0  0  0
 27 68  1  0  0  0  0
 27 73  1  0  0  0  0
 28 58  1  0  0  0  0
 28 65  1  0  0  0  0
 28 66  2  0  0  0  0
 29 59  1  0  0  0  0
 29 65  2  0  0  0  0
 29 67  1  0  0  0  0
 30 66  1  0  0  0  0
 30 67  2  0  0  0  0
 30 69  1  0  0  0  0
 31 74  1  0  0  0  0
 31 78  2  0  0  0  0
 32 50  1  0  0  0  0
 32 75  1  0  0  0  0
 32 79  2  0  0  0  0
 33 61  1  0  0  0  0
 33 70  1  0  0  0  0
 33 80  2  0  0  0  0
 34 62  1  0  0  0  0
 34 76  1  0  0  0  0
 34 81  2  0  0  0  0
 35 71  1  0  0  0  0
 35 72  1  0  0  0  0
 35 82  2  0  0  0  0
 36 39  1  0  0  0  0
 37 50  1  0  0  0  0
 38 70  1  0  0  0  0
 39 41  1  0  0  0  0
 40 42  1  0  0  0  0
 40 43  1  0  0  0  0
 41 49  1  0  0  0  0
 42 51  1  0  0  0  0
 43 71  1  0  0  0  0
 44 46  1  0  0  0  0
 44 69  1  0  0  0  0
 45 47  1  0  0  0  0
 45 69  1  0  0  0  0
 46 72  1  0  0  0  0
 47 72  1  0  0  0  0
 48 51  1  0  0  0  0
 48 71  1  0  0  0  0
 49 75  1  0  0  0  0
 50 70  1  0  0  0  0
 51 68  1  0  0  0  0
 52 58  1  0  0  0  0
 53 62  1  0  0  0  0
 54 63  1  0  0  0  0
 55 63  1  0  0  0  0
 56 63  1  0  0  0  0
 57 77  1  0  0  0  0
 59 60  1  0  0  0  0
 60 84  1  0  0  0  0
 61 63  1  0  0  0  0
 61 76  1  0  0  0  0
 62 77  1  0  0  0  0
 64 68  1  0  0  0  0
M  CHG  1  77   1
M  ISO  4  35 100  60 101  72 100  84 101
M  END
> <Batch ID>
0198

> <Smiles>
CCc1nc(C[101CH2:1][101O:1]c2ccc3c(c2)CN(C(=O)C(NC(=O)C(C)NC)C(C)(C)C)C(C(=O)NC2CCCc4ccccc42)C3)nc(N2CC[100N:0]([100C:0](=O)N3CCCC(n4nc(-c5ccc(Oc6ccc(F)cc6F)cc5)c(C(N)=O)c4N)C3)CC2)n1

> <Shape>
0.273

> <Color>
0.110

> <Negative vol penalty>
0.000

$$$$

  -OEChem-04052323483D

 79 88  0     1  0  0  0  0  0999 V2000
  -25.9202  -35.5946   22.6219 C   0  0  0  0  0  0  0  0  0  0  0  0
  -26.4890  -34.3307   22.5010 C   0  0  0  0  0  0  0  0  0  0  0  0
  -21.6981  -18.5884   23.1688 C   0  0  0  0  0  0  0  0  0  0  0  0
  -21.0372  -18.9807   20.8783 C   0  0  0  0  0  0  0  0  0  0  0  0
  -24.6149  -35.7281   23.0934 C   0  0  0  0  0  0  0  0  0  0  0  0
  -25.7531  -33.1997   22.8526 C   0  0  0  0  0  0  0  0  0  0  0  0
  -26.1692  -29.4753   19.4466 C   0  0  0  0  0  0  0  0  0  0  0  0
  -20.5491  -19.2431   23.6125 C   0  0  0  0  0  0  0  0  0  0  0  0
  -19.8881  -19.6354   21.3220 C   0  0  0  0  0  0  0  0  0  0  0  0
  -27.3375  -28.7149   19.4741 C   0  0  0  0  0  0  0  0  0  0  0  0
  -16.8463  -18.7853   22.5242 C   0  0  0  0  0  0  0  0  0  0  0  0
  -15.6405  -18.4715   21.8973 C   0  0  0  0  0  0  0  0  0  0  0  0
  -26.1731  -26.9806   20.6805 C   0  0  0  0  0  0  0  0  0  0  0  0
  -15.3921  -20.7775   21.2206 C   0  0  0  0  0  0  0  0  0  0  0  0
  -21.9422  -18.4573   21.8017 C   0  0  0  0  0  0  0  0  0  0  0  0
  -23.2727  -16.4088   21.0660 C   0  0  0  0  0  0  0  0  0  0  0  0
  -23.8593  -34.5974   23.4418 C   0  0  0  0  0  0  0  0  0  0  0  0
  -24.9950  -28.9979   20.0464 C   0  0  0  0  0  0  0  0  0  0  0  0
  -24.4369  -33.3183   23.3304 C   0  0  0  0  0  0  0  0  0  0  0  0
  -24.9906  -27.7357   20.6570 C   0  0  0  0  0  0  0  0  0  0  0  0
  -19.6441  -19.7665   22.6891 C   0  0  0  0  0  0  0  0  0  0  0  0
  -27.3403  -27.4686   20.0936 C   0  0  0  0  0  0  0  0  0  0  0  0
  -17.3250  -20.0953   22.4995 C   0  0  0  0  0  0  0  0  0  0  0  0
  -14.9134  -19.4675   21.2455 C   0  0  0  0  0  0  0  0  0  0  0  0
  -16.5979  -21.0913   21.8476 C   0  0  0  0  0  0  0  0  0  0  0  0
  -23.1292  -17.7816   21.3427 C   0  0  0  0  0  0  0  0  0  0  0  0
  -24.5794  -16.2742   20.6650 C   0  0  0  0  0  0  0  0  0  0  0  0
  -22.3107  -15.3500   21.1627 C   0  0  0  0  0  0  0  0  0  0  0  0
  -23.1325  -29.9813   22.4271 C   0  0  0  0  0  0  0  0  0  0  0  0
  -21.2573  -27.5177   21.4593 C   0  0  0  0  0  0  0  0  0  0  0  0
  -21.0208  -24.5087   19.8667 C   0  0  0  0  0  0  0  0  0  0  0  0
  -28.1418  -20.4005   18.3368 C   0  0  0  0  0  0  0  0  0  0  0  0
  -22.4687  -34.7948   23.9914 C   0  0  0  0  0  0  0  0  0  0  0  0
  -23.7360  -29.8187   19.9847 C   0  0  0  0  0  0  0  0  0  0  0  0
  -23.7509  -27.1691   21.2977 C   0  0  0  0  0  0  0  0  0  0  0  0
  -21.6261  -33.5219   23.9880 C   0  0  0  0  0  0  0  0  0  0  0  0
  -28.7922  -18.2508   21.2960 C   0  0  0  0  0  0  0  0  0  0  0  0
  -22.4281  -32.3493   24.5434 C   0  0  0  0  0  0  0  0  0  0  0  0
  -27.3773  -17.7985   21.6338 C   0  0  0  0  0  0  0  0  0  0  0  0
  -27.9644  -23.2742   16.9488 C   0  0  0  0  0  0  0  0  0  0  0  0
  -28.8285  -19.6501   20.6806 C   0  0  0  0  0  0  0  0  0  0  0  0
  -26.5093  -19.3436   19.8476 C   0  0  0  0  0  0  0  0  0  0  0  0
  -29.9035  -22.1364   19.2243 C   0  0  0  0  0  0  0  0  0  0  0  0
  -28.4015  -24.6845   17.3020 C   0  0  0  0  0  0  0  0  0  0  0  0
  -23.6620  -32.0658   23.6782 C   0  0  1  0  0  0  0  0  0  0  0  0
  -22.7334  -29.4578   21.0764 C   0  0  1  0  0  0  0  0  0  0  0  0
  -26.4756  -17.9115   20.3976 C   0  0  2  0  0  0  0  0  0  0  0  0
  -29.1993  -22.4306   17.2147 C   0  0  1  0  0  0  0  0  0  0  0  0
  -30.0347  -23.2624   18.1957 C   0  0  1  0  0  0  0  0  0  0  0  0
  -19.3641  -22.7210   19.2690 C   0  0  0  0  0  0  0  0  0  0  0  0
  -21.3047  -26.5140   24.3403 C   0  0  0  0  0  0  0  0  0  0  0  0
  -20.4755  -24.3024   23.5100 C   0  0  0  0  0  0  0  0  0  0  0  0
  -19.0780  -26.3474   23.2141 C   0  0  0  0  0  0  0  0  0  0  0  0
  -21.4748  -24.8948   16.9677 C   0  0  0  0  0  0  0  0  0  0  0  0
  -30.1857  -25.6105   18.8389 C   0  0  0  0  0  0  0  0  0  0  0  0
  -29.3890  -26.8851   19.0362 C   0  0  0  0  0  0  0  0  0  1  0  0
  -21.1559  -26.0516   21.8046 C   0  0  1  0  0  0  0  0  0  0  0  0
  -20.0519  -23.9991   18.8149 C   0  0  2  0  0  0  0  0  0  0  0  0
  -20.5275  -25.8151   23.2070 C   0  0  0  0  0  0  0  0  0  0  0  0
  -24.2549  -18.4699   21.1352 N   0  0  0  0  0  0  0  0  0  0  0  0
  -25.1183  -17.5257   20.7239 N   0  0  0  0  0  0  0  0  0  0  0  0
  -22.5467  -28.0122   21.2169 N   0  0  0  0  0  0  0  0  0  0  0  0
  -27.8774  -19.8039   19.5745 N   0  0  0  0  0  0  0  0  0  0  0  0
  -29.0420  -21.4418   18.2806 N   0  0  0  0  0  0  0  0  0  0  0  0
  -25.3086  -15.2085   20.2713 N   0  0  0  0  0  0  0  0  0  0  0  0
  -21.0136  -15.6629   21.5913 N   0  0  0  0  0  0  0  0  0  0  0  0
  -23.2839  -31.3539   22.4763 N   0  0  0  0  0  0  0  0  0  0  0  0
  -20.4254  -25.4238   20.7089 N   0  0  0  0  0  0  0  0  0  0  0  0
  -29.2544  -24.4928   18.5246 N   0  3  1  0  0  0  0  0  0  0  0  0
  -20.7716  -23.7182   17.5405 N   0  3  0  0  0  0  0  0  0  0  0  0
  -22.5977  -14.1590   20.8931 O   0  0  0  0  0  0  0  0  0  0  0  0
  -23.2900  -29.1980   23.3563 O   0  0  0  0  0  0  0  0  0  0  0  0
  -20.2297  -28.1974   21.3997 O   0  0  0  0  0  0  0  0  0  0  0  0
  -22.1879  -24.1298   19.9366 O   0  0  0  0  0  0  0  0  0  0  0  0
  -27.5529  -20.0421   17.3072 O   0  0  0  0  0  0  0  0  0  0  0  0
  -18.5227  -20.4052   23.1217 O   0  0  0  0  0  0  0  0  0  0  0  0
  -28.4876  -26.7193   20.1227 O   0  0  0  0  0  0  0  0  0  1  0  0
  -13.7563  -19.1656   20.6421 F   0  0  0  0  0  0  0  0  0  0  0  0
  -17.0533  -22.3513   21.8194 F   0  0  0  0  0  0  0  0  0  0  0  0
  1  2  1  0  0  0  0
  1  5  2  0  0  0  0
  2  6  2  0  0  0  0
  3  8  2  0  0  0  0
  3 15  1  0  0  0  0
  4  9  1  0  0  0  0
  4 15  2  0  0  0  0
  5 17  1  0  0  0  0
  6 19  1  0  0  0  0
  7 10  2  0  0  0  0
  7 18  1  0  0  0  0
  8 21  1  0  0  0  0
  9 21  2  0  0  0  0
 10 22  1  0  0  0  0
 11 12  2  0  0  0  0
 11 23  1  0  0  0  0
 12 24  1  0  0  0  0
 13 20  1  0  0  0  0
 13 22  2  0  0  0  0
 14 24  2  0  0  0  0
 14 25  1  0  0  0  0
 15 26  1  0  0  0  0
 16 26  1  0  0  0  0
 16 27  2  0  0  0  0
 16 28  1  0  0  0  0
 17 19  2  0  0  0  0
 17 33  1  0  0  0  0
 18 20  2  0  0  0  0
 18 34  1  0  0  0  0
 19 45  1  0  0  0  0
 20 35  1  0  0  0  0
 21 76  1  0  0  0  0
 22 77  1  0  0  0  0
 23 25  2  0  0  0  0
 23 76  1  0  0  0  0
 24 78  1  0  0  0  0
 25 79  1  0  0  0  0
 26 60  2  0  0  0  0
 27 61  1  0  0  0  0
 27 65  1  0  0  0  0
 28 66  1  0  0  0  0
 28 71  2  0  0  0  0
 29 46  1  0  0  0  0
 29 67  1  0  0  0  0
 29 72  2  0  0  0  0
 30 57  1  0  0  0  0
 30 62  1  0  0  0  0
 30 73  2  0  0  0  0
 31 58  1  0  0  0  0
 31 68  1  0  0  0  0
 31 74  2  0  0  0  0
 32 63  1  0  0  0  0
 32 64  1  0  0  0  0
 32 75  2  0  0  0  0
 33 36  1  0  0  0  0
 34 46  1  0  0  0  0
 35 62  1  0  0  0  0
 36 38  1  0  0  0  0
 37 39  1  0  0  0  0
 37 41  1  0  0  0  0
 38 45  1  0  0  0  0
 39 47  1  0  0  0  0
 40 44  1  0  0  0  0
 40 48  1  0  0  0  0
 41 63  1  0  0  0  0
 42 47  1  0  0  0  0
 42 63  1  0  0  0  0
 43 49  1  0  0  0  0
 43 64  1  0  0  0  0
 44 69  1  0  0  0  0
 45 67  1  0  0  0  0
 46 62  1  0  0  0  0
 47 61  1  0  0  0  0
 48 49  1  0  0  0  0
 48 64  1  0  0  0  0
 49 69  1  0  0  0  0
 50 58  1  0  0  0  0
 51 59  1  0  0  0  0
 52 59  1  0  0  0  0
 53 59  1  0  0  0  0
 54 70  1  0  0  0  0
 55 56  1  0  0  0  0
 55 69  1  0  0  0  0
 56 77  1  0  0  0  0
 57 59  1  0  0  0  0
 57 68  1  0  0  0  0
 58 70  1  0  0  0  0
 60 61  1  0  0  0  0
M  CHG  2  69   1  70   1
M  ISO  4  32 100  56 101  64 100  77 101
M  END
> <Batch ID>
0198

> <Smiles>
CNC(C)C(=O)NC(C(=O)N1Cc2cc([101O:1][101CH2:1]CN3CCC4C3C[100N:0]4[100C:0](=O)N3CCCC(n4nc(-c5ccc(Oc6ccc(F)cc6F)cc5)c(C(N)=O)c4N)C3)ccc2CC1C(=O)NC1CCCc2ccccc21)C(C)(C)C

> <Shape>
0.206

> <Color>
0.103

> <Negative vol penalty>
0.000

$$$$

  -OEChem-04052323483D

 83 92  0     1  0  0  0  0  0999 V2000
  -31.9620   -5.3355   21.2895 C   0  0  0  0  0  0  0  0  0  0  0  0
  -32.3754   -6.3694   20.4555 C   0  0  0  0  0  0  0  0  0  0  0  0
  -23.4462  -31.5163   23.9975 C   0  0  0  0  0  0  0  0  0  0  0  0
  -24.6792  -29.5553   24.6841 C   0  0  0  0  0  0  0  0  0  0  0  0
  -30.6018   -5.0834   21.4636 C   0  0  0  0  0  0  0  0  0  0  0  0
  -31.4289   -7.1511   19.7942 C   0  0  0  0  0  0  0  0  0  0  0  0
  -31.1722  -14.2832   20.7735 C   0  0  0  0  0  0  0  0  0  0  0  0
  -23.1526  -31.7988   25.3314 C   0  0  0  0  0  0  0  0  0  0  0  0
  -24.3856  -29.8379   26.0182 C   0  0  0  0  0  0  0  0  0  0  0  0
  -31.1941  -15.6778   20.7456 C   0  0  0  0  0  0  0  0  0  0  0  0
  -21.7640  -29.4774   28.1225 C   0  0  0  0  0  0  0  0  0  0  0  0
  -21.3434  -28.4216   28.9312 C   0  0  0  0  0  0  0  0  0  0  0  0
  -29.2579  -15.6900   19.2969 C   0  0  0  0  0  0  0  0  0  0  0  0
  -23.2355  -28.7846   30.3892 C   0  0  0  0  0  0  0  0  0  0  0  0
  -24.2095  -30.3945   23.6738 C   0  0  0  0  0  0  0  0  0  0  0  0
  -23.5948  -29.8518   21.2581 C   0  0  0  0  0  0  0  0  0  0  0  0
  -29.6379   -5.8687   20.8116 C   0  0  0  0  0  0  0  0  0  0  0  0
  -30.1825  -13.5863   20.0747 C   0  0  0  0  0  0  0  0  0  0  0  0
  -30.0546   -6.9085   19.9586 C   0  0  0  0  0  0  0  0  0  0  0  0
  -29.2234  -14.2934   19.3312 C   0  0  0  0  0  0  0  0  0  0  0  0
  -23.6223  -30.9597   26.3418 C   0  0  0  0  0  0  0  0  0  0  0  0
  -30.2395  -16.3794   20.0090 C   0  0  0  0  0  0  0  0  0  0  0  0
  -22.9204  -30.1868   28.4471 C   0  0  0  0  0  0  0  0  0  0  0  0
  -22.0791  -28.0753   30.0645 C   0  0  0  0  0  0  0  0  0  0  0  0
  -23.6561  -29.8404   29.5804 C   0  0  0  0  0  0  0  0  0  0  0  0
  -24.5126  -30.1017   22.2959 C   0  0  0  0  0  0  0  0  0  0  0  0
  -24.3788  -29.6309   20.1522 C   0  0  0  0  0  0  0  0  0  0  0  0
  -22.1617  -29.8221   21.2908 C   0  0  0  0  0  0  0  0  0  0  0  0
  -28.7193  -10.2576   19.1502 C   0  0  0  0  0  0  0  0  0  0  0  0
  -26.3639  -12.1471   19.6906 C   0  0  0  0  0  0  0  0  0  0  0  0
  -23.3615  -13.5354   20.5245 C   0  0  0  0  0  0  0  0  0  0  0  0
  -28.8259  -27.2529   17.7707 C   0  0  0  0  0  0  0  0  0  0  0  0
  -28.1800   -5.5281   20.9938 C   0  0  0  0  0  0  0  0  0  0  0  0
  -30.1573  -12.0827   20.0265 C   0  0  0  0  0  0  0  0  0  0  0  0
  -28.1984  -13.5009   18.5669 C   0  0  0  0  0  0  0  0  0  0  0  0
  -27.2344   -6.6415   20.5505 C   0  0  0  0  0  0  0  0  0  0  0  0
  -29.3107  -30.3498   19.3964 C   0  0  0  0  0  0  0  0  0  0  0  0
  -27.6515   -7.1850   19.1876 C   0  0  0  0  0  0  0  0  0  0  0  0
  -28.0509  -30.5357   20.2375 C   0  0  0  0  0  0  0  0  0  0  0  0
  -27.6728  -23.8523   16.8680 C   0  0  0  0  0  0  0  0  0  0  0  0
  -30.3528  -22.7673   20.7453 C   0  0  0  0  0  0  0  0  0  0  0  0
  -29.7387  -28.8886   19.3803 C   0  0  0  0  0  0  0  0  0  0  0  0
  -28.3877  -25.1542   16.5361 C   0  0  0  0  0  0  0  0  0  0  0  0
  -27.3937  -28.1381   19.6754 C   0  0  0  0  0  0  0  0  0  0  0  0
  -27.6211  -25.2389   18.8124 C   0  0  0  0  0  0  0  0  0  0  0  0
  -31.1661  -21.7015   20.0375 C   0  0  0  0  0  0  0  0  0  0  0  0
  -28.7767  -21.1840   19.8642 C   0  0  0  0  0  0  0  0  0  0  0  0
  -29.0576   -7.7943   19.2435 C   0  0  1  0  0  0  0  0  0  0  0  0
  -28.7316  -11.5040   19.9855 C   0  0  1  0  0  0  0  0  0  0  0  0
  -26.9291  -29.6076   19.7461 C   0  0  1  0  0  0  0  0  0  0  0  0
  -27.7706  -23.7829   18.3881 C   0  0  2  0  0  0  0  0  0  0  0  0
  -29.0020  -22.6751   20.0586 C   0  0  2  0  0  0  0  0  0  0  0  0
  -20.9063  -13.3589   20.0363 C   0  0  0  0  0  0  0  0  0  0  0  0
  -26.7985  -13.5496   17.0170 C   0  0  0  0  0  0  0  0  0  0  0  0
  -24.3769  -14.1850   17.0373 C   0  0  0  0  0  0  0  0  0  0  0  0
  -25.0328  -11.7787   16.9916 C   0  0  0  0  0  0  0  0  0  0  0  0
  -22.7295  -12.8886   23.3425 C   0  0  0  0  0  0  0  0  0  0  0  0
  -30.4559  -19.7282   18.6429 C   0  0  0  0  0  0  0  0  0  0  0  0
  -29.7781  -18.3829   18.8129 C   0  0  0  0  0  0  0  0  0  1  0  0
  -25.3585  -13.1120   19.1148 C   0  0  1  0  0  0  0  0  0  0  0  0
  -22.0429  -12.9091   20.9411 C   0  0  2  0  0  0  0  0  0  0  0  0
  -25.4087  -13.1637   17.5617 C   0  0  0  0  0  0  0  0  0  0  0  0
  -25.7825  -30.0449   21.8859 N   0  0  0  0  0  0  0  0  0  0  0  0
  -25.6683  -29.7566   20.5783 N   0  0  0  0  0  0  0  0  0  0  0  0
  -27.7110  -12.3834   19.3905 N   0  0  0  0  0  0  0  0  0  0  0  0
  -28.6555  -28.0100   18.9351 N   0  0  0  0  0  0  0  0  0  0  0  0
  -28.2037  -26.0065   17.7058 N   0  0  0  0  0  0  0  0  0  0  0  0
  -24.0840  -29.3432   18.8666 N   0  0  0  0  0  0  0  0  0  0  0  0
  -21.5248  -28.6049   21.5685 N   0  0  0  0  0  0  0  0  0  0  0  0
  -29.0163   -9.1059   19.8537 N   0  0  0  0  0  0  0  0  0  0  0  0
  -24.0617  -12.7228   19.6581 N   0  0  0  0  0  0  0  0  0  0  0  0
  -30.1734  -20.5780   19.8403 N   0  3  1  0  0  0  0  0  0  0  0  0
  -21.7077  -13.2911   22.3420 N   0  3  0  0  0  0  0  0  0  0  0  0
  -21.4663  -30.8411   21.0639 O   0  0  0  0  0  0  0  0  0  0  0  0
  -28.4582  -10.3335   17.9553 O   0  0  0  0  0  0  0  0  0  0  0  0
  -25.9680  -11.2054   20.3831 O   0  0  0  0  0  0  0  0  0  0  0  0
  -23.7315  -14.6370   20.9245 O   0  0  0  0  0  0  0  0  0  0  0  0
  -29.5406  -27.6543   16.8423 O   0  0  0  0  0  0  0  0  0  0  0  0
  -23.3362  -31.2352   27.6436 O   0  0  0  0  0  0  0  0  0  0  0  0
  -30.2641  -17.7507   19.9896 O   0  0  0  0  0  0  0  0  0  1  0  0
  -29.0511  -23.3078   18.7840 O   0  0  0  0  0  0  0  0  0  0  0  0
  -21.6742  -27.0623   30.8419 F   0  0  0  0  0  0  0  0  0  0  0  0
  -24.7672  -30.5190   29.8980 F   0  0  0  0  0  0  0  0  0  0  0  0
  1  2  1  0  0  0  0
  1  5  2  0  0  0  0
  2  6  2  0  0  0  0
  3  8  2  0  0  0  0
  3 15  1  0  0  0  0
  4  9  1  0  0  0  0
  4 15  2  0  0  0  0
  5 17  1  0  0  0  0
  6 19  1  0  0  0  0
  7 10  2  0  0  0  0
  7 18  1  0  0  0  0
  8 21  1  0  0  0  0
  9 21  2  0  0  0  0
 10 22  1  0  0  0  0
 11 12  2  0  0  0  0
 11 23  1  0  0  0  0
 12 24  1  0  0  0  0
 13 20  1  0  0  0  0
 13 22  2  0  0  0  0
 14 24  2  0  0  0  0
 14 25  1  0  0  0  0
 15 26  1  0  0  0  0
 16 26  1  0  0  0  0
 16 27  2  0  0  0  0
 16 28  1  0  0  0  0
 17 19  2  0  0  0  0
 17 33  1  0  0  0  0
 18 20  2  0  0  0  0
 18 34  1  0  0  0  0
 19 48  1  0  0  0  0
 20 35  1  0  0  0  0
 21 79  1  0  0  0  0
 22 80  1  0  0  0  0
 23 25  2  0  0  0  0
 23 79  1  0  0  0  0
 24 82  1  0  0  0  0
 25 83  1  0  0  0  0
 26 63  2  0  0  0  0
 27 64  1  0  0  0  0
 27 68  1  0  0  0  0
 28 69  1  0  0  0  0
 28 74  2  0  0  0  0
 29 49  1  0  0  0  0
 29 70  1  0  0  0  0
 29 75  2  0  0  0  0
 30 60  1  0  0  0  0
 30 65  1  0  0  0  0
 30 76  2  0  0  0  0
 31 61  1  0  0  0  0
 31 71  1  0  0  0  0
 31 77  2  0  0  0  0
 32 66  1  0  0  0  0
 32 67  1  0  0  0  0
 32 78  2  0  0  0  0
 33 36  1  0  0  0  0
 34 49  1  0  0  0  0
 35 65  1  0  0  0  0
 36 38  1  0  0  0  0
 37 39  1  0  0  0  0
 37 42  1  0  0  0  0
 38 48  1  0  0  0  0
 39 50  1  0  0  0  0
 40 43  1  0  0  0  0
 40 51  1  0  0  0  0
 41 46  1  0  0  0  0
 41 52  1  0  0  0  0
 42 66  1  0  0  0  0
 43 67  1  0  0  0  0
 44 50  1  0  0  0  0
 44 66  1  0  0  0  0
 45 51  1  0  0  0  0
 45 67  1  0  0  0  0
 46 72  1  0  0  0  0
 47 52  1  0  0  0  0
 47 72  1  0  0  0  0
 48 70  1  0  0  0  0
 49 65  1  0  0  0  0
 50 64  1  0  0  0  0
 51 81  1  0  0  0  0
 52 81  1  0  0  0  0
 53 61  1  0  0  0  0
 54 62  1  0  0  0  0
 55 62  1  0  0  0  0
 56 62  1  0  0  0  0
 57 73  1  0  0  0  0
 58 59  1  0  0  0  0
 58 72  1  0  0  0  0
 59 80  1  0  0  0  0
 60 62  1  0  0  0  0
 60 71  1  0  0  0  0
 61 73  1  0  0  0  0
 63 64  1  0  0  0  0
M  CHG  2  72   1  73   1
M  ISO  4  32 100  59 101  67 100  80 101
M  END
> <Batch ID>
0198

> <Smiles>
CNC(C)C(=O)NC(C(=O)N1Cc2cc([101O:1][101CH2:1]CN3CCC(OC4CC[100N:0]([100C:0](=O)N5CCCC(n6nc(-c7ccc(Oc8ccc(F)cc8F)cc7)c(C(N)=O)c6N)C5)C4)C3)ccc2CC1C(=O)NC1CCCc2ccccc21)C(C)(C)C

> <Shape>
0.225

> <Color>
0.110

> <Negative vol penalty>
0.000

$$$$

  -OEChem-04052323483D

 88 98  0     1  0  0  0  0  0999 V2000
  -17.2920  -27.2313   22.7247 C   0  0  0  0  0  0  0  0  0  0  0  0
  -18.3835  -26.6536   22.0840 C   0  0  0  0  0  0  0  0  0  0  0  0
  -24.7112   -8.6956   21.1925 C   0  0  0  0  0  0  0  0  0  0  0  0
  -22.9248   -9.8973   20.0961 C   0  0  0  0  0  0  0  0  0  0  0  0
  -17.4425  -28.4408   23.4017 C   0  0  0  0  0  0  0  0  0  0  0  0
  -19.6259  -27.2858   22.1191 C   0  0  0  0  0  0  0  0  0  0  0  0
  -25.1221  -24.5928   22.3313 C   0  0  0  0  0  0  0  0  0  0  0  0
  -23.8365   -7.6438   21.4648 C   0  0  0  0  0  0  0  0  0  0  0  0
  -22.0501   -8.8454   20.3684 C   0  0  0  0  0  0  0  0  0  0  0  0
  -26.0659  -24.3081   21.3454 C   0  0  0  0  0  0  0  0  0  0  0  0
  -21.3953   -6.9491   23.6969 C   0  0  0  0  0  0  0  0  0  0  0  0
  -21.4205   -6.4018   24.9796 C   0  0  0  0  0  0  0  0  0  0  0  0
  -27.2427  -26.3413   21.8933 C   0  0  0  0  0  0  0  0  0  0  0  0
  -22.0092   -4.2508   24.0503 C   0  0  0  0  0  0  0  0  0  0  0  0
  -24.2553   -9.8224   20.5082 C   0  0  0  0  0  0  0  0  0  0  0  0
  -25.9663  -11.0699   19.0856 C   0  0  0  0  0  0  0  0  0  0  0  0
  -18.6896  -29.0833   23.4532 C   0  0  0  0  0  0  0  0  0  0  0  0
  -25.2257  -25.7614   23.0996 C   0  0  0  0  0  0  0  0  0  0  0  0
  -19.7929  -28.5057   22.7963 C   0  0  0  0  0  0  0  0  0  0  0  0
  -26.3004  -26.6373   22.8901 C   0  0  0  0  0  0  0  0  0  0  0  0
  -22.5060   -7.7186   21.0527 C   0  0  0  0  0  0  0  0  0  0  0  0
  -27.1248  -25.1839   21.1243 C   0  0  0  0  0  0  0  0  0  0  0  0
  -21.6770   -6.1472   22.5908 C   0  0  0  0  0  0  0  0  0  0  0  0
  -21.7275   -5.0527   25.1564 C   0  0  0  0  0  0  0  0  0  0  0  0
  -21.9839   -4.7981   22.7675 C   0  0  0  0  0  0  0  0  0  0  0  0
  -25.1582  -10.9096   20.2271 C   0  0  0  0  0  0  0  0  0  0  0  0
  -26.6304  -12.2532   19.2986 C   0  0  0  0  0  0  0  0  0  0  0  0
  -26.1043  -10.2249   17.9356 C   0  0  0  0  0  0  0  0  0  0  0  0
  -23.4126  -28.3383   23.5188 C   0  0  0  0  0  0  0  0  0  0  0  0
  -25.6260  -29.0486   25.7813 C   0  0  0  0  0  0  0  0  0  0  0  0
  -28.8086  -28.6495   26.9470 C   0  0  0  0  0  0  0  0  0  0  0  0
  -26.0982  -17.6863   20.8981 C   0  0  0  0  0  0  0  0  0  0  0  0
  -18.7925  -30.4131   24.1573 C   0  0  0  0  0  0  0  0  0  0  0  0
  -24.2144  -26.0406   24.1774 C   0  0  0  0  0  0  0  0  0  0  0  0
  -26.4682  -27.8950   23.7016 C   0  0  0  0  0  0  0  0  0  0  0  0
  -20.2285  -30.8303   24.4641 C   0  0  0  0  0  0  0  0  0  0  0  0
  -27.0210  -15.1352   23.4242 C   0  0  0  0  0  0  0  0  0  0  0  0
  -21.1167  -30.6260   23.2408 C   0  0  0  0  0  0  0  0  0  0  0  0
  -28.3687  -21.4574   13.6107 C   0  0  0  0  0  0  0  0  0  0  0  0
  -26.6094  -13.8316   22.7424 C   0  0  0  0  0  0  0  0  0  0  0  0
  -27.8524  -20.1221   14.1883 C   0  0  0  0  0  0  0  0  0  0  0  0
  -26.3869  -19.7805   18.1471 C   0  0  0  0  0  0  0  0  0  0  0  0
  -28.0100  -17.8553   17.9436 C   0  0  0  0  0  0  0  0  0  0  0  0
  -29.6259  -26.3532   19.0600 C   0  0  0  0  0  0  0  0  0  0  0  0
  -26.1783  -16.3142   22.9481 C   0  0  0  0  0  0  0  0  0  0  0  0
  -25.3965  -18.8317   18.8170 C   0  0  0  0  0  0  0  0  0  0  0  0
  -26.9942  -16.9479   18.6440 C   0  0  0  0  0  0  0  0  0  0  0  0
  -25.7611  -15.1860   20.7859 C   0  0  0  0  0  0  0  0  0  0  0  0
  -30.3460  -25.2338   18.3357 C   0  0  0  0  0  0  0  0  0  0  0  0
  -27.9652  -25.1920   17.7614 C   0  0  0  0  0  0  0  0  0  0  0  0
  -21.1624  -29.1485   22.8328 C   0  0  1  0  0  0  0  0  0  0  0  0
  -24.1320  -27.5173   24.5513 C   0  0  1  0  0  0  0  0  0  0  0  0
  -28.9416  -21.7643   15.0194 C   0  0  2  0  0  0  0  0  0  0  0  0
  -26.6214  -13.9868   21.2120 C   0  0  2  0  0  0  0  0  0  0  0  0
  -27.8516  -20.8061   15.5734 C   0  0  2  0  0  0  0  0  0  0  0  0
  -27.3129  -19.0021   17.2148 C   0  0  0  0  0  0  0  0  0  0  0  0
  -28.1897  -25.8610   19.1085 C   0  0  1  0  0  0  0  0  0  1  0  0
  -30.3356  -29.3860   28.7971 C   0  0  0  0  0  0  0  0  0  0  0  0
  -25.9689  -31.7562   24.4171 C   0  0  0  0  0  0  0  0  0  0  0  0
  -28.1096  -32.0447   25.6829 C   0  0  0  0  0  0  0  0  0  0  0  0
  -25.9509  -31.8422   26.9164 C   0  0  0  0  0  0  0  0  0  0  0  0
  -29.1560  -25.8765   27.9209 C   0  0  0  0  0  0  0  0  0  0  0  0
  -28.8669  -23.2074   15.4760 C   0  0  0  0  0  0  0  0  0  0  0  0
  -29.4947  -23.3873   16.8509 C   0  0  0  0  0  0  0  0  0  0  0  0
  -26.9353  -29.8000   25.7974 C   0  0  1  0  0  0  0  0  0  0  0  0
  -29.3415  -28.3330   28.3327 C   0  0  2  0  0  0  0  0  0  0  0  0
  -26.7372  -31.3381   25.6867 C   0  0  0  0  0  0  0  0  0  0  0  0
  -25.2949  -11.9108   21.1005 N   0  0  0  0  0  0  0  0  0  0  0  0
  -26.1968  -12.7116   20.5077 N   0  0  0  0  0  0  0  0  0  0  0  0
  -25.4500  -28.1271   24.7393 N   0  0  0  0  0  0  0  0  0  0  0  0
  -26.1662  -16.4132   21.4885 N   0  0  0  0  0  0  0  0  0  0  0  0
  -26.0914  -17.7362   19.4959 N   0  0  0  0  0  0  0  0  0  0  0  0
  -27.5372  -12.9358   18.5677 N   0  0  0  0  0  0  0  0  0  0  0  0
  -25.3480   -9.0463   17.8778 N   0  0  0  0  0  0  0  0  0  0  0  0
  -22.0458  -28.4093   23.7089 N   0  0  0  0  0  0  0  0  0  0  0  0
  -27.6361  -29.3730   27.0036 N   0  0  0  0  0  0  0  0  0  0  0  0
  -29.3576  -24.8027   17.2702 N   0  3  2  0  0  0  0  0  0  0  0  0
  -28.3402  -19.9262   16.6686 N   0  3  0  0  0  0  0  0  0  0  0  0
  -30.0244  -27.0084   28.3351 N   0  3  0  0  0  0  0  0  0  0  0  0
  -26.8877  -10.4984   16.9948 O   0  0  0  0  0  0  0  0  0  0  0  0
  -24.0506  -28.8693   22.6173 O   0  0  0  0  0  0  0  0  0  0  0  0
  -24.7932  -29.2659   26.6649 O   0  0  0  0  0  0  0  0  0  0  0  0
  -29.3776  -28.2939   25.9173 O   0  0  0  0  0  0  0  0  0  0  0  0
  -26.0489  -18.7151   21.5837 O   0  0  0  0  0  0  0  0  0  0  0  0
  -21.6523   -6.6923   21.3180 O   0  0  0  0  0  0  0  0  0  0  0  0
  -28.0530  -24.9069   20.1558 O   0  0  0  0  0  0  0  0  0  1  0  0
  -21.7532   -4.5276   26.3884 F   0  0  0  0  0  0  0  0  0  0  0  0
  -22.2565   -4.0230   21.7089 F   0  0  0  0  0  0  0  0  0  0  0  0
  1  2  1  0  0  0  0
  1  5  2  0  0  0  0
  2  6  2  0  0  0  0
  3  8  2  0  0  0  0
  3 15  1  0  0  0  0
  4  9  1  0  0  0  0
  4 15  2  0  0  0  0
  5 17  1  0  0  0  0
  6 19  1  0  0  0  0
  7 10  2  0  0  0  0
  7 18  1  0  0  0  0
  8 21  1  0  0  0  0
  9 21  2  0  0  0  0
 10 22  1  0  0  0  0
 11 12  2  0  0  0  0
 11 23  1  0  0  0  0
 12 24  1  0  0  0  0
 13 20  1  0  0  0  0
 13 22  2  0  0  0  0
 14 24  2  0  0  0  0
 14 25  1  0  0  0  0
 15 26  1  0  0  0  0
 16 26  1  0  0  0  0
 16 27  2  0  0  0  0
 16 28  1  0  0  0  0
 17 19  2  0  0  0  0
 17 33  1  0  0  0  0
 18 20  2  0  0  0  0
 18 34  1  0  0  0  0
 19 51  1  0  0  0  0
 20 35  1  0  0  0  0
 21 85  1  0  0  0  0
 22 86  1  0  0  0  0
 23 25  2  0  0  0  0
 23 85  1  0  0  0  0
 24 87  1  0  0  0  0
 25 88  1  0  0  0  0
 26 68  2  0  0  0  0
 27 69  1  0  0  0  0
 27 73  1  0  0  0  0
 28 74  1  0  0  0  0
 28 80  2  0  0  0  0
 29 52  1  0  0  0  0
 29 75  1  0  0  0  0
 29 81  2  0  0  0  0
 30 65  1  0  0  0  0
 30 70  1  0  0  0  0
 30 82  2  0  0  0  0
 31 66  1  0  0  0  0
 31 76  1  0  0  0  0
 31 83  2  0  0  0  0
 32 71  1  0  0  0  0
 32 72  1  0  0  0  0
 32 84  2  0  0  0  0
 33 36  1  0  0  0  0
 34 52  1  0  0  0  0
 35 70  1  0  0  0  0
 36 38  1  0  0  0  0
 37 40  1  0  0  0  0
 37 45  1  0  0  0  0
 38 51  1  0  0  0  0
 39 41  1  0  0  0  0
 39 53  1  0  0  0  0
 40 54  1  0  0  0  0
 41 55  1  0  0  0  0
 42 46  1  0  0  0  0
 42 56  1  0  0  0  0
 43 47  1  0  0  0  0
 43 56  1  0  0  0  0
 44 49  1  0  0  0  0
 44 57  1  0  0  0  0
 45 71  1  0  0  0  0
 46 72  1  0  0  0  0
 47 72  1  0  0  0  0
 48 54  1  0  0  0  0
 48 71  1  0  0  0  0
 49 77  1  0  0  0  0
 50 57  1  0  0  0  0
 50 77  1  0  0  0  0
 51 75  1  0  0  0  0
 52 70  1  0  0  0  0
 53 55  1  0  0  0  0
 53 63  1  0  0  0  0
 54 69  1  0  0  0  0
 55 78  1  0  0  0  0
 56 78  1  0  0  0  0
 57 86  1  0  0  0  0
 58 66  1  0  0  0  0
 59 67  1  0  0  0  0
 60 67  1  0  0  0  0
 61 67  1  0  0  0  0
 62 79  1  0  0  0  0
 63 64  1  0  0  0  0
 64 77  1  0  0  0  0
 65 67  1  0  0  0  0
 65 76  1  0  0  0  0
 66 79  1  0  0  0  0
 68 69  1  0  0  0  0
M  CHG  3  77   1  78   1  79   1
M  ISO  4  32 100  57 101  72 100  86 101
M  END
> <Batch ID>
0198

> <Smiles>
CNC(C)C(=O)NC(C(=O)N1Cc2cc([101O:1][101CH:1]3CCN(CCC4CCC4NC4CC[100N:0]([100C:0](=O)N5CCCC(n6nc(-c7ccc(Oc8ccc(F)cc8F)cc7)c(C(N)=O)c6N)C5)CC4)C3)ccc2CC1C(=O)NC1CCCc2ccccc21)C(C)(C)C

> <Shape>
0.261

> <Color>
0.092

> <Negative vol penalty>
0.000

$$$$

  -OEChem-04052323483D

 86 95  0     1  0  0  0  0  0999 V2000
  -29.4396  -35.6508   23.0522 C   0  0  0  0  0  0  0  0  0  0  0  0
  -29.4292  -34.2645   22.9361 C   0  0  0  0  0  0  0  0  0  0  0  0
  -24.0638   -9.6875   21.7926 C   0  0  0  0  0  0  0  0  0  0  0  0
  -21.9381  -10.4602   20.9431 C   0  0  0  0  0  0  0  0  0  0  0  0
  -28.2780  -36.3269   23.4231 C   0  0  0  0  0  0  0  0  0  0  0  0
  -28.2574  -33.5533   23.1920 C   0  0  0  0  0  0  0  0  0  0  0  0
  -27.3492  -29.9884   19.7119 C   0  0  0  0  0  0  0  0  0  0  0  0
  -23.5914   -8.3752   21.7813 C   0  0  0  0  0  0  0  0  0  0  0  0
  -21.4657   -9.1478   20.9317 C   0  0  0  0  0  0  0  0  0  0  0  0
  -28.0798  -28.8048   19.8072 C   0  0  0  0  0  0  0  0  0  0  0  0
  -21.6076   -6.4258   23.7019 C   0  0  0  0  0  0  0  0  0  0  0  0
  -21.8648   -5.6354   24.8221 C   0  0  0  0  0  0  0  0  0  0  0  0
  -26.1937  -27.7325   20.8617 C   0  0  0  0  0  0  0  0  0  0  0  0
  -23.0802   -4.0710   23.4392 C   0  0  0  0  0  0  0  0  0  0  0  0
  -23.2372  -10.7301   21.3736 C   0  0  0  0  0  0  0  0  0  0  0  0
  -24.3864  -12.7607   20.3425 C   0  0  0  0  0  0  0  0  0  0  0  0
  -27.0889  -35.6244   23.6743 C   0  0  0  0  0  0  0  0  0  0  0  0
  -26.0369  -30.0562   20.2015 C   0  0  0  0  0  0  0  0  0  0  0  0
  -27.0792  -34.2205   23.5680 C   0  0  0  0  0  0  0  0  0  0  0  0
  -25.4477  -28.9174   20.7691 C   0  0  0  0  0  0  0  0  0  0  0  0
  -22.2923   -8.1053   21.3508 C   0  0  0  0  0  0  0  0  0  0  0  0
  -27.5031  -27.6774   20.3848 C   0  0  0  0  0  0  0  0  0  0  0  0
  -22.0866   -6.0387   22.4503 C   0  0  0  0  0  0  0  0  0  0  0  0
  -22.6011   -4.4581   24.6907 C   0  0  0  0  0  0  0  0  0  0  0  0
  -22.8229   -4.8613   22.3190 C   0  0  0  0  0  0  0  0  0  0  0  0
  -23.7244  -12.0860   21.3857 C   0  0  0  0  0  0  0  0  0  0  0  0
  -24.6382  -14.0125   20.8485 C   0  0  0  0  0  0  0  0  0  0  0  0
  -24.7418  -12.2974   19.0330 C   0  0  0  0  0  0  0  0  0  0  0  0
  -24.5691  -31.7465   22.4580 C   0  0  0  0  0  0  0  0  0  0  0  0
  -21.9185  -30.3052   21.2666 C   0  0  0  0  0  0  0  0  0  0  0  0
  -20.5693  -27.6728   19.5646 C   0  0  0  0  0  0  0  0  0  0  0  0
  -22.9968  -18.5469   23.6575 C   0  0  0  0  0  0  0  0  0  0  0  0
  -25.8707  -36.3948   24.1185 C   0  0  0  0  0  0  0  0  0  0  0  0
  -25.2529  -31.3327   20.0669 C   0  0  0  0  0  0  0  0  0  0  0  0
  -24.0351  -28.9323   21.2914 C   0  0  0  0  0  0  0  0  0  0  0  0
  -24.5728  -35.5988   24.0077 C   0  0  0  0  0  0  0  0  0  0  0  0
  -24.2275  -15.8019   25.5619 C   0  0  0  0  0  0  0  0  0  0  0  0
  -24.7538  -34.1993   24.5868 C   0  0  0  0  0  0  0  0  0  0  0  0
  -24.2549  -14.6454   24.5611 C   0  0  0  0  0  0  0  0  0  0  0  0
  -26.3603  -18.6443   18.4900 C   0  0  0  0  0  0  0  0  0  0  0  0
  -23.0296  -16.7203   25.3305 C   0  0  0  0  0  0  0  0  0  0  0  0
  -22.9276  -16.0780   22.9533 C   0  0  0  0  0  0  0  0  0  0  0  0
  -26.5657  -20.0862   20.6138 C   0  0  0  0  0  0  0  0  0  0  0  0
  -24.4748  -20.2575   19.1840 C   0  0  0  0  0  0  0  0  0  0  0  0
  -25.8211  -33.4159   23.8132 C   0  0  1  0  0  0  0  0  0  0  0  0
  -24.1028  -31.4355   21.0639 C   0  0  1  0  0  0  0  0  0  0  0  0
  -27.1862  -19.7191   19.2695 C   0  0  2  0  0  0  0  0  0  0  0  0
  -26.8004  -20.6782   18.0902 C   0  0  1  0  0  0  0  0  0  0  0  0
  -24.1486  -15.1557   23.1114 C   0  0  2  0  0  0  0  0  0  0  0  0
  -25.4540  -19.8571   18.0725 C   0  0  1  0  0  0  0  0  0  0  0  0
  -24.7862  -19.7514   16.7132 C   0  0  0  0  0  0  0  0  0  0  0  0
  -18.3700  -26.7529   18.7810 C   0  0  0  0  0  0  0  0  0  0  0  0
  -21.2920  -29.3888   24.1087 C   0  0  0  0  0  0  0  0  0  0  0  0
  -19.6800  -27.7332   23.1450 C   0  0  0  0  0  0  0  0  0  0  0  0
  -19.3082  -30.1763   22.8054 C   0  0  0  0  0  0  0  0  0  0  0  0
  -21.3889  -27.8174   16.7245 C   0  0  0  0  0  0  0  0  0  0  0  0
  -26.7923  -22.1852   18.2894 C   0  0  0  0  0  0  0  0  0  0  0  0
  -22.9719  -20.2629   21.8647 C   0  0  0  0  0  0  0  0  0  0  0  0
  -24.3794  -20.7849   21.6443 C   0  0  0  0  0  0  0  0  0  0  0  0
  -28.1761  -22.6994   18.6529 C   0  0  0  0  0  0  0  0  0  0  0  0
  -29.3891  -24.7836   19.3034 C   0  0  0  0  0  0  0  0  0  0  0  0
  -29.1956  -26.2776   19.4727 C   0  0  0  0  0  0  0  0  0  1  0  0
  -21.1782  -29.0217   21.5556 C   0  0  1  0  0  0  0  0  0  0  0  0
  -19.5694  -27.6170   18.4239 C   0  0  2  0  0  0  0  0  0  0  0  0
  -20.3919  -29.0800   22.8957 C   0  0  0  0  0  0  0  0  0  0  0  0
  -23.5658  -12.8461   22.4725 N   0  0  0  0  0  0  0  0  0  0  0  0
  -24.1317  -14.0114   22.1149 N   0  0  0  0  0  0  0  0  0  0  0  0
  -23.3116  -30.2058   21.1428 N   0  0  0  0  0  0  0  0  0  0  0  0
  -22.9876  -17.1704   23.9371 N   0  0  0  0  0  0  0  0  0  0  0  0
  -25.2412  -15.1030   20.3294 N   0  0  0  0  0  0  0  0  0  0  0  0
  -24.4081  -10.9840   18.6756 N   0  0  0  0  0  0  0  0  0  0  0  0
  -25.2815  -32.9260   22.5629 N   0  0  0  0  0  0  0  0  0  0  0  0
  -20.3470  -28.7577   20.3861 N   0  0  0  0  0  0  0  0  0  0  0  0
  -22.9614  -18.8875   22.3108 N   0  0  0  0  0  0  0  0  0  0  0  0
  -25.0517  -19.9907   20.5652 N   0  3  2  0  0  0  0  0  0  0  0  0
  -20.2085  -27.0520   17.2019 N   0  3  0  0  0  0  0  0  0  0  0  0
  -28.1058  -24.1680   18.8811 N   0  3  0  0  0  0  0  0  0  0  0  0
  -25.3523  -13.0213   18.2103 O   0  0  0  0  0  0  0  0  0  0  0  0
  -24.3012  -30.9745   23.3711 O   0  0  0  0  0  0  0  0  0  0  0  0
  -21.2835  -31.3561   21.1479 O   0  0  0  0  0  0  0  0  0  0  0  0
  -21.4565  -26.8355   19.7143 O   0  0  0  0  0  0  0  0  0  0  0  0
  -23.0391  -19.4085   24.5423 O   0  0  0  0  0  0  0  0  0  0  0  0
  -21.8311   -6.8248   21.3393 O   0  0  0  0  0  0  0  0  0  0  0  0
  -28.2142  -26.5210   20.4796 O   0  0  0  0  0  0  0  0  0  1  0  0
  -22.8493   -3.7000   25.7668 F   0  0  0  0  0  0  0  0  0  0  0  0
  -23.2867   -4.4849   21.1194 F   0  0  0  0  0  0  0  0  0  0  0  0
  1  2  1  0  0  0  0
  1  5  2  0  0  0  0
  2  6  2  0  0  0  0
  3  8  2  0  0  0  0
  3 15  1  0  0  0  0
  4  9  1  0  0  0  0
  4 15  2  0  0  0  0
  5 17  1  0  0  0  0
  6 19  1  0  0  0  0
  7 10  2  0  0  0  0
  7 18  1  0  0  0  0
  8 21  1  0  0  0  0
  9 21  2  0  0  0  0
 10 22  1  0  0  0  0
 11 12  2  0  0  0  0
 11 23  1  0  0  0  0
 12 24  1  0  0  0  0
 13 20  1  0  0  0  0
 13 22  2  0  0  0  0
 14 24  2  0  0  0  0
 14 25  1  0  0  0  0
 15 26  1  0  0  0  0
 16 26  1  0  0  0  0
 16 27  2  0  0  0  0
 16 28  1  0  0  0  0
 17 19  2  0  0  0  0
 17 33  1  0  0  0  0
 18 20  2  0  0  0  0
 18 34  1  0  0  0  0
 19 45  1  0  0  0  0
 20 35  1  0  0  0  0
 21 83  1  0  0  0  0
 22 84  1  0  0  0  0
 23 25  2  0  0  0  0
 23 83  1  0  0  0  0
 24 85  1  0  0  0  0
 25 86  1  0  0  0  0
 26 66  2  0  0  0  0
 27 67  1  0  0  0  0
 27 70  1  0  0  0  0
 28 71  1  0  0  0  0
 28 78  2  0  0  0  0
 29 46  1  0  0  0  0
 29 72  1  0  0  0  0
 29 79  2  0  0  0  0
 30 63  1  0  0  0  0
 30 68  1  0  0  0  0
 30 80  2  0  0  0  0
 31 64  1  0  0  0  0
 31 73  1  0  0  0  0
 31 81  2  0  0  0  0
 32 69  1  0  0  0  0
 32 74  1  0  0  0  0
 32 82  2  0  0  0  0
 33 36  1  0  0  0  0
 34 46  1  0  0  0  0
 35 68  1  0  0  0  0
 36 38  1  0  0  0  0
 37 39  1  0  0  0  0
 37 41  1  0  0  0  0
 38 45  1  0  0  0  0
 39 49  1  0  0  0  0
 40 47  1  0  0  0  0
 40 50  1  0  0  0  0
 41 69  1  0  0  0  0
 42 49  1  0  0  0  0
 42 69  1  0  0  0  0
 43 47  1  0  0  0  0
 43 75  1  0  0  0  0
 44 50  1  0  0  0  0
 44 75  1  0  0  0  0
 45 72  1  0  0  0  0
 46 68  1  0  0  0  0
 47 48  1  0  0  0  0
 48 50  1  0  0  0  0
 48 57  1  0  0  0  0
 49 67  1  0  0  0  0
 50 51  1  0  0  0  0
 52 64  1  0  0  0  0
 53 65  1  0  0  0  0
 54 65  1  0  0  0  0
 55 65  1  0  0  0  0
 56 76  1  0  0  0  0
 57 60  1  0  0  0  0
 58 59  1  0  0  0  0
 58 74  1  0  0  0  0
 59 75  1  0  0  0  0
 60 77  1  0  0  0  0
 61 62  1  0  0  0  0
 61 77  1  0  0  0  0
 62 84  1  0  0  0  0
 63 65  1  0  0  0  0
 63 73  1  0  0  0  0
 64 76  1  0  0  0  0
 66 67  1  0  0  0  0
M  CHG  3  75   1  76   1  77   1
M  ISO  4  32 100  62 101  74 100  84 101
M  END
> <Batch ID>
0198

> <Smiles>
CNC(C)C(=O)NC(C(=O)N1Cc2cc([101O:1][101CH2:1]CNCCC3C4CN(CC[100NH:0][100C:0](=O)N5CCCC(n6nc(-c7ccc(Oc8ccc(F)cc8F)cc7)c(C(N)=O)c6N)C5)CC3(C)C4)ccc2CC1C(=O)NC1CCCc2ccccc21)C(C)(C)C

> <Shape>
0.274

> <Color>
0.117

> <Negative vol penalty>
0.000

$$$$

  -OEChem-04052323483D

 87 97  0     1  0  0  0  0  0999 V2000
  -31.7328  -37.6380   19.6535 C   0  0  0  0  0  0  0  0  0  0  0  0
  -31.7408  -36.2747   19.3767 C   0  0  0  0  0  0  0  0  0  0  0  0
  -23.9262   -9.3451   22.4593 C   0  0  0  0  0  0  0  0  0  0  0  0
  -24.9929   -7.6866   21.0633 C   0  0  0  0  0  0  0  0  0  0  0  0
  -31.1756  -38.1032   20.8439 C   0  0  0  0  0  0  0  0  0  0  0  0
  -31.1925  -35.3756   20.2907 C   0  0  0  0  0  0  0  0  0  0  0  0
  -28.2197  -30.1768   19.0098 C   0  0  0  0  0  0  0  0  0  0  0  0
  -22.7071   -8.6830   22.3143 C   0  0  0  0  0  0  0  0  0  0  0  0
  -23.7738   -7.0245   20.9183 C   0  0  0  0  0  0  0  0  0  0  0  0
  -28.6270  -28.8436   18.9907 C   0  0  0  0  0  0  0  0  0  0  0  0
  -21.0165   -4.6966   20.4753 C   0  0  0  0  0  0  0  0  0  0  0  0
  -21.0118   -3.3082   20.6089 C   0  0  0  0  0  0  0  0  0  0  0  0
  -27.7836  -28.5601   21.2329 C   0  0  0  0  0  0  0  0  0  0  0  0
  -30.8310  -24.4220   19.8289 C   0  0  0  0  0  0  0  0  0  0  0  0
  -21.8502   -3.5224   22.8646 C   0  0  0  0  0  0  0  0  0  0  0  0
  -25.0691   -8.8469   21.8338 C   0  0  0  0  0  0  0  0  0  0  0  0
  -27.2997   -9.3163   22.9791 C   0  0  0  0  0  0  0  0  0  0  0  0
  -30.6116  -37.2102   21.7686 C   0  0  0  0  0  0  0  0  0  0  0  0
  -27.6000  -30.7155   20.1465 C   0  0  0  0  0  0  0  0  0  0  0  0
  -30.6285  -35.8291   21.4952 C   0  0  0  0  0  0  0  0  0  0  0  0
  -27.3670  -29.8997   21.2629 C   0  0  0  0  0  0  0  0  0  0  0  0
  -31.0949  -23.0674   19.9313 C   0  0  0  0  0  0  0  0  0  0  0  0
  -22.6309   -7.5227   21.5439 C   0  0  0  0  0  0  0  0  0  0  0  0
  -28.4116  -28.0358   20.1035 C   0  0  0  0  0  0  0  0  0  0  0  0
  -21.4381   -5.4980   21.5363 C   0  0  0  0  0  0  0  0  0  0  0  0
  -21.4286   -2.7211   21.8036 C   0  0  0  0  0  0  0  0  0  0  0  0
  -21.8549   -4.9109   22.7310 C   0  0  0  0  0  0  0  0  0  0  0  0
  -26.3286   -9.5307   21.9827 C   0  0  0  0  0  0  0  0  0  0  0  0
  -29.7671  -24.8152   19.0422 C   0  0  0  0  0  0  0  0  0  0  0  0
  -30.2771  -22.1958   19.2406 C   0  0  0  0  0  0  0  0  0  0  0  0
  -28.3000  -10.2091   22.6814 C   0  0  0  0  0  0  0  0  0  0  0  0
  -27.2977   -8.3926   24.0757 C   0  0  0  0  0  0  0  0  0  0  0  0
  -28.3020  -33.0445   22.1927 C   0  0  0  0  0  0  0  0  0  0  0  0
  -25.3472  -32.3831   23.3562 C   0  0  0  0  0  0  0  0  0  0  0  0
  -22.8111  -30.1271   23.7104 C   0  0  0  0  0  0  0  0  0  0  0  0
  -28.1212  -15.3855   19.8004 C   0  0  0  0  0  0  0  0  0  0  0  0
  -30.0634  -37.7559   23.0634 C   0  0  0  0  0  0  0  0  0  0  0  0
  -27.1423  -32.1483   20.1413 C   0  0  0  0  0  0  0  0  0  0  0  0
  -26.6876  -30.4243   22.5005 C   0  0  0  0  0  0  0  0  0  0  0  0
  -29.1665  -36.7706   23.8084 C   0  0  0  0  0  0  0  0  0  0  0  0
  -30.2965  -12.5356   19.0350 C   0  0  0  0  0  0  0  0  0  0  0  0
  -33.6143  -23.1241   20.4999 C   0  0  0  0  0  0  0  0  0  0  0  0
  -33.2831  -21.7089   20.1423 C   0  0  0  0  0  0  0  0  0  0  0  0
  -29.8161  -35.3915   23.8604 C   0  0  0  0  0  0  0  0  0  0  0  0
  -29.5663  -11.4080   19.7568 C   0  0  0  0  0  0  0  0  0  0  0  0
  -27.5525  -17.7477   17.4817 C   0  0  0  0  0  0  0  0  0  0  0  0
  -29.3357  -13.5809   18.4671 C   0  0  0  0  0  0  0  0  0  0  0  0
  -28.0892  -16.3184   17.3578 C   0  0  0  0  0  0  0  0  0  0  0  0
  -27.6588  -12.9926   20.1979 C   0  0  0  0  0  0  0  0  0  0  0  0
  -32.2313  -22.5887   20.7674 C   0  0  0  0  0  0  0  0  0  0  0  0
  -30.0212  -34.8247   22.4504 C   0  0  1  0  0  0  0  0  0  0  0  0
  -26.9843  -32.7302   21.5427 C   0  0  1  0  0  0  0  0  0  0  0  0
  -28.6228  -11.9768   20.8269 C   0  0  1  0  0  0  0  0  0  0  0  0
  -28.0995  -17.7834   18.9170 C   0  0  2  0  0  0  0  0  0  0  0  0
  -20.5397  -29.8628   24.7441 C   0  0  0  0  0  0  0  0  0  0  0  0
  -26.6370  -32.0645   26.1030 C   0  0  0  0  0  0  0  0  0  0  0  0
  -24.5566  -30.9002   26.8678 C   0  0  0  0  0  0  0  0  0  0  0  0
  -24.4487  -33.2751   26.1122 C   0  0  0  0  0  0  0  0  0  0  0  0
  -21.5403  -29.6586   21.0789 C   0  0  0  0  0  0  0  0  0  0  0  0
  -30.5006  -20.7135   19.3036 C   0  0  0  0  0  0  0  0  0  0  0  0
  -29.4401  -26.2621   18.8984 C   0  0  0  0  0  0  0  0  0  1  0  0
  -29.4381  -18.4589   19.1407 C   0  0  0  0  0  0  0  0  0  0  0  0
  -24.7955  -31.4451   24.4026 C   0  0  1  0  0  0  0  0  0  0  0  0
  -21.3137  -30.2526   23.4944 C   0  0  2  0  0  0  0  0  0  0  0  0
  -25.1240  -31.9116   25.8489 C   0  0  0  0  0  0  0  0  0  0  0  0
  -26.6802  -10.4850   21.1168 N   0  0  0  0  0  0  0  0  0  0  0  0
  -28.9834  -23.9401   18.3772 N   0  0  0  0  0  0  0  0  0  0  0  0
  -29.2426  -22.6088   18.4783 N   0  0  0  0  0  0  0  0  0  0  0  0
  -27.8834  -10.8782   21.5683 N   0  0  0  0  0  0  0  0  0  0  0  0
  -26.2642  -31.8335   22.4491 N   0  0  0  0  0  0  0  0  0  0  0  0
  -28.3769  -14.0490   19.4751 N   0  0  0  0  0  0  0  0  0  0  0  0
  -28.2418  -16.3300   18.8053 N   0  0  0  0  0  0  0  0  0  0  0  0
  -29.4866  -10.4793   23.2658 N   0  0  0  0  0  0  0  0  0  0  0  0
  -26.1911   -7.5475   24.2354 N   0  0  0  0  0  0  0  0  0  0  0  0
  -28.7730  -34.3155   21.9239 N   0  0  0  0  0  0  0  0  0  0  0  0
  -23.3689  -31.3178   24.1253 N   0  0  0  0  0  0  0  0  0  0  0  0
  -20.8759  -29.3703   22.3760 N   0  3  0  0  0  0  0  0  0  0  0  0
  -29.2452  -19.9269   19.1482 N   0  3  0  0  0  0  0  0  0  0  0  0
  -28.2417   -8.3302   24.8993 O   0  0  0  0  0  0  0  0  0  0  0  0
  -28.8502  -32.1972   22.8878 O   0  0  0  0  0  0  0  0  0  0  0  0
  -24.9727  -33.5583   23.3398 O   0  0  0  0  0  0  0  0  0  0  0  0
  -23.4239  -29.0767   23.5327 O   0  0  0  0  0  0  0  0  0  0  0  0
  -27.7656  -15.7254   20.9366 O   0  0  0  0  0  0  0  0  0  0  0  0
  -21.4415   -6.8763   21.4024 O   0  0  0  0  0  0  0  0  0  0  0  0
  -28.8116  -26.7255   20.0876 O   0  0  0  0  0  0  0  0  0  1  0  0
  -21.4226   -1.3878   21.9323 F   0  0  0  0  0  0  0  0  0  0  0  0
  -22.2600   -5.6756   23.7542 F   0  0  0  0  0  0  0  0  0  0  0  0
  1  2  1  0  0  0  0
  1  5  2  0  0  0  0
  2  6  2  0  0  0  0
  3  8  2  0  0  0  0
  3 16  1  0  0  0  0
  4  9  1  0  0  0  0
  4 16  2  0  0  0  0
  5 18  1  0  0  0  0
  6 20  1  0  0  0  0
  7 10  2  0  0  0  0
  7 19  1  0  0  0  0
  8 23  1  0  0  0  0
  9 23  2  0  0  0  0
 10 24  1  0  0  0  0
 11 12  2  0  0  0  0
 11 25  1  0  0  0  0
 12 26  1  0  0  0  0
 13 21  1  0  0  0  0
 13 24  2  0  0  0  0
 14 22  2  0  0  0  0
 14 29  1  0  0  0  0
 15 26  2  0  0  0  0
 15 27  1  0  0  0  0
 16 28  1  0  0  0  0
 17 28  1  0  0  0  0
 17 31  2  0  0  0  0
 17 32  1  0  0  0  0
 18 20  2  0  0  0  0
 18 37  1  0  0  0  0
 19 21  2  0  0  0  0
 19 38  1  0  0  0  0
 20 51  1  0  0  0  0
 21 39  1  0  0  0  0
 22 30  1  0  0  0  0
 22 50  1  0  0  0  0
 23 84  1  0  0  0  0
 24 85  1  0  0  0  0
 25 27  2  0  0  0  0
 25 84  1  0  0  0  0
 26 86  1  0  0  0  0
 27 87  1  0  0  0  0
 28 66  2  0  0  0  0
 29 61  1  0  0  0  0
 29 67  2  0  0  0  0
 30 60  1  0  0  0  0
 30 68  2  0  0  0  0
 31 69  1  0  0  0  0
 31 73  1  0  0  0  0
 32 74  1  0  0  0  0
 32 79  2  0  0  0  0
 33 52  1  0  0  0  0
 33 75  1  0  0  0  0
 33 80  2  0  0  0  0
 34 63  1  0  0  0  0
 34 70  1  0  0  0  0
 34 81  2  0  0  0  0
 35 64  1  0  0  0  0
 35 76  1  0  0  0  0
 35 82  2  0  0  0  0
 36 71  1  0  0  0  0
 36 72  1  0  0  0  0
 36 83  2  0  0  0  0
 37 40  1  0  0  0  0
 38 52  1  0  0  0  0
 39 70  1  0  0  0  0
 40 44  1  0  0  0  0
 41 45  1  0  0  0  0
 41 47  1  0  0  0  0
 42 43  1  0  0  0  0
 42 50  1  0  0  0  0
 43 50  1  0  0  0  0
 44 51  1  0  0  0  0
 45 53  1  0  0  0  0
 46 48  1  0  0  0  0
 46 54  1  0  0  0  0
 47 71  1  0  0  0  0
 48 72  1  0  0  0  0
 49 53  1  0  0  0  0
 49 71  1  0  0  0  0
 51 75  1  0  0  0  0
 52 70  1  0  0  0  0
 53 69  1  0  0  0  0
 54 62  1  0  0  0  0
 54 72  1  0  0  0  0
 55 64  1  0  0  0  0
 56 65  1  0  0  0  0
 57 65  1  0  0  0  0
 58 65  1  0  0  0  0
 59 77  1  0  0  0  0
 60 78  1  0  0  0  0
 61 85  1  0  0  0  0
 62 78  1  0  0  0  0
 63 65  1  0  0  0  0
 63 76  1  0  0  0  0
 64 77  1  0  0  0  0
 66 69  1  0  0  0  0
 67 68  1  0  0  0  0
M  CHG  2  77   1  78   1
M  ISO  4  36 100  61 101  72 100  85 101
M  END
> <Batch ID>
0198

> <Smiles>
CNC(C)C(=O)NC(C(=O)N1Cc2cc([101O:1][101CH2:1]c3cc(C4CC4)c(CNCC4CC[100N:0]4[100C:0](=O)N4CCCC(n5nc(-c6ccc(Oc7ccc(F)cc7F)cc6)c(C(N)=O)c5N)C4)nn3)ccc2CC1C(=O)NC1CCCc2ccccc21)C(C)(C)C

> <Shape>
0.269

> <Color>
0.110

> <Negative vol penalty>
0.000

$$$$

  -OEChem-04052323483D

 86 95  0     1  0  0  0  0  0999 V2000
  -28.1242  -31.6737   26.2703 C   0  0  0  0  0  0  0  0  0  0  0  0
  -28.6446  -30.5388   25.6565 C   0  0  0  0  0  0  0  0  0  0  0  0
  -28.2566  -13.4558   18.9429 C   0  0  0  0  0  0  0  0  0  0  0  0
  -29.1792  -11.9557   20.5968 C   0  0  0  0  0  0  0  0  0  0  0  0
  -26.7609  -31.9511   26.1791 C   0  0  0  0  0  0  0  0  0  0  0  0
  -27.8015  -29.6800   24.9521 C   0  0  0  0  0  0  0  0  0  0  0  0
  -29.1707  -26.5042   19.8978 C   0  0  0  0  0  0  0  0  0  0  0  0
  -29.4280  -14.2123   18.9756 C   0  0  0  0  0  0  0  0  0  0  0  0
  -30.3506  -12.7122   20.6296 C   0  0  0  0  0  0  0  0  0  0  0  0
  -29.5523  -25.1783   19.6978 C   0  0  0  0  0  0  0  0  0  0  0  0
  -32.0367  -16.7443   18.8891 C   0  0  0  0  0  0  0  0  0  0  0  0
  -31.9126  -18.1326   18.9417 C   0  0  0  0  0  0  0  0  0  0  0  0
  -27.2598  -24.5965   19.2229 C   0  0  0  0  0  0  0  0  0  0  0  0
  -30.7023  -17.9456   21.0243 C   0  0  0  0  0  0  0  0  0  0  0  0
  -26.8053  -21.3027   21.4337 C   0  0  0  0  0  0  0  0  0  0  0  0
  -28.1322  -12.3274   19.7535 C   0  0  0  0  0  0  0  0  0  0  0  0
  -26.6408  -10.4495   18.8834 C   0  0  0  0  0  0  0  0  0  0  0  0
  -25.9024  -31.1004   25.4651 C   0  0  0  0  0  0  0  0  0  0  0  0
  -27.8268  -26.8848   19.7724 C   0  0  0  0  0  0  0  0  0  0  0  0
  -26.4252  -29.9456   24.8524 C   0  0  0  0  0  0  0  0  0  0  0  0
  -26.8642  -25.9284   19.4193 C   0  0  0  0  0  0  0  0  0  0  0  0
  -26.6609  -20.0466   20.8809 C   0  0  0  0  0  0  0  0  0  0  0  0
  -30.4750  -13.8405   19.8189 C   0  0  0  0  0  0  0  0  0  0  0  0
  -28.5964  -24.2236   19.3631 C   0  0  0  0  0  0  0  0  0  0  0  0
  -31.4935  -15.9566   19.9042 C   0  0  0  0  0  0  0  0  0  0  0  0
  -31.2455  -18.7333   20.0092 C   0  0  0  0  0  0  0  0  0  0  0  0
  -30.8264  -16.5572   20.9718 C   0  0  0  0  0  0  0  0  0  0  0  0
  -26.9222  -11.5458   19.7206 C   0  0  0  0  0  0  0  0  0  0  0  0
  -27.3527  -19.8278   19.7070 C   0  0  0  0  0  0  0  0  0  0  0  0
  -25.3725  -10.0616   19.2403 C   0  0  0  0  0  0  0  0  0  0  0  0
  -28.1883  -21.9413   19.7465 C   0  0  0  0  0  0  0  0  0  1  0  0
  -27.4534   -9.8366   17.8736 C   0  0  0  0  0  0  0  0  0  0  0  0
  -25.6522  -28.1183   21.7353 C   0  0  0  0  0  0  0  0  0  0  0  0
  -23.8663  -28.2717   19.0317 C   0  0  0  0  0  0  0  0  0  0  0  0
  -23.2594  -27.0871   15.8893 C   0  0  0  0  0  0  0  0  0  0  0  0
  -20.8060  -12.9810   21.7735 C   0  0  0  0  0  0  0  0  0  0  0  0
  -24.4280  -31.4165   25.4341 C   0  0  0  0  0  0  0  0  0  0  0  0
  -27.4355  -28.3243   19.9652 C   0  0  0  0  0  0  0  0  0  0  0  0
  -25.4115  -26.2895   19.2526 C   0  0  0  0  0  0  0  0  0  0  0  0
  -23.6645  -30.6555   24.3533 C   0  0  0  0  0  0  0  0  0  0  0  0
  -22.3521  -10.0222   22.9280 C   0  0  0  0  0  0  0  0  0  0  0  0
  -24.0545  -29.1808   24.3622 C   0  0  0  0  0  0  0  0  0  0  0  0
  -23.6880   -9.9830   22.1910 C   0  0  0  0  0  0  0  0  0  0  0  0
  -20.1796  -16.3450   20.3631 C   0  0  0  0  0  0  0  0  0  0  0  0
  -21.9871  -11.4503   23.3102 C   0  0  0  0  0  0  0  0  0  0  0  0
  -19.6935  -14.9822   20.8314 C   0  0  0  0  0  0  0  0  0  0  0  0
  -22.0621  -15.1402   21.1845 C   0  0  0  0  0  0  0  0  0  0  0  0
  -23.2353  -12.3510   21.3659 C   0  0  0  0  0  0  0  0  0  0  0  0
  -25.5470  -29.0030   24.0585 C   0  0  1  0  0  0  0  0  0  0  0  0
  -25.9612  -28.5009   20.3155 C   0  0  1  0  0  0  0  0  0  0  0  0
  -21.4577  -16.5442   21.1785 C   0  0  1  0  0  0  0  0  0  0  0  0
  -23.6630  -10.9214   20.9745 C   0  0  1  0  0  0  0  0  0  0  0  0
  -27.2707  -18.5053   19.0187 C   0  0  0  0  0  0  0  0  0  0  0  0
  -21.7093  -27.3823   13.9380 C   0  0  0  0  0  0  0  0  0  0  0  0
  -21.6924  -26.7428   20.5305 C   0  0  0  0  0  0  0  0  0  0  0  0
  -20.6181  -26.2460   18.3243 C   0  0  0  0  0  0  0  0  0  0  0  0
  -20.8527  -28.6080   19.0916 C   0  0  0  0  0  0  0  0  0  0  0  0
  -25.4783  -27.8776   14.0974 C   0  0  0  0  0  0  0  0  0  0  0  0
  -25.8006  -19.0048   21.5333 C   0  0  0  0  0  0  0  0  0  0  0  0
  -22.3832  -17.5965   20.5944 C   0  0  0  0  0  0  0  0  0  0  0  0
  -23.6562  -17.7295   21.4162 C   0  0  0  0  0  0  0  0  0  0  0  0
  -22.9049  -27.3421   18.3313 C   0  0  1  0  0  0  0  0  0  0  0  0
  -23.0270  -27.8023   14.5706 C   0  0  2  0  0  0  0  0  0  0  0  0
  -21.5440  -27.2272   19.0744 C   0  0  0  0  0  0  0  0  0  0  0  0
  -27.5639  -22.2777   20.8912 N   0  0  0  0  0  0  0  0  0  0  0  0
  -25.9136  -11.8358   20.5468 N   0  0  0  0  0  0  0  0  0  0  0  0
  -28.1285  -20.7561   19.1099 N   0  0  0  0  0  0  0  0  0  0  0  0
  -24.9861  -10.9161   20.2306 N   0  0  0  0  0  0  0  0  0  0  0  0
  -25.0776  -27.7087   19.4578 N   0  0  0  0  0  0  0  0  0  0  0  0
  -21.9930  -12.3425   22.1493 N   0  0  0  0  0  0  0  0  0  0  0  0
  -20.9002  -14.2478   21.1986 N   0  0  0  0  0  0  0  0  0  0  0  0
  -24.5612   -9.0764   18.8004 N   0  0  0  0  0  0  0  0  0  0  0  0
  -28.7312  -10.3606   17.6351 N   0  0  0  0  0  0  0  0  0  0  0  0
  -25.7955  -29.1524   22.6406 N   0  0  0  0  0  0  0  0  0  0  0  0
  -22.7974  -27.8246   16.9587 N   0  0  0  0  0  0  0  0  0  0  0  0
  -24.1270  -27.4946   13.6134 N   0  3  0  0  0  0  0  0  0  0  0  0
  -24.5036  -18.7970   20.8327 N   0  3  0  0  0  0  0  0  0  0  0  0
  -27.0517   -8.8636   17.1914 O   0  0  0  0  0  0  0  0  0  0  0  0
  -25.3077  -26.9703   21.9904 O   0  0  0  0  0  0  0  0  0  0  0  0
  -23.5570  -29.4555   19.1885 O   0  0  0  0  0  0  0  0  0  0  0  0
  -23.7939  -25.9828   15.9629 O   0  0  0  0  0  0  0  0  0  0  0  0
  -19.7020  -12.4597   21.9814 O   0  0  0  0  0  0  0  0  0  0  0  0
  -31.6182  -14.5784   19.8510 O   0  0  0  0  0  0  0  0  0  0  0  0
  -28.9707  -22.9122   19.1654 O   0  0  0  0  0  0  0  0  0  1  0  0
  -31.1277  -20.0666   20.0603 F   0  0  0  0  0  0  0  0  0  0  0  0
  -30.3036  -15.8058   21.9504 F   0  0  0  0  0  0  0  0  0  0  0  0
  1  2  1  0  0  0  0
  1  5  2  0  0  0  0
  2  6  2  0  0  0  0
  3  8  2  0  0  0  0
  3 16  1  0  0  0  0
  4  9  1  0  0  0  0
  4 16  2  0  0  0  0
  5 18  1  0  0  0  0
  6 20  1  0  0  0  0
  7 10  2  0  0  0  0
  7 19  1  0  0  0  0
  8 23  1  0  0  0  0
  9 23  2  0  0  0  0
 10 24  1  0  0  0  0
 11 12  2  0  0  0  0
 11 25  1  0  0  0  0
 12 26  1  0  0  0  0
 13 21  1  0  0  0  0
 13 24  2  0  0  0  0
 14 26  2  0  0  0  0
 14 27  1  0  0  0  0
 15 22  1  0  0  0  0
 15 65  2  0  0  0  0
 16 28  1  0  0  0  0
 17 28  1  0  0  0  0
 17 30  2  0  0  0  0
 17 32  1  0  0  0  0
 18 20  2  0  0  0  0
 18 37  1  0  0  0  0
 19 21  2  0  0  0  0
 19 38  1  0  0  0  0
 20 49  1  0  0  0  0
 21 39  1  0  0  0  0
 22 29  2  0  0  0  0
 22 59  1  0  0  0  0
 23 83  1  0  0  0  0
 24 84  1  0  0  0  0
 25 27  2  0  0  0  0
 25 83  1  0  0  0  0
 26 85  1  0  0  0  0
 27 86  1  0  0  0  0
 28 66  2  0  0  0  0
 29 53  1  0  0  0  0
 29 67  1  0  0  0  0
 30 68  1  0  0  0  0
 30 72  1  0  0  0  0
 31 65  1  0  0  0  0
 31 67  2  0  0  0  0
 31 84  1  0  0  0  0
 32 73  1  0  0  0  0
 32 78  2  0  0  0  0
 33 50  1  0  0  0  0
 33 74  1  0  0  0  0
 33 79  2  0  0  0  0
 34 62  1  0  0  0  0
 34 69  1  0  0  0  0
 34 80  2  0  0  0  0
 35 63  1  0  0  0  0
 35 75  1  0  0  0  0
 35 81  2  0  0  0  0
 36 70  1  0  0  0  0
 36 71  1  0  0  0  0
 36 82  2  0  0  0  0
 37 40  1  0  0  0  0
 38 50  1  0  0  0  0
 39 69  1  0  0  0  0
 40 42  1  0  0  0  0
 41 43  1  0  0  0  0
 41 45  1  0  0  0  0
 42 49  1  0  0  0  0
 43 52  1  0  0  0  0
 44 46  1  0  0  0  0
 44 51  1  0  0  0  0
 45 70  1  0  0  0  0
 46 71  1  0  0  0  0
 47 51  1  0  0  0  0
 47 71  1  0  0  0  0
 48 52  1  0  0  0  0
 48 70  1  0  0  0  0
 49 74  1  0  0  0  0
 50 69  1  0  0  0  0
 51 60  1  0  0  0  0
 52 68  1  0  0  0  0
 54 63  1  0  0  0  0
 55 64  1  0  0  0  0
 56 64  1  0  0  0  0
 57 64  1  0  0  0  0
 58 76  1  0  0  0  0
 59 77  1  0  0  0  0
 60 61  1  0  0  0  0
 61 77  1  0  0  0  0
 62 64  1  0  0  0  0
 62 75  1  0  0  0  0
 63 76  1  0  0  0  0
 66 68  1  0  0  0  0
M  CHG  2  76   1  77   1
M  ISO  4  31 101  36 100  71 100  84 101
M  END
> <Batch ID>
0198

> <Smiles>
CNC(C)C(=O)NC(C(=O)N1Cc2cc([101O:1][101c:1]3ncc(CNCCC4CC[100N:0]([100C:0](=O)N5CCCC(n6nc(-c7ccc(Oc8ccc(F)cc8F)cc7)c(C(N)=O)c6N)C5)C4)c(C)n3)ccc2CC1C(=O)NC1CCCc2ccccc21)C(C)(C)C

> <Shape>
0.261

> <Color>
0.074

> <Negative vol penalty>
0.000

$$$$

  -OEChem-04052323483D

 83 92  0     1  0  0  0  0  0999 V2000
  -16.9134  -27.7279   23.1792 C   0  0  0  0  0  0  0  0  0  0  0  0
  -17.9528  -27.4281   24.0540 C   0  0  0  0  0  0  0  0  0  0  0  0
  -26.4471  -11.5271   21.8805 C   0  0  0  0  0  0  0  0  0  0  0  0
  -24.7409  -11.5878   20.1711 C   0  0  0  0  0  0  0  0  0  0  0  0
  -17.1911  -28.3005   21.9387 C   0  0  0  0  0  0  0  0  0  0  0  0
  -19.2707  -27.6999   23.6883 C   0  0  0  0  0  0  0  0  0  0  0  0
  -25.5573  -29.6568   26.5106 C   0  0  0  0  0  0  0  0  0  0  0  0
  -25.8640  -10.3814   22.4218 C   0  0  0  0  0  0  0  0  0  0  0  0
  -24.1578  -10.4421   20.7124 C   0  0  0  0  0  0  0  0  0  0  0  0
  -26.8942  -29.2624   26.5398 C   0  0  0  0  0  0  0  0  0  0  0  0
  -24.7131   -7.1089   20.6697 C   0  0  0  0  0  0  0  0  0  0  0  0
  -24.3258   -6.1014   19.7862 C   0  0  0  0  0  0  0  0  0  0  0  0
  -27.2484  -30.3260   24.4037 C   0  0  0  0  0  0  0  0  0  0  0  0
  -22.0413   -6.3165   20.5422 C   0  0  0  0  0  0  0  0  0  0  0  0
  -25.8855  -12.1304   20.7551 C   0  0  0  0  0  0  0  0  0  0  0  0
  -27.4834  -13.3736   19.2031 C   0  0  0  0  0  0  0  0  0  0  0  0
  -18.5123  -28.5883   21.5615 C   0  0  0  0  0  0  0  0  0  0  0  0
  -25.0523  -30.3805   25.4208 C   0  0  0  0  0  0  0  0  0  0  0  0
  -19.5664  -28.2757   22.4410 C   0  0  0  0  0  0  0  0  0  0  0  0
  -25.9053  -30.7305   24.3643 C   0  0  0  0  0  0  0  0  0  0  0  0
  -24.7194   -9.8389   21.8378 C   0  0  0  0  0  0  0  0  0  0  0  0
  -27.7393  -29.5945   25.4850 C   0  0  0  0  0  0  0  0  0  0  0  0
  -23.7644   -7.7202   21.4895 C   0  0  0  0  0  0  0  0  0  0  0  0
  -22.9900   -5.7052   19.7224 C   0  0  0  0  0  0  0  0  0  0  0  0
  -22.4285   -7.3240   21.4258 C   0  0  0  0  0  0  0  0  0  0  0  0
  -26.4870  -13.3142   20.1958 C   0  0  0  0  0  0  0  0  0  0  0  0
  -27.7097  -14.7164   19.0237 C   0  0  0  0  0  0  0  0  0  0  0  0
  -28.1451  -12.3100   18.5055 C   0  0  0  0  0  0  0  0  0  0  0  0
  -22.8094  -29.8616   23.2290 C   0  0  0  0  0  0  0  0  0  0  0  0
  -23.4735  -32.9231   22.3876 C   0  0  0  0  0  0  0  0  0  0  0  0
  -25.7069  -35.5035   22.3700 C   0  0  0  0  0  0  0  0  0  0  0  0
  -28.5358  -19.7059   20.8245 C   0  0  0  0  0  0  0  0  0  0  0  0
  -18.7670  -29.1640   20.1910 C   0  0  0  0  0  0  0  0  0  0  0  0
  -23.6143  -30.8215   25.4169 C   0  0  0  0  0  0  0  0  0  0  0  0
  -25.4173  -31.5238   23.1806 C   0  0  0  0  0  0  0  0  0  0  0  0
  -20.1610  -29.7657   20.0324 C   0  0  0  0  0  0  0  0  0  0  0  0
  -25.1586  -18.7476   20.6840 C   0  0  0  0  0  0  0  0  0  0  0  0
  -21.2180  -28.8182   20.5907 C   0  0  0  0  0  0  0  0  0  0  0  0
  -25.2801  -17.2401   20.4637 C   0  0  0  0  0  0  0  0  0  0  0  0
  -26.1925  -19.2661   21.6851 C   0  0  0  0  0  0  0  0  0  0  0  0
  -27.9766  -21.4341   22.5922 C   0  0  0  0  0  0  0  0  0  0  0  0
  -29.2746  -22.0570   20.5885 C   0  0  0  0  0  0  0  0  0  0  0  0
  -27.7086  -17.3915   21.1314 C   0  0  0  0  0  0  0  0  0  0  0  0
  -29.1012  -21.9404   23.4897 C   0  0  0  0  0  0  0  0  0  0  0  0
  -30.4255  -22.5478   21.4515 C   0  0  0  0  0  0  0  0  0  0  0  0
  -31.2995  -25.6428   25.2354 C   0  0  0  0  0  0  0  0  0  0  0  0
  -29.6929  -25.8714   23.9198 C   0  0  0  0  0  0  0  0  0  0  0  0
  -21.0071  -28.5784   22.0905 C   0  0  1  0  0  0  0  0  0  0  0  0
  -23.0821  -31.1116   24.0169 C   0  0  1  0  0  0  0  0  0  0  0  0
  -30.3364  -24.6321   24.5773 C   0  0  0  0  0  0  0  0  0  0  0  0
  -26.7205  -16.8516   20.0860 C   0  0  1  0  0  0  0  0  0  0  0  0
  -25.9786  -37.8683   21.5755 C   0  0  0  0  0  0  0  0  0  0  0  0
  -23.9097  -31.9141   19.5412 C   0  0  0  0  0  0  0  0  0  0  0  0
  -25.0733  -34.0711   19.0293 C   0  0  0  0  0  0  0  0  0  0  0  0
  -22.6711  -34.0808   19.7017 C   0  0  0  0  0  0  0  0  0  0  0  0
  -26.0617  -36.5126   25.1295 C   0  0  0  0  0  0  0  0  0  0  0  0
  -30.9507  -23.6074   23.6489 C   0  0  0  0  0  0  0  0  0  0  0  0
  -30.8533  -27.9429   24.5211 C   0  0  0  0  0  0  0  0  0  0  0  0
  -29.7439  -28.9492   24.2874 C   0  0  0  0  0  0  0  0  0  1  0  0
  -24.4417  -33.5845   21.4367 C   0  0  1  0  0  0  0  0  0  0  0  0
  -25.5536  -36.9709   22.7273 C   0  0  2  0  0  0  0  0  0  0  0  0
  -24.0330  -33.3960   19.9485 C   0  0  0  0  0  0  0  0  0  0  0  0
  -26.1067  -14.5231   20.6177 N   0  0  0  0  0  0  0  0  0  0  0  0
  -26.8681  -15.3548   19.8865 N   0  0  0  0  0  0  0  0  0  0  0  0
  -24.0017  -31.9263   23.2202 N   0  0  0  0  0  0  0  0  0  0  0  0
  -27.5457  -18.8364   21.3058 N   0  0  0  0  0  0  0  0  0  0  0  0
  -28.4940  -21.0324   21.2786 N   0  0  0  0  0  0  0  0  0  0  0  0
  -28.5445  -15.4015   18.2137 N   0  0  0  0  0  0  0  0  0  0  0  0
  -27.7922  -10.9887   18.8119 N   0  0  0  0  0  0  0  0  0  0  0  0
  -21.4878  -29.7090   22.8556 N   0  0  0  0  0  0  0  0  0  0  0  0
  -24.5397  -34.9779   21.8576 N   0  0  0  0  0  0  0  0  0  0  0  0
  -29.8756  -23.0226   22.7763 N   0  3  0  0  0  0  0  0  0  0  0  0
  -30.2685  -26.6775   25.0156 N   0  3  0  0  0  0  0  0  0  0  0  0
  -26.3884  -37.3046   23.9159 N   0  3  0  0  0  0  0  0  0  0  0  0
  -29.0351  -12.5247   17.6479 O   0  0  0  0  0  0  0  0  0  0  0  0
  -23.7302  -29.0931   22.9773 O   0  0  0  0  0  0  0  0  0  0  0  0
  -22.2936  -33.2828   22.3964 O   0  0  0  0  0  0  0  0  0  0  0  0
  -26.7582  -34.8863   22.5261 O   0  0  0  0  0  0  0  0  0  0  0  0
  -29.4070  -19.3192   20.0352 O   0  0  0  0  0  0  0  0  0  0  0  0
  -24.1503   -8.7208   22.3656 O   0  0  0  0  0  0  0  0  0  0  0  0
  -29.0669  -29.2037   25.5111 O   0  0  0  0  0  0  0  0  0  1  0  0
  -22.6180   -4.7388   18.8729 F   0  0  0  0  0  0  0  0  0  0  0  0
  -21.5124   -7.9084   22.2100 F   0  0  0  0  0  0  0  0  0  0  0  0
  1  2  1  0  0  0  0
  1  5  2  0  0  0  0
  2  6  2  0  0  0  0
  3  8  2  0  0  0  0
  3 15  1  0  0  0  0
  4  9  1  0  0  0  0
  4 15  2  0  0  0  0
  5 17  1  0  0  0  0
  6 19  1  0  0  0  0
  7 10  2  0  0  0  0
  7 18  1  0  0  0  0
  8 21  1  0  0  0  0
  9 21  2  0  0  0  0
 10 22  1  0  0  0  0
 11 12  2  0  0  0  0
 11 23  1  0  0  0  0
 12 24  1  0  0  0  0
 13 20  1  0  0  0  0
 13 22  2  0  0  0  0
 14 24  2  0  0  0  0
 14 25  1  0  0  0  0
 15 26  1  0  0  0  0
 16 26  1  0  0  0  0
 16 27  2  0  0  0  0
 16 28  1  0  0  0  0
 17 19  2  0  0  0  0
 17 33  1  0  0  0  0
 18 20  2  0  0  0  0
 18 34  1  0  0  0  0
 19 48  1  0  0  0  0
 20 35  1  0  0  0  0
 21 80  1  0  0  0  0
 22 81  1  0  0  0  0
 23 25  2  0  0  0  0
 23 80  1  0  0  0  0
 24 82  1  0  0  0  0
 25 83  1  0  0  0  0
 26 63  2  0  0  0  0
 27 64  1  0  0  0  0
 27 68  1  0  0  0  0
 28 69  1  0  0  0  0
 28 75  2  0  0  0  0
 29 49  1  0  0  0  0
 29 70  1  0  0  0  0
 29 76  2  0  0  0  0
 30 60  1  0  0  0  0
 30 65  1  0  0  0  0
 30 77  2  0  0  0  0
 31 61  1  0  0  0  0
 31 71  1  0  0  0  0
 31 78  2  0  0  0  0
 32 66  1  0  0  0  0
 32 67  1  0  0  0  0
 32 79  2  0  0  0  0
 33 36  1  0  0  0  0
 34 49  1  0  0  0  0
 35 65  1  0  0  0  0
 36 38  1  0  0  0  0
 37 39  1  0  0  0  0
 37 40  1  0  0  0  0
 38 48  1  0  0  0  0
 39 51  1  0  0  0  0
 40 66  1  0  0  0  0
 41 44  1  0  0  0  0
 41 67  1  0  0  0  0
 42 45  1  0  0  0  0
 42 67  1  0  0  0  0
 43 51  1  0  0  0  0
 43 66  1  0  0  0  0
 44 72  1  0  0  0  0
 45 72  1  0  0  0  0
 46 50  1  0  0  0  0
 46 73  1  0  0  0  0
 47 50  1  0  0  0  0
 47 73  1  0  0  0  0
 48 70  1  0  0  0  0
 49 65  1  0  0  0  0
 50 57  1  0  0  0  0
 51 64  1  0  0  0  0
 52 61  1  0  0  0  0
 53 62  1  0  0  0  0
 54 62  1  0  0  0  0
 55 62  1  0  0  0  0
 56 74  1  0  0  0  0
 57 72  1  0  0  0  0
 58 59  1  0  0  0  0
 58 73  1  0  0  0  0
 59 81  1  0  0  0  0
 60 62  1  0  0  0  0
 60 71  1  0  0  0  0
 61 74  1  0  0  0  0
 63 64  1  0  0  0  0
M  CHG  3  72   1  73   1  74   1
M  ISO  4  32 100  59 101  67 100  81 101
M  END
> <Batch ID>
0198

> <Smiles>
CNC(C)C(=O)NC(C(=O)N1Cc2cc([101O:1][101CH2:1]CN3CC(CN4CC[100N:0]([100C:0](=O)N5CCCC(n6nc(-c7ccc(Oc8ccc(F)cc8F)cc7)c(C(N)=O)c6N)C5)CC4)C3)ccc2CC1C(=O)NC1CCCc2ccccc21)C(C)(C)C

> <Shape>
0.271

> <Color>
0.105

> <Negative vol penalty>
0.000

$$$$

  -OEChem-04052323483D

 86 95  0     1  0  0  0  0  0999 V2000
  -29.2655  -36.4640   18.8565 C   0  0  0  0  0  0  0  0  0  0  0  0
  -29.4366  -35.0890   18.7316 C   0  0  0  0  0  0  0  0  0  0  0  0
  -23.1658   -9.8979   21.5397 C   0  0  0  0  0  0  0  0  0  0  0  0
  -23.8627  -10.9381   23.6059 C   0  0  0  0  0  0  0  0  0  0  0  0
  -28.7219  -36.9943   20.0258 C   0  0  0  0  0  0  0  0  0  0  0  0
  -29.0651  -34.2436   19.7764 C   0  0  0  0  0  0  0  0  0  0  0  0
  -26.7323  -28.6016   19.2950 C   0  0  0  0  0  0  0  0  0  0  0  0
  -22.4583   -8.9371   22.2619 C   0  0  0  0  0  0  0  0  0  0  0  0
  -23.1551   -9.9772   24.3283 C   0  0  0  0  0  0  0  0  0  0  0  0
  -27.3096  -27.3364   19.3932 C   0  0  0  0  0  0  0  0  0  0  0  0
  -23.1438   -6.1067   23.9776 C   0  0  0  0  0  0  0  0  0  0  0  0
  -23.2737   -4.7751   23.5835 C   0  0  0  0  0  0  0  0  0  0  0  0
  -26.6420  -27.2182   21.7083 C   0  0  0  0  0  0  0  0  0  0  0  0
  -30.5633  -22.0551   20.8161 C   0  0  0  0  0  0  0  0  0  0  0  0
  -20.8951   -4.6640   23.1750 C   0  0  0  0  0  0  0  0  0  0  0  0
  -23.8681  -10.8984   22.2116 C   0  0  0  0  0  0  0  0  0  0  0  0
  -24.1202  -13.1311   21.0037 C   0  0  0  0  0  0  0  0  0  0  0  0
  -28.3347  -36.1541   21.0816 C   0  0  0  0  0  0  0  0  0  0  0  0
  -26.1140  -29.1902   20.4075 C   0  0  0  0  0  0  0  0  0  0  0  0
  -28.5171  -34.7632   20.9614 C   0  0  0  0  0  0  0  0  0  0  0  0
  -26.0554  -28.4900   21.6208 C   0  0  0  0  0  0  0  0  0  0  0  0
  -30.1282  -23.3465   20.5759 C   0  0  0  0  0  0  0  0  0  0  0  0
  -22.4529   -8.9767   23.6562 C   0  0  0  0  0  0  0  0  0  0  0  0
  -27.2671  -26.6457   20.6008 C   0  0  0  0  0  0  0  0  0  0  0  0
  -21.8895   -6.7171   23.9705 C   0  0  0  0  0  0  0  0  0  0  0  0
  -22.1494   -4.0537   23.1821 C   0  0  0  0  0  0  0  0  0  0  0  0
  -20.7652   -5.9957   23.5692 C   0  0  0  0  0  0  0  0  0  0  0  0
  -24.5997  -11.8909   21.4661 C   0  0  0  0  0  0  0  0  0  0  0  0
  -28.9800  -23.5127   19.8279 C   0  0  0  0  0  0  0  0  0  0  0  0
  -29.8213  -21.0153   20.2928 C   0  0  0  0  0  0  0  0  0  0  0  0
  -25.1936  -13.6953   20.3587 C   0  0  0  0  0  0  0  0  0  0  0  0
  -22.8208  -13.7205   21.1448 C   0  0  0  0  0  0  0  0  0  0  0  0
  -26.6212  -31.8142   22.1283 C   0  0  0  0  0  0  0  0  0  0  0  0
  -23.8513  -30.9343   23.5692 C   0  0  0  0  0  0  0  0  0  0  0  0
  -21.6586  -28.4393   24.3528 C   0  0  0  0  0  0  0  0  0  0  0  0
  -30.6292  -14.9390   20.1285 C   0  0  0  0  0  0  0  0  0  0  0  0
  -27.7954  -36.7773   22.3448 C   0  0  0  0  0  0  0  0  0  0  0  0
  -25.4725  -30.5445   20.2778 C   0  0  0  0  0  0  0  0  0  0  0  0
  -25.3857  -29.0693   22.8392 C   0  0  0  0  0  0  0  0  0  0  0  0
  -27.0804  -35.7837   23.2570 C   0  0  0  0  0  0  0  0  0  0  0  0
  -29.6446  -11.7042   19.0134 C   0  0  0  0  0  0  0  0  0  0  0  0
  -27.9076  -34.5117   23.4132 C   0  0  0  0  0  0  0  0  0  0  0  0
  -28.2078  -11.5645   19.5192 C   0  0  0  0  0  0  0  0  0  0  0  0
  -31.3388  -17.8915   21.5348 C   0  0  0  0  0  0  0  0  0  0  0  0
  -30.5203  -12.4673   20.0048 C   0  0  0  0  0  0  0  0  0  0  0  0
  -31.4504  -19.3985   21.3050 C   0  0  0  0  0  0  0  0  0  0  0  0
  -28.5563  -13.6437   20.9171 C   0  0  0  0  0  0  0  0  0  0  0  0
  -29.5622  -18.5287   20.0657 C   0  0  0  0  0  0  0  0  0  0  0  0
  -28.1034  -33.8116   22.0630 C   0  0  1  0  0  0  0  0  0  0  0  0
  -25.3208  -31.2642   21.6143 C   0  0  1  0  0  0  0  0  0  0  0  0
  -27.6213  -12.9298   19.9259 C   0  0  2  0  0  0  0  0  0  0  0  0
  -30.5827  -17.4142   20.3025 C   0  0  2  0  0  0  0  0  0  0  0  0
  -19.5054  -28.0199   25.5715 C   0  0  0  0  0  0  0  0  0  0  0  0
  -25.3287  -31.1057   26.2334 C   0  0  0  0  0  0  0  0  0  0  0  0
  -23.4672  -29.7915   27.2707 C   0  0  0  0  0  0  0  0  0  0  0  0
  -23.0045  -32.0283   26.2681 C   0  0  0  0  0  0  0  0  0  0  0  0
  -20.3102  -27.5085   21.8882 C   0  0  0  0  0  0  0  0  0  0  0  0
  -28.4482  -24.8830   19.5266 C   0  0  0  0  0  0  0  0  0  1  0  0
  -30.8927  -24.5042   21.1181 C   0  0  0  0  0  0  0  0  0  0  0  0
  -23.4893  -30.0658   24.7497 C   0  0  1  0  0  0  0  0  0  0  0  0
  -20.1478  -28.3519   24.2336 C   0  0  2  0  0  0  0  0  0  0  0  0
  -23.8368  -30.7374   26.1082 C   0  0  0  0  0  0  0  0  0  0  0  0
  -25.8780  -11.6790   21.1421 N   0  0  0  0  0  0  0  0  0  0  0  0
  -28.2736  -22.4766   19.3280 N   0  0  0  0  0  0  0  0  0  0  0  0
  -28.7011  -21.2074   19.5646 N   0  0  0  0  0  0  0  0  0  0  0  0
  -26.2109  -12.7937   20.4693 N   0  0  0  0  0  0  0  0  0  0  0  0
  -30.2548  -19.7287   20.5321 N   0  0  3  0  0  0  0  0  0  0  0  0
  -24.7785  -30.3990   22.6639 N   0  0  0  0  0  0  0  0  0  0  0  0
  -29.9087  -13.7533   20.3481 N   0  0  0  0  0  0  0  0  0  0  0  0
  -25.3569  -14.8697   19.7132 N   0  0  0  0  0  0  0  0  0  0  0  0
  -21.8342  -13.0050   21.8368 N   0  0  0  0  0  0  0  0  0  0  0  0
  -26.9046  -33.0929   21.6878 N   0  0  0  0  0  0  0  0  0  0  0  0
  -22.0781  -29.7308   24.5925 N   0  0  0  0  0  0  0  0  0  0  0  0
  -29.9738  -16.1141   20.4753 N   0  0  0  0  0  0  0  0  0  0  0  0
  -19.7657  -27.2959   23.2539 N   0  3  0  0  0  0  0  0  0  0  0  0
  -22.5381  -14.8410   20.6569 O   0  0  0  0  0  0  0  0  0  0  0  0
  -27.3153  -31.1297   22.8709 O   0  0  0  0  0  0  0  0  0  0  0  0
  -23.3253  -32.0437   23.4507 O   0  0  0  0  0  0  0  0  0  0  0  0
  -22.3929  -27.4594   24.2477 O   0  0  0  0  0  0  0  0  0  0  0  0
  -31.7698  -14.9498   19.6532 O   0  0  0  0  0  0  0  0  0  0  0  0
  -21.7624   -8.0395   24.3614 O   0  0  0  0  0  0  0  0  0  0  0  0
  -27.8303  -25.4108   20.6997 O   0  0  0  0  0  0  0  0  0  1  0  0
  -22.2745   -2.7754   22.8022 F   0  0  0  0  0  0  0  0  0  0  0  0
  -19.5578   -6.5770   23.5591 F   0  0  0  0  0  0  0  0  0  0  0  0
  -31.3449  -25.3008   20.1133 F   0  0  0  0  0  0  0  0  0  0  0  0
  -31.9921  -24.0834   21.7983 F   0  0  0  0  0  0  0  0  0  0  0  0
  1  2  1  0  0  0  0
  1  5  2  0  0  0  0
  2  6  2  0  0  0  0
  3  8  2  0  0  0  0
  3 16  1  0  0  0  0
  4  9  1  0  0  0  0
  4 16  2  0  0  0  0
  5 18  1  0  0  0  0
  6 20  1  0  0  0  0
  7 10  2  0  0  0  0
  7 19  1  0  0  0  0
  8 23  1  0  0  0  0
  9 23  2  0  0  0  0
 10 24  1  0  0  0  0
 11 12  2  0  0  0  0
 11 25  1  0  0  0  0
 12 26  1  0  0  0  0
 13 21  1  0  0  0  0
 13 24  2  0  0  0  0
 14 22  1  0  0  0  0
 14 30  2  0  0  0  0
 15 26  2  0  0  0  0
 15 27  1  0  0  0  0
 16 28  1  0  0  0  0
 17 28  1  0  0  0  0
 17 31  2  0  0  0  0
 17 32  1  0  0  0  0
 18 20  2  0  0  0  0
 18 37  1  0  0  0  0
 19 21  2  0  0  0  0
 19 38  1  0  0  0  0
 20 49  1  0  0  0  0
 21 39  1  0  0  0  0
 22 29  2  0  0  0  0
 22 59  1  0  0  0  0
 23 81  1  0  0  0  0
 24 82  1  0  0  0  0
 25 27  2  0  0  0  0
 25 81  1  0  0  0  0
 26 83  1  0  0  0  0
 27 84  1  0  0  0  0
 28 63  2  0  0  0  0
 29 58  1  0  0  0  0
 29 64  1  0  0  0  0
 30 65  1  0  0  0  0
 30 67  1  0  0  0  0
 31 66  1  0  0  0  0
 31 70  1  0  0  0  0
 32 71  1  0  0  0  0
 32 76  2  0  0  0  0
 33 50  1  0  0  0  0
 33 72  1  0  0  0  0
 33 77  2  0  0  0  0
 34 60  1  0  0  0  0
 34 68  1  0  0  0  0
 34 78  2  0  0  0  0
 35 61  1  0  0  0  0
 35 73  1  0  0  0  0
 35 79  2  0  0  0  0
 36 69  1  0  0  0  0
 36 74  1  0  0  0  0
 36 80  2  0  0  0  0
 37 40  1  0  0  0  0
 38 50  1  0  0  0  0
 39 68  1  0  0  0  0
 40 42  1  0  0  0  0
 41 43  1  0  0  0  0
 41 45  1  0  0  0  0
 42 49  1  0  0  0  0
 43 51  1  0  0  0  0
 44 46  1  0  0  0  0
 44 52  1  0  0  0  0
 45 69  1  0  0  0  0
 46 67  1  0  0  0  0
 47 51  1  0  0  0  0
 47 69  1  0  0  0  0
 48 52  1  0  0  0  0
 48 67  1  0  0  0  0
 49 72  1  0  0  0  0
 50 68  1  0  0  0  0
 51 66  1  0  0  0  0
 52 74  1  0  0  0  0
 53 61  1  0  0  0  0
 54 62  1  0  0  0  0
 55 62  1  0  0  0  0
 56 62  1  0  0  0  0
 57 75  1  0  0  0  0
 58 82  1  0  0  0  0
 59 85  1  0  0  0  0
 59 86  1  0  0  0  0
 60 62  1  0  0  0  0
 60 73  1  0  0  0  0
 61 75  1  0  0  0  0
 63 66  1  0  0  0  0
 64 65  2  0  0  0  0
M  CHG  1  75   1
M  ISO  4  36 100  58 101  74 100  82 101
M  END
> <Batch ID>
0198

> <Smiles>
CNC(C)C(=O)NC(C(=O)N1Cc2cc([101O:1][101CH2:1]c3nnc(N4CCC([100NH:0][100C:0](=O)N5CCCC(n6nc(-c7ccc(Oc8ccc(F)cc8F)cc7)c(C(N)=O)c6N)C5)C4)cc3C(F)F)ccc2CC1C(=O)NC1CCCc2ccccc21)C(C)(C)C

> <Shape>
0.339

> <Color>
0.202

> <Negative vol penalty>
0.000

$$$$

  -OEChem-04052323483D

 85 95  0     1  0  0  0  0  0999 V2000
  -21.6264   -8.8753   21.0319 C   0  0  0  0  0  0  0  0  0  0  0  0
  -21.9074  -10.2326   20.9239 C   0  0  0  0  0  0  0  0  0  0  0  0
  -23.7268  -31.0672   21.5913 C   0  0  0  0  0  0  0  0  0  0  0  0
  -23.0810  -29.8015   19.6373 C   0  0  0  0  0  0  0  0  0  0  0  0
  -22.6496   -7.9769   21.3271 C   0  0  0  0  0  0  0  0  0  0  0  0
  -23.2136  -10.6906   21.0994 C   0  0  0  0  0  0  0  0  0  0  0  0
  -24.0610  -15.4440   20.1557 C   0  0  0  0  0  0  0  0  0  0  0  0
  -25.3950  -24.4219   19.2371 C   0  0  0  0  0  0  0  0  0  0  0  0
  -23.1445  -32.2101   21.0435 C   0  0  0  0  0  0  0  0  0  0  0  0
  -22.4987  -30.9445   19.0895 C   0  0  0  0  0  0  0  0  0  0  0  0
  -23.6117  -16.4692   20.9868 C   0  0  0  0  0  0  0  0  0  0  0  0
  -20.0375  -33.4948   20.6842 C   0  0  0  0  0  0  0  0  0  0  0  0
  -19.2401  -34.2791   21.5176 C   0  0  0  0  0  0  0  0  0  0  0  0
  -24.6874  -23.7713   20.2418 C   0  0  0  0  0  0  0  0  0  0  0  0
  -25.8437  -16.7278   21.8645 C   0  0  0  0  0  0  0  0  0  0  0  0
  -20.7109  -36.1610   21.1538 C   0  0  0  0  0  0  0  0  0  0  0  0
  -27.4129  -23.6400   20.2237 C   0  0  0  0  0  0  0  0  0  0  0  0
  -23.6951  -29.8628   20.8882 C   0  0  0  0  0  0  0  0  0  0  0  0
  -23.6778  -27.7239   22.2783 C   0  0  0  0  0  0  0  0  0  0  0  0
  -26.7840  -24.3599   19.2207 C   0  0  0  0  0  0  0  0  0  0  0  0
  -23.9665   -8.4265   21.5184 C   0  0  0  0  0  0  0  0  0  0  0  0
  -25.4051  -15.0450   20.1806 C   0  0  0  0  0  0  0  0  0  0  0  0
  -24.2644   -9.7968   21.3743 C   0  0  0  0  0  0  0  0  0  0  0  0
  -26.3081  -15.6990   21.0309 C   0  0  0  0  0  0  0  0  0  0  0  0
  -22.5304  -32.1488   19.7926 C   0  0  0  0  0  0  0  0  0  0  0  0
  -24.5024  -17.1093   21.8435 C   0  0  0  0  0  0  0  0  0  0  0  0
  -21.1716  -34.0436   20.0856 C   0  0  0  0  0  0  0  0  0  0  0  0
  -19.5768  -35.6122   21.7524 C   0  0  0  0  0  0  0  0  0  0  0  0
  -21.5083  -35.3767   20.3204 C   0  0  0  0  0  0  0  0  0  0  0  0
  -24.2970  -28.6819   21.4534 C   0  0  0  0  0  0  0  0  0  0  0  0
  -25.4102  -23.0776   21.1989 C   0  0  0  0  0  0  0  0  0  0  0  0
  -24.6668  -26.8084   22.5434 C   0  0  0  0  0  0  0  0  0  0  0  0
  -22.3292  -27.6666   22.7617 C   0  0  0  0  0  0  0  0  0  0  0  0
  -26.9318  -12.3493   20.8923 C   0  0  0  0  0  0  0  0  0  0  0  0
  -29.5220  -13.9978   19.8454 C   0  0  0  0  0  0  0  0  0  0  0  0
  -30.9954  -17.0233   19.2778 C   0  0  0  0  0  0  0  0  0  0  0  0
  -29.8398  -25.7575   19.3593 C   0  0  0  0  0  0  0  0  0  0  0  0
  -25.0368   -7.4098   21.8283 C   0  0  0  0  0  0  0  0  0  0  0  0
  -25.8796  -13.9554   19.2585 C   0  0  0  0  0  0  0  0  0  0  0  0
  -27.7654  -15.3219   21.0810 C   0  0  0  0  0  0  0  0  0  0  0  0
  -26.2916   -8.0326   22.4315 C   0  0  0  0  0  0  0  0  0  0  0  0
  -29.3875  -26.4045   22.9795 C   0  0  0  0  0  0  0  0  0  0  0  0
  -26.7387   -9.2190   21.5906 C   0  0  0  0  0  0  0  0  0  0  0  0
  -28.0128  -27.0637   23.0369 C   0  0  0  0  0  0  0  0  0  0  0  0
  -28.0704  -24.2136   16.8986 C   0  0  0  0  0  0  0  0  0  0  0  0
  -30.0704  -26.6445   21.6378 C   0  0  0  0  0  0  0  0  0  0  0  0
  -29.4743  -24.7909   17.0364 C   0  0  0  0  0  0  0  0  0  0  0  0
  -27.8746  -26.8535   20.5207 C   0  0  0  0  0  0  0  0  0  0  0  0
  -24.4745  -20.1672   21.2417 C   0  0  0  0  0  0  0  0  0  0  0  0
  -23.2388  -20.4865   22.8950 C   0  0  0  0  0  0  0  0  0  0  0  0
  -27.6216  -25.0905   18.0892 C   0  0  2  0  0  0  0  0  0  0  0  0
  -25.6722  -10.3216   21.5912 C   0  0  1  0  0  0  0  0  0  0  0  0
  -27.1624  -13.2833   19.7381 C   0  0  1  0  0  0  0  0  0  0  0  0
  -27.1470  -26.6080   21.8528 C   0  0  2  0  0  0  0  0  0  0  0  0
  -23.4954  -19.2577   22.0051 C   0  0  0  0  0  0  0  0  0  1  0  0
  -33.1312  -18.0503   18.4526 C   0  0  0  0  0  0  0  0  0  0  0  0
  -30.8711  -13.3160   22.4959 C   0  0  0  0  0  0  0  0  0  0  0  0
  -32.5519  -15.1101   22.0220 C   0  0  0  0  0  0  0  0  0  0  0  0
  -32.3602  -13.1478   20.4938 C   0  0  0  0  0  0  0  0  0  0  0  0
  -29.6134  -18.3833   17.0419 C   0  0  0  0  0  0  0  0  0  0  0  0
  -24.6833  -22.3674   22.2917 C   0  0  0  0  0  0  0  0  0  0  0  0
  -30.5429  -14.9055   20.4879 C   0  0  1  0  0  0  0  0  0  0  0  0
  -31.7386  -17.5715   18.0729 C   0  0  2  0  0  0  0  0  0  0  0  0
  -31.5537  -14.1259   21.3756 C   0  0  0  0  0  0  0  0  0  0  0  0
  -26.7595  -22.9949   21.2159 N   0  0  0  0  0  0  0  0  0  0  0  0
  -25.5801  -28.4013   21.2105 N   0  0  0  0  0  0  0  0  0  0  0  0
  -25.7752  -27.2565   21.8870 N   0  0  0  0  0  0  0  0  0  0  0  0
  -28.1796  -14.2464   20.1648 N   0  0  0  0  0  0  0  0  0  0  0  0
  -29.2186  -26.2602   20.5092 N   0  0  0  0  0  0  0  0  0  0  0  0
  -29.0463  -25.3649   18.3060 N   0  0  0  0  0  0  0  0  0  0  0  0
  -24.6878  -25.6720   23.2717 N   0  0  0  0  0  0  0  0  0  0  0  0
  -21.4434  -28.6884   22.3934 N   0  0  0  0  0  0  0  0  0  0  0  0
  -26.0369  -11.3316   20.6224 N   0  0  0  0  0  0  0  0  0  0  0  0
  -31.1593  -15.6598   19.4019 N   0  0  0  0  0  0  0  0  0  0  0  0
  -23.7544  -21.3272   21.7986 N   0  3  0  0  0  0  0  0  0  0  0  0
  -30.9923  -18.7180   17.4817 N   0  3  0  0  0  0  0  0  0  0  0  0
  -21.9261  -26.7454   23.5117 O   0  0  0  0  0  0  0  0  0  0  0  0
  -27.5232  -12.5372   21.9490 O   0  0  0  0  0  0  0  0  0  0  0  0
  -29.9011  -13.1057   19.0824 O   0  0  0  0  0  0  0  0  0  0  0  0
  -30.3385  -17.7340   20.0353 O   0  0  0  0  0  0  0  0  0  0  0  0
  -31.0701  -25.6364   19.2854 O   0  0  0  0  0  0  0  0  0  0  0  0
  -21.9618  -33.2638   19.2578 O   0  0  0  0  0  0  0  0  0  0  0  0
  -24.0654  -18.1120   22.6581 O   0  0  0  0  0  0  0  0  0  1  0  0
  -18.8101  -36.3657   22.5515 F   0  0  0  0  0  0  0  0  0  0  0  0
  -22.5960  -35.9098   19.7472 F   0  0  0  0  0  0  0  0  0  0  0  0
  1  2  1  0  0  0  0
  1  5  2  0  0  0  0
  2  6  2  0  0  0  0
  3  9  2  0  0  0  0
  3 18  1  0  0  0  0
  4 10  1  0  0  0  0
  4 18  2  0  0  0  0
  5 21  1  0  0  0  0
  6 23  1  0  0  0  0
  7 11  2  0  0  0  0
  7 22  1  0  0  0  0
  8 14  2  0  0  0  0
  8 20  1  0  0  0  0
  9 25  1  0  0  0  0
 10 25  2  0  0  0  0
 11 26  1  0  0  0  0
 12 13  2  0  0  0  0
 12 27  1  0  0  0  0
 13 28  1  0  0  0  0
 14 31  1  0  0  0  0
 15 24  1  0  0  0  0
 15 26  2  0  0  0  0
 16 28  2  0  0  0  0
 16 29  1  0  0  0  0
 17 20  2  0  0  0  0
 17 65  1  0  0  0  0
 18 30  1  0  0  0  0
 19 30  1  0  0  0  0
 19 32  2  0  0  0  0
 19 33  1  0  0  0  0
 20 51  1  0  0  0  0
 21 23  2  0  0  0  0
 21 38  1  0  0  0  0
 22 24  2  0  0  0  0
 22 39  1  0  0  0  0
 23 52  1  0  0  0  0
 24 40  1  0  0  0  0
 25 82  1  0  0  0  0
 26 83  1  0  0  0  0
 27 29  2  0  0  0  0
 27 82  1  0  0  0  0
 28 84  1  0  0  0  0
 29 85  1  0  0  0  0
 30 66  2  0  0  0  0
 31 61  1  0  0  0  0
 31 65  2  0  0  0  0
 32 67  1  0  0  0  0
 32 71  1  0  0  0  0
 33 72  1  0  0  0  0
 33 77  2  0  0  0  0
 34 53  1  0  0  0  0
 34 73  1  0  0  0  0
 34 78  2  0  0  0  0
 35 62  1  0  0  0  0
 35 68  1  0  0  0  0
 35 79  2  0  0  0  0
 36 63  1  0  0  0  0
 36 74  1  0  0  0  0
 36 80  2  0  0  0  0
 37 69  1  0  0  0  0
 37 70  1  0  0  0  0
 37 81  2  0  0  0  0
 38 41  1  0  0  0  0
 39 53  1  0  0  0  0
 40 68  1  0  0  0  0
 41 43  1  0  0  0  0
 42 44  1  0  0  0  0
 42 46  1  0  0  0  0
 43 52  1  0  0  0  0
 44 54  1  0  0  0  0
 45 47  1  0  0  0  0
 45 51  1  0  0  0  0
 46 69  1  0  0  0  0
 47 70  1  0  0  0  0
 48 54  1  0  0  0  0
 48 69  1  0  0  0  0
 49 55  1  0  0  0  0
 49 75  1  0  0  0  0
 50 55  1  0  0  0  0
 50 75  1  0  0  0  0
 51 70  1  0  0  0  0
 52 73  1  0  0  0  0
 53 68  1  0  0  0  0
 54 67  1  0  0  0  0
 55 83  1  0  0  0  0
 56 63  1  0  0  0  0
 57 64  1  0  0  0  0
 58 64  1  0  0  0  0
 59 64  1  0  0  0  0
 60 76  1  0  0  0  0
 61 75  1  0  0  0  0
 62 64  1  0  0  0  0
 62 74  1  0  0  0  0
 63 76  1  0  0  0  0
 66 67  1  0  0  0  0
M  CHG  2  75   1  76   1
M  ISO  4  37 100  55 101  70 100  83 101
M  END
> <Batch ID>
0198

> <Smiles>
CNC(C)C(=O)NC(C(=O)N1Cc2cc([101O:1][101CH:1]3CN(Cc4ccc(C5CC[100N:0]5[100C:0](=O)N5CCCC(n6nc(-c7ccc(Oc8ccc(F)cc8F)cc7)c(C(N)=O)c6N)C5)cn4)C3)ccc2CC1C(=O)NC1CCCc2ccccc21)C(C)(C)C

> <Shape>
0.217

> <Color>
0.063

> <Negative vol penalty>
0.000

$$$$

  -OEChem-04052323483D

 83 92  0     1  0  0  0  0  0999 V2000
  -17.6994  -31.7558   20.4734 C   0  0  0  0  0  0  0  0  0  0  0  0
  -18.1736  -30.5550   19.9550 C   0  0  0  0  0  0  0  0  0  0  0  0
  -23.3385   -9.7871   19.8693 C   0  0  0  0  0  0  0  0  0  0  0  0
  -23.7572   -9.8962   22.2463 C   0  0  0  0  0  0  0  0  0  0  0  0
  -18.5157  -32.5282   21.2986 C   0  0  0  0  0  0  0  0  0  0  0  0
  -19.4648  -30.1265   20.2607 C   0  0  0  0  0  0  0  0  0  0  0  0
  -21.3369  -24.3486   21.0461 C   0  0  0  0  0  0  0  0  0  0  0  0
  -22.6395   -8.5933   20.0472 C   0  0  0  0  0  0  0  0  0  0  0  0
  -23.0582   -8.7023   22.4242 C   0  0  0  0  0  0  0  0  0  0  0  0
  -21.9804  -23.4477   20.1988 C   0  0  0  0  0  0  0  0  0  0  0  0
  -19.5679   -7.6363   21.0875 C   0  0  0  0  0  0  0  0  0  0  0  0
  -18.3503   -7.4928   20.4225 C   0  0  0  0  0  0  0  0  0  0  0  0
  -24.1043  -24.0739   21.1558 C   0  0  0  0  0  0  0  0  0  0  0  0
  -19.2149   -5.5616   19.2562 C   0  0  0  0  0  0  0  0  0  0  0  0
  -23.8974  -10.4386   20.9689 C   0  0  0  0  0  0  0  0  0  0  0  0
  -24.0951  -12.9775   20.8184 C   0  0  0  0  0  0  0  0  0  0  0  0
  -19.8142  -32.1042   21.6224 C   0  0  0  0  0  0  0  0  0  0  0  0
  -22.0746  -25.1281   21.9486 C   0  0  0  0  0  0  0  0  0  0  0  0
  -20.2998  -30.8946   21.0900 C   0  0  0  0  0  0  0  0  0  0  0  0
  -23.4676  -24.9821   22.0153 C   0  0  0  0  0  0  0  0  0  0  0  0
  -22.4993   -8.0508   21.3246 C   0  0  0  0  0  0  0  0  0  0  0  0
  -23.3646  -23.3123   20.2515 C   0  0  0  0  0  0  0  0  0  0  0  0
  -20.6091   -6.7426   20.8369 C   0  0  0  0  0  0  0  0  0  0  0  0
  -18.1738   -6.4554   19.5069 C   0  0  0  0  0  0  0  0  0  0  0  0
  -20.4326   -5.7052   19.9213 C   0  0  0  0  0  0  0  0  0  0  0  0
  -24.6200  -11.6716   20.7857 C   0  0  0  0  0  0  0  0  0  0  0  0
  -25.1795  -13.7892   20.5910 C   0  0  0  0  0  0  0  0  0  0  0  0
  -22.7478  -13.4174   21.0351 C   0  0  0  0  0  0  0  0  0  0  0  0
  -22.5401  -28.2453   22.3609 C   0  0  0  0  0  0  0  0  0  0  0  0
  -24.1240  -27.2619   25.0154 C   0  0  0  0  0  0  0  0  0  0  0  0
  -25.8152  -24.7723   26.6243 C   0  0  0  0  0  0  0  0  0  0  0  0
  -29.8129  -15.0924   17.9922 C   0  0  0  0  0  0  0  0  0  0  0  0
  -20.6764  -32.9961   22.4801 C   0  0  0  0  0  0  0  0  0  0  0  0
  -21.3628  -26.0760   22.8746 C   0  0  0  0  0  0  0  0  0  0  0  0
  -24.3033  -25.7809   22.9807 C   0  0  0  0  0  0  0  0  0  0  0  0
  -21.8986  -32.2880   23.0590 C   0  0  0  0  0  0  0  0  0  0  0  0
  -30.1234  -12.7540   20.5132 C   0  0  0  0  0  0  0  0  0  0  0  0
  -22.6058  -31.4752   21.9792 C   0  0  0  0  0  0  0  0  0  0  0  0
  -28.6786  -12.3632   20.8244 C   0  0  0  0  0  0  0  0  0  0  0  0
  -24.8113  -18.4341   15.2737 C   0  0  0  0  0  0  0  0  0  0  0  0
  -24.4645  -19.9090   15.5838 C   0  0  0  0  0  0  0  0  0  0  0  0
  -30.3388  -12.8974   19.0108 C   0  0  0  0  0  0  0  0  0  0  0  0
  -29.0048  -17.3903   17.5928 C   0  0  0  0  0  0  0  0  0  0  0  0
  -27.9311  -15.5443   16.3701 C   0  0  0  0  0  0  0  0  0  0  0  0
  -27.6506  -18.0960   17.6665 C   0  0  0  0  0  0  0  0  0  0  0  0
  -26.5927  -16.2729   16.4739 C   0  0  0  0  0  0  0  0  0  0  0  0
  -27.9644  -13.4936   18.6609 C   0  0  0  0  0  0  0  0  0  0  0  0
  -21.6858  -30.3839   21.4187 C   0  0  1  0  0  0  0  0  0  0  0  0
  -22.2636  -27.1915   23.3957 C   0  0  1  0  0  0  0  0  0  0  0  0
  -27.6878  -13.3427   20.1704 C   0  0  1  0  0  0  0  0  0  0  0  0
  -25.5084  -18.3938   16.6528 C   0  0  2  0  0  0  0  0  0  0  0  0
  -25.6998  -19.9232   16.5176 C   0  0  2  0  0  0  0  0  0  0  0  0
  -27.0239  -24.2779   28.7672 C   0  0  0  0  0  0  0  0  0  0  0  0
  -26.5136  -28.8894   24.0402 C   0  0  0  0  0  0  0  0  0  0  0  0
  -27.9463  -27.6251   25.6580 C   0  0  0  0  0  0  0  0  0  0  0  0
  -26.0768  -29.0473   26.4976 C   0  0  0  0  0  0  0  0  0  0  0  0
  -23.9318  -22.5980   27.3203 C   0  0  0  0  0  0  0  0  0  0  0  0
  -25.6244  -22.1346   17.6767 C   0  0  0  0  0  0  0  0  0  0  0  0
  -25.3259  -22.7565   19.0266 C   0  0  0  0  0  0  0  0  0  1  0  0
  -25.5482  -26.8698   25.3268 C   0  0  1  0  0  0  0  0  0  0  0  0
  -25.6936  -24.2190   28.0327 C   0  0  2  0  0  0  0  0  0  0  0  0
  -26.5059  -28.0941   25.3610 C   0  0  0  0  0  0  0  0  0  0  0  0
  -25.9355  -11.6503   20.5555 N   0  0  0  0  0  0  0  0  0  0  0  0
  -26.2464  -12.9528   20.4414 N   0  0  0  0  0  0  0  0  0  0  0  0
  -23.5617  -26.6990   23.8609 N   0  0  0  0  0  0  0  0  0  0  0  0
  -29.3766  -13.8324   18.4282 N   0  0  0  0  0  0  0  0  0  0  0  0
  -28.8407  -15.9460   17.4493 N   0  0  0  0  0  0  0  0  0  0  0  0
  -26.7990  -17.7269   16.5279 N   0  0  0  0  0  0  0  0  0  0  0  0
  -25.3150  -15.1297   20.5064 N   0  0  0  0  0  0  0  0  0  0  0  0
  -21.7564  -12.4512   21.2533 N   0  0  0  0  0  0  0  0  0  0  0  0
  -21.6098  -29.2668   22.3357 N   0  0  0  0  0  0  0  0  0  0  0  0
  -25.5001  -26.1137   26.5735 N   0  0  0  0  0  0  0  0  0  0  0  0
  -25.4663  -20.6511   17.7711 N   0  3  0  0  0  0  0  0  0  0  0  0
  -25.2403  -22.7999   27.9943 N   0  3  0  0  0  0  0  0  0  0  0  0
  -22.4297  -14.6307   21.0189 O   0  0  0  0  0  0  0  0  0  0  0  0
  -23.5253  -28.1403   21.6398 O   0  0  0  0  0  0  0  0  0  0  0  0
  -23.5298  -28.0333   25.7726 O   0  0  0  0  0  0  0  0  0  0  0  0
  -26.1592  -24.0842   25.6657 O   0  0  0  0  0  0  0  0  0  0  0  0
  -30.9970  -15.4386   18.0868 O   0  0  0  0  0  0  0  0  0  0  0  0
  -21.8172   -6.8860   21.4986 O   0  0  0  0  0  0  0  0  0  0  0  0
  -23.9998  -22.4279   19.4191 O   0  0  0  0  0  0  0  0  0  1  0  0
  -17.0039   -6.3167   18.8694 F   0  0  0  0  0  0  0  0  0  0  0  0
  -21.4288   -4.8428   19.6772 F   0  0  0  0  0  0  0  0  0  0  0  0
  1  2  1  0  0  0  0
  1  5  2  0  0  0  0
  2  6  2  0  0  0  0
  3  8  2  0  0  0  0
  3 15  1  0  0  0  0
  4  9  1  0  0  0  0
  4 15  2  0  0  0  0
  5 17  1  0  0  0  0
  6 19  1  0  0  0  0
  7 10  2  0  0  0  0
  7 18  1  0  0  0  0
  8 21  1  0  0  0  0
  9 21  2  0  0  0  0
 10 22  1  0  0  0  0
 11 12  2  0  0  0  0
 11 23  1  0  0  0  0
 12 24  1  0  0  0  0
 13 20  1  0  0  0  0
 13 22  2  0  0  0  0
 14 24  2  0  0  0  0
 14 25  1  0  0  0  0
 15 26  1  0  0  0  0
 16 26  1  0  0  0  0
 16 27  2  0  0  0  0
 16 28  1  0  0  0  0
 17 19  2  0  0  0  0
 17 33  1  0  0  0  0
 18 20  2  0  0  0  0
 18 34  1  0  0  0  0
 19 48  1  0  0  0  0
 20 35  1  0  0  0  0
 21 80  1  0  0  0  0
 22 81  1  0  0  0  0
 23 25  2  0  0  0  0
 23 80  1  0  0  0  0
 24 82  1  0  0  0  0
 25 83  1  0  0  0  0
 26 63  2  0  0  0  0
 27 64  1  0  0  0  0
 27 69  1  0  0  0  0
 28 70  1  0  0  0  0
 28 75  2  0  0  0  0
 29 49  1  0  0  0  0
 29 71  1  0  0  0  0
 29 76  2  0  0  0  0
 30 60  1  0  0  0  0
 30 65  1  0  0  0  0
 30 77  2  0  0  0  0
 31 61  1  0  0  0  0
 31 72  1  0  0  0  0
 31 78  2  0  0  0  0
 32 66  1  0  0  0  0
 32 67  1  0  0  0  0
 32 79  2  0  0  0  0
 33 36  1  0  0  0  0
 34 49  1  0  0  0  0
 35 65  1  0  0  0  0
 36 38  1  0  0  0  0
 37 39  1  0  0  0  0
 37 42  1  0  0  0  0
 38 48  1  0  0  0  0
 39 50  1  0  0  0  0
 40 41  1  0  0  0  0
 40 51  1  0  0  0  0
 41 52  1  0  0  0  0
 42 66  1  0  0  0  0
 43 45  1  0  0  0  0
 43 67  1  0  0  0  0
 44 46  1  0  0  0  0
 44 67  1  0  0  0  0
 45 68  1  0  0  0  0
 46 68  1  0  0  0  0
 47 50  1  0  0  0  0
 47 66  1  0  0  0  0
 48 71  1  0  0  0  0
 49 65  1  0  0  0  0
 50 64  1  0  0  0  0
 51 52  1  0  0  0  0
 51 68  1  0  0  0  0
 52 73  1  0  0  0  0
 53 61  1  0  0  0  0
 54 62  1  0  0  0  0
 55 62  1  0  0  0  0
 56 62  1  0  0  0  0
 57 74  1  0  0  0  0
 58 59  1  0  0  0  0
 58 73  1  0  0  0  0
 59 81  1  0  0  0  0
 60 62  1  0  0  0  0
 60 72  1  0  0  0  0
 61 74  1  0  0  0  0
 63 64  1  0  0  0  0
M  CHG  2  73   1  74   1
M  ISO  4  32 100  59 101  67 100  81 101
M  END
> <Batch ID>
0198

> <Smiles>
CNC(C)C(=O)NC(C(=O)N1Cc2cc([101O:1][101CH2:1]CNC3CCC3N3CC[100N:0]([100C:0](=O)N4CCCC(n5nc(-c6ccc(Oc7ccc(F)cc7F)cc6)c(C(N)=O)c5N)C4)CC3)ccc2CC1C(=O)NC1CCCc2ccccc21)C(C)(C)C

> <Shape>
0.165

> <Color>
0.191

> <Negative vol penalty>
0.000

$$$$

  -OEChem-04052323483D

 87 97  0     1  0  0  0  0  0999 V2000
  -32.7653  -25.4283   17.8235 C   0  0  0  0  0  0  0  0  0  0  0  0
  -31.7057  -24.9447   18.5843 C   0  0  0  0  0  0  0  0  0  0  0  0
  -22.8318  -11.4398   22.0008 C   0  0  0  0  0  0  0  0  0  0  0  0
  -24.3370   -9.5580   22.1751 C   0  0  0  0  0  0  0  0  0  0  0  0
  -33.2899  -26.6933   18.0854 C   0  0  0  0  0  0  0  0  0  0  0  0
  -31.1707  -25.7255   19.6083 C   0  0  0  0  0  0  0  0  0  0  0  0
  -26.1066  -25.7350   19.6007 C   0  0  0  0  0  0  0  0  0  0  0  0
  -22.1032  -10.9577   23.0881 C   0  0  0  0  0  0  0  0  0  0  0  0
  -23.6084   -9.0759   23.2625 C   0  0  0  0  0  0  0  0  0  0  0  0
  -25.4670  -24.6151   20.1303 C   0  0  0  0  0  0  0  0  0  0  0  0
  -20.7234   -7.3901   23.7777 C   0  0  0  0  0  0  0  0  0  0  0  0
  -20.4190   -6.0291   23.8017 C   0  0  0  0  0  0  0  0  0  0  0  0
  -24.6782  -18.8524   23.1494 C   0  0  0  0  0  0  0  0  0  0  0  0
  -25.0978  -25.8091   22.1935 C   0  0  0  0  0  0  0  0  0  0  0  0
  -21.6280   -5.7953   25.8803 C   0  0  0  0  0  0  0  0  0  0  0  0
  -26.3140  -20.3550   23.9796 C   0  0  0  0  0  0  0  0  0  0  0  0
  -23.9488  -10.7399   21.5442 C   0  0  0  0  0  0  0  0  0  0  0  0
  -24.2303  -11.4585   19.1127 C   0  0  0  0  0  0  0  0  0  0  0  0
  -32.7547  -27.4939   19.1068 C   0  0  0  0  0  0  0  0  0  0  0  0
  -26.2565  -26.8987   20.3687 C   0  0  0  0  0  0  0  0  0  0  0  0
  -31.6895  -27.0019   19.8850 C   0  0  0  0  0  0  0  0  0  0  0  0
  -23.7461  -19.8937   23.1660 C   0  0  0  0  0  0  0  0  0  0  0  0
  -25.7374  -26.9433   21.6705 C   0  0  0  0  0  0  0  0  0  0  0  0
  -25.9840  -19.0796   23.5627 C   0  0  0  0  0  0  0  0  0  0  0  0
  -22.4915   -9.7758   23.7190 C   0  0  0  0  0  0  0  0  0  0  0  0
  -24.9650  -24.6510   21.4279 C   0  0  0  0  0  0  0  0  0  0  0  0
  -21.4802   -7.9537   24.8050 C   0  0  0  0  0  0  0  0  0  0  0  0
  -20.8713   -5.2317   24.8530 C   0  0  0  0  0  0  0  0  0  0  0  0
  -21.9324   -7.1563   25.8563 C   0  0  0  0  0  0  0  0  0  0  0  0
  -24.7015  -11.2370   20.4207 C   0  0  0  0  0  0  0  0  0  0  0  0
  -24.1779  -21.1595   23.5795 C   0  0  0  0  0  0  0  0  0  0  0  0
  -25.3242  -11.9298   18.4289 C   0  0  0  0  0  0  0  0  0  0  0  0
  -22.9208  -11.2564   18.5650 C   0  0  0  0  0  0  0  0  0  0  0  0
  -28.7354  -28.5557   21.4700 C   0  0  0  0  0  0  0  0  0  0  0  0
  -26.4292  -30.6294   22.4204 C   0  0  0  0  0  0  0  0  0  0  0  0
  -23.1641  -31.1399   23.2722 C   0  0  0  0  0  0  0  0  0  0  0  0
  -30.3587  -14.6914   20.3724 C   0  0  0  0  0  0  0  0  0  0  0  0
  -33.3859  -28.8354   19.3837 C   0  0  0  0  0  0  0  0  0  0  0  0
  -26.9253  -28.1073   19.7735 C   0  0  0  0  0  0  0  0  0  0  0  0
  -25.8545  -28.1752   22.5291 C   0  0  0  0  0  0  0  0  0  0  0  0
  -22.3414  -19.6520   22.7033 C   0  0  0  0  0  0  0  0  0  0  0  0
  -32.5171  -29.7520   20.2412 C   0  0  0  0  0  0  0  0  0  0  0  0
  -30.0817  -11.7301   18.3498 C   0  0  0  0  0  0  0  0  0  0  0  0
  -31.9591  -28.9909   21.4396 C   0  0  0  0  0  0  0  0  0  0  0  0
  -28.6511  -11.2524   18.5762 C   0  0  0  0  0  0  0  0  0  0  0  0
  -30.6507  -12.3618   19.6131 C   0  0  0  0  0  0  0  0  0  0  0  0
  -28.3861  -13.0705   20.3381 C   0  0  0  0  0  0  0  0  0  0  0  0
  -28.3628  -15.7072   21.7317 C   0  0  0  0  0  0  0  0  0  0  0  0
  -29.8743  -17.0816   21.1314 C   0  0  0  0  0  0  0  0  0  0  0  0
  -21.9579  -22.1032   22.7844 C   0  0  0  0  0  0  0  0  0  0  0  0
  -31.0658  -27.8291   20.9881 C   0  0  1  0  0  0  0  0  0  0  0  0
  -23.1991  -22.3200   23.6578 C   0  0  2  0  0  0  0  0  0  0  0  0
  -27.4767  -29.0641   20.8260 C   0  0  1  0  0  0  0  0  0  0  0  0
  -27.7755  -12.4046   19.0891 C   0  0  2  0  0  0  0  0  0  0  0  0
  -28.9473  -16.9853   22.3485 C   0  0  0  0  0  0  0  0  0  0  0  0
  -21.5858  -32.9334   24.0399 C   0  0  0  0  0  0  0  0  0  0  0  0
  -27.6203  -30.4738   25.2252 C   0  0  0  0  0  0  0  0  0  0  0  0
  -25.5041  -31.4820   26.1044 C   0  0  0  0  0  0  0  0  0  0  0  0
  -26.9287  -32.7687   24.5114 C   0  0  0  0  0  0  0  0  0  0  0  0
  -21.4641  -30.8342   20.8690 C   0  0  0  0  0  0  0  0  0  0  0  0
  -27.0008  -17.9765   23.5599 C   0  0  0  0  0  0  0  0  0  0  0  0
  -23.8490  -23.6538   23.2761 C   0  0  0  0  0  0  0  0  0  1  0  0
  -25.5899  -30.7986   23.6638 C   0  0  1  0  0  0  0  0  0  0  0  0
  -22.1642  -32.1976   22.8412 C   0  0  2  0  0  0  0  0  0  0  0  0
  -26.4101  -31.3567   24.8610 C   0  0  0  0  0  0  0  0  0  0  0  0
  -25.4466  -21.3910   24.0039 N   0  0  0  0  0  0  0  0  0  0  0  0
  -25.9941  -11.5424   20.5616 N   0  0  0  0  0  0  0  0  0  0  0  0
  -26.3445  -11.9605   19.3334 N   0  0  0  0  0  0  0  0  0  0  0  0
  -26.5222  -29.3291   21.9044 N   0  0  0  0  0  0  0  0  0  0  0  0
  -29.7943  -13.4343   20.1285 N   0  0  0  0  0  0  0  0  0  0  0  0
  -29.5503  -15.6777   20.8889 N   0  0  0  0  0  0  0  0  0  0  0  0
  -25.5032  -12.3168   17.1480 N   0  0  0  0  0  0  0  0  0  0  0  0
  -22.6164  -10.0085   18.0042 N   0  0  0  0  0  0  0  0  0  0  0  0
  -29.7665  -28.3193   20.5809 N   0  0  0  0  0  0  0  0  0  0  0  0
  -24.4534  -31.6286   23.2794 N   0  0  0  0  0  0  0  0  0  0  0  0
  -21.3966  -20.7514   23.0718 N   0  3  0  0  0  0  0  0  0  0  0  0
  -27.9827  -18.0876   22.4379 N   0  3  0  0  0  0  0  0  0  0  0  0
  -21.0413  -31.5722   22.0870 N   0  3  0  0  0  0  0  0  0  0  0  0
  -22.0518  -12.1610   18.5579 O   0  0  0  0  0  0  0  0  0  0  0  0
  -28.7692  -28.3915   22.6839 O   0  0  0  0  0  0  0  0  0  0  0  0
  -26.9760  -31.6160   21.9211 O   0  0  0  0  0  0  0  0  0  0  0  0
  -22.8340  -29.9956   23.5760 O   0  0  0  0  0  0  0  0  0  0  0  0
  -31.5576  -14.9206   20.1652 O   0  0  0  0  0  0  0  0  0  0  0  0
  -21.7809   -9.3053   24.7802 O   0  0  0  0  0  0  0  0  0  0  0  0
  -24.3348  -23.5485   21.9525 O   0  0  0  0  0  0  0  0  0  1  0  0
  -20.5776   -3.9250   24.8767 F   0  0  0  0  0  0  0  0  0  0  0  0
  -22.6588   -7.6924   26.8467 F   0  0  0  0  0  0  0  0  0  0  0  0
  1  2  1  0  0  0  0
  1  5  2  0  0  0  0
  2  6  2  0  0  0  0
  3  8  2  0  0  0  0
  3 17  1  0  0  0  0
  4  9  1  0  0  0  0
  4 17  2  0  0  0  0
  5 19  1  0  0  0  0
  6 21  1  0  0  0  0
  7 10  2  0  0  0  0
  7 20  1  0  0  0  0
  8 25  1  0  0  0  0
  9 25  2  0  0  0  0
 10 26  1  0  0  0  0
 11 12  2  0  0  0  0
 11 27  1  0  0  0  0
 12 28  1  0  0  0  0
 13 22  1  0  0  0  0
 13 24  2  0  0  0  0
 14 23  1  0  0  0  0
 14 26  2  0  0  0  0
 15 28  2  0  0  0  0
 15 29  1  0  0  0  0
 16 24  1  0  0  0  0
 16 66  2  0  0  0  0
 17 30  1  0  0  0  0
 18 30  1  0  0  0  0
 18 32  2  0  0  0  0
 18 33  1  0  0  0  0
 19 21  2  0  0  0  0
 19 38  1  0  0  0  0
 20 23  2  0  0  0  0
 20 39  1  0  0  0  0
 21 51  1  0  0  0  0
 22 31  2  0  0  0  0
 22 41  1  0  0  0  0
 23 40  1  0  0  0  0
 24 61  1  0  0  0  0
 25 84  1  0  0  0  0
 26 85  1  0  0  0  0
 27 29  2  0  0  0  0
 27 84  1  0  0  0  0
 28 86  1  0  0  0  0
 29 87  1  0  0  0  0
 30 67  2  0  0  0  0
 31 52  1  0  0  0  0
 31 66  1  0  0  0  0
 32 68  1  0  0  0  0
 32 72  1  0  0  0  0
 33 73  1  0  0  0  0
 33 79  2  0  0  0  0
 34 53  1  0  0  0  0
 34 74  1  0  0  0  0
 34 80  2  0  0  0  0
 35 63  1  0  0  0  0
 35 69  1  0  0  0  0
 35 81  2  0  0  0  0
 36 64  1  0  0  0  0
 36 75  1  0  0  0  0
 36 82  2  0  0  0  0
 37 70  1  0  0  0  0
 37 71  1  0  0  0  0
 37 83  2  0  0  0  0
 38 42  1  0  0  0  0
 39 53  1  0  0  0  0
 40 69  1  0  0  0  0
 41 76  1  0  0  0  0
 42 44  1  0  0  0  0
 43 45  1  0  0  0  0
 43 46  1  0  0  0  0
 44 51  1  0  0  0  0
 45 54  1  0  0  0  0
 46 70  1  0  0  0  0
 47 54  1  0  0  0  0
 47 70  1  0  0  0  0
 48 55  1  0  0  0  0
 48 71  1  0  0  0  0
 49 55  1  0  0  0  0
 49 71  1  0  0  0  0
 50 52  1  0  0  0  0
 50 76  1  0  0  0  0
 51 74  1  0  0  0  0
 52 62  1  0  0  0  0
 53 69  1  0  0  0  0
 54 68  1  0  0  0  0
 55 77  1  0  0  0  0
 56 64  1  0  0  0  0
 57 65  1  0  0  0  0
 58 65  1  0  0  0  0
 59 65  1  0  0  0  0
 60 78  1  0  0  0  0
 61 77  1  0  0  0  0
 62 85  1  0  0  0  0
 63 65  1  0  0  0  0
 63 75  1  0  0  0  0
 64 78  1  0  0  0  0
 67 68  1  0  0  0  0
M  CHG  3  76   1  77   1  78   1
M  ISO  4  37 100  62 101  71 100  85 101
M  END
> <Batch ID>
0198

> <Smiles>
CNC(C)C(=O)NC(C(=O)N1Cc2cc([101O:1][101CH2:1]C3CNCc4cc(CNC5C[100N:0]([100C:0](=O)N6CCCC(n7nc(-c8ccc(Oc9ccc(F)cc9F)cc8)c(C(N)=O)c7N)C6)C5)cnc43)ccc2CC1C(=O)NC1CCCc2ccccc21)C(C)(C)C

> <Shape>
0.253

> <Color>
0.076

> <Negative vol penalty>
0.000

$$$$

  -OEChem-04052323483D

 86 96  0     1  0  0  0  0  0999 V2000
  -29.8479  -20.7773   20.8706 C   0  0  0  0  0  0  0  0  0  0  0  0
  -29.0319  -21.7435   20.2931 C   0  0  0  0  0  0  0  0  0  0  0  0
  -22.5871  -10.2241   20.3697 C   0  0  0  0  0  0  0  0  0  0  0  0
  -24.4420   -9.4062   21.6841 C   0  0  0  0  0  0  0  0  0  0  0  0
  -30.2024  -20.8821   22.2139 C   0  0  0  0  0  0  0  0  0  0  0  0
  -28.5799  -22.8212   21.0555 C   0  0  0  0  0  0  0  0  0  0  0  0
  -26.1500  -26.3775   18.6782 C   0  0  0  0  0  0  0  0  0  0  0  0
  -21.7042   -9.4812   21.1533 C   0  0  0  0  0  0  0  0  0  0  0  0
  -23.5590   -8.6633   22.4678 C   0  0  0  0  0  0  0  0  0  0  0  0
  -24.8560  -26.2082   18.1877 C   0  0  0  0  0  0  0  0  0  0  0  0
  -21.8619   -5.7491   22.2273 C   0  0  0  0  0  0  0  0  0  0  0  0
  -22.2084   -4.4302   22.5209 C   0  0  0  0  0  0  0  0  0  0  0  0
  -23.9935  -27.4980   20.0347 C   0  0  0  0  0  0  0  0  0  0  0  0
  -21.5680  -22.3164   18.6762 C   0  0  0  0  0  0  0  0  0  0  0  0
  -22.1778   -4.9474   24.8807 C   0  0  0  0  0  0  0  0  0  0  0  0
  -23.9560  -10.1866   20.6350 C   0  0  0  0  0  0  0  0  0  0  0  0
  -25.0732  -10.8417   18.4372 C   0  0  0  0  0  0  0  0  0  0  0  0
  -29.7439  -21.9553   22.9956 C   0  0  0  0  0  0  0  0  0  0  0  0
  -26.3748  -27.1004   19.8586 C   0  0  0  0  0  0  0  0  0  0  0  0
  -28.9463  -22.9575   22.4067 C   0  0  0  0  0  0  0  0  0  0  0  0
  -25.2916  -27.6773   20.5368 C   0  0  0  0  0  0  0  0  0  0  0  0
  -21.2908  -23.6606   18.6333 C   0  0  0  0  0  0  0  0  0  0  0  0
  -22.1901   -8.7008   22.2024 C   0  0  0  0  0  0  0  0  0  0  0  0
  -23.7772  -26.7660   18.8675 C   0  0  0  0  0  0  0  0  0  0  0  0
  -21.6735   -6.6672   23.2605 C   0  0  0  0  0  0  0  0  0  0  0  0
  -22.3663   -4.0294   23.8475 C   0  0  0  0  0  0  0  0  0  0  0  0
  -21.8314   -6.2663   24.5871 C   0  0  0  0  0  0  0  0  0  0  0  0
  -24.8686  -10.9534   19.8255 C   0  0  0  0  0  0  0  0  0  0  0  0
  -21.9950  -24.5183   19.4615 C   0  0  0  0  0  0  0  0  0  0  0  0
  -22.5408  -21.9243   19.5777 C   0  0  0  0  0  0  0  0  0  0  0  0
  -26.0333  -11.7823   18.1548 C   0  0  0  0  0  0  0  0  0  0  0  0
  -24.4508   -9.9660   17.4877 C   0  0  0  0  0  0  0  0  0  0  0  0
  -27.5915  -26.4119   22.7133 C   0  0  0  0  0  0  0  0  0  0  0  0
  -27.2580  -29.6027   23.1927 C   0  0  0  0  0  0  0  0  0  0  0  0
  -24.7913  -32.1320   22.4608 C   0  0  0  0  0  0  0  0  0  0  0  0
  -27.6905  -16.8627   20.8391 C   0  0  0  0  0  0  0  0  0  0  0  0
  -30.1645  -22.0238   24.4426 C   0  0  0  0  0  0  0  0  0  0  0  0
  -27.7793  -27.2967   20.3601 C   0  0  0  0  0  0  0  0  0  0  0  0
  -20.3392  -24.4085   17.7611 C   0  0  0  0  0  0  0  0  0  0  0  0
  -25.4814  -28.4795   21.7973 C   0  0  0  0  0  0  0  0  0  0  0  0
  -29.2828  -22.9491   25.2748 C   0  0  0  0  0  0  0  0  0  0  0  0
  -20.2450  -25.7543   18.5072 C   0  0  0  0  0  0  0  0  0  0  0  0
  -29.7483  -14.0539   20.1408 C   0  0  0  0  0  0  0  0  0  0  0  0
  -29.1286  -24.2901   24.5731 C   0  0  0  0  0  0  0  0  0  0  0  0
  -28.7512  -12.9307   19.8506 C   0  0  0  0  0  0  0  0  0  0  0  0
  -26.1405  -19.1433   18.9647 C   0  0  0  0  0  0  0  0  0  0  0  0
  -29.2471  -14.9817   21.2454 C   0  0  0  0  0  0  0  0  0  0  0  0
  -26.9048  -14.4175   20.7342 C   0  0  0  0  0  0  0  0  0  0  0  0
  -25.3260  -20.4275   18.9691 C   0  0  0  0  0  0  0  0  0  0  0  0
  -24.5707  -18.8978   20.7222 C   0  0  0  0  0  0  0  0  0  0  0  0
  -28.4177  -24.1221   23.2243 C   0  0  1  0  0  0  0  0  0  0  0  0
  -21.5849  -25.9443   19.2379 C   0  0  2  0  0  0  0  0  0  1  0  0
  -27.8424  -27.6162   21.8505 C   0  0  1  0  0  0  0  0  0  0  0  0
  -27.3389  -13.4877   19.5880 C   0  0  2  0  0  0  0  0  0  0  0  0
  -26.0274  -18.6380   20.3927 C   0  0  1  0  0  0  0  0  0  0  0  0
  -25.0432  -34.6044   22.1132 C   0  0  0  0  0  0  0  0  0  0  0  0
  -26.6099  -29.7941   26.1682 C   0  0  0  0  0  0  0  0  0  0  0  0
  -25.2703  -31.8504   25.6729 C   0  0  0  0  0  0  0  0  0  0  0  0
  -27.7213  -31.8193   25.2102 C   0  0  0  0  0  0  0  0  0  0  0  0
  -23.4664  -32.0126   19.8171 C   0  0  0  0  0  0  0  0  0  0  0  0
  -22.8999  -20.4815   19.6935 C   0  0  0  0  0  0  0  0  0  0  0  0
  -26.1625  -30.4953   23.7239 C   0  0  1  0  0  0  0  0  0  0  0  0
  -24.9097  -33.2480   21.4386 C   0  0  2  0  0  0  0  0  0  0  0  0
  -26.4351  -30.9652   25.1807 C   0  0  0  0  0  0  0  0  0  0  0  0
  -25.6372  -11.8909   20.3861 N   0  0  0  0  0  0  0  0  0  0  0  0
  -22.9413  -24.1169   20.3241 N   0  0  0  0  0  0  0  0  0  0  0  0
  -23.2141  -22.7866   20.3850 N   0  0  0  0  0  0  0  0  0  0  0  0
  -26.3341  -12.3769   19.3448 N   0  0  0  0  0  0  0  0  0  0  0  0
  -26.8729  -28.6379   22.2511 N   0  0  0  0  0  0  0  0  0  0  0  0
  -27.9054  -15.4785   20.9299 N   0  0  0  0  0  0  0  0  0  0  0  0
  -26.6413  -12.1505   17.0071 N   0  0  0  0  0  0  0  0  0  0  0  0
  -23.4845   -9.0606   17.9471 N   0  0  0  0  0  0  0  0  0  0  0  0
  -28.4771  -25.3728   22.5004 N   0  0  0  0  0  0  0  0  0  0  0  0
  -26.0197  -31.5829   22.7621 N   0  0  0  0  0  0  0  0  0  0  0  0
  -26.3939  -17.2584   20.5274 N   0  0  0  0  0  0  0  0  0  0  0  0
  -24.3218  -20.2542   20.0951 N   0  3  2  0  0  0  0  0  0  0  0  0
  -23.7058  -33.2762   20.5607 N   0  3  0  0  0  0  0  0  0  0  0  0
  -24.7547   -9.9744   16.2707 O   0  0  0  0  0  0  0  0  0  0  0  0
  -26.6640  -26.4251   23.5142 O   0  0  0  0  0  0  0  0  0  0  0  0
  -28.4141  -29.7606   23.5930 O   0  0  0  0  0  0  0  0  0  0  0  0
  -23.7170  -31.7847   22.9465 O   0  0  0  0  0  0  0  0  0  0  0  0
  -28.5883  -17.6938   21.0142 O   0  0  0  0  0  0  0  0  0  0  0  0
  -21.3288   -7.9760   22.9674 O   0  0  0  0  0  0  0  0  0  0  0  0
  -22.5131  -26.6016   18.3913 O   0  0  0  0  0  0  0  0  0  1  0  0
  -22.6975   -2.7624   24.1293 F   0  0  0  0  0  0  0  0  0  0  0  0
  -21.6506   -7.1435   25.5839 F   0  0  0  0  0  0  0  0  0  0  0  0
  1  2  1  0  0  0  0
  1  5  2  0  0  0  0
  2  6  2  0  0  0  0
  3  8  2  0  0  0  0
  3 16  1  0  0  0  0
  4  9  1  0  0  0  0
  4 16  2  0  0  0  0
  5 18  1  0  0  0  0
  6 20  1  0  0  0  0
  7 10  2  0  0  0  0
  7 19  1  0  0  0  0
  8 23  1  0  0  0  0
  9 23  2  0  0  0  0
 10 24  1  0  0  0  0
 11 12  2  0  0  0  0
 11 25  1  0  0  0  0
 12 26  1  0  0  0  0
 13 21  1  0  0  0  0
 13 24  2  0  0  0  0
 14 22  1  0  0  0  0
 14 30  2  0  0  0  0
 15 26  2  0  0  0  0
 15 27  1  0  0  0  0
 16 28  1  0  0  0  0
 17 28  1  0  0  0  0
 17 31  2  0  0  0  0
 17 32  1  0  0  0  0
 18 20  2  0  0  0  0
 18 37  1  0  0  0  0
 19 21  2  0  0  0  0
 19 38  1  0  0  0  0
 20 51  1  0  0  0  0
 21 40  1  0  0  0  0
 22 29  2  0  0  0  0
 22 39  1  0  0  0  0
 23 83  1  0  0  0  0
 24 84  1  0  0  0  0
 25 27  2  0  0  0  0
 25 83  1  0  0  0  0
 26 85  1  0  0  0  0
 27 86  1  0  0  0  0
 28 65  2  0  0  0  0
 29 52  1  0  0  0  0
 29 66  1  0  0  0  0
 30 61  1  0  0  0  0
 30 67  1  0  0  0  0
 31 68  1  0  0  0  0
 31 71  1  0  0  0  0
 32 72  1  0  0  0  0
 32 78  2  0  0  0  0
 33 53  1  0  0  0  0
 33 73  1  0  0  0  0
 33 79  2  0  0  0  0
 34 62  1  0  0  0  0
 34 69  1  0  0  0  0
 34 80  2  0  0  0  0
 35 63  1  0  0  0  0
 35 74  1  0  0  0  0
 35 81  2  0  0  0  0
 36 70  1  0  0  0  0
 36 75  1  0  0  0  0
 36 82  2  0  0  0  0
 37 41  1  0  0  0  0
 38 53  1  0  0  0  0
 39 42  1  0  0  0  0
 40 69  1  0  0  0  0
 41 44  1  0  0  0  0
 42 52  1  0  0  0  0
 43 45  1  0  0  0  0
 43 47  1  0  0  0  0
 44 51  1  0  0  0  0
 45 54  1  0  0  0  0
 46 49  1  0  0  0  0
 46 55  1  0  0  0  0
 47 70  1  0  0  0  0
 48 54  1  0  0  0  0
 48 70  1  0  0  0  0
 49 76  1  0  0  0  0
 50 55  1  0  0  0  0
 50 76  1  0  0  0  0
 51 73  1  0  0  0  0
 52 84  1  0  0  0  0
 53 69  1  0  0  0  0
 54 68  1  0  0  0  0
 55 75  1  0  0  0  0
 56 63  1  0  0  0  0
 57 64  1  0  0  0  0
 58 64  1  0  0  0  0
 59 64  1  0  0  0  0
 60 77  1  0  0  0  0
 61 76  1  0  0  0  0
 62 64  1  0  0  0  0
 62 74  1  0  0  0  0
 63 77  1  0  0  0  0
 65 68  1  0  0  0  0
 66 67  2  0  0  0  0
M  CHG  2  76   1  77   1
M  ISO  4  36 100  52 101  75 100  84 101
M  END
> <Batch ID>
0198

> <Smiles>
CNC(C)C(=O)NC(C(=O)N1Cc2cc([101O:1][101CH:1]3CCc4cc(CN5CCC([100NH:0][100C:0](=O)N6CCCC(n7nc(-c8ccc(Oc9ccc(F)cc9F)cc8)c(C(N)=O)c7N)C6)C5)nnc43)ccc2CC1C(=O)NC1CCCc2ccccc21)C(C)(C)C

> <Shape>
0.250

> <Color>
0.076

> <Negative vol penalty>
0.000

$$$$

  -OEChem-04052323483D

 79 88  0     1  0  0  0  0  0999 V2000
  -27.2098  -31.9024   28.4461 C   0  0  0  0  0  0  0  0  0  0  0  0
  -27.5238  -30.9136   27.5193 C   0  0  0  0  0  0  0  0  0  0  0  0
  -26.3476  -13.1280   20.1015 C   0  0  0  0  0  0  0  0  0  0  0  0
  -27.5816  -12.0342   18.3358 C   0  0  0  0  0  0  0  0  0  0  0  0
  -25.9147  -32.4155   28.5045 C   0  0  0  0  0  0  0  0  0  0  0  0
  -26.5426  -30.4366   26.6509 C   0  0  0  0  0  0  0  0  0  0  0  0
  -27.3248  -28.6135   20.8569 C   0  0  0  0  0  0  0  0  0  0  0  0
  -25.3136  -12.2040   19.9513 C   0  0  0  0  0  0  0  0  0  0  0  0
  -26.5477  -11.1101   18.1856 C   0  0  0  0  0  0  0  0  0  0  0  0
  -27.4706  -27.3516   20.2822 C   0  0  0  0  0  0  0  0  0  0  0  0
  -24.6723   -9.0128   20.8669 C   0  0  0  0  0  0  0  0  0  0  0  0
  -24.1274   -8.4560   22.0239 C   0  0  0  0  0  0  0  0  0  0  0  0
  -25.1106  -27.3123   19.7845 C   0  0  0  0  0  0  0  0  0  0  0  0
  -21.9633   -9.3562   21.4380 C   0  0  0  0  0  0  0  0  0  0  0  0
  -27.4816  -13.0432   19.2937 C   0  0  0  0  0  0  0  0  0  0  0  0
  -29.6688  -13.8918   20.2954 C   0  0  0  0  0  0  0  0  0  0  0  0
  -24.9196  -31.9514   27.6299 C   0  0  0  0  0  0  0  0  0  0  0  0
  -26.0667  -29.2305   20.9096 C   0  0  0  0  0  0  0  0  0  0  0  0
  -25.2327  -30.9430   26.6985 C   0  0  0  0  0  0  0  0  0  0  0  0
  -24.9519  -28.5830   20.3581 C   0  0  0  0  0  0  0  0  0  0  0  0
  -25.4136  -11.1950   18.9934 C   0  0  0  0  0  0  0  0  0  0  0  0
  -26.3629  -26.6996   19.7485 C   0  0  0  0  0  0  0  0  0  0  0  0
  -23.8627   -9.7414   19.9954 C   0  0  0  0  0  0  0  0  0  0  0  0
  -22.7729   -8.6277   22.3094 C   0  0  0  0  0  0  0  0  0  0  0  0
  -22.5082   -9.9131   20.2810 C   0  0  0  0  0  0  0  0  0  0  0  0
  -28.5498  -13.9979   19.4479 C   0  0  0  0  0  0  0  0  0  0  0  0
  -30.3778  -15.0472   20.0741 C   0  0  0  0  0  0  0  0  0  0  0  0
  -30.0347  -12.8428   21.2017 C   0  0  0  0  0  0  0  0  0  0  0  0
  -24.1448  -30.2101   23.2442 C   0  0  0  0  0  0  0  0  0  0  0  0
  -22.4034  -31.4034   20.7813 C   0  0  0  0  0  0  0  0  0  0  0  0
  -21.5903  -31.2581   17.4700 C   0  0  0  0  0  0  0  0  0  0  0  0
  -28.9313  -20.3807   18.3857 C   0  0  0  0  0  0  0  0  0  0  0  0
  -23.5220  -32.5027   27.7623 C   0  0  0  0  0  0  0  0  0  0  0  0
  -25.9310  -30.6034   21.5090 C   0  0  0  0  0  0  0  0  0  0  0  0
  -23.5831  -29.2112   20.3714 C   0  0  0  0  0  0  0  0  0  0  0  0
  -22.6347  -32.2099   26.5552 C   0  0  0  0  0  0  0  0  0  0  0  0
  -31.2414  -18.3344   16.7140 C   0  0  0  0  0  0  0  0  0  0  0  0
  -22.7637  -30.7477   26.1400 C   0  0  0  0  0  0  0  0  0  0  0  0
  -30.9220  -16.9646   17.3121 C   0  0  0  0  0  0  0  0  0  0  0  0
  -27.2152  -23.5454   15.1195 C   0  0  0  0  0  0  0  0  0  0  0  0
  -29.9758  -19.1471   16.4350 C   0  0  0  0  0  0  0  0  0  0  0  0
  -28.7622  -17.9165   18.2048 C   0  0  0  0  0  0  0  0  0  0  0  0
  -28.6482  -21.7792   16.2990 C   0  0  0  0  0  0  0  0  0  0  0  0
  -29.1001  -22.8489   18.4427 C   0  0  0  0  0  0  0  0  0  0  0  0
  -27.6674  -24.5520   16.2008 C   0  0  0  0  0  0  0  0  0  0  0  0
  -24.2020  -30.4175   25.7230 C   0  0  1  0  0  0  0  0  0  0  0  0
  -24.5107  -30.9165   21.9695 C   0  0  1  0  0  0  0  0  0  0  0  0
  -30.0170  -17.0995   18.5497 C   0  0  1  0  0  0  0  0  0  0  0  0
  -27.2952  -22.4938   16.2558 C   0  0  1  0  0  0  0  0  0  0  0  0
  -27.7394  -23.5271   18.5066 C   0  0  1  0  0  0  0  0  0  0  0  0
  -20.1081  -32.3370   15.7563 C   0  0  0  0  0  0  0  0  0  0  0  0
  -20.0027  -29.8987   21.9138 C   0  0  0  0  0  0  0  0  0  0  0  0
  -18.8514  -30.2206   19.7140 C   0  0  0  0  0  0  0  0  0  0  0  0
  -19.4937  -32.2028   21.0855 C   0  0  0  0  0  0  0  0  0  0  0  0
  -23.9065  -32.1384   15.8516 C   0  0  0  0  0  0  0  0  0  0  0  0
  -27.8041  -24.8966   19.1755 C   0  0  0  0  0  0  0  0  0  1  0  0
  -21.2934  -30.8778   19.9034 C   0  0  1  0  0  0  0  0  0  0  0  0
  -21.4807  -32.3405   16.4113 C   0  0  2  0  0  0  0  0  0  0  0  0
  -19.9356  -30.7870   20.6555 C   0  0  0  0  0  0  0  0  0  0  0  0
  -28.5438  -15.1311   18.7410 N   0  0  0  0  0  0  0  0  0  0  0  0
  -29.6678  -15.7478   19.1440 N   0  0  0  0  0  0  0  0  0  0  0  0
  -23.5004  -30.5519   20.9741 N   0  0  0  0  0  0  0  0  0  0  0  0
  -29.1258  -19.2141   17.6319 N   0  0  0  0  0  0  0  0  0  0  0  0
  -29.0053  -21.6006   17.6996 N   0  0  0  0  0  0  0  0  0  0  0  0
  -31.5330  -15.5220   20.5864 N   0  0  0  0  0  0  0  0  0  0  0  0
  -29.1936  -11.7266   21.3063 N   0  0  0  0  0  0  0  0  0  0  0  0
  -24.4679  -30.9127   24.3894 N   0  0  0  0  0  0  0  0  0  0  0  0
  -21.2663  -31.7344   18.7228 N   0  0  0  0  0  0  0  0  0  0  0  0
  -27.0642  -23.6358   17.1860 N   0  3  1  0  0  0  0  0  0  0  0  0
  -22.5077  -32.1341   15.3513 N   0  3  0  0  0  0  0  0  0  0  0  0
  -31.0683  -12.9012   21.9102 O   0  0  0  0  0  0  0  0  0  0  0  0
  -23.6077  -29.1099   23.1925 O   0  0  0  0  0  0  0  0  0  0  0  0
  -22.3041  -32.5309   21.2718 O   0  0  0  0  0  0  0  0  0  0  0  0
  -21.9259  -30.1045   17.2109 O   0  0  0  0  0  0  0  0  0  0  0  0
  -28.7050  -20.3358   19.6014 O   0  0  0  0  0  0  0  0  0  0  0  0
  -24.4050  -10.2929   18.8468 O   0  0  0  0  0  0  0  0  0  0  0  0
  -26.5036  -25.4565   19.1824 O   0  0  0  0  0  0  0  0  0  1  0  0
  -22.2495   -8.0916   23.4198 F   0  0  0  0  0  0  0  0  0  0  0  0
  -21.7252  -10.6110   19.4469 F   0  0  0  0  0  0  0  0  0  0  0  0
  1  2  1  0  0  0  0
  1  5  2  0  0  0  0
  2  6  2  0  0  0  0
  3  8  2  0  0  0  0
  3 15  1  0  0  0  0
  4  9  1  0  0  0  0
  4 15  2  0  0  0  0
  5 17  1  0  0  0  0
  6 19  1  0  0  0  0
  7 10  2  0  0  0  0
  7 18  1  0  0  0  0
  8 21  1  0  0  0  0
  9 21  2  0  0  0  0
 10 22  1  0  0  0  0
 11 12  2  0  0  0  0
 11 23  1  0  0  0  0
 12 24  1  0  0  0  0
 13 20  1  0  0  0  0
 13 22  2  0  0  0  0
 14 24  2  0  0  0  0
 14 25  1  0  0  0  0
 15 26  1  0  0  0  0
 16 26  1  0  0  0  0
 16 27  2  0  0  0  0
 16 28  1  0  0  0  0
 17 19  2  0  0  0  0
 17 33  1  0  0  0  0
 18 20  2  0  0  0  0
 18 34  1  0  0  0  0
 19 46  1  0  0  0  0
 20 35  1  0  0  0  0
 21 76  1  0  0  0  0
 22 77  1  0  0  0  0
 23 25  2  0  0  0  0
 23 76  1  0  0  0  0
 24 78  1  0  0  0  0
 25 79  1  0  0  0  0
 26 60  2  0  0  0  0
 27 61  1  0  0  0  0
 27 65  1  0  0  0  0
 28 66  1  0  0  0  0
 28 71  2  0  0  0  0
 29 47  1  0  0  0  0
 29 67  1  0  0  0  0
 29 72  2  0  0  0  0
 30 57  1  0  0  0  0
 30 62  1  0  0  0  0
 30 73  2  0  0  0  0
 31 58  1  0  0  0  0
 31 68  1  0  0  0  0
 31 74  2  0  0  0  0
 32 63  1  0  0  0  0
 32 64  1  0  0  0  0
 32 75  2  0  0  0  0
 33 36  1  0  0  0  0
 34 47  1  0  0  0  0
 35 62  1  0  0  0  0
 36 38  1  0  0  0  0
 37 39  1  0  0  0  0
 37 41  1  0  0  0  0
 38 46  1  0  0  0  0
 39 48  1  0  0  0  0
 40 45  1  0  0  0  0
 40 49  1  0  0  0  0
 41 63  1  0  0  0  0
 42 48  1  0  0  0  0
 42 63  1  0  0  0  0
 43 49  1  0  0  0  0
 43 64  1  0  0  0  0
 44 50  1  0  0  0  0
 44 64  1  0  0  0  0
 45 69  1  0  0  0  0
 46 67  1  0  0  0  0
 47 62  1  0  0  0  0
 48 61  1  0  0  0  0
 49 69  1  0  0  0  0
 50 56  1  0  0  0  0
 50 69  1  0  0  0  0
 51 58  1  0  0  0  0
 52 59  1  0  0  0  0
 53 59  1  0  0  0  0
 54 59  1  0  0  0  0
 55 70  1  0  0  0  0
 56 77  1  0  0  0  0
 57 59  1  0  0  0  0
 57 68  1  0  0  0  0
 58 70  1  0  0  0  0
 60 61  1  0  0  0  0
M  CHG  2  69   1  70   1
M  ISO  4  32 100  56 101  64 100  77 101
M  END
> <Batch ID>
0198

> <Smiles>
CNC(C)C(=O)NC(C(=O)N1Cc2cc([101O:1][101CH2:1]C3C[100N:0]([100C:0](=O)N4CCCC(n5nc(-c6ccc(Oc7ccc(F)cc7F)cc6)c(C(N)=O)c5N)C4)CC4CCN43)ccc2CC1C(=O)NC1CCCc2ccccc21)C(C)(C)C

> <Shape>
0.246

> <Color>
0.090

> <Negative vol penalty>
0.000

$$$$

  -OEChem-04052323483D

 83 91  0     1  0  0  0  0  0999 V2000
  -21.7083  -36.0493   17.2713 C   0  0  0  0  0  0  0  0  0  0  0  0
  -21.9117  -34.7272   16.8894 C   0  0  0  0  0  0  0  0  0  0  0  0
  -23.4634   -9.3298   20.3289 C   0  0  0  0  0  0  0  0  0  0  0  0
  -23.0459  -11.0878   21.9326 C   0  0  0  0  0  0  0  0  0  0  0  0
  -22.5150  -36.6219   18.2538 C   0  0  0  0  0  0  0  0  0  0  0  0
  -22.9227  -33.9770   17.4890 C   0  0  0  0  0  0  0  0  0  0  0  0
  -24.4640  -27.2720   19.4849 C   0  0  0  0  0  0  0  0  0  0  0  0
  -22.6371   -8.4716   21.0545 C   0  0  0  0  0  0  0  0  0  0  0  0
  -22.2196  -10.2297   22.6582 C   0  0  0  0  0  0  0  0  0  0  0  0
  -25.4601  -26.3073   19.3405 C   0  0  0  0  0  0  0  0  0  0  0  0
  -22.8483   -6.5847   23.8507 C   0  0  0  0  0  0  0  0  0  0  0  0
  -23.3037   -5.2860   24.0779 C   0  0  0  0  0  0  0  0  0  0  0  0
  -26.7404  -27.3769   21.0828 C   0  0  0  0  0  0  0  0  0  0  0  0
  -21.3808   -4.4072   22.9087 C   0  0  0  0  0  0  0  0  0  0  0  0
  -23.6679  -10.6379   20.7680 C   0  0  0  0  0  0  0  0  0  0  0  0
  -24.1428  -12.3883   18.9741 C   0  0  0  0  0  0  0  0  0  0  0  0
  -23.5301  -35.8755   18.8727 C   0  0  0  0  0  0  0  0  0  0  0  0
  -24.6039  -28.3045   20.4235 C   0  0  0  0  0  0  0  0  0  0  0  0
  -23.7446  -34.5405   18.4798 C   0  0  0  0  0  0  0  0  0  0  0  0
  -25.7435  -28.3521   21.2390 C   0  0  0  0  0  0  0  0  0  0  0  0
  -22.0152   -8.9216   22.2191 C   0  0  0  0  0  0  0  0  0  0  0  0
  -26.5998  -26.3613   20.1374 C   0  0  0  0  0  0  0  0  0  0  0  0
  -21.6591   -6.7947   23.1526 C   0  0  0  0  0  0  0  0  0  0  0  0
  -22.5700   -4.1973   23.6068 C   0  0  0  0  0  0  0  0  0  0  0  0
  -20.9253   -5.7059   22.6816 C   0  0  0  0  0  0  0  0  0  0  0  0
  -24.5218  -11.5246   20.0192 C   0  0  0  0  0  0  0  0  0  0  0  0
  -25.3103  -13.0077   18.6002 C   0  0  0  0  0  0  0  0  0  0  0  0
  -22.8510  -12.6108   18.3932 C   0  0  0  0  0  0  0  0  0  0  0  0
  -24.7811  -31.4741   20.2618 C   0  0  0  0  0  0  0  0  0  0  0  0
  -24.6924  -31.2547   23.4970 C   0  0  0  0  0  0  0  0  0  0  0  0
  -25.2526  -29.3750   26.2898 C   0  0  0  0  0  0  0  0  0  0  0  0
  -29.9759  -15.6870   20.4477 C   0  0  0  0  0  0  0  0  0  0  0  0
  -24.4074  -36.5519   19.8962 C   0  0  0  0  0  0  0  0  0  0  0  0
  -23.5082  -29.3221   20.5856 C   0  0  0  0  0  0  0  0  0  0  0  0
  -25.9326  -29.4283   22.2756 C   0  0  0  0  0  0  0  0  0  0  0  0
  -25.2131  -35.5750   20.7488 C   0  0  0  0  0  0  0  0  0  0  0  0
  -30.1115  -12.0365   19.8187 C   0  0  0  0  0  0  0  0  0  0  0  0
  -25.8689  -34.5146   19.8700 C   0  0  0  0  0  0  0  0  0  0  0  0
  -28.6341  -11.6485   19.8073 C   0  0  0  0  0  0  0  0  0  0  0  0
  -29.7470  -19.0859   19.7904 C   0  0  0  0  0  0  0  0  0  0  0  0
  -28.7682  -17.7653   17.8719 C   0  0  0  0  0  0  0  0  0  0  0  0
  -30.3687  -13.2624   20.6892 C   0  0  0  0  0  0  0  0  0  0  0  0
  -29.2145  -18.0246   20.7495 C   0  0  0  0  0  0  0  0  0  0  0  0
  -28.2766  -16.7131   18.8703 C   0  0  0  0  0  0  0  0  0  0  0  0
  -28.0542  -14.0539   20.3166 C   0  0  0  0  0  0  0  0  0  0  0  0
  -24.8149  -33.6869   19.1247 C   0  0  1  0  0  0  0  0  0  0  0  0
  -23.9909  -30.6245   21.2166 C   0  0  1  0  0  0  0  0  0  0  0  0
  -27.7560  -12.8483   19.4125 C   0  0  2  0  0  0  0  0  0  0  0  0
  -28.8839  -19.1380   18.5314 C   0  0  0  0  0  0  0  0  0  0  0  0
  -25.1225  -29.4800   28.7937 C   0  0  0  0  0  0  0  0  0  0  0  0
  -30.8397  -22.2009   17.2804 C   0  0  0  0  0  0  0  0  0  0  0  0
  -27.2350  -32.9404   23.5560 C   0  0  0  0  0  0  0  0  0  0  0  0
  -27.5743  -32.2199   25.9296 C   0  0  0  0  0  0  0  0  0  0  0  0
  -25.5486  -33.5346   25.3045 C   0  0  0  0  0  0  0  0  0  0  0  0
  -23.2860  -27.1659   26.3961 C   0  0  0  0  0  0  0  0  0  0  0  0
  -28.7885  -20.0777   16.2253 C   0  0  0  0  0  0  0  0  0  0  0  0
  -28.6615  -23.4787   19.0650 C   0  0  0  0  0  0  0  0  0  0  0  0
  -27.4314  -24.3727   19.0316 C   0  0  0  0  0  0  0  0  0  1  0  0
  -25.7267  -31.1166   24.5879 C   0  0  1  0  0  0  0  0  0  0  0  0
  -24.3936  -29.1066   27.5123 C   0  0  2  0  0  0  0  0  0  0  0  0
  -29.7388  -21.5161   18.0984 C   0  0  1  0  0  0  0  0  0  0  0  0
  -26.5188  -32.4336   24.8237 C   0  0  0  0  0  0  0  0  0  0  0  0
  -25.8279  -11.5869   20.2917 N   0  0  0  0  0  0  0  0  0  0  0  0
  -26.2798  -12.4970   19.4123 N   0  0  0  0  0  0  0  0  0  0  0  0
  -24.8361  -30.4039   22.3918 N   0  0  0  0  0  0  0  0  0  0  0  0
  -29.4897  -14.3745   20.3269 N   0  0  0  0  0  0  0  0  0  0  0  0
  -29.1015  -16.7236   20.0875 N   0  0  0  0  0  0  0  0  0  0  0  0
  -25.5919  -13.9339   17.6593 N   0  0  0  0  0  0  0  0  0  0  0  0
  -21.7590  -11.8910   18.8969 N   0  0  0  0  0  0  0  0  0  0  0  0
  -24.2186  -32.7112   20.0117 N   0  0  0  0  0  0  0  0  0  0  0  0
  -25.0162  -30.6278   25.7646 N   0  0  0  0  0  0  0  0  0  0  0  0
  -28.5513  -22.3860   18.1068 N   0  0  0  0  0  0  0  0  0  0  0  0
  -24.0291  -27.6632   27.5825 N   0  3  0  0  0  0  0  0  0  0  0  0
  -29.4907  -20.0908   17.5662 N   0  3  1  0  0  0  0  0  0  0  0  0
  -22.6734  -13.4118   17.4443 O   0  0  0  0  0  0  0  0  0  0  0  0
  -25.8246  -31.0399   19.7883 O   0  0  0  0  0  0  0  0  0  0  0  0
  -23.7861  -32.0818   23.6241 O   0  0  0  0  0  0  0  0  0  0  0  0
  -26.0558  -28.5567   25.8474 O   0  0  0  0  0  0  0  0  0  0  0  0
  -31.1229  -15.9171   20.8511 O   0  0  0  0  0  0  0  0  0  0  0  0
  -21.2087   -8.0846   22.9272 O   0  0  0  0  0  0  0  0  0  0  0  0
  -27.5906  -25.4051   19.9956 O   0  0  0  0  0  0  0  0  0  1  0  0
  -23.0083   -2.9502   23.8237 F   0  0  0  0  0  0  0  0  0  0  0  0
  -19.7827   -5.9014   22.0092 F   0  0  0  0  0  0  0  0  0  0  0  0
  1  2  1  0  0  0  0
  1  5  2  0  0  0  0
  2  6  2  0  0  0  0
  3  8  2  0  0  0  0
  3 15  1  0  0  0  0
  4  9  1  0  0  0  0
  4 15  2  0  0  0  0
  5 17  1  0  0  0  0
  6 19  1  0  0  0  0
  7 10  2  0  0  0  0
  7 18  1  0  0  0  0
  8 21  1  0  0  0  0
  9 21  2  0  0  0  0
 10 22  1  0  0  0  0
 11 12  2  0  0  0  0
 11 23  1  0  0  0  0
 12 24  1  0  0  0  0
 13 20  1  0  0  0  0
 13 22  2  0  0  0  0
 14 24  2  0  0  0  0
 14 25  1  0  0  0  0
 15 26  1  0  0  0  0
 16 26  1  0  0  0  0
 16 27  2  0  0  0  0
 16 28  1  0  0  0  0
 17 19  2  0  0  0  0
 17 33  1  0  0  0  0
 18 20  2  0  0  0  0
 18 34  1  0  0  0  0
 19 46  1  0  0  0  0
 20 35  1  0  0  0  0
 21 80  1  0  0  0  0
 22 81  1  0  0  0  0
 23 25  2  0  0  0  0
 23 80  1  0  0  0  0
 24 82  1  0  0  0  0
 25 83  1  0  0  0  0
 26 63  2  0  0  0  0
 27 64  1  0  0  0  0
 27 68  1  0  0  0  0
 28 69  1  0  0  0  0
 28 75  2  0  0  0  0
 29 47  1  0  0  0  0
 29 70  1  0  0  0  0
 29 76  2  0  0  0  0
 30 59  1  0  0  0  0
 30 65  1  0  0  0  0
 30 77  2  0  0  0  0
 31 60  1  0  0  0  0
 31 71  1  0  0  0  0
 31 78  2  0  0  0  0
 32 66  1  0  0  0  0
 32 67  1  0  0  0  0
 32 79  2  0  0  0  0
 33 36  1  0  0  0  0
 34 47  1  0  0  0  0
 35 65  1  0  0  0  0
 36 38  1  0  0  0  0
 37 39  1  0  0  0  0
 37 42  1  0  0  0  0
 38 46  1  0  0  0  0
 39 48  1  0  0  0  0
 40 43  1  0  0  0  0
 40 49  1  0  0  0  0
 41 44  1  0  0  0  0
 41 49  1  0  0  0  0
 42 66  1  0  0  0  0
 43 67  1  0  0  0  0
 44 67  1  0  0  0  0
 45 48  1  0  0  0  0
 45 66  1  0  0  0  0
 46 70  1  0  0  0  0
 47 65  1  0  0  0  0
 48 64  1  0  0  0  0
 49 74  1  0  0  0  0
 50 60  1  0  0  0  0
 51 61  1  0  0  0  0
 52 62  1  0  0  0  0
 53 62  1  0  0  0  0
 54 62  1  0  0  0  0
 55 73  1  0  0  0  0
 56 74  1  0  0  0  0
 57 58  1  0  0  0  0
 57 72  1  0  0  0  0
 58 81  1  0  0  0  0
 59 62  1  0  0  0  0
 59 71  1  0  0  0  0
 60 73  1  0  0  0  0
 61 72  1  0  0  0  0
 61 74  1  0  0  0  0
 63 64  1  0  0  0  0
M  CHG  2  73   1  74   1
M  ISO  4  32 100  58 101  67 100  81 101
M  END
> <Batch ID>
0198

> <Smiles>
CNC(C)C(=O)NC(C(=O)N1Cc2cc([101O:1][101CH2:1]CNC(C)N(C)C3CC[100N:0]([100C:0](=O)N4CCCC(n5nc(-c6ccc(Oc7ccc(F)cc7F)cc6)c(C(N)=O)c5N)C4)CC3)ccc2CC1C(=O)NC1CCCc2ccccc21)C(C)(C)C

> <Shape>
0.290

> <Color>
0.101

> <Negative vol penalty>
0.000

$$$$

  -OEChem-04052323483D

 86 96  0     1  0  0  0  0  0999 V2000
  -31.0677  -35.7029   25.5679 C   0  0  0  0  0  0  0  0  0  0  0  0
  -31.2060  -34.5643   24.7805 C   0  0  0  0  0  0  0  0  0  0  0  0
  -24.5583   -9.6156   21.6192 C   0  0  0  0  0  0  0  0  0  0  0  0
  -22.8419   -9.8813   23.2987 C   0  0  0  0  0  0  0  0  0  0  0  0
  -29.9923  -35.8139   26.4482 C   0  0  0  0  0  0  0  0  0  0  0  0
  -30.2695  -33.5354   24.8739 C   0  0  0  0  0  0  0  0  0  0  0  0
  -28.3088  -29.9189   20.3372 C   0  0  0  0  0  0  0  0  0  0  0  0
  -24.6942   -8.2726   21.9707 C   0  0  0  0  0  0  0  0  0  0  0  0
  -22.9778   -8.5383   23.6501 C   0  0  0  0  0  0  0  0  0  0  0  0
  -28.6642  -28.6288   19.9458 C   0  0  0  0  0  0  0  0  0  0  0  0
  -21.9744   -5.5396   22.4581 C   0  0  0  0  0  0  0  0  0  0  0  0
  -20.8075   -4.7973   22.6392 C   0  0  0  0  0  0  0  0  0  0  0  0
  -26.8109  -27.7415   21.2096 C   0  0  0  0  0  0  0  0  0  0  0  0
  -21.4484   -4.3472   24.9247 C   0  0  0  0  0  0  0  0  0  0  0  0
  -29.7416  -22.9906   17.7115 C   0  0  0  0  0  0  0  0  0  0  0  0
  -23.6321  -10.4200   22.2833 C   0  0  0  0  0  0  0  0  0  0  0  0
  -22.6267  -12.3496   20.9517 C   0  0  0  0  0  0  0  0  0  0  0  0
  -29.0367  -34.7901   26.5454 C   0  0  0  0  0  0  0  0  0  0  0  0
  -27.2065  -30.1294   21.1779 C   0  0  0  0  0  0  0  0  0  0  0  0
  -29.1809  -33.6322   25.7574 C   0  0  0  0  0  0  0  0  0  0  0  0
  -26.4421  -29.0354   21.6081 C   0  0  0  0  0  0  0  0  0  0  0  0
  -29.9029  -22.5809   19.0486 C   0  0  0  0  0  0  0  0  0  0  0  0
  -23.9040   -7.7340   22.9861 C   0  0  0  0  0  0  0  0  0  0  0  0
  -27.9169  -27.5396   20.3844 C   0  0  0  0  0  0  0  0  0  0  0  0
  -22.8785   -5.6856   23.5103 C   0  0  0  0  0  0  0  0  0  0  0  0
  -20.5444   -4.2012   23.8725 C   0  0  0  0  0  0  0  0  0  0  0  0
  -22.6154   -5.0895   24.7436 C   0  0  0  0  0  0  0  0  0  0  0  0
  -23.4916  -11.8075   21.9211 C   0  0  0  0  0  0  0  0  0  0  0  0
  -29.7926  -23.7393   19.7783 C   0  0  0  0  0  0  0  0  0  0  0  0
  -22.8720  -13.7005   20.9897 C   0  0  0  0  0  0  0  0  0  0  0  0
  -21.6857  -11.6910   20.0935 C   0  0  0  0  0  0  0  0  0  0  0  0
  -26.8031  -31.3521   24.0841 C   0  0  0  0  0  0  0  0  0  0  0  0
  -23.6590  -30.9645   23.3861 C   0  0  0  0  0  0  0  0  0  0  0  0
  -21.2741  -29.3331   21.5703 C   0  0  0  0  0  0  0  0  0  0  0  0
  -26.1315  -17.9629   21.1545 C   0  0  0  0  0  0  0  0  0  0  0  0
  -27.9173  -34.9345   27.5457 C   0  0  0  0  0  0  0  0  0  0  0  0
  -26.8203  -31.5294   21.5693 C   0  0  0  0  0  0  0  0  0  0  0  0
  -25.2375  -29.2095   22.4953 C   0  0  0  0  0  0  0  0  0  0  0  0
  -26.7629  -33.9633   27.3124 C   0  0  0  0  0  0  0  0  0  0  0  0
  -25.4993  -16.4900   24.2809 C   0  0  0  0  0  0  0  0  0  0  0  0
  -27.2922  -32.5539   27.0672 C   0  0  0  0  0  0  0  0  0  0  0  0
  -30.9033  -24.8469   21.8787 C   0  0  0  0  0  0  0  0  0  0  0  0
  -31.1250  -23.3722   22.0063 C   0  0  0  0  0  0  0  0  0  0  0  0
  -24.8460  -15.1714   23.8682 C   0  0  0  0  0  0  0  0  0  0  0  0
  -26.6725  -16.8583   23.3708 C   0  0  0  0  0  0  0  0  0  0  0  0
  -28.2968  -18.9342   22.0449 C   0  0  0  0  0  0  0  0  0  0  0  0
  -26.6568  -20.3673   20.8854 C   0  0  0  0  0  0  0  0  0  0  0  0
  -25.6793  -15.5550   21.5177 C   0  0  0  0  0  0  0  0  0  0  0  0
  -29.3734  -19.3394   21.0432 C   0  0  0  0  0  0  0  0  0  0  0  0
  -27.6976  -20.7735   19.8548 C   0  0  0  0  0  0  0  0  0  0  0  0
  -28.1721  -32.5056   25.8122 C   0  0  1  0  0  0  0  0  0  0  0  0
  -29.8874  -23.8842   21.2952 C   0  0  0  0  0  0  0  0  0  0  0  0
  -25.9855  -31.5845   22.8451 C   0  0  1  0  0  0  0  0  0  0  0  0
  -24.4604  -15.1886   22.3784 C   0  0  1  0  0  0  0  0  0  0  0  0
  -18.7890  -29.2064   21.2459 C   0  0  0  0  0  0  0  0  0  0  0  0
  -23.4004  -29.4056   25.9963 C   0  0  0  0  0  0  0  0  0  0  0  0
  -21.2104  -28.5186   25.1683 C   0  0  0  0  0  0  0  0  0  0  0  0
  -21.5072  -30.9699   25.5234 C   0  0  0  0  0  0  0  0  0  0  0  0
  -21.4875  -30.1322   18.7286 C   0  0  0  0  0  0  0  0  0  0  0  0
  -30.1398  -21.1880   19.5531 C   0  0  0  0  0  0  0  0  0  0  0  0
  -29.4029  -26.1382   19.1533 C   0  0  0  0  0  0  0  0  0  1  0  0
  -22.6531  -29.8533   23.5658 C   0  0  1  0  0  0  0  0  0  0  0  0
  -20.0863  -29.8461   20.7764 C   0  0  2  0  0  0  0  0  0  0  0  0
  -22.2166  -29.6831   25.0483 C   0  0  0  0  0  0  0  0  0  0  0  0
  -29.5438  -24.3065   17.5956 N   0  0  0  0  0  0  0  0  0  0  0  0
  -24.2312  -12.7380   22.5304 N   0  0  0  0  0  0  0  0  0  0  0  0
  -29.5800  -24.7337   18.8693 N   0  0  0  0  0  0  0  0  0  0  0  0
  -23.8317  -13.8784   21.9423 N   0  0  0  0  0  0  0  0  0  0  0  0
  -24.9040  -30.5974   22.8558 N   0  0  0  0  0  0  0  0  0  0  0  0
  -26.2675  -16.8215   21.9587 N   0  0  0  0  0  0  0  0  0  0  0  0
  -26.9583  -19.0557   21.4546 N   0  0  0  0  0  0  0  0  0  0  0  0
  -22.3582  -14.7416   20.3009 N   0  0  0  0  0  0  0  0  0  0  0  0
  -21.5598  -10.2981   20.1843 N   0  0  0  0  0  0  0  0  0  0  0  0
  -27.3519  -32.5016   24.6198 N   0  0  0  0  0  0  0  0  0  0  0  0
  -21.5558  -30.1439   22.6494 N   0  0  0  0  0  0  0  0  0  0  0  0
  -29.0666  -20.7109   20.4912 N   0  3  0  0  0  0  0  0  0  0  0  0
  -20.2619  -29.5439   19.3277 N   0  3  0  0  0  0  0  0  0  0  0  0
  -20.9892  -12.3173   19.2592 O   0  0  0  0  0  0  0  0  0  0  0  0
  -26.9256  -30.2144   24.5226 O   0  0  0  0  0  0  0  0  0  0  0  0
  -23.3491  -32.1171   23.6980 O   0  0  0  0  0  0  0  0  0  0  0  0
  -21.8882  -28.3130   21.2658 O   0  0  0  0  0  0  0  0  0  0  0  0
  -25.3190  -18.0031   20.2220 O   0  0  0  0  0  0  0  0  0  0  0  0
  -24.0362   -6.4235   23.3291 O   0  0  0  0  0  0  0  0  0  0  0  0
  -28.2642  -26.2711   20.0020 O   0  0  0  0  0  0  0  0  0  1  0  0
  -19.4230   -3.4897   24.0467 F   0  0  0  0  0  0  0  0  0  0  0  0
  -23.4796   -5.2273   25.7585 F   0  0  0  0  0  0  0  0  0  0  0  0
  1  2  1  0  0  0  0
  1  5  2  0  0  0  0
  2  6  2  0  0  0  0
  3  8  2  0  0  0  0
  3 16  1  0  0  0  0
  4  9  1  0  0  0  0
  4 16  2  0  0  0  0
  5 18  1  0  0  0  0
  6 20  1  0  0  0  0
  7 10  2  0  0  0  0
  7 19  1  0  0  0  0
  8 23  1  0  0  0  0
  9 23  2  0  0  0  0
 10 24  1  0  0  0  0
 11 12  2  0  0  0  0
 11 25  1  0  0  0  0
 12 26  1  0  0  0  0
 13 21  1  0  0  0  0
 13 24  2  0  0  0  0
 14 26  2  0  0  0  0
 14 27  1  0  0  0  0
 15 22  1  0  0  0  0
 15 65  2  0  0  0  0
 16 28  1  0  0  0  0
 17 28  1  0  0  0  0
 17 30  2  0  0  0  0
 17 31  1  0  0  0  0
 18 20  2  0  0  0  0
 18 36  1  0  0  0  0
 19 21  2  0  0  0  0
 19 37  1  0  0  0  0
 20 51  1  0  0  0  0
 21 38  1  0  0  0  0
 22 29  2  0  0  0  0
 22 60  1  0  0  0  0
 23 83  1  0  0  0  0
 24 84  1  0  0  0  0
 25 27  2  0  0  0  0
 25 83  1  0  0  0  0
 26 85  1  0  0  0  0
 27 86  1  0  0  0  0
 28 66  2  0  0  0  0
 29 52  1  0  0  0  0
 29 67  1  0  0  0  0
 30 68  1  0  0  0  0
 30 72  1  0  0  0  0
 31 73  1  0  0  0  0
 31 78  2  0  0  0  0
 32 53  1  0  0  0  0
 32 74  1  0  0  0  0
 32 79  2  0  0  0  0
 33 62  1  0  0  0  0
 33 69  1  0  0  0  0
 33 80  2  0  0  0  0
 34 63  1  0  0  0  0
 34 75  1  0  0  0  0
 34 81  2  0  0  0  0
 35 70  1  0  0  0  0
 35 71  1  0  0  0  0
 35 82  2  0  0  0  0
 36 39  1  0  0  0  0
 37 53  1  0  0  0  0
 38 69  1  0  0  0  0
 39 41  1  0  0  0  0
 40 44  1  0  0  0  0
 40 45  1  0  0  0  0
 41 51  1  0  0  0  0
 42 43  1  0  0  0  0
 42 52  1  0  0  0  0
 43 52  1  0  0  0  0
 44 54  1  0  0  0  0
 45 70  1  0  0  0  0
 46 49  1  0  0  0  0
 46 71  1  0  0  0  0
 47 50  1  0  0  0  0
 47 71  1  0  0  0  0
 48 54  1  0  0  0  0
 48 70  1  0  0  0  0
 49 76  1  0  0  0  0
 50 76  1  0  0  0  0
 51 74  1  0  0  0  0
 53 69  1  0  0  0  0
 54 68  1  0  0  0  0
 55 63  1  0  0  0  0
 56 64  1  0  0  0  0
 57 64  1  0  0  0  0
 58 64  1  0  0  0  0
 59 77  1  0  0  0  0
 60 76  1  0  0  0  0
 61 67  1  0  0  0  0
 61 84  1  0  0  0  0
 62 64  1  0  0  0  0
 62 75  1  0  0  0  0
 63 77  1  0  0  0  0
 65 67  1  0  0  0  0
 66 68  1  0  0  0  0
M  CHG  2  76   1  77   1
M  ISO  4  35 100  61 101  71 100  84 101
M  END
> <Batch ID>
0198

> <Smiles>
CNC(C)C(=O)NC(C(=O)N1Cc2cc([101O:1][101CH2:1]n3ncc(CN4CC[100N:0]([100C:0](=O)N5CCCC(n6nc(-c7ccc(Oc8ccc(F)cc8F)cc7)c(C(N)=O)c6N)C5)CC4)c3C3CC3)ccc2CC1C(=O)NC1CCCc2ccccc21)C(C)(C)C

> <Shape>
0.280

> <Color>
0.080

> <Negative vol penalty>
0.000

$$$$

  -OEChem-04052323483D

 83 92  0     1  0  0  0  0  0999 V2000
  -21.9057  -12.1100   19.0243 C   0  0  0  0  0  0  0  0  0  0  0  0
  -21.7067  -13.3493   19.6242 C   0  0  0  0  0  0  0  0  0  0  0  0
  -25.6880  -26.9205   20.3371 C   0  0  0  0  0  0  0  0  0  0  0  0
  -25.5130  -29.2968   20.7371 C   0  0  0  0  0  0  0  0  0  0  0  0
  -23.1449  -11.4790   19.1249 C   0  0  0  0  0  0  0  0  0  0  0  0
  -22.7466  -13.9579   20.3261 C   0  0  0  0  0  0  0  0  0  0  0  0
  -23.2066  -18.8815   19.2345 C   0  0  0  0  0  0  0  0  0  0  0  0
  -26.6152  -27.1595   19.3229 C   0  0  0  0  0  0  0  0  0  0  0  0
  -26.4403  -29.5358   19.7228 C   0  0  0  0  0  0  0  0  0  0  0  0
  -22.3002  -19.7542   19.8350 C   0  0  0  0  0  0  0  0  0  0  0  0
  -29.2992  -27.1229   16.8713 C   0  0  0  0  0  0  0  0  0  0  0  0
  -30.4420  -26.3240   16.8361 C   0  0  0  0  0  0  0  0  0  0  0  0
  -23.9647  -20.3421   21.4791 C   0  0  0  0  0  0  0  0  0  0  0  0
  -31.0501  -27.0964   19.0430 C   0  0  0  0  0  0  0  0  0  0  0  0
  -25.1368  -27.9892   21.0442 C   0  0  0  0  0  0  0  0  0  0  0  0
  -24.4472  -27.5331   23.4575 C   0  0  0  0  0  0  0  0  0  0  0  0
  -24.2035  -12.0847   19.8202 C   0  0  0  0  0  0  0  0  0  0  0  0
  -24.4975  -18.7242   19.7592 C   0  0  0  0  0  0  0  0  0  0  0  0
  -24.0008  -13.3339   20.4372 C   0  0  0  0  0  0  0  0  0  0  0  0
  -24.8865  -19.4687   20.8819 C   0  0  0  0  0  0  0  0  0  0  0  0
  -26.9914  -28.4671   19.0157 C   0  0  0  0  0  0  0  0  0  0  0  0
  -22.6782  -20.4825   20.9592 C   0  0  0  0  0  0  0  0  0  0  0  0
  -29.0318  -27.9086   17.9924 C   0  0  0  0  0  0  0  0  0  0  0  0
  -31.3175  -26.3107   17.9219 C   0  0  0  0  0  0  0  0  0  0  0  0
  -29.9073  -27.8954   19.0783 C   0  0  0  0  0  0  0  0  0  0  0  0
  -24.1785  -27.7430   22.0917 C   0  0  0  0  0  0  0  0  0  0  0  0
  -23.2108  -27.3472   24.0260 C   0  0  0  0  0  0  0  0  0  0  0  0
  -25.7022  -27.5084   24.1504 C   0  0  0  0  0  0  0  0  0  0  0  0
  -26.1350  -16.2976   20.9979 C   0  0  0  0  0  0  0  0  0  0  0  0
  -28.5692  -18.4415   20.9835 C   0  0  0  0  0  0  0  0  0  0  0  0
  -29.5515  -21.7099   20.9934 C   0  0  0  0  0  0  0  0  0  0  0  0
  -18.1280  -25.3846   21.6151 C   0  0  0  0  0  0  0  0  0  0  0  0
  -25.5108  -11.3425   19.9420 C   0  0  0  0  0  0  0  0  0  0  0  0
  -25.4722  -17.7988   19.0839 C   0  0  0  0  0  0  0  0  0  0  0  0
  -26.2672  -19.3512   21.4720 C   0  0  0  0  0  0  0  0  0  0  0  0
  -26.6738  -12.2262   20.3855 C   0  0  0  0  0  0  0  0  0  0  0  0
  -18.6201  -28.5201   23.4965 C   0  0  0  0  0  0  0  0  0  0  0  0
  -26.2616  -13.0974   21.5678 C   0  0  0  0  0  0  0  0  0  0  0  0
  -20.1362  -28.6734   23.4197 C   0  0  0  0  0  0  0  0  0  0  0  0
  -17.4908  -19.7234   23.9679 C   0  0  0  0  0  0  0  0  0  0  0  0
  -14.4724  -24.2391   21.2398 C   0  0  0  0  0  0  0  0  0  0  0  0
  -18.0446  -27.8727   22.2375 C   0  0  0  0  0  0  0  0  0  0  0  0
  -16.0712  -20.1016   23.5433 C   0  0  0  0  0  0  0  0  0  0  0  0
  -20.1998  -26.7223   21.8183 C   0  0  0  0  0  0  0  0  0  0  0  0
  -17.4433  -21.8967   22.9442 C   0  0  0  0  0  0  0  0  0  0  0  0
  -25.1118  -14.0374   21.1861 C   0  0  1  0  0  0  0  0  0  0  0  0
  -26.5921  -17.3322   20.0088 C   0  0  1  0  0  0  0  0  0  0  0  0
  -15.1144  -23.5459   22.4081 C   0  0  2  0  0  0  0  0  0  0  0  0
  -20.8019  -27.3271   23.0959 C   0  0  1  0  0  0  0  0  0  0  0  0
  -15.9744  -24.1911   21.3511 C   0  0  2  0  0  0  0  0  0  0  0  0
  -18.2760  -21.0228   23.8607 C   0  0  2  0  0  0  0  0  0  0  0  0
  -31.6072  -23.1489   21.0181 C   0  0  0  0  0  0  0  0  0  0  0  0
  -28.9568  -17.8328   23.9481 C   0  0  0  0  0  0  0  0  0  0  0  0
  -30.3251  -19.9219   24.1268 C   0  0  0  0  0  0  0  0  0  0  0  0
  -31.0785  -18.0625   22.6443 C   0  0  0  0  0  0  0  0  0  0  0  0
  -28.8547  -22.9514   18.3987 C   0  0  0  0  0  0  0  0  0  0  0  0
  -15.0562  -22.0607   22.5236 C   0  0  0  0  0  0  0  0  0  0  0  0
  -20.5789  -21.9040   23.5423 C   0  0  0  0  0  0  0  0  0  0  0  0
  -21.9270  -21.5371   22.9541 C   0  0  0  0  0  0  0  0  0  1  0  0
  -29.0940  -19.4698   21.9563 C   0  0  1  0  0  0  0  0  0  0  0  0
  -30.5669  -22.4591   20.1494 C   0  0  2  0  0  0  0  0  0  0  0  0
  -29.8369  -18.8227   23.1592 C   0  0  0  0  0  0  0  0  0  0  0  0
  -22.8739  -27.6950   21.8094 N   0  0  0  0  0  0  0  0  0  0  0  0
  -22.3117  -27.4527   23.0058 N   0  0  0  0  0  0  0  0  0  0  0  0
  -27.1821  -18.4285   20.7797 N   0  0  0  0  0  0  0  0  0  0  0  0
  -18.7383  -26.6173   21.9090 N   0  0  0  0  0  0  0  0  0  0  0  0
  -16.0957  -21.5621   23.4111 N   0  0  1  0  0  0  0  0  0  0  0  0
  -22.8158  -27.1054   25.2941 N   0  0  0  0  0  0  0  0  0  0  0  0
  -26.8761  -27.7180   23.4141 N   0  0  0  0  0  0  0  0  0  0  0  0
  -25.6093  -15.1587   20.4182 N   0  0  0  0  0  0  0  0  0  0  0  0
  -29.9116  -20.3913   21.1747 N   0  0  0  0  0  0  0  0  0  0  0  0
  -16.7379  -25.3763   21.6371 N   0  0  0  0  0  0  0  0  0  0  0  0
  -19.6222  -20.7937   23.3053 N   0  3  0  0  0  0  0  0  0  0  0  0
  -29.8877  -23.4933   19.3187 N   0  3  0  0  0  0  0  0  0  0  0  0
  -25.7814  -27.2901   25.3831 O   0  0  0  0  0  0  0  0  0  0  0  0
  -26.2519  -16.5158   22.1980 O   0  0  0  0  0  0  0  0  0  0  0  0
  -29.3617  -17.6827   20.4196 O   0  0  0  0  0  0  0  0  0  0  0  0
  -28.5420  -22.2421   21.4494 O   0  0  0  0  0  0  0  0  0  0  0  0
  -18.7730  -24.3650   21.3465 O   0  0  0  0  0  0  0  0  0  0  0  0
  -27.8964  -28.7006   18.0262 O   0  0  0  0  0  0  0  0  0  0  0  0
  -21.7953  -21.3345   21.5477 O   0  0  0  0  0  0  0  0  0  1  0  0
  -32.4141  -25.5423   17.8885 F   0  0  0  0  0  0  0  0  0  0  0  0
  -29.6551  -28.6472   20.1586 F   0  0  0  0  0  0  0  0  0  0  0  0
  1  2  1  0  0  0  0
  1  5  2  0  0  0  0
  2  6  2  0  0  0  0
  3  8  2  0  0  0  0
  3 15  1  0  0  0  0
  4  9  1  0  0  0  0
  4 15  2  0  0  0  0
  5 17  1  0  0  0  0
  6 19  1  0  0  0  0
  7 10  2  0  0  0  0
  7 18  1  0  0  0  0
  8 21  1  0  0  0  0
  9 21  2  0  0  0  0
 10 22  1  0  0  0  0
 11 12  2  0  0  0  0
 11 23  1  0  0  0  0
 12 24  1  0  0  0  0
 13 20  1  0  0  0  0
 13 22  2  0  0  0  0
 14 24  2  0  0  0  0
 14 25  1  0  0  0  0
 15 26  1  0  0  0  0
 16 26  1  0  0  0  0
 16 27  2  0  0  0  0
 16 28  1  0  0  0  0
 17 19  2  0  0  0  0
 17 33  1  0  0  0  0
 18 20  2  0  0  0  0
 18 34  1  0  0  0  0
 19 46  1  0  0  0  0
 20 35  1  0  0  0  0
 21 80  1  0  0  0  0
 22 81  1  0  0  0  0
 23 25  2  0  0  0  0
 23 80  1  0  0  0  0
 24 82  1  0  0  0  0
 25 83  1  0  0  0  0
 26 63  2  0  0  0  0
 27 64  1  0  0  0  0
 27 68  1  0  0  0  0
 28 69  1  0  0  0  0
 28 75  2  0  0  0  0
 29 47  1  0  0  0  0
 29 70  1  0  0  0  0
 29 76  2  0  0  0  0
 30 60  1  0  0  0  0
 30 65  1  0  0  0  0
 30 77  2  0  0  0  0
 31 61  1  0  0  0  0
 31 71  1  0  0  0  0
 31 78  2  0  0  0  0
 32 66  1  0  0  0  0
 32 72  1  0  0  0  0
 32 79  2  0  0  0  0
 33 36  1  0  0  0  0
 34 47  1  0  0  0  0
 35 65  1  0  0  0  0
 36 38  1  0  0  0  0
 37 39  1  0  0  0  0
 37 42  1  0  0  0  0
 38 46  1  0  0  0  0
 39 49  1  0  0  0  0
 40 43  1  0  0  0  0
 40 51  1  0  0  0  0
 41 48  1  0  0  0  0
 41 50  1  0  0  0  0
 42 66  1  0  0  0  0
 43 67  1  0  0  0  0
 44 49  1  0  0  0  0
 44 66  1  0  0  0  0
 45 51  1  0  0  0  0
 45 67  1  0  0  0  0
 46 70  1  0  0  0  0
 47 65  1  0  0  0  0
 48 50  1  0  0  0  0
 48 57  1  0  0  0  0
 49 64  1  0  0  0  0
 50 72  1  0  0  0  0
 51 73  1  0  0  0  0
 52 61  1  0  0  0  0
 53 62  1  0  0  0  0
 54 62  1  0  0  0  0
 55 62  1  0  0  0  0
 56 74  1  0  0  0  0
 57 67  1  0  0  0  0
 58 59  1  0  0  0  0
 58 73  1  0  0  0  0
 59 81  1  0  0  0  0
 60 62  1  0  0  0  0
 60 71  1  0  0  0  0
 61 74  1  0  0  0  0
 63 64  1  0  0  0  0
M  CHG  2  73   1  74   1
M  ISO  4  32 100  59 101  72 100  81 101
M  END
> <Batch ID>
0198

> <Smiles>
CNC(C)C(=O)NC(C(=O)N1Cc2cc([101O:1][101CH2:1]CNC3CCN(CC4CC4[100NH:0][100C:0](=O)N4CCCC(n5nc(-c6ccc(Oc7ccc(F)cc7F)cc6)c(C(N)=O)c5N)C4)C3)ccc2CC1C(=O)NC1CCCc2ccccc21)C(C)(C)C

> <Shape>
0.204

> <Color>
0.081

> <Negative vol penalty>
0.000

$$$$

  -OEChem-04052323483D

 89 99  0     1  0  0  0  0  0999 V2000
  -25.8606  -35.4933   23.7716 C   0  0  0  0  0  0  0  0  0  0  0  0
  -26.4471  -34.2709   23.4600 C   0  0  0  0  0  0  0  0  0  0  0  0
  -25.6187  -16.3925   17.2753 C   0  0  0  0  0  0  0  0  0  0  0  0
  -23.4659  -15.3116   17.4608 C   0  0  0  0  0  0  0  0  0  0  0  0
  -24.5475  -35.5364   24.2383 C   0  0  0  0  0  0  0  0  0  0  0  0
  -25.7211  -33.0906   23.6160 C   0  0  0  0  0  0  0  0  0  0  0  0
  -26.2306  -29.9602   19.6681 C   0  0  0  0  0  0  0  0  0  0  0  0
  -26.0141  -15.8118   18.4803 C   0  0  0  0  0  0  0  0  0  0  0  0
  -23.8614  -14.7309   18.6658 C   0  0  0  0  0  0  0  0  0  0  0  0
  -27.4080  -29.2175   19.5923 C   0  0  0  0  0  0  0  0  0  0  0  0
  -24.4328  -12.6754   21.6097 C   0  0  0  0  0  0  0  0  0  0  0  0
  -24.1474  -11.3239   21.8036 C   0  0  0  0  0  0  0  0  0  0  0  0
  -26.2498  -27.3011   20.4897 C   0  0  0  0  0  0  0  0  0  0  0  0
  -25.4728  -10.7655   19.8623 C   0  0  0  0  0  0  0  0  0  0  0  0
  -26.4450  -21.7109   20.1556 C   0  0  0  0  0  0  0  0  0  0  0  0
  -24.3446  -16.1424   16.7656 C   0  0  0  0  0  0  0  0  0  0  0  0
  -24.0917  -16.2084   14.2280 C   0  0  0  0  0  0  0  0  0  0  0  0
  -23.8018  -34.3569   24.3909 C   0  0  0  0  0  0  0  0  0  0  0  0
  -25.0546  -29.3812   20.1664 C   0  0  0  0  0  0  0  0  0  0  0  0
  -24.3973  -33.1179   24.0864 C   0  0  0  0  0  0  0  0  0  0  0  0
  -25.0582  -28.0379   20.5685 C   0  0  0  0  0  0  0  0  0  0  0  0
  -28.1261  -22.4935   18.2136 C   0  0  0  0  0  0  0  0  0  0  0  0
  -25.1355  -14.9810   19.1756 C   0  0  0  0  0  0  0  0  0  0  0  0
  -27.4185  -27.8886   20.0058 C   0  0  0  0  0  0  0  0  0  0  0  0
  -25.2381  -13.0720   20.5420 C   0  0  0  0  0  0  0  0  0  0  0  0
  -24.6675  -10.3689   20.9300 C   0  0  0  0  0  0  0  0  0  0  0  0
  -25.7581  -12.1170   19.6684 C   0  0  0  0  0  0  0  0  0  0  0  0
  -23.9353  -16.7424   15.5211 C   0  0  0  0  0  0  0  0  0  0  0  0
  -28.5133  -21.6279   19.2163 C   0  0  0  0  0  0  0  0  0  0  0  0
  -26.8186  -22.9305   18.2741 C   0  0  0  0  0  0  0  0  0  0  0  0
  -23.5439  -17.1550   13.3971 C   0  0  0  0  0  0  0  0  0  0  0  0
  -24.6795  -14.9677   13.8148 C   0  0  0  0  0  0  0  0  0  0  0  0
  -23.1479  -29.9536   22.6444 C   0  0  0  0  0  0  0  0  0  0  0  0
  -21.3176  -27.6558   21.2687 C   0  0  0  0  0  0  0  0  0  0  0  0
  -21.1410  -24.9362   19.2146 C   0  0  0  0  0  0  0  0  0  0  0  0
  -22.6790  -23.1690   14.5450 C   0  0  0  0  0  0  0  0  0  0  0  0
  -22.4016  -34.4496   24.9436 C   0  0  0  0  0  0  0  0  0  0  0  0
  -23.7862  -30.1881   20.2167 C   0  0  0  0  0  0  0  0  0  0  0  0
  -23.8173  -27.3636   21.0919 C   0  0  0  0  0  0  0  0  0  0  0  0
  -21.5754  -33.1847   24.7249 C   0  0  0  0  0  0  0  0  0  0  0  0
  -20.1364  -20.5831   13.7371 C   0  0  0  0  0  0  0  0  0  0  0  0
  -22.3849  -31.9471   25.0991 C   0  0  0  0  0  0  0  0  0  0  0  0
  -30.2369  -19.8709   18.4317 C   0  0  0  0  0  0  0  0  0  0  0  0
  -30.1755  -19.7803   19.9244 C   0  0  0  0  0  0  0  0  0  0  0  0
  -20.9047  -19.2639   13.6628 C   0  0  0  0  0  0  0  0  0  0  0  0
  -21.0035  -21.7853   13.3906 C   0  0  0  0  0  0  0  0  0  0  0  0
  -22.7754  -20.6284   14.7177 C   0  0  0  0  0  0  0  0  0  0  0  0
  -24.4407  -24.4938   15.8202 C   0  0  0  0  0  0  0  0  0  0  0  0
  -24.4816  -22.4157   16.3006 C   0  0  0  0  0  0  0  0  0  0  0  0
  -23.6339  -31.8179   24.2189 C   0  0  1  0  0  0  0  0  0  0  0  0
  -29.9090  -21.0952   19.2428 C   0  0  0  0  0  0  0  0  0  0  0  0
  -22.7737  -29.6475   21.2217 C   0  0  1  0  0  0  0  0  0  0  0  0
  -22.4257  -19.4489   13.7943 C   0  0  1  0  0  0  0  0  0  0  0  0
  -24.9415  -23.6895   17.0252 C   0  0  0  0  0  0  0  0  0  0  0  0
  -20.0877  -23.0857   17.8867 C   0  0  0  0  0  0  0  0  0  0  0  0
  -21.3391  -26.2070   23.9540 C   0  0  0  0  0  0  0  0  0  0  0  0
  -20.5495  -24.1472   22.7700 C   0  0  0  0  0  0  0  0  0  0  0  0
  -19.1300  -26.1984   22.7816 C   0  0  0  0  0  0  0  0  0  0  0  0
  -20.7959  -26.6759   16.8454 C   0  0  0  0  0  0  0  0  0  0  0  0
  -29.0518  -22.9340   17.1354 C   0  0  0  0  0  0  0  0  0  0  0  0
  -30.0787  -23.9808   17.5750 C   0  0  0  0  0  0  0  0  0  0  0  0
  -30.3040  -26.2838   18.5154 C   0  0  0  0  0  0  0  0  0  0  0  0
  -29.4886  -27.5023   18.9006 C   0  0  0  0  0  0  0  0  0  1  0  0
  -21.2303  -26.1525   21.3750 C   0  0  1  0  0  0  0  0  0  0  0  0
  -20.1930  -24.5903   18.0805 C   0  0  2  0  0  0  0  0  0  0  0  0
  -20.5863  -25.6892   22.7121 C   0  0  0  0  0  0  0  0  0  0  0  0
  -27.6956  -21.2143   20.2066 N   0  0  0  0  0  0  0  0  0  0  0  0
  -25.9473  -22.5580   19.2345 N   0  0  0  0  0  0  0  0  0  0  0  0
  -23.3353  -17.9357   15.5171 N   0  0  0  0  0  0  0  0  0  0  0  0
  -23.1099  -18.1594   14.2113 N   0  0  0  0  0  0  0  0  0  0  0  0
  -22.6037  -28.1962   21.1277 N   0  0  0  0  0  0  0  0  0  0  0  0
  -22.1695  -21.8928   14.2749 N   0  0  0  0  0  0  0  0  0  0  0  0
  -23.7599  -23.2802   15.3866 N   0  0  0  0  0  0  0  0  0  0  0  0
  -23.3960  -17.2179   12.0567 N   0  0  0  0  0  0  0  0  0  0  0  0
  -25.1947  -14.1122   14.7982 N   0  0  0  0  0  0  0  0  0  0  0  0
  -23.2810  -31.3024   22.9134 N   0  0  0  0  0  0  0  0  0  0  0  0
  -20.5227  -25.6994   20.1824 N   0  0  0  0  0  0  0  0  0  0  0  0
  -20.6686  -25.1963   16.8048 N   0  3  0  0  0  0  0  0  0  0  0  0
  -29.3915  -25.2207   18.0132 N   0  3  0  0  0  0  0  0  0  0  0  0
  -24.7608  -14.6352   12.6080 O   0  0  0  0  0  0  0  0  0  0  0  0
  -23.3029  -29.0341   23.4395 O   0  0  0  0  0  0  0  0  0  0  0  0
  -20.2822  -28.3255   21.3022 O   0  0  0  0  0  0  0  0  0  0  0  0
  -22.3118  -24.5634   19.2412 O   0  0  0  0  0  0  0  0  0  0  0  0
  -22.1694  -24.1875   14.0577 O   0  0  0  0  0  0  0  0  0  0  0  0
  -25.5211  -14.4141   20.3513 O   0  0  0  0  0  0  0  0  0  0  0  0
  -28.5748  -27.1563   19.9330 O   0  0  0  0  0  0  0  0  0  1  0  0
  -26.3451  -23.7874   17.3255 O   0  0  0  0  0  0  0  0  0  0  0  0
  -24.3946   -9.0710   21.1172 F   0  0  0  0  0  0  0  0  0  0  0  0
  -26.5334  -12.4919   18.6416 F   0  0  0  0  0  0  0  0  0  0  0  0
  1  2  1  0  0  0  0
  1  5  2  0  0  0  0
  2  6  2  0  0  0  0
  3  8  2  0  0  0  0
  3 16  1  0  0  0  0
  4  9  1  0  0  0  0
  4 16  2  0  0  0  0
  5 18  1  0  0  0  0
  6 20  1  0  0  0  0
  7 10  2  0  0  0  0
  7 19  1  0  0  0  0
  8 23  1  0  0  0  0
  9 23  2  0  0  0  0
 10 24  1  0  0  0  0
 11 12  2  0  0  0  0
 11 25  1  0  0  0  0
 12 26  1  0  0  0  0
 13 21  1  0  0  0  0
 13 24  2  0  0  0  0
 14 26  2  0  0  0  0
 14 27  1  0  0  0  0
 15 67  2  0  0  0  0
 15 68  1  0  0  0  0
 16 28  1  0  0  0  0
 17 28  1  0  0  0  0
 17 31  2  0  0  0  0
 17 32  1  0  0  0  0
 18 20  2  0  0  0  0
 18 37  1  0  0  0  0
 19 21  2  0  0  0  0
 19 38  1  0  0  0  0
 20 50  1  0  0  0  0
 21 39  1  0  0  0  0
 22 29  2  0  0  0  0
 22 30  1  0  0  0  0
 22 60  1  0  0  0  0
 23 85  1  0  0  0  0
 24 86  1  0  0  0  0
 25 27  2  0  0  0  0
 25 85  1  0  0  0  0
 26 88  1  0  0  0  0
 27 89  1  0  0  0  0
 28 69  2  0  0  0  0
 29 51  1  0  0  0  0
 29 67  1  0  0  0  0
 30 68  2  0  0  0  0
 30 87  1  0  0  0  0
 31 70  1  0  0  0  0
 31 74  1  0  0  0  0
 32 75  1  0  0  0  0
 32 80  2  0  0  0  0
 33 52  1  0  0  0  0
 33 76  1  0  0  0  0
 33 81  2  0  0  0  0
 34 64  1  0  0  0  0
 34 71  1  0  0  0  0
 34 82  2  0  0  0  0
 35 65  1  0  0  0  0
 35 77  1  0  0  0  0
 35 83  2  0  0  0  0
 36 72  1  0  0  0  0
 36 73  1  0  0  0  0
 36 84  2  0  0  0  0
 37 40  1  0  0  0  0
 38 52  1  0  0  0  0
 39 71  1  0  0  0  0
 40 42  1  0  0  0  0
 41 45  1  0  0  0  0
 41 46  1  0  0  0  0
 42 50  1  0  0  0  0
 43 44  1  0  0  0  0
 43 51  1  0  0  0  0
 44 51  1  0  0  0  0
 45 53  1  0  0  0  0
 46 72  1  0  0  0  0
 47 53  1  0  0  0  0
 47 72  1  0  0  0  0
 48 54  1  0  0  0  0
 48 73  1  0  0  0  0
 49 54  1  0  0  0  0
 49 73  1  0  0  0  0
 50 76  1  0  0  0  0
 52 71  1  0  0  0  0
 53 70  1  0  0  0  0
 54 87  1  0  0  0  0
 55 65  1  0  0  0  0
 56 66  1  0  0  0  0
 57 66  1  0  0  0  0
 58 66  1  0  0  0  0
 59 78  1  0  0  0  0
 60 61  1  0  0  0  0
 61 79  1  0  0  0  0
 62 63  1  0  0  0  0
 62 79  1  0  0  0  0
 63 86  1  0  0  0  0
 64 66  1  0  0  0  0
 64 77  1  0  0  0  0
 65 78  1  0  0  0  0
 69 70  1  0  0  0  0
M  CHG  2  78   1  79   1
M  ISO  4  36 100  63 101  73 100  86 101
M  END
> <Batch ID>
0198

> <Smiles>
CNC(C)C(=O)NC(C(=O)N1Cc2cc([101O:1][101CH2:1]CNCCc3c(OC4C[100N:0]([100C:0](=O)N5CCCC(n6nc(-c7ccc(Oc8ccc(F)cc8F)cc7)c(C(N)=O)c6N)C5)C4)ncnc3C3CC3)ccc2CC1C(=O)NC1CCCc2ccccc21)C(C)(C)C

> <Shape>
0.220

> <Color>
0.065

> <Negative vol penalty>
0.000

$$$$

  -OEChem-04052323483D

 88 98  0     1  0  0  0  0  0999 V2000
  -21.8885   -4.5576   24.3963 C   0  0  0  0  0  0  0  0  0  0  0  0
  -22.7047   -4.8663   23.3127 C   0  0  0  0  0  0  0  0  0  0  0  0
  -21.9780  -28.8472   21.6236 C   0  0  0  0  0  0  0  0  0  0  0  0
  -23.1561  -29.5472   23.6134 C   0  0  0  0  0  0  0  0  0  0  0  0
  -20.7586   -5.3310   24.6590 C   0  0  0  0  0  0  0  0  0  0  0  0
  -22.3907   -5.9479   22.4906 C   0  0  0  0  0  0  0  0  0  0  0  0
  -27.0300  -11.3829   21.5799 C   0  0  0  0  0  0  0  0  0  0  0  0
  -20.8905  -28.4568   22.4048 C   0  0  0  0  0  0  0  0  0  0  0  0
  -22.0685  -29.1568   24.3946 C   0  0  0  0  0  0  0  0  0  0  0  0
  -27.9480  -12.3577   21.1886 C   0  0  0  0  0  0  0  0  0  0  0  0
  -18.2860  -29.9416   23.9684 C   0  0  0  0  0  0  0  0  0  0  0  0
  -17.0118  -30.3083   23.5353 C   0  0  0  0  0  0  0  0  0  0  0  0
  -30.2047  -21.5620   20.1480 C   0  0  0  0  0  0  0  0  0  0  0  0
  -26.2550  -13.4214   19.8284 C   0  0  0  0  0  0  0  0  0  0  0  0
  -16.3842  -27.9786   23.4093 C   0  0  0  0  0  0  0  0  0  0  0  0
  -28.7161  -21.5126   21.9970 C   0  0  0  0  0  0  0  0  0  0  0  0
  -23.1109  -29.3924   22.2279 C   0  0  0  0  0  0  0  0  0  0  0  0
  -24.2433  -30.7600   20.3962 C   0  0  0  0  0  0  0  0  0  0  0  0
  -20.4359   -6.4286   23.8454 C   0  0  0  0  0  0  0  0  0  0  0  0
  -25.7152  -11.4325   21.1085 C   0  0  0  0  0  0  0  0  0  0  0  0
  -21.2547   -6.7359   22.7419 C   0  0  0  0  0  0  0  0  0  0  0  0
  -29.8186  -22.8817   19.9014 C   0  0  0  0  0  0  0  0  0  0  0  0
  -25.3277  -12.4548   20.2267 C   0  0  0  0  0  0  0  0  0  0  0  0
  -29.6456  -20.8598   21.2083 C   0  0  0  0  0  0  0  0  0  0  0  0
  -20.9356  -28.6116   23.7903 C   0  0  0  0  0  0  0  0  0  0  0  0
  -27.5615  -13.3743   20.3148 C   0  0  0  0  0  0  0  0  0  0  0  0
  -18.6093  -28.5934   24.1220 C   0  0  0  0  0  0  0  0  0  0  0  0
  -16.0609  -29.3269   23.2557 C   0  0  0  0  0  0  0  0  0  0  0  0
  -17.6584  -27.6119   23.8425 C   0  0  0  0  0  0  0  0  0  0  0  0
  -24.2349  -29.7953   21.4215 C   0  0  0  0  0  0  0  0  0  0  0  0
  -28.8830  -23.4614   20.7651 C   0  0  0  0  0  0  0  0  0  0  0  0
  -25.5409  -30.7716   19.9462 C   0  0  0  0  0  0  0  0  0  0  0  0
  -23.1737  -31.5730   19.8955 C   0  0  0  0  0  0  0  0  0  0  0  0
  -22.2970   -9.8860   21.1161 C   0  0  0  0  0  0  0  0  0  0  0  0
  -21.8994  -12.9268   21.1945 C   0  0  0  0  0  0  0  0  0  0  0  0
  -20.7567  -16.1009   21.7009 C   0  0  0  0  0  0  0  0  0  0  0  0
  -29.9167  -26.8248   19.9217 C   0  0  0  0  0  0  0  0  0  0  0  0
  -19.1781   -7.2065   24.1411 C   0  0  0  0  0  0  0  0  0  0  0  0
  -24.7093  -10.3686   21.4549 C   0  0  0  0  0  0  0  0  0  0  0  0
  -30.4422  -23.6611   18.7758 C   0  0  0  0  0  0  0  0  0  0  0  0
  -23.9121  -12.4486   19.7177 C   0  0  0  0  0  0  0  0  0  0  0  0
  -28.4101  -24.8815   20.5617 C   0  0  0  0  0  0  0  0  0  0  0  0
  -19.1225   -8.5628   23.4428 C   0  0  0  0  0  0  0  0  0  0  0  0
  -30.0220  -29.9690   21.3890 C   0  0  0  0  0  0  0  0  0  0  0  0
  -19.5208   -8.4253   21.9768 C   0  0  0  0  0  0  0  0  0  0  0  0
  -28.5540  -30.3842   21.4742 C   0  0  0  0  0  0  0  0  0  0  0  0
  -29.8739  -16.3387   20.5644 C   0  0  0  0  0  0  0  0  0  0  0  0
  -29.6148  -24.8893   18.4099 C   0  0  0  0  0  0  0  0  0  0  0  0
  -30.1907  -28.4930   21.7294 C   0  0  0  0  0  0  0  0  0  0  0  0
  -27.9011  -27.9828   20.9419 C   0  0  0  0  0  0  0  0  0  0  0  0
  -20.9610   -7.9164   21.8417 C   0  0  1  0  0  0  0  0  0  0  0  0
  -23.2774  -10.9152   21.5966 C   0  0  1  0  0  0  0  0  0  0  0  0
  -28.0575  -16.1282   21.6773 C   0  0  1  0  0  0  0  0  0  0  0  0
  -27.6718  -29.4706   20.6057 C   0  0  1  0  0  0  0  0  0  0  0  0
  -29.2559  -17.1101   21.7490 C   0  0  2  0  0  0  0  0  0  0  0  0
  -29.0276  -15.1178   20.9996 C   0  0  1  0  0  0  0  0  0  1  0  0
  -26.7157  -16.8119   23.6724 C   0  0  0  0  0  0  0  0  0  0  0  0
  -18.7441  -17.5528   21.3281 C   0  0  0  0  0  0  0  0  0  0  0  0
  -22.6175  -13.1567   18.2389 C   0  0  0  0  0  0  0  0  0  0  0  0
  -21.2554  -15.2553   18.1443 C   0  0  0  0  0  0  0  0  0  0  0  0
  -20.1632  -13.0863   18.7142 C   0  0  0  0  0  0  0  0  0  0  0  0
  -20.4130  -16.5694   24.6029 C   0  0  0  0  0  0  0  0  0  0  0  0
  -30.0360  -19.4521   21.4873 C   0  0  0  0  0  0  0  0  0  0  0  0
  -27.4623  -15.6989   23.0041 C   0  0  0  0  0  0  0  0  0  0  0  0
  -21.6778  -14.1942   20.4084 C   0  0  1  0  0  0  0  0  0  0  0  0
  -19.4605  -16.6223   22.2945 C   0  0  2  0  0  0  0  0  0  0  0  0
  -21.4500  -13.9206   18.8949 C   0  0  0  0  0  0  0  0  0  0  0  0
  -28.3217  -22.7902   21.8020 N   0  0  0  0  0  0  0  0  0  0  0  0
  -25.4322  -29.2346   21.6116 N   0  0  0  0  0  0  0  0  0  0  0  0
  -26.2050  -29.8489   20.6997 N   0  0  0  0  0  0  0  0  0  0  0  0
  -22.9852  -12.1285   20.8146 N   0  0  0  0  0  0  0  0  0  0  0  0
  -29.2481  -25.6305   19.6146 N   0  0  0  0  0  0  0  0  0  0  0  0
  -29.3340  -27.6545   20.8906 N   0  0  0  0  0  0  0  0  0  0  0  0
  -26.1673  -31.4809   18.9835 N   0  0  0  0  0  0  0  0  0  0  0  0
  -21.9033  -31.4344   20.4709 N   0  0  0  0  0  0  0  0  0  0  0  0
  -21.9011   -8.9885   22.0893 N   0  0  0  0  0  0  0  0  0  0  0  0
  -20.5761  -14.8924   21.0619 N   0  0  0  0  0  0  0  0  0  0  0  0
  -28.8960  -18.4939   21.4207 N   0  3  0  0  0  0  0  0  0  0  0  0
  -19.7319  -17.3713   23.5540 N   0  3  0  0  0  0  0  0  0  0  0  0
  -23.3359  -32.3861   18.9541 O   0  0  0  0  0  0  0  0  0  0  0  0
  -21.9250   -9.9046   19.9486 O   0  0  0  0  0  0  0  0  0  0  0  0
  -21.1290  -12.6467   22.1171 O   0  0  0  0  0  0  0  0  0  0  0  0
  -21.8221  -16.7069   21.7916 O   0  0  0  0  0  0  0  0  0  0  0  0
  -30.9802  -27.1292   19.3667 O   0  0  0  0  0  0  0  0  0  0  0  0
  -19.8745  -28.2310   24.5529 O   0  0  0  0  0  0  0  0  0  0  0  0
  -28.4632  -14.3271   19.9397 O   0  0  0  0  0  0  0  0  0  1  0  0
  -14.8369  -29.6792   22.8412 F   0  0  0  0  0  0  0  0  0  0  0  0
  -17.9627  -26.3152   23.9892 F   0  0  0  0  0  0  0  0  0  0  0  0
  1  2  1  0  0  0  0
  1  5  2  0  0  0  0
  2  6  2  0  0  0  0
  3  8  2  0  0  0  0
  3 17  1  0  0  0  0
  4  9  1  0  0  0  0
  4 17  2  0  0  0  0
  5 19  1  0  0  0  0
  6 21  1  0  0  0  0
  7 10  2  0  0  0  0
  7 20  1  0  0  0  0
  8 25  1  0  0  0  0
  9 25  2  0  0  0  0
 10 26  1  0  0  0  0
 11 12  2  0  0  0  0
 11 27  1  0  0  0  0
 12 28  1  0  0  0  0
 13 22  1  0  0  0  0
 13 24  2  0  0  0  0
 14 23  1  0  0  0  0
 14 26  2  0  0  0  0
 15 28  2  0  0  0  0
 15 29  1  0  0  0  0
 16 24  1  0  0  0  0
 16 68  2  0  0  0  0
 17 30  1  0  0  0  0
 18 30  1  0  0  0  0
 18 32  2  0  0  0  0
 18 33  1  0  0  0  0
 19 21  2  0  0  0  0
 19 38  1  0  0  0  0
 20 23  2  0  0  0  0
 20 39  1  0  0  0  0
 21 51  1  0  0  0  0
 22 31  2  0  0  0  0
 22 40  1  0  0  0  0
 23 41  1  0  0  0  0
 24 63  1  0  0  0  0
 25 85  1  0  0  0  0
 26 86  1  0  0  0  0
 27 29  2  0  0  0  0
 27 85  1  0  0  0  0
 28 87  1  0  0  0  0
 29 88  1  0  0  0  0
 30 69  2  0  0  0  0
 31 42  1  0  0  0  0
 31 68  1  0  0  0  0
 32 70  1  0  0  0  0
 32 74  1  0  0  0  0
 33 75  1  0  0  0  0
 33 80  2  0  0  0  0
 34 52  1  0  0  0  0
 34 76  1  0  0  0  0
 34 81  2  0  0  0  0
 35 65  1  0  0  0  0
 35 71  1  0  0  0  0
 35 82  2  0  0  0  0
 36 66  1  0  0  0  0
 36 77  1  0  0  0  0
 36 83  2  0  0  0  0
 37 72  1  0  0  0  0
 37 73  1  0  0  0  0
 37 84  2  0  0  0  0
 38 43  1  0  0  0  0
 39 52  1  0  0  0  0
 40 48  1  0  0  0  0
 41 71  1  0  0  0  0
 42 72  1  0  0  0  0
 43 45  1  0  0  0  0
 44 46  1  0  0  0  0
 44 49  1  0  0  0  0
 45 51  1  0  0  0  0
 46 54  1  0  0  0  0
 47 55  1  0  0  0  0
 47 56  1  0  0  0  0
 48 72  1  0  0  0  0
 49 73  1  0  0  0  0
 50 54  1  0  0  0  0
 50 73  1  0  0  0  0
 51 76  1  0  0  0  0
 52 71  1  0  0  0  0
 53 55  1  0  0  0  0
 53 56  1  0  0  0  0
 53 64  1  0  0  0  0
 54 70  1  0  0  0  0
 55 78  1  0  0  0  0
 56 86  1  0  0  0  0
 57 64  1  0  0  0  0
 58 66  1  0  0  0  0
 59 67  1  0  0  0  0
 60 67  1  0  0  0  0
 61 67  1  0  0  0  0
 62 79  1  0  0  0  0
 63 78  1  0  0  0  0
 65 67  1  0  0  0  0
 65 77  1  0  0  0  0
 66 79  1  0  0  0  0
 69 70  1  0  0  0  0
M  CHG  2  78   1  79   1
M  ISO  4  37 100  56 101  72 100  86 101
M  END
> <Batch ID>
0198

> <Smiles>
CCC1C(NCc2cnc3c(c2)CC[100N:0]([100C:0](=O)N2CCCC(n4nc(-c5ccc(Oc6ccc(F)cc6F)cc5)c(C(N)=O)c4N)C2)C3)C[101CH:1]1[101O:1]c1ccc2c(c1)CN(C(=O)C(NC(=O)C(C)NC)C(C)(C)C)C(C(=O)NC1CCCc3ccccc31)C2

> <Shape>
0.342

> <Color>
0.046

> <Negative vol penalty>
0.000

$$$$

  -OEChem-04052323483D

 86 95  0     1  0  0  0  0  0999 V2000
  -26.7535  -35.1762   22.8664 C   0  0  0  0  0  0  0  0  0  0  0  0
  -27.1586  -33.8577   22.6854 C   0  0  0  0  0  0  0  0  0  0  0  0
  -22.9606  -10.7752   20.3971 C   0  0  0  0  0  0  0  0  0  0  0  0
  -24.5197   -8.9607   20.7341 C   0  0  0  0  0  0  0  0  0  0  0  0
  -25.4915  -35.4507   23.3916 C   0  0  0  0  0  0  0  0  0  0  0  0
  -26.3022  -32.8128   23.0305 C   0  0  0  0  0  0  0  0  0  0  0  0
  -26.1409  -29.1863   19.4995 C   0  0  0  0  0  0  0  0  0  0  0  0
  -21.9257   -9.9762   20.8831 C   0  0  0  0  0  0  0  0  0  0  0  0
  -23.4848   -8.1617   21.2202 C   0  0  0  0  0  0  0  0  0  0  0  0
  -27.2074  -28.2893   19.4589 C   0  0  0  0  0  0  0  0  0  0  0  0
  -21.7579   -7.8069   24.1033 C   0  0  0  0  0  0  0  0  0  0  0  0
  -22.0008   -7.0679   25.2611 C   0  0  0  0  0  0  0  0  0  0  0  0
  -25.8815  -26.6681   20.6560 C   0  0  0  0  0  0  0  0  0  0  0  0
  -21.5644   -5.0244   24.0483 C   0  0  0  0  0  0  0  0  0  0  0  0
  -24.2576  -10.2674   20.3225 C   0  0  0  0  0  0  0  0  0  0  0  0
  -25.4192  -11.6805   18.5445 C   0  0  0  0  0  0  0  0  0  0  0  0
  -24.6154  -34.4087   23.7343 C   0  0  0  0  0  0  0  0  0  0  0  0
  -24.9384  -28.8345   20.1292 C   0  0  0  0  0  0  0  0  0  0  0  0
  -25.0277  -33.0735   23.5620 C   0  0  0  0  0  0  0  0  0  0  0  0
  -24.8003  -27.5616   20.7009 C   0  0  0  0  0  0  0  0  0  0  0  0
  -22.1878   -8.6695   21.2947 C   0  0  0  0  0  0  0  0  0  0  0  0
  -27.0788  -27.0310   20.0398 C   0  0  0  0  0  0  0  0  0  0  0  0
  -21.4182   -7.1546   22.9180 C   0  0  0  0  0  0  0  0  0  0  0  0
  -21.9041   -5.6766   25.2336 C   0  0  0  0  0  0  0  0  0  0  0  0
  -21.3215   -5.7634   22.8905 C   0  0  0  0  0  0  0  0  0  0  0  0
  -25.3270  -11.0920   19.8200 C   0  0  0  0  0  0  0  0  0  0  0  0
  -26.6139  -12.3579   18.5644 C   0  0  0  0  0  0  0  0  0  0  0  0
  -24.5065  -11.6204   17.4404 C   0  0  0  0  0  0  0  0  0  0  0  0
  -23.2937  -29.9531   22.6086 C   0  0  0  0  0  0  0  0  0  0  0  0
  -21.0984  -27.7706   21.6393 C   0  0  0  0  0  0  0  0  0  0  0  0
  -21.1205  -24.3705   20.4325 C   0  0  0  0  0  0  0  0  0  0  0  0
  -30.2755  -15.7024   21.1116 C   0  0  0  0  0  0  0  0  0  0  0  0
  -23.2793  -34.7541   24.3428 C   0  0  0  0  0  0  0  0  0  0  0  0
  -23.7882  -29.8036   20.1410 C   0  0  0  0  0  0  0  0  0  0  0  0
  -23.5234  -27.1277   21.3714 C   0  0  0  0  0  0  0  0  0  0  0  0
  -22.2874  -33.5939   24.3331 C   0  0  0  0  0  0  0  0  0  0  0  0
  -30.4083  -12.2443   21.9089 C   0  0  0  0  0  0  0  0  0  0  0  0
  -22.9582  -32.3139   24.8213 C   0  0  0  0  0  0  0  0  0  0  0  0
  -29.1061  -11.6841   21.3341 C   0  0  0  0  0  0  0  0  0  0  0  0
  -27.5343  -19.0606   19.6622 C   0  0  0  0  0  0  0  0  0  0  0  0
  -31.4530  -17.5380   18.7588 C   0  0  0  0  0  0  0  0  0  0  0  0
  -30.2139  -13.6448   22.4860 C   0  0  0  0  0  0  0  0  0  0  0  0
  -28.3035  -14.0582   20.9874 C   0  0  0  0  0  0  0  0  0  0  0  0
  -26.4754  -18.2973   18.8785 C   0  0  0  0  0  0  0  0  0  0  0  0
  -30.8207  -18.6164   17.8662 C   0  0  0  0  0  0  0  0  0  0  0  0
  -27.2319  -19.3911   16.7497 C   0  0  0  0  0  0  0  0  0  0  0  0
  -24.1176  -31.9130   23.9011 C   0  0  1  0  0  0  0  0  0  0  0  0
  -22.7871  -29.5293   21.2590 C   0  0  1  0  0  0  0  0  0  0  0  0
  -28.3154  -20.1783   17.4959 C   0  0  2  0  0  0  0  0  0  0  0  0
  -28.4602  -12.6705   20.3422 C   0  0  2  0  0  0  0  0  0  0  0  0
  -28.7324  -19.4829   18.8058 C   0  0  2  0  0  0  0  0  0  0  0  0
  -30.2176  -17.7261   19.6588 C   0  0  2  0  0  0  0  0  0  0  0  0
  -19.5045  -23.1567   18.9449 C   0  0  0  0  0  0  0  0  0  0  0  0
  -19.8204  -26.8612   24.2565 C   0  0  0  0  0  0  0  0  0  0  0  0
  -19.4250  -24.6237   23.2051 C   0  0  0  0  0  0  0  0  0  0  0  0
  -18.3436  -26.6580   22.2485 C   0  0  0  0  0  0  0  0  0  0  0  0
  -23.2582  -23.6186   18.5288 C   0  0  0  0  0  0  0  0  0  0  0  0
  -27.8609  -21.6184   17.7698 C   0  0  0  0  0  0  0  0  0  0  0  0
  -29.0505  -22.5347   18.0078 C   0  0  0  0  0  0  0  0  0  0  0  0
  -29.6272  -24.8854   18.6247 C   0  0  0  0  0  0  0  0  0  0  0  0
  -29.0025  -26.2418   18.8855 C   0  0  0  0  0  0  0  0  0  1  0  0
  -20.8300  -26.3165   21.9435 C   0  0  1  0  0  0  0  0  0  0  0  0
  -20.8257  -23.9065   19.0175 C   0  0  2  0  0  0  0  0  0  0  0  0
  -19.6310  -26.1257   22.9148 C   0  0  0  0  0  0  0  0  0  0  0  0
  -26.3794  -11.3708   20.5938 N   0  0  0  0  0  0  0  0  0  0  0  0
  -27.1442  -12.1420   19.8023 N   0  0  0  0  0  0  0  0  0  0  0  0
  -22.4296  -28.1131   21.3625 N   0  0  0  0  0  0  0  0  0  0  0  0
  -29.6028  -14.5302   21.4913 N   0  0  0  0  0  0  0  0  0  0  0  0
  -27.2521  -13.1110   17.6436 N   0  0  0  0  0  0  0  0  0  0  0  0
  -23.3256  -10.8803   17.5893 N   0  0  0  0  0  0  0  0  0  0  0  0
  -23.6138  -31.2946   22.6936 N   0  0  0  0  0  0  0  0  0  0  0  0
  -20.6661  -25.6532   20.6544 N   0  0  0  0  0  0  0  0  0  0  0  0
  -29.6383  -16.4878   20.1565 N   0  0  0  0  0  0  0  0  0  0  0  0
  -26.0932  -19.0780   17.6652 N   0  3  0  0  0  0  0  0  0  0  0  0
  -29.5201  -18.2750   18.4745 N   0  3  2  0  0  0  0  0  0  0  0  0
  -21.9066  -23.0020   18.5331 N   0  3  0  0  0  0  0  0  0  0  0  0
  -28.5569  -23.9048   18.3127 N   0  3  0  0  0  0  0  0  0  0  0  0
  -24.7391  -12.1922   16.3484 O   0  0  0  0  0  0  0  0  0  0  0  0
  -23.3859  -29.1246   23.5068 O   0  0  0  0  0  0  0  0  0  0  0  0
  -20.1604  -28.5717   21.6399 O   0  0  0  0  0  0  0  0  0  0  0  0
  -21.6931  -23.6642   21.2594 O   0  0  0  0  0  0  0  0  0  0  0  0
  -31.3713  -16.0288   21.5806 O   0  0  0  0  0  0  0  0  0  0  0  0
  -21.1782   -7.8897   21.7692 O   0  0  0  0  0  0  0  0  0  0  0  0
  -28.1184  -26.1537   20.0022 O   0  0  0  0  0  0  0  0  0  1  0  0
  -22.1388   -4.9670   26.3452 F   0  0  0  0  0  0  0  0  0  0  0  0
  -20.9967   -5.1311   21.7545 F   0  0  0  0  0  0  0  0  0  0  0  0
  1  2  1  0  0  0  0
  1  5  2  0  0  0  0
  2  6  2  0  0  0  0
  3  8  2  0  0  0  0
  3 15  1  0  0  0  0
  4  9  1  0  0  0  0
  4 15  2  0  0  0  0
  5 17  1  0  0  0  0
  6 19  1  0  0  0  0
  7 10  2  0  0  0  0
  7 18  1  0  0  0  0
  8 21  1  0  0  0  0
  9 21  2  0  0  0  0
 10 22  1  0  0  0  0
 11 12  2  0  0  0  0
 11 23  1  0  0  0  0
 12 24  1  0  0  0  0
 13 20  1  0  0  0  0
 13 22  2  0  0  0  0
 14 24  2  0  0  0  0
 14 25  1  0  0  0  0
 15 26  1  0  0  0  0
 16 26  1  0  0  0  0
 16 27  2  0  0  0  0
 16 28  1  0  0  0  0
 17 19  2  0  0  0  0
 17 33  1  0  0  0  0
 18 20  2  0  0  0  0
 18 34  1  0  0  0  0
 19 47  1  0  0  0  0
 20 35  1  0  0  0  0
 21 83  1  0  0  0  0
 22 84  1  0  0  0  0
 23 25  2  0  0  0  0
 23 83  1  0  0  0  0
 24 85  1  0  0  0  0
 25 86  1  0  0  0  0
 26 65  2  0  0  0  0
 27 66  1  0  0  0  0
 27 69  1  0  0  0  0
 28 70  1  0  0  0  0
 28 78  2  0  0  0  0
 29 48  1  0  0  0  0
 29 71  1  0  0  0  0
 29 79  2  0  0  0  0
 30 62  1  0  0  0  0
 30 67  1  0  0  0  0
 30 80  2  0  0  0  0
 31 63  1  0  0  0  0
 31 72  1  0  0  0  0
 31 81  2  0  0  0  0
 32 68  1  0  0  0  0
 32 73  1  0  0  0  0
 32 82  2  0  0  0  0
 33 36  1  0  0  0  0
 34 48  1  0  0  0  0
 35 67  1  0  0  0  0
 36 38  1  0  0  0  0
 37 39  1  0  0  0  0
 37 42  1  0  0  0  0
 38 47  1  0  0  0  0
 39 50  1  0  0  0  0
 40 44  1  0  0  0  0
 40 51  1  0  0  0  0
 41 45  1  0  0  0  0
 41 52  1  0  0  0  0
 42 68  1  0  0  0  0
 43 50  1  0  0  0  0
 43 68  1  0  0  0  0
 44 74  1  0  0  0  0
 45 75  1  0  0  0  0
 46 49  1  0  0  0  0
 46 74  1  0  0  0  0
 47 71  1  0  0  0  0
 48 67  1  0  0  0  0
 49 51  1  0  0  0  0
 49 58  1  0  0  0  0
 50 66  1  0  0  0  0
 51 75  1  0  0  0  0
 52 73  1  0  0  0  0
 52 75  1  0  0  0  0
 53 63  1  0  0  0  0
 54 64  1  0  0  0  0
 55 64  1  0  0  0  0
 56 64  1  0  0  0  0
 57 76  1  0  0  0  0
 58 59  1  0  0  0  0
 59 77  1  0  0  0  0
 60 61  1  0  0  0  0
 60 77  1  0  0  0  0
 61 84  1  0  0  0  0
 62 64  1  0  0  0  0
 62 72  1  0  0  0  0
 63 76  1  0  0  0  0
 65 66  1  0  0  0  0
M  CHG  4  74   1  75   1  76   1  77   1
M  ISO  4  32 100  61 101  73 100  84 101
M  END
> <Batch ID>
0198

> <Smiles>
CNC(C)C(=O)NC(C(=O)N1Cc2cc([101O:1][101CH2:1]CNCCC3CNCCC3N3CCC3[100NH:0][100C:0](=O)N3CCCC(n4nc(-c5ccc(Oc6ccc(F)cc6F)cc5)c(C(N)=O)c4N)C3)ccc2CC1C(=O)NC1CCCc2ccccc21)C(C)(C)C

> <Shape>
0.339

> <Color>
0.081

> <Negative vol penalty>
0.000

$$$$

  -OEChem-04052323483D

 89 99  0     1  0  0  0  0  0999 V2000
  -27.5487  -30.7231   13.0405 C   0  0  0  0  0  0  0  0  0  0  0  0
  -26.6952  -30.7256   14.1391 C   0  0  0  0  0  0  0  0  0  0  0  0
  -24.0629   -9.2565   20.1882 C   0  0  0  0  0  0  0  0  0  0  0  0
  -23.4521   -9.8342   22.4532 C   0  0  0  0  0  0  0  0  0  0  0  0
  -28.3120  -29.5919   12.7548 C   0  0  0  0  0  0  0  0  0  0  0  0
  -26.6038  -29.5964   14.9522 C   0  0  0  0  0  0  0  0  0  0  0  0
  -25.7088  -29.4841   21.0096 C   0  0  0  0  0  0  0  0  0  0  0  0
  -24.0348   -7.9034   20.5257 C   0  0  0  0  0  0  0  0  0  0  0  0
  -23.4239   -8.4810   22.7907 C   0  0  0  0  0  0  0  0  0  0  0  0
  -24.5675  -29.2868   21.7856 C   0  0  0  0  0  0  0  0  0  0  0  0
  -21.3178   -5.8651   22.4146 C   0  0  0  0  0  0  0  0  0  0  0  0
  -20.2380   -5.4098   23.1710 C   0  0  0  0  0  0  0  0  0  0  0  0
  -19.5659  -24.4323   21.9230 C   0  0  0  0  0  0  0  0  0  0  0  0
  -19.9037  -23.1125   22.1660 C   0  0  0  0  0  0  0  0  0  0  0  0
  -25.1300  -26.9517   22.0085 C   0  0  0  0  0  0  0  0  0  0  0  0
  -21.7556   -4.7085   24.9152 C   0  0  0  0  0  0  0  0  0  0  0  0
  -23.7716  -10.2219   21.1520 C   0  0  0  0  0  0  0  0  0  0  0  0
  -22.7331  -12.3976   20.3179 C   0  0  0  0  0  0  0  0  0  0  0  0
  -28.2372  -28.4518   13.5704 C   0  0  0  0  0  0  0  0  0  0  0  0
  -26.5649  -28.4125   20.7176 C   0  0  0  0  0  0  0  0  0  0  0  0
  -27.3659  -28.4485   14.6764 C   0  0  0  0  0  0  0  0  0  0  0  0
  -26.2829  -27.1385   21.2307 C   0  0  0  0  0  0  0  0  0  0  0  0
  -23.7153   -7.5156   21.8269 C   0  0  0  0  0  0  0  0  0  0  0  0
  -24.2764  -28.0199   22.2828 C   0  0  0  0  0  0  0  0  0  0  0  0
  -22.6165   -5.7421   22.9084 C   0  0  0  0  0  0  0  0  0  0  0  0
  -20.4568   -4.8315   24.4214 C   0  0  0  0  0  0  0  0  0  0  0  0
  -22.8354   -5.1639   24.1587 C   0  0  0  0  0  0  0  0  0  0  0  0
  -23.8011  -11.6198   20.8041 C   0  0  0  0  0  0  0  0  0  0  0  0
  -20.5033  -25.4031   22.2135 C   0  0  0  0  0  0  0  0  0  0  0  0
  -21.1566  -22.8509   22.6831 C   0  0  0  0  0  0  0  0  0  0  0  0
  -23.2710  -13.6494   20.1446 C   0  0  0  0  0  0  0  0  0  0  0  0
  -21.3761  -12.0220   20.0473 C   0  0  0  0  0  0  0  0  0  0  0  0
  -27.5096  -26.9575   18.0541 C   0  0  0  0  0  0  0  0  0  0  0  0
  -29.4687  -25.3586   20.0858 C   0  0  0  0  0  0  0  0  0  0  0  0
  -30.0915  -24.2821   23.2639 C   0  0  0  0  0  0  0  0  0  0  0  0
  -26.4282  -17.8824   21.9499 C   0  0  0  0  0  0  0  0  0  0  0  0
  -29.0464  -27.2359   13.1943 C   0  0  0  0  0  0  0  0  0  0  0  0
  -27.8063  -28.6473   19.9014 C   0  0  0  0  0  0  0  0  0  0  0  0
  -27.1807  -25.9592   20.9630 C   0  0  0  0  0  0  0  0  0  0  0  0
  -29.1714  -26.2147   14.3220 C   0  0  0  0  0  0  0  0  0  0  0  0
  -28.0800  -15.2126   20.2706 C   0  0  0  0  0  0  0  0  0  0  0  0
  -27.8132  -25.9667   14.9706 C   0  0  0  0  0  0  0  0  0  0  0  0
  -27.0284  -14.1026   20.2253 C   0  0  0  0  0  0  0  0  0  0  0  0
  -24.3517  -20.3141   21.0127 C   0  0  0  0  0  0  0  0  0  0  0  0
  -28.0042  -16.0091   21.5713 C   0  0  0  0  0  0  0  0  0  0  0  0
  -25.6197  -15.4471   21.8399 C   0  0  0  0  0  0  0  0  0  0  0  0
  -23.6000  -21.5607   21.4529 C   0  0  0  0  0  0  0  0  0  0  0  0
  -18.8696  -27.4883   22.3299 C   0  0  0  0  0  0  0  0  0  0  0  0
  -23.4772  -19.8090   23.1559 C   0  0  0  0  0  0  0  0  0  0  0  0
  -27.2577  -27.2518   15.5963 C   0  0  1  0  0  0  0  0  0  0  0  0
  -20.2681  -26.9036   21.9965 C   0  0  1  0  0  0  0  0  0  0  0  0
  -28.3338  -27.3790   19.2376 C   0  0  1  0  0  0  0  0  0  0  0  0
  -25.6203  -14.6519   20.5231 C   0  0  2  0  0  0  0  0  0  0  0  0
  -24.7303  -19.6392   22.3198 C   0  0  1  0  0  0  0  0  0  0  0  0
  -20.7728  -27.8981   23.0864 C   0  0  1  0  0  0  0  0  0  0  0  0
  -31.7521  -22.9654   24.6078 C   0  0  0  0  0  0  0  0  0  0  0  0
  -28.3449  -22.7674   18.9313 C   0  0  0  0  0  0  0  0  0  0  0  0
  -29.2931  -21.5575   20.9075 C   0  0  0  0  0  0  0  0  0  0  0  0
  -30.8140  -22.7480   19.3287 C   0  0  0  0  0  0  0  0  0  0  0  0
  -18.9386  -29.1915   24.0855 C   0  0  0  0  0  0  0  0  0  0  0  0
  -30.7201  -26.6084   24.9820 C   0  0  0  0  0  0  0  0  0  0  0  0
  -21.5697  -21.4466   22.9625 C   0  0  0  0  0  0  0  0  0  0  0  0
  -22.0420  -28.6678   22.7766 C   0  0  0  0  0  0  0  0  0  1  0  0
  -29.3604  -24.0925   20.9008 C   0  0  1  0  0  0  0  0  0  0  0  0
  -31.3416  -24.3470   24.1225 C   0  0  2  0  0  0  0  0  0  0  0  0
  -29.4349  -22.8130   20.0207 C   0  0  0  0  0  0  0  0  0  0  0  0
  -24.9320  -12.3190   20.9312 N   0  0  0  0  0  0  0  0  0  0  0  0
  -21.7220  -25.1182   22.7191 N   0  0  0  0  0  0  0  0  0  0  0  0
  -22.0541  -23.8211   22.9576 N   0  0  0  0  0  0  0  0  0  0  0  0
  -24.5777  -13.5492   20.5224 N   0  0  0  0  0  0  0  0  0  0  0  0
  -28.3790  -26.2382   20.1545 N   0  0  0  0  0  0  0  0  0  0  0  0
  -26.6432  -16.5031   21.7939 N   0  0  0  0  0  0  0  0  0  0  0  0
  -22.7490  -14.8150   19.7073 N   0  0  0  0  0  0  0  0  0  0  0  0
  -20.9908  -10.6949   20.2811 N   0  0  0  0  0  0  0  0  0  0  0  0
  -27.9113  -27.5226   16.8588 N   0  0  0  0  0  0  0  0  0  0  0  0
  -30.3974  -24.1755   21.9236 N   0  0  0  0  0  0  0  0  0  0  0  0
  -25.1079  -18.2665   22.1504 N   0  0  0  0  0  0  0  0  0  0  0  0
  -23.0410  -21.2212   22.8235 N   0  3  2  0  0  0  0  0  0  0  0  0
  -19.5498  -28.6973   22.8314 N   0  3  2  0  0  0  0  0  0  0  0  0
  -31.1082  -25.2130   25.3127 N   0  3  0  0  0  0  0  0  0  0  0  0
  -20.5345  -12.8351   19.5956 O   0  0  0  0  0  0  0  0  0  0  0  0
  -26.5790  -26.1762   18.2134 O   0  0  0  0  0  0  0  0  0  0  0  0
  -30.4859  -25.5631   19.4185 O   0  0  0  0  0  0  0  0  0  0  0  0
  -28.9570  -24.3183   23.7352 O   0  0  0  0  0  0  0  0  0  0  0  0
  -27.3442  -18.7108   21.9080 O   0  0  0  0  0  0  0  0  0  0  0  0
  -23.6875   -6.1954   22.1565 O   0  0  0  0  0  0  0  0  0  0  0  0
  -23.1626  -27.8245   23.0400 O   0  0  0  0  0  0  0  0  0  1  0  0
  -19.4197   -4.3957   25.1483 F   0  0  0  0  0  0  0  0  0  0  0  0
  -24.0807   -5.0441   24.6390 F   0  0  0  0  0  0  0  0  0  0  0  0
  1  2  1  0  0  0  0
  1  5  2  0  0  0  0
  2  6  2  0  0  0  0
  3  8  2  0  0  0  0
  3 17  1  0  0  0  0
  4  9  1  0  0  0  0
  4 17  2  0  0  0  0
  5 19  1  0  0  0  0
  6 21  1  0  0  0  0
  7 10  2  0  0  0  0
  7 20  1  0  0  0  0
  8 23  1  0  0  0  0
  9 23  2  0  0  0  0
 10 24  1  0  0  0  0
 11 12  2  0  0  0  0
 11 25  1  0  0  0  0
 12 26  1  0  0  0  0
 13 14  2  0  0  0  0
 13 29  1  0  0  0  0
 14 30  1  0  0  0  0
 15 22  1  0  0  0  0
 15 24  2  0  0  0  0
 16 26  2  0  0  0  0
 16 27  1  0  0  0  0
 17 28  1  0  0  0  0
 18 28  1  0  0  0  0
 18 31  2  0  0  0  0
 18 32  1  0  0  0  0
 19 21  2  0  0  0  0
 19 37  1  0  0  0  0
 20 22  2  0  0  0  0
 20 38  1  0  0  0  0
 21 50  1  0  0  0  0
 22 39  1  0  0  0  0
 23 86  1  0  0  0  0
 24 87  1  0  0  0  0
 25 27  2  0  0  0  0
 25 86  1  0  0  0  0
 26 88  1  0  0  0  0
 27 89  1  0  0  0  0
 28 67  2  0  0  0  0
 29 51  1  0  0  0  0
 29 68  2  0  0  0  0
 30 62  1  0  0  0  0
 30 69  2  0  0  0  0
 31 70  1  0  0  0  0
 31 73  1  0  0  0  0
 32 74  1  0  0  0  0
 32 81  2  0  0  0  0
 33 52  1  0  0  0  0
 33 75  1  0  0  0  0
 33 82  2  0  0  0  0
 34 64  1  0  0  0  0
 34 71  1  0  0  0  0
 34 83  2  0  0  0  0
 35 65  1  0  0  0  0
 35 76  1  0  0  0  0
 35 84  2  0  0  0  0
 36 72  1  0  0  0  0
 36 77  1  0  0  0  0
 36 85  2  0  0  0  0
 37 40  1  0  0  0  0
 38 52  1  0  0  0  0
 39 71  1  0  0  0  0
 40 42  1  0  0  0  0
 41 43  1  0  0  0  0
 41 45  1  0  0  0  0
 42 50  1  0  0  0  0
 43 53  1  0  0  0  0
 44 47  1  0  0  0  0
 44 54  1  0  0  0  0
 45 72  1  0  0  0  0
 46 53  1  0  0  0  0
 46 72  1  0  0  0  0
 47 78  1  0  0  0  0
 48 51  1  0  0  0  0
 48 79  1  0  0  0  0
 49 54  1  0  0  0  0
 49 78  1  0  0  0  0
 50 75  1  0  0  0  0
 51 55  1  0  0  0  0
 52 71  1  0  0  0  0
 53 70  1  0  0  0  0
 54 77  1  0  0  0  0
 55 63  1  0  0  0  0
 55 79  1  0  0  0  0
 56 65  1  0  0  0  0
 57 66  1  0  0  0  0
 58 66  1  0  0  0  0
 59 66  1  0  0  0  0
 60 79  1  0  0  0  0
 61 80  1  0  0  0  0
 62 78  1  0  0  0  0
 63 87  1  0  0  0  0
 64 66  1  0  0  0  0
 64 76  1  0  0  0  0
 65 80  1  0  0  0  0
 67 70  1  0  0  0  0
 68 69  1  0  0  0  0
M  CHG  3  78   1  79   1  80   1
M  ISO  4  36 100  63 101  77 100  87 101
M  END
> <Batch ID>
0198

> <Smiles>
CNC(C)C(=O)NC(C(=O)N1Cc2cc([101O:1][101CH2:1]C3C(c4ccc(CN5CCC([100NH:0][100C:0](=O)N6CCCC(n7nc(-c8ccc(Oc9ccc(F)cc9F)cc8)c(C(N)=O)c7N)C6)C5)nn4)CN3C)ccc2CC1C(=O)NC1CCCc2ccccc21)C(C)(C)C

> <Shape>
0.227

> <Color>
0.076

> <Negative vol penalty>
0.000

$$$$

  -OEChem-04052323483D

 92102  0     1  0  0  0  0  0999 V2000
  -22.8957   -7.7514   20.9791 C   0  0  0  0  0  0  0  0  0  0  0  0
  -22.7656   -8.6448   19.9218 C   0  0  0  0  0  0  0  0  0  0  0  0
  -21.9872  -30.0728   23.5014 C   0  0  0  0  0  0  0  0  0  0  0  0
  -21.2733  -30.9233   21.3557 C   0  0  0  0  0  0  0  0  0  0  0  0
  -23.0361   -8.2318   22.2793 C   0  0  0  0  0  0  0  0  0  0  0  0
  -22.7878  -10.0190   20.1631 C   0  0  0  0  0  0  0  0  0  0  0  0
  -23.7531  -18.2894   19.8987 C   0  0  0  0  0  0  0  0  0  0  0  0
  -20.8094  -30.5451   24.0805 C   0  0  0  0  0  0  0  0  0  0  0  0
  -20.0954  -31.3955   21.9347 C   0  0  0  0  0  0  0  0  0  0  0  0
  -24.0920  -19.2676   20.8326 C   0  0  0  0  0  0  0  0  0  0  0  0
  -19.5761  -33.5011   25.1597 C   0  0  0  0  0  0  0  0  0  0  0  0
  -19.6781  -34.1760   26.3761 C   0  0  0  0  0  0  0  0  0  0  0  0
  -25.7294  -17.7774   21.7904 C   0  0  0  0  0  0  0  0  0  0  0  0
  -29.7527  -24.5749   20.7740 C   0  0  0  0  0  0  0  0  0  0  0  0
  -18.2556  -32.5214   27.4134 C   0  0  0  0  0  0  0  0  0  0  0  0
  -30.6667  -22.8455   18.8716 C   0  0  0  0  0  0  0  0  0  0  0  0
  -22.2192  -30.2619   22.1390 C   0  0  0  0  0  0  0  0  0  0  0  0
  -24.7537  -30.1381   21.8769 C   0  0  0  0  0  0  0  0  0  0  0  0
  -23.0474   -9.6125   22.5372 C   0  0  0  0  0  0  0  0  0  0  0  0
  -24.3933  -17.0418   19.9106 C   0  0  0  0  0  0  0  0  0  0  0  0
  -22.9526  -10.5237   21.4657 C   0  0  0  0  0  0  0  0  0  0  0  0
  -25.3987  -16.7860   20.8539 C   0  0  0  0  0  0  0  0  0  0  0  0
  -31.0137  -24.0069   20.9178 C   0  0  0  0  0  0  0  0  0  0  0  0
  -31.4868  -23.1247   19.9529 C   0  0  0  0  0  0  0  0  0  0  0  0
  -19.8635  -31.2064   23.2972 C   0  0  0  0  0  0  0  0  0  0  0  0
  -25.0782  -19.0106   21.7805 C   0  0  0  0  0  0  0  0  0  0  0  0
  -18.8137  -32.3364   25.0701 C   0  0  0  0  0  0  0  0  0  0  0  0
  -19.0180  -33.6861   27.5030 C   0  0  0  0  0  0  0  0  0  0  0  0
  -18.1535  -31.8466   26.1969 C   0  0  0  0  0  0  0  0  0  0  0  0
  -23.4359  -29.7748   21.5403 C   0  0  0  0  0  0  0  0  0  0  0  0
  -29.0103  -24.2309   19.6559 C   0  0  0  0  0  0  0  0  0  0  0  0
  -25.5409  -29.4026   21.0250 C   0  0  0  0  0  0  0  0  0  0  0  0
  -25.2241  -31.0581   22.8709 C   0  0  0  0  0  0  0  0  0  0  0  0
  -23.4457  -14.0383   20.3400 C   0  0  0  0  0  0  0  0  0  0  0  0
  -26.5216  -13.3670   19.5586 C   0  0  0  0  0  0  0  0  0  0  0  0
  -29.7828  -14.7191   20.3028 C   0  0  0  0  0  0  0  0  0  0  0  0
  -26.8148  -24.6158   18.4821 C   0  0  0  0  0  0  0  0  0  0  0  0
  -23.2100  -10.0777   23.9628 C   0  0  0  0  0  0  0  0  0  0  0  0
  -24.0351  -16.0070   18.8795 C   0  0  0  0  0  0  0  0  0  0  0  0
  -26.1303  -15.4701   20.8962 C   0  0  0  0  0  0  0  0  0  0  0  0
  -22.7784  -11.5261   24.1684 C   0  0  0  0  0  0  0  0  0  0  0  0
  -24.3137  -26.6437   16.9625 C   0  0  0  0  0  0  0  0  0  0  0  0
  -33.0739  -21.1722   19.3674 C   0  0  0  0  0  0  0  0  0  0  0  0
  -32.9826  -21.2229   20.8605 C   0  0  0  0  0  0  0  0  0  0  0  0
  -23.4189  -12.4142   23.1122 C   0  0  0  0  0  0  0  0  0  0  0  0
  -23.9707  -27.6689   18.0457 C   0  0  0  0  0  0  0  0  0  0  0  0
  -24.6022  -25.2661   17.5564 C   0  0  0  0  0  0  0  0  0  0  0  0
  -25.2725  -26.2734   19.7024 C   0  0  0  0  0  0  0  0  0  0  0  0
  -32.1413  -25.8627   22.2050 C   0  0  0  0  0  0  0  0  0  0  0  0
  -31.9247  -24.9147   24.3790 C   0  0  0  0  0  0  0  0  0  0  0  0
  -32.8297  -22.4895   20.0580 C   0  0  0  0  0  0  0  0  0  0  0  0
  -31.8487  -24.3625   22.1279 C   0  0  1  0  0  0  0  0  0  0  0  0
  -22.9434  -12.0223   21.7075 C   0  0  1  0  0  0  0  0  0  0  0  0
  -24.3912  -14.5871   19.3092 C   0  0  1  0  0  0  0  0  0  0  0  0
  -25.0375  -27.6918   19.1579 C   0  0  2  0  0  0  0  0  0  0  0  0
  -31.9165  -14.6524   18.9836 C   0  0  0  0  0  0  0  0  0  0  0  0
  -31.0783  -22.5662   25.3067 C   0  0  0  0  0  0  0  0  0  0  0  0
  -27.1381  -10.8898   21.2300 C   0  0  0  0  0  0  0  0  0  0  0  0
  -29.5264  -11.6348   21.3265 C   0  0  0  0  0  0  0  0  0  0  0  0
  -28.4793  -11.0908   19.1287 C   0  0  0  0  0  0  0  0  0  0  0  0
  -30.0496  -17.6659   20.3656 C   0  0  0  0  0  0  0  0  0  0  0  0
  -30.0529  -21.9441   23.0893 C   0  0  0  0  0  0  0  0  0  0  0  0
  -28.6915  -22.5386   23.4332 C   0  0  0  0  0  0  0  0  0  0  0  0
  -26.2466  -22.1878   23.0614 C   0  0  0  0  0  0  0  0  0  0  0  0
  -25.2644  -21.3254   22.2935 C   0  0  0  0  0  0  0  0  0  1  0  0
  -27.8111  -13.2137   20.3284 C   0  0  1  0  0  0  0  0  0  0  0  0
  -30.6917  -15.4757   19.3511 C   0  0  2  0  0  0  0  0  0  0  0  0
  -31.2022  -22.6800   23.7904 C   0  0  1  0  0  0  0  0  0  0  0  0
  -28.2179  -11.7243   20.5126 C   0  0  0  0  0  0  0  0  0  0  0  0
  -29.4362  -23.3777   18.6976 N   0  0  0  0  0  0  0  0  0  0  0  0
  -23.3848  -28.8783   20.5515 N   0  0  0  0  0  0  0  0  0  0  0  0
  -24.6803  -28.6722   20.2595 N   0  0  0  0  0  0  0  0  0  0  0  0
  -25.7398  -14.4881   19.8711 N   0  0  0  0  0  0  0  0  0  0  0  0
  -25.6251  -25.3651   18.5999 N   0  0  0  0  0  0  0  0  0  0  0  0
  -31.1905  -24.0898   23.4213 N   0  0  1  0  0  0  0  0  0  0  0  0
  -26.8783  -29.3159   20.8635 N   0  0  0  0  0  0  0  0  0  0  0  0
  -25.4026  -32.4001   22.5081 N   0  0  0  0  0  0  0  0  0  0  0  0
  -27.7272  -24.8158   19.5175 N   0  0  0  0  0  0  0  0  0  0  0  0
  -23.7257  -12.7415   20.7265 N   0  0  0  0  0  0  0  0  0  0  0  0
  -28.8033  -14.0218   19.6278 N   0  0  0  0  0  0  0  0  0  0  0  0
  -32.5134  -26.0744   23.6395 N   0  3  0  0  0  0  0  0  0  0  0  0
  -31.1510  -16.7485   19.9754 N   0  3  0  0  0  0  0  0  0  0  0  0
  -27.6304  -21.7444   22.7570 N   0  3  0  0  0  0  0  0  0  0  0  0
  -25.4943  -30.6975   24.0416 O   0  0  0  0  0  0  0  0  0  0  0  0
  -22.5308  -14.7399   20.7551 O   0  0  0  0  0  0  0  0  0  0  0  0
  -26.2226  -12.5270   18.7062 O   0  0  0  0  0  0  0  0  0  0  0  0
  -29.9294  -14.7412   21.5229 O   0  0  0  0  0  0  0  0  0  0  0  0
  -27.0214  -23.8735   17.5186 O   0  0  0  0  0  0  0  0  0  0  0  0
  -18.7140  -31.6671   23.8619 O   0  0  0  0  0  0  0  0  0  0  0  0
  -25.4104  -19.9634   22.6936 O   0  0  0  0  0  0  0  0  0  1  0  0
  -19.1173  -34.3335   28.6714 F   0  0  0  0  0  0  0  0  0  0  0  0
  -17.4207  -30.7275   26.1173 F   0  0  0  0  0  0  0  0  0  0  0  0
  1  2  1  0  0  0  0
  1  5  2  0  0  0  0
  2  6  2  0  0  0  0
  3  8  2  0  0  0  0
  3 17  1  0  0  0  0
  4  9  1  0  0  0  0
  4 17  2  0  0  0  0
  5 19  1  0  0  0  0
  6 21  1  0  0  0  0
  7 10  2  0  0  0  0
  7 20  1  0  0  0  0
  8 25  1  0  0  0  0
  9 25  2  0  0  0  0
 10 26  1  0  0  0  0
 11 12  2  0  0  0  0
 11 27  1  0  0  0  0
 12 28  1  0  0  0  0
 13 22  1  0  0  0  0
 13 26  2  0  0  0  0
 14 23  1  0  0  0  0
 14 31  2  0  0  0  0
 15 28  2  0  0  0  0
 15 29  1  0  0  0  0
 16 24  1  0  0  0  0
 16 70  2  0  0  0  0
 17 30  1  0  0  0  0
 18 30  1  0  0  0  0
 18 32  2  0  0  0  0
 18 33  1  0  0  0  0
 19 21  2  0  0  0  0
 19 38  1  0  0  0  0
 20 22  2  0  0  0  0
 20 39  1  0  0  0  0
 21 53  1  0  0  0  0
 22 40  1  0  0  0  0
 23 24  2  0  0  0  0
 23 52  1  0  0  0  0
 24 51  1  0  0  0  0
 25 89  1  0  0  0  0
 26 90  1  0  0  0  0
 27 29  2  0  0  0  0
 27 89  1  0  0  0  0
 28 91  1  0  0  0  0
 29 92  1  0  0  0  0
 30 71  2  0  0  0  0
 31 70  1  0  0  0  0
 31 78  1  0  0  0  0
 32 72  1  0  0  0  0
 32 76  1  0  0  0  0
 33 77  1  0  0  0  0
 33 84  2  0  0  0  0
 34 54  1  0  0  0  0
 34 79  1  0  0  0  0
 34 85  2  0  0  0  0
 35 66  1  0  0  0  0
 35 73  1  0  0  0  0
 35 86  2  0  0  0  0
 36 67  1  0  0  0  0
 36 80  1  0  0  0  0
 36 87  2  0  0  0  0
 37 74  1  0  0  0  0
 37 78  1  0  0  0  0
 37 88  2  0  0  0  0
 38 41  1  0  0  0  0
 39 54  1  0  0  0  0
 40 73  1  0  0  0  0
 41 45  1  0  0  0  0
 42 46  1  0  0  0  0
 42 47  1  0  0  0  0
 43 44  1  0  0  0  0
 43 51  1  0  0  0  0
 44 51  1  0  0  0  0
 45 53  1  0  0  0  0
 46 55  1  0  0  0  0
 47 74  1  0  0  0  0
 48 55  1  0  0  0  0
 48 74  1  0  0  0  0
 49 52  1  0  0  0  0
 49 81  1  0  0  0  0
 50 75  1  0  0  0  0
 50 81  1  0  0  0  0
 52 75  1  0  0  0  0
 53 79  1  0  0  0  0
 54 73  1  0  0  0  0
 55 72  1  0  0  0  0
 56 67  1  0  0  0  0
 57 68  1  0  0  0  0
 58 69  1  0  0  0  0
 59 69  1  0  0  0  0
 60 69  1  0  0  0  0
 61 82  1  0  0  0  0
 62 63  1  0  0  0  0
 62 68  1  0  0  0  0
 63 83  1  0  0  0  0
 64 65  1  0  0  0  0
 64 83  1  0  0  0  0
 65 90  1  0  0  0  0
 66 69  1  0  0  0  0
 66 80  1  0  0  0  0
 67 82  1  0  0  0  0
 68 75  1  0  0  0  0
 71 72  1  0  0  0  0
M  CHG  3  81   1  82   1  83   1
M  ISO  4  37 100  65 101  78 100  90 101
M  END
> <Batch ID>
0198

> <Smiles>
CNC(C)C(=O)NC(C(=O)N1Cc2cc([101O:1][101CH2:1]CNCCC(C)N3CNCC3c3cc([100NH:0][100C:0](=O)N4CCCC(n5nc(-c6ccc(Oc7ccc(F)cc7F)cc6)c(C(N)=O)c5N)C4)ncc3C3CC3)ccc2CC1C(=O)NC1CCCc2ccccc21)C(C)(C)C

> <Shape>
0.246

> <Color>
0.054

> <Negative vol penalty>
0.000

$$$$

  -OEChem-04052323483D

 80 89  0     1  0  0  0  0  0999 V2000
  -16.8510  -27.6334   20.9185 C   0  0  0  0  0  0  0  0  0  0  0  0
  -17.9691  -26.8565   21.2042 C   0  0  0  0  0  0  0  0  0  0  0  0
  -23.9035   -9.6645   22.2760 C   0  0  0  0  0  0  0  0  0  0  0  0
  -23.0586   -9.7535   20.0143 C   0  0  0  0  0  0  0  0  0  0  0  0
  -17.0081  -28.9654   20.5374 C   0  0  0  0  0  0  0  0  0  0  0  0
  -19.2450  -27.4107   21.1079 C   0  0  0  0  0  0  0  0  0  0  0  0
  -24.0905  -26.1296   24.6272 C   0  0  0  0  0  0  0  0  0  0  0  0
  -22.9973   -8.6469   22.5745 C   0  0  0  0  0  0  0  0  0  0  0  0
  -22.1524   -8.7359   20.3127 C   0  0  0  0  0  0  0  0  0  0  0  0
  -25.1905  -25.2935   24.4407 C   0  0  0  0  0  0  0  0  0  0  0  0
  -22.7359   -5.3149   22.0624 C   0  0  0  0  0  0  0  0  0  0  0  0
  -23.2102   -4.2124   22.7730 C   0  0  0  0  0  0  0  0  0  0  0  0
  -26.4822  -27.1764   23.6627 C   0  0  0  0  0  0  0  0  0  0  0  0
  -21.6285   -4.6714   24.5407 C   0  0  0  0  0  0  0  0  0  0  0  0
  -23.9341  -10.2178   20.9959 C   0  0  0  0  0  0  0  0  0  0  0  0
  -26.1792  -11.1237   20.1919 C   0  0  0  0  0  0  0  0  0  0  0  0
  -18.2860  -29.5389   20.4457 C   0  0  0  0  0  0  0  0  0  0  0  0
  -24.1751  -27.4957   24.3221 C   0  0  0  0  0  0  0  0  0  0  0  0
  -19.4194  -28.7512   20.7239 C   0  0  0  0  0  0  0  0  0  0  0  0
  -25.3827  -28.0282   23.8487 C   0  0  0  0  0  0  0  0  0  0  0  0
  -22.1218   -8.1826   21.5929 C   0  0  0  0  0  0  0  0  0  0  0  0
  -26.3857  -25.8163   23.9556 C   0  0  0  0  0  0  0  0  0  0  0  0
  -21.7080   -6.0958   22.5908 C   0  0  0  0  0  0  0  0  0  0  0  0
  -22.6565   -3.8906   24.0122 C   0  0  0  0  0  0  0  0  0  0  0  0
  -21.1542   -5.7740   23.8300 C   0  0  0  0  0  0  0  0  0  0  0  0
  -24.8695  -11.2693   20.6871 C   0  0  0  0  0  0  0  0  0  0  0  0
  -26.6445  -12.4100   20.0679 C   0  0  0  0  0  0  0  0  0  0  0  0
  -26.9099   -9.9321   19.8725 C   0  0  0  0  0  0  0  0  0  0  0  0
  -22.7022  -29.4326   22.2769 C   0  0  0  0  0  0  0  0  0  0  0  0
  -24.3939  -31.7228   23.8310 C   0  0  0  0  0  0  0  0  0  0  0  0
  -27.1183  -32.5318   25.7204 C   0  0  0  0  0  0  0  0  0  0  0  0
  -25.7753  -17.5835   18.3070 C   0  0  0  0  0  0  0  0  0  0  0  0
  -18.4082  -30.9695   19.9839 C   0  0  0  0  0  0  0  0  0  0  0  0
  -22.9876  -28.3893   24.5542 C   0  0  0  0  0  0  0  0  0  0  0  0
  -25.5314  -29.4917   23.5253 C   0  0  0  0  0  0  0  0  0  0  0  0
  -19.7750  -31.5869   20.2688 C   0  0  0  0  0  0  0  0  0  0  0  0
  -24.7273  -16.7841   21.7286 C   0  0  0  0  0  0  0  0  0  0  0  0
  -20.8893  -30.6305   19.8560 C   0  0  0  0  0  0  0  0  0  0  0  0
  -24.7639  -15.2552   21.7088 C   0  0  0  0  0  0  0  0  0  0  0  0
  -29.0800  -23.7803   22.2320 C   0  0  0  0  0  0  0  0  0  0  0  0
  -27.1416  -24.1305   21.4092 C   0  0  0  0  0  0  0  0  0  0  0  0
  -24.2994  -17.3370   20.3745 C   0  0  0  0  0  0  0  0  0  0  0  0
  -26.8388  -19.8392   17.7608 C   0  0  0  0  0  0  0  0  0  0  0  0
  -26.4417  -19.6008   19.8369 C   0  0  0  0  0  0  0  0  0  0  0  0
  -25.1825  -15.3591   19.2043 C   0  0  0  0  0  0  0  0  0  0  0  0
  -20.8186  -29.3234   20.6548 C   0  0  1  0  0  0  0  0  0  0  0  0
  -23.0310  -29.6684   23.7239 C   0  0  1  0  0  0  0  0  0  0  0  0
  -27.5477  -20.3177   19.0395 C   0  0  0  0  0  0  0  0  0  0  0  0
  -25.6208  -14.7328   20.5410 C   0  0  2  0  0  0  0  0  0  0  0  0
  -28.4428  -23.5182   20.8520 C   0  0  0  0  0  0  0  0  0  0  0  0
  -28.0153  -24.8834   22.4414 C   0  0  0  0  0  0  0  0  0  1  0  0
  -28.2522  -34.4902   26.8050 C   0  0  0  0  0  0  0  0  0  0  0  0
  -25.4344  -32.6253   21.1083 C   0  0  0  0  0  0  0  0  0  0  0  0
  -27.2323  -33.9002   22.2957 C   0  0  0  0  0  0  0  0  0  0  0  0
  -24.8365  -34.4880   22.6663 C   0  0  0  0  0  0  0  0  0  0  0  0
  -26.8244  -31.3550   28.4199 C   0  0  0  0  0  0  0  0  0  0  0  0
  -27.6577  -21.8171   19.2300 C   0  0  0  0  0  0  0  0  0  0  0  0
  -25.7556  -32.3504   23.6553 C   0  0  1  0  0  0  0  0  0  0  0  0
  -27.2564  -33.3555   26.9880 C   0  0  2  0  0  0  0  0  0  0  0  0
  -25.8116  -33.3130   22.4356 C   0  0  0  0  0  0  0  0  0  0  0  0
  -24.5249  -12.5474   20.8657 N   0  0  0  0  0  0  0  0  0  0  0  0
  -25.6250  -13.2165   20.4806 N   0  0  0  0  0  0  0  0  0  0  0  0
  -24.3401  -30.3234   23.7630 N   0  0  0  0  0  0  0  0  0  0  0  0
  -25.1591  -16.8222   19.3040 N   0  0  0  0  0  0  0  0  0  0  0  0
  -26.1554  -18.8692   18.6121 N   0  0  0  0  0  0  0  0  0  0  0  0
  -27.8221  -12.9186   19.6472 N   0  0  0  0  0  0  0  0  0  0  0  0
  -26.2820   -8.6931   20.0591 N   0  0  0  0  0  0  0  0  0  0  0  0
  -21.3539  -29.5149   21.9857 N   0  0  0  0  0  0  0  0  0  0  0  0
  -26.0819  -32.9811   24.9297 N   0  0  0  0  0  0  0  0  0  0  0  0
  -28.3254  -22.0944   20.5222 N   0  3  0  0  0  0  0  0  0  0  0  0
  -27.7225  -32.4983   28.1145 N   0  3  0  0  0  0  0  0  0  0  0  0
  -28.0906   -9.9646   19.4502 O   0  0  0  0  0  0  0  0  0  0  0  0
  -23.6050  -29.1951   21.4831 O   0  0  0  0  0  0  0  0  0  0  0  0
  -23.4151  -32.4472   24.0286 O   0  0  0  0  0  0  0  0  0  0  0  0
  -27.8584  -31.5869   25.4561 O   0  0  0  0  0  0  0  0  0  0  0  0
  -26.0098  -17.1196   17.1832 O   0  0  0  0  0  0  0  0  0  0  0  0
  -21.2376   -7.1896   21.8837 O   0  0  0  0  0  0  0  0  0  0  0  0
  -27.4761  -24.9905   23.7693 O   0  0  0  0  0  0  0  0  0  1  0  0
  -23.1110   -2.8310   24.6939 F   0  0  0  0  0  0  0  0  0  0  0  0
  -20.1656   -6.5197   24.3423 F   0  0  0  0  0  0  0  0  0  0  0  0
  1  2  1  0  0  0  0
  1  5  2  0  0  0  0
  2  6  2  0  0  0  0
  3  8  2  0  0  0  0
  3 15  1  0  0  0  0
  4  9  1  0  0  0  0
  4 15  2  0  0  0  0
  5 17  1  0  0  0  0
  6 19  1  0  0  0  0
  7 10  2  0  0  0  0
  7 18  1  0  0  0  0
  8 21  1  0  0  0  0
  9 21  2  0  0  0  0
 10 22  1  0  0  0  0
 11 12  2  0  0  0  0
 11 23  1  0  0  0  0
 12 24  1  0  0  0  0
 13 20  1  0  0  0  0
 13 22  2  0  0  0  0
 14 24  2  0  0  0  0
 14 25  1  0  0  0  0
 15 26  1  0  0  0  0
 16 26  1  0  0  0  0
 16 27  2  0  0  0  0
 16 28  1  0  0  0  0
 17 19  2  0  0  0  0
 17 33  1  0  0  0  0
 18 20  2  0  0  0  0
 18 34  1  0  0  0  0
 19 46  1  0  0  0  0
 20 35  1  0  0  0  0
 21 77  1  0  0  0  0
 22 78  1  0  0  0  0
 23 25  2  0  0  0  0
 23 77  1  0  0  0  0
 24 79  1  0  0  0  0
 25 80  1  0  0  0  0
 26 61  2  0  0  0  0
 27 62  1  0  0  0  0
 27 66  1  0  0  0  0
 28 67  1  0  0  0  0
 28 72  2  0  0  0  0
 29 47  1  0  0  0  0
 29 68  1  0  0  0  0
 29 73  2  0  0  0  0
 30 58  1  0  0  0  0
 30 63  1  0  0  0  0
 30 74  2  0  0  0  0
 31 59  1  0  0  0  0
 31 69  1  0  0  0  0
 31 75  2  0  0  0  0
 32 64  1  0  0  0  0
 32 65  1  0  0  0  0
 32 76  2  0  0  0  0
 33 36  1  0  0  0  0
 34 47  1  0  0  0  0
 35 63  1  0  0  0  0
 36 38  1  0  0  0  0
 37 39  1  0  0  0  0
 37 42  1  0  0  0  0
 38 46  1  0  0  0  0
 39 49  1  0  0  0  0
 40 50  1  0  0  0  0
 40 51  1  0  0  0  0
 41 50  1  0  0  0  0
 41 51  1  0  0  0  0
 42 64  1  0  0  0  0
 43 48  1  0  0  0  0
 43 65  1  0  0  0  0
 44 48  1  0  0  0  0
 44 65  1  0  0  0  0
 45 49  1  0  0  0  0
 45 64  1  0  0  0  0
 46 68  1  0  0  0  0
 47 63  1  0  0  0  0
 48 57  1  0  0  0  0
 49 62  1  0  0  0  0
 50 70  1  0  0  0  0
 51 78  1  0  0  0  0
 52 59  1  0  0  0  0
 53 60  1  0  0  0  0
 54 60  1  0  0  0  0
 55 60  1  0  0  0  0
 56 71  1  0  0  0  0
 57 70  1  0  0  0  0
 58 60  1  0  0  0  0
 58 69  1  0  0  0  0
 59 71  1  0  0  0  0
 61 62  1  0  0  0  0
M  CHG  2  70   1  71   1
M  ISO  4  32 100  51 101  65 100  78 101
M  END
> <Batch ID>
0198

> <Smiles>
CNC(C)C(=O)NC(C(=O)N1Cc2cc([101O:1][101CH:1]3CC(NCC4C[100N:0]([100C:0](=O)N5CCCC(n6nc(-c7ccc(Oc8ccc(F)cc8F)cc7)c(C(N)=O)c6N)C5)C4)C3)ccc2CC1C(=O)NC1CCCc2ccccc21)C(C)(C)C

> <Shape>
0.257

> <Color>
0.096

> <Negative vol penalty>
0.000

$$$$

  -OEChem-04052323483D

 83 92  0     1  0  0  0  0  0999 V2000
  -22.7728   -8.1537   21.9600 C   0  0  0  0  0  0  0  0  0  0  0  0
  -23.9738   -8.7626   22.3095 C   0  0  0  0  0  0  0  0  0  0  0  0
  -23.5210  -27.0313   22.9457 C   0  0  0  0  0  0  0  0  0  0  0  0
  -22.8565  -28.8958   21.5604 C   0  0  0  0  0  0  0  0  0  0  0  0
  -22.0427   -8.6285   20.8713 C   0  0  0  0  0  0  0  0  0  0  0  0
  -24.4460   -9.8461   21.5696 C   0  0  0  0  0  0  0  0  0  0  0  0
  -28.1487  -15.9320   22.3236 C   0  0  0  0  0  0  0  0  0  0  0  0
  -22.4878  -27.3244   23.8358 C   0  0  0  0  0  0  0  0  0  0  0  0
  -21.8232  -29.1888   22.4504 C   0  0  0  0  0  0  0  0  0  0  0  0
  -29.2448  -16.6003   21.7798 C   0  0  0  0  0  0  0  0  0  0  0  0
  -18.7872  -30.2096   24.1705 C   0  0  0  0  0  0  0  0  0  0  0  0
  -17.5314  -30.4968   23.6356 C   0  0  0  0  0  0  0  0  0  0  0  0
  -27.8595  -17.3849   19.9675 C   0  0  0  0  0  0  0  0  0  0  0  0
  -17.4692  -28.3112   22.6079 C   0  0  0  0  0  0  0  0  0  0  0  0
  -23.7054  -27.8171   21.8080 C   0  0  0  0  0  0  0  0  0  0  0  0
  -24.7152  -26.6633   19.7692 C   0  0  0  0  0  0  0  0  0  0  0  0
  -22.5013   -9.7245   20.1236 C   0  0  0  0  0  0  0  0  0  0  0  0
  -26.9003  -15.9762   21.6866 C   0  0  0  0  0  0  0  0  0  0  0  0
  -23.7220  -10.3352   20.4690 C   0  0  0  0  0  0  0  0  0  0  0  0
  -26.7486  -16.7184   20.5066 C   0  0  0  0  0  0  0  0  0  0  0  0
  -21.6389  -28.4031   23.5881 C   0  0  0  0  0  0  0  0  0  0  0  0
  -29.1010  -17.3245   20.6000 C   0  0  0  0  0  0  0  0  0  0  0  0
  -19.3840  -28.9732   23.9240 C   0  0  0  0  0  0  0  0  0  0  0  0
  -16.8724  -29.5477   22.8543 C   0  0  0  0  0  0  0  0  0  0  0  0
  -18.7250  -28.0240   23.1427 C   0  0  0  0  0  0  0  0  0  0  0  0
  -24.7728  -27.5152   20.8885 C   0  0  0  0  0  0  0  0  0  0  0  0
  -25.9784  -26.7157   19.2325 C   0  0  0  0  0  0  0  0  0  0  0  0
  -23.6180  -25.8934   19.2602 C   0  0  0  0  0  0  0  0  0  0  0  0
  -24.9670  -13.8132   20.3875 C   0  0  0  0  0  0  0  0  0  0  0  0
  -22.9638  -16.3481   20.0979 C   0  0  0  0  0  0  0  0  0  0  0  0
  -22.5871  -19.7330   19.8799 C   0  0  0  0  0  0  0  0  0  0  0  0
  -31.5195  -26.6749   19.8895 C   0  0  0  0  0  0  0  0  0  0  0  0
  -21.7011  -10.1723   18.9262 C   0  0  0  0  0  0  0  0  0  0  0  0
  -25.7215  -15.2719   22.3003 C   0  0  0  0  0  0  0  0  0  0  0  0
  -25.4248  -16.8141   19.7947 C   0  0  0  0  0  0  0  0  0  0  0  0
  -22.0838  -11.5618   18.4229 C   0  0  0  0  0  0  0  0  0  0  0  0
  -29.8590  -29.7827   20.1975 C   0  0  0  0  0  0  0  0  0  0  0  0
  -23.6003  -11.6968   18.3296 C   0  0  0  0  0  0  0  0  0  0  0  0
  -28.3873  -29.4093   20.3501 C   0  0  0  0  0  0  0  0  0  0  0  0
  -31.9203  -23.3302   21.3511 C   0  0  0  0  0  0  0  0  0  0  0  0
  -30.7488  -28.7818   20.9222 C   0  0  0  0  0  0  0  0  0  0  0  0
  -31.0224  -24.5563   21.2465 C   0  0  0  0  0  0  0  0  0  0  0  0
  -32.4444  -24.4503   19.3158 C   0  0  0  0  0  0  0  0  0  0  0  0
  -32.1208  -20.1611   19.8487 C   0  0  0  0  0  0  0  0  0  0  0  0
  -29.0895  -26.9708   20.5776 C   0  0  0  0  0  0  0  0  0  0  0  0
  -34.4367  -19.9915   20.2517 C   0  0  0  0  0  0  0  0  0  0  0  0
  -24.2549  -11.5286   19.7061 C   0  0  1  0  0  0  0  0  0  0  0  0
  -24.6195  -14.9616   21.2920 C   0  0  1  0  0  0  0  0  0  0  0  0
  -32.2671  -23.0473   19.8890 C   0  0  1  0  0  0  0  0  0  0  0  0
  -32.4655  -18.6707   20.0043 C   0  0  1  0  0  0  0  0  0  0  0  0
  -28.1430  -27.9676   19.8778 C   0  0  1  0  0  0  0  0  0  0  0  0
  -33.8169  -18.6881   20.7128 C   0  0  1  0  0  0  0  0  0  0  0  0
  -20.8321  -21.5065   19.6120 C   0  0  0  0  0  0  0  0  0  0  0  0
  -22.7290  -15.6644   17.1336 C   0  0  0  0  0  0  0  0  0  0  0  0
  -21.7772  -17.9487   16.7536 C   0  0  0  0  0  0  0  0  0  0  0  0
  -20.5789  -16.3290   18.2244 C   0  0  0  0  0  0  0  0  0  0  0  0
  -23.2701  -20.9656   22.4825 C   0  0  0  0  0  0  0  0  0  0  0  0
  -33.4947  -22.1698   19.7239 C   0  0  0  0  0  0  0  0  0  0  0  0
  -31.4073  -17.8821   20.7610 C   0  0  0  0  0  0  0  0  0  1  0  0
  -22.7169  -17.4007   19.0444 C   0  0  1  0  0  0  0  0  0  0  0  0
  -21.6538  -20.6909   20.5981 C   0  0  2  0  0  0  0  0  0  0  0  0
  -21.9760  -16.8325   17.8011 C   0  0  0  0  0  0  0  0  0  0  0  0
  -25.9773  -28.0682   21.0541 N   0  0  0  0  0  0  0  0  0  0  0  0
  -26.6883  -27.5626   20.0319 N   0  0  0  0  0  0  0  0  0  0  0  0
  -24.3036  -16.1030   20.4308 N   0  0  0  0  0  0  0  0  0  0  0  0
  -30.4889  -27.4077   20.4886 N   0  0  0  0  0  0  0  0  0  0  0  0
  -31.5453  -25.2962   20.0961 N   0  0  0  0  0  0  0  0  0  0  0  0
  -33.2847  -20.8874   20.3769 N   0  0  1  0  0  0  0  0  0  0  0  0
  -26.5401  -26.1196   18.1594 N   0  0  0  0  0  0  0  0  0  0  0  0
  -22.3900  -25.9546   19.9329 N   0  0  0  0  0  0  0  0  0  0  0  0
  -24.1056  -12.7374   20.4878 N   0  0  0  0  0  0  0  0  0  0  0  0
  -22.0137  -18.4902   19.7128 N   0  0  0  0  0  0  0  0  0  0  0  0
  -34.6470  -17.5333   20.3210 N   0  3  0  0  0  0  0  0  0  0  0  0
  -22.4335  -21.6317   21.4513 N   0  3  0  0  0  0  0  0  0  0  0  0
  -23.7280  -25.1598   18.2487 O   0  0  0  0  0  0  0  0  0  0  0  0
  -25.9435  -13.8976   19.6519 O   0  0  0  0  0  0  0  0  0  0  0  0
  -22.0030  -15.7699   20.6119 O   0  0  0  0  0  0  0  0  0  0  0  0
  -23.7110  -20.0560   19.5015 O   0  0  0  0  0  0  0  0  0  0  0  0
  -32.4068  -27.2340   19.2308 O   0  0  0  0  0  0  0  0  0  0  0  0
  -20.6305  -28.6892   24.4563 O   0  0  0  0  0  0  0  0  0  0  0  0
  -30.1785  -17.9828   20.0621 O   0  0  0  0  0  0  0  0  0  1  0  0
  -15.6658  -29.8230   22.3421 F   0  0  0  0  0  0  0  0  0  0  0  0
  -19.2929  -26.8340   22.9034 F   0  0  0  0  0  0  0  0  0  0  0  0
  1  2  1  0  0  0  0
  1  5  2  0  0  0  0
  2  6  2  0  0  0  0
  3  8  2  0  0  0  0
  3 15  1  0  0  0  0
  4  9  1  0  0  0  0
  4 15  2  0  0  0  0
  5 17  1  0  0  0  0
  6 19  1  0  0  0  0
  7 10  2  0  0  0  0
  7 18  1  0  0  0  0
  8 21  1  0  0  0  0
  9 21  2  0  0  0  0
 10 22  1  0  0  0  0
 11 12  2  0  0  0  0
 11 23  1  0  0  0  0
 12 24  1  0  0  0  0
 13 20  1  0  0  0  0
 13 22  2  0  0  0  0
 14 24  2  0  0  0  0
 14 25  1  0  0  0  0
 15 26  1  0  0  0  0
 16 26  1  0  0  0  0
 16 27  2  0  0  0  0
 16 28  1  0  0  0  0
 17 19  2  0  0  0  0
 17 33  1  0  0  0  0
 18 20  2  0  0  0  0
 18 34  1  0  0  0  0
 19 47  1  0  0  0  0
 20 35  1  0  0  0  0
 21 80  1  0  0  0  0
 22 81  1  0  0  0  0
 23 25  2  0  0  0  0
 23 80  1  0  0  0  0
 24 82  1  0  0  0  0
 25 83  1  0  0  0  0
 26 63  2  0  0  0  0
 27 64  1  0  0  0  0
 27 69  1  0  0  0  0
 28 70  1  0  0  0  0
 28 75  2  0  0  0  0
 29 48  1  0  0  0  0
 29 71  1  0  0  0  0
 29 76  2  0  0  0  0
 30 60  1  0  0  0  0
 30 65  1  0  0  0  0
 30 77  2  0  0  0  0
 31 61  1  0  0  0  0
 31 72  1  0  0  0  0
 31 78  2  0  0  0  0
 32 66  1  0  0  0  0
 32 67  1  0  0  0  0
 32 79  2  0  0  0  0
 33 36  1  0  0  0  0
 34 48  1  0  0  0  0
 35 65  1  0  0  0  0
 36 38  1  0  0  0  0
 37 39  1  0  0  0  0
 37 41  1  0  0  0  0
 38 47  1  0  0  0  0
 39 51  1  0  0  0  0
 40 42  1  0  0  0  0
 40 49  1  0  0  0  0
 41 66  1  0  0  0  0
 42 67  1  0  0  0  0
 43 49  1  0  0  0  0
 43 67  1  0  0  0  0
 44 50  1  0  0  0  0
 44 68  1  0  0  0  0
 45 51  1  0  0  0  0
 45 66  1  0  0  0  0
 46 52  1  0  0  0  0
 46 68  1  0  0  0  0
 47 71  1  0  0  0  0
 48 65  1  0  0  0  0
 49 58  1  0  0  0  0
 50 52  1  0  0  0  0
 50 59  1  0  0  0  0
 51 64  1  0  0  0  0
 52 73  1  0  0  0  0
 53 61  1  0  0  0  0
 54 62  1  0  0  0  0
 55 62  1  0  0  0  0
 56 62  1  0  0  0  0
 57 74  1  0  0  0  0
 58 68  1  0  0  0  0
 59 81  1  0  0  0  0
 60 62  1  0  0  0  0
 60 72  1  0  0  0  0
 61 74  1  0  0  0  0
 63 64  1  0  0  0  0
M  CHG  2  73   1  74   1
M  ISO  4  32 100  59 101  67 100  81 101
M  END
> <Batch ID>
0198

> <Smiles>
CNC(C)C(=O)NC(C(=O)N1Cc2cc([101O:1][101CH2:1]C3CN(CC4CC[100N:0]([100C:0](=O)N5CCCC(n6nc(-c7ccc(Oc8ccc(F)cc8F)cc7)c(C(N)=O)c6N)C5)C4)CC3N)ccc2CC1C(=O)NC1CCCc2ccccc21)C(C)(C)C

> <Shape>
0.235

> <Color>
0.064

> <Negative vol penalty>
0.000

$$$$

  -OEChem-04052323483D

 84 92  0     1  0  0  0  0  0999 V2000
  -28.1184  -31.0957   18.4084 C   0  0  0  0  0  0  0  0  0  0  0  0
  -27.7360  -30.0936   19.2944 C   0  0  0  0  0  0  0  0  0  0  0  0
  -23.1719   -9.8910   21.1341 C   0  0  0  0  0  0  0  0  0  0  0  0
  -23.9076  -10.6048   23.3219 C   0  0  0  0  0  0  0  0  0  0  0  0
  -29.0834  -30.8344   17.4366 C   0  0  0  0  0  0  0  0  0  0  0  0
  -28.3176  -28.8292   19.2083 C   0  0  0  0  0  0  0  0  0  0  0  0
  -29.5944  -25.0408   23.8477 C   0  0  0  0  0  0  0  0  0  0  0  0
  -22.4408   -8.8563   21.7175 C   0  0  0  0  0  0  0  0  0  0  0  0
  -23.1764   -9.5700   23.9053 C   0  0  0  0  0  0  0  0  0  0  0  0
  -28.9209  -23.9378   24.3705 C   0  0  0  0  0  0  0  0  0  0  0  0
  -23.0538   -5.7916   23.0043 C   0  0  0  0  0  0  0  0  0  0  0  0
  -23.1440   -4.5271   22.4225 C   0  0  0  0  0  0  0  0  0  0  0  0
  -30.2957  -22.4729   23.0351 C   0  0  0  0  0  0  0  0  0  0  0  0
  -20.7613   -4.5409   22.0229 C   0  0  0  0  0  0  0  0  0  0  0  0
  -23.9054  -10.7652   21.9363 C   0  0  0  0  0  0  0  0  0  0  0  0
  -24.2151  -13.1403   21.0583 C   0  0  0  0  0  0  0  0  0  0  0  0
  -29.6842  -29.5690   17.3448 C   0  0  0  0  0  0  0  0  0  0  0  0
  -30.6181  -24.8685   22.9049 C   0  0  0  0  0  0  0  0  0  0  0  0
  -29.2906  -28.5503   18.2335 C   0  0  0  0  0  0  0  0  0  0  0  0
  -30.9825  -23.5753   22.5038 C   0  0  0  0  0  0  0  0  0  0  0  0
  -22.4430   -8.6958   23.1031 C   0  0  0  0  0  0  0  0  0  0  0  0
  -29.2695  -22.6537   23.9621 C   0  0  0  0  0  0  0  0  0  0  0  0
  -21.8173   -6.4307   23.0955 C   0  0  0  0  0  0  0  0  0  0  0  0
  -21.9978   -3.9018   21.9318 C   0  0  0  0  0  0  0  0  0  0  0  0
  -20.6711   -5.8054   22.6048 C   0  0  0  0  0  0  0  0  0  0  0  0
  -24.6613  -11.8339   21.3342 C   0  0  0  0  0  0  0  0  0  0  0  0
  -25.3010  -13.7615   20.4914 C   0  0  0  0  0  0  0  0  0  0  0  0
  -22.9336  -13.7387   21.2935 C   0  0  0  0  0  0  0  0  0  0  0  0
  -31.0599  -25.7587   19.8856 C   0  0  0  0  0  0  0  0  0  0  0  0
  -34.0091  -24.4910   20.3522 C   0  0  0  0  0  0  0  0  0  0  0  0
  -35.9886  -22.3232   22.0926 C   0  0  0  0  0  0  0  0  0  0  0  0
  -30.7521  -14.8533   20.3882 C   0  0  0  0  0  0  0  0  0  0  0  0
  -30.6884  -29.3201   16.2474 C   0  0  0  0  0  0  0  0  0  0  0  0
  -31.3530  -26.0672   22.3706 C   0  0  0  0  0  0  0  0  0  0  0  0
  -32.0880  -23.3354   21.5095 C   0  0  0  0  0  0  0  0  0  0  0  0
  -31.5276  -28.0633   16.4634 C   0  0  0  0  0  0  0  0  0  0  0  0
  -29.6745  -11.8951   18.8124 C   0  0  0  0  0  0  0  0  0  0  0  0
  -30.6389  -26.8904   16.8650 C   0  0  0  0  0  0  0  0  0  0  0  0
  -28.2475  -11.6993   19.3187 C   0  0  0  0  0  0  0  0  0  0  0  0
  -31.1775  -17.6956   22.7388 C   0  0  0  0  0  0  0  0  0  0  0  0
  -30.5729  -12.4321   19.9188 C   0  0  0  0  0  0  0  0  0  0  0  0
  -28.6545  -13.5591   21.0112 C   0  0  0  0  0  0  0  0  0  0  0  0
  -30.3541  -15.4654   22.8311 C   0  0  0  0  0  0  0  0  0  0  0  0
  -29.9165  -27.1733   18.1878 C   0  0  1  0  0  0  0  0  0  0  0  0
  -32.0322  -25.8031   21.0303 C   0  0  1  0  0  0  0  0  0  0  0  0
  -27.7044  -12.9997   19.9324 C   0  0  2  0  0  0  0  0  0  0  0  0
  -31.2403  -16.4372   23.5905 C   0  0  2  0  0  0  0  0  0  0  0  0
  -31.2201  -17.1273   21.3138 C   0  0  2  0  0  0  0  0  0  0  0  0
  -38.3487  -21.4802   22.2210 C   0  0  0  0  0  0  0  0  0  0  0  0
  -33.5336  -22.7886   17.8651 C   0  0  0  0  0  0  0  0  0  0  0  0
  -35.4432  -21.3356   18.5797 C   0  0  0  0  0  0  0  0  0  0  0  0
  -35.8382  -23.7415   18.0520 C   0  0  0  0  0  0  0  0  0  0  0  0
  -36.3096  -23.3002   24.8678 C   0  0  0  0  0  0  0  0  0  0  0  0
  -30.4699  -18.0117   20.3266 C   0  0  0  0  0  0  0  0  0  0  0  0
  -30.8964  -17.8715   27.1227 C   0  0  0  0  0  0  0  0  0  0  0  0
  -31.5070  -17.6852   25.7377 C   0  0  0  0  0  0  0  0  0  0  0  0
  -29.4700  -18.4103   27.1539 C   0  0  0  0  0  0  0  0  0  0  0  0
  -28.0301  -20.3236   26.4434 C   0  0  0  0  0  0  0  0  0  0  0  0
  -28.0980  -21.6920   25.7947 C   0  0  0  0  0  0  0  0  0  1  0  0
  -34.6238  -23.1228   20.1815 C   0  0  1  0  0  0  0  0  0  0  0  0
  -37.3492  -22.5012   22.7419 C   0  0  2  0  0  0  0  0  0  0  0  0
  -34.8375  -22.7514   18.6869 C   0  0  0  0  0  0  0  0  0  0  0  0
  -25.9317  -11.6358   20.9722 N   0  0  0  0  0  0  0  0  0  0  0  0
  -26.2929  -12.8258   20.4630 N   0  0  0  0  0  0  0  0  0  0  0  0
  -32.7724  -24.5398   21.0110 N   0  0  0  0  0  0  0  0  0  0  0  0
  -30.0308  -13.6584   20.5062 N   0  0  0  0  0  0  0  0  0  0  0  0
  -30.6365  -15.7813   21.4264 N   0  0  0  0  0  0  0  0  0  0  0  0
  -25.4945  -15.0114   20.0194 N   0  0  0  0  0  0  0  0  0  0  0  0
  -21.9303  -12.9587   21.8846 N   0  0  0  0  0  0  0  0  0  0  0  0
  -30.8177  -26.9891   19.3052 N   0  0  0  0  0  0  0  0  0  0  0  0
  -35.8461  -23.1223   20.9780 N   0  0  0  0  0  0  0  0  0  0  0  0
  -30.7303  -16.6827   24.9496 N   0  3  0  0  0  0  0  0  0  0  0  0
  -37.2426  -22.3427   24.2199 N   0  3  0  0  0  0  0  0  0  0  0  0
  -29.3997  -19.7426   26.5100 N   0  3  0  0  0  0  0  0  0  0  0  0
  -22.6805  -14.9250   20.9736 O   0  0  0  0  0  0  0  0  0  0  0  0
  -30.5671  -24.6873   19.5527 O   0  0  0  0  0  0  0  0  0  0  0  0
  -34.6075  -25.4807   19.9233 O   0  0  0  0  0  0  0  0  0  0  0  0
  -35.1386  -21.5498   22.5284 O   0  0  0  0  0  0  0  0  0  0  0  0
  -31.4877  -15.0691   19.4162 O   0  0  0  0  0  0  0  0  0  0  0  0
  -29.1150  -18.0951   20.7318 O   0  0  0  0  0  0  0  0  0  0  0  0
  -21.7294   -7.6864   23.6728 O   0  0  0  0  0  0  0  0  0  0  0  0
  -28.6086  -21.5676   24.4740 O   0  0  0  0  0  0  0  0  0  1  0  0
  -22.0849   -2.6882   21.3716 F   0  0  0  0  0  0  0  0  0  0  0  0
  -19.4806   -6.4150   22.6885 F   0  0  0  0  0  0  0  0  0  0  0  0
  1  2  1  0  0  0  0
  1  5  2  0  0  0  0
  2  6  2  0  0  0  0
  3  8  2  0  0  0  0
  3 15  1  0  0  0  0
  4  9  1  0  0  0  0
  4 15  2  0  0  0  0
  5 17  1  0  0  0  0
  6 19  1  0  0  0  0
  7 10  2  0  0  0  0
  7 18  1  0  0  0  0
  8 21  1  0  0  0  0
  9 21  2  0  0  0  0
 10 22  1  0  0  0  0
 11 12  2  0  0  0  0
 11 23  1  0  0  0  0
 12 24  1  0  0  0  0
 13 20  1  0  0  0  0
 13 22  2  0  0  0  0
 14 24  2  0  0  0  0
 14 25  1  0  0  0  0
 15 26  1  0  0  0  0
 16 26  1  0  0  0  0
 16 27  2  0  0  0  0
 16 28  1  0  0  0  0
 17 19  2  0  0  0  0
 17 33  1  0  0  0  0
 18 20  2  0  0  0  0
 18 34  1  0  0  0  0
 19 44  1  0  0  0  0
 20 35  1  0  0  0  0
 21 81  1  0  0  0  0
 22 82  1  0  0  0  0
 23 25  2  0  0  0  0
 23 81  1  0  0  0  0
 24 83  1  0  0  0  0
 25 84  1  0  0  0  0
 26 63  2  0  0  0  0
 27 64  1  0  0  0  0
 27 68  1  0  0  0  0
 28 69  1  0  0  0  0
 28 75  2  0  0  0  0
 29 45  1  0  0  0  0
 29 70  1  0  0  0  0
 29 76  2  0  0  0  0
 30 60  1  0  0  0  0
 30 65  1  0  0  0  0
 30 77  2  0  0  0  0
 31 61  1  0  0  0  0
 31 71  1  0  0  0  0
 31 78  2  0  0  0  0
 32 66  1  0  0  0  0
 32 67  1  0  0  0  0
 32 79  2  0  0  0  0
 33 36  1  0  0  0  0
 34 45  1  0  0  0  0
 35 65  1  0  0  0  0
 36 38  1  0  0  0  0
 37 39  1  0  0  0  0
 37 41  1  0  0  0  0
 38 44  1  0  0  0  0
 39 46  1  0  0  0  0
 40 47  1  0  0  0  0
 40 48  1  0  0  0  0
 41 66  1  0  0  0  0
 42 46  1  0  0  0  0
 42 66  1  0  0  0  0
 43 47  1  0  0  0  0
 43 67  1  0  0  0  0
 44 70  1  0  0  0  0
 45 65  1  0  0  0  0
 46 64  1  0  0  0  0
 47 72  1  0  0  0  0
 48 54  1  0  0  0  0
 48 67  1  0  0  0  0
 49 61  1  0  0  0  0
 50 62  1  0  0  0  0
 51 62  1  0  0  0  0
 52 62  1  0  0  0  0
 53 73  1  0  0  0  0
 54 80  1  0  0  0  0
 55 56  1  0  0  0  0
 55 57  1  0  0  0  0
 56 72  1  0  0  0  0
 57 74  1  0  0  0  0
 58 59  1  0  0  0  0
 58 74  1  0  0  0  0
 59 82  1  0  0  0  0
 60 62  1  0  0  0  0
 60 71  1  0  0  0  0
 61 73  1  0  0  0  0
 63 64  1  0  0  0  0
M  CHG  3  72   1  73   1  74   1
M  ISO  4  32 100  59 101  67 100  82 101
M  END
> <Batch ID>
0198

> <Smiles>
CNC(C)C(=O)NC(C(=O)N1Cc2cc([101O:1][101CH2:1]CNCCCNC3CC(CO)[100N:0]([100C:0](=O)N4CCCC(n5nc(-c6ccc(Oc7ccc(F)cc7F)cc6)c(C(N)=O)c5N)C4)C3)ccc2CC1C(=O)NC1CCCc2ccccc21)C(C)(C)C

> <Shape>
0.204

> <Color>
0.150

> <Negative vol penalty>
0.000

$$$$

  -OEChem-04052323483D

 84 94  0     1  0  0  0  0  0999 V2000
  -22.3288  -11.7250   22.9332 C   0  0  0  0  0  0  0  0  0  0  0  0
  -23.1360  -12.6290   23.6162 C   0  0  0  0  0  0  0  0  0  0  0  0
  -21.0386  -28.4774   21.4176 C   0  0  0  0  0  0  0  0  0  0  0  0
  -22.0091  -27.4726   23.3888 C   0  0  0  0  0  0  0  0  0  0  0  0
  -22.6506  -11.3522   21.6288 C   0  0  0  0  0  0  0  0  0  0  0  0
  -24.2663  -13.1599   22.9956 C   0  0  0  0  0  0  0  0  0  0  0  0
  -24.7066  -18.1547   23.7053 C   0  0  0  0  0  0  0  0  0  0  0  0
  -19.8285  -27.8385   21.6877 C   0  0  0  0  0  0  0  0  0  0  0  0
  -20.7989  -26.8338   23.6590 C   0  0  0  0  0  0  0  0  0  0  0  0
  -25.1929  -18.5819   24.9401 C   0  0  0  0  0  0  0  0  0  0  0  0
  -18.5042  -24.7514   21.3135 C   0  0  0  0  0  0  0  0  0  0  0  0
  -17.8483  -24.1309   20.2503 C   0  0  0  0  0  0  0  0  0  0  0  0
  -27.3752  -18.9018   23.9633 C   0  0  0  0  0  0  0  0  0  0  0  0
  -15.9338  -25.5638   20.5954 C   0  0  0  0  0  0  0  0  0  0  0  0
  -22.1290  -28.2944   22.2681 C   0  0  0  0  0  0  0  0  0  0  0  0
  -23.7887  -30.2244   22.4357 C   0  0  0  0  0  0  0  0  0  0  0  0
  -23.7800  -11.8862   20.9885 C   0  0  0  0  0  0  0  0  0  0  0  0
  -25.5551  -18.0873   22.5908 C   0  0  0  0  0  0  0  0  0  0  0  0
  -24.6042  -12.7929   21.6819 C   0  0  0  0  0  0  0  0  0  0  0  0
  -26.8967  -18.4759   22.7148 C   0  0  0  0  0  0  0  0  0  0  0  0
  -19.7086  -27.0168   22.8084 C   0  0  0  0  0  0  0  0  0  0  0  0
  -26.5281  -18.9528   25.0699 C   0  0  0  0  0  0  0  0  0  0  0  0
  -17.8749  -25.7780   22.0177 C   0  0  0  0  0  0  0  0  0  0  0  0
  -16.5631  -24.5371   19.8912 C   0  0  0  0  0  0  0  0  0  0  0  0
  -16.5898  -26.1842   21.6586 C   0  0  0  0  0  0  0  0  0  0  0  0
  -23.3795  -28.9535   21.9892 C   0  0  0  0  0  0  0  0  0  0  0  0
  -25.0438  -30.3880   21.9023 C   0  0  0  0  0  0  0  0  0  0  0  0
  -29.8492  -21.9051   26.0418 C   0  0  0  0  0  0  0  0  0  0  0  0
  -30.4675  -23.3456   24.6636 C   0  0  0  0  0  0  0  0  0  0  0  0
  -23.0963  -31.1721   23.2591 C   0  0  0  0  0  0  0  0  0  0  0  0
  -26.5709  -15.7570   20.6825 C   0  0  0  0  0  0  0  0  0  0  0  0
  -27.8950  -18.2156   19.0319 C   0  0  0  0  0  0  0  0  0  0  0  0
  -29.0723  -21.4187   19.0537 C   0  0  0  0  0  0  0  0  0  0  0  0
  -29.2640  -26.5395   20.1300 C   0  0  0  0  0  0  0  0  0  0  0  0
  -24.1138  -11.4170   19.5945 C   0  0  0  0  0  0  0  0  0  0  0  0
  -25.0087  -17.6498   21.2595 C   0  0  0  0  0  0  0  0  0  0  0  0
  -27.8438  -18.4410   21.5442 C   0  0  0  0  0  0  0  0  0  0  0  0
  -25.1199  -12.3118   18.8752 C   0  0  0  0  0  0  0  0  0  0  0  0
  -27.7255  -29.0662   18.1651 C   0  0  0  0  0  0  0  0  0  0  0  0
  -26.2934  -12.6404   19.7927 C   0  0  0  0  0  0  0  0  0  0  0  0
  -26.4763  -29.4432   18.9634 C   0  0  0  0  0  0  0  0  0  0  0  0
  -27.9558  -21.1663   27.6970 C   0  0  0  0  0  0  0  0  0  0  0  0
  -28.0217  -27.5706   18.2539 C   0  0  0  0  0  0  0  0  0  0  0  0
  -26.8640  -27.4127   20.4220 C   0  0  0  0  0  0  0  0  0  0  0  0
  -30.3143  -24.0089   22.2847 C   0  0  0  0  0  0  0  0  0  0  0  0
  -30.4278  -25.6028   23.6508 C   0  0  0  0  0  0  0  0  0  0  0  0
  -25.8248  -13.4095   21.0338 C   0  0  1  0  0  0  0  0  0  0  0  0
  -29.0137  -20.7863   26.6876 C   0  0  1  0  0  0  0  0  0  0  0  0
  -26.0864  -17.1304   20.3128 C   0  0  1  0  0  0  0  0  0  0  0  0
  -26.5556  -28.9198   20.4104 C   0  0  2  0  0  0  0  0  0  0  0  0
  -30.4226  -25.5311   22.1172 C   0  0  0  0  0  0  0  0  0  0  0  0
  -27.5449  -20.6891   26.3376 C   0  0  1  0  0  0  0  0  0  1  0  0
  -30.1269  -23.1401   17.5629 C   0  0  0  0  0  0  0  0  0  0  0  0
  -30.5601  -16.7417   19.2195 C   0  0  0  0  0  0  0  0  0  0  0  0
  -31.7057  -18.8766   18.5885 C   0  0  0  0  0  0  0  0  0  0  0  0
  -30.1091  -17.8034   17.0005 C   0  0  0  0  0  0  0  0  0  0  0  0
  -32.5016  -24.1134   25.9527 C   0  0  0  0  0  0  0  0  0  0  0  0
  -26.8113  -23.2923   19.4229 C   0  0  0  0  0  0  0  0  0  0  0  0
  -29.2176  -18.9423   19.0742 C   0  0  1  0  0  0  0  0  0  0  0  0
  -28.8233  -22.5898   18.1203 C   0  0  2  0  0  0  0  0  0  0  0  0
  -30.3810  -18.0899   18.4934 C   0  0  0  0  0  0  0  0  0  0  0  0
  -24.2999  -28.3526   21.2304 N   0  0  0  0  0  0  0  0  0  0  0  0
  -29.5166  -22.4576   24.8382 N   0  0  0  0  0  0  0  0  0  0  0  0
  -30.9461  -22.3955   26.6230 N   0  0  0  0  0  0  0  0  0  0  0  0
  -25.2999  -29.2498   21.1959 N   0  0  0  0  0  0  0  0  0  0  0  0
  -31.3221  -23.3150   25.7212 N   0  0  0  0  0  0  0  0  0  0  0  0
  -30.6740  -24.2065   23.6420 N   0  0  0  0  0  0  0  0  0  0  0  0
  -27.2636  -18.0000   20.2650 N   0  0  0  0  0  0  0  0  0  0  0  0
  -28.0892  -27.1423   19.6533 N   0  0  0  0  0  0  0  0  0  0  0  0
  -25.9422  -31.3932   21.9732 N   0  0  0  0  0  0  0  0  0  0  0  0
  -21.8147  -30.8443   23.7221 N   0  0  0  0  0  0  0  0  0  0  0  0
  -25.5773  -14.7970   20.7050 N   0  0  0  0  0  0  0  0  0  0  0  0
  -29.0074  -20.2127   18.3885 N   0  0  0  0  0  0  0  0  0  0  0  0
  -29.2570  -26.1678   21.4704 N   0  0  0  0  0  0  0  0  0  0  0  0
  -28.1205  -23.6876   18.8427 N   0  3  0  0  0  0  0  0  0  0  0  0
  -23.5925  -32.2838   23.5615 O   0  0  0  0  0  0  0  0  0  0  0  0
  -27.7586  -15.5810   20.9278 O   0  0  0  0  0  0  0  0  0  0  0  0
  -27.4356  -17.8588   17.9441 O   0  0  0  0  0  0  0  0  0  0  0  0
  -29.3051  -21.5600   20.2522 O   0  0  0  0  0  0  0  0  0  0  0  0
  -30.2567  -26.3498   19.4188 O   0  0  0  0  0  0  0  0  0  0  0  0
  -18.5278  -26.3934   23.0725 O   0  0  0  0  0  0  0  0  0  0  0  0
  -27.0054  -19.3696   26.2742 O   0  0  0  0  0  0  0  0  0  1  0  0
  -15.9339  -23.9423   18.8692 F   0  0  0  0  0  0  0  0  0  0  0  0
  -15.9806  -27.1706   22.3306 F   0  0  0  0  0  0  0  0  0  0  0  0
  1  2  1  0  0  0  0
  1  5  2  0  0  0  0
  2  6  2  0  0  0  0
  3  8  2  0  0  0  0
  3 15  1  0  0  0  0
  4  9  1  0  0  0  0
  4 15  2  0  0  0  0
  5 17  1  0  0  0  0
  6 19  1  0  0  0  0
  7 10  2  0  0  0  0
  7 18  1  0  0  0  0
  8 21  1  0  0  0  0
  9 21  2  0  0  0  0
 10 22  1  0  0  0  0
 11 12  2  0  0  0  0
 11 23  1  0  0  0  0
 12 24  1  0  0  0  0
 13 20  1  0  0  0  0
 13 22  2  0  0  0  0
 14 24  2  0  0  0  0
 14 25  1  0  0  0  0
 15 26  1  0  0  0  0
 16 26  1  0  0  0  0
 16 27  2  0  0  0  0
 16 30  1  0  0  0  0
 17 19  2  0  0  0  0
 17 35  1  0  0  0  0
 18 20  2  0  0  0  0
 18 36  1  0  0  0  0
 19 47  1  0  0  0  0
 20 37  1  0  0  0  0
 21 81  1  0  0  0  0
 22 82  1  0  0  0  0
 23 25  2  0  0  0  0
 23 81  1  0  0  0  0
 24 83  1  0  0  0  0
 25 84  1  0  0  0  0
 26 62  2  0  0  0  0
 27 65  1  0  0  0  0
 27 70  1  0  0  0  0
 28 48  1  0  0  0  0
 28 63  1  0  0  0  0
 28 64  2  0  0  0  0
 29 63  2  0  0  0  0
 29 66  1  0  0  0  0
 29 67  1  0  0  0  0
 30 71  1  0  0  0  0
 30 76  2  0  0  0  0
 31 49  1  0  0  0  0
 31 72  1  0  0  0  0
 31 77  2  0  0  0  0
 32 59  1  0  0  0  0
 32 68  1  0  0  0  0
 32 78  2  0  0  0  0
 33 60  1  0  0  0  0
 33 73  1  0  0  0  0
 33 79  2  0  0  0  0
 34 69  1  0  0  0  0
 34 74  1  0  0  0  0
 34 80  2  0  0  0  0
 35 38  1  0  0  0  0
 36 49  1  0  0  0  0
 37 68  1  0  0  0  0
 38 40  1  0  0  0  0
 39 41  1  0  0  0  0
 39 43  1  0  0  0  0
 40 47  1  0  0  0  0
 41 50  1  0  0  0  0
 42 48  1  0  0  0  0
 42 52  1  0  0  0  0
 43 69  1  0  0  0  0
 44 50  1  0  0  0  0
 44 69  1  0  0  0  0
 45 51  1  0  0  0  0
 45 67  1  0  0  0  0
 46 51  1  0  0  0  0
 46 67  1  0  0  0  0
 47 72  1  0  0  0  0
 48 52  1  0  0  0  0
 49 68  1  0  0  0  0
 50 65  1  0  0  0  0
 51 74  1  0  0  0  0
 52 82  1  0  0  0  0
 53 60  1  0  0  0  0
 54 61  1  0  0  0  0
 55 61  1  0  0  0  0
 56 61  1  0  0  0  0
 57 66  1  0  0  0  0
 58 75  1  0  0  0  0
 59 61  1  0  0  0  0
 59 73  1  0  0  0  0
 60 75  1  0  0  0  0
 62 65  1  0  0  0  0
 64 66  1  0  0  0  0
M  CHG  1  75   1
M  ISO  4  34 100  52 101  74 100  82 101
M  END
> <Batch ID>
0198

> <Smiles>
CNC(C)C(=O)NC(C(=O)N1Cc2cc([101O:1][101CH:1]3CC3c3nc(N4CC([100NH:0][100C:0](=O)N5CCCC(n6nc(-c7ccc(Oc8ccc(F)cc8F)cc7)c(C(N)=O)c6N)C5)C4)n(C)n3)ccc2CC1C(=O)NC1CCCc2ccccc21)C(C)(C)C

> <Shape>
0.236

> <Color>
0.066

> <Negative vol penalty>
0.000

$$$$

  -OEChem-04052323483D

 85 95  0     1  0  0  0  0  0999 V2000
  -16.5815  -29.5755   24.1098 C   0  0  0  0  0  0  0  0  0  0  0  0
  -17.6770  -29.9398   24.8861 C   0  0  0  0  0  0  0  0  0  0  0  0
  -24.8834  -15.0458   22.8426 C   0  0  0  0  0  0  0  0  0  0  0  0
  -26.4458  -16.3702   21.5613 C   0  0  0  0  0  0  0  0  0  0  0  0
  -16.7652  -28.7929   22.9706 C   0  0  0  0  0  0  0  0  0  0  0  0
  -18.9568  -29.5208   24.5242 C   0  0  0  0  0  0  0  0  0  0  0  0
  -24.1873  -32.6241   25.2430 C   0  0  0  0  0  0  0  0  0  0  0  0
  -25.1708  -13.9368   22.0469 C   0  0  0  0  0  0  0  0  0  0  0  0
  -26.7333  -15.2612   20.7656 C   0  0  0  0  0  0  0  0  0  0  0  0
  -25.1892  -32.5623   26.2105 C   0  0  0  0  0  0  0  0  0  0  0  0
  -28.6044  -12.4559   20.9879 C   0  0  0  0  0  0  0  0  0  0  0  0
  -29.9447  -12.1935   20.7045 C   0  0  0  0  0  0  0  0  0  0  0  0
  -26.4676  -31.0955   24.7845 C   0  0  0  0  0  0  0  0  0  0  0  0
  -29.4900  -12.4224   18.3427 C   0  0  0  0  0  0  0  0  0  0  0  0
  -25.5208  -16.2625   22.5998 C   0  0  0  0  0  0  0  0  0  0  0  0
  -25.8725  -17.7936   24.6096 C   0  0  0  0  0  0  0  0  0  0  0  0
  -18.0490  -28.3721   22.5892 C   0  0  0  0  0  0  0  0  0  0  0  0
  -24.3133  -31.9120   24.0415 C   0  0  0  0  0  0  0  0  0  0  0  0
  -19.1577  -28.7307   23.3796 C   0  0  0  0  0  0  0  0  0  0  0  0
  -25.4670  -31.1519   23.8023 C   0  0  0  0  0  0  0  0  0  0  0  0
  -26.0958  -14.0445   21.0084 C   0  0  0  0  0  0  0  0  0  0  0  0
  -26.3283  -31.7957   25.9826 C   0  0  0  0  0  0  0  0  0  0  0  0
  -27.7069  -12.7014   19.9488 C   0  0  0  0  0  0  0  0  0  0  0  0
  -30.3875  -12.1768   19.3819 C   0  0  0  0  0  0  0  0  0  0  0  0
  -28.1497  -12.6847   18.6262 C   0  0  0  0  0  0  0  0  0  0  0  0
  -25.2239  -17.4086   23.4210 C   0  0  0  0  0  0  0  0  0  0  0  0
  -25.2228  -18.9391   24.9998 C   0  0  0  0  0  0  0  0  0  0  0  0
  -26.9648  -17.1716   25.2994 C   0  0  0  0  0  0  0  0  0  0  0  0
  -22.6759  -29.5791   22.6343 C   0  0  0  0  0  0  0  0  0  0  0  0
  -24.7299  -30.1422   20.1877 C   0  0  0  0  0  0  0  0  0  0  0  0
  -27.7569  -31.3402   19.1635 C   0  0  0  0  0  0  0  0  0  0  0  0
  -23.0823  -23.9441   23.6775 C   0  0  0  0  0  0  0  0  0  0  0  0
  -18.1925  -27.4878   21.3759 C   0  0  0  0  0  0  0  0  0  0  0  0
  -23.2358  -32.0104   22.9967 C   0  0  0  0  0  0  0  0  0  0  0  0
  -25.6598  -30.3851   22.5204 C   0  0  0  0  0  0  0  0  0  0  0  0
  -19.6240  -27.3984   20.8532 C   0  0  0  0  0  0  0  0  0  0  0  0
  -20.9483  -21.0532   23.3137 C   0  0  0  0  0  0  0  0  0  0  0  0
  -20.5978  -27.1575   22.0023 C   0  0  0  0  0  0  0  0  0  0  0  0
  -28.8653  -32.7071   29.3780 C   0  0  0  0  0  0  0  0  0  0  0  0
  -29.5150  -31.7656   30.3533 C   0  0  0  0  0  0  0  0  0  0  0  0
  -21.9259  -19.8785   23.3812 C   0  0  0  0  0  0  0  0  0  0  0  0
  -28.8227  -26.4967   28.5725 C   0  0  0  0  0  0  0  0  0  0  0  0
  -21.5737  -22.2792   22.6502 C   0  0  0  0  0  0  0  0  0  0  0  0
  -25.2049  -23.5043   25.1478 C   0  0  0  0  0  0  0  0  0  0  0  0
  -24.7910  -25.5422   24.6990 C   0  0  0  0  0  0  0  0  0  0  0  0
  -23.8287  -21.5323   23.2922 C   0  0  0  0  0  0  0  0  0  0  0  0
  -20.5644  -28.3164   23.0060 C   0  0  1  0  0  0  0  0  0  0  0  0
  -23.2357  -30.8337   22.0258 C   0  0  1  0  0  0  0  0  0  0  0  0
  -29.4505  -31.4094   28.8940 C   0  0  0  0  0  0  0  0  0  0  0  0
  -25.4046  -24.8256   25.9139 C   0  0  0  0  0  0  0  0  0  0  0  0
  -23.2628  -20.3026   24.0179 C   0  0  2  0  0  0  0  0  0  0  0  0
  -28.3109  -27.9116   28.5117 C   0  0  2  0  0  0  0  0  0  0  0  0
  -28.1921  -27.0117   27.3099 C   0  0  2  0  0  0  0  0  0  0  0  0
  -29.1677  -31.6302   17.1085 C   0  0  0  0  0  0  0  0  0  0  0  0
  -25.4007  -27.1660   20.2311 C   0  0  0  0  0  0  0  0  0  0  0  0
  -27.4376  -27.6763   18.8677 C   0  0  0  0  0  0  0  0  0  0  0  0
  -25.1695  -28.1500   17.9436 C   0  0  0  0  0  0  0  0  0  0  0  0
  -27.8009  -34.2837   19.4679 C   0  0  0  0  0  0  0  0  0  0  0  0
  -26.8313  -25.1955   26.2667 C   0  0  0  0  0  0  0  0  0  0  0  0
  -28.0712  -30.5288   26.9891 C   0  0  0  0  0  0  0  0  0  1  0  0
  -26.0870  -29.6152   19.7883 C   0  0  1  0  0  0  0  0  0  0  0  0
  -28.1396  -32.2716   18.0274 C   0  0  2  0  0  0  0  0  0  0  0  0
  -28.5484  -30.2983   28.4239 C   0  0  1  0  0  0  0  0  0  0  0  0
  -26.0195  -28.1647   19.2327 C   0  0  0  0  0  0  0  0  0  0  0  0
  -24.2377  -18.2417   23.0786 N   0  0  0  0  0  0  0  0  0  0  0  0
  -24.2617  -19.1617   24.0580 N   0  0  0  0  0  0  0  0  0  0  0  0
  -24.5753  -30.5080   21.5323 N   0  0  0  0  0  0  0  0  0  0  0  0
  -22.8467  -22.6228   23.2889 N   0  0  0  0  0  0  0  0  0  0  0  0
  -24.2699  -24.2358   24.3063 N   0  0  0  0  0  0  0  0  0  0  0  0
  -25.3855  -19.7676   26.0532 N   0  0  0  0  0  0  0  0  0  0  0  0
  -27.5148  -16.0003   24.7609 N   0  0  0  0  0  0  0  0  0  0  0  0
  -21.3072  -29.4487   22.4955 N   0  0  0  0  0  0  0  0  0  0  0  0
  -26.6437  -30.5876   18.8540 N   0  0  0  0  0  0  0  0  0  0  0  0
  -29.2567  -29.0312   28.4942 N   0  0  0  0  0  0  0  0  0  0  0  0
  -26.8364  -26.5049   26.9581 N   0  3  0  0  0  0  0  0  0  0  0  0
  -28.7147  -33.5365   18.5660 N   0  3  0  0  0  0  0  0  0  0  0  0
  -27.4282  -17.6314   26.3705 O   0  0  0  0  0  0  0  0  0  0  0  0
  -23.4300  -28.7874   23.1875 O   0  0  0  0  0  0  0  0  0  0  0  0
  -23.8419  -30.2330   19.3363 O   0  0  0  0  0  0  0  0  0  0  0  0
  -28.3850  -31.2832   20.2183 O   0  0  0  0  0  0  0  0  0  0  0  0
  -22.2429  -24.8363   23.4968 O   0  0  0  0  0  0  0  0  0  0  0  0
  -26.3767  -12.9626   20.2319 O   0  0  0  0  0  0  0  0  0  0  0  0
  -27.3137  -31.7327   26.9317 O   0  0  0  0  0  0  0  0  0  1  0  0
  -31.6749  -11.9263   19.1099 F   0  0  0  0  0  0  0  0  0  0  0  0
  -27.2923  -12.9211   17.6237 F   0  0  0  0  0  0  0  0  0  0  0  0
  1  2  1  0  0  0  0
  1  5  2  0  0  0  0
  2  6  2  0  0  0  0
  3  8  2  0  0  0  0
  3 15  1  0  0  0  0
  4  9  1  0  0  0  0
  4 15  2  0  0  0  0
  5 17  1  0  0  0  0
  6 19  1  0  0  0  0
  7 10  2  0  0  0  0
  7 18  1  0  0  0  0
  8 21  1  0  0  0  0
  9 21  2  0  0  0  0
 10 22  1  0  0  0  0
 11 12  2  0  0  0  0
 11 23  1  0  0  0  0
 12 24  1  0  0  0  0
 13 20  1  0  0  0  0
 13 22  2  0  0  0  0
 14 24  2  0  0  0  0
 14 25  1  0  0  0  0
 15 26  1  0  0  0  0
 16 26  1  0  0  0  0
 16 27  2  0  0  0  0
 16 28  1  0  0  0  0
 17 19  2  0  0  0  0
 17 33  1  0  0  0  0
 18 20  2  0  0  0  0
 18 34  1  0  0  0  0
 19 47  1  0  0  0  0
 20 35  1  0  0  0  0
 21 82  1  0  0  0  0
 22 83  1  0  0  0  0
 23 25  2  0  0  0  0
 23 82  1  0  0  0  0
 24 84  1  0  0  0  0
 25 85  1  0  0  0  0
 26 65  2  0  0  0  0
 27 66  1  0  0  0  0
 27 70  1  0  0  0  0
 28 71  1  0  0  0  0
 28 77  2  0  0  0  0
 29 48  1  0  0  0  0
 29 72  1  0  0  0  0
 29 78  2  0  0  0  0
 30 61  1  0  0  0  0
 30 67  1  0  0  0  0
 30 79  2  0  0  0  0
 31 62  1  0  0  0  0
 31 73  1  0  0  0  0
 31 80  2  0  0  0  0
 32 68  1  0  0  0  0
 32 69  1  0  0  0  0
 32 81  2  0  0  0  0
 33 36  1  0  0  0  0
 34 48  1  0  0  0  0
 35 67  1  0  0  0  0
 36 38  1  0  0  0  0
 37 41  1  0  0  0  0
 37 43  1  0  0  0  0
 38 47  1  0  0  0  0
 39 40  1  0  0  0  0
 39 49  1  0  0  0  0
 40 49  1  0  0  0  0
 41 51  1  0  0  0  0
 42 52  1  0  0  0  0
 42 53  1  0  0  0  0
 43 68  1  0  0  0  0
 44 50  1  0  0  0  0
 44 69  1  0  0  0  0
 45 50  1  0  0  0  0
 45 69  1  0  0  0  0
 46 51  1  0  0  0  0
 46 68  1  0  0  0  0
 47 72  1  0  0  0  0
 48 67  1  0  0  0  0
 49 63  1  0  0  0  0
 50 59  1  0  0  0  0
 51 66  1  0  0  0  0
 52 53  1  0  0  0  0
 52 74  1  0  0  0  0
 53 75  1  0  0  0  0
 54 62  1  0  0  0  0
 55 64  1  0  0  0  0
 56 64  1  0  0  0  0
 57 64  1  0  0  0  0
 58 76  1  0  0  0  0
 59 75  1  0  0  0  0
 60 63  1  0  0  0  0
 60 83  1  0  0  0  0
 61 64  1  0  0  0  0
 61 73  1  0  0  0  0
 62 76  1  0  0  0  0
 63 74  1  0  0  0  0
 65 66  1  0  0  0  0
M  CHG  2  75   1  76   1
M  ISO  4  32 100  60 101  69 100  83 101
M  END
> <Batch ID>
0198

> <Smiles>
CNC(C)C(=O)NC(C(=O)N1Cc2cc([101O:1][101CH2:1]C(NC3CC3NCC3C[100N:0]([100C:0](=O)N4CCCC(n5nc(-c6ccc(Oc7ccc(F)cc7F)cc6)c(C(N)=O)c5N)C4)C3)C3CC3)ccc2CC1C(=O)NC1CCCc2ccccc21)C(C)(C)C

> <Shape>
0.235

> <Color>
0.089

> <Negative vol penalty>
0.000

$$$$

  -OEChem-04052323483D

 87 97  0     1  0  0  0  0  0999 V2000
  -18.1638  -27.4573   22.9778 C   0  0  0  0  0  0  0  0  0  0  0  0
  -19.0199  -26.3615   22.9385 C   0  0  0  0  0  0  0  0  0  0  0  0
  -23.0421   -9.9921   19.9113 C   0  0  0  0  0  0  0  0  0  0  0  0
  -23.9774   -9.7605   22.1269 C   0  0  0  0  0  0  0  0  0  0  0  0
  -18.5609  -28.6711   22.4183 C   0  0  0  0  0  0  0  0  0  0  0  0
  -20.2734  -26.4785   22.3388 C   0  0  0  0  0  0  0  0  0  0  0  0
  -25.4499  -23.6915   24.0542 C   0  0  0  0  0  0  0  0  0  0  0  0
  -22.3220   -8.8112   20.0919 C   0  0  0  0  0  0  0  0  0  0  0  0
  -23.2573   -8.5796   22.3075 C   0  0  0  0  0  0  0  0  0  0  0  0
  -26.0983  -22.5483   23.5890 C   0  0  0  0  0  0  0  0  0  0  0  0
  -20.0871   -7.6887   23.0667 C   0  0  0  0  0  0  0  0  0  0  0  0
  -19.4233   -7.5156   24.2811 C   0  0  0  0  0  0  0  0  0  0  0  0
  -27.5129  -23.9231   22.2003 C   0  0  0  0  0  0  0  0  0  0  0  0
  -20.7217   -5.5230   24.7067 C   0  0  0  0  0  0  0  0  0  0  0  0
  -23.8699  -10.4667   20.9288 C   0  0  0  0  0  0  0  0  0  0  0  0
  -24.1966  -12.9935   21.0559 C   0  0  0  0  0  0  0  0  0  0  0  0
  -19.8237  -28.8057   21.8200 C   0  0  0  0  0  0  0  0  0  0  0  0
  -25.8214  -24.9604   23.5870 C   0  0  0  0  0  0  0  0  0  0  0  0
  -20.6872  -27.6948   21.7696 C   0  0  0  0  0  0  0  0  0  0  0  0
  -26.8693  -25.0810   22.6631 C   0  0  0  0  0  0  0  0  0  0  0  0
  -22.4296   -8.1050   21.2899 C   0  0  0  0  0  0  0  0  0  0  0  0
  -27.1280  -22.6638   22.6597 C   0  0  0  0  0  0  0  0  0  0  0  0
  -21.0682   -6.7790   22.6722 C   0  0  0  0  0  0  0  0  0  0  0  0
  -19.7405   -6.4327   25.1012 C   0  0  0  0  0  0  0  0  0  0  0  0
  -21.3855   -5.6962   23.4922 C   0  0  0  0  0  0  0  0  0  0  0  0
  -24.6144  -11.6862   20.7427 C   0  0  0  0  0  0  0  0  0  0  0  0
  -25.2559  -13.7888   20.6928 C   0  0  0  0  0  0  0  0  0  0  0  0
  -31.9713  -17.2939   20.8111 C   0  0  0  0  0  0  0  0  0  0  0  0
  -32.5750  -16.2010   20.3449 C   0  0  0  0  0  0  0  0  0  0  0  0
  -32.7488  -18.5354   20.7339 C   0  0  0  0  0  0  0  0  0  0  0  0
  -33.9542  -16.2837   19.7894 C   0  0  0  0  0  0  0  0  0  0  0  0
  -22.9614  -13.4484   21.6244 C   0  0  0  0  0  0  0  0  0  0  0  0
  -24.3525  -27.2795   21.9845 C   0  0  0  0  0  0  0  0  0  0  0  0
  -27.1006  -28.8978   22.5774 C   0  0  0  0  0  0  0  0  0  0  0  0
  -30.4367  -28.7800   23.2866 C   0  0  0  0  0  0  0  0  0  0  0  0
  -30.6789  -14.7672   20.8503 C   0  0  0  0  0  0  0  0  0  0  0  0
  -20.1900  -30.1246   21.1866 C   0  0  0  0  0  0  0  0  0  0  0  0
  -25.1300  -26.1858   24.1188 C   0  0  0  0  0  0  0  0  0  0  0  0
  -27.3198  -26.4217   22.1454 C   0  0  0  0  0  0  0  0  0  0  0  0
  -21.6827  -30.2700   20.9023 C   0  0  0  0  0  0  0  0  0  0  0  0
  -29.4044  -12.7526   18.0261 C   0  0  0  0  0  0  0  0  0  0  0  0
  -22.2243  -29.0096   20.2353 C   0  0  0  0  0  0  0  0  0  0  0  0
  -28.0240  -12.3613   18.5448 C   0  0  0  0  0  0  0  0  0  0  0  0
  -36.9929  -18.2729   20.0784 C   0  0  0  0  0  0  0  0  0  0  0  0
  -37.0073  -16.8031   19.7814 C   0  0  0  0  0  0  0  0  0  0  0  0
  -32.7598  -20.5664   22.3023 C   0  0  0  0  0  0  0  0  0  0  0  0
  -30.4330  -12.8533   19.1518 C   0  0  0  0  0  0  0  0  0  0  0  0
  -28.6346  -13.3717   20.7765 C   0  0  0  0  0  0  0  0  0  0  0  0
  -22.0646  -27.7892   21.1499 C   0  0  1  0  0  0  0  0  0  0  0  0
  -32.0764  -19.7338   21.2484 C   0  0  2  0  0  0  0  0  0  0  0  0
  -25.2459  -27.3887   23.1876 C   0  0  1  0  0  0  0  0  0  0  0  0
  -27.5762  -13.3133   19.6642 C   0  0  2  0  0  0  0  0  0  0  0  0
  -35.8849  -17.6612   19.2655 C   0  0  0  0  0  0  0  0  0  0  0  0
  -31.5628  -19.7370   22.6654 C   0  0  2  0  0  0  0  0  0  0  0  0
  -32.4214  -30.2655   23.6763 C   0  0  0  0  0  0  0  0  0  0  0  0
  -27.2833  -29.4360   19.5796 C   0  0  0  0  0  0  0  0  0  0  0  0
  -29.6853  -30.0607   19.9089 C   0  0  0  0  0  0  0  0  0  0  0  0
  -27.8900  -31.3825   21.0279 C   0  0  0  0  0  0  0  0  0  0  0  0
  -30.8201  -27.7429   26.0318 C   0  0  0  0  0  0  0  0  0  0  0  0
  -29.0702  -19.6113   22.7648 C   0  0  0  0  0  0  0  0  0  0  0  0
  -27.8425  -20.4374   23.0941 C   0  0  0  0  0  0  0  0  0  1  0  0
  -28.4222  -29.0572   21.8655 C   0  0  1  0  0  0  0  0  0  0  0  0
  -31.2724  -29.5083   24.3237 C   0  0  2  0  0  0  0  0  0  0  0  0
  -28.3107  -29.9586   20.6036 C   0  0  0  0  0  0  0  0  0  0  0  0
  -25.8432  -11.6488   20.2206 N   0  0  0  0  0  0  0  0  0  0  0  0
  -33.9423  -18.6694   20.2666 N   0  0  0  0  0  0  0  0  0  0  0  0
  -26.2066  -12.9425   20.2028 N   0  0  0  0  0  0  0  0  0  0  0  0
  -34.5477  -17.5415   19.7935 N   0  0  0  0  0  0  0  0  0  0  0  0
  -26.6086  -27.5897   22.6908 N   0  0  0  0  0  0  0  0  0  0  0  0
  -29.9585  -13.7186   20.2438 N   0  0  0  0  0  0  0  0  0  0  0  0
  -25.4574  -15.1225   20.7478 N   0  0  0  0  0  0  0  0  0  0  0  0
  -21.9804  -12.4979   21.9384 N   0  0  0  0  0  0  0  0  0  0  0  0
  -31.9640  -14.9786   20.3580 N   0  0  0  0  0  0  0  0  0  0  0  0
  -23.0835  -27.7910   22.1777 N   0  0  0  0  0  0  0  0  0  0  0  0
  -29.3681  -29.5424   22.8647 N   0  0  0  0  0  0  0  0  0  0  0  0
  -30.2842  -20.4493   22.9333 N   0  3  0  0  0  0  0  0  0  0  0  0
  -31.8406  -28.5401   25.3039 N   0  3  0  0  0  0  0  0  0  0  0  0
  -34.5035  -15.2683   19.3598 O   0  0  0  0  0  0  0  0  0  0  0  0
  -22.7280  -14.6632   21.8322 O   0  0  0  0  0  0  0  0  0  0  0  0
  -24.7831  -26.7702   20.9564 O   0  0  0  0  0  0  0  0  0  0  0  0
  -26.5293  -29.8962   23.0230 O   0  0  0  0  0  0  0  0  0  0  0  0
  -30.7072  -27.6494   22.8876 O   0  0  0  0  0  0  0  0  0  0  0  0
  -30.2078  -15.4509   21.7664 O   0  0  0  0  0  0  0  0  0  0  0  0
  -21.7269   -6.9528   21.4666 O   0  0  0  0  0  0  0  0  0  0  0  0
  -27.7621  -21.5495   22.2035 O   0  0  0  0  0  0  0  0  0  1  0  0
  -19.1041   -6.2674   26.2681 F   0  0  0  0  0  0  0  0  0  0  0  0
  -22.3280   -4.8196   23.1192 F   0  0  0  0  0  0  0  0  0  0  0  0
  1  2  1  0  0  0  0
  1  5  2  0  0  0  0
  2  6  2  0  0  0  0
  3  8  2  0  0  0  0
  3 15  1  0  0  0  0
  4  9  1  0  0  0  0
  4 15  2  0  0  0  0
  5 17  1  0  0  0  0
  6 19  1  0  0  0  0
  7 10  2  0  0  0  0
  7 18  1  0  0  0  0
  8 21  1  0  0  0  0
  9 21  2  0  0  0  0
 10 22  1  0  0  0  0
 11 12  2  0  0  0  0
 11 23  1  0  0  0  0
 12 24  1  0  0  0  0
 13 20  1  0  0  0  0
 13 22  2  0  0  0  0
 14 24  2  0  0  0  0
 14 25  1  0  0  0  0
 15 26  1  0  0  0  0
 16 26  1  0  0  0  0
 16 27  2  0  0  0  0
 16 32  1  0  0  0  0
 17 19  2  0  0  0  0
 17 37  1  0  0  0  0
 18 20  2  0  0  0  0
 18 38  1  0  0  0  0
 19 49  1  0  0  0  0
 20 39  1  0  0  0  0
 21 84  1  0  0  0  0
 22 85  1  0  0  0  0
 23 25  2  0  0  0  0
 23 84  1  0  0  0  0
 24 86  1  0  0  0  0
 25 87  1  0  0  0  0
 26 65  2  0  0  0  0
 27 67  1  0  0  0  0
 27 71  1  0  0  0  0
 28 29  2  0  0  0  0
 28 30  1  0  0  0  0
 29 31  1  0  0  0  0
 29 73  1  0  0  0  0
 30 50  1  0  0  0  0
 30 66  2  0  0  0  0
 31 68  1  0  0  0  0
 31 78  2  0  0  0  0
 32 72  1  0  0  0  0
 32 79  2  0  0  0  0
 33 51  1  0  0  0  0
 33 74  1  0  0  0  0
 33 80  2  0  0  0  0
 34 62  1  0  0  0  0
 34 69  1  0  0  0  0
 34 81  2  0  0  0  0
 35 63  1  0  0  0  0
 35 75  1  0  0  0  0
 35 82  2  0  0  0  0
 36 70  1  0  0  0  0
 36 73  1  0  0  0  0
 36 83  2  0  0  0  0
 37 40  1  0  0  0  0
 38 51  1  0  0  0  0
 39 69  1  0  0  0  0
 40 42  1  0  0  0  0
 41 43  1  0  0  0  0
 41 47  1  0  0  0  0
 42 49  1  0  0  0  0
 43 52  1  0  0  0  0
 44 45  1  0  0  0  0
 44 53  1  0  0  0  0
 45 53  1  0  0  0  0
 46 50  1  0  0  0  0
 46 54  1  0  0  0  0
 47 70  1  0  0  0  0
 48 52  1  0  0  0  0
 48 70  1  0  0  0  0
 49 74  1  0  0  0  0
 50 54  1  0  0  0  0
 51 69  1  0  0  0  0
 52 67  1  0  0  0  0
 53 68  1  0  0  0  0
 54 76  1  0  0  0  0
 55 63  1  0  0  0  0
 56 64  1  0  0  0  0
 57 64  1  0  0  0  0
 58 64  1  0  0  0  0
 59 77  1  0  0  0  0
 60 61  1  0  0  0  0
 60 76  1  0  0  0  0
 61 85  1  0  0  0  0
 62 64  1  0  0  0  0
 62 75  1  0  0  0  0
 63 77  1  0  0  0  0
 65 67  1  0  0  0  0
 66 68  1  0  0  0  0
M  CHG  2  76   1  77   1
M  ISO  4  36 100  61 101  73 100  85 101
M  END
> <Batch ID>
0198

> <Smiles>
CNC(C)C(=O)NC(C(=O)N1Cc2cc([101O:1][101CH2:1]CNC3CC3c3cc([100NH:0][100C:0](=O)N4CCCC(n5nc(-c6ccc(Oc7ccc(F)cc7F)cc6)c(C(N)=O)c5N)C4)c(=O)n(C4CC4)n3)ccc2CC1C(=O)NC1CCCc2ccccc21)C(C)(C)C

> <Shape>
0.254

> <Color>
0.174

> <Negative vol penalty>
0.000

$$$$

  -OEChem-04052323483D

 84 93  0     1  0  0  0  0  0999 V2000
  -29.9572  -35.2402   22.5601 C   0  0  0  0  0  0  0  0  0  0  0  0
  -29.7177  -33.8987   22.8401 C   0  0  0  0  0  0  0  0  0  0  0  0
  -23.9479   -9.3214   22.1670 C   0  0  0  0  0  0  0  0  0  0  0  0
  -24.7981   -8.5251   20.0504 C   0  0  0  0  0  0  0  0  0  0  0  0
  -28.9534  -36.1848   22.7695 C   0  0  0  0  0  0  0  0  0  0  0  0
  -28.4744  -33.5012   23.3307 C   0  0  0  0  0  0  0  0  0  0  0  0
  -26.7189  -29.3432   21.0341 C   0  0  0  0  0  0  0  0  0  0  0  0
  -22.9750   -8.3220   22.1523 C   0  0  0  0  0  0  0  0  0  0  0  0
  -23.8253   -7.5256   20.0357 C   0  0  0  0  0  0  0  0  0  0  0  0
  -27.2584  -28.1205   21.4313 C   0  0  0  0  0  0  0  0  0  0  0  0
  -22.7951   -5.0110   22.8143 C   0  0  0  0  0  0  0  0  0  0  0  0
  -22.5823   -4.2961   23.9930 C   0  0  0  0  0  0  0  0  0  0  0  0
  -25.3238  -27.7236   22.8165 C   0  0  0  0  0  0  0  0  0  0  0  0
  -20.2835   -5.0386   24.0283 C   0  0  0  0  0  0  0  0  0  0  0  0
  -24.8594   -9.4230   21.1160 C   0  0  0  0  0  0  0  0  0  0  0  0
  -27.1578  -10.3754   21.6800 C   0  0  0  0  0  0  0  0  0  0  0  0
  -27.6940  -35.7974   23.2538 C   0  0  0  0  0  0  0  0  0  0  0  0
  -25.4806  -29.7709   21.5345 C   0  0  0  0  0  0  0  0  0  0  0  0
  -27.4532  -34.4417   23.5480 C   0  0  0  0  0  0  0  0  0  0  0  0
  -24.7695  -28.9509   22.4221 C   0  0  0  0  0  0  0  0  0  0  0  0
  -22.9137   -7.4240   21.0867 C   0  0  0  0  0  0  0  0  0  0  0  0
  -26.5623  -27.3118   22.3249 C   0  0  0  0  0  0  0  0  0  0  0  0
  -21.7521   -5.7398   22.2427 C   0  0  0  0  0  0  0  0  0  0  0  0
  -21.3265   -4.3099   24.5999 C   0  0  0  0  0  0  0  0  0  0  0  0
  -20.4963   -5.7536   22.8497 C   0  0  0  0  0  0  0  0  0  0  0  0
  -25.8642  -10.4556   21.1304 C   0  0  0  0  0  0  0  0  0  0  0  0
  -27.7111  -11.6088   21.4372 C   0  0  0  0  0  0  0  0  0  0  0  0
  -27.8017   -9.2835   22.3500 C   0  0  0  0  0  0  0  0  0  0  0  0
  -24.4976  -32.2408   23.2772 C   0  0  0  0  0  0  0  0  0  0  0  0
  -21.5602  -31.0197   22.6426 C   0  0  0  0  0  0  0  0  0  0  0  0
  -19.6707  -28.3041   21.8047 C   0  0  0  0  0  0  0  0  0  0  0  0
  -28.7011  -15.7030   17.8484 C   0  0  0  0  0  0  0  0  0  0  0  0
  -26.6556  -36.8610   23.5089 C   0  0  0  0  0  0  0  0  0  0  0  0
  -24.8999  -31.0803   21.0755 C   0  0  0  0  0  0  0  0  0  0  0  0
  -23.4271  -29.3550   22.9726 C   0  0  0  0  0  0  0  0  0  0  0  0
  -25.2435  -36.3060   23.6766 C   0  0  0  0  0  0  0  0  0  0  0  0
  -25.6035  -15.9035   19.8000 C   0  0  0  0  0  0  0  0  0  0  0  0
  -25.2498  -35.1069   24.6195 C   0  0  0  0  0  0  0  0  0  0  0  0
  -25.4981  -14.4805   20.3508 C   0  0  0  0  0  0  0  0  0  0  0  0
  -26.2188  -15.9044   18.4058 C   0  0  0  0  0  0  0  0  0  0  0  0
  -27.9673  -23.1267   19.7733 C   0  0  0  0  0  0  0  0  0  0  0  0
  -30.0721  -17.7995   17.3562 C   0  0  0  0  0  0  0  0  0  0  0  0
  -28.3955  -18.1904   18.6057 C   0  0  0  0  0  0  0  0  0  0  0  0
  -27.4577  -13.8282   18.8700 C   0  0  0  0  0  0  0  0  0  0  0  0
  -28.8142  -22.4259   18.7201 C   0  0  0  0  0  0  0  0  0  0  0  0
  -29.8635  -21.0978   20.5316 C   0  0  0  0  0  0  0  0  0  0  0  0
  -26.1095  -33.9680   24.0579 C   0  0  1  0  0  0  0  0  0  0  0  0
  -23.8702  -31.6502   22.0462 C   0  0  1  0  0  0  0  0  0  0  0  0
  -29.8156  -18.7802   18.5134 C   0  0  0  0  0  0  0  0  0  0  0  0
  -26.8546  -13.7550   20.2850 C   0  0  2  0  0  0  0  0  0  0  0  0
  -28.9923  -21.8366   21.5603 C   0  0  1  0  0  0  0  0  0  0  0  0
  -29.7563  -21.8619   22.8914 C   0  0  0  0  0  0  0  0  0  0  0  0
  -17.2945  -27.6077   21.3968 C   0  0  0  0  0  0  0  0  0  0  0  0
  -21.0424  -31.0337   25.6496 C   0  0  0  0  0  0  0  0  0  0  0  0
  -19.1123  -29.4889   25.2540 C   0  0  0  0  0  0  0  0  0  0  0  0
  -19.1039  -31.7742   24.2538 C   0  0  0  0  0  0  0  0  0  0  0  0
  -20.2563  -27.5263   19.0099 C   0  0  0  0  0  0  0  0  0  0  0  0
  -29.9169  -20.2557   18.1834 C   0  0  0  0  0  0  0  0  0  0  0  0
  -27.8267  -23.9424   22.0207 C   0  0  0  0  0  0  0  0  0  0  0  0
  -27.9271  -25.4413   21.7824 C   0  0  0  0  0  0  0  0  0  1  0  0
  -20.6536  -30.0137   23.3098 C   0  0  1  0  0  0  0  0  0  0  0  0
  -18.5804  -28.1177   20.7649 C   0  0  2  0  0  0  0  0  0  0  0  0
  -20.0042  -30.5706   24.6081 C   0  0  0  0  0  0  0  0  0  0  0  0
  -25.6107  -11.6460   20.5801 N   0  0  0  0  0  0  0  0  0  0  0  0
  -26.7525  -12.3251   20.7828 N   0  0  0  0  0  0  0  0  0  0  0  0
  -22.9041  -30.6471   22.4987 N   0  0  0  0  0  0  0  0  0  0  0  0
  -27.5146  -15.2182   18.4055 N   0  0  0  0  0  0  0  0  0  0  0  0
  -28.9103  -17.0619   17.8447 N   0  0  0  0  0  0  0  0  0  0  0  0
  -28.6564  -23.1932   21.0730 N   0  0  2  0  0  0  0  0  0  0  0  0
  -28.9192  -12.1398   21.7219 N   0  0  0  0  0  0  0  0  0  0  0  0
  -27.0898   -8.0875   22.5148 N   0  0  0  0  0  0  0  0  0  0  0  0
  -25.3939  -33.2601   23.0181 N   0  0  0  0  0  0  0  0  0  0  0  0
  -19.6940  -29.5927   22.2948 N   0  0  0  0  0  0  0  0  0  0  0  0
  -29.1490  -21.0432   19.2070 N   0  3  2  0  0  0  0  0  0  0  0  0
  -19.0150  -27.1391   19.7284 N   0  3  0  0  0  0  0  0  0  0  0  0
  -28.9678   -9.3715   22.8039 O   0  0  0  0  0  0  0  0  0  0  0  0
  -24.1902  -31.8050   24.3805 O   0  0  0  0  0  0  0  0  0  0  0  0
  -21.0915  -32.0935   22.2568 O   0  0  0  0  0  0  0  0  0  0  0  0
  -20.4237  -27.3964   22.1504 O   0  0  0  0  0  0  0  0  0  0  0  0
  -29.5668  -14.9429   17.3944 O   0  0  0  0  0  0  0  0  0  0  0  0
  -21.9647   -6.4485   21.0721 O   0  0  0  0  0  0  0  0  0  0  0  0
  -27.0907  -26.1097   22.7175 O   0  0  0  0  0  0  0  0  0  1  0  0
  -21.1219   -3.6220   25.7310 F   0  0  0  0  0  0  0  0  0  0  0  0
  -19.4901   -6.4509   22.3046 F   0  0  0  0  0  0  0  0  0  0  0  0
  1  2  1  0  0  0  0
  1  5  2  0  0  0  0
  2  6  2  0  0  0  0
  3  8  2  0  0  0  0
  3 15  1  0  0  0  0
  4  9  1  0  0  0  0
  4 15  2  0  0  0  0
  5 17  1  0  0  0  0
  6 19  1  0  0  0  0
  7 10  2  0  0  0  0
  7 18  1  0  0  0  0
  8 21  1  0  0  0  0
  9 21  2  0  0  0  0
 10 22  1  0  0  0  0
 11 12  2  0  0  0  0
 11 23  1  0  0  0  0
 12 24  1  0  0  0  0
 13 20  1  0  0  0  0
 13 22  2  0  0  0  0
 14 24  2  0  0  0  0
 14 25  1  0  0  0  0
 15 26  1  0  0  0  0
 16 26  1  0  0  0  0
 16 27  2  0  0  0  0
 16 28  1  0  0  0  0
 17 19  2  0  0  0  0
 17 33  1  0  0  0  0
 18 20  2  0  0  0  0
 18 34  1  0  0  0  0
 19 47  1  0  0  0  0
 20 35  1  0  0  0  0
 21 81  1  0  0  0  0
 22 82  1  0  0  0  0
 23 25  2  0  0  0  0
 23 81  1  0  0  0  0
 24 83  1  0  0  0  0
 25 84  1  0  0  0  0
 26 64  2  0  0  0  0
 27 65  1  0  0  0  0
 27 70  1  0  0  0  0
 28 71  1  0  0  0  0
 28 76  2  0  0  0  0
 29 48  1  0  0  0  0
 29 72  1  0  0  0  0
 29 77  2  0  0  0  0
 30 61  1  0  0  0  0
 30 66  1  0  0  0  0
 30 78  2  0  0  0  0
 31 62  1  0  0  0  0
 31 73  1  0  0  0  0
 31 79  2  0  0  0  0
 32 67  1  0  0  0  0
 32 68  1  0  0  0  0
 32 80  2  0  0  0  0
 33 36  1  0  0  0  0
 34 48  1  0  0  0  0
 35 66  1  0  0  0  0
 36 38  1  0  0  0  0
 37 39  1  0  0  0  0
 37 40  1  0  0  0  0
 38 47  1  0  0  0  0
 39 50  1  0  0  0  0
 40 67  1  0  0  0  0
 41 45  1  0  0  0  0
 41 69  1  0  0  0  0
 42 49  1  0  0  0  0
 42 68  1  0  0  0  0
 43 49  1  0  0  0  0
 43 68  1  0  0  0  0
 44 50  1  0  0  0  0
 44 67  1  0  0  0  0
 45 74  1  0  0  0  0
 46 51  1  0  0  0  0
 46 74  1  0  0  0  0
 47 72  1  0  0  0  0
 48 66  1  0  0  0  0
 49 58  1  0  0  0  0
 50 65  1  0  0  0  0
 51 52  1  0  0  0  0
 51 69  1  0  0  0  0
 53 62  1  0  0  0  0
 54 63  1  0  0  0  0
 55 63  1  0  0  0  0
 56 63  1  0  0  0  0
 57 75  1  0  0  0  0
 58 74  1  0  0  0  0
 59 60  1  0  0  0  0
 59 69  1  0  0  0  0
 60 82  1  0  0  0  0
 61 63  1  0  0  0  0
 61 73  1  0  0  0  0
 62 75  1  0  0  0  0
 64 65  1  0  0  0  0
M  CHG  2  74   1  75   1
M  ISO  4  32 100  60 101  68 100  82 101
M  END
> <Batch ID>
0198

> <Smiles>
CNC(C)C(=O)NC(C(=O)N1Cc2cc([101O:1][101CH2:1]CN3CCN(CC4C[100N:0]([100C:0](=O)N5CCCC(n6nc(-c7ccc(Oc8ccc(F)cc8F)cc7)c(C(N)=O)c6N)C5)C4)CC3C)ccc2CC1C(=O)NC1CCCc2ccccc21)C(C)(C)C

> <Shape>
0.300

> <Color>
0.070

> <Negative vol penalty>
0.000

$$$$

  -OEChem-04052323483D

 84 93  0     1  0  0  0  0  0999 V2000
  -28.6152  -33.4131   24.8873 C   0  0  0  0  0  0  0  0  0  0  0  0
  -28.6261  -32.1079   24.4059 C   0  0  0  0  0  0  0  0  0  0  0  0
  -22.4327  -13.0716   18.7764 C   0  0  0  0  0  0  0  0  0  0  0  0
  -22.7226  -10.7574   19.4070 C   0  0  0  0  0  0  0  0  0  0  0  0
  -27.4135  -33.9991   25.2826 C   0  0  0  0  0  0  0  0  0  0  0  0
  -27.4352  -31.3875   24.3206 C   0  0  0  0  0  0  0  0  0  0  0  0
  -26.9805  -28.8984   19.9340 C   0  0  0  0  0  0  0  0  0  0  0  0
  -21.2824  -12.7333   18.0637 C   0  0  0  0  0  0  0  0  0  0  0  0
  -21.5722  -10.4191   18.6944 C   0  0  0  0  0  0  0  0  0  0  0  0
  -27.6996  -27.7118   19.7977 C   0  0  0  0  0  0  0  0  0  0  0  0
  -18.5105   -9.0019   17.3395 C   0  0  0  0  0  0  0  0  0  0  0  0
  -17.5979   -8.1418   17.9501 C   0  0  0  0  0  0  0  0  0  0  0  0
  -25.7032  -26.4520   20.2942 C   0  0  0  0  0  0  0  0  0  0  0  0
  -17.3118   -9.7250   19.7525 C   0  0  0  0  0  0  0  0  0  0  0  0
  -23.1529  -12.0836   19.4480 C   0  0  0  0  0  0  0  0  0  0  0  0
  -24.4230  -12.8112   21.5373 C   0  0  0  0  0  0  0  0  0  0  0  0
  -26.2059  -33.2889   25.1930 C   0  0  0  0  0  0  0  0  0  0  0  0
  -25.6175  -28.8709   20.2627 C   0  0  0  0  0  0  0  0  0  0  0  0
  -26.2163  -31.9641   24.7163 C   0  0  0  0  0  0  0  0  0  0  0  0
  -24.9685  -27.6395   20.4315 C   0  0  0  0  0  0  0  0  0  0  0  0
  -20.8521  -11.4071   18.0227 C   0  0  0  0  0  0  0  0  0  0  0  0
  -27.0617  -26.4884   19.9806 C   0  0  0  0  0  0  0  0  0  0  0  0
  -18.8239  -10.2235   17.9354 C   0  0  0  0  0  0  0  0  0  0  0  0
  -16.9985   -8.5033   19.1566 C   0  0  0  0  0  0  0  0  0  0  0  0
  -18.2245  -10.5851   19.1419 C   0  0  0  0  0  0  0  0  0  0  0  0
  -24.3415  -12.4324   20.1839 C   0  0  0  0  0  0  0  0  0  0  0  0
  -25.7610  -13.0361   21.7510 C   0  0  0  0  0  0  0  0  0  0  0  0
  -23.3822  -12.9475   22.5140 C   0  0  0  0  0  0  0  0  0  0  0  0
  -23.8745  -29.9439   22.6946 C   0  0  0  0  0  0  0  0  0  0  0  0
  -21.3981  -28.9445   20.8532 C   0  0  0  0  0  0  0  0  0  0  0  0
  -20.2819  -26.8957   18.3625 C   0  0  0  0  0  0  0  0  0  0  0  0
  -30.6269  -15.2044   20.1041 C   0  0  0  0  0  0  0  0  0  0  0  0
  -24.9385  -33.9480   25.6767 C   0  0  0  0  0  0  0  0  0  0  0  0
  -24.8498  -30.1591   20.3798 C   0  0  0  0  0  0  0  0  0  0  0  0
  -23.5022  -27.5552   20.7654 C   0  0  0  0  0  0  0  0  0  0  0  0
  -23.6681  -33.2466   25.2029 C   0  0  0  0  0  0  0  0  0  0  0  0
  -29.7880  -11.9887   18.9069 C   0  0  0  0  0  0  0  0  0  0  0  0
  -23.7833  -31.7391   25.4059 C   0  0  0  0  0  0  0  0  0  0  0  0
  -28.2980  -11.8518   19.2075 C   0  0  0  0  0  0  0  0  0  0  0  0
  -30.4800  -18.7308   21.2180 C   0  0  0  0  0  0  0  0  0  0  0  0
  -30.3689  -23.5839   17.7532 C   0  0  0  0  0  0  0  0  0  0  0  0
  -30.1251  -13.4115   18.4814 C   0  0  0  0  0  0  0  0  0  0  0  0
  -31.2073  -17.4017   21.0864 C   0  0  0  0  0  0  0  0  0  0  0  0
  -29.0627  -17.2374   20.0217 C   0  0  0  0  0  0  0  0  0  0  0  0
  -28.2580  -14.3207   19.8366 C   0  0  0  0  0  0  0  0  0  0  0  0
  -24.9417  -31.1589   24.5855 C   0  0  1  0  0  0  0  0  0  0  0  0
  -23.5850  -30.0263   21.2225 C   0  0  1  0  0  0  0  0  0  0  0  0
  -29.5074  -18.6998   20.0385 C   0  0  1  0  0  0  0  0  0  0  0  0
  -29.0528  -23.9652   18.3769 C   0  0  1  0  0  0  0  0  0  0  0  0
  -27.8587  -12.8897   20.2519 C   0  0  1  0  0  0  0  0  0  0  0  0
  -29.9586  -22.9827   19.0702 C   0  0  1  0  0  0  0  0  0  0  0  0
  -18.2005  -26.2783   17.1040 C   0  0  0  0  0  0  0  0  0  0  0  0
  -20.4307  -27.3261   23.2521 C   0  0  0  0  0  0  0  0  0  0  0  0
  -18.9580  -26.0307   21.6960 C   0  0  0  0  0  0  0  0  0  0  0  0
  -18.6187  -28.4860   21.9771 C   0  0  0  0  0  0  0  0  0  0  0  0
  -21.4445  -27.7642   15.7831 C   0  0  0  0  0  0  0  0  0  0  0  0
  -26.1795  -20.0688   19.3898 C   0  0  0  0  0  0  0  0  0  0  0  0
  -28.8599  -25.3305   18.9405 C   0  0  0  0  0  0  0  0  0  1  0  0
  -28.7837  -21.1414   20.2818 C   0  0  0  0  0  0  0  0  0  0  0  0
  -20.6342  -27.6516   20.6989 C   0  0  1  0  0  0  0  0  0  0  0  0
  -19.4304  -27.1721   17.1365 C   0  0  2  0  0  0  0  0  0  0  0  0
  -28.3561  -19.6785   20.1853 C   0  0  1  0  0  0  0  0  0  0  0  0
  -19.6885  -27.3749   21.9017 C   0  0  0  0  0  0  0  0  0  0  0  0
  -25.5329  -12.4166   19.5803 N   0  0  0  0  0  0  0  0  0  0  0  0
  -26.3756  -12.7883   20.5589 N   0  0  0  0  0  0  0  0  0  0  0  0
  -22.7963  -28.8424   20.8755 N   0  0  0  0  0  0  0  0  0  0  0  0
  -29.6781  -14.3950   19.4695 N   0  0  0  0  0  0  0  0  0  0  0  0
  -30.2457  -16.4959   20.4658 N   0  0  0  0  0  0  0  0  0  0  0  0
  -26.4599  -13.4198   22.8404 N   0  0  0  0  0  0  0  0  0  0  0  0
  -22.0627  -12.6774   22.1265 N   0  0  0  0  0  0  0  0  0  0  0  0
  -24.5626  -31.0329   23.1945 N   0  0  0  0  0  0  0  0  0  0  0  0
  -19.9547  -27.7301   19.4103 N   0  0  0  0  0  0  0  0  0  0  0  0
  -29.5465  -21.5528   19.0770 N   0  3  0  0  0  0  0  0  0  0  0  0
  -20.2181  -26.9332   15.8942 N   0  3  0  0  0  0  0  0  0  0  0  0
  -23.6135  -13.3142   23.6911 O   0  0  0  0  0  0  0  0  0  0  0  0
  -23.4999  -28.9654   23.3302 O   0  0  0  0  0  0  0  0  0  0  0  0
  -20.7773  -30.0066   20.9431 O   0  0  0  0  0  0  0  0  0  0  0  0
  -21.1480  -26.0241   18.3892 O   0  0  0  0  0  0  0  0  0  0  0  0
  -31.7825  -14.8056   20.3023 O   0  0  0  0  0  0  0  0  0  0  0  0
  -19.7296  -11.0767   17.3275 O   0  0  0  0  0  0  0  0  0  0  0  0
  -27.7666  -25.3202   19.8479 O   0  0  0  0  0  0  0  0  0  1  0  0
  -27.4585  -19.5352   19.0849 O   0  0  0  0  0  0  0  0  0  0  0  0
  -16.1210   -7.6779   19.7421 F   0  0  0  0  0  0  0  0  0  0  0  0
  -18.5206  -11.7579   19.7186 F   0  0  0  0  0  0  0  0  0  0  0  0
  1  2  1  0  0  0  0
  1  5  2  0  0  0  0
  2  6  2  0  0  0  0
  3  8  2  0  0  0  0
  3 15  1  0  0  0  0
  4  9  1  0  0  0  0
  4 15  2  0  0  0  0
  5 17  1  0  0  0  0
  6 19  1  0  0  0  0
  7 10  2  0  0  0  0
  7 18  1  0  0  0  0
  8 21  1  0  0  0  0
  9 21  2  0  0  0  0
 10 22  1  0  0  0  0
 11 12  2  0  0  0  0
 11 23  1  0  0  0  0
 12 24  1  0  0  0  0
 13 20  1  0  0  0  0
 13 22  2  0  0  0  0
 14 24  2  0  0  0  0
 14 25  1  0  0  0  0
 15 26  1  0  0  0  0
 16 26  1  0  0  0  0
 16 27  2  0  0  0  0
 16 28  1  0  0  0  0
 17 19  2  0  0  0  0
 17 33  1  0  0  0  0
 18 20  2  0  0  0  0
 18 34  1  0  0  0  0
 19 46  1  0  0  0  0
 20 35  1  0  0  0  0
 21 80  1  0  0  0  0
 22 81  1  0  0  0  0
 23 25  2  0  0  0  0
 23 80  1  0  0  0  0
 24 83  1  0  0  0  0
 25 84  1  0  0  0  0
 26 64  2  0  0  0  0
 27 65  1  0  0  0  0
 27 69  1  0  0  0  0
 28 70  1  0  0  0  0
 28 75  2  0  0  0  0
 29 47  1  0  0  0  0
 29 71  1  0  0  0  0
 29 76  2  0  0  0  0
 30 60  1  0  0  0  0
 30 66  1  0  0  0  0
 30 77  2  0  0  0  0
 31 61  1  0  0  0  0
 31 72  1  0  0  0  0
 31 78  2  0  0  0  0
 32 67  1  0  0  0  0
 32 68  1  0  0  0  0
 32 79  2  0  0  0  0
 33 36  1  0  0  0  0
 34 47  1  0  0  0  0
 35 66  1  0  0  0  0
 36 38  1  0  0  0  0
 37 39  1  0  0  0  0
 37 42  1  0  0  0  0
 38 46  1  0  0  0  0
 39 50  1  0  0  0  0
 40 43  1  0  0  0  0
 40 48  1  0  0  0  0
 41 49  1  0  0  0  0
 41 51  1  0  0  0  0
 42 67  1  0  0  0  0
 43 68  1  0  0  0  0
 44 48  1  0  0  0  0
 44 68  1  0  0  0  0
 45 50  1  0  0  0  0
 45 67  1  0  0  0  0
 46 71  1  0  0  0  0
 47 66  1  0  0  0  0
 48 62  1  0  0  0  0
 49 51  1  0  0  0  0
 49 58  1  0  0  0  0
 50 65  1  0  0  0  0
 51 73  1  0  0  0  0
 52 61  1  0  0  0  0
 53 63  1  0  0  0  0
 54 63  1  0  0  0  0
 55 63  1  0  0  0  0
 56 74  1  0  0  0  0
 57 82  1  0  0  0  0
 58 81  1  0  0  0  0
 59 62  1  0  0  0  0
 59 73  1  0  0  0  0
 60 63  1  0  0  0  0
 60 72  1  0  0  0  0
 61 74  1  0  0  0  0
 62 82  1  0  0  0  0
 64 65  1  0  0  0  0
M  CHG  2  73   1  74   1
M  ISO  4  32 100  58 101  68 100  81 101
M  END
> <Batch ID>
0198

> <Smiles>
CNC(C)C(=O)NC(C(=O)N1Cc2cc([101O:1][101CH2:1]C3CC3NCC(OC)C3CC[100N:0]([100C:0](=O)N4CCCC(n5nc(-c6ccc(Oc7ccc(F)cc7F)cc6)c(C(N)=O)c5N)C4)C3)ccc2CC1C(=O)NC1CCCc2ccccc21)C(C)(C)C

> <Shape>
0.326

> <Color>
0.115

> <Negative vol penalty>
0.000

$$$$

  -OEChem-04052323483D

 89 99  0     1  0  0  0  0  0999 V2000
  -23.6002  -29.6504   16.5943 C   0  0  0  0  0  0  0  0  0  0  0  0
  -23.5603  -28.7816   17.6801 C   0  0  0  0  0  0  0  0  0  0  0  0
  -23.0388   -9.8765   19.9599 C   0  0  0  0  0  0  0  0  0  0  0  0
  -23.6719   -9.9642   22.2898 C   0  0  0  0  0  0  0  0  0  0  0  0
  -23.8449  -31.0078   16.7977 C   0  0  0  0  0  0  0  0  0  0  0  0
  -23.7662  -29.2697   18.9700 C   0  0  0  0  0  0  0  0  0  0  0  0
  -20.4296  -27.4225   22.3017 C   0  0  0  0  0  0  0  0  0  0  0  0
  -22.2638   -8.7448   20.2131 C   0  0  0  0  0  0  0  0  0  0  0  0
  -22.8968   -8.8325   22.5430 C   0  0  0  0  0  0  0  0  0  0  0  0
  -20.6448  -26.1256   22.7659 C   0  0  0  0  0  0  0  0  0  0  0  0
  -23.1640   -5.4872   22.1327 C   0  0  0  0  0  0  0  0  0  0  0  0
  -23.7225   -4.4828   22.9231 C   0  0  0  0  0  0  0  0  0  0  0  0
  -21.6119  -27.0164   24.7884 C   0  0  0  0  0  0  0  0  0  0  0  0
  -21.9332   -4.7481   24.5247 C   0  0  0  0  0  0  0  0  0  0  0  0
  -22.9185  -22.7662   24.5895 C   0  0  0  0  0  0  0  0  0  0  0  0
  -23.7429  -10.4862   20.9982 C   0  0  0  0  0  0  0  0  0  0  0  0
  -24.1317  -12.9995   20.7989 C   0  0  0  0  0  0  0  0  0  0  0  0
  -24.0442  -31.5144   18.0916 C   0  0  0  0  0  0  0  0  0  0  0  0
  -20.8146  -28.5279   23.0739 C   0  0  0  0  0  0  0  0  0  0  0  0
  -24.0151  -30.6350   19.1908 C   0  0  0  0  0  0  0  0  0  0  0  0
  -21.3982  -28.3263   24.3328 C   0  0  0  0  0  0  0  0  0  0  0  0
  -22.1927   -8.2228   21.5046 C   0  0  0  0  0  0  0  0  0  0  0  0
  -21.2386  -25.9224   24.0081 C   0  0  0  0  0  0  0  0  0  0  0  0
  -21.9901   -6.1221   22.5383 C   0  0  0  0  0  0  0  0  0  0  0  0
  -23.1072   -4.1132   24.1191 C   0  0  0  0  0  0  0  0  0  0  0  0
  -21.3747   -5.7526   23.7343 C   0  0  0  0  0  0  0  0  0  0  0  0
  -24.5441  -11.6550   20.7372 C   0  0  0  0  0  0  0  0  0  0  0  0
  -24.6878  -24.1375   23.1347 C   0  0  0  0  0  0  0  0  0  0  0  0
  -24.9615  -22.8582   23.5663 C   0  0  0  0  0  0  0  0  0  0  0  0
  -22.6449  -24.0456   24.1582 C   0  0  0  0  0  0  0  0  0  1  0  0
  -25.2541  -13.7185   20.4677 C   0  0  0  0  0  0  0  0  0  0  0  0
  -22.8487  -13.5494   21.1264 C   0  0  0  0  0  0  0  0  0  0  0  0
  -22.8576  -30.9322   22.6872 C   0  0  0  0  0  0  0  0  0  0  0  0
  -21.5516  -31.9758   25.4670 C   0  0  0  0  0  0  0  0  0  0  0  0
  -19.9007  -31.2188   28.3564 C   0  0  0  0  0  0  0  0  0  0  0  0
  -30.6248  -14.7425   20.7460 C   0  0  0  0  0  0  0  0  0  0  0  0
  -24.3523  -32.9815   18.2573 C   0  0  0  0  0  0  0  0  0  0  0  0
  -20.5512  -29.9207   22.5706 C   0  0  0  0  0  0  0  0  0  0  0  0
  -21.8111  -29.4795   25.2093 C   0  0  0  0  0  0  0  0  0  0  0  0
  -24.1883  -33.4802   19.6907 C   0  0  0  0  0  0  0  0  0  0  0  0
  -29.6895  -12.2305   18.5622 C   0  0  0  0  0  0  0  0  0  0  0  0
  -24.8557  -32.5196   20.6698 C   0  0  0  0  0  0  0  0  0  0  0  0
  -25.1913  -25.9893   21.4052 C   0  0  0  0  0  0  0  0  0  0  0  0
  -25.7067  -24.7076   20.8293 C   0  0  0  0  0  0  0  0  0  0  0  0
  -28.2305  -11.9572   18.9270 C   0  0  0  0  0  0  0  0  0  0  0  0
  -28.9838  -17.9558   21.5878 C   0  0  0  0  0  0  0  0  0  0  0  0
  -28.3958  -16.2516   23.3482 C   0  0  0  0  0  0  0  0  0  0  0  0
  -30.5330  -12.4503   19.8128 C   0  0  0  0  0  0  0  0  0  0  0  0
  -30.2133  -17.1281   21.2238 C   0  0  0  0  0  0  0  0  0  0  0  0
  -29.6384  -15.4595   22.9551 C   0  0  0  0  0  0  0  0  0  0  0  0
  -28.5733  -13.2886   21.0667 C   0  0  0  0  0  0  0  0  0  0  0  0
  -24.2090  -31.1306   20.6075 C   0  0  1  0  0  0  0  0  0  0  0  0
  -25.6801  -24.8997   22.3228 C   0  0  0  0  0  0  0  0  0  0  0  0
  -21.4517  -30.9695   23.2160 C   0  0  1  0  0  0  0  0  0  0  0  0
  -28.5719  -17.7468   23.0508 C   0  0  0  0  0  0  0  0  0  0  0  0
  -27.6713  -13.0660   19.8361 C   0  0  2  0  0  0  0  0  0  0  0  0
  -19.0058  -32.2762   30.4488 C   0  0  0  0  0  0  0  0  0  0  0  0
  -24.3847  -32.1539   26.5858 C   0  0  0  0  0  0  0  0  0  0  0  0
  -23.3953  -32.2796   28.8822 C   0  0  0  0  0  0  0  0  0  0  0  0
  -22.8943  -34.0625   27.2109 C   0  0  0  0  0  0  0  0  0  0  0  0
  -17.1266  -30.4090   27.7179 C   0  0  0  0  0  0  0  0  0  0  0  0
  -26.2600  -22.1807   23.2410 C   0  0  0  0  0  0  0  0  0  0  0  0
  -27.2943  -18.5187   23.3718 C   0  0  0  0  0  0  0  0  0  0  0  0
  -27.4757  -20.0027   23.1091 C   0  0  0  0  0  0  0  0  0  0  0  0
  -21.8544  -31.7749   26.9323 C   0  0  1  0  0  0  0  0  0  0  0  0
  -18.6928  -31.8529   29.0221 C   0  0  2  0  0  0  0  0  0  0  0  0
  -23.1263  -32.5458   27.3856 C   0  0  0  0  0  0  0  0  0  0  0  0
  -24.0817  -22.1495   24.3013 N   0  0  0  0  0  0  0  0  0  0  0  0
  -25.8283  -11.5248   20.3937 N   0  0  0  0  0  0  0  0  0  0  0  0
  -23.5246  -24.7542   23.4230 N   0  0  0  0  0  0  0  0  0  0  0  0
  -26.2324  -12.7968   20.2364 N   0  0  0  0  0  0  0  0  0  0  0  0
  -21.5385  -30.8221   24.6703 N   0  0  0  0  0  0  0  0  0  0  0  0
  -29.9669  -13.5069   20.6512 N   0  0  0  0  0  0  0  0  0  0  0  0
  -30.0285  -15.7177   21.5626 N   0  0  0  0  0  0  0  0  0  0  0  0
  -25.4897  -15.0430   20.3545 N   0  0  0  0  0  0  0  0  0  0  0  0
  -21.8052  -12.6687   21.4423 N   0  0  0  0  0  0  0  0  0  0  0  0
  -22.9506  -31.1264   21.3222 N   0  0  0  0  0  0  0  0  0  0  0  0
  -20.6420  -32.1454   27.6542 N   0  0  0  0  0  0  0  0  0  0  0  0
  -17.5554  -30.8905   29.0562 N   0  3  0  0  0  0  0  0  0  0  0  0
  -26.2274  -20.7116   23.4799 N   0  3  0  0  0  0  0  0  0  0  0  0
  -22.6296  -14.7845   21.1224 O   0  0  0  0  0  0  0  0  0  0  0  0
  -23.7892  -30.7427   23.4605 O   0  0  0  0  0  0  0  0  0  0  0  0
  -21.3276  -33.1135   25.0462 O   0  0  0  0  0  0  0  0  0  0  0  0
  -20.1627  -30.0219   28.4529 O   0  0  0  0  0  0  0  0  0  0  0  0
  -31.6781  -14.9652   20.1360 O   0  0  0  0  0  0  0  0  0  0  0  0
  -21.4364   -7.1186   21.7521 O   0  0  0  0  0  0  0  0  0  0  0  0
  -21.4537  -24.6375   24.4705 O   0  0  0  0  0  0  0  0  0  1  0  0
  -23.6428   -3.1476   24.8772 F   0  0  0  0  0  0  0  0  0  0  0  0
  -20.2461   -6.3581   24.1286 F   0  0  0  0  0  0  0  0  0  0  0  0
  1  2  1  0  0  0  0
  1  5  2  0  0  0  0
  2  6  2  0  0  0  0
  3  8  2  0  0  0  0
  3 16  1  0  0  0  0
  4  9  1  0  0  0  0
  4 16  2  0  0  0  0
  5 18  1  0  0  0  0
  6 20  1  0  0  0  0
  7 10  2  0  0  0  0
  7 19  1  0  0  0  0
  8 22  1  0  0  0  0
  9 22  2  0  0  0  0
 10 23  1  0  0  0  0
 11 12  2  0  0  0  0
 11 24  1  0  0  0  0
 12 25  1  0  0  0  0
 13 21  1  0  0  0  0
 13 23  2  0  0  0  0
 14 25  2  0  0  0  0
 14 26  1  0  0  0  0
 15 30  1  0  0  0  0
 15 68  2  0  0  0  0
 16 27  1  0  0  0  0
 17 27  1  0  0  0  0
 17 31  2  0  0  0  0
 17 32  1  0  0  0  0
 18 20  2  0  0  0  0
 18 37  1  0  0  0  0
 19 21  2  0  0  0  0
 19 38  1  0  0  0  0
 20 52  1  0  0  0  0
 21 39  1  0  0  0  0
 22 86  1  0  0  0  0
 23 87  1  0  0  0  0
 24 26  2  0  0  0  0
 24 86  1  0  0  0  0
 25 88  1  0  0  0  0
 26 89  1  0  0  0  0
 27 69  2  0  0  0  0
 28 29  2  0  0  0  0
 28 53  1  0  0  0  0
 28 70  1  0  0  0  0
 29 62  1  0  0  0  0
 29 68  1  0  0  0  0
 30 70  2  0  0  0  0
 30 87  1  0  0  0  0
 31 71  1  0  0  0  0
 31 75  1  0  0  0  0
 32 76  1  0  0  0  0
 32 81  2  0  0  0  0
 33 54  1  0  0  0  0
 33 77  1  0  0  0  0
 33 82  2  0  0  0  0
 34 65  1  0  0  0  0
 34 72  1  0  0  0  0
 34 83  2  0  0  0  0
 35 66  1  0  0  0  0
 35 78  1  0  0  0  0
 35 84  2  0  0  0  0
 36 73  1  0  0  0  0
 36 74  1  0  0  0  0
 36 85  2  0  0  0  0
 37 40  1  0  0  0  0
 38 54  1  0  0  0  0
 39 72  1  0  0  0  0
 40 42  1  0  0  0  0
 41 45  1  0  0  0  0
 41 48  1  0  0  0  0
 42 52  1  0  0  0  0
 43 44  1  0  0  0  0
 43 53  1  0  0  0  0
 44 53  1  0  0  0  0
 45 56  1  0  0  0  0
 46 49  1  0  0  0  0
 46 55  1  0  0  0  0
 47 50  1  0  0  0  0
 47 55  1  0  0  0  0
 48 73  1  0  0  0  0
 49 74  1  0  0  0  0
 50 74  1  0  0  0  0
 51 56  1  0  0  0  0
 51 73  1  0  0  0  0
 52 77  1  0  0  0  0
 54 72  1  0  0  0  0
 55 63  1  0  0  0  0
 56 71  1  0  0  0  0
 57 66  1  0  0  0  0
 58 67  1  0  0  0  0
 59 67  1  0  0  0  0
 60 67  1  0  0  0  0
 61 79  1  0  0  0  0
 62 80  1  0  0  0  0
 63 64  1  0  0  0  0
 64 80  1  0  0  0  0
 65 67  1  0  0  0  0
 65 78  1  0  0  0  0
 66 79  1  0  0  0  0
 69 71  1  0  0  0  0
M  CHG  2  79   1  80   1
M  ISO  4  30 101  36 100  74 100  87 101
M  END
> <Batch ID>
0198

> <Smiles>
CNC(C)C(=O)NC(C(=O)N1Cc2cc([101O:1][101c:1]3cnc(CNCCC4CC[100N:0]([100C:0](=O)N5CCCC(n6nc(-c7ccc(Oc8ccc(F)cc8F)cc7)c(C(N)=O)c6N)C5)CC4)c(C4CC4)n3)ccc2CC1C(=O)NC1CCCc2ccccc21)C(C)(C)C

> <Shape>
0.260

> <Color>
0.194

> <Negative vol penalty>
0.000

$$$$

  -OEChem-04052323483D

 88 98  0     1  0  0  0  0  0999 V2000
  -28.6148  -33.9134   25.3517 C   0  0  0  0  0  0  0  0  0  0  0  0
  -28.6638  -32.6679   24.7337 C   0  0  0  0  0  0  0  0  0  0  0  0
  -23.4113  -10.4575   21.9746 C   0  0  0  0  0  0  0  0  0  0  0  0
  -24.4308   -8.8500   20.4868 C   0  0  0  0  0  0  0  0  0  0  0  0
  -27.4097  -34.3864   25.8694 C   0  0  0  0  0  0  0  0  0  0  0  0
  -27.5079  -31.8943   24.6340 C   0  0  0  0  0  0  0  0  0  0  0  0
  -26.9273  -29.8527   20.0362 C   0  0  0  0  0  0  0  0  0  0  0  0
  -22.1854   -9.8063   21.8382 C   0  0  0  0  0  0  0  0  0  0  0  0
  -23.2049   -8.1987   20.3504 C   0  0  0  0  0  0  0  0  0  0  0  0
  -27.6964  -28.7292   19.7367 C   0  0  0  0  0  0  0  0  0  0  0  0
  -20.4249   -5.9005   19.8947 C   0  0  0  0  0  0  0  0  0  0  0  0
  -20.4169   -4.5080   19.9749 C   0  0  0  0  0  0  0  0  0  0  0  0
  -25.7983  -27.3140   20.1990 C   0  0  0  0  0  0  0  0  0  0  0  0
  -21.3182   -4.6317   22.2131 C   0  0  0  0  0  0  0  0  0  0  0  0
  -29.6358  -24.5187   17.7675 C   0  0  0  0  0  0  0  0  0  0  0  0
  -24.5341   -9.9793   21.2989 C   0  0  0  0  0  0  0  0  0  0  0  0
  -26.7977  -10.3954   22.3991 C   0  0  0  0  0  0  0  0  0  0  0  0
  -26.2365  -33.6224   25.7674 C   0  0  0  0  0  0  0  0  0  0  0  0
  -25.5887  -29.7145   20.4306 C   0  0  0  0  0  0  0  0  0  0  0  0
  -26.2863  -32.3570   25.1520 C   0  0  0  0  0  0  0  0  0  0  0  0
  -25.0136  -28.4376   20.5005 C   0  0  0  0  0  0  0  0  0  0  0  0
  -30.4043  -23.3946   17.9470 C   0  0  0  0  0  0  0  0  0  0  0  0
  -22.0822   -8.6769   21.0260 C   0  0  0  0  0  0  0  0  0  0  0  0
  -27.1328  -27.4594   19.8209 C   0  0  0  0  0  0  0  0  0  0  0  0
  -20.8796   -6.6587   20.9737 C   0  0  0  0  0  0  0  0  0  0  0  0
  -20.8636   -3.8736   21.1341 C   0  0  0  0  0  0  0  0  0  0  0  0
  -21.3262   -6.0243   22.1329 C   0  0  0  0  0  0  0  0  0  0  0  0
  -25.8006  -10.6519   21.4390 C   0  0  0  0  0  0  0  0  0  0  0  0
  -31.0299  -23.5912   19.1927 C   0  0  0  0  0  0  0  0  0  0  0  0
  -27.7939  -11.2951   22.1084 C   0  0  0  0  0  0  0  0  0  0  0  0
  -26.8213   -9.4301   23.4590 C   0  0  0  0  0  0  0  0  0  0  0  0
  -23.9369  -30.4290   23.0507 C   0  0  0  0  0  0  0  0  0  0  0  0
  -21.4121  -29.4883   21.2444 C   0  0  0  0  0  0  0  0  0  0  0  0
  -20.2591  -27.6497   18.6106 C   0  0  0  0  0  0  0  0  0  0  0  0
  -29.5903  -16.1967   20.8563 C   0  0  0  0  0  0  0  0  0  0  0  0
  -24.9673  -34.1552   26.3840 C   0  0  0  0  0  0  0  0  0  0  0  0
  -24.7648  -30.9381   20.7244 C   0  0  0  0  0  0  0  0  0  0  0  0
  -23.5752  -28.2364   20.8993 C   0  0  0  0  0  0  0  0  0  0  0  0
  -23.7089  -33.4363   25.9048 C   0  0  0  0  0  0  0  0  0  0  0  0
  -28.4547  -14.3164   18.1144 C   0  0  0  0  0  0  0  0  0  0  0  0
  -31.9223  -21.8038   16.5198 C   0  0  0  0  0  0  0  0  0  0  0  0
  -30.9726  -22.4574   15.5652 C   0  0  0  0  0  0  0  0  0  0  0  0
  -23.9116  -31.9248   25.9393 C   0  0  0  0  0  0  0  0  0  0  0  0
  -27.7352  -13.1638   18.8143 C   0  0  0  0  0  0  0  0  0  0  0  0
  -28.2000  -15.6564   18.8069 C   0  0  0  0  0  0  0  0  0  0  0  0
  -29.1644  -18.3386   19.5697 C   0  0  0  0  0  0  0  0  0  0  0  0
  -31.3417  -17.9354   20.6582 C   0  0  0  0  0  0  0  0  0  0  0  0
  -27.7892  -14.4994   20.9544 C   0  0  0  0  0  0  0  0  0  0  0  0
  -29.0001  -19.6346   20.3571 C   0  0  0  0  0  0  0  0  0  0  0  0
  -31.1997  -19.2075   21.4780 C   0  0  0  0  0  0  0  0  0  0  0  0
  -30.5399  -22.2147   17.0031 C   0  0  0  0  0  0  0  0  0  0  0  0
  -25.0486  -31.4992   25.0024 C   0  0  1  0  0  0  0  0  0  0  0  0
  -23.5592  -30.6475   21.6129 C   0  0  1  0  0  0  0  0  0  0  0  0
  -28.0740  -13.1315   20.3152 C   0  0  1  0  0  0  0  0  0  0  0  0
  -18.1424  -27.0500   17.4034 C   0  0  0  0  0  0  0  0  0  0  0  0
  -20.6678  -27.5774   23.5038 C   0  0  0  0  0  0  0  0  0  0  0  0
  -19.1751  -26.3698   21.8970 C   0  0  0  0  0  0  0  0  0  0  0  0
  -18.7289  -28.7596   22.4560 C   0  0  0  0  0  0  0  0  0  0  0  0
  -21.2254  -28.8456   16.0817 C   0  0  0  0  0  0  0  0  0  0  0  0
  -31.9944  -22.6719   19.8986 C   0  0  0  0  0  0  0  0  0  0  0  0
  -31.5609  -22.2896   21.3200 C   0  0  0  0  0  0  0  0  0  0  0  0
  -30.2505  -21.5146   21.4186 C   0  0  0  0  0  0  0  0  0  0  0  0
  -29.2418  -26.5759   19.1431 C   0  0  0  0  0  0  0  0  0  1  0  0
  -20.7069  -28.1774   20.9929 C   0  0  1  0  0  0  0  0  0  0  0  0
  -19.3253  -28.0036   17.4672 C   0  0  2  0  0  0  0  0  0  0  0  0
  -19.8474  -27.7244   22.2067 C   0  0  0  0  0  0  0  0  0  0  0  0
  -26.1330  -11.6375   20.6011 N   0  0  0  0  0  0  0  0  0  0  0  0
  -30.6885  -24.7491   19.7641 N   0  0  0  0  0  0  0  0  0  0  0  0
  -29.8401  -25.2904   18.8734 N   0  0  0  0  0  0  0  0  0  0  0  0
  -27.3501  -12.0083   21.0339 N   0  0  0  0  0  0  0  0  0  0  0  0
  -22.8126  -29.4634   21.1829 N   0  0  0  0  0  0  0  0  0  0  0  0
  -28.4980  -15.5653   20.2430 N   0  0  0  0  0  0  0  0  0  0  0  0
  -30.0356  -17.3975   20.2839 N   0  0  0  0  0  0  0  0  0  0  0  0
  -28.9974  -11.5379   22.6696 N   0  0  0  0  0  0  0  0  0  0  0  0
  -25.7153   -8.5838   23.6167 N   0  0  0  0  0  0  0  0  0  0  0  0
  -24.5968  -31.4973   23.6276 N   0  0  0  0  0  0  0  0  0  0  0  0
  -19.9511  -28.3510   19.7572 N   0  0  0  0  0  0  0  0  0  0  0  0
  -30.3578  -20.1959   20.7052 N   0  3  0  0  0  0  0  0  0  0  0  0
  -20.0510  -27.9398   16.1671 N   0  3  0  0  0  0  0  0  0  0  0  0
  -27.7874   -9.3323   24.2532 O   0  0  0  0  0  0  0  0  0  0  0  0
  -23.6496  -29.3702   23.5967 O   0  0  0  0  0  0  0  0  0  0  0  0
  -20.7446  -30.4986   21.4795 O   0  0  0  0  0  0  0  0  0  0  0  0
  -21.1682  -26.8303   18.4989 O   0  0  0  0  0  0  0  0  0  0  0  0
  -30.1357  -15.7159   21.8577 O   0  0  0  0  0  0  0  0  0  0  0  0
  -20.8861   -8.0411   20.8928 O   0  0  0  0  0  0  0  0  0  0  0  0
  -27.8864  -26.3538   19.5278 O   0  0  0  0  0  0  0  0  0  1  0  0
  -20.8544   -2.5364   21.2115 F   0  0  0  0  0  0  0  0  0  0  0  0
  -21.7631   -6.7473   23.1731 F   0  0  0  0  0  0  0  0  0  0  0  0
  1  2  1  0  0  0  0
  1  5  2  0  0  0  0
  2  6  2  0  0  0  0
  3  8  2  0  0  0  0
  3 16  1  0  0  0  0
  4  9  1  0  0  0  0
  4 16  2  0  0  0  0
  5 18  1  0  0  0  0
  6 20  1  0  0  0  0
  7 10  2  0  0  0  0
  7 19  1  0  0  0  0
  8 23  1  0  0  0  0
  9 23  2  0  0  0  0
 10 24  1  0  0  0  0
 11 12  2  0  0  0  0
 11 25  1  0  0  0  0
 12 26  1  0  0  0  0
 13 21  1  0  0  0  0
 13 24  2  0  0  0  0
 14 26  2  0  0  0  0
 14 27  1  0  0  0  0
 15 22  2  0  0  0  0
 15 69  1  0  0  0  0
 16 28  1  0  0  0  0
 17 28  1  0  0  0  0
 17 30  2  0  0  0  0
 17 31  1  0  0  0  0
 18 20  2  0  0  0  0
 18 36  1  0  0  0  0
 19 21  2  0  0  0  0
 19 37  1  0  0  0  0
 20 52  1  0  0  0  0
 21 38  1  0  0  0  0
 22 29  1  0  0  0  0
 22 51  1  0  0  0  0
 23 85  1  0  0  0  0
 24 86  1  0  0  0  0
 25 27  2  0  0  0  0
 25 85  1  0  0  0  0
 26 87  1  0  0  0  0
 27 88  1  0  0  0  0
 28 67  2  0  0  0  0
 29 60  1  0  0  0  0
 29 68  2  0  0  0  0
 30 70  1  0  0  0  0
 30 74  1  0  0  0  0
 31 75  1  0  0  0  0
 31 80  2  0  0  0  0
 32 53  1  0  0  0  0
 32 76  1  0  0  0  0
 32 81  2  0  0  0  0
 33 64  1  0  0  0  0
 33 71  1  0  0  0  0
 33 82  2  0  0  0  0
 34 65  1  0  0  0  0
 34 77  1  0  0  0  0
 34 83  2  0  0  0  0
 35 72  1  0  0  0  0
 35 73  1  0  0  0  0
 35 84  2  0  0  0  0
 36 39  1  0  0  0  0
 37 53  1  0  0  0  0
 38 71  1  0  0  0  0
 39 43  1  0  0  0  0
 40 44  1  0  0  0  0
 40 45  1  0  0  0  0
 41 42  1  0  0  0  0
 41 51  1  0  0  0  0
 42 51  1  0  0  0  0
 43 52  1  0  0  0  0
 44 54  1  0  0  0  0
 45 72  1  0  0  0  0
 46 49  1  0  0  0  0
 46 73  1  0  0  0  0
 47 50  1  0  0  0  0
 47 73  1  0  0  0  0
 48 54  1  0  0  0  0
 48 72  1  0  0  0  0
 49 78  1  0  0  0  0
 50 78  1  0  0  0  0
 52 76  1  0  0  0  0
 53 71  1  0  0  0  0
 54 70  1  0  0  0  0
 55 65  1  0  0  0  0
 56 66  1  0  0  0  0
 57 66  1  0  0  0  0
 58 66  1  0  0  0  0
 59 79  1  0  0  0  0
 60 61  1  0  0  0  0
 61 62  1  0  0  0  0
 62 78  1  0  0  0  0
 63 69  1  0  0  0  0
 63 86  1  0  0  0  0
 64 66  1  0  0  0  0
 64 77  1  0  0  0  0
 65 79  1  0  0  0  0
 67 70  1  0  0  0  0
 68 69  1  0  0  0  0
M  CHG  2  78   1  79   1
M  ISO  4  35 100  63 101  73 100  86 101
M  END
> <Batch ID>
0198

> <Smiles>
CNC(C)C(=O)NC(C(=O)N1Cc2cc([101O:1][101CH2:1]n3cc(C4CC4)c(CCCN4CC[100N:0]([100C:0](=O)N5CCCC(n6nc(-c7ccc(Oc8ccc(F)cc8F)cc7)c(C(N)=O)c6N)C5)CC4)n3)ccc2CC1C(=O)NC1CCCc2ccccc21)C(C)(C)C

> <Shape>
0.345

> <Color>
0.102

> <Negative vol penalty>
0.000

$$$$

  -OEChem-04052323483D

 82 91  0     1  0  0  0  0  0999 V2000
  -34.6763  -25.0000   16.2205 C   0  0  0  0  0  0  0  0  0  0  0  0
  -33.8961  -26.1221   16.4805 C   0  0  0  0  0  0  0  0  0  0  0  0
  -24.0972  -14.0434   20.3131 C   0  0  0  0  0  0  0  0  0  0  0  0
  -24.4427  -14.4779   22.6645 C   0  0  0  0  0  0  0  0  0  0  0  0
  -34.0922  -23.7341   16.2072 C   0  0  0  0  0  0  0  0  0  0  0  0
  -32.5310  -25.9790   16.7262 C   0  0  0  0  0  0  0  0  0  0  0  0
  -27.2069  -28.8969   20.5283 C   0  0  0  0  0  0  0  0  0  0  0  0
  -25.3591  -13.4541   20.2366 C   0  0  0  0  0  0  0  0  0  0  0  0
  -25.7046  -13.8885   22.5880 C   0  0  0  0  0  0  0  0  0  0  0  0
  -25.9196  -29.4064   20.3640 C   0  0  0  0  0  0  0  0  0  0  0  0
  -28.5754  -14.4732   20.0345 C   0  0  0  0  0  0  0  0  0  0  0  0
  -29.3872  -14.8194   18.9543 C   0  0  0  0  0  0  0  0  0  0  0  0
  -25.0343  -27.1626   20.3936 C   0  0  0  0  0  0  0  0  0  0  0  0
  -29.4492  -12.5063   18.2595 C   0  0  0  0  0  0  0  0  0  0  0  0
  -23.6390  -14.5554   21.5271 C   0  0  0  0  0  0  0  0  0  0  0  0
  -21.1161  -14.5277   21.9038 C   0  0  0  0  0  0  0  0  0  0  0  0
  -32.7211  -23.5745   16.4624 C   0  0  0  0  0  0  0  0  0  0  0  0
  -27.4191  -27.5135   20.6158 C   0  0  0  0  0  0  0  0  0  0  0  0
  -31.9277  -24.7099   16.7149 C   0  0  0  0  0  0  0  0  0  0  0  0
  -26.3250  -26.6382   20.5616 C   0  0  0  0  0  0  0  0  0  0  0  0
  -26.1628  -13.3766   21.3740 C   0  0  0  0  0  0  0  0  0  0  0  0
  -24.8333  -28.5391   20.2937 C   0  0  0  0  0  0  0  0  0  0  0  0
  -28.2007  -13.1434   20.2273 C   0  0  0  0  0  0  0  0  0  0  0  0
  -29.8240  -13.8360   18.0668 C   0  0  0  0  0  0  0  0  0  0  0  0
  -28.6375  -12.1601   19.3397 C   0  0  0  0  0  0  0  0  0  0  0  0
  -22.3357  -15.1648   21.6066 C   0  0  0  0  0  0  0  0  0  0  0  0
  -20.1825  -15.5339   21.8559 C   0  0  0  0  0  0  0  0  0  0  0  0
  -20.8508  -13.1495   22.1970 C   0  0  0  0  0  0  0  0  0  0  0  0
  -29.0136  -25.3750   18.8871 C   0  0  0  0  0  0  0  0  0  0  0  0
  -28.1819  -23.3781   21.3042 C   0  0  0  0  0  0  0  0  0  0  0  0
  -26.0434  -22.6634   23.8660 C   0  0  0  0  0  0  0  0  0  0  0  0
  -20.8340  -21.4056   22.6921 C   0  0  0  0  0  0  0  0  0  0  0  0
  -32.1255  -22.1907   16.3905 C   0  0  0  0  0  0  0  0  0  0  0  0
  -28.8110  -26.9812   20.8197 C   0  0  0  0  0  0  0  0  0  0  0  0
  -26.4971  -25.1459   20.6707 C   0  0  0  0  0  0  0  0  0  0  0  0
  -30.7435  -22.0883   17.0306 C   0  0  0  0  0  0  0  0  0  0  0  0
  -19.2857  -19.7294   19.7815 C   0  0  0  0  0  0  0  0  0  0  0  0
  -29.8585  -23.2453   16.5779 C   0  0  0  0  0  0  0  0  0  0  0  0
  -19.8435  -18.3172   19.9279 C   0  0  0  0  0  0  0  0  0  0  0  0
  -18.4424  -27.8553   23.7689 C   0  0  0  0  0  0  0  0  0  0  0  0
  -20.2724  -20.7911   20.2659 C   0  0  0  0  0  0  0  0  0  0  0  0
  -21.3115  -19.1467   21.8057 C   0  0  0  0  0  0  0  0  0  0  0  0
  -19.0977  -24.5420   23.5515 C   0  0  0  0  0  0  0  0  0  0  0  0
  -21.0233  -25.0775   22.9629 C   0  0  0  0  0  0  0  0  0  0  0  0
  -30.4482  -24.5931   17.0106 C   0  0  1  0  0  0  0  0  0  0  0  0
  -28.9654  -25.5283   20.3810 C   0  0  1  0  0  0  0  0  0  0  0  0
  -19.8440  -28.3179   23.4723 C   0  0  1  0  0  0  0  0  0  0  0  0
  -20.3096  -18.0670   21.3698 C   0  0  2  0  0  0  0  0  0  0  0  0
  -20.4079  -23.7473   23.4271 C   0  0  0  0  0  0  0  0  0  0  0  0
  -19.3745  -26.9741   22.9824 C   0  0  1  0  0  0  0  0  0  0  0  0
  -25.5966  -20.9429   25.6373 C   0  0  0  0  0  0  0  0  0  0  0  0
  -27.0149  -21.5104   19.1924 C   0  0  0  0  0  0  0  0  0  0  0  0
  -25.7779  -20.3293   21.0208 C   0  0  0  0  0  0  0  0  0  0  0  0
  -28.2723  -20.3597   21.0225 C   0  0  0  0  0  0  0  0  0  0  0  0
  -26.4240  -24.6346   26.0405 C   0  0  0  0  0  0  0  0  0  0  0  0
  -20.0804  -29.4442   22.4900 C   0  0  0  0  0  0  0  0  0  0  0  0
  -21.8413  -30.4400   21.0250 C   0  0  0  0  0  0  0  0  0  0  0  0
  -23.3121  -30.3268   20.6755 C   0  0  0  0  0  0  0  0  0  1  0  0
  -27.0066  -22.4740   21.5877 C   0  0  1  0  0  0  0  0  0  0  0  0
  -26.2972  -22.2510   25.3048 C   0  0  2  0  0  0  0  0  0  0  0  0
  -27.0145  -21.1963   20.7018 C   0  0  0  0  0  0  0  0  0  0  0  0
  -22.1931  -16.4744   21.3861 N   0  0  0  0  0  0  0  0  0  0  0  0
  -20.8727  -16.6683   21.5448 N   0  0  0  0  0  0  0  0  0  0  0  0
  -27.8783  -24.6738   20.8630 N   0  0  0  0  0  0  0  0  0  0  0  0
  -20.7675  -20.4976   21.6202 N   0  0  0  0  0  0  0  0  0  0  0  0
  -18.8466  -15.5502   22.0499 N   0  0  0  0  0  0  0  0  0  0  0  0
  -21.9250  -12.2493   22.2047 N   0  0  0  0  0  0  0  0  0  0  0  0
  -30.1921  -24.8292   18.4152 N   0  0  0  0  0  0  0  0  0  0  0  0
  -27.0334  -22.2071   23.0217 N   0  0  0  0  0  0  0  0  0  0  0  0
  -20.3925  -22.6973   22.4223 N   0  0  0  0  0  0  0  0  0  0  0  0
  -19.9161  -25.7696   23.6583 N   0  3  0  0  0  0  0  0  0  0  0  0
  -25.8014  -23.3005   26.2395 N   0  3  0  0  0  0  0  0  0  0  0  0
  -21.4989  -29.4140   22.0421 N   0  3  0  0  0  0  0  0  0  0  0  0
  -19.6930  -12.7258   22.4286 O   0  0  0  0  0  0  0  0  0  0  0  0
  -28.0521  -25.7247   18.2125 O   0  0  0  0  0  0  0  0  0  0  0  0
  -29.3271  -22.9526   21.4751 O   0  0  0  0  0  0  0  0  0  0  0  0
  -25.0628  -23.3210   23.5247 O   0  0  0  0  0  0  0  0  0  0  0  0
  -21.2617  -21.0963   23.8095 O   0  0  0  0  0  0  0  0  0  0  0  0
  -27.3941  -12.8014   21.2997 O   0  0  0  0  0  0  0  0  0  0  0  0
  -23.5759  -29.0337   20.1326 O   0  0  0  0  0  0  0  0  0  1  0  0
  -30.6023  -14.1689   17.0287 F   0  0  0  0  0  0  0  0  0  0  0  0
  -28.2798  -10.8811   19.5190 F   0  0  0  0  0  0  0  0  0  0  0  0
  1  2  1  0  0  0  0
  1  5  2  0  0  0  0
  2  6  2  0  0  0  0
  3  8  2  0  0  0  0
  3 15  1  0  0  0  0
  4  9  1  0  0  0  0
  4 15  2  0  0  0  0
  5 17  1  0  0  0  0
  6 19  1  0  0  0  0
  7 10  2  0  0  0  0
  7 18  1  0  0  0  0
  8 21  1  0  0  0  0
  9 21  2  0  0  0  0
 10 22  1  0  0  0  0
 11 12  2  0  0  0  0
 11 23  1  0  0  0  0
 12 24  1  0  0  0  0
 13 20  1  0  0  0  0
 13 22  2  0  0  0  0
 14 24  2  0  0  0  0
 14 25  1  0  0  0  0
 15 26  1  0  0  0  0
 16 26  1  0  0  0  0
 16 27  2  0  0  0  0
 16 28  1  0  0  0  0
 17 19  2  0  0  0  0
 17 33  1  0  0  0  0
 18 20  2  0  0  0  0
 18 34  1  0  0  0  0
 19 45  1  0  0  0  0
 20 35  1  0  0  0  0
 21 79  1  0  0  0  0
 22 80  1  0  0  0  0
 23 25  2  0  0  0  0
 23 79  1  0  0  0  0
 24 81  1  0  0  0  0
 25 82  1  0  0  0  0
 26 62  2  0  0  0  0
 27 63  1  0  0  0  0
 27 66  1  0  0  0  0
 28 67  1  0  0  0  0
 28 74  2  0  0  0  0
 29 46  1  0  0  0  0
 29 68  1  0  0  0  0
 29 75  2  0  0  0  0
 30 59  1  0  0  0  0
 30 64  1  0  0  0  0
 30 76  2  0  0  0  0
 31 60  1  0  0  0  0
 31 69  1  0  0  0  0
 31 77  2  0  0  0  0
 32 65  1  0  0  0  0
 32 70  1  0  0  0  0
 32 78  2  0  0  0  0
 33 36  1  0  0  0  0
 34 46  1  0  0  0  0
 35 64  1  0  0  0  0
 36 38  1  0  0  0  0
 37 39  1  0  0  0  0
 37 41  1  0  0  0  0
 38 45  1  0  0  0  0
 39 48  1  0  0  0  0
 40 47  1  0  0  0  0
 40 50  1  0  0  0  0
 41 65  1  0  0  0  0
 42 48  1  0  0  0  0
 42 65  1  0  0  0  0
 43 49  1  0  0  0  0
 43 71  1  0  0  0  0
 44 49  1  0  0  0  0
 44 71  1  0  0  0  0
 45 68  1  0  0  0  0
 46 64  1  0  0  0  0
 47 50  1  0  0  0  0
 47 56  1  0  0  0  0
 48 63  1  0  0  0  0
 49 70  1  0  0  0  0
 50 71  1  0  0  0  0
 51 60  1  0  0  0  0
 52 61  1  0  0  0  0
 53 61  1  0  0  0  0
 54 61  1  0  0  0  0
 55 72  1  0  0  0  0
 56 73  1  0  0  0  0
 57 58  1  0  0  0  0
 57 73  1  0  0  0  0
 58 80  1  0  0  0  0
 59 61  1  0  0  0  0
 59 69  1  0  0  0  0
 60 72  1  0  0  0  0
 62 63  1  0  0  0  0
M  CHG  3  71   1  72   1  73   1
M  ISO  4  32 100  58 101  70 100  80 101
M  END
> <Batch ID>
0198

> <Smiles>
CNC(C)C(=O)NC(C(=O)N1Cc2cc([101O:1][101CH2:1]CNCC3CC3N3CC([100NH:0][100C:0](=O)N4CCCC(n5nc(-c6ccc(Oc7ccc(F)cc7F)cc6)c(C(N)=O)c5N)C4)C3)ccc2CC1C(=O)NC1CCCc2ccccc21)C(C)(C)C

> <Shape>
0.217

> <Color>
0.055

> <Negative vol penalty>
0.000

$$$$

  -OEChem-04052323483D

 87 96  0     1  0  0  0  0  0999 V2000
  -26.1331  -37.5245   22.9324 C   0  0  0  0  0  0  0  0  0  0  0  0
  -26.7851  -36.2957   22.9115 C   0  0  0  0  0  0  0  0  0  0  0  0
  -24.3866   -8.9492   21.6433 C   0  0  0  0  0  0  0  0  0  0  0  0
  -23.3558  -10.3091   19.9329 C   0  0  0  0  0  0  0  0  0  0  0  0
  -24.7825  -37.5901   23.2723 C   0  0  0  0  0  0  0  0  0  0  0  0
  -26.0870  -35.1318   23.2317 C   0  0  0  0  0  0  0  0  0  0  0  0
  -27.0532  -31.3406   20.0164 C   0  0  0  0  0  0  0  0  0  0  0  0
  -23.1609   -8.3312   21.8906 C   0  0  0  0  0  0  0  0  0  0  0  0
  -22.1301   -9.6910   20.1803 C   0  0  0  0  0  0  0  0  0  0  0  0
  -28.2564  -30.6560   20.1823 C   0  0  0  0  0  0  0  0  0  0  0  0
  -20.3026   -9.0429   23.5483 C   0  0  0  0  0  0  0  0  0  0  0  0
  -19.9192   -8.8748   24.8789 C   0  0  0  0  0  0  0  0  0  0  0  0
  -27.0853  -28.8890   21.3337 C   0  0  0  0  0  0  0  0  0  0  0  0
  -19.8407   -6.4820   24.5540 C   0  0  0  0  0  0  0  0  0  0  0  0
  -24.4841   -9.9382   20.6645 C   0  0  0  0  0  0  0  0  0  0  0  0
  -26.7371  -10.1716   19.4910 C   0  0  0  0  0  0  0  0  0  0  0  0
  -24.0651  -36.4253   23.5873 C   0  0  0  0  0  0  0  0  0  0  0  0
  -25.8566  -30.8088   20.5183 C   0  0  0  0  0  0  0  0  0  0  0  0
  -24.7259  -35.1820   23.5774 C   0  0  0  0  0  0  0  0  0  0  0  0
  -25.8679  -29.5676   21.1705 C   0  0  0  0  0  0  0  0  0  0  0  0
  -30.8780  -22.8031   19.2925 C   0  0  0  0  0  0  0  0  0  0  0  0
  -22.0326   -8.7020   21.1591 C   0  0  0  0  0  0  0  0  0  0  0  0
  -28.2730  -29.4314   20.8436 C   0  0  0  0  0  0  0  0  0  0  0  0
  -20.4550   -7.9305   22.7206 C   0  0  0  0  0  0  0  0  0  0  0  0
  -19.6882   -7.5944   25.3817 C   0  0  0  0  0  0  0  0  0  0  0  0
  -20.2240   -6.6501   23.2234 C   0  0  0  0  0  0  0  0  0  0  0  0
  -25.7499  -10.5774   20.4089 C   0  0  0  0  0  0  0  0  0  0  0  0
  -30.3943  -24.0866   19.1414 C   0  0  0  0  0  0  0  0  0  0  0  0
  -29.9921  -21.7911   18.9837 C   0  0  0  0  0  0  0  0  0  0  0  0
  -27.7370  -11.1033   19.6280 C   0  0  0  0  0  0  0  0  0  0  0  0
  -28.3765  -23.2991   18.4521 C   0  0  0  0  0  0  0  0  0  0  0  0
  -26.7492   -9.0527   18.5947 C   0  0  0  0  0  0  0  0  0  0  0  0
  -23.7162  -31.7444   22.6740 C   0  0  0  0  0  0  0  0  0  0  0  0
  -22.0939  -29.1403   21.6208 C   0  0  0  0  0  0  0  0  0  0  0  0
  -22.1927  -26.0761   20.1216 C   0  0  0  0  0  0  0  0  0  0  0  0
  -29.2051  -16.4131   19.9024 C   0  0  0  0  0  0  0  0  0  0  0  0
  -22.6184  -36.5515   23.9945 C   0  0  0  0  0  0  0  0  0  0  0  0
  -24.5631  -31.5469   20.3076 C   0  0  0  0  0  0  0  0  0  0  0  0
  -24.6076  -28.9439   21.7101 C   0  0  0  0  0  0  0  0  0  0  0  0
  -21.8573  -35.2288   23.9564 C   0  0  0  0  0  0  0  0  0  0  0  0
  -28.4610  -14.6916   23.0901 C   0  0  0  0  0  0  0  0  0  0  0  0
  -22.6697  -34.1258   24.6273 C   0  0  0  0  0  0  0  0  0  0  0  0
  -27.7140  -13.4599   22.5886 C   0  0  0  0  0  0  0  0  0  0  0  0
  -28.2064  -15.9164   22.2122 C   0  0  0  0  0  0  0  0  0  0  0  0
  -27.7495  -14.4470   20.2662 C   0  0  0  0  0  0  0  0  0  0  0  0
  -30.8798  -19.8446   20.3082 C   0  0  0  0  0  0  0  0  0  0  0  0
  -29.7844  -19.3140   18.5941 C   0  0  0  0  0  0  0  0  0  0  0  0
  -23.9966  -33.8944   23.8944 C   0  0  1  0  0  0  0  0  0  0  0  0
  -23.4823  -31.1567   21.3110 C   0  0  1  0  0  0  0  0  0  0  0  0
  -28.0373  -13.1964   21.1103 C   0  0  2  0  0  0  0  0  0  0  0  0
  -30.5741  -18.5016   19.6301 C   0  0  0  0  0  0  0  0  0  0  0  0
  -32.2668  -22.5380   19.7591 C   0  0  0  0  0  0  0  0  0  0  0  0
  -26.9874  -23.5745   17.9853 C   0  0  0  0  0  0  0  0  0  0  0  0
  -20.7112  -24.1712   19.4333 C   0  0  0  0  0  0  0  0  0  0  0  0
  -21.9203  -28.2282   24.5273 C   0  0  0  0  0  0  0  0  0  0  0  0
  -21.3087  -25.9452   23.7015 C   0  0  0  0  0  0  0  0  0  0  0  0
  -19.8276  -27.8889   23.2007 C   0  0  0  0  0  0  0  0  0  0  0  0
  -22.9028  -26.4030   17.2672 C   0  0  0  0  0  0  0  0  0  0  0  0
  -31.2659  -25.2690   19.4471 C   0  0  0  0  0  0  0  0  0  0  0  0
  -31.3292  -27.7174   19.9367 C   0  0  0  0  0  0  0  0  0  0  0  0
  -30.4456  -28.9473   20.0061 C   0  0  0  0  0  0  0  0  0  1  0  0
  -22.0467  -27.6817   22.0071 C   0  0  1  0  0  0  0  0  0  0  0  0
  -21.3628  -25.4756   19.0013 C   0  0  2  0  0  0  0  0  0  0  0  0
  -21.3000  -27.4484   23.3508 C   0  0  0  0  0  0  0  0  0  0  0  0
  -26.0916  -11.6808   21.0795 N   0  0  0  0  0  0  0  0  0  0  0  0
  -29.1442  -24.3721   18.7217 N   0  0  0  0  0  0  0  0  0  0  0  0
  -28.7293  -22.0038   18.5592 N   0  0  0  0  0  0  0  0  0  0  0  0
  -27.3048  -11.9762   20.5827 N   0  0  0  0  0  0  0  0  0  0  0  0
  -30.4299  -20.4504   19.1189 N   0  0  0  0  0  0  0  0  0  0  0  0
  -23.3690  -29.7072   21.4847 N   0  0  0  0  0  0  0  0  0  0  0  0
  -28.4483  -15.6272   20.7898 N   0  0  0  0  0  0  0  0  0  0  0  0
  -28.9349  -11.2527   19.0238 N   0  0  0  0  0  0  0  0  0  0  0  0
  -25.6409   -8.1949   18.5817 N   0  0  0  0  0  0  0  0  0  0  0  0
  -23.7802  -33.1246   22.6881 N   0  0  0  0  0  0  0  0  0  0  0  0
  -21.4648  -26.9769   20.8700 N   0  0  0  0  0  0  0  0  0  0  0  0
  -29.7610  -17.5705   20.4388 N   0  0  0  0  0  0  0  0  0  0  0  0
  -22.2184  -25.2023   17.8121 N   0  3  0  0  0  0  0  0  0  0  0  0
  -30.5015  -26.5391   19.5752 N   0  3  0  0  0  0  0  0  0  0  0  0
  -27.7214   -8.8110   17.8397 O   0  0  0  0  0  0  0  0  0  0  0  0
  -23.8288  -31.0006   23.6414 O   0  0  0  0  0  0  0  0  0  0  0  0
  -21.0383  -29.7523   21.4392 O   0  0  0  0  0  0  0  0  0  0  0  0
  -23.3679  -25.7733   20.3159 O   0  0  0  0  0  0  0  0  0  0  0  0
  -29.3715  -16.1147   18.7148 O   0  0  0  0  0  0  0  0  0  0  0  0
  -20.8364   -8.0990   21.4000 O   0  0  0  0  0  0  0  0  0  0  0  0
  -29.4461  -28.7614   21.0075 O   0  0  0  0  0  0  0  0  0  1  0  0
  -19.3216   -7.4331   26.6599 F   0  0  0  0  0  0  0  0  0  0  0  0
  -20.3700   -5.5776   22.4333 F   0  0  0  0  0  0  0  0  0  0  0  0
  1  2  1  0  0  0  0
  1  5  2  0  0  0  0
  2  6  2  0  0  0  0
  3  8  2  0  0  0  0
  3 15  1  0  0  0  0
  4  9  1  0  0  0  0
  4 15  2  0  0  0  0
  5 17  1  0  0  0  0
  6 19  1  0  0  0  0
  7 10  2  0  0  0  0
  7 18  1  0  0  0  0
  8 22  1  0  0  0  0
  9 22  2  0  0  0  0
 10 23  1  0  0  0  0
 11 12  2  0  0  0  0
 11 24  1  0  0  0  0
 12 25  1  0  0  0  0
 13 20  1  0  0  0  0
 13 23  2  0  0  0  0
 14 25  2  0  0  0  0
 14 26  1  0  0  0  0
 15 27  1  0  0  0  0
 16 27  1  0  0  0  0
 16 30  2  0  0  0  0
 16 32  1  0  0  0  0
 17 19  2  0  0  0  0
 17 37  1  0  0  0  0
 18 20  2  0  0  0  0
 18 38  1  0  0  0  0
 19 48  1  0  0  0  0
 20 39  1  0  0  0  0
 21 28  2  0  0  0  0
 21 29  1  0  0  0  0
 21 52  1  0  0  0  0
 22 84  1  0  0  0  0
 23 85  1  0  0  0  0
 24 26  2  0  0  0  0
 24 84  1  0  0  0  0
 25 86  1  0  0  0  0
 26 87  1  0  0  0  0
 27 65  2  0  0  0  0
 28 59  1  0  0  0  0
 28 66  1  0  0  0  0
 29 67  2  0  0  0  0
 29 69  1  0  0  0  0
 30 68  1  0  0  0  0
 30 72  1  0  0  0  0
 31 53  1  0  0  0  0
 31 66  2  0  0  0  0
 31 67  1  0  0  0  0
 32 73  1  0  0  0  0
 32 79  2  0  0  0  0
 33 49  1  0  0  0  0
 33 74  1  0  0  0  0
 33 80  2  0  0  0  0
 34 62  1  0  0  0  0
 34 70  1  0  0  0  0
 34 81  2  0  0  0  0
 35 63  1  0  0  0  0
 35 75  1  0  0  0  0
 35 82  2  0  0  0  0
 36 71  1  0  0  0  0
 36 76  1  0  0  0  0
 36 83  2  0  0  0  0
 37 40  1  0  0  0  0
 38 49  1  0  0  0  0
 39 70  1  0  0  0  0
 40 42  1  0  0  0  0
 41 43  1  0  0  0  0
 41 44  1  0  0  0  0
 42 48  1  0  0  0  0
 43 50  1  0  0  0  0
 44 71  1  0  0  0  0
 45 50  1  0  0  0  0
 45 71  1  0  0  0  0
 46 51  1  0  0  0  0
 46 69  1  0  0  0  0
 47 51  1  0  0  0  0
 47 69  1  0  0  0  0
 48 74  1  0  0  0  0
 49 70  1  0  0  0  0
 50 68  1  0  0  0  0
 51 76  1  0  0  0  0
 54 63  1  0  0  0  0
 55 64  1  0  0  0  0
 56 64  1  0  0  0  0
 57 64  1  0  0  0  0
 58 77  1  0  0  0  0
 59 78  1  0  0  0  0
 60 61  1  0  0  0  0
 60 78  1  0  0  0  0
 61 85  1  0  0  0  0
 62 64  1  0  0  0  0
 62 75  1  0  0  0  0
 63 77  1  0  0  0  0
 65 68  1  0  0  0  0
M  CHG  2  77   1  78   1
M  ISO  4  36 100  61 101  76 100  85 101
M  END
> <Batch ID>
0198

> <Smiles>
CNC(C)C(=O)NC(C(=O)N1Cc2cc([101O:1][101CH2:1]CNCc3nc(C)nc(N4CC([100NH:0][100C:0](=O)N5CCCC(n6nc(-c7ccc(Oc8ccc(F)cc8F)cc7)c(C(N)=O)c6N)C5)C4)c3C)ccc2CC1C(=O)NC1CCCc2ccccc21)C(C)(C)C

> <Shape>
0.309

> <Color>
0.064

> <Negative vol penalty>
0.000

$$$$

  -OEChem-04052323483D

 85 94  0     1  0  0  0  0  0999 V2000
  -33.7205   -5.3561   20.8876 C   0  0  0  0  0  0  0  0  0  0  0  0
  -34.3703   -6.3219   20.1257 C   0  0  0  0  0  0  0  0  0  0  0  0
  -23.0653   -9.8315   19.9320 C   0  0  0  0  0  0  0  0  0  0  0  0
  -23.8102   -9.8458   22.2303 C   0  0  0  0  0  0  0  0  0  0  0  0
  -32.7441   -5.7362   21.8073 C   0  0  0  0  0  0  0  0  0  0  0  0
  -34.0433   -7.6683   20.2824 C   0  0  0  0  0  0  0  0  0  0  0  0
  -36.9837  -14.1952   20.0168 C   0  0  0  0  0  0  0  0  0  0  0  0
  -22.3341   -8.6691   20.1762 C   0  0  0  0  0  0  0  0  0  0  0  0
  -23.0790   -8.6833   22.4745 C   0  0  0  0  0  0  0  0  0  0  0  0
  -36.7918  -15.4394   19.4177 C   0  0  0  0  0  0  0  0  0  0  0  0
  -19.3866   -7.8350   21.6078 C   0  0  0  0  0  0  0  0  0  0  0  0
  -18.0835   -7.7731   21.1141 C   0  0  0  0  0  0  0  0  0  0  0  0
  -30.0699  -20.0408   19.2161 C   0  0  0  0  0  0  0  0  0  0  0  0
  -35.1451  -15.9858   21.0937 C   0  0  0  0  0  0  0  0  0  0  0  0
  -18.6756   -5.8382   19.7939 C   0  0  0  0  0  0  0  0  0  0  0  0
  -29.6761  -20.1347   20.5354 C   0  0  0  0  0  0  0  0  0  0  0  0
  -23.8034  -10.4199   20.9591 C   0  0  0  0  0  0  0  0  0  0  0  0
  -24.1149  -12.9491   20.8433 C   0  0  0  0  0  0  0  0  0  0  0  0
  -32.4117   -7.0888   21.9823 C   0  0  0  0  0  0  0  0  0  0  0  0
  -36.2486  -13.8321   21.1544 C   0  0  0  0  0  0  0  0  0  0  0  0
  -33.0605   -8.0668   21.2045 C   0  0  0  0  0  0  0  0  0  0  0  0
  -35.3313  -14.7374   21.7069 C   0  0  0  0  0  0  0  0  0  0  0  0
  -22.3409   -8.0950   21.4475 C   0  0  0  0  0  0  0  0  0  0  0  0
  -35.8703  -16.3338   19.9544 C   0  0  0  0  0  0  0  0  0  0  0  0
  -20.3342   -6.8985   21.1945 C   0  0  0  0  0  0  0  0  0  0  0  0
  -17.7280   -6.7747   20.2071 C   0  0  0  0  0  0  0  0  0  0  0  0
  -19.9787   -5.9002   20.2876 C   0  0  0  0  0  0  0  0  0  0  0  0
  -24.5594  -11.6203   20.7073 C   0  0  0  0  0  0  0  0  0  0  0  0
  -30.6856  -18.8584   18.8596 C   0  0  0  0  0  0  0  0  0  0  0  0
  -25.2001  -13.7123   20.4877 C   0  0  0  0  0  0  0  0  0  0  0  0
  -30.4752  -18.0525   20.9746 C   0  0  0  0  0  0  0  0  0  0  0  0
  -22.8355  -13.4489   21.2545 C   0  0  0  0  0  0  0  0  0  0  0  0
  -34.1545  -11.5394   21.8344 C   0  0  0  0  0  0  0  0  0  0  0  0
  -34.3978  -12.7457   24.8358 C   0  0  0  0  0  0  0  0  0  0  0  0
  -35.1477  -15.4065   26.8368 C   0  0  0  0  0  0  0  0  0  0  0  0
  -30.6695  -14.7986   20.7123 C   0  0  0  0  0  0  0  0  0  0  0  0
  -31.3162   -7.4472   22.9550 C   0  0  0  0  0  0  0  0  0  0  0  0
  -36.4866  -12.4967   21.8045 C   0  0  0  0  0  0  0  0  0  0  0  0
  -34.5317  -14.4037   22.9389 C   0  0  0  0  0  0  0  0  0  0  0  0
  -31.2935   -8.9271   23.3287 C   0  0  0  0  0  0  0  0  0  0  0  0
  -29.5768  -12.4024   18.3163 C   0  0  0  0  0  0  0  0  0  0  0  0
  -31.4199   -9.7949   22.0805 C   0  0  0  0  0  0  0  0  0  0  0  0
  -28.1403  -12.0906   18.7397 C   0  0  0  0  0  0  0  0  0  0  0  0
  -30.0972  -18.7488   16.3527 C   0  0  0  0  0  0  0  0  0  0  0  0
  -30.6963  -17.4265   16.7169 C   0  0  0  0  0  0  0  0  0  0  0  0
  -30.4834  -12.6334   19.5233 C   0  0  0  0  0  0  0  0  0  0  0  0
  -28.5639  -13.3398   20.8981 C   0  0  0  0  0  0  0  0  0  0  0  0
  -32.7511   -9.5395   21.3635 C   0  0  1  0  0  0  0  0  0  0  0  0
  -35.3115  -12.0298   22.6581 C   0  0  1  0  0  0  0  0  0  0  0  0
  -27.5995  -13.1543   19.7141 C   0  0  2  0  0  0  0  0  0  0  0  0
  -31.1414  -18.6777   17.4525 C   0  0  0  0  0  0  0  0  0  0  0  0
  -35.2152  -16.1013   29.2472 C   0  0  0  0  0  0  0  0  0  0  0  0
  -31.3574  -13.0025   24.8443 C   0  0  0  0  0  0  0  0  0  0  0  0
  -31.5622  -14.5365   26.8124 C   0  0  0  0  0  0  0  0  0  0  0  0
  -32.3403  -12.1730   26.9892 C   0  0  0  0  0  0  0  0  0  0  0  0
  -38.0588  -15.9280   26.7254 C   0  0  0  0  0  0  0  0  0  0  0  0
  -30.7009  -16.9487   21.9514 C   0  0  0  0  0  0  0  0  0  0  0  0
  -32.5213  -19.2205   17.1518 C   0  0  0  0  0  0  0  0  0  0  0  0
  -34.9459  -18.6617   17.3702 C   0  0  0  0  0  0  0  0  0  0  0  0
  -35.8882  -17.6320   17.9619 C   0  0  0  0  0  0  0  0  0  1  0  0
  -33.6812  -13.8200   25.6175 C   0  0  1  0  0  0  0  0  0  0  0  0
  -36.0042  -15.5183   28.0852 C   0  0  2  0  0  0  0  0  0  0  0  0
  -32.2488  -13.3888   26.0415 C   0  0  0  0  0  0  0  0  0  0  0  0
  -29.8638  -19.1562   21.4451 N   0  0  0  0  0  0  0  0  0  0  0  0
  -25.8281  -11.5405   20.2971 N   0  0  0  0  0  0  0  0  0  0  0  0
  -30.9054  -17.8396   19.7163 N   0  0  0  0  0  0  0  0  0  0  0  0
  -26.1900  -12.8287   20.1722 N   0  0  0  0  0  0  0  0  0  0  0  0
  -34.7956  -13.0834   23.5344 N   0  0  0  0  0  0  0  0  0  0  0  0
  -29.9145  -13.6543   20.4065 N   0  0  0  0  0  0  0  0  0  0  0  0
  -25.3945  -15.0463   20.4172 N   0  0  0  0  0  0  0  0  0  0  0  0
  -21.8327  -12.5270   21.5844 N   0  0  0  0  0  0  0  0  0  0  0  0
  -33.8324  -10.2131   22.0502 N   0  0  0  0  0  0  0  0  0  0  0  0
  -34.5559  -14.1655   26.7329 N   0  0  0  0  0  0  0  0  0  0  0  0
  -30.0536  -15.7192   21.5512 N   0  0  0  0  0  0  0  0  0  0  0  0
  -37.1812  -16.3957   27.8291 N   0  3  0  0  0  0  0  0  0  0  0  0
  -33.5443  -18.2669   17.6598 N   0  3  0  0  0  0  0  0  0  0  0  0
  -22.5838  -14.6765   21.3113 O   0  0  0  0  0  0  0  0  0  0  0  0
  -33.5944  -12.3079   21.0615 O   0  0  0  0  0  0  0  0  0  0  0  0
  -34.6036  -11.6496   25.3630 O   0  0  0  0  0  0  0  0  0  0  0  0
  -35.0139  -16.3293   26.0361 O   0  0  0  0  0  0  0  0  0  0  0  0
  -31.8061  -14.9884   20.2662 O   0  0  0  0  0  0  0  0  0  0  0  0
  -21.6273   -6.9608   21.6862 O   0  0  0  0  0  0  0  0  0  0  0  0
  -35.6806  -17.5486   19.3712 O   0  0  0  0  0  0  0  0  0  1  0  0
  -16.4762   -6.7145   19.7343 F   0  0  0  0  0  0  0  0  0  0  0  0
  -20.8844   -4.9970   19.8878 F   0  0  0  0  0  0  0  0  0  0  0  0
  1  2  1  0  0  0  0
  1  5  2  0  0  0  0
  2  6  2  0  0  0  0
  3  8  2  0  0  0  0
  3 17  1  0  0  0  0
  4  9  1  0  0  0  0
  4 17  2  0  0  0  0
  5 19  1  0  0  0  0
  6 21  1  0  0  0  0
  7 10  2  0  0  0  0
  7 20  1  0  0  0  0
  8 23  1  0  0  0  0
  9 23  2  0  0  0  0
 10 24  1  0  0  0  0
 11 12  2  0  0  0  0
 11 25  1  0  0  0  0
 12 26  1  0  0  0  0
 13 16  2  0  0  0  0
 13 29  1  0  0  0  0
 14 22  1  0  0  0  0
 14 24  2  0  0  0  0
 15 26  2  0  0  0  0
 15 27  1  0  0  0  0
 16 64  1  0  0  0  0
 17 28  1  0  0  0  0
 18 28  1  0  0  0  0
 18 30  2  0  0  0  0
 18 32  1  0  0  0  0
 19 21  2  0  0  0  0
 19 37  1  0  0  0  0
 20 22  2  0  0  0  0
 20 38  1  0  0  0  0
 21 48  1  0  0  0  0
 22 39  1  0  0  0  0
 23 82  1  0  0  0  0
 24 83  1  0  0  0  0
 25 27  2  0  0  0  0
 25 82  1  0  0  0  0
 26 84  1  0  0  0  0
 27 85  1  0  0  0  0
 28 65  2  0  0  0  0
 29 51  1  0  0  0  0
 29 66  2  0  0  0  0
 30 67  1  0  0  0  0
 30 70  1  0  0  0  0
 31 57  1  0  0  0  0
 31 64  2  0  0  0  0
 31 66  1  0  0  0  0
 32 71  1  0  0  0  0
 32 77  2  0  0  0  0
 33 49  1  0  0  0  0
 33 72  1  0  0  0  0
 33 78  2  0  0  0  0
 34 61  1  0  0  0  0
 34 68  1  0  0  0  0
 34 79  2  0  0  0  0
 35 62  1  0  0  0  0
 35 73  1  0  0  0  0
 35 80  2  0  0  0  0
 36 69  1  0  0  0  0
 36 74  1  0  0  0  0
 36 81  2  0  0  0  0
 37 40  1  0  0  0  0
 38 49  1  0  0  0  0
 39 68  1  0  0  0  0
 40 42  1  0  0  0  0
 41 43  1  0  0  0  0
 41 46  1  0  0  0  0
 42 48  1  0  0  0  0
 43 50  1  0  0  0  0
 44 45  1  0  0  0  0
 44 51  1  0  0  0  0
 45 51  1  0  0  0  0
 46 69  1  0  0  0  0
 47 50  1  0  0  0  0
 47 69  1  0  0  0  0
 48 72  1  0  0  0  0
 49 68  1  0  0  0  0
 50 67  1  0  0  0  0
 51 58  1  0  0  0  0
 52 62  1  0  0  0  0
 53 63  1  0  0  0  0
 54 63  1  0  0  0  0
 55 63  1  0  0  0  0
 56 75  1  0  0  0  0
 57 74  1  0  0  0  0
 58 76  1  0  0  0  0
 59 60  1  0  0  0  0
 59 76  1  0  0  0  0
 60 83  1  0  0  0  0
 61 63  1  0  0  0  0
 61 73  1  0  0  0  0
 62 75  1  0  0  0  0
 65 67  1  0  0  0  0
M  CHG  2  75   1  76   1
M  ISO  4  36 100  60 101  74 100  83 101
M  END
> <Batch ID>
0198

> <Smiles>
CNC(C)C(=O)NC(C(=O)N1Cc2cc([101O:1][101CH2:1]CNCC3(c4ccnc(C[100NH:0][100C:0](=O)N5CCCC(n6nc(-c7ccc(Oc8ccc(F)cc8F)cc7)c(C(N)=O)c6N)C5)n4)CC3)ccc2CC1C(=O)NC1CCCc2ccccc21)C(C)(C)C

> <Shape>
0.167

> <Color>
0.200

> <Negative vol penalty>
0.000

$$$$

  -OEChem-04052323483D

 85 94  0     1  0  0  0  0  0999 V2000
  -16.5758  -33.8335   18.3802 C   0  0  0  0  0  0  0  0  0  0  0  0
  -16.9471  -32.4928   18.3874 C   0  0  0  0  0  0  0  0  0  0  0  0
  -23.0503  -10.0420   19.9108 C   0  0  0  0  0  0  0  0  0  0  0  0
  -23.8210   -9.7472   22.1815 C   0  0  0  0  0  0  0  0  0  0  0  0
  -17.5356  -34.8226   18.5908 C   0  0  0  0  0  0  0  0  0  0  0  0
  -18.2787  -32.1405   18.6043 C   0  0  0  0  0  0  0  0  0  0  0  0
  -20.3425  -27.1947   21.5684 C   0  0  0  0  0  0  0  0  0  0  0  0
  -22.2602   -8.8988   20.0305 C   0  0  0  0  0  0  0  0  0  0  0  0
  -23.0308   -8.6040   22.3013 C   0  0  0  0  0  0  0  0  0  0  0  0
  -20.8078  -25.9591   21.1207 C   0  0  0  0  0  0  0  0  0  0  0  0
  -23.1799   -5.3619   21.3540 C   0  0  0  0  0  0  0  0  0  0  0  0
  -23.7555   -4.2347   21.9402 C   0  0  0  0  0  0  0  0  0  0  0  0
  -25.1920  -20.0565   17.0203 C   0  0  0  0  0  0  0  0  0  0  0  0
  -24.3441  -20.9936   17.5841 C   0  0  0  0  0  0  0  0  0  0  0  0
  -23.0760  -26.7678   21.2651 C   0  0  0  0  0  0  0  0  0  0  0  0
  -22.0712   -4.2752   23.6718 C   0  0  0  0  0  0  0  0  0  0  0  0
  -23.8308  -10.4662   20.9863 C   0  0  0  0  0  0  0  0  0  0  0  0
  -24.2773  -12.9717   21.1611 C   0  0  0  0  0  0  0  0  0  0  0  0
  -18.8779  -34.4818   18.8200 C   0  0  0  0  0  0  0  0  0  0  0  0
  -21.2413  -28.2314   21.8579 C   0  0  0  0  0  0  0  0  0  0  0  0
  -19.2576  -33.1260   18.8168 C   0  0  0  0  0  0  0  0  0  0  0  0
  -22.6196  -28.0148   21.7187 C   0  0  0  0  0  0  0  0  0  0  0  0
  -22.2504   -8.1798   21.2258 C   0  0  0  0  0  0  0  0  0  0  0  0
  -22.1746  -25.7464   20.9662 C   0  0  0  0  0  0  0  0  0  0  0  0
  -22.0500   -5.9458   21.9267 C   0  0  0  0  0  0  0  0  0  0  0  0
  -23.2012   -3.6913   23.0991 C   0  0  0  0  0  0  0  0  0  0  0  0
  -21.4956   -5.4024   23.0856 C   0  0  0  0  0  0  0  0  0  0  0  0
  -24.6478  -11.6467   20.8631 C   0  0  0  0  0  0  0  0  0  0  0  0
  -25.8972  -19.2289   17.8708 C   0  0  0  0  0  0  0  0  0  0  0  0
  -24.2572  -21.0407   18.9610 C   0  0  0  0  0  0  0  0  0  0  0  0
  -25.3981  -13.7135   20.8779 C   0  0  0  0  0  0  0  0  0  0  0  0
  -23.0316  -13.4860   21.6502 C   0  0  0  0  0  0  0  0  0  0  0  0
  -21.7441  -31.1511   20.7063 C   0  0  0  0  0  0  0  0  0  0  0  0
  -23.8543  -31.3341   23.1631 C   0  0  0  0  0  0  0  0  0  0  0  0
  -25.8715  -29.6989   25.3775 C   0  0  0  0  0  0  0  0  0  0  0  0
  -29.7086  -15.0079   17.7702 C   0  0  0  0  0  0  0  0  0  0  0  0
  -19.8879  -35.5880   18.9957 C   0  0  0  0  0  0  0  0  0  0  0  0
  -20.7248  -29.5498   22.3654 C   0  0  0  0  0  0  0  0  0  0  0  0
  -23.6271  -29.0886   22.0355 C   0  0  0  0  0  0  0  0  0  0  0  0
  -21.2118  -35.1152   19.5907 C   0  0  0  0  0  0  0  0  0  0  0  0
  -30.1373  -12.2900   19.8632 C   0  0  0  0  0  0  0  0  0  0  0  0
  -21.6905  -33.8484   18.8886 C   0  0  0  0  0  0  0  0  0  0  0  0
  -28.7204  -11.9767   20.3439 C   0  0  0  0  0  0  0  0  0  0  0  0
  -28.2969  -18.4286   17.7304 C   0  0  0  0  0  0  0  0  0  0  0  0
  -26.4011  -16.7542   17.6726 C   0  0  0  0  0  0  0  0  0  0  0  0
  -30.1451  -12.6475   18.3812 C   0  0  0  0  0  0  0  0  0  0  0  0
  -29.2309  -17.3555   17.1760 C   0  0  0  0  0  0  0  0  0  0  0  0
  -27.3767  -15.7201   17.1182 C   0  0  0  0  0  0  0  0  0  0  0  0
  -27.8215  -13.4840   18.5042 C   0  0  0  0  0  0  0  0  0  0  0  0
  -20.6878  -32.7029   19.0732 C   0  0  1  0  0  0  0  0  0  0  0  0
  -26.8391  -18.1828   17.3046 C   0  0  0  0  0  0  0  0  0  0  0  0
  -21.7003  -30.7007   22.1391 C   0  0  1  0  0  0  0  0  0  0  0  0
  -27.7550  -13.1253   20.0023 C   0  0  1  0  0  0  0  0  0  0  0  0
  -27.5029  -30.1189   27.2375 C   0  0  0  0  0  0  0  0  0  0  0  0
  -25.9708  -32.1448   21.1204 C   0  0  0  0  0  0  0  0  0  0  0  0
  -27.7221  -31.6255   22.8325 C   0  0  0  0  0  0  0  0  0  0  0  0
  -26.0494  -33.4242   23.2678 C   0  0  0  0  0  0  0  0  0  0  0  0
  -24.1992  -28.2341   27.3312 C   0  0  0  0  0  0  0  0  0  0  0  0
  -22.6180  -22.9105   18.7543 C   0  0  0  0  0  0  0  0  0  0  0  0
  -21.7800  -23.8010   19.6564 C   0  0  0  0  0  0  0  0  0  1  0  0
  -25.3167  -31.0056   23.3431 C   0  0  1  0  0  0  0  0  0  0  0  0
  -26.0503  -29.8485   26.8776 C   0  0  2  0  0  0  0  0  0  0  0  0
  -26.2459  -32.0302   22.6330 C   0  0  0  0  0  0  0  0  0  0  0  0
  -25.9055  -11.5492   20.4241 N   0  0  0  0  0  0  0  0  0  0  0  0
  -25.7926  -19.2973   19.2148 N   0  0  0  0  0  0  0  0  0  0  0  0
  -24.9589  -20.2180   19.7689 N   0  0  0  0  0  0  0  0  0  0  0  0
  -26.3350  -12.8224   20.4441 N   0  0  0  0  0  0  0  0  0  0  0  0
  -23.0724  -30.3624   22.5225 N   0  0  0  0  0  0  0  0  0  0  0  0
  -29.2115  -13.7371   18.0969 N   0  0  0  0  0  0  0  0  0  0  0  0
  -28.7610  -16.0127   17.5145 N   0  0  0  0  0  0  0  0  0  0  0  0
  -25.6636  -15.0345   20.9601 N   0  0  0  0  0  0  0  0  0  0  0  0
  -21.9842  -12.5856   21.8879 N   0  0  0  0  0  0  0  0  0  0  0  0
  -23.3928  -22.0011   19.5365 N   0  0  0  0  0  0  0  0  0  0  0  0
  -20.8165  -32.1267   20.3945 N   0  0  0  0  0  0  0  0  0  0  0  0
  -25.5365  -30.8961   24.7812 N   0  0  0  0  0  0  0  0  0  0  0  0
  -25.6161  -28.6065   27.5774 N   0  3  0  0  0  0  0  0  0  0  0  0
  -22.8472  -14.7099   21.8543 O   0  0  0  0  0  0  0  0  0  0  0  0
  -22.5603  -30.6516   19.9406 O   0  0  0  0  0  0  0  0  0  0  0  0
  -23.4201  -32.4100   23.5822 O   0  0  0  0  0  0  0  0  0  0  0  0
  -26.0183  -28.6279   24.7928 O   0  0  0  0  0  0  0  0  0  0  0  0
  -30.9236  -15.2352   17.7151 O   0  0  0  0  0  0  0  0  0  0  0  0
  -21.4792   -7.0644   21.3431 O   0  0  0  0  0  0  0  0  0  0  0  0
  -22.6346  -24.5330   20.5257 O   0  0  0  0  0  0  0  0  0  1  0  0
  -23.7531   -2.6079   23.6610 F   0  0  0  0  0  0  0  0  0  0  0  0
  -20.4094   -5.9583   23.6397 F   0  0  0  0  0  0  0  0  0  0  0  0
  1  2  1  0  0  0  0
  1  5  2  0  0  0  0
  2  6  2  0  0  0  0
  3  8  2  0  0  0  0
  3 17  1  0  0  0  0
  4  9  1  0  0  0  0
  4 17  2  0  0  0  0
  5 19  1  0  0  0  0
  6 21  1  0  0  0  0
  7 10  2  0  0  0  0
  7 20  1  0  0  0  0
  8 23  1  0  0  0  0
  9 23  2  0  0  0  0
 10 24  1  0  0  0  0
 11 12  2  0  0  0  0
 11 25  1  0  0  0  0
 12 26  1  0  0  0  0
 13 14  2  0  0  0  0
 13 29  1  0  0  0  0
 14 30  1  0  0  0  0
 15 22  1  0  0  0  0
 15 24  2  0  0  0  0
 16 26  2  0  0  0  0
 16 27  1  0  0  0  0
 17 28  1  0  0  0  0
 18 28  1  0  0  0  0
 18 31  2  0  0  0  0
 18 32  1  0  0  0  0
 19 21  2  0  0  0  0
 19 37  1  0  0  0  0
 20 22  2  0  0  0  0
 20 38  1  0  0  0  0
 21 50  1  0  0  0  0
 22 39  1  0  0  0  0
 23 82  1  0  0  0  0
 24 83  1  0  0  0  0
 25 27  2  0  0  0  0
 25 82  1  0  0  0  0
 26 84  1  0  0  0  0
 27 85  1  0  0  0  0
 28 64  2  0  0  0  0
 29 51  1  0  0  0  0
 29 65  2  0  0  0  0
 30 66  2  0  0  0  0
 30 73  1  0  0  0  0
 31 67  1  0  0  0  0
 31 71  1  0  0  0  0
 32 72  1  0  0  0  0
 32 77  2  0  0  0  0
 33 52  1  0  0  0  0
 33 74  1  0  0  0  0
 33 78  2  0  0  0  0
 34 61  1  0  0  0  0
 34 68  1  0  0  0  0
 34 79  2  0  0  0  0
 35 62  1  0  0  0  0
 35 75  1  0  0  0  0
 35 80  2  0  0  0  0
 36 69  1  0  0  0  0
 36 70  1  0  0  0  0
 36 81  2  0  0  0  0
 37 40  1  0  0  0  0
 38 52  1  0  0  0  0
 39 68  1  0  0  0  0
 40 42  1  0  0  0  0
 41 43  1  0  0  0  0
 41 46  1  0  0  0  0
 42 50  1  0  0  0  0
 43 53  1  0  0  0  0
 44 47  1  0  0  0  0
 44 51  1  0  0  0  0
 45 48  1  0  0  0  0
 45 51  1  0  0  0  0
 46 69  1  0  0  0  0
 47 70  1  0  0  0  0
 48 70  1  0  0  0  0
 49 53  1  0  0  0  0
 49 69  1  0  0  0  0
 50 74  1  0  0  0  0
 52 68  1  0  0  0  0
 53 67  1  0  0  0  0
 54 62  1  0  0  0  0
 55 63  1  0  0  0  0
 56 63  1  0  0  0  0
 57 63  1  0  0  0  0
 58 76  1  0  0  0  0
 59 60  1  0  0  0  0
 59 73  1  0  0  0  0
 60 83  1  0  0  0  0
 61 63  1  0  0  0  0
 61 75  1  0  0  0  0
 62 76  1  0  0  0  0
 64 67  1  0  0  0  0
 65 66  1  0  0  0  0
M  CHG  1  76   1
M  ISO  4  36 100  60 101  70 100  83 101
M  END
> <Batch ID>
0198

> <Smiles>
CNC(C)C(=O)NC(C(=O)N1Cc2cc([101O:1][101CH2:1]CNc3ccc(C4CC[100N:0]([100C:0](=O)N5CCCC(n6nc(-c7ccc(Oc8ccc(F)cc8F)cc7)c(C(N)=O)c6N)C5)CC4)nn3)ccc2CC1C(=O)NC1CCCc2ccccc21)C(C)(C)C

> <Shape>
0.261

> <Color>
0.165

> <Negative vol penalty>
0.000

$$$$

  -OEChem-04052323483D

 87 97  0     1  0  0  0  0  0999 V2000
  -30.7064  -23.5973   19.3102 C   0  0  0  0  0  0  0  0  0  0  0  0
  -29.3649  -23.7535   19.6439 C   0  0  0  0  0  0  0  0  0  0  0  0
  -24.5774  -12.4283   19.7989 C   0  0  0  0  0  0  0  0  0  0  0  0
  -25.5505  -12.7643   21.9846 C   0  0  0  0  0  0  0  0  0  0  0  0
  -31.6838  -24.3088   20.0048 C   0  0  0  0  0  0  0  0  0  0  0  0
  -29.0001  -24.6205   20.6733 C   0  0  0  0  0  0  0  0  0  0  0  0
  -25.0425  -27.5332   19.4491 C   0  0  0  0  0  0  0  0  0  0  0  0
  -24.9383  -11.0818   19.8452 C   0  0  0  0  0  0  0  0  0  0  0  0
  -25.9114  -11.4178   22.0310 C   0  0  0  0  0  0  0  0  0  0  0  0
  -23.7789  -26.9468   19.5050 C   0  0  0  0  0  0  0  0  0  0  0  0
  -23.7948   -8.2445   21.2858 C   0  0  0  0  0  0  0  0  0  0  0  0
  -22.8433   -7.3044   20.8903 C   0  0  0  0  0  0  0  0  0  0  0  0
  -24.6559  -21.9190   21.2135 C   0  0  0  0  0  0  0  0  0  0  0  0
  -25.9631  -21.4731   21.2982 C   0  0  0  0  0  0  0  0  0  0  0  0
  -23.4018  -27.9779   21.6530 C   0  0  0  0  0  0  0  0  0  0  0  0
  -24.3293   -6.5334   19.1482 C   0  0  0  0  0  0  0  0  0  0  0  0
  -24.8835  -13.2696   20.8686 C   0  0  0  0  0  0  0  0  0  0  0  0
  -23.3065  -15.2343   21.2696 C   0  0  0  0  0  0  0  0  0  0  0  0
  -31.3300  -25.1922   21.0368 C   0  0  0  0  0  0  0  0  0  0  0  0
  -25.5003  -28.3389   20.5016 C   0  0  0  0  0  0  0  0  0  0  0  0
  -29.9737  -25.3434   21.3833 C   0  0  0  0  0  0  0  0  0  0  0  0
  -24.6706  -28.5754   21.6069 C   0  0  0  0  0  0  0  0  0  0  0  0
  -25.6053  -10.5765   20.9612 C   0  0  0  0  0  0  0  0  0  0  0  0
  -22.9595  -27.1667   20.6083 C   0  0  0  0  0  0  0  0  0  0  0  0
  -25.0135   -8.3292   20.6125 C   0  0  0  0  0  0  0  0  0  0  0  0
  -23.1106   -6.4488   19.8215 C   0  0  0  0  0  0  0  0  0  0  0  0
  -25.2807   -7.4736   19.5438 C   0  0  0  0  0  0  0  0  0  0  0  0
  -24.5114  -14.6608   20.8211 C   0  0  0  0  0  0  0  0  0  0  0  0
  -23.7718  -21.5185   22.1951 C   0  0  0  0  0  0  0  0  0  0  0  0
  -26.2998  -20.6565   22.3589 C   0  0  0  0  0  0  0  0  0  0  0  0
  -23.4442  -16.5747   21.0031 C   0  0  0  0  0  0  0  0  0  0  0  0
  -22.1650  -14.6112   21.8731 C   0  0  0  0  0  0  0  0  0  0  0  0
  -27.9236  -28.1863   22.5530 C   0  0  0  0  0  0  0  0  0  0  0  0
  -26.8682  -31.1294   23.4171 C   0  0  0  0  0  0  0  0  0  0  0  0
  -24.2844  -33.3545   23.5588 C   0  0  0  0  0  0  0  0  0  0  0  0
  -28.6471  -19.7653   20.1178 C   0  0  0  0  0  0  0  0  0  0  0  0
  -32.4255  -25.9038   21.7907 C   0  0  0  0  0  0  0  0  0  0  0  0
  -26.8554  -28.9859   20.4139 C   0  0  0  0  0  0  0  0  0  0  0  0
  -25.1072  -29.4488   22.7537 C   0  0  0  0  0  0  0  0  0  0  0  0
  -31.9268  -27.0854   22.6185 C   0  0  0  0  0  0  0  0  0  0  0  0
  -25.5863  -19.6098   18.0317 C   0  0  0  0  0  0  0  0  0  0  0  0
  -30.6839  -26.6947   23.4119 C   0  0  0  0  0  0  0  0  0  0  0  0
  -24.9248  -18.3168   18.4984 C   0  0  0  0  0  0  0  0  0  0  0  0
  -21.7631  -22.6752   23.3387 C   0  0  0  0  0  0  0  0  0  0  0  0
  -27.0982  -19.5680   18.2223 C   0  0  0  0  0  0  0  0  0  0  0  0
  -29.8067  -20.6088   22.2197 C   0  0  0  0  0  0  0  0  0  0  0  0
  -26.8495  -17.9836   20.1046 C   0  0  0  0  0  0  0  0  0  0  0  0
  -29.5364  -26.2932   22.4773 C   0  0  1  0  0  0  0  0  0  0  0  0
  -22.3559  -21.9789   22.1381 C   0  0  1  0  0  0  0  0  0  0  0  0
  -27.7563  -20.0681   22.5881 C   0  0  2  0  0  0  0  0  0  0  0  0
  -27.4228  -29.3713   21.7766 C   0  0  1  0  0  0  0  0  0  0  0  0
  -28.7739  -21.0252   23.2722 C   0  0  1  0  0  0  0  0  0  0  0  0
  -25.3198  -18.0030   19.9492 C   0  0  2  0  0  0  0  0  0  0  0  0
  -22.0695  -23.4609   22.1006 C   0  0  1  0  0  0  0  0  0  0  0  0
  -29.1234  -20.7161   24.7162 C   0  0  0  0  0  0  0  0  0  0  0  0
  -23.7162  -35.6652   24.3556 C   0  0  0  0  0  0  0  0  0  0  0  0
  -26.7582  -30.1089   26.2905 C   0  0  0  0  0  0  0  0  0  0  0  0
  -25.3229  -32.0791   26.8616 C   0  0  0  0  0  0  0  0  0  0  0  0
  -27.6524  -32.4311   26.0417 C   0  0  0  0  0  0  0  0  0  0  0  0
  -23.6188  -34.2604   20.8210 C   0  0  0  0  0  0  0  0  0  0  0  0
  -20.2042  -25.0964   21.8102 C   0  0  0  0  0  0  0  0  0  0  0  0
  -21.1668  -26.2600   21.9434 C   0  0  0  0  0  0  0  0  0  1  0  0
  -25.8724  -31.6554   24.4225 C   0  0  1  0  0  0  0  0  0  0  0  0
  -24.1983  -34.8231   23.1846 C   0  0  2  0  0  0  0  0  0  0  0  0
  -26.3937  -31.5506   25.8835 C   0  0  0  0  0  0  0  0  0  0  0  0
  -25.3525  -15.5630   20.3085 N   0  0  0  0  0  0  0  0  0  0  0  0
  -24.1289  -20.7186   23.2221 N   0  0  0  0  0  0  0  0  0  0  0  0
  -25.4138  -20.2806   23.3054 N   0  0  0  0  0  0  0  0  0  0  0  0
  -24.6751  -16.7169   20.4332 N   0  0  0  0  0  0  0  0  0  0  0  0
  -26.4431  -30.0539   22.6243 N   0  0  0  0  0  0  0  0  0  0  0  0
  -27.4718  -19.2126   19.5939 N   0  0  0  0  0  0  0  0  0  0  0  0
  -28.7048  -20.0163   21.4691 N   0  0  0  0  0  0  0  0  0  0  0  0
  -22.6312  -17.6337   21.2031 N   0  0  0  0  0  0  0  0  0  0  0  0
  -22.1893  -13.2245   22.0746 N   0  0  0  0  0  0  0  0  0  0  0  0
  -28.9131  -27.4688   21.9083 N   0  0  0  0  0  0  0  0  0  0  0  0
  -25.5452  -33.0132   24.0008 N   0  0  0  0  0  0  0  0  0  0  0  0
  -20.9378  -23.9076   21.2786 N   0  3  0  0  0  0  0  0  0  0  0  0
  -23.2531  -35.0135   22.0482 N   0  3  0  0  0  0  0  0  0  0  0  0
  -21.1467  -15.2625   22.2083 O   0  0  0  0  0  0  0  0  0  0  0  0
  -27.4486  -27.9419   23.6558 O   0  0  0  0  0  0  0  0  0  0  0  0
  -27.9796  -31.6579   23.3332 O   0  0  0  0  0  0  0  0  0  0  0  0
  -23.3280  -32.5876   23.4715 O   0  0  0  0  0  0  0  0  0  0  0  0
  -29.6100  -20.0518   19.3933 O   0  0  0  0  0  0  0  0  0  0  0  0
  -25.9574   -9.2625   21.0069 O   0  0  0  0  0  0  0  0  0  0  0  0
  -21.7015  -26.5836   20.6668 O   0  0  0  0  0  0  0  0  0  1  0  0
  -22.1974   -5.5450   19.4428 F   0  0  0  0  0  0  0  0  0  0  0  0
  -26.4502   -7.5494   18.8938 F   0  0  0  0  0  0  0  0  0  0  0  0
  1  2  1  0  0  0  0
  1  5  2  0  0  0  0
  2  6  2  0  0  0  0
  3  8  2  0  0  0  0
  3 17  1  0  0  0  0
  4  9  1  0  0  0  0
  4 17  2  0  0  0  0
  5 19  1  0  0  0  0
  6 21  1  0  0  0  0
  7 10  2  0  0  0  0
  7 20  1  0  0  0  0
  8 23  1  0  0  0  0
  9 23  2  0  0  0  0
 10 24  1  0  0  0  0
 11 12  2  0  0  0  0
 11 25  1  0  0  0  0
 12 26  1  0  0  0  0
 13 14  2  0  0  0  0
 13 29  1  0  0  0  0
 14 30  1  0  0  0  0
 15 22  1  0  0  0  0
 15 24  2  0  0  0  0
 16 26  2  0  0  0  0
 16 27  1  0  0  0  0
 17 28  1  0  0  0  0
 18 28  1  0  0  0  0
 18 31  2  0  0  0  0
 18 32  1  0  0  0  0
 19 21  2  0  0  0  0
 19 37  1  0  0  0  0
 20 22  2  0  0  0  0
 20 38  1  0  0  0  0
 21 48  1  0  0  0  0
 22 39  1  0  0  0  0
 23 84  1  0  0  0  0
 24 85  1  0  0  0  0
 25 27  2  0  0  0  0
 25 84  1  0  0  0  0
 26 86  1  0  0  0  0
 27 87  1  0  0  0  0
 28 66  2  0  0  0  0
 29 49  1  0  0  0  0
 29 67  2  0  0  0  0
 30 50  1  0  0  0  0
 30 68  2  0  0  0  0
 31 69  1  0  0  0  0
 31 73  1  0  0  0  0
 32 74  1  0  0  0  0
 32 79  2  0  0  0  0
 33 51  1  0  0  0  0
 33 75  1  0  0  0  0
 33 80  2  0  0  0  0
 34 63  1  0  0  0  0
 34 70  1  0  0  0  0
 34 81  2  0  0  0  0
 35 64  1  0  0  0  0
 35 76  1  0  0  0  0
 35 82  2  0  0  0  0
 36 71  1  0  0  0  0
 36 72  1  0  0  0  0
 36 83  2  0  0  0  0
 37 40  1  0  0  0  0
 38 51  1  0  0  0  0
 39 70  1  0  0  0  0
 40 42  1  0  0  0  0
 41 43  1  0  0  0  0
 41 45  1  0  0  0  0
 42 48  1  0  0  0  0
 43 53  1  0  0  0  0
 44 49  1  0  0  0  0
 44 54  1  0  0  0  0
 45 71  1  0  0  0  0
 46 52  1  0  0  0  0
 46 72  1  0  0  0  0
 47 53  1  0  0  0  0
 47 71  1  0  0  0  0
 48 75  1  0  0  0  0
 49 54  1  0  0  0  0
 50 52  1  0  0  0  0
 50 72  1  0  0  0  0
 51 70  1  0  0  0  0
 52 55  1  0  0  0  0
 53 69  1  0  0  0  0
 54 77  1  0  0  0  0
 56 64  1  0  0  0  0
 57 65  1  0  0  0  0
 58 65  1  0  0  0  0
 59 65  1  0  0  0  0
 60 78  1  0  0  0  0
 61 62  1  0  0  0  0
 61 77  1  0  0  0  0
 62 85  1  0  0  0  0
 63 65  1  0  0  0  0
 63 76  1  0  0  0  0
 64 78  1  0  0  0  0
 66 69  1  0  0  0  0
 67 68  1  0  0  0  0
M  CHG  2  77   1  78   1
M  ISO  4  36 100  62 101  72 100  85 101
M  END
> <Batch ID>
0198

> <Smiles>
CNC(C)C(=O)NC(C(=O)N1Cc2cc([101O:1][101CH2:1]CNC3CC3c3ccc(C4C(C)C[100N:0]4[100C:0](=O)N4CCCC(n5nc(-c6ccc(Oc7ccc(F)cc7F)cc6)c(C(N)=O)c5N)C4)nn3)ccc2CC1C(=O)NC1CCCc2ccccc21)C(C)(C)C

> <Shape>
0.233

> <Color>
0.085

> <Negative vol penalty>
0.000

$$$$

  -OEChem-04052323483D

 83 91  0     1  0  0  0  0  0999 V2000
  -27.8927  -33.2465   26.2527 C   0  0  0  0  0  0  0  0  0  0  0  0
  -28.0477  -32.0387   25.5800 C   0  0  0  0  0  0  0  0  0  0  0  0
  -22.4474  -14.5713   19.5014 C   0  0  0  0  0  0  0  0  0  0  0  0
  -24.0784  -16.2603   20.0708 C   0  0  0  0  0  0  0  0  0  0  0  0
  -26.6151  -33.7151   26.5561 C   0  0  0  0  0  0  0  0  0  0  0  0
  -26.9251  -31.2982   25.2113 C   0  0  0  0  0  0  0  0  0  0  0  0
  -27.2266  -29.5432   20.4706 C   0  0  0  0  0  0  0  0  0  0  0  0
  -21.5442  -15.5680   19.1321 C   0  0  0  0  0  0  0  0  0  0  0  0
  -23.1752  -17.2570   19.7015 C   0  0  0  0  0  0  0  0  0  0  0  0
  -28.0275  -28.4222   20.2563 C   0  0  0  0  0  0  0  0  0  0  0  0
  -21.1722  -20.2559   19.2491 C   0  0  0  0  0  0  0  0  0  0  0  0
  -21.0347  -21.3534   20.0988 C   0  0  0  0  0  0  0  0  0  0  0  0
  -26.0610  -27.0250   20.2549 C   0  0  0  0  0  0  0  0  0  0  0  0
  -20.3313  -19.8840   21.8829 C   0  0  0  0  0  0  0  0  0  0  0  0
  -23.7145  -14.9174   19.9708 C   0  0  0  0  0  0  0  0  0  0  0  0
  -24.4761  -12.9146   21.3551 C   0  0  0  0  0  0  0  0  0  0  0  0
  -25.4760  -32.9847   26.1824 C   0  0  0  0  0  0  0  0  0  0  0  0
  -25.8356  -29.4119   20.5897 C   0  0  0  0  0  0  0  0  0  0  0  0
  -25.6311  -31.7568   25.5112 C   0  0  0  0  0  0  0  0  0  0  0  0
  -25.2445  -28.1462   20.4681 C   0  0  0  0  0  0  0  0  0  0  0  0
  -21.9081  -16.9108   19.2321 C   0  0  0  0  0  0  0  0  0  0  0  0
  -27.4450  -27.1626   20.1514 C   0  0  0  0  0  0  0  0  0  0  0  0
  -20.8893  -18.9724   19.7162 C   0  0  0  0  0  0  0  0  0  0  0  0
  -20.6143  -21.1675   21.4158 C   0  0  0  0  0  0  0  0  0  0  0  0
  -20.4688  -18.7864   21.0332 C   0  0  0  0  0  0  0  0  0  0  0  0
  -24.6478  -13.8883   20.3530 C   0  0  0  0  0  0  0  0  0  0  0  0
  -25.6377  -12.1822   21.3248 C   0  0  0  0  0  0  0  0  0  0  0  0
  -23.3659  -12.6918   22.2345 C   0  0  0  0  0  0  0  0  0  0  0  0
  -23.7142  -30.0081   22.8805 C   0  0  0  0  0  0  0  0  0  0  0  0
  -21.5783  -29.2315   20.5660 C   0  0  0  0  0  0  0  0  0  0  0  0
  -21.2966  -26.7404   17.9712 C   0  0  0  0  0  0  0  0  0  0  0  0
  -28.8271  -15.3355   21.2837 C   0  0  0  0  0  0  0  0  0  0  0  0
  -24.1170  -33.5086   26.5741 C   0  0  0  0  0  0  0  0  0  0  0  0
  -24.9832  -30.6342   20.7940 C   0  0  0  0  0  0  0  0  0  0  0  0
  -23.7540  -27.9541   20.5684 C   0  0  0  0  0  0  0  0  0  0  0  0
  -22.9680  -32.8472   25.8173 C   0  0  0  0  0  0  0  0  0  0  0  0
  -28.5857  -13.9349   18.0643 C   0  0  0  0  0  0  0  0  0  0  0  0
  -23.1444  -31.3322   25.7967 C   0  0  0  0  0  0  0  0  0  0  0  0
  -28.1615  -12.5049   18.4135 C   0  0  0  0  0  0  0  0  0  0  0  0
  -29.0229  -18.9545   20.4868 C   0  0  0  0  0  0  0  0  0  0  0  0
  -31.2722  -17.9006   20.0637 C   0  0  0  0  0  0  0  0  0  0  0  0
  -29.6293  -14.4908   19.0297 C   0  0  0  0  0  0  0  0  0  0  0  0
  -28.6735  -17.7934   21.4147 C   0  0  0  0  0  0  0  0  0  0  0  0
  -30.8851  -16.7633   21.0043 C   0  0  0  0  0  0  0  0  0  0  0  0
  -28.9116  -12.9100   20.7806 C   0  0  0  0  0  0  0  0  0  0  0  0
  -24.4371  -30.9370   25.0727 C   0  0  1  0  0  0  0  0  0  0  0  0
  -23.6251  -30.3189   21.4132 C   0  0  1  0  0  0  0  0  0  0  0  0
  -27.7976  -12.3036   19.9019 C   0  0  1  0  0  0  0  0  0  0  0  0
  -30.5354  -19.1923   20.4343 C   0  0  0  0  0  0  0  0  0  0  0  0
  -20.0731  -26.7972   15.7810 C   0  0  0  0  0  0  0  0  0  0  0  0
  -19.3177  -27.9013   22.1250 C   0  0  0  0  0  0  0  0  0  0  0  0
  -18.8456  -26.4973   20.1066 C   0  0  0  0  0  0  0  0  0  0  0  0
  -18.6133  -28.9777   19.9803 C   0  0  0  0  0  0  0  0  0  0  0  0
  -32.2467  -20.1611   19.0551 C   0  0  0  0  0  0  0  0  0  0  0  0
  -23.7486  -26.0782   16.4520 C   0  0  0  0  0  0  0  0  0  0  0  0
  -30.5538  -21.5599   20.0299 C   0  0  0  0  0  0  0  0  0  0  0  0
  -30.3397  -22.5705   18.9190 C   0  0  0  0  0  0  0  0  0  0  0  0
  -29.8152  -24.9764   18.5004 C   0  0  0  0  0  0  0  0  0  0  0  0
  -29.4352  -26.2584   19.2147 C   0  0  0  0  0  0  0  0  0  1  0  0
  -20.9216  -27.9536   20.1025 C   0  0  1  0  0  0  0  0  0  0  0  0
  -21.4152  -26.9691   16.4752 C   0  0  2  0  0  0  0  0  0  0  0  0
  -19.4504  -27.8324   20.5905 C   0  0  0  0  0  0  0  0  0  0  0  0
  -25.8257  -13.7867   19.7316 N   0  0  0  0  0  0  0  0  0  0  0  0
  -26.4048  -12.7404   20.3448 N   0  0  0  0  0  0  0  0  0  0  0  0
  -22.9638  -29.1790   20.7747 N   0  0  0  0  0  0  0  0  0  0  0  0
  -29.2040  -14.2970   20.4194 N   0  0  0  0  0  0  0  0  0  0  0  0
  -29.4278  -16.5875   21.0729 N   0  0  0  0  0  0  0  0  0  0  0  0
  -26.0676  -11.1218   22.0411 N   0  0  0  0  0  0  0  0  0  0  0  0
  -23.3508  -13.3507   23.4715 N   0  0  0  0  0  0  0  0  0  0  0  0
  -24.2607  -31.0257   23.6390 N   0  0  0  0  0  0  0  0  0  0  0  0
  -21.0748  -27.9188   18.6520 N   0  0  0  0  0  0  0  0  0  0  0  0
  -30.8454  -20.2419   19.4665 N   0  0  2  0  0  0  0  0  0  0  0  0
  -22.3802  -26.0029   15.8784 N   0  3  0  0  0  0  0  0  0  0  0  0
  -29.9926  -23.8900   19.5020 N   0  3  0  0  0  0  0  0  0  0  0  0
  -22.4235  -11.9184   21.9393 O   0  0  0  0  0  0  0  0  0  0  0  0
  -23.3153  -28.9258   23.2942 O   0  0  0  0  0  0  0  0  0  0  0  0
  -20.8885  -30.2409   20.7298 O   0  0  0  0  0  0  0  0  0  0  0  0
  -21.3876  -25.6273   18.4842 O   0  0  0  0  0  0  0  0  0  0  0  0
  -28.0002  -15.1620   22.1877 O   0  0  0  0  0  0  0  0  0  0  0  0
  -21.0271  -17.8837   18.8716 O   0  0  0  0  0  0  0  0  0  0  0  0
  -28.2300  -26.0588   19.9414 O   0  0  0  0  0  0  0  0  0  1  0  0
  -20.4837  -22.2214   22.2321 F   0  0  0  0  0  0  0  0  0  0  0  0
  -20.1967  -17.5556   21.4880 F   0  0  0  0  0  0  0  0  0  0  0  0
  1  2  1  0  0  0  0
  1  5  2  0  0  0  0
  2  6  2  0  0  0  0
  3  8  2  0  0  0  0
  3 15  1  0  0  0  0
  4  9  1  0  0  0  0
  4 15  2  0  0  0  0
  5 17  1  0  0  0  0
  6 19  1  0  0  0  0
  7 10  2  0  0  0  0
  7 18  1  0  0  0  0
  8 21  1  0  0  0  0
  9 21  2  0  0  0  0
 10 22  1  0  0  0  0
 11 12  2  0  0  0  0
 11 23  1  0  0  0  0
 12 24  1  0  0  0  0
 13 20  1  0  0  0  0
 13 22  2  0  0  0  0
 14 24  2  0  0  0  0
 14 25  1  0  0  0  0
 15 26  1  0  0  0  0
 16 26  1  0  0  0  0
 16 27  2  0  0  0  0
 16 28  1  0  0  0  0
 17 19  2  0  0  0  0
 17 33  1  0  0  0  0
 18 20  2  0  0  0  0
 18 34  1  0  0  0  0
 19 46  1  0  0  0  0
 20 35  1  0  0  0  0
 21 80  1  0  0  0  0
 22 81  1  0  0  0  0
 23 25  2  0  0  0  0
 23 80  1  0  0  0  0
 24 82  1  0  0  0  0
 25 83  1  0  0  0  0
 26 63  2  0  0  0  0
 27 64  1  0  0  0  0
 27 68  1  0  0  0  0
 28 69  1  0  0  0  0
 28 75  2  0  0  0  0
 29 47  1  0  0  0  0
 29 70  1  0  0  0  0
 29 76  2  0  0  0  0
 30 60  1  0  0  0  0
 30 65  1  0  0  0  0
 30 77  2  0  0  0  0
 31 61  1  0  0  0  0
 31 71  1  0  0  0  0
 31 78  2  0  0  0  0
 32 66  1  0  0  0  0
 32 67  1  0  0  0  0
 32 79  2  0  0  0  0
 33 36  1  0  0  0  0
 34 47  1  0  0  0  0
 35 65  1  0  0  0  0
 36 38  1  0  0  0  0
 37 39  1  0  0  0  0
 37 42  1  0  0  0  0
 38 46  1  0  0  0  0
 39 48  1  0  0  0  0
 40 43  1  0  0  0  0
 40 49  1  0  0  0  0
 41 44  1  0  0  0  0
 41 49  1  0  0  0  0
 42 66  1  0  0  0  0
 43 67  1  0  0  0  0
 44 67  1  0  0  0  0
 45 48  1  0  0  0  0
 45 66  1  0  0  0  0
 46 70  1  0  0  0  0
 47 65  1  0  0  0  0
 48 64  1  0  0  0  0
 49 72  1  0  0  0  0
 50 61  1  0  0  0  0
 51 62  1  0  0  0  0
 52 62  1  0  0  0  0
 53 62  1  0  0  0  0
 54 72  1  0  0  0  0
 55 73  1  0  0  0  0
 56 57  1  0  0  0  0
 56 72  1  0  0  0  0
 57 74  1  0  0  0  0
 58 59  1  0  0  0  0
 58 74  1  0  0  0  0
 59 81  1  0  0  0  0
 60 62  1  0  0  0  0
 60 71  1  0  0  0  0
 61 73  1  0  0  0  0
 63 64  1  0  0  0  0
M  CHG  2  73   1  74   1
M  ISO  4  32 100  59 101  67 100  81 101
M  END
> <Batch ID>
0198

> <Smiles>
CNC(C)C(=O)NC(C(=O)N1Cc2cc([101O:1][101CH2:1]CNCCN(C)C3CC[100N:0]([100C:0](=O)N4CCCC(n5nc(-c6ccc(Oc7ccc(F)cc7F)cc6)c(C(N)=O)c5N)C4)CC3)ccc2CC1C(=O)NC1CCCc2ccccc21)C(C)(C)C

> <Shape>
0.292

> <Color>
0.082

> <Negative vol penalty>
0.000

$$$$

  -OEChem-04052323483D

 81 90  0     1  0  0  0  0  0999 V2000
  -22.3956  -27.5113   28.2237 C   0  0  0  0  0  0  0  0  0  0  0  0
  -22.9914  -26.6088   27.3485 C   0  0  0  0  0  0  0  0  0  0  0  0
  -23.0764   -9.7851   19.9684 C   0  0  0  0  0  0  0  0  0  0  0  0
  -23.8106   -9.8609   22.2689 C   0  0  0  0  0  0  0  0  0  0  0  0
  -21.0620  -27.8767   28.0454 C   0  0  0  0  0  0  0  0  0  0  0  0
  -22.2534  -26.0703   26.2950 C   0  0  0  0  0  0  0  0  0  0  0  0
  -24.8195  -26.0638   21.9292 C   0  0  0  0  0  0  0  0  0  0  0  0
  -22.3447   -8.6291   20.2400 C   0  0  0  0  0  0  0  0  0  0  0  0
  -23.0788   -8.7049   22.5405 C   0  0  0  0  0  0  0  0  0  0  0  0
  -25.7795  -25.0677   21.7564 C   0  0  0  0  0  0  0  0  0  0  0  0
  -19.3909   -7.8314   21.6794 C   0  0  0  0  0  0  0  0  0  0  0  0
  -18.0902   -7.7556   21.1814 C   0  0  0  0  0  0  0  0  0  0  0  0
  -24.2208  -23.8068   20.4148 C   0  0  0  0  0  0  0  0  0  0  0  0
  -18.6895   -5.7867   19.9159 C   0  0  0  0  0  0  0  0  0  0  0  0
  -28.8925  -20.9383   21.9464 C   0  0  0  0  0  0  0  0  0  0  0  0
  -23.8094  -10.4010   20.9828 C   0  0  0  0  0  0  0  0  0  0  0  0
  -24.1202  -12.9265   20.8013 C   0  0  0  0  0  0  0  0  0  0  0  0
  -20.3101  -27.3498   26.9835 C   0  0  0  0  0  0  0  0  0  0  0  0
  -23.5471  -25.9336   21.3542 C   0  0  0  0  0  0  0  0  0  0  0  0
  -20.9080  -26.4280   26.1031 C   0  0  0  0  0  0  0  0  0  0  0  0
  -23.2473  -24.8039   20.5796 C   0  0  0  0  0  0  0  0  0  0  0  0
  -22.3458   -8.0890   21.5260 C   0  0  0  0  0  0  0  0  0  0  0  0
  -25.4793  -23.9376   21.0015 C   0  0  0  0  0  0  0  0  0  0  0  0
  -20.3410   -6.8849   21.2956 C   0  0  0  0  0  0  0  0  0  0  0  0
  -17.7395   -6.7333   20.2997 C   0  0  0  0  0  0  0  0  0  0  0  0
  -19.9902   -5.8626   20.4139 C   0  0  0  0  0  0  0  0  0  0  0  0
  -24.5660  -11.5948   20.7028 C   0  0  0  0  0  0  0  0  0  0  0  0
  -29.6853  -20.1463   21.1543 C   0  0  0  0  0  0  0  0  0  0  0  0
  -25.2066  -13.6806   20.4307 C   0  0  0  0  0  0  0  0  0  0  0  0
  -22.8386  -13.4362   21.1930 C   0  0  0  0  0  0  0  0  0  0  0  0
  -20.5824  -25.7493   22.4856 C   0  0  0  0  0  0  0  0  0  0  0  0
  -19.7912  -25.8775   19.3424 C   0  0  0  0  0  0  0  0  0  0  0  0
  -20.7142  -25.3543   16.0988 C   0  0  0  0  0  0  0  0  0  0  0  0
  -30.6672  -14.7857   20.6341 C   0  0  0  0  0  0  0  0  0  0  0  0
  -18.8581  -27.7383   26.8591 C   0  0  0  0  0  0  0  0  0  0  0  0
  -22.5316  -27.0295   21.5278 C   0  0  0  0  0  0  0  0  0  0  0  0
  -21.9030  -24.6257   19.9243 C   0  0  0  0  0  0  0  0  0  0  0  0
  -18.2541  -27.4094   25.4963 C   0  0  0  0  0  0  0  0  0  0  0  0
  -29.5963  -12.3157   18.3180 C   0  0  0  0  0  0  0  0  0  0  0  0
  -18.6281  -25.9919   25.0748 C   0  0  0  0  0  0  0  0  0  0  0  0
  -28.1570  -12.0154   18.7399 C   0  0  0  0  0  0  0  0  0  0  0  0
  -30.4945  -12.5799   19.5245 C   0  0  0  0  0  0  0  0  0  0  0  0
  -28.5676  -13.3212   20.8676 C   0  0  0  0  0  0  0  0  0  0  0  0
  -29.7936  -18.0465   22.4637 C   0  0  0  0  0  0  0  0  0  0  0  0
  -30.8375  -18.0151   20.6391 C   0  0  0  0  0  0  0  0  0  0  0  0
  -20.1476  -25.8411   24.9337 C   0  0  1  0  0  0  0  0  0  0  0  0
  -21.0969  -26.5524   21.3246 C   0  0  1  0  0  0  0  0  0  0  0  0
  -27.6099  -13.1037   19.6834 C   0  0  2  0  0  0  0  0  0  0  0  0
  -30.7104  -17.0126   21.7949 C   0  0  0  0  0  0  0  0  0  0  0  0
  -19.8407  -25.5145   13.7517 C   0  0  0  0  0  0  0  0  0  0  0  0
  -18.1643  -23.3330   19.7768 C   0  0  0  0  0  0  0  0  0  0  0  0
  -18.1150  -23.0236   17.2928 C   0  0  0  0  0  0  0  0  0  0  0  0
  -17.0623  -25.0394   18.3180 C   0  0  0  0  0  0  0  0  0  0  0  0
  -22.7865  -27.3257   15.3384 C   0  0  0  0  0  0  0  0  0  0  0  0
  -27.6874  -23.1584   21.4541 C   0  0  0  0  0  0  0  0  0  1  0  0
  -19.5830  -24.8567   18.2498 C   0  0  1  0  0  0  0  0  0  0  0  0
  -20.5935  -26.2285   14.8636 C   0  0  2  0  0  0  0  0  0  0  0  0
  -18.2560  -24.0653   18.4232 C   0  0  0  0  0  0  0  0  0  0  0  0
  -25.8366  -11.5048   20.3008 N   0  0  0  0  0  0  0  0  0  0  0  0
  -29.8002  -20.7070   19.9126 N   0  0  0  0  0  0  0  0  0  0  0  0
  -29.0977  -21.8346   19.9073 N   0  0  0  0  0  0  0  0  0  0  0  0
  -28.5544  -21.9715   21.1277 N   0  0  0  0  0  0  0  0  0  0  0  0
  -26.1984  -12.7895   20.1434 N   0  0  0  0  0  0  0  0  0  0  0  0
  -30.2731  -18.9864   21.5106 N   0  0  0  0  0  0  0  0  0  0  0  0
  -20.9416  -25.7218   20.1286 N   0  0  0  0  0  0  0  0  0  0  0  0
  -29.9197  -13.6263   20.3738 N   0  0  0  0  0  0  0  0  0  0  0  0
  -25.4007  -15.0124   20.3256 N   0  0  0  0  0  0  0  0  0  0  0  0
  -21.8347  -12.5228   21.5427 N   0  0  0  0  0  0  0  0  0  0  0  0
  -20.6003  -26.4265   23.6900 N   0  0  0  0  0  0  0  0  0  0  0  0
  -19.6857  -25.5823   16.9883 N   0  0  0  0  0  0  0  0  0  0  0  0
  -30.0527  -15.7380   21.4406 N   0  0  0  0  0  0  0  0  0  0  0  0
  -21.9452  -26.5962   14.3551 N   0  3  0  0  0  0  0  0  0  0  0  0
  -22.5860  -14.6647   21.2160 O   0  0  0  0  0  0  0  0  0  0  0  0
  -20.1964  -24.6008   22.3020 O   0  0  0  0  0  0  0  0  0  0  0  0
  -18.9673  -26.7839   19.4881 O   0  0  0  0  0  0  0  0  0  0  0  0
  -21.6275  -24.5471   16.2568 O   0  0  0  0  0  0  0  0  0  0  0  0
  -31.8005  -14.9698   20.1767 O   0  0  0  0  0  0  0  0  0  0  0  0
  -21.6317   -6.9611   21.7915 O   0  0  0  0  0  0  0  0  0  0  0  0
  -26.4143  -22.9635   20.8318 O   0  0  0  0  0  0  0  0  0  1  0  0
  -16.4900   -6.6597   19.8227 F   0  0  0  0  0  0  0  0  0  0  0  0
  -20.8983   -4.9497   20.0425 F   0  0  0  0  0  0  0  0  0  0  0  0
  1  2  1  0  0  0  0
  1  5  2  0  0  0  0
  2  6  2  0  0  0  0
  3  8  2  0  0  0  0
  3 16  1  0  0  0  0
  4  9  1  0  0  0  0
  4 16  2  0  0  0  0
  5 18  1  0  0  0  0
  6 20  1  0  0  0  0
  7 10  2  0  0  0  0
  7 19  1  0  0  0  0
  8 22  1  0  0  0  0
  9 22  2  0  0  0  0
 10 23  1  0  0  0  0
 11 12  2  0  0  0  0
 11 24  1  0  0  0  0
 12 25  1  0  0  0  0
 13 21  1  0  0  0  0
 13 23  2  0  0  0  0
 14 25  2  0  0  0  0
 14 26  1  0  0  0  0
 15 28  2  0  0  0  0
 15 62  1  0  0  0  0
 16 27  1  0  0  0  0
 17 27  1  0  0  0  0
 17 29  2  0  0  0  0
 17 30  1  0  0  0  0
 18 20  2  0  0  0  0
 18 35  1  0  0  0  0
 19 21  2  0  0  0  0
 19 36  1  0  0  0  0
 20 46  1  0  0  0  0
 21 37  1  0  0  0  0
 22 78  1  0  0  0  0
 23 79  1  0  0  0  0
 24 26  2  0  0  0  0
 24 78  1  0  0  0  0
 25 80  1  0  0  0  0
 26 81  1  0  0  0  0
 27 59  2  0  0  0  0
 28 60  1  0  0  0  0
 28 64  1  0  0  0  0
 29 63  1  0  0  0  0
 29 67  1  0  0  0  0
 30 68  1  0  0  0  0
 30 73  2  0  0  0  0
 31 47  1  0  0  0  0
 31 69  1  0  0  0  0
 31 74  2  0  0  0  0
 32 56  1  0  0  0  0
 32 65  1  0  0  0  0
 32 75  2  0  0  0  0
 33 57  1  0  0  0  0
 33 70  1  0  0  0  0
 33 76  2  0  0  0  0
 34 66  1  0  0  0  0
 34 71  1  0  0  0  0
 34 77  2  0  0  0  0
 35 38  1  0  0  0  0
 36 47  1  0  0  0  0
 37 65  1  0  0  0  0
 38 40  1  0  0  0  0
 39 41  1  0  0  0  0
 39 42  1  0  0  0  0
 40 46  1  0  0  0  0
 41 48  1  0  0  0  0
 42 66  1  0  0  0  0
 43 48  1  0  0  0  0
 43 66  1  0  0  0  0
 44 49  1  0  0  0  0
 44 64  1  0  0  0  0
 45 49  1  0  0  0  0
 45 64  1  0  0  0  0
 46 69  1  0  0  0  0
 47 65  1  0  0  0  0
 48 63  1  0  0  0  0
 49 71  1  0  0  0  0
 50 57  1  0  0  0  0
 51 58  1  0  0  0  0
 52 58  1  0  0  0  0
 53 58  1  0  0  0  0
 54 72  1  0  0  0  0
 55 62  1  0  0  0  0
 55 79  1  0  0  0  0
 56 58  1  0  0  0  0
 56 70  1  0  0  0  0
 57 72  1  0  0  0  0
 59 63  1  0  0  0  0
 60 61  2  0  0  0  0
 61 62  1  0  0  0  0
M  CHG  1  72   1
M  ISO  4  34 100  55 101  71 100  79 101
M  END
> <Batch ID>
0198

> <Smiles>
CNC(C)C(=O)NC(C(=O)N1Cc2cc([101O:1][101CH2:1]n3cc(N4CC([100NH:0][100C:0](=O)N5CCCC(n6nc(-c7ccc(Oc8ccc(F)cc8F)cc7)c(C(N)=O)c6N)C5)C4)nn3)ccc2CC1C(=O)NC1CCCc2ccccc21)C(C)(C)C

> <Shape>
0.214

> <Color>
0.209

> <Negative vol penalty>
0.000

$$$$

  -OEChem-04052323483D

 86 96  0     1  0  0  0  0  0999 V2000
  -16.5329  -28.8420   20.3877 C   0  0  0  0  0  0  0  0  0  0  0  0
  -17.3716  -29.8203   19.8633 C   0  0  0  0  0  0  0  0  0  0  0  0
  -23.7631  -11.8723   20.0952 C   0  0  0  0  0  0  0  0  0  0  0  0
  -25.9707  -12.1231   21.0443 C   0  0  0  0  0  0  0  0  0  0  0  0
  -16.7772  -28.3244   21.6591 C   0  0  0  0  0  0  0  0  0  0  0  0
  -18.4545  -30.2824   20.6105 C   0  0  0  0  0  0  0  0  0  0  0  0
  -26.0528  -30.4853   18.8073 C   0  0  0  0  0  0  0  0  0  0  0  0
  -23.9337  -10.4883   20.0639 C   0  0  0  0  0  0  0  0  0  0  0  0
  -26.1413  -10.7390   21.0131 C   0  0  0  0  0  0  0  0  0  0  0  0
  -27.4394  -30.4285   18.6657 C   0  0  0  0  0  0  0  0  0  0  0  0
  -23.7790   -7.9095   22.2454 C   0  0  0  0  0  0  0  0  0  0  0  0
  -22.7227   -7.1159   22.6926 C   0  0  0  0  0  0  0  0  0  0  0  0
  -27.6912  -30.3237   21.0685 C   0  0  0  0  0  0  0  0  0  0  0  0
  -22.5889   -6.0692   20.5192 C   0  0  0  0  0  0  0  0  0  0  0  0
  -24.7816  -12.6898   20.5854 C   0  0  0  0  0  0  0  0  0  0  0  0
  -23.6133  -14.8389   21.3091 C   0  0  0  0  0  0  0  0  0  0  0  0
  -17.8693  -28.7734   22.4183 C   0  0  0  0  0  0  0  0  0  0  0  0
  -25.4787  -30.4460   20.0810 C   0  0  0  0  0  0  0  0  0  0  0  0
  -18.7128  -29.7713   21.8938 C   0  0  0  0  0  0  0  0  0  0  0  0
  -26.3023  -30.3678   21.2160 C   0  0  0  0  0  0  0  0  0  0  0  0
  -25.1228   -9.9217   20.5229 C   0  0  0  0  0  0  0  0  0  0  0  0
  -28.2566  -30.3481   19.7936 C   0  0  0  0  0  0  0  0  0  0  0  0
  -24.2402   -7.7831   20.9350 C   0  0  0  0  0  0  0  0  0  0  0  0
  -22.1277   -6.1958   21.8296 C   0  0  0  0  0  0  0  0  0  0  0  0
  -23.6452   -6.8629   20.0720 C   0  0  0  0  0  0  0  0  0  0  0  0
  -24.6062  -14.1195   20.6174 C   0  0  0  0  0  0  0  0  0  0  0  0
  -23.8787  -16.1551   21.0200 C   0  0  0  0  0  0  0  0  0  0  0  0
  -22.5465  -14.3602   22.1388 C   0  0  0  0  0  0  0  0  0  0  0  0
  -22.3361  -30.4561   22.1303 C   0  0  0  0  0  0  0  0  0  0  0  0
  -24.2372  -28.4260   23.4244 C   0  0  0  0  0  0  0  0  0  0  0  0
  -26.0844  -25.9090   23.8183 C   0  0  0  0  0  0  0  0  0  0  0  0
  -28.9922  -18.7943   19.4047 C   0  0  0  0  0  0  0  0  0  0  0  0
  -18.0654  -28.2181   23.8068 C   0  0  0  0  0  0  0  0  0  0  0  0
  -23.9927  -30.5668   20.2837 C   0  0  0  0  0  0  0  0  0  0  0  0
  -25.6422  -30.3631   22.5678 C   0  0  0  0  0  0  0  0  0  0  0  0
  -19.4526  -28.4921   24.3820 C   0  0  0  0  0  0  0  0  0  0  0  0
  -25.7867  -18.9367   17.6296 C   0  0  0  0  0  0  0  0  0  0  0  0
  -19.8445  -29.9494   24.1595 C   0  0  0  0  0  0  0  0  0  0  0  0
  -25.0389  -17.7589   18.2565 C   0  0  0  0  0  0  0  0  0  0  0  0
  -32.6659  -29.9353   18.7933 C   0  0  0  0  0  0  0  0  0  0  0  0
  -32.4657  -28.9761   17.6548 C   0  0  0  0  0  0  0  0  0  0  0  0
  -28.8039  -25.0776   19.9124 C   0  0  0  0  0  0  0  0  0  0  0  0
  -29.7244  -25.2319   17.5606 C   0  0  0  0  0  0  0  0  0  0  0  0
  -27.2776  -18.6406   17.5211 C   0  0  0  0  0  0  0  0  0  0  0  0
  -27.1888  -17.1061   19.4441 C   0  0  0  0  0  0  0  0  0  0  0  0
  -28.5816  -21.3045   18.7827 C   0  0  0  0  0  0  0  0  0  0  0  0
  -30.5184  -20.8370   19.5320 C   0  0  0  0  0  0  0  0  0  0  0  0
  -29.9316  -25.9786   20.4022 C   0  0  0  0  0  0  0  0  0  0  0  0
  -30.8447  -26.1319   18.0690 C   0  0  0  0  0  0  0  0  0  0  0  0
  -19.9121  -30.2803   22.6637 C   0  0  1  0  0  0  0  0  0  0  0  0
  -23.4763  -29.7362   21.4722 C   0  0  1  0  0  0  0  0  0  0  0  0
  -25.6749  -17.3438   19.5960 C   0  0  2  0  0  0  0  0  0  0  0  0
  -29.1560  -24.3111   18.6388 C   0  0  0  0  0  0  0  0  0  0  0  0
  -29.6094  -22.0672   19.6298 C   0  0  0  0  0  0  0  0  0  0  0  0
  -31.4471  -29.0427   18.7687 C   0  0  0  0  0  0  0  0  0  0  0  0
  -27.1092  -24.0521   25.1597 C   0  0  0  0  0  0  0  0  0  0  0  0
  -24.9748  -30.4968   25.5389 C   0  0  0  0  0  0  0  0  0  0  0  0
  -26.1830  -28.6915   26.7836 C   0  0  0  0  0  0  0  0  0  0  0  0
  -23.7228  -28.5153   26.4109 C   0  0  0  0  0  0  0  0  0  0  0  0
  -24.9617  -23.8385   22.0262 C   0  0  0  0  0  0  0  0  0  0  0  0
  -31.3911  -27.8913   19.7487 C   0  0  0  0  0  0  0  0  0  0  0  0
  -30.1157  -29.6751   18.4696 C   0  0  0  0  0  0  0  0  0  1  0  0
  -25.2990  -28.1718   24.4642 C   0  0  1  0  0  0  0  0  0  0  0  0
  -25.9781  -24.4501   24.2243 C   0  0  2  0  0  0  0  0  0  0  0  0
  -25.0516  -28.9748   25.7724 C   0  0  0  0  0  0  0  0  0  0  0  0
  -25.4400  -14.9130   19.9397 N   0  0  0  0  0  0  0  0  0  0  0  0
  -24.9716  -16.1445   20.2042 N   0  0  0  0  0  0  0  0  0  0  0  0
  -24.4560  -29.4930   22.5446 N   0  0  0  0  0  0  0  0  0  0  0  0
  -27.8336  -18.2693   18.8260 N   0  0  0  0  0  0  0  0  0  0  0  0
  -29.3231  -20.1001   19.1281 N   0  0  0  0  0  0  0  0  0  0  0  0
  -23.2814  -17.3090   21.3865 N   0  0  0  0  0  0  0  0  0  0  0  0
  -22.4180  -12.9777   22.3305 N   0  0  0  0  0  0  0  0  0  0  0  0
  -21.1377  -29.7694   22.0879 N   0  0  0  0  0  0  0  0  0  0  0  0
  -25.3494  -26.7258   24.6512 N   0  0  0  0  0  0  0  0  0  0  0  0
  -30.3669  -26.8933   19.2824 N   0  3  0  0  0  0  0  0  0  0  0  0
  -30.1565  -23.2533   18.9610 N   0  3  0  0  0  0  0  0  0  0  0  0
  -26.0323  -23.5723   23.0212 N   0  3  0  0  0  0  0  0  0  0  0  0
  -21.7215  -15.1344   22.6806 O   0  0  0  0  0  0  0  0  0  0  0  0
  -22.5284  -31.5534   22.6408 O   0  0  0  0  0  0  0  0  0  0  0  0
  -23.2372  -27.7032   23.3943 O   0  0  0  0  0  0  0  0  0  0  0  0
  -26.7557  -26.2866   22.8605 O   0  0  0  0  0  0  0  0  0  0  0  0
  -29.6968  -18.1274   20.1741 O   0  0  0  0  0  0  0  0  0  0  0  0
  -25.2895   -8.5712   20.4928 O   0  0  0  0  0  0  0  0  0  0  0  0
  -29.6215  -30.2878   19.6467 O   0  0  0  0  0  0  0  0  0  1  0  0
  -21.1144   -5.4326   22.2596 F   0  0  0  0  0  0  0  0  0  0  0  0
  -24.0848   -6.7361   18.8124 F   0  0  0  0  0  0  0  0  0  0  0  0
  1  2  1  0  0  0  0
  1  5  2  0  0  0  0
  2  6  2  0  0  0  0
  3  8  2  0  0  0  0
  3 15  1  0  0  0  0
  4  9  1  0  0  0  0
  4 15  2  0  0  0  0
  5 17  1  0  0  0  0
  6 19  1  0  0  0  0
  7 10  2  0  0  0  0
  7 18  1  0  0  0  0
  8 21  1  0  0  0  0
  9 21  2  0  0  0  0
 10 22  1  0  0  0  0
 11 12  2  0  0  0  0
 11 23  1  0  0  0  0
 12 24  1  0  0  0  0
 13 20  1  0  0  0  0
 13 22  2  0  0  0  0
 14 24  2  0  0  0  0
 14 25  1  0  0  0  0
 15 26  1  0  0  0  0
 16 26  1  0  0  0  0
 16 27  2  0  0  0  0
 16 28  1  0  0  0  0
 17 19  2  0  0  0  0
 17 33  1  0  0  0  0
 18 20  2  0  0  0  0
 18 34  1  0  0  0  0
 19 50  1  0  0  0  0
 20 35  1  0  0  0  0
 21 83  1  0  0  0  0
 22 84  1  0  0  0  0
 23 25  2  0  0  0  0
 23 83  1  0  0  0  0
 24 85  1  0  0  0  0
 25 86  1  0  0  0  0
 26 66  2  0  0  0  0
 27 67  1  0  0  0  0
 27 71  1  0  0  0  0
 28 72  1  0  0  0  0
 28 78  2  0  0  0  0
 29 51  1  0  0  0  0
 29 73  1  0  0  0  0
 29 79  2  0  0  0  0
 30 63  1  0  0  0  0
 30 68  1  0  0  0  0
 30 80  2  0  0  0  0
 31 64  1  0  0  0  0
 31 74  1  0  0  0  0
 31 81  2  0  0  0  0
 32 69  1  0  0  0  0
 32 70  1  0  0  0  0
 32 82  2  0  0  0  0
 33 36  1  0  0  0  0
 34 51  1  0  0  0  0
 35 68  1  0  0  0  0
 36 38  1  0  0  0  0
 37 39  1  0  0  0  0
 37 44  1  0  0  0  0
 38 50  1  0  0  0  0
 39 52  1  0  0  0  0
 40 41  1  0  0  0  0
 40 55  1  0  0  0  0
 41 55  1  0  0  0  0
 42 48  1  0  0  0  0
 42 53  1  0  0  0  0
 43 49  1  0  0  0  0
 43 53  1  0  0  0  0
 44 69  1  0  0  0  0
 45 52  1  0  0  0  0
 45 69  1  0  0  0  0
 46 54  1  0  0  0  0
 46 70  1  0  0  0  0
 47 54  1  0  0  0  0
 47 70  1  0  0  0  0
 48 75  1  0  0  0  0
 49 75  1  0  0  0  0
 50 73  1  0  0  0  0
 51 68  1  0  0  0  0
 52 67  1  0  0  0  0
 53 76  1  0  0  0  0
 54 76  1  0  0  0  0
 55 61  1  0  0  0  0
 55 62  1  0  0  0  0
 56 64  1  0  0  0  0
 57 65  1  0  0  0  0
 58 65  1  0  0  0  0
 59 65  1  0  0  0  0
 60 77  1  0  0  0  0
 61 75  1  0  0  0  0
 62 84  1  0  0  0  0
 63 65  1  0  0  0  0
 63 74  1  0  0  0  0
 64 77  1  0  0  0  0
 66 67  1  0  0  0  0
M  CHG  3  75   1  76   1  77   1
M  ISO  4  32 100  62 101  70 100  84 101
M  END
> <Batch ID>
0198

> <Smiles>
CNC(C)C(=O)NC(C(=O)N1Cc2cc([101O:1][101CH2:1]C3(CN4CCC(NC5C[100N:0]([100C:0](=O)N6CCCC(n7nc(-c8ccc(Oc9ccc(F)cc9F)cc8)c(C(N)=O)c7N)C6)C5)CC4)CC3)ccc2CC1C(=O)NC1CCCc2ccccc21)C(C)(C)C

> <Shape>
0.265

> <Color>
0.082

> <Negative vol penalty>
0.000

$$$$

  -OEChem-04052323483D

 78 86  0     1  0  0  0  0  0999 V2000
  -31.9604  -30.3833   24.4659 C   0  0  0  0  0  0  0  0  0  0  0  0
  -31.7059  -29.1079   23.9720 C   0  0  0  0  0  0  0  0  0  0  0  0
  -23.1280   -9.8284   21.3708 C   0  0  0  0  0  0  0  0  0  0  0  0
  -23.8236  -10.6659   23.5276 C   0  0  0  0  0  0  0  0  0  0  0  0
  -31.0146  -31.0204   25.2681 C   0  0  0  0  0  0  0  0  0  0  0  0
  -30.5060  -28.4683   24.2809 C   0  0  0  0  0  0  0  0  0  0  0  0
  -27.3153  -24.6853   20.6734 C   0  0  0  0  0  0  0  0  0  0  0  0
  -22.3937   -8.8221   21.9984 C   0  0  0  0  0  0  0  0  0  0  0  0
  -23.0893   -9.6596   24.1552 C   0  0  0  0  0  0  0  0  0  0  0  0
  -27.2406  -23.2948   20.6053 C   0  0  0  0  0  0  0  0  0  0  0  0
  -23.0043   -5.8367   23.4610 C   0  0  0  0  0  0  0  0  0  0  0  0
  -23.1117   -4.5430   22.9509 C   0  0  0  0  0  0  0  0  0  0  0  0
  -25.2694  -23.3387   21.9952 C   0  0  0  0  0  0  0  0  0  0  0  0
  -20.7358   -4.5183   22.5132 C   0  0  0  0  0  0  0  0  0  0  0  0
  -23.8430  -10.7502   22.1355 C   0  0  0  0  0  0  0  0  0  0  0  0
  -24.1526  -13.0758   21.1336 C   0  0  0  0  0  0  0  0  0  0  0  0
  -29.7983  -30.3922   25.5791 C   0  0  0  0  0  0  0  0  0  0  0  0
  -26.3724  -25.4134   21.4131 C   0  0  0  0  0  0  0  0  0  0  0  0
  -29.5436  -29.0971   25.0892 C   0  0  0  0  0  0  0  0  0  0  0  0
  -25.3329  -24.7386   22.0690 C   0  0  0  0  0  0  0  0  0  0  0  0
  -22.3743   -8.7377   23.3905 C   0  0  0  0  0  0  0  0  0  0  0  0
  -26.2192  -22.6211   21.2686 C   0  0  0  0  0  0  0  0  0  0  0  0
  -21.7626   -6.4713   23.4973 C   0  0  0  0  0  0  0  0  0  0  0  0
  -21.9774   -3.8837   22.4770 C   0  0  0  0  0  0  0  0  0  0  0  0
  -20.6284   -5.8121   23.0233 C   0  0  0  0  0  0  0  0  0  0  0  0
  -24.6022  -11.7896   21.4878 C   0  0  0  0  0  0  0  0  0  0  0  0
  -25.2438  -13.6726   20.5508 C   0  0  0  0  0  0  0  0  0  0  0  0
  -22.8638  -13.6773   21.3151 C   0  0  0  0  0  0  0  0  0  0  0  0
  -26.5044  -27.3380   23.9394 C   0  0  0  0  0  0  0  0  0  0  0  0
  -23.3617  -27.7870   23.2732 C   0  0  0  0  0  0  0  0  0  0  0  0
  -20.5066  -26.5958   21.8322 C   0  0  0  0  0  0  0  0  0  0  0  0
  -30.5881  -14.8319   20.2959 C   0  0  0  0  0  0  0  0  0  0  0  0
  -28.8269  -31.1015   26.4890 C   0  0  0  0  0  0  0  0  0  0  0  0
  -26.4513  -26.9149   21.4547 C   0  0  0  0  0  0  0  0  0  0  0  0
  -24.2839  -25.4752   22.8598 C   0  0  0  0  0  0  0  0  0  0  0  0
  -27.4212  -30.5067   26.4615 C   0  0  0  0  0  0  0  0  0  0  0  0
  -29.6654  -11.7379   19.0591 C   0  0  0  0  0  0  0  0  0  0  0  0
  -27.4828  -28.9863   26.5678 C   0  0  0  0  0  0  0  0  0  0  0  0
  -28.2258  -11.5680   19.5441 C   0  0  0  0  0  0  0  0  0  0  0  0
  -28.8785  -18.1147   20.1309 C   0  0  0  0  0  0  0  0  0  0  0  0
  -28.3901  -17.0498   22.3617 C   0  0  0  0  0  0  0  0  0  0  0  0
  -30.5370  -12.3606   20.1439 C   0  0  0  0  0  0  0  0  0  0  0  0
  -30.1208  -17.2373   20.0050 C   0  0  0  0  0  0  0  0  0  0  0  0
  -29.6437  -16.1970   22.1964 C   0  0  0  0  0  0  0  0  0  0  0  0
  -28.5896  -13.5180   21.1358 C   0  0  0  0  0  0  0  0  0  0  0  0
  -28.2432  -28.3806   25.3819 C   0  0  1  0  0  0  0  0  0  0  0  0
  -25.7368  -27.5177   22.6603 C   0  0  1  0  0  0  0  0  0  0  0  0
  -28.5141  -18.3753   21.5982 C   0  0  0  0  0  0  0  0  0  0  0  0
  -27.6603  -12.8980   20.0730 C   0  0  2  0  0  0  0  0  0  0  0  0
  -18.0884  -27.1689   21.4843 C   0  0  0  0  0  0  0  0  0  0  0  0
  -22.7685  -27.0314   26.1693 C   0  0  0  0  0  0  0  0  0  0  0  0
  -20.3744  -26.6956   25.5182 C   0  0  0  0  0  0  0  0  0  0  0  0
  -21.4218  -28.9486   25.2945 C   0  0  0  0  0  0  0  0  0  0  0  0
  -20.8136  -26.6105   18.8887 C   0  0  0  0  0  0  0  0  0  0  0  0
  -27.2241  -19.1852   21.7029 C   0  0  0  0  0  0  0  0  0  0  0  0
  -27.3693  -20.5504   21.0556 C   0  0  0  0  0  0  0  0  0  1  0  0
  -22.0749  -27.1127   23.6836 C   0  0  1  0  0  0  0  0  0  0  0  0
  -19.4943  -27.2514   20.9104 C   0  0  2  0  0  0  0  0  0  0  0  0
  -21.6806  -27.4327   25.1532 C   0  0  0  0  0  0  0  0  0  0  0  0
  -25.8794  -11.5808   21.1575 N   0  0  0  0  0  0  0  0  0  0  0  0
  -26.2417  -12.7437   20.5896 N   0  0  0  0  0  0  0  0  0  0  0  0
  -24.4077  -26.9422   22.8756 N   0  0  0  0  0  0  0  0  0  0  0  0
  -29.9640  -13.6185   20.6226 N   0  0  0  0  0  0  0  0  0  0  0  0
  -29.9868  -16.0052   20.7810 N   0  0  0  0  0  0  0  0  0  0  0  0
  -25.4374  -14.8960   20.0141 N   0  0  0  0  0  0  0  0  0  0  0  0
  -21.8557  -12.9238   21.9320 N   0  0  0  0  0  0  0  0  0  0  0  0
  -27.4033  -28.3537   24.2036 N   0  0  0  0  0  0  0  0  0  0  0  0
  -21.0748  -27.5068   22.6973 N   0  0  0  0  0  0  0  0  0  0  0  0
  -19.4980  -26.5834   19.5782 N   0  3  0  0  0  0  0  0  0  0  0  0
  -22.6088  -14.8424   20.9266 O   0  0  0  0  0  0  0  0  0  0  0  0
  -26.2955  -26.3517   24.6360 O   0  0  0  0  0  0  0  0  0  0  0  0
  -23.4337  -29.0182   23.2975 O   0  0  0  0  0  0  0  0  0  0  0  0
  -20.7646  -25.3948   21.7916 O   0  0  0  0  0  0  0  0  0  0  0  0
  -31.6168  -14.8683   19.6093 O   0  0  0  0  0  0  0  0  0  0  0  0
  -21.6577   -7.7561   24.0033 O   0  0  0  0  0  0  0  0  0  0  0  0
  -26.1438  -21.2538   21.2039 O   0  0  0  0  0  0  0  0  0  1  0  0
  -22.0810   -2.6419   21.9858 F   0  0  0  0  0  0  0  0  0  0  0  0
  -19.4330   -6.4170   23.0544 F   0  0  0  0  0  0  0  0  0  0  0  0
  1  2  1  0  0  0  0
  1  5  2  0  0  0  0
  2  6  2  0  0  0  0
  3  8  2  0  0  0  0
  3 15  1  0  0  0  0
  4  9  1  0  0  0  0
  4 15  2  0  0  0  0
  5 17  1  0  0  0  0
  6 19  1  0  0  0  0
  7 10  2  0  0  0  0
  7 18  1  0  0  0  0
  8 21  1  0  0  0  0
  9 21  2  0  0  0  0
 10 22  1  0  0  0  0
 11 12  2  0  0  0  0
 11 23  1  0  0  0  0
 12 24  1  0  0  0  0
 13 20  1  0  0  0  0
 13 22  2  0  0  0  0
 14 24  2  0  0  0  0
 14 25  1  0  0  0  0
 15 26  1  0  0  0  0
 16 26  1  0  0  0  0
 16 27  2  0  0  0  0
 16 28  1  0  0  0  0
 17 19  2  0  0  0  0
 17 33  1  0  0  0  0
 18 20  2  0  0  0  0
 18 34  1  0  0  0  0
 19 46  1  0  0  0  0
 20 35  1  0  0  0  0
 21 75  1  0  0  0  0
 22 76  1  0  0  0  0
 23 25  2  0  0  0  0
 23 75  1  0  0  0  0
 24 77  1  0  0  0  0
 25 78  1  0  0  0  0
 26 60  2  0  0  0  0
 27 61  1  0  0  0  0
 27 65  1  0  0  0  0
 28 66  1  0  0  0  0
 28 70  2  0  0  0  0
 29 47  1  0  0  0  0
 29 67  1  0  0  0  0
 29 71  2  0  0  0  0
 30 57  1  0  0  0  0
 30 62  1  0  0  0  0
 30 72  2  0  0  0  0
 31 58  1  0  0  0  0
 31 68  1  0  0  0  0
 31 73  2  0  0  0  0
 32 63  1  0  0  0  0
 32 64  1  0  0  0  0
 32 74  2  0  0  0  0
 33 36  1  0  0  0  0
 34 47  1  0  0  0  0
 35 62  1  0  0  0  0
 36 38  1  0  0  0  0
 37 39  1  0  0  0  0
 37 42  1  0  0  0  0
 38 46  1  0  0  0  0
 39 49  1  0  0  0  0
 40 43  1  0  0  0  0
 40 48  1  0  0  0  0
 41 44  1  0  0  0  0
 41 48  1  0  0  0  0
 42 63  1  0  0  0  0
 43 64  1  0  0  0  0
 44 64  1  0  0  0  0
 45 49  1  0  0  0  0
 45 63  1  0  0  0  0
 46 67  1  0  0  0  0
 47 62  1  0  0  0  0
 48 55  1  0  0  0  0
 49 61  1  0  0  0  0
 50 58  1  0  0  0  0
 51 59  1  0  0  0  0
 52 59  1  0  0  0  0
 53 59  1  0  0  0  0
 54 69  1  0  0  0  0
 55 56  1  0  0  0  0
 56 76  1  0  0  0  0
 57 59  1  0  0  0  0
 57 68  1  0  0  0  0
 58 69  1  0  0  0  0
 60 61  1  0  0  0  0
M  CHG  1  69   1
M  ISO  4  32 100  56 101  64 100  76 101
M  END
> <Batch ID>
0198

> <Smiles>
CNC(C)C(=O)NC(C(=O)N1Cc2cc([101O:1][101CH2:1]CC3CC[100N:0]([100C:0](=O)N4CCCC(n5nc(-c6ccc(Oc7ccc(F)cc7F)cc6)c(C(N)=O)c5N)C4)CC3)ccc2CC1C(=O)NC1CCCc2ccccc21)C(C)(C)C

> <Shape>
0.245

> <Color>
0.182

> <Negative vol penalty>
0.000

$$$$

  -OEChem-04052323483D

 85 94  0     1  0  0  0  0  0999 V2000
  -21.9155  -35.2302   16.2794 C   0  0  0  0  0  0  0  0  0  0  0  0
  -22.7379  -34.1122   16.1848 C   0  0  0  0  0  0  0  0  0  0  0  0
  -24.5516  -10.7900   18.1506 C   0  0  0  0  0  0  0  0  0  0  0  0
  -23.8536   -9.8647   20.2704 C   0  0  0  0  0  0  0  0  0  0  0  0
  -21.9177  -35.9995   17.4422 C   0  0  0  0  0  0  0  0  0  0  0  0
  -23.5639  -33.7633   17.2528 C   0  0  0  0  0  0  0  0  0  0  0  0
  -25.0962  -28.1054   19.0264 C   0  0  0  0  0  0  0  0  0  0  0  0
  -24.1291   -9.6282   17.5044 C   0  0  0  0  0  0  0  0  0  0  0  0
  -23.4311   -8.7030   19.6243 C   0  0  0  0  0  0  0  0  0  0  0  0
  -26.2266  -27.3233   18.7937 C   0  0  0  0  0  0  0  0  0  0  0  0
  -22.4988   -5.3488   18.5801 C   0  0  0  0  0  0  0  0  0  0  0  0
  -22.8415   -4.1255   19.1559 C   0  0  0  0  0  0  0  0  0  0  0  0
  -27.1489  -28.0388   20.9048 C   0  0  0  0  0  0  0  0  0  0  0  0
  -25.1832   -4.6777   18.9352 C   0  0  0  0  0  0  0  0  0  0  0  0
  -24.4139  -10.9082   19.5336 C   0  0  0  0  0  0  0  0  0  0  0  0
  -24.0894  -13.2643   20.4561 C   0  0  0  0  0  0  0  0  0  0  0  0
  -22.7369  -35.6543   18.5286 C   0  0  0  0  0  0  0  0  0  0  0  0
  -24.9883  -28.8699   20.1970 C   0  0  0  0  0  0  0  0  0  0  0  0
  -23.5780  -34.5294   18.4308 C   0  0  0  0  0  0  0  0  0  0  0  0
  -26.0149  -28.8277   21.1512 C   0  0  0  0  0  0  0  0  0  0  0  0
  -23.5689   -8.5848   18.2412 C   0  0  0  0  0  0  0  0  0  0  0  0
  -27.2545  -27.2922   19.7316 C   0  0  0  0  0  0  0  0  0  0  0  0
  -23.4982   -6.2366   18.1818 C   0  0  0  0  0  0  0  0  0  0  0  0
  -24.1837   -3.7900   19.3334 C   0  0  0  0  0  0  0  0  0  0  0  0
  -24.8404   -5.9011   18.3594 C   0  0  0  0  0  0  0  0  0  0  0  0
  -29.8024  -23.3054   20.8986 C   0  0  0  0  0  0  0  0  0  0  0  0
  -24.8506  -12.1078   20.2017 C   0  0  0  0  0  0  0  0  0  0  0  0
  -30.0260  -24.1327   19.8353 C   0  0  0  0  0  0  0  0  0  0  0  0
  -29.3540  -22.0616   20.5564 C   0  0  0  0  0  0  0  0  0  0  0  0
  -24.9541  -14.1076   21.1099 C   0  0  0  0  0  0  0  0  0  0  0  0
  -22.7227  -13.5507   20.1306 C   0  0  0  0  0  0  0  0  0  0  0  0
  -24.7387  -31.9740   20.8339 C   0  0  0  0  0  0  0  0  0  0  0  0
  -24.3311  -30.9198   23.8745 C   0  0  0  0  0  0  0  0  0  0  0  0
  -24.8412  -28.4552   26.1793 C   0  0  0  0  0  0  0  0  0  0  0  0
  -30.1055  -16.4138   21.2600 C   0  0  0  0  0  0  0  0  0  0  0  0
  -22.7399  -36.5435   19.7468 C   0  0  0  0  0  0  0  0  0  0  0  0
  -23.7504  -29.6874   20.4456 C   0  0  0  0  0  0  0  0  0  0  0  0
  -25.9386  -29.6142   22.4334 C   0  0  0  0  0  0  0  0  0  0  0  0
  -23.3676  -35.8908   20.9758 C   0  0  0  0  0  0  0  0  0  0  0  0
  -29.5391  -13.2717   23.0708 C   0  0  0  0  0  0  0  0  0  0  0  0
  -24.6867  -35.2188   20.6082 C   0  0  0  0  0  0  0  0  0  0  0  0
  -28.2287  -12.7644   22.4674 C   0  0  0  0  0  0  0  0  0  0  0  0
  -28.0235  -19.1558   22.5498 C   0  0  0  0  0  0  0  0  0  0  0  0
  -30.3476  -14.0957   22.0713 C   0  0  0  0  0  0  0  0  0  0  0  0
  -28.0831  -17.6702   22.2097 C   0  0  0  0  0  0  0  0  0  0  0  0
  -28.2957  -14.6931   20.8440 C   0  0  0  0  0  0  0  0  0  0  0  0
  -29.7523  -18.8466   20.9468 C   0  0  0  0  0  0  0  0  0  0  0  0
  -24.4697  -34.1045   19.5772 C   0  0  1  0  0  0  0  0  0  0  0  0
  -23.9757  -30.8272   21.4343 C   0  0  1  0  0  0  0  0  0  0  0  0
  -27.4229  -13.9176   21.8405 C   0  0  1  0  0  0  0  0  0  0  0  0
  -28.6180  -19.7966   21.3005 C   0  0  2  0  0  0  0  0  0  0  0  0
  -24.4269  -27.8965   28.5904 C   0  0  0  0  0  0  0  0  0  0  0  0
  -26.5926  -32.7964   24.6954 C   0  0  0  0  0  0  0  0  0  0  0  0
  -26.7694  -31.5292   26.8473 C   0  0  0  0  0  0  0  0  0  0  0  0
  -24.6602  -32.7351   26.2817 C   0  0  0  0  0  0  0  0  0  0  0  0
  -23.2016  -26.0953   25.4711 C   0  0  0  0  0  0  0  0  0  0  0  0
  -30.5189  -25.5296   20.0187 C   0  0  0  0  0  0  0  0  0  0  0  0
  -29.4198  -26.4956   20.4702 C   0  0  0  0  0  0  0  0  0  1  0  0
  -25.2500  -30.6171   25.0333 C   0  0  1  0  0  0  0  0  0  0  0  0
  -23.9004  -27.7900   27.1677 C   0  0  2  0  0  0  0  0  0  0  0  0
  -25.8207  -31.9060   25.6895 C   0  0  0  0  0  0  0  0  0  0  0  0
  -26.1027  -12.2042   20.6567 N   0  0  0  0  0  0  0  0  0  0  0  0
  -29.8227  -23.7562   18.5567 N   0  0  0  0  0  0  0  0  0  0  0  0
  -29.1495  -21.6805   19.2794 N   0  0  0  0  0  0  0  0  0  0  0  0
  -29.3900  -22.5396   18.3152 N   0  0  0  0  0  0  0  0  0  0  0  0
  -26.1349  -13.4314   21.2034 N   0  0  0  0  0  0  0  0  0  0  0  0
  -24.7109  -30.4033   22.6276 N   0  0  0  0  0  0  0  0  0  0  0  0
  -29.5304  -15.1583   21.4849 N   0  0  0  0  0  0  0  0  0  0  0  0
  -29.2818  -17.5325   21.3785 N   0  0  0  0  0  0  0  0  0  0  0  0
  -24.8122  -15.3543   21.6080 N   0  0  0  0  0  0  0  0  0  0  0  0
  -21.9772  -12.5731   19.4576 N   0  0  0  0  0  0  0  0  0  0  0  0
  -29.0924  -21.1315   21.5533 N   0  0  0  0  0  0  0  0  0  0  0  0
  -23.9411  -32.9193   20.2177 N   0  0  0  0  0  0  0  0  0  0  0  0
  -24.4910  -29.7681   25.9452 N   0  0  0  0  0  0  0  0  0  0  0  0
  -23.7351  -26.3468   26.8346 N   0  3  0  0  0  0  0  0  0  0  0  0
  -22.1836  -14.6475   20.4132 O   0  0  0  0  0  0  0  0  0  0  0  0
  -25.9606  -32.0001   20.9245 O   0  0  0  0  0  0  0  0  0  0  0  0
  -23.3100  -31.5839   24.0698 O   0  0  0  0  0  0  0  0  0  0  0  0
  -25.7938  -27.8698   25.6690 O   0  0  0  0  0  0  0  0  0  0  0  0
  -31.3123  -16.5342   21.0107 O   0  0  0  0  0  0  0  0  0  0  0  0
  -23.1563   -7.4511   17.6110 O   0  0  0  0  0  0  0  0  0  0  0  0
  -28.3780  -26.5172   19.5027 O   0  0  0  0  0  0  0  0  0  1  0  0
  -24.5127   -2.6158   19.8878 F   0  0  0  0  0  0  0  0  0  0  0  0
  -25.8050   -6.7504   17.9798 F   0  0  0  0  0  0  0  0  0  0  0  0
  -30.0689  -23.7997   22.5222 Cl  0  0  0  0  0  0  0  0  0  0  0  0
  1  2  1  0  0  0  0
  1  5  2  0  0  0  0
  2  6  2  0  0  0  0
  3  8  2  0  0  0  0
  3 15  1  0  0  0  0
  4  9  1  0  0  0  0
  4 15  2  0  0  0  0
  5 17  1  0  0  0  0
  6 19  1  0  0  0  0
  7 10  2  0  0  0  0
  7 18  1  0  0  0  0
  8 21  1  0  0  0  0
  9 21  2  0  0  0  0
 10 22  1  0  0  0  0
 11 12  2  0  0  0  0
 11 23  1  0  0  0  0
 12 24  1  0  0  0  0
 13 20  1  0  0  0  0
 13 22  2  0  0  0  0
 14 24  2  0  0  0  0
 14 25  1  0  0  0  0
 15 27  1  0  0  0  0
 16 27  1  0  0  0  0
 16 30  2  0  0  0  0
 16 31  1  0  0  0  0
 17 19  2  0  0  0  0
 17 36  1  0  0  0  0
 18 20  2  0  0  0  0
 18 37  1  0  0  0  0
 19 48  1  0  0  0  0
 20 38  1  0  0  0  0
 21 81  1  0  0  0  0
 22 82  1  0  0  0  0
 23 25  2  0  0  0  0
 23 81  1  0  0  0  0
 24 83  1  0  0  0  0
 25 84  1  0  0  0  0
 26 28  2  0  0  0  0
 26 29  1  0  0  0  0
 26 85  1  0  0  0  0
 27 62  2  0  0  0  0
 28 57  1  0  0  0  0
 28 63  1  0  0  0  0
 29 64  2  0  0  0  0
 29 72  1  0  0  0  0
 30 66  1  0  0  0  0
 30 70  1  0  0  0  0
 31 71  1  0  0  0  0
 31 76  2  0  0  0  0
 32 49  1  0  0  0  0
 32 73  1  0  0  0  0
 32 77  2  0  0  0  0
 33 59  1  0  0  0  0
 33 67  1  0  0  0  0
 33 78  2  0  0  0  0
 34 60  1  0  0  0  0
 34 74  1  0  0  0  0
 34 79  2  0  0  0  0
 35 68  1  0  0  0  0
 35 69  1  0  0  0  0
 35 80  2  0  0  0  0
 36 39  1  0  0  0  0
 37 49  1  0  0  0  0
 38 67  1  0  0  0  0
 39 41  1  0  0  0  0
 40 42  1  0  0  0  0
 40 44  1  0  0  0  0
 41 48  1  0  0  0  0
 42 50  1  0  0  0  0
 43 45  1  0  0  0  0
 43 51  1  0  0  0  0
 44 68  1  0  0  0  0
 45 69  1  0  0  0  0
 46 50  1  0  0  0  0
 46 68  1  0  0  0  0
 47 51  1  0  0  0  0
 47 69  1  0  0  0  0
 48 73  1  0  0  0  0
 49 67  1  0  0  0  0
 50 66  1  0  0  0  0
 51 72  1  0  0  0  0
 52 60  1  0  0  0  0
 53 61  1  0  0  0  0
 54 61  1  0  0  0  0
 55 61  1  0  0  0  0
 56 75  1  0  0  0  0
 57 58  1  0  0  0  0
 58 82  1  0  0  0  0
 59 61  1  0  0  0  0
 59 74  1  0  0  0  0
 60 75  1  0  0  0  0
 62 66  1  0  0  0  0
 63 65  2  0  0  0  0
 64 65  1  0  0  0  0
M  CHG  1  75   1
M  ISO  4  35 100  58 101  69 100  82 101
M  END
> <Batch ID>
0198

> <Smiles>
CNC(C)C(=O)NC(C(=O)N1Cc2cc([101O:1][101CH2:1]Cc3nnnc(NC4CC[100N:0]([100C:0](=O)N5CCCC(n6nc(-c7ccc(Oc8ccc(F)cc8F)cc7)c(C(N)=O)c6N)C5)C4)c3Cl)ccc2CC1C(=O)NC1CCCc2ccccc21)C(C)(C)C

> <Shape>
0.261

> <Color>
0.140

> <Negative vol penalty>
0.000

$$$$

  -OEChem-04052323483D

 85 94  0     1  0  0  0  0  0999 V2000
  -27.8619  -32.1685   27.5523 C   0  0  0  0  0  0  0  0  0  0  0  0
  -28.0086  -31.1571   26.6084 C   0  0  0  0  0  0  0  0  0  0  0  0
  -23.6794   -9.5598   20.1736 C   0  0  0  0  0  0  0  0  0  0  0  0
  -23.2917   -9.5509   22.5583 C   0  0  0  0  0  0  0  0  0  0  0  0
  -26.5893  -32.6314   27.8842 C   0  0  0  0  0  0  0  0  0  0  0  0
  -26.8827  -30.6073   25.9965 C   0  0  0  0  0  0  0  0  0  0  0  0
  -27.4601  -30.0640   20.9949 C   0  0  0  0  0  0  0  0  0  0  0  0
  -23.7846   -8.1690   20.1855 C   0  0  0  0  0  0  0  0  0  0  0  0
  -23.3969   -8.1601   22.5702 C   0  0  0  0  0  0  0  0  0  0  0  0
  -28.2191  -28.9802   20.5555 C   0  0  0  0  0  0  0  0  0  0  0  0
  -21.4499   -5.5097   21.7922 C   0  0  0  0  0  0  0  0  0  0  0  0
  -20.4978   -4.7955   22.5195 C   0  0  0  0  0  0  0  0  0  0  0  0
  -26.1924  -27.7610   20.0810 C   0  0  0  0  0  0  0  0  0  0  0  0
  -22.2496   -3.8651   23.8990 C   0  0  0  0  0  0  0  0  0  0  0  0
  -23.4329  -10.2508   21.3600 C   0  0  0  0  0  0  0  0  0  0  0  0
  -22.1564  -12.4506   21.1616 C   0  0  0  0  0  0  0  0  0  0  0  0
  -25.4478  -32.0937   27.2690 C   0  0  0  0  0  0  0  0  0  0  0  0
  -26.0592  -30.0002   20.9907 C   0  0  0  0  0  0  0  0  0  0  0  0
  -25.5935  -31.0626   26.3214 C   0  0  0  0  0  0  0  0  0  0  0  0
  -25.4179  -28.8463   20.5183 C   0  0  0  0  0  0  0  0  0  0  0  0
  -23.6434   -7.4691   21.3838 C   0  0  0  0  0  0  0  0  0  0  0  0
  -27.5854  -27.8274   20.1012 C   0  0  0  0  0  0  0  0  0  0  0  0
  -22.8019   -5.4016   22.1182 C   0  0  0  0  0  0  0  0  0  0  0  0
  -20.8976   -3.9732   23.5729 C   0  0  0  0  0  0  0  0  0  0  0  0
  -23.2017   -4.5793   23.1716 C   0  0  0  0  0  0  0  0  0  0  0  0
  -23.3247  -11.6876   21.3485 C   0  0  0  0  0  0  0  0  0  0  0  0
  -22.5822  -13.7542   21.2366 C   0  0  0  0  0  0  0  0  0  0  0  0
  -20.8071  -12.0194   20.9402 C   0  0  0  0  0  0  0  0  0  0  0  0
  -23.8004  -30.1509   23.2220 C   0  0  0  0  0  0  0  0  0  0  0  0
  -21.8125  -30.1151   20.6589 C   0  0  0  0  0  0  0  0  0  0  0  0
  -21.3184  -29.2796   17.3871 C   0  0  0  0  0  0  0  0  0  0  0  0
  -28.1105  -15.9856   20.2500 C   0  0  0  0  0  0  0  0  0  0  0  0
  -24.0901  -32.5936   27.6949 C   0  0  0  0  0  0  0  0  0  0  0  0
  -25.2546  -31.1880   21.4428 C   0  0  0  0  0  0  0  0  0  0  0  0
  -23.9165  -28.7350   20.4746 C   0  0  0  0  0  0  0  0  0  0  0  0
  -22.9714  -32.2181   26.7265 C   0  0  0  0  0  0  0  0  0  0  0  0
  -25.9612  -16.4878   23.2305 C   0  0  0  0  0  0  0  0  0  0  0  0
  -23.0744  -30.7470   26.3365 C   0  0  0  0  0  0  0  0  0  0  0  0
  -24.9622  -15.3400   23.0770 C   0  0  0  0  0  0  0  0  0  0  0  0
  -28.8911  -19.5766   20.1629 C   0  0  0  0  0  0  0  0  0  0  0  0
  -32.5715  -20.7116   18.1413 C   0  0  0  0  0  0  0  0  0  0  0  0
  -27.3176  -16.1112   22.6488 C   0  0  0  0  0  0  0  0  0  0  0  0
  -28.2515  -18.4450   20.9614 C   0  0  0  0  0  0  0  0  0  0  0  0
  -26.2808  -14.5392   21.0580 C   0  0  0  0  0  0  0  0  0  0  0  0
  -29.8766  -17.5283   19.4455 C   0  0  0  0  0  0  0  0  0  0  0  0
  -32.2211  -19.2347   18.3789 C   0  0  0  0  0  0  0  0  0  0  0  0
  -24.3979  -30.4582   25.6177 C   0  0  1  0  0  0  0  0  0  0  0  0
  -23.8392  -30.8204   21.8774 C   0  0  1  0  0  0  0  0  0  0  0  0
  -24.8833  -14.8625   21.6154 C   0  0  1  0  0  0  0  0  0  0  0  0
  -30.2306  -18.9660   19.7789 C   0  0  1  0  0  0  0  0  0  0  0  0
  -31.3067  -21.0207   18.9696 C   0  0  1  0  0  0  0  0  0  0  0  0
  -19.5790  -29.3410   15.5794 C   0  0  0  0  0  0  0  0  0  0  0  0
  -31.9126  -24.0375   17.8064 C   0  0  0  0  0  0  0  0  0  0  0  0
  -20.3803  -27.7561   21.9604 C   0  0  0  0  0  0  0  0  0  0  0  0
  -19.3157  -27.2711   19.7469 C   0  0  0  0  0  0  0  0  0  0  0  0
  -18.8657  -29.4384   20.8971 C   0  0  0  0  0  0  0  0  0  0  0  0
  -22.9981  -31.0075   15.6690 C   0  0  0  0  0  0  0  0  0  0  0  0
  -30.3955  -22.1122   18.4463 C   0  0  0  0  0  0  0  0  0  0  0  0
  -28.8642  -24.4404   19.9749 C   0  0  0  0  0  0  0  0  0  0  0  0
  -27.7591  -25.4697   19.8426 C   0  0  0  0  0  0  0  0  0  1  0  0
  -21.1315  -29.0384   19.8491 C   0  0  1  0  0  0  0  0  0  0  0  0
  -20.7505  -30.0681   16.2208 C   0  0  2  0  0  0  0  0  0  0  0  0
  -30.8667  -23.5312   18.7907 C   0  0  2  0  0  0  0  0  0  0  0  0
  -19.9516  -28.3770   20.6159 C   0  0  0  0  0  0  0  0  0  0  0  0
  -24.4110  -12.4435   21.5284 N   0  0  0  0  0  0  0  0  0  0  0  0
  -23.9272  -13.6952   21.4549 N   0  0  0  0  0  0  0  0  0  0  0  0
  -23.1737  -29.9206   20.9331 N   0  0  0  0  0  0  0  0  0  0  0  0
  -27.1928  -15.6676   21.2576 N   0  0  0  0  0  0  0  0  0  0  0  0
  -28.7529  -17.2205   20.3287 N   0  0  0  0  0  0  0  0  0  0  0  0
  -21.9335  -14.9339   21.1362 N   0  0  0  0  0  0  0  0  0  0  0  0
  -20.5448  -10.6435   20.8917 N   0  0  0  0  0  0  0  0  0  0  0  0
  -24.3363  -30.9105   24.2444 N   0  0  0  0  0  0  0  0  0  0  0  0
  -20.7498  -29.6583   18.5848 N   0  0  0  0  0  0  0  0  0  0  0  0
  -30.8270  -19.6615   18.6168 N   0  3  1  0  0  0  0  0  0  0  0  0
  -21.7970  -30.2818   15.1815 N   0  3  0  0  0  0  0  0  0  0  0  0
  -29.7093  -24.4685   18.7532 N   0  3  0  0  0  0  0  0  0  0  0  0
  -19.8647  -12.8303   20.7735 O   0  0  0  0  0  0  0  0  0  0  0  0
  -23.3184  -29.0289   23.3246 O   0  0  0  0  0  0  0  0  0  0  0  0
  -21.1625  -31.0963   21.0283 O   0  0  0  0  0  0  0  0  0  0  0  0
  -22.1777  -28.4117   17.2490 O   0  0  0  0  0  0  0  0  0  0  0  0
  -28.3111  -15.2219   19.2964 O   0  0  0  0  0  0  0  0  0  0  0  0
  -23.7458   -6.1120   21.3957 O   0  0  0  0  0  0  0  0  0  0  0  0
  -28.3291  -26.7602   19.6694 O   0  0  0  0  0  0  0  0  0  1  0  0
  -19.9831   -3.2886   24.2723 F   0  0  0  0  0  0  0  0  0  0  0  0
  -24.4989   -4.4724   23.4903 F   0  0  0  0  0  0  0  0  0  0  0  0
  1  2  1  0  0  0  0
  1  5  2  0  0  0  0
  2  6  2  0  0  0  0
  3  8  2  0  0  0  0
  3 15  1  0  0  0  0
  4  9  1  0  0  0  0
  4 15  2  0  0  0  0
  5 17  1  0  0  0  0
  6 19  1  0  0  0  0
  7 10  2  0  0  0  0
  7 18  1  0  0  0  0
  8 21  1  0  0  0  0
  9 21  2  0  0  0  0
 10 22  1  0  0  0  0
 11 12  2  0  0  0  0
 11 23  1  0  0  0  0
 12 24  1  0  0  0  0
 13 20  1  0  0  0  0
 13 22  2  0  0  0  0
 14 24  2  0  0  0  0
 14 25  1  0  0  0  0
 15 26  1  0  0  0  0
 16 26  1  0  0  0  0
 16 27  2  0  0  0  0
 16 28  1  0  0  0  0
 17 19  2  0  0  0  0
 17 33  1  0  0  0  0
 18 20  2  0  0  0  0
 18 34  1  0  0  0  0
 19 47  1  0  0  0  0
 20 35  1  0  0  0  0
 21 82  1  0  0  0  0
 22 83  1  0  0  0  0
 23 25  2  0  0  0  0
 23 82  1  0  0  0  0
 24 84  1  0  0  0  0
 25 85  1  0  0  0  0
 26 65  2  0  0  0  0
 27 66  1  0  0  0  0
 27 70  1  0  0  0  0
 28 71  1  0  0  0  0
 28 77  2  0  0  0  0
 29 48  1  0  0  0  0
 29 72  1  0  0  0  0
 29 78  2  0  0  0  0
 30 61  1  0  0  0  0
 30 67  1  0  0  0  0
 30 79  2  0  0  0  0
 31 62  1  0  0  0  0
 31 73  1  0  0  0  0
 31 80  2  0  0  0  0
 32 68  1  0  0  0  0
 32 69  1  0  0  0  0
 32 81  2  0  0  0  0
 33 36  1  0  0  0  0
 34 48  1  0  0  0  0
 35 67  1  0  0  0  0
 36 38  1  0  0  0  0
 37 39  1  0  0  0  0
 37 42  1  0  0  0  0
 38 47  1  0  0  0  0
 39 49  1  0  0  0  0
 40 43  1  0  0  0  0
 40 50  1  0  0  0  0
 41 46  1  0  0  0  0
 41 51  1  0  0  0  0
 42 68  1  0  0  0  0
 43 69  1  0  0  0  0
 44 49  1  0  0  0  0
 44 68  1  0  0  0  0
 45 50  1  0  0  0  0
 45 69  1  0  0  0  0
 46 74  1  0  0  0  0
 47 72  1  0  0  0  0
 48 67  1  0  0  0  0
 49 66  1  0  0  0  0
 50 74  1  0  0  0  0
 51 58  1  0  0  0  0
 51 74  1  0  0  0  0
 52 62  1  0  0  0  0
 53 63  1  0  0  0  0
 54 64  1  0  0  0  0
 55 64  1  0  0  0  0
 56 64  1  0  0  0  0
 57 75  1  0  0  0  0
 58 63  1  0  0  0  0
 59 60  1  0  0  0  0
 59 76  1  0  0  0  0
 60 83  1  0  0  0  0
 61 64  1  0  0  0  0
 61 73  1  0  0  0  0
 62 75  1  0  0  0  0
 63 76  1  0  0  0  0
 65 66  1  0  0  0  0
M  CHG  3  74   1  75   1  76   1
M  ISO  4  32 100  60 101  69 100  83 101
M  END
> <Batch ID>
0198

> <Smiles>
CNC(C)C(=O)NC(C(=O)N1Cc2cc([101O:1][101CH2:1]CNC(C)CC3CCN3C3CC[100N:0]([100C:0](=O)N4CCCC(n5nc(-c6ccc(Oc7ccc(F)cc7F)cc6)c(C(N)=O)c5N)C4)C3)ccc2CC1C(=O)NC1CCCc2ccccc21)C(C)(C)C

> <Shape>
0.294

> <Color>
0.091

> <Negative vol penalty>
0.000

$$$$

  -OEChem-04052323483D

 88 98  0     1  0  0  0  0  0999 V2000
  -32.4421  -37.8972   21.6022 C   0  0  0  0  0  0  0  0  0  0  0  0
  -32.3607  -36.8789   20.6578 C   0  0  0  0  0  0  0  0  0  0  0  0
  -24.3994   -9.1260   22.2601 C   0  0  0  0  0  0  0  0  0  0  0  0
  -23.8997   -9.1513   19.8965 C   0  0  0  0  0  0  0  0  0  0  0  0
  -32.0595  -37.6555   22.9209 C   0  0  0  0  0  0  0  0  0  0  0  0
  -31.8977  -35.6179   21.0319 C   0  0  0  0  0  0  0  0  0  0  0  0
  -28.2257  -30.0300   18.4615 C   0  0  0  0  0  0  0  0  0  0  0  0
  -23.2981   -8.2998   22.4841 C   0  0  0  0  0  0  0  0  0  0  0  0
  -22.7984   -8.3251   20.1205 C   0  0  0  0  0  0  0  0  0  0  0  0
  -28.3282  -28.6467   18.3205 C   0  0  0  0  0  0  0  0  0  0  0  0
  -22.5344   -5.0227   22.1525 C   0  0  0  0  0  0  0  0  0  0  0  0
  -22.7085   -3.9248   22.9951 C   0  0  0  0  0  0  0  0  0  0  0  0
  -27.6201  -28.3670   20.6095 C   0  0  0  0  0  0  0  0  0  0  0  0
  -21.0042   -4.7892   24.4734 C   0  0  0  0  0  0  0  0  0  0  0  0
  -24.7001   -9.5519   20.9663 C   0  0  0  0  0  0  0  0  0  0  0  0
  -27.1569  -10.0060   20.4508 C   0  0  0  0  0  0  0  0  0  0  0  0
  -31.5824  -36.3937   23.3093 C   0  0  0  0  0  0  0  0  0  0  0  0
  -27.8295  -30.5935   19.6829 C   0  0  0  0  0  0  0  0  0  0  0  0
  -31.5097  -35.3588   22.3574 C   0  0  0  0  0  0  0  0  0  0  0  0
  -27.5109  -29.7576   20.7626 C   0  0  0  0  0  0  0  0  0  0  0  0
  -28.5562  -24.4806   18.0065 C   0  0  0  0  0  0  0  0  0  0  0  0
  -22.4977   -7.8993   21.4143 C   0  0  0  0  0  0  0  0  0  0  0  0
  -28.0282  -27.8151   19.3955 C   0  0  0  0  0  0  0  0  0  0  0  0
  -21.5953   -6.0039   22.4704 C   0  0  0  0  0  0  0  0  0  0  0  0
  -21.9434   -3.8080   24.1556 C   0  0  0  0  0  0  0  0  0  0  0  0
  -20.8302   -5.8871   23.6309 C   0  0  0  0  0  0  0  0  0  0  0  0
  -25.8372  -10.4058   20.7343 C   0  0  0  0  0  0  0  0  0  0  0  0
  -29.5407  -23.7569   18.6478 C   0  0  0  0  0  0  0  0  0  0  0  0
  -27.5787  -23.7345   17.3803 C   0  0  0  0  0  0  0  0  0  0  0  0
  -27.8510  -11.1835   20.3158 C   0  0  0  0  0  0  0  0  0  0  0  0
  -28.5689  -21.7957   18.0343 C   0  0  0  0  0  0  0  0  0  0  0  0
  -27.7062   -8.6880   20.3210 C   0  0  0  0  0  0  0  0  0  0  0  0
  -29.1819  -32.5445   21.7967 C   0  0  0  0  0  0  0  0  0  0  0  0
  -26.2536  -32.4345   23.1879 C   0  0  0  0  0  0  0  0  0  0  0  0
  -23.3201  -30.7489   23.6353 C   0  0  0  0  0  0  0  0  0  0  0  0
  -28.4598  -16.1887   18.4662 C   0  0  0  0  0  0  0  0  0  0  0  0
  -31.2252  -36.1667   24.7569 C   0  0  0  0  0  0  0  0  0  0  0  0
  -27.6981  -32.0864   19.8107 C   0  0  0  0  0  0  0  0  0  0  0  0
  -27.0614  -30.3119   22.0889 C   0  0  0  0  0  0  0  0  0  0  0  0
  -30.3918  -34.9089   24.9885 C   0  0  0  0  0  0  0  0  0  0  0  0
  -26.5292  -15.9387   21.3902 C   0  0  0  0  0  0  0  0  0  0  0  0
  -30.9875  -33.7267   24.2307 C   0  0  0  0  0  0  0  0  0  0  0  0
  -31.3525  -23.7729   20.4892 C   0  0  0  0  0  0  0  0  0  0  0  0
  -30.4327  -24.9180   20.7772 C   0  0  0  0  0  0  0  0  0  0  0  0
  -26.2781  -14.4327   21.4606 C   0  0  0  0  0  0  0  0  0  0  0  0
  -26.4318  -16.4696   19.9590 C   0  0  0  0  0  0  0  0  0  0  0  0
  -29.6527  -19.6884   18.7502 C   0  0  0  0  0  0  0  0  0  0  0  0
  -27.2806  -19.7056   17.9636 C   0  0  0  0  0  0  0  0  0  0  0  0
  -29.7901  -18.2541   18.2467 C   0  0  0  0  0  0  0  0  0  0  0  0
  -27.4637  -18.2771   17.4631 C   0  0  0  0  0  0  0  0  0  0  0  0
  -27.0425  -14.2465   19.0630 C   0  0  0  0  0  0  0  0  0  0  0  0
  -30.9892  -33.9846   22.7191 C   0  0  1  0  0  0  0  0  0  0  0  0
  -30.6466  -24.4687   19.3570 C   0  0  0  0  0  0  0  0  0  0  0  0
  -27.7809  -32.5721   21.2545 C   0  0  1  0  0  0  0  0  0  0  0  0
  -27.1914  -13.6741   20.4813 C   0  0  2  0  0  0  0  0  0  0  0  0
  -25.3307  -23.4440   16.3085 C   0  0  0  0  0  0  0  0  0  0  0  0
  -21.1335  -30.8907   24.8584 C   0  0  0  0  0  0  0  0  0  0  0  0
  -27.6518  -31.6253   25.7763 C   0  0  0  0  0  0  0  0  0  0  0  0
  -25.4328  -30.8721   26.6577 C   0  0  0  0  0  0  0  0  0  0  0  0
  -25.7896  -33.2692   26.0665 C   0  0  0  0  0  0  0  0  0  0  0  0
  -21.7769  -30.7784   21.1102 C   0  0  0  0  0  0  0  0  0  0  0  0
  -28.5462  -25.9684   17.9893 C   0  0  0  0  0  0  0  0  0  1  0  0
  -26.4616  -24.4084   16.6537 C   0  0  0  0  0  0  0  0  0  0  0  0
  -25.5929  -31.5532   24.2202 C   0  0  1  0  0  0  0  0  0  0  0  0
  -21.8746  -31.2076   23.5688 C   0  0  2  0  0  0  0  0  0  0  0  0
  -26.1271  -31.8193   25.6559 C   0  0  0  0  0  0  0  0  0  0  0  0
  -25.6988  -11.7336   20.7773 N   0  0  0  0  0  0  0  0  0  0  0  0
  -29.5781  -22.4086   18.6818 N   0  0  0  0  0  0  0  0  0  0  0  0
  -27.5541  -22.3855   17.3741 N   0  0  0  0  0  0  0  0  0  0  0  0
  -26.9404  -12.1783   20.5191 N   0  0  0  0  0  0  0  0  0  0  0  0
  -28.5754  -20.3951   18.0489 N   0  0  0  0  0  0  0  0  0  0  0  0
  -26.9545  -31.7783   22.1661 N   0  0  0  0  0  0  0  0  0  0  0  0
  -27.2882  -15.6901   19.0551 N   0  0  0  0  0  0  0  0  0  0  0  0
  -28.5040  -17.5683   18.2112 N   0  0  0  0  0  0  0  0  0  0  0  0
  -29.1453  -11.4546   20.0443 N   0  0  0  0  0  0  0  0  0  0  0  0
  -26.8531   -7.5889   20.4904 N   0  0  0  0  0  0  0  0  0  0  0  0
  -29.6650  -33.7839   22.1707 N   0  0  0  0  0  0  0  0  0  0  0  0
  -24.1559  -31.7557   24.0703 N   0  0  0  0  0  0  0  0  0  0  0  0
  -21.1684  -30.5332   22.4431 N   0  3  0  0  0  0  0  0  0  0  0  0
  -28.9211   -8.4906   20.0788 O   0  0  0  0  0  0  0  0  0  0  0  0
  -29.7798  -31.4775   21.8717 O   0  0  0  0  0  0  0  0  0  0  0  0
  -26.1457  -33.6598   23.2805 O   0  0  0  0  0  0  0  0  0  0  0  0
  -23.6721  -29.6102   23.3353 O   0  0  0  0  0  0  0  0  0  0  0  0
  -29.4111  -15.4485   18.1871 O   0  0  0  0  0  0  0  0  0  0  0  0
  -21.4231   -7.0928   21.6325 O   0  0  0  0  0  0  0  0  0  0  0  0
  -28.1287  -26.4559   19.2599 O   0  0  0  0  0  0  0  0  0  1  0  0
  -22.1095   -2.7529   24.9638 F   0  0  0  0  0  0  0  0  0  0  0  0
  -19.9256   -6.8259   23.9409 F   0  0  0  0  0  0  0  0  0  0  0  0
  1  2  1  0  0  0  0
  1  5  2  0  0  0  0
  2  6  2  0  0  0  0
  3  8  2  0  0  0  0
  3 15  1  0  0  0  0
  4  9  1  0  0  0  0
  4 15  2  0  0  0  0
  5 17  1  0  0  0  0
  6 19  1  0  0  0  0
  7 10  2  0  0  0  0
  7 18  1  0  0  0  0
  8 22  1  0  0  0  0
  9 22  2  0  0  0  0
 10 23  1  0  0  0  0
 11 12  2  0  0  0  0
 11 24  1  0  0  0  0
 12 25  1  0  0  0  0
 13 20  1  0  0  0  0
 13 23  2  0  0  0  0
 14 25  2  0  0  0  0
 14 26  1  0  0  0  0
 15 27  1  0  0  0  0
 16 27  1  0  0  0  0
 16 30  2  0  0  0  0
 16 32  1  0  0  0  0
 17 19  2  0  0  0  0
 17 37  1  0  0  0  0
 18 20  2  0  0  0  0
 18 38  1  0  0  0  0
 19 52  1  0  0  0  0
 20 39  1  0  0  0  0
 21 28  1  0  0  0  0
 21 29  2  0  0  0  0
 21 62  1  0  0  0  0
 22 85  1  0  0  0  0
 23 86  1  0  0  0  0
 24 26  2  0  0  0  0
 24 85  1  0  0  0  0
 25 87  1  0  0  0  0
 26 88  1  0  0  0  0
 27 67  2  0  0  0  0
 28 53  1  0  0  0  0
 28 68  2  0  0  0  0
 29 63  1  0  0  0  0
 29 69  1  0  0  0  0
 30 70  1  0  0  0  0
 30 75  1  0  0  0  0
 31 68  1  0  0  0  0
 31 69  2  0  0  0  0
 31 71  1  0  0  0  0
 32 76  1  0  0  0  0
 32 80  2  0  0  0  0
 33 54  1  0  0  0  0
 33 77  1  0  0  0  0
 33 81  2  0  0  0  0
 34 64  1  0  0  0  0
 34 72  1  0  0  0  0
 34 82  2  0  0  0  0
 35 65  1  0  0  0  0
 35 78  1  0  0  0  0
 35 83  2  0  0  0  0
 36 73  1  0  0  0  0
 36 74  1  0  0  0  0
 36 84  2  0  0  0  0
 37 40  1  0  0  0  0
 38 54  1  0  0  0  0
 39 72  1  0  0  0  0
 40 42  1  0  0  0  0
 41 45  1  0  0  0  0
 41 46  1  0  0  0  0
 42 52  1  0  0  0  0
 43 44  1  0  0  0  0
 43 53  1  0  0  0  0
 44 53  1  0  0  0  0
 45 55  1  0  0  0  0
 46 73  1  0  0  0  0
 47 49  1  0  0  0  0
 47 71  1  0  0  0  0
 48 50  1  0  0  0  0
 48 71  1  0  0  0  0
 49 74  1  0  0  0  0
 50 74  1  0  0  0  0
 51 55  1  0  0  0  0
 51 73  1  0  0  0  0
 52 77  1  0  0  0  0
 54 72  1  0  0  0  0
 55 70  1  0  0  0  0
 56 63  1  0  0  0  0
 57 65  1  0  0  0  0
 58 66  1  0  0  0  0
 59 66  1  0  0  0  0
 60 66  1  0  0  0  0
 61 79  1  0  0  0  0
 62 86  1  0  0  0  0
 64 66  1  0  0  0  0
 64 78  1  0  0  0  0
 65 79  1  0  0  0  0
 67 70  1  0  0  0  0
M  CHG  1  79   1
M  ISO  4  36 100  62 101  74 100  86 101
M  END
> <Batch ID>
0198

> <Smiles>
CCc1nc(N2CC[100N:0]([100C:0](=O)N3CCCC(n4nc(-c5ccc(Oc6ccc(F)cc6F)cc5)c(C(N)=O)c4N)C3)CC2)nc(C2CC2)c1[101CH2:1][101O:1]c1ccc2c(c1)CN(C(=O)C(NC(=O)C(C)NC)C(C)(C)C)C(C(=O)NC1CCCc3ccccc31)C2

> <Shape>
0.265

> <Color>
0.108

> <Negative vol penalty>
0.000

$$$$

  -OEChem-04052323483D

 89100  0     1  0  0  0  0  0999 V2000
  -22.4974  -31.8403   14.3123 C   0  0  0  0  0  0  0  0  0  0  0  0
  -23.5315  -31.1236   14.9060 C   0  0  0  0  0  0  0  0  0  0  0  0
  -23.1407   -9.8836   19.7796 C   0  0  0  0  0  0  0  0  0  0  0  0
  -24.3278   -9.5123   21.8509 C   0  0  0  0  0  0  0  0  0  0  0  0
  -22.0119  -32.9961   14.9224 C   0  0  0  0  0  0  0  0  0  0  0  0
  -24.0813  -31.5630   16.1097 C   0  0  0  0  0  0  0  0  0  0  0  0
  -24.7441  -27.7984   19.4314 C   0  0  0  0  0  0  0  0  0  0  0  0
  -21.9364   -9.5832   20.4160 C   0  0  0  0  0  0  0  0  0  0  0  0
  -23.1234   -9.2120   22.4873 C   0  0  0  0  0  0  0  0  0  0  0  0
  -25.8466  -26.9668   19.2397 C   0  0  0  0  0  0  0  0  0  0  0  0
  -21.0093   -6.5826   22.7060 C   0  0  0  0  0  0  0  0  0  0  0  0
  -20.9784   -5.4656   23.5408 C   0  0  0  0  0  0  0  0  0  0  0  0
  -27.0518  -28.1828   20.9391 C   0  0  0  0  0  0  0  0  0  0  0  0
  -20.3734   -6.8766   25.4064 C   0  0  0  0  0  0  0  0  0  0  0  0
  -29.6793  -20.6378   18.6288 C   0  0  0  0  0  0  0  0  0  0  0  0
  -24.3364   -9.8480   20.4971 C   0  0  0  0  0  0  0  0  0  0  0  0
  -26.1507   -9.4892   18.7400 C   0  0  0  0  0  0  0  0  0  0  0  0
  -22.5495  -33.4445   16.1391 C   0  0  0  0  0  0  0  0  0  0  0  0
  -24.7912  -28.8371   20.3723 C   0  0  0  0  0  0  0  0  0  0  0  0
  -23.6034  -32.7266   16.7360 C   0  0  0  0  0  0  0  0  0  0  0  0
  -25.9477  -29.0246   21.1427 C   0  0  0  0  0  0  0  0  0  0  0  0
  -30.9446  -20.4591   18.1077 C   0  0  0  0  0  0  0  0  0  0  0  0
  -21.9277   -9.2474   21.7698 C   0  0  0  0  0  0  0  0  0  0  0  0
  -27.0017  -27.1608   19.9915 C   0  0  0  0  0  0  0  0  0  0  0  0
  -20.7224   -7.8467   23.2214 C   0  0  0  0  0  0  0  0  0  0  0  0
  -20.6605   -5.6126   24.8910 C   0  0  0  0  0  0  0  0  0  0  0  0
  -20.4044   -7.9936   24.5716 C   0  0  0  0  0  0  0  0  0  0  0  0
  -25.5809  -10.1576   19.8401 C   0  0  0  0  0  0  0  0  0  0  0  0
  -31.8155  -21.5156   18.2789 C   0  0  0  0  0  0  0  0  0  0  0  0
  -27.3228  -10.1631   18.4982 C   0  0  0  0  0  0  0  0  0  0  0  0
  -30.2245  -22.7154   19.3727 C   0  0  0  0  0  0  0  0  0  0  0  0
  -25.6639   -8.3601   18.0025 C   0  0  0  0  0  0  0  0  0  0  0  0
  -24.5632  -32.0044   20.2303 C   0  0  0  0  0  0  0  0  0  0  0  0
  -24.6328  -31.7647   23.4646 C   0  0  0  0  0  0  0  0  0  0  0  0
  -26.4477  -29.8486   25.9246 C   0  0  0  0  0  0  0  0  0  0  0  0
  -29.9713  -14.9064   17.7861 C   0  0  0  0  0  0  0  0  0  0  0  0
  -22.0239  -34.7256   16.7368 C   0  0  0  0  0  0  0  0  0  0  0  0
  -23.5840  -29.7086   20.5861 C   0  0  0  0  0  0  0  0  0  0  0  0
  -26.0419  -30.1126   22.1799 C   0  0  0  0  0  0  0  0  0  0  0  0
  -22.4077  -34.9166   18.2019 C   0  0  0  0  0  0  0  0  0  0  0  0
  -29.7676  -13.6287   21.2153 C   0  0  0  0  0  0  0  0  0  0  0  0
  -23.8883  -34.6143   18.4097 C   0  0  0  0  0  0  0  0  0  0  0  0
  -34.2686  -20.7719   18.6003 C   0  0  0  0  0  0  0  0  0  0  0  0
  -34.2890  -22.2547   18.3979 C   0  0  0  0  0  0  0  0  0  0  0  0
  -28.6572  -12.5926   21.0759 C   0  0  0  0  0  0  0  0  0  0  0  0
  -29.9909  -25.8973   21.2223 C   0  0  0  0  0  0  0  0  0  0  0  0
  -29.5537  -14.8369   20.3027 C   0  0  0  0  0  0  0  0  0  0  0  0
  -30.7419  -25.0158   20.2244 C   0  0  0  0  0  0  0  0  0  0  0  0
  -28.2330  -13.4348   18.7404 C   0  0  0  0  0  0  0  0  0  0  0  0
  -31.1558  -16.9200   16.7527 C   0  0  0  0  0  0  0  0  0  0  0  0
  -30.1377  -17.4044   18.5570 C   0  0  0  0  0  0  0  0  0  0  0  0
  -28.5232  -24.1101   20.5822 C   0  0  0  0  0  0  0  0  0  0  0  0
  -24.2091  -33.1576   18.0542 C   0  0  1  0  0  0  0  0  0  0  0  0
  -33.2120  -21.4260   17.7524 C   0  0  0  0  0  0  0  0  0  0  0  0
  -23.9247  -31.0592   21.2084 C   0  0  1  0  0  0  0  0  0  0  0  0
  -28.4786  -12.1900   19.6045 C   0  0  2  0  0  0  0  0  0  0  0  0
  -30.4281  -18.1702   17.2592 C   0  0  0  0  0  0  0  0  0  0  0  0
  -28.5275  -25.5975   20.9321 C   0  0  2  0  0  0  0  0  0  1  0  0
  -25.8061  -29.1526   28.2487 C   0  0  0  0  0  0  0  0  0  0  0  0
  -26.1009  -34.2999   24.3175 C   0  0  0  0  0  0  0  0  0  0  0  0
  -26.9747  -33.0437   26.2990 C   0  0  0  0  0  0  0  0  0  0  0  0
  -24.5190  -33.3858   26.0253 C   0  0  0  0  0  0  0  0  0  0  0  0
  -26.9387  -26.9915   25.3293 C   0  0  0  0  0  0  0  0  0  0  0  0
  -25.7193  -31.7539   24.5126 C   0  0  1  0  0  0  0  0  0  0  0  0
  -25.8986  -28.7295   26.7909 C   0  0  2  0  0  0  0  0  0  0  0  0
  -25.8332  -33.1113   25.2622 C   0  0  0  0  0  0  0  0  0  0  0  0
  -29.2839  -21.7573   19.2697 N   0  0  0  0  0  0  0  0  0  0  0  0
  -26.3295  -11.1778   20.2678 N   0  0  0  0  0  0  0  0  0  0  0  0
  -31.4877  -22.6630   18.9086 N   0  0  0  0  0  0  0  0  0  0  0  0
  -27.3817  -11.1554   19.4321 N   0  0  0  0  0  0  0  0  0  0  0  0
  -29.8542  -23.8748   20.0211 N   0  0  3  0  0  0  0  0  0  0  0  0
  -24.8374  -30.9425   22.3475 N   0  0  0  0  0  0  0  0  0  0  0  0
  -29.2922  -14.4357   18.9151 N   0  0  0  0  0  0  0  0  0  0  0  0
  -30.4511  -16.1955   17.8077 N   0  0  0  0  0  0  0  0  0  0  0  0
  -28.2986   -9.9978   17.5801 N   0  0  0  0  0  0  0  0  0  0  0  0
  -24.4422   -7.7892   18.3840 N   0  0  0  0  0  0  0  0  0  0  0  0
  -31.2991  -19.2751   17.4521 N   0  0  0  0  0  0  0  0  0  0  0  0
  -23.7872  -32.2728   19.1189 N   0  0  0  0  0  0  0  0  0  0  0  0
  -25.4390  -30.6144   25.3794 N   0  0  0  0  0  0  0  0  0  0  0  0
  -26.7775  -27.5290   26.7048 N   0  3  0  0  0  0  0  0  0  0  0  0
  -26.3018   -7.8618   17.0441 O   0  0  0  0  0  0  0  0  0  0  0  0
  -25.6767  -32.4578   20.4673 O   0  0  0  0  0  0  0  0  0  0  0  0
  -23.6359  -32.4711   23.6343 O   0  0  0  0  0  0  0  0  0  0  0  0
  -27.6513  -30.0281   25.7521 O   0  0  0  0  0  0  0  0  0  0  0  0
  -30.1192  -14.2084   16.7743 O   0  0  0  0  0  0  0  0  0  0  0  0
  -20.7527   -8.9546   22.3912 O   0  0  0  0  0  0  0  0  0  0  0  0
  -28.0867  -26.3455   19.8046 O   0  0  0  0  0  0  0  0  0  1  0  0
  -20.6293   -4.5396   25.6922 F   0  0  0  0  0  0  0  0  0  0  0  0
  -20.1266   -9.2052   25.0722 F   0  0  0  0  0  0  0  0  0  0  0  0
  1  2  1  0  0  0  0
  1  5  2  0  0  0  0
  2  6  2  0  0  0  0
  3  8  2  0  0  0  0
  3 16  1  0  0  0  0
  4  9  1  0  0  0  0
  4 16  2  0  0  0  0
  5 18  1  0  0  0  0
  6 20  1  0  0  0  0
  7 10  2  0  0  0  0
  7 19  1  0  0  0  0
  8 23  1  0  0  0  0
  9 23  2  0  0  0  0
 10 24  1  0  0  0  0
 11 12  2  0  0  0  0
 11 25  1  0  0  0  0
 12 26  1  0  0  0  0
 13 21  1  0  0  0  0
 13 24  2  0  0  0  0
 14 26  2  0  0  0  0
 14 27  1  0  0  0  0
 15 22  1  0  0  0  0
 15 67  2  0  0  0  0
 16 28  1  0  0  0  0
 17 28  1  0  0  0  0
 17 30  2  0  0  0  0
 17 32  1  0  0  0  0
 18 20  2  0  0  0  0
 18 37  1  0  0  0  0
 19 21  2  0  0  0  0
 19 38  1  0  0  0  0
 20 53  1  0  0  0  0
 21 39  1  0  0  0  0
 22 29  2  0  0  0  0
 22 77  1  0  0  0  0
 23 86  1  0  0  0  0
 24 87  1  0  0  0  0
 25 27  2  0  0  0  0
 25 86  1  0  0  0  0
 26 88  1  0  0  0  0
 27 89  1  0  0  0  0
 28 68  2  0  0  0  0
 29 54  1  0  0  0  0
 29 69  1  0  0  0  0
 30 70  1  0  0  0  0
 30 75  1  0  0  0  0
 31 67  1  0  0  0  0
 31 69  2  0  0  0  0
 31 71  1  0  0  0  0
 32 76  1  0  0  0  0
 32 81  2  0  0  0  0
 33 55  1  0  0  0  0
 33 78  1  0  0  0  0
 33 82  2  0  0  0  0
 34 64  1  0  0  0  0
 34 72  1  0  0  0  0
 34 83  2  0  0  0  0
 35 65  1  0  0  0  0
 35 79  1  0  0  0  0
 35 84  2  0  0  0  0
 36 73  1  0  0  0  0
 36 74  1  0  0  0  0
 36 85  2  0  0  0  0
 37 40  1  0  0  0  0
 38 55  1  0  0  0  0
 39 72  1  0  0  0  0
 40 42  1  0  0  0  0
 41 45  1  0  0  0  0
 41 47  1  0  0  0  0
 42 53  1  0  0  0  0
 43 44  1  0  0  0  0
 43 54  1  0  0  0  0
 44 54  1  0  0  0  0
 45 56  1  0  0  0  0
 46 48  1  0  0  0  0
 46 58  1  0  0  0  0
 47 73  1  0  0  0  0
 48 71  1  0  0  0  0
 49 56  1  0  0  0  0
 49 73  1  0  0  0  0
 50 57  1  0  0  0  0
 50 74  1  0  0  0  0
 51 57  1  0  0  0  0
 51 74  1  0  0  0  0
 52 58  1  0  0  0  0
 52 71  1  0  0  0  0
 53 78  1  0  0  0  0
 55 72  1  0  0  0  0
 56 70  1  0  0  0  0
 57 77  1  0  0  0  0
 58 87  1  0  0  0  0
 59 65  1  0  0  0  0
 60 66  1  0  0  0  0
 61 66  1  0  0  0  0
 62 66  1  0  0  0  0
 63 80  1  0  0  0  0
 64 66  1  0  0  0  0
 64 79  1  0  0  0  0
 65 80  1  0  0  0  0
 68 70  1  0  0  0  0
M  CHG  1  80   1
M  ISO  4  36 100  58 101  74 100  87 101
M  END
> <Batch ID>
0198

> <Smiles>
CNC(C)C(=O)NC(C(=O)N1Cc2cc([101O:1][101CH:1]3CCN(c4ncc(NC5C[100N:0]([100C:0](=O)N6CCCC(n7nc(-c8ccc(Oc9ccc(F)cc9F)cc8)c(C(N)=O)c7N)C6)C5)c(C5CC5)n4)C3)ccc2CC1C(=O)NC1CCCc2ccccc21)C(C)(C)C

> <Shape>
0.269

> <Color>
0.109

> <Negative vol penalty>
0.000

$$$$

  -OEChem-04052323483D

 83 92  0     1  0  0  0  0  0999 V2000
  -15.2859  -26.8045   23.7576 C   0  0  0  0  0  0  0  0  0  0  0  0
  -15.9760  -25.9785   22.8761 C   0  0  0  0  0  0  0  0  0  0  0  0
  -23.4494   -9.6946   19.9374 C   0  0  0  0  0  0  0  0  0  0  0  0
  -23.5689  -10.0560   22.3233 C   0  0  0  0  0  0  0  0  0  0  0  0
  -15.9124  -27.9294   24.2924 C   0  0  0  0  0  0  0  0  0  0  0  0
  -17.2927  -26.2777   22.5280 C   0  0  0  0  0  0  0  0  0  0  0  0
  -21.7930  -22.2876   21.3738 C   0  0  0  0  0  0  0  0  0  0  0  0
  -22.7324   -8.5175   20.1516 C   0  0  0  0  0  0  0  0  0  0  0  0
  -22.8519   -8.8788   22.5375 C   0  0  0  0  0  0  0  0  0  0  0  0
  -22.3200  -21.7864   20.1843 C   0  0  0  0  0  0  0  0  0  0  0  0
  -19.5541   -7.6375   20.8979 C   0  0  0  0  0  0  0  0  0  0  0  0
  -18.4286   -7.4107   20.1058 C   0  0  0  0  0  0  0  0  0  0  0  0
  -24.0632  -23.4520   20.2618 C   0  0  0  0  0  0  0  0  0  0  0  0
  -19.4297   -5.3790   19.2649 C   0  0  0  0  0  0  0  0  0  0  0  0
  -23.8677  -10.4639   21.0233 C   0  0  0  0  0  0  0  0  0  0  0  0
  -24.0854  -12.9754   20.6329 C   0  0  0  0  0  0  0  0  0  0  0  0
  -17.2407  -28.2372   23.9582 C   0  0  0  0  0  0  0  0  0  0  0  0
  -22.3918  -23.3835   22.0116 C   0  0  0  0  0  0  0  0  0  0  0  0
  -17.9371  -27.4086   23.0578 C   0  0  0  0  0  0  0  0  0  0  0  0
  -23.5434  -23.9636   21.4606 C   0  0  0  0  0  0  0  0  0  0  0  0
  -22.4336   -8.1096   21.4516 C   0  0  0  0  0  0  0  0  0  0  0  0
  -23.4535  -22.3704   19.6266 C   0  0  0  0  0  0  0  0  0  0  0  0
  -20.6175   -6.7350   20.8734 C   0  0  0  0  0  0  0  0  0  0  0  0
  -18.3664   -6.2815   19.2893 C   0  0  0  0  0  0  0  0  0  0  0  0
  -20.5552   -5.6058   20.0570 C   0  0  0  0  0  0  0  0  0  0  0  0
  -24.6088  -11.6796   20.8027 C   0  0  0  0  0  0  0  0  0  0  0  0
  -25.1905  -13.7719   20.4577 C   0  0  0  0  0  0  0  0  0  0  0  0
  -22.7221  -13.4193   20.6335 C   0  0  0  0  0  0  0  0  0  0  0  0
  -21.4581  -26.3284   22.7598 C   0  0  0  0  0  0  0  0  0  0  0  0
  -24.3245  -26.4332   24.2748 C   0  0  0  0  0  0  0  0  0  0  0  0
  -27.5086  -25.2335   24.5367 C   0  0  0  0  0  0  0  0  0  0  0  0
  -30.1129  -14.8525   18.3309 C   0  0  0  0  0  0  0  0  0  0  0  0
  -17.8601  -29.4901   24.5249 C   0  0  0  0  0  0  0  0  0  0  0  0
  -21.8268  -23.8954   23.3081 C   0  0  0  0  0  0  0  0  0  0  0  0
  -24.2357  -25.1292   22.1167 C   0  0  0  0  0  0  0  0  0  0  0  0
  -19.3807  -29.5294   24.3968 C   0  0  0  0  0  0  0  0  0  0  0  0
  -30.1045  -12.7937   21.1024 C   0  0  0  0  0  0  0  0  0  0  0  0
  -19.8087  -29.1227   22.9903 C   0  0  0  0  0  0  0  0  0  0  0  0
  -28.6318  -12.4202   21.2713 C   0  0  0  0  0  0  0  0  0  0  0  0
  -25.4924  -17.8323   14.6778 C   0  0  0  0  0  0  0  0  0  0  0  0
  -25.1113  -19.3271   14.7859 C   0  0  0  0  0  0  0  0  0  0  0  0
  -30.5054  -12.7822   19.6315 C   0  0  0  0  0  0  0  0  0  0  0  0
  -29.3633  -17.0863   17.5954 C   0  0  0  0  0  0  0  0  0  0  0  0
  -28.4482  -15.1102   16.4497 C   0  0  0  0  0  0  0  0  0  0  0  0
  -28.0113  -17.7796   17.4262 C   0  0  0  0  0  0  0  0  0  0  0  0
  -27.1081  -15.8295   16.3097 C   0  0  0  0  0  0  0  0  0  0  0  0
  -28.1938  -13.3101   18.9294 C   0  0  0  0  0  0  0  0  0  0  0  0
  -19.3748  -27.6861   22.6753 C   0  0  1  0  0  0  0  0  0  0  0  0
  -22.2169  -25.3410   23.6006 C   0  0  1  0  0  0  0  0  0  0  0  0
  -27.7312  -13.3141   20.4004 C   0  0  1  0  0  0  0  0  0  0  0  0
  -26.0123  -17.9443   16.1291 C   0  0  2  0  0  0  0  0  0  0  0  0
  -26.2207  -19.4535   15.8590 C   0  0  2  0  0  0  0  0  0  0  0  0
  -29.6282  -25.5410   25.8444 C   0  0  0  0  0  0  0  0  0  0  0  0
  -24.9181  -28.9834   22.7084 C   0  0  0  0  0  0  0  0  0  0  0  0
  -27.3322  -28.7099   23.3130 C   0  0  0  0  0  0  0  0  0  0  0  0
  -25.6292  -29.0420   25.1053 C   0  0  0  0  0  0  0  0  0  0  0  0
  -27.4290  -22.4510   25.5419 C   0  0  0  0  0  0  0  0  0  0  0  0
  -25.5514  -21.7303   16.6382 C   0  0  0  0  0  0  0  0  0  0  0  0
  -25.1366  -22.4819   17.8877 C   0  0  0  0  0  0  0  0  0  1  0  0
  -25.7270  -26.8311   23.8828 C   0  0  1  0  0  0  0  0  0  0  0  0
  -28.3176  -24.7771   25.7375 C   0  0  2  0  0  0  0  0  0  0  0  0
  -25.8877  -28.3709   23.7388 C   0  0  0  0  0  0  0  0  0  0  0  0
  -25.9427  -11.6502   20.7408 N   0  0  0  0  0  0  0  0  0  0  0  0
  -26.2668  -12.9373   20.5301 N   0  0  0  0  0  0  0  0  0  0  0  0
  -23.6414  -25.5977   23.3796 N   0  0  0  0  0  0  0  0  0  0  0  0
  -29.6243  -13.6397   18.8393 N   0  0  0  0  0  0  0  0  0  0  0  0
  -29.2168  -15.6331   17.5851 N   0  0  0  0  0  0  0  0  0  0  0  0
  -27.3077  -17.2836   16.2359 N   0  0  0  0  0  0  0  0  0  0  0  0
  -25.3369  -15.0978   20.2503 N   0  0  0  0  0  0  0  0  0  0  0  0
  -21.7101  -12.4693   20.8273 N   0  0  0  0  0  0  0  0  0  0  0  0
  -20.2614  -26.7384   23.3158 N   0  0  0  0  0  0  0  0  0  0  0  0
  -26.6139  -26.2277   24.8716 N   0  0  0  0  0  0  0  0  0  0  0  0
  -25.8337  -20.3053   16.9905 N   0  3  0  0  0  0  0  0  0  0  0  0
  -28.6281  -23.3235   25.6307 N   0  3  0  0  0  0  0  0  0  0  0  0
  -22.4097  -14.6204   20.4507 O   0  0  0  0  0  0  0  0  0  0  0  0
  -21.9246  -26.6925   21.6867 O   0  0  0  0  0  0  0  0  0  0  0  0
  -23.8550  -26.8425   25.3395 O   0  0  0  0  0  0  0  0  0  0  0  0
  -27.6583  -24.7583   23.4132 O   0  0  0  0  0  0  0  0  0  0  0  0
  -31.2764  -15.2209   18.5347 O   0  0  0  0  0  0  0  0  0  0  0  0
  -21.7338   -6.9611   21.6610 O   0  0  0  0  0  0  0  0  0  0  0  0
  -23.9784  -21.8752   18.4455 O   0  0  0  0  0  0  0  0  0  1  0  0
  -17.2848   -6.0631   18.5299 F   0  0  0  0  0  0  0  0  0  0  0  0
  -21.5732   -4.7346   20.0302 F   0  0  0  0  0  0  0  0  0  0  0  0
  1  2  1  0  0  0  0
  1  5  2  0  0  0  0
  2  6  2  0  0  0  0
  3  8  2  0  0  0  0
  3 15  1  0  0  0  0
  4  9  1  0  0  0  0
  4 15  2  0  0  0  0
  5 17  1  0  0  0  0
  6 19  1  0  0  0  0
  7 10  2  0  0  0  0
  7 18  1  0  0  0  0
  8 21  1  0  0  0  0
  9 21  2  0  0  0  0
 10 22  1  0  0  0  0
 11 12  2  0  0  0  0
 11 23  1  0  0  0  0
 12 24  1  0  0  0  0
 13 20  1  0  0  0  0
 13 22  2  0  0  0  0
 14 24  2  0  0  0  0
 14 25  1  0  0  0  0
 15 26  1  0  0  0  0
 16 26  1  0  0  0  0
 16 27  2  0  0  0  0
 16 28  1  0  0  0  0
 17 19  2  0  0  0  0
 17 33  1  0  0  0  0
 18 20  2  0  0  0  0
 18 34  1  0  0  0  0
 19 48  1  0  0  0  0
 20 35  1  0  0  0  0
 21 80  1  0  0  0  0
 22 81  1  0  0  0  0
 23 25  2  0  0  0  0
 23 80  1  0  0  0  0
 24 82  1  0  0  0  0
 25 83  1  0  0  0  0
 26 63  2  0  0  0  0
 27 64  1  0  0  0  0
 27 69  1  0  0  0  0
 28 70  1  0  0  0  0
 28 75  2  0  0  0  0
 29 49  1  0  0  0  0
 29 71  1  0  0  0  0
 29 76  2  0  0  0  0
 30 60  1  0  0  0  0
 30 65  1  0  0  0  0
 30 77  2  0  0  0  0
 31 61  1  0  0  0  0
 31 72  1  0  0  0  0
 31 78  2  0  0  0  0
 32 66  1  0  0  0  0
 32 67  1  0  0  0  0
 32 79  2  0  0  0  0
 33 36  1  0  0  0  0
 34 49  1  0  0  0  0
 35 65  1  0  0  0  0
 36 38  1  0  0  0  0
 37 39  1  0  0  0  0
 37 42  1  0  0  0  0
 38 48  1  0  0  0  0
 39 50  1  0  0  0  0
 40 41  1  0  0  0  0
 40 51  1  0  0  0  0
 41 52  1  0  0  0  0
 42 66  1  0  0  0  0
 43 45  1  0  0  0  0
 43 67  1  0  0  0  0
 44 46  1  0  0  0  0
 44 67  1  0  0  0  0
 45 68  1  0  0  0  0
 46 68  1  0  0  0  0
 47 50  1  0  0  0  0
 47 66  1  0  0  0  0
 48 71  1  0  0  0  0
 49 65  1  0  0  0  0
 50 64  1  0  0  0  0
 51 52  1  0  0  0  0
 51 68  1  0  0  0  0
 52 73  1  0  0  0  0
 53 61  1  0  0  0  0
 54 62  1  0  0  0  0
 55 62  1  0  0  0  0
 56 62  1  0  0  0  0
 57 74  1  0  0  0  0
 58 59  1  0  0  0  0
 58 73  1  0  0  0  0
 59 81  1  0  0  0  0
 60 62  1  0  0  0  0
 60 72  1  0  0  0  0
 61 74  1  0  0  0  0
 63 64  1  0  0  0  0
M  CHG  2  73   1  74   1
M  ISO  4  32 100  59 101  67 100  81 101
M  END
> <Batch ID>
0198

> <Smiles>
CNC(C)C(=O)NC(C(=O)N1Cc2cc([101O:1][101CH2:1]CNC3CCC3N3CC[100N:0]([100C:0](=O)N4CCCC(n5nc(-c6ccc(Oc7ccc(F)cc7F)cc6)c(C(N)=O)c5N)C4)CC3)ccc2CC1C(=O)NC1CCCc2ccccc21)C(C)(C)C

> <Shape>
0.186

> <Color>
0.167

> <Negative vol penalty>
0.000

$$$$

  -OEChem-04052323483D

 92102  0     1  0  0  0  0  0999 V2000
  -17.7475  -14.3469   21.3004 C   0  0  0  0  0  0  0  0  0  0  0  0
  -18.6506  -15.3687   21.0253 C   0  0  0  0  0  0  0  0  0  0  0  0
  -23.3762  -27.1508   22.4256 C   0  0  0  0  0  0  0  0  0  0  0  0
  -22.9156  -29.4740   21.9482 C   0  0  0  0  0  0  0  0  0  0  0  0
  -18.1615  -13.2275   22.0212 C   0  0  0  0  0  0  0  0  0  0  0  0
  -19.9681  -15.2723   21.4719 C   0  0  0  0  0  0  0  0  0  0  0  0
  -24.9815  -17.3343   18.6224 C   0  0  0  0  0  0  0  0  0  0  0  0
  -22.2680  -27.1049   23.2713 C   0  0  0  0  0  0  0  0  0  0  0  0
  -21.8073  -29.4280   22.7939 C   0  0  0  0  0  0  0  0  0  0  0  0
  -25.7401  -18.4934   18.7799 C   0  0  0  0  0  0  0  0  0  0  0  0
  -18.6467  -29.8236   24.5466 C   0  0  0  0  0  0  0  0  0  0  0  0
  -17.4615  -30.4047   24.0959 C   0  0  0  0  0  0  0  0  0  0  0  0
  -27.2677  -17.2921   20.2091 C   0  0  0  0  0  0  0  0  0  0  0  0
  -17.4339  -28.8891   22.2145 C   0  0  0  0  0  0  0  0  0  0  0  0
  -23.7001  -28.3354   21.7640 C   0  0  0  0  0  0  0  0  0  0  0  0
  -24.8741  -28.1061   19.5109 C   0  0  0  0  0  0  0  0  0  0  0  0
  -19.4872  -13.1129   22.4685 C   0  0  0  0  0  0  0  0  0  0  0  0
  -25.3549  -16.1462   19.2669 C   0  0  0  0  0  0  0  0  0  0  0  0
  -20.3999  -14.1509   22.2005 C   0  0  0  0  0  0  0  0  0  0  0  0
  -26.5136  -16.1187   20.0560 C   0  0  0  0  0  0  0  0  0  0  0  0
  -21.4835  -28.2434   23.4555 C   0  0  0  0  0  0  0  0  0  0  0  0
  -26.8818  -18.4732   19.5757 C   0  0  0  0  0  0  0  0  0  0  0  0
  -19.2256  -28.7753   23.8313 C   0  0  0  0  0  0  0  0  0  0  0  0
  -16.8551  -29.9375   22.9299 C   0  0  0  0  0  0  0  0  0  0  0  0
  -18.6192  -28.3081   22.6653 C   0  0  0  0  0  0  0  0  0  0  0  0
  -24.8451  -28.3836   20.8907 C   0  0  0  0  0  0  0  0  0  0  0  0
  -26.1862  -28.2930   19.1505 C   0  0  0  0  0  0  0  0  0  0  0  0
  -32.2014  -19.4734   18.6863 C   0  0  0  0  0  0  0  0  0  0  0  0
  -31.2325  -20.4925   18.9182 C   0  0  0  0  0  0  0  0  0  0  0  0
  -30.6650  -18.2899   17.4962 C   0  0  0  0  0  0  0  0  0  0  0  0
  -23.8100  -27.7143   18.6333 C   0  0  0  0  0  0  0  0  0  0  0  0
  -24.0156  -14.2606   21.4474 C   0  0  0  0  0  0  0  0  0  0  0  0
  -26.5777  -12.3720   20.8219 C   0  0  0  0  0  0  0  0  0  0  0  0
  -29.7858  -12.1246   19.6846 C   0  0  0  0  0  0  0  0  0  0  0  0
  -31.6261  -27.5754   20.1421 C   0  0  0  0  0  0  0  0  0  0  0  0
  -19.8760  -11.9058   23.2849 C   0  0  0  0  0  0  0  0  0  0  0  0
  -24.5408  -14.8976   19.0653 C   0  0  0  0  0  0  0  0  0  0  0  0
  -26.9687  -14.8635   20.7531 C   0  0  0  0  0  0  0  0  0  0  0  0
  -21.3854  -11.7082   23.3990 C   0  0  0  0  0  0  0  0  0  0  0  0
  -30.0458  -30.3471   21.6579 C   0  0  0  0  0  0  0  0  0  0  0  0
  -22.0716  -13.0259   23.7449 C   0  0  0  0  0  0  0  0  0  0  0  0
  -30.6483  -15.7280   17.3563 C   0  0  0  0  0  0  0  0  0  0  0  0
  -29.2414  -16.1896   17.1225 C   0  0  0  0  0  0  0  0  0  0  0  0
  -28.5546  -30.0545   21.5161 C   0  0  0  0  0  0  0  0  0  0  0  0
  -32.3677  -24.2142   18.7818 C   0  0  0  0  0  0  0  0  0  0  0  0
  -30.8234  -29.0682   21.9384 C   0  0  0  0  0  0  0  0  0  0  0  0
  -32.6937  -25.6909   18.9426 C   0  0  0  0  0  0  0  0  0  0  0  0
  -30.7306  -25.1716   20.2218 C   0  0  0  0  0  0  0  0  0  0  0  0
  -29.1511  -27.7129   20.7072 C   0  0  0  0  0  0  0  0  0  0  0  0
  -21.8437  -14.0715   22.6466 C   0  0  1  0  0  0  0  0  0  0  0  0
  -30.3911  -17.0536   16.7155 C   0  0  0  0  0  0  0  0  0  0  0  0
  -24.7283  -13.8753   20.1820 C   0  0  1  0  0  0  0  0  0  0  0  0
  -31.5707  -23.9061   20.0499 C   0  0  1  0  0  0  0  0  0  0  0  0
  -28.3131  -28.9811   20.4435 C   0  0  1  0  0  0  0  0  0  0  0  0
  -31.9256  -11.0236   18.9731 C   0  0  0  0  0  0  0  0  0  0  0  0
  -30.0108  -22.3209   21.2371 C   0  0  0  0  0  0  0  0  0  0  0  0
  -27.1475  -12.3663   23.8194 C   0  0  0  0  0  0  0  0  0  0  0  0
  -29.4495  -11.5243   23.3096 C   0  0  0  0  0  0  0  0  0  0  0  0
  -27.4577  -10.1544   22.6944 C   0  0  0  0  0  0  0  0  0  0  0  0
  -28.8356  -11.8147   16.8989 C   0  0  0  0  0  0  0  0  0  0  0  0
  -29.0272  -22.2751   17.4140 C   0  0  0  0  0  0  0  0  0  0  0  0
  -28.3383  -21.8078   16.1345 C   0  0  0  0  0  0  0  0  0  0  0  0
  -27.6329  -20.5304   18.6484 C   0  0  0  0  0  0  0  0  0  1  0  0
  -27.9761  -12.2491   21.3770 C   0  0  1  0  0  0  0  0  0  0  0  0
  -30.4357  -11.1655   18.7037 C   0  0  2  0  0  0  0  0  0  0  0  0
  -30.7391  -22.6404   19.9423 C   0  0  2  0  0  0  0  0  0  0  0  0
  -28.9675  -21.2690   18.5697 C   0  0  1  0  0  0  0  0  0  0  0  0
  -27.9983  -11.5978   22.7886 C   0  0  0  0  0  0  0  0  0  0  0  0
  -26.0436  -28.7211   21.3740 N   0  0  0  0  0  0  0  0  0  0  0  0
  -31.9322  -18.4132   18.0034 N   0  0  0  0  0  0  0  0  0  0  0  0
  -29.6841  -19.1262   17.6233 N   0  0  0  0  0  0  0  0  0  0  0  0
  -26.8380  -28.6567   20.2920 N   0  0  0  0  0  0  0  0  0  0  0  0
  -30.0315  -20.2669   18.3782 N   0  0  0  0  0  0  0  0  0  0  0  0
  -26.1358  -13.6702   20.5301 N   0  0  0  0  0  0  0  0  0  0  0  0
  -30.5655  -28.0419   20.9266 N   0  0  0  0  0  0  0  0  0  0  0  0
  -31.5917  -26.2464   19.7219 N   0  0  0  0  0  0  0  0  0  0  0  0
  -26.8344  -28.1801   17.9718 N   0  0  0  0  0  0  0  0  0  0  0  0
  -22.5227  -27.5682   19.1678 N   0  0  0  0  0  0  0  0  0  0  0  0
  -22.7098  -13.8139   21.5161 N   0  0  0  0  0  0  0  0  0  0  0  0
  -28.7515  -11.5274   20.3738 N   0  0  0  0  0  0  0  0  0  0  0  0
  -31.6381  -21.5239   19.6320 N   0  3  0  0  0  0  0  0  0  0  0  0
  -28.4455  -22.8374   15.0745 N   0  3  0  0  0  0  0  0  0  0  0  0
  -30.2549  -11.6519   17.3067 N   0  3  0  0  0  0  0  0  0  0  0  0
  -23.9986  -27.4843   17.4147 O   0  0  0  0  0  0  0  0  0  0  0  0
  -24.6072  -14.9136   22.2991 O   0  0  0  0  0  0  0  0  0  0  0  0
  -25.9048  -11.3530   20.6467 O   0  0  0  0  0  0  0  0  0  0  0  0
  -30.1608  -13.2862   19.8280 O   0  0  0  0  0  0  0  0  0  0  0  0
  -32.5879  -28.3039   19.8626 O   0  0  0  0  0  0  0  0  0  0  0  0
  -20.4019  -28.1989   24.2805 O   0  0  0  0  0  0  0  0  0  0  0  0
  -27.6290  -19.6114   19.7327 O   0  0  0  0  0  0  0  0  0  1  0  0
  -15.7161  -30.4945   22.4980 F   0  0  0  0  0  0  0  0  0  0  0  0
  -19.1700  -27.3005   21.9744 F   0  0  0  0  0  0  0  0  0  0  0  0
  1  2  1  0  0  0  0
  1  5  2  0  0  0  0
  2  6  2  0  0  0  0
  3  8  2  0  0  0  0
  3 15  1  0  0  0  0
  4  9  1  0  0  0  0
  4 15  2  0  0  0  0
  5 17  1  0  0  0  0
  6 19  1  0  0  0  0
  7 10  2  0  0  0  0
  7 18  1  0  0  0  0
  8 21  1  0  0  0  0
  9 21  2  0  0  0  0
 10 22  1  0  0  0  0
 11 12  2  0  0  0  0
 11 23  1  0  0  0  0
 12 24  1  0  0  0  0
 13 20  1  0  0  0  0
 13 22  2  0  0  0  0
 14 24  2  0  0  0  0
 14 25  1  0  0  0  0
 15 26  1  0  0  0  0
 16 26  1  0  0  0  0
 16 27  2  0  0  0  0
 16 31  1  0  0  0  0
 17 19  2  0  0  0  0
 17 36  1  0  0  0  0
 18 20  2  0  0  0  0
 18 37  1  0  0  0  0
 19 50  1  0  0  0  0
 20 38  1  0  0  0  0
 21 89  1  0  0  0  0
 22 90  1  0  0  0  0
 23 25  2  0  0  0  0
 23 89  1  0  0  0  0
 24 91  1  0  0  0  0
 25 92  1  0  0  0  0
 26 69  2  0  0  0  0
 27 72  1  0  0  0  0
 27 77  1  0  0  0  0
 28 29  1  0  0  0  0
 28 70  2  0  0  0  0
 29 73  1  0  0  0  0
 29 81  2  0  0  0  0
 30 51  1  0  0  0  0
 30 70  1  0  0  0  0
 30 71  2  0  0  0  0
 31 78  1  0  0  0  0
 31 84  2  0  0  0  0
 32 52  1  0  0  0  0
 32 79  1  0  0  0  0
 32 85  2  0  0  0  0
 33 64  1  0  0  0  0
 33 74  1  0  0  0  0
 33 86  2  0  0  0  0
 34 65  1  0  0  0  0
 34 80  1  0  0  0  0
 34 87  2  0  0  0  0
 35 75  1  0  0  0  0
 35 76  1  0  0  0  0
 35 88  2  0  0  0  0
 36 39  1  0  0  0  0
 37 52  1  0  0  0  0
 38 74  1  0  0  0  0
 39 41  1  0  0  0  0
 40 44  1  0  0  0  0
 40 46  1  0  0  0  0
 41 50  1  0  0  0  0
 42 43  1  0  0  0  0
 42 51  1  0  0  0  0
 43 51  1  0  0  0  0
 44 54  1  0  0  0  0
 45 47  1  0  0  0  0
 45 53  1  0  0  0  0
 46 75  1  0  0  0  0
 47 76  1  0  0  0  0
 48 53  1  0  0  0  0
 48 76  1  0  0  0  0
 49 54  1  0  0  0  0
 49 75  1  0  0  0  0
 50 79  1  0  0  0  0
 52 74  1  0  0  0  0
 53 66  1  0  0  0  0
 54 72  1  0  0  0  0
 55 65  1  0  0  0  0
 56 66  1  0  0  0  0
 57 68  1  0  0  0  0
 58 68  1  0  0  0  0
 59 68  1  0  0  0  0
 60 83  1  0  0  0  0
 61 62  1  0  0  0  0
 61 67  1  0  0  0  0
 62 82  1  0  0  0  0
 63 67  1  0  0  0  0
 63 90  1  0  0  0  0
 64 68  1  0  0  0  0
 64 80  1  0  0  0  0
 65 83  1  0  0  0  0
 66 81  1  0  0  0  0
 67 73  1  0  0  0  0
 69 72  1  0  0  0  0
 71 73  1  0  0  0  0
M  CHG  3  81   1  82   1  83   1
M  ISO  4  35 100  63 101  76 100  90 101
M  END
> <Batch ID>
0198

> <Smiles>
CNC(C)C(=O)NC(C(=O)N1Cc2cc([101O:1][101CH2:1]C(CCN)n3nc(C4CC4)ncc3=NC(C)C3CC[100N:0]([100C:0](=O)N4CCCC(n5nc(-c6ccc(Oc7ccc(F)cc7F)cc6)c(C(N)=O)c5N)C4)C3)ccc2CC1C(=O)NC1CCCc2ccccc21)C(C)(C)C

> <Shape>
0.270

> <Color>
0.053

> <Negative vol penalty>
0.000

$$$$

  -OEChem-04052323483D

 87 96  0     1  0  0  0  0  0999 V2000
  -28.9664  -12.6376   19.0458 C   0  0  0  0  0  0  0  0  0  0  0  0
  -28.6997  -13.9605   18.7079 C   0  0  0  0  0  0  0  0  0  0  0  0
  -30.8747  -24.2818   20.7695 C   0  0  0  0  0  0  0  0  0  0  0  0
  -28.6982  -23.3019   20.3956 C   0  0  0  0  0  0  0  0  0  0  0  0
  -27.9912  -11.8721   19.6837 C   0  0  0  0  0  0  0  0  0  0  0  0
  -27.4573  -14.5184   19.0069 C   0  0  0  0  0  0  0  0  0  0  0  0
  -24.4317  -20.7428   20.8561 C   0  0  0  0  0  0  0  0  0  0  0  0
  -31.2306  -23.1894   21.5605 C   0  0  0  0  0  0  0  0  0  0  0  0
  -29.0541  -22.2095   21.1866 C   0  0  0  0  0  0  0  0  0  0  0  0
  -23.3981  -21.5948   20.4696 C   0  0  0  0  0  0  0  0  0  0  0  0
  -29.5171  -18.9909   22.8127 C   0  0  0  0  0  0  0  0  0  0  0  0
  -29.2018  -17.7170   22.3401 C   0  0  0  0  0  0  0  0  0  0  0  0
  -21.8181  -20.2012   21.6446 C   0  0  0  0  0  0  0  0  0  0  0  0
  -30.5619  -18.1069   20.3818 C   0  0  0  0  0  0  0  0  0  0  0  0
  -19.5661  -28.6311   22.8456 C   0  0  0  0  0  0  0  0  0  0  0  0
  -29.6085  -24.3381   20.1871 C   0  0  0  0  0  0  0  0  0  0  0  0
  -29.4169  -25.6037   17.9805 C   0  0  0  0  0  0  0  0  0  0  0  0
  -26.7396  -12.4238   19.9993 C   0  0  0  0  0  0  0  0  0  0  0  0
  -24.1644  -19.6057   21.6320 C   0  0  0  0  0  0  0  0  0  0  0  0
  -26.4640  -13.7592   19.6485 C   0  0  0  0  0  0  0  0  0  0  0  0
  -22.8505  -19.3378   22.0419 C   0  0  0  0  0  0  0  0  0  0  0  0
  -30.3203  -22.1533   21.7691 C   0  0  0  0  0  0  0  0  0  0  0  0
  -22.0906  -21.3225   20.8614 C   0  0  0  0  0  0  0  0  0  0  0  0
  -30.3547  -19.8229   22.0698 C   0  0  0  0  0  0  0  0  0  0  0  0
  -29.7243  -17.2750   21.1247 C   0  0  0  0  0  0  0  0  0  0  0  0
  -30.8771  -19.3809   20.8543 C   0  0  0  0  0  0  0  0  0  0  0  0
  -29.2400  -25.4665   19.3703 C   0  0  0  0  0  0  0  0  0  0  0  0
  -20.0305  -27.9781   21.7220 C   0  0  0  0  0  0  0  0  0  0  0  0
  -18.7329  -27.8945   23.6625 C   0  0  0  0  0  0  0  0  0  0  0  0
  -28.9067  -26.8455   17.6904 C   0  0  0  0  0  0  0  0  0  0  0  0
  -18.8924  -26.0929   22.2858 C   0  0  0  0  0  0  0  0  0  0  0  0
  -29.9908  -24.6903   17.0360 C   0  0  0  0  0  0  0  0  0  0  0  0
  -18.5196  -24.6885   21.9761 C   0  0  0  0  0  0  0  0  0  0  0  0
  -24.5043  -16.4733   21.2126 C   0  0  0  0  0  0  0  0  0  0  0  0
  -23.5747  -16.3506   24.3180 C   0  0  0  0  0  0  0  0  0  0  0  0
  -21.9285  -17.8392   26.9104 C   0  0  0  0  0  0  0  0  0  0  0  0
  -24.8328  -30.3149   20.3605 C   0  0  0  0  0  0  0  0  0  0  0  0
  -25.7005  -11.5431   20.6469 C   0  0  0  0  0  0  0  0  0  0  0  0
  -25.2942  -18.7113   22.0632 C   0  0  0  0  0  0  0  0  0  0  0  0
  -22.5134  -18.1412   22.8922 C   0  0  0  0  0  0  0  0  0  0  0  0
  -24.5419  -12.3214   21.2651 C   0  0  0  0  0  0  0  0  0  0  0  0
  -28.2083  -31.1570   19.6470 C   0  0  0  0  0  0  0  0  0  0  0  0
  -24.0377  -13.3869   20.2969 C   0  0  0  0  0  0  0  0  0  0  0  0
  -28.8721  -29.8081   19.3649 C   0  0  0  0  0  0  0  0  0  0  0  0
  -27.1629  -31.0506   20.7552 C   0  0  0  0  0  0  0  0  0  0  0  0
  -26.8013  -28.6647   20.2623 C   0  0  0  0  0  0  0  0  0  0  0  0
  -21.7780  -29.7228   21.2393 C   0  0  0  0  0  0  0  0  0  0  0  0
  -21.7064  -28.1441   19.8527 C   0  0  0  0  0  0  0  0  0  0  0  0
  -25.1369  -14.4075   19.9784 C   0  0  1  0  0  0  0  0  0  0  0  0
  -24.8362  -17.3009   22.4219 C   0  0  1  0  0  0  0  0  0  0  0  0
  -27.8231  -28.7080   19.1131 C   0  0  2  0  0  0  0  0  0  0  0  0
  -22.5174  -29.4458   19.9226 C   0  0  0  0  0  0  0  0  0  0  0  0
  -21.3066  -17.4801   29.3149 C   0  0  0  0  0  0  0  0  0  0  0  0
  -21.4055  -14.3835   23.4607 C   0  0  0  0  0  0  0  0  0  0  0  0
  -20.2618  -14.7988   25.6488 C   0  0  0  0  0  0  0  0  0  0  0  0
  -22.5492  -13.8045   25.6080 C   0  0  0  0  0  0  0  0  0  0  0  0
  -23.4295  -20.2380   27.7774 C   0  0  0  0  0  0  0  0  0  0  0  0
  -18.7729  -22.8188   20.3649 C   0  0  0  0  0  0  0  0  0  0  0  0
  -19.7643  -21.8128   20.9218 C   0  0  0  0  0  0  0  0  0  1  0  0
  -22.2497  -16.2484   25.0340 C   0  0  1  0  0  0  0  0  0  0  0  0
  -22.3279  -18.0723   28.3562 C   0  0  2  0  0  0  0  0  0  0  0  0
  -21.6223  -14.8304   24.9202 C   0  0  0  0  0  0  0  0  0  0  0  0
  -28.6628  -26.5358   19.9247 N   0  0  0  0  0  0  0  0  0  0  0  0
  -19.7126  -26.7045   21.4102 N   0  0  0  0  0  0  0  0  0  0  0  0
  -18.3738  -26.6184   23.4120 N   0  0  0  0  0  0  0  0  0  0  0  0
  -28.4726  -27.3568   18.8779 N   0  0  0  0  0  0  0  0  0  0  0  0
  -20.8889  -28.6993   20.8565 N   0  0  0  0  0  0  0  0  0  0  0  0
  -23.6518  -17.2932   23.2829 N   0  0  0  0  0  0  0  0  0  0  0  0
  -26.1962  -29.9928   20.4500 N   0  0  0  0  0  0  0  0  0  0  0  0
  -28.7917  -27.5391   16.5379 N   0  0  0  0  0  0  0  0  0  0  0  0
  -30.4664  -23.4574   17.5031 N   0  0  0  0  0  0  0  0  0  0  0  0
  -19.0595  -24.1560   20.8121 N   0  0  0  0  0  0  0  0  0  0  0  0
  -25.2886  -15.3444   21.0709 N   0  0  0  0  0  0  0  0  0  0  0  0
  -22.4914  -16.6867   26.4044 N   0  0  0  0  0  0  0  0  0  0  0  0
  -23.9768  -29.2608   20.0588 N   0  0  0  0  0  0  0  0  0  0  0  0
  -22.4415  -19.5321   28.6334 N   0  3  0  0  0  0  0  0  0  0  0  0
  -30.0943  -24.9661   15.8167 O   0  0  0  0  0  0  0  0  0  0  0  0
  -17.7577  -24.0897   22.7307 O   0  0  0  0  0  0  0  0  0  0  0  0
  -23.6024  -16.8314   20.4643 O   0  0  0  0  0  0  0  0  0  0  0  0
  -24.5092  -15.6259   24.6690 O   0  0  0  0  0  0  0  0  0  0  0  0
  -21.1879  -18.6012   26.2928 O   0  0  0  0  0  0  0  0  0  0  0  0
  -24.4020  -31.4609   20.5285 O   0  0  0  0  0  0  0  0  0  0  0  0
  -30.6673  -21.0871   22.5407 O   0  0  0  0  0  0  0  0  0  0  0  0
  -21.0797  -22.1521   20.4849 O   0  0  0  0  0  0  0  0  0  1  0  0
  -29.4227  -16.0510   20.6718 F   0  0  0  0  0  0  0  0  0  0  0  0
  -31.6833  -20.1752   20.1367 F   0  0  0  0  0  0  0  0  0  0  0  0
  -18.0725  -28.5636   25.0971 Cl  0  0  0  0  0  0  0  0  0  0  0  0
  1  2  1  0  0  0  0
  1  5  2  0  0  0  0
  2  6  2  0  0  0  0
  3  8  2  0  0  0  0
  3 16  1  0  0  0  0
  4  9  1  0  0  0  0
  4 16  2  0  0  0  0
  5 18  1  0  0  0  0
  6 20  1  0  0  0  0
  7 10  2  0  0  0  0
  7 19  1  0  0  0  0
  8 22  1  0  0  0  0
  9 22  2  0  0  0  0
 10 23  1  0  0  0  0
 11 12  2  0  0  0  0
 11 24  1  0  0  0  0
 12 25  1  0  0  0  0
 13 21  1  0  0  0  0
 13 23  2  0  0  0  0
 14 25  2  0  0  0  0
 14 26  1  0  0  0  0
 15 28  2  0  0  0  0
 15 29  1  0  0  0  0
 16 27  1  0  0  0  0
 17 27  1  0  0  0  0
 17 30  2  0  0  0  0
 17 32  1  0  0  0  0
 18 20  2  0  0  0  0
 18 38  1  0  0  0  0
 19 21  2  0  0  0  0
 19 39  1  0  0  0  0
 20 49  1  0  0  0  0
 21 40  1  0  0  0  0
 22 83  1  0  0  0  0
 23 84  1  0  0  0  0
 24 26  2  0  0  0  0
 24 83  1  0  0  0  0
 25 85  1  0  0  0  0
 26 86  1  0  0  0  0
 27 63  2  0  0  0  0
 28 64  1  0  0  0  0
 28 67  1  0  0  0  0
 29 65  2  0  0  0  0
 29 87  1  0  0  0  0
 30 66  1  0  0  0  0
 30 70  1  0  0  0  0
 31 33  1  0  0  0  0
 31 64  2  0  0  0  0
 31 65  1  0  0  0  0
 32 71  1  0  0  0  0
 32 77  2  0  0  0  0
 33 72  1  0  0  0  0
 33 78  2  0  0  0  0
 34 50  1  0  0  0  0
 34 73  1  0  0  0  0
 34 79  2  0  0  0  0
 35 60  1  0  0  0  0
 35 68  1  0  0  0  0
 35 80  2  0  0  0  0
 36 61  1  0  0  0  0
 36 74  1  0  0  0  0
 36 81  2  0  0  0  0
 37 69  1  0  0  0  0
 37 75  1  0  0  0  0
 37 82  2  0  0  0  0
 38 41  1  0  0  0  0
 39 50  1  0  0  0  0
 40 68  1  0  0  0  0
 41 43  1  0  0  0  0
 42 44  1  0  0  0  0
 42 45  1  0  0  0  0
 43 49  1  0  0  0  0
 44 51  1  0  0  0  0
 45 69  1  0  0  0  0
 46 51  1  0  0  0  0
 46 69  1  0  0  0  0
 47 52  1  0  0  0  0
 47 67  1  0  0  0  0
 48 52  1  0  0  0  0
 48 67  1  0  0  0  0
 49 73  1  0  0  0  0
 50 68  1  0  0  0  0
 51 66  1  0  0  0  0
 52 75  1  0  0  0  0
 53 61  1  0  0  0  0
 54 62  1  0  0  0  0
 55 62  1  0  0  0  0
 56 62  1  0  0  0  0
 57 76  1  0  0  0  0
 58 59  1  0  0  0  0
 58 72  1  0  0  0  0
 59 84  1  0  0  0  0
 60 62  1  0  0  0  0
 60 74  1  0  0  0  0
 61 76  1  0  0  0  0
 63 66  1  0  0  0  0
M  CHG  1  76   1
M  ISO  4  37 100  59 101  75 100  84 101
M  END
> <Batch ID>
0198

> <Smiles>
CNC(C)C(=O)NC(C(=O)N1Cc2cc([101O:1][101CH2:1]CNC(=O)c3nc(Cl)cc(N4CC([100NH:0][100C:0](=O)N5CCCC(n6nc(-c7ccc(Oc8ccc(F)cc8F)cc7)c(C(N)=O)c6N)C5)C4)n3)ccc2CC1C(=O)NC1CCCc2ccccc21)C(C)(C)C

> <Shape>
0.230

> <Color>
0.059

> <Negative vol penalty>
0.000

$$$$

  -OEChem-04052323483D

 86 95  0     1  0  0  0  0  0999 V2000
  -30.5649  -11.2498   19.0523 C   0  0  0  0  0  0  0  0  0  0  0  0
  -30.3875  -12.6180   18.8735 C   0  0  0  0  0  0  0  0  0  0  0  0
  -18.7338  -23.1130   22.7191 C   0  0  0  0  0  0  0  0  0  0  0  0
  -17.3310  -24.8781   23.5872 C   0  0  0  0  0  0  0  0  0  0  0  0
  -29.5006  -10.4610   19.4869 C   0  0  0  0  0  0  0  0  0  0  0  0
  -29.1452  -13.1980   19.1281 C   0  0  0  0  0  0  0  0  0  0  0  0
  -29.5161  -17.5051   21.7656 C   0  0  0  0  0  0  0  0  0  0  0  0
  -18.0002  -22.1736   23.4435 C   0  0  0  0  0  0  0  0  0  0  0  0
  -16.5973  -23.9386   24.3116 C   0  0  0  0  0  0  0  0  0  0  0  0
  -29.8988  -18.6490   21.0663 C   0  0  0  0  0  0  0  0  0  0  0  0
  -17.8238  -21.0749   26.6351 C   0  0  0  0  0  0  0  0  0  0  0  0
  -18.5335  -20.0996   27.3355 C   0  0  0  0  0  0  0  0  0  0  0  0
  -27.5922  -19.3471   20.9581 C   0  0  0  0  0  0  0  0  0  0  0  0
  -17.4338  -18.3754   26.0491 C   0  0  0  0  0  0  0  0  0  0  0  0
  -18.3993  -24.4653   22.7910 C   0  0  0  0  0  0  0  0  0  0  0  0
  -19.3266  -25.4902   20.6468 C   0  0  0  0  0  0  0  0  0  0  0  0
  -28.2473  -11.0331   19.7562 C   0  0  0  0  0  0  0  0  0  0  0  0
  -28.1652  -17.2678   22.0573 C   0  0  0  0  0  0  0  0  0  0  0  0
  -28.0628  -12.4159   19.5654 C   0  0  0  0  0  0  0  0  0  0  0  0
  -27.1953  -18.2007   21.6634 C   0  0  0  0  0  0  0  0  0  0  0  0
  -16.9319  -22.5864   24.2398 C   0  0  0  0  0  0  0  0  0  0  0  0
  -28.9365  -19.5687   20.6599 C   0  0  0  0  0  0  0  0  0  0  0  0
  -16.9190  -20.7004   25.6417 C   0  0  0  0  0  0  0  0  0  0  0  0
  -18.3386  -18.7499   27.0425 C   0  0  0  0  0  0  0  0  0  0  0  0
  -16.7240  -19.3507   25.3487 C   0  0  0  0  0  0  0  0  0  0  0  0
  -19.1571  -25.4363   22.0433 C   0  0  0  0  0  0  0  0  0  0  0  0
  -20.1241  -26.5891   20.4399 C   0  0  0  0  0  0  0  0  0  0  0  0
  -26.7884  -28.6745   18.9926 C   0  0  0  0  0  0  0  0  0  0  0  0
  -18.8094  -24.6243   19.6278 C   0  0  0  0  0  0  0  0  0  0  0  0
  -26.0696  -15.0032   21.2933 C   0  0  0  0  0  0  0  0  0  0  0  0
  -24.1654  -16.6094   23.3709 C   0  0  0  0  0  0  0  0  0  0  0  0
  -23.4219  -20.0560   24.1363 C   0  0  0  0  0  0  0  0  0  0  0  0
  -24.3935  -29.7951   21.6780 C   0  0  0  0  0  0  0  0  0  0  0  0
  -27.1138  -10.1324   20.1787 C   0  0  0  0  0  0  0  0  0  0  0  0
  -27.7717  -16.0424   22.8357 C   0  0  0  0  0  0  0  0  0  0  0  0
  -25.7340  -18.0026   21.9695 C   0  0  0  0  0  0  0  0  0  0  0  0
  -26.2475  -29.5830   20.0839 C   0  0  0  0  0  0  0  0  0  0  0  0
  -25.9322  -10.8843   20.7859 C   0  0  0  0  0  0  0  0  0  0  0  0
  -21.5444  -30.2805   23.5811 C   0  0  0  0  0  0  0  0  0  0  0  0
  -25.5708  -12.0929   19.9283 C   0  0  0  0  0  0  0  0  0  0  0  0
  -20.6715  -29.0717   23.2451 C   0  0  0  0  0  0  0  0  0  0  0  0
  -29.9448  -22.4253   17.2044 C   0  0  0  0  0  0  0  0  0  0  0  0
  -29.9060  -20.9617   17.6578 C   0  0  0  0  0  0  0  0  0  0  0  0
  -28.0144  -22.1894   18.5877 C   0  0  0  0  0  0  0  0  0  0  0  0
  -23.0062  -29.8737   23.7268 C   0  0  0  0  0  0  0  0  0  0  0  0
  -25.8161  -26.7165   20.2247 C   0  0  0  0  0  0  0  0  0  0  0  0
  -25.6498  -27.6259   21.4223 C   0  0  0  0  0  0  0  0  0  0  0  0
  -22.7007  -27.9744   22.1732 C   0  0  0  0  0  0  0  0  0  0  0  0
  -26.7371  -13.0858   19.8549 C   0  0  1  0  0  0  0  0  0  0  0  0
  -26.3129  -15.6464   22.6293 C   0  0  1  0  0  0  0  0  0  0  0  0
  -21.2091  -28.3295   22.0089 C   0  0  1  0  0  0  0  0  0  0  0  0
  -29.1325  -23.1635   18.2540 C   0  0  2  0  0  0  0  0  0  0  0  0
  -28.7578  -20.8580   18.6695 C   0  0  2  0  0  0  0  0  0  1  0  0
  -22.6340  -21.1206   26.2678 C   0  0  0  0  0  0  0  0  0  0  0  0
  -29.3933  -26.0579   19.3680 C   0  0  0  0  0  0  0  0  0  0  0  0
  -21.3785  -16.2445   22.1832 C   0  0  0  0  0  0  0  0  0  0  0  0
  -20.7519  -18.4678   23.1488 C   0  0  0  0  0  0  0  0  0  0  0  0
  -21.4195  -16.5977   24.6587 C   0  0  0  0  0  0  0  0  0  0  0  0
  -25.6861  -21.9618   24.1575 C   0  0  0  0  0  0  0  0  0  0  0  0
  -27.1562  -26.3759   18.1726 C   0  0  0  0  0  0  0  0  0  0  0  0
  -23.1813  -17.7486   23.2574 C   0  0  1  0  0  0  0  0  0  0  0  0
  -23.8332  -20.8193   25.3824 C   0  0  2  0  0  0  0  0  0  0  0  0
  -28.1592  -25.3925   18.7738 C   0  0  1  0  0  0  0  0  0  0  0  0
  -21.7049  -17.2623   23.2943 C   0  0  0  0  0  0  0  0  0  0  0  0
  -19.7957  -26.4224   22.6787 N   0  0  0  0  0  0  0  0  0  0  0  0
  -20.3743  -27.1063   21.6769 N   0  0  0  0  0  0  0  0  0  0  0  0
  -26.6372  -27.3026   19.1693 N   0  0  0  0  0  0  0  0  0  0  0  0
  -25.3985  -16.7859   22.7275 N   0  0  0  0  0  0  0  0  0  0  0  0
  -25.2877  -28.9662   20.9794 N   0  0  0  0  0  0  0  0  0  0  0  0
  -23.4790  -29.1674   22.5361 N   0  0  0  0  0  0  0  0  0  0  0  0
  -20.6287  -27.1538   19.3224 N   0  0  0  0  0  0  0  0  0  0  0  0
  -17.5658  -24.9307   19.0586 N   0  0  0  0  0  0  0  0  0  0  0  0
  -26.8173  -13.8621   21.0737 N   0  0  0  0  0  0  0  0  0  0  0  0
  -23.5260  -18.6927   24.3148 N   0  0  0  0  0  0  0  0  0  0  0  0
  -28.5988  -24.4306   17.7247 N   0  3  0  0  0  0  0  0  0  0  0  0
  -24.4783  -22.1100   25.0098 N   0  3  0  0  0  0  0  0  0  0  0  0
  -27.4163  -29.1823   18.0584 O   0  0  0  0  0  0  0  0  0  0  0  0
  -19.4240  -23.5999   19.2452 O   0  0  0  0  0  0  0  0  0  0  0  0
  -25.2621  -15.5043   20.5197 O   0  0  0  0  0  0  0  0  0  0  0  0
  -23.8542  -15.6032   24.0129 O   0  0  0  0  0  0  0  0  0  0  0  0
  -23.0423  -20.6132   23.1087 O   0  0  0  0  0  0  0  0  0  0  0  0
  -24.4138  -31.0250   21.5412 O   0  0  0  0  0  0  0  0  0  0  0  0
  -16.2157  -21.6699   24.9466 O   0  0  0  0  0  0  0  0  0  0  0  0
  -29.3094  -20.6925   19.9725 O   0  0  0  0  0  0  0  0  0  1  0  0
  -19.0214  -17.8135   27.7142 F   0  0  0  0  0  0  0  0  0  0  0  0
  -15.8570  -18.9849   24.3946 F   0  0  0  0  0  0  0  0  0  0  0  0
  1  2  1  0  0  0  0
  1  5  2  0  0  0  0
  2  6  2  0  0  0  0
  3  8  2  0  0  0  0
  3 15  1  0  0  0  0
  4  9  1  0  0  0  0
  4 15  2  0  0  0  0
  5 17  1  0  0  0  0
  6 19  1  0  0  0  0
  7 10  2  0  0  0  0
  7 18  1  0  0  0  0
  8 21  1  0  0  0  0
  9 21  2  0  0  0  0
 10 22  1  0  0  0  0
 11 12  2  0  0  0  0
 11 23  1  0  0  0  0
 12 24  1  0  0  0  0
 13 20  1  0  0  0  0
 13 22  2  0  0  0  0
 14 24  2  0  0  0  0
 14 25  1  0  0  0  0
 15 26  1  0  0  0  0
 16 26  1  0  0  0  0
 16 27  2  0  0  0  0
 16 29  1  0  0  0  0
 17 19  2  0  0  0  0
 17 34  1  0  0  0  0
 18 20  2  0  0  0  0
 18 35  1  0  0  0  0
 19 49  1  0  0  0  0
 20 36  1  0  0  0  0
 21 83  1  0  0  0  0
 22 84  1  0  0  0  0
 23 25  2  0  0  0  0
 23 83  1  0  0  0  0
 24 85  1  0  0  0  0
 25 86  1  0  0  0  0
 26 65  2  0  0  0  0
 27 66  1  0  0  0  0
 27 71  1  0  0  0  0
 28 37  1  0  0  0  0
 28 67  1  0  0  0  0
 28 77  2  0  0  0  0
 29 72  1  0  0  0  0
 29 78  2  0  0  0  0
 30 50  1  0  0  0  0
 30 73  1  0  0  0  0
 30 79  2  0  0  0  0
 31 61  1  0  0  0  0
 31 68  1  0  0  0  0
 31 80  2  0  0  0  0
 32 62  1  0  0  0  0
 32 74  1  0  0  0  0
 32 81  2  0  0  0  0
 33 69  1  0  0  0  0
 33 70  1  0  0  0  0
 33 82  2  0  0  0  0
 34 38  1  0  0  0  0
 35 50  1  0  0  0  0
 36 68  1  0  0  0  0
 37 69  1  0  0  0  0
 38 40  1  0  0  0  0
 39 41  1  0  0  0  0
 39 45  1  0  0  0  0
 40 49  1  0  0  0  0
 41 51  1  0  0  0  0
 42 43  1  0  0  0  0
 42 52  1  0  0  0  0
 43 53  1  0  0  0  0
 44 52  1  0  0  0  0
 44 53  1  0  0  0  0
 45 70  1  0  0  0  0
 46 47  1  0  0  0  0
 46 67  1  0  0  0  0
 47 69  1  0  0  0  0
 48 51  1  0  0  0  0
 48 70  1  0  0  0  0
 49 73  1  0  0  0  0
 50 68  1  0  0  0  0
 51 66  1  0  0  0  0
 52 75  1  0  0  0  0
 53 84  1  0  0  0  0
 54 62  1  0  0  0  0
 55 63  1  0  0  0  0
 56 64  1  0  0  0  0
 57 64  1  0  0  0  0
 58 64  1  0  0  0  0
 59 76  1  0  0  0  0
 60 63  1  0  0  0  0
 60 67  1  0  0  0  0
 61 64  1  0  0  0  0
 61 74  1  0  0  0  0
 62 76  1  0  0  0  0
 63 75  1  0  0  0  0
 65 66  1  0  0  0  0
M  CHG  2  75   1  76   1
M  ISO  4  33 100  53 101  69 100  84 101
M  END
> <Batch ID>
0198

> <Smiles>
CNC(C)C(=O)NC(C(=O)N1Cc2cc([101O:1][101CH:1]3CCC(NC(C)CN4CC[100N:0]([100C:0](=O)N5CCCC(n6nc(-c7ccc(Oc8ccc(F)cc8F)cc7)c(C(N)=O)c6N)C5)CC4=O)C3)ccc2CC1C(=O)NC1CCCc2ccccc21)C(C)(C)C

> <Shape>
0.213

> <Color>
0.060

> <Negative vol penalty>
0.000

$$$$

  -OEChem-04052323483D

 89 99  0     1  0  0  0  0  0999 V2000
  -20.4614  -34.0799   22.2688 C   0  0  0  0  0  0  0  0  0  0  0  0
  -21.7057  -33.5609   21.9255 C   0  0  0  0  0  0  0  0  0  0  0  0
  -24.2809   -9.9197   19.9234 C   0  0  0  0  0  0  0  0  0  0  0  0
  -24.0546  -10.1882   22.3138 C   0  0  0  0  0  0  0  0  0  0  0  0
  -19.5819  -33.3245   23.0434 C   0  0  0  0  0  0  0  0  0  0  0  0
  -22.0717  -32.2866   22.3575 C   0  0  0  0  0  0  0  0  0  0  0  0
  -25.5000  -28.2157   19.3277 C   0  0  0  0  0  0  0  0  0  0  0  0
  -23.8604   -8.5942   20.0325 C   0  0  0  0  0  0  0  0  0  0  0  0
  -23.6340   -8.8627   22.4228 C   0  0  0  0  0  0  0  0  0  0  0  0
  -26.8506  -27.8801   19.4109 C   0  0  0  0  0  0  0  0  0  0  0  0
  -20.9400   -6.9293   20.3957 C   0  0  0  0  0  0  0  0  0  0  0  0
  -19.9961   -6.4710   19.4766 C   0  0  0  0  0  0  0  0  0  0  0  0
  -26.2988  -26.0488   20.8810 C   0  0  0  0  0  0  0  0  0  0  0  0
  -21.5535   -4.7874   18.7169 C   0  0  0  0  0  0  0  0  0  0  0  0
  -24.3781  -10.7167   21.0641 C   0  0  0  0  0  0  0  0  0  0  0  0
  -24.0050  -13.2204   20.7485 C   0  0  0  0  0  0  0  0  0  0  0  0
  -19.9335  -32.0364   23.4770 C   0  0  0  0  0  0  0  0  0  0  0  0
  -24.5381  -27.4758   20.0303 C   0  0  0  0  0  0  0  0  0  0  0  0
  -21.1966  -31.5138   23.1397 C   0  0  0  0  0  0  0  0  0  0  0  0
  -24.9363  -26.3755   20.8029 C   0  0  0  0  0  0  0  0  0  0  0  0
  -23.5369   -8.0657   21.2821 C   0  0  0  0  0  0  0  0  0  0  0  0
  -27.2505  -26.7983   20.1899 C   0  0  0  0  0  0  0  0  0  0  0  0
  -22.1906   -6.3168   20.4753 C   0  0  0  0  0  0  0  0  0  0  0  0
  -20.3029   -5.4001   18.6372 C   0  0  0  0  0  0  0  0  0  0  0  0
  -22.4974   -5.2458   19.6359 C   0  0  0  0  0  0  0  0  0  0  0  0
  -24.8130  -12.0858   20.9522 C   0  0  0  0  0  0  0  0  0  0  0  0
  -30.0869  -23.4004   19.9267 C   0  0  0  0  0  0  0  0  0  0  0  0
  -29.6081  -22.2945   19.2705 C   0  0  0  0  0  0  0  0  0  0  0  0
  -24.8897  -14.2705   20.7152 C   0  0  0  0  0  0  0  0  0  0  0  0
  -22.5819  -13.3166   20.6024 C   0  0  0  0  0  0  0  0  0  0  0  0
  -22.4432  -28.1312   22.3293 C   0  0  0  0  0  0  0  0  0  0  0  0
  -21.4669  -25.0887   21.7703 C   0  0  0  0  0  0  0  0  0  0  0  0
  -22.2216  -21.9723   20.6017 C   0  0  0  0  0  0  0  0  0  0  0  0
  -29.5656  -16.4250   18.7542 C   0  0  0  0  0  0  0  0  0  0  0  0
  -18.9684  -31.2764   24.3520 C   0  0  0  0  0  0  0  0  0  0  0  0
  -23.0824  -27.8343   19.9088 C   0  0  0  0  0  0  0  0  0  0  0  0
  -23.9410  -25.5366   21.5605 C   0  0  0  0  0  0  0  0  0  0  0  0
  -19.2833  -29.7863   24.4548 C   0  0  0  0  0  0  0  0  0  0  0  0
  -33.0244  -19.6053   17.3730 C   0  0  0  0  0  0  0  0  0  0  0  0
  -29.7835  -14.5083   21.8993 C   0  0  0  0  0  0  0  0  0  0  0  0
  -20.7704  -29.5718   24.7185 C   0  0  0  0  0  0  0  0  0  0  0  0
  -31.8814  -24.0200   21.7345 C   0  0  0  0  0  0  0  0  0  0  0  0
  -31.5266  -22.5835   21.9600 C   0  0  0  0  0  0  0  0  0  0  0  0
  -28.4541  -13.7597   21.8793 C   0  0  0  0  0  0  0  0  0  0  0  0
  -32.6866  -18.1316   17.6290 C   0  0  0  0  0  0  0  0  0  0  0  0
  -31.8024  -20.4121   17.8168 C   0  0  0  0  0  0  0  0  0  0  0  0
  -30.3496  -14.7095   20.4942 C   0  0  0  0  0  0  0  0  0  0  0  0
  -28.0644  -14.6206   19.5379 C   0  0  0  0  0  0  0  0  0  0  0  0
  -21.6201  -30.1257   23.5684 C   0  0  1  0  0  0  0  0  0  0  0  0
  -30.4857  -23.5309   21.3901 C   0  0  0  0  0  0  0  0  0  0  0  0
  -22.2424  -27.3263   21.0765 C   0  0  1  0  0  0  0  0  0  0  0  0
  -27.4559  -14.4517   20.9385 C   0  0  1  0  0  0  0  0  0  0  0  0
  -31.2016  -18.1149   17.9895 C   0  0  2  0  0  0  0  0  0  0  0  0
  -31.0256  -19.4488   18.7000 C   0  0  2  0  0  0  0  0  0  0  0  0
  -27.9107  -20.7333   20.3071 C   0  0  0  0  0  0  0  0  0  0  0  0
  -21.2323  -19.6845   20.3111 C   0  0  0  0  0  0  0  0  0  0  0  0
  -21.8166  -24.5610   24.7551 C   0  0  0  0  0  0  0  0  0  0  0  0
  -21.7486  -22.1080   24.2584 C   0  0  0  0  0  0  0  0  0  0  0  0
  -19.7692  -23.5375   23.7476 C   0  0  0  0  0  0  0  0  0  0  0  0
  -22.5455  -22.0790   17.6619 C   0  0  0  0  0  0  0  0  0  0  0  0
  -30.5617  -25.7939   19.0892 C   0  0  0  0  0  0  0  0  0  0  0  0
  -29.3839  -26.7610   19.1395 C   0  0  0  0  0  0  0  0  0  1  0  0
  -29.3483  -20.9435   19.7869 C   0  0  1  0  0  0  0  0  0  0  0  0
  -21.8406  -23.7296   22.3109 C   0  0  1  0  0  0  0  0  0  0  0  0
  -21.4751  -21.0397   19.6651 C   0  0  2  0  0  0  0  0  0  0  0  0
  -21.3130  -23.5008   23.7554 C   0  0  0  0  0  0  0  0  0  0  0  0
  -26.1112  -12.3866   21.0419 N   0  0  0  0  0  0  0  0  0  0  0  0
  -29.3698  -22.6049   17.9604 N   0  0  0  0  0  0  0  0  0  0  0  0
  -29.6893  -23.8816   17.7788 N   0  0  0  0  0  0  0  0  0  0  0  0
  -30.1192  -24.3567   18.9590 N   0  0  0  0  0  0  0  0  0  0  0  0
  -26.1257  -13.7223   20.8937 N   0  0  0  0  0  0  0  0  0  0  0  0
  -22.5300  -25.9309   21.4148 N   0  0  0  0  0  0  0  0  0  0  0  0
  -29.3569  -15.3148   19.5924 N   0  0  0  0  0  0  0  0  0  0  0  0
  -24.7232  -15.6000   20.5508 N   0  0  0  0  0  0  0  0  0  0  0  0
  -21.8231  -12.1398   20.6620 N   0  0  0  0  0  0  0  0  0  0  0  0
  -21.5977  -29.2184   22.4411 N   0  0  0  0  0  0  0  0  0  0  0  0
  -21.3580  -22.7562   21.3372 N   0  0  0  0  0  0  0  0  0  0  0  0
  -30.8384  -16.9829   18.7934 N   0  0  0  0  0  0  0  0  0  0  0  0
  -29.6064  -19.8386   18.7874 N   0  3  0  0  0  0  0  0  0  0  0  0
  -22.2549  -20.8303   18.4125 N   0  3  0  0  0  0  0  0  0  0  0  0
  -22.0020  -14.4118   20.4080 O   0  0  0  0  0  0  0  0  0  0  0  0
  -23.3007  -27.7902   23.1356 O   0  0  0  0  0  0  0  0  0  0  0  0
  -20.2756  -25.3892   21.6606 O   0  0  0  0  0  0  0  0  0  0  0  0
  -23.4481  -21.9999   20.6763 O   0  0  0  0  0  0  0  0  0  0  0  0
  -28.6846  -16.8840   18.0188 O   0  0  0  0  0  0  0  0  0  0  0  0
  -23.1263   -6.7725   21.3889 O   0  0  0  0  0  0  0  0  0  0  0  0
  -28.5683  -26.4690   20.2734 O   0  0  0  0  0  0  0  0  0  1  0  0
  -19.3959   -4.9591   17.7558 F   0  0  0  0  0  0  0  0  0  0  0  0
  -23.6968   -4.6525   19.7086 F   0  0  0  0  0  0  0  0  0  0  0  0
  1  2  1  0  0  0  0
  1  5  2  0  0  0  0
  2  6  2  0  0  0  0
  3  8  2  0  0  0  0
  3 15  1  0  0  0  0
  4  9  1  0  0  0  0
  4 15  2  0  0  0  0
  5 17  1  0  0  0  0
  6 19  1  0  0  0  0
  7 10  2  0  0  0  0
  7 18  1  0  0  0  0
  8 21  1  0  0  0  0
  9 21  2  0  0  0  0
 10 22  1  0  0  0  0
 11 12  2  0  0  0  0
 11 23  1  0  0  0  0
 12 24  1  0  0  0  0
 13 20  1  0  0  0  0
 13 22  2  0  0  0  0
 14 24  2  0  0  0  0
 14 25  1  0  0  0  0
 15 26  1  0  0  0  0
 16 26  1  0  0  0  0
 16 29  2  0  0  0  0
 16 30  1  0  0  0  0
 17 19  2  0  0  0  0
 17 35  1  0  0  0  0
 18 20  2  0  0  0  0
 18 36  1  0  0  0  0
 19 49  1  0  0  0  0
 20 37  1  0  0  0  0
 21 86  1  0  0  0  0
 22 87  1  0  0  0  0
 23 25  2  0  0  0  0
 23 86  1  0  0  0  0
 24 88  1  0  0  0  0
 25 89  1  0  0  0  0
 26 67  2  0  0  0  0
 27 28  2  0  0  0  0
 27 50  1  0  0  0  0
 27 70  1  0  0  0  0
 28 63  1  0  0  0  0
 28 68  1  0  0  0  0
 29 71  1  0  0  0  0
 29 74  1  0  0  0  0
 30 75  1  0  0  0  0
 30 81  2  0  0  0  0
 31 51  1  0  0  0  0
 31 76  1  0  0  0  0
 31 82  2  0  0  0  0
 32 64  1  0  0  0  0
 32 72  1  0  0  0  0
 32 83  2  0  0  0  0
 33 65  1  0  0  0  0
 33 77  1  0  0  0  0
 33 84  2  0  0  0  0
 34 73  1  0  0  0  0
 34 78  1  0  0  0  0
 34 85  2  0  0  0  0
 35 38  1  0  0  0  0
 36 51  1  0  0  0  0
 37 72  1  0  0  0  0
 38 41  1  0  0  0  0
 39 45  1  0  0  0  0
 39 46  1  0  0  0  0
 40 44  1  0  0  0  0
 40 47  1  0  0  0  0
 41 49  1  0  0  0  0
 42 43  1  0  0  0  0
 42 50  1  0  0  0  0
 43 50  1  0  0  0  0
 44 52  1  0  0  0  0
 45 53  1  0  0  0  0
 46 54  1  0  0  0  0
 47 73  1  0  0  0  0
 48 52  1  0  0  0  0
 48 73  1  0  0  0  0
 49 76  1  0  0  0  0
 51 72  1  0  0  0  0
 52 71  1  0  0  0  0
 53 54  1  0  0  0  0
 53 78  1  0  0  0  0
 54 79  1  0  0  0  0
 55 63  1  0  0  0  0
 56 65  1  0  0  0  0
 57 66  1  0  0  0  0
 58 66  1  0  0  0  0
 59 66  1  0  0  0  0
 60 80  1  0  0  0  0
 61 62  1  0  0  0  0
 61 70  1  0  0  0  0
 62 87  1  0  0  0  0
 63 79  1  0  0  0  0
 64 66  1  0  0  0  0
 64 77  1  0  0  0  0
 65 80  1  0  0  0  0
 67 71  1  0  0  0  0
 68 69  2  0  0  0  0
 69 70  1  0  0  0  0
M  CHG  2  79   1  80   1
M  ISO  4  34 100  62 101  78 100  87 101
M  END
> <Batch ID>
0198

> <Smiles>
CNC(C)C(=O)NC(C(=O)N1Cc2cc([101O:1][101CH2:1]Cn3nnc(C(C)NC4CCCC4[100NH:0][100C:0](=O)N4CCCC(n5nc(-c6ccc(Oc7ccc(F)cc7F)cc6)c(C(N)=O)c5N)C4)c3C3CC3)ccc2CC1C(=O)NC1CCCc2ccccc21)C(C)(C)C

> <Shape>
0.246

> <Color>
0.125

> <Negative vol penalty>
0.000

$$$$

  -OEChem-04052323483D

 86 95  0     1  0  0  0  0  0999 V2000
  -30.2301  -31.1321   16.0407 C   0  0  0  0  0  0  0  0  0  0  0  0
  -31.3344  -30.3851   16.4382 C   0  0  0  0  0  0  0  0  0  0  0  0
  -23.1845   -9.7953   20.5671 C   0  0  0  0  0  0  0  0  0  0  0  0
  -23.7903  -10.3004   22.8507 C   0  0  0  0  0  0  0  0  0  0  0  0
  -28.9760  -30.8658   16.5886 C   0  0  0  0  0  0  0  0  0  0  0  0
  -31.1853  -29.3720   17.3847 C   0  0  0  0  0  0  0  0  0  0  0  0
  -34.2330  -24.0647   17.6077 C   0  0  0  0  0  0  0  0  0  0  0  0
  -37.5359  -16.5296   20.5577 C   0  0  0  0  0  0  0  0  0  0  0  0
  -22.4350   -8.7044   21.0072 C   0  0  0  0  0  0  0  0  0  0  0  0
  -23.0407   -9.2095   23.2909 C   0  0  0  0  0  0  0  0  0  0  0  0
  -35.3385  -23.6483   18.3481 C   0  0  0  0  0  0  0  0  0  0  0  0
  -19.4033   -8.1662   22.4045 C   0  0  0  0  0  0  0  0  0  0  0  0
  -18.1320   -7.9906   21.8583 C   0  0  0  0  0  0  0  0  0  0  0  0
  -36.7479  -15.3973   20.7321 C   0  0  0  0  0  0  0  0  0  0  0  0
  -33.8644  -22.6614   19.9828 C   0  0  0  0  0  0  0  0  0  0  0  0
  -18.7938   -5.8258   21.0140 C   0  0  0  0  0  0  0  0  0  0  0  0
  -23.8623  -10.5933   21.4888 C   0  0  0  0  0  0  0  0  0  0  0  0
  -24.1911  -13.0437   20.8605 C   0  0  0  0  0  0  0  0  0  0  0  0
  -28.8097  -29.8425   17.5352 C   0  0  0  0  0  0  0  0  0  0  0  0
  -32.9326  -23.7917   18.0556 C   0  0  0  0  0  0  0  0  0  0  0  0
  -29.9281  -29.0927   17.9468 C   0  0  0  0  0  0  0  0  0  0  0  0
  -32.7441  -23.0732   19.2449 C   0  0  0  0  0  0  0  0  0  0  0  0
  -37.3119  -17.6536   21.3449 C   0  0  0  0  0  0  0  0  0  0  0  0
  -22.3630   -8.4115   22.3691 C   0  0  0  0  0  0  0  0  0  0  0  0
  -35.1543  -22.9491   19.5373 C   0  0  0  0  0  0  0  0  0  0  0  0
  -20.3700   -7.1717   22.2554 C   0  0  0  0  0  0  0  0  0  0  0  0
  -17.8272   -6.8204   21.1630 C   0  0  0  0  0  0  0  0  0  0  0  0
  -20.0652   -6.0015   21.5602 C   0  0  0  0  0  0  0  0  0  0  0  0
  -24.6372  -11.7199   21.0347 C   0  0  0  0  0  0  0  0  0  0  0  0
  -36.2957  -17.5951   22.2849 C   0  0  0  0  0  0  0  0  0  0  0  0
  -35.7571  -15.4397   21.6997 C   0  0  0  0  0  0  0  0  0  0  0  0
  -25.2989  -13.7238   20.4170 C   0  0  0  0  0  0  0  0  0  0  0  0
  -22.8915  -13.6081   21.0799 C   0  0  0  0  0  0  0  0  0  0  0  0
  -30.4382  -25.5639   18.9165 C   0  0  0  0  0  0  0  0  0  0  0  0
  -28.9428  -22.6893   19.0678 C   0  0  0  0  0  0  0  0  0  0  0  0
  -29.1983  -19.3067   19.4416 C   0  0  0  0  0  0  0  0  0  0  0  0
  -31.0924  -12.5432   21.2180 C   0  0  0  0  0  0  0  0  0  0  0  0
  -27.4432  -29.6229   18.1344 C   0  0  0  0  0  0  0  0  0  0  0  0
  -31.7509  -24.2244   17.2317 C   0  0  0  0  0  0  0  0  0  0  0  0
  -31.3688  -22.7371   19.7588 C   0  0  0  0  0  0  0  0  0  0  0  0
  -27.3017  -28.2842   18.8542 C   0  0  0  0  0  0  0  0  0  0  0  0
  -29.3609  -13.1161   18.0005 C   0  0  0  0  0  0  0  0  0  0  0  0
  -28.5018  -28.0370   19.7627 C   0  0  0  0  0  0  0  0  0  0  0  0
  -27.9094  -12.8786   18.4046 C   0  0  0  0  0  0  0  0  0  0  0  0
  -30.3293  -12.2348   18.7886 C   0  0  0  0  0  0  0  0  0  0  0  0
  -28.7179  -12.1193   20.6714 C   0  0  0  0  0  0  0  0  0  0  0  0
  -33.6208  -14.2494   22.2917 C   0  0  0  0  0  0  0  0  0  0  0  0
  -34.8656  -13.2075   20.9558 C   0  0  0  0  0  0  0  0  0  0  0  0
  -29.8022  -27.9691   18.9527 C   0  0  1  0  0  0  0  0  0  0  0  0
  -30.4655  -24.3401   18.0451 C   0  0  1  0  0  0  0  0  0  0  0  0
  -27.7383  -13.0355   19.9229 C   0  0  2  0  0  0  0  0  0  0  0  0
  -33.5463  -12.8537   21.6566 C   0  0  0  0  0  0  0  0  0  0  0  0
  -36.0095  -18.7727   23.1581 C   0  0  0  0  0  0  0  0  0  0  0  0
  -28.4590  -16.9097   19.5146 C   0  0  0  0  0  0  0  0  0  0  0  0
  -28.1183  -23.4088   21.9160 C   0  0  0  0  0  0  0  0  0  0  0  0
  -27.5786  -20.9936   22.2955 C   0  0  0  0  0  0  0  0  0  0  0  0
  -26.3355  -22.2906   20.5648 C   0  0  0  0  0  0  0  0  0  0  0  0
  -29.6404  -18.9609   16.5358 C   0  0  0  0  0  0  0  0  0  0  0  0
  -38.1588  -18.8784   21.1609 C   0  0  0  0  0  0  0  0  0  0  0  0
  -38.2419  -21.2232   20.3043 C   0  0  0  0  0  0  0  0  0  0  0  0
  -37.4268  -22.2478   19.5403 C   0  0  0  0  0  0  0  0  0  1  0  0
  -28.7420  -21.6437   20.1380 C   0  0  1  0  0  0  0  0  0  0  0  0
  -28.5922  -18.1578   18.6560 C   0  0  2  0  0  0  0  0  0  0  0  0
  -27.7196  -22.0920   21.2201 C   0  0  0  0  0  0  0  0  0  0  0  0
  -25.9278  -11.5660   20.7270 N   0  0  0  0  0  0  0  0  0  0  0  0
  -35.5097  -16.5132   22.4833 N   0  0  0  0  0  0  0  0  0  0  0  0
  -26.3021  -12.8019   20.3547 N   0  0  0  0  0  0  0  0  0  0  0  0
  -34.9628  -14.2779   21.8657 N   0  0  0  0  0  0  0  0  0  0  0  0
  -30.2452  -23.1874   18.9209 N   0  0  0  0  0  0  0  0  0  0  0  0
  -30.1036  -12.3388   20.2391 N   0  0  0  0  0  0  0  0  0  0  0  0
  -25.5030  -15.0145   20.0781 N   0  0  0  0  0  0  0  0  0  0  0  0
  -21.8667  -12.7682   21.5367 N   0  0  0  0  0  0  0  0  0  0  0  0
  -29.9218  -26.6852   18.2956 N   0  0  0  0  0  0  0  0  0  0  0  0
  -28.3764  -20.4138   19.4436 N   0  0  0  0  0  0  0  0  0  0  0  0
  -32.3987  -12.6464   20.7499 N   0  0  0  0  0  0  0  0  0  0  0  0
  -29.4442  -17.8294   17.4782 N   0  3  0  0  0  0  0  0  0  0  0  0
  -37.4498  -19.9758   20.4490 N   0  3  0  0  0  0  0  0  0  0  0  0
  -22.6421  -14.8179   20.8612 O   0  0  0  0  0  0  0  0  0  0  0  0
  -30.8535  -25.4955   20.0674 O   0  0  0  0  0  0  0  0  0  0  0  0
  -27.9811  -23.0456   18.3824 O   0  0  0  0  0  0  0  0  0  0  0  0
  -30.2899  -19.2285   20.0010 O   0  0  0  0  0  0  0  0  0  0  0  0
  -30.8375  -12.6218   22.4247 O   0  0  0  0  0  0  0  0  0  0  0  0
  -21.6315   -7.3473   22.7990 O   0  0  0  0  0  0  0  0  0  0  0  0
  -36.2316  -22.5420   20.2623 O   0  0  0  0  0  0  0  0  0  1  0  0
  -16.6058   -6.6511   20.6399 F   0  0  0  0  0  0  0  0  0  0  0  0
  -20.9894   -5.0420   21.4147 F   0  0  0  0  0  0  0  0  0  0  0  0
  1  2  1  0  0  0  0
  1  5  2  0  0  0  0
  2  6  2  0  0  0  0
  3  9  2  0  0  0  0
  3 17  1  0  0  0  0
  4 10  1  0  0  0  0
  4 17  2  0  0  0  0
  5 19  1  0  0  0  0
  6 21  1  0  0  0  0
  7 11  2  0  0  0  0
  7 20  1  0  0  0  0
  8 14  2  0  0  0  0
  8 23  1  0  0  0  0
  9 24  1  0  0  0  0
 10 24  2  0  0  0  0
 11 25  1  0  0  0  0
 12 13  2  0  0  0  0
 12 26  1  0  0  0  0
 13 27  1  0  0  0  0
 14 31  1  0  0  0  0
 15 22  1  0  0  0  0
 15 25  2  0  0  0  0
 16 27  2  0  0  0  0
 16 28  1  0  0  0  0
 17 29  1  0  0  0  0
 18 29  1  0  0  0  0
 18 32  2  0  0  0  0
 18 33  1  0  0  0  0
 19 21  2  0  0  0  0
 19 38  1  0  0  0  0
 20 22  2  0  0  0  0
 20 39  1  0  0  0  0
 21 49  1  0  0  0  0
 22 40  1  0  0  0  0
 23 30  2  0  0  0  0
 23 59  1  0  0  0  0
 24 83  1  0  0  0  0
 25 84  1  0  0  0  0
 26 28  2  0  0  0  0
 26 83  1  0  0  0  0
 27 85  1  0  0  0  0
 28 86  1  0  0  0  0
 29 65  2  0  0  0  0
 30 53  1  0  0  0  0
 30 66  1  0  0  0  0
 31 66  2  0  0  0  0
 31 68  1  0  0  0  0
 32 67  1  0  0  0  0
 32 71  1  0  0  0  0
 33 72  1  0  0  0  0
 33 78  2  0  0  0  0
 34 50  1  0  0  0  0
 34 73  1  0  0  0  0
 34 79  2  0  0  0  0
 35 62  1  0  0  0  0
 35 69  1  0  0  0  0
 35 80  2  0  0  0  0
 36 63  1  0  0  0  0
 36 74  1  0  0  0  0
 36 81  2  0  0  0  0
 37 70  1  0  0  0  0
 37 75  1  0  0  0  0
 37 82  2  0  0  0  0
 38 41  1  0  0  0  0
 39 50  1  0  0  0  0
 40 69  1  0  0  0  0
 41 43  1  0  0  0  0
 42 44  1  0  0  0  0
 42 45  1  0  0  0  0
 43 49  1  0  0  0  0
 44 51  1  0  0  0  0
 45 70  1  0  0  0  0
 46 51  1  0  0  0  0
 46 70  1  0  0  0  0
 47 52  1  0  0  0  0
 47 68  1  0  0  0  0
 48 52  1  0  0  0  0
 48 68  1  0  0  0  0
 49 73  1  0  0  0  0
 50 69  1  0  0  0  0
 51 67  1  0  0  0  0
 52 75  1  0  0  0  0
 54 63  1  0  0  0  0
 55 64  1  0  0  0  0
 56 64  1  0  0  0  0
 57 64  1  0  0  0  0
 58 76  1  0  0  0  0
 59 77  1  0  0  0  0
 60 61  1  0  0  0  0
 60 77  1  0  0  0  0
 61 84  1  0  0  0  0
 62 64  1  0  0  0  0
 62 74  1  0  0  0  0
 63 76  1  0  0  0  0
 65 67  1  0  0  0  0
M  CHG  2  76   1  77   1
M  ISO  4  37 100  61 101  75 100  84 101
M  END
> <Batch ID>
0198

> <Smiles>
CNC(C)C(=O)NC(C(=O)N1Cc2cc([101O:1][101CH2:1]CNCc3ccc(N4CC([100NH:0][100C:0](=O)N5CCCC(n6nc(-c7ccc(Oc8ccc(F)cc8F)cc7)c(C(N)=O)c6N)C5)C4)nc3C)ccc2CC1C(=O)NC1CCCc2ccccc21)C(C)(C)C

> <Shape>
0.226

> <Color>
0.161

> <Negative vol penalty>
0.000

$$$$

  -OEChem-04052323483D

 83 93  0     1  0  0  0  0  0999 V2000
  -20.7945  -14.1756   21.0168 C   0  0  0  0  0  0  0  0  0  0  0  0
  -21.4281  -15.2360   21.6569 C   0  0  0  0  0  0  0  0  0  0  0  0
  -22.1889  -23.9699   20.7519 C   0  0  0  0  0  0  0  0  0  0  0  0
  -23.0481  -23.9087   23.0091 C   0  0  0  0  0  0  0  0  0  0  0  0
  -21.5505  -13.1315   20.4857 C   0  0  0  0  0  0  0  0  0  0  0  0
  -22.8180  -15.2522   21.7673 C   0  0  0  0  0  0  0  0  0  0  0  0
  -26.6923  -20.6734   19.0301 C   0  0  0  0  0  0  0  0  0  0  0  0
  -22.3434  -22.5870   20.6555 C   0  0  0  0  0  0  0  0  0  0  0  0
  -23.2026  -22.5257   22.9128 C   0  0  0  0  0  0  0  0  0  0  0  0
  -27.4869  -21.7769   18.7187 C   0  0  0  0  0  0  0  0  0  0  0  0
  -20.6978  -19.8189   21.6864 C   0  0  0  0  0  0  0  0  0  0  0  0
  -19.6477  -19.0863   21.1332 C   0  0  0  0  0  0  0  0  0  0  0  0
  -29.4597  -20.5690   19.4236 C   0  0  0  0  0  0  0  0  0  0  0  0
  -21.1201  -18.2921   19.3901 C   0  0  0  0  0  0  0  0  0  0  0  0
  -22.5413  -24.6308   21.9287 C   0  0  0  0  0  0  0  0  0  0  0  0
  -21.2473  -26.7590   22.4799 C   0  0  0  0  0  0  0  0  0  0  0  0
  -22.9510  -13.1396   20.5811 C   0  0  0  0  0  0  0  0  0  0  0  0
  -27.2810  -19.5066   19.5257 C   0  0  0  0  0  0  0  0  0  0  0  0
  -23.5934  -14.2065   21.2381 C   0  0  0  0  0  0  0  0  0  0  0  0
  -28.6704  -19.4561   19.7256 C   0  0  0  0  0  0  0  0  0  0  0  0
  -22.8502  -21.8649   21.7360 C   0  0  0  0  0  0  0  0  0  0  0  0
  -28.8671  -21.7249   18.9151 C   0  0  0  0  0  0  0  0  0  0  0  0
  -21.9591  -19.7882   21.0915 C   0  0  0  0  0  0  0  0  0  0  0  0
  -19.8588  -18.3229   19.9850 C   0  0  0  0  0  0  0  0  0  0  0  0
  -22.1702  -19.0247   19.9434 C   0  0  0  0  0  0  0  0  0  0  0  0
  -22.3825  -26.0594   22.0286 C   0  0  0  0  0  0  0  0  0  0  0  0
  -21.5990  -28.0831   22.3828 C   0  0  0  0  0  0  0  0  0  0  0  0
  -19.9876  -26.2568   22.9453 C   0  0  0  0  0  0  0  0  0  0  0  0
  -26.7909  -15.9859   20.7258 C   0  0  0  0  0  0  0  0  0  0  0  0
  -29.3363  -15.9975   19.0137 C   0  0  0  0  0  0  0  0  0  0  0  0
  -31.8401  -16.3490   16.7236 C   0  0  0  0  0  0  0  0  0  0  0  0
  -26.9638  -30.8174   22.3688 C   0  0  0  0  0  0  0  0  0  0  0  0
  -23.7228  -11.9654   20.0332 C   0  0  0  0  0  0  0  0  0  0  0  0
  -26.4570  -18.3153   19.9326 C   0  0  0  0  0  0  0  0  0  0  0  0
  -29.2559  -18.1921   20.2935 C   0  0  0  0  0  0  0  0  0  0  0  0
  -25.2142  -12.2429   19.8625 C   0  0  0  0  0  0  0  0  0  0  0  0
  -24.3828  -31.0631   19.9181 C   0  0  0  0  0  0  0  0  0  0  0  0
  -25.7775  -12.9186   21.1086 C   0  0  0  0  0  0  0  0  0  0  0  0
  -23.4969  -29.8499   20.1852 C   0  0  0  0  0  0  0  0  0  0  0  0
  -28.3959  -31.4868   25.2745 C   0  0  0  0  0  0  0  0  0  0  0  0
  -29.5214  -31.5410   24.2709 C   0  0  0  0  0  0  0  0  0  0  0  0
  -31.0778  -24.7346   19.3869 C   0  0  0  0  0  0  0  0  0  0  0  0
  -29.5704  -24.1222   20.7688 C   0  0  0  0  0  0  0  0  0  0  0  0
  -28.9031  -28.9846   24.5528 C   0  0  0  0  0  0  0  0  0  0  0  0
  -25.8474  -30.7286   20.1654 C   0  0  0  0  0  0  0  0  0  0  0  0
  -25.2262  -29.0306   21.8670 C   0  0  0  0  0  0  0  0  0  0  0  0
  -25.1007  -14.2722   21.3560 C   0  0  1  0  0  0  0  0  0  0  0  0
  -27.1594  -16.9735   19.6579 C   0  0  1  0  0  0  0  0  0  0  0  0
  -23.7328  -29.3123   21.6046 C   0  0  2  0  0  0  0  0  0  0  0  0
  -30.7041  -25.1666   20.8196 C   0  0  0  0  0  0  0  0  0  0  0  0
  -30.3909  -23.3807   19.6860 C   0  0  0  0  0  0  0  0  0  1  0  0
  -28.0969  -28.6339   23.2744 C   0  0  2  0  0  0  0  0  0  0  0  0
  -28.5647  -30.3961   24.2725 C   0  0  0  0  0  0  0  0  0  0  0  0
  -33.6389  -15.0458   15.5560 C   0  0  0  0  0  0  0  0  0  0  0  0
  -31.0205  -16.0514   21.5563 C   0  0  0  0  0  0  0  0  0  0  0  0
  -33.0444  -15.6458   20.1395 C   0  0  0  0  0  0  0  0  0  0  0  0
  -31.2184  -13.9481   20.2178 C   0  0  0  0  0  0  0  0  0  0  0  0
  -30.6666  -16.8917   14.0614 C   0  0  0  0  0  0  0  0  0  0  0  0
  -28.9255  -28.2804   22.0517 C   0  0  0  0  0  0  0  0  0  0  0  0
  -29.3834  -26.8308   22.0965 C   0  0  0  0  0  0  0  0  0  0  0  0
  -30.8387  -16.1207   18.9818 C   0  0  1  0  0  0  0  0  0  0  0  0
  -32.2010  -15.5370   15.4928 C   0  0  2  0  0  0  0  0  0  0  0  0
  -31.5136  -15.4639   20.2189 C   0  0  0  0  0  0  0  0  0  0  0  0
  -23.3806  -26.8718   21.6712 N   0  0  0  0  0  0  0  0  0  0  0  0
  -22.8737  -28.0957   21.8979 N   0  0  0  0  0  0  0  0  0  0  0  0
  -28.6314  -17.0203   19.6599 N   0  0  0  0  0  0  0  0  0  0  0  0
  -26.0648  -30.1801   21.5057 N   0  0  0  0  0  0  0  0  0  0  0  0
  -27.6515  -30.0260   23.2672 N   0  0  0  0  0  0  0  0  0  0  0  0
  -20.9391  -29.2263   22.6658 N   0  0  0  0  0  0  0  0  0  0  0  0
  -19.7934  -24.8693   22.9808 N   0  0  0  0  0  0  0  0  0  0  0  0
  -25.6355  -15.2757   20.4608 N   0  0  0  0  0  0  0  0  0  0  0  0
  -31.2667  -15.5652   17.7025 N   0  0  0  0  0  0  0  0  0  0  0  0
  -30.2231  -26.5489   20.9076 N   0  3  0  0  0  0  0  0  0  0  0  0
  -32.0400  -16.3622   14.2623 N   0  3  0  0  0  0  0  0  0  0  0  0
  -19.0557  -27.0165   23.3032 O   0  0  0  0  0  0  0  0  0  0  0  0
  -27.5026  -15.8743   21.7171 O   0  0  0  0  0  0  0  0  0  0  0  0
  -28.8000  -15.0192   18.4859 O   0  0  0  0  0  0  0  0  0  0  0  0
  -32.0494  -17.5570   16.8096 O   0  0  0  0  0  0  0  0  0  0  0  0
  -27.1587  -32.0376   22.3085 O   0  0  0  0  0  0  0  0  0  0  0  0
  -23.0008  -20.5154   21.6424 O   0  0  0  0  0  0  0  0  0  0  0  0
  -29.6389  -22.8065   18.6041 O   0  0  0  0  0  0  0  0  0  1  0  0
  -18.8506  -17.6182   19.4547 F   0  0  0  0  0  0  0  0  0  0  0  0
  -23.3800  -18.9903   19.3680 F   0  0  0  0  0  0  0  0  0  0  0  0
  1  2  1  0  0  0  0
  1  5  2  0  0  0  0
  2  6  2  0  0  0  0
  3  8  2  0  0  0  0
  3 15  1  0  0  0  0
  4  9  1  0  0  0  0
  4 15  2  0  0  0  0
  5 17  1  0  0  0  0
  6 19  1  0  0  0  0
  7 10  2  0  0  0  0
  7 18  1  0  0  0  0
  8 21  1  0  0  0  0
  9 21  2  0  0  0  0
 10 22  1  0  0  0  0
 11 12  2  0  0  0  0
 11 23  1  0  0  0  0
 12 24  1  0  0  0  0
 13 20  1  0  0  0  0
 13 22  2  0  0  0  0
 14 24  2  0  0  0  0
 14 25  1  0  0  0  0
 15 26  1  0  0  0  0
 16 26  1  0  0  0  0
 16 27  2  0  0  0  0
 16 28  1  0  0  0  0
 17 19  2  0  0  0  0
 17 33  1  0  0  0  0
 18 20  2  0  0  0  0
 18 34  1  0  0  0  0
 19 47  1  0  0  0  0
 20 35  1  0  0  0  0
 21 80  1  0  0  0  0
 22 81  1  0  0  0  0
 23 25  2  0  0  0  0
 23 80  1  0  0  0  0
 24 82  1  0  0  0  0
 25 83  1  0  0  0  0
 26 64  2  0  0  0  0
 27 65  1  0  0  0  0
 27 69  1  0  0  0  0
 28 70  1  0  0  0  0
 28 75  2  0  0  0  0
 29 48  1  0  0  0  0
 29 71  1  0  0  0  0
 29 76  2  0  0  0  0
 30 61  1  0  0  0  0
 30 66  1  0  0  0  0
 30 77  2  0  0  0  0
 31 62  1  0  0  0  0
 31 72  1  0  0  0  0
 31 78  2  0  0  0  0
 32 67  1  0  0  0  0
 32 68  1  0  0  0  0
 32 79  2  0  0  0  0
 33 36  1  0  0  0  0
 34 48  1  0  0  0  0
 35 66  1  0  0  0  0
 36 38  1  0  0  0  0
 37 39  1  0  0  0  0
 37 45  1  0  0  0  0
 38 47  1  0  0  0  0
 39 49  1  0  0  0  0
 40 41  1  0  0  0  0
 40 53  1  0  0  0  0
 41 53  1  0  0  0  0
 42 50  1  0  0  0  0
 42 51  1  0  0  0  0
 43 50  1  0  0  0  0
 43 51  1  0  0  0  0
 44 52  1  0  0  0  0
 44 53  1  0  0  0  0
 45 67  1  0  0  0  0
 46 49  1  0  0  0  0
 46 67  1  0  0  0  0
 47 71  1  0  0  0  0
 48 66  1  0  0  0  0
 49 65  1  0  0  0  0
 50 73  1  0  0  0  0
 51 81  1  0  0  0  0
 52 59  1  0  0  0  0
 52 68  1  0  0  0  0
 53 68  1  0  0  0  0
 54 62  1  0  0  0  0
 55 63  1  0  0  0  0
 56 63  1  0  0  0  0
 57 63  1  0  0  0  0
 58 74  1  0  0  0  0
 59 60  1  0  0  0  0
 60 73  1  0  0  0  0
 61 63  1  0  0  0  0
 61 72  1  0  0  0  0
 62 74  1  0  0  0  0
 64 65  1  0  0  0  0
M  CHG  2  73   1  74   1
M  ISO  4  32 100  51 101  68 100  81 101
M  END
> <Batch ID>
0198

> <Smiles>
CNC(C)C(=O)NC(C(=O)N1Cc2cc([101O:1][101CH:1]3CC(NCCC4CC5(CC5)[100N:0]4[100C:0](=O)N4CCCC(n5nc(-c6ccc(Oc7ccc(F)cc7F)cc6)c(C(N)=O)c5N)C4)C3)ccc2CC1C(=O)NC1CCCc2ccccc21)C(C)(C)C

> <Shape>
0.238

> <Color>
0.069

> <Negative vol penalty>
0.000

$$$$

  -OEChem-04052323483D

 87 97  0     1  0  0  0  0  0999 V2000
  -31.1036  -32.6546   17.6721 C   0  0  0  0  0  0  0  0  0  0  0  0
  -30.5688  -31.4214   18.0307 C   0  0  0  0  0  0  0  0  0  0  0  0
  -24.8488   -8.3943   20.9114 C   0  0  0  0  0  0  0  0  0  0  0  0
  -23.3904  -10.2819   20.5283 C   0  0  0  0  0  0  0  0  0  0  0  0
  -30.9657  -33.7479   18.5263 C   0  0  0  0  0  0  0  0  0  0  0  0
  -29.8966  -31.2805   19.2443 C   0  0  0  0  0  0  0  0  0  0  0  0
  -25.5780  -28.6764   18.7822 C   0  0  0  0  0  0  0  0  0  0  0  0
  -30.5835  -21.7621   18.1229 C   0  0  0  0  0  0  0  0  0  0  0  0
  -23.7397   -7.5909   21.1755 C   0  0  0  0  0  0  0  0  0  0  0  0
  -22.2811   -9.4785   20.7924 C   0  0  0  0  0  0  0  0  0  0  0  0
  -25.6783  -27.2892   18.6849 C   0  0  0  0  0  0  0  0  0  0  0  0
  -21.3614   -5.9671   19.4034 C   0  0  0  0  0  0  0  0  0  0  0  0
  -21.3227   -4.7023   18.8166 C   0  0  0  0  0  0  0  0  0  0  0  0
  -30.2052  -20.4587   18.4251 C   0  0  0  0  0  0  0  0  0  0  0  0
  -25.1159  -27.0907   21.0223 C   0  0  0  0  0  0  0  0  0  0  0  0
  -21.2320   -3.6886   21.0078 C   0  0  0  0  0  0  0  0  0  0  0  0
  -24.6742   -9.7399   20.5878 C   0  0  0  0  0  0  0  0  0  0  0  0
  -26.4324  -10.7909   19.0674 C   0  0  0  0  0  0  0  0  0  0  0  0
  -30.2831  -33.6227   19.7466 C   0  0  0  0  0  0  0  0  0  0  0  0
  -25.2561  -29.2828   20.0049 C   0  0  0  0  0  0  0  0  0  0  0  0
  -29.7506  -32.3728   20.1162 C   0  0  0  0  0  0  0  0  0  0  0  0
  -29.8024  -22.8259   18.5602 C   0  0  0  0  0  0  0  0  0  0  0  0
  -25.0096  -28.4856   21.1319 C   0  0  0  0  0  0  0  0  0  0  0  0
  -22.4558   -8.1329   21.1160 C   0  0  0  0  0  0  0  0  0  0  0  0
  -25.4500  -26.4963   19.8058 C   0  0  0  0  0  0  0  0  0  0  0  0
  -21.3355   -6.0927   20.7924 C   0  0  0  0  0  0  0  0  0  0  0  0
  -21.2580   -3.5630   19.6188 C   0  0  0  0  0  0  0  0  0  0  0  0
  -21.2708   -4.9534   21.5946 C   0  0  0  0  0  0  0  0  0  0  0  0
  -25.8196  -10.5705   20.3155 C   0  0  0  0  0  0  0  0  0  0  0  0
  -29.0463  -20.2741   19.1618 C   0  0  0  0  0  0  0  0  0  0  0  0
  -28.6614  -22.5353   19.2907 C   0  0  0  0  0  0  0  0  0  0  0  0
  -27.4695  -11.6488   19.3408 C   0  0  0  0  0  0  0  0  0  0  0  0
  -26.0943  -10.2670   17.7763 C   0  0  0  0  0  0  0  0  0  0  0  0
  -26.7283  -31.3125   21.9585 C   0  0  0  0  0  0  0  0  0  0  0  0
  -23.8931  -31.2452   23.5332 C   0  0  0  0  0  0  0  0  0  0  0  0
  -21.0015  -29.5692   24.2236 C   0  0  0  0  0  0  0  0  0  0  0  0
  -29.4525  -16.1744   21.9263 C   0  0  0  0  0  0  0  0  0  0  0  0
  -30.2005  -34.8212   20.6585 C   0  0  0  0  0  0  0  0  0  0  0  0
  -25.1256  -30.7790   20.0869 C   0  0  0  0  0  0  0  0  0  0  0  0
  -24.6410  -29.0864   22.4629 C   0  0  0  0  0  0  0  0  0  0  0  0
  -29.1488  -34.6802   21.7559 C   0  0  0  0  0  0  0  0  0  0  0  0
  -29.4681  -13.1325   23.7234 C   0  0  0  0  0  0  0  0  0  0  0  0
  -29.2134  -25.1232   17.5357 C   0  0  0  0  0  0  0  0  0  0  0  0
  -30.4185  -24.6196   16.8048 C   0  0  0  0  0  0  0  0  0  0  0  0
  -29.2522  -33.3118   22.4218 C   0  0  0  0  0  0  0  0  0  0  0  0
  -28.5471  -12.2170   22.9216 C   0  0  0  0  0  0  0  0  0  0  0  0
  -27.3370  -18.7342   20.3687 C   0  0  0  0  0  0  0  0  0  0  0  0
  -28.9420  -14.5615   23.7258 C   0  0  0  0  0  0  0  0  0  0  0  0
  -27.4093  -17.2952   20.8616 C   0  0  0  0  0  0  0  0  0  0  0  0
  -29.6165  -18.0698   20.3413 C   0  0  0  0  0  0  0  0  0  0  0  0
  -27.8665  -14.2303   21.5158 C   0  0  0  0  0  0  0  0  0  0  0  0
  -30.1970  -24.2266   18.2429 C   0  0  0  0  0  0  0  0  0  0  0  0
  -28.9931  -32.1863   21.4130 C   0  0  1  0  0  0  0  0  0  0  0  0
  -28.6043  -18.8696   19.5091 C   0  0  2  0  0  0  0  0  0  0  0  0
  -25.2960  -31.3168   21.5044 C   0  0  1  0  0  0  0  0  0  0  0  0
  -28.3440  -12.7635   21.5000 C   0  0  2  0  0  0  0  0  0  0  0  0
  -18.8948  -29.7494   25.5752 C   0  0  0  0  0  0  0  0  0  0  0  0
  -25.4541  -30.5339   26.0566 C   0  0  0  0  0  0  0  0  0  0  0  0
  -23.2981  -29.8073   27.1015 C   0  0  0  0  0  0  0  0  0  0  0  0
  -23.6056  -32.1823   26.4033 C   0  0  0  0  0  0  0  0  0  0  0  0
  -19.3035  -29.5032   21.8005 C   0  0  0  0  0  0  0  0  0  0  0  0
  -25.9567  -24.4390   20.8860 C   0  0  0  0  0  0  0  0  0  1  0  0
  -26.7094  -23.1857   20.4833 C   0  0  0  0  0  0  0  0  0  0  0  0
  -23.3024  -30.4001   24.6359 C   0  0  1  0  0  0  0  0  0  0  0  0
  -19.5524  -30.0214   24.2312 C   0  0  2  0  0  0  0  0  0  0  0  0
  -23.9239  -30.7194   26.0248 C   0  0  0  0  0  0  0  0  0  0  0  0
  -26.4177  -11.2347   21.3080 N   0  0  0  0  0  0  0  0  0  0  0  0
  -28.2618  -21.2824   19.6039 N   0  0  0  0  0  0  0  0  0  0  0  0
  -27.4172  -11.8808   20.6838 N   0  0  0  0  0  0  0  0  0  0  0  0
  -24.5320  -30.5543   22.4939 N   0  0  0  0  0  0  0  0  0  0  0  0
  -28.7251  -15.0636   22.3677 N   0  0  0  0  0  0  0  0  0  0  0  0
  -28.8391  -17.0368   21.0185 N   0  0  0  0  0  0  0  0  0  0  0  0
  -28.4121  -12.2197   18.5610 N   0  0  0  0  0  0  0  0  0  0  0  0
  -24.9988   -9.3988   17.6735 N   0  0  0  0  0  0  0  0  0  0  0  0
  -27.5749  -32.0539   21.1567 N   0  0  0  0  0  0  0  0  0  0  0  0
  -21.8579  -30.5933   24.5689 N   0  0  0  0  0  0  0  0  0  0  0  0
  -18.7806  -29.3048   23.1768 N   0  3  0  0  0  0  0  0  0  0  0  0
  -26.7543  -10.5472   16.7470 O   0  0  0  0  0  0  0  0  0  0  0  0
  -27.0417  -30.6843   22.9629 O   0  0  0  0  0  0  0  0  0  0  0  0
  -23.7852  -32.4728   23.5883 O   0  0  0  0  0  0  0  0  0  0  0  0
  -21.3396  -28.4214   23.9432 O   0  0  0  0  0  0  0  0  0  0  0  0
  -30.5896  -16.4105   22.3567 O   0  0  0  0  0  0  0  0  0  0  0  0
  -21.3732   -7.3491   21.3734 O   0  0  0  0  0  0  0  0  0  0  0  0
  -25.5485  -25.1329   19.7131 O   0  0  0  0  0  0  0  0  0  1  0  0
  -27.8643  -23.5560   19.7401 O   0  0  0  0  0  0  0  0  0  0  0  0
  -21.2193   -2.3485   19.0552 F   0  0  0  0  0  0  0  0  0  0  0  0
  -21.2444   -5.0678   22.9295 F   0  0  0  0  0  0  0  0  0  0  0  0
  1  2  1  0  0  0  0
  1  5  2  0  0  0  0
  2  6  2  0  0  0  0
  3  9  2  0  0  0  0
  3 17  1  0  0  0  0
  4 10  1  0  0  0  0
  4 17  2  0  0  0  0
  5 19  1  0  0  0  0
  6 21  1  0  0  0  0
  7 11  2  0  0  0  0
  7 20  1  0  0  0  0
  8 14  2  0  0  0  0
  8 22  1  0  0  0  0
  9 24  1  0  0  0  0
 10 24  2  0  0  0  0
 11 25  1  0  0  0  0
 12 13  2  0  0  0  0
 12 26  1  0  0  0  0
 13 27  1  0  0  0  0
 14 30  1  0  0  0  0
 15 23  1  0  0  0  0
 15 25  2  0  0  0  0
 16 27  2  0  0  0  0
 16 28  1  0  0  0  0
 17 29  1  0  0  0  0
 18 29  1  0  0  0  0
 18 32  2  0  0  0  0
 18 33  1  0  0  0  0
 19 21  2  0  0  0  0
 19 38  1  0  0  0  0
 20 23  2  0  0  0  0
 20 39  1  0  0  0  0
 21 53  1  0  0  0  0
 22 31  2  0  0  0  0
 22 52  1  0  0  0  0
 23 40  1  0  0  0  0
 24 83  1  0  0  0  0
 25 84  1  0  0  0  0
 26 28  2  0  0  0  0
 26 83  1  0  0  0  0
 27 86  1  0  0  0  0
 28 87  1  0  0  0  0
 29 67  2  0  0  0  0
 30 54  1  0  0  0  0
 30 68  2  0  0  0  0
 31 68  1  0  0  0  0
 31 85  1  0  0  0  0
 32 69  1  0  0  0  0
 32 73  1  0  0  0  0
 33 74  1  0  0  0  0
 33 78  2  0  0  0  0
 34 55  1  0  0  0  0
 34 75  1  0  0  0  0
 34 79  2  0  0  0  0
 35 64  1  0  0  0  0
 35 70  1  0  0  0  0
 35 80  2  0  0  0  0
 36 65  1  0  0  0  0
 36 76  1  0  0  0  0
 36 81  2  0  0  0  0
 37 71  1  0  0  0  0
 37 72  1  0  0  0  0
 37 82  2  0  0  0  0
 38 41  1  0  0  0  0
 39 55  1  0  0  0  0
 40 70  1  0  0  0  0
 41 45  1  0  0  0  0
 42 46  1  0  0  0  0
 42 48  1  0  0  0  0
 43 44  1  0  0  0  0
 43 52  1  0  0  0  0
 44 52  1  0  0  0  0
 45 53  1  0  0  0  0
 46 56  1  0  0  0  0
 47 49  1  0  0  0  0
 47 54  1  0  0  0  0
 48 71  1  0  0  0  0
 49 72  1  0  0  0  0
 50 54  1  0  0  0  0
 50 72  1  0  0  0  0
 51 56  1  0  0  0  0
 51 71  1  0  0  0  0
 53 75  1  0  0  0  0
 55 70  1  0  0  0  0
 56 69  1  0  0  0  0
 57 65  1  0  0  0  0
 58 66  1  0  0  0  0
 59 66  1  0  0  0  0
 60 66  1  0  0  0  0
 61 77  1  0  0  0  0
 62 63  1  0  0  0  0
 62 84  1  0  0  0  0
 63 85  1  0  0  0  0
 64 66  1  0  0  0  0
 64 76  1  0  0  0  0
 65 77  1  0  0  0  0
 67 69  1  0  0  0  0
M  CHG  1  77   1
M  ISO  4  37 100  62 101  72 100  84 101
M  END
> <Batch ID>
0198

> <Smiles>
CNC(C)C(=O)NC(C(=O)N1Cc2cc([101O:1][101CH2:1]COc3nc(C4CC[100N:0]([100C:0](=O)N5CCCC(n6nc(-c7ccc(Oc8ccc(F)cc8F)cc7)c(C(N)=O)c6N)C5)C4)ccc3C3CC3)ccc2CC1C(=O)NC1CCCc2ccccc21)C(C)(C)C

> <Shape>
0.282

> <Color>
0.082

> <Negative vol penalty>
0.000

$$$$

  -OEChem-04052323483D

 83 92  0     1  0  0  0  0  0999 V2000
  -21.6398  -33.4805   19.8798 C   0  0  0  0  0  0  0  0  0  0  0  0
  -22.8172  -32.7544   20.0282 C   0  0  0  0  0  0  0  0  0  0  0  0
  -23.3580   -9.7668   21.3070 C   0  0  0  0  0  0  0  0  0  0  0  0
  -24.0043  -10.7011   23.4392 C   0  0  0  0  0  0  0  0  0  0  0  0
  -32.1040  -19.0294   21.8106 C   0  0  0  0  0  0  0  0  0  0  0  0
  -20.5480  -33.2120   20.7043 C   0  0  0  0  0  0  0  0  0  0  0  0
  -22.9038  -31.7600   21.0019 C   0  0  0  0  0  0  0  0  0  0  0  0
  -26.0045  -26.4926   20.6191 C   0  0  0  0  0  0  0  0  0  0  0  0
  -31.6115  -17.8275   21.3007 C   0  0  0  0  0  0  0  0  0  0  0  0
  -22.7048   -8.7230   21.9624 C   0  0  0  0  0  0  0  0  0  0  0  0
  -23.3511   -9.6574   24.0946 C   0  0  0  0  0  0  0  0  0  0  0  0
  -27.2561  -26.1043   21.0950 C   0  0  0  0  0  0  0  0  0  0  0  0
  -19.7701   -8.2407   23.5710 C   0  0  0  0  0  0  0  0  0  0  0  0
  -18.4966   -7.8900   23.1229 C   0  0  0  0  0  0  0  0  0  0  0  0
  -29.3141  -18.6234   21.5017 C   0  0  0  0  0  0  0  0  0  0  0  0
  -26.2090  -25.1359   23.0406 C   0  0  0  0  0  0  0  0  0  0  0  0
  -19.2835   -5.6589   22.6331 C   0  0  0  0  0  0  0  0  0  0  0  0
  -24.0078  -10.7558   22.0454 C   0  0  0  0  0  0  0  0  0  0  0  0
  -31.1804  -19.9994   22.1532 C   0  0  0  0  0  0  0  0  0  0  0  0
  -24.1368  -13.0751   20.9909 C   0  0  0  0  0  0  0  0  0  0  0  0
  -20.6180  -32.2072   21.6821 C   0  0  0  0  0  0  0  0  0  0  0  0
  -24.8448  -26.2147   21.3569 C   0  0  0  0  0  0  0  0  0  0  0  0
  -21.8123  -31.4787   21.8411 C   0  0  0  0  0  0  0  0  0  0  0  0
  -29.8036  -19.8156   22.0074 C   0  0  0  0  0  0  0  0  0  0  0  0
  -24.9437  -25.5196   22.5707 C   0  0  0  0  0  0  0  0  0  0  0  0
  -30.2284  -17.6258   21.1473 C   0  0  0  0  0  0  0  0  0  0  0  0
  -22.7013   -8.6683   23.3562 C   0  0  0  0  0  0  0  0  0  0  0  0
  -27.3588  -25.4283   22.3074 C   0  0  0  0  0  0  0  0  0  0  0  0
  -20.8003   -7.3006   23.5501 C   0  0  0  0  0  0  0  0  0  0  0  0
  -18.2533   -6.5991   22.6539 C   0  0  0  0  0  0  0  0  0  0  0  0
  -20.5570   -6.0096   23.0811 C   0  0  0  0  0  0  0  0  0  0  0  0
  -24.6832  -11.8340   21.3690 C   0  0  0  0  0  0  0  0  0  0  0  0
  -25.1767  -13.7380   20.3862 C   0  0  0  0  0  0  0  0  0  0  0  0
  -31.4349  -21.3327   22.7034 C   0  0  0  0  0  0  0  0  0  0  0  0
  -30.1003  -21.9740   22.8924 C   0  0  0  0  0  0  0  0  0  0  0  0
  -29.9510  -23.2093   23.3830 C   0  0  0  0  0  0  0  0  0  0  0  0
  -22.8082  -13.5833   21.1704 C   0  0  0  0  0  0  0  0  0  0  0  0
  -22.5851  -27.9771   22.7323 C   0  0  0  0  0  0  0  0  0  0  0  0
  -21.2087  -25.0899   23.2730 C   0  0  0  0  0  0  0  0  0  0  0  0
  -21.5955  -21.7191   23.6397 C   0  0  0  0  0  0  0  0  0  0  0  0
  -30.5183  -15.3009   20.2214 C   0  0  0  0  0  0  0  0  0  0  0  0
  -29.0233  -21.0163   22.4505 C   0  0  0  0  0  0  0  0  0  0  0  0
  -19.4277  -31.9853   22.5814 C   0  0  0  0  0  0  0  0  0  0  0  0
  -23.4998  -26.6169   20.8168 C   0  0  0  0  0  0  0  0  0  0  0  0
  -23.7273  -25.1792   23.3910 C   0  0  0  0  0  0  0  0  0  0  0  0
  -19.4750  -30.6606   23.3385 C   0  0  0  0  0  0  0  0  0  0  0  0
  -29.7294  -12.0827   18.9186 C   0  0  0  0  0  0  0  0  0  0  0  0
  -20.8544  -30.4460   23.9533 C   0  0  0  0  0  0  0  0  0  0  0  0
  -28.3013  -11.8332   19.4088 C   0  0  0  0  0  0  0  0  0  0  0  0
  -30.5632  -12.8304   19.9575 C   0  0  0  0  0  0  0  0  0  0  0  0
  -28.5374  -13.8275   20.9430 C   0  0  0  0  0  0  0  0  0  0  0  0
  -21.9366  -30.3753   22.8693 C   0  0  1  0  0  0  0  0  0  0  0  0
  -22.4321  -26.7355   21.9000 C   0  0  1  0  0  0  0  0  0  0  0  0
  -27.6403  -13.1342   19.9047 C   0  0  2  0  0  0  0  0  0  0  0  0
  -20.2931  -19.6267   24.1119 C   0  0  0  0  0  0  0  0  0  0  0  0
  -21.0442  -25.8604   26.2207 C   0  0  0  0  0  0  0  0  0  0  0  0
  -20.6430  -23.4480   26.7570 C   0  0  0  0  0  0  0  0  0  0  0  0
  -19.0180  -24.6942   25.3327 C   0  0  0  0  0  0  0  0  0  0  0  0
  -22.3418  -20.5282   21.0352 C   0  0  0  0  0  0  0  0  0  0  0  0
  -28.6287  -23.8730   23.5817 C   0  0  0  0  0  0  0  0  0  1  0  0
  -21.2735  -24.0651   24.3795 C   0  0  1  0  0  0  0  0  0  0  0  0
  -20.8442  -20.5472   23.0341 C   0  0  2  0  0  0  0  0  0  0  0  0
  -20.5180  -24.5249   25.6582 C   0  0  0  0  0  0  0  0  0  0  0  0
  -25.9701  -11.7131   21.0324 N   0  0  0  0  0  0  0  0  0  0  0  0
  -26.2410  -12.8867   20.4365 N   0  0  0  0  0  0  0  0  0  0  0  0
  -22.4353  -25.5992   22.8237 N   0  0  0  0  0  0  0  0  0  0  0  0
  -29.8766  -14.0541   20.3773 N   0  0  0  0  0  0  0  0  0  0  0  0
  -25.2752  -14.9603   19.8215 N   0  0  0  0  0  0  0  0  0  0  0  0
  -21.8632  -12.7711   21.8120 N   0  0  0  0  0  0  0  0  0  0  0  0
  -29.7556  -16.3963   20.6252 N   0  0  0  0  0  0  0  0  0  0  0  0
  -21.9233  -29.0792   22.2256 N   0  0  0  0  0  0  0  0  0  0  0  0
  -20.7784  -22.8168   23.8092 N   0  0  0  0  0  0  0  0  0  0  0  0
  -21.7468  -19.7526   22.1538 N   0  3  0  0  0  0  0  0  0  0  0  0
  -32.5249  -21.8058   22.9497 O   0  0  0  0  0  0  0  0  0  0  0  0
  -22.4647  -14.7174   20.7591 O   0  0  0  0  0  0  0  0  0  0  0  0
  -23.2529  -27.9377   23.7591 O   0  0  0  0  0  0  0  0  0  0  0  0
  -20.1106  -25.4210   22.8189 O   0  0  0  0  0  0  0  0  0  0  0  0
  -22.7869  -21.6648   23.9365 O   0  0  0  0  0  0  0  0  0  0  0  0
  -31.6497  -15.3926   19.7383 O   0  0  0  0  0  0  0  0  0  0  0  0
  -22.0639   -7.6501   23.9961 O   0  0  0  0  0  0  0  0  0  0  0  0
  -28.5792  -25.0487   22.7745 O   0  0  0  0  0  0  0  0  0  1  0  0
  -17.0299   -6.2620   22.2251 F   0  0  0  0  0  0  0  0  0  0  0  0
  -21.5424   -5.1017   23.0597 F   0  0  0  0  0  0  0  0  0  0  0  0
  1  2  1  0  0  0  0
  1  6  2  0  0  0  0
  2  7  2  0  0  0  0
  3 10  2  0  0  0  0
  3 18  1  0  0  0  0
  4 11  1  0  0  0  0
  4 18  2  0  0  0  0
  5  9  2  0  0  0  0
  5 19  1  0  0  0  0
  6 21  1  0  0  0  0
  7 23  1  0  0  0  0
  8 12  2  0  0  0  0
  8 22  1  0  0  0  0
  9 26  1  0  0  0  0
 10 27  1  0  0  0  0
 11 27  2  0  0  0  0
 12 28  1  0  0  0  0
 13 14  2  0  0  0  0
 13 29  1  0  0  0  0
 14 30  1  0  0  0  0
 15 24  1  0  0  0  0
 15 26  2  0  0  0  0
 16 25  1  0  0  0  0
 16 28  2  0  0  0  0
 17 30  2  0  0  0  0
 17 31  1  0  0  0  0
 18 32  1  0  0  0  0
 19 24  2  0  0  0  0
 19 34  1  0  0  0  0
 20 32  1  0  0  0  0
 20 33  2  0  0  0  0
 20 37  1  0  0  0  0
 21 23  2  0  0  0  0
 21 43  1  0  0  0  0
 22 25  2  0  0  0  0
 22 44  1  0  0  0  0
 23 52  1  0  0  0  0
 24 42  1  0  0  0  0
 25 45  1  0  0  0  0
 26 70  1  0  0  0  0
 27 80  1  0  0  0  0
 28 81  1  0  0  0  0
 29 31  2  0  0  0  0
 29 80  1  0  0  0  0
 30 82  1  0  0  0  0
 31 83  1  0  0  0  0
 32 64  2  0  0  0  0
 33 65  1  0  0  0  0
 33 68  1  0  0  0  0
 34 35  1  0  0  0  0
 34 74  2  0  0  0  0
 35 36  2  0  0  0  0
 35 42  1  0  0  0  0
 36 60  1  0  0  0  0
 37 69  1  0  0  0  0
 37 75  2  0  0  0  0
 38 53  1  0  0  0  0
 38 71  1  0  0  0  0
 38 76  2  0  0  0  0
 39 61  1  0  0  0  0
 39 66  1  0  0  0  0
 39 77  2  0  0  0  0
 40 62  1  0  0  0  0
 40 72  1  0  0  0  0
 40 78  2  0  0  0  0
 41 67  1  0  0  0  0
 41 70  1  0  0  0  0
 41 79  2  0  0  0  0
 43 46  1  0  0  0  0
 44 53  1  0  0  0  0
 45 66  1  0  0  0  0
 46 48  1  0  0  0  0
 47 49  1  0  0  0  0
 47 50  1  0  0  0  0
 48 52  1  0  0  0  0
 49 54  1  0  0  0  0
 50 67  1  0  0  0  0
 51 54  1  0  0  0  0
 51 67  1  0  0  0  0
 52 71  1  0  0  0  0
 53 66  1  0  0  0  0
 54 65  1  0  0  0  0
 55 62  1  0  0  0  0
 56 63  1  0  0  0  0
 57 63  1  0  0  0  0
 58 63  1  0  0  0  0
 59 73  1  0  0  0  0
 60 81  1  0  0  0  0
 61 63  1  0  0  0  0
 61 72  1  0  0  0  0
 62 73  1  0  0  0  0
 64 65  1  0  0  0  0
M  CHG  1  73   1
M  ISO  4  41 100  60 101  70 100  81 101
M  END
> <Batch ID>
0198

> <Smiles>
CNC(C)C(=O)NC(C(=O)N1Cc2cc([101O:1][101CH2:1]C=C3Cc4cc([100NH:0][100C:0](=O)N5CCCC(n6nc(-c7ccc(Oc8ccc(F)cc8F)cc7)c(C(N)=O)c6N)C5)ccc4C3=O)ccc2CC1C(=O)NC1CCCc2ccccc21)C(C)(C)C

> <Shape>
0.205

> <Color>
0.155

> <Negative vol penalty>
0.000

$$$$

  -OEChem-04052323483D

 84 94  0     1  0  0  0  0  0999 V2000
  -16.0540  -12.6406   25.9925 C   0  0  0  0  0  0  0  0  0  0  0  0
  -17.4429  -12.6238   26.0719 C   0  0  0  0  0  0  0  0  0  0  0  0
  -23.2885   -9.7996   19.9124 C   0  0  0  0  0  0  0  0  0  0  0  0
  -23.7385   -9.9397   22.2820 C   0  0  0  0  0  0  0  0  0  0  0  0
  -15.3838  -13.8440   25.7763 C   0  0  0  0  0  0  0  0  0  0  0  0
  -18.1624  -13.8103   25.9340 C   0  0  0  0  0  0  0  0  0  0  0  0
  -21.8261  -14.2741   29.3991 C   0  0  0  0  0  0  0  0  0  0  0  0
  -22.5620   -8.6270   20.1197 C   0  0  0  0  0  0  0  0  0  0  0  0
  -23.0119   -8.7672   22.4893 C   0  0  0  0  0  0  0  0  0  0  0  0
  -22.9974  -13.5478   29.1885 C   0  0  0  0  0  0  0  0  0  0  0  0
  -19.7648   -7.8562   22.7053 C   0  0  0  0  0  0  0  0  0  0  0  0
  -18.8620   -7.8343   23.7684 C   0  0  0  0  0  0  0  0  0  0  0  0
  -24.0668  -15.5326   28.3306 C   0  0  0  0  0  0  0  0  0  0  0  0
  -29.9581  -13.9040   25.5656 C   0  0  0  0  0  0  0  0  0  0  0  0
  -20.0674   -5.9869   24.7539 C   0  0  0  0  0  0  0  0  0  0  0  0
  -23.8768  -10.4559   20.9936 C   0  0  0  0  0  0  0  0  0  0  0  0
  -24.1363  -12.9859   20.7956 C   0  0  0  0  0  0  0  0  0  0  0  0
  -16.0950  -15.0472   25.6454 C   0  0  0  0  0  0  0  0  0  0  0  0
  -21.7629  -15.6349   29.0664 C   0  0  0  0  0  0  0  0  0  0  0  0
  -17.5012  -15.0307   25.7146 C   0  0  0  0  0  0  0  0  0  0  0  0
  -22.8944  -16.2746   28.5403 C   0  0  0  0  0  0  0  0  0  0  0  0
  -31.0434  -13.0949   25.1039 C   0  0  0  0  0  0  0  0  0  0  0  0
  -22.4237   -8.1108   21.4081 C   0  0  0  0  0  0  0  0  0  0  0  0
  -24.1170  -14.1763   28.6514 C   0  0  0  0  0  0  0  0  0  0  0  0
  -20.8188   -6.9433   22.6665 C   0  0  0  0  0  0  0  0  0  0  0  0
  -19.0133   -6.8997   24.7927 C   0  0  0  0  0  0  0  0  0  0  0  0
  -20.9701   -6.0087   23.6908 C   0  0  0  0  0  0  0  0  0  0  0  0
  -24.6279  -11.6668   20.7800 C   0  0  0  0  0  0  0  0  0  0  0  0
  -29.6761  -13.5514   26.8767 C   0  0  0  0  0  0  0  0  0  0  0  0
  -31.3797  -12.2813   26.1526 C   0  0  0  0  0  0  0  0  0  0  0  0
  -25.2379  -13.7658   20.5411 C   0  0  0  0  0  0  0  0  0  0  0  0
  -22.8032  -13.4635   21.0200 C   0  0  0  0  0  0  0  0  0  0  0  0
  -20.0348  -17.3707   27.0404 C   0  0  0  0  0  0  0  0  0  0  0  0
  -21.5401  -19.8511   28.4909 C   0  0  0  0  0  0  0  0  0  0  0  0
  -24.2322  -20.9681   30.2663 C   0  0  0  0  0  0  0  0  0  0  0  0
  -31.1086  -12.9224   21.3626 C   0  0  0  0  0  0  0  0  0  0  0  0
  -15.3294  -16.3162   25.3657 C   0  0  0  0  0  0  0  0  0  0  0  0
  -20.5004  -16.4106   29.3246 C   0  0  0  0  0  0  0  0  0  0  0  0
  -22.8845  -17.7382   28.1852 C   0  0  0  0  0  0  0  0  0  0  0  0
  -32.3306  -11.2134   26.5198 C   0  0  0  0  0  0  0  0  0  0  0  0
  -16.1446  -17.5846   25.6043 C   0  0  0  0  0  0  0  0  0  0  0  0
  -32.1917  -11.1848   28.0634 C   0  0  0  0  0  0  0  0  0  0  0  0
  -29.4608  -13.6625   18.2944 C   0  0  0  0  0  0  0  0  0  0  0  0
  -17.5265  -17.4580   24.9709 C   0  0  0  0  0  0  0  0  0  0  0  0
  -27.9910  -13.3540   18.5849 C   0  0  0  0  0  0  0  0  0  0  0  0
  -27.1769  -14.5409   27.1823 C   0  0  0  0  0  0  0  0  0  0  0  0
  -27.7586  -13.2410   28.7598 C   0  0  0  0  0  0  0  0  0  0  0  0
  -30.8056  -11.7770   28.3759 C   0  0  0  0  0  0  0  0  0  0  0  0
  -30.3938  -12.6829   19.0029 C   0  0  0  0  0  0  0  0  0  0  0  0
  -28.7066  -12.2532   20.7471 C   0  0  0  0  0  0  0  0  0  0  0  0
  -18.3155  -16.3006   25.5949 C   0  0  1  0  0  0  0  0  0  0  0  0
  -28.5550  -14.1764   27.8052 C   0  0  0  0  0  0  0  0  0  0  0  0
  -20.3872  -17.6694   28.4702 C   0  0  1  0  0  0  0  0  0  0  0  0
  -27.7289  -13.2486   20.0994 C   0  0  2  0  0  0  0  0  0  0  0  0
  -26.5277  -14.1438   28.5265 C   0  0  0  0  0  0  0  0  0  1  0  0
  -25.2001  -23.0527   31.2737 C   0  0  0  0  0  0  0  0  0  0  0  0
  -22.3920  -20.7934   25.7166 C   0  0  0  0  0  0  0  0  0  0  0  0
  -24.0923  -22.2664   26.8154 C   0  0  0  0  0  0  0  0  0  0  0  0
  -21.6636  -22.6207   27.2609 C   0  0  0  0  0  0  0  0  0  0  0  0
  -24.1493  -19.8267   32.9956 C   0  0  0  0  0  0  0  0  0  0  0  0
  -31.6697  -13.1356   23.7707 C   0  0  0  0  0  0  0  0  0  0  0  0
  -22.8253  -20.6072   28.2551 C   0  0  1  0  0  0  0  0  0  0  0  0
  -24.3298  -21.8287   31.5130 C   0  0  2  0  0  0  0  0  0  0  0  0
  -22.7432  -21.5439   27.0168 C   0  0  0  0  0  0  0  0  0  0  0  0
  -25.9395  -11.6082   20.5349 N   0  0  0  0  0  0  0  0  0  0  0  0
  -30.5465  -12.5719   27.1916 N   0  0  0  0  0  0  0  0  0  0  0  0
  -26.2816  -12.9002   20.3940 N   0  0  0  0  0  0  0  0  0  0  0  0
  -21.6246  -18.4522   28.4504 N   0  0  0  0  0  0  0  0  0  0  0  0
  -30.0940  -12.6312   20.4359 N   0  0  0  0  0  0  0  0  0  0  0  0
  -25.4060  -15.1007   20.4310 N   0  0  0  0  0  0  0  0  0  0  0  0
  -21.7906  -12.5266   21.2669 N   0  0  0  0  0  0  0  0  0  0  0  0
  -18.8440  -16.6870   26.8855 N   0  0  0  0  0  0  0  0  0  0  0  0
  -23.1297  -21.2947   29.5053 N   0  0  0  0  0  0  0  0  0  0  0  0
  -30.7385  -12.8566   22.7003 N   0  0  0  0  0  0  0  0  0  0  0  0
  -24.9174  -21.0468   32.6374 N   0  3  0  0  0  0  0  0  0  0  0  0
  -22.5154  -14.6840   20.9858 O   0  0  0  0  0  0  0  0  0  0  0  0
  -20.7868  -17.7349   26.1440 O   0  0  0  0  0  0  0  0  0  0  0  0
  -20.5009  -20.4785   28.7102 O   0  0  0  0  0  0  0  0  0  0  0  0
  -25.0539  -20.0960   29.9928 O   0  0  0  0  0  0  0  0  0  0  0  0
  -32.2577  -13.2242   21.0229 O   0  0  0  0  0  0  0  0  0  0  0  0
  -21.7146   -6.9668   21.6107 O   0  0  0  0  0  0  0  0  0  0  0  0
  -25.2613  -13.4695   28.4442 O   0  0  0  0  0  0  0  0  0  1  0  0
  -18.1473   -6.8798   25.8143 F   0  0  0  0  0  0  0  0  0  0  0  0
  -21.9814   -5.1300   23.6595 F   0  0  0  0  0  0  0  0  0  0  0  0
  1  2  1  0  0  0  0
  1  5  2  0  0  0  0
  2  6  2  0  0  0  0
  3  8  2  0  0  0  0
  3 16  1  0  0  0  0
  4  9  1  0  0  0  0
  4 16  2  0  0  0  0
  5 18  1  0  0  0  0
  6 20  1  0  0  0  0
  7 10  2  0  0  0  0
  7 19  1  0  0  0  0
  8 23  1  0  0  0  0
  9 23  2  0  0  0  0
 10 24  1  0  0  0  0
 11 12  2  0  0  0  0
 11 25  1  0  0  0  0
 12 26  1  0  0  0  0
 13 21  1  0  0  0  0
 13 24  2  0  0  0  0
 14 22  1  0  0  0  0
 14 29  2  0  0  0  0
 15 26  2  0  0  0  0
 15 27  1  0  0  0  0
 16 28  1  0  0  0  0
 17 28  1  0  0  0  0
 17 31  2  0  0  0  0
 17 32  1  0  0  0  0
 18 20  2  0  0  0  0
 18 37  1  0  0  0  0
 19 21  2  0  0  0  0
 19 38  1  0  0  0  0
 20 51  1  0  0  0  0
 21 39  1  0  0  0  0
 22 30  2  0  0  0  0
 22 61  1  0  0  0  0
 23 81  1  0  0  0  0
 24 82  1  0  0  0  0
 25 27  2  0  0  0  0
 25 81  1  0  0  0  0
 26 83  1  0  0  0  0
 27 84  1  0  0  0  0
 28 65  2  0  0  0  0
 29 52  1  0  0  0  0
 29 66  1  0  0  0  0
 30 40  1  0  0  0  0
 30 66  1  0  0  0  0
 31 67  1  0  0  0  0
 31 70  1  0  0  0  0
 32 71  1  0  0  0  0
 32 76  2  0  0  0  0
 33 53  1  0  0  0  0
 33 72  1  0  0  0  0
 33 77  2  0  0  0  0
 34 62  1  0  0  0  0
 34 68  1  0  0  0  0
 34 78  2  0  0  0  0
 35 63  1  0  0  0  0
 35 73  1  0  0  0  0
 35 79  2  0  0  0  0
 36 69  1  0  0  0  0
 36 74  1  0  0  0  0
 36 80  2  0  0  0  0
 37 41  1  0  0  0  0
 38 53  1  0  0  0  0
 39 68  1  0  0  0  0
 40 42  1  0  0  0  0
 41 44  1  0  0  0  0
 42 48  1  0  0  0  0
 43 45  1  0  0  0  0
 43 49  1  0  0  0  0
 44 51  1  0  0  0  0
 45 54  1  0  0  0  0
 46 52  1  0  0  0  0
 46 55  1  0  0  0  0
 47 52  1  0  0  0  0
 47 55  1  0  0  0  0
 48 66  1  0  0  0  0
 49 69  1  0  0  0  0
 50 54  1  0  0  0  0
 50 69  1  0  0  0  0
 51 72  1  0  0  0  0
 53 68  1  0  0  0  0
 54 67  1  0  0  0  0
 55 82  1  0  0  0  0
 56 63  1  0  0  0  0
 57 64  1  0  0  0  0
 58 64  1  0  0  0  0
 59 64  1  0  0  0  0
 60 75  1  0  0  0  0
 61 74  1  0  0  0  0
 62 64  1  0  0  0  0
 62 73  1  0  0  0  0
 63 75  1  0  0  0  0
 65 67  1  0  0  0  0
M  CHG  1  75   1
M  ISO  4  36 100  55 101  74 100  82 101
M  END
> <Batch ID>
0198

> <Smiles>
CNC(C)C(=O)NC(C(=O)N1Cc2cc([101O:1][101CH:1]3CC(c4cc(C[100NH:0][100C:0](=O)N5CCCC(n6nc(-c7ccc(Oc8ccc(F)cc8F)cc7)c(C(N)=O)c6N)C5)c5n4CCC5)C3)ccc2CC1C(=O)NC1CCCc2ccccc21)C(C)(C)C

> <Shape>
0.133

> <Color>
0.174

> <Negative vol penalty>
0.000

$$$$

  -OEChem-04052323483D

 89 99  0     1  0  0  0  0  0999 V2000
  -25.1670  -37.3523   21.9173 C   0  0  0  0  0  0  0  0  0  0  0  0
  -25.9545  -36.2857   21.4959 C   0  0  0  0  0  0  0  0  0  0  0  0
  -22.0436  -12.3610   21.9808 C   0  0  0  0  0  0  0  0  0  0  0  0
  -23.3340  -13.6941   23.5284 C   0  0  0  0  0  0  0  0  0  0  0  0
  -24.1899  -37.1536   22.8919 C   0  0  0  0  0  0  0  0  0  0  0  0
  -25.7661  -35.0199   22.0497 C   0  0  0  0  0  0  0  0  0  0  0  0
  -26.3635  -29.6303   19.2033 C   0  0  0  0  0  0  0  0  0  0  0  0
  -20.9633  -12.3826   22.8629 C   0  0  0  0  0  0  0  0  0  0  0  0
  -22.2537  -13.7158   24.4105 C   0  0  0  0  0  0  0  0  0  0  0  0
  -27.4021  -28.7011   19.1626 C   0  0  0  0  0  0  0  0  0  0  0  0
  -20.8452  -11.6388   26.6761 C   0  0  0  0  0  0  0  0  0  0  0  0
  -21.1056  -11.4008   28.0256 C   0  0  0  0  0  0  0  0  0  0  0  0
  -26.3399  -27.4455   20.9274 C   0  0  0  0  0  0  0  0  0  0  0  0
  -20.2212  -13.5796   28.5804 C   0  0  0  0  0  0  0  0  0  0  0  0
  -31.9330  -22.5946   15.5772 C   0  0  0  0  0  0  0  0  0  0  0  0
  -23.2290  -13.0166   22.3136 C   0  0  0  0  0  0  0  0  0  0  0  0
  -25.0340  -11.8610   20.9301 C   0  0  0  0  0  0  0  0  0  0  0  0
  -23.9829  -35.8826   23.4509 C   0  0  0  0  0  0  0  0  0  0  0  0
  -25.3091  -29.4797   20.1154 C   0  0  0  0  0  0  0  0  0  0  0  0
  -24.7862  -34.8043   23.0336 C   0  0  0  0  0  0  0  0  0  0  0  0
  -25.2878  -28.3728   20.9760 C   0  0  0  0  0  0  0  0  0  0  0  0
  -21.0683  -13.0601   24.0777 C   0  0  0  0  0  0  0  0  0  0  0  0
  -27.3919  -27.6101   20.0267 C   0  0  0  0  0  0  0  0  0  0  0  0
  -20.2729  -12.8472   26.2787 C   0  0  0  0  0  0  0  0  0  0  0  0
  -20.7936  -12.3712   28.9777 C   0  0  0  0  0  0  0  0  0  0  0  0
  -19.9609  -13.8176   27.2308 C   0  0  0  0  0  0  0  0  0  0  0  0
  -24.3455  -12.9941   21.4030 C   0  0  0  0  0  0  0  0  0  0  0  0
  -31.2561  -22.8057   16.7452 C   0  0  0  0  0  0  0  0  0  0  0  0
  -26.0019  -12.3695   20.0988 C   0  0  0  0  0  0  0  0  0  0  0  0
  -30.0589  -21.4188   15.5028 C   0  0  0  0  0  0  0  0  0  0  0  0
  -24.8179  -10.4728   21.2165 C   0  0  0  0  0  0  0  0  0  0  0  0
  -24.1840  -31.1914   22.5461 C   0  0  0  0  0  0  0  0  0  0  0  0
  -21.8432  -28.9458   22.5363 C   0  0  0  0  0  0  0  0  0  0  0  0
  -19.8303  -26.6335   21.8209 C   0  0  0  0  0  0  0  0  0  0  0  0
  -26.3560  -17.5028   17.1269 C   0  0  0  0  0  0  0  0  0  0  0  0
  -22.9466  -35.7267   24.5355 C   0  0  0  0  0  0  0  0  0  0  0  0
  -24.1826  -30.4764   20.1285 C   0  0  0  0  0  0  0  0  0  0  0  0
  -24.1685  -28.1546   21.9598 C   0  0  0  0  0  0  0  0  0  0  0  0
  -22.5574  -34.2748   24.8019 C   0  0  0  0  0  0  0  0  0  0  0  0
  -27.8553  -16.6734   20.5626 C   0  0  0  0  0  0  0  0  0  0  0  0
  -23.8019  -33.3988   24.9048 C   0  0  0  0  0  0  0  0  0  0  0  0
  -27.9153  -15.2039   20.1545 C   0  0  0  0  0  0  0  0  0  0  0  0
  -31.6960  -22.8678   19.2590 C   0  0  0  0  0  0  0  0  0  0  0  0
  -27.6067  -17.5723   19.3503 C   0  0  0  0  0  0  0  0  0  0  0  0
  -25.7757  -15.9504   18.9575 C   0  0  0  0  0  0  0  0  0  0  0  0
  -27.0502  -19.1336   15.3018 C   0  0  0  0  0  0  0  0  0  0  0  0
  -28.1856  -19.4025   17.0861 C   0  0  0  0  0  0  0  0  0  0  0  0
  -31.6634  -23.9669   20.3002 C   0  0  0  0  0  0  0  0  0  0  0  0
  -30.5603  -24.7408   18.2576 C   0  0  0  0  0  0  0  0  0  0  0  0
  -24.5952  -33.4110   23.5926 C   0  0  1  0  0  0  0  0  0  0  0  0
  -31.5887  -23.6494   17.9513 C   0  0  2  0  0  0  0  0  0  0  0  0
  -23.4218  -30.5010   21.4506 C   0  0  1  0  0  0  0  0  0  0  0  0
  -26.6590  -14.7605   19.3730 C   0  0  2  0  0  0  0  0  0  0  0  0
  -27.8654  -20.2899   15.8790 C   0  0  0  0  0  0  0  0  0  0  0  0
  -18.0480  -24.8779   21.6238 C   0  0  0  0  0  0  0  0  0  0  0  0
  -30.7508  -26.3521   21.7365 C   0  0  0  0  0  0  0  0  0  0  0  0
  -23.5338  -28.0415   24.9099 C   0  0  0  0  0  0  0  0  0  0  0  0
  -21.8575  -26.2286   25.3240 C   0  0  0  0  0  0  0  0  0  0  0  0
  -21.1676  -28.6211   25.4750 C   0  0  0  0  0  0  0  0  0  0  0  0
  -31.5169  -21.2402   13.5093 C   0  0  0  0  0  0  0  0  0  0  0  0
  -17.8398  -28.5977   20.8520 C   0  0  0  0  0  0  0  0  0  0  0  0
  -29.6909  -27.1790   19.5970 C   0  0  0  0  0  0  0  0  0  1  0  0
  -21.6417  -27.6086   23.2074 C   0  0  1  0  0  0  0  0  0  0  0  0
  -18.3379  -26.3559   21.8343 C   0  0  2  0  0  0  0  0  0  0  0  0
  -30.7947  -26.3299   20.2173 C   0  0  2  0  0  0  0  0  0  0  0  0
  -22.0632  -27.6271   24.7039 C   0  0  0  0  0  0  0  0  0  0  0  0
  -24.8346  -14.1364   20.9131 N   0  0  0  0  0  0  0  0  0  0  0  0
  -31.1695  -21.7323   14.8277 N   0  0  0  0  0  0  0  0  0  0  0  0
  -25.8408  -13.7236   20.1237 N   0  0  0  0  0  0  0  0  0  0  0  0
  -30.1003  -22.0663   16.6717 N   0  3  0  0  0  0  0  0  0  0  0  0
  -23.0933  -29.1601   21.9386 N   0  0  0  0  0  0  0  0  0  0  0  0
  -26.5871  -17.0530   18.4321 N   0  0  0  0  0  0  0  0  0  0  0  0
  -27.1297  -18.5212   16.6254 N   0  0  0  0  0  0  0  0  0  0  0  0
  -26.9666  -11.7860   19.3563 N   0  0  0  0  0  0  0  0  0  0  0  0
  -23.9390   -9.7506   20.3977 N   0  0  0  0  0  0  0  0  0  0  0  0
  -29.0449  -20.5805   15.0826 N   0  0  0  0  0  0  0  0  0  0  0  0
  -23.9637  -32.5540   22.6122 N   0  0  0  0  0  0  0  0  0  0  0  0
  -20.2463  -27.2460   22.9841 N   0  0  0  0  0  0  0  0  0  0  0  0
  -30.6155  -24.9162   19.7666 N   0  3  2  0  0  0  0  0  0  0  0  0
  -17.6580  -27.1265   20.7550 N   0  3  0  0  0  0  0  0  0  0  0  0
  -25.3746   -9.8942   22.1802 O   0  0  0  0  0  0  0  0  0  0  0  0
  -24.9164  -30.5362   23.2781 O   0  0  0  0  0  0  0  0  0  0  0  0
  -20.9228  -29.7670   22.5359 O   0  0  0  0  0  0  0  0  0  0  0  0
  -20.5552  -26.3333   20.8748 O   0  0  0  0  0  0  0  0  0  0  0  0
  -25.4707  -17.0077   16.4151 O   0  0  0  0  0  0  0  0  0  0  0  0
  -20.0143  -13.0816   24.9386 O   0  0  0  0  0  0  0  0  0  0  0  0
  -28.4116  -26.6958   19.9892 O   0  0  0  0  0  0  0  0  0  1  0  0
  -21.0422  -12.1419   30.2738 F   0  0  0  0  0  0  0  0  0  0  0  0
  -19.4098  -14.9800   26.8553 F   0  0  0  0  0  0  0  0  0  0  0  0
  1  2  1  0  0  0  0
  1  5  2  0  0  0  0
  2  6  2  0  0  0  0
  3  8  2  0  0  0  0
  3 16  1  0  0  0  0
  4  9  1  0  0  0  0
  4 16  2  0  0  0  0
  5 18  1  0  0  0  0
  6 20  1  0  0  0  0
  7 10  2  0  0  0  0
  7 19  1  0  0  0  0
  8 22  1  0  0  0  0
  9 22  2  0  0  0  0
 10 23  1  0  0  0  0
 11 12  2  0  0  0  0
 11 24  1  0  0  0  0
 12 25  1  0  0  0  0
 13 21  1  0  0  0  0
 13 23  2  0  0  0  0
 14 25  2  0  0  0  0
 14 26  1  0  0  0  0
 15 28  2  0  0  0  0
 15 68  1  0  0  0  0
 16 27  1  0  0  0  0
 17 27  1  0  0  0  0
 17 29  2  0  0  0  0
 17 31  1  0  0  0  0
 18 20  2  0  0  0  0
 18 36  1  0  0  0  0
 19 21  2  0  0  0  0
 19 37  1  0  0  0  0
 20 50  1  0  0  0  0
 21 38  1  0  0  0  0
 22 86  1  0  0  0  0
 23 87  1  0  0  0  0
 24 26  2  0  0  0  0
 24 86  1  0  0  0  0
 25 88  1  0  0  0  0
 26 89  1  0  0  0  0
 27 67  2  0  0  0  0
 28 51  1  0  0  0  0
 28 70  1  0  0  0  0
 29 69  1  0  0  0  0
 29 74  1  0  0  0  0
 30 68  1  0  0  0  0
 30 70  2  0  0  0  0
 30 76  1  0  0  0  0
 31 75  1  0  0  0  0
 31 81  2  0  0  0  0
 32 52  1  0  0  0  0
 32 77  1  0  0  0  0
 32 82  2  0  0  0  0
 33 63  1  0  0  0  0
 33 71  1  0  0  0  0
 33 83  2  0  0  0  0
 34 64  1  0  0  0  0
 34 78  1  0  0  0  0
 34 84  2  0  0  0  0
 35 72  1  0  0  0  0
 35 73  1  0  0  0  0
 35 85  2  0  0  0  0
 36 39  1  0  0  0  0
 37 52  1  0  0  0  0
 38 71  1  0  0  0  0
 39 41  1  0  0  0  0
 40 42  1  0  0  0  0
 40 44  1  0  0  0  0
 41 50  1  0  0  0  0
 42 53  1  0  0  0  0
 43 48  1  0  0  0  0
 43 51  1  0  0  0  0
 44 72  1  0  0  0  0
 45 53  1  0  0  0  0
 45 72  1  0  0  0  0
 46 54  1  0  0  0  0
 46 73  1  0  0  0  0
 47 54  1  0  0  0  0
 47 73  1  0  0  0  0
 48 79  1  0  0  0  0
 49 51  1  0  0  0  0
 49 79  1  0  0  0  0
 50 77  1  0  0  0  0
 52 71  1  0  0  0  0
 53 69  1  0  0  0  0
 54 76  1  0  0  0  0
 55 64  1  0  0  0  0
 56 65  1  0  0  0  0
 57 66  1  0  0  0  0
 58 66  1  0  0  0  0
 59 66  1  0  0  0  0
 60 68  1  0  0  0  0
 61 80  1  0  0  0  0
 62 65  1  0  0  0  0
 62 87  1  0  0  0  0
 63 66  1  0  0  0  0
 63 78  1  0  0  0  0
 64 80  1  0  0  0  0
 65 79  1  0  0  0  0
 67 69  1  0  0  0  0
M  CHG  3  70   1  79   1  80   1
M  ISO  4  35 100  62 101  73 100  87 101
M  END
> <Batch ID>
0198

> <Smiles>
CNC(C)C(=O)NC(C(=O)N1Cc2cc([101O:1][101CH2:1]C(C)N3CCC(c4cn(C)c(NC5C[100N:0]([100C:0](=O)N6CCCC(n7nc(-c8ccc(Oc9ccc(F)cc9F)cc8)c(C(N)=O)c7N)C6)C5)n4)C3)ccc2CC1C(=O)NC1CCCc2ccccc21)C(C)(C)C

> <Shape>
0.270

> <Color>
0.060

> <Negative vol penalty>
0.000

$$$$

  -OEChem-04052323483D

 87 97  0     1  0  0  0  0  0999 V2000
  -23.1629  -37.7197   21.8519 C   0  0  0  0  0  0  0  0  0  0  0  0
  -24.2848  -36.9088   21.9907 C   0  0  0  0  0  0  0  0  0  0  0  0
  -22.9584  -10.3624   20.2468 C   0  0  0  0  0  0  0  0  0  0  0  0
  -24.6815   -8.9595   21.1953 C   0  0  0  0  0  0  0  0  0  0  0  0
  -21.9229  -37.2765   22.3102 C   0  0  0  0  0  0  0  0  0  0  0  0
  -24.1675  -35.6546   22.5888 C   0  0  0  0  0  0  0  0  0  0  0  0
  -26.0276  -29.6664   19.0429 C   0  0  0  0  0  0  0  0  0  0  0  0
  -22.0102   -9.3727   20.5054 C   0  0  0  0  0  0  0  0  0  0  0  0
  -23.7333   -7.9697   21.4540 C   0  0  0  0  0  0  0  0  0  0  0  0
  -26.5601  -28.4937   18.5071 C   0  0  0  0  0  0  0  0  0  0  0  0
  -21.3401   -7.3572   23.7601 C   0  0  0  0  0  0  0  0  0  0  0  0
  -21.3740   -6.7404   25.0107 C   0  0  0  0  0  0  0  0  0  0  0  0
  -25.7993  -27.2531   20.4384 C   0  0  0  0  0  0  0  0  0  0  0  0
  -21.7388   -4.6024   23.9464 C   0  0  0  0  0  0  0  0  0  0  0  0
  -24.1341  -21.4675   21.2235 C   0  0  0  0  0  0  0  0  0  0  0  0
  -24.2941  -10.1558   20.5917 C   0  0  0  0  0  0  0  0  0  0  0  0
  -25.6184  -11.7181   19.0708 C   0  0  0  0  0  0  0  0  0  0  0  0
  -21.7886  -36.0124   22.9056 C   0  0  0  0  0  0  0  0  0  0  0  0
  -25.3646  -29.6341   20.2729 C   0  0  0  0  0  0  0  0  0  0  0  0
  -22.9248  -35.1947   23.0567 C   0  0  0  0  0  0  0  0  0  0  0  0
  -25.2529  -28.4223   20.9743 C   0  0  0  0  0  0  0  0  0  0  0  0
  -22.3976   -8.1764   21.1090 C   0  0  0  0  0  0  0  0  0  0  0  0
  -26.4465  -27.2900   19.2033 C   0  0  0  0  0  0  0  0  0  0  0  0
  -21.5056   -6.5966   22.6026 C   0  0  0  0  0  0  0  0  0  0  0  0
  -21.5734   -5.3630   25.1039 C   0  0  0  0  0  0  0  0  0  0  0  0
  -21.7050   -5.2192   22.6958 C   0  0  0  0  0  0  0  0  0  0  0  0
  -25.2742  -11.1776   20.3243 C   0  0  0  0  0  0  0  0  0  0  0  0
  -25.3797  -21.2714   20.6972 C   0  0  0  0  0  0  0  0  0  0  0  0
  -26.5908  -12.6463   19.3525 C   0  0  0  0  0  0  0  0  0  0  0  0
  -25.2647  -20.1651   22.6112 C   0  0  0  0  0  0  0  0  0  0  0  0
  -25.1051  -11.4088   17.7683 C   0  0  0  0  0  0  0  0  0  0  0  0
  -23.5027  -31.5482   22.9083 C   0  0  0  0  0  0  0  0  0  0  0  0
  -22.0687  -28.8561   22.5820 C   0  0  0  0  0  0  0  0  0  0  0  0
  -20.5361  -25.9635   21.6220 C   0  0  0  0  0  0  0  0  0  0  0  0
  -27.9016  -15.8174   24.2594 C   0  0  0  0  0  0  0  0  0  0  0  0
  -20.4365  -35.5961   23.4284 C   0  0  0  0  0  0  0  0  0  0  0  0
  -24.8294  -30.8841   20.9169 C   0  0  0  0  0  0  0  0  0  0  0  0
  -24.5616  -28.4415   22.3102 C   0  0  0  0  0  0  0  0  0  0  0  0
  -20.3272  -34.1002   23.7119 C   0  0  0  0  0  0  0  0  0  0  0  0
  -30.0611  -13.5943   22.5068 C   0  0  0  0  0  0  0  0  0  0  0  0
  -21.5472  -33.6133   24.4874 C   0  0  0  0  0  0  0  0  0  0  0  0
  -29.1102  -12.7716   21.6357 C   0  0  0  0  0  0  0  0  0  0  0  0
  -28.5510  -24.3599   18.9474 C   0  0  0  0  0  0  0  0  0  0  0  0
  -29.4435  -13.9191   23.8652 C   0  0  0  0  0  0  0  0  0  0  0  0
  -27.9084  -23.0297   18.5873 C   0  0  0  0  0  0  0  0  0  0  0  0
  -27.1686  -13.7434   22.9336 C   0  0  0  0  0  0  0  0  0  0  0  0
  -24.9092  -18.1714   24.0194 C   0  0  0  0  0  0  0  0  0  0  0  0
  -26.9237  -18.8353   23.8617 C   0  0  0  0  0  0  0  0  0  0  0  0
  -26.3093  -24.1455   19.8625 C   0  0  0  0  0  0  0  0  0  0  0  0
  -22.8333  -33.8177   23.6777 C   0  0  1  0  0  0  0  0  0  0  0  0
  -23.5314  -30.6465   21.7093 C   0  0  1  0  0  0  0  0  0  0  0  0
  -27.7255  -13.4388   21.5324 C   0  0  2  0  0  0  0  0  0  0  0  0
  -26.2481  -17.6437   24.5585 C   0  0  0  0  0  0  0  0  0  0  0  0
  -27.4187  -25.1593   19.5859 C   0  0  2  0  0  0  0  0  0  1  0  0
  -18.5482  -24.5221   22.1393 C   0  0  0  0  0  0  0  0  0  0  0  0
  -23.4698  -27.8302   25.0897 C   0  0  0  0  0  0  0  0  0  0  0  0
  -21.9780  -25.8209   25.0153 C   0  0  0  0  0  0  0  0  0  0  0  0
  -20.9928  -28.0934   25.3120 C   0  0  0  0  0  0  0  0  0  0  0  0
  -22.9472  -20.7058   23.2958 C   0  0  0  0  0  0  0  0  0  0  0  0
  -19.4420  -26.2914   18.8918 C   0  0  0  0  0  0  0  0  0  0  0  0
  -26.0119  -21.7740   19.4316 C   0  0  0  0  0  0  0  0  0  0  0  0
  -21.9274  -27.4323   23.0578 C   0  0  1  0  0  0  0  0  0  0  0  0
  -19.0894  -25.6550   21.2812 C   0  0  2  0  0  0  0  0  0  0  0  0
  -22.1084  -27.3009   24.5964 C   0  0  0  0  0  0  0  0  0  0  0  0
  -25.9714  -11.7173   21.3276 N   0  0  0  0  0  0  0  0  0  0  0  0
  -24.0906  -20.7713   22.4073 N   0  0  0  0  0  0  0  0  0  0  0  0
  -26.7635  -12.6066   20.7049 N   0  0  0  0  0  0  0  0  0  0  0  0
  -26.0577  -20.4621   21.5767 N   0  3  0  0  0  0  0  0  0  0  0  0
  -25.6047  -19.3853   23.6721 N   0  0  0  0  0  0  0  0  0  0  0  0
  -23.3575  -29.2840   22.2407 N   0  0  0  0  0  0  0  0  0  0  0  0
  -28.1328  -14.5512   23.6969 N   0  0  0  0  0  0  0  0  0  0  0  0
  -26.9619  -22.8462   19.6861 N   0  0  1  0  0  0  0  0  0  0  0  0
  -27.3066  -13.4844   18.5729 N   0  0  0  0  0  0  0  0  0  0  0  0
  -24.1084  -10.4296   17.6582 N   0  0  0  0  0  0  0  0  0  0  0  0
  -22.9591  -32.7946   22.6620 N   0  0  0  0  0  0  0  0  0  0  0  0
  -20.6364  -26.9638   22.5658 N   0  0  0  0  0  0  0  0  0  0  0  0
  -26.6348  -16.3475   24.0475 N   0  0  0  0  0  0  0  0  0  0  0  0
  -18.9675  -25.2596   19.8495 N   0  3  0  0  0  0  0  0  0  0  0  0
  -25.5296  -11.9722   16.7310 O   0  0  0  0  0  0  0  0  0  0  0  0
  -23.9399  -31.1436   23.9792 O   0  0  0  0  0  0  0  0  0  0  0  0
  -21.0662  -29.5733   22.5192 O   0  0  0  0  0  0  0  0  0  0  0  0
  -21.4826  -25.3735   21.1056 O   0  0  0  0  0  0  0  0  0  0  0  0
  -28.7623  -16.4324   24.8981 O   0  0  0  0  0  0  0  0  0  0  0  0
  -21.4725   -7.2105   21.3618 O   0  0  0  0  0  0  0  0  0  0  0  0
  -26.9647  -26.1480   18.6723 O   0  0  0  0  0  0  0  0  0  1  0  0
  -21.6074   -4.7711   26.3050 F   0  0  0  0  0  0  0  0  0  0  0  0
  -21.8657   -4.4834   21.5873 F   0  0  0  0  0  0  0  0  0  0  0  0
  1  2  1  0  0  0  0
  1  5  2  0  0  0  0
  2  6  2  0  0  0  0
  3  8  2  0  0  0  0
  3 16  1  0  0  0  0
  4  9  1  0  0  0  0
  4 16  2  0  0  0  0
  5 18  1  0  0  0  0
  6 20  1  0  0  0  0
  7 10  2  0  0  0  0
  7 19  1  0  0  0  0
  8 22  1  0  0  0  0
  9 22  2  0  0  0  0
 10 23  1  0  0  0  0
 11 12  2  0  0  0  0
 11 24  1  0  0  0  0
 12 25  1  0  0  0  0
 13 21  1  0  0  0  0
 13 23  2  0  0  0  0
 14 25  2  0  0  0  0
 14 26  1  0  0  0  0
 15 28  2  0  0  0  0
 15 66  1  0  0  0  0
 16 27  1  0  0  0  0
 17 27  1  0  0  0  0
 17 29  2  0  0  0  0
 17 31  1  0  0  0  0
 18 20  2  0  0  0  0
 18 36  1  0  0  0  0
 19 21  2  0  0  0  0
 19 37  1  0  0  0  0
 20 50  1  0  0  0  0
 21 38  1  0  0  0  0
 22 84  1  0  0  0  0
 23 85  1  0  0  0  0
 24 26  2  0  0  0  0
 24 84  1  0  0  0  0
 25 86  1  0  0  0  0
 26 87  1  0  0  0  0
 27 65  2  0  0  0  0
 28 61  1  0  0  0  0
 28 68  1  0  0  0  0
 29 67  1  0  0  0  0
 29 73  1  0  0  0  0
 30 66  1  0  0  0  0
 30 68  2  0  0  0  0
 30 69  1  0  0  0  0
 31 74  1  0  0  0  0
 31 79  2  0  0  0  0
 32 51  1  0  0  0  0
 32 75  1  0  0  0  0
 32 80  2  0  0  0  0
 33 62  1  0  0  0  0
 33 70  1  0  0  0  0
 33 81  2  0  0  0  0
 34 63  1  0  0  0  0
 34 76  1  0  0  0  0
 34 82  2  0  0  0  0
 35 71  1  0  0  0  0
 35 77  1  0  0  0  0
 35 83  2  0  0  0  0
 36 39  1  0  0  0  0
 37 51  1  0  0  0  0
 38 70  1  0  0  0  0
 39 41  1  0  0  0  0
 40 42  1  0  0  0  0
 40 44  1  0  0  0  0
 41 50  1  0  0  0  0
 42 52  1  0  0  0  0
 43 45  1  0  0  0  0
 43 54  1  0  0  0  0
 44 71  1  0  0  0  0
 45 72  1  0  0  0  0
 46 52  1  0  0  0  0
 46 71  1  0  0  0  0
 47 53  1  0  0  0  0
 47 69  1  0  0  0  0
 48 53  1  0  0  0  0
 48 69  1  0  0  0  0
 49 54  1  0  0  0  0
 49 72  1  0  0  0  0
 50 75  1  0  0  0  0
 51 70  1  0  0  0  0
 52 67  1  0  0  0  0
 53 77  1  0  0  0  0
 54 85  1  0  0  0  0
 55 63  1  0  0  0  0
 56 64  1  0  0  0  0
 57 64  1  0  0  0  0
 58 64  1  0  0  0  0
 59 66  1  0  0  0  0
 60 78  1  0  0  0  0
 61 72  1  0  0  0  0
 62 64  1  0  0  0  0
 62 76  1  0  0  0  0
 63 78  1  0  0  0  0
 65 67  1  0  0  0  0
M  CHG  2  68   1  78   1
M  ISO  4  35 100  54 101  77 100  85 101
M  END
> <Batch ID>
0198

> <Smiles>
CNC(C)C(=O)NC(C(=O)N1Cc2cc([101O:1][101CH:1]3CCN(Cc4cn(C)c(N5CC([100NH:0][100C:0](=O)N6CCCC(n7nc(-c8ccc(Oc9ccc(F)cc9F)cc8)c(C(N)=O)c7N)C6)C5)n4)C3)ccc2CC1C(=O)NC1CCCc2ccccc21)C(C)(C)C

> <Shape>
0.244

> <Color>
0.089

> <Negative vol penalty>
0.000

$$$$

  -OEChem-04052323483D

 84 93  0     1  0  0  0  0  0999 V2000
  -26.8541  -36.0784   26.0490 C   0  0  0  0  0  0  0  0  0  0  0  0
  -27.4687  -34.9715   25.4724 C   0  0  0  0  0  0  0  0  0  0  0  0
  -24.5794   -8.9542   21.8792 C   0  0  0  0  0  0  0  0  0  0  0  0
  -23.0878   -9.6069   20.0943 C   0  0  0  0  0  0  0  0  0  0  0  0
  -25.4795  -36.0686   26.2820 C   0  0  0  0  0  0  0  0  0  0  0  0
  -26.7091  -33.8536   25.1295 C   0  0  0  0  0  0  0  0  0  0  0  0
  -27.5886  -30.1313   20.3465 C   0  0  0  0  0  0  0  0  0  0  0  0
  -23.5326   -8.2794   22.5072 C   0  0  0  0  0  0  0  0  0  0  0  0
  -22.0410   -8.9320   20.7222 C   0  0  0  0  0  0  0  0  0  0  0  0
  -28.2100  -28.8891   20.2265 C   0  0  0  0  0  0  0  0  0  0  0  0
  -21.9153   -5.3288   22.1733 C   0  0  0  0  0  0  0  0  0  0  0  0
  -22.1734   -4.0514   22.6706 C   0  0  0  0  0  0  0  0  0  0  0  0
  -26.0673  -27.8028   20.4459 C   0  0  0  0  0  0  0  0  0  0  0  0
  -21.5973   -4.8006   24.8941 C   0  0  0  0  0  0  0  0  0  0  0  0
  -30.1123  -23.1714   20.2045 C   0  0  0  0  0  0  0  0  0  0  0  0
  -24.3570   -9.6181   20.6728 C   0  0  0  0  0  0  0  0  0  0  0  0
  -26.3405   -9.7936   19.0783 C   0  0  0  0  0  0  0  0  0  0  0  0
  -24.7012  -34.9537   25.9329 C   0  0  0  0  0  0  0  0  0  0  0  0
  -26.2009  -30.2185   20.5283 C   0  0  0  0  0  0  0  0  0  0  0  0
  -25.3230  -33.8282   25.3592 C   0  0  0  0  0  0  0  0  0  0  0  0
  -25.4304  -29.0475   20.5653 C   0  0  0  0  0  0  0  0  0  0  0  0
  -27.4642  -22.9045   19.8489 C   0  0  0  0  0  0  0  0  0  0  0  0
  -22.2634   -8.2682   21.9287 C   0  0  0  0  0  0  0  0  0  0  0  0
  -27.4497  -27.7245   20.2791 C   0  0  0  0  0  0  0  0  0  0  0  0
  -21.4983   -6.3421   23.0365 C   0  0  0  0  0  0  0  0  0  0  0  0
  -22.0144   -3.7873   24.0309 C   0  0  0  0  0  0  0  0  0  0  0  0
  -21.3393   -6.0780   24.3968 C   0  0  0  0  0  0  0  0  0  0  0  0
  -25.4378  -10.3158   20.0239 C   0  0  0  0  0  0  0  0  0  0  0  0
  -28.0502  -24.1243   20.1195 C   0  0  0  0  0  0  0  0  0  0  0  0
  -28.3279  -21.8310   19.7728 C   0  0  0  0  0  0  0  0  0  0  0  0
  -27.1660  -10.8480   18.7729 C   0  0  0  0  0  0  0  0  0  0  0  0
  -26.4253   -8.4735   18.5253 C   0  0  0  0  0  0  0  0  0  0  0  0
  -24.3048  -31.3499   22.8149 C   0  0  0  0  0  0  0  0  0  0  0  0
  -21.9655  -30.6634   20.6751 C   0  0  0  0  0  0  0  0  0  0  0  0
  -20.9506  -28.8320   17.9801 C   0  0  0  0  0  0  0  0  0  0  0  0
  -26.5173  -16.5930   18.8125 C   0  0  0  0  0  0  0  0  0  0  0  0
  -23.2262  -34.9709   26.2475 C   0  0  0  0  0  0  0  0  0  0  0  0
  -25.5425  -31.5671   20.6292 C   0  0  0  0  0  0  0  0  0  0  0  0
  -23.9348  -29.0875   20.7385 C   0  0  0  0  0  0  0  0  0  0  0  0
  -22.4338  -33.8938   25.5111 C   0  0  0  0  0  0  0  0  0  0  0  0
  -28.9714  -14.8618   20.6344 C   0  0  0  0  0  0  0  0  0  0  0  0
  -23.1449  -32.5478   25.6080 C   0  0  0  0  0  0  0  0  0  0  0  0
  -28.4284  -13.4337   20.5945 C   0  0  0  0  0  0  0  0  0  0  0  0
  -27.8602  -15.8918   20.8435 C   0  0  0  0  0  0  0  0  0  0  0  0
  -28.2311  -19.8418   18.3025 C   0  0  0  0  0  0  0  0  0  0  0  0
  -27.3563  -19.7492   20.6418 C   0  0  0  0  0  0  0  0  0  0  0  0
  -27.2158  -18.7756   17.9001 C   0  0  0  0  0  0  0  0  0  0  0  0
  -26.3491  -18.6951   20.1956 C   0  0  0  0  0  0  0  0  0  0  0  0
  -26.2074  -14.3558   19.8302 C   0  0  0  0  0  0  0  0  0  0  0  0
  -24.5290  -32.6064   24.9507 C   0  0  1  0  0  0  0  0  0  0  0  0
  -24.1865  -31.5192   21.3266 C   0  0  1  0  0  0  0  0  0  0  0  0
  -27.2940  -13.3027   19.5627 C   0  0  2  0  0  0  0  0  0  0  0  0
  -25.9947  -22.7665   19.6533 C   0  0  0  0  0  0  0  0  0  0  0  0
  -18.9726  -28.4645   16.4802 C   0  0  0  0  0  0  0  0  0  0  0  0
  -20.6017  -29.0462   22.8738 C   0  0  0  0  0  0  0  0  0  0  0  0
  -19.1986  -27.9594   21.1079 C   0  0  0  0  0  0  0  0  0  0  0  0
  -19.0503  -30.4222   21.4759 C   0  0  0  0  0  0  0  0  0  0  0  0
  -22.4607  -29.6923   15.5846 C   0  0  0  0  0  0  0  0  0  0  0  0
  -27.2159  -25.3584   20.2254 C   0  0  0  0  0  0  0  0  0  1  0  0
  -21.1111  -29.4553   20.3760 C   0  0  1  0  0  0  0  0  0  0  0  0
  -20.2662  -29.2370   16.6871 C   0  0  2  0  0  0  0  0  0  0  0  0
  -20.0188  -29.2196   21.4571 C   0  0  0  0  0  0  0  0  0  0  0  0
  -29.3759  -24.2946   20.3036 N   0  0  0  0  0  0  0  0  0  0  0  0
  -29.6624  -21.9288   19.9458 N   0  0  0  0  0  0  0  0  0  0  0  0
  -25.6681  -11.6020   20.3011 N   0  0  0  0  0  0  0  0  0  0  0  0
  -26.7250  -11.8967   19.5251 N   0  0  0  0  0  0  0  0  0  0  0  0
  -27.7923  -20.5657   19.5006 N   0  0  0  0  0  0  0  0  0  0  0  0
  -23.3382  -30.4298   20.8390 N   0  0  0  0  0  0  0  0  0  0  0  0
  -26.7830  -15.7019   19.8629 N   0  0  0  0  0  0  0  0  0  0  0  0
  -26.8276  -17.9441   19.0330 N   0  0  0  0  0  0  0  0  0  0  0  0
  -28.2190  -10.9711   17.9371 N   0  0  0  0  0  0  0  0  0  0  0  0
  -25.4986   -7.5110   18.9488 N   0  0  0  0  0  0  0  0  0  0  0  0
  -24.4076  -32.5396   23.5101 N   0  0  0  0  0  0  0  0  0  0  0  0
  -20.5863  -29.6499   19.0287 N   0  0  0  0  0  0  0  0  0  0  0  0
  -21.1605  -28.9762   15.5239 N   0  3  0  0  0  0  0  0  0  0  0  0
  -27.3071   -8.1523   17.6931 O   0  0  0  0  0  0  0  0  0  0  0  0
  -24.3015  -30.2232   23.2969 O   0  0  0  0  0  0  0  0  0  0  0  0
  -21.4355  -31.7746   20.7530 O   0  0  0  0  0  0  0  0  0  0  0  0
  -21.7277  -27.8826   18.0535 O   0  0  0  0  0  0  0  0  0  0  0  0
  -26.0351  -16.2067   17.7405 O   0  0  0  0  0  0  0  0  0  0  0  0
  -21.2418   -7.6096   22.5411 O   0  0  0  0  0  0  0  0  0  0  0  0
  -28.0580  -26.5020   20.1621 O   0  0  0  0  0  0  0  0  0  1  0  0
  -22.2607   -2.5602   24.5081 F   0  0  0  0  0  0  0  0  0  0  0  0
  -20.9378   -7.0472   25.2307 F   0  0  0  0  0  0  0  0  0  0  0  0
  1  2  1  0  0  0  0
  1  5  2  0  0  0  0
  2  6  2  0  0  0  0
  3  8  2  0  0  0  0
  3 16  1  0  0  0  0
  4  9  1  0  0  0  0
  4 16  2  0  0  0  0
  5 18  1  0  0  0  0
  6 20  1  0  0  0  0
  7 10  2  0  0  0  0
  7 19  1  0  0  0  0
  8 23  1  0  0  0  0
  9 23  2  0  0  0  0
 10 24  1  0  0  0  0
 11 12  2  0  0  0  0
 11 25  1  0  0  0  0
 12 26  1  0  0  0  0
 13 21  1  0  0  0  0
 13 24  2  0  0  0  0
 14 26  2  0  0  0  0
 14 27  1  0  0  0  0
 15 63  2  0  0  0  0
 15 64  1  0  0  0  0
 16 28  1  0  0  0  0
 17 28  1  0  0  0  0
 17 31  2  0  0  0  0
 17 32  1  0  0  0  0
 18 20  2  0  0  0  0
 18 37  1  0  0  0  0
 19 21  2  0  0  0  0
 19 38  1  0  0  0  0
 20 50  1  0  0  0  0
 21 39  1  0  0  0  0
 22 29  2  0  0  0  0
 22 30  1  0  0  0  0
 22 53  1  0  0  0  0
 23 81  1  0  0  0  0
 24 82  1  0  0  0  0
 25 27  2  0  0  0  0
 25 81  1  0  0  0  0
 26 83  1  0  0  0  0
 27 84  1  0  0  0  0
 28 65  2  0  0  0  0
 29 59  1  0  0  0  0
 29 63  1  0  0  0  0
 30 64  2  0  0  0  0
 30 67  1  0  0  0  0
 31 66  1  0  0  0  0
 31 71  1  0  0  0  0
 32 72  1  0  0  0  0
 32 76  2  0  0  0  0
 33 51  1  0  0  0  0
 33 73  1  0  0  0  0
 33 77  2  0  0  0  0
 34 60  1  0  0  0  0
 34 68  1  0  0  0  0
 34 78  2  0  0  0  0
 35 61  1  0  0  0  0
 35 74  1  0  0  0  0
 35 79  2  0  0  0  0
 36 69  1  0  0  0  0
 36 70  1  0  0  0  0
 36 80  2  0  0  0  0
 37 40  1  0  0  0  0
 38 51  1  0  0  0  0
 39 68  1  0  0  0  0
 40 42  1  0  0  0  0
 41 43  1  0  0  0  0
 41 44  1  0  0  0  0
 42 50  1  0  0  0  0
 43 52  1  0  0  0  0
 44 69  1  0  0  0  0
 45 47  1  0  0  0  0
 45 67  1  0  0  0  0
 46 48  1  0  0  0  0
 46 67  1  0  0  0  0
 47 70  1  0  0  0  0
 48 70  1  0  0  0  0
 49 52  1  0  0  0  0
 49 69  1  0  0  0  0
 50 73  1  0  0  0  0
 51 68  1  0  0  0  0
 52 66  1  0  0  0  0
 54 61  1  0  0  0  0
 55 62  1  0  0  0  0
 56 62  1  0  0  0  0
 57 62  1  0  0  0  0
 58 75  1  0  0  0  0
 59 82  1  0  0  0  0
 60 62  1  0  0  0  0
 60 74  1  0  0  0  0
 61 75  1  0  0  0  0
 65 66  1  0  0  0  0
M  CHG  1  75   1
M  ISO  4  36 100  59 101  70 100  82 101
M  END
> <Batch ID>
0198

> <Smiles>
CNC(C)C(=O)NC(C(=O)N1Cc2cc([101O:1][101CH2:1]c3ncnc(N4CC[100N:0]([100C:0](=O)N5CCCC(n6nc(-c7ccc(Oc8ccc(F)cc8F)cc7)c(C(N)=O)c6N)C5)CC4)c3C)ccc2CC1C(=O)NC1CCCc2ccccc21)C(C)(C)C

> <Shape>
0.307

> <Color>
0.103

> <Negative vol penalty>
0.000

$$$$

  -OEChem-04052323483D

 88 98  0     1  0  0  0  0  0999 V2000
  -27.3814  -36.6837   27.0614 C   0  0  0  0  0  0  0  0  0  0  0  0
  -27.9704  -35.4845   26.6737 C   0  0  0  0  0  0  0  0  0  0  0  0
  -22.9471   -9.9423   20.0929 C   0  0  0  0  0  0  0  0  0  0  0  0
  -23.7067  -10.0825   22.3821 C   0  0  0  0  0  0  0  0  0  0  0  0
  -25.9984  -36.8391   26.9771 C   0  0  0  0  0  0  0  0  0  0  0  0
  -27.1765  -34.4395   26.2024 C   0  0  0  0  0  0  0  0  0  0  0  0
  -28.6378  -30.3748   21.8609 C   0  0  0  0  0  0  0  0  0  0  0  0
  -22.1733   -8.8282   20.4179 C   0  0  0  0  0  0  0  0  0  0  0  0
  -22.9329   -8.9684   22.7071 C   0  0  0  0  0  0  0  0  0  0  0  0
  -29.1160  -29.0667   21.9234 C   0  0  0  0  0  0  0  0  0  0  0  0
  -23.1368   -5.6102   22.3732 C   0  0  0  0  0  0  0  0  0  0  0  0
  -23.7252   -4.6193   23.1591 C   0  0  0  0  0  0  0  0  0  0  0  0
  -26.8630  -28.2381   21.6853 C   0  0  0  0  0  0  0  0  0  0  0  0
  -22.0287   -4.9508   24.8471 C   0  0  0  0  0  0  0  0  0  0  0  0
  -23.7139  -10.5694   21.0751 C   0  0  0  0  0  0  0  0  0  0  0  0
  -24.1217  -13.0712   20.7875 C   0  0  0  0  0  0  0  0  0  0  0  0
  -25.1881  -35.7988   26.4956 C   0  0  0  0  0  0  0  0  0  0  0  0
  -27.2651  -30.6249   21.7208 C   0  0  0  0  0  0  0  0  0  0  0  0
  -25.7812  -34.5806   26.1129 C   0  0  0  0  0  0  0  0  0  0  0  0
  -26.3702  -29.5503   21.6187 C   0  0  0  0  0  0  0  0  0  0  0  0
  -22.1661   -8.3413   21.7250 C   0  0  0  0  0  0  0  0  0  0  0  0
  -28.2282  -27.9981   21.8386 C   0  0  0  0  0  0  0  0  0  0  0  0
  -21.9944   -6.2714   22.8243 C   0  0  0  0  0  0  0  0  0  0  0  0
  -23.1711   -4.2896   24.3960 C   0  0  0  0  0  0  0  0  0  0  0  0
  -21.4404   -5.9417   24.0612 C   0  0  0  0  0  0  0  0  0  0  0  0
  -24.5139  -11.7200   20.7399 C   0  0  0  0  0  0  0  0  0  0  0  0
  -25.2331  -13.7660   20.3770 C   0  0  0  0  0  0  0  0  0  0  0  0
  -22.8651  -13.6468   21.1687 C   0  0  0  0  0  0  0  0  0  0  0  0
  -25.0604  -32.0880   23.4822 C   0  0  0  0  0  0  0  0  0  0  0  0
  -23.1876  -31.5425   20.8905 C   0  0  0  0  0  0  0  0  0  0  0  0
  -22.5812  -29.6829   18.0939 C   0  0  0  0  0  0  0  0  0  0  0  0
  -30.7654  -14.5972   20.6652 C   0  0  0  0  0  0  0  0  0  0  0  0
  -23.6932  -35.9968   26.4672 C   0  0  0  0  0  0  0  0  0  0  0  0
  -26.7681  -32.0415   21.6281 C   0  0  0  0  0  0  0  0  0  0  0  0
  -24.8893  -29.7651   21.4473 C   0  0  0  0  0  0  0  0  0  0  0  0
  -22.9596  -34.9734   25.6042 C   0  0  0  0  0  0  0  0  0  0  0  0
  -29.5524  -12.1605   18.2914 C   0  0  0  0  0  0  0  0  0  0  0  0
  -23.4641  -33.5648   25.9015 C   0  0  0  0  0  0  0  0  0  0  0  0
  -28.1084  -11.9196   18.7352 C   0  0  0  0  0  0  0  0  0  0  0  0
  -29.7521  -25.3659   20.2157 C   0  0  0  0  0  0  0  0  0  0  0  0
  -30.4727  -12.4518   19.4757 C   0  0  0  0  0  0  0  0  0  0  0  0
  -28.9057  -16.2131   21.5547 C   0  0  0  0  0  0  0  0  0  0  0  0
  -30.9103  -16.7664   22.0034 C   0  0  0  0  0  0  0  0  0  0  0  0
  -28.5762  -13.2890   20.8014 C   0  0  0  0  0  0  0  0  0  0  0  0
  -30.1005  -24.2315   21.1582 C   0  0  0  0  0  0  0  0  0  0  0  0
  -29.5726  -20.6549   21.7619 C   0  0  0  0  0  0  0  0  0  0  0  0
  -27.6848  -24.6334   21.2069 C   0  0  0  0  0  0  0  0  0  0  0  0
  -24.9561  -33.4325   25.5732 C   0  0  1  0  0  0  0  0  0  0  0  0
  -25.2957  -32.1838   22.0013 C   0  0  1  0  0  0  0  0  0  0  0  0
  -29.6299  -17.5644   21.7036 C   0  0  0  0  0  0  0  0  0  0  0  0
  -29.7207  -21.7881   22.8004 C   0  0  2  0  0  0  0  0  0  0  0  0
  -27.6038  -13.0643   19.6340 C   0  0  2  0  0  0  0  0  0  0  0  0
  -28.4368  -25.8821   20.7733 C   0  0  1  0  0  0  0  0  0  1  0  0
  -29.5044  -20.6714   23.8552 C   0  0  2  0  0  0  0  0  0  0  0  0
  -20.9548  -29.4507   16.1970 C   0  0  0  0  0  0  0  0  0  0  0  0
  -30.2718  -22.0197   25.8292 C   0  0  0  0  0  0  0  0  0  0  0  0
  -30.1055  -19.5207   26.0040 C   0  0  0  0  0  0  0  0  0  0  0  0
  -21.1862  -30.2145   22.7723 C   0  0  0  0  0  0  0  0  0  0  0  0
  -20.0884  -29.1899   20.7690 C   0  0  0  0  0  0  0  0  0  0  0  0
  -20.1601  -31.6710   21.0173 C   0  0  0  0  0  0  0  0  0  0  0  0
  -24.6765  -30.2324   16.0772 C   0  0  0  0  0  0  0  0  0  0  0  0
  -29.1331  -18.4821   22.8025 C   0  0  0  0  0  0  0  0  0  0  0  0
  -28.6862  -22.8934   22.7545 C   0  0  0  0  0  0  0  0  0  0  0  0
  -22.2814  -30.4210   20.4433 C   0  0  1  0  0  0  0  0  0  0  0  0
  -22.2539  -30.0862   16.6675 C   0  0  2  0  0  0  0  0  0  0  0  0
  -30.4087  -20.6964   25.0715 C   0  0  0  0  0  0  0  0  0  0  0  0
  -20.9566  -30.3697   21.2556 C   0  0  0  0  0  0  0  0  0  0  0  0
  -25.7758  -11.5634   20.3312 N   0  0  0  0  0  0  0  0  0  0  0  0
  -26.1862  -12.8253   20.1182 N   0  0  0  0  0  0  0  0  0  0  0  0
  -24.4515  -31.1685   21.3683 N   0  0  0  0  0  0  0  0  0  0  0  0
  -29.9324  -13.5369   20.2987 N   0  0  0  0  0  0  0  0  0  0  0  0
  -30.2270  -15.6211   21.4085 N   0  0  0  0  0  0  0  0  0  0  0  0
  -25.4783  -15.0836   20.2157 N   0  0  0  0  0  0  0  0  0  0  0  0
  -21.8297  -12.7889   21.5640 N   0  0  0  0  0  0  0  0  0  0  0  0
  -25.1494  -33.2971   24.1454 N   0  0  0  0  0  0  0  0  0  0  0  0
  -22.0951  -30.5948   19.0068 N   0  0  0  0  0  0  0  0  0  0  0  0
  -28.7625  -23.5768   21.4427 N   0  3  2  0  0  0  0  0  0  0  0  0
  -29.9652  -19.7066   22.8254 N   0  3  1  0  0  0  0  0  0  0  0  0
  -23.3454  -29.6619   15.7458 N   0  3  0  0  0  0  0  0  0  0  0  0
  -22.6611  -14.8842   21.1434 O   0  0  0  0  0  0  0  0  0  0  0  0
  -24.8148  -30.9981   23.9857 O   0  0  0  0  0  0  0  0  0  0  0  0
  -22.7913  -32.7080   20.8119 O   0  0  0  0  0  0  0  0  0  0  0  0
  -23.2026  -28.6593   18.3708 O   0  0  0  0  0  0  0  0  0  0  0  0
  -31.9514  -14.6462   20.3130 O   0  0  0  0  0  0  0  0  0  0  0  0
  -21.4110   -7.2543   22.0425 O   0  0  0  0  0  0  0  0  0  0  0  0
  -28.6953  -26.7119   21.9004 O   0  0  0  0  0  0  0  0  0  1  0  0
  -23.7354   -3.3370   25.1499 F   0  0  0  0  0  0  0  0  0  0  0  0
  -20.3423   -6.5726   24.4993 F   0  0  0  0  0  0  0  0  0  0  0  0
  1  2  1  0  0  0  0
  1  5  2  0  0  0  0
  2  6  2  0  0  0  0
  3  8  2  0  0  0  0
  3 15  1  0  0  0  0
  4  9  1  0  0  0  0
  4 15  2  0  0  0  0
  5 17  1  0  0  0  0
  6 19  1  0  0  0  0
  7 10  2  0  0  0  0
  7 18  1  0  0  0  0
  8 21  1  0  0  0  0
  9 21  2  0  0  0  0
 10 22  1  0  0  0  0
 11 12  2  0  0  0  0
 11 23  1  0  0  0  0
 12 24  1  0  0  0  0
 13 20  1  0  0  0  0
 13 22  2  0  0  0  0
 14 24  2  0  0  0  0
 14 25  1  0  0  0  0
 15 26  1  0  0  0  0
 16 26  1  0  0  0  0
 16 27  2  0  0  0  0
 16 28  1  0  0  0  0
 17 19  2  0  0  0  0
 17 33  1  0  0  0  0
 18 20  2  0  0  0  0
 18 34  1  0  0  0  0
 19 48  1  0  0  0  0
 20 35  1  0  0  0  0
 21 85  1  0  0  0  0
 22 86  1  0  0  0  0
 23 25  2  0  0  0  0
 23 85  1  0  0  0  0
 24 87  1  0  0  0  0
 25 88  1  0  0  0  0
 26 68  2  0  0  0  0
 27 69  1  0  0  0  0
 27 73  1  0  0  0  0
 28 74  1  0  0  0  0
 28 80  2  0  0  0  0
 29 49  1  0  0  0  0
 29 75  1  0  0  0  0
 29 81  2  0  0  0  0
 30 64  1  0  0  0  0
 30 70  1  0  0  0  0
 30 82  2  0  0  0  0
 31 65  1  0  0  0  0
 31 76  1  0  0  0  0
 31 83  2  0  0  0  0
 32 71  1  0  0  0  0
 32 72  1  0  0  0  0
 32 84  2  0  0  0  0
 33 36  1  0  0  0  0
 34 49  1  0  0  0  0
 35 70  1  0  0  0  0
 36 38  1  0  0  0  0
 37 39  1  0  0  0  0
 37 41  1  0  0  0  0
 38 48  1  0  0  0  0
 39 52  1  0  0  0  0
 40 45  1  0  0  0  0
 40 53  1  0  0  0  0
 41 71  1  0  0  0  0
 42 50  1  0  0  0  0
 42 72  1  0  0  0  0
 43 50  1  0  0  0  0
 43 72  1  0  0  0  0
 44 52  1  0  0  0  0
 44 71  1  0  0  0  0
 45 77  1  0  0  0  0
 46 51  1  0  0  0  0
 46 78  1  0  0  0  0
 47 53  1  0  0  0  0
 47 77  1  0  0  0  0
 48 75  1  0  0  0  0
 49 70  1  0  0  0  0
 50 62  1  0  0  0  0
 51 54  1  0  0  0  0
 51 63  1  0  0  0  0
 52 69  1  0  0  0  0
 53 86  1  0  0  0  0
 54 66  1  0  0  0  0
 54 78  1  0  0  0  0
 55 65  1  0  0  0  0
 56 66  1  0  0  0  0
 57 66  1  0  0  0  0
 58 67  1  0  0  0  0
 59 67  1  0  0  0  0
 60 67  1  0  0  0  0
 61 79  1  0  0  0  0
 62 78  1  0  0  0  0
 63 77  1  0  0  0  0
 64 67  1  0  0  0  0
 64 76  1  0  0  0  0
 65 79  1  0  0  0  0
 68 69  1  0  0  0  0
M  CHG  3  77   1  78   1  79   1
M  ISO  4  32 100  53 101  72 100  86 101
M  END
> <Batch ID>
0198

> <Smiles>
CNC(C)C(=O)NC(C(=O)N1Cc2cc([101O:1][101CH:1]3CCN(CC4CN(CC5C[100N:0]([100C:0](=O)N6CCCC(n7nc(-c8ccc(Oc9ccc(F)cc9F)cc8)c(C(N)=O)c7N)C6)C5)C4C(C)C)C3)ccc2CC1C(=O)NC1CCCc2ccccc21)C(C)(C)C

> <Shape>
0.332

> <Color>
0.194

> <Negative vol penalty>
0.000

$$$$

  -OEChem-04052323483D

 84 92  0     1  0  0  0  0  0999 V2000
  -26.6173  -37.3495   27.7416 C   0  0  0  0  0  0  0  0  0  0  0  0
  -25.6486  -36.3751   27.9597 C   0  0  0  0  0  0  0  0  0  0  0  0
  -22.7946  -10.1014   21.8736 C   0  0  0  0  0  0  0  0  0  0  0  0
  -24.0845   -9.2387   20.0219 C   0  0  0  0  0  0  0  0  0  0  0  0
  -27.0668  -37.6066   26.4471 C   0  0  0  0  0  0  0  0  0  0  0  0
  -25.1280  -35.6579   26.8831 C   0  0  0  0  0  0  0  0  0  0  0  0
  -22.5796  -29.1777   25.2015 C   0  0  0  0  0  0  0  0  0  0  0  0
  -22.1796   -8.8586   22.0243 C   0  0  0  0  0  0  0  0  0  0  0  0
  -23.4695   -7.9958   20.1726 C   0  0  0  0  0  0  0  0  0  0  0  0
  -21.4680  -28.5772   24.6119 C   0  0  0  0  0  0  0  0  0  0  0  0
  -22.9380   -5.8507   23.3696 C   0  0  0  0  0  0  0  0  0  0  0  0
  -22.8179   -5.3392   24.6617 C   0  0  0  0  0  0  0  0  0  0  0  0
  -22.3773  -29.0518   22.4285 C   0  0  0  0  0  0  0  0  0  0  0  0
  -20.4142   -5.2978   24.4218 C   0  0  0  0  0  0  0  0  0  0  0  0
  -23.7471  -10.2915   20.8724 C   0  0  0  0  0  0  0  0  0  0  0  0
  -25.5668  -12.0186   21.3343 C   0  0  0  0  0  0  0  0  0  0  0  0
  -26.5585  -36.8855   25.3552 C   0  0  0  0  0  0  0  0  0  0  0  0
  -23.5948  -29.7303   24.4076 C   0  0  0  0  0  0  0  0  0  0  0  0
  -25.5702  -35.9065   25.5726 C   0  0  0  0  0  0  0  0  0  0  0  0
  -23.5019  -29.6564   23.0105 C   0  0  0  0  0  0  0  0  0  0  0  0
  -22.5170   -7.8058   21.1738 C   0  0  0  0  0  0  0  0  0  0  0  0
  -21.3653  -28.5167   23.2252 C   0  0  0  0  0  0  0  0  0  0  0  0
  -21.7962   -6.0858   22.6035 C   0  0  0  0  0  0  0  0  0  0  0  0
  -21.5560   -5.0627   25.1878 C   0  0  0  0  0  0  0  0  0  0  0  0
  -20.5343   -5.8093   23.1296 C   0  0  0  0  0  0  0  0  0  0  0  0
  -24.3824  -11.5752   20.7160 C   0  0  0  0  0  0  0  0  0  0  0  0
  -25.7437  -13.2959   20.8613 C   0  0  0  0  0  0  0  0  0  0  0  0
  -26.4300  -11.3368   22.2539 C   0  0  0  0  0  0  0  0  0  0  0  0
  -24.7992  -32.6457   24.0152 C   0  0  0  0  0  0  0  0  0  0  0  0
  -26.9429  -31.0853   22.1465 C   0  0  0  0  0  0  0  0  0  0  0  0
  -27.6654  -28.3630   20.2194 C   0  0  0  0  0  0  0  0  0  0  0  0
  -23.9921  -18.2138   19.6097 C   0  0  0  0  0  0  0  0  0  0  0  0
  -27.0409  -37.2316   23.9688 C   0  0  0  0  0  0  0  0  0  0  0  0
  -24.8002  -30.3508   25.0591 C   0  0  0  0  0  0  0  0  0  0  0  0
  -24.5743  -30.2168   22.1136 C   0  0  0  0  0  0  0  0  0  0  0  0
  -26.7102  -36.1674   22.9255 C   0  0  0  0  0  0  0  0  0  0  0  0
  -23.4218  -15.7892   17.1319 C   0  0  0  0  0  0  0  0  0  0  0  0
  -25.2577  -35.7213   23.0599 C   0  0  0  0  0  0  0  0  0  0  0  0
  -23.7168  -14.4991   17.8965 C   0  0  0  0  0  0  0  0  0  0  0  0
  -22.6543  -16.7995   17.9864 C   0  0  0  0  0  0  0  0  0  0  0  0
  -22.0845  -19.6074   18.6915 C   0  0  0  0  0  0  0  0  0  0  0  0
  -24.3009  -20.6150   19.0918 C   0  0  0  0  0  0  0  0  0  0  0  0
  -23.5935  -15.8091   20.0494 C   0  0  0  0  0  0  0  0  0  0  0  0
  -21.4383  -20.6417   19.6077 C   0  0  0  0  0  0  0  0  0  0  0  0
  -23.6946  -21.6453   20.0306 C   0  0  0  0  0  0  0  0  0  0  0  0
  -24.9992  -35.0903   24.4334 C   0  0  1  0  0  0  0  0  0  0  0  0
  -25.5276  -31.3386   24.1521 C   0  0  1  0  0  0  0  0  0  0  0  0
  -24.4151  -14.7979   19.2350 C   0  0  1  0  0  0  0  0  0  0  0  0
  -29.4833  -27.3871   18.7910 C   0  0  0  0  0  0  0  0  0  0  0  0
  -26.2501  -33.0560   19.9225 C   0  0  0  0  0  0  0  0  0  0  0  0
  -27.3363  -31.4939   18.2952 C   0  0  0  0  0  0  0  0  0  0  0  0
  -28.6854  -32.5236   20.1234 C   0  0  0  0  0  0  0  0  0  0  0  0
  -27.8992  -25.9719   21.9476 C   0  0  0  0  0  0  0  0  0  0  0  0
  -21.6298  -22.9836   20.4465 C   0  0  0  0  0  0  0  0  0  0  0  0
  -18.9725  -25.9250   22.4002 C   0  0  0  0  0  0  0  0  0  0  0  0
  -21.2952  -24.7712   18.7465 C   0  0  0  0  0  0  0  0  0  0  0  0
  -19.4562  -24.3683   20.5078 C   0  0  0  0  0  0  0  0  0  0  0  0
  -19.6504  -26.8752   23.3676 C   0  0  0  0  0  0  0  0  0  1  0  0
  -27.0149  -30.7111   20.6858 C   0  0  1  0  0  0  0  0  0  0  0  0
  -28.8751  -27.4466   20.1836 C   0  0  2  0  0  0  0  0  0  0  0  0
  -20.5684  -23.7516   19.6402 C   0  0  2  0  0  0  0  0  0  0  0  0
  -27.3004  -31.9373   19.7733 C   0  0  0  0  0  0  0  0  0  0  0  0
  -23.8447  -12.4961   19.9117 N   0  0  0  0  0  0  0  0  0  0  0  0
  -24.6951  -13.5309   20.0214 N   0  0  0  0  0  0  0  0  0  0  0  0
  -25.7303  -30.8190   22.7981 N   0  0  0  0  0  0  0  0  0  0  0  0
  -23.3364  -17.0213   19.2690 N   0  0  0  0  0  0  0  0  0  0  0  0
  -23.4931  -19.3981   19.0475 N   0  0  0  0  0  0  0  0  0  0  0  0
  -26.6923  -14.2297   21.0861 N   0  0  0  0  0  0  0  0  0  0  0  0
  -26.1008  -10.0288   22.6349 N   0  0  0  0  0  0  0  0  0  0  0  0
  -25.5120  -33.7375   24.4727 N   0  0  0  0  0  0  0  0  0  0  0  0
  -28.0083  -29.6474   20.5854 N   0  0  0  0  0  0  0  0  0  0  0  0
  -22.2654  -21.9048   19.6148 N   0  3  0  0  0  0  0  0  0  0  0  0
  -20.3358  -25.5133   17.8941 N   0  3  0  0  0  0  0  0  0  0  0  0
  -28.4902  -26.0647   20.5878 N   0  3  0  0  0  0  0  0  0  0  0  0
  -19.9940  -25.3414   21.4875 N   0  3  0  0  0  0  0  0  0  0  0  0
  -27.4539  -11.8775   22.7365 O   0  0  0  0  0  0  0  0  0  0  0  0
  -23.6744  -32.6626   23.5292 O   0  0  0  0  0  0  0  0  0  0  0  0
  -27.9287  -31.5884   22.6912 O   0  0  0  0  0  0  0  0  0  0  0  0
  -26.5304  -27.9788   19.9461 O   0  0  0  0  0  0  0  0  0  0  0  0
  -24.9666  -18.2200   20.3725 O   0  0  0  0  0  0  0  0  0  0  0  0
  -21.9172   -6.5928   21.3206 O   0  0  0  0  0  0  0  0  0  0  0  0
  -20.2733  -27.9275   22.6430 O   0  0  0  0  0  0  0  0  0  1  0  0
  -21.4409   -4.5701   26.4280 F   0  0  0  0  0  0  0  0  0  0  0  0
  -19.4339   -6.0319   22.3981 F   0  0  0  0  0  0  0  0  0  0  0  0
  1  2  1  0  0  0  0
  1  5  2  0  0  0  0
  2  6  2  0  0  0  0
  3  8  2  0  0  0  0
  3 15  1  0  0  0  0
  4  9  1  0  0  0  0
  4 15  2  0  0  0  0
  5 17  1  0  0  0  0
  6 19  1  0  0  0  0
  7 10  2  0  0  0  0
  7 18  1  0  0  0  0
  8 21  1  0  0  0  0
  9 21  2  0  0  0  0
 10 22  1  0  0  0  0
 11 12  2  0  0  0  0
 11 23  1  0  0  0  0
 12 24  1  0  0  0  0
 13 20  1  0  0  0  0
 13 22  2  0  0  0  0
 14 24  2  0  0  0  0
 14 25  1  0  0  0  0
 15 26  1  0  0  0  0
 16 26  1  0  0  0  0
 16 27  2  0  0  0  0
 16 28  1  0  0  0  0
 17 19  2  0  0  0  0
 17 33  1  0  0  0  0
 18 20  2  0  0  0  0
 18 34  1  0  0  0  0
 19 46  1  0  0  0  0
 20 35  1  0  0  0  0
 21 81  1  0  0  0  0
 22 82  1  0  0  0  0
 23 25  2  0  0  0  0
 23 81  1  0  0  0  0
 24 83  1  0  0  0  0
 25 84  1  0  0  0  0
 26 63  2  0  0  0  0
 27 64  1  0  0  0  0
 27 68  1  0  0  0  0
 28 69  1  0  0  0  0
 28 76  2  0  0  0  0
 29 47  1  0  0  0  0
 29 70  1  0  0  0  0
 29 77  2  0  0  0  0
 30 59  1  0  0  0  0
 30 65  1  0  0  0  0
 30 78  2  0  0  0  0
 31 60  1  0  0  0  0
 31 71  1  0  0  0  0
 31 79  2  0  0  0  0
 32 66  1  0  0  0  0
 32 67  1  0  0  0  0
 32 80  2  0  0  0  0
 33 36  1  0  0  0  0
 34 47  1  0  0  0  0
 35 65  1  0  0  0  0
 36 38  1  0  0  0  0
 37 39  1  0  0  0  0
 37 40  1  0  0  0  0
 38 46  1  0  0  0  0
 39 48  1  0  0  0  0
 40 66  1  0  0  0  0
 41 44  1  0  0  0  0
 41 67  1  0  0  0  0
 42 45  1  0  0  0  0
 42 67  1  0  0  0  0
 43 48  1  0  0  0  0
 43 66  1  0  0  0  0
 44 72  1  0  0  0  0
 45 72  1  0  0  0  0
 46 70  1  0  0  0  0
 47 65  1  0  0  0  0
 48 64  1  0  0  0  0
 49 60  1  0  0  0  0
 50 62  1  0  0  0  0
 51 62  1  0  0  0  0
 52 62  1  0  0  0  0
 53 74  1  0  0  0  0
 54 61  1  0  0  0  0
 54 72  1  0  0  0  0
 55 58  1  0  0  0  0
 55 75  1  0  0  0  0
 56 61  1  0  0  0  0
 56 73  1  0  0  0  0
 57 61  1  0  0  0  0
 57 75  1  0  0  0  0
 58 82  1  0  0  0  0
 59 62  1  0  0  0  0
 59 71  1  0  0  0  0
 60 74  1  0  0  0  0
 63 64  1  0  0  0  0
M  CHG  4  72   1  73   1  74   1  75   1
M  ISO  4  32 100  58 101  67 100  82 101
M  END
> <Batch ID>
0198

> <Smiles>
CNC(C)C(=O)NC(C(=O)N1Cc2cc([101O:1][101CH2:1]CNCC(CN)CN3CC[100N:0]([100C:0](=O)N4CCCC(n5nc(-c6ccc(Oc7ccc(F)cc7F)cc6)c(C(N)=O)c5N)C4)CC3)ccc2CC1C(=O)NC1CCCc2ccccc21)C(C)(C)C

> <Shape>
0.271

> <Color>
0.095

> <Negative vol penalty>
0.000

$$$$

  -OEChem-04052323483D

 86 96  0     1  0  0  0  0  0999 V2000
  -17.5878  -31.1074   23.3728 C   0  0  0  0  0  0  0  0  0  0  0  0
  -18.8379  -30.5057   23.2694 C   0  0  0  0  0  0  0  0  0  0  0  0
  -24.2405  -13.1516   20.3377 C   0  0  0  0  0  0  0  0  0  0  0  0
  -26.5158  -12.6553   20.9808 C   0  0  0  0  0  0  0  0  0  0  0  0
  -16.4648  -30.3335   23.6624 C   0  0  0  0  0  0  0  0  0  0  0  0
  -18.9659  -29.1299   23.4566 C   0  0  0  0  0  0  0  0  0  0  0  0
  -21.9162  -26.9594   19.9595 C   0  0  0  0  0  0  0  0  0  0  0  0
  -23.9666  -11.7865   20.2530 C   0  0  0  0  0  0  0  0  0  0  0  0
  -26.2420  -11.2902   20.8962 C   0  0  0  0  0  0  0  0  0  0  0  0
  -23.2947  -27.1012   20.1124 C   0  0  0  0  0  0  0  0  0  0  0  0
  -23.2875   -9.2458   22.3782 C   0  0  0  0  0  0  0  0  0  0  0  0
  -22.1004   -8.7862   22.9484 C   0  0  0  0  0  0  0  0  0  0  0  0
  -23.4121  -24.8835   21.0543 C   0  0  0  0  0  0  0  0  0  0  0  0
  -21.3803   -7.9701   20.7914 C   0  0  0  0  0  0  0  0  0  0  0  0
  -28.1410  -27.9741   21.6465 C   0  0  0  0  0  0  0  0  0  0  0  0
  -25.5151  -13.5860   20.7015 C   0  0  0  0  0  0  0  0  0  0  0  0
  -25.6597  -15.8229   21.9193 C   0  0  0  0  0  0  0  0  0  0  0  0
  -16.5776  -28.9460   23.8438 C   0  0  0  0  0  0  0  0  0  0  0  0
  -21.2727  -25.7808   20.3636 C   0  0  0  0  0  0  0  0  0  0  0  0
  -17.8436  -28.3369   23.7503 C   0  0  0  0  0  0  0  0  0  0  0  0
  -22.0257  -24.7283   20.9031 C   0  0  0  0  0  0  0  0  0  0  0  0
  -29.4571  -27.6175   21.4818 C   0  0  0  0  0  0  0  0  0  0  0  0
  -24.9674  -10.8558   20.5323 C   0  0  0  0  0  0  0  0  0  0  0  0
  -24.0425  -26.0643   20.6626 C   0  0  0  0  0  0  0  0  0  0  0  0
  -23.5210   -9.0676   21.0146 C   0  0  0  0  0  0  0  0  0  0  0  0
  -21.1468   -8.1483   22.1551 C   0  0  0  0  0  0  0  0  0  0  0  0
  -22.5674   -8.4297   20.2212 C   0  0  0  0  0  0  0  0  0  0  0  0
  -25.7988  -14.9960   20.7885 C   0  0  0  0  0  0  0  0  0  0  0  0
  -29.4565  -26.7834   20.3479 C   0  0  0  0  0  0  0  0  0  0  0  0
  -26.0539  -17.0654   21.4866 C   0  0  0  0  0  0  0  0  0  0  0  0
  -25.2142  -15.4969   23.2425 C   0  0  0  0  0  0  0  0  0  0  0  0
  -19.0350  -25.0682   22.5057 C   0  0  0  0  0  0  0  0  0  0  0  0
  -19.2374  -22.1231   21.1612 C   0  0  0  0  0  0  0  0  0  0  0  0
  -21.0926  -19.8629   19.4014 C   0  0  0  0  0  0  0  0  0  0  0  0
  -29.7783  -20.1549   18.8391 C   0  0  0  0  0  0  0  0  0  0  0  0
  -15.3426  -28.1579   24.2019 C   0  0  0  0  0  0  0  0  0  0  0  0
  -19.7887  -25.6332   20.1672 C   0  0  0  0  0  0  0  0  0  0  0  0
  -21.3856  -23.4348   21.3340 C   0  0  0  0  0  0  0  0  0  0  0  0
  -15.5060  -26.6516   24.0160 C   0  0  0  0  0  0  0  0  0  0  0  0
  -26.9608  -18.8183   16.8507 C   0  0  0  0  0  0  0  0  0  0  0  0
  -30.9165  -29.5143   22.5516 C   0  0  0  0  0  0  0  0  0  0  0  0
  -31.8314  -28.7119   21.6803 C   0  0  0  0  0  0  0  0  0  0  0  0
  -16.8253  -26.1794   24.6187 C   0  0  0  0  0  0  0  0  0  0  0  0
  -26.4392  -17.7277   17.7810 C   0  0  0  0  0  0  0  0  0  0  0  0
  -29.5218  -24.0196   18.8453 C   0  0  0  0  0  0  0  0  0  0  0  0
  -28.4751  -18.9926   16.9602 C   0  0  0  0  0  0  0  0  0  0  0  0
  -28.4220  -18.1361   19.2880 C   0  0  0  0  0  0  0  0  0  0  0  0
  -30.6381  -28.0342   22.3371 C   0  0  0  0  0  0  0  0  0  0  0  0
  -18.0192  -26.8437   23.9222 C   0  0  1  0  0  0  0  0  0  0  0  0
  -19.1652  -24.5886   21.0877 C   0  0  1  0  0  0  0  0  0  0  0  0
  -26.8946  -17.9857   19.2250 C   0  0  2  0  0  0  0  0  0  0  0  0
  -30.5458  -23.4335   17.8582 C   0  0  2  0  0  0  0  0  0  0  0  0
  -30.2239  -25.3631   18.6028 C   0  0  2  0  0  0  0  0  0  0  0  0
  -21.0042  -17.5274   18.4877 C   0  0  0  0  0  0  0  0  0  0  0  0
  -19.6918  -21.0111   23.9660 C   0  0  0  0  0  0  0  0  0  0  0  0
  -20.5263  -18.8965   22.9170 C   0  0  0  0  0  0  0  0  0  0  0  0
  -18.1749  -19.6346   22.5312 C   0  0  0  0  0  0  0  0  0  0  0  0
  -21.4173  -20.8153   16.6182 C   0  0  0  0  0  0  0  0  0  0  0  0
  -31.2113  -22.1288   18.2387 C   0  0  0  0  0  0  0  0  0  0  0  0
  -25.9763  -27.4327   20.3880 C   0  0  0  0  0  0  0  0  0  1  0  0
  -20.0661  -20.8869   21.4144 C   0  0  1  0  0  0  0  0  0  0  0  0
  -20.7537  -18.9995   18.1997 C   0  0  2  0  0  0  0  0  0  0  0  0
  -19.6269  -20.1323   22.7009 C   0  0  0  0  0  0  0  0  0  0  0  0
  -26.2462  -15.6575   19.7179 N   0  0  0  0  0  0  0  0  0  0  0  0
  -28.2367  -26.6195   19.8289 N   0  0  0  0  0  0  0  0  0  0  0  0
  -27.4586  -27.3556   20.6406 N   0  0  0  0  0  0  0  0  0  0  0  0
  -26.3916  -16.9132   20.1740 N   0  0  0  0  0  0  0  0  0  0  0  0
  -19.9310  -23.3411   21.1274 N   0  0  0  0  0  0  0  0  0  0  0  0
  -28.9044  -19.1639   18.3573 N   0  0  0  0  0  0  0  0  0  0  0  0
  -26.1411  -18.2624   22.1047 N   0  0  0  0  0  0  0  0  0  0  0  0
  -24.8470  -14.1724   23.5166 N   0  0  0  0  0  0  0  0  0  0  0  0
  -18.2739  -26.2131   22.6447 N   0  0  0  0  0  0  0  0  0  0  0  0
  -19.9887  -20.0871   20.1967 N   0  0  0  0  0  0  0  0  0  0  0  0
  -30.2769  -21.0397   17.8880 N   0  0  0  0  0  0  0  0  0  0  0  0
  -31.4013  -24.6070   18.1296 N   0  3  0  0  0  0  0  0  0  0  0  0
  -21.5825  -19.3965   17.0264 N   0  3  0  0  0  0  0  0  0  0  0  0
  -25.1281  -16.3582   24.1504 O   0  0  0  0  0  0  0  0  0  0  0  0
  -19.5831  -24.4447   23.4071 O   0  0  0  0  0  0  0  0  0  0  0  0
  -18.0206  -22.0113   20.9922 O   0  0  0  0  0  0  0  0  0  0  0  0
  -22.2241  -20.2922   19.6153 O   0  0  0  0  0  0  0  0  0  0  0  0
  -30.1010  -20.2459   20.0286 O   0  0  0  0  0  0  0  0  0  0  0  0
  -24.7004   -9.5237   20.4501 O   0  0  0  0  0  0  0  0  0  0  0  0
  -25.3880  -26.2002   20.8136 O   0  0  0  0  0  0  0  0  0  1  0  0
  -30.4921  -26.1674   19.7608 O   0  0  0  0  0  0  0  0  0  0  0  0
  -20.0076   -7.7057   22.7031 F   0  0  0  0  0  0  0  0  0  0  0  0
  -22.7866   -8.2545   18.9108 F   0  0  0  0  0  0  0  0  0  0  0  0
  1  2  1  0  0  0  0
  1  5  2  0  0  0  0
  2  6  2  0  0  0  0
  3  8  2  0  0  0  0
  3 16  1  0  0  0  0
  4  9  1  0  0  0  0
  4 16  2  0  0  0  0
  5 18  1  0  0  0  0
  6 20  1  0  0  0  0
  7 10  2  0  0  0  0
  7 19  1  0  0  0  0
  8 23  1  0  0  0  0
  9 23  2  0  0  0  0
 10 24  1  0  0  0  0
 11 12  2  0  0  0  0
 11 25  1  0  0  0  0
 12 26  1  0  0  0  0
 13 21  1  0  0  0  0
 13 24  2  0  0  0  0
 14 26  2  0  0  0  0
 14 27  1  0  0  0  0
 15 22  2  0  0  0  0
 15 66  1  0  0  0  0
 16 28  1  0  0  0  0
 17 28  1  0  0  0  0
 17 30  2  0  0  0  0
 17 31  1  0  0  0  0
 18 20  2  0  0  0  0
 18 36  1  0  0  0  0
 19 21  2  0  0  0  0
 19 37  1  0  0  0  0
 20 49  1  0  0  0  0
 21 38  1  0  0  0  0
 22 29  1  0  0  0  0
 22 48  1  0  0  0  0
 23 82  1  0  0  0  0
 24 83  1  0  0  0  0
 25 27  2  0  0  0  0
 25 82  1  0  0  0  0
 26 85  1  0  0  0  0
 27 86  1  0  0  0  0
 28 64  2  0  0  0  0
 29 65  2  0  0  0  0
 29 84  1  0  0  0  0
 30 67  1  0  0  0  0
 30 70  1  0  0  0  0
 31 71  1  0  0  0  0
 31 77  2  0  0  0  0
 32 50  1  0  0  0  0
 32 72  1  0  0  0  0
 32 78  2  0  0  0  0
 33 61  1  0  0  0  0
 33 68  1  0  0  0  0
 33 79  2  0  0  0  0
 34 62  1  0  0  0  0
 34 73  1  0  0  0  0
 34 80  2  0  0  0  0
 35 69  1  0  0  0  0
 35 74  1  0  0  0  0
 35 81  2  0  0  0  0
 36 39  1  0  0  0  0
 37 50  1  0  0  0  0
 38 68  1  0  0  0  0
 39 43  1  0  0  0  0
 40 44  1  0  0  0  0
 40 46  1  0  0  0  0
 41 42  1  0  0  0  0
 41 48  1  0  0  0  0
 42 48  1  0  0  0  0
 43 49  1  0  0  0  0
 44 51  1  0  0  0  0
 45 52  1  0  0  0  0
 45 53  1  0  0  0  0
 46 69  1  0  0  0  0
 47 51  1  0  0  0  0
 47 69  1  0  0  0  0
 49 72  1  0  0  0  0
 50 68  1  0  0  0  0
 51 67  1  0  0  0  0
 52 59  1  0  0  0  0
 52 75  1  0  0  0  0
 53 75  1  0  0  0  0
 53 84  1  0  0  0  0
 54 62  1  0  0  0  0
 55 63  1  0  0  0  0
 56 63  1  0  0  0  0
 57 63  1  0  0  0  0
 58 76  1  0  0  0  0
 59 74  1  0  0  0  0
 60 66  1  0  0  0  0
 60 83  1  0  0  0  0
 61 63  1  0  0  0  0
 61 73  1  0  0  0  0
 62 76  1  0  0  0  0
 64 67  1  0  0  0  0
 65 66  1  0  0  0  0
M  CHG  2  75   1  76   1
M  ISO  4  35 100  60 101  74 100  83 101
M  END
> <Batch ID>
0198

> <Smiles>
CNC(C)C(=O)NC(C(=O)N1Cc2cc([101O:1][101CH2:1]n3cc(C4CC4)c(OC4CC(C[100NH:0][100C:0](=O)N5CCCC(n6nc(-c7ccc(Oc8ccc(F)cc8F)cc7)c(C(N)=O)c6N)C5)N4)n3)ccc2CC1C(=O)NC1CCCc2ccccc21)C(C)(C)C

> <Shape>
0.218

> <Color>
0.076

> <Negative vol penalty>
0.000

$$$$
